# Generated by pormake.
# Topology gar, (4,6)-cn, num edge types: 1
# Building blocks:
#     Node 0, Type 0, BuildingBlock: KUFVIS_clean_sbu_0, # of connection points: 4
#     Node 1, Type 0, BuildingBlock: KUFVIS_clean_sbu_0, # of connection points: 4
#     Node 2, Type 0, BuildingBlock: KUFVIS_clean_sbu_0, # of connection points: 4
#     Node 3, Type 0, BuildingBlock: KUFVIS_clean_sbu_0, # of connection points: 4
#     Node 4, Type 0, BuildingBlock: KUFVIS_clean_sbu_0, # of connection points: 4
#     Node 5, Type 0, BuildingBlock: KUFVIS_clean_sbu_0, # of connection points: 4
#     Node 6, Type 0, BuildingBlock: KUFVIS_clean_sbu_0, # of connection points: 4
#     Node 7, Type 0, BuildingBlock: KUFVIS_clean_sbu_0, # of connection points: 4
#     Node 8, Type 0, BuildingBlock: KUFVIS_clean_sbu_0, # of connection points: 4
#     Node 9, Type 0, BuildingBlock: KUFVIS_clean_sbu_0, # of connection points: 4
#     Node 10, Type 0, BuildingBlock: KUFVIS_clean_sbu_0, # of connection points: 4
#     Node 11, Type 0, BuildingBlock: KUFVIS_clean_sbu_0, # of connection points: 4
#     Node 12, Type 0, BuildingBlock: KUFVIS_clean_sbu_0, # of connection points: 4
#     Node 13, Type 0, BuildingBlock: KUFVIS_clean_sbu_0, # of connection points: 4
#     Node 14, Type 0, BuildingBlock: KUFVIS_clean_sbu_0, # of connection points: 4
#     Node 15, Type 0, BuildingBlock: KUFVIS_clean_sbu_0, # of connection points: 4
#     Node 16, Type 0, BuildingBlock: KUFVIS_clean_sbu_0, # of connection points: 4
#     Node 17, Type 0, BuildingBlock: KUFVIS_clean_sbu_0, # of connection points: 4
#     Node 18, Type 0, BuildingBlock: KUFVIS_clean_sbu_0, # of connection points: 4
#     Node 19, Type 0, BuildingBlock: KUFVIS_clean_sbu_0, # of connection points: 4
#     Node 20, Type 0, BuildingBlock: KUFVIS_clean_sbu_0, # of connection points: 4
#     Node 21, Type 0, BuildingBlock: KUFVIS_clean_sbu_0, # of connection points: 4
#     Node 22, Type 0, BuildingBlock: KUFVIS_clean_sbu_0, # of connection points: 4
#     Node 23, Type 0, BuildingBlock: KUFVIS_clean_sbu_0, # of connection points: 4
#     Node 24, Type 1, BuildingBlock: BETDEL_clean_sbu_0, # of connection points: 6
#     Node 25, Type 1, BuildingBlock: BETDEL_clean_sbu_0, # of connection points: 6
#     Node 26, Type 1, BuildingBlock: BETDEL_clean_sbu_0, # of connection points: 6
#     Node 27, Type 1, BuildingBlock: BETDEL_clean_sbu_0, # of connection points: 6
#     Node 28, Type 1, BuildingBlock: BETDEL_clean_sbu_0, # of connection points: 6
#     Node 29, Type 1, BuildingBlock: BETDEL_clean_sbu_0, # of connection points: 6
#     Node 30, Type 1, BuildingBlock: BETDEL_clean_sbu_0, # of connection points: 6
#     Node 31, Type 1, BuildingBlock: BETDEL_clean_sbu_0, # of connection points: 6
#     Node 32, Type 1, BuildingBlock: BETDEL_clean_sbu_0, # of connection points: 6
#     Node 33, Type 1, BuildingBlock: BETDEL_clean_sbu_0, # of connection points: 6
#     Node 34, Type 1, BuildingBlock: BETDEL_clean_sbu_0, # of connection points: 6
#     Node 35, Type 1, BuildingBlock: BETDEL_clean_sbu_0, # of connection points: 6
#     Node 36, Type 1, BuildingBlock: BETDEL_clean_sbu_0, # of connection points: 6
#     Node 37, Type 1, BuildingBlock: BETDEL_clean_sbu_0, # of connection points: 6
#     Node 38, Type 1, BuildingBlock: BETDEL_clean_sbu_0, # of connection points: 6
#     Node 39, Type 1, BuildingBlock: BETDEL_clean_sbu_0, # of connection points: 6
#     Edge 40, Type (0, 1), BuildingBlock: ZUJKAS_clean_linker_0, # of connection points: 2
#     Edge 41, Type (0, 1), BuildingBlock: ZUJKAS_clean_linker_0, # of connection points: 2
#     Edge 42, Type (0, 1), BuildingBlock: ZUJKAS_clean_linker_0, # of connection points: 2
#     Edge 43, Type (0, 1), BuildingBlock: ZUJKAS_clean_linker_0, # of connection points: 2
#     Edge 44, Type (0, 1), BuildingBlock: ZUJKAS_clean_linker_0, # of connection points: 2
#     Edge 45, Type (0, 1), BuildingBlock: ZUJKAS_clean_linker_0, # of connection points: 2
#     Edge 46, Type (0, 1), BuildingBlock: ZUJKAS_clean_linker_0, # of connection points: 2
#     Edge 47, Type (0, 1), BuildingBlock: ZUJKAS_clean_linker_0, # of connection points: 2
#     Edge 48, Type (0, 1), BuildingBlock: ZUJKAS_clean_linker_0, # of connection points: 2
#     Edge 49, Type (0, 1), BuildingBlock: ZUJKAS_clean_linker_0, # of connection points: 2
#     Edge 50, Type (0, 1), BuildingBlock: ZUJKAS_clean_linker_0, # of connection points: 2
#     Edge 51, Type (0, 1), BuildingBlock: ZUJKAS_clean_linker_0, # of connection points: 2
#     Edge 52, Type (0, 1), BuildingBlock: ZUJKAS_clean_linker_0, # of connection points: 2
#     Edge 53, Type (0, 1), BuildingBlock: ZUJKAS_clean_linker_0, # of connection points: 2
#     Edge 54, Type (0, 1), BuildingBlock: ZUJKAS_clean_linker_0, # of connection points: 2
#     Edge 55, Type (0, 1), BuildingBlock: ZUJKAS_clean_linker_0, # of connection points: 2
#     Edge 56, Type (0, 1), BuildingBlock: ZUJKAS_clean_linker_0, # of connection points: 2
#     Edge 57, Type (0, 1), BuildingBlock: ZUJKAS_clean_linker_0, # of connection points: 2
#     Edge 58, Type (0, 1), BuildingBlock: ZUJKAS_clean_linker_0, # of connection points: 2
#     Edge 59, Type (0, 1), BuildingBlock: ZUJKAS_clean_linker_0, # of connection points: 2
#     Edge 60, Type (0, 1), BuildingBlock: ZUJKAS_clean_linker_0, # of connection points: 2
#     Edge 61, Type (0, 1), BuildingBlock: ZUJKAS_clean_linker_0, # of connection points: 2
#     Edge 62, Type (0, 1), BuildingBlock: ZUJKAS_clean_linker_0, # of connection points: 2
#     Edge 63, Type (0, 1), BuildingBlock: ZUJKAS_clean_linker_0, # of connection points: 2
#     Edge 64, Type (0, 1), BuildingBlock: ZUJKAS_clean_linker_0, # of connection points: 2
#     Edge 65, Type (0, 1), BuildingBlock: ZUJKAS_clean_linker_0, # of connection points: 2
#     Edge 66, Type (0, 1), BuildingBlock: ZUJKAS_clean_linker_0, # of connection points: 2
#     Edge 67, Type (0, 1), BuildingBlock: ZUJKAS_clean_linker_0, # of connection points: 2
#     Edge 68, Type (0, 1), BuildingBlock: ZUJKAS_clean_linker_0, # of connection points: 2
#     Edge 69, Type (0, 1), BuildingBlock: ZUJKAS_clean_linker_0, # of connection points: 2
#     Edge 70, Type (0, 1), BuildingBlock: ZUJKAS_clean_linker_0, # of connection points: 2
#     Edge 71, Type (0, 1), BuildingBlock: ZUJKAS_clean_linker_0, # of connection points: 2
#     Edge 72, Type (0, 1), BuildingBlock: ZUJKAS_clean_linker_0, # of connection points: 2
#     Edge 73, Type (0, 1), BuildingBlock: ZUJKAS_clean_linker_0, # of connection points: 2
#     Edge 74, Type (0, 1), BuildingBlock: ZUJKAS_clean_linker_0, # of connection points: 2
#     Edge 75, Type (0, 1), BuildingBlock: ZUJKAS_clean_linker_0, # of connection points: 2
#     Edge 76, Type (0, 1), BuildingBlock: ZUJKAS_clean_linker_0, # of connection points: 2
#     Edge 77, Type (0, 1), BuildingBlock: ZUJKAS_clean_linker_0, # of connection points: 2
#     Edge 78, Type (0, 1), BuildingBlock: ZUJKAS_clean_linker_0, # of connection points: 2
#     Edge 79, Type (0, 1), BuildingBlock: ZUJKAS_clean_linker_0, # of connection points: 2
#     Edge 80, Type (0, 1), BuildingBlock: ZUJKAS_clean_linker_0, # of connection points: 2
#     Edge 81, Type (0, 1), BuildingBlock: ZUJKAS_clean_linker_0, # of connection points: 2
#     Edge 82, Type (0, 1), BuildingBlock: ZUJKAS_clean_linker_0, # of connection points: 2
#     Edge 83, Type (0, 1), BuildingBlock: ZUJKAS_clean_linker_0, # of connection points: 2
#     Edge 84, Type (0, 1), BuildingBlock: ZUJKAS_clean_linker_0, # of connection points: 2
#     Edge 85, Type (0, 1), BuildingBlock: ZUJKAS_clean_linker_0, # of connection points: 2
#     Edge 86, Type (0, 1), BuildingBlock: ZUJKAS_clean_linker_0, # of connection points: 2
#     Edge 87, Type (0, 1), BuildingBlock: ZUJKAS_clean_linker_0, # of connection points: 2
#     Edge 88, Type (0, 1), BuildingBlock: ZUJKAS_clean_linker_0, # of connection points: 2
#     Edge 89, Type (0, 1), BuildingBlock: ZUJKAS_clean_linker_0, # of connection points: 2
#     Edge 90, Type (0, 1), BuildingBlock: ZUJKAS_clean_linker_0, # of connection points: 2
#     Edge 91, Type (0, 1), BuildingBlock: ZUJKAS_clean_linker_0, # of connection points: 2
#     Edge 92, Type (0, 1), BuildingBlock: ZUJKAS_clean_linker_0, # of connection points: 2
#     Edge 93, Type (0, 1), BuildingBlock: ZUJKAS_clean_linker_0, # of connection points: 2
#     Edge 94, Type (0, 1), BuildingBlock: ZUJKAS_clean_linker_0, # of connection points: 2
#     Edge 95, Type (0, 1), BuildingBlock: ZUJKAS_clean_linker_0, # of connection points: 2
#     Edge 96, Type (0, 1), BuildingBlock: ZUJKAS_clean_linker_0, # of connection points: 2
#     Edge 97, Type (0, 1), BuildingBlock: ZUJKAS_clean_linker_0, # of connection points: 2
#     Edge 98, Type (0, 1), BuildingBlock: ZUJKAS_clean_linker_0, # of connection points: 2
#     Edge 99, Type (0, 1), BuildingBlock: ZUJKAS_clean_linker_0, # of connection points: 2
#     Edge 100, Type (0, 1), BuildingBlock: ZUJKAS_clean_linker_0, # of connection points: 2
#     Edge 101, Type (0, 1), BuildingBlock: ZUJKAS_clean_linker_0, # of connection points: 2
#     Edge 102, Type (0, 1), BuildingBlock: ZUJKAS_clean_linker_0, # of connection points: 2
#     Edge 103, Type (0, 1), BuildingBlock: ZUJKAS_clean_linker_0, # of connection points: 2
#     Edge 104, Type (0, 1), BuildingBlock: ZUJKAS_clean_linker_0, # of connection points: 2
#     Edge 105, Type (0, 1), BuildingBlock: ZUJKAS_clean_linker_0, # of connection points: 2
#     Edge 106, Type (0, 1), BuildingBlock: ZUJKAS_clean_linker_0, # of connection points: 2
#     Edge 107, Type (0, 1), BuildingBlock: ZUJKAS_clean_linker_0, # of connection points: 2
#     Edge 108, Type (0, 1), BuildingBlock: ZUJKAS_clean_linker_0, # of connection points: 2
#     Edge 109, Type (0, 1), BuildingBlock: ZUJKAS_clean_linker_0, # of connection points: 2
#     Edge 110, Type (0, 1), BuildingBlock: ZUJKAS_clean_linker_0, # of connection points: 2
#     Edge 111, Type (0, 1), BuildingBlock: ZUJKAS_clean_linker_0, # of connection points: 2
#     Edge 112, Type (0, 1), BuildingBlock: ZUJKAS_clean_linker_0, # of connection points: 2
#     Edge 113, Type (0, 1), BuildingBlock: ZUJKAS_clean_linker_0, # of connection points: 2
#     Edge 114, Type (0, 1), BuildingBlock: ZUJKAS_clean_linker_0, # of connection points: 2
#     Edge 115, Type (0, 1), BuildingBlock: ZUJKAS_clean_linker_0, # of connection points: 2
#     Edge 116, Type (0, 1), BuildingBlock: ZUJKAS_clean_linker_0, # of connection points: 2
#     Edge 117, Type (0, 1), BuildingBlock: ZUJKAS_clean_linker_0, # of connection points: 2
#     Edge 118, Type (0, 1), BuildingBlock: ZUJKAS_clean_linker_0, # of connection points: 2
#     Edge 119, Type (0, 1), BuildingBlock: ZUJKAS_clean_linker_0, # of connection points: 2
#     Edge 120, Type (0, 1), BuildingBlock: ZUJKAS_clean_linker_0, # of connection points: 2
#     Edge 121, Type (0, 1), BuildingBlock: ZUJKAS_clean_linker_0, # of connection points: 2
#     Edge 122, Type (0, 1), BuildingBlock: ZUJKAS_clean_linker_0, # of connection points: 2
#     Edge 123, Type (0, 1), BuildingBlock: ZUJKAS_clean_linker_0, # of connection points: 2
#     Edge 124, Type (0, 1), BuildingBlock: ZUJKAS_clean_linker_0, # of connection points: 2
#     Edge 125, Type (0, 1), BuildingBlock: ZUJKAS_clean_linker_0, # of connection points: 2
#     Edge 126, Type (0, 1), BuildingBlock: ZUJKAS_clean_linker_0, # of connection points: 2
#     Edge 127, Type (0, 1), BuildingBlock: ZUJKAS_clean_linker_0, # of connection points: 2
#     Edge 128, Type (0, 1), BuildingBlock: ZUJKAS_clean_linker_0, # of connection points: 2
#     Edge 129, Type (0, 1), BuildingBlock: ZUJKAS_clean_linker_0, # of connection points: 2
#     Edge 130, Type (0, 1), BuildingBlock: ZUJKAS_clean_linker_0, # of connection points: 2
#     Edge 131, Type (0, 1), BuildingBlock: ZUJKAS_clean_linker_0, # of connection points: 2
#     Edge 132, Type (0, 1), BuildingBlock: ZUJKAS_clean_linker_0, # of connection points: 2
#     Edge 133, Type (0, 1), BuildingBlock: ZUJKAS_clean_linker_0, # of connection points: 2
#     Edge 134, Type (0, 1), BuildingBlock: ZUJKAS_clean_linker_0, # of connection points: 2
#     Edge 135, Type (0, 1), BuildingBlock: ZUJKAS_clean_linker_0, # of connection points: 2
# Relax obj value: 0.135
# Max RMSD: 0.262
# Mean RMSD: 0.137
data_MOF--net-gar--node1-KUFVIS_clean_sbu_0--node2-BETDEL_clean_sbu_0--edge1-ZUJKAS_clean_linker_0
_symmetry_space_group_name_H-M    P1
_symmetry_Int_Tables_number       1
_symmetry_cell_setting            triclinic
loop_
_symmetry_equiv_pos_as_xyz
'x, y, z'
_cell_length_a     70.743965
_cell_length_b     68.269687
_cell_length_c     71.261179
_cell_angle_alpha  95.071878
_cell_angle_beta   92.613334
_cell_angle_gamma 100.40007
loop_
_atom_site_label
_atom_site_type_symbol
_atom_site_fract_x
_atom_site_fract_y
_atom_site_fract_z
_atom_type_partial_charge
Mn0 Mn 0.02053 0.27468 0.39895 0.0
Mn1 Mn 0.01417 0.30072 0.36151 0.0
C2 C 0.99002 0.28014 0.39016 0.0
C3 C 0.0232 0.24549 0.41298 0.0
C4 C 0.03005 0.3205 0.40011 0.0
O5 O 0.04529 0.27419 0.38532 0.0
O6 O 0.03885 0.29081 0.36064 0.0
C7 C 0.00996 0.2669 0.33165 0.0
N8 N 0.00308 0.28254 0.34029 0.0
C9 C 0.97583 0.27724 0.31776 0.0
C10 C 0.98267 0.26114 0.30855 0.0
C11 C 0.99977 0.2559 0.31558 0.0
C12 C 0.98654 0.28756 0.33377 0.0
H13 H 0.02312 0.26286 0.33697 0.0
C14 C 0.04961 0.28121 0.36972 0.0
O15 O 0.03099 0.2631 0.42086 0.0
O16 O 0.01413 0.24468 0.39655 0.0
N17 N 0.99093 0.31131 0.35988 0.0
C18 C 0.98597 0.32684 0.37071 0.0
C19 C 0.96929 0.33403 0.36553 0.0
C20 C 0.95802 0.32536 0.34914 0.0
C21 C 0.9634 0.30943 0.3382 0.0
C22 C 0.98029 0.30304 0.34395 0.0
H23 H 0.9947 0.33374 0.3832 0.0
O24 O 0.99406 0.2759 0.4071 0.0
O25 O 0.00379 0.28066 0.37857 0.0
O26 O 0.0293 0.30432 0.4079 0.0
O27 O 0.02509 0.32092 0.38272 0.0
C28 C 0.95257 0.2995 0.32192 0.0
C29 C 0.95871 0.28333 0.31177 0.0
H30 H 0.97487 0.25263 0.29613 0.0
H31 H 0.00511 0.24345 0.30859 0.0
H32 H 0.96518 0.34629 0.37408 0.0
H33 H 0.94523 0.33102 0.34511 0.0
H34 H 0.93937 0.30402 0.31721 0.0
H35 H 0.95014 0.27565 0.29941 0.0
Mn36 Mn 0.00039 0.77841 0.63121 0.0
Mn37 Mn 0.01572 0.81573 0.66578 0.0
C38 C 0.03263 0.78612 0.64168 0.0
C39 C 0.98825 0.7451 0.62023 0.0
C40 C 0.00671 0.82299 0.62531 0.0
O41 O 0.97537 0.78223 0.64306 0.0
O42 O 0.98746 0.80665 0.66605 0.0
C43 C 0.00744 0.79299 0.6989 0.0
N44 N 0.02015 0.80486 0.68902 0.0
C45 C 0.0453 0.80727 0.71345 0.0
C46 C 0.03248 0.79512 0.72392 0.0
C47 C 0.0135 0.78785 0.71655 0.0
C48 C 0.03851 0.81167 0.69584 0.0
H49 H 0.99278 0.78755 0.69338 0.0
C50 C 0.97338 0.79426 0.65732 0.0
O51 O 0.98626 0.75964 0.61021 0.0
O52 O 0.99657 0.74995 0.63705 0.0
N53 N 0.04284 0.82578 0.66743 0.0
C54 C 0.05369 0.83623 0.65502 0.0
C55 C 0.07323 0.84395 0.65994 0.0
C56 C 0.08129 0.8412 0.67769 0.0
C57 C 0.06978 0.83048 0.69025 0.0
C58 C 0.0505 0.82286 0.68445 0.0
H59 H 0.04747 0.83866 0.6415 0.0
O60 O 0.02737 0.77706 0.62498 0.0
O61 O 0.01884 0.79048 0.65182 0.0
O62 O 0.00203 0.80462 0.61903 0.0
O63 O 0.01192 0.82884 0.64258 0.0
C64 C 0.07668 0.82702 0.7083 0.0
C65 C 0.06454 0.81521 0.71979 0.0
H66 H 0.03707 0.79125 0.7376 0.0
H67 H 0.00352 0.77844 0.72453 0.0
H68 H 0.08202 0.85219 0.65016 0.0
H69 H 0.09633 0.8473 0.68149 0.0
H70 H 0.09142 0.83312 0.71337 0.0
H71 H 0.07015 0.81229 0.73345 0.0
Mn72 Mn 0.52328 0.77589 0.89669 0.0
Mn73 Mn 0.52695 0.80431 0.85996 0.0
C74 C 0.49593 0.78509 0.88332 0.0
C75 C 0.52083 0.74572 0.91048 0.0
C76 C 0.5371 0.82151 0.90034 0.0
O77 O 0.54967 0.77299 0.88733 0.0
O78 O 0.55012 0.79231 0.86337 0.0
C79 C 0.52575 0.77132 0.82975 0.0
N80 N 0.5188 0.7875 0.83712 0.0
C81 C 0.49815 0.7868 0.80924 0.0
C82 C 0.50509 0.77014 0.8013 0.0
C83 C 0.51883 0.76225 0.81168 0.0
C84 C 0.50517 0.79481 0.82751 0.0
H85 H 0.53659 0.76548 0.83754 0.0
C86 C 0.55775 0.78093 0.87349 0.0
O87 O 0.52857 0.76276 0.91954 0.0
O88 O 0.51438 0.74604 0.89312 0.0
N89 N 0.50582 0.81715 0.85428 0.0
C90 C 0.50049 0.83312 0.86408 0.0
C91 C 0.48697 0.8429 0.85565 0.0
C92 C 0.47957 0.83657 0.83705 0.0
C93 C 0.48538 0.82017 0.82719 0.0
C94 C 0.49857 0.81077 0.83646 0.0
H95 H 0.50667 0.83849 0.87813 0.0
O96 O 0.49631 0.77976 0.90036 0.0
O97 O 0.51138 0.78434 0.87421 0.0
O98 O 0.53335 0.80484 0.90736 0.0
O99 O 0.53541 0.82318 0.88269 0.0
C100 C 0.47872 0.81288 0.80847 0.0
C101 C 0.48481 0.79598 0.79964 0.0
H102 H 0.50002 0.76333 0.78724 0.0
H103 H 0.52426 0.74941 0.80566 0.0
H104 H 0.48257 0.85554 0.86333 0.0
H105 H 0.46938 0.84436 0.83048 0.0
H106 H 0.46868 0.82 0.80083 0.0
H107 H 0.4793 0.79031 0.78538 0.0
Mn108 Mn 0.49873 0.27273 0.12911 0.0
Mn109 Mn 0.46166 0.26125 0.09604 0.0
C110 C 0.48676 0.23974 0.11788 0.0
C111 C 0.53169 0.28001 0.13794 0.0
C112 C 0.45667 0.27348 0.13726 0.0
O113 O 0.49876 0.29939 0.11801 0.0
O114 O 0.47462 0.28952 0.09544 0.0
C115 C 0.48345 0.26439 0.06158 0.0
N116 N 0.4708 0.25341 0.07219 0.0
C117 C 0.46675 0.22476 0.04913 0.0
C118 C 0.47965 0.23581 0.03791 0.0
C119 C 0.48804 0.25571 0.04417 0.0
C120 C 0.46257 0.23427 0.06626 0.0
H121 H 0.49002 0.27965 0.06637 0.0
C122 C 0.48817 0.30277 0.10403 0.0
O123 O 0.51905 0.28491 0.14924 0.0
O124 O 0.52525 0.27194 0.12117 0.0
N125 N 0.44832 0.23411 0.09505 0.0
C126 C 0.43722 0.22509 0.10813 0.0
C127 C 0.42836 0.2049 0.10436 0.0
C128 C 0.43094 0.19422 0.08719 0.0
C129 C 0.44231 0.20386 0.0739 0.0
C130 C 0.45065 0.22406 0.07836 0.0
H131 H 0.43528 0.23318 0.1214 0.0
O132 O 0.49599 0.244 0.1343 0.0
O133 O 0.48457 0.25487 0.10875 0.0
O134 O 0.47434 0.27544 0.14289 0.0
O135 O 0.45055 0.26861 0.12004 0.0
C136 C 0.44607 0.19408 0.05659 0.0
C137 C 0.45826 0.20453 0.04421 0.0
H138 H 0.48337 0.22912 0.02455 0.0
H139 H 0.49809 0.2643 0.03564 0.0
H140 H 0.41965 0.19755 0.11471 0.0
H141 H 0.42426 0.17859 0.08442 0.0
H142 H 0.43989 0.17845 0.0528 0.0
H143 H 0.46127 0.19677 0.03107 0.0
Mn144 Mn 0.02788 0.78893 0.14371 0.0
Mn145 Mn 0.99303 0.76764 0.11041 0.0
C146 C 0.02189 0.75452 0.13607 0.0
C147 C 0.0597 0.80319 0.15334 0.0
C148 C 0.98491 0.78325 0.1499 0.0
O149 O 0.02323 0.81263 0.12957 0.0
O150 O 0.00189 0.79615 0.10639 0.0
C151 C 0.01578 0.76934 0.07652 0.0
N152 N 0.00395 0.75854 0.08796 0.0
C153 C 0.0032 0.7281 0.0679 0.0
C154 C 0.01526 0.73892 0.05582 0.0
C155 C 0.02164 0.75961 0.0602 0.0
C156 C 0.99784 0.73861 0.08396 0.0
H157 H 0.02076 0.78522 0.07988 0.0
C158 C 0.01269 0.81211 0.11437 0.0
O159 O 0.0455 0.80648 0.16332 0.0
O160 O 0.05531 0.79261 0.13716 0.0
N161 N 0.98335 0.73997 0.11259 0.0
C162 C 0.97268 0.73158 0.12626 0.0
C163 C 0.96516 0.71097 0.12407 0.0
C164 C 0.96865 0.69924 0.10786 0.0
C165 C 0.98 0.70813 0.09416 0.0
C166 C 0.98681 0.7288 0.09695 0.0
H167 H 0.96974 0.74056 0.13864 0.0
O168 O 0.03015 0.76225 0.15234 0.0
O169 O 0.01715 0.76714 0.1249 0.0
O170 O 0.00241 0.78833 0.15616 0.0
O171 O 0.97993 0.77595 0.13291 0.0
C172 C 0.98489 0.6973 0.07791 0.0
C173 C 0.99657 0.70726 0.06484 0.0
H174 H 0.01987 0.73146 0.04325 0.0
H175 H 0.03105 0.76803 0.051 0.0
H176 H 0.95656 0.70418 0.13478 0.0
H177 H 0.96266 0.68338 0.10615 0.0
H178 H 0.97993 0.68126 0.07544 0.0
H179 H 0.00047 0.69872 0.05255 0.0
Mn180 Mn 0.48545 0.75785 0.37255 0.0
Mn181 Mn 0.47682 0.78304 0.33518 0.0
C182 C 0.45424 0.75485 0.35974 0.0
C183 C 0.49444 0.7311 0.38669 0.0
C184 C 0.48453 0.80266 0.37525 0.0
O185 O 0.51205 0.76528 0.36226 0.0
O186 O 0.50415 0.77967 0.33651 0.0
C187 C 0.48209 0.75277 0.3044 0.0
N188 N 0.47102 0.765 0.31275 0.0
C189 C 0.44601 0.75515 0.2879 0.0
C190 C 0.45718 0.74252 0.27899 0.0
C191 C 0.47526 0.74127 0.28731 0.0
C192 C 0.45354 0.76618 0.30495 0.0
H193 H 0.49602 0.75181 0.31073 0.0
C194 C 0.51635 0.77323 0.34707 0.0
O195 O 0.49687 0.74893 0.39536 0.0
O196 O 0.4869 0.72866 0.36944 0.0
N197 N 0.45094 0.78732 0.33179 0.0
C198 C 0.4416 0.79952 0.34262 0.0
C199 C 0.42332 0.80245 0.33627 0.0
C200 C 0.41493 0.79298 0.31881 0.0
C201 C 0.42474 0.78038 0.30798 0.0
C202 C 0.44301 0.77822 0.31491 0.0
H203 H 0.44808 0.80708 0.35593 0.0
O204 O 0.45742 0.75083 0.37694 0.0
O205 O 0.46938 0.76028 0.35038 0.0
O206 O 0.48576 0.78668 0.38272 0.0
O207 O 0.48213 0.80328 0.35747 0.0
C208 C 0.41703 0.76975 0.29065 0.0
C209 C 0.42762 0.75705 0.28068 0.0
H210 H 0.45197 0.73362 0.26581 0.0
H211 H 0.48393 0.7315 0.28055 0.0
H212 H 0.41579 0.81213 0.34475 0.0
H213 H 0.40095 0.79547 0.31385 0.0
H214 H 0.40287 0.77102 0.28501 0.0
H215 H 0.42143 0.74872 0.26751 0.0
Mn216 Mn 0.52828 0.28826 0.63877 0.0
Mn217 Mn 0.49618 0.26699 0.60302 0.0
C218 C 0.52489 0.25451 0.6289 0.0
C219 C 0.55877 0.30434 0.65093 0.0
C220 C 0.48473 0.27772 0.64249 0.0
O221 O 0.523 0.31239 0.62587 0.0
O222 O 0.50223 0.29646 0.60208 0.0
C223 C 0.52071 0.27577 0.5711 0.0
N224 N 0.50958 0.26227 0.58087 0.0
C225 C 0.51363 0.23494 0.5586 0.0
C226 C 0.52507 0.24856 0.54826 0.0
C227 C 0.52869 0.26905 0.55459 0.0
C228 C 0.50622 0.24249 0.57504 0.0
H229 H 0.52344 0.29154 0.57585 0.0
C230 C 0.51219 0.3124 0.61099 0.0
O231 O 0.54352 0.30558 0.66007 0.0
O232 O 0.55622 0.29455 0.63426 0.0
N233 N 0.48929 0.23848 0.60211 0.0
C234 C 0.47841 0.22725 0.61398 0.0
C235 C 0.47379 0.20637 0.60986 0.0
C236 C 0.48016 0.19731 0.59346 0.0
C237 C 0.49112 0.20921 0.58133 0.0
C238 C 0.49536 0.22991 0.58621 0.0
H239 H 0.47336 0.23414 0.62653 0.0
O240 O 0.53182 0.26132 0.64588 0.0
O241 O 0.51997 0.26756 0.61839 0.0
O242 O 0.50175 0.28473 0.64944 0.0
O243 O 0.48093 0.27074 0.62524 0.0
C244 C 0.49798 0.20133 0.56458 0.0
C245 C 0.50932 0.21418 0.55327 0.0
H246 H 0.53119 0.24344 0.53548 0.0
H247 H 0.53755 0.27964 0.54671 0.0
H248 H 0.4653 0.1973 0.61928 0.0
H249 H 0.47658 0.1812 0.59033 0.0
H250 H 0.49486 0.18538 0.56039 0.0
H251 H 0.51476 0.2079 0.54058 0.0
Mn252 Mn 0.99258 0.26146 0.87783 0.0
Mn253 Mn 0.98809 0.28675 0.83952 0.0
C254 C 0.96232 0.26123 0.86388 0.0
C255 C 0.99818 0.23372 0.89266 0.0
C256 C 0.99444 0.30692 0.87941 0.0
O257 O 0.01985 0.26625 0.8689 0.0
O258 O 0.01488 0.28236 0.84348 0.0
C259 C 0.99465 0.25483 0.81094 0.0
N260 N 0.98361 0.26806 0.81747 0.0
C261 C 0.96093 0.25857 0.79059 0.0
C262 C 0.9721 0.24492 0.78352 0.0
C263 C 0.98898 0.24298 0.79379 0.0
C264 C 0.96719 0.26981 0.80786 0.0
H265 H 0.00768 0.25336 0.81875 0.0
C266 C 0.02575 0.27474 0.85446 0.0
O267 O 0.00162 0.25162 0.9013 0.0
O268 O 0.9916 0.23182 0.87511 0.0
N269 N 0.96316 0.29231 0.83321 0.0
C270 C 0.95395 0.30609 0.84203 0.0
C271 C 0.93713 0.31029 0.83332 0.0
C272 C 0.93009 0.3005 0.81554 0.0
C273 C 0.93974 0.28634 0.80678 0.0
C274 C 0.95659 0.28299 0.816 0.0
H275 H 0.95951 0.31398 0.85551 0.0
O276 O 0.96436 0.25715 0.88122 0.0
O277 O 0.97801 0.26487 0.85488 0.0
O278 O 0.99513 0.29099 0.88725 0.0
O279 O 0.99213 0.3072 0.86156 0.0
C280 C 0.93331 0.27545 0.78923 0.0
C281 C 0.94381 0.26143 0.78122 0.0
H282 H 0.96783 0.23582 0.77025 0.0
H283 H 0.99765 0.23243 0.78846 0.0
H284 H 0.92971 0.32121 0.84019 0.0
H285 H 0.91729 0.30398 0.80872 0.0
H286 H 0.92023 0.27761 0.78185 0.0
H287 H 0.93863 0.25299 0.76782 0.0
Mn288 Mn 0.40623 0.04433 0.28727 0.0
Mn289 Mn 0.37009 0.02803 0.31465 0.0
C290 C 0.39845 0.0109 0.29182 0.0
C291 C 0.41748 0.05131 0.25804 0.0
C292 C 0.40941 0.05018 0.33038 0.0
O293 O 0.39119 0.067 0.28845 0.0
O294 O 0.36705 0.0543 0.30609 0.0
C295 C 0.33741 0.02148 0.28591 0.0
N296 N 0.34811 0.01426 0.29913 0.0
C297 C 0.32796 0.98162 0.29391 0.0
C298 C 0.31667 0.98875 0.28032 0.0
C299 C 0.32144 0.00875 0.27628 0.0
C300 C 0.34363 0.99504 0.30314 0.0
H301 H 0.34105 0.03682 0.2827 0.0
C302 C 0.37549 0.06788 0.29638 0.0
O303 O 0.42697 0.0597 0.2736 0.0
O304 O 0.40115 0.03955 0.25954 0.0
N305 N 0.37122 0.00253 0.32344 0.0
C306 C 0.3844 0.99762 0.33587 0.0
C307 C 0.38209 0.97795 0.34095 0.0
C308 C 0.36626 0.96356 0.33323 0.0
C309 C 0.35289 0.96896 0.32046 0.0
C310 C 0.35585 0.98884 0.31605 0.0
H311 H 0.39666 0.00857 0.34176 0.0
O312 O 0.41555 0.01834 0.28705 0.0
O313 O 0.38666 0.02332 0.2941 0.0
O314 O 0.41679 0.05235 0.31455 0.0
O315 O 0.39209 0.04146 0.33198 0.0
C316 C 0.33697 0.95531 0.31164 0.0
C317 C 0.32453 0.96162 0.29835 0.0
H318 H 0.30441 0.97894 0.27276 0.0
H319 H 0.31285 0.01433 0.26574 0.0
H320 H 0.39254 0.97387 0.35073 0.0
H321 H 0.36461 0.94838 0.33708 0.0
H322 H 0.33434 0.93983 0.31473 0.0
H323 H 0.31253 0.9509 0.29142 0.0
Mn324 Mn 0.26726 0.15897 0.50108 0.0
Mn325 Mn 0.26237 0.12055 0.46687 0.0
C326 C 0.23681 0.14178 0.48997 0.0
C327 C 0.27039 0.17199 0.53297 0.0
C328 C 0.27132 0.16397 0.45873 0.0
O329 O 0.29411 0.15156 0.50209 0.0
O330 O 0.28898 0.12642 0.47868 0.0
C331 C 0.2674 0.08856 0.49113 0.0
N332 N 0.25674 0.0958 0.47788 0.0
C333 C 0.2334 0.06518 0.474 0.0
C334 C 0.24415 0.05735 0.48755 0.0
C335 C 0.26116 0.06915 0.49624 0.0
C336 C 0.24018 0.08472 0.4697 0.0
H337 H 0.2806 0.09748 0.49768 0.0
C338 C 0.29978 0.13777 0.4917 0.0
O339 O 0.2758 0.18311 0.51961 0.0
O340 O 0.26387 0.15317 0.52787 0.0
N341 N 0.23734 0.1128 0.45426 0.0
C342 C 0.22815 0.12296 0.44223 0.0
C343 C 0.21061 0.11346 0.43275 0.0
C344 C 0.20296 0.0935 0.43541 0.0
C345 C 0.21276 0.08332 0.44777 0.0
C346 C 0.22999 0.09366 0.45707 0.0
H347 H 0.23419 0.13816 0.43985 0.0
O348 O 0.23921 0.15996 0.49796 0.0
O349 O 0.25231 0.13414 0.48861 0.0
O350 O 0.272 0.17146 0.47589 0.0
O351 O 0.26776 0.14515 0.45392 0.0
C352 C 0.20614 0.0633 0.45122 0.0
C353 C 0.21629 0.05433 0.46452 0.0
H354 H 0.23947 0.04232 0.4914 0.0
H355 H 0.26952 0.06324 0.50673 0.0
H356 H 0.20313 0.12142 0.42323 0.0
H357 H 0.18952 0.08617 0.42793 0.0
H358 H 0.19309 0.05474 0.4439 0.0
H359 H 0.21081 0.03908 0.46735 0.0
Mn360 Mn 0.13352 0.01045 0.77605 0.0
Mn361 Mn 0.16761 0.02202 0.81201 0.0
C362 C 0.14598 0.04355 0.78663 0.0
C363 C 0.12452 0.00512 0.74364 0.0
C364 C 0.12532 0.00714 0.81777 0.0
O365 O 0.1441 0.98441 0.77679 0.0
O366 O 0.1672 0.99437 0.80036 0.0
C367 C 0.20235 0.02192 0.79035 0.0
N368 N 0.19202 0.0317 0.80245 0.0
C369 C 0.21627 0.06163 0.80477 0.0
C370 C 0.22721 0.05183 0.79243 0.0
C371 C 0.22021 0.03189 0.78518 0.0
C372 C 0.19867 0.05086 0.80958 0.0
H373 H 0.19698 0.00664 0.78463 0.0
C374 C 0.15819 0.98132 0.78741 0.0
O375 O 0.11273 0.99851 0.75609 0.0
O376 O 0.14181 0.01352 0.74996 0.0
N377 N 0.16961 0.0486 0.82404 0.0
C378 C 0.15673 0.05633 0.83474 0.0
C379 C 0.16123 0.07638 0.8425 0.0
C380 C 0.17893 0.08825 0.83921 0.0
C381 C 0.192 0.07993 0.82824 0.0
C382 C 0.18681 0.05981 0.82103 0.0
H383 H 0.14304 0.04733 0.83722 0.0
O384 O 0.1291 0.03874 0.77783 0.0
O385 O 0.15478 0.02883 0.78929 0.0
O386 O 0.11941 0.00549 0.80038 0.0
O387 O 0.14302 0.01277 0.82344 0.0
C388 C 0.20979 0.09096 0.82383 0.0
C389 C 0.22192 0.08181 0.81212 0.0
H390 H 0.24091 0.05952 0.78826 0.0
H391 H 0.22852 0.02426 0.77556 0.0
H392 H 0.15104 0.0827 0.8509 0.0
H393 H 0.18225 0.10377 0.84503 0.0
H394 H 0.21415 0.10657 0.82914 0.0
H395 H 0.23543 0.09053 0.8086 0.0
Mn396 Mn 0.24295 0.88199 0.99968 0.0
Mn397 Mn 0.26113 0.91735 0.97183 0.0
C398 C 0.27563 0.88893 0.99571 0.0
C399 C 0.23368 0.87202 0.02871 0.0
C400 C 0.23998 0.87589 0.95666 0.0
O401 O 0.22128 0.8978 0.99704 0.0
O402 O 0.23587 0.92201 0.98022 0.0
C403 C 0.26756 0.95242 1.00052 0.0
N404 N 0.27448 0.94058 0.98711 0.0
C405 C 0.306 0.96129 0.99137 0.0
C406 C 0.29916 0.97383 0.00508 0.0
C407 C 0.27988 0.96931 0.00974 0.0
C408 C 0.29308 0.94461 0.98274 0.0
H409 H 0.25277 0.94897 0.00419 0.0
C410 C 0.22175 0.91406 0.98933 0.0
O411 O 0.22669 0.86155 0.01304 0.0
O412 O 0.24543 0.88876 0.02747 0.0
N413 N 0.2858 0.91491 0.96295 0.0
C414 C 0.29035 0.90079 0.95008 0.0
C415 C 0.30915 0.90297 0.94401 0.0
C416 C 0.32301 0.91973 0.95109 0.0
C417 C 0.31801 0.93405 0.96435 0.0
C418 C 0.29902 0.93112 0.9698 0.0
H419 H 0.2797 0.88801 0.94439 0.0
O420 O 0.26779 0.87185 0.00116 0.0
O421 O 0.26416 0.90134 0.99284 0.0
O422 O 0.23722 0.86931 0.97265 0.0
O423 O 0.24817 0.89382 0.95472 0.0
C424 C 0.33111 0.95108 0.97242 0.0
C425 C 0.32517 0.96458 0.98606 0.0
H426 H 0.30862 0.98688 0.01222 0.0
H427 H 0.27453 0.97883 0.02041 0.0
H428 H 0.31292 0.89184 0.9338 0.0
H429 H 0.33745 0.92142 0.94624 0.0
H430 H 0.34585 0.95386 0.96838 0.0
H431 H 0.33547 0.97742 0.9924 0.0
Mn432 Mn 0.26343 0.3882 0.03169 0.0
Mn433 Mn 0.27004 0.42885 0.00702 0.0
C434 C 0.29427 0.40612 0.029 0.0
C435 C 0.25719 0.37295 0.05967 0.0
C436 C 0.26348 0.38643 0.9882 0.0
O437 O 0.23636 0.39489 0.02977 0.0
O438 O 0.24278 0.42142 0.01301 0.0
C439 C 0.26186 0.4579 0.03757 0.0
N440 N 0.27375 0.45239 0.02438 0.0
C441 C 0.29596 0.4836 0.03115 0.0
C442 C 0.28392 0.48966 0.04474 0.0
C443 C 0.26686 0.47669 0.04806 0.0
C444 C 0.29039 0.46456 0.02138 0.0
H445 H 0.24863 0.44807 0.04002 0.0
C446 C 0.23119 0.40909 0.02151 0.0
O447 O 0.25354 0.36292 0.04317 0.0
O448 O 0.26414 0.39192 0.05993 0.0
N449 N 0.2956 0.4385 1.00005 0.0
C450 C 0.30576 0.43028 0.98665 0.0
C451 C 0.32334 0.44124 0.98183 0.0
C452 C 0.33 0.46075 0.99042 0.0
C453 C 0.31908 0.46908 0.00386 0.0
C454 C 0.30182 0.45733 0.00828 0.0
H455 H 0.3005 0.41545 0.97971 0.0
O456 O 0.29166 0.38769 0.03302 0.0
O457 O 0.27883 0.41378 0.02696 0.0
O458 O 0.2613 0.37775 0.00336 0.0
O459 O 0.2668 0.40544 0.98807 0.0
C460 C 0.3246 0.48859 0.013 0.0
C461 C 0.31319 0.49574 0.02683 0.0
H462 H 0.28764 0.50423 0.05273 0.0
H463 H 0.25751 0.48123 0.05855 0.0
H464 H 0.33163 0.43475 0.97138 0.0
H465 H 0.3435 0.46921 0.98658 0.0
H466 H 0.33767 0.49819 0.00963 0.0
H467 H 0.31777 0.51064 0.03397 0.0
Mn468 Mn 0.76524 0.15863 0.02126 0.0
Mn469 Mn 0.74349 0.12037 0.98984 0.0
C470 C 0.73222 0.14926 0.01915 0.0
C471 C 0.77915 0.17114 0.05108 0.0
C472 C 0.7595 0.16173 0.97893 0.0
O473 O 0.78713 0.14419 0.01467 0.0
O474 O 0.77091 0.11845 0.99481 0.0
C475 C 0.74517 0.0868 0.0131 0.0
N476 N 0.7347 0.0973 0.00265 0.0
C477 C 0.70521 0.07488 0.00716 0.0
C478 C 0.7157 0.06376 0.0179 0.0
C479 C 0.73576 0.06978 0.02092 0.0
C480 C 0.71539 0.09168 0.9997 0.0
H481 H 0.76059 0.09138 0.01546 0.0
C482 C 0.78632 0.12794 0.00403 0.0
O483 O 0.78299 0.18089 0.03646 0.0
O484 O 0.76804 0.15369 0.04818 0.0
N485 N 0.7168 0.1203 0.98396 0.0
C486 C 0.70869 0.13329 0.97418 0.0
C487 C 0.68867 0.12962 0.97024 0.0
C488 C 0.67722 0.1126 0.97627 0.0
C489 C 0.68587 0.09946 0.98634 0.0
C490 C 0.70592 0.10379 0.98969 0.0
H491 H 0.71743 0.14634 0.96942 0.0
O492 O 0.74022 0.16719 0.02615 0.0
O493 O 0.74375 0.13748 0.01347 0.0
O494 O 0.7654 0.16962 0.99551 0.0
O495 O 0.75147 0.1434 0.97526 0.0
C496 C 0.67538 0.0824 0.99339 0.0
C497 C 0.68503 0.07016 0.00385 0.0
H498 H 0.70849 0.05067 0.02401 0.0
H499 H 0.74394 0.06132 0.02925 0.0
H500 H 0.68208 0.13986 0.96252 0.0
H501 H 0.66179 0.1098 0.97315 0.0
H502 H 0.65985 0.07873 0.99109 0.0
H503 H 0.67678 0.05726 0.00945 0.0
Mn504 Mn 0.11829 0.51456 0.25341 0.0
Mn505 Mn 0.15484 0.53899 0.28379 0.0
C506 C 0.12629 0.54906 0.25548 0.0
C507 C 0.10592 0.49806 0.22428 0.0
C508 C 0.11525 0.52251 0.29603 0.0
O509 O 0.13281 0.49244 0.25917 0.0
O510 O 0.15663 0.51038 0.27899 0.0
C511 C 0.18696 0.53561 0.25918 0.0
N512 N 0.17719 0.5471 0.27028 0.0
C513 C 0.20001 0.57693 0.26632 0.0
C514 C 0.21039 0.5654 0.25492 0.0
C515 C 0.20379 0.54467 0.25129 0.0
C516 C 0.18333 0.56707 0.27376 0.0
H517 H 0.18197 0.51966 0.25641 0.0
C518 C 0.1481 0.49397 0.26982 0.0
O519 O 0.09704 0.49492 0.23956 0.0
O520 O 0.12238 0.51032 0.226 0.0
N521 N 0.15543 0.56694 0.28988 0.0
C522 C 0.14327 0.57601 0.30041 0.0
C523 C 0.14783 0.59675 0.3054 0.0
C524 C 0.16486 0.60791 0.29959 0.0
C525 C 0.17705 0.59829 0.28861 0.0
C526 C 0.17193 0.57755 0.28435 0.0
H527 H 0.13031 0.56744 0.30514 0.0
O528 O 0.10922 0.5399 0.24909 0.0
O529 O 0.13829 0.53779 0.26051 0.0
O530 O 0.10801 0.51517 0.27969 0.0
O531 O 0.13264 0.53169 0.29917 0.0
C532 C 0.194 0.60849 0.28161 0.0
C533 C 0.20541 0.59783 0.27038 0.0
H534 H 0.22336 0.57233 0.2488 0.0
H535 H 0.21168 0.53568 0.24245 0.0
H536 H 0.13829 0.60411 0.31379 0.0
H537 H 0.16837 0.62391 0.3035 0.0
H538 H 0.19825 0.62457 0.28458 0.0
H539 H 0.21826 0.60587 0.26485 0.0
Mn540 Mn 0.76399 0.88783 0.53094 0.0
Mn541 Mn 0.7735 0.92974 0.50821 0.0
C542 C 0.79564 0.90363 0.52832 0.0
C543 C 0.75678 0.87162 0.55825 0.0
C544 C 0.76373 0.88812 0.4876 0.0
O545 O 0.73783 0.89672 0.52976 0.0
O546 O 0.74618 0.924 0.51435 0.0
C547 C 0.76775 0.9582 0.54035 0.0
N548 N 0.77901 0.95237 0.52669 0.0
C549 C 0.80339 0.98171 0.53488 0.0
C550 C 0.79204 0.98809 0.54898 0.0
C551 C 0.7742 0.9762 0.55181 0.0
C552 C 0.79638 0.96343 0.52415 0.0
H553 H 0.75394 0.94923 0.54243 0.0
C554 C 0.7338 0.91191 0.52228 0.0
O555 O 0.75245 0.86244 0.54144 0.0
O556 O 0.76498 0.89032 0.55919 0.0
N557 N 0.7993 0.93791 0.50115 0.0
C558 C 0.8084 0.92975 0.48681 0.0
C559 C 0.82648 0.93976 0.48221 0.0
C560 C 0.83474 0.95833 0.49197 0.0
C561 C 0.82482 0.96674 0.50627 0.0
C562 C 0.80699 0.95594 0.51043 0.0
H563 H 0.80193 0.91569 0.47898 0.0
O564 O 0.7917 0.88501 0.53167 0.0
O565 O 0.78105 0.91273 0.52704 0.0
O566 O 0.76108 0.87877 0.50233 0.0
O567 O 0.76844 0.90716 0.48826 0.0
C568 C 0.83184 0.98551 0.51643 0.0
C569 C 0.82128 0.99285 0.53091 0.0
H570 H 0.79687 0.00208 0.5577 0.0
H571 H 0.76537 0.981 0.56268 0.0
H572 H 0.83395 0.93326 0.47104 0.0
H573 H 0.84864 0.96605 0.48832 0.0
H574 H 0.84543 0.99438 0.51331 0.0
H575 H 0.82698 0.00716 0.53881 0.0
Mn576 Mn 0.88813 0.03604 0.23545 0.0
Mn577 Mn 0.84817 0.02405 0.25969 0.0
C578 C 0.87407 0.00262 0.23624 0.0
C579 C 0.90346 0.04462 0.20797 0.0
C580 C 0.8884 0.03533 0.27861 0.0
O581 O 0.87853 0.0627 0.23906 0.0
O582 O 0.85193 0.05242 0.25427 0.0
C583 C 0.81916 0.02798 0.22963 0.0
N584 N 0.82588 0.017 0.24261 0.0
C585 C 0.79861 0.99023 0.23559 0.0
C586 C 0.79133 0.0013 0.22222 0.0
C587 C 0.80169 0.02022 0.21917 0.0
C588 C 0.8161 0.99873 0.24555 0.0
H589 H 0.82706 0.04256 0.22732 0.0
C590 C 0.86331 0.06592 0.24683 0.0
O591 O 0.91222 0.04914 0.2246 0.0
O592 O 0.88554 0.03581 0.20734 0.0
N593 N 0.84213 0.99715 0.26617 0.0
C594 C 0.85157 0.98807 0.27898 0.0
C595 C 0.84316 0.96904 0.28365 0.0
C596 C 0.82516 0.95952 0.27512 0.0
C597 C 0.81565 0.96921 0.26209 0.0
C598 C 0.82457 0.98834 0.25826 0.0
H599 H 0.86532 0.99537 0.28571 0.0
O600 O 0.89192 0.0077 0.23238 0.0
O601 O 0.86465 0.01725 0.23931 0.0
O602 O 0.89731 0.03816 0.26359 0.0
O603 O 0.87012 0.03056 0.27862 0.0
C604 C 0.79782 0.96053 0.25255 0.0
C605 C 0.78935 0.97099 0.23924 0.0
H606 H 0.77787 0.99535 0.21411 0.0
H607 H 0.7962 0.02881 0.20883 0.0
H608 H 0.85053 0.96172 0.29382 0.0
H609 H 0.81882 0.94473 0.27861 0.0
H610 H 0.79063 0.9457 0.25515 0.0
H611 H 0.77578 0.96404 0.23178 0.0
Mn612 Mn 0.26777 0.65927 0.51851 0.0
Mn613 Mn 0.24864 0.62257 0.48437 0.0
C614 C 0.23485 0.64819 0.5152 0.0
C615 C 0.28117 0.67122 0.54864 0.0
C616 C 0.26284 0.66545 0.47673 0.0
O617 O 0.29079 0.64665 0.51171 0.0
O618 O 0.2763 0.62202 0.48981 0.0
C619 C 0.2517 0.58741 0.5051 0.0
N620 N 0.24082 0.59792 0.49509 0.0
C621 C 0.21245 0.57272 0.49629 0.0
C622 C 0.22336 0.56157 0.50653 0.0
C623 C 0.24305 0.56899 0.511 0.0
C624 C 0.22185 0.59097 0.49079 0.0
H625 H 0.26684 0.59304 0.50853 0.0
C626 C 0.29108 0.63141 0.50005 0.0
O627 O 0.28437 0.68159 0.53436 0.0
O628 O 0.27069 0.65341 0.54533 0.0
N629 N 0.22188 0.62106 0.47778 0.0
C630 C 0.21319 0.63417 0.46875 0.0
C631 C 0.19347 0.62903 0.46327 0.0
C632 C 0.18294 0.61047 0.46705 0.0
C633 C 0.19211 0.59737 0.47663 0.0
C634 C 0.21185 0.60316 0.48146 0.0
H635 H 0.22128 0.64835 0.46559 0.0
O636 O 0.242 0.66595 0.52329 0.0
O637 O 0.24717 0.63745 0.50912 0.0
O638 O 0.26796 0.67201 0.49378 0.0
O639 O 0.25572 0.64714 0.47157 0.0
C640 C 0.18242 0.57886 0.48167 0.0
C641 C 0.19256 0.56659 0.49158 0.0
H642 H 0.21675 0.54738 0.51115 0.0
H643 H 0.25155 0.56051 0.51897 0.0
H644 H 0.18644 0.63929 0.45602 0.0
H645 H 0.16776 0.60648 0.46266 0.0
H646 H 0.16712 0.57404 0.4782 0.0
H647 H 0.1849 0.55253 0.49562 0.0
Mn648 Mn 0.38755 0.53214 0.7376 0.0
Mn649 Mn 0.34625 0.51923 0.75955 0.0
C650 C 0.37373 0.49866 0.73778 0.0
C651 C 0.40403 0.54155 0.71099 0.0
C652 C 0.38549 0.52964 0.78054 0.0
O653 O 0.37784 0.55865 0.741 0.0
O654 O 0.35095 0.54801 0.75559 0.0
C655 C 0.31996 0.52533 0.72792 0.0
N656 N 0.32532 0.51342 0.74078 0.0
C657 C 0.29856 0.48704 0.7303 0.0
C658 C 0.29268 0.49905 0.71701 0.0
C659 C 0.30348 0.51825 0.71577 0.0
C660 C 0.31523 0.49481 0.74187 0.0
H661 H 0.32817 0.54011 0.72696 0.0
C662 C 0.36257 0.56174 0.74872 0.0
O663 O 0.41217 0.54562 0.72793 0.0
O664 O 0.38615 0.53256 0.70956 0.0
N665 N 0.33895 0.49195 0.76467 0.0
C666 C 0.34643 0.48234 0.77839 0.0
C667 C 0.33696 0.46323 0.7819 0.0
C668 C 0.31977 0.4543 0.77147 0.0
C669 C 0.31228 0.4645 0.75752 0.0
C670 C 0.3222 0.48363 0.75483 0.0
H671 H 0.35943 0.48927 0.78671 0.0
O672 O 0.39172 0.50395 0.73454 0.0
O673 O 0.36396 0.51306 0.74025 0.0
O674 O 0.39511 0.53374 0.76614 0.0
O675 O 0.36717 0.52434 0.77961 0.0
C676 C 0.29533 0.45645 0.74621 0.0
C677 C 0.28857 0.46764 0.73249 0.0
H678 H 0.27993 0.49368 0.70768 0.0
H679 H 0.29908 0.52759 0.70551 0.0
H680 H 0.34282 0.45545 0.79273 0.0
H681 H 0.3124 0.43964 0.77432 0.0
H682 H 0.28745 0.44162 0.74787 0.0
H683 H 0.27561 0.46124 0.72377 0.0
Mn684 Mn 0.62178 0.0161 0.75306 0.0
Mn685 Mn 0.65974 0.03415 0.78413 0.0
C686 C 0.63527 0.04984 0.75616 0.0
C687 C 0.60808 0.00198 0.72353 0.0
C688 C 0.61895 0.02326 0.79579 0.0
O689 O 0.63198 0.99096 0.75818 0.0
O690 O 0.65717 0.00482 0.7785 0.0
C691 C 0.69116 0.02597 0.7603 0.0
N692 N 0.68276 0.03918 0.77094 0.0
C693 C 0.70998 0.06562 0.76932 0.0
C694 C 0.71894 0.05232 0.75833 0.0
C695 C 0.70939 0.03246 0.75364 0.0
C696 C 0.69153 0.05848 0.775 0.0
H697 H 0.68409 0.01056 0.75709 0.0
C698 C 0.6466 0.98974 0.76889 0.0
O699 O 0.59866 5e-05 0.73865 0.0
O700 O 0.62573 0.01172 0.72559 0.0
N701 N 0.66423 0.06242 0.79087 0.0
C702 C 0.65388 0.07319 0.80207 0.0
C703 C 0.66117 0.09352 0.80758 0.0
C704 C 0.6793 0.10238 0.80207 0.0
C705 C 0.68997 0.09082 0.79108 0.0
C706 C 0.68173 0.07079 0.78557 0.0
H707 H 0.64015 0.06634 0.80674 0.0
O708 O 0.6176 0.04377 0.74948 0.0
O709 O 0.6445 0.03604 0.76085 0.0
O710 O 0.61129 0.01762 0.77924 0.0
O711 O 0.63693 0.02984 0.79922 0.0
C712 C 0.7087 0.09822 0.78587 0.0
C713 C 0.71877 0.08557 0.77514 0.0
H714 H 0.73316 0.05717 0.75347 0.0
H715 H 0.71622 0.02209 0.74519 0.0
H716 H 0.65295 0.10227 0.81627 0.0
H717 H 0.68501 0.11798 0.80659 0.0
H718 H 0.71552 0.1136 0.79006 0.0
H719 H 0.73314 0.09145 0.77117 0.0
Mn720 Mn 0.76817 0.65997 1.00074 0.0
Mn721 Mn 0.76417 0.62099 0.96724 0.0
C722 C 0.738 0.64223 0.98949 0.0
C723 C 0.77064 0.6733 0.03254 0.0
C724 C 0.77252 0.66418 0.95827 0.0
O725 O 0.79521 0.65304 0.00231 0.0
O726 O 0.79069 0.62752 0.97929 0.0
C727 C 0.76947 0.58979 0.99234 0.0
N728 N 0.7588 0.59652 0.97876 0.0
C729 C 0.7359 0.56558 0.97522 0.0
C730 C 0.74667 0.55828 0.98912 0.0
C731 C 0.76346 0.5705 0.99782 0.0
C732 C 0.74243 0.58505 0.97058 0.0
H733 H 0.78251 0.59904 0.9989 0.0
C734 C 0.80121 0.63923 0.99224 0.0
O735 O 0.7761 0.68437 0.01915 0.0
O736 O 0.76452 0.65441 0.02753 0.0
N737 N 0.7393 0.61259 0.95444 0.0
C738 C 0.73005 0.62227 0.942 0.0
C739 C 0.71271 0.61231 0.93245 0.0
C740 C 0.70532 0.59238 0.93545 0.0
C741 C 0.71518 0.5827 0.94822 0.0
C742 C 0.73219 0.5935 0.95758 0.0
H743 H 0.7359 0.63744 0.93936 0.0
O744 O 0.74008 0.66049 0.99719 0.0
O745 O 0.75367 0.63482 0.98853 0.0
O746 O 0.77297 0.67204 0.97531 0.0
O747 O 0.76931 0.64529 0.95386 0.0
C748 C 0.70883 0.56274 0.952 0.0
C749 C 0.71901 0.55428 0.9657 0.0
H750 H 0.74217 0.54333 0.99325 0.0
H751 H 0.77183 0.56499 0.00858 0.0
H752 H 0.70518 0.61988 0.92262 0.0
H753 H 0.69204 0.58469 0.92791 0.0
H754 H 0.69596 0.55384 0.94467 0.0
H755 H 0.71374 0.53908 0.96878 0.0
Mn756 Mn 0.91195 0.54951 0.79428 0.0
Mn757 Mn 0.87583 0.54893 0.8237 0.0
C758 C 0.89595 0.51961 0.8034 0.0
C759 C 0.9235 0.54915 0.7643 0.0
C760 C 0.91789 0.56182 0.83672 0.0
O761 O 0.9044 0.57659 0.79217 0.0
O762 O 0.87962 0.57406 0.81123 0.0
C763 C 0.84326 0.54704 0.79556 0.0
N764 N 0.85163 0.53913 0.80998 0.0
C765 C 0.82419 0.51256 0.81001 0.0
C766 C 0.81524 0.52046 0.79522 0.0
C767 C 0.82485 0.53773 0.78792 0.0
C768 C 0.84257 0.52245 0.81701 0.0
H769 H 0.85056 0.56035 0.78995 0.0
C770 C 0.89056 0.58333 0.79973 0.0
O771 O 0.93456 0.5567 0.77917 0.0
O772 O 0.9056 0.54199 0.76682 0.0
N773 N 0.87054 0.52511 0.83631 0.0
C774 C 0.8817 0.51863 0.84966 0.0
C775 C 0.87449 0.50109 0.85792 0.0
C776 C 0.85583 0.49052 0.8525 0.0
C777 C 0.84458 0.49754 0.83879 0.0
C778 C 0.85256 0.51505 0.831 0.0
H779 H 0.89603 0.52674 0.85393 0.0
O780 O 0.91327 0.52096 0.79769 0.0
O781 O 0.88874 0.5358 0.80382 0.0
O782 O 0.9245 0.55873 0.82064 0.0
O783 O 0.89994 0.55883 0.8394 0.0
C784 C 0.82584 0.48774 0.83242 0.0
C785 C 0.8157 0.49515 0.81795 0.0
H786 H 0.80104 0.51332 0.78928 0.0
H787 H 0.81806 0.54388 0.77646 0.0
H788 H 0.88328 0.49575 0.86845 0.0
H789 H 0.85032 0.47697 0.85887 0.0
H790 H 0.81921 0.47427 0.83833 0.0
H791 H 0.80145 0.48723 0.8129 0.0
Mn792 Mn 0.739 0.38682 0.49576 0.0
Mn793 Mn 0.74408 0.41924 0.46245 0.0
C794 C 0.76935 0.40065 0.4873 0.0
C795 C 0.73617 0.37879 0.52666 0.0
C796 C 0.73234 0.37449 0.45322 0.0
O797 O 0.71314 0.39589 0.49502 0.0
O798 O 0.71816 0.41703 0.47245 0.0
C799 C 0.74238 0.45638 0.48667 0.0
N800 N 0.75174 0.44598 0.4741 0.0
C801 C 0.77635 0.47489 0.47203 0.0
C802 C 0.76696 0.48595 0.4849 0.0
C803 C 0.74997 0.47661 0.49235 0.0
C804 C 0.76826 0.45471 0.46712 0.0
H805 H 0.72919 0.44934 0.49225 0.0
C806 C 0.70773 0.40841 0.48465 0.0
O807 O 0.72962 0.36585 0.51238 0.0
O808 O 0.74395 0.39669 0.52304 0.0
N809 N 0.76859 0.42327 0.45172 0.0
C810 C 0.77651 0.41018 0.44042 0.0
C811 C 0.79392 0.41698 0.43231 0.0
C812 C 0.80276 0.43722 0.43558 0.0
C813 C 0.79428 0.45042 0.44721 0.0
C814 C 0.77712 0.44272 0.45516 0.0
H815 H 0.76956 0.39469 0.43757 0.0
O816 O 0.76644 0.38371 0.49466 0.0
O817 O 0.75437 0.40895 0.48492 0.0
O818 O 0.73232 0.37026 0.47025 0.0
O819 O 0.73653 0.39235 0.4487 0.0
C820 C 0.80218 0.47093 0.45123 0.0
C821 C 0.79337 0.48309 0.46384 0.0
H822 H 0.77268 0.50159 0.4892 0.0
H823 H 0.74265 0.48503 0.50231 0.0
H824 H 0.80039 0.40669 0.42338 0.0
H825 H 0.8161 0.44245 0.42916 0.0
H826 H 0.81522 0.47743 0.44496 0.0
H827 H 0.79985 0.49872 0.46716 0.0
Mn828 Mn 0.63602 0.51738 0.27935 0.0
Mn829 Mn 0.67146 0.52561 0.31411 0.0
C830 C 0.65023 0.54976 0.29085 0.0
C831 C 0.62518 0.51324 0.2474 0.0
C832 C 0.62935 0.51233 0.32112 0.0
O833 O 0.64543 0.4906 0.27822 0.0
O834 O 0.66937 0.49819 0.3013 0.0
C835 C 0.705 0.52489 0.29086 0.0
N836 N 0.69568 0.53465 0.30395 0.0
C837 C 0.72133 0.56339 0.30711 0.0
C838 C 0.73126 0.55359 0.29375 0.0
C839 C 0.72304 0.53427 0.28556 0.0
C840 C 0.70346 0.55324 0.31192 0.0
H841 H 0.69871 0.51007 0.28448 0.0
C842 C 0.65935 0.4862 0.28816 0.0
O843 O 0.61402 0.50687 0.26041 0.0
O844 O 0.64291 0.52098 0.25284 0.0
N845 N 0.67502 0.55178 0.32734 0.0
C846 C 0.663 0.55966 0.33902 0.0
C847 C 0.66884 0.5791 0.34801 0.0
C848 C 0.68698 0.5902 0.34493 0.0
C849 C 0.69906 0.58181 0.33276 0.0
C850 C 0.69254 0.56229 0.32435 0.0
H851 H 0.64904 0.55119 0.34144 0.0
O852 O 0.633 0.54605 0.28272 0.0
O853 O 0.65841 0.53433 0.29234 0.0
O854 O 0.62285 0.51208 0.30408 0.0
O855 O 0.64724 0.51677 0.32627 0.0
C856 C 0.71718 0.59216 0.32843 0.0
C857 C 0.72828 0.58297 0.31557 0.0
H858 H 0.74512 0.56082 0.28953 0.0
H859 H 0.73057 0.52665 0.27516 0.0
H860 H 0.6594 0.58552 0.35729 0.0
H861 H 0.69142 0.60519 0.35191 0.0
H862 H 0.72261 0.60728 0.33471 0.0
H863 H 0.74206 0.59119 0.31214 0.0
Dy864 Dy 0.98553 0.02355 0.00389 0.0
C865 C 0.06495 0.01997 0.00636 0.0
C866 C 0.94925 0.03097 0.00701 0.0
Dy867 Dy 0.02964 0.02921 0.01148 0.0
O868 O 0.95416 0.01867 0.9939 0.0
O869 O 0.96403 0.03882 0.01838 0.0
O870 O 0.98737 0.00461 0.97651 0.0
O871 O 0.0102 0.02757 0.98682 0.0
C872 C 0.00503 0.01317 0.9743 0.0
C873 C 0.01032 0.0397 0.04116 0.0
O874 O 0.0288 0.05779 0.9986 0.0
O875 O 0.99582 0.05634 1.00043 0.0
O876 O 0.06129 0.03238 0.02012 0.0
O877 O 0.04954 0.01321 0.99551 0.0
O878 O 0.02816 0.04787 0.03909 0.0
O879 O 0.00499 0.02537 0.02859 0.0
O880 O 0.98644 0.99521 0.01725 0.0
O881 O 0.01934 0.99652 0.01507 0.0
C882 C 0.01325 0.06605 0.99719 0.0
C883 C 0.00196 0.98687 0.01845 0.0
Dy884 Dy 0.25965 0.78036 0.23852 0.0
C885 C 0.26562 0.77703 0.31956 0.0
C886 C 0.25271 0.78817 0.20241 0.0
Dy887 Dy 0.25733 0.78076 0.28262 0.0
O888 O 0.23964 0.78331 0.2142 0.0
O889 O 0.2698 0.78852 0.21024 0.0
O890 O 0.27538 0.75424 0.23745 0.0
O891 O 0.27719 0.77381 0.2619 0.0
C892 C 0.28093 0.75735 0.25533 0.0
C893 C 0.22832 0.79241 0.26383 0.0
O894 O 0.27845 0.80916 0.28109 0.0
O895 O 0.27944 0.80932 0.24819 0.0
O896 O 0.25513 0.78937 0.31364 0.0
O897 O 0.27145 0.767 0.30536 0.0
O898 O 0.22607 0.78354 0.27923 0.0
O899 O 0.24582 0.7957 0.26036 0.0
O900 O 0.23487 0.7556 0.24151 0.0
O901 O 0.24258 0.74967 0.27228 0.0
C902 C 0.28496 0.81719 0.26576 0.0
C903 C 0.23266 0.74446 0.25582 0.0
Dy904 Dy 0.53582 0.01986 0.52126 0.0
C905 C 0.45752 0.03545 0.51744 0.0
C906 C 0.56886 0.00544 0.52801 0.0
Dy907 Dy 0.49147 0.02177 0.52168 0.0
O908 O 0.56695 0.01875 0.51638 0.0
O909 O 0.55288 0.00041 0.53611 0.0
O910 O 0.53938 0.04027 0.49793 0.0
O911 O 0.51287 0.02141 0.50085 0.0
C912 C 0.52122 0.03547 0.49221 0.0
C913 C 0.50688 0.00665 0.5508 0.0
O914 O 0.4885 0.99213 0.50458 0.0
O915 O 0.52082 0.98913 0.5087 0.0
O916 O 0.46456 0.03051 0.53313 0.0
O917 O 0.46868 0.03223 0.50399 0.0
O918 O 0.48887 0.0009 0.54478 0.0
O919 O 0.51468 0.02089 0.54211 0.0
O920 O 0.53794 0.04908 0.53877 0.0
O921 O 0.50708 0.0535 0.52953 0.0
C922 C 0.50267 0.98184 0.50238 0.0
C923 C 0.52457 0.0604 0.53775 0.0
Dy924 Dy 0.24225 0.27058 0.7623 0.0
C925 C 0.32378 0.2735 0.75835 0.0
C926 C 0.20438 0.26462 0.77038 0.0
Dy927 Dy 0.28571 0.26881 0.76562 0.0
O928 O 0.21246 0.278 0.75987 0.0
O929 O 0.21686 0.25426 0.77596 0.0
O930 O 0.24831 0.298 0.74665 0.0
O931 O 0.26886 0.29245 0.76676 0.0
C932 C 0.2658 0.30352 0.75414 0.0
C933 C 0.26175 0.23622 0.77397 0.0
O934 O 0.28389 0.2834 0.79476 0.0
O935 O 0.25036 0.27777 0.79358 0.0
O936 O 0.31352 0.25727 0.76339 0.0
O937 O 0.31337 0.28728 0.75784 0.0
O938 O 0.27901 0.24193 0.78202 0.0
O939 O 0.25908 0.24707 0.76107 0.0
O940 O 0.24447 0.25508 0.73356 0.0
O941 O 0.27785 0.26348 0.73424 0.0
C942 C 0.26742 0.28346 0.80302 0.0
C943 C 0.2609 0.25642 0.72498 0.0
Dy944 Dy 0.00405 0.02089 0.48935 0.0
C945 C 0.05053 0.04055 0.56086 0.0
C946 C 0.98088 0.01114 0.45677 0.0
Dy947 Dy 0.02644 0.03189 0.52881 0.0
O948 O 0.99801 0.00704 0.45926 0.0
O949 O 0.97612 0.01978 0.47238 0.0
O950 O 0.02891 0.03893 0.47628 0.0
O951 O 0.03414 0.02462 0.50022 0.0
C952 C 0.04173 0.03654 0.48901 0.0
C953 C 0.98891 0.01593 0.52969 0.0
O954 O 0.02681 0.06222 0.51835 0.0
O955 O 0.00101 0.05269 0.49595 0.0
O956 O 0.03368 0.04547 0.55889 0.0
O957 O 0.0546 0.03189 0.54495 0.0
O958 O 0.00192 0.01439 0.54258 0.0
O959 O 0.99621 0.02767 0.51811 0.0
O960 O 0.00324 0.99063 0.49987 0.0
O961 O 0.02926 1e-05 0.522 0.0
C962 C 0.0139 0.06664 0.50601 0.0
C963 C 0.01624 0.98616 0.51202 0.0
Dy964 Dy 0.284 0.78478 0.76774 0.0
C965 C 0.21253 0.75418 0.71949 0.0
C966 C 0.31159 0.79406 0.79664 0.0
Dy967 Dy 0.24369 0.76257 0.7449 0.0
O968 O 0.30976 0.80522 0.78294 0.0
O969 O 0.29801 0.77827 0.79474 0.0
O970 O 0.30194 0.78575 0.74181 0.0
O971 O 0.27283 0.7748 0.73976 0.0
C972 C 0.28738 0.77713 0.7303 0.0
C973 C 0.24522 0.7647 0.78284 0.0
O974 O 0.26145 0.73859 0.74177 0.0
O975 O 0.28356 0.7516 0.76721 0.0
O976 O 0.21367 0.74642 0.73544 0.0
O977 O 0.22862 0.76608 0.71724 0.0
O978 O 0.23346 0.75084 0.77218 0.0
O979 O 0.25364 0.77716 0.77266 0.0
O980 O 0.26824 0.81072 0.76721 0.0
O981 O 0.24138 0.79522 0.74716 0.0
C982 C 0.27576 0.73698 0.75398 0.0
C983 C 0.25194 0.81124 0.75716 0.0
Dy984 Dy 0.50489 0.01717 0.04301 0.0
C985 C 0.51395 0.01618 0.96247 0.0
C986 C 0.49556 0.02533 0.07907 0.0
Dy987 Dy 0.5054 0.01952 0.99935 0.0
O988 O 0.50527 0.01152 0.07379 0.0
O989 O 0.49083 0.0342 0.06472 0.0
O990 O 0.52433 0.99424 0.04096 0.0
O991 O 0.50483 0.99645 0.01839 0.0
C992 C 0.51848 0.9882 0.02343 0.0
C993 C 0.49271 0.04906 0.01939 0.0
O994 O 0.47705 0.9994 1.00005 0.0
O995 O 0.47424 0.00357 0.03266 0.0
O996 O 0.51293 0.00193 0.9735 0.0
O997 O 0.51012 0.03221 0.97154 0.0
O998 O 0.48627 0.04273 0.00209 0.0
O999 O 0.50615 0.04037 0.02408 0.0
O1000 O 0.53308 0.03745 0.04156 0.0
O1001 O 0.53661 0.02934 0.00962 0.0
C1002 C 0.46711 0.99667 0.01524 0.0
C1003 C 0.54362 0.03781 0.02663 0.0
Dy1004 Dy 0.26331 0.29862 0.2692 0.0
C1005 C 0.2632 0.21462 0.25908 0.0
C1006 C 0.25571 0.33594 0.2665 0.0
Dy1007 Dy 0.25814 0.25325 0.25911 0.0
O1008 O 0.26605 0.33108 0.28035 0.0
O1009 O 0.25 0.32058 0.25425 0.0
O1010 O 0.28048 0.29661 0.29625 0.0
O1011 O 0.25885 0.27269 0.28504 0.0
C1012 C 0.27225 0.27814 0.29772 0.0
C1013 C 0.24932 0.27411 0.23079 0.0
O1014 O 0.22901 0.25337 0.26999 0.0
O1015 O 0.23169 0.28799 0.27302 0.0
O1016 O 0.26263 0.22414 0.24414 0.0
O1017 O 0.26055 0.22605 0.27387 0.0
O1018 O 0.2406 0.25587 0.23248 0.0
O1019 O 0.26288 0.27924 0.24333 0.0
O1020 O 0.29158 0.29777 0.25678 0.0
O1021 O 0.29039 0.26395 0.25951 0.0
C1022 C 0.22159 0.26969 0.27383 0.0
C1023 C 0.29988 0.2818 0.25607 0.0
Dy1024 Dy 0.50602 0.51698 0.98913 0.0
C1025 C 0.54341 0.54231 0.0655 0.0
C1026 C 0.48067 0.50772 0.95826 0.0
Dy1027 Dy 0.52262 0.53529 0.03135 0.0
O1028 O 0.4965 0.50066 0.96039 0.0
O1029 O 0.47838 0.51902 0.97336 0.0
O1030 O 0.53409 0.525 0.97486 0.0
O1031 O 0.53257 0.53224 0.00338 0.0
C1032 C 0.54373 0.53387 0.9902 0.0
C1033 C 0.48417 0.52353 0.0253 0.0
O1034 O 0.52364 0.56346 0.01713 0.0
O1035 O 0.50153 0.54887 0.99222 0.0
O1036 O 0.52542 0.54366 0.06283 0.0
O1037 O 0.55024 0.53789 0.04936 0.0
O1038 O 0.49215 0.53788 0.03801 0.0
O1039 O 0.49707 0.51566 0.01782 0.0
O1040 O 0.50883 0.48854 0.00176 0.0
O1041 O 0.52599 0.50296 0.03009 0.0
C1042 C 0.51208 0.56482 0.0022 0.0
C1043 C 0.51853 0.48716 0.01795 0.0
Dy1044 Dy 0.7859 0.28985 0.26937 0.0
C1045 C 0.71507 0.26165 0.22136 0.0
C1046 C 0.81319 0.30064 0.29845 0.0
Dy1047 Dy 0.74717 0.2688 0.24588 0.0
O1048 O 0.81298 0.30957 0.28298 0.0
O1049 O 0.7982 0.28641 0.29813 0.0
O1050 O 0.80411 0.28432 0.24523 0.0
O1051 O 0.7751 0.28592 0.23998 0.0
C1052 C 0.78987 0.28152 0.23254 0.0
C1053 C 0.74829 0.26711 0.28354 0.0
O1054 O 0.76502 0.24516 0.24134 0.0
O1055 O 0.78526 0.25652 0.26828 0.0
O1056 O 0.71609 0.25484 0.23775 0.0
O1057 O 0.73176 0.27175 0.21815 0.0
O1058 O 0.73795 0.25321 0.27175 0.0
O1059 O 0.75592 0.28112 0.27457 0.0
O1060 O 0.77137 0.31666 0.26867 0.0
O1061 O 0.74271 0.30049 0.25175 0.0
C1062 C 0.77858 0.24275 0.25398 0.0
C1063 C 0.75389 0.31668 0.26079 0.0
Dy1064 Dy 0.00366 0.52205 0.54355 0.0
C1065 C 0.01291 0.52017 0.46383 0.0
C1066 C 0.99581 0.52765 0.58045 0.0
Dy1067 Dy 0.00377 0.52548 0.50035 0.0
O1068 O 0.00082 0.51159 0.57258 0.0
O1069 O 0.99518 0.54052 0.56821 0.0
O1070 O 0.02154 0.49785 0.5401 0.0
O1071 O 0.00168 0.50145 0.51838 0.0
C1072 C 0.01481 0.49218 0.52275 0.0
C1073 C 0.99325 0.5559 0.52104 0.0
O1074 O 0.97513 0.50606 0.50138 0.0
O1075 O 0.9722 0.51216 0.53366 0.0
O1076 O 0.00148 0.53194 0.46993 0.0
O1077 O 0.01921 0.51142 0.47762 0.0
O1078 O 0.98693 0.55059 0.50355 0.0
O1079 O 0.00597 0.54616 0.52546 0.0
O1080 O 0.03328 0.53998 0.54273 0.0
O1081 O 0.03497 0.53606 0.51005 0.0
C1082 C 0.96474 0.50501 0.51639 0.0
C1083 C 0.04302 0.54193 0.52732 0.0
Dy1084 Dy 0.73695 0.77767 0.25846 0.0
C1085 C 0.82046 0.79015 0.256 0.0
C1086 C 0.69893 0.7749 0.26535 0.0
Dy1087 Dy 0.78275 0.77813 0.26255 0.0
O1088 O 0.71147 0.79144 0.26608 0.0
O1089 O 0.70704 0.75976 0.26022 0.0
O1090 O 0.74331 0.80222 0.23919 0.0
O1091 O 0.76359 0.79962 0.26089 0.0
C1092 C 0.76067 0.80869 0.24674 0.0
C1093 C 0.76172 0.7425 0.26882 0.0
O1094 O 0.77859 0.79265 0.29108 0.0
O1095 O 0.74493 0.78395 0.28981 0.0
O1096 O 0.81438 0.77949 0.26959 0.0
O1097 O 0.80596 0.79451 0.24642 0.0
O1098 O 0.78048 0.74582 0.26949 0.0
O1099 O 0.75634 0.75819 0.26478 0.0
O1100 O 0.74054 0.75991 0.23118 0.0
O1101 O 0.77419 0.76837 0.23186 0.0
C1102 C 0.76186 0.79126 0.29915 0.0
C1103 C 0.7572 0.76025 0.22307 0.0
Dy1104 Dy 0.76035 0.2892 0.74082 0.0
C1105 C 0.75507 0.27349 0.81913 0.0
C1106 C 0.75625 0.30214 0.70607 0.0
Dy1107 Dy 0.75362 0.28467 0.78339 0.0
O1108 O 0.76891 0.2915 0.71084 0.0
O1109 O 0.74604 0.30562 0.72021 0.0
O1110 O 0.78533 0.27282 0.74229 0.0
O1111 O 0.77829 0.28957 0.76624 0.0
C1112 C 0.78874 0.27752 0.76042 0.0
C1113 C 0.72586 0.29693 0.76345 0.0
O1114 O 0.76952 0.31614 0.78656 0.0
O1115 O 0.7699 0.32078 0.7545 0.0
O1116 O 0.76982 0.2785 0.8093 0.0
O1117 O 0.73933 0.27468 0.80949 0.0
O1118 O 0.72974 0.30242 0.7814 0.0
O1119 O 0.73574 0.28421 0.75791 0.0
O1120 O 0.74313 0.25821 0.73836 0.0
O1121 O 0.74818 0.2529 0.76987 0.0
C1122 C 0.77336 0.32764 0.77263 0.0
C1123 C 0.74227 0.24623 0.75209 0.0
Dy1124 Dy 0.75821 0.79132 0.76455 0.0
C1125 C 0.76558 0.70951 0.75327 0.0
C1126 C 0.74796 0.82756 0.7623 0.0
Dy1127 Dy 0.75633 0.74659 0.75395 0.0
O1128 O 0.75906 0.8234 0.77591 0.0
O1129 O 0.74286 0.8121 0.75003 0.0
O1130 O 0.77562 0.7904 0.79165 0.0
O1131 O 0.75554 0.76522 0.78021 0.0
C1132 C 0.76869 0.77156 0.793 0.0
C1133 C 0.7463 0.76707 0.72576 0.0
O1134 O 0.72709 0.74391 0.7651 0.0
O1135 O 0.72695 0.7781 0.76777 0.0
O1136 O 0.76218 0.71835 0.7384 0.0
O1137 O 0.76319 0.72067 0.76835 0.0
O1138 O 0.7386 0.74844 0.72715 0.0
O1139 O 0.75952 0.77284 0.73854 0.0
O1140 O 0.78689 0.79305 0.75229 0.0
O1141 O 0.78808 0.75961 0.75447 0.0
C1142 C 0.71826 0.75927 0.76871 0.0
C1143 C 0.79642 0.77798 0.75135 0.0
Dy1144 Dy 0.48802 0.52634 0.50634 0.0
C1145 C 0.56959 0.53253 0.51497 0.0
C1146 C 0.45064 0.5306 0.50834 0.0
Dy1147 Dy 0.532 0.53666 0.51585 0.0
O1148 O 0.45722 0.52069 0.49441 0.0
O1149 O 0.46436 0.53762 0.52116 0.0
O1150 O 0.49248 0.50642 0.48046 0.0
O1151 O 0.51328 0.5317 0.49031 0.0
C1152 C 0.50972 0.51643 0.47854 0.0
C1153 C 0.51017 0.54621 0.54374 0.0
O1154 O 0.52936 0.56488 0.50317 0.0
O1155 O 0.4958 0.55891 0.50109 0.0
O1156 O 0.56077 0.53564 0.53026 0.0
O1157 O 0.55807 0.53265 0.50031 0.0
O1158 O 0.52728 0.55646 0.54167 0.0
O1159 O 0.50671 0.53097 0.53191 0.0
O1160 O 0.49106 0.49881 0.51987 0.0
O1161 O 0.52422 0.50331 0.5178 0.0
C1162 C 0.51274 0.57057 0.49933 0.0
C1163 C 0.50753 0.4922 0.52127 0.0
Dy1164 Dy 0.03704 0.5209 0.0276 0.0
C1165 C 0.95946 0.53841 0.02099 0.0
C1166 C 0.06957 0.50562 0.0345 0.0
Dy1167 Dy 0.99298 0.52409 0.02598 0.0
O1168 O 0.06818 0.51939 0.02325 0.0
O1169 O 0.05337 0.50064 0.04224 0.0
O1170 O 0.04244 0.54223 0.0052 0.0
O1171 O 0.01538 0.52368 0.00618 0.0
C1172 C 0.0246 0.53797 0.99842 0.0
C1173 C 0.00624 0.5073 0.05515 0.0
O1174 O 0.99016 0.49501 0.00804 0.0
O1175 O 0.02169 0.49047 0.01455 0.0
O1176 O 0.97101 0.53532 0.00783 0.0
O1177 O 0.96594 0.53306 0.03674 0.0
O1178 O 0.98853 0.50207 0.04808 0.0
O1179 O 0.01487 0.52182 0.04734 0.0
O1180 O 0.03887 0.54945 0.04613 0.0
O1181 O 0.00918 0.5554 0.03488 0.0
C1182 C 0.00385 0.484 0.00694 0.0
C1183 C 0.02616 0.56143 0.04439 0.0
H1184 H 0.99676 0.19479 0.87807 0.0
H1185 H 0.00153 0.16643 0.89548 0.0
H1186 H 0.0108 0.20526 0.9475 0.0
H1187 H 0.0067 0.23359 0.93023 0.0
H1188 H 0.03639 0.18097 0.94581 0.0
H1189 H 0.96302 0.13661 0.92766 0.0
H1190 H 0.97642 0.14255 0.90748 0.0
H1191 H 0.96971 0.1623 0.92269 0.0
C1192 C 0.99983 0.19724 0.89321 0.0
C1193 C 0.00125 0.21641 0.90277 0.0
C1194 C 0.00244 0.18101 0.90317 0.0
C1195 C 0.00619 0.18363 0.92287 0.0
C1196 C 0.00789 0.20283 0.93233 0.0
H1197 H 0.98764 0.09152 0.99923 0.0
H1198 H 0.98741 0.12084 0.98195 0.0
C1199 C 0.00549 0.21903 0.92241 0.0
C1200 C 0.00829 0.16652 0.93384 0.0
H1201 H 0.98469 0.12117 0.94477 0.0
C1202 C 0.02509 0.16788 0.94558 0.0
C1203 C 0.99343 0.14957 0.93376 0.0
C1204 C 0.97455 0.14769 0.92237 0.0
C1205 C 0.0274 0.15284 0.95728 0.0
C1206 C 0.01272 0.13569 0.95686 0.0
C1207 C 0.99598 0.13428 0.94504 0.0
C1208 C 0.01412 0.11913 0.96878 0.0
C1209 C 0.04528 0.15581 0.97037 0.0
C1210 C 0.02941 0.1086 0.96746 0.0
C1211 C 0.02974 0.092 0.9776 0.0
C1212 C 0.01458 0.08538 0.98895 0.0
C1213 C 0.99954 0.09623 0.99061 0.0
C1214 C 0.99935 0.11296 0.98068 0.0
H1215 H 0.0521 0.17187 0.97305 0.0
H1216 H 0.04199 0.14991 0.98412 0.0
H1217 H 0.05593 0.14771 0.96378 0.0
H1218 H 0.04074 0.11274 0.95806 0.0
H1219 H 0.04138 0.08378 0.97578 0.0
H1220 H 0.07257 0.8216 0.18831 0.0
H1221 H 0.10448 0.8241 0.20377 0.0
H1222 H 0.12444 0.79917 0.15225 0.0
H1223 H 0.09231 0.79617 0.13676 0.0
H1224 H 0.13157 0.77883 0.18123 0.0
H1225 H 0.15645 0.85941 0.20298 0.0
H1226 H 0.13283 0.85081 0.21057 0.0
H1227 H 0.13662 0.85027 0.18572 0.0
C1228 C 0.08386 0.81713 0.18009 0.0
C1229 C 0.07986 0.8086 0.16132 0.0
C1230 C 0.10218 0.81869 0.18895 0.0
C1231 C 0.11695 0.81199 0.17915 0.0
C1232 C 0.11328 0.80448 0.16008 0.0
H1233 H 0.23119 0.81661 0.23527 0.0
H1234 H 0.20525 0.82166 0.2132 0.0
C1235 C 0.09492 0.80284 0.15122 0.0
C1236 C 0.13529 0.81051 0.18947 0.0
H1237 H 0.17127 0.83669 0.22039 0.0
C1238 C 0.1404 0.79156 0.18955 0.0
C1239 C 0.14699 0.82713 0.20018 0.0
C1240 C 0.14305 0.84807 0.19971 0.0
C1241 C 0.15631 0.78862 0.20072 0.0
C1242 C 0.16716 0.80496 0.21243 0.0
C1243 C 0.16269 0.8241 0.21165 0.0
C1244 C 0.18281 0.80228 0.22596 0.0
C1245 C 0.1613 0.76799 0.19998 0.0
C1246 C 0.17873 0.79001 0.24063 0.0
C1247 C 0.1935 0.78705 0.25317 0.0
C1248 C 0.21259 0.79635 0.25125 0.0
C1249 C 0.2166 0.80908 0.2369 0.0
C1250 C 0.20182 0.81203 0.22435 0.0
H1251 H 0.15516 0.75866 0.18679 0.0
H1252 H 0.17715 0.76884 0.20095 0.0
H1253 H 0.15525 0.76036 0.21209 0.0
H1254 H 0.16409 0.78265 0.24233 0.0
H1255 H 0.19002 0.77724 0.26416 0.0
H1256 H 0.47527 0.80486 0.41188 0.0
H1257 H 0.47533 0.83465 0.43335 0.0
H1258 H 0.49526 0.87189 0.38971 0.0
H1259 H 0.49433 0.84192 0.36776 0.0
H1260 H 0.50329 0.86195 0.44733 0.0
H1261 H 0.4532 0.89903 0.40755 0.0
H1262 H 0.4562 0.87375 0.40075 0.0
H1263 H 0.47307 0.89466 0.39406 0.0
C1264 C 0.4796 0.81938 0.40678 0.0
C1265 C 0.48486 0.82102 0.38811 0.0
C1266 C 0.47958 0.83644 0.41909 0.0
C1267 C 0.48503 0.8556 0.41315 0.0
C1268 C 0.49045 0.85732 0.39452 0.0
H1269 H 0.52918 0.96099 0.4884 0.0
H1270 H 0.52364 0.93024 0.46745 0.0
C1271 C 0.49011 0.84018 0.38203 0.0
C1272 C 0.48598 0.87357 0.42688 0.0
H1273 H 0.47211 0.91899 0.43351 0.0
C1274 C 0.4963 0.87431 0.44432 0.0
C1275 C 0.47656 0.88961 0.42322 0.0
C1276 C 0.46396 0.88915 0.40546 0.0
C1277 C 0.49785 0.89073 0.45797 0.0
C1278 C 0.48949 0.90732 0.45383 0.0
C1279 C 0.47872 0.9064 0.43662 0.0
C1280 C 0.49254 0.92606 0.46681 0.0
C1281 C 0.50823 0.88992 0.4768 0.0
C1282 C 0.4769 0.93445 0.47303 0.0
C1283 C 0.48003 0.95241 0.48487 0.0
C1284 C 0.49888 0.96225 0.49074 0.0
C1285 C 0.51445 0.95373 0.48447 0.0
C1286 C 0.51131 0.93601 0.47251 0.0
H1287 H 0.50756 0.87423 0.48014 0.0
H1288 H 0.52365 0.89675 0.47626 0.0
H1289 H 0.50206 0.89817 0.48842 0.0
H1290 H 0.46227 0.9271 0.4687 0.0
H1291 H 0.46773 0.95862 0.48934 0.0
H1292 H 0.48571 0.29688 0.67802 0.0
H1293 H 0.45944 0.29613 0.69911 0.0
H1294 H 0.42123 0.25694 0.65728 0.0
H1295 H 0.44732 0.25797 0.63582 0.0
H1296 H 0.40461 0.28658 0.67243 0.0
H1297 H 0.43736 0.25149 0.72981 0.0
H1298 H 0.45244 0.27394 0.72401 0.0
H1299 H 0.44689 0.25248 0.70678 0.0
C1300 C 0.47175 0.28802 0.67328 0.0
C1301 C 0.46867 0.2774 0.65522 0.0
C1302 C 0.45677 0.28751 0.68545 0.0
C1303 C 0.43848 0.27614 0.67995 0.0
C1304 C 0.43528 0.26571 0.66187 0.0
H1305 H 0.34367 0.24331 0.75098 0.0
H1306 H 0.37229 0.24441 0.73271 0.0
C1307 C 0.45021 0.26633 0.64961 0.0
C1308 C 0.42251 0.27566 0.69282 0.0
H1309 H 0.4094 0.265 0.73688 0.0
C1310 C 0.40563 0.28179 0.6865 0.0
C1311 C 0.42376 0.26915 0.71108 0.0
C1312 C 0.44101 0.2612 0.71827 0.0
C1313 C 0.39006 0.28185 0.698 0.0
C1314 C 0.39162 0.27613 0.71655 0.0
C1315 C 0.40837 0.26969 0.72278 0.0
C1316 C 0.37567 0.27604 0.72938 0.0
C1317 C 0.37193 0.2876 0.68999 0.0
C1318 C 0.36858 0.29362 0.73425 0.0
C1319 C 0.35218 0.29299 0.74457 0.0
C1320 C 0.3428 0.27482 0.75043 0.0
C1321 C 0.35064 0.25751 0.74664 0.0
C1322 C 0.36695 0.25811 0.73617 0.0
H1323 H 0.37117 0.28625 0.6743 0.0
H1324 H 0.35889 0.27811 0.69467 0.0
H1325 H 0.37174 0.30342 0.69498 0.0
H1326 H 0.37539 0.30772 0.72958 0.0
H1327 H 0.34647 0.30658 0.7474 0.0
H1328 H 0.01042 0.81856 0.58723 0.0
H1329 H 0.0121 0.84428 0.56525 0.0
H1330 H 0.00349 0.88736 0.61062 0.0
H1331 H 0.00278 0.86196 0.63283 0.0
H1332 H 0.9883 0.86603 0.55314 0.0
H1333 H 0.05052 0.91733 0.59087 0.0
H1334 H 0.04255 0.89232 0.59717 0.0
H1335 H 0.03086 0.91243 0.6058 0.0
C1336 C 0.00891 0.83353 0.59253 0.0
C1337 C 0.00668 0.83829 0.61181 0.0
C1338 C 0.00986 0.84823 0.57993 0.0
C1339 C 0.00839 0.86793 0.58631 0.0
C1340 C 0.00535 0.87248 0.60544 0.0
H1341 H 0.9836 0.96011 0.51755 0.0
H1342 H 0.98155 0.92971 0.53367 0.0
C1343 C 0.0048 0.8579 0.61811 0.0
C1344 C 0.01004 0.88367 0.57298 0.0
H1345 H 0.03319 0.93092 0.5673 0.0
C1346 C 0.99825 0.88016 0.55614 0.0
C1347 C 0.02331 0.90196 0.57662 0.0
C1348 C 0.03766 0.90615 0.59349 0.0
C1349 C 0.99906 0.89457 0.54311 0.0
C1350 C 0.01151 0.91333 0.54734 0.0
C1351 C 0.02353 0.91664 0.56402 0.0
C1352 C 0.01228 0.92998 0.53504 0.0
C1353 C 0.98683 0.88931 0.52484 0.0
C1354 C 0.03019 0.94041 0.53035 0.0
C1355 C 0.03139 0.95812 0.52166 0.0
C1356 C 0.01468 0.96549 0.51704 0.0
C1357 C 0.99666 0.95445 0.52057 0.0
C1358 C 0.99549 0.93701 0.52976 0.0
H1359 H 0.98384 0.87289 0.52083 0.0
H1360 H 0.97278 0.89407 0.52664 0.0
H1361 H 0.99385 0.89682 0.5131 0.0
H1362 H 0.04336 0.93535 0.53421 0.0
H1363 H 0.04545 0.96648 0.51923 0.0
H1364 H 0.47754 0.76755 0.85004 0.0
H1365 H 0.4455 0.77044 0.83743 0.0
H1366 H 0.44122 0.81372 0.88428 0.0
H1367 H 0.47277 0.80973 0.89748 0.0
H1368 H 0.40887 0.7898 0.87887 0.0
H1369 H 0.4287 0.81075 0.80813 0.0
H1370 H 0.43557 0.78756 0.81296 0.0
H1371 H 0.44607 0.81041 0.8272 0.0
C1372 C 0.46985 0.77793 0.85742 0.0
C1373 C 0.47776 0.78879 0.87447 0.0
C1374 C 0.45154 0.77968 0.85017 0.0
C1375 C 0.44094 0.79271 0.85958 0.0
C1376 C 0.449 0.80362 0.87664 0.0
H1377 H 0.34185 0.82553 0.80197 0.0
H1378 H 0.37231 0.82689 0.82026 0.0
C1379 C 0.46708 0.80146 0.88413 0.0
C1380 C 0.42121 0.79444 0.85213 0.0
H1381 H 0.39551 0.80166 0.81235 0.0
C1382 C 0.40604 0.79259 0.86436 0.0
C1383 C 0.41726 0.79819 0.83322 0.0
C1384 C 0.43278 0.802 0.81959 0.0
C1385 C 0.38723 0.79423 0.85818 0.0
C1386 C 0.38334 0.79733 0.83912 0.0
C1387 C 0.39844 0.79927 0.82697 0.0
C1388 C 0.36374 0.79813 0.83105 0.0
C1389 C 0.37183 0.79292 0.8722 0.0
C1390 C 0.34857 0.7818 0.83142 0.0
C1391 C 0.33109 0.78115 0.82117 0.0
C1392 C 0.32857 0.79665 0.8101 0.0
C1393 C 0.34339 0.8134 0.8104 0.0
C1394 C 0.36081 0.81415 0.82081 0.0
H1395 H 0.37815 0.79706 0.88689 0.0
H1396 H 0.36144 0.80281 0.8692 0.0
H1397 H 0.36382 0.77728 0.87134 0.0
H1398 H 0.35056 0.76905 0.83879 0.0
H1399 H 0.31994 0.76798 0.8211 0.0
H1400 H 0.47085 0.20407 0.1304 0.0
H1401 H 0.46951 0.1704 0.11414 0.0
H1402 H 0.49756 0.19684 0.06746 0.0
H1403 H 0.49965 0.23011 0.08399 0.0
H1404 H 0.45288 0.15219 0.07973 0.0
H1405 H 0.53212 0.15898 0.0811 0.0
H1406 H 0.52066 0.17665 0.09455 0.0
H1407 H 0.52406 0.17873 0.06985 0.0
C1408 C 0.47667 0.20253 0.11666 0.0
C1409 C 0.48487 0.21953 0.10814 0.0
C1410 C 0.47584 0.18341 0.10737 0.0
C1411 C 0.48359 0.18113 0.08966 0.0
C1412 C 0.49178 0.1982 0.08123 0.0
H1413 H 0.46748 0.07334 0.00993 0.0
H1414 H 0.4636 0.10496 0.02726 0.0
C1415 C 0.49273 0.21719 0.09055 0.0
C1416 C 0.48371 0.16097 0.08012 0.0
H1417 H 0.51376 0.13198 0.06091 0.0
C1418 C 0.46618 0.14763 0.07575 0.0
C1419 C 0.5011 0.155 0.07513 0.0
C1420 C 0.52055 0.16801 0.08057 0.0
C1421 C 0.46557 0.12851 0.0663 0.0
C1422 C 0.48292 0.12289 0.06062 0.0
C1423 C 0.50042 0.13627 0.06513 0.0
C1424 C 0.48369 0.10303 0.05062 0.0
C1425 C 0.44643 0.11444 0.0629 0.0
C1426 C 0.49651 0.09161 0.05771 0.0
C1427 C 0.4992 0.07406 0.04756 0.0
C1428 C 0.48874 0.06713 0.0303 0.0
C1429 C 0.47553 0.07821 0.02333 0.0
C1430 C 0.47317 0.09616 0.03333 0.0
H1431 H 0.43581 0.11857 0.07283 0.0
H1432 H 0.44053 0.11524 0.04835 0.0
H1433 H 0.44797 0.09875 0.0644 0.0
H1434 H 0.50489 0.09659 0.07094 0.0
H1435 H 0.50987 0.06618 0.0531 0.0
H1436 H 0.06131 0.29081 0.33517 0.0
H1437 H 0.09 0.28454 0.32002 0.0
H1438 H 0.10748 0.25706 0.3685 0.0
H1439 H 0.07856 0.26338 0.38406 0.0
H1440 H 0.13714 0.28537 0.3549 0.0
H1441 H 0.1004 0.23038 0.29694 0.0
H1442 H 0.09056 0.25288 0.29928 0.0
H1443 H 0.08877 0.23681 0.31806 0.0
C1444 C 0.07116 0.28342 0.34274 0.0
C1445 C 0.06752 0.2776 0.36092 0.0
C1446 C 0.08753 0.27969 0.33392 0.0
C1447 C 0.10068 0.26999 0.34295 0.0
C1448 C 0.09737 0.2644 0.36121 0.0
H1449 H 0.1983 0.23585 0.28376 0.0
H1450 H 0.16895 0.23415 0.30105 0.0
C1451 C 0.08086 0.26805 0.37008 0.0
C1452 C 0.1182 0.26657 0.33341 0.0
H1453 H 0.1329 0.24598 0.29237 0.0
C1454 C 0.13626 0.27652 0.34137 0.0
C1455 C 0.11705 0.25483 0.31585 0.0
C1456 C 0.09817 0.24295 0.3071 0.0
C1457 C 0.15308 0.27588 0.33176 0.0
C1458 C 0.15176 0.26521 0.31364 0.0
C1459 C 0.13385 0.25439 0.30614 0.0
C1460 C 0.16872 0.26586 0.30202 0.0
C1461 C 0.17212 0.28685 0.341 0.0
C1462 C 0.17786 0.2841 0.2962 0.0
C1463 C 0.19452 0.28513 0.28625 0.0
C1464 C 0.2024 0.26789 0.28184 0.0
C1465 C 0.19266 0.24943 0.2869 0.0
C1466 C 0.17592 0.24842 0.29686 0.0
H1467 H 0.1715 0.28953 0.35655 0.0
H1468 H 0.1838 0.27835 0.33795 0.0
H1469 H 0.17587 0.3016 0.33536 0.0
H1470 H 0.17228 0.29766 0.29965 0.0
H1471 H 0.20149 0.29959 0.28249 0.0
H1472 H 0.94003 0.0652 0.20501 0.0
H1473 H 0.9581 0.06817 0.17659 0.0
H1474 H 0.90903 0.03343 0.14325 0.0
H1475 H 0.89073 0.03094 0.17149 0.0
H1476 H 0.96873 0.03939 0.1544 0.0
H1477 H 0.92323 0.07797 0.1107 0.0
H1478 H 0.92009 0.07604 0.1355 0.0
H1479 H 0.90977 0.05552 0.11828 0.0
C1480 C 0.93297 0.05849 0.19157 0.0
C1481 C 0.91388 0.04793 0.19053 0.0
C1482 C 0.94335 0.06015 0.17531 0.0
C1483 C 0.93491 0.0513 0.15763 0.0
C1484 C 0.91576 0.0409 0.15656 0.0
H1485 H 0.97469 0.0202 0.04845 0.0
H1486 H 0.95703 0.02475 0.07674 0.0
C1487 C 0.90532 0.03937 0.17278 0.0
C1488 C 0.9465 0.05178 0.14061 0.0
H1489 H 0.94639 0.06224 0.0945 0.0
C1490 C 0.96394 0.04465 0.1414 0.0
C1491 C 0.94033 0.05864 0.12356 0.0
C1492 C 0.92243 0.06766 0.12199 0.0
C1493 C 0.975 0.0436 0.12554 0.0
C1494 C 0.96854 0.04993 0.10841 0.0
C1495 C 0.95129 0.05734 0.10764 0.0
C1496 C 0.9791 0.0481 0.09094 0.0
C1497 C 0.99322 0.03511 0.12701 0.0
C1498 C 0.99728 0.05995 0.08937 0.0
C1499 C 0.00737 0.05754 0.07306 0.0
C1500 C 0.99945 0.04316 0.05809 0.0
C1501 C 0.98114 0.03151 0.05965 0.0
C1502 C 0.97102 0.03406 0.07584 0.0
H1503 H 0.99467 0.02802 0.14032 0.0
H1504 H 0.99358 0.02383 0.11487 0.0
H1505 H 0.00585 0.04732 0.12659 0.0
H1506 H 0.00371 0.071 0.10081 0.0
H1507 H 0.02143 0.06673 0.07227 0.0
H1508 H 0.27392 0.70618 0.48258 0.0
H1509 H 0.2749 0.73035 0.45922 0.0
H1510 H 0.25683 0.68218 0.41516 0.0
H1511 H 0.2554 0.65784 0.43843 0.0
H1512 H 0.296 0.73501 0.42815 0.0
H1513 H 0.21801 0.71843 0.40713 0.0
H1514 H 0.22791 0.70971 0.42796 0.0
H1515 H 0.22868 0.69647 0.4051 0.0
C1516 C 0.27016 0.70066 0.46792 0.0
C1517 C 0.26446 0.68002 0.46241 0.0
C1518 C 0.27072 0.71454 0.4546 0.0
C1519 C 0.26557 0.70807 0.43555 0.0
C1520 C 0.26038 0.6875 0.42989 0.0
H1521 H 0.29024 0.75479 0.33283 0.0
H1522 H 0.29138 0.74246 0.36384 0.0
C1523 C 0.25972 0.6736 0.4432 0.0
C1524 C 0.26593 0.72279 0.42147 0.0
H1525 H 0.23852 0.73666 0.38617 0.0
C1526 C 0.28338 0.73559 0.41913 0.0
C1527 C 0.24934 0.72388 0.41006 0.0
C1528 C 0.22988 0.71154 0.4128 0.0
C1529 C 0.28494 0.74859 0.40486 0.0
C1530 C 0.26871 0.74851 0.39251 0.0
C1531 C 0.251 0.7366 0.39559 0.0
C1532 C 0.27018 0.75878 0.37508 0.0
C1533 C 0.30403 0.76202 0.40294 0.0
C1534 C 0.25796 0.77219 0.37113 0.0
C1535 C 0.25724 0.77925 0.35331 0.0
C1536 C 0.26854 0.77272 0.33921 0.0
C1537 C 0.28138 0.76006 0.34348 0.0
C1538 C 0.28216 0.75312 0.36125 0.0
H1539 H 0.31257 0.76547 0.41669 0.0
H1540 H 0.31249 0.75428 0.39294 0.0
H1541 H 0.30205 0.77629 0.39745 0.0
H1542 H 0.24849 0.77659 0.38159 0.0
H1543 H 0.24717 0.78894 0.35028 0.0
H1544 H 0.61959 0.01322 0.68941 0.0
H1545 H 0.60088 0.00583 0.65908 0.0
H1546 H 0.55634 0.96709 0.68466 0.0
H1547 H 0.57464 0.97504 0.7152 0.0
H1548 H 0.5857 0.97267 0.63541 0.0
H1549 H 0.52701 0.00742 0.66561 0.0
H1550 H 0.54997 0.00902 0.67825 0.0
H1551 H 0.53216 0.98644 0.67707 0.0
C1552 C 0.60593 0.00292 0.68851 0.0
C1553 C 0.59842 0.99495 0.70471 0.0
C1554 C 0.59525 0.99869 0.67117 0.0
C1555 C 0.57699 0.98631 0.66972 0.0
C1556 C 0.57014 0.97715 0.68558 0.0
H1557 H 0.49247 0.97681 0.57254 0.0
H1558 H 0.50855 0.96724 0.60082 0.0
C1559 C 0.58066 0.98161 0.70299 0.0
C1560 C 0.5647 0.98425 0.65196 0.0
H1561 H 0.52308 0.99572 0.63349 0.0
C1562 C 0.57191 0.97749 0.63502 0.0
C1563 C 0.54667 0.99055 0.65146 0.0
C1564 C 0.53853 0.99893 0.66901 0.0
C1565 C 0.56187 0.97748 0.61756 0.0
C1566 C 0.54423 0.98443 0.61707 0.0
C1567 C 0.53654 0.99023 0.63401 0.0
C1568 C 0.53494 0.98855 0.59922 0.0
C1569 C 0.57047 0.97059 0.59971 0.0
C1570 C 0.54438 0.00383 0.58925 0.0
C1571 C 0.53519 0.00948 0.57347 0.0
C1572 C 0.51644 0.99983 0.56718 0.0
C1573 C 0.50699 0.98437 0.57704 0.0
C1574 C 0.51615 0.97886 0.59308 0.0
H1575 H 0.58074 0.96051 0.60252 0.0
H1576 H 0.55906 0.96269 0.58905 0.0
H1577 H 0.57845 0.98382 0.5936 0.0
H1578 H 0.55868 0.01184 0.59405 0.0
H1579 H 0.54272 0.02171 0.56639 0.0
H1580 H 0.26952 0.3997 0.95343 0.0
H1581 H 0.26984 0.38003 0.92332 0.0
H1582 H 0.25672 0.32559 0.95036 0.0
H1583 H 0.25667 0.34525 0.98091 0.0
H1584 H 0.28578 0.3249 0.9254 0.0
H1585 H 0.22342 0.34931 0.89097 0.0
H1586 H 0.24172 0.36993 0.90057 0.0
H1587 H 0.22902 0.35351 0.91612 0.0
C1588 C 0.26654 0.38354 0.9531 0.0
C1589 C 0.2629 0.37412 0.96973 0.0
C1590 C 0.26667 0.37229 0.93575 0.0
C1591 C 0.26298 0.35131 0.93446 0.0
C1592 C 0.2595 0.34177 0.95099 0.0
H1593 H 0.23732 0.27981 0.82592 0.0
H1594 H 0.23675 0.29454 0.85828 0.0
C1595 C 0.25941 0.35305 0.96844 0.0
C1596 C 0.26308 0.33951 0.91584 0.0
H1597 H 0.243 0.3331 0.87068 0.0
C1598 C 0.27632 0.32655 0.91346 0.0
C1599 C 0.2506 0.34145 0.90029 0.0
C1600 C 0.23525 0.35414 0.90212 0.0
C1601 C 0.27775 0.31593 0.89587 0.0
C1602 C 0.26585 0.3186 0.88011 0.0
C1603 C 0.2523 0.33118 0.88265 0.0
C1604 C 0.2669 0.30837 0.86088 0.0
C1605 C 0.29179 0.30174 0.89442 0.0
C1606 C 0.2841 0.31105 0.85146 0.0
C1607 C 0.28452 0.30246 0.83287 0.0
C1608 C 0.26767 0.29126 0.82323 0.0
C1609 C 0.25057 0.2884 0.83282 0.0
C1610 C 0.25021 0.29683 0.85138 0.0
H1611 H 0.29551 0.29698 0.90842 0.0
H1612 H 0.28588 0.28821 0.88466 0.0
H1613 H 0.30529 0.30941 0.88889 0.0
H1614 H 0.29709 0.32025 0.85827 0.0
H1615 H 0.29789 0.30512 0.82589 0.0
H1616 H 0.8755 0.03863 0.3141 0.0
H1617 H 0.89236 0.03491 0.34385 0.0
H1618 H 0.9432 0.02849 0.31458 0.0
H1619 H 0.92641 0.03227 0.28456 0.0
H1620 H 0.92907 0.99714 0.33943 0.0
H1621 H 0.93741 0.07421 0.37505 0.0
H1622 H 0.91378 0.06362 0.36453 0.0
H1623 H 0.93362 0.06874 0.34974 0.0
C1624 C 0.89037 0.03675 0.31395 0.0
C1625 C 0.8996 0.03581 0.29688 0.0
C1626 C 0.9 0.03467 0.33102 0.0
C1627 C 0.91906 0.03153 0.33145 0.0
C1628 C 0.92851 0.03099 0.31455 0.0
H1629 H 0.99305 0.00116 0.42202 0.0
H1630 H 0.97802 0.00503 0.39129 0.0
C1631 C 0.91893 0.03328 0.29743 0.0
C1632 C 0.9286 0.02771 0.34943 0.0
H1633 H 0.94396 0.04906 0.39393 0.0
C1634 C 0.93251 0.00851 0.35133 0.0
C1635 C 0.93286 0.04251 0.36495 0.0
C1636 C 0.92937 0.0635 0.36353 0.0
C1637 C 0.94011 0.00356 0.3685 0.0
C1638 C 0.94438 0.01838 0.38409 0.0
C1639 C 0.94064 0.03765 0.38206 0.0
C1640 C 0.95281 0.01437 0.40261 0.0
C1641 C 0.94288 0.98233 0.36994 0.0
C1642 C 0.94377 0.01841 0.41931 0.0
C1643 C 0.95245 0.0164 0.43692 0.0
C1644 C 0.97036 0.0103 0.43819 0.0
C1645 C 0.97912 0.00564 0.42147 0.0
C1646 C 0.9705 0.0078 0.40387 0.0
H1647 H 0.93369 0.97171 0.35906 0.0
H1648 H 0.95811 0.98138 0.36766 0.0
H1649 H 0.93952 0.97751 0.38408 0.0
H1650 H 0.93014 0.02354 0.41874 0.0
H1651 H 0.94542 0.02022 0.44957 0.0
H1652 H 0.30415 0.7074 0.55891 0.0
H1653 H 0.30965 0.72533 0.59042 0.0
H1654 H 0.27726 0.67432 0.61363 0.0
H1655 H 0.27173 0.65615 0.58206 0.0
H1656 H 0.27812 0.73332 0.61063 0.0
H1657 H 0.32467 0.69282 0.65164 0.0
H1658 H 0.32292 0.69073 0.62614 0.0
H1659 H 0.30416 0.67725 0.63871 0.0
C1660 C 0.29855 0.69979 0.57076 0.0
C1661 C 0.28738 0.6804 0.568 0.0
C1662 C 0.30172 0.71007 0.58875 0.0
C1663 C 0.29391 0.70113 0.60432 0.0
C1664 C 0.28364 0.68137 0.6018 0.0
H1665 H 0.25856 0.75401 0.70735 0.0
H1666 H 0.26114 0.73658 0.67639 0.0
C1667 C 0.28045 0.67103 0.58376 0.0
C1668 C 0.29455 0.71329 0.62264 0.0
H1669 H 0.30979 0.71665 0.66915 0.0
C1670 C 0.28519 0.72978 0.6234 0.0
C1671 C 0.30384 0.70866 0.6392 0.0
C1672 C 0.31462 0.69151 0.63895 0.0
C1673 C 0.28447 0.74151 0.64041 0.0
C1674 C 0.29323 0.73651 0.65708 0.0
C1675 C 0.30303 0.72034 0.65629 0.0
C1676 C 0.29173 0.7475 0.67557 0.0
C1677 C 0.27428 0.75912 0.64049 0.0
C1678 C 0.30809 0.75934 0.68533 0.0
C1679 C 0.30657 0.76951 0.70295 0.0
C1680 C 0.2887 0.7678 0.71109 0.0
C1681 C 0.27238 0.75593 0.70125 0.0
C1682 C 0.27387 0.74588 0.68362 0.0
H1683 H 0.27198 0.76354 0.62604 0.0
H1684 H 0.25999 0.75506 0.64637 0.0
H1685 H 0.2826 0.7722 0.64953 0.0
H1686 H 0.322 0.76069 0.6793 0.0
H1687 H 0.31942 0.77842 0.71034 0.0
H1688 H 0.58167 0.00344 0.79586 0.0
H1689 H 0.5614 0.0004 0.82268 0.0
H1690 H 0.60733 0.03702 0.85882 0.0
H1691 H 0.62789 0.03976 0.83222 0.0
H1692 H 0.59124 0.00368 0.87449 0.0
H1693 H 0.5342 0.04215 0.84775 0.0
H1694 H 0.53823 0.02141 0.83211 0.0
H1695 H 0.55693 0.04315 0.83705 0.0
C1696 C 0.58744 0.01097 0.80948 0.0
C1697 C 0.60641 0.0219 0.81187 0.0
C1698 C 0.57578 0.00929 0.82477 0.0
C1699 C 0.58276 0.01873 0.84266 0.0
C1700 C 0.60165 0.02965 0.8451 0.0
H1701 H 0.52384 0.04693 0.94099 0.0
H1702 H 0.5392 0.04585 0.91095 0.0
C1703 C 0.61338 0.03121 0.82987 0.0
C1704 C 0.57065 0.0168 0.85905 0.0
H1705 H 0.52873 0.02684 0.87607 0.0
C1706 C 0.57755 0.00871 0.87485 0.0
C1707 C 0.55288 0.02351 0.85948 0.0
C1708 C 0.54516 0.03321 0.84327 0.0
C1709 C 0.5673 0.00737 0.8912 0.0
C1710 C 0.54938 0.01381 0.89155 0.0
C1711 C 0.54237 0.02171 0.87567 0.0
C1712 C 0.53843 0.01387 0.90876 0.0
C1713 C 0.57613 0.99976 0.90817 0.0
C1714 C 0.53235 0.99615 0.91718 0.0
C1715 C 0.52376 0.99679 0.93444 0.0
C1716 C 0.52087 0.0151 0.94334 0.0
C1717 C 0.52596 0.03263 0.9344 0.0
C1718 C 0.53471 0.03203 0.91726 0.0
H1719 H 0.59181 0.00017 0.90714 0.0
H1720 H 0.57396 0.00874 0.9214 0.0
H1721 H 0.56914 0.984 0.90915 0.0
H1722 H 0.53462 0.98191 0.91061 0.0
H1723 H 0.51973 0.98305 0.941 0.0
H1724 H 0.26962 0.38842 0.09584 0.0
H1725 H 0.26642 0.3714 0.12468 0.0
H1726 H 0.23428 0.31837 0.09258 0.0
H1727 H 0.23805 0.33506 0.06362 0.0
H1728 H 0.23654 0.35574 0.14335 0.0
H1729 H 0.27442 0.29472 0.1191 0.0
H1730 H 0.27418 0.3163 0.10629 0.0
H1731 H 0.25393 0.29585 0.10376 0.0
C1732 C 0.26188 0.37312 0.09491 0.0
C1733 C 0.25425 0.36304 0.07737 0.0
C1734 C 0.26004 0.36339 0.11144 0.0
C1735 C 0.25048 0.34339 0.11085 0.0
C1736 C 0.24225 0.33356 0.09342 0.0
H1737 H 0.22547 0.26193 0.19887 0.0
H1738 H 0.22449 0.2789 0.16991 0.0
C1739 C 0.24428 0.34319 0.07685 0.0
C1740 C 0.24913 0.33292 0.12845 0.0
H1741 H 0.25897 0.29144 0.14784 0.0
C1742 C 0.2415 0.34171 0.1443 0.0
C1743 C 0.25566 0.3146 0.12985 0.0
C1744 C 0.26519 0.30491 0.11392 0.0
C1745 C 0.24008 0.33265 0.16132 0.0
C1746 C 0.24645 0.31431 0.16259 0.0
C1747 C 0.25393 0.30542 0.14677 0.0
C1748 C 0.24623 0.30451 0.18046 0.0
C1749 C 0.23167 0.34267 0.17783 0.0
C1750 C 0.2588 0.31323 0.19597 0.0
C1751 C 0.25952 0.30349 0.2124 0.0
C1752 C 0.24757 0.28488 0.21375 0.0
C1753 C 0.23477 0.27629 0.19831 0.0
C1754 C 0.23422 0.28596 0.18176 0.0
H1755 H 0.22399 0.35455 0.17354 0.0
H1756 H 0.22152 0.33152 0.18468 0.0
H1757 H 0.24344 0.34963 0.18849 0.0
H1758 H 0.2684 0.32738 0.19519 0.0
H1759 H 0.26972 0.3104 0.22393 0.0
H1760 H 0.18504 0.90026 0.9996 0.0
H1761 H 0.15889 0.91935 0.00293 0.0
H1762 H 0.19678 0.9722 0.98883 0.0
H1763 H 0.22251 0.9533 0.98479 0.0
H1764 H 0.15556 0.95227 0.02592 0.0
H1765 H 0.15199 0.9694 0.95149 0.0
H1766 H 0.16547 0.95133 0.95943 0.0
H1767 H 0.17565 0.97765 0.96267 0.0
C1768 C 0.18772 0.91592 0.9971 0.0
C1769 C 0.20576 0.92516 0.99164 0.0
C1770 C 0.17281 0.9268 0.99905 0.0
C1771 C 0.1758 0.94708 0.99571 0.0
C1772 C 0.19397 0.95644 0.9909 0.0
H1773 H 0.09845 0.0296 0.029 0.0
H1774 H 0.1266 0.01315 0.02693 0.0
C1775 C 0.20871 0.94557 0.98867 0.0
C1776 C 0.16003 0.95862 0.99723 0.0
H1777 H 0.1354 0.9879 0.97292 0.0
C1778 C 0.15104 0.95998 0.01432 0.0
C1779 C 0.15406 0.9685 0.98199 0.0
C1780 C 0.16216 0.96649 0.96281 0.0
C1781 C 0.13628 0.97108 0.01664 0.0
C1782 C 0.13081 0.98156 0.00161 0.0
C1783 C 0.13981 0.98013 0.98453 0.0
C1784 C 0.11465 0.99262 0.00258 0.0
C1785 C 0.12631 0.97097 0.03492 0.0
C1786 C 0.0991 0.98721 0.98909 0.0
C1787 C 0.08339 0.99683 0.99 0.0
C1788 C 0.0828 0.01197 0.00451 0.0
C1789 C 0.09858 0.01791 0.01772 0.0
C1790 C 0.11451 0.00838 0.01667 0.0
H1791 H 0.12885 0.95835 0.04294 0.0
H1792 H 0.13201 0.98512 0.0439 0.0
H1793 H 0.11054 0.96987 0.0323 0.0
H1794 H 0.09892 0.97519 0.97805 0.0
H1795 H 0.07142 0.99195 0.9796 0.0
H1796 H 0.72648 0.60579 0.00194 0.0
H1797 H 0.69354 0.58718 0.00218 0.0
H1798 H 0.67248 0.63263 0.97325 0.0
H1799 H 0.70555 0.65145 0.97334 0.0
H1800 H 0.65172 0.62313 0.00327 0.0
H1801 H 0.65885 0.55296 0.96084 0.0
H1802 H 0.67746 0.5614 0.97927 0.0
H1803 H 0.67508 0.57642 0.96003 0.0
C1804 C 0.71487 0.61145 0.9951 0.0
C1805 C 0.71856 0.6297 0.98706 0.0
C1806 C 0.69602 0.60085 0.9953 0.0
C1807 C 0.68048 0.60829 0.98744 0.0
C1808 C 0.68421 0.62652 0.97931 0.0
H1809 H 0.56604 0.54035 0.96081 0.0
H1810 H 0.59867 0.55953 0.9612 0.0
C1811 C 0.70307 0.63719 0.97925 0.0
C1812 C 0.66031 0.59757 0.98851 0.0
H1813 H 0.63045 0.55255 0.97669 0.0
C1814 C 0.64702 0.60772 0.99739 0.0
C1815 C 0.65408 0.57753 0.9807 0.0
C1816 C 0.66702 0.5664 0.96953 0.0
C1817 C 0.62775 0.59836 0.99866 0.0
C1818 C 0.62175 0.5781 0.99132 0.0
C1819 C 0.63507 0.568 0.98252 0.0
C1820 C 0.60152 0.56729 0.99146 0.0
C1821 C 0.61393 0.61047 0.00732 0.0
C1822 C 0.59213 0.5652 0.00834 0.0
C1823 C 0.57325 0.55441 0.00809 0.0
C1824 C 0.56366 0.54518 0.99102 0.0
C1825 C 0.57312 0.54719 0.97421 0.0
C1826 C 0.59179 0.55816 0.97442 0.0
H1827 H 0.61934 0.6268 0.00741 0.0
H1828 H 0.59956 0.60669 0.99957 0.0
H1829 H 0.61216 0.60713 0.02216 0.0
H1830 H 0.59944 0.57169 0.02173 0.0
H1831 H 0.56621 0.55324 0.02119 0.0
H1832 H 0.66568 0.46857 0.25369 0.0
H1833 H 0.6821 0.44016 0.24756 0.0
H1834 H 0.68346 0.43191 0.30695 0.0
H1835 H 0.66823 0.46104 0.31314 0.0
H1836 H 0.71671 0.43057 0.29546 0.0
H1837 H 0.66489 0.38175 0.24311 0.0
H1838 H 0.67285 0.40594 0.23532 0.0
H1839 H 0.65907 0.40359 0.25593 0.0
C1840 C 0.66907 0.46033 0.26532 0.0
C1841 C 0.6655 0.46681 0.28385 0.0
C1842 C 0.67845 0.44405 0.26182 0.0
C1843 C 0.68387 0.43358 0.27674 0.0
C1844 C 0.67954 0.43967 0.29516 0.0
H1845 H 0.71639 0.31782 0.26532 0.0
H1846 H 0.70097 0.34687 0.26923 0.0
C1847 C 0.67066 0.45622 0.2987 0.0
C1848 C 0.69508 0.41712 0.27354 0.0
H1849 H 0.6957 0.37294 0.24723 0.0
C1850 C 0.71201 0.4179 0.28498 0.0
C1851 C 0.68903 0.40048 0.25993 0.0
C1852 C 0.67037 0.39776 0.24802 0.0
C1853 C 0.72277 0.40246 0.28349 0.0
C1854 C 0.717 0.38609 0.26954 0.0
C1855 C 0.70029 0.38551 0.25785 0.0
C1856 C 0.72709 0.36863 0.26766 0.0
C1857 C 0.73972 0.40356 0.29746 0.0
C1858 C 0.74708 0.37096 0.26559 0.0
C1859 C 0.7561 0.3542 0.26385 0.0
C1860 C 0.74516 0.33482 0.26349 0.0
C1861 C 0.72521 0.33256 0.26536 0.0
C1862 C 0.71634 0.3492 0.26756 0.0
H1863 H 0.73873 0.41367 0.31033 0.0
H1864 H 0.74076 0.38855 0.3018 0.0
H1865 H 0.75318 0.40959 0.29086 0.0
H1866 H 0.75569 0.38569 0.26507 0.0
H1867 H 0.77147 0.35636 0.26225 0.0
H1868 H 0.78219 0.43951 0.50014 0.0
H1869 H 0.81555 0.45738 0.50402 0.0
H1870 H 0.83474 0.40451 0.4804 0.0
H1871 H 0.80115 0.38665 0.47619 0.0
H1872 H 0.85389 0.42207 0.51575 0.0
H1873 H 0.85266 0.47851 0.46429 0.0
H1874 H 0.83319 0.47586 0.47978 0.0
H1875 H 0.83548 0.45534 0.46284 0.0
C1876 C 0.79347 0.43196 0.4951 0.0
C1877 C 0.78912 0.41197 0.48722 0.0
C1878 C 0.81252 0.44211 0.49749 0.0
C1879 C 0.82758 0.43233 0.49229 0.0
C1880 C 0.82328 0.41234 0.48438 0.0
H1881 H 0.94597 0.48599 0.48376 0.0
H1882 H 0.91302 0.46766 0.47916 0.0
C1883 C 0.80417 0.40221 0.48191 0.0
C1884 C 0.84784 0.44269 0.49609 0.0
H1885 H 0.88015 0.4829 0.48521 0.0
C1886 C 0.8597 0.43533 0.50904 0.0
C1887 C 0.85537 0.4599 0.48727 0.0
C1888 C 0.8436 0.46787 0.47264 0.0
C1889 C 0.8789 0.44488 0.51347 0.0
C1890 C 0.88623 0.46235 0.50489 0.0
C1891 C 0.8744 0.4696 0.4919 0.0
C1892 C 0.90644 0.47285 0.50832 0.0
C1893 C 0.89127 0.43601 0.52697 0.0
C1894 C 0.91363 0.48199 0.52628 0.0
C1895 C 0.9326 0.49255 0.52901 0.0
C1896 C 0.94456 0.49422 0.51378 0.0
C1897 C 0.93719 0.48508 0.49582 0.0
C1898 C 0.91835 0.47453 0.49314 0.0
H1899 H 0.88483 0.42033 0.52906 0.0
H1900 H 0.90588 0.43633 0.52179 0.0
H1901 H 0.89283 0.44501 0.54089 0.0
H1902 H 0.90452 0.48119 0.5381 0.0
H1903 H 0.93782 0.49946 0.543 0.0
H1904 H 0.38025 0.09214 0.26774 0.0
H1905 H 0.3603 0.1162 0.25944 0.0
H1906 H 0.32794 0.10512 0.30852 0.0
H1907 H 0.34742 0.08062 0.31661 0.0
H1908 H 0.30466 0.1027 0.27715 0.0
H1909 H 0.35969 0.17237 0.28155 0.0
H1910 H 0.36539 0.15237 0.26606 0.0
H1911 H 0.36437 0.1499 0.29094 0.0
C1912 C 0.36914 0.09512 0.27698 0.0
C1913 C 0.36542 0.08449 0.29285 0.0
C1914 C 0.35777 0.1089 0.27222 0.0
C1915 C 0.34276 0.11258 0.28346 0.0
C1916 C 0.33944 0.10248 0.29964 0.0
H1917 H 0.26314 0.19263 0.28897 0.0
H1918 H 0.28074 0.16533 0.29278 0.0
C1919 C 0.35063 0.08854 0.30428 0.0
C1920 C 0.32975 0.12606 0.27785 0.0
H1921 H 0.32863 0.174 0.26844 0.0
C1922 C 0.3099 0.1183 0.27527 0.0
C1923 C 0.33664 0.14638 0.27535 0.0
C1924 C 0.35766 0.15582 0.27879 0.0
C1925 C 0.29675 0.13038 0.27037 0.0
C1926 C 0.30367 0.15063 0.26794 0.0
C1927 C 0.32349 0.15834 0.27017 0.0
C1928 C 0.29052 0.16455 0.26445 0.0
C1929 C 0.27556 0.12154 0.26789 0.0
C1930 C 0.28988 0.17269 0.2471 0.0
C1931 C 0.27966 0.18811 0.24482 0.0
C1932 C 0.27029 0.19576 0.25999 0.0
C1933 C 0.27019 0.18691 0.27704 0.0
C1934 C 0.28022 0.17136 0.27924 0.0
H1935 H 0.27285 0.10493 0.26705 0.0
H1936 H 0.26817 0.12721 0.28007 0.0
H1937 H 0.26908 0.12621 0.2549 0.0
H1938 H 0.29788 0.16763 0.2356 0.0
H1939 H 0.28005 0.19482 0.23158 0.0
H1940 H 0.32171 0.12147 0.46653 0.0
H1941 H 0.35033 0.10735 0.47331 0.0
H1942 H 0.35004 0.1279 0.53224 0.0
H1943 H 0.32123 0.14225 0.52552 0.0
H1944 H 0.38845 0.12523 0.49319 0.0
H1945 H 0.34451 0.06468 0.5286 0.0
H1946 H 0.33373 0.07956 0.51294 0.0
H1947 H 0.34291 0.09015 0.53621 0.0
C1948 C 0.32793 0.12336 0.4809 0.0
C1949 C 0.31914 0.13294 0.49551 0.0
C1950 C 0.3443 0.11526 0.48474 0.0
C1951 C 0.35215 0.11633 0.50329 0.0
C1952 C 0.34408 0.12677 0.51783 0.0
H1953 H 0.43686 0.04906 0.54563 0.0
H1954 H 0.41196 0.06959 0.54297 0.0
C1955 C 0.32774 0.13512 0.51395 0.0
C1956 C 0.36796 0.10533 0.50732 0.0
H1957 H 0.37704 0.06292 0.52526 0.0
C1958 C 0.38605 0.1117 0.50034 0.0
C1959 C 0.36476 0.08766 0.51662 0.0
C1960 C 0.34543 0.07992 0.52397 0.0
C1961 C 0.40103 0.10085 0.50239 0.0
C1962 C 0.39764 0.08278 0.51115 0.0
C1963 C 0.37965 0.07668 0.51848 0.0
C1964 C 0.41246 0.06987 0.51264 0.0
C1965 C 0.42039 0.10905 0.49534 0.0
C1966 C 0.4207 0.06267 0.49644 0.0
C1967 C 0.43499 0.05103 0.49796 0.0
C1968 C 0.44112 0.04606 0.51567 0.0
C1969 C 0.43238 0.05261 0.53179 0.0
C1970 C 0.41819 0.0644 0.53028 0.0
H1971 H 0.42241 0.12549 0.49469 0.0
H1972 H 0.43233 0.10578 0.5045 0.0
H1973 H 0.42135 0.10203 0.48084 0.0
H1974 H 0.41615 0.06612 0.4826 0.0
H1975 H 0.44142 0.04613 0.48529 0.0
H1976 H 0.6851 0.56107 0.27731 0.0
H1977 H 0.70303 0.59498 0.27626 0.0
H1978 H 0.65727 0.61877 0.30289 0.0
H1979 H 0.63982 0.58453 0.30497 0.0
H1980 H 0.6923 0.62279 0.2571 0.0
H1981 H 0.70322 0.65209 0.33276 0.0
H1982 H 0.69494 0.62594 0.32513 0.0
H1983 H 0.67844 0.64308 0.32492 0.0
C1984 C 0.67925 0.57352 0.28363 0.0
C1985 C 0.66153 0.57024 0.29198 0.0
C1986 C 0.68936 0.59291 0.28277 0.0
C1987 C 0.6817 0.6095 0.28977 0.0
C1988 C 0.66379 0.60625 0.29791 0.0
H1989 H 0.72423 0.73658 0.278 0.0
H1990 H 0.7035 0.70469 0.28291 0.0
C1991 C 0.65376 0.58674 0.29899 0.0
C1992 C 0.69192 0.63 0.28714 0.0
H1993 H 0.71257 0.67529 0.31046 0.0
C1994 C 0.69673 0.63423 0.26881 0.0
C1995 C 0.69757 0.64505 0.30236 0.0
C1996 C 0.69344 0.64133 0.32244 0.0
C1997 C 0.70725 0.65288 0.26534 0.0
C1998 C 0.71317 0.66771 0.28058 0.0
C1999 C 0.70796 0.66381 0.29883 0.0
C2000 C 0.72558 0.68702 0.27787 0.0
C2001 C 0.71204 0.65662 0.2454 0.0
C2002 C 0.74483 0.68759 0.27365 0.0
C2003 C 0.75659 0.70571 0.27083 0.0
C2004 C 0.74923 0.72351 0.27203 0.0
C2005 C 0.73003 0.72297 0.2765 0.0
C2006 C 0.71828 0.70484 0.27949 0.0
H2007 H 0.70327 0.64525 0.23484 0.0
H2008 H 0.70972 0.67171 0.24233 0.0
H2009 H 0.72747 0.65605 0.24374 0.0
H2010 H 0.75074 0.67398 0.27254 0.0
H2011 H 0.7714 0.70577 0.26751 0.0
H2012 H 0.90228 0.48741 0.82141 0.0
H2013 H 0.88125 0.45421 0.81919 0.0
H2014 H 0.84131 0.4745 0.78114 0.0
H2015 H 0.86206 0.50745 0.78353 0.0
H2016 H 0.82314 0.45365 0.80826 0.0
H2017 H 0.87505 0.41235 0.77358 0.0
H2018 H 0.88377 0.42624 0.79583 0.0
H2019 H 0.87847 0.43931 0.77601 0.0
C2020 C 0.88894 0.48466 0.81269 0.0
C2021 C 0.88345 0.49993 0.803 0.0
C2022 C 0.87703 0.46577 0.81134 0.0
C2023 C 0.85981 0.46189 0.79987 0.0
C2024 C 0.85449 0.4772 0.79012 0.0
H2025 H 0.78813 0.3544 0.74828 0.0
H2026 H 0.80882 0.38707 0.75626 0.0
C2027 C 0.86628 0.496 0.79156 0.0
C2028 C 0.84725 0.44191 0.79766 0.0
H2029 H 0.84512 0.39338 0.77999 0.0
C2030 C 0.82803 0.44043 0.8024 0.0
C2031 C 0.85356 0.42477 0.78947 0.0
C2032 C 0.87378 0.42567 0.78326 0.0
C2033 C 0.81491 0.42231 0.79917 0.0
C2034 C 0.82123 0.40523 0.79102 0.0
C2035 C 0.84044 0.40658 0.78636 0.0
C2036 C 0.80788 0.38598 0.78644 0.0
C2037 C 0.79426 0.42167 0.80393 0.0
C2038 C 0.80036 0.37477 0.80083 0.0
C2039 C 0.78851 0.35608 0.79636 0.0
C2040 C 0.78404 0.34832 0.77739 0.0
C2041 C 0.79123 0.35991 0.76302 0.0
C2042 C 0.80313 0.37854 0.76753 0.0
H2043 H 0.79103 0.43688 0.80733 0.0
H2044 H 0.7843 0.4139 0.79198 0.0
H2045 H 0.79136 0.41312 0.81636 0.0
H2046 H 0.80401 0.38028 0.81551 0.0
H2047 H 0.78326 0.34754 0.80777 0.0
H2048 H 0.00338 0.81503 0.07743 0.0
H2049 H 0.00162 0.84506 0.06197 0.0
H2050 H 0.01904 0.88135 0.11473 0.0
H2051 H 0.02159 0.85116 0.13026 0.0
H2052 H 0.97887 0.87109 0.06777 0.0
H2053 H 0.05467 0.91076 0.08022 0.0
H2054 H 0.04718 0.88504 0.08479 0.0
H2055 H 0.04318 0.905 0.1015 0.0
C2056 C 0.00704 0.8294 0.08577 0.0
C2057 C 0.01269 0.8307 0.1051 0.0
C2058 C 0.00597 0.84658 0.07689 0.0
C2059 C 0.01034 0.86553 0.0871 0.0
C2060 C 0.01602 0.86696 0.10643 0.0
H2061 H 0.97551 0.97001 0.04194 0.0
H2062 H 0.97667 0.94053 0.05885 0.0
C2063 C 0.0174 0.84969 0.11532 0.0
C2064 C 0.00826 0.88351 0.0774 0.0
H2065 H 0.03265 0.92852 0.06649 0.0
C2066 C 0.99065 0.88365 0.06748 0.0
C2067 C 0.02368 0.8998 0.07684 0.0
C2068 C 0.0433 0.90013 0.08624 0.0
C2069 C 0.98809 0.89944 0.05684 0.0
C2070 C 0.00337 0.91593 0.05662 0.0
C2071 C 0.0209 0.91591 0.06672 0.0
C2072 C 0.00177 0.93314 0.0456 0.0
C2073 C 0.96926 0.89789 0.04545 0.0
C2074 C 0.01558 0.93898 0.03264 0.0
C2075 C 0.01513 0.956 0.02323 0.0
C2076 C 0.00076 0.96745 0.02643 0.0
C2077 C 0.98656 0.96127 0.03893 0.0
C2078 C 0.9872 0.9444 0.04859 0.0
H2079 H 0.96161 0.88211 0.04263 0.0
H2080 H 0.95976 0.90634 0.05351 0.0
H2081 H 0.97154 0.90424 0.03174 0.0
H2082 H 0.02694 0.93054 0.03005 0.0
H2083 H 0.02629 0.96041 0.0137 0.0
H2084 H 0.93305 0.27775 0.87754 0.0
H2085 H 0.90105 0.27631 0.86211 0.0
H2086 H 0.91598 0.2393 0.81481 0.0
H2087 H 0.94764 0.24013 0.83066 0.0
H2088 H 0.89433 0.29142 0.83091 0.0
H2089 H 0.86238 0.21098 0.8203 0.0
H2090 H 0.88355 0.2206 0.83579 0.0
H2091 H 0.88558 0.21585 0.81076 0.0
C2092 C 0.92931 0.26911 0.86396 0.0
C2093 C 0.9429 0.25967 0.85487 0.0
C2094 C 0.91106 0.26824 0.85518 0.0
C2095 C 0.90599 0.2576 0.83732 0.0
C2096 C 0.91931 0.24727 0.82873 0.0
H2097 H 0.81406 0.25301 0.75019 0.0
H2098 H 0.84237 0.24771 0.76902 0.0
C2099 C 0.93754 0.24808 0.83758 0.0
C2100 C 0.88777 0.25925 0.82682 0.0
H2101 H 0.84783 0.2324 0.80148 0.0
C2102 C 0.88434 0.27848 0.82431 0.0
C2103 C 0.87436 0.24239 0.81859 0.0
C2104 C 0.87655 0.22131 0.82166 0.0
C2105 C 0.86865 0.28142 0.81289 0.0
C2106 C 0.85513 0.2646 0.80472 0.0
C2107 C 0.85823 0.24529 0.80762 0.0
C2108 C 0.83753 0.26687 0.79354 0.0
C2109 C 0.86727 0.30258 0.80919 0.0
C2110 C 0.82521 0.27905 0.80114 0.0
C2111 C 0.80953 0.28256 0.79024 0.0
C2112 C 0.80521 0.27322 0.7718 0.0
C2113 C 0.81705 0.26038 0.76438 0.0
C2114 C 0.83314 0.25727 0.77516 0.0
H2115 H 0.88166 0.3125 0.81069 0.0
H2116 H 0.86081 0.30319 0.7948 0.0
H2117 H 0.8582 0.3087 0.81968 0.0
H2118 H 0.82791 0.28618 0.81543 0.0
H2119 H 0.80102 0.29296 0.79617 0.0
H2120 H 0.51186 0.2175 0.6401 0.0
H2121 H 0.51708 0.18533 0.62514 0.0
H2122 H 0.55309 0.21641 0.58563 0.0
H2123 H 0.54634 0.24821 0.59952 0.0
H2124 H 0.53295 0.1884 0.56712 0.0
H2125 H 0.55857 0.15508 0.62856 0.0
H2126 H 0.53542 0.16087 0.63301 0.0
H2127 H 0.55538 0.18077 0.63014 0.0
C2128 C 0.52086 0.21729 0.62821 0.0
C2129 C 0.52836 0.2351 0.62063 0.0
C2130 C 0.52415 0.19897 0.61985 0.0
C2131 C 0.5359 0.19829 0.60445 0.0
C2132 C 0.54397 0.21635 0.59743 0.0
H2133 H 0.55797 0.08102 0.55689 0.0
H2134 H 0.56358 0.11524 0.57261 0.0
C2135 C 0.54011 0.23453 0.60534 0.0
C2136 C 0.53838 0.17881 0.59458 0.0
H2137 H 0.54481 0.1315 0.60166 0.0
C2138 C 0.53556 0.17608 0.5748 0.0
C2139 C 0.54285 0.16279 0.60427 0.0
C2140 C 0.54846 0.16515 0.62514 0.0
C2141 C 0.53552 0.15755 0.56466 0.0
C2142 C 0.53811 0.14109 0.57455 0.0
C2143 C 0.54234 0.14404 0.59414 0.0
C2144 C 0.53512 0.12053 0.56493 0.0
C2145 C 0.53245 0.15577 0.54343 0.0
C2146 C 0.51724 0.11216 0.5556 0.0
C2147 C 0.51403 0.0928 0.54657 0.0
C2148 C 0.52858 0.08122 0.54683 0.0
C2149 C 0.54649 0.08956 0.55633 0.0
C2150 C 0.54971 0.10907 0.56536 0.0
H2151 H 0.53722 0.1704 0.53778 0.0
H2152 H 0.54031 0.14465 0.53663 0.0
H2153 H 0.51685 0.1509 0.53941 0.0
H2154 H 0.50562 0.12055 0.55547 0.0
H2155 H 0.49999 0.08689 0.53956 0.0
H2156 H 0.54599 0.75678 0.36177 0.0
H2157 H 0.57725 0.75575 0.34858 0.0
H2158 H 0.56251 0.79005 0.30394 0.0
H2159 H 0.53136 0.79103 0.31677 0.0
H2160 H 0.57641 0.75605 0.2909 0.0
H2161 H 0.62463 0.80067 0.34923 0.0
H2162 H 0.60783 0.77986 0.35603 0.0
H2163 H 0.59908 0.8006 0.34716 0.0
C2164 C 0.54949 0.76434 0.34929 0.0
C2165 C 0.53608 0.77401 0.34039 0.0
C2166 C 0.5674 0.76375 0.34178 0.0
C2167 C 0.57226 0.77292 0.32532 0.0
C2168 C 0.55906 0.78284 0.31663 0.0
H2169 H 0.68138 0.80571 0.27692 0.0
H2170 H 0.65032 0.8039 0.29105 0.0
C2171 C 0.54123 0.78343 0.32407 0.0
C2172 C 0.59079 0.77175 0.31664 0.0
H2173 H 0.63955 0.78647 0.32377 0.0
C2174 C 0.59023 0.76262 0.29811 0.0
C2175 C 0.60878 0.78048 0.32601 0.0
C2176 C 0.61024 0.79111 0.34565 0.0
C2177 C 0.60716 0.76214 0.28863 0.0
C2178 C 0.62517 0.77079 0.29803 0.0
C2179 C 0.62574 0.77976 0.31662 0.0
C2180 C 0.64355 0.77154 0.28856 0.0
C2181 C 0.60559 0.75296 0.26844 0.0
C2182 C 0.65001 0.75394 0.2823 0.0
C2183 C 0.66775 0.75494 0.27409 0.0
C2184 C 0.67934 0.77357 0.27212 0.0
C2185 C 0.67271 0.79114 0.27816 0.0
C2186 C 0.65501 0.79013 0.28632 0.0
H2187 H 0.59071 0.75113 0.26195 0.0
H2188 H 0.61557 0.76226 0.25975 0.0
H2189 H 0.60957 0.73794 0.26803 0.0
H2190 H 0.64156 0.73943 0.28416 0.0
H2191 H 0.67263 0.74117 0.26976 0.0
H2192 H 0.03892 0.24402 0.44834 0.0
H2193 H 0.03884 0.21471 0.46567 0.0
H2194 H 0.00904 0.17672 0.41787 0.0
H2195 H 0.00901 0.20611 0.40032 0.0
H2196 H 0.00526 0.18727 0.47421 0.0
H2197 H 0.0556 0.15 0.43249 0.0
H2198 H 0.05434 0.17611 0.43164 0.0
H2199 H 0.03621 0.1571 0.41905 0.0
C2200 C 0.03247 0.22943 0.4414 0.0
C2201 C 0.02399 0.22741 0.4229 0.0
C2202 C 0.03242 0.2127 0.45137 0.0
C2203 C 0.02407 0.19354 0.44303 0.0
C2204 C 0.01578 0.19137 0.42448 0.0
H2205 H 0.98523 0.08333 0.49098 0.0
H2206 H 0.98843 0.11544 0.47764 0.0
C2207 C 0.01572 0.20816 0.4145 0.0
C2208 C 0.02343 0.176 0.45407 0.0
H2209 H 0.03937 0.13179 0.45573 0.0
C2210 C 0.01277 0.17516 0.47022 0.0
C2211 C 0.03345 0.16037 0.44898 0.0
C2212 C 0.0457 0.1609 0.43219 0.0
C2213 C 0.01144 0.15885 0.48113 0.0
C2214 C 0.02098 0.14294 0.47571 0.0
C2215 C 0.03205 0.14401 0.45984 0.0
C2216 C 0.01881 0.12456 0.4857 0.0
C2217 C 0.99985 0.15874 0.49839 0.0
C2218 C 0.0348 0.11911 0.49488 0.0
C2219 C 0.03297 0.10078 0.50272 0.0
C2220 C 0.01518 0.08748 0.50119 0.0
C2221 C 0.9991 0.09329 0.49248 0.0
C2222 C 0.00089 0.11166 0.48487 0.0
H2223 H 0.99738 0.17395 0.50322 0.0
H2224 H 0.98562 0.14887 0.49496 0.0
H2225 H 0.0072 0.15281 0.51015 0.0
H2226 H 0.04879 0.12881 0.49556 0.0
H2227 H 0.04569 0.09659 0.50905 0.0
H2228 H 0.54878 0.29345 0.1731 0.0
H2229 H 0.5812 0.29113 0.18502 0.0
H2230 H 0.59312 0.26669 0.12987 0.0
H2231 H 0.56065 0.26875 0.11788 0.0
H2232 H 0.6017 0.24399 0.15833 0.0
H2233 H 0.634 0.32398 0.17707 0.0
H2234 H 0.61133 0.31638 0.18711 0.0
H2235 H 0.61231 0.31603 0.16191 0.0
C2236 C 0.55841 0.28794 0.16341 0.0
C2237 C 0.55212 0.28132 0.14453 0.0
C2238 C 0.57698 0.28667 0.17024 0.0
C2239 C 0.58967 0.27888 0.1583 0.0
C2240 C 0.5836 0.27279 0.13932 0.0
H2241 H 0.71073 0.27987 0.18935 0.0
H2242 H 0.68049 0.28299 0.17268 0.0
C2243 C 0.56505 0.27406 0.13248 0.0
C2244 C 0.60874 0.27583 0.1659 0.0
H2245 H 0.65107 0.30008 0.18886 0.0
C2246 C 0.61256 0.25628 0.16489 0.0
C2247 C 0.62296 0.29187 0.1743 0.0
C2248 C 0.62007 0.31328 0.17504 0.0
C2249 C 0.63001 0.25228 0.17245 0.0
C2250 C 0.64393 0.26823 0.18147 0.0
C2251 C 0.64032 0.28784 0.18206 0.0
C2252 C 0.66224 0.26491 0.19062 0.0
C2253 C 0.63345 0.23104 0.17062 0.0
C2254 C 0.66204 0.25354 0.20613 0.0
C2255 C 0.67929 0.25172 0.21566 0.0
C2256 C 0.69705 0.2613 0.20988 0.0
C2257 C 0.69726 0.27222 0.19405 0.0
C2258 C 0.68 0.27409 0.18457 0.0
H2259 H 0.62385 0.2216 0.15923 0.0
H2260 H 0.64864 0.23057 0.16766 0.0
H2261 H 0.63046 0.22442 0.18409 0.0
H2262 H 0.6485 0.24659 0.21125 0.0
H2263 H 0.6787 0.24336 0.22792 0.0
H2264 H 0.55851 0.85778 0.89405 0.0
H2265 H 0.56459 0.88869 0.9155 0.0
H2266 H 0.53123 0.8579 0.95692 0.0
H2267 H 0.52626 0.82698 0.93618 0.0
H2268 H 0.54212 0.91056 0.92725 0.0
H2269 H 0.57339 0.88713 0.99148 0.0
H2270 H 0.5707 0.87157 0.96937 0.0
H2271 H 0.55124 0.87013 0.98506 0.0
C2272 C 0.55288 0.85758 0.90792 0.0
C2273 C 0.5421 0.83992 0.91352 0.0
C2274 C 0.55633 0.87524 0.92017 0.0
C2275 C 0.54878 0.87564 0.93811 0.0
C2276 C 0.53797 0.85794 0.94359 0.0
H2277 H 0.49942 0.96574 0.99296 0.0
H2278 H 0.51062 0.94069 0.97207 0.0
C2279 C 0.53495 0.84024 0.93159 0.0
C2280 C 0.55034 0.89479 0.95035 0.0
H2281 H 0.55432 0.91373 0.99663 0.0
C2282 C 0.54525 0.91136 0.94236 0.0
C2283 C 0.55507 0.89637 0.97004 0.0
C2284 C 0.56314 0.88039 0.97937 0.0
C2285 C 0.54321 0.92866 0.95365 0.0
C2286 C 0.54534 0.92905 0.97355 0.0
C2287 C 0.55206 0.91326 0.98142 0.0
C2288 C 0.53896 0.94467 0.98635 0.0
C2289 C 0.53856 0.94622 0.94406 0.0
C2290 C 0.55074 0.95462 0.00204 0.0
C2291 C 0.54407 0.96864 0.01441 0.0
C2292 C 0.52562 0.97298 0.01116 0.0
C2293 C 0.51383 0.96288 0.99563 0.0
C2294 C 0.52032 0.94871 0.98353 0.0
H2295 H 0.54522 0.94709 0.93026 0.0
H2296 H 0.52275 0.94422 0.94119 0.0
H2297 H 0.54368 0.9606 0.95289 0.0
H2298 H 0.56509 0.9516 0.00467 0.0
H2299 H 0.55341 0.97628 0.02631 0.0
H2300 H 0.96325 0.81971 0.68522 0.0
H2301 H 0.93305 0.81658 0.70068 0.0
H2302 H 0.90964 0.76368 0.66344 0.0
H2303 H 0.94001 0.76667 0.64762 0.0
H2304 H 0.88386 0.79172 0.66993 0.0
H2305 H 0.91681 0.77285 0.73657 0.0
H2306 H 0.9293 0.7953 0.72801 0.0
H2307 H 0.92826 0.77159 0.71447 0.0
C2308 C 0.95171 0.80742 0.68014 0.0
C2309 C 0.95419 0.79331 0.66523 0.0
C2310 C 0.93445 0.80564 0.68911 0.0
C2311 C 0.91927 0.78969 0.68347 0.0
C2312 C 0.92128 0.77602 0.66809 0.0
H2313 H 0.82043 0.75078 0.74792 0.0
H2314 H 0.85022 0.75371 0.73152 0.0
C2315 C 0.93863 0.77778 0.65905 0.0
C2316 C 0.90152 0.78724 0.69398 0.0
H2317 H 0.88529 0.78026 0.73776 0.0
C2318 C 0.88411 0.78912 0.68473 0.0
C2319 C 0.90189 0.78362 0.71323 0.0
C2320 C 0.92002 0.78053 0.72365 0.0
C2321 C 0.86711 0.78796 0.69437 0.0
C2322 C 0.86765 0.78511 0.71382 0.0
C2323 C 0.88497 0.78273 0.72293 0.0
C2324 C 0.85025 0.78401 0.72484 0.0
C2325 C 0.84866 0.78953 0.6836 0.0
C2326 C 0.84075 0.80035 0.72712 0.0
C2327 C 0.8237 0.79877 0.73657 0.0
C2328 C 0.81588 0.78082 0.74394 0.0
C2329 C 0.82597 0.76481 0.74238 0.0
C2330 C 0.843 0.76643 0.73296 0.0
H2331 H 0.84966 0.78674 0.66811 0.0
H2332 H 0.83633 0.77873 0.68796 0.0
H2333 H 0.84562 0.80484 0.68665 0.0
H2334 H 0.84635 0.81422 0.72133 0.0
H2335 H 0.81635 0.8114 0.73753 0.0
H2336 H 0.13243 0.0046 0.8555 0.0
H2337 H 0.10948 0.00179 0.88007 0.0
H2338 H 0.06281 0.99913 0.83834 0.0
H2339 H 0.08575 0.00204 0.81349 0.0
H2340 H 0.06274 0.02746 0.86954 0.0
H2341 H 0.06998 0.95387 0.89326 0.0
H2342 H 0.09261 0.97053 0.89237 0.0
H2343 H 0.07803 0.96165 0.87092 0.0
C2344 C 0.11727 0.00316 0.85142 0.0
C2345 C 0.111 0.00352 0.83241 0.0
C2346 C 0.10413 0.00142 0.86554 0.0
C2347 C 0.08437 -1e-05 0.86107 0.0
C2348 C 0.07797 8e-05 0.84212 0.0
H2349 H 0.99631 0.98324 0.94514 0.0
H2350 H 0.0143 0.97891 0.91674 0.0
C2351 C 0.09112 0.00168 0.82791 0.0
C2352 C 0.0707 0.99983 0.87639 0.0
H2353 H 0.05488 0.97503 0.91404 0.0
C2354 C 0.06085 0.01586 0.87912 0.0
C2355 C 0.06809 0.98463 0.88884 0.0
C2356 C 0.07758 0.96659 0.88614 0.0
C2357 C 0.04911 0.01752 0.89437 0.0
C2358 C 0.04725 0.00284 0.90734 0.0
C2359 C 0.05645 0.98637 0.90419 0.0
C2360 C 0.03654 0.00492 0.92469 0.0
C2361 C 0.03892 0.03511 0.8966 0.0
C2362 C 0.04326 0.02071 0.93872 0.0
C2363 C 0.03311 0.02314 0.95488 0.0
C2364 C 0.01599 0.00981 0.95742 0.0
C2365 C 0.00941 0.99377 0.94354 0.0
C2366 C 0.01968 0.99128 0.92734 0.0
H2367 H 0.03787 0.04214 0.88321 0.0
H2368 H 0.02419 0.03048 0.90137 0.0
H2369 H 0.04709 0.04657 0.90743 0.0
H2370 H 0.05638 0.03123 0.93713 0.0
H2371 H 0.0386 0.03564 0.96531 0.0
H2372 H 0.71403 0.34621 0.53907 0.0
H2373 H 0.71595 0.33427 0.57029 0.0
H2374 H 0.76073 0.38501 0.58881 0.0
H2375 H 0.7583 0.39745 0.55779 0.0
H2376 H 0.74525 0.32237 0.58652 0.0
H2377 H 0.72759 0.38528 0.63267 0.0
H2378 H 0.7238 0.38334 0.60732 0.0
H2379 H 0.74735 0.39321 0.61853 0.0
C2380 C 0.72404 0.35501 0.54991 0.0
C2381 C 0.73597 0.3728 0.54605 0.0
C2382 C 0.72516 0.34815 0.56773 0.0
C2383 C 0.73835 0.35882 0.58199 0.0
C2384 C 0.75009 0.37677 0.57822 0.0
H2385 H 0.78069 0.30358 0.67741 0.0
H2386 H 0.7766 0.31735 0.64716 0.0
C2387 C 0.74875 0.38383 0.56046 0.0
C2388 C 0.74066 0.35039 0.60027 0.0
H2389 H 0.74146 0.36108 0.64802 0.0
C2390 C 0.74428 0.33079 0.59997 0.0
C2391 C 0.7392 0.36128 0.61781 0.0
C2392 C 0.73407 0.38186 0.61913 0.0
C2393 C 0.74659 0.32183 0.61669 0.0
C2394 C 0.74595 0.33303 0.63425 0.0
C2395 C 0.74218 0.35257 0.63456 0.0
C2396 C 0.74863 0.32464 0.6525 0.0
C2397 C 0.74919 0.30029 0.61527 0.0
C2398 C 0.73459 0.32472 0.66579 0.0
C2399 C 0.73713 0.31731 0.68317 0.0
C2400 C 0.75367 0.30951 0.68752 0.0
C2401 C 0.76772 0.30932 0.67426 0.0
C2402 C 0.76532 0.31707 0.65696 0.0
H2403 H 0.74347 0.29226 0.60136 0.0
H2404 H 0.76478 0.29982 0.61678 0.0
H2405 H 0.74186 0.29217 0.62653 0.0
H2406 H 0.72162 0.33052 0.66271 0.0
H2407 H 0.72611 0.31762 0.6932 0.0
H2408 H 0.44451 0.07549 0.3344 0.0
H2409 H 0.46653 0.08322 0.36267 0.0
H2410 H 0.42501 0.04688 0.39372 0.0
H2411 H 0.40268 0.03982 0.36594 0.0
H2412 H 0.443 0.07968 0.41539 0.0
H2413 H 0.49694 0.04259 0.37864 0.0
H2414 H 0.49092 0.06384 0.36826 0.0
H2415 H 0.47299 0.04153 0.36836 0.0
C2416 C 0.43999 0.06934 0.34733 0.0
C2417 C 0.42195 0.05677 0.34783 0.0
C2418 C 0.45264 0.0737 0.36343 0.0
C2419 C 0.44761 0.06521 0.38016 0.0
C2420 C 0.42923 0.05353 0.38094 0.0
H2421 H 0.48613 0.02065 0.47487 0.0
H2422 H 0.47012 0.0336 0.44893 0.0
C2423 C 0.41649 0.04945 0.36499 0.0
C2424 C 0.46169 0.06714 0.39657 0.0
H2425 H 0.50318 0.0523 0.41093 0.0
C2426 C 0.45634 0.07404 0.41436 0.0
C2427 C 0.47913 0.05976 0.39521 0.0
C2428 C 0.48533 0.05136 0.37665 0.0
C2429 C 0.46736 0.07267 0.43089 0.0
C2430 C 0.48418 0.06436 0.42954 0.0
C2431 C 0.4903 0.0588 0.41177 0.0
C2432 C 0.49363 0.05808 0.44625 0.0
C2433 C 0.46044 0.0791 0.44977 0.0
C2434 C 0.51225 0.06749 0.45313 0.0
C2435 C 0.52134 0.06031 0.46828 0.0
C2436 C 0.51195 0.04349 0.47644 0.0
C2437 C 0.49345 0.03399 0.46924 0.0
C2438 C 0.48432 0.04132 0.45439 0.0
H2439 H 0.45022 0.08956 0.44843 0.0
H2440 H 0.4529 0.0657 0.45596 0.0
H2441 H 0.47276 0.08639 0.45971 0.0
H2442 H 0.51972 0.08028 0.44676 0.0
H2443 H 0.53567 0.06778 0.47353 0.0
H2444 H 0.78064 0.71264 0.04705 0.0
H2445 H 0.77781 0.72683 0.07941 0.0
H2446 H 0.75583 0.66784 0.09511 0.0
H2447 H 0.75884 0.65354 0.06294 0.0
H2448 H 0.74507 0.72546 0.09994 0.0
H2449 H 0.79871 0.68907 0.1359 0.0
H2450 H 0.79702 0.68988 0.11064 0.0
H2451 H 0.78033 0.67192 0.12156 0.0
C2452 C 0.77541 0.70265 0.05744 0.0
C2453 C 0.77011 0.68192 0.0524 0.0
C2454 C 0.77371 0.71081 0.07592 0.0
C2455 C 0.7668 0.69841 0.0898 0.0
C2456 C 0.76154 0.6777 0.08479 0.0
H2457 H 0.72672 0.73931 0.19943 0.0
H2458 H 0.72796 0.72406 0.16708 0.0
C2459 C 0.76323 0.66954 0.06634 0.0
C2460 C 0.76472 0.70716 0.10937 0.0
H2461 H 0.77963 0.70627 0.15556 0.0
C2462 C 0.75263 0.72127 0.11211 0.0
C2463 C 0.77468 0.70183 0.12526 0.0
C2464 C 0.78856 0.68749 0.12325 0.0
C2465 C 0.75019 0.7301 0.13025 0.0
C2466 C 0.75989 0.72449 0.14617 0.0
C2467 C 0.77202 0.71043 0.14341 0.0
C2468 C 0.75868 0.73389 0.1657 0.0
C2469 C 0.73765 0.74576 0.13217 0.0
C2470 C 0.77551 0.74422 0.17585 0.0
C2471 C 0.77487 0.75281 0.1943 0.0
C2472 C 0.75736 0.75127 0.20322 0.0
C2473 C 0.74044 0.74092 0.19303 0.0
C2474 C 0.74111 0.73226 0.17448 0.0
H2475 H 0.73483 0.75165 0.11848 0.0
H2476 H 0.7236 0.73903 0.1373 0.0
H2477 H 0.74442 0.75847 0.14255 0.0
H2478 H 0.78924 0.7457 0.16945 0.0
H2479 H 0.78825 0.76066 0.20155 0.0
H2480 H 0.14606 0.01965 0.71534 0.0
H2481 H 0.13462 0.02545 0.68379 0.0
H2482 H 0.07682 0.99851 0.69497 0.0
H2483 H 0.08817 0.99254 0.72665 0.0
H2484 H 0.088 0.9873 0.6579 0.0
H2485 H 0.10283 0.06968 0.67582 0.0
H2486 H 0.12297 0.05763 0.6801 0.0
H2487 H 0.1021 0.05227 0.69354 0.0
C2488 C 0.13094 0.01468 0.71104 0.0
C2489 C 0.11801 0.00572 0.7236 0.0
C2490 C 0.12441 0.01816 0.69302 0.0
C2491 C 0.1048 0.0128 0.68715 0.0
C2492 C 0.092 0.00291 0.69926 0.0
H2493 H 0.04137 0.05422 0.59586 0.0
H2494 H 0.05526 0.04798 0.62644 0.0
C2495 C 0.09852 0.99945 0.71734 0.0
C2496 C 0.09761 0.01811 0.66866 0.0
H2497 H 0.09319 0.05795 0.64392 0.0
C2498 C 0.08914 0.00273 0.65482 0.0
C2499 C 0.09887 0.03828 0.66476 0.0
C2500 C 0.10702 0.05546 0.67936 0.0
C2501 C 0.08217 0.00697 0.6371 0.0
C2502 C 0.0839 0.02713 0.63302 0.0
C2503 C 0.09209 0.04251 0.64697 0.0
C2504 C 0.07674 0.03251 0.61454 0.0
C2505 C 0.07269 0.98983 0.62299 0.0
C2506 C 0.08468 0.0266 0.59772 0.0
C2507 C 0.07685 0.03028 0.58024 0.0
C2508 C 0.06095 0.03997 0.57927 0.0
C2509 C 0.05365 0.04678 0.59616 0.0
C2510 C 0.06153 0.04314 0.61364 0.0
H2511 H 0.06855 0.97574 0.62975 0.0
H2512 H 0.05963 0.99336 0.61581 0.0
H2513 H 0.08289 0.98719 0.61208 0.0
H2514 H 0.09666 0.01872 0.59808 0.0
H2515 H 0.08278 0.02484 0.56747 0.0
H2516 H 0.72794 0.37692 0.41519 0.0
H2517 H 0.72543 0.34989 0.38992 0.0
H2518 H 0.72619 0.30727 0.431 0.0
H2519 H 0.72875 0.33425 0.45651 0.0
H2520 H 0.75372 0.30589 0.40418 0.0
H2521 H 0.68182 0.30367 0.36927 0.0
H2522 H 0.69555 0.32864 0.37325 0.0
H2523 H 0.68852 0.31503 0.3931 0.0
C2524 C 0.72724 0.36177 0.41892 0.0
C2525 C 0.72859 0.35781 0.43792 0.0
C2526 C 0.72565 0.3463 0.40442 0.0
C2527 C 0.72535 0.32654 0.40859 0.0
C2528 C 0.72621 0.3224 0.42751 0.0
H2529 H 0.72328 0.24419 0.30498 0.0
H2530 H 0.71648 0.253 0.33799 0.0
C2531 C 0.72767 0.33787 0.44205 0.0
C2532 C 0.72626 0.3108 0.39314 0.0
H2533 H 0.7053 0.29145 0.3498 0.0
C2534 C 0.74289 0.30229 0.39251 0.0
C2535 C 0.71201 0.30586 0.37806 0.0
C2536 C 0.69337 0.31362 0.37852 0.0
C2537 C 0.74641 0.29042 0.37642 0.0
C2538 C 0.73302 0.2871 0.36063 0.0
C2539 C 0.7156 0.29409 0.36192 0.0
C2540 C 0.73834 0.27988 0.34178 0.0
C2541 C 0.76495 0.28245 0.37602 0.0
C2542 C 0.75283 0.29205 0.33313 0.0
C2543 C 0.75647 0.28728 0.31444 0.0
C2544 C 0.74589 0.27007 0.30399 0.0
C2545 C 0.73181 0.2574 0.31281 0.0
C2546 C 0.72791 0.26242 0.33158 0.0
H2547 H 0.77055 0.28074 0.39049 0.0
H2548 H 0.76293 0.26778 0.36739 0.0
H2549 H 0.77596 0.29315 0.36965 0.0
H2550 H 0.76071 0.30584 0.34059 0.0
H2551 H 0.767 0.29765 0.30792 0.0
H2552 H 0.4507 0.07568 0.24995 0.0
H2553 H 0.46573 0.0762 0.21963 0.0
H2554 H 0.41839 0.03125 0.19446 0.0
H2555 H 0.40307 0.03113 0.22435 0.0
H2556 H 0.47841 0.04625 0.20056 0.0
H2557 H 0.42303 0.07013 0.15536 0.0
H2558 H 0.42277 0.07228 0.18076 0.0
H2559 H 0.41276 0.04893 0.16707 0.0
C2560 C 0.44333 0.06622 0.23783 0.0
C2561 C 0.42567 0.05343 0.23949 0.0
C2562 C 0.45196 0.06648 0.22056 0.0
C2563 C 0.44305 0.05397 0.20471 0.0
C2564 C 0.42528 0.04143 0.20633 0.0
H2565 H 0.49426 0.00287 0.10908 0.0
H2566 H 0.48321 0.01142 0.14038 0.0
C2567 C 0.41658 0.0413 0.22349 0.0
C2568 C 0.45283 0.05283 0.18682 0.0
H2569 H 0.44516 0.05258 0.13924 0.0
C2570 C 0.47129 0.04794 0.18716 0.0
C2571 C 0.44368 0.05535 0.16938 0.0
C2572 C 0.42456 0.06218 0.16813 0.0
C2573 C 0.4805 0.0447 0.17044 0.0
C2574 C 0.47071 0.04577 0.1529 0.0
C2575 C 0.45258 0.05144 0.15265 0.0
C2576 C 0.47877 0.04097 0.13456 0.0
C2577 C 0.50064 0.0403 0.1718 0.0
C2578 C 0.47959 0.0545 0.12077 0.0
C2579 C 0.48533 0.04939 0.10283 0.0
C2580 C 0.49062 0.03075 0.0984 0.0
C2581 C 0.49038 0.01738 0.11227 0.0
C2582 C 0.48423 0.02235 0.13018 0.0
H2583 H 0.50827 0.04664 0.18558 0.0
H2584 H 0.49987 0.02386 0.17071 0.0
H2585 H 0.50926 0.04646 0.16031 0.0
H2586 H 0.47544 0.06892 0.12379 0.0
H2587 H 0.4855 0.06 0.09237 0.0
H2588 H 0.77294 0.70484 0.95926 0.0
H2589 H 0.77447 0.72523 0.93245 0.0
H2590 H 0.77876 0.67351 0.89473 0.0
H2591 H 0.77737 0.65314 0.92121 0.0
H2592 H 0.80465 0.70862 0.88783 0.0
H2593 H 0.72945 0.72141 0.89217 0.0
H2594 H 0.74477 0.72827 0.91345 0.0
H2595 H 0.73834 0.70244 0.90427 0.0
C2596 C 0.77438 0.69783 0.94529 0.0
C2597 C 0.77492 0.67726 0.94248 0.0
C2598 C 0.77512 0.70949 0.92994 0.0
C2599 C 0.77648 0.70085 0.9115 0.0
C2600 C 0.77765 0.68052 0.90878 0.0
H2601 H 0.74808 0.73608 0.80174 0.0
H2602 H 0.75107 0.71976 0.83069 0.0
C2603 C 0.77681 0.66887 0.92401 0.0
C2604 C 0.77625 0.71266 0.89487 0.0
H2605 H 0.7474 0.73627 0.86836 0.0
C2606 C 0.7922 0.71482 0.88366 0.0
C2607 C 0.75988 0.72049 0.88925 0.0
C2608 C 0.74204 0.71796 0.90027 0.0
C2609 C 0.79221 0.72453 0.86701 0.0
C2610 C 0.77588 0.73243 0.86145 0.0
C2611 C 0.75996 0.73033 0.87269 0.0
C2612 C 0.77469 0.74222 0.84364 0.0
C2613 C 0.80945 0.72573 0.85518 0.0
C2614 C 0.787 0.76031 0.8412 0.0
C2615 C 0.78532 0.7697 0.82461 0.0
C2616 C 0.7713 0.76117 0.81014 0.0
C2617 C 0.75913 0.74297 0.81255 0.0
C2618 C 0.76075 0.73366 0.82914 0.0
H2619 H 0.81913 0.71551 0.85933 0.0
H2620 H 0.80483 0.72198 0.83998 0.0
H2621 H 0.81781 0.74125 0.85699 0.0
H2622 H 0.79769 0.76734 0.85227 0.0
H2623 H 0.79483 0.78375 0.82321 0.0
H2624 H 0.81985 0.13787 0.02647 0.0
H2625 H 0.84724 0.12058 0.02618 0.0
H2626 H 0.81962 0.0801 0.97892 0.0
H2627 H 0.79205 0.09697 0.97928 0.0
H2628 H 0.83269 0.06053 0.0072 0.0
H2629 H 0.89 0.12199 0.98998 0.0
H2630 H 0.87724 0.12867 0.01006 0.0
H2631 H 0.86473 0.12304 0.98712 0.0
C2632 C 0.81971 0.12547 0.01584 0.0
C2633 C 0.80374 0.11882 0.0029 0.0
C2634 C 0.83541 0.11565 0.01566 0.0
C2635 C 0.83553 0.09921 0.00239 0.0
C2636 C 0.81981 0.09278 0.98925 0.0
H2637 H 0.91829 0.02052 0.9814 0.0
H2638 H 0.88936 0.03572 0.98036 0.0
C2639 C 0.80407 0.10248 0.98949 0.0
C2640 C 0.85159 0.08803 0.00279 0.0
H2641 H 0.90026 0.09317 1.0004 0.0
C2642 C 0.84746 0.06761 0.00556 0.0
C2643 C 0.8708 0.09732 1.0006 0.0
C2644 C 0.87598 0.11891 0.99659 0.0
C2645 C 0.86213 0.05634 0.00667 0.0
C2646 C 0.88133 0.06575 0.00485 0.0
C2647 C 0.88546 0.08608 0.00188 0.0
C2648 C 0.89753 0.05494 0.00635 0.0
C2649 C 0.85712 0.03461 0.01024 0.0
C2650 C 0.91144 0.06059 0.0214 0.0
C2651 C 0.92784 0.05196 0.02203 0.0
C2652 C 0.93064 0.03765 0.00752 0.0
C2653 C 0.91637 0.03144 0.99279 0.0
C2654 C 0.89989 0.04008 0.9922 0.0
H2655 H 0.84213 0.03052 0.01453 0.0
H2656 H 0.85862 0.02509 0.99714 0.0
H2657 H 0.86716 0.0312 0.02142 0.0
H2658 H 0.90982 0.07205 0.03243 0.0
H2659 H 0.93863 0.05701 0.03356 0.0
H2660 H 0.32476 0.39655 0.01075 0.0
H2661 H 0.35722 0.41669 0.01104 0.0
H2662 H 0.34067 0.46186 0.04989 0.0
H2663 H 0.30806 0.44194 0.04908 0.0
H2664 H 0.35907 0.47855 0.02251 0.0
H2665 H 0.40165 0.42549 0.04932 0.0
H2666 H 0.3869 0.41477 0.02852 0.0
H2667 H 0.37577 0.42154 0.04978 0.0
C2668 C 0.32817 0.41075 0.01939 0.0
C2669 C 0.3139 0.41802 0.02949 0.0
C2670 C 0.34675 0.42216 0.01972 0.0
C2671 C 0.35156 0.44071 0.03072 0.0
C2672 C 0.33737 0.44762 0.04131 0.0
H2673 H 0.4555 0.53335 0.04672 0.0
H2674 H 0.42298 0.5138 0.04805 0.0
C2675 C 0.31874 0.43632 0.04077 0.0
C2676 C 0.37098 0.45343 0.03033 0.0
H2677 H 0.41926 0.45351 0.03573 0.0
C2678 C 0.37217 0.47305 0.0254 0.0
C2679 C 0.38822 0.44638 0.03439 0.0
C2680 C 0.3881 0.42597 0.04099 0.0
C2681 C 0.38993 0.48557 0.02371 0.0
C2682 C 0.40712 0.47843 0.02748 0.0
C2683 C 0.40604 0.45891 0.0327 0.0
C2684 C 0.42637 0.49094 0.02605 0.0
C2685 C 0.39013 0.50614 0.01742 0.0
C2686 C 0.43904 0.4846 0.01324 0.0
C2687 C 0.45757 0.49573 0.01247 0.0
C2688 C 0.46383 0.51333 0.0246 0.0
C2689 C 0.451 0.51993 0.03712 0.0
C2690 C 0.43243 0.50878 0.03788 0.0
H2691 H 0.37606 0.50737 0.0105 0.0
H2692 H 0.39315 0.51739 0.02992 0.0
H2693 H 0.40154 0.5099 0.00744 0.0
H2694 H 0.43466 0.4709 0.00399 0.0
H2695 H 0.46717 0.49024 0.00271 0.0
H2696 H 0.37285 0.59156 0.72536 0.0
H2697 H 0.35951 0.6223 0.72404 0.0
H2698 H 0.32622 0.60751 0.77174 0.0
H2699 H 0.33907 0.57688 0.77292 0.0
H2700 H 0.30419 0.61638 0.74265 0.0
H2701 H 0.36988 0.67514 0.75761 0.0
H2702 H 0.37097 0.65667 0.73829 0.0
H2703 H 0.36945 0.64939 0.76188 0.0
C2704 C 0.36297 0.59509 0.73577 0.0
C2705 C 0.35699 0.58172 0.74919 0.0
C2706 C 0.35535 0.61267 0.73501 0.0
C2707 C 0.34187 0.61726 0.74784 0.0
C2708 C 0.3365 0.60426 0.76163 0.0
H2709 H 0.30017 0.72519 0.77972 0.0
H2710 H 0.31582 0.69613 0.77653 0.0
C2711 C 0.34392 0.58674 0.7623 0.0
C2712 C 0.33239 0.63492 0.74654 0.0
H2713 H 0.34072 0.68604 0.75074 0.0
C2714 C 0.31219 0.63162 0.74432 0.0
C2715 C 0.34282 0.6548 0.74884 0.0
C2716 C 0.36446 0.65933 0.75195 0.0
C2717 C 0.3021 0.64758 0.74476 0.0
C2718 C 0.31251 0.66747 0.74705 0.0
C2719 C 0.33274 0.67079 0.7489 0.0
C2720 C 0.30268 0.68502 0.74871 0.0
C2721 C 0.28037 0.64295 0.74354 0.0
C2722 C 0.29 0.68851 0.73413 0.0
C2723 C 0.28081 0.70507 0.736 0.0
C2724 C 0.28431 0.71861 0.75239 0.0
C2725 C 0.29707 0.71508 0.76691 0.0
C2726 C 0.30612 0.69849 0.76509 0.0
H2727 H 0.27472 0.62733 0.7465 0.0
H2728 H 0.27449 0.6533 0.75364 0.0
H2729 H 0.27494 0.64482 0.72908 0.0
H2730 H 0.2874 0.67858 0.7212 0.0
H2731 H 0.27132 0.70751 0.72441 0.0
H2732 H 0.22146 0.61158 0.52592 0.0
H2733 H 0.18818 0.59614 0.52948 0.0
H2734 H 0.17013 0.6515 0.51873 0.0
H2735 H 0.20337 0.66599 0.51269 0.0
H2736 H 0.1641 0.60171 0.55241 0.0
H2737 H 0.13264 0.61668 0.48359 0.0
H2738 H 0.15785 0.62457 0.49014 0.0
H2739 H 0.14085 0.63922 0.49885 0.0
C2740 C 0.21022 0.62007 0.52341 0.0
C2741 C 0.21467 0.63936 0.51765 0.0
C2742 C 0.19123 0.61145 0.52593 0.0
C2743 C 0.17636 0.62237 0.52377 0.0
C2744 C 0.18109 0.64236 0.51957 0.0
H2745 H 0.06118 0.56828 0.55658 0.0
H2746 H 0.09339 0.58897 0.55747 0.0
C2747 C 0.20008 0.6507 0.51627 0.0
C2748 C 0.15615 0.61258 0.52619 0.0
H2749 H 0.11095 0.60102 0.50447 0.0
C2750 C 0.15252 0.60154 0.54184 0.0
C2751 C 0.14083 0.61253 0.51261 0.0
C2752 C 0.14327 0.62374 0.4953 0.0
C2753 C 0.13446 0.5897 0.54378 0.0
C2754 C 0.11937 0.58942 0.53003 0.0
C2755 C 0.12265 0.60115 0.51489 0.0
C2756 C 0.10034 0.57623 0.53031 0.0
C2757 C 0.13197 0.57696 0.56008 0.0
C2758 C 0.09353 0.56232 0.51471 0.0
C2759 C 0.07511 0.55073 0.51405 0.0
C2760 C 0.06315 0.55273 0.52904 0.0
C2761 C 0.07017 0.56624 0.54492 0.0
C2762 C 0.08857 0.57805 0.54547 0.0
H2763 H 0.14604 0.57513 0.56659 0.0
H2764 H 0.12424 0.58424 0.5711 0.0
H2765 H 0.12336 0.5619 0.55545 0.0
H2766 H 0.1024 0.56064 0.50288 0.0
H2767 H 0.07013 0.54039 0.50165 0.0
H2768 H 0.63922 0.95752 0.74208 0.0
H2769 H 0.65456 0.92797 0.74089 0.0
H2770 H 0.68401 0.94911 0.79521 0.0
H2771 H 0.6688 0.97846 0.79658 0.0
H2772 H 0.69582 0.9323 0.74246 0.0
H2773 H 0.66382 0.88908 0.79935 0.0
H2774 H 0.65234 0.90733 0.78868 0.0
H2775 H 0.6719 0.91532 0.80627 0.0
C2776 C 0.64856 0.95557 0.75398 0.0
C2777 C 0.65289 0.97033 0.76938 0.0
C2778 C 0.65735 0.93877 0.75324 0.0
C2779 C 0.67029 0.93637 0.76802 0.0
C2780 C 0.67385 0.95056 0.7838 0.0
H2781 H 0.75101 0.85851 0.79002 0.0
H2782 H 0.73308 0.88619 0.79071 0.0
C2783 C 0.66523 0.96738 0.78449 0.0
C2784 C 0.68172 0.92032 0.76623 0.0
H2785 H 0.69268 0.8807 0.78764 0.0
C2786 C 0.69501 0.92085 0.75217 0.0
C2787 C 0.68074 0.90565 0.77911 0.0
C2788 C 0.66632 0.90414 0.79412 0.0
C2789 C 0.70773 0.90732 0.75093 0.0
C2790 C 0.70684 0.89271 0.76389 0.0
C2791 C 0.69342 0.89206 0.77784 0.0
C2792 C 0.71916 0.87739 0.76279 0.0
C2793 C 0.72232 0.9091 0.73608 0.0
C2794 C 0.71741 0.86356 0.74678 0.0
C2795 C 0.72764 0.84791 0.74634 0.0
C2796 C 0.73966 0.84576 0.76196 0.0
C2797 C 0.74192 0.85996 0.77777 0.0
C2798 C 0.73164 0.87566 0.7782 0.0
H2799 H 0.72474 0.9242 0.73093 0.0
H2800 H 0.73633 0.90606 0.74161 0.0
H2801 H 0.71696 0.89798 0.72383 0.0
H2802 H 0.7076 0.86443 0.73489 0.0
H2803 H 0.72559 0.83708 0.73401 0.0
H2804 H 0.71796 0.93613 0.50046 0.0
H2805 H 0.68787 0.94807 0.50397 0.0
H2806 H 0.67484 0.91135 0.54961 0.0
H2807 H 0.70546 0.89937 0.54637 0.0
H2808 H 0.64981 0.92777 0.50171 0.0
H2809 H 0.67155 0.9681 0.57299 0.0
H2810 H 0.68865 0.95891 0.55808 0.0
H2811 H 0.67234 0.94182 0.5702 0.0
C2812 C 0.70872 0.93043 0.51123 0.0
C2813 C 0.71426 0.9169 0.52327 0.0
C2814 C 0.69145 0.93728 0.51317 0.0
C2815 C 0.67924 0.93088 0.52723 0.0
C2816 C 0.68424 0.91676 0.53886 0.0
H2817 H 0.57451 0.97835 0.55261 0.0
H2818 H 0.60061 0.95911 0.55359 0.0
C2819 C 0.70163 0.90978 0.53688 0.0
C2820 C 0.66162 0.93963 0.52964 0.0
H2821 H 0.64207 0.97219 0.5587 0.0
C2822 C 0.64801 0.93729 0.51426 0.0
C2823 C 0.6593 0.95209 0.54602 0.0
C2824 C 0.67375 0.95557 0.56277 0.0
C2825 C 0.63244 0.94746 0.51461 0.0
C2826 C 0.63056 0.96055 0.53065 0.0
C2827 C 0.64366 0.96225 0.54637 0.0
C2828 C 0.61548 0.97312 0.53099 0.0
C2829 C 0.61821 0.94426 0.49769 0.0
C2830 C 0.61553 0.98782 0.51837 0.0
C2831 C 0.60073 0.99891 0.51786 0.0
C2832 C 0.58562 0.99546 0.52996 0.0
C2833 C 0.58596 0.98127 0.54307 0.0
C2834 C 0.60083 0.97025 0.54364 0.0
H2835 H 0.61874 0.93017 0.48881 0.0
H2836 H 0.60331 0.9438 0.50213 0.0
H2837 H 0.62173 0.95688 0.48887 0.0
H2838 H 0.6269 0.9905 0.50871 0.0
H2839 H 0.60084 0.00977 0.50765 0.0
H2840 H 0.38726 0.47052 0.75621 0.0
H2841 H 0.37268 0.43505 0.75601 0.0
H2842 H 0.3268 0.44335 0.71717 0.0
H2843 H 0.3418 0.47863 0.71694 0.0
H2844 H 0.33927 0.42126 0.76865 0.0
H2845 H 0.33756 0.39137 0.69396 0.0
H2846 H 0.35179 0.41532 0.70294 0.0
H2847 H 0.32654 0.41305 0.69636 0.0
C2848 C 0.37418 0.46461 0.74748 0.0
C2849 C 0.36518 0.47729 0.73713 0.0
C2850 C 0.36589 0.44439 0.74732 0.0
C2851 C 0.34869 0.43642 0.73648 0.0
C2852 C 0.34027 0.44896 0.72535 0.0
H2853 H 0.25989 0.33057 0.72954 0.0
H2854 H 0.28103 0.36228 0.72528 0.0
C2855 C 0.34859 0.46919 0.7255 0.0
C2856 C 0.3385 0.41571 0.7384 0.0
H2857 H 0.316 0.37206 0.71344 0.0
C2858 C 0.33411 0.41058 0.75655 0.0
C2859 C 0.33216 0.40151 0.72267 0.0
C2860 C 0.33744 0.40552 0.70292 0.0
C2861 C 0.3224 0.39233 0.75935 0.0
C2862 C 0.31583 0.37817 0.74362 0.0
C2863 C 0.32089 0.38294 0.7255 0.0
C2864 C 0.30343 0.35851 0.74567 0.0
C2865 C 0.31649 0.38896 0.77908 0.0
C2866 C 0.30907 0.34565 0.75829 0.0
C2867 C 0.29678 0.32784 0.76112 0.0
C2868 C 0.27893 0.32214 0.75083 0.0
C2869 C 0.27357 0.33461 0.73768 0.0
C2870 C 0.28568 0.35267 0.73517 0.0
H2871 H 0.31746 0.40334 0.78803 0.0
H2872 H 0.30151 0.3805 0.77894 0.0
H2873 H 0.32631 0.38031 0.78583 0.0
H2874 H 0.3229 0.34948 0.76617 0.0
H2875 H 0.30119 0.31867 0.77153 0.0
H2876 H 0.15962 0.56586 0.24177 0.0
H2877 H 0.17158 0.60114 0.23929 0.0
H2878 H 0.11676 0.61461 0.25524 0.0
H2879 H 0.10595 0.57936 0.2604 0.0
H2880 H 0.16459 0.62662 0.21968 0.0
H2881 H 0.14674 0.65458 0.29127 0.0
H2882 H 0.14042 0.62853 0.283 0.0
H2883 H 0.12619 0.64577 0.27509 0.0
C2884 C 0.1505 0.57654 0.24558 0.0
C2885 C 0.13258 0.57029 0.25278 0.0
C2886 C 0.1571 0.59669 0.24367 0.0
C2887 C 0.14542 0.61095 0.24785 0.0
C2888 C 0.12654 0.60426 0.253 0.0
H2889 H 0.20388 0.73268 0.22798 0.0
H2890 H 0.17974 0.70182 0.22451 0.0
C2891 C 0.12028 0.58411 0.25576 0.0
C2892 C 0.15359 0.63255 0.24694 0.0
H2893 H 0.16454 0.67781 0.27347 0.0
C2894 C 0.1645 0.63777 0.23149 0.0
C2895 C 0.15305 0.64748 0.26202 0.0
C2896 C 0.14109 0.64381 0.27881 0.0
C2897 C 0.17626 0.65664 0.23149 0.0
C2898 C 0.17655 0.67103 0.24706 0.0
C2899 C 0.16448 0.66652 0.26175 0.0
C2900 C 0.19056 0.69012 0.24927 0.0
C2901 C 0.18913 0.66057 0.21539 0.0
C2902 C 0.20431 0.69397 0.26459 0.0
C2903 C 0.21799 0.71162 0.26672 0.0
C2904 C 0.21821 0.72574 0.25351 0.0
C2905 C 0.20427 0.72196 0.23825 0.0
C2906 C 0.19048 0.70433 0.23622 0.0
H2907 H 0.18994 0.64661 0.20643 0.0
H2908 H 0.18336 0.67082 0.20633 0.0
H2909 H 0.20394 0.66783 0.22077 0.0
H2910 H 0.2046 0.68316 0.27482 0.0
H2911 H 0.2285 0.71409 0.27863 0.0
H2912 H 0.48273 0.69064 0.37726 0.0
H2913 H 0.48771 0.6637 0.39662 0.0
H2914 H 0.52221 0.70712 0.43792 0.0
H2915 H 0.517 0.73396 0.419 0.0
H2916 H 0.52036 0.65087 0.41112 0.0
H2917 H 0.47984 0.67997 0.46881 0.0
H2918 H 0.47961 0.68871 0.44566 0.0
H2919 H 0.49962 0.6981 0.46251 0.0
C2920 C 0.49153 0.69437 0.39037 0.0
C2921 C 0.49925 0.71441 0.39674 0.0
C2922 C 0.49435 0.679 0.40142 0.0
C2923 C 0.50494 0.68349 0.41893 0.0
C2924 C 0.51356 0.70337 0.42472 0.0
H2925 H 0.54362 0.59638 0.4879 0.0
H2926 H 0.54263 0.62448 0.46899 0.0
C2927 C 0.51063 0.71868 0.41382 0.0
C2928 C 0.50647 0.66759 0.43155 0.0
H2929 H 0.49648 0.65394 0.47552 0.0
C2930 C 0.51512 0.65149 0.42519 0.0
C2931 C 0.49939 0.66832 0.44982 0.0
C2932 C 0.48892 0.68459 0.45707 0.0
C2933 C 0.51709 0.63619 0.4367 0.0
C2934 C 0.51056 0.63727 0.4552 0.0
C2935 C 0.50174 0.65329 0.46146 0.0
C2936 C 0.51159 0.62131 0.46788 0.0
C2937 C 0.52567 0.61876 0.42877 0.0
C2938 C 0.49459 0.61089 0.47438 0.0
C2939 C 0.49512 0.59506 0.4854 0.0
C2940 C 0.51269 0.58927 0.4902 0.0
C2941 C 0.52983 0.60036 0.48443 0.0
C2942 C 0.52928 0.61629 0.47342 0.0
H2943 H 0.52551 0.61772 0.41312 0.0
H2944 H 0.54087 0.62072 0.43434 0.0
H2945 H 0.51775 0.60443 0.43302 0.0
H2946 H 0.48079 0.61461 0.47044 0.0
H2947 H 0.48162 0.58697 0.48964 0.0
H2948 H 0.59231 0.29316 0.64091 0.0
H2949 H 0.62266 0.29885 0.66012 0.0
H2950 H 0.59969 0.33713 0.70108 0.0
H2951 H 0.56898 0.33081 0.6823 0.0
H2952 H 0.65009 0.33 0.67488 0.0
H2953 H 0.611 0.29402 0.73249 0.0
H2954 H 0.59969 0.29419 0.70935 0.0
H2955 H 0.6028 0.31604 0.72609 0.0
C2956 C 0.59384 0.30309 0.65383 0.0
C2957 C 0.57819 0.31129 0.66027 0.0
C2958 C 0.6112 0.30632 0.66482 0.0
C2959 C 0.61325 0.31794 0.68231 0.0
C2960 C 0.59821 0.32759 0.68792 0.0
H2961 H 0.70387 0.32504 0.77256 0.0
H2962 H 0.67759 0.33353 0.75292 0.0
C2963 C 0.58073 0.3241 0.67711 0.0
C2964 C 0.63045 0.3185 0.69523 0.0
H2965 H 0.64434 0.30512 0.7381 0.0
C2966 C 0.64883 0.32473 0.68876 0.0
C2967 C 0.6288 0.31146 0.71332 0.0
C2968 C 0.60954 0.30337 0.7207 0.0
C2969 C 0.66557 0.32383 0.69978 0.0
C2970 C 0.66386 0.31651 0.71769 0.0
C2971 C 0.64555 0.3109 0.72441 0.0
C2972 C 0.68068 0.31275 0.729 0.0
C2973 C 0.68495 0.33041 0.69203 0.0
C2974 C 0.69087 0.29812 0.72211 0.0
C2975 C 0.7056 0.29309 0.73333 0.0
C2976 C 0.71053 0.30272 0.75161 0.0
C2977 C 0.70041 0.31747 0.75849 0.0
C2978 C 0.68549 0.32237 0.74728 0.0
H2979 H 0.68417 0.34097 0.68115 0.0
H2980 H 0.69585 0.33766 0.70343 0.0
H2981 H 0.68988 0.31708 0.6853 0.0
H2982 H 0.68707 0.29017 0.70822 0.0
H2983 H 0.71294 0.28141 0.72778 0.0
H2984 H 0.99093 0.3441 0.86917 0.0
H2985 H 0.99061 0.37448 0.89008 0.0
H2986 H 0.99936 0.34287 0.93856 0.0
H2987 H 0.99958 0.31246 0.91795 0.0
H2988 H 0.96931 0.36537 0.94138 0.0
H2989 H 0.03744 0.41021 0.92048 0.0
H2990 H 0.01998 0.39954 0.9015 0.0
H2991 H 0.03126 0.3834 0.9151 0.0
C2992 C 0.99296 0.34362 0.88427 0.0
C2993 C 0.99537 0.32579 0.89182 0.0
C2994 C 0.99279 0.36102 0.89619 0.0
C2995 C 0.99508 0.36093 0.91586 0.0
C2996 C 0.99755 0.34324 0.92342 0.0
H2997 H 0.02689 0.45597 0.00435 0.0
H2998 H 0.02296 0.42602 0.98221 0.0
C2999 C 0.99775 0.32587 0.91157 0.0
C3000 C 0.99478 0.37917 0.9287 0.0
H3001 H 0.01989 0.42618 0.9425 0.0
C3002 C 0.98029 0.37873 0.94158 0.0
C3003 C 0.00921 0.39648 0.92899 0.0
C3004 C 0.02547 0.39751 0.9159 0.0
C3005 C 0.97997 0.39511 0.9549 0.0
C3006 C 0.99442 0.4124 0.95519 0.0
C3007 C 0.00877 0.41291 0.94217 0.0
C3008 C 0.99564 0.42976 0.96953 0.0
C3009 C 0.96456 0.39358 0.96893 0.0
C3010 C 0.98138 0.44166 0.96997 0.0
C3011 C 0.98355 0.45889 0.98271 0.0
C3012 C 1.00009 0.46454 0.99512 0.0
C3013 C 0.014 0.45218 0.99497 0.0
C3014 C 0.01182 0.43503 0.98229 0.0
H3015 H 0.95678 0.37795 0.96916 0.0
H3016 H 0.97088 0.39928 0.98335 0.0
H3017 H 0.95393 0.40291 0.96506 0.0
H3018 H 0.96889 0.43797 0.96008 0.0
H3019 H 0.97262 0.46813 0.98235 0.0
H3020 H 0.98915 0.79973 0.18676 0.0
H3021 H 0.96383 0.80253 0.20857 0.0
H3022 H 0.92075 0.775 0.16479 0.0
H3023 H 0.94586 0.77191 0.14293 0.0
H3024 H 0.93238 0.82236 0.2056 0.0
H3025 H 0.90828 0.74092 0.20891 0.0
H3026 H 0.93087 0.75125 0.19963 0.0
H3027 H 0.90875 0.74805 0.18526 0.0
C3028 C 0.9743 0.79422 0.18174 0.0
C3029 C 0.96959 0.7855 0.16306 0.0
C3030 C 0.95986 0.79587 0.19424 0.0
C3031 C 0.94046 0.78869 0.18838 0.0
C3032 C 0.93567 0.78028 0.16971 0.0
H3033 H 0.8341 0.81173 0.2277 0.0
H3034 H 0.86531 0.81316 0.2141 0.0
C3035 C 0.95007 0.77865 0.15718 0.0
C3036 C 0.92513 0.79019 0.20165 0.0
H3037 H 0.88733 0.76218 0.22091 0.0
C3038 C 0.92264 0.80921 0.20913 0.0
C3039 C 0.91268 0.773 0.20653 0.0
C3040 C 0.91535 0.75213 0.19983 0.0
C3041 C 0.90745 0.81153 0.22066 0.0
C3042 C 0.8943 0.79439 0.22458 0.0
C3043 C 0.89734 0.77533 0.2178 0.0
C3044 C 0.87653 0.79579 0.2345 0.0
C3045 C 0.90556 0.83232 0.22843 0.0
C3046 C 0.87244 0.7856 0.25055 0.0
C3047 C 0.85451 0.78469 0.25832 0.0
C3048 C 0.84037 0.79379 0.25002 0.0
C3049 C 0.84478 0.80465 0.23444 0.0
C3050 C 0.86266 0.80558 0.22671 0.0
H3051 H 0.91964 0.84276 0.22941 0.0
H3052 H 0.89556 0.83813 0.21882 0.0
H3053 H 0.89971 0.83229 0.24263 0.0
H3054 H 0.8829 0.77784 0.2567 0.0
H3055 H 0.85143 0.77613 0.27027 0.0
H3056 H 0.51662 0.33549 0.11579 0.0
H3057 H 0.52343 0.36735 0.10165 0.0
H3058 H 0.47587 0.34638 0.06051 0.0
H3059 H 0.46876 0.31495 0.07453 0.0
H3060 H 0.53266 0.37385 0.06461 0.0
H3061 H 0.46522 0.40051 0.08078 0.0
H3062 H 0.47288 0.38037 0.09209 0.0
H3063 H 0.4609 0.37571 0.06886 0.0
C3064 C 0.50747 0.33776 0.10388 0.0
C3065 C 0.49204 0.32262 0.09644 0.0
C3066 C 0.51143 0.35594 0.09578 0.0
C3067 C 0.49997 0.35935 0.0802 0.0
C3068 C 0.48464 0.34429 0.07278 0.0
H3069 H 0.49578 0.45124 0.00464 0.0
H3070 H 0.49291 0.41959 0.01897 0.0
C3071 C 0.48066 0.32622 0.08082 0.0
C3072 C 0.50422 0.37831 0.07115 0.0
H3073 H 0.48376 0.41688 0.05757 0.0
C3074 C 0.52206 0.38339 0.06323 0.0
C3075 C 0.49036 0.39071 0.06933 0.0
C3076 C 0.47134 0.38668 0.07838 0.0
C3077 C 0.52617 0.40022 0.05304 0.0
C3078 C 0.51212 0.41233 0.05088 0.0
C3079 C 0.49441 0.40741 0.05904 0.0
C3080 C 0.5156 0.43059 0.04074 0.0
C3081 C 0.54529 0.40467 0.04428 0.0
C3082 C 0.52954 0.44713 0.04803 0.0
C3083 C 0.53121 0.46521 0.03991 0.0
C3084 C 0.51893 0.46713 0.02432 0.0
C3085 C 0.50556 0.45025 0.01651 0.0
C3086 C 0.50383 0.43218 0.02475 0.0
H3087 H 0.55256 0.39152 0.0434 0.0
H3088 H 0.54345 0.40938 0.02989 0.0
H3089 H 0.55486 0.41713 0.05305 0.0
H3090 H 0.53858 0.44633 0.06052 0.0
H3091 H 0.54167 0.47789 0.0463 0.0
H3092 H 0.96667 0.30213 0.40827 0.0
H3093 H 0.93399 0.30559 0.39779 0.0
H3094 H 0.93625 0.26483 0.34837 0.0
H3095 H 0.96836 0.26064 0.35943 0.0
H3096 H 0.92256 0.32115 0.36923 0.0
H3097 H 0.884 0.24305 0.36185 0.0
H3098 H 0.90772 0.25027 0.3735 0.0
H3099 H 0.90473 0.24487 0.34816 0.0
C3100 C 0.95998 0.29374 0.39531 0.0
C3101 C 0.97016 0.28168 0.38425 0.0
C3102 C 0.94135 0.29573 0.38931 0.0
C3103 C 0.93247 0.2854 0.3723 0.0
C3104 C 0.94244 0.27263 0.36174 0.0
H3105 H 0.85003 0.32028 0.29557 0.0
H3106 H 0.8784 0.31828 0.31582 0.0
C3107 C 0.96097 0.27054 0.36784 0.0
C3108 C 0.91351 0.2891 0.36485 0.0
H3109 H 0.87024 0.26563 0.34332 0.0
C3110 C 0.91112 0.30897 0.36364 0.0
C3111 C 0.89815 0.27333 0.35818 0.0
C3112 C 0.89872 0.25173 0.36071 0.0
C3113 C 0.89441 0.31346 0.35493 0.0
C3114 C 0.8797 0.29764 0.34698 0.0
C3115 C 0.88163 0.27781 0.34909 0.0
C3116 C 0.86239 0.30113 0.33603 0.0
C3117 C 0.8927 0.33511 0.3544 0.0
C3118 C 0.84389 0.29224 0.3406 0.0
C3119 C 0.82773 0.29316 0.3289 0.0
C3120 C 0.82971 0.30304 0.31243 0.0
C3121 C 0.84806 0.31279 0.30832 0.0
C3122 C 0.86429 0.31169 0.31993 0.0
H3123 H 0.90156 0.34474 0.36617 0.0
H3124 H 0.89805 0.34036 0.34097 0.0
H3125 H 0.87753 0.33714 0.35522 0.0
H3126 H 0.84203 0.28402 0.35291 0.0
H3127 H 0.81374 0.28546 0.33238 0.0
H3128 H 0.99326 0.71144 0.63666 0.0
H3129 H 0.99004 0.67743 0.62097 0.0
H3130 H 0.9695 0.69718 0.56934 0.0
H3131 H 0.97256 0.73113 0.58482 0.0
H3132 H 0.95384 0.65075 0.59344 0.0
H3133 H 0.02493 0.67572 0.56399 0.0
H3134 H 0.01832 0.68746 0.58583 0.0
H3135 H 0.00747 0.69196 0.56379 0.0
C3136 C 0.98765 0.70845 0.62209 0.0
C3137 C 0.9833 0.72401 0.61194 0.0
C3138 C 0.9858 0.68903 0.61318 0.0
C3139 C 0.9796 0.68491 0.59403 0.0
C3140 C 0.97427 0.70013 0.58415 0.0
H3141 H 0.96508 0.57766 0.51487 0.0
H3142 H 0.96029 0.6083 0.53344 0.0
C3143 C 0.97606 0.71951 0.59303 0.0
C3144 C 0.98068 0.66538 0.58381 0.0
H3145 H 0.00913 0.64267 0.55489 0.0
C3146 C 0.96587 0.64891 0.58498 0.0
C3147 C 0.99649 0.66313 0.57293 0.0
C3148 C 0.01282 0.68042 0.57151 0.0
C3149 C 0.96646 0.63015 0.57535 0.0
C3150 C 0.98221 0.62798 0.56431 0.0
C3151 C 0.99705 0.64445 0.56331 0.0
C3152 C 0.9839 0.60867 0.55395 0.0
C3153 C 0.95049 0.61268 0.57723 0.0
C3154 C 0.99877 0.59886 0.55933 0.0
C3155 C 0.00152 0.58148 0.54879 0.0
C3156 C 0.98952 0.57367 0.5326 0.0
C3157 C 0.97449 0.58337 0.52732 0.0
C3158 C 0.97168 0.60075 0.53795 0.0
H3159 H 0.94099 0.61599 0.58863 0.0
H3160 H 0.94159 0.60898 0.56372 0.0
H3161 H 0.95655 0.59927 0.5802 0.0
H3162 H 0.00844 0.60484 0.57154 0.0
H3163 H 0.01335 0.57444 0.5531 0.0
H3164 H 0.5714 0.74589 0.87618 0.0
H3165 H 0.59827 0.7357 0.85936 0.0
H3166 H 0.61172 0.79414 0.83946 0.0
H3167 H 0.58516 0.80432 0.856 0.0
H3168 H 0.60313 0.75896 0.81063 0.0
H3169 H 0.65936 0.75409 0.86659 0.0
H3170 H 0.63454 0.74338 0.86946 0.0
H3171 H 0.6418 0.77001 0.87048 0.0
C3172 C 0.58048 0.75671 0.86869 0.0
C3173 C 0.57612 0.77586 0.86732 0.0
C3174 C 0.59574 0.75085 0.85903 0.0
C3175 C 0.60687 0.76416 0.84809 0.0
C3176 C 0.60324 0.78363 0.84774 0.0
H3177 H 0.69303 0.78504 0.77167 0.0
H3178 H 0.66438 0.78209 0.78976 0.0
C3179 C 0.58807 0.78942 0.85724 0.0
C3180 C 0.62115 0.75768 0.83551 0.0
H3181 H 0.66757 0.75025 0.83502 0.0
C3182 C 0.61713 0.75672 0.81594 0.0
C3183 C 0.63928 0.7546 0.84249 0.0
C3184 C 0.6442 0.75558 0.8634 0.0
C3185 C 0.63107 0.7537 0.80317 0.0
C3186 C 0.64964 0.75192 0.81017 0.0
C3187 C 0.65333 0.75168 0.82969 0.0
C3188 C 0.66591 0.7525 0.79768 0.0
C3189 C 0.62595 0.75294 0.7823 0.0
C3190 C 0.67626 0.73679 0.79602 0.0
C3191 C 0.69268 0.7384 0.78556 0.0
C3192 C 0.69918 0.75591 0.77686 0.0
C3193 C 0.68841 0.77133 0.77812 0.0
C3194 C 0.67197 0.76964 0.78843 0.0
H3195 H 0.6102 0.74817 0.77904 0.0
H3196 H 0.63029 0.76811 0.77764 0.0
H3197 H 0.63355 0.74253 0.77404 0.0
H3198 H 0.67188 0.72349 0.80315 0.0
H3199 H 0.70077 0.72635 0.78505 0.0
H3200 H 0.44266 0.55568 0.70951 0.0
H3201 H 0.46102 0.56 0.68135 0.0
H3202 H 0.40871 0.54098 0.64595 0.0
H3203 H 0.39024 0.5366 0.67401 0.0
H3204 H 0.46259 0.52902 0.65219 0.0
H3205 H 0.43524 0.59269 0.62419 0.0
H3206 H 0.43278 0.58689 0.64832 0.0
H3207 H 0.41693 0.57248 0.62968 0.0
C3208 C 0.43501 0.55267 0.69574 0.0
C3209 C 0.41496 0.54581 0.69402 0.0
C3210 C 0.44554 0.55511 0.67966 0.0
C3211 C 0.43624 0.55102 0.66153 0.0
C3212 C 0.41617 0.54456 0.65978 0.0
H3213 H 0.47881 0.5206 0.55347 0.0
H3214 H 0.46135 0.52304 0.58217 0.0
C3215 C 0.40564 0.54197 0.67585 0.0
C3216 C 0.44763 0.55221 0.64447 0.0
H3217 H 0.45394 0.57533 0.60392 0.0
C3218 C 0.4608 0.53925 0.64171 0.0
C3219 C 0.44536 0.56563 0.63084 0.0
C3220 C 0.43194 0.58036 0.6334 0.0
C3221 C 0.47134 0.53897 0.62547 0.0
C3222 C 0.46866 0.55197 0.6116 0.0
C3223 C 0.45589 0.56531 0.61454 0.0
C3224 C 0.47862 0.55133 0.5937 0.0
C3225 C 0.48523 0.52469 0.62315 0.0
C3226 C 0.49391 0.56665 0.59048 0.0
C3227 C 0.50402 0.56526 0.57406 0.0
C3228 C 0.49885 0.54862 0.56054 0.0
C3229 C 0.48315 0.53363 0.56359 0.0
C3230 C 0.47317 0.53496 0.58001 0.0
H3231 H 0.4882 0.51823 0.63652 0.0
H3232 H 0.47902 0.51223 0.61231 0.0
H3233 H 0.49905 0.53238 0.61823 0.0
H3234 H 0.4983 0.57943 0.60088 0.0
H3235 H 0.51603 0.57705 0.57207 0.0
H3236 H 0.74695 0.15122 0.9419 0.0
H3237 H 0.74816 0.17284 0.91636 0.0
H3238 H 0.77682 0.22306 0.9545 0.0
H3239 H 0.77552 0.20161 0.98033 0.0
H3240 H 0.74586 0.2313 0.93259 0.0
H3241 H 0.79517 0.19566 0.88837 0.0
H3242 H 0.77487 0.17823 0.89474 0.0
H3243 H 0.79233 0.19135 0.9128 0.0
C3244 C 0.75369 0.16681 0.94489 0.0
C3245 C 0.76122 0.17463 0.9632 0.0
C3246 C 0.75442 0.17913 0.93023 0.0
C3247 C 0.7628 0.19946 0.93352 0.0
C3248 C 0.77037 0.20736 0.9517 0.0
H3249 H 0.78738 0.27269 0.84076 0.0
H3250 H 0.78971 0.25706 0.87015 0.0
C3251 C 0.76965 0.19505 0.96641 0.0
C3252 C 0.76306 0.21254 0.91803 0.0
H3253 H 0.778 0.21781 0.87365 0.0
C3254 C 0.75303 0.22851 0.91976 0.0
C3255 C 0.77264 0.20898 0.90145 0.0
C3256 C 0.78452 0.19275 0.89925 0.0
C3257 C 0.75181 0.24067 0.90503 0.0
C3258 C 0.7606 0.23648 0.88807 0.0
C3259 C 0.77112 0.22088 0.88661 0.0
C3260 C 0.75892 0.2478 0.87149 0.0
C3261 C 0.74124 0.25792 0.9078 0.0
C3262 C 0.74081 0.24797 0.86262 0.0
C3263 C 0.73944 0.25704 0.84589 0.0
C3264 C 0.75618 0.26581 0.83771 0.0
C3265 C 0.77425 0.26602 0.84681 0.0
C3266 C 0.77561 0.25709 0.86356 0.0
H3267 H 0.74041 0.26267 0.92301 0.0
H3268 H 0.74832 0.27098 0.90082 0.0
H3269 H 0.7263 0.25319 0.90148 0.0
H3270 H 0.72778 0.24049 0.86826 0.0
H3271 H 0.72536 0.25656 0.83904 0.0
H3272 H 0.116 0.50964 0.18991 0.0
H3273 H 0.097 0.50066 0.15991 0.0
H3274 H 0.05594 0.45863 0.18618 0.0
H3275 H 0.07454 0.46811 0.21647 0.0
H3276 H 0.08339 0.46687 0.13624 0.0
H3277 H 0.0227 0.49646 0.16864 0.0
H3278 H 0.04617 0.4997 0.18068 0.0
H3279 H 0.03004 0.47595 0.17929 0.0
C3280 C 0.1031 0.49824 0.18925 0.0
C3281 C 0.09657 0.48983 0.20559 0.0
C3282 C 0.09226 0.49309 0.17208 0.0
C3283 C 0.0748 0.47934 0.17093 0.0
C3284 C 0.06908 0.46969 0.18688 0.0
H3285 H 0.99071 0.47528 0.07395 0.0
H3286 H 0.00586 0.46271 0.10117 0.0
C3287 C 0.07978 0.47504 0.20414 0.0
C3288 C 0.06198 0.47669 0.15348 0.0
H3289 H 0.01968 0.48759 0.13611 0.0
C3290 C 0.0693 0.47104 0.13624 0.0
C3291 C 0.04355 0.4821 0.15349 0.0
C3292 C 0.03514 0.48904 0.17146 0.0
C3293 C 0.05917 0.47172 0.11899 0.0
C3294 C 0.04131 0.47825 0.11903 0.0
C3295 C 0.03334 0.48249 0.13622 0.0
C3296 C 0.03246 0.48423 0.10177 0.0
C3297 C 0.06805 0.46636 0.10084 0.0
C3298 C 0.04227 0.50064 0.09348 0.0
C3299 C 0.0336 0.50798 0.07837 0.0
C3300 C 0.015 0.49893 0.07105 0.0
C3301 C 0.00512 0.48242 0.07927 0.0
C3302 C 0.01376 0.47519 0.09469 0.0
H3303 H 0.07807 0.45582 0.10287 0.0
H3304 H 0.05682 0.45954 0.08958 0.0
H3305 H 0.07643 0.48015 0.09599 0.0
H3306 H 0.05648 0.50817 0.09907 0.0
H3307 H 0.04145 0.52097 0.07256 0.0
H3308 H 0.76968 0.90262 0.45331 0.0
H3309 H 0.76808 0.88387 0.42243 0.0
H3310 H 0.7524 0.82853 0.44757 0.0
H3311 H 0.75424 0.84721 0.47883 0.0
H3312 H 0.78072 0.82714 0.42204 0.0
H3313 H 0.72009 0.85666 0.39018 0.0
H3314 H 0.73937 0.87611 0.40014 0.0
H3315 H 0.72611 0.85961 0.41528 0.0
C3316 C 0.76573 0.88646 0.45239 0.0
C3317 C 0.76196 0.87648 0.46868 0.0
C3318 C 0.76474 0.87575 0.43462 0.0
C3319 C 0.75979 0.8548 0.43259 0.0
C3320 C 0.75612 0.84471 0.44877 0.0
H3321 H 0.73126 0.78792 0.32165 0.0
H3322 H 0.73077 0.80154 0.35443 0.0
C3323 C 0.75713 0.85543 0.46664 0.0
C3324 C 0.759 0.84356 0.4136 0.0
H3325 H 0.73845 0.84 0.36881 0.0
C3326 C 0.77136 0.82981 0.41043 0.0
C3327 C 0.7466 0.84681 0.39849 0.0
C3328 C 0.73215 0.86044 0.4012 0.0
C3329 C 0.77208 0.81973 0.39244 0.0
C3330 C 0.76038 0.82377 0.37712 0.0
C3331 C 0.7476 0.83705 0.38046 0.0
C3332 C 0.76113 0.8145 0.3575 0.0
C3333 C 0.78525 0.80471 0.39009 0.0
C3334 C 0.77837 0.81721 0.34819 0.0
C3335 C 0.77874 0.80933 0.3294 0.0
C3336 C 0.76182 0.79875 0.31941 0.0
C3337 C 0.74459 0.79598 0.32882 0.0
C3338 C 0.74427 0.80378 0.34761 0.0
H3339 H 0.78865 0.79899 0.40373 0.0
H3340 H 0.77874 0.79182 0.3798 0.0
H3341 H 0.79901 0.81204 0.38479 0.0
H3342 H 0.79149 0.82583 0.35533 0.0
H3343 H 0.79223 0.81191 0.32261 0.0
H3344 H 0.42471 0.53738 0.78926 0.0
H3345 H 0.4415 0.53297 0.81905 0.0
H3346 H 0.38699 0.51628 0.84345 0.0
H3347 H 0.37009 0.52064 0.81399 0.0
H3348 H 0.43886 0.55106 0.85728 0.0
H3349 H 0.41525 0.4685 0.8499 0.0
H3350 H 0.41429 0.48343 0.83029 0.0
H3351 H 0.39618 0.48242 0.84723 0.0
C3352 C 0.41627 0.53297 0.80101 0.0
C3353 C 0.39599 0.52926 0.79908 0.0
C3354 C 0.42591 0.53041 0.81801 0.0
C3355 C 0.41547 0.52393 0.83333 0.0
C3356 C 0.39532 0.52092 0.83169 0.0
H3357 H 0.45003 0.52566 0.95145 0.0
H3358 H 0.43445 0.52886 0.92078 0.0
C3359 C 0.38569 0.52356 0.8148 0.0
C3360 C 0.42552 0.52012 0.85104 0.0
H3361 H 0.43019 0.48335 0.87962 0.0
C3362 C 0.43707 0.53626 0.86212 0.0
C3363 C 0.42333 0.50073 0.85723 0.0
C3364 C 0.41174 0.48271 0.8455 0.0
C3365 C 0.44601 0.53363 0.87951 0.0
C3366 C 0.44321 0.51438 0.88605 0.0
C3367 C 0.43215 0.49812 0.87469 0.0
C3368 C 0.45155 0.51095 0.90473 0.0
C3369 C 0.45847 0.55146 0.89075 0.0
C3370 C 0.46576 0.49908 0.90598 0.0
C3371 C 0.47466 0.49715 0.92354 0.0
C3372 C 0.46934 0.50692 0.94013 0.0
C3373 C 0.45444 0.51795 0.93891 0.0
C3374 C 0.44563 0.51994 0.92138 0.0
H3375 H 0.46283 0.56394 0.88192 0.0
H3376 H 0.45027 0.55697 0.90238 0.0
H3377 H 0.47163 0.54729 0.89712 0.0
H3378 H 0.47044 0.49189 0.8933 0.0
H3379 H 0.48614 0.48861 0.92405 0.0
H3380 H 0.76489 0.15901 0.08383 0.0
H3381 H 0.76963 0.1779 0.11489 0.0
H3382 H 0.81133 0.22335 0.09341 0.0
H3383 H 0.80596 0.20491 0.06198 0.0
H3384 H 0.79812 0.19116 0.14046 0.0
H3385 H 0.77335 0.25608 0.1124 0.0
H3386 H 0.7719 0.23253 0.09834 0.0
H3387 H 0.79432 0.25014 0.10167 0.0
C3388 C 0.77527 0.1729 0.08576 0.0
C3389 C 0.78486 0.18064 0.07042 0.0
C3390 C 0.77796 0.1837 0.10354 0.0
C3391 C 0.79042 0.20234 0.10636 0.0
C3392 C 0.80115 0.20934 0.0914 0.0
H3393 H 0.81912 0.26486 0.21902 0.0
H3394 H 0.82 0.24611 0.1884 0.0
C3395 C 0.79822 0.1987 0.0735 0.0
C3396 C 0.79131 0.21474 0.12468 0.0
H3397 H 0.78463 0.26018 0.1445 0.0
C3398 C 0.79519 0.20626 0.14135 0.0
C3399 C 0.78704 0.23429 0.12585 0.0
C3400 C 0.78122 0.24373 0.10864 0.0
C3401 C 0.79492 0.21676 0.15916 0.0
C3402 C 0.79138 0.23659 0.16028 0.0
C3403 C 0.78752 0.24506 0.14362 0.0
C3404 C 0.79121 0.2487 0.17859 0.0
C3405 C 0.79773 0.20619 0.17654 0.0
C3406 C 0.77517 0.25739 0.1829 0.0
C3407 C 0.77489 0.26864 0.20022 0.0
C3408 C 0.79049 0.27114 0.2136 0.0
C3409 C 0.80676 0.26298 0.20904 0.0
C3410 C 0.80719 0.25202 0.19164 0.0
H3411 H 0.79426 0.18966 0.17335 0.0
H3412 H 0.81302 0.21024 0.18195 0.0
H3413 H 0.7886 0.21056 0.18786 0.0
H3414 H 0.76278 0.25531 0.17293 0.0
H3415 H 0.76254 0.27537 0.20313 0.0
H3416 H 0.12581 0.53228 0.33358 0.0
H3417 H 0.10499 0.53029 0.35998 0.0
H3418 H 0.05551 0.50769 0.32144 0.0
H3419 H 0.07624 0.50918 0.29492 0.0
H3420 H 0.07499 0.54976 0.36638 0.0
H3421 H 0.04981 0.46738 0.36052 0.0
H3422 H 0.06991 0.47902 0.34817 0.0
H3423 H 0.04566 0.47894 0.33941 0.0
C3424 C 0.11053 0.52673 0.33068 0.0
C3425 C 0.10273 0.52079 0.31211 0.0
C3426 C 0.09865 0.52564 0.3458 0.0
C3427 C 0.07876 0.51862 0.34267 0.0
C3428 C 0.07088 0.51274 0.32419 0.0
H3429 H 0.00245 0.53864 0.43354 0.0
H3430 H 0.01587 0.53757 0.40237 0.0
C3431 C 0.08277 0.5137 0.30904 0.0
C3432 C 0.06632 0.51807 0.35881 0.0
H3433 H 0.03608 0.48663 0.38354 0.0
C3434 C 0.06641 0.53599 0.37011 0.0
C3435 C 0.05523 0.50003 0.36362 0.0
C3436 C 0.05521 0.4802 0.35242 0.0
C3437 C 0.05602 0.53633 0.38638 0.0
C3438 C 0.04487 0.5183 0.39118 0.0
C3439 C 0.04448 0.50044 0.37967 0.0
C3440 C 0.03502 0.5174 0.40902 0.0
C3441 C 0.05774 0.55581 0.39869 0.0
C3442 C 0.04072 0.50571 0.4227 0.0
C3443 C 0.03296 0.50612 0.44032 0.0
C3444 C 0.01939 0.51827 0.44456 0.0
C3445 C 0.01302 0.52929 0.43062 0.0
C3446 C 0.02073 0.52877 0.4129 0.0
H3447 H 0.07009 0.56716 0.3952 0.0
H3448 H 0.04441 0.56198 0.39657 0.0
H3449 H 0.05955 0.55347 0.41384 0.0
H3450 H 0.05167 0.49676 0.41995 0.0
H3451 H 0.03802 0.49738 0.45081 0.0
H3452 H 0.73752 0.83338 0.56064 0.0
H3453 H 0.73263 0.81567 0.58896 0.0
H3454 H 0.76372 0.86785 0.6231 0.0
H3455 H 0.76819 0.88579 0.59494 0.0
H3456 H 0.75847 0.8056 0.61302 0.0
H3457 H 0.71718 0.85495 0.653 0.0
H3458 H 0.72141 0.85683 0.62839 0.0
H3459 H 0.73969 0.86838 0.6464 0.0
C3460 C 0.74313 0.84117 0.57421 0.0
C3461 C 0.75315 0.86107 0.57551 0.0
C3462 C 0.74035 0.831 0.59041 0.0
C3463 C 0.74749 0.84047 0.6083 0.0
C3464 C 0.75757 0.86033 0.6096 0.0
H3465 H 0.76468 0.80448 0.71992 0.0
H3466 H 0.76336 0.82163 0.69131 0.0
C3467 C 0.76024 0.87056 0.59343 0.0
C3468 C 0.74526 0.82928 0.62542 0.0
H3469 H 0.73019 0.83149 0.67042 0.0
C3470 C 0.75206 0.81116 0.62547 0.0
C3471 C 0.73688 0.83646 0.64175 0.0
C3472 C 0.7282 0.85511 0.64235 0.0
C3473 C 0.7513 0.80043 0.64149 0.0
C3474 C 0.74336 0.80787 0.65791 0.0
C3475 C 0.7363 0.82581 0.65783 0.0
C3476 C 0.74307 0.79768 0.67558 0.0
C3477 C 0.75956 0.78151 0.64095 0.0
C3478 C 0.73176 0.77863 0.67643 0.0
C3479 C 0.73233 0.76882 0.6929 0.0
C3480 C 0.74428 0.77787 0.70878 0.0
C3481 C 0.75525 0.79711 0.70799 0.0
C3482 C 0.75455 0.80695 0.69162 0.0
H3483 H 0.76819 0.77968 0.62849 0.0
H3484 H 0.76881 0.78145 0.65396 0.0
H3485 H 0.74762 0.76841 0.64028 0.0
H3486 H 0.72261 0.77128 0.6643 0.0
H3487 H 0.72372 0.75402 0.69308 0.0
H3488 H 0.68606 0.42513 0.46034 0.0
H3489 H 0.6613 0.44456 0.46841 0.0
H3490 H 0.66435 0.42874 0.52557 0.0
H3491 H 0.68929 0.40919 0.51762 0.0
H3492 H 0.62447 0.43516 0.48598 0.0
H3493 H 0.68023 0.4915 0.52896 0.0
H3494 H 0.68642 0.47277 0.51203 0.0
H3495 H 0.67765 0.46588 0.5342 0.0
C3496 C 0.68116 0.42538 0.47453 0.0
C3497 C 0.68973 0.41577 0.48839 0.0
C3498 C 0.66703 0.43651 0.47911 0.0
C3499 C 0.66132 0.43836 0.49765 0.0
C3500 C 0.6688 0.42765 0.51124 0.0
H3501 H 0.58946 0.52009 0.54398 0.0
H3502 H 0.61272 0.49754 0.54096 0.0
C3503 C 0.68289 0.41634 0.50662 0.0
C3504 C 0.64867 0.45273 0.50282 0.0
H3505 H 0.64923 0.49914 0.52539 0.0
C3506 C 0.62979 0.44907 0.49473 0.0
C3507 C 0.65575 0.47086 0.51421 0.0
C3508 C 0.67615 0.47568 0.52281 0.0
C3509 C 0.6178 0.46319 0.49757 0.0
C3510 C 0.6251 0.48164 0.50839 0.0
C3511 C 0.64379 0.48505 0.51697 0.0
C3512 C 0.61351 0.4976 0.51065 0.0
C3513 C 0.59741 0.45823 0.48895 0.0
C3514 C 0.60718 0.50595 0.49475 0.0
C3515 C 0.59397 0.51881 0.49644 0.0
C3516 C 0.58703 0.52364 0.51408 0.0
C3517 C 0.59463 0.51664 0.53022 0.0
C3518 C 0.60781 0.50368 0.52851 0.0
H3519 H 0.59253 0.44184 0.48557 0.0
H3520 H 0.5873 0.46393 0.49859 0.0
H3521 H 0.59667 0.46538 0.47561 0.0
H3522 H 0.61179 0.50179 0.4809 0.0
H3523 H 0.58838 0.52406 0.48378 0.0
H3524 H 0.22499 0.10495 0.50156 0.0
H3525 H 0.19193 0.08658 0.5017 0.0
H3526 H 0.17117 0.13339 0.47465 0.0
H3527 H 0.20436 0.1519 0.47471 0.0
H3528 H 0.15121 0.1233 0.50539 0.0
H3529 H 0.15578 0.0539 0.46024 0.0
H3530 H 0.17498 0.06165 0.47821 0.0
H3531 H 0.17224 0.07724 0.45951 0.0
C3532 C 0.21341 0.11097 0.49508 0.0
C3533 C 0.21723 0.12951 0.48755 0.0
C3534 C 0.1945 0.1005 0.49522 0.0
C3535 C 0.17901 0.10839 0.48788 0.0
C3536 C 0.18286 0.12691 0.48027 0.0
H3537 H 0.05593 0.06967 0.47212 0.0
H3538 H 0.08919 0.08791 0.47394 0.0
C3539 C 0.20179 0.13742 0.48021 0.0
C3540 C 0.15878 0.09797 0.48921 0.0
H3541 H 0.12767 0.05378 0.47663 0.0
C3542 C 0.14607 0.10812 0.49905 0.0
C3543 C 0.15199 0.07816 0.48095 0.0
C3544 C 0.16436 0.06706 0.46899 0.0
C3545 C 0.12687 0.09893 0.50091 0.0
C3546 C 0.12026 0.07909 0.49278 0.0
C3547 C 0.13292 0.0689 0.48309 0.0
C3548 C 0.09992 0.06901 0.4931 0.0
C3549 C 0.11376 0.11038 0.51162 0.0
C3550 C 0.09497 0.05229 0.50326 0.0
C3551 C 0.07592 0.04188 0.50232 0.0
C3552 C 0.06168 0.04784 0.49092 0.0
C3553 C 0.06667 0.06468 0.48092 0.0
C3554 C 0.08561 0.0752 0.48205 0.0
H3555 H 0.12191 0.124 0.52006 0.0
H3556 H 0.10348 0.11505 0.50146 0.0
H3557 H 0.10525 0.10076 0.52119 0.0
H3558 H 0.10588 0.04721 0.51174 0.0
H3559 H 0.07243 0.02891 0.5101 0.0
H3560 H 0.18647 0.96915 0.80833 0.0
H3561 H 0.20127 0.94003 0.80171 0.0
H3562 H 0.16211 0.92083 0.7527 0.0
H3563 H 0.1473 0.95043 0.75899 0.0
H3564 H 0.18686 0.90012 0.79934 0.0
H3565 H 0.21423 0.92109 0.73063 0.0
H3566 H 0.2048 0.93826 0.74678 0.0
H3567 H 0.18868 0.91899 0.73212 0.0
C3568 C 0.18084 0.95878 0.79613 0.0
C3569 C 0.16569 0.96233 0.78412 0.0
C3570 C 0.18938 0.94206 0.79239 0.0
C3571 C 0.18309 0.92839 0.77653 0.0
C3572 C 0.16753 0.93141 0.76481 0.0
H3573 H 0.22245 0.81987 0.73511 0.0
H3574 H 0.20619 0.84841 0.73963 0.0
C3575 C 0.15894 0.94825 0.76853 0.0
C3576 C 0.19304 0.91116 0.77248 0.0
H3577 H 0.2198 0.89023 0.74021 0.0
C3578 C 0.19405 0.89797 0.7864 0.0
C3579 C 0.20251 0.90836 0.75562 0.0
C3580 C 0.2027 0.9225 0.74047 0.0
C3581 C 0.20414 0.88206 0.78391 0.0
C3582 C 0.21374 0.87939 0.76715 0.0
C3583 C 0.21253 0.89238 0.7531 0.0
C3584 C 0.22467 0.86286 0.76377 0.0
C3585 C 0.20418 0.86805 0.79914 0.0
C3586 C 0.2409 0.86176 0.77551 0.0
C3587 C 0.25035 0.84543 0.77294 0.0
C3588 C 0.24371 0.82986 0.75858 0.0
C3589 C 0.22792 0.83147 0.74641 0.0
C3590 C 0.21857 0.84781 0.74894 0.0
H3591 H 0.19261 0.86931 0.80897 0.0
H3592 H 0.20231 0.85228 0.7929 0.0
H3593 H 0.21821 0.87179 0.80748 0.0
H3594 H 0.24607 0.8734 0.78685 0.0
H3595 H 0.26243 0.84471 0.78258 0.0
H3596 H 0.30375 0.87103 0.98051 0.0
H3597 H 0.33879 0.88356 0.98463 0.0
H3598 H 0.32888 0.93401 0.02129 0.0
H3599 H 0.2942 0.92154 0.01726 0.0
H3600 H 0.35712 0.92098 0.97497 0.0
H3601 H 0.37182 0.91435 0.05067 0.0
H3602 H 0.35048 0.90055 0.03733 0.0
H3603 H 0.3515 0.92614 0.04661 0.0
C3604 C 0.30922 0.88468 0.98955 0.0
C3605 C 0.29651 0.89568 0.99822 0.0
C3606 C 0.3291 0.89176 0.99194 0.0
C3607 C 0.33637 0.90952 0.00351 0.0
C3608 C 0.32359 0.92005 0.01265 0.0
H3609 H 0.43538 0.99934 0.03491 0.0
H3610 H 0.40427 0.97628 0.03114 0.0
C3611 C 0.30383 0.9131 0.01013 0.0
C3612 C 0.35708 0.91836 0.00477 0.0
H3613 H 0.39443 0.93863 0.03657 0.0
C3614 C 0.36536 0.92478 0.98838 0.0
C3615 C 0.36786 0.92291 0.02228 0.0
C3616 C 0.36002 0.91544 0.04019 0.0
C3617 C 0.38346 0.9373 0.9892 0.0
C3618 C 0.39402 0.94253 0.00686 0.0
C3619 C 0.38624 0.9349 0.02309 0.0
C3620 C 0.41283 0.95646 0.00896 0.0
C3621 C 0.3904 0.94573 0.97131 0.0
C3622 C 0.42798 0.95292 0.99787 0.0
C3623 C 0.44543 0.96642 0.99957 0.0
C3624 C 0.44827 0.98327 0.01289 0.0
C3625 C 0.4334 0.9865 0.02444 0.0
C3626 C 0.41572 0.9733 0.02235 0.0
H3627 H 0.37835 0.94503 0.96057 0.0
H3628 H 0.39789 0.96154 0.97417 0.0
H3629 H 0.40059 0.93678 0.96508 0.0
H3630 H 0.42639 0.93966 0.988 0.0
H3631 H 0.4569 0.96335 0.99083 0.0
H3632 H 0.8714 0.60907 0.81878 0.0
H3633 H 0.85432 0.63292 0.8051 0.0
H3634 H 0.87866 0.62163 0.75171 0.0
H3635 H 0.8959 0.59759 0.76532 0.0
H3636 H 0.86565 0.66786 0.78352 0.0
H3637 H 0.81846 0.60182 0.74311 0.0
H3638 H 0.83425 0.59913 0.76296 0.0
H3639 H 0.84408 0.60514 0.74098 0.0
C3640 C 0.87357 0.61207 0.80428 0.0
C3641 C 0.88479 0.60133 0.79305 0.0
C3642 C 0.86381 0.62569 0.79649 0.0
C3643 C 0.86502 0.62869 0.77736 0.0
C3644 C 0.87746 0.61929 0.76648 0.0
H3645 H 0.78205 0.69201 0.72388 0.0
H3646 H 0.80696 0.6714 0.72657 0.0
C3647 C 0.8874 0.60572 0.77432 0.0
C3648 C 0.8515 0.63986 0.76868 0.0
H3649 H 0.80786 0.6325 0.74399 0.0
C3650 C 0.85323 0.66027 0.77453 0.0
C3651 C 0.83531 0.62979 0.757 0.0
C3652 C 0.83272 0.60774 0.75064 0.0
C3653 C 0.83869 0.67072 0.76972 0.0
C3654 C 0.82194 0.66034 0.7591 0.0
C3655 C 0.82072 0.64026 0.75224 0.0
C3656 C 0.80496 0.66977 0.7566 0.0
C3657 C 0.84101 0.69262 0.77661 0.0
C3658 C 0.79499 0.67458 0.77241 0.0
C3659 C 0.7808 0.68617 0.77091 0.0
C3660 C 0.77636 0.69306 0.75356 0.0
C3661 C 0.7852 0.68681 0.7374 0.0
C3662 C 0.79948 0.67518 0.73892 0.0
H3663 H 0.85636 0.69949 0.78023 0.0
H3664 H 0.8351 0.70102 0.76579 0.0
H3665 H 0.83297 0.69421 0.7895 0.0
H3666 H 0.79889 0.67019 0.7861 0.0
H3667 H 0.77415 0.69076 0.78357 0.0
H3668 H 0.82141 0.64257 0.0266 0.0
H3669 H 0.85035 0.62853 0.03363 0.0
H3670 H 0.85323 0.61105 0.97437 0.0
H3671 H 0.82442 0.62476 0.9673 0.0
H3672 H 0.85122 0.58576 0.02228 0.0
H3673 H 0.90981 0.63766 0.99317 0.0
H3674 H 0.88763 0.64504 1.00006 0.0
H3675 H 0.88815 0.63013 0.97809 0.0
C3676 C 0.82857 0.63627 0.01505 0.0
C3677 C 0.82068 0.63484 0.99639 0.0
C3678 C 0.845 0.62812 0.01909 0.0
C3679 C 0.854 0.61883 0.0045 0.0
C3680 C 0.84669 0.61834 0.98582 0.0
H3681 H 0.94405 0.54962 0.98869 0.0
H3682 H 0.91819 0.56891 0.98568 0.0
C3683 C 0.83019 0.62618 0.98181 0.0
C3684 C 0.86987 0.60794 0.0087 0.0
H3685 H 0.91667 0.60614 1.0001 0.0
C3686 C 0.86562 0.59033 0.01768 0.0
C3687 C 0.88854 0.61378 0.00243 0.0
C3688 C 0.89394 0.63277 0.99302 0.0
C3689 C 0.87935 0.57802 0.02 0.0
C3690 C 0.89805 0.58377 0.01362 0.0
C3691 C 0.90236 0.60164 0.00496 0.0
C3692 C 0.91327 0.57137 0.01549 0.0
C3693 C 0.87336 0.55854 0.02851 0.0
C3694 C 0.91917 0.56626 0.03323 0.0
C3695 C 0.93376 0.55498 0.03492 0.0
C3696 C 0.94296 0.54886 0.01895 0.0
C3697 C 0.93711 0.554 0.00122 0.0
C3698 C 0.9224 0.56511 0.99951 0.0
H3699 H 0.85746 0.55362 0.02743 0.0
H3700 H 0.87995 0.54647 0.02151 0.0
H3701 H 0.87818 0.56059 0.04371 0.0
H3702 H 0.91277 0.57131 0.04585 0.0
H3703 H 0.93815 0.55149 0.04881 0.0
H3704 H 0.13486 0.07796 0.80087 0.0
H3705 H 0.15252 0.11246 0.8001 0.0
H3706 H 0.19824 0.08961 0.77249 0.0
H3707 H 0.1804 0.05551 0.77265 0.0
H3708 H 0.18861 0.1314 0.8151 0.0
H3709 H 0.18525 0.12896 0.73721 0.0
H3710 H 0.1709 0.11013 0.74946 0.0
H3711 H 0.19564 0.10895 0.74542 0.0
C3712 C 0.1487 0.08046 0.7947 0.0
C3713 C 0.1566 0.06422 0.78729 0.0
C3714 C 0.15876 0.10006 0.79429 0.0
C3715 C 0.1766 0.1036 0.78605 0.0
C3716 C 0.18437 0.08729 0.77861 0.0
H3717 H 0.26709 0.20869 0.79832 0.0
H3718 H 0.2453 0.17735 0.80238 0.0
C3719 C 0.17432 0.06781 0.77896 0.0
C3720 C 0.18715 0.12425 0.78497 0.0
H3721 H 0.2083 0.15537 0.75394 0.0
C3722 C 0.19274 0.13679 0.80174 0.0
C3723 C 0.19226 0.13136 0.76749 0.0
C3724 C 0.18552 0.11922 0.74887 0.0
C3725 C 0.20384 0.15605 0.80152 0.0
C3726 C 0.20993 0.16268 0.7841 0.0
C3727 C 0.20383 0.15029 0.76733 0.0
C3728 C 0.22272 0.18227 0.78273 0.0
C3729 C 0.20866 0.16913 0.81992 0.0
C3730 C 0.2176 0.19526 0.76997 0.0
C3731 C 0.23027 0.21282 0.76722 0.0
C3732 C 0.24821 0.21796 0.77742 0.0
C3733 C 0.25326 0.20518 0.79042 0.0
C3734 C 0.24071 0.18737 0.7929 0.0
H3735 H 0.1979 0.16484 0.83042 0.0
H3736 H 0.22289 0.16724 0.82593 0.0
H3737 H 0.20931 0.18517 0.81789 0.0
H3738 H 0.20389 0.19162 0.76184 0.0
H3739 H 0.2261 0.22223 0.75691 0.0
H3740 H 0.41425 0.98045 0.30464 0.0
H3741 H 0.40114 0.94435 0.29853 0.0
H3742 H 0.35348 0.95754 0.2649 0.0
H3743 H 0.36708 0.99306 0.2701 0.0
H3744 H 0.36944 0.924 0.30844 0.0
H3745 H 0.36626 0.9139 0.23101 0.0
H3746 H 0.37946 0.9364 0.24413 0.0
H3747 H 0.35402 0.93388 0.23792 0.0
C3748 C 0.40112 0.97543 0.29578 0.0
C3749 C 0.39125 0.98932 0.28831 0.0
C3750 C 0.39365 0.95492 0.29228 0.0
C3751 C 0.37646 0.94818 0.281 0.0
C3752 C 0.36703 0.96222 0.27316 0.0
H3753 H 0.28665 0.84932 0.29162 0.0
H3754 H 0.31121 0.87983 0.29559 0.0
C3755 C 0.37457 0.98255 0.27647 0.0
C3756 C 0.3673 0.92675 0.27855 0.0
H3757 H 0.34182 0.89126 0.24584 0.0
C3758 C 0.36375 0.91665 0.29471 0.0
C3759 C 0.36034 0.91686 0.26062 0.0
C3760 C 0.36546 0.92581 0.24247 0.0
C3761 C 0.35226 0.8975 0.29354 0.0
C3762 C 0.34345 0.88861 0.27582 0.0
C3763 C 0.34813 0.89817 0.25953 0.0
C3764 C 0.32878 0.8699 0.27381 0.0
C3765 C 0.34975 0.88716 0.31136 0.0
C3766 C 0.32988 0.85455 0.25963 0.0
C3767 C 0.31538 0.83757 0.2568 0.0
C3768 C 0.29977 0.83544 0.26837 0.0
C3769 C 0.29869 0.85062 0.28266 0.0
C3770 C 0.31287 0.8679 0.28509 0.0
H3771 H 0.36271 0.89176 0.32125 0.0
H3772 H 0.33742 0.89161 0.31864 0.0
H3773 H 0.34703 0.87063 0.30835 0.0
H3774 H 0.34192 0.85573 0.25067 0.0
H3775 H 0.31656 0.82592 0.24579 0.0
H3776 H 0.48982 0.31841 0.58053 0.0
H3777 H 0.4899 0.34925 0.56584 0.0
H3778 H 0.53304 0.38088 0.60784 0.0
H3779 H 0.53302 0.34993 0.62293 0.0
H3780 H 0.50235 0.40142 0.59991 0.0
H3781 H 0.53358 0.37485 0.53453 0.0
H3782 H 0.51261 0.35814 0.5406 0.0
H3783 H 0.53416 0.36261 0.55594 0.0
C3784 C 0.49934 0.33187 0.58677 0.0
C3785 C 0.51154 0.33159 0.60289 0.0
C3786 C 0.49941 0.34949 0.57824 0.0
C3787 C 0.51174 0.36722 0.58553 0.0
C3788 C 0.52353 0.36726 0.60193 0.0
H3789 H 0.53848 0.4739 0.52644 0.0
H3790 H 0.53965 0.44379 0.54222 0.0
C3791 C 0.52348 0.34957 0.61053 0.0
C3792 C 0.51221 0.38564 0.57589 0.0
H3793 H 0.52058 0.40462 0.53366 0.0
C3794 C 0.50645 0.4022 0.58547 0.0
C3795 C 0.51779 0.38666 0.55713 0.0
C3796 C 0.52506 0.3697 0.54648 0.0
C3797 C 0.5056 0.41962 0.57659 0.0
C3798 C 0.51038 0.4203 0.55755 0.0
C3799 C 0.51666 0.40394 0.54816 0.0
C3800 C 0.50931 0.43803 0.54724 0.0
C3801 C 0.49981 0.4372 0.58773 0.0
C3802 C 0.49173 0.44444 0.54432 0.0
C3803 C 0.49098 0.46167 0.53527 0.0
C3804 C 0.5078 0.47275 0.5289 0.0
C3805 C 0.52525 0.46581 0.53121 0.0
C3806 C 0.52597 0.44859 0.54026 0.0
H3807 H 0.50146 0.43623 0.60318 0.0
H3808 H 0.50855 0.45154 0.58437 0.0
H3809 H 0.48446 0.43742 0.584 0.0
H3810 H 0.47862 0.43622 0.54921 0.0
H3811 H 0.47729 0.46653 0.53367 0.0
H3812 H 0.42195 0.76548 0.37362 0.0
H3813 H 0.38943 0.7589 0.35813 0.0
H3814 H 0.41001 0.72718 0.31042 0.0
H3815 H 0.44207 0.73274 0.32647 0.0
H3816 H 0.37835 0.77254 0.32897 0.0
H3817 H 0.36084 0.69074 0.31308 0.0
H3818 H 0.38117 0.70279 0.32874 0.0
H3819 H 0.38333 0.69998 0.30354 0.0
C3820 C 0.41934 0.75685 0.35994 0.0
C3821 C 0.43454 0.75027 0.35082 0.0
C3822 C 0.4008 0.75307 0.35109 0.0
C3823 C 0.39709 0.74242 0.33306 0.0
C3824 C 0.4122 0.73499 0.32445 0.0
H3825 H 0.31763 0.76076 0.24502 0.0
H3826 H 0.34523 0.75428 0.26412 0.0
C3827 C 0.43066 0.73858 0.33342 0.0
C3828 C 0.37816 0.74106 0.32243 0.0
H3829 H 0.34366 0.70978 0.29319 0.0
C3830 C 0.37088 0.75877 0.32118 0.0
C3831 C 0.36781 0.72299 0.31272 0.0
C3832 C 0.37361 0.70305 0.31479 0.0
C3833 C 0.35441 0.75919 0.30964 0.0
C3834 C 0.34484 0.74143 0.29908 0.0
C3835 C 0.35136 0.72346 0.301 0.0
C3836 C 0.32805 0.74162 0.28597 0.0
C3837 C 0.34743 0.77872 0.30858 0.0
C3838 C 0.30929 0.73593 0.29165 0.0
C3839 C 0.29357 0.73957 0.28073 0.0
C3840 C 0.29646 0.74887 0.26404 0.0
C3841 C 0.3151 0.75331 0.25773 0.0
C3842 C 0.33082 0.74973 0.26866 0.0
H3843 H 0.35496 0.79057 0.31945 0.0
H3844 H 0.34997 0.78399 0.29445 0.0
H3845 H 0.3317 0.77657 0.31038 0.0
H3846 H 0.30691 0.72971 0.305 0.0
H3847 H 0.27925 0.73591 0.28572 0.0
H3848 H 0.03462 0.74249 0.10261 0.0
H3849 H 0.0377 0.70876 0.09054 0.0
H3850 H 0.02026 0.68729 0.14348 0.0
H3851 H 0.01526 0.72092 0.15476 0.0
H3852 H 0.0595 0.68502 0.09981 0.0
H3853 H 0.98475 0.64745 0.10972 0.0
H3854 H 0.99266 0.67392 0.11526 0.0
H3855 H 0.99823 0.6569 0.13159 0.0
C3856 C 0.03064 0.73037 0.11133 0.0
C3857 C 0.02347 0.73395 0.12907 0.0
C3858 C 0.03285 0.71116 0.10462 0.0
C3859 C 0.02873 0.6952 0.11586 0.0
C3860 C 0.02279 0.69908 0.13419 0.0
H3861 H 0.05366 0.57709 0.07294 0.0
H3862 H 0.05676 0.60947 0.09194 0.0
C3863 C 0.02003 0.71829 0.14069 0.0
C3864 C 0.03072 0.67473 0.10807 0.0
H3865 H 0.00565 0.62708 0.0972 0.0
C3866 C 0.04773 0.67234 0.09933 0.0
C3867 C 0.01548 0.65801 0.10759 0.0
C3868 C 0.99669 0.65918 0.11641 0.0
C3869 C 0.04951 0.65413 0.08936 0.0
C3870 C 0.03402 0.63777 0.08841 0.0
C3871 C 0.01745 0.63977 0.09792 0.0
C3872 C 0.03374 0.61901 0.07618 0.0
C3873 C 0.06752 0.65277 0.07918 0.0
C3874 C 0.01993 0.6138 0.06098 0.0
C3875 C 0.01808 0.59542 0.05023 0.0
C3876 C 0.02999 0.58179 0.05446 0.0
C3877 C 0.04434 0.58732 0.06927 0.0
C3878 C 0.04614 0.6058 0.08012 0.0
H3879 H 0.07699 0.66762 0.07904 0.0
H3880 H 0.07575 0.64284 0.08629 0.0
H3881 H 0.06377 0.64614 0.06438 0.0
H3882 H 0.01027 0.62383 0.05768 0.0
H3883 H 0.00696 0.59174 0.03885 0.0
H3884 H 0.0456 0.29773 0.82984 0.0
H3885 H 0.07662 0.29482 0.81745 0.0
H3886 H 0.0823 0.24867 0.85376 0.0
H3887 H 0.051 0.25136 0.86627 0.0
H3888 H 0.11404 0.29844 0.8364 0.0
H3889 H 0.0867 0.22268 0.79924 0.0
H3890 H 0.0708 0.23885 0.80796 0.0
H3891 H 0.08307 0.22589 0.82407 0.0
C3892 C 0.05346 0.28705 0.83537 0.0
C3893 C 0.04571 0.27466 0.84897 0.0
C3894 C 0.07122 0.28544 0.82826 0.0
C3895 C 0.08158 0.27133 0.83446 0.0
C3896 C 0.07435 0.25946 0.84859 0.0
H3897 H 0.18726 0.23862 0.79402 0.0
H3898 H 0.15735 0.23975 0.80974 0.0
C3899 C 0.05656 0.26114 0.85583 0.0
C3900 C 0.09964 0.26882 0.8256 0.0
H3901 H 0.11915 0.23685 0.79593 0.0
C3902 C 0.11522 0.28495 0.82762 0.0
C3903 C 0.10107 0.2512 0.81413 0.0
C3904 C 0.08452 0.23367 0.81104 0.0
C3905 C 0.13222 0.28396 0.81847 0.0
C3906 C 0.1335 0.26653 0.80664 0.0
C3907 C 0.11806 0.25024 0.8049 0.0
C3908 C 0.15079 0.26496 0.796 0.0
C3909 C 0.14876 0.30151 0.82173 0.0
C3910 C 0.15666 0.27831 0.78256 0.0
C3911 C 0.17372 0.27768 0.77354 0.0
C3912 C 0.18511 0.2636 0.77775 0.0
C3913 C 0.17875 0.24965 0.79053 0.0
C3914 C 0.1617 0.25029 0.79955 0.0
H3915 H 0.14745 0.31121 0.83479 0.0
H3916 H 0.16277 0.29638 0.82278 0.0
H3917 H 0.14883 0.31073 0.80966 0.0
H3918 H 0.14821 0.28946 0.77932 0.0
H3919 H 0.17828 0.28857 0.76372 0.0
H3920 H 0.502 0.70767 0.89749 0.0
H3921 H 0.49959 0.67735 0.91413 0.0
H3922 H 0.53499 0.71132 0.96105 0.0
H3923 H 0.53708 0.74151 0.94485 0.0
H3924 H 0.52755 0.65791 0.92683 0.0
H3925 H 0.48969 0.68454 0.98766 0.0
H3926 H 0.49213 0.69727 0.96652 0.0
H3927 H 0.5117 0.70118 0.98431 0.0
C3928 C 0.50919 0.70865 0.91138 0.0
C3929 C 0.51957 0.72704 0.9199 0.0
C3930 C 0.50781 0.69134 0.92088 0.0
C3931 C 0.51675 0.69214 0.93905 0.0
C3932 C 0.52749 0.7104 0.94732 0.0
H3933 H 0.53491 0.60145 0.01412 0.0
H3934 H 0.53608 0.63288 0.99942 0.0
C3935 C 0.52878 0.72765 0.93793 0.0
C3936 C 0.51536 0.67386 0.94924 0.0
H3937 H 0.50253 0.65488 0.99067 0.0
C3938 C 0.52196 0.65722 0.94073 0.0
C3939 C 0.5081 0.67295 0.96743 0.0
C3940 C 0.49983 0.68986 0.97695 0.0
C3941 C 0.52177 0.63987 0.95001 0.0
C3942 C 0.51472 0.63908 0.96823 0.0
C3943 C 0.50811 0.65565 0.97678 0.0
C3944 C 0.51321 0.62069 0.97813 0.0
C3945 C 0.52929 0.62251 0.94036 0.0
C3946 C 0.49961 0.6037 0.97136 0.0
C3947 C 0.49879 0.58588 0.97975 0.0
C3948 C 0.51162 0.58459 0.99512 0.0
C3949 C 0.5248 0.6019 0.00235 0.0
C3950 C 0.52553 0.61984 0.99394 0.0
H3951 H 0.53759 0.62684 0.92804 0.0
H3952 H 0.53863 0.61639 0.95041 0.0
H3953 H 0.51697 0.61039 0.93531 0.0
H3954 H 0.48981 0.60413 0.95932 0.0
H3955 H 0.48835 0.57297 0.9738 0.0
H3956 H 0.04222 0.77445 0.67569 0.0
H3957 H 0.07384 0.76936 0.68737 0.0
H3958 H 0.09836 0.79008 0.63676 0.0
H3959 H 0.06659 0.79536 0.62511 0.0
H3960 H 0.10759 0.75356 0.64534 0.0
H3961 H 0.12194 0.80908 0.70847 0.0
H3962 H 0.09824 0.79393 0.70638 0.0
H3963 H 0.10544 0.8109 0.68892 0.0
C3964 C 0.05451 0.77865 0.66741 0.0
C3965 C 0.05215 0.78599 0.64983 0.0
C3966 C 0.07255 0.7756 0.67402 0.0
C3967 C 0.08856 0.77961 0.66306 0.0
C3968 C 0.08624 0.78703 0.6455 0.0
H3969 H 0.20819 0.77033 0.68629 0.0
H3970 H 0.17784 0.77426 0.67029 0.0
C3971 C 0.06816 0.79013 0.63891 0.0
C3972 C 0.10736 0.77486 0.66949 0.0
H3973 H 0.1417 0.78462 0.70604 0.0
C3974 C 0.11514 0.76047 0.65853 0.0
C3975 C 0.11727 0.78393 0.68664 0.0
C3976 C 0.11044 0.80046 0.69826 0.0
C3977 C 0.13229 0.75457 0.66459 0.0
C3978 C 0.14176 0.76323 0.68202 0.0
C3979 C 0.13419 0.77781 0.69279 0.0
C3980 C 0.15976 0.75773 0.68941 0.0
C3981 C 0.14006 0.73888 0.65263 0.0
C3982 C 0.15954 0.74677 0.70517 0.0
C3983 C 0.17681 0.74439 0.71425 0.0
C3984 C 0.19454 0.75321 0.70784 0.0
C3985 C 0.19471 0.76334 0.69148 0.0
C3986 C 0.17742 0.76556 0.68232 0.0
H3987 H 0.13006 0.7322 0.64032 0.0
H3988 H 0.15403 0.74571 0.64737 0.0
H3989 H 0.1428 0.72679 0.66127 0.0
H3990 H 0.14602 0.74076 0.71091 0.0
H3991 H 0.17627 0.7366 0.72687 0.0
H3992 H 0.04228 0.32615 0.43757 0.0
H3993 H 0.04477 0.35662 0.45893 0.0
H3994 H 0.03102 0.38877 0.41231 0.0
H3995 H 0.02862 0.35842 0.39068 0.0
H3996 H 0.0606 0.41105 0.44073 0.0
H3997 H 0.9931 0.37527 0.47072 0.0
H3998 H 0.01227 0.36121 0.47053 0.0
H3999 H 0.00106 0.36572 0.44861 0.0
C4000 C 0.0401 0.33975 0.43173 0.0
C4001 C 0.03494 0.33969 0.41239 0.0
C4002 C 0.04151 0.35715 0.444 0.0
C4003 C 0.03776 0.37481 0.43723 0.0
C4004 C 0.0339 0.37524 0.4178 0.0
H4005 H 0.99687 0.47538 0.48922 0.0
H4006 H 0.00453 0.4476 0.4688 0.0
C4007 C 0.03251 0.35783 0.40547 0.0
C4008 C 0.03602 0.39221 0.45058 0.0
H4009 H 0.00762 0.40746 0.48435 0.0
C4010 C 0.04913 0.41027 0.45038 0.0
C4011 C 0.02086 0.39116 0.46296 0.0
C4012 C 0.00589 0.37238 0.4632 0.0
C4013 C 0.04747 0.42732 0.46235 0.0
C4014 C 0.03236 0.42617 0.47472 0.0
C4015 C 0.01931 0.40814 0.47495 0.0
C4016 C 0.02891 0.44387 0.48665 0.0
C4017 C 0.06145 0.44664 0.4614 0.0
C4018 C 0.04014 0.45093 0.50346 0.0
C4019 C 0.03572 0.46681 0.51527 0.0
C4020 C 0.02007 0.47579 0.51034 0.0
C4021 C 0.00906 0.4688 0.49336 0.0
C4022 C 0.01341 0.45295 0.48167 0.0
H4023 H 0.07169 0.44541 0.45018 0.0
H4024 H 0.05346 0.45881 0.45871 0.0
H4025 H 0.06978 0.45096 0.47518 0.0
H4026 H 0.05206 0.44393 0.50758 0.0
H4027 H 0.04443 0.47194 0.52827 0.0
H4028 H 0.46208 0.27817 0.176 0.0
H4029 H 0.43769 0.2803 0.19903 0.0
H4030 H 0.39447 0.27749 0.15373 0.0
H4031 H 0.41852 0.27492 0.13065 0.0
H4032 H 0.4137 0.30705 0.20651 0.0
H4033 H 0.37077 0.23204 0.18305 0.0
H4034 H 0.39467 0.24029 0.17552 0.0
H4035 H 0.37422 0.24776 0.16415 0.0
C4036 C 0.4474 0.27806 0.17091 0.0
C4037 C 0.44228 0.27617 0.15141 0.0
C4038 C 0.43347 0.27928 0.18412 0.0
C4039 C 0.41416 0.27862 0.17811 0.0
C4040 C 0.40916 0.27749 0.15871 0.0
H4041 H 0.32003 0.31221 0.23835 0.0
H4042 H 0.34932 0.31187 0.22162 0.0
C4043 C 0.42301 0.27614 0.14551 0.0
C4044 C 0.39916 0.27897 0.19204 0.0
H4045 H 0.3557 0.25351 0.20326 0.0
C4046 C 0.40108 0.29527 0.20592 0.0
C4047 C 0.38289 0.2634 0.19154 0.0
C4048 C 0.38058 0.24479 0.1779 0.0
C4049 C 0.38684 0.29675 0.21886 0.0
C4050 C 0.37004 0.28174 0.21764 0.0
C4051 C 0.36846 0.26513 0.20415 0.0
C4052 C 0.35358 0.28307 0.22971 0.0
C4053 C 0.39006 0.31431 0.2338 0.0
C4054 C 0.34608 0.26698 0.23984 0.0
C4055 C 0.32913 0.267 0.24922 0.0
C4056 C 0.31932 0.28314 0.24871 0.0
C4057 C 0.3273 0.29962 0.23924 0.0
C4058 C 0.34416 0.2995 0.2297 0.0
H4059 H 0.40565 0.32043 0.23687 0.0
H4060 H 0.38324 0.32642 0.22866 0.0
H4061 H 0.38363 0.31009 0.24713 0.0
H4062 H 0.35305 0.25411 0.24004 0.0
H4063 H 0.32341 0.25406 0.25638 0.0
H4064 H 0.63413 0.49374 0.35285 0.0
H4065 H 0.61273 0.48955 0.37878 0.0
H4066 H 0.5731 0.51972 0.34992 0.0
H4067 H 0.5939 0.52266 0.32344 0.0
H4068 H 0.60356 0.51461 0.40253 0.0
H4069 H 0.53493 0.47625 0.36564 0.0
H4070 H 0.55722 0.47937 0.35401 0.0
H4071 H 0.54331 0.49911 0.35558 0.0
C4072 C 0.62063 0.49908 0.35189 0.0
C4073 C 0.61559 0.50834 0.33603 0.0
C4074 C 0.60841 0.49675 0.36676 0.0
C4075 C 0.59101 0.504 0.36634 0.0
C4076 C 0.586 0.51329 0.35044 0.0
H4077 H 0.53848 0.54329 0.46625 0.0
H4078 H 0.55802 0.53871 0.43949 0.0
C4079 C 0.59799 0.51511 0.33531 0.0
C4080 C 0.57895 0.50318 0.3831 0.0
H4081 H 0.53258 0.49334 0.39633 0.0
C4082 C 0.58806 0.50967 0.40111 0.0
C4083 C 0.55873 0.49633 0.38158 0.0
C4084 C 0.54805 0.48716 0.36317 0.0
C4085 C 0.57757 0.51016 0.41738 0.0
C4086 C 0.5572 0.50497 0.4156 0.0
C4087 C 0.54813 0.49774 0.39774 0.0
C4088 C 0.54508 0.50758 0.43194 0.0
C4089 C 0.58855 0.51594 0.43632 0.0
C4090 C 0.53059 0.49191 0.43628 0.0
C4091 C 0.51899 0.49468 0.45141 0.0
C4092 C 0.52179 0.51313 0.46255 0.0
C4093 C 0.53618 0.52879 0.45812 0.0
C4094 C 0.5475 0.52613 0.44288 0.0
H4095 H 0.60318 0.51218 0.43604 0.0
H4096 H 0.59033 0.53235 0.43986 0.0
H4097 H 0.58091 0.50829 0.44768 0.0
H4098 H 0.52829 0.4775 0.42801 0.0
H4099 H 0.50796 0.48239 0.45449 0.0
H4100 H 0.2115 0.83654 0.03535 0.0
H4101 H 0.21004 0.8211 0.06506 0.0
H4102 H 0.24716 0.87364 0.09308 0.0
H4103 H 0.24853 0.88928 0.06353 0.0
H4104 H 0.24225 0.81283 0.08382 0.0
H4105 H 0.20563 0.86134 0.13055 0.0
H4106 H 0.20449 0.86152 0.10519 0.0
H4107 H 0.22527 0.87509 0.11927 0.0
C4108 C 0.21899 0.845 0.04793 0.0
C4109 C 0.23019 0.8641 0.0471 0.0
C4110 C 0.21817 0.83613 0.06487 0.0
C4111 C 0.22839 0.84628 0.08127 0.0
C4112 C 0.23889 0.8657 0.08066 0.0
H4113 H 0.27842 0.80107 0.17672 0.0
H4114 H 0.27132 0.81363 0.14649 0.0
C4115 C 0.23972 0.87458 0.06374 0.0
C4116 C 0.22974 0.83587 0.09847 0.0
H4117 H 0.22342 0.83979 0.14572 0.0
C4118 C 0.23792 0.81857 0.09733 0.0
C4119 C 0.22393 0.8433 0.116 0.0
C4120 C 0.21416 0.86122 0.11784 0.0
C4121 C 0.24108 0.80888 0.11341 0.0
C4122 C 0.23619 0.81693 0.1311 0.0
C4123 C 0.22736 0.8338 0.13214 0.0
C4124 C 0.24043 0.80832 0.14879 0.0
C4125 C 0.24961 0.79014 0.11132 0.0
C4126 C 0.22543 0.8014 0.16013 0.0
C4127 C 0.22947 0.79434 0.17737 0.0
C4128 C 0.24858 0.79419 0.18358 0.0
C4129 C 0.26357 0.80089 0.17214 0.0
C4130 C 0.25952 0.80797 0.15488 0.0
H4131 H 0.24747 0.78292 0.09659 0.0
H4132 H 0.26534 0.79408 0.115 0.0
H4133 H 0.24316 0.77916 0.12091 0.0
H4134 H 0.21063 0.80164 0.15571 0.0
H4135 H 0.21764 0.78934 0.18599 0.0
H4136 H 0.91029 0.56306 0.87405 0.0
H4137 H 0.93351 0.56848 0.90112 0.0
H4138 H 0.98013 0.57996 0.86426 0.0
H4139 H 0.95698 0.57409 0.83694 0.0
H4140 H 0.98464 0.55143 0.88607 0.0
H4141 H 0.96775 0.61511 0.93126 0.0
H4142 H 0.9464 0.59682 0.92472 0.0
H4143 H 0.95914 0.60975 0.90675 0.0
C4144 C 0.92545 0.56716 0.87167 0.0
C4145 C 0.93177 0.56794 0.85328 0.0
C4146 C 0.93872 0.57047 0.88723 0.0
C4147 C 0.95855 0.57493 0.88475 0.0
C4148 C 0.96488 0.57667 0.86649 0.0
H4149 H 0.04094 0.57082 0.98148 0.0
H4150 H 0.02782 0.58365 0.95337 0.0
C4151 C 0.95161 0.57322 0.85089 0.0
C4152 C 0.97251 0.57474 0.90082 0.0
H4153 H 0.98251 0.591 0.94753 0.0
C4154 C 0.98458 0.56052 0.89933 0.0
C4155 C 0.97253 0.58665 0.91812 0.0
C4156 C 0.96089 0.60308 0.92024 0.0
C4157 C 0.99551 0.55684 0.91506 0.0
C4158 C 0.99422 0.56754 0.93266 0.0
C4159 C 0.9833 0.58275 0.93395 0.0
C4160 C 0.00189 0.56104 0.95013 0.0
C4161 C 0.00749 0.54068 0.91308 0.0
C4162 C 0.99151 0.54428 0.95746 0.0
C4163 C 0.9989 0.53697 0.9733 0.0
C4164 C 0.01679 0.54636 0.98209 0.0
C4165 C 0.02711 0.56335 0.9749 0.0
C4166 C 0.01965 0.57071 0.95897 0.0
H4167 H 0.00975 0.53633 0.89807 0.0
H4168 H 0.02172 0.54573 0.92091 0.0
H4169 H 1.00005 0.52723 0.91927 0.0
H4170 H 0.9778 0.53664 0.9507 0.0
H4171 H 0.99076 0.52371 0.97841 0.0
H4172 H 0.28129 0.21119 0.54748 0.0
H4173 H 0.27943 0.22545 0.57999 0.0
H4174 H 0.257 0.16667 0.59594 0.0
H4175 H 0.259 0.15228 0.56356 0.0
H4176 H 0.24707 0.22449 0.6012 0.0
H4177 H 0.30104 0.18749 0.63586 0.0
H4178 H 0.29887 0.18838 0.61063 0.0
H4179 H 0.28228 0.17055 0.62179 0.0
C4180 C 0.27615 0.20125 0.55795 0.0
C4181 C 0.27042 0.18055 0.55291 0.0
C4182 C 0.27502 0.20945 0.57652 0.0
C4183 C 0.26825 0.19713 0.5905 0.0
C4184 C 0.26259 0.17645 0.58552 0.0
H4185 H 0.23024 0.23676 0.70104 0.0
H4186 H 0.23119 0.22257 0.6683 0.0
C4187 C 0.2637 0.16825 0.56696 0.0
C4188 C 0.26673 0.20598 0.61015 0.0
H4189 H 0.28265 0.20503 0.65603 0.0
C4190 C 0.25486 0.22026 0.61319 0.0
C4191 C 0.27701 0.20059 0.6258 0.0
C4192 C 0.29066 0.18605 0.62342 0.0
C4193 C 0.2529 0.22915 0.63143 0.0
C4194 C 0.26288 0.22345 0.64712 0.0
C4195 C 0.27484 0.20927 0.64405 0.0
C4196 C 0.26187 0.2326 0.66677 0.0
C4197 C 0.24052 0.24492 0.63369 0.0
C4198 C 0.27876 0.24279 0.67692 0.0
C4199 C 0.27828 0.25081 0.6956 0.0
C4200 C 0.26087 0.24879 0.70472 0.0
C4201 C 0.24388 0.23873 0.69447 0.0
C4202 C 0.24439 0.23067 0.67571 0.0
H4203 H 0.23761 0.25097 0.6201 0.0
H4204 H 0.2265 0.23822 0.63891 0.0
H4205 H 0.24746 0.2575 0.64412 0.0
H4206 H 0.29242 0.24449 0.67039 0.0
H4207 H 0.29169 0.25844 0.70294 0.0
H4208 H 0.64543 0.52446 0.21703 0.0
H4209 H 0.63242 0.52925 0.1856 0.0
H4210 H 0.57483 0.50885 0.2019 0.0
H4211 H 0.58765 0.50383 0.2333 0.0
H4212 H 0.60032 0.49681 0.15862 0.0
H4213 H 0.58252 0.5705 0.18398 0.0
H4214 H 0.60192 0.56087 0.19514 0.0
H4215 H 0.57743 0.54997 0.19838 0.0
C4216 C 0.63001 0.5207 0.21385 0.0
C4217 C 0.61758 0.51377 0.2277 0.0
C4218 C 0.62262 0.52348 0.1959 0.0
C4219 C 0.60268 0.51954 0.19152 0.0
C4220 C 0.59026 0.51203 0.20506 0.0
H4221 H 0.52826 0.54413 0.09997 0.0
H4222 H 0.54336 0.53893 0.13028 0.0
C4223 C 0.59764 0.50911 0.22297 0.0
C4224 C 0.59478 0.524 0.17305 0.0
H4225 H 0.57395 0.55866 0.15215 0.0
C4226 C 0.59461 0.51035 0.15712 0.0
C4227 C 0.58725 0.5416 0.17125 0.0
C4228 C 0.58726 0.55671 0.18802 0.0
C4229 C 0.58677 0.51368 0.13942 0.0
C4230 C 0.5794 0.53145 0.13751 0.0
C4231 C 0.57966 0.54511 0.15353 0.0
C4232 C 0.57077 0.53583 0.11921 0.0
C4233 C 0.5859 0.49778 0.12312 0.0
C4234 C 0.5813 0.53651 0.10293 0.0
C4235 C 0.57264 0.53936 0.08555 0.0
C4236 C 0.55337 0.54192 0.08416 0.0
C4237 C 0.54315 0.54224 0.10061 0.0
C4238 C 0.55176 0.53921 0.11794 0.0
H4239 H 0.58701 0.48302 0.12805 0.0
H4240 H 0.5723 0.49611 0.11421 0.0
H4241 H 0.59814 0.5021 0.11421 0.0
H4242 H 0.59616 0.53454 0.10361 0.0
H4243 H 0.58089 0.53913 0.07312 0.0
H4244 H 0.24243 0.88341 0.91956 0.0
H4245 H 0.23811 0.85883 0.89188 0.0
H4246 H 0.22239 0.81118 0.92728 0.0
H4247 H 0.22657 0.83553 0.95506 0.0
H4248 H 0.25369 0.80744 0.90339 0.0
H4249 H 0.18922 0.82252 0.86391 0.0
H4250 H 0.2068 0.84446 0.87199 0.0
H4251 H 0.19431 0.82979 0.88891 0.0
C4252 C 0.23769 0.86775 0.92146 0.0
C4253 C 0.23493 0.86148 0.93958 0.0
C4254 C 0.23515 0.85374 0.90561 0.0
C4255 C 0.2298 0.83325 0.90758 0.0
C4256 C 0.22642 0.82696 0.9255 0.0
H4257 H 0.21813 0.74742 0.80567 0.0
H4258 H 0.21297 0.76011 0.8381 0.0
C4259 C 0.22882 0.84095 0.94135 0.0
C4260 C 0.22966 0.81837 0.89119 0.0
H4261 H 0.2096 0.80403 0.84654 0.0
C4262 C 0.24382 0.80638 0.89109 0.0
C4263 C 0.21666 0.81695 0.87527 0.0
C4264 C 0.20076 0.82898 0.875 0.0
C4265 C 0.24608 0.79388 0.87497 0.0
C4266 C 0.23384 0.7934 0.85867 0.0
C4267 C 0.21893 0.80445 0.85914 0.0
C4268 C 0.23797 0.78388 0.8403 0.0
C4269 C 0.262 0.78188 0.87517 0.0
C4270 C 0.2538 0.79296 0.83106 0.0
C4271 C 0.25659 0.78598 0.81264 0.0
C4272 C 0.24374 0.76963 0.80319 0.0
C4273 C 0.22835 0.75992 0.81274 0.0
C4274 C 0.22536 0.76716 0.83117 0.0
H4275 H 0.2671 0.78012 0.8898 0.0
H4276 H 0.25711 0.76683 0.86744 0.0
H4277 H 0.27436 0.78969 0.86799 0.0
H4278 H 0.2635 0.80607 0.83781 0.0
H4279 H 0.26835 0.79399 0.80552 0.0
H4280 H 0.95861 0.5674 0.7543 0.0
H4281 H 0.97164 0.56523 0.72315 0.0
H4282 H 0.91909 0.52616 0.7007 0.0
H4283 H 0.90575 0.52874 0.73168 0.0
H4284 H 0.9789 0.53307 0.70227 0.0
H4285 H 0.92579 0.56694 0.66282 0.0
H4286 H 0.92754 0.56828 0.68826 0.0
H4287 H 0.91467 0.54606 0.67457 0.0
C4288 C 0.94976 0.55849 0.74268 0.0
C4289 C 0.93112 0.54832 0.74538 0.0
C4290 C 0.95724 0.55725 0.72491 0.0
C4291 C 0.94623 0.54577 0.70955 0.0
C4292 C 0.92765 0.5355 0.71225 0.0
H4293 H 0.98983 0.49992 0.60589 0.0
H4294 H 0.97869 0.50466 0.63775 0.0
C4295 C 0.92008 0.5369 0.72998 0.0
C4296 C 0.95448 0.544 0.69089 0.0
H4297 H 0.94636 0.55005 0.6444 0.0
C4298 C 0.97186 0.53691 0.68962 0.0
C4299 C 0.94543 0.5493 0.67446 0.0
C4300 C 0.92744 0.55827 0.67509 0.0
C4301 C 0.98027 0.53462 0.6723 0.0
C4302 C 0.97075 0.53904 0.65575 0.0
C4303 C 0.95354 0.54646 0.65708 0.0
C4304 C 0.97835 0.53624 0.63687 0.0
C4305 C 0.99943 0.52784 0.672 0.0
C4306 C 0.98149 0.55229 0.62568 0.0
C4307 C 0.9875 0.54951 0.60741 0.0
C4308 C 0.99056 0.53065 0.60008 0.0
C4309 C 0.98772 0.51464 0.61133 0.0
C4310 C 0.98149 0.51737 0.62955 0.0
H4311 H 0.00739 0.53103 0.68607 0.0
H4312 H 0.99696 0.51143 0.66817 0.0
H4313 H 0.0086 0.53526 0.66148 0.0
H4314 H 0.97911 0.56695 0.63102 0.0
H4315 H 0.98957 0.5621 0.59898 0.0
H4316 H 0.27451 0.20507 0.4612 0.0
H4317 H 0.27698 0.22657 0.43524 0.0
H4318 H 0.27643 0.17512 0.39542 0.0
H4319 H 0.2741 0.15361 0.42108 0.0
H4320 H 0.3044 0.20872 0.38901 0.0
H4321 H 0.23194 0.22818 0.39666 0.0
H4322 H 0.24789 0.23309 0.41759 0.0
H4323 H 0.23935 0.20775 0.40769 0.0
C4324 C 0.27504 0.19833 0.44694 0.0
C4325 C 0.274 0.17752 0.44333 0.0
C4326 C 0.27634 0.21064 0.43209 0.0
C4327 C 0.27665 0.20243 0.41332 0.0
C4328 C 0.27616 0.18181 0.40975 0.0
H4329 H 0.24919 0.24417 0.3066 0.0
H4330 H 0.25154 0.22674 0.33491 0.0
C4331 C 0.27479 0.16951 0.42451 0.0
C4332 C 0.27707 0.21507 0.39725 0.0
H4333 H 0.25033 0.24271 0.37298 0.0
C4334 C 0.29266 0.21629 0.38558 0.0
C4335 C 0.26162 0.22473 0.39262 0.0
C4336 C 0.24415 0.22332 0.40416 0.0
C4337 C 0.29316 0.22682 0.36942 0.0
C4338 C 0.27774 0.23652 0.36484 0.0
C4339 C 0.26221 0.23539 0.37656 0.0
C4340 C 0.27691 0.24705 0.34744 0.0
C4341 C 0.30988 0.22693 0.35701 0.0
C4342 C 0.29041 0.26432 0.34499 0.0
C4343 C 0.28912 0.27434 0.32873 0.0
C4344 C 0.27431 0.26725 0.31462 0.0
C4345 C 0.2609 0.24991 0.31709 0.0
C4346 C 0.26215 0.23998 0.33333 0.0
H4347 H 0.31863 0.21558 0.36041 0.0
H4348 H 0.30472 0.22402 0.34189 0.0
H4349 H 0.31936 0.24189 0.35906 0.0
H4350 H 0.30177 0.27023 0.35579 0.0
H4351 H 0.29959 0.28772 0.32727 0.0
H4352 H 0.32216 0.63848 0.52577 0.0
H4353 H 0.34919 0.62055 0.5264 0.0
H4354 H 0.32686 0.58664 0.47365 0.0
H4355 H 0.29989 0.60439 0.47282 0.0
H4356 H 0.34318 0.57656 0.52533 0.0
H4357 H 0.38539 0.60665 0.46684 0.0
H4358 H 0.36868 0.61985 0.4787 0.0
H4359 H 0.35987 0.59886 0.46164 0.0
C4360 C 0.32321 0.62751 0.5141 0.0
C4361 C 0.30884 0.62285 0.49926 0.0
C4362 C 0.33859 0.61722 0.51454 0.0
C4363 C 0.33999 0.60237 0.50003 0.0
C4364 C 0.32611 0.59821 0.48487 0.0
H4365 H 0.42239 0.52341 0.47978 0.0
H4366 H 0.39353 0.53863 0.47802 0.0
C4367 C 0.31068 0.60835 0.48447 0.0
C4368 C 0.35516 0.59017 0.50133 0.0
H4369 H 0.39476 0.57913 0.48023 0.0
C4370 C 0.35452 0.57714 0.51554 0.0
C4371 C 0.3697 0.59083 0.48835 0.0
C4372 C 0.37114 0.60488 0.47307 0.0
C4373 C 0.36807 0.56459 0.51706 0.0
C4374 C 0.38284 0.56547 0.50427 0.0
C4375 C 0.38335 0.5784 0.48995 0.0
C4376 C 0.39866 0.5541 0.50616 0.0
C4377 C 0.36625 0.55032 0.53216 0.0
C4378 C 0.41085 0.55748 0.52266 0.0
C4379 C 0.42716 0.54873 0.52371 0.0
C4380 C 0.4317 0.53663 0.50821 0.0
C4381 C 0.41912 0.53258 0.49196 0.0
C4382 C 0.40273 0.54134 0.49092 0.0
H4383 H 0.35123 0.54685 0.53652 0.0
H4384 H 0.37082 0.53609 0.52728 0.0
H4385 H 0.37559 0.55734 0.5448 0.0
H4386 H 0.40824 0.5676 0.53442 0.0
H4387 H 0.4367 0.55219 0.53638 0.0
H4388 H 0.82392 0.89345 0.507 0.0
H4389 H 0.85709 0.91161 0.50666 0.0
H4390 H 0.84624 0.95416 0.55159 0.0
H4391 H 0.81273 0.93676 0.55085 0.0
H4392 H 0.86443 0.97359 0.52824 0.0
H4393 H 0.90352 0.91214 0.5387 0.0
H4394 H 0.88764 0.90608 0.51789 0.0
H4395 H 0.8779 0.90927 0.54069 0.0
C4396 C 0.82875 0.90666 0.5168 0.0
C4397 C 0.8158 0.91406 0.52863 0.0
C4398 C 0.84778 0.91691 0.5168 0.0
C4399 C 0.85447 0.93414 0.52935 0.0
C4400 C 0.84157 0.94098 0.54172 0.0
H4401 H 0.97396 0.98949 0.55361 0.0
H4402 H 0.94146 0.96994 0.55263 0.0
C4403 C 0.82241 0.93108 0.54131 0.0
C4404 C 0.87446 0.94575 0.52888 0.0
H4405 H 0.9219 0.94171 0.5283 0.0
C4406 C 0.87691 0.96655 0.52814 0.0
C4407 C 0.89102 0.93676 0.52936 0.0
C4408 C 0.88991 0.91488 0.53192 0.0
C4409 C 0.89517 0.97854 0.52758 0.0
C4410 C 0.91161 0.96945 0.52725 0.0
C4411 C 0.90928 0.94867 0.52818 0.0
C4412 C 0.93146 0.98135 0.52734 0.0
C4413 C 0.89661 0.00092 0.52801 0.0
C4414 C 0.93683 0.99428 0.51338 0.0
C4415 C 0.95543 0.00583 0.51413 0.0
C4416 C 0.96906 0.0043 0.52861 0.0
C4417 C 0.96375 0.99109 0.54232 0.0
C4418 C 0.94518 0.97979 0.54171 0.0
H4419 H 0.88358 0.00581 0.53352 0.0
H4420 H 0.90941 0.00904 0.53689 0.0
H4421 H 0.89793 0.00533 0.51344 0.0
H4422 H 0.92666 0.99545 0.5019 0.0
H4423 H 0.95911 0.01595 0.50347 0.0
H4424 H 0.87553 0.09655 0.22469 0.0
H4425 H 0.86285 0.12768 0.22317 0.0
H4426 H 0.82539 0.11129 0.26754 0.0
H4427 H 0.83763 0.08039 0.26899 0.0
H4428 H 0.8061 0.12222 0.23712 0.0
H4429 H 0.87186 0.179 0.25944 0.0
H4430 H 0.87405 0.16119 0.23989 0.0
H4431 H 0.87018 0.15287 0.26285 0.0
C4432 C 0.86481 0.09975 0.2343 0.0
C4433 C 0.85759 0.08588 0.24691 0.0
C4434 C 0.85758 0.11757 0.23343 0.0
C4435 C 0.84317 0.12188 0.24529 0.0
C4436 C 0.83641 0.10829 0.25818 0.0
H4437 H 0.80105 0.22876 0.28003 0.0
H4438 H 0.8167 0.1997 0.27599 0.0
C4439 C 0.84349 0.09058 0.25899 0.0
C4440 C 0.83434 0.13999 0.24401 0.0
H4441 H 0.84357 0.19105 0.25168 0.0
C4442 C 0.81432 0.13729 0.24016 0.0
C4443 C 0.84504 0.15964 0.24811 0.0
C4444 C 0.86645 0.16347 0.25296 0.0
C4445 C 0.80465 0.15358 0.24076 0.0
C4446 C 0.81531 0.17324 0.24495 0.0
C4447 C 0.8354 0.17599 0.24839 0.0
C4448 C 0.80578 0.19102 0.24703 0.0
C4449 C 0.78298 0.14947 0.23771 0.0
C4450 C 0.79442 0.19593 0.23207 0.0
C4451 C 0.78521 0.21245 0.23442 0.0
C4452 C 0.78737 0.22455 0.25171 0.0
C4453 C 0.79896 0.21973 0.26656 0.0
C4454 C 0.80802 0.20315 0.26424 0.0
H4455 H 0.77668 0.13359 0.2392 0.0
H4456 H 0.77646 0.15917 0.24789 0.0
H4457 H 0.77893 0.15269 0.22323 0.0
H4458 H 0.79281 0.1871 0.21851 0.0
H4459 H 0.77671 0.21596 0.22257 0.0
H4460 H 0.70048 0.16543 0.01163 0.0
H4461 H 0.66698 0.15118 0.0173 0.0
H4462 H 0.68623 0.10134 0.04064 0.0
H4463 H 0.71946 0.11615 0.03602 0.0
H4464 H 0.64641 0.1188 0.00188 0.0
H4465 H 0.64928 0.11151 0.07807 0.0
H4466 H 0.66884 0.12607 0.0671 0.0
H4467 H 0.66733 0.09945 0.06781 0.0
C4468 C 0.6974 0.15159 0.01821 0.0
C4469 C 0.71222 0.1414 0.02279 0.0
C4470 C 0.67837 0.14348 0.02147 0.0
C4471 C 0.67407 0.12528 0.02961 0.0
C4472 C 0.68913 0.11564 0.03485 0.0
H4473 H 0.57338 0.03456 0.00424 0.0
H4474 H 0.60474 0.0569 0.00582 0.0
C4475 C 0.70807 0.12385 0.0318 0.0
C4476 C 0.65387 0.11519 0.03087 0.0
H4477 H 0.6243 0.08758 0.05917 0.0
C4478 C 0.64152 0.11219 0.01448 0.0
C4479 C 0.64718 0.10706 0.04747 0.0
C4480 C 0.65884 0.11143 0.06612 0.0
C4481 C 0.62317 0.10025 0.01386 0.0
C4482 C 0.61722 0.09058 0.02994 0.0
C4483 C 0.62908 0.09455 0.04668 0.0
C4484 C 0.59877 0.07631 0.02968 0.0
C4485 C 0.6104 0.09818 0.99597 0.0
C4486 C 0.58551 0.07913 0.04325 0.0
C4487 C 0.56785 0.06606 0.0427 0.0
C4488 C 0.56309 0.05009 0.02845 0.0
C4489 C 0.57662 0.0469 0.01524 0.0
C4490 C 0.59443 0.05976 0.01602 0.0
H4491 H 0.61419 0.11134 0.98783 0.0
H4492 H 0.61243 0.08476 0.98687 0.0
H4493 H 0.59497 0.09652 0.99901 0.0
H4494 H 0.58863 0.09171 0.05401 0.0
H4495 H 0.55765 0.06894 0.05302 0.0
H4496 H 0.17441 0.48831 0.29693 0.0
H4497 H 0.19321 0.4617 0.29672 0.0
H4498 H 0.16259 0.43361 0.24475 0.0
H4499 H 0.14335 0.46012 0.24498 0.0
H4500 H 0.1685 0.40663 0.27063 0.0
H4501 H 0.23649 0.45888 0.26128 0.0
H4502 H 0.22421 0.46609 0.28152 0.0
H4503 H 0.21313 0.46569 0.25824 0.0
C4504 C 0.17153 0.4764 0.28551 0.0
C4505 C 0.15753 0.47644 0.27084 0.0
C4506 C 0.18238 0.46128 0.28537 0.0
C4507 C 0.17965 0.44605 0.27045 0.0
C4508 C 0.16503 0.44541 0.25628 0.0
H4509 H 0.23499 0.34691 0.23773 0.0
H4510 H 0.21746 0.37467 0.23871 0.0
C4511 C 0.15401 0.4605 0.25647 0.0
C4512 C 0.1923 0.43101 0.26954 0.0
H4513 H 0.23932 0.42582 0.26737 0.0
C4514 C 0.18396 0.4108 0.26983 0.0
C4515 C 0.21248 0.43655 0.26848 0.0
C4516 C 0.22212 0.45796 0.26718 0.0
C4517 C 0.19533 0.39596 0.26939 0.0
C4518 C 0.21548 0.40154 0.26846 0.0
C4519 C 0.22385 0.42171 0.26819 0.0
C4520 C 0.22793 0.38639 0.26721 0.0
C4521 C 0.18578 0.37443 0.27011 0.0
C4522 C 0.24026 0.38444 0.28265 0.0
C4523 C 0.25037 0.36859 0.28213 0.0
C4524 C 0.24824 0.35464 0.26612 0.0
C4525 C 0.23679 0.35741 0.25029 0.0
C4526 C 0.22672 0.37318 0.25083 0.0
H4527 H 0.17077 0.37308 0.2745 0.0
H4528 H 0.18538 0.36625 0.25588 0.0
H4529 H 0.19409 0.36703 0.28004 0.0
H4530 H 0.2414 0.39465 0.29536 0.0
H4531 H 0.25908 0.36672 0.29451 0.0
H4532 H 0.20497 0.39822 0.04797 0.0
H4533 H 0.17431 0.40985 0.05211 0.0
H4534 H 0.18259 0.44138 0.00242 0.0
H4535 H 0.21267 0.42968 0.99804 0.0
H4536 H 0.17025 0.44944 0.05821 0.0
H4537 H 0.12689 0.41432 0.99357 0.0
H4538 H 0.14833 0.40592 0.00172 0.0
H4539 H 0.1501 0.42708 0.98805 0.0
C4540 C 0.19994 0.40717 0.03767 0.0
C4541 C 0.21127 0.41299 0.02267 0.0
C4542 C 0.18251 0.41392 0.04011 0.0
C4543 C 0.17602 0.42631 0.02744 0.0
C4544 C 0.18702 0.4315 0.01215 0.0
H4545 H 0.1017 0.50981 0.01439 0.0
H4546 H 0.12698 0.4895 0.01466 0.0
C4547 C 0.20435 0.42488 0.00975 0.0
C4548 C 0.15873 0.43541 0.0308 0.0
H4549 H 0.11797 0.44442 0.00822 0.0
C4550 C 0.15858 0.44801 0.04747 0.0
C4551 C 0.14349 0.43355 0.01679 0.0
C4552 C 0.14209 0.41931 0.99913 0.0
C4553 C 0.14423 0.45967 0.04998 0.0
C4554 C 0.12967 0.45864 0.03548 0.0
C4555 C 0.12932 0.44538 0.01921 0.0
C4556 C 0.1151 0.47177 0.03651 0.0
C4557 C 0.14515 0.47372 0.0677 0.0
C4558 C 0.10018 0.46864 0.04885 0.0
C4559 C 0.0857 0.48017 0.04865 0.0
C4560 C 0.08596 0.49505 0.03617 0.0
C4561 C 0.10121 0.49853 0.02422 0.0
C4562 C 0.11559 0.4869 0.02432 0.0
H4563 H 0.15861 0.47448 0.07663 0.0
H4564 H 0.14418 0.489 0.06406 0.0
H4565 H 0.1327 0.46856 0.07611 0.0
H4566 H 0.09946 0.45692 0.05824 0.0
H4567 H 0.07405 0.4771 0.05794 0.0
H4568 H 0.83904 0.98559 0.21934 0.0
H4569 H 0.82264 0.95093 0.21895 0.0
H4570 H 0.87476 0.93573 0.24274 0.0
H4571 H 0.88983 0.97112 0.24604 0.0
H4572 H 0.82259 0.91847 0.20478 0.0
H4573 H 0.84429 0.9101 0.27903 0.0
H4574 H 0.85186 0.93317 0.26906 0.0
H4575 H 0.86449 0.91276 0.26463 0.0
C4576 C 0.84655 0.97493 0.22538 0.0
C4577 C 0.86492 0.98126 0.23437 0.0
C4578 C 0.83741 0.95492 0.22468 0.0
C4579 C 0.84693 0.9405 0.23192 0.0
C4580 C 0.86639 0.94653 0.23847 0.0
H4581 H 0.78086 0.81576 0.21562 0.0
H4582 H 0.80341 0.84646 0.21054 0.0
C4583 C 0.87514 0.96677 0.2401 0.0
C4584 C 0.83625 0.91951 0.23266 0.0
H4585 H 0.82645 0.88167 0.26124 0.0
C4586 C 0.82335 0.91066 0.21731 0.0
C4587 C 0.8373 0.90872 0.24877 0.0
C4588 C 0.8501 0.91676 0.26632 0.0
C4589 C 0.8108 0.89228 0.21802 0.0
C4590 C 0.81186 0.88171 0.23412 0.0
C4591 C 0.82548 0.88988 0.24897 0.0
C4592 C 0.79822 0.8629 0.23667 0.0
C4593 C 0.79594 0.88497 0.20185 0.0
C4594 C 0.78829 0.86155 0.2533 0.0
C4595 C 0.77602 0.84387 0.25645 0.0
C4596 C 0.77306 0.82736 0.24283 0.0
C4597 C 0.78273 0.82856 0.22611 0.0
C4598 C 0.79549 0.84612 0.22317 0.0
H4599 H 0.79344 0.89733 0.19345 0.0
H4600 H 0.80113 0.87365 0.19227 0.0
H4601 H 0.78198 0.87798 0.207 0.0
H4602 H 0.79011 0.87419 0.26397 0.0
H4603 H 0.76876 0.84312 0.2695 0.0
H4604 H 0.66044 0.05714 0.72941 0.0
H4605 H 0.67693 0.08964 0.72124 0.0
H4606 H 0.65075 0.11891 0.76676 0.0
H4607 H 0.63191 0.08652 0.7727 0.0
H4608 H 0.65295 0.14097 0.74122 0.0
H4609 H 0.7244 0.11845 0.74534 0.0
H4610 H 0.71036 0.10706 0.72434 0.0
H4611 H 0.70268 0.10068 0.74703 0.0
C4612 C 0.65825 0.07062 0.73756 0.0
C4613 C 0.64563 0.06949 0.75219 0.0
C4614 C 0.6678 0.08918 0.73303 0.0
C4615 C 0.66598 0.10684 0.74396 0.0
C4616 C 0.65276 0.1056 0.75822 0.0
H4617 H 0.74156 0.21626 0.77511 0.0
H4618 H 0.72294 0.18229 0.76983 0.0
C4619 C 0.64221 0.0871 0.76188 0.0
C4620 C 0.67774 0.12662 0.74083 0.0
H4621 H 0.72393 0.15166 0.73842 0.0
C4622 C 0.66847 0.1432 0.74061 0.0
C4623 C 0.69806 0.12971 0.73951 0.0
C4624 C 0.70944 0.11304 0.7392 0.0
C4625 C 0.67891 0.16269 0.74028 0.0
C4626 C 0.69914 0.16568 0.73978 0.0
C4627 C 0.70838 0.14919 0.73894 0.0
C4628 C 0.71116 0.1859 0.74207 0.0
C4629 C 0.66838 0.18007 0.74133 0.0
C4630 C 0.71104 0.19895 0.72796 0.0
C4631 C 0.72176 0.21841 0.73088 0.0
C4632 C 0.73269 0.22507 0.748 0.0
C4633 C 0.73323 0.21167 0.76181 0.0
C4634 C 0.72261 0.19224 0.75883 0.0
H4635 H 0.65295 0.17541 0.74405 0.0
H4636 H 0.67524 0.19172 0.75268 0.0
H4637 H 0.66921 0.18693 0.72778 0.0
H4638 H 0.70245 0.19417 0.71483 0.0
H4639 H 0.72102 0.22837 0.71997 0.0
loop_
_geom_bond_atom_site_label_1
_geom_bond_atom_site_label_2
_geom_bond_distance
_geom_bond_site_symmetry_2
_ccdc_geom_bond_type
Mn0 O5 2.095 . S
Mn0 O15 2.162 . S
Mn0 O16 2.297 . S
Mn0 O24 2.385 1_455 S
Mn0 O25 2.209 1_455 S
Mn0 O26 2.094 . S
Mn1 O6 2.121 . S
Mn1 N8 2.257 . S
Mn1 N17 2.282 1_455 S
Mn1 O25 2.215 1_455 S
Mn1 O27 2.117 . S
C2 O24 1.234 . S
C2 O25 1.283 . S
C3 O15 1.281 . S
C3 O16 1.236 . S
C4 O26 1.240 . S
C4 O27 1.264 . S
O5 Mn0 2.095 . S
O5 C14 1.250 . S
O6 Mn1 2.121 . S
O6 C14 1.258 . S
C7 N8 1.326 . S
C7 C11 1.460 . S
C7 H13 0.929 . S
N8 Mn1 2.257 . S
N8 C7 1.326 . S
N8 C12 1.362 1_455 S
C9 C10 1.258 . S
C9 C12 1.431 . S
C9 C29 1.449 . S
C10 C9 1.258 . S
C10 C11 1.477 1_655 S
C10 H30 0.931 . S
C11 C7 1.460 . S
C11 C10 1.477 1_455 S
C11 H31 0.930 . S
C12 N8 1.362 1_655 S
C12 C9 1.431 . S
C12 C22 1.476 . S
H13 C7 0.929 . S
C14 O5 1.250 . S
C14 O6 1.258 . S
O15 Mn0 2.162 . S
O15 C3 1.281 . S
O16 Mn0 2.297 . S
O16 C3 1.236 . S
N17 Mn1 2.282 1_655 S
N17 C18 1.328 . S
N17 C22 1.318 . S
C18 N17 1.328 . S
C18 C19 1.457 . S
C18 H23 0.929 . S
C19 C18 1.457 . S
C19 C20 1.291 . S
C19 H32 0.931 . S
C20 C19 1.291 . S
C20 C21 1.373 . S
C20 H33 0.929 . S
C21 C20 1.373 . S
C21 C22 1.396 . S
C21 C28 1.403 . S
C22 C12 1.476 . S
C22 N17 1.318 . S
C22 C21 1.396 . S
H23 C18 0.929 . S
O24 Mn0 2.385 1_655 S
O24 C2 1.234 . S
O25 Mn0 2.209 1_655 S
O25 Mn1 2.215 1_655 S
O25 C2 1.283 . S
O26 Mn0 2.094 . S
O26 C4 1.240 . S
O27 Mn1 2.117 . S
O27 C4 1.264 . S
C28 C21 1.403 . S
C28 C29 1.399 . S
C28 H34 0.929 . S
C29 C9 1.449 . S
C29 C28 1.399 . S
C29 H35 0.930 . S
H30 C10 0.931 . S
H31 C11 0.930 . S
H32 C19 0.931 . S
H33 C20 0.929 . S
H34 C28 0.929 . S
H35 C29 0.930 . S
Mn36 O41 2.095 1_455 S
Mn36 O51 2.162 . S
Mn36 O52 2.297 . S
Mn36 O60 2.385 . S
Mn36 O61 2.209 . S
Mn36 O62 2.094 . S
Mn37 O42 2.121 1_455 S
Mn37 N44 2.257 . S
Mn37 N53 2.282 . S
Mn37 O61 2.215 . S
Mn37 O63 2.117 . S
C38 O60 1.234 . S
C38 O61 1.283 . S
C39 O51 1.281 . S
C39 O52 1.236 . S
C40 O62 1.240 . S
C40 O63 1.264 . S
O41 Mn36 2.095 1_655 S
O41 C50 1.250 . S
O42 Mn37 2.121 1_655 S
O42 C50 1.258 . S
C43 N44 1.326 . S
C43 C47 1.460 . S
C43 H49 0.929 1_455 S
N44 Mn37 2.257 . S
N44 C43 1.326 . S
N44 C48 1.362 . S
C45 C46 1.258 . S
C45 C48 1.431 . S
C45 C65 1.449 . S
C46 C45 1.258 . S
C46 C47 1.477 . S
C46 H66 0.931 . S
C47 C43 1.460 . S
C47 C46 1.477 . S
C47 H67 0.930 . S
C48 N44 1.362 . S
C48 C45 1.431 . S
C48 C58 1.476 . S
H49 C43 0.929 1_655 S
C50 O41 1.250 . S
C50 O42 1.258 . S
O51 Mn36 2.162 . S
O51 C39 1.281 . S
O52 Mn36 2.297 . S
O52 C39 1.236 . S
N53 Mn37 2.282 . S
N53 C54 1.328 . S
N53 C58 1.318 . S
C54 N53 1.328 . S
C54 C55 1.457 . S
C54 H59 0.929 . S
C55 C54 1.457 . S
C55 C56 1.291 . S
C55 H68 0.931 . S
C56 C55 1.291 . S
C56 C57 1.373 . S
C56 H69 0.929 . S
C57 C56 1.373 . S
C57 C58 1.396 . S
C57 C64 1.403 . S
C58 C48 1.476 . S
C58 N53 1.318 . S
C58 C57 1.396 . S
H59 C54 0.929 . S
O60 Mn36 2.385 . S
O60 C38 1.234 . S
O61 Mn36 2.209 . S
O61 Mn37 2.215 . S
O61 C38 1.283 . S
O62 Mn36 2.094 . S
O62 C40 1.240 . S
O63 Mn37 2.117 . S
O63 C40 1.264 . S
C64 C57 1.403 . S
C64 C65 1.399 . S
C64 H70 0.929 . S
C65 C45 1.449 . S
C65 C64 1.399 . S
C65 H71 0.930 . S
H66 C46 0.931 . S
H67 C47 0.930 . S
H68 C55 0.931 . S
H69 C56 0.929 . S
H70 C64 0.929 . S
H71 C65 0.930 . S
Mn72 O77 2.095 . S
Mn72 O87 2.162 . S
Mn72 O88 2.297 . S
Mn72 O96 2.385 . S
Mn72 O97 2.209 . S
Mn72 O98 2.094 . S
Mn73 O78 2.121 . S
Mn73 N80 2.257 . S
Mn73 N89 2.282 . S
Mn73 O97 2.215 . S
Mn73 O99 2.117 . S
C74 O96 1.234 . S
C74 O97 1.283 . S
C75 O87 1.281 . S
C75 O88 1.236 . S
C76 O98 1.240 . S
C76 O99 1.264 . S
O77 Mn72 2.095 . S
O77 C86 1.250 . S
O78 Mn73 2.121 . S
O78 C86 1.258 . S
C79 N80 1.326 . S
C79 C83 1.460 . S
C79 H85 0.929 . S
N80 Mn73 2.257 . S
N80 C79 1.326 . S
N80 C84 1.362 . S
C81 C82 1.258 . S
C81 C84 1.431 . S
C81 C101 1.449 . S
C82 C81 1.258 . S
C82 C83 1.477 . S
C82 H102 0.931 . S
C83 C79 1.460 . S
C83 C82 1.477 . S
C83 H103 0.930 . S
C84 N80 1.362 . S
C84 C81 1.431 . S
C84 C94 1.476 . S
H85 C79 0.929 . S
C86 O77 1.250 . S
C86 O78 1.258 . S
O87 Mn72 2.162 . S
O87 C75 1.281 . S
O88 Mn72 2.297 . S
O88 C75 1.236 . S
N89 Mn73 2.282 . S
N89 C90 1.328 . S
N89 C94 1.318 . S
C90 N89 1.328 . S
C90 C91 1.457 . S
C90 H95 0.929 . S
C91 C90 1.457 . S
C91 C92 1.291 . S
C91 H104 0.931 . S
C92 C91 1.291 . S
C92 C93 1.373 . S
C92 H105 0.929 . S
C93 C92 1.373 . S
C93 C94 1.396 . S
C93 C100 1.403 . S
C94 C84 1.476 . S
C94 N89 1.318 . S
C94 C93 1.396 . S
H95 C90 0.929 . S
O96 Mn72 2.385 . S
O96 C74 1.234 . S
O97 Mn72 2.209 . S
O97 Mn73 2.215 . S
O97 C74 1.283 . S
O98 Mn72 2.094 . S
O98 C76 1.240 . S
O99 Mn73 2.117 . S
O99 C76 1.264 . S
C100 C93 1.403 . S
C100 C101 1.399 . S
C100 H106 0.929 . S
C101 C81 1.449 . S
C101 C100 1.399 . S
C101 H107 0.930 . S
H102 C82 0.931 . S
H103 C83 0.930 . S
H104 C91 0.931 . S
H105 C92 0.929 . S
H106 C100 0.929 . S
H107 C101 0.930 . S
Mn108 O113 2.095 . S
Mn108 O123 2.162 . S
Mn108 O124 2.297 . S
Mn108 O132 2.385 . S
Mn108 O133 2.209 . S
Mn108 O134 2.094 . S
Mn109 O114 2.121 . S
Mn109 N116 2.257 . S
Mn109 N125 2.282 . S
Mn109 O133 2.215 . S
Mn109 O135 2.117 . S
C110 O132 1.234 . S
C110 O133 1.283 . S
C111 O123 1.281 . S
C111 O124 1.236 . S
C112 O134 1.240 . S
C112 O135 1.264 . S
O113 Mn108 2.095 . S
O113 C122 1.250 . S
O114 Mn109 2.121 . S
O114 C122 1.258 . S
C115 N116 1.326 . S
C115 C119 1.460 . S
C115 H121 0.929 . S
N116 Mn109 2.257 . S
N116 C115 1.326 . S
N116 C120 1.362 . S
C117 C118 1.258 . S
C117 C120 1.431 . S
C117 C137 1.449 . S
C118 C117 1.258 . S
C118 C119 1.477 . S
C118 H138 0.931 . S
C119 C115 1.460 . S
C119 C118 1.477 . S
C119 H139 0.930 . S
C120 N116 1.362 . S
C120 C117 1.431 . S
C120 C130 1.476 . S
H121 C115 0.929 . S
C122 O113 1.250 . S
C122 O114 1.258 . S
O123 Mn108 2.162 . S
O123 C111 1.281 . S
O124 Mn108 2.297 . S
O124 C111 1.236 . S
N125 Mn109 2.282 . S
N125 C126 1.328 . S
N125 C130 1.318 . S
C126 N125 1.328 . S
C126 C127 1.457 . S
C126 H131 0.929 . S
C127 C126 1.457 . S
C127 C128 1.291 . S
C127 H140 0.931 . S
C128 C127 1.291 . S
C128 C129 1.373 . S
C128 H141 0.929 . S
C129 C128 1.373 . S
C129 C130 1.396 . S
C129 C136 1.403 . S
C130 C120 1.476 . S
C130 N125 1.318 . S
C130 C129 1.396 . S
H131 C126 0.929 . S
O132 Mn108 2.385 . S
O132 C110 1.234 . S
O133 Mn108 2.209 . S
O133 Mn109 2.215 . S
O133 C110 1.283 . S
O134 Mn108 2.094 . S
O134 C112 1.240 . S
O135 Mn109 2.117 . S
O135 C112 1.264 . S
C136 C129 1.403 . S
C136 C137 1.399 . S
C136 H142 0.929 . S
C137 C117 1.449 . S
C137 C136 1.399 . S
C137 H143 0.930 . S
H138 C118 0.931 . S
H139 C119 0.930 . S
H140 C127 0.931 . S
H141 C128 0.929 . S
H142 C136 0.929 . S
H143 C137 0.930 . S
Mn144 O149 2.095 . S
Mn144 O159 2.162 . S
Mn144 O160 2.297 . S
Mn144 O168 2.385 . S
Mn144 O169 2.209 . S
Mn144 O170 2.094 1_455 S
Mn145 O150 2.121 1_655 S
Mn145 N152 2.257 . S
Mn145 N161 2.282 . S
Mn145 O169 2.215 1_655 S
Mn145 O171 2.117 . S
C146 O168 1.234 . S
C146 O169 1.283 . S
C147 O159 1.281 . S
C147 O160 1.236 . S
C148 O170 1.240 . S
C148 O171 1.264 . S
O149 Mn144 2.095 . S
O149 C158 1.250 . S
O150 Mn145 2.121 1_455 S
O150 C158 1.258 . S
C151 N152 1.330 . S
C151 C155 1.459 . S
C151 H157 0.926 1_655 S
N152 Mn145 2.257 . S
N152 C151 1.330 . S
N152 C156 1.362 . S
C153 C154 1.258 . S
C153 C156 1.431 . S
C153 C173 1.449 . S
C154 C153 1.258 . S
C154 C155 1.477 . S
C154 H174 0.931 . S
C155 C151 1.459 . S
C155 C154 1.477 . S
C155 H175 0.930 1_655 S
C156 N152 1.362 . S
C156 C153 1.431 . S
C156 C166 1.476 . S
H157 C151 0.926 1_455 S
C158 O149 1.250 . S
C158 O150 1.258 . S
O159 Mn144 2.162 . S
O159 C147 1.281 . S
O160 Mn144 2.297 . S
O160 C147 1.236 . S
N161 Mn145 2.282 . S
N161 C162 1.328 . S
N161 C166 1.318 . S
C162 N161 1.328 . S
C162 C163 1.457 . S
C162 H167 0.929 . S
C163 C162 1.457 . S
C163 C164 1.291 . S
C163 H176 0.931 . S
C164 C163 1.291 . S
C164 C165 1.373 . S
C164 H177 0.929 . S
C165 C164 1.373 . S
C165 C166 1.396 . S
C165 C172 1.403 . S
C166 C156 1.476 . S
C166 N161 1.318 . S
C166 C165 1.396 . S
H167 C162 0.929 . S
O168 Mn144 2.385 . S
O168 C146 1.234 . S
O169 Mn144 2.209 . S
O169 Mn145 2.215 1_455 S
O169 C146 1.283 . S
O170 Mn144 2.094 1_655 S
O170 C148 1.240 . S
O171 Mn145 2.117 . S
O171 C148 1.264 . S
C172 C165 1.403 . S
C172 C173 1.399 . S
C172 H178 0.929 . S
C173 C153 1.449 . S
C173 C172 1.399 . S
C173 H179 0.930 . S
H174 C154 0.931 . S
H175 C155 0.930 1_455 S
H176 C163 0.931 . S
H177 C164 0.929 . S
H178 C172 0.929 . S
H179 C173 0.930 . S
Mn180 O185 2.095 . S
Mn180 O195 2.162 . S
Mn180 O196 2.297 . S
Mn180 O204 2.385 . S
Mn180 O205 2.209 . S
Mn180 O206 2.094 . S
Mn181 O186 2.121 . S
Mn181 N188 2.257 . S
Mn181 N197 2.282 . S
Mn181 O205 2.215 . S
Mn181 O207 2.117 . S
C182 O204 1.234 . S
C182 O205 1.283 . S
C183 O195 1.281 . S
C183 O196 1.236 . S
C184 O206 1.240 . S
C184 O207 1.264 . S
O185 Mn180 2.095 . S
O185 C194 1.250 . S
O186 Mn181 2.121 . S
O186 C194 1.258 . S
C187 N188 1.326 . S
C187 C191 1.460 . S
C187 H193 0.929 . S
N188 Mn181 2.257 . S
N188 C187 1.326 . S
N188 C192 1.362 . S
C189 C190 1.258 . S
C189 C192 1.431 . S
C189 C209 1.449 . S
C190 C189 1.258 . S
C190 C191 1.477 . S
C190 H210 0.931 . S
C191 C187 1.460 . S
C191 C190 1.477 . S
C191 H211 0.930 . S
C192 N188 1.362 . S
C192 C189 1.431 . S
C192 C202 1.476 . S
H193 C187 0.929 . S
C194 O185 1.250 . S
C194 O186 1.258 . S
O195 Mn180 2.162 . S
O195 C183 1.281 . S
O196 Mn180 2.297 . S
O196 C183 1.236 . S
N197 Mn181 2.282 . S
N197 C198 1.328 . S
N197 C202 1.318 . S
C198 N197 1.328 . S
C198 C199 1.457 . S
C198 H203 0.929 . S
C199 C198 1.457 . S
C199 C200 1.291 . S
C199 H212 0.931 . S
C200 C199 1.291 . S
C200 C201 1.373 . S
C200 H213 0.929 . S
C201 C200 1.373 . S
C201 C202 1.396 . S
C201 C208 1.403 . S
C202 C192 1.476 . S
C202 N197 1.318 . S
C202 C201 1.396 . S
H203 C198 0.929 . S
O204 Mn180 2.385 . S
O204 C182 1.234 . S
O205 Mn180 2.209 . S
O205 Mn181 2.215 . S
O205 C182 1.283 . S
O206 Mn180 2.094 . S
O206 C184 1.240 . S
O207 Mn181 2.117 . S
O207 C184 1.264 . S
C208 C201 1.403 . S
C208 C209 1.399 . S
C208 H214 0.929 . S
C209 C189 1.449 . S
C209 C208 1.399 . S
C209 H215 0.930 . S
H210 C190 0.931 . S
H211 C191 0.930 . S
H212 C199 0.931 . S
H213 C200 0.929 . S
H214 C208 0.929 . S
H215 C209 0.930 . S
Mn216 O221 2.095 . S
Mn216 O231 2.162 . S
Mn216 O232 2.297 . S
Mn216 O240 2.385 . S
Mn216 O241 2.209 . S
Mn216 O242 2.094 . S
Mn217 O222 2.121 . S
Mn217 N224 2.257 . S
Mn217 N233 2.282 . S
Mn217 O241 2.215 . S
Mn217 O243 2.117 . S
C218 O240 1.234 . S
C218 O241 1.283 . S
C219 O231 1.281 . S
C219 O232 1.236 . S
C220 O242 1.240 . S
C220 O243 1.264 . S
O221 Mn216 2.095 . S
O221 C230 1.250 . S
O222 Mn217 2.121 . S
O222 C230 1.258 . S
C223 N224 1.326 . S
C223 C227 1.460 . S
C223 H229 0.929 . S
N224 Mn217 2.257 . S
N224 C223 1.326 . S
N224 C228 1.362 . S
C225 C226 1.258 . S
C225 C228 1.431 . S
C225 C245 1.449 . S
C226 C225 1.258 . S
C226 C227 1.477 . S
C226 H246 0.931 . S
C227 C223 1.460 . S
C227 C226 1.477 . S
C227 H247 0.930 . S
C228 N224 1.362 . S
C228 C225 1.431 . S
C228 C238 1.476 . S
H229 C223 0.929 . S
C230 O221 1.250 . S
C230 O222 1.258 . S
O231 Mn216 2.162 . S
O231 C219 1.281 . S
O232 Mn216 2.297 . S
O232 C219 1.236 . S
N233 Mn217 2.282 . S
N233 C234 1.328 . S
N233 C238 1.318 . S
C234 N233 1.328 . S
C234 C235 1.457 . S
C234 H239 0.929 . S
C235 C234 1.457 . S
C235 C236 1.291 . S
C235 H248 0.931 . S
C236 C235 1.291 . S
C236 C237 1.373 . S
C236 H249 0.929 . S
C237 C236 1.373 . S
C237 C238 1.396 . S
C237 C244 1.403 . S
C238 C228 1.476 . S
C238 N233 1.318 . S
C238 C237 1.396 . S
H239 C234 0.929 . S
O240 Mn216 2.385 . S
O240 C218 1.234 . S
O241 Mn216 2.209 . S
O241 Mn217 2.215 . S
O241 C218 1.283 . S
O242 Mn216 2.094 . S
O242 C220 1.240 . S
O243 Mn217 2.117 . S
O243 C220 1.264 . S
C244 C237 1.403 . S
C244 C245 1.399 . S
C244 H250 0.929 . S
C245 C225 1.449 . S
C245 C244 1.399 . S
C245 H251 0.930 . S
H246 C226 0.931 . S
H247 C227 0.930 . S
H248 C235 0.931 . S
H249 C236 0.929 . S
H250 C244 0.929 . S
H251 C245 0.930 . S
Mn252 O257 2.095 . S
Mn252 O267 2.162 . S
Mn252 O268 2.297 1_455 S
Mn252 O276 2.385 1_455 S
Mn252 O277 2.209 1_455 S
Mn252 O278 2.094 . S
Mn253 O258 2.121 . S
Mn253 N260 2.257 1_455 S
Mn253 N269 2.282 1_455 S
Mn253 O277 2.215 1_455 S
Mn253 O279 2.117 . S
C254 O276 1.234 . S
C254 O277 1.283 . S
C255 O267 1.283 1_655 S
C255 O268 1.239 . S
C256 O278 1.240 . S
C256 O279 1.264 . S
O257 Mn252 2.095 . S
O257 C266 1.250 . S
O258 Mn253 2.121 . S
O258 C266 1.258 . S
C259 N260 1.326 1_455 S
C259 C263 1.460 1_455 S
C259 H265 0.929 . S
N260 Mn253 2.257 1_655 S
N260 C259 1.326 1_655 S
N260 C264 1.362 . S
C261 C262 1.258 . S
C261 C264 1.431 . S
C261 C281 1.449 . S
C262 C261 1.258 . S
C262 C263 1.477 . S
C262 H282 0.931 . S
C263 C259 1.460 1_655 S
C263 C262 1.477 . S
C263 H283 0.930 1_655 S
C264 N260 1.362 . S
C264 C261 1.431 . S
C264 C274 1.476 . S
H265 C259 0.929 . S
C266 O257 1.250 . S
C266 O258 1.258 . S
O267 Mn252 2.162 . S
O267 C255 1.283 1_455 S
O268 Mn252 2.297 1_655 S
O268 C255 1.239 . S
N269 Mn253 2.282 1_655 S
N269 C270 1.328 . S
N269 C274 1.318 . S
C270 N269 1.328 . S
C270 C271 1.457 . S
C270 H275 0.929 . S
C271 C270 1.457 . S
C271 C272 1.291 . S
C271 H284 0.931 . S
C272 C271 1.291 . S
C272 C273 1.373 . S
C272 H285 0.929 . S
C273 C272 1.373 . S
C273 C274 1.396 . S
C273 C280 1.403 . S
C274 C264 1.476 . S
C274 N269 1.318 . S
C274 C273 1.396 . S
H275 C270 0.929 . S
O276 Mn252 2.385 1_655 S
O276 C254 1.234 . S
O277 Mn252 2.209 1_655 S
O277 Mn253 2.215 1_655 S
O277 C254 1.283 . S
O278 Mn252 2.094 . S
O278 C256 1.240 . S
O279 Mn253 2.117 . S
O279 C256 1.264 . S
C280 C273 1.403 . S
C280 C281 1.399 . S
C280 H286 0.929 . S
C281 C261 1.449 . S
C281 C280 1.399 . S
C281 H287 0.930 . S
H282 C262 0.931 . S
H283 C263 0.930 1_455 S
H284 C271 0.931 . S
H285 C272 0.929 . S
H286 C280 0.929 . S
H287 C281 0.930 . S
Mn288 O293 2.095 . S
Mn288 O303 2.162 . S
Mn288 O304 2.297 . S
Mn288 O312 2.385 1_545 S
Mn288 O313 2.209 . S
Mn288 O314 2.094 . S
Mn289 O294 2.121 . S
Mn289 N296 2.257 . S
Mn289 N305 2.282 1_545 S
Mn289 O313 2.215 . S
Mn289 O315 2.117 . S
C290 O312 1.234 . S
C290 O313 1.283 1_565 S
C291 O303 1.281 . S
C291 O304 1.236 . S
C292 O314 1.240 . S
C292 O315 1.264 . S
O293 Mn288 2.095 . S
O293 C302 1.250 . S
O294 Mn289 2.121 . S
O294 C302 1.258 . S
C295 N296 1.326 . S
C295 C299 1.460 . S
C295 H301 0.929 . S
N296 Mn289 2.257 . S
N296 C295 1.326 . S
N296 C300 1.362 1_545 S
C297 C298 1.258 . S
C297 C300 1.431 . S
C297 C317 1.449 . S
C298 C297 1.258 . S
C298 C299 1.477 1_565 S
C298 H318 0.931 . S
C299 C295 1.460 . S
C299 C298 1.477 1_545 S
C299 H319 0.930 . S
C300 N296 1.362 1_565 S
C300 C297 1.431 . S
C300 C310 1.476 . S
H301 C295 0.929 . S
C302 O293 1.250 . S
C302 O294 1.258 . S
O303 Mn288 2.162 . S
O303 C291 1.281 . S
O304 Mn288 2.297 . S
O304 C291 1.236 . S
N305 Mn289 2.282 1_565 S
N305 C306 1.328 . S
N305 C310 1.318 . S
C306 N305 1.328 . S
C306 C307 1.457 . S
C306 H311 0.929 . S
C307 C306 1.457 . S
C307 C308 1.291 . S
C307 H320 0.931 . S
C308 C307 1.291 . S
C308 C309 1.373 . S
C308 H321 0.929 . S
C309 C308 1.373 . S
C309 C310 1.396 . S
C309 C316 1.403 . S
C310 C300 1.476 . S
C310 N305 1.318 . S
C310 C309 1.396 . S
H311 C306 0.929 . S
O312 Mn288 2.385 1_565 S
O312 C290 1.234 . S
O313 Mn288 2.209 . S
O313 Mn289 2.215 . S
O313 C290 1.283 1_545 S
O314 Mn288 2.094 . S
O314 C292 1.240 . S
O315 Mn289 2.117 . S
O315 C292 1.264 . S
C316 C309 1.403 . S
C316 C317 1.399 . S
C316 H322 0.929 . S
C317 C297 1.449 . S
C317 C316 1.399 . S
C317 H323 0.930 . S
H318 C298 0.931 . S
H319 C299 0.930 . S
H320 C307 0.931 . S
H321 C308 0.929 . S
H322 C316 0.929 . S
H323 C317 0.930 . S
Mn324 O329 2.095 . S
Mn324 O339 2.162 . S
Mn324 O340 2.297 . S
Mn324 O348 2.385 . S
Mn324 O349 2.209 . S
Mn324 O350 2.094 . S
Mn325 O330 2.121 . S
Mn325 N332 2.257 . S
Mn325 N341 2.282 . S
Mn325 O349 2.215 . S
Mn325 O351 2.117 . S
C326 O348 1.234 . S
C326 O349 1.283 . S
C327 O339 1.281 . S
C327 O340 1.236 . S
C328 O350 1.240 . S
C328 O351 1.264 . S
O329 Mn324 2.095 . S
O329 C338 1.250 . S
O330 Mn325 2.121 . S
O330 C338 1.258 . S
C331 N332 1.326 . S
C331 C335 1.460 . S
C331 H337 0.929 . S
N332 Mn325 2.257 . S
N332 C331 1.326 . S
N332 C336 1.362 . S
C333 C334 1.258 . S
C333 C336 1.431 . S
C333 C353 1.449 . S
C334 C333 1.258 . S
C334 C335 1.477 . S
C334 H354 0.931 . S
C335 C331 1.460 . S
C335 C334 1.477 . S
C335 H355 0.930 . S
C336 N332 1.362 . S
C336 C333 1.431 . S
C336 C346 1.476 . S
H337 C331 0.929 . S
C338 O329 1.250 . S
C338 O330 1.258 . S
O339 Mn324 2.162 . S
O339 C327 1.281 . S
O340 Mn324 2.297 . S
O340 C327 1.236 . S
N341 Mn325 2.282 . S
N341 C342 1.328 . S
N341 C346 1.318 . S
C342 N341 1.328 . S
C342 C343 1.457 . S
C342 H347 0.929 . S
C343 C342 1.457 . S
C343 C344 1.291 . S
C343 H356 0.931 . S
C344 C343 1.291 . S
C344 C345 1.373 . S
C344 H357 0.929 . S
C345 C344 1.373 . S
C345 C346 1.396 . S
C345 C352 1.403 . S
C346 C336 1.476 . S
C346 N341 1.318 . S
C346 C345 1.396 . S
H347 C342 0.929 . S
O348 Mn324 2.385 . S
O348 C326 1.234 . S
O349 Mn324 2.209 . S
O349 Mn325 2.215 . S
O349 C326 1.283 . S
O350 Mn324 2.094 . S
O350 C328 1.240 . S
O351 Mn325 2.117 . S
O351 C328 1.264 . S
C352 C345 1.403 . S
C352 C353 1.399 . S
C352 H358 0.929 . S
C353 C333 1.449 . S
C353 C352 1.399 . S
C353 H359 0.930 . S
H354 C334 0.931 . S
H355 C335 0.930 . S
H356 C343 0.931 . S
H357 C344 0.929 . S
H358 C352 0.929 . S
H359 C353 0.930 . S
Mn360 O365 2.096 1_545 S
Mn360 O375 2.162 1_545 S
Mn360 O376 2.297 1_545 S
Mn360 O384 2.384 . S
Mn360 O385 2.208 . S
Mn360 O386 2.094 1_545 S
Mn361 O366 2.121 1_545 S
Mn361 N368 2.257 . S
Mn361 N377 2.282 . S
Mn361 O385 2.215 . S
Mn361 O387 2.117 . S
C362 O384 1.234 . S
C362 O385 1.283 . S
C363 O375 1.281 . S
C363 O376 1.235 . S
C364 O386 1.251 1_545 S
C364 O387 1.264 . S
O365 Mn360 2.096 1_565 S
O365 C374 1.250 . S
O366 Mn361 2.121 1_565 S
O366 C374 1.258 . S
C367 N368 1.326 . S
C367 C371 1.460 . S
C367 H373 0.929 1_545 S
N368 Mn361 2.257 . S
N368 C367 1.326 . S
N368 C372 1.362 . S
C369 C370 1.258 . S
C369 C372 1.431 . S
C369 C389 1.449 . S
C370 C369 1.258 . S
C370 C371 1.477 . S
C370 H390 0.931 . S
C371 C367 1.460 . S
C371 C370 1.477 . S
C371 H391 0.930 . S
C372 N368 1.362 . S
C372 C369 1.431 . S
C372 C382 1.476 . S
H373 C367 0.929 1_565 S
C374 O365 1.250 . S
C374 O366 1.258 . S
O375 Mn360 2.162 1_565 S
O375 C363 1.281 . S
O376 Mn360 2.297 1_565 S
O376 C363 1.235 . S
N377 Mn361 2.282 . S
N377 C378 1.328 . S
N377 C382 1.318 . S
C378 N377 1.328 . S
C378 C379 1.457 . S
C378 H383 0.929 . S
C379 C378 1.457 . S
C379 C380 1.291 . S
C379 H392 0.931 . S
C380 C379 1.291 . S
C380 C381 1.373 . S
C380 H393 0.929 . S
C381 C380 1.373 . S
C381 C382 1.396 . S
C381 C388 1.403 . S
C382 C372 1.476 . S
C382 N377 1.318 . S
C382 C381 1.396 . S
H383 C378 0.929 . S
O384 Mn360 2.384 . S
O384 C362 1.234 . S
O385 Mn360 2.208 . S
O385 Mn361 2.215 . S
O385 C362 1.283 . S
O386 Mn360 2.094 1_565 S
O386 C364 1.251 1_565 S
O387 Mn361 2.117 . S
O387 C364 1.264 . S
C388 C381 1.403 . S
C388 C389 1.399 . S
C388 H394 0.929 . S
C389 C369 1.449 . S
C389 C388 1.399 . S
C389 H395 0.930 . S
H390 C370 0.931 . S
H391 C371 0.930 . S
H392 C379 0.931 . S
H393 C380 0.929 . S
H394 C388 0.929 . S
H395 C389 0.930 . S
Mn396 O401 2.095 . S
Mn396 O411 2.162 . S
Mn396 O412 2.297 . S
Mn396 O420 2.385 . S
Mn396 O421 2.209 . S
Mn396 O422 2.074 1_554 S
Mn397 O402 2.121 1_556 S
Mn397 N404 2.257 1_556 S
Mn397 N413 2.282 . S
Mn397 O421 2.215 1_556 S
Mn397 O423 2.117 . S
C398 O420 1.234 . S
C398 O421 1.283 . S
C399 O411 1.281 . S
C399 O412 1.236 . S
C400 O422 1.263 . S
C400 O423 1.264 . S
O401 Mn396 2.095 . S
O401 C410 1.250 . S
O402 Mn397 2.121 1_554 S
O402 C410 1.258 . S
C403 N404 1.326 . S
C403 C407 1.462 . S
C403 H409 0.929 . S
N404 Mn397 2.257 1_554 S
N404 C403 1.326 . S
N404 C408 1.362 1_554 S
C405 C406 1.258 1_566 S
C405 C408 1.431 . S
C405 C425 1.458 . S
C406 C405 1.258 1_544 S
C406 C407 1.477 1_545 S
C406 H426 0.931 . S
C407 C403 1.462 . S
C407 C406 1.477 1_565 S
C407 H427 0.928 1_565 S
C408 N404 1.362 1_556 S
C408 C405 1.431 . S
C408 C418 1.476 . S
H409 C403 0.929 . S
C410 O401 1.250 . S
C410 O402 1.258 . S
O411 Mn396 2.162 . S
O411 C399 1.281 . S
O412 Mn396 2.297 . S
O412 C399 1.236 . S
N413 Mn397 2.282 . S
N413 C414 1.328 . S
N413 C418 1.318 . S
C414 N413 1.328 . S
C414 C415 1.457 . S
C414 H419 0.929 . S
C415 C414 1.457 . S
C415 C416 1.291 . S
C415 H428 0.931 . S
C416 C415 1.291 . S
C416 C417 1.373 . S
C416 H429 0.929 . S
C417 C416 1.373 . S
C417 C418 1.396 . S
C417 C424 1.403 . S
C418 C408 1.476 . S
C418 N413 1.318 . S
C418 C417 1.396 . S
H419 C414 0.929 . S
O420 Mn396 2.385 . S
O420 C398 1.234 . S
O421 Mn396 2.209 . S
O421 Mn397 2.215 1_554 S
O421 C398 1.283 . S
O422 Mn396 2.074 1_556 S
O422 C400 1.263 . S
O423 Mn397 2.117 . S
O423 C400 1.264 . S
C424 C417 1.403 . S
C424 C425 1.445 . S
C424 H430 0.929 . S
C425 C405 1.458 . S
C425 C424 1.445 . S
C425 H431 0.876 1_565 S
H426 C406 0.931 . S
H427 C407 0.928 1_545 S
H428 C415 0.931 . S
H429 C416 0.929 . S
H430 C424 0.929 . S
H431 C425 0.876 1_545 S
Mn432 O437 2.095 . S
Mn432 O447 2.162 . S
Mn432 O448 2.297 . S
Mn432 O456 2.385 . S
Mn432 O457 2.209 . S
Mn432 O458 2.094 1_554 S
Mn433 O438 2.137 . S
Mn433 N440 2.257 . S
Mn433 N449 2.282 . S
Mn433 O457 2.215 1_556 S
Mn433 O459 2.117 . S
C434 O456 1.234 . S
C434 O457 1.283 . S
C435 O447 1.281 . S
C435 O448 1.236 . S
C436 O458 1.240 . S
C436 O459 1.264 . S
O437 Mn432 2.095 . S
O437 C446 1.250 . S
O438 Mn433 2.137 . S
O438 C446 1.243 1_556 S
C439 N440 1.322 1_554 S
C439 C443 1.460 . S
C439 H445 0.934 . S
N440 Mn433 2.257 . S
N440 C439 1.322 1_556 S
N440 C444 1.362 . S
C441 C442 1.258 . S
C441 C444 1.431 . S
C441 C461 1.449 . S
C442 C441 1.258 . S
C442 C443 1.477 1_556 S
C442 H462 0.931 . S
C443 C439 1.460 . S
C443 C442 1.477 1_554 S
C443 H463 0.930 . S
C444 N440 1.362 . S
C444 C441 1.431 . S
C444 C454 1.476 . S
H445 C439 0.934 . S
C446 O437 1.250 . S
C446 O438 1.243 1_554 S
O447 Mn432 2.162 . S
O447 C435 1.281 . S
O448 Mn432 2.297 . S
O448 C435 1.236 . S
N449 Mn433 2.282 . S
N449 C450 1.328 . S
N449 C454 1.318 . S
C450 N449 1.328 . S
C450 C451 1.457 . S
C450 H455 0.929 . S
C451 C450 1.457 . S
C451 C452 1.291 . S
C451 H464 0.931 . S
C452 C451 1.291 . S
C452 C453 1.373 . S
C452 H465 0.929 . S
C453 C452 1.373 . S
C453 C454 1.396 . S
C453 C460 1.403 . S
C454 C444 1.476 . S
C454 N449 1.318 . S
C454 C453 1.396 . S
H455 C450 0.929 . S
O456 Mn432 2.385 . S
O456 C434 1.234 . S
O457 Mn432 2.209 . S
O457 Mn433 2.215 1_554 S
O457 C434 1.283 . S
O458 Mn432 2.094 1_556 S
O458 C436 1.240 . S
O459 Mn433 2.117 . S
O459 C436 1.264 . S
C460 C453 1.403 . S
C460 C461 1.399 . S
C460 H466 0.929 . S
C461 C441 1.449 . S
C461 C460 1.399 . S
C461 H467 0.930 . S
H462 C442 0.931 . S
H463 C443 0.930 . S
H464 C451 0.931 . S
H465 C452 0.929 . S
H466 C460 0.929 . S
H467 C461 0.930 . S
Mn468 O473 2.095 1_554 S
Mn468 O483 2.162 . S
Mn468 O484 2.297 . S
Mn468 O492 2.385 . S
Mn468 O493 2.209 1_554 S
Mn468 O494 2.094 1_554 S
Mn469 O474 2.121 . S
Mn469 N476 2.257 . S
Mn469 N485 2.282 . S
Mn469 O493 2.215 . S
Mn469 O495 2.117 . S
C470 O492 1.234 1_556 S
C470 O493 1.283 . S
C471 O483 1.281 . S
C471 O484 1.236 . S
C472 O494 1.240 . S
C472 O495 1.264 . S
O473 Mn468 2.095 1_556 S
O473 C482 1.250 . S
O474 Mn469 2.121 . S
O474 C482 1.258 . S
C475 N476 1.326 . S
C475 C479 1.460 . S
C475 H481 0.929 . S
N476 Mn469 2.257 . S
N476 C475 1.326 . S
N476 C480 1.362 . S
C477 C478 1.258 . S
C477 C480 1.431 . S
C477 C497 1.449 . S
C478 C477 1.258 . S
C478 C479 1.477 . S
C478 H498 0.931 . S
C479 C475 1.460 . S
C479 C478 1.477 . S
C479 H499 0.930 . S
C480 N476 1.362 . S
C480 C477 1.431 . S
C480 C490 1.476 . S
H481 C475 0.929 . S
C482 O473 1.250 . S
C482 O474 1.258 . S
O483 Mn468 2.162 . S
O483 C471 1.281 . S
O484 Mn468 2.297 . S
O484 C471 1.236 . S
N485 Mn469 2.282 . S
N485 C486 1.328 . S
N485 C490 1.318 . S
C486 N485 1.328 . S
C486 C487 1.457 . S
C486 H491 0.929 . S
C487 C486 1.457 . S
C487 C488 1.291 . S
C487 H500 0.931 . S
C488 C487 1.291 . S
C488 C489 1.373 . S
C488 H501 0.929 . S
C489 C488 1.373 . S
C489 C490 1.396 . S
C489 C496 1.403 . S
C490 C480 1.476 . S
C490 N485 1.318 . S
C490 C489 1.396 . S
H491 C486 0.929 . S
O492 Mn468 2.385 . S
O492 C470 1.234 1_554 S
O493 Mn468 2.209 1_556 S
O493 Mn469 2.215 . S
O493 C470 1.283 . S
O494 Mn468 2.094 1_556 S
O494 C472 1.240 . S
O495 Mn469 2.117 . S
O495 C472 1.264 . S
C496 C489 1.403 . S
C496 C497 1.399 . S
C496 H502 0.929 . S
C497 C477 1.449 . S
C497 C496 1.399 . S
C497 H503 0.930 . S
H498 C478 0.931 . S
H499 C479 0.930 . S
H500 C487 0.931 . S
H501 C488 0.929 . S
H502 C496 0.929 . S
H503 C497 0.930 . S
Mn504 O509 2.095 . S
Mn504 O519 2.162 . S
Mn504 O520 2.297 . S
Mn504 O528 2.385 . S
Mn504 O529 2.209 . S
Mn504 O530 2.094 . S
Mn505 O510 2.121 . S
Mn505 N512 2.257 . S
Mn505 N521 2.282 . S
Mn505 O529 2.215 . S
Mn505 O531 2.117 . S
C506 O528 1.234 . S
C506 O529 1.283 . S
C507 O519 1.281 . S
C507 O520 1.236 . S
C508 O530 1.240 . S
C508 O531 1.264 . S
O509 Mn504 2.095 . S
O509 C518 1.250 . S
O510 Mn505 2.121 . S
O510 C518 1.258 . S
C511 N512 1.326 . S
C511 C515 1.460 . S
C511 H517 0.929 . S
N512 Mn505 2.257 . S
N512 C511 1.326 . S
N512 C516 1.362 . S
C513 C514 1.258 . S
C513 C516 1.431 . S
C513 C533 1.449 . S
C514 C513 1.258 . S
C514 C515 1.477 . S
C514 H534 0.931 . S
C515 C511 1.460 . S
C515 C514 1.477 . S
C515 H535 0.930 . S
C516 N512 1.362 . S
C516 C513 1.431 . S
C516 C526 1.476 . S
H517 C511 0.929 . S
C518 O509 1.250 . S
C518 O510 1.258 . S
O519 Mn504 2.162 . S
O519 C507 1.281 . S
O520 Mn504 2.297 . S
O520 C507 1.236 . S
N521 Mn505 2.282 . S
N521 C522 1.328 . S
N521 C526 1.318 . S
C522 N521 1.328 . S
C522 C523 1.457 . S
C522 H527 0.929 . S
C523 C522 1.457 . S
C523 C524 1.291 . S
C523 H536 0.931 . S
C524 C523 1.291 . S
C524 C525 1.373 . S
C524 H537 0.929 . S
C525 C524 1.373 . S
C525 C526 1.396 . S
C525 C532 1.403 . S
C526 C516 1.476 . S
C526 N521 1.318 . S
C526 C525 1.396 . S
H527 C522 0.929 . S
O528 Mn504 2.385 . S
O528 C506 1.234 . S
O529 Mn504 2.209 . S
O529 Mn505 2.215 . S
O529 C506 1.283 . S
O530 Mn504 2.094 . S
O530 C508 1.240 . S
O531 Mn505 2.117 . S
O531 C508 1.264 . S
C532 C525 1.403 . S
C532 C533 1.399 . S
C532 H538 0.929 . S
C533 C513 1.449 . S
C533 C532 1.399 . S
C533 H539 0.930 . S
H534 C514 0.931 . S
H535 C515 0.930 . S
H536 C523 0.931 . S
H537 C524 0.929 . S
H538 C532 0.929 . S
H539 C533 0.930 . S
Mn540 O545 2.095 . S
Mn540 O555 2.162 . S
Mn540 O556 2.297 . S
Mn540 O564 2.385 . S
Mn540 O565 2.209 . S
Mn540 O566 2.094 . S
Mn541 O546 2.121 . S
Mn541 N548 2.257 . S
Mn541 N557 2.282 . S
Mn541 O565 2.215 . S
Mn541 O567 2.117 . S
C542 O564 1.234 . S
C542 O565 1.283 . S
C543 O555 1.281 . S
C543 O556 1.236 . S
C544 O566 1.240 . S
C544 O567 1.264 . S
O545 Mn540 2.095 . S
O545 C554 1.250 . S
O546 Mn541 2.121 . S
O546 C554 1.258 . S
C547 N548 1.326 . S
C547 C551 1.460 . S
C547 H553 0.929 . S
N548 Mn541 2.257 . S
N548 C547 1.326 . S
N548 C552 1.362 . S
C549 C550 1.258 . S
C549 C552 1.431 . S
C549 C569 1.449 . S
C550 C549 1.258 . S
C550 C551 1.477 . S
C550 H570 0.931 . S
C551 C547 1.460 . S
C551 C550 1.477 . S
C551 H571 0.930 . S
C552 N548 1.362 . S
C552 C549 1.431 . S
C552 C562 1.476 . S
H553 C547 0.929 . S
C554 O545 1.250 . S
C554 O546 1.258 . S
O555 Mn540 2.162 . S
O555 C543 1.281 . S
O556 Mn540 2.297 . S
O556 C543 1.236 . S
N557 Mn541 2.282 . S
N557 C558 1.328 . S
N557 C562 1.318 . S
C558 N557 1.328 . S
C558 C559 1.457 . S
C558 H563 0.929 . S
C559 C558 1.457 . S
C559 C560 1.291 . S
C559 H572 0.931 . S
C560 C559 1.291 . S
C560 C561 1.373 . S
C560 H573 0.929 . S
C561 C560 1.373 . S
C561 C562 1.396 . S
C561 C568 1.403 . S
C562 C552 1.476 . S
C562 N557 1.318 . S
C562 C561 1.396 . S
H563 C558 0.929 . S
O564 Mn540 2.385 . S
O564 C542 1.234 . S
O565 Mn540 2.209 . S
O565 Mn541 2.215 . S
O565 C542 1.283 . S
O566 Mn540 2.094 . S
O566 C544 1.240 . S
O567 Mn541 2.117 . S
O567 C544 1.264 . S
C568 C561 1.403 . S
C568 C569 1.399 . S
C568 H574 0.929 . S
C569 C549 1.449 . S
C569 C568 1.399 . S
C569 H575 0.930 . S
H570 C550 0.931 . S
H571 C551 0.930 . S
H572 C559 0.931 . S
H573 C560 0.929 . S
H574 C568 0.929 . S
H575 C569 0.930 . S
Mn576 O581 2.095 . S
Mn576 O591 2.162 . S
Mn576 O592 2.297 . S
Mn576 O600 2.385 . S
Mn576 O601 2.209 . S
Mn576 O602 2.094 . S
Mn577 O582 2.121 . S
Mn577 N584 2.257 . S
Mn577 N593 2.282 . S
Mn577 O601 2.215 . S
Mn577 O603 2.117 . S
C578 O600 1.234 . S
C578 O601 1.283 . S
C579 O591 1.281 . S
C579 O592 1.236 . S
C580 O602 1.240 . S
C580 O603 1.264 . S
O581 Mn576 2.095 . S
O581 C590 1.250 . S
O582 Mn577 2.121 . S
O582 C590 1.258 . S
C583 N584 1.326 . S
C583 C587 1.460 . S
C583 H589 0.929 . S
N584 Mn577 2.257 . S
N584 C583 1.326 . S
N584 C588 1.362 . S
C585 C586 1.258 . S
C585 C588 1.431 . S
C585 C605 1.449 1_545 S
C586 C585 1.258 . S
C586 C587 1.477 . S
C586 H606 0.931 . S
C587 C583 1.460 . S
C587 C586 1.477 . S
C587 H607 0.930 . S
C588 N584 1.362 . S
C588 C585 1.431 . S
C588 C598 1.476 . S
H589 C583 0.929 . S
C590 O581 1.250 . S
C590 O582 1.258 . S
O591 Mn576 2.162 . S
O591 C579 1.281 . S
O592 Mn576 2.297 . S
O592 C579 1.236 . S
N593 Mn577 2.282 . S
N593 C594 1.328 . S
N593 C598 1.318 . S
C594 N593 1.328 . S
C594 C595 1.457 1_545 S
C594 H599 0.929 . S
C595 C594 1.457 1_565 S
C595 C596 1.291 . S
C595 H608 0.931 . S
C596 C595 1.291 . S
C596 C597 1.373 . S
C596 H609 0.929 . S
C597 C596 1.373 . S
C597 C598 1.396 1_565 S
C597 C604 1.403 . S
C598 C588 1.476 . S
C598 N593 1.318 . S
C598 C597 1.396 1_545 S
H599 C594 0.929 . S
O600 Mn576 2.385 . S
O600 C578 1.234 . S
O601 Mn576 2.209 . S
O601 Mn577 2.215 . S
O601 C578 1.283 . S
O602 Mn576 2.094 . S
O602 C580 1.240 . S
O603 Mn577 2.117 . S
O603 C580 1.264 . S
C604 C597 1.403 . S
C604 C605 1.399 . S
C604 H610 0.929 . S
C605 C585 1.449 1_565 S
C605 C604 1.399 . S
C605 H611 0.930 . S
H606 C586 0.931 . S
H607 C587 0.930 . S
H608 C595 0.931 . S
H609 C596 0.929 . S
H610 C604 0.929 . S
H611 C605 0.930 . S
Mn612 O617 2.095 . S
Mn612 O627 2.162 . S
Mn612 O628 2.297 . S
Mn612 O636 2.385 . S
Mn612 O637 2.209 . S
Mn612 O638 2.094 . S
Mn613 O618 2.121 . S
Mn613 N620 2.257 . S
Mn613 N629 2.282 . S
Mn613 O637 2.215 . S
Mn613 O639 2.117 . S
C614 O636 1.234 . S
C614 O637 1.283 . S
C615 O627 1.281 . S
C615 O628 1.236 . S
C616 O638 1.240 . S
C616 O639 1.264 . S
O617 Mn612 2.095 . S
O617 C626 1.250 . S
O618 Mn613 2.121 . S
O618 C626 1.258 . S
C619 N620 1.326 . S
C619 C623 1.460 . S
C619 H625 0.929 . S
N620 Mn613 2.257 . S
N620 C619 1.326 . S
N620 C624 1.362 . S
C621 C622 1.258 . S
C621 C624 1.431 . S
C621 C641 1.449 . S
C622 C621 1.258 . S
C622 C623 1.477 . S
C622 H642 0.931 . S
C623 C619 1.460 . S
C623 C622 1.477 . S
C623 H643 0.930 . S
C624 N620 1.362 . S
C624 C621 1.431 . S
C624 C634 1.476 . S
H625 C619 0.929 . S
C626 O617 1.250 . S
C626 O618 1.258 . S
O627 Mn612 2.162 . S
O627 C615 1.281 . S
O628 Mn612 2.297 . S
O628 C615 1.236 . S
N629 Mn613 2.282 . S
N629 C630 1.328 . S
N629 C634 1.318 . S
C630 N629 1.328 . S
C630 C631 1.457 . S
C630 H635 0.929 . S
C631 C630 1.457 . S
C631 C632 1.291 . S
C631 H644 0.931 . S
C632 C631 1.291 . S
C632 C633 1.373 . S
C632 H645 0.929 . S
C633 C632 1.373 . S
C633 C634 1.396 . S
C633 C640 1.403 . S
C634 C624 1.476 . S
C634 N629 1.318 . S
C634 C633 1.396 . S
H635 C630 0.929 . S
O636 Mn612 2.385 . S
O636 C614 1.234 . S
O637 Mn612 2.209 . S
O637 Mn613 2.215 . S
O637 C614 1.283 . S
O638 Mn612 2.094 . S
O638 C616 1.240 . S
O639 Mn613 2.117 . S
O639 C616 1.264 . S
C640 C633 1.403 . S
C640 C641 1.399 . S
C640 H646 0.929 . S
C641 C621 1.449 . S
C641 C640 1.399 . S
C641 H647 0.930 . S
H642 C622 0.931 . S
H643 C623 0.930 . S
H644 C631 0.931 . S
H645 C632 0.929 . S
H646 C640 0.929 . S
H647 C641 0.930 . S
Mn648 O653 2.095 . S
Mn648 O663 2.162 . S
Mn648 O664 2.297 . S
Mn648 O672 2.385 . S
Mn648 O673 2.209 . S
Mn648 O674 2.094 . S
Mn649 O654 2.121 . S
Mn649 N656 2.257 . S
Mn649 N665 2.282 . S
Mn649 O673 2.215 . S
Mn649 O675 2.117 . S
C650 O672 1.234 . S
C650 O673 1.283 . S
C651 O663 1.281 . S
C651 O664 1.236 . S
C652 O674 1.240 . S
C652 O675 1.264 . S
O653 Mn648 2.095 . S
O653 C662 1.250 . S
O654 Mn649 2.121 . S
O654 C662 1.258 . S
C655 N656 1.326 . S
C655 C659 1.460 . S
C655 H661 0.929 . S
N656 Mn649 2.257 . S
N656 C655 1.326 . S
N656 C660 1.362 . S
C657 C658 1.258 . S
C657 C660 1.431 . S
C657 C677 1.449 . S
C658 C657 1.258 . S
C658 C659 1.477 . S
C658 H678 0.931 . S
C659 C655 1.460 . S
C659 C658 1.477 . S
C659 H679 0.930 . S
C660 N656 1.362 . S
C660 C657 1.431 . S
C660 C670 1.476 . S
H661 C655 0.929 . S
C662 O653 1.250 . S
C662 O654 1.258 . S
O663 Mn648 2.162 . S
O663 C651 1.281 . S
O664 Mn648 2.297 . S
O664 C651 1.236 . S
N665 Mn649 2.282 . S
N665 C666 1.328 . S
N665 C670 1.318 . S
C666 N665 1.328 . S
C666 C667 1.457 . S
C666 H671 0.929 . S
C667 C666 1.457 . S
C667 C668 1.291 . S
C667 H680 0.931 . S
C668 C667 1.291 . S
C668 C669 1.373 . S
C668 H681 0.929 . S
C669 C668 1.373 . S
C669 C670 1.396 . S
C669 C676 1.403 . S
C670 C660 1.476 . S
C670 N665 1.318 . S
C670 C669 1.396 . S
H671 C666 0.929 . S
O672 Mn648 2.385 . S
O672 C650 1.234 . S
O673 Mn648 2.209 . S
O673 Mn649 2.215 . S
O673 C650 1.283 . S
O674 Mn648 2.094 . S
O674 C652 1.240 . S
O675 Mn649 2.117 . S
O675 C652 1.264 . S
C676 C669 1.403 . S
C676 C677 1.399 . S
C676 H682 0.929 . S
C677 C657 1.449 . S
C677 C676 1.399 . S
C677 H683 0.930 . S
H678 C658 0.931 . S
H679 C659 0.930 . S
H680 C667 0.931 . S
H681 C668 0.929 . S
H682 C676 0.929 . S
H683 C677 0.930 . S
Mn684 O689 2.128 . S
Mn684 O699 2.162 . S
Mn684 O700 2.297 . S
Mn684 O708 2.385 . S
Mn684 O709 2.209 . S
Mn684 O710 2.094 . S
Mn685 O690 2.121 . S
Mn685 N692 2.257 . S
Mn685 N701 2.282 . S
Mn685 O709 2.215 . S
Mn685 O711 2.117 . S
C686 O708 1.234 . S
C686 O709 1.283 . S
C687 O699 1.281 . S
C687 O700 1.236 . S
C688 O710 1.240 . S
C688 O711 1.264 . S
O689 Mn684 2.128 . S
O689 C698 1.237 1_545 S
O690 Mn685 2.121 . S
O690 C698 1.258 1_545 S
C691 N692 1.326 . S
C691 C695 1.460 . S
C691 H697 0.929 . S
N692 Mn685 2.257 . S
N692 C691 1.326 . S
N692 C696 1.362 . S
C693 C694 1.258 . S
C693 C696 1.431 . S
C693 C713 1.449 . S
C694 C693 1.258 . S
C694 C695 1.477 . S
C694 H714 0.931 . S
C695 C691 1.460 . S
C695 C694 1.477 . S
C695 H715 0.930 . S
C696 N692 1.362 . S
C696 C693 1.431 . S
C696 C706 1.476 . S
H697 C691 0.929 . S
C698 O689 1.237 1_565 S
C698 O690 1.258 1_565 S
O699 Mn684 2.162 . S
O699 C687 1.281 . S
O700 Mn684 2.297 . S
O700 C687 1.236 . S
N701 Mn685 2.282 . S
N701 C702 1.328 . S
N701 C706 1.318 . S
C702 N701 1.328 . S
C702 C703 1.457 . S
C702 H707 0.929 . S
C703 C702 1.457 . S
C703 C704 1.291 . S
C703 H716 0.931 . S
C704 C703 1.291 . S
C704 C705 1.373 . S
C704 H717 0.929 . S
C705 C704 1.373 . S
C705 C706 1.396 . S
C705 C712 1.403 . S
C706 C696 1.476 . S
C706 N701 1.318 . S
C706 C705 1.396 . S
H707 C702 0.929 . S
O708 Mn684 2.385 . S
O708 C686 1.234 . S
O709 Mn684 2.209 . S
O709 Mn685 2.215 . S
O709 C686 1.283 . S
O710 Mn684 2.094 . S
O710 C688 1.240 . S
O711 Mn685 2.117 . S
O711 C688 1.264 . S
C712 C705 1.403 . S
C712 C713 1.399 . S
C712 H718 0.929 . S
C713 C693 1.449 . S
C713 C712 1.399 . S
C713 H719 0.930 . S
H714 C694 0.931 . S
H715 C695 0.930 . S
H716 C703 0.931 . S
H717 C704 0.929 . S
H718 C712 0.929 . S
H719 C713 0.930 . S
Mn720 O725 2.095 . S
Mn720 O735 2.162 . S
Mn720 O736 2.297 . S
Mn720 O744 2.385 . S
Mn720 O745 2.209 . S
Mn720 O746 2.094 1_554 S
Mn721 O726 2.121 . S
Mn721 N728 2.257 . S
Mn721 N737 2.282 . S
Mn721 O745 2.215 1_556 S
Mn721 O747 2.117 . S
C722 O744 1.234 . S
C722 O745 1.283 . S
C723 O735 1.281 . S
C723 O736 1.236 . S
C724 O746 1.240 . S
C724 O747 1.264 . S
O725 Mn720 2.095 . S
O725 C734 1.250 . S
O726 Mn721 2.121 . S
O726 C734 1.258 1_556 S
C727 N728 1.326 . S
C727 C731 1.460 . S
C727 H733 0.929 . S
N728 Mn721 2.257 . S
N728 C727 1.326 . S
N728 C732 1.362 . S
C729 C730 1.258 . S
C729 C732 1.431 . S
C729 C749 1.449 . S
C730 C729 1.258 . S
C730 C731 1.477 . S
C730 H750 0.931 . S
C731 C727 1.460 . S
C731 C730 1.477 . S
C731 H751 0.930 . S
C732 N728 1.362 . S
C732 C729 1.431 . S
C732 C742 1.476 . S
H733 C727 0.929 . S
C734 O725 1.250 . S
C734 O726 1.258 1_554 S
O735 Mn720 2.162 . S
O735 C723 1.281 . S
O736 Mn720 2.297 . S
O736 C723 1.236 . S
N737 Mn721 2.282 . S
N737 C738 1.328 . S
N737 C742 1.318 . S
C738 N737 1.328 . S
C738 C739 1.457 . S
C738 H743 0.929 . S
C739 C738 1.457 . S
C739 C740 1.291 . S
C739 H752 0.931 . S
C740 C739 1.291 . S
C740 C741 1.373 . S
C740 H753 0.929 . S
C741 C740 1.373 . S
C741 C742 1.396 . S
C741 C748 1.403 . S
C742 C732 1.476 . S
C742 N737 1.318 . S
C742 C741 1.396 . S
H743 C738 0.929 . S
O744 Mn720 2.385 . S
O744 C722 1.234 . S
O745 Mn720 2.209 . S
O745 Mn721 2.215 1_554 S
O745 C722 1.283 . S
O746 Mn720 2.094 1_556 S
O746 C724 1.240 . S
O747 Mn721 2.117 . S
O747 C724 1.264 . S
C748 C741 1.403 . S
C748 C749 1.399 . S
C748 H754 0.929 . S
C749 C729 1.449 . S
C749 C748 1.399 . S
C749 H755 0.930 . S
H750 C730 0.931 . S
H751 C731 0.930 . S
H752 C739 0.931 . S
H753 C740 0.929 . S
H754 C748 0.929 . S
H755 C749 0.930 . S
Mn756 O761 2.095 . S
Mn756 O771 2.162 . S
Mn756 O772 2.297 . S
Mn756 O780 2.385 . S
Mn756 O781 2.209 . S
Mn756 O782 2.094 . S
Mn757 O762 2.121 . S
Mn757 N764 2.257 . S
Mn757 N773 2.282 . S
Mn757 O781 2.215 . S
Mn757 O783 2.117 . S
C758 O780 1.234 . S
C758 O781 1.283 . S
C759 O771 1.281 . S
C759 O772 1.236 . S
C760 O782 1.240 . S
C760 O783 1.264 . S
O761 Mn756 2.095 . S
O761 C770 1.250 . S
O762 Mn757 2.121 . S
O762 C770 1.258 . S
C763 N764 1.326 . S
C763 C767 1.460 . S
C763 H769 0.929 . S
N764 Mn757 2.257 . S
N764 C763 1.326 . S
N764 C768 1.362 . S
C765 C766 1.258 . S
C765 C768 1.431 . S
C765 C785 1.449 . S
C766 C765 1.258 . S
C766 C767 1.477 . S
C766 H786 0.931 . S
C767 C763 1.460 . S
C767 C766 1.477 . S
C767 H787 0.930 . S
C768 N764 1.362 . S
C768 C765 1.431 . S
C768 C778 1.476 . S
H769 C763 0.929 . S
C770 O761 1.250 . S
C770 O762 1.258 . S
O771 Mn756 2.162 . S
O771 C759 1.281 . S
O772 Mn756 2.297 . S
O772 C759 1.236 . S
N773 Mn757 2.282 . S
N773 C774 1.328 . S
N773 C778 1.318 . S
C774 N773 1.328 . S
C774 C775 1.457 . S
C774 H779 0.929 . S
C775 C774 1.457 . S
C775 C776 1.291 . S
C775 H788 0.931 . S
C776 C775 1.291 . S
C776 C777 1.373 . S
C776 H789 0.929 . S
C777 C776 1.373 . S
C777 C778 1.396 . S
C777 C784 1.403 . S
C778 C768 1.476 . S
C778 N773 1.318 . S
C778 C777 1.396 . S
H779 C774 0.929 . S
O780 Mn756 2.385 . S
O780 C758 1.234 . S
O781 Mn756 2.209 . S
O781 Mn757 2.215 . S
O781 C758 1.283 . S
O782 Mn756 2.094 . S
O782 C760 1.240 . S
O783 Mn757 2.117 . S
O783 C760 1.264 . S
C784 C777 1.403 . S
C784 C785 1.399 . S
C784 H790 0.929 . S
C785 C765 1.449 . S
C785 C784 1.399 . S
C785 H791 0.930 . S
H786 C766 0.931 . S
H787 C767 0.930 . S
H788 C775 0.931 . S
H789 C776 0.929 . S
H790 C784 0.929 . S
H791 C785 0.930 . S
Mn792 O797 2.095 . S
Mn792 O807 2.162 . S
Mn792 O808 2.297 . S
Mn792 O816 2.385 . S
Mn792 O817 2.209 . S
Mn792 O818 2.094 . S
Mn793 O798 2.121 . S
Mn793 N800 2.257 . S
Mn793 N809 2.282 . S
Mn793 O817 2.215 . S
Mn793 O819 2.117 . S
C794 O816 1.234 . S
C794 O817 1.283 . S
C795 O807 1.281 . S
C795 O808 1.236 . S
C796 O818 1.240 . S
C796 O819 1.264 . S
O797 Mn792 2.095 . S
O797 C806 1.250 . S
O798 Mn793 2.121 . S
O798 C806 1.258 . S
C799 N800 1.326 . S
C799 C803 1.460 . S
C799 H805 0.929 . S
N800 Mn793 2.257 . S
N800 C799 1.326 . S
N800 C804 1.362 . S
C801 C802 1.258 . S
C801 C804 1.431 . S
C801 C821 1.449 . S
C802 C801 1.258 . S
C802 C803 1.477 . S
C802 H822 0.931 . S
C803 C799 1.460 . S
C803 C802 1.477 . S
C803 H823 0.930 . S
C804 N800 1.362 . S
C804 C801 1.431 . S
C804 C814 1.476 . S
H805 C799 0.929 . S
C806 O797 1.250 . S
C806 O798 1.258 . S
O807 Mn792 2.162 . S
O807 C795 1.281 . S
O808 Mn792 2.297 . S
O808 C795 1.236 . S
N809 Mn793 2.282 . S
N809 C810 1.328 . S
N809 C814 1.318 . S
C810 N809 1.328 . S
C810 C811 1.457 . S
C810 H815 0.929 . S
C811 C810 1.457 . S
C811 C812 1.291 . S
C811 H824 0.931 . S
C812 C811 1.291 . S
C812 C813 1.373 . S
C812 H825 0.929 . S
C813 C812 1.373 . S
C813 C814 1.396 . S
C813 C820 1.403 . S
C814 C804 1.476 . S
C814 N809 1.318 . S
C814 C813 1.396 . S
H815 C810 0.929 . S
O816 Mn792 2.385 . S
O816 C794 1.234 . S
O817 Mn792 2.209 . S
O817 Mn793 2.215 . S
O817 C794 1.283 . S
O818 Mn792 2.094 . S
O818 C796 1.240 . S
O819 Mn793 2.117 . S
O819 C796 1.264 . S
C820 C813 1.403 . S
C820 C821 1.399 . S
C820 H826 0.929 . S
C821 C801 1.449 . S
C821 C820 1.399 . S
C821 H827 0.930 . S
H822 C802 0.931 . S
H823 C803 0.930 . S
H824 C811 0.931 . S
H825 C812 0.929 . S
H826 C820 0.929 . S
H827 C821 0.930 . S
Mn828 O833 2.095 . S
Mn828 O843 2.162 . S
Mn828 O844 2.297 . S
Mn828 O852 2.385 . S
Mn828 O853 2.209 . S
Mn828 O854 2.094 . S
Mn829 O834 2.121 . S
Mn829 N836 2.257 . S
Mn829 N845 2.282 . S
Mn829 O853 2.215 . S
Mn829 O855 2.117 . S
C830 O852 1.234 . S
C830 O853 1.283 . S
C831 O843 1.281 . S
C831 O844 1.236 . S
C832 O854 1.240 . S
C832 O855 1.264 . S
O833 Mn828 2.095 . S
O833 C842 1.250 . S
O834 Mn829 2.121 . S
O834 C842 1.258 . S
C835 N836 1.326 . S
C835 C839 1.460 . S
C835 H841 0.929 . S
N836 Mn829 2.257 . S
N836 C835 1.326 . S
N836 C840 1.362 . S
C837 C838 1.258 . S
C837 C840 1.431 . S
C837 C857 1.449 . S
C838 C837 1.258 . S
C838 C839 1.477 . S
C838 H858 0.931 . S
C839 C835 1.460 . S
C839 C838 1.477 . S
C839 H859 0.930 . S
C840 N836 1.362 . S
C840 C837 1.431 . S
C840 C850 1.476 . S
H841 C835 0.929 . S
C842 O833 1.250 . S
C842 O834 1.258 . S
O843 Mn828 2.162 . S
O843 C831 1.281 . S
O844 Mn828 2.297 . S
O844 C831 1.236 . S
N845 Mn829 2.282 . S
N845 C846 1.328 . S
N845 C850 1.318 . S
C846 N845 1.328 . S
C846 C847 1.457 . S
C846 H851 0.929 . S
C847 C846 1.457 . S
C847 C848 1.291 . S
C847 H860 0.931 . S
C848 C847 1.291 . S
C848 C849 1.373 . S
C848 H861 0.929 . S
C849 C848 1.373 . S
C849 C850 1.396 . S
C849 C856 1.403 . S
C850 C840 1.476 . S
C850 N845 1.318 . S
C850 C849 1.396 . S
H851 C846 0.929 . S
O852 Mn828 2.385 . S
O852 C830 1.234 . S
O853 Mn828 2.209 . S
O853 Mn829 2.215 . S
O853 C830 1.283 . S
O854 Mn828 2.094 . S
O854 C832 1.240 . S
O855 Mn829 2.117 . S
O855 C832 1.264 . S
C856 C849 1.403 . S
C856 C857 1.399 . S
C856 H862 0.929 . S
C857 C837 1.449 . S
C857 C856 1.399 . S
C857 H863 0.930 . S
H858 C838 0.931 . S
H859 C839 0.930 . S
H860 C847 0.931 . S
H861 C848 0.929 . S
H862 C856 0.929 . S
H863 C857 0.930 . S
Dy864 O868 2.405 . S
Dy864 O869 2.489 1_556 S
Dy864 O870 2.414 . S
Dy864 O871 2.667 1_655 S
Dy864 O875 2.330 . S
Dy864 O879 2.300 1_556 S
Dy864 O880 2.347 1_546 S
C865 O876 1.185 . S
C865 O877 1.355 . S
C866 O868 1.185 . S
C866 O869 1.355 1_556 S
Dy867 O871 2.310 1_554 S
Dy867 O874 2.351 . S
Dy867 O876 2.398 . S
Dy867 O877 2.491 . S
Dy867 O878 2.403 . S
Dy867 O879 2.664 1_455 S
Dy867 O881 2.326 1_545 S
O868 Dy864 2.405 . S
O868 C866 1.185 . S
O869 Dy864 2.489 1_554 S
O869 C866 1.355 1_554 S
O870 Dy864 2.414 . S
O870 C872 1.254 1_655 S
O871 Dy864 2.667 1_455 S
O871 Dy867 2.310 1_556 S
O871 C872 1.268 . S
C872 O870 1.254 1_455 S
C872 O871 1.268 . S
C873 O878 1.254 . S
C873 O879 1.268 1_455 S
O874 Dy867 2.351 . S
O874 C882 1.249 . S
O875 Dy864 2.330 . S
O875 C882 1.267 1_656 S
O876 C865 1.185 . S
O876 Dy867 2.398 . S
O877 C865 1.355 . S
O877 Dy867 2.491 . S
O878 Dy867 2.403 . S
O878 C873 1.254 . S
O879 Dy864 2.300 1_554 S
O879 Dy867 2.664 1_655 S
O879 C873 1.268 1_655 S
O880 Dy864 2.347 1_564 S
O880 C883 1.249 1_655 S
O881 Dy867 2.326 1_565 S
O881 C883 1.267 . S
C882 O874 1.249 . S
C882 O875 1.267 1_454 S
C883 O880 1.249 1_455 S
C883 O881 1.267 . S
Dy884 O888 2.398 . S
Dy884 O889 2.491 . S
Dy884 O890 2.403 . S
Dy884 O891 2.664 . S
Dy884 O895 2.326 . S
Dy884 O899 2.310 . S
Dy884 O900 2.351 . S
C885 O896 1.185 . S
C885 O897 1.355 . S
C886 O888 1.185 . S
C886 O889 1.355 . S
Dy887 O891 2.310 . S
Dy887 O894 2.351 . S
Dy887 O896 2.398 . S
Dy887 O897 2.491 . S
Dy887 O898 2.403 . S
Dy887 O899 2.664 . S
Dy887 O901 2.326 . S
O888 Dy884 2.398 . S
O888 C886 1.185 . S
O889 Dy884 2.491 . S
O889 C886 1.355 . S
O890 Dy884 2.403 . S
O890 C892 1.254 . S
O891 Dy884 2.664 . S
O891 Dy887 2.310 . S
O891 C892 1.268 . S
C892 O890 1.254 . S
C892 O891 1.268 . S
C893 O898 1.254 . S
C893 O899 1.268 . S
O894 Dy887 2.351 . S
O894 C902 1.249 . S
O895 Dy884 2.326 . S
O895 C902 1.267 . S
O896 C885 1.185 . S
O896 Dy887 2.398 . S
O897 C885 1.355 . S
O897 Dy887 2.491 . S
O898 Dy887 2.403 . S
O898 C893 1.254 . S
O899 Dy884 2.310 . S
O899 Dy887 2.664 . S
O899 C893 1.268 . S
O900 Dy884 2.351 . S
O900 C903 1.249 . S
O901 Dy887 2.326 . S
O901 C903 1.267 . S
C902 O894 1.249 . S
C902 O895 1.267 . S
C903 O900 1.249 . S
C903 O901 1.267 . S
Dy904 O908 2.398 . S
Dy904 O909 2.491 . S
Dy904 O910 2.403 . S
Dy904 O911 2.664 . S
Dy904 O915 2.326 . S
Dy904 O919 2.310 . S
Dy904 O920 2.351 . S
C905 O916 1.185 . S
C905 O917 1.355 . S
C906 O908 1.185 . S
C906 O909 1.355 . S
Dy907 O911 2.310 . S
Dy907 O914 2.351 1_545 S
Dy907 O916 2.398 . S
Dy907 O917 2.491 . S
Dy907 O918 2.403 . S
Dy907 O919 2.664 . S
Dy907 O921 2.326 . S
O908 Dy904 2.398 . S
O908 C906 1.185 . S
O909 Dy904 2.491 . S
O909 C906 1.355 . S
O910 Dy904 2.403 . S
O910 C912 1.254 . S
O911 Dy904 2.664 . S
O911 Dy907 2.310 . S
O911 C912 1.268 . S
C912 O910 1.254 . S
C912 O911 1.268 . S
C913 O918 1.254 . S
C913 O919 1.268 . S
O914 Dy907 2.351 1_565 S
O914 C922 1.249 . S
O915 Dy904 2.326 . S
O915 C922 1.267 1_545 S
O916 C905 1.185 . S
O916 Dy907 2.398 . S
O917 C905 1.355 . S
O917 Dy907 2.491 . S
O918 Dy907 2.403 . S
O918 C913 1.254 . S
O919 Dy904 2.310 . S
O919 Dy907 2.664 . S
O919 C913 1.268 . S
O920 Dy904 2.351 . S
O920 C923 1.249 . S
O921 Dy907 2.326 . S
O921 C923 1.267 . S
C922 O914 1.249 . S
C922 O915 1.267 1_565 S
C923 O920 1.249 . S
C923 O921 1.267 . S
Dy924 O928 2.398 . S
Dy924 O929 2.491 . S
Dy924 O930 2.403 . S
Dy924 O931 2.664 . S
Dy924 O935 2.326 . S
Dy924 O939 2.310 . S
Dy924 O940 2.351 . S
C925 O936 1.185 . S
C925 O937 1.355 . S
C926 O928 1.185 . S
C926 O929 1.355 . S
Dy927 O931 2.310 . S
Dy927 O934 2.351 . S
Dy927 O936 2.398 . S
Dy927 O937 2.491 . S
Dy927 O938 2.403 . S
Dy927 O939 2.664 . S
Dy927 O941 2.326 . S
O928 Dy924 2.398 . S
O928 C926 1.185 . S
O929 Dy924 2.491 . S
O929 C926 1.355 . S
O930 Dy924 2.403 . S
O930 C932 1.254 . S
O931 Dy924 2.664 . S
O931 Dy927 2.310 . S
O931 C932 1.268 . S
C932 O930 1.254 . S
C932 O931 1.268 . S
C933 O938 1.254 . S
C933 O939 1.268 . S
O934 Dy927 2.351 . S
O934 C942 1.249 . S
O935 Dy924 2.326 . S
O935 C942 1.267 . S
O936 C925 1.185 . S
O936 Dy927 2.398 . S
O937 C925 1.355 . S
O937 Dy927 2.491 . S
O938 Dy927 2.403 . S
O938 C933 1.254 . S
O939 Dy924 2.310 . S
O939 Dy927 2.664 . S
O939 C933 1.268 . S
O940 Dy924 2.351 . S
O940 C943 1.249 . S
O941 Dy927 2.326 . S
O941 C943 1.267 . S
C942 O934 1.249 . S
C942 O935 1.267 . S
C943 O940 1.249 . S
C943 O941 1.267 . S
Dy944 O948 2.398 . S
Dy944 O949 2.491 1_455 S
Dy944 O950 2.403 . S
Dy944 O951 2.664 . S
Dy944 O955 2.326 . S
Dy944 O959 2.310 1_455 S
Dy944 O960 2.351 1_545 S
C945 O956 1.185 . S
C945 O957 1.355 . S
C946 O948 1.185 1_655 S
C946 O949 1.355 . S
Dy947 O951 2.310 . S
Dy947 O954 2.351 . S
Dy947 O956 2.398 . S
Dy947 O957 2.491 . S
Dy947 O958 2.403 1_455 S
Dy947 O959 2.664 1_455 S
Dy947 O961 2.326 . S
O948 Dy944 2.398 . S
O948 C946 1.185 1_455 S
O949 Dy944 2.491 1_655 S
O949 C946 1.355 . S
O950 Dy944 2.403 . S
O950 C952 1.254 . S
O951 Dy944 2.664 . S
O951 Dy947 2.310 . S
O951 C952 1.268 . S
C952 O950 1.254 . S
C952 O951 1.268 . S
C953 O958 1.254 . S
C953 O959 1.268 . S
O954 Dy947 2.351 . S
O954 C962 1.249 . S
O955 Dy944 2.326 . S
O955 C962 1.267 . S
O956 C945 1.185 . S
O956 Dy947 2.398 . S
O957 C945 1.355 . S
O957 Dy947 2.491 . S
O958 Dy947 2.403 1_655 S
O958 C953 1.254 . S
O959 Dy944 2.310 1_655 S
O959 Dy947 2.664 1_655 S
O959 C953 1.268 . S
O960 Dy944 2.351 1_565 S
O960 C963 1.249 . S
O961 Dy947 2.326 . S
O961 C963 1.267 1_545 S
C962 O954 1.249 . S
C962 O955 1.267 . S
C963 O960 1.249 . S
C963 O961 1.267 1_565 S
Dy964 O968 2.398 . S
Dy964 O969 2.491 . S
Dy964 O970 2.403 . S
Dy964 O971 2.664 . S
Dy964 O975 2.326 . S
Dy964 O979 2.310 . S
Dy964 O980 2.351 . S
C965 O976 1.185 . S
C965 O977 1.355 . S
C966 O968 1.185 . S
C966 O969 1.355 . S
Dy967 O971 2.310 . S
Dy967 O974 2.351 . S
Dy967 O976 2.398 . S
Dy967 O977 2.491 . S
Dy967 O978 2.403 . S
Dy967 O979 2.664 . S
Dy967 O981 2.326 . S
O968 Dy964 2.398 . S
O968 C966 1.185 . S
O969 Dy964 2.491 . S
O969 C966 1.355 . S
O970 Dy964 2.403 . S
O970 C972 1.254 . S
O971 Dy964 2.664 . S
O971 Dy967 2.310 . S
O971 C972 1.268 . S
C972 O970 1.254 . S
C972 O971 1.268 . S
C973 O978 1.254 . S
C973 O979 1.268 . S
O974 Dy967 2.351 . S
O974 C982 1.249 . S
O975 Dy964 2.326 . S
O975 C982 1.267 . S
O976 C965 1.185 . S
O976 Dy967 2.398 . S
O977 C965 1.355 . S
O977 Dy967 2.491 . S
O978 Dy967 2.403 . S
O978 C973 1.254 . S
O979 Dy964 2.310 . S
O979 Dy967 2.664 . S
O979 C973 1.268 . S
O980 Dy964 2.351 . S
O980 C983 1.249 . S
O981 Dy967 2.326 . S
O981 C983 1.267 . S
C982 O974 1.249 . S
C982 O975 1.267 . S
C983 O980 1.249 . S
C983 O981 1.267 . S
Dy984 O988 2.398 . S
Dy984 O989 2.491 . S
Dy984 O990 2.403 1_545 S
Dy984 O991 2.664 . S
Dy984 O995 2.326 . S
Dy984 O999 2.310 . S
Dy984 O1000 2.351 . S
C985 O996 1.185 . S
C985 O997 1.355 . S
C986 O988 1.185 . S
C986 O989 1.355 . S
Dy987 O991 2.310 1_556 S
Dy987 O994 2.351 . S
Dy987 O996 2.398 . S
Dy987 O997 2.491 . S
Dy987 O998 2.384 1_556 S
Dy987 O999 2.664 1_556 S
Dy987 O1001 2.346 . S
O988 Dy984 2.398 . S
O988 C986 1.185 . S
O989 Dy984 2.491 . S
O989 C986 1.355 . S
O990 Dy984 2.403 1_565 S
O990 C992 1.254 . S
O991 Dy984 2.664 . S
O991 Dy987 2.310 1_554 S
O991 C992 1.268 1_545 S
C992 O990 1.254 . S
C992 O991 1.268 1_565 S
C993 O998 1.308 . S
C993 O999 1.268 . S
O994 Dy987 2.351 . S
O994 C1002 1.249 1_556 S
O995 Dy984 2.326 . S
O995 C1002 1.267 . S
O996 C985 1.185 . S
O996 Dy987 2.398 . S
O997 C985 1.355 . S
O997 Dy987 2.491 . S
O998 Dy987 2.384 1_554 S
O998 C993 1.308 . S
O999 Dy984 2.310 . S
O999 Dy987 2.664 1_554 S
O999 C993 1.268 . S
O1000 Dy984 2.351 . S
O1000 C1003 1.249 . S
O1001 Dy987 2.346 . S
O1001 C1003 1.228 1_556 S
C1002 O994 1.249 1_554 S
C1002 O995 1.267 . S
C1003 O1000 1.249 . S
C1003 O1001 1.228 1_554 S
Dy1004 O1008 2.398 . S
Dy1004 O1009 2.491 . S
Dy1004 O1010 2.403 . S
Dy1004 O1011 2.664 . S
Dy1004 O1015 2.326 . S
Dy1004 O1019 2.310 . S
Dy1004 O1020 2.351 . S
C1005 O1016 1.185 . S
C1005 O1017 1.355 . S
C1006 O1008 1.185 . S
C1006 O1009 1.355 . S
Dy1007 O1011 2.310 . S
Dy1007 O1014 2.351 . S
Dy1007 O1016 2.398 . S
Dy1007 O1017 2.491 . S
Dy1007 O1018 2.403 . S
Dy1007 O1019 2.664 . S
Dy1007 O1021 2.326 . S
O1008 Dy1004 2.398 . S
O1008 C1006 1.185 . S
O1009 Dy1004 2.491 . S
O1009 C1006 1.355 . S
O1010 Dy1004 2.403 . S
O1010 C1012 1.254 . S
O1011 Dy1004 2.664 . S
O1011 Dy1007 2.310 . S
O1011 C1012 1.268 . S
C1012 O1010 1.254 . S
C1012 O1011 1.268 . S
C1013 O1018 1.254 . S
C1013 O1019 1.268 . S
O1014 Dy1007 2.351 . S
O1014 C1022 1.249 . S
O1015 Dy1004 2.326 . S
O1015 C1022 1.267 . S
O1016 C1005 1.185 . S
O1016 Dy1007 2.398 . S
O1017 C1005 1.355 . S
O1017 Dy1007 2.491 . S
O1018 Dy1007 2.403 . S
O1018 C1013 1.254 . S
O1019 Dy1004 2.310 . S
O1019 Dy1007 2.664 . S
O1019 C1013 1.268 . S
O1020 Dy1004 2.351 . S
O1020 C1023 1.249 . S
O1021 Dy1007 2.326 . S
O1021 C1023 1.267 . S
C1022 O1014 1.249 . S
C1022 O1015 1.267 . S
C1023 O1020 1.249 . S
C1023 O1021 1.267 . S
Dy1024 O1028 2.398 . S
Dy1024 O1029 2.491 . S
Dy1024 O1030 2.403 . S
Dy1024 O1031 2.664 1_556 S
Dy1024 O1035 2.326 . S
Dy1024 O1039 2.310 1_556 S
Dy1024 O1040 2.351 1_556 S
C1025 O1036 1.185 . S
C1025 O1037 1.355 . S
C1026 O1028 1.185 . S
C1026 O1029 1.355 . S
Dy1027 O1031 2.310 . S
Dy1027 O1034 2.351 . S
Dy1027 O1036 2.398 . S
Dy1027 O1037 2.491 . S
Dy1027 O1038 2.403 . S
Dy1027 O1039 2.664 . S
Dy1027 O1041 2.326 . S
O1028 Dy1024 2.398 . S
O1028 C1026 1.185 . S
O1029 Dy1024 2.491 . S
O1029 C1026 1.355 . S
O1030 Dy1024 2.403 . S
O1030 C1032 1.254 1_556 S
O1031 Dy1024 2.664 1_554 S
O1031 Dy1027 2.310 . S
O1031 C1032 1.268 . S
C1032 O1030 1.254 1_554 S
C1032 O1031 1.268 . S
C1033 O1038 1.254 . S
C1033 O1039 1.268 . S
O1034 Dy1027 2.351 . S
O1034 C1042 1.207 1_554 S
O1035 Dy1024 2.326 . S
O1035 C1042 1.293 . S
O1036 C1025 1.185 . S
O1036 Dy1027 2.398 . S
O1037 C1025 1.355 . S
O1037 Dy1027 2.491 . S
O1038 Dy1027 2.403 . S
O1038 C1033 1.254 . S
O1039 Dy1024 2.310 1_554 S
O1039 Dy1027 2.664 . S
O1039 C1033 1.268 . S
O1040 Dy1024 2.351 1_554 S
O1040 C1043 1.249 . S
O1041 Dy1027 2.326 . S
O1041 C1043 1.267 . S
C1042 O1034 1.207 1_556 S
C1042 O1035 1.293 . S
C1043 O1040 1.249 . S
C1043 O1041 1.267 . S
Dy1044 O1048 2.398 . S
Dy1044 O1049 2.491 . S
Dy1044 O1050 2.403 . S
Dy1044 O1051 2.664 . S
Dy1044 O1055 2.326 . S
Dy1044 O1059 2.310 . S
Dy1044 O1060 2.351 . S
C1045 O1056 1.185 . S
C1045 O1057 1.355 . S
C1046 O1048 1.185 . S
C1046 O1049 1.355 . S
Dy1047 O1051 2.310 . S
Dy1047 O1054 2.351 . S
Dy1047 O1056 2.398 . S
Dy1047 O1057 2.491 . S
Dy1047 O1058 2.403 . S
Dy1047 O1059 2.664 . S
Dy1047 O1061 2.326 . S
O1048 Dy1044 2.398 . S
O1048 C1046 1.185 . S
O1049 Dy1044 2.491 . S
O1049 C1046 1.355 . S
O1050 Dy1044 2.403 . S
O1050 C1052 1.254 . S
O1051 Dy1044 2.664 . S
O1051 Dy1047 2.310 . S
O1051 C1052 1.268 . S
C1052 O1050 1.254 . S
C1052 O1051 1.268 . S
C1053 O1058 1.254 . S
C1053 O1059 1.268 . S
O1054 Dy1047 2.351 . S
O1054 C1062 1.249 . S
O1055 Dy1044 2.326 . S
O1055 C1062 1.267 . S
O1056 C1045 1.185 . S
O1056 Dy1047 2.398 . S
O1057 C1045 1.355 . S
O1057 Dy1047 2.491 . S
O1058 Dy1047 2.403 . S
O1058 C1053 1.254 . S
O1059 Dy1044 2.310 . S
O1059 Dy1047 2.664 . S
O1059 C1053 1.268 . S
O1060 Dy1044 2.351 . S
O1060 C1063 1.249 . S
O1061 Dy1047 2.326 . S
O1061 C1063 1.267 . S
C1062 O1054 1.249 . S
C1062 O1055 1.267 . S
C1063 O1060 1.249 . S
C1063 O1061 1.267 . S
Dy1064 O1068 2.398 . S
Dy1064 O1069 2.491 1_455 S
Dy1064 O1070 2.403 . S
Dy1064 O1071 2.664 . S
Dy1064 O1075 2.326 1_455 S
Dy1064 O1079 2.310 . S
Dy1064 O1080 2.351 . S
C1065 O1076 1.185 . S
C1065 O1077 1.355 . S
C1066 O1068 1.185 1_655 S
C1066 O1069 1.355 . S
Dy1067 O1071 2.310 . S
Dy1067 O1074 2.351 1_455 S
Dy1067 O1076 2.398 . S
Dy1067 O1077 2.491 . S
Dy1067 O1078 2.403 . S
Dy1067 O1079 2.664 . S
Dy1067 O1081 2.326 . S
O1068 Dy1064 2.398 . S
O1068 C1066 1.185 1_455 S
O1069 Dy1064 2.491 1_655 S
O1069 C1066 1.355 . S
O1070 Dy1064 2.403 . S
O1070 C1072 1.254 . S
O1071 Dy1064 2.664 . S
O1071 Dy1067 2.310 . S
O1071 C1072 1.268 . S
C1072 O1070 1.254 . S
C1072 O1071 1.268 . S
C1073 O1078 1.254 . S
C1073 O1079 1.268 . S
O1074 Dy1067 2.351 1_655 S
O1074 C1082 1.249 . S
O1075 Dy1064 2.326 1_655 S
O1075 C1082 1.267 . S
O1076 C1065 1.185 . S
O1076 Dy1067 2.398 . S
O1077 C1065 1.355 . S
O1077 Dy1067 2.491 . S
O1078 Dy1067 2.403 . S
O1078 C1073 1.254 . S
O1079 Dy1064 2.310 . S
O1079 Dy1067 2.664 . S
O1079 C1073 1.268 . S
O1080 Dy1064 2.351 . S
O1080 C1083 1.249 . S
O1081 Dy1067 2.326 . S
O1081 C1083 1.267 . S
C1082 O1074 1.249 . S
C1082 O1075 1.267 . S
C1083 O1080 1.249 . S
C1083 O1081 1.267 . S
Dy1084 O1088 2.398 . S
Dy1084 O1089 2.491 . S
Dy1084 O1090 2.403 . S
Dy1084 O1091 2.664 . S
Dy1084 O1095 2.326 . S
Dy1084 O1099 2.310 . S
Dy1084 O1100 2.351 . S
C1085 O1096 1.185 . S
C1085 O1097 1.355 . S
C1086 O1088 1.185 . S
C1086 O1089 1.355 . S
Dy1087 O1091 2.310 . S
Dy1087 O1094 2.351 . S
Dy1087 O1096 2.398 . S
Dy1087 O1097 2.491 . S
Dy1087 O1098 2.403 . S
Dy1087 O1099 2.664 . S
Dy1087 O1101 2.326 . S
O1088 Dy1084 2.398 . S
O1088 C1086 1.185 . S
O1089 Dy1084 2.491 . S
O1089 C1086 1.355 . S
O1090 Dy1084 2.403 . S
O1090 C1092 1.254 . S
O1091 Dy1084 2.664 . S
O1091 Dy1087 2.310 . S
O1091 C1092 1.268 . S
C1092 O1090 1.254 . S
C1092 O1091 1.268 . S
C1093 O1098 1.254 . S
C1093 O1099 1.268 . S
O1094 Dy1087 2.351 . S
O1094 C1102 1.249 . S
O1095 Dy1084 2.326 . S
O1095 C1102 1.267 . S
O1096 C1085 1.185 . S
O1096 Dy1087 2.398 . S
O1097 C1085 1.355 . S
O1097 Dy1087 2.491 . S
O1098 Dy1087 2.403 . S
O1098 C1093 1.254 . S
O1099 Dy1084 2.310 . S
O1099 Dy1087 2.664 . S
O1099 C1093 1.268 . S
O1100 Dy1084 2.351 . S
O1100 C1103 1.249 . S
O1101 Dy1087 2.326 . S
O1101 C1103 1.267 . S
C1102 O1094 1.249 . S
C1102 O1095 1.267 . S
C1103 O1100 1.249 . S
C1103 O1101 1.267 . S
Dy1104 O1108 2.398 . S
Dy1104 O1109 2.491 . S
Dy1104 O1110 2.403 . S
Dy1104 O1111 2.664 . S
Dy1104 O1115 2.326 . S
Dy1104 O1119 2.310 . S
Dy1104 O1120 2.351 . S
C1105 O1116 1.185 . S
C1105 O1117 1.355 . S
C1106 O1108 1.185 . S
C1106 O1109 1.355 . S
Dy1107 O1111 2.310 . S
Dy1107 O1114 2.351 . S
Dy1107 O1116 2.398 . S
Dy1107 O1117 2.491 . S
Dy1107 O1118 2.403 . S
Dy1107 O1119 2.664 . S
Dy1107 O1121 2.326 . S
O1108 Dy1104 2.398 . S
O1108 C1106 1.185 . S
O1109 Dy1104 2.491 . S
O1109 C1106 1.355 . S
O1110 Dy1104 2.403 . S
O1110 C1112 1.254 . S
O1111 Dy1104 2.664 . S
O1111 Dy1107 2.310 . S
O1111 C1112 1.268 . S
C1112 O1110 1.254 . S
C1112 O1111 1.268 . S
C1113 O1118 1.254 . S
C1113 O1119 1.268 . S
O1114 Dy1107 2.351 . S
O1114 C1122 1.249 . S
O1115 Dy1104 2.326 . S
O1115 C1122 1.267 . S
O1116 C1105 1.185 . S
O1116 Dy1107 2.398 . S
O1117 C1105 1.355 . S
O1117 Dy1107 2.491 . S
O1118 Dy1107 2.403 . S
O1118 C1113 1.254 . S
O1119 Dy1104 2.310 . S
O1119 Dy1107 2.664 . S
O1119 C1113 1.268 . S
O1120 Dy1104 2.351 . S
O1120 C1123 1.249 . S
O1121 Dy1107 2.326 . S
O1121 C1123 1.267 . S
C1122 O1114 1.249 . S
C1122 O1115 1.267 . S
C1123 O1120 1.249 . S
C1123 O1121 1.267 . S
Dy1124 O1128 2.398 . S
Dy1124 O1129 2.491 . S
Dy1124 O1130 2.403 . S
Dy1124 O1131 2.664 . S
Dy1124 O1135 2.326 . S
Dy1124 O1139 2.310 . S
Dy1124 O1140 2.351 . S
C1125 O1136 1.185 . S
C1125 O1137 1.355 . S
C1126 O1128 1.185 . S
C1126 O1129 1.355 . S
Dy1127 O1131 2.310 . S
Dy1127 O1134 2.351 . S
Dy1127 O1136 2.398 . S
Dy1127 O1137 2.491 . S
Dy1127 O1138 2.403 . S
Dy1127 O1139 2.664 . S
Dy1127 O1141 2.326 . S
O1128 Dy1124 2.398 . S
O1128 C1126 1.185 . S
O1129 Dy1124 2.491 . S
O1129 C1126 1.355 . S
O1130 Dy1124 2.403 . S
O1130 C1132 1.254 . S
O1131 Dy1124 2.664 . S
O1131 Dy1127 2.310 . S
O1131 C1132 1.268 . S
C1132 O1130 1.254 . S
C1132 O1131 1.268 . S
C1133 O1138 1.254 . S
C1133 O1139 1.268 . S
O1134 Dy1127 2.351 . S
O1134 C1142 1.249 . S
O1135 Dy1124 2.326 . S
O1135 C1142 1.267 . S
O1136 C1125 1.185 . S
O1136 Dy1127 2.398 . S
O1137 C1125 1.355 . S
O1137 Dy1127 2.491 . S
O1138 Dy1127 2.403 . S
O1138 C1133 1.254 . S
O1139 Dy1124 2.310 . S
O1139 Dy1127 2.664 . S
O1139 C1133 1.268 . S
O1140 Dy1124 2.351 . S
O1140 C1143 1.249 . S
O1141 Dy1127 2.326 . S
O1141 C1143 1.267 . S
C1142 O1134 1.249 . S
C1142 O1135 1.267 . S
C1143 O1140 1.249 . S
C1143 O1141 1.267 . S
Dy1144 O1148 2.398 . S
Dy1144 O1149 2.491 . S
Dy1144 O1150 2.403 . S
Dy1144 O1151 2.664 . S
Dy1144 O1155 2.326 . S
Dy1144 O1159 2.310 . S
Dy1144 O1160 2.351 . S
C1145 O1156 1.185 . S
C1145 O1157 1.355 . S
C1146 O1148 1.185 . S
C1146 O1149 1.355 . S
Dy1147 O1151 2.310 . S
Dy1147 O1154 2.351 . S
Dy1147 O1156 2.398 . S
Dy1147 O1157 2.491 . S
Dy1147 O1158 2.403 . S
Dy1147 O1159 2.664 . S
Dy1147 O1161 2.326 . S
O1148 Dy1144 2.398 . S
O1148 C1146 1.185 . S
O1149 Dy1144 2.491 . S
O1149 C1146 1.355 . S
O1150 Dy1144 2.403 . S
O1150 C1152 1.254 . S
O1151 Dy1144 2.664 . S
O1151 Dy1147 2.310 . S
O1151 C1152 1.268 . S
C1152 O1150 1.254 . S
C1152 O1151 1.268 . S
C1153 O1158 1.254 . S
C1153 O1159 1.268 . S
O1154 Dy1147 2.351 . S
O1154 C1162 1.249 . S
O1155 Dy1144 2.326 . S
O1155 C1162 1.267 . S
O1156 C1145 1.185 . S
O1156 Dy1147 2.398 . S
O1157 C1145 1.355 . S
O1157 Dy1147 2.491 . S
O1158 Dy1147 2.403 . S
O1158 C1153 1.254 . S
O1159 Dy1144 2.310 . S
O1159 Dy1147 2.664 . S
O1159 C1153 1.268 . S
O1160 Dy1144 2.351 . S
O1160 C1163 1.249 . S
O1161 Dy1147 2.326 . S
O1161 C1163 1.267 . S
C1162 O1154 1.249 . S
C1162 O1155 1.267 . S
C1163 O1160 1.249 . S
C1163 O1161 1.267 . S
Dy1164 O1168 2.398 1_554 S
Dy1164 O1169 2.491 . S
Dy1164 O1170 2.403 1_554 S
Dy1164 O1171 2.664 1_554 S
Dy1164 O1175 2.326 1_554 S
Dy1164 O1179 2.310 . S
Dy1164 O1180 2.351 . S
C1165 O1176 1.185 . S
C1165 O1177 1.355 . S
C1166 O1168 1.185 . S
C1166 O1169 1.355 1_556 S
Dy1167 O1171 2.310 1_654 S
Dy1167 O1174 2.351 . S
Dy1167 O1176 2.398 . S
Dy1167 O1177 2.491 . S
Dy1167 O1178 2.403 . S
Dy1167 O1179 2.664 1_655 S
Dy1167 O1181 2.326 1_655 S
O1168 Dy1164 2.398 1_556 S
O1168 C1166 1.185 . S
O1169 Dy1164 2.491 . S
O1169 C1166 1.355 1_554 S
O1170 Dy1164 2.403 1_556 S
O1170 C1172 1.254 . S
O1171 Dy1164 2.664 1_556 S
O1171 Dy1167 2.310 1_456 S
O1171 C1172 1.268 . S
C1172 O1170 1.254 . S
C1172 O1171 1.268 . S
C1173 O1178 1.254 1_455 S
C1173 O1179 1.268 . S
O1174 Dy1167 2.351 . S
O1174 C1182 1.271 1_655 S
O1175 Dy1164 2.326 1_556 S
O1175 C1182 1.245 1_556 S
O1176 C1165 1.185 . S
O1176 Dy1167 2.398 . S
O1177 C1165 1.355 . S
O1177 Dy1167 2.491 . S
O1178 Dy1167 2.403 . S
O1178 C1173 1.254 1_655 S
O1179 Dy1164 2.310 . S
O1179 Dy1167 2.664 1_455 S
O1179 C1173 1.268 . S
O1180 Dy1164 2.351 . S
O1180 C1183 1.249 . S
O1181 Dy1167 2.326 1_455 S
O1181 C1183 1.267 . S
C1182 O1174 1.271 1_455 S
C1182 O1175 1.245 1_554 S
C1183 O1180 1.249 . S
C1183 O1181 1.267 . S
H1184 C1192 0.936 . S
H1185 C1194 0.930 . S
H1186 C1196 0.930 . S
H1187 C1199 0.929 . S
H1188 C1202 0.930 . S
H1189 C1204 0.960 . S
H1190 C1204 0.960 . S
H1191 C1204 0.960 . S
C1192 H1184 0.936 . S
C1192 C1193 1.364 1_455 S
C1192 C1194 1.393 . S
C1193 C1192 1.364 1_655 S
C1193 C1199 1.390 . S
C1194 H1185 0.930 . S
C1194 C1192 1.393 . S
C1194 C1195 1.371 . S
C1195 C1194 1.371 . S
C1195 C1196 1.401 1_455 S
C1195 C1200 1.489 . S
C1196 H1186 0.930 . S
C1196 C1195 1.401 1_655 S
C1196 C1199 1.386 . S
H1197 C1213 0.930 . S
H1198 C1214 0.931 1_554 S
C1199 H1187 0.929 . S
C1199 C1193 1.390 . S
C1199 C1196 1.386 . S
C1200 C1195 1.489 . S
C1200 C1202 1.395 . S
C1200 C1203 1.403 1_455 S
H1201 C1207 0.930 . S
C1202 H1188 0.930 . S
C1202 C1200 1.395 . S
C1202 C1205 1.403 . S
C1203 C1200 1.403 1_655 S
C1203 C1204 1.524 . S
C1203 C1207 1.400 . S
C1204 H1189 0.960 . S
C1204 H1190 0.960 . S
C1204 H1191 0.960 . S
C1204 C1203 1.524 . S
C1205 C1202 1.403 . S
C1205 C1206 1.392 . S
C1205 C1209 1.495 . S
C1206 C1205 1.392 . S
C1206 C1207 1.385 1_455 S
C1206 C1208 1.478 . S
C1207 H1201 0.930 . S
C1207 C1203 1.400 . S
C1207 C1206 1.385 1_655 S
C1208 C1206 1.478 . S
C1208 C1210 1.381 . S
C1208 C1214 1.383 . S
C1209 C1205 1.495 . S
C1209 H1215 0.959 . S
C1209 H1216 0.961 . S
C1209 H1217 0.960 . S
C1210 C1208 1.381 . S
C1210 C1211 1.394 . S
C1210 H1218 0.930 . S
C1211 C1210 1.394 . S
C1211 C1212 1.383 . S
C1211 H1219 0.929 . S
C1212 C1211 1.383 . S
C1212 C1213 1.377 1_556 S
C1213 H1197 0.930 . S
C1213 C1212 1.377 1_554 S
C1213 C1214 1.379 1_554 S
C1214 H1198 0.931 1_556 S
C1214 C1208 1.383 . S
C1214 C1213 1.379 1_556 S
H1215 C1209 0.959 . S
H1216 C1209 0.961 . S
H1217 C1209 0.960 . S
H1218 C1210 0.930 . S
H1219 C1211 0.929 . S
H1220 C1228 0.929 . S
H1221 C1230 0.930 . S
H1222 C1232 0.930 . S
H1223 C1235 0.929 . S
H1224 C1238 0.930 . S
H1225 C1240 0.960 . S
H1226 C1240 0.960 . S
H1227 C1240 0.960 . S
C1228 H1220 0.929 . S
C1228 C1229 1.377 . S
C1228 C1230 1.384 . S
C1229 C1228 1.377 . S
C1229 C1235 1.390 . S
C1230 H1221 0.930 . S
C1230 C1228 1.384 . S
C1230 C1231 1.372 . S
C1231 C1230 1.372 . S
C1231 C1232 1.400 . S
C1231 C1236 1.490 . S
C1232 H1222 0.930 . S
C1232 C1231 1.400 . S
C1232 C1235 1.386 . S
H1233 C1249 0.930 . S
H1234 C1250 0.931 . S
C1235 H1223 0.929 . S
C1235 C1229 1.390 . S
C1235 C1232 1.386 . S
C1236 C1231 1.490 . S
C1236 C1238 1.395 . S
C1236 C1239 1.403 . S
H1237 C1243 0.930 . S
C1238 H1224 0.930 . S
C1238 C1236 1.395 . S
C1238 C1241 1.403 . S
C1239 C1236 1.403 . S
C1239 C1240 1.524 . S
C1239 C1243 1.400 . S
C1240 H1225 0.960 . S
C1240 H1226 0.960 . S
C1240 H1227 0.960 . S
C1240 C1239 1.524 . S
C1241 C1238 1.403 . S
C1241 C1242 1.392 . S
C1241 C1245 1.495 . S
C1242 C1241 1.392 . S
C1242 C1243 1.385 . S
C1242 C1244 1.478 . S
C1243 H1237 0.930 . S
C1243 C1239 1.400 . S
C1243 C1242 1.385 . S
C1244 C1242 1.478 . S
C1244 C1246 1.381 . S
C1244 C1250 1.383 . S
C1245 C1241 1.495 . S
C1245 H1251 0.959 . S
C1245 H1252 0.961 . S
C1245 H1253 0.960 . S
C1246 C1244 1.381 . S
C1246 C1247 1.394 . S
C1246 H1254 0.930 . S
C1247 C1246 1.394 . S
C1247 C1248 1.383 . S
C1247 H1255 0.929 . S
C1248 C1247 1.383 . S
C1248 C1249 1.377 . S
C1249 H1233 0.930 . S
C1249 C1248 1.377 . S
C1249 C1250 1.379 . S
C1250 H1234 0.931 . S
C1250 C1244 1.383 . S
C1250 C1249 1.379 . S
H1251 C1245 0.959 . S
H1252 C1245 0.961 . S
H1253 C1245 0.960 . S
H1254 C1246 0.930 . S
H1255 C1247 0.929 . S
H1256 C1264 0.929 . S
H1257 C1266 0.930 . S
H1258 C1268 0.930 . S
H1259 C1271 0.929 . S
H1260 C1274 0.930 . S
H1261 C1276 0.960 . S
H1262 C1276 0.960 . S
H1263 C1276 0.960 . S
C1264 H1256 0.929 . S
C1264 C1265 1.377 . S
C1264 C1266 1.384 . S
C1265 C1264 1.377 . S
C1265 C1271 1.390 . S
C1266 H1257 0.930 . S
C1266 C1264 1.384 . S
C1266 C1267 1.372 . S
C1267 C1266 1.372 . S
C1267 C1268 1.400 . S
C1267 C1272 1.490 . S
C1268 H1258 0.930 . S
C1268 C1267 1.400 . S
C1268 C1271 1.386 . S
H1269 C1285 0.930 . S
H1270 C1286 0.931 . S
C1271 H1259 0.929 . S
C1271 C1265 1.390 . S
C1271 C1268 1.386 . S
C1272 C1267 1.490 . S
C1272 C1274 1.395 . S
C1272 C1275 1.403 . S
H1273 C1279 0.930 . S
C1274 H1260 0.930 . S
C1274 C1272 1.395 . S
C1274 C1277 1.403 . S
C1275 C1272 1.403 . S
C1275 C1276 1.524 . S
C1275 C1279 1.400 . S
C1276 H1261 0.960 . S
C1276 H1262 0.960 . S
C1276 H1263 0.960 . S
C1276 C1275 1.524 . S
C1277 C1274 1.403 . S
C1277 C1278 1.392 . S
C1277 C1281 1.495 . S
C1278 C1277 1.392 . S
C1278 C1279 1.385 . S
C1278 C1280 1.478 . S
C1279 H1273 0.930 . S
C1279 C1275 1.400 . S
C1279 C1278 1.385 . S
C1280 C1278 1.478 . S
C1280 C1282 1.381 . S
C1280 C1286 1.383 . S
C1281 C1277 1.495 . S
C1281 H1287 0.959 . S
C1281 H1288 0.961 . S
C1281 H1289 0.960 . S
C1282 C1280 1.381 . S
C1282 C1283 1.394 . S
C1282 H1290 0.930 . S
C1283 C1282 1.394 . S
C1283 C1284 1.383 . S
C1283 H1291 0.929 . S
C1284 C1283 1.383 . S
C1284 C1285 1.377 . S
C1285 H1269 0.930 . S
C1285 C1284 1.377 . S
C1285 C1286 1.379 . S
C1286 H1270 0.931 . S
C1286 C1280 1.383 . S
C1286 C1285 1.379 . S
H1287 C1281 0.959 . S
H1288 C1281 0.961 . S
H1289 C1281 0.960 . S
H1290 C1282 0.930 . S
H1291 C1283 0.929 . S
H1292 C1300 0.929 . S
H1293 C1302 0.930 . S
H1294 C1304 0.930 . S
H1295 C1307 0.929 . S
H1296 C1310 0.930 . S
H1297 C1312 0.960 . S
H1298 C1312 0.960 . S
H1299 C1312 0.960 . S
C1300 H1292 0.929 . S
C1300 C1301 1.377 . S
C1300 C1302 1.384 . S
C1301 C1300 1.377 . S
C1301 C1307 1.390 . S
C1302 H1293 0.930 . S
C1302 C1300 1.384 . S
C1302 C1303 1.372 . S
C1303 C1302 1.372 . S
C1303 C1304 1.400 . S
C1303 C1308 1.490 . S
C1304 H1294 0.930 . S
C1304 C1303 1.400 . S
C1304 C1307 1.386 . S
H1305 C1321 0.930 . S
H1306 C1322 0.931 . S
C1307 H1295 0.929 . S
C1307 C1301 1.390 . S
C1307 C1304 1.386 . S
C1308 C1303 1.490 . S
C1308 C1310 1.395 . S
C1308 C1311 1.403 . S
H1309 C1315 0.930 . S
C1310 H1296 0.930 . S
C1310 C1308 1.395 . S
C1310 C1313 1.403 . S
C1311 C1308 1.403 . S
C1311 C1312 1.524 . S
C1311 C1315 1.400 . S
C1312 H1297 0.960 . S
C1312 H1298 0.960 . S
C1312 H1299 0.960 . S
C1312 C1311 1.524 . S
C1313 C1310 1.403 . S
C1313 C1314 1.392 . S
C1313 C1317 1.495 . S
C1314 C1313 1.392 . S
C1314 C1315 1.385 . S
C1314 C1316 1.478 . S
C1315 H1309 0.930 . S
C1315 C1311 1.400 . S
C1315 C1314 1.385 . S
C1316 C1314 1.478 . S
C1316 C1318 1.381 . S
C1316 C1322 1.383 . S
C1317 C1313 1.495 . S
C1317 H1323 0.959 . S
C1317 H1324 0.961 . S
C1317 H1325 0.960 . S
C1318 C1316 1.381 . S
C1318 C1319 1.394 . S
C1318 H1326 0.930 . S
C1319 C1318 1.394 . S
C1319 C1320 1.383 . S
C1319 H1327 0.929 . S
C1320 C1319 1.383 . S
C1320 C1321 1.377 . S
C1321 H1305 0.930 . S
C1321 C1320 1.377 . S
C1321 C1322 1.379 . S
C1322 H1306 0.931 . S
C1322 C1316 1.383 . S
C1322 C1321 1.379 . S
H1323 C1317 0.959 . S
H1324 C1317 0.961 . S
H1325 C1317 0.960 . S
H1326 C1318 0.930 . S
H1327 C1319 0.929 . S
H1328 C1336 0.929 . S
H1329 C1338 0.930 . S
H1330 C1340 0.930 . S
H1331 C1343 0.929 . S
H1332 C1346 0.930 . S
H1333 C1348 0.960 . S
H1334 C1348 0.960 . S
H1335 C1348 0.960 . S
C1336 H1328 0.929 . S
C1336 C1337 1.377 . S
C1336 C1338 1.384 . S
C1337 C1336 1.377 . S
C1337 C1343 1.390 1_455 S
C1338 H1329 0.930 . S
C1338 C1336 1.384 . S
C1338 C1339 1.372 . S
C1339 C1338 1.372 . S
C1339 C1340 1.400 1_455 S
C1339 C1344 1.490 . S
C1340 H1330 0.930 . S
C1340 C1339 1.400 1_655 S
C1340 C1343 1.386 . S
H1341 C1357 0.930 1_655 S
H1342 C1358 0.931 1_655 S
C1343 H1331 0.929 . S
C1343 C1337 1.390 1_655 S
C1343 C1340 1.386 . S
C1344 C1339 1.490 . S
C1344 C1346 1.395 . S
C1344 C1347 1.403 . S
H1345 C1351 0.930 . S
C1346 H1332 0.930 . S
C1346 C1344 1.395 . S
C1346 C1349 1.403 . S
C1347 C1344 1.403 . S
C1347 C1348 1.524 . S
C1347 C1351 1.400 . S
C1348 H1333 0.960 . S
C1348 H1334 0.960 . S
C1348 H1335 0.960 . S
C1348 C1347 1.524 . S
C1349 C1346 1.403 . S
C1349 C1350 1.392 . S
C1349 C1353 1.495 . S
C1350 C1349 1.392 . S
C1350 C1351 1.385 . S
C1350 C1352 1.478 . S
C1351 H1345 0.930 . S
C1351 C1347 1.400 . S
C1351 C1350 1.385 . S
C1352 C1350 1.478 . S
C1352 C1354 1.381 . S
C1352 C1358 1.383 . S
C1353 C1349 1.495 . S
C1353 H1359 0.959 . S
C1353 H1360 0.961 . S
C1353 H1361 0.960 . S
C1354 C1352 1.381 . S
C1354 C1355 1.394 . S
C1354 H1362 0.930 . S
C1355 C1354 1.394 . S
C1355 C1356 1.383 . S
C1355 H1363 0.929 . S
C1356 C1355 1.383 . S
C1356 C1357 1.377 . S
C1357 H1341 0.930 1_455 S
C1357 C1356 1.377 . S
C1357 C1358 1.379 . S
C1358 H1342 0.931 1_455 S
C1358 C1352 1.383 . S
C1358 C1357 1.379 . S
H1359 C1353 0.959 . S
H1360 C1353 0.961 . S
H1361 C1353 0.960 . S
H1362 C1354 0.930 . S
H1363 C1355 0.929 . S
H1364 C1372 0.929 . S
H1365 C1374 0.930 . S
H1366 C1376 0.930 . S
H1367 C1379 0.929 . S
H1368 C1382 0.930 . S
H1369 C1384 0.960 . S
H1370 C1384 0.960 . S
H1371 C1384 0.960 . S
C1372 H1364 0.929 . S
C1372 C1373 1.377 . S
C1372 C1374 1.384 . S
C1373 C1372 1.377 . S
C1373 C1379 1.390 . S
C1374 H1365 0.930 . S
C1374 C1372 1.384 . S
C1374 C1375 1.372 . S
C1375 C1374 1.372 . S
C1375 C1376 1.400 . S
C1375 C1380 1.490 . S
C1376 H1366 0.930 . S
C1376 C1375 1.400 . S
C1376 C1379 1.386 . S
H1377 C1393 0.930 . S
H1378 C1394 0.931 . S
C1379 H1367 0.929 . S
C1379 C1373 1.390 . S
C1379 C1376 1.386 . S
C1380 C1375 1.490 . S
C1380 C1382 1.395 . S
C1380 C1383 1.403 . S
H1381 C1387 0.930 . S
C1382 H1368 0.930 . S
C1382 C1380 1.395 . S
C1382 C1385 1.403 . S
C1383 C1380 1.403 . S
C1383 C1384 1.524 . S
C1383 C1387 1.400 . S
C1384 H1369 0.960 . S
C1384 H1370 0.960 . S
C1384 H1371 0.960 . S
C1384 C1383 1.524 . S
C1385 C1382 1.403 . S
C1385 C1386 1.392 . S
C1385 C1389 1.495 . S
C1386 C1385 1.392 . S
C1386 C1387 1.385 . S
C1386 C1388 1.478 . S
C1387 H1381 0.930 . S
C1387 C1383 1.400 . S
C1387 C1386 1.385 . S
C1388 C1386 1.478 . S
C1388 C1390 1.381 . S
C1388 C1394 1.383 . S
C1389 C1385 1.495 . S
C1389 H1395 0.959 . S
C1389 H1396 0.961 . S
C1389 H1397 0.960 . S
C1390 C1388 1.381 . S
C1390 C1391 1.394 . S
C1390 H1398 0.930 . S
C1391 C1390 1.394 . S
C1391 C1392 1.383 . S
C1391 H1399 0.929 . S
C1392 C1391 1.383 . S
C1392 C1393 1.377 . S
C1393 H1377 0.930 . S
C1393 C1392 1.377 . S
C1393 C1394 1.379 . S
C1394 H1378 0.931 . S
C1394 C1388 1.383 . S
C1394 C1393 1.379 . S
H1395 C1389 0.959 . S
H1396 C1389 0.961 . S
H1397 C1389 0.960 . S
H1398 C1390 0.930 . S
H1399 C1391 0.929 . S
H1400 C1408 0.929 . S
H1401 C1410 0.930 . S
H1402 C1412 0.930 . S
H1403 C1415 0.929 . S
H1404 C1418 0.930 . S
H1405 C1420 0.960 . S
H1406 C1420 0.960 . S
H1407 C1420 0.960 . S
C1408 H1400 0.929 . S
C1408 C1409 1.377 . S
C1408 C1410 1.384 . S
C1409 C1408 1.377 . S
C1409 C1415 1.390 . S
C1410 H1401 0.930 . S
C1410 C1408 1.384 . S
C1410 C1411 1.372 . S
C1411 C1410 1.372 . S
C1411 C1412 1.400 . S
C1411 C1416 1.490 . S
C1412 H1402 0.930 . S
C1412 C1411 1.400 . S
C1412 C1415 1.386 . S
H1413 C1429 0.930 . S
H1414 C1430 0.931 . S
C1415 H1403 0.929 . S
C1415 C1409 1.390 . S
C1415 C1412 1.386 . S
C1416 C1411 1.490 . S
C1416 C1418 1.395 . S
C1416 C1419 1.403 . S
H1417 C1423 0.930 . S
C1418 H1404 0.930 . S
C1418 C1416 1.395 . S
C1418 C1421 1.403 . S
C1419 C1416 1.403 . S
C1419 C1420 1.524 . S
C1419 C1423 1.400 . S
C1420 H1405 0.960 . S
C1420 H1406 0.960 . S
C1420 H1407 0.960 . S
C1420 C1419 1.524 . S
C1421 C1418 1.403 . S
C1421 C1422 1.392 . S
C1421 C1425 1.495 . S
C1422 C1421 1.392 . S
C1422 C1423 1.385 . S
C1422 C1424 1.478 . S
C1423 H1417 0.930 . S
C1423 C1419 1.400 . S
C1423 C1422 1.385 . S
C1424 C1422 1.478 . S
C1424 C1426 1.381 . S
C1424 C1430 1.383 . S
C1425 C1421 1.495 . S
C1425 H1431 0.959 . S
C1425 H1432 0.961 . S
C1425 H1433 0.960 . S
C1426 C1424 1.381 . S
C1426 C1427 1.394 . S
C1426 H1434 0.930 . S
C1427 C1426 1.394 . S
C1427 C1428 1.383 . S
C1427 H1435 0.929 . S
C1428 C1427 1.383 . S
C1428 C1429 1.377 . S
C1429 H1413 0.930 . S
C1429 C1428 1.377 . S
C1429 C1430 1.379 . S
C1430 H1414 0.931 . S
C1430 C1424 1.383 . S
C1430 C1429 1.379 . S
H1431 C1425 0.959 . S
H1432 C1425 0.961 . S
H1433 C1425 0.960 . S
H1434 C1426 0.930 . S
H1435 C1427 0.929 . S
H1436 C1444 0.929 . S
H1437 C1446 0.930 . S
H1438 C1448 0.930 . S
H1439 C1451 0.929 . S
H1440 C1454 0.930 . S
H1441 C1456 0.960 . S
H1442 C1456 0.960 . S
H1443 C1456 0.960 . S
C1444 H1436 0.929 . S
C1444 C1445 1.377 . S
C1444 C1446 1.384 . S
C1445 C1444 1.377 . S
C1445 C1451 1.390 . S
C1446 H1437 0.930 . S
C1446 C1444 1.384 . S
C1446 C1447 1.372 . S
C1447 C1446 1.372 . S
C1447 C1448 1.400 . S
C1447 C1452 1.490 . S
C1448 H1438 0.930 . S
C1448 C1447 1.400 . S
C1448 C1451 1.386 . S
H1449 C1465 0.930 . S
H1450 C1466 0.931 . S
C1451 H1439 0.929 . S
C1451 C1445 1.390 . S
C1451 C1448 1.386 . S
C1452 C1447 1.490 . S
C1452 C1454 1.395 . S
C1452 C1455 1.403 . S
H1453 C1459 0.930 . S
C1454 H1440 0.930 . S
C1454 C1452 1.395 . S
C1454 C1457 1.403 . S
C1455 C1452 1.403 . S
C1455 C1456 1.524 . S
C1455 C1459 1.400 . S
C1456 H1441 0.960 . S
C1456 H1442 0.960 . S
C1456 H1443 0.960 . S
C1456 C1455 1.524 . S
C1457 C1454 1.403 . S
C1457 C1458 1.392 . S
C1457 C1461 1.495 . S
C1458 C1457 1.392 . S
C1458 C1459 1.385 . S
C1458 C1460 1.478 . S
C1459 H1453 0.930 . S
C1459 C1455 1.400 . S
C1459 C1458 1.385 . S
C1460 C1458 1.478 . S
C1460 C1462 1.381 . S
C1460 C1466 1.383 . S
C1461 C1457 1.495 . S
C1461 H1467 0.959 . S
C1461 H1468 0.961 . S
C1461 H1469 0.960 . S
C1462 C1460 1.381 . S
C1462 C1463 1.394 . S
C1462 H1470 0.930 . S
C1463 C1462 1.394 . S
C1463 C1464 1.383 . S
C1463 H1471 0.929 . S
C1464 C1463 1.383 . S
C1464 C1465 1.377 . S
C1465 H1449 0.930 . S
C1465 C1464 1.377 . S
C1465 C1466 1.379 . S
C1466 H1450 0.931 . S
C1466 C1460 1.383 . S
C1466 C1465 1.379 . S
H1467 C1461 0.959 . S
H1468 C1461 0.961 . S
H1469 C1461 0.960 . S
H1470 C1462 0.930 . S
H1471 C1463 0.929 . S
H1472 C1480 0.929 . S
H1473 C1482 0.930 . S
H1474 C1484 0.930 . S
H1475 C1487 0.929 . S
H1476 C1490 0.930 . S
H1477 C1492 0.960 . S
H1478 C1492 0.960 . S
H1479 C1492 0.960 . S
C1480 H1472 0.929 . S
C1480 C1481 1.377 . S
C1480 C1482 1.384 . S
C1481 C1480 1.377 . S
C1481 C1487 1.390 . S
C1482 H1473 0.930 . S
C1482 C1480 1.384 . S
C1482 C1483 1.372 . S
C1483 C1482 1.372 . S
C1483 C1484 1.400 . S
C1483 C1488 1.490 . S
C1484 H1474 0.930 . S
C1484 C1483 1.400 . S
C1484 C1487 1.386 . S
H1485 C1501 0.930 . S
H1486 C1502 0.931 . S
C1487 H1475 0.929 . S
C1487 C1481 1.390 . S
C1487 C1484 1.386 . S
C1488 C1483 1.490 . S
C1488 C1490 1.395 . S
C1488 C1491 1.403 . S
H1489 C1495 0.930 . S
C1490 H1476 0.930 . S
C1490 C1488 1.395 . S
C1490 C1493 1.403 . S
C1491 C1488 1.403 . S
C1491 C1492 1.524 . S
C1491 C1495 1.400 . S
C1492 H1477 0.960 . S
C1492 H1478 0.960 . S
C1492 H1479 0.960 . S
C1492 C1491 1.524 . S
C1493 C1490 1.403 . S
C1493 C1494 1.392 . S
C1493 C1497 1.538 . S
C1494 C1493 1.392 . S
C1494 C1495 1.385 . S
C1494 C1496 1.478 . S
C1495 H1489 0.930 . S
C1495 C1491 1.400 . S
C1495 C1494 1.385 . S
C1496 C1494 1.478 . S
C1496 C1498 1.381 . S
C1496 C1502 1.383 . S
C1497 C1493 1.538 . S
C1497 H1503 0.950 1_655 S
C1497 H1504 0.948 1_655 S
C1497 H1505 0.941 1_655 S
C1498 C1496 1.381 . S
C1498 C1499 1.396 . S
C1498 H1506 0.930 . S
C1499 C1498 1.396 . S
C1499 C1500 1.384 . S
C1499 H1507 0.927 1_655 S
C1500 C1499 1.384 . S
C1500 C1501 1.377 . S
C1501 H1485 0.930 . S
C1501 C1500 1.377 . S
C1501 C1502 1.379 . S
C1502 H1486 0.931 . S
C1502 C1496 1.383 . S
C1502 C1501 1.379 . S
H1503 C1497 0.950 1_455 S
H1504 C1497 0.948 1_455 S
H1505 C1497 0.941 1_455 S
H1506 C1498 0.930 . S
H1507 C1499 0.927 1_455 S
H1508 C1516 0.929 . S
H1509 C1518 0.930 . S
H1510 C1520 0.930 . S
H1511 C1523 0.929 . S
H1512 C1526 0.930 . S
H1513 C1528 0.960 . S
H1514 C1528 0.960 . S
H1515 C1528 0.960 . S
C1516 H1508 0.929 . S
C1516 C1517 1.377 . S
C1516 C1518 1.384 . S
C1517 C1516 1.377 . S
C1517 C1523 1.390 . S
C1518 H1509 0.930 . S
C1518 C1516 1.384 . S
C1518 C1519 1.372 . S
C1519 C1518 1.372 . S
C1519 C1520 1.400 . S
C1519 C1524 1.490 . S
C1520 H1510 0.930 . S
C1520 C1519 1.400 . S
C1520 C1523 1.386 . S
H1521 C1537 0.930 . S
H1522 C1538 0.931 . S
C1523 H1511 0.929 . S
C1523 C1517 1.390 . S
C1523 C1520 1.386 . S
C1524 C1519 1.490 . S
C1524 C1526 1.395 . S
C1524 C1527 1.403 . S
H1525 C1531 0.930 . S
C1526 H1512 0.930 . S
C1526 C1524 1.395 . S
C1526 C1529 1.403 . S
C1527 C1524 1.403 . S
C1527 C1528 1.524 . S
C1527 C1531 1.400 . S
C1528 H1513 0.960 . S
C1528 H1514 0.960 . S
C1528 H1515 0.960 . S
C1528 C1527 1.524 . S
C1529 C1526 1.403 . S
C1529 C1530 1.392 . S
C1529 C1533 1.495 . S
C1530 C1529 1.392 . S
C1530 C1531 1.385 . S
C1530 C1532 1.478 . S
C1531 H1525 0.930 . S
C1531 C1527 1.400 . S
C1531 C1530 1.385 . S
C1532 C1530 1.478 . S
C1532 C1534 1.381 . S
C1532 C1538 1.383 . S
C1533 C1529 1.495 . S
C1533 H1539 0.959 . S
C1533 H1540 0.961 . S
C1533 H1541 0.960 . S
C1534 C1532 1.381 . S
C1534 C1535 1.394 . S
C1534 H1542 0.930 . S
C1535 C1534 1.394 . S
C1535 C1536 1.383 . S
C1535 H1543 0.929 . S
C1536 C1535 1.383 . S
C1536 C1537 1.377 . S
C1537 H1521 0.930 . S
C1537 C1536 1.377 . S
C1537 C1538 1.379 . S
C1538 H1522 0.931 . S
C1538 C1532 1.383 . S
C1538 C1537 1.379 . S
H1539 C1533 0.959 . S
H1540 C1533 0.961 . S
H1541 C1533 0.960 . S
H1542 C1534 0.930 . S
H1543 C1535 0.929 . S
H1544 C1552 0.929 . S
H1545 C1554 0.930 . S
H1546 C1556 0.930 1_565 S
H1547 C1559 0.929 1_565 S
H1548 C1562 0.930 . S
H1549 C1564 0.976 . S
H1550 C1564 0.936 1_545 S
H1551 C1564 0.999 . S
C1552 H1544 0.929 . S
C1552 C1553 1.377 . S
C1552 C1554 1.384 . S
C1553 C1552 1.377 . S
C1553 C1559 1.390 . S
C1554 H1545 0.930 . S
C1554 C1552 1.384 . S
C1554 C1555 1.372 . S
C1555 C1554 1.372 . S
C1555 C1556 1.400 . S
C1555 C1560 1.490 . S
C1556 H1546 0.930 1_545 S
C1556 C1555 1.400 . S
C1556 C1559 1.386 . S
H1557 C1573 0.930 1_565 S
H1558 C1574 0.916 1_565 S
C1559 H1547 0.929 1_545 S
C1559 C1553 1.390 . S
C1559 C1556 1.386 . S
C1560 C1555 1.490 . S
C1560 C1562 1.395 . S
C1560 C1563 1.403 . S
H1561 C1567 0.930 . S
C1562 H1548 0.930 . S
C1562 C1560 1.395 . S
C1562 C1565 1.403 . S
C1563 C1560 1.403 . S
C1563 C1564 1.496 1_545 S
C1563 C1567 1.400 . S
C1564 H1549 0.976 . S
C1564 H1550 0.936 1_565 S
C1564 H1551 0.999 . S
C1564 C1563 1.496 1_565 S
C1565 C1562 1.403 . S
C1565 C1566 1.392 . S
C1565 C1569 1.495 . S
C1566 C1565 1.392 . S
C1566 C1567 1.385 . S
C1566 C1568 1.478 . S
C1567 H1561 0.930 . S
C1567 C1563 1.400 . S
C1567 C1566 1.385 . S
C1568 C1566 1.478 . S
C1568 C1570 1.381 . S
C1568 C1574 1.383 . S
C1569 C1565 1.495 . S
C1569 H1575 0.959 . S
C1569 H1576 0.961 . S
C1569 H1577 0.960 . S
C1570 C1568 1.381 . S
C1570 C1571 1.394 . S
C1570 H1578 0.930 . S
C1571 C1570 1.394 . S
C1571 C1572 1.383 . S
C1571 H1579 0.929 . S
C1572 C1571 1.383 . S
C1572 C1573 1.377 . S
C1573 H1557 0.930 1_545 S
C1573 C1572 1.377 . S
C1573 C1574 1.379 . S
C1574 H1558 0.916 1_545 S
C1574 C1568 1.383 . S
C1574 C1573 1.379 . S
H1575 C1569 0.959 . S
H1576 C1569 0.961 . S
H1577 C1569 0.960 . S
H1578 C1570 0.930 . S
H1579 C1571 0.929 . S
H1580 C1588 0.929 . S
H1581 C1590 0.930 . S
H1582 C1592 0.930 . S
H1583 C1595 0.929 . S
H1584 C1598 0.930 . S
H1585 C1600 0.960 . S
H1586 C1600 0.960 . S
H1587 C1600 0.960 . S
C1588 H1580 0.929 . S
C1588 C1589 1.377 . S
C1588 C1590 1.384 . S
C1589 C1588 1.377 . S
C1589 C1595 1.390 . S
C1590 H1581 0.930 . S
C1590 C1588 1.384 . S
C1590 C1591 1.372 . S
C1591 C1590 1.372 . S
C1591 C1592 1.400 . S
C1591 C1596 1.490 . S
C1592 H1582 0.930 . S
C1592 C1591 1.400 . S
C1592 C1595 1.386 . S
H1593 C1609 0.930 . S
H1594 C1610 0.931 . S
C1595 H1583 0.929 . S
C1595 C1589 1.390 . S
C1595 C1592 1.386 . S
C1596 C1591 1.490 . S
C1596 C1598 1.395 . S
C1596 C1599 1.403 . S
H1597 C1603 0.930 . S
C1598 H1584 0.930 . S
C1598 C1596 1.395 . S
C1598 C1601 1.403 . S
C1599 C1596 1.403 . S
C1599 C1600 1.524 . S
C1599 C1603 1.400 . S
C1600 H1585 0.960 . S
C1600 H1586 0.960 . S
C1600 H1587 0.960 . S
C1600 C1599 1.524 . S
C1601 C1598 1.403 . S
C1601 C1602 1.392 . S
C1601 C1605 1.495 . S
C1602 C1601 1.392 . S
C1602 C1603 1.385 . S
C1602 C1604 1.478 . S
C1603 H1597 0.930 . S
C1603 C1599 1.400 . S
C1603 C1602 1.385 . S
C1604 C1602 1.478 . S
C1604 C1606 1.381 . S
C1604 C1610 1.383 . S
C1605 C1601 1.495 . S
C1605 H1611 0.959 . S
C1605 H1612 0.961 . S
C1605 H1613 0.960 . S
C1606 C1604 1.381 . S
C1606 C1607 1.394 . S
C1606 H1614 0.930 . S
C1607 C1606 1.394 . S
C1607 C1608 1.383 . S
C1607 H1615 0.929 . S
C1608 C1607 1.383 . S
C1608 C1609 1.377 . S
C1609 H1593 0.930 . S
C1609 C1608 1.377 . S
C1609 C1610 1.379 . S
C1610 H1594 0.931 . S
C1610 C1604 1.383 . S
C1610 C1609 1.379 . S
H1611 C1605 0.959 . S
H1612 C1605 0.961 . S
H1613 C1605 0.960 . S
H1614 C1606 0.930 . S
H1615 C1607 0.929 . S
H1616 C1624 0.929 . S
H1617 C1626 0.930 . S
H1618 C1628 0.930 . S
H1619 C1631 0.929 . S
H1620 C1634 0.930 . S
H1621 C1636 0.960 . S
H1622 C1636 0.960 . S
H1623 C1636 0.960 . S
C1624 H1616 0.929 . S
C1624 C1625 1.377 . S
C1624 C1626 1.384 . S
C1625 C1624 1.377 . S
C1625 C1631 1.390 . S
C1626 H1617 0.930 . S
C1626 C1624 1.384 . S
C1626 C1627 1.372 . S
C1627 C1626 1.372 . S
C1627 C1628 1.400 . S
C1627 C1632 1.490 . S
C1628 H1618 0.930 . S
C1628 C1627 1.400 . S
C1628 C1631 1.386 . S
H1629 C1645 0.980 . S
H1630 C1646 0.931 . S
C1631 H1619 0.929 . S
C1631 C1625 1.390 . S
C1631 C1628 1.386 . S
C1632 C1627 1.490 . S
C1632 C1634 1.395 . S
C1632 C1635 1.403 . S
H1633 C1639 0.930 . S
C1634 H1620 0.930 . S
C1634 C1632 1.395 . S
C1634 C1637 1.403 . S
C1635 C1632 1.403 . S
C1635 C1636 1.524 . S
C1635 C1639 1.400 . S
C1636 H1621 0.960 . S
C1636 H1622 0.960 . S
C1636 H1623 0.960 . S
C1636 C1635 1.524 . S
C1637 C1634 1.403 . S
C1637 C1638 1.392 . S
C1637 C1641 1.495 1_545 S
C1638 C1637 1.392 . S
C1638 C1639 1.385 . S
C1638 C1640 1.478 . S
C1639 H1633 0.930 . S
C1639 C1635 1.400 . S
C1639 C1638 1.385 . S
C1640 C1638 1.478 . S
C1640 C1642 1.381 . S
C1640 C1646 1.383 . S
C1641 C1637 1.495 1_565 S
C1641 H1647 0.959 . S
C1641 H1648 0.961 . S
C1641 H1649 0.960 . S
C1642 C1640 1.381 . S
C1642 C1643 1.394 . S
C1642 H1650 0.930 . S
C1643 C1642 1.394 . S
C1643 C1644 1.383 . S
C1643 H1651 0.929 . S
C1644 C1643 1.383 . S
C1644 C1645 1.351 1_655 S
C1645 H1629 0.980 . S
C1645 C1644 1.351 1_455 S
C1645 C1646 1.357 1_455 S
C1646 H1630 0.931 . S
C1646 C1640 1.383 . S
C1646 C1645 1.357 1_655 S
H1647 C1641 0.959 . S
H1648 C1641 0.961 . S
H1649 C1641 0.960 . S
H1650 C1642 0.930 . S
H1651 C1643 0.929 . S
H1652 C1660 0.929 . S
H1653 C1662 0.930 . S
H1654 C1664 0.930 . S
H1655 C1667 0.929 . S
H1656 C1670 0.930 . S
H1657 C1672 0.960 . S
H1658 C1672 0.960 . S
H1659 C1672 0.960 . S
C1660 H1652 0.929 . S
C1660 C1661 1.377 . S
C1660 C1662 1.384 . S
C1661 C1660 1.377 . S
C1661 C1667 1.390 . S
C1662 H1653 0.930 . S
C1662 C1660 1.384 . S
C1662 C1663 1.372 . S
C1663 C1662 1.372 . S
C1663 C1664 1.400 . S
C1663 C1668 1.490 . S
C1664 H1654 0.930 . S
C1664 C1663 1.400 . S
C1664 C1667 1.386 . S
H1665 C1681 0.930 . S
H1666 C1682 0.931 . S
C1667 H1655 0.929 . S
C1667 C1661 1.390 . S
C1667 C1664 1.386 . S
C1668 C1663 1.490 . S
C1668 C1670 1.395 . S
C1668 C1671 1.403 . S
H1669 C1675 0.930 . S
C1670 H1656 0.930 . S
C1670 C1668 1.395 . S
C1670 C1673 1.403 . S
C1671 C1668 1.403 . S
C1671 C1672 1.524 . S
C1671 C1675 1.400 . S
C1672 H1657 0.960 . S
C1672 H1658 0.960 . S
C1672 H1659 0.960 . S
C1672 C1671 1.524 . S
C1673 C1670 1.403 . S
C1673 C1674 1.392 . S
C1673 C1677 1.495 . S
C1674 C1673 1.392 . S
C1674 C1675 1.385 . S
C1674 C1676 1.478 . S
C1675 H1669 0.930 . S
C1675 C1671 1.400 . S
C1675 C1674 1.385 . S
C1676 C1674 1.478 . S
C1676 C1678 1.381 . S
C1676 C1682 1.383 . S
C1677 C1673 1.495 . S
C1677 H1683 0.959 . S
C1677 H1684 0.961 . S
C1677 H1685 0.960 . S
C1678 C1676 1.381 . S
C1678 C1679 1.394 . S
C1678 H1686 0.930 . S
C1679 C1678 1.394 . S
C1679 C1680 1.383 . S
C1679 H1687 0.929 . S
C1680 C1679 1.383 . S
C1680 C1681 1.377 . S
C1681 H1665 0.930 . S
C1681 C1680 1.377 . S
C1681 C1682 1.379 . S
C1682 H1666 0.931 . S
C1682 C1676 1.383 . S
C1682 C1681 1.379 . S
H1683 C1677 0.959 . S
H1684 C1677 0.961 . S
H1685 C1677 0.960 . S
H1686 C1678 0.930 . S
H1687 C1679 0.929 . S
H1688 C1696 0.929 . S
H1689 C1698 0.930 . S
H1690 C1700 0.930 . S
H1691 C1703 0.929 . S
H1692 C1706 0.930 . S
H1693 C1708 0.960 . S
H1694 C1708 0.960 . S
H1695 C1708 0.960 . S
C1696 H1688 0.929 . S
C1696 C1697 1.377 . S
C1696 C1698 1.384 . S
C1697 C1696 1.377 . S
C1697 C1703 1.390 . S
C1698 H1689 0.930 . S
C1698 C1696 1.384 . S
C1698 C1699 1.372 . S
C1699 C1698 1.372 . S
C1699 C1700 1.400 . S
C1699 C1704 1.490 . S
C1700 H1690 0.930 . S
C1700 C1699 1.400 . S
C1700 C1703 1.386 . S
H1701 C1717 0.930 . S
H1702 C1718 0.931 . S
C1703 H1691 0.929 . S
C1703 C1697 1.390 . S
C1703 C1700 1.386 . S
C1704 C1699 1.490 . S
C1704 C1706 1.395 . S
C1704 C1707 1.403 . S
H1705 C1711 0.930 . S
C1706 H1692 0.930 . S
C1706 C1704 1.395 . S
C1706 C1709 1.403 . S
C1707 C1704 1.403 . S
C1707 C1708 1.524 . S
C1707 C1711 1.400 . S
C1708 H1693 0.960 . S
C1708 H1694 0.960 . S
C1708 H1695 0.960 . S
C1708 C1707 1.524 . S
C1709 C1706 1.403 . S
C1709 C1710 1.392 . S
C1709 C1713 1.495 1_545 S
C1710 C1709 1.392 . S
C1710 C1711 1.385 . S
C1710 C1712 1.478 . S
C1711 H1705 0.930 . S
C1711 C1707 1.400 . S
C1711 C1710 1.385 . S
C1712 C1710 1.478 . S
C1712 C1714 1.381 . S
C1712 C1718 1.383 . S
C1713 C1709 1.495 1_565 S
C1713 H1719 0.959 . S
C1713 H1720 0.961 . S
C1713 H1721 0.960 . S
C1714 C1712 1.381 . S
C1714 C1715 1.394 . S
C1714 H1722 0.930 . S
C1715 C1714 1.394 . S
C1715 C1716 1.383 . S
C1715 H1723 0.929 . S
C1716 C1715 1.383 . S
C1716 C1717 1.377 . S
C1717 H1701 0.930 . S
C1717 C1716 1.377 . S
C1717 C1718 1.379 . S
C1718 H1702 0.931 . S
C1718 C1712 1.383 . S
C1718 C1717 1.379 . S
H1719 C1713 0.959 . S
H1720 C1713 0.961 . S
H1721 C1713 0.960 . S
H1722 C1714 0.930 . S
H1723 C1715 0.929 . S
H1724 C1732 0.929 . S
H1725 C1734 0.930 . S
H1726 C1736 0.930 . S
H1727 C1739 0.929 . S
H1728 C1742 0.930 . S
H1729 C1744 0.960 . S
H1730 C1744 0.960 . S
H1731 C1744 0.960 . S
C1732 H1724 0.929 . S
C1732 C1733 1.377 . S
C1732 C1734 1.384 . S
C1733 C1732 1.377 . S
C1733 C1739 1.390 . S
C1734 H1725 0.930 . S
C1734 C1732 1.384 . S
C1734 C1735 1.372 . S
C1735 C1734 1.372 . S
C1735 C1736 1.400 . S
C1735 C1740 1.490 . S
C1736 H1726 0.930 . S
C1736 C1735 1.400 . S
C1736 C1739 1.386 . S
H1737 C1753 0.930 . S
H1738 C1754 0.931 . S
C1739 H1727 0.929 . S
C1739 C1733 1.390 . S
C1739 C1736 1.386 . S
C1740 C1735 1.490 . S
C1740 C1742 1.395 . S
C1740 C1743 1.403 . S
H1741 C1747 0.930 . S
C1742 H1728 0.930 . S
C1742 C1740 1.395 . S
C1742 C1745 1.403 . S
C1743 C1740 1.403 . S
C1743 C1744 1.524 . S
C1743 C1747 1.400 . S
C1744 H1729 0.960 . S
C1744 H1730 0.960 . S
C1744 H1731 0.960 . S
C1744 C1743 1.524 . S
C1745 C1742 1.403 . S
C1745 C1746 1.392 . S
C1745 C1749 1.495 . S
C1746 C1745 1.392 . S
C1746 C1747 1.385 . S
C1746 C1748 1.478 . S
C1747 H1741 0.930 . S
C1747 C1743 1.400 . S
C1747 C1746 1.385 . S
C1748 C1746 1.478 . S
C1748 C1750 1.381 . S
C1748 C1754 1.383 . S
C1749 C1745 1.495 . S
C1749 H1755 0.959 . S
C1749 H1756 0.961 . S
C1749 H1757 0.960 . S
C1750 C1748 1.381 . S
C1750 C1751 1.394 . S
C1750 H1758 0.930 . S
C1751 C1750 1.394 . S
C1751 C1752 1.383 . S
C1751 H1759 0.929 . S
C1752 C1751 1.383 . S
C1752 C1753 1.377 . S
C1753 H1737 0.930 . S
C1753 C1752 1.377 . S
C1753 C1754 1.379 . S
C1754 H1738 0.931 . S
C1754 C1748 1.383 . S
C1754 C1753 1.379 . S
H1755 C1749 0.959 . S
H1756 C1749 0.961 . S
H1757 C1749 0.960 . S
H1758 C1750 0.930 . S
H1759 C1751 0.929 . S
H1760 C1768 0.929 . S
H1761 C1770 0.930 . S
H1762 C1772 0.930 . S
H1763 C1775 0.929 . S
H1764 C1778 0.930 . S
H1765 C1780 0.960 . S
H1766 C1780 0.960 . S
H1767 C1780 0.960 . S
C1768 H1760 0.929 . S
C1768 C1769 1.377 . S
C1768 C1770 1.384 . S
C1769 C1768 1.377 . S
C1769 C1775 1.390 . S
C1770 H1761 0.930 . S
C1770 C1768 1.384 . S
C1770 C1771 1.372 . S
C1771 C1770 1.372 . S
C1771 C1772 1.400 . S
C1771 C1776 1.490 . S
C1772 H1762 0.930 . S
C1772 C1771 1.400 . S
C1772 C1775 1.386 . S
H1773 C1789 0.930 . S
H1774 C1790 0.931 1_545 S
C1775 H1763 0.929 . S
C1775 C1769 1.390 . S
C1775 C1772 1.386 . S
C1776 C1771 1.490 . S
C1776 C1778 1.395 . S
C1776 C1779 1.403 . S
H1777 C1783 0.930 . S
C1778 H1764 0.930 . S
C1778 C1776 1.395 . S
C1778 C1781 1.403 . S
C1779 C1776 1.403 . S
C1779 C1780 1.524 1_554 S
C1779 C1783 1.400 . S
C1780 H1765 0.960 . S
C1780 H1766 0.960 . S
C1780 H1767 0.960 . S
C1780 C1779 1.524 1_556 S
C1781 C1778 1.403 . S
C1781 C1782 1.392 . S
C1781 C1785 1.495 . S
C1782 C1781 1.392 . S
C1782 C1783 1.385 . S
C1782 C1784 1.478 . S
C1783 H1777 0.930 . S
C1783 C1779 1.400 . S
C1783 C1782 1.385 . S
C1784 C1782 1.478 . S
C1784 C1786 1.381 . S
C1784 C1790 1.383 . S
C1785 C1781 1.495 . S
C1785 H1791 0.959 . S
C1785 H1792 0.961 . S
C1785 H1793 0.960 . S
C1786 C1784 1.381 . S
C1786 C1787 1.394 . S
C1786 H1794 0.930 . S
C1787 C1786 1.394 . S
C1787 C1788 1.383 . S
C1787 H1795 0.929 . S
C1788 C1787 1.383 . S
C1788 C1789 1.377 1_565 S
C1789 H1773 0.930 . S
C1789 C1788 1.377 1_545 S
C1789 C1790 1.379 1_545 S
C1790 H1774 0.931 1_565 S
C1790 C1784 1.383 . S
C1790 C1789 1.379 1_565 S
H1791 C1785 0.959 . S
H1792 C1785 0.961 . S
H1793 C1785 0.960 . S
H1794 C1786 0.930 . S
H1795 C1787 0.929 . S
H1796 C1804 0.929 . S
H1797 C1806 0.930 . S
H1798 C1808 0.930 . S
H1799 C1811 0.929 . S
H1800 C1814 0.930 . S
H1801 C1816 0.960 . S
H1802 C1816 0.960 . S
H1803 C1816 0.960 1_556 S
C1804 H1796 0.929 . S
C1804 C1805 1.377 . S
C1804 C1806 1.384 . S
C1805 C1804 1.377 . S
C1805 C1811 1.390 1_554 S
C1806 H1797 0.930 . S
C1806 C1804 1.384 . S
C1806 C1807 1.372 . S
C1807 C1806 1.372 . S
C1807 C1808 1.400 1_554 S
C1807 C1812 1.490 . S
C1808 H1798 0.930 . S
C1808 C1807 1.400 1_556 S
C1808 C1811 1.386 . S
H1809 C1825 0.930 . S
H1810 C1826 0.931 . S
C1811 H1799 0.929 . S
C1811 C1805 1.390 1_556 S
C1811 C1808 1.386 . S
C1812 C1807 1.490 . S
C1812 C1814 1.395 . S
C1812 C1815 1.403 . S
H1813 C1819 0.930 . S
C1814 H1800 0.930 . S
C1814 C1812 1.395 . S
C1814 C1817 1.403 . S
C1815 C1812 1.403 . S
C1815 C1816 1.524 . S
C1815 C1819 1.400 . S
C1816 H1801 0.960 . S
C1816 H1802 0.960 . S
C1816 H1803 0.960 1_554 S
C1816 C1815 1.524 . S
C1817 C1814 1.403 . S
C1817 C1818 1.392 . S
C1817 C1821 1.495 . S
C1818 C1817 1.392 . S
C1818 C1819 1.385 . S
C1818 C1820 1.478 . S
C1819 H1813 0.930 . S
C1819 C1815 1.400 . S
C1819 C1818 1.385 . S
C1820 C1818 1.478 . S
C1820 C1822 1.381 . S
C1820 C1826 1.383 1_554 S
C1821 C1817 1.495 . S
C1821 H1827 0.959 . S
C1821 H1828 0.961 . S
C1821 H1829 0.960 . S
C1822 C1820 1.381 . S
C1822 C1823 1.394 . S
C1822 H1830 0.930 . S
C1823 C1822 1.394 . S
C1823 C1824 1.383 . S
C1823 H1831 0.929 . S
C1824 C1823 1.383 . S
C1824 C1825 1.377 1_554 S
C1825 H1809 0.930 . S
C1825 C1824 1.377 1_556 S
C1825 C1826 1.379 . S
C1826 H1810 0.931 . S
C1826 C1820 1.383 1_556 S
C1826 C1825 1.379 . S
H1827 C1821 0.959 . S
H1828 C1821 0.961 . S
H1829 C1821 0.960 . S
H1830 C1822 0.930 . S
H1831 C1823 0.929 . S
H1832 C1840 0.929 . S
H1833 C1842 0.930 . S
H1834 C1844 0.930 . S
H1835 C1847 0.929 . S
H1836 C1850 0.930 . S
H1837 C1852 0.960 . S
H1838 C1852 0.960 . S
H1839 C1852 0.960 . S
C1840 H1832 0.929 . S
C1840 C1841 1.377 . S
C1840 C1842 1.384 . S
C1841 C1840 1.377 . S
C1841 C1847 1.390 . S
C1842 H1833 0.930 . S
C1842 C1840 1.384 . S
C1842 C1843 1.372 . S
C1843 C1842 1.372 . S
C1843 C1844 1.400 . S
C1843 C1848 1.490 . S
C1844 H1834 0.930 . S
C1844 C1843 1.400 . S
C1844 C1847 1.386 . S
H1845 C1861 0.930 . S
H1846 C1862 0.931 . S
C1847 H1835 0.929 . S
C1847 C1841 1.390 . S
C1847 C1844 1.386 . S
C1848 C1843 1.490 . S
C1848 C1850 1.395 . S
C1848 C1851 1.403 . S
H1849 C1855 0.930 . S
C1850 H1836 0.930 . S
C1850 C1848 1.395 . S
C1850 C1853 1.403 . S
C1851 C1848 1.403 . S
C1851 C1852 1.524 . S
C1851 C1855 1.400 . S
C1852 H1837 0.960 . S
C1852 H1838 0.960 . S
C1852 H1839 0.960 . S
C1852 C1851 1.524 . S
C1853 C1850 1.403 . S
C1853 C1854 1.392 . S
C1853 C1857 1.495 . S
C1854 C1853 1.392 . S
C1854 C1855 1.385 . S
C1854 C1856 1.478 . S
C1855 H1849 0.930 . S
C1855 C1851 1.400 . S
C1855 C1854 1.385 . S
C1856 C1854 1.478 . S
C1856 C1858 1.381 . S
C1856 C1862 1.383 . S
C1857 C1853 1.495 . S
C1857 H1863 0.959 . S
C1857 H1864 0.961 . S
C1857 H1865 0.960 . S
C1858 C1856 1.381 . S
C1858 C1859 1.394 . S
C1858 H1866 0.930 . S
C1859 C1858 1.394 . S
C1859 C1860 1.383 . S
C1859 H1867 0.929 . S
C1860 C1859 1.383 . S
C1860 C1861 1.377 . S
C1861 H1845 0.930 . S
C1861 C1860 1.377 . S
C1861 C1862 1.379 . S
C1862 H1846 0.931 . S
C1862 C1856 1.383 . S
C1862 C1861 1.379 . S
H1863 C1857 0.959 . S
H1864 C1857 0.961 . S
H1865 C1857 0.960 . S
H1866 C1858 0.930 . S
H1867 C1859 0.929 . S
H1868 C1876 0.929 . S
H1869 C1878 0.930 . S
H1870 C1880 0.930 . S
H1871 C1883 0.929 . S
H1872 C1886 0.930 . S
H1873 C1888 0.960 . S
H1874 C1888 0.960 . S
H1875 C1888 0.960 . S
C1876 H1868 0.929 . S
C1876 C1877 1.377 . S
C1876 C1878 1.384 . S
C1877 C1876 1.377 . S
C1877 C1883 1.390 . S
C1878 H1869 0.930 . S
C1878 C1876 1.384 . S
C1878 C1879 1.372 . S
C1879 C1878 1.372 . S
C1879 C1880 1.400 . S
C1879 C1884 1.490 . S
C1880 H1870 0.930 . S
C1880 C1879 1.400 . S
C1880 C1883 1.386 . S
H1881 C1897 0.930 . S
H1882 C1898 0.931 . S
C1883 H1871 0.929 . S
C1883 C1877 1.390 . S
C1883 C1880 1.386 . S
C1884 C1879 1.490 . S
C1884 C1886 1.395 . S
C1884 C1887 1.403 . S
H1885 C1891 0.930 . S
C1886 H1872 0.930 . S
C1886 C1884 1.395 . S
C1886 C1889 1.403 . S
C1887 C1884 1.403 . S
C1887 C1888 1.524 . S
C1887 C1891 1.400 . S
C1888 H1873 0.960 . S
C1888 H1874 0.960 . S
C1888 H1875 0.960 . S
C1888 C1887 1.524 . S
C1889 C1886 1.403 . S
C1889 C1890 1.392 . S
C1889 C1893 1.495 . S
C1890 C1889 1.392 . S
C1890 C1891 1.385 . S
C1890 C1892 1.478 . S
C1891 H1885 0.930 . S
C1891 C1887 1.400 . S
C1891 C1890 1.385 . S
C1892 C1890 1.478 . S
C1892 C1894 1.381 . S
C1892 C1898 1.383 . S
C1893 C1889 1.495 . S
C1893 H1899 0.959 . S
C1893 H1900 0.961 . S
C1893 H1901 0.960 . S
C1894 C1892 1.381 . S
C1894 C1895 1.394 . S
C1894 H1902 0.930 . S
C1895 C1894 1.394 . S
C1895 C1896 1.383 . S
C1895 H1903 0.929 . S
C1896 C1895 1.383 . S
C1896 C1897 1.377 . S
C1897 H1881 0.930 . S
C1897 C1896 1.377 . S
C1897 C1898 1.379 . S
C1898 H1882 0.931 . S
C1898 C1892 1.383 . S
C1898 C1897 1.379 . S
H1899 C1893 0.959 . S
H1900 C1893 0.961 . S
H1901 C1893 0.960 . S
H1902 C1894 0.930 . S
H1903 C1895 0.929 . S
H1904 C1912 0.929 . S
H1905 C1914 0.930 . S
H1906 C1916 0.930 . S
H1907 C1919 0.929 . S
H1908 C1922 0.930 . S
H1909 C1924 0.960 . S
H1910 C1924 0.960 . S
H1911 C1924 0.960 . S
C1912 H1904 0.929 . S
C1912 C1913 1.377 . S
C1912 C1914 1.384 . S
C1913 C1912 1.377 . S
C1913 C1919 1.390 . S
C1914 H1905 0.930 . S
C1914 C1912 1.384 . S
C1914 C1915 1.372 . S
C1915 C1914 1.372 . S
C1915 C1916 1.400 . S
C1915 C1920 1.490 . S
C1916 H1906 0.930 . S
C1916 C1915 1.400 . S
C1916 C1919 1.386 . S
H1917 C1933 0.930 . S
H1918 C1934 0.931 . S
C1919 H1907 0.929 . S
C1919 C1913 1.390 . S
C1919 C1916 1.386 . S
C1920 C1915 1.490 . S
C1920 C1922 1.395 . S
C1920 C1923 1.403 . S
H1921 C1927 0.930 . S
C1922 H1908 0.930 . S
C1922 C1920 1.395 . S
C1922 C1925 1.403 . S
C1923 C1920 1.403 . S
C1923 C1924 1.524 . S
C1923 C1927 1.400 . S
C1924 H1909 0.960 . S
C1924 H1910 0.960 . S
C1924 H1911 0.960 . S
C1924 C1923 1.524 . S
C1925 C1922 1.403 . S
C1925 C1926 1.392 . S
C1925 C1929 1.495 . S
C1926 C1925 1.392 . S
C1926 C1927 1.385 . S
C1926 C1928 1.478 . S
C1927 H1921 0.930 . S
C1927 C1923 1.400 . S
C1927 C1926 1.385 . S
C1928 C1926 1.478 . S
C1928 C1930 1.381 . S
C1928 C1934 1.383 . S
C1929 C1925 1.495 . S
C1929 H1935 0.959 . S
C1929 H1936 0.961 . S
C1929 H1937 0.960 . S
C1930 C1928 1.381 . S
C1930 C1931 1.394 . S
C1930 H1938 0.930 . S
C1931 C1930 1.394 . S
C1931 C1932 1.383 . S
C1931 H1939 0.929 . S
C1932 C1931 1.383 . S
C1932 C1933 1.377 . S
C1933 H1917 0.930 . S
C1933 C1932 1.377 . S
C1933 C1934 1.379 . S
C1934 H1918 0.931 . S
C1934 C1928 1.383 . S
C1934 C1933 1.379 . S
H1935 C1929 0.959 . S
H1936 C1929 0.961 . S
H1937 C1929 0.960 . S
H1938 C1930 0.930 . S
H1939 C1931 0.929 . S
H1940 C1948 0.929 . S
H1941 C1950 0.930 . S
H1942 C1952 0.930 . S
H1943 C1955 0.929 . S
H1944 C1958 0.930 . S
H1945 C1960 0.960 . S
H1946 C1960 0.960 . S
H1947 C1960 0.960 . S
C1948 H1940 0.929 . S
C1948 C1949 1.377 . S
C1948 C1950 1.384 . S
C1949 C1948 1.377 . S
C1949 C1955 1.390 . S
C1950 H1941 0.930 . S
C1950 C1948 1.384 . S
C1950 C1951 1.372 . S
C1951 C1950 1.372 . S
C1951 C1952 1.400 . S
C1951 C1956 1.490 . S
C1952 H1942 0.930 . S
C1952 C1951 1.400 . S
C1952 C1955 1.386 . S
H1953 C1969 0.930 . S
H1954 C1970 0.931 . S
C1955 H1943 0.929 . S
C1955 C1949 1.390 . S
C1955 C1952 1.386 . S
C1956 C1951 1.490 . S
C1956 C1958 1.395 . S
C1956 C1959 1.403 . S
H1957 C1963 0.930 . S
C1958 H1944 0.930 . S
C1958 C1956 1.395 . S
C1958 C1961 1.403 . S
C1959 C1956 1.403 . S
C1959 C1960 1.524 . S
C1959 C1963 1.400 . S
C1960 H1945 0.960 . S
C1960 H1946 0.960 . S
C1960 H1947 0.960 . S
C1960 C1959 1.524 . S
C1961 C1958 1.403 . S
C1961 C1962 1.392 . S
C1961 C1965 1.495 . S
C1962 C1961 1.392 . S
C1962 C1963 1.385 . S
C1962 C1964 1.478 . S
C1963 H1957 0.930 . S
C1963 C1959 1.400 . S
C1963 C1962 1.385 . S
C1964 C1962 1.478 . S
C1964 C1966 1.381 . S
C1964 C1970 1.383 . S
C1965 C1961 1.495 . S
C1965 H1971 0.959 . S
C1965 H1972 0.961 . S
C1965 H1973 0.960 . S
C1966 C1964 1.381 . S
C1966 C1967 1.394 . S
C1966 H1974 0.930 . S
C1967 C1966 1.394 . S
C1967 C1968 1.383 . S
C1967 H1975 0.929 . S
C1968 C1967 1.383 . S
C1968 C1969 1.377 . S
C1969 H1953 0.930 . S
C1969 C1968 1.377 . S
C1969 C1970 1.379 . S
C1970 H1954 0.931 . S
C1970 C1964 1.383 . S
C1970 C1969 1.379 . S
H1971 C1965 0.959 . S
H1972 C1965 0.961 . S
H1973 C1965 0.960 . S
H1974 C1966 0.930 . S
H1975 C1967 0.929 . S
H1976 C1984 0.929 . S
H1977 C1986 0.930 . S
H1978 C1988 0.930 . S
H1979 C1991 0.929 . S
H1980 C1994 0.930 . S
H1981 C1996 0.960 . S
H1982 C1996 0.960 . S
H1983 C1996 0.960 . S
C1984 H1976 0.929 . S
C1984 C1985 1.377 . S
C1984 C1986 1.384 . S
C1985 C1984 1.377 . S
C1985 C1991 1.390 . S
C1986 H1977 0.930 . S
C1986 C1984 1.384 . S
C1986 C1987 1.372 . S
C1987 C1986 1.372 . S
C1987 C1988 1.400 . S
C1987 C1992 1.490 . S
C1988 H1978 0.930 . S
C1988 C1987 1.400 . S
C1988 C1991 1.386 . S
H1989 C2005 0.930 . S
H1990 C2006 0.931 . S
C1991 H1979 0.929 . S
C1991 C1985 1.390 . S
C1991 C1988 1.386 . S
C1992 C1987 1.490 . S
C1992 C1994 1.395 . S
C1992 C1995 1.403 . S
H1993 C1999 0.930 . S
C1994 H1980 0.930 . S
C1994 C1992 1.395 . S
C1994 C1997 1.403 . S
C1995 C1992 1.403 . S
C1995 C1996 1.524 . S
C1995 C1999 1.400 . S
C1996 H1981 0.960 . S
C1996 H1982 0.960 . S
C1996 H1983 0.960 . S
C1996 C1995 1.524 . S
C1997 C1994 1.403 . S
C1997 C1998 1.392 . S
C1997 C2001 1.495 . S
C1998 C1997 1.392 . S
C1998 C1999 1.385 . S
C1998 C2000 1.478 . S
C1999 H1993 0.930 . S
C1999 C1995 1.400 . S
C1999 C1998 1.385 . S
C2000 C1998 1.478 . S
C2000 C2002 1.381 . S
C2000 C2006 1.383 . S
C2001 C1997 1.495 . S
C2001 H2007 0.959 . S
C2001 H2008 0.961 . S
C2001 H2009 0.960 . S
C2002 C2000 1.381 . S
C2002 C2003 1.394 . S
C2002 H2010 0.930 . S
C2003 C2002 1.394 . S
C2003 C2004 1.383 . S
C2003 H2011 0.929 . S
C2004 C2003 1.383 . S
C2004 C2005 1.377 . S
C2005 H1989 0.930 . S
C2005 C2004 1.377 . S
C2005 C2006 1.379 . S
C2006 H1990 0.931 . S
C2006 C2000 1.383 . S
C2006 C2005 1.379 . S
H2007 C2001 0.959 . S
H2008 C2001 0.961 . S
H2009 C2001 0.960 . S
H2010 C2002 0.930 . S
H2011 C2003 0.929 . S
H2012 C2020 0.929 . S
H2013 C2022 0.930 . S
H2014 C2024 0.930 . S
H2015 C2027 0.929 . S
H2016 C2030 0.930 . S
H2017 C2032 0.960 . S
H2018 C2032 0.960 . S
H2019 C2032 0.960 . S
C2020 H2012 0.929 . S
C2020 C2021 1.377 . S
C2020 C2022 1.384 . S
C2021 C2020 1.377 . S
C2021 C2027 1.390 . S
C2022 H2013 0.930 . S
C2022 C2020 1.384 . S
C2022 C2023 1.372 . S
C2023 C2022 1.372 . S
C2023 C2024 1.400 . S
C2023 C2028 1.490 . S
C2024 H2014 0.930 . S
C2024 C2023 1.400 . S
C2024 C2027 1.386 . S
H2025 C2041 0.930 . S
H2026 C2042 0.931 . S
C2027 H2015 0.929 . S
C2027 C2021 1.390 . S
C2027 C2024 1.386 . S
C2028 C2023 1.490 . S
C2028 C2030 1.395 . S
C2028 C2031 1.403 . S
H2029 C2035 0.930 . S
C2030 H2016 0.930 . S
C2030 C2028 1.395 . S
C2030 C2033 1.403 . S
C2031 C2028 1.403 . S
C2031 C2032 1.524 . S
C2031 C2035 1.400 . S
C2032 H2017 0.960 . S
C2032 H2018 0.960 . S
C2032 H2019 0.960 . S
C2032 C2031 1.524 . S
C2033 C2030 1.403 . S
C2033 C2034 1.392 . S
C2033 C2037 1.495 . S
C2034 C2033 1.392 . S
C2034 C2035 1.385 . S
C2034 C2036 1.478 . S
C2035 H2029 0.930 . S
C2035 C2031 1.400 . S
C2035 C2034 1.385 . S
C2036 C2034 1.478 . S
C2036 C2038 1.381 . S
C2036 C2042 1.383 . S
C2037 C2033 1.495 . S
C2037 H2043 0.959 . S
C2037 H2044 0.961 . S
C2037 H2045 0.960 . S
C2038 C2036 1.381 . S
C2038 C2039 1.394 . S
C2038 H2046 0.930 . S
C2039 C2038 1.394 . S
C2039 C2040 1.383 . S
C2039 H2047 0.929 . S
C2040 C2039 1.383 . S
C2040 C2041 1.377 . S
C2041 H2025 0.930 . S
C2041 C2040 1.377 . S
C2041 C2042 1.379 . S
C2042 H2026 0.931 . S
C2042 C2036 1.383 . S
C2042 C2041 1.379 . S
H2043 C2037 0.959 . S
H2044 C2037 0.961 . S
H2045 C2037 0.960 . S
H2046 C2038 0.930 . S
H2047 C2039 0.929 . S
H2048 C2056 0.929 . S
H2049 C2058 0.930 . S
H2050 C2060 0.930 . S
H2051 C2063 0.929 . S
H2052 C2066 0.930 . S
H2053 C2068 0.960 . S
H2054 C2068 0.960 . S
H2055 C2068 0.960 . S
C2056 H2048 0.929 . S
C2056 C2057 1.377 . S
C2056 C2058 1.384 . S
C2057 C2056 1.377 . S
C2057 C2063 1.390 . S
C2058 H2049 0.930 . S
C2058 C2056 1.384 . S
C2058 C2059 1.372 . S
C2059 C2058 1.372 . S
C2059 C2060 1.400 . S
C2059 C2064 1.490 . S
C2060 H2050 0.930 . S
C2060 C2059 1.400 . S
C2060 C2063 1.386 . S
H2061 C2077 0.930 . S
H2062 C2078 0.931 . S
C2063 H2051 0.929 . S
C2063 C2057 1.390 . S
C2063 C2060 1.386 . S
C2064 C2059 1.490 . S
C2064 C2066 1.395 1_455 S
C2064 C2067 1.403 . S
H2065 C2071 0.930 . S
C2066 H2052 0.930 . S
C2066 C2064 1.395 1_655 S
C2066 C2069 1.403 . S
C2067 C2064 1.403 . S
C2067 C2068 1.524 . S
C2067 C2071 1.400 . S
C2068 H2053 0.960 . S
C2068 H2054 0.960 . S
C2068 H2055 0.960 . S
C2068 C2067 1.524 . S
C2069 C2066 1.403 . S
C2069 C2070 1.392 1_655 S
C2069 C2073 1.495 . S
C2070 C2069 1.392 1_455 S
C2070 C2071 1.385 . S
C2070 C2072 1.478 . S
C2071 H2065 0.930 . S
C2071 C2067 1.400 . S
C2071 C2070 1.385 . S
C2072 C2070 1.478 . S
C2072 C2074 1.381 . S
C2072 C2078 1.383 . S
C2073 C2069 1.495 . S
C2073 H2079 0.959 . S
C2073 H2080 0.961 . S
C2073 H2081 0.960 . S
C2074 C2072 1.381 . S
C2074 C2075 1.394 . S
C2074 H2082 0.932 . S
C2075 C2074 1.394 . S
C2075 C2076 1.383 . S
C2075 H2083 0.935 1_554 S
C2076 C2075 1.383 . S
C2076 C2077 1.377 . S
C2077 H2061 0.930 . S
C2077 C2076 1.377 . S
C2077 C2078 1.379 . S
C2078 H2062 0.931 . S
C2078 C2072 1.383 . S
C2078 C2077 1.379 . S
H2079 C2073 0.959 . S
H2080 C2073 0.961 . S
H2081 C2073 0.960 . S
H2082 C2074 0.932 . S
H2083 C2075 0.935 1_556 S
H2084 C2092 0.929 . S
H2085 C2094 0.930 . S
H2086 C2096 0.930 . S
H2087 C2099 0.929 . S
H2088 C2102 0.930 . S
H2089 C2104 0.960 . S
H2090 C2104 0.960 . S
H2091 C2104 0.960 . S
C2092 H2084 0.929 . S
C2092 C2093 1.377 . S
C2092 C2094 1.384 . S
C2093 C2092 1.377 . S
C2093 C2099 1.390 . S
C2094 H2085 0.930 . S
C2094 C2092 1.384 . S
C2094 C2095 1.372 . S
C2095 C2094 1.372 . S
C2095 C2096 1.400 . S
C2095 C2100 1.490 . S
C2096 H2086 0.930 . S
C2096 C2095 1.400 . S
C2096 C2099 1.386 . S
H2097 C2113 0.930 . S
H2098 C2114 0.931 . S
C2099 H2087 0.929 . S
C2099 C2093 1.390 . S
C2099 C2096 1.386 . S
C2100 C2095 1.490 . S
C2100 C2102 1.395 . S
C2100 C2103 1.403 . S
H2101 C2107 0.930 . S
C2102 H2088 0.930 . S
C2102 C2100 1.395 . S
C2102 C2105 1.403 . S
C2103 C2100 1.403 . S
C2103 C2104 1.524 . S
C2103 C2107 1.400 . S
C2104 H2089 0.960 . S
C2104 H2090 0.960 . S
C2104 H2091 0.960 . S
C2104 C2103 1.524 . S
C2105 C2102 1.403 . S
C2105 C2106 1.392 . S
C2105 C2109 1.495 . S
C2106 C2105 1.392 . S
C2106 C2107 1.385 . S
C2106 C2108 1.478 . S
C2107 H2101 0.930 . S
C2107 C2103 1.400 . S
C2107 C2106 1.385 . S
C2108 C2106 1.478 . S
C2108 C2110 1.381 . S
C2108 C2114 1.383 . S
C2109 C2105 1.495 . S
C2109 H2115 0.959 . S
C2109 H2116 0.961 . S
C2109 H2117 0.960 . S
C2110 C2108 1.381 . S
C2110 C2111 1.394 . S
C2110 H2118 0.930 . S
C2111 C2110 1.394 . S
C2111 C2112 1.383 . S
C2111 H2119 0.929 . S
C2112 C2111 1.383 . S
C2112 C2113 1.377 . S
C2113 H2097 0.930 . S
C2113 C2112 1.377 . S
C2113 C2114 1.379 . S
C2114 H2098 0.931 . S
C2114 C2108 1.383 . S
C2114 C2113 1.379 . S
H2115 C2109 0.959 . S
H2116 C2109 0.961 . S
H2117 C2109 0.960 . S
H2118 C2110 0.930 . S
H2119 C2111 0.929 . S
H2120 C2128 0.929 . S
H2121 C2130 0.930 . S
H2122 C2132 0.930 . S
H2123 C2135 0.929 . S
H2124 C2138 0.930 . S
H2125 C2140 0.960 . S
H2126 C2140 0.960 . S
H2127 C2140 0.960 . S
C2128 H2120 0.929 . S
C2128 C2129 1.377 . S
C2128 C2130 1.384 . S
C2129 C2128 1.377 . S
C2129 C2135 1.390 . S
C2130 H2121 0.930 . S
C2130 C2128 1.384 . S
C2130 C2131 1.372 . S
C2131 C2130 1.372 . S
C2131 C2132 1.400 . S
C2131 C2136 1.490 . S
C2132 H2122 0.930 . S
C2132 C2131 1.400 . S
C2132 C2135 1.386 . S
H2133 C2149 0.930 . S
H2134 C2150 0.931 . S
C2135 H2123 0.929 . S
C2135 C2129 1.390 . S
C2135 C2132 1.386 . S
C2136 C2131 1.490 . S
C2136 C2138 1.395 . S
C2136 C2139 1.403 . S
H2137 C2143 0.930 . S
C2138 H2124 0.930 . S
C2138 C2136 1.395 . S
C2138 C2141 1.403 . S
C2139 C2136 1.403 . S
C2139 C2140 1.524 . S
C2139 C2143 1.400 . S
C2140 H2125 0.960 . S
C2140 H2126 0.960 . S
C2140 H2127 0.960 . S
C2140 C2139 1.524 . S
C2141 C2138 1.403 . S
C2141 C2142 1.392 . S
C2141 C2145 1.495 . S
C2142 C2141 1.392 . S
C2142 C2143 1.385 . S
C2142 C2144 1.478 . S
C2143 H2137 0.930 . S
C2143 C2139 1.400 . S
C2143 C2142 1.385 . S
C2144 C2142 1.478 . S
C2144 C2146 1.381 . S
C2144 C2150 1.383 . S
C2145 C2141 1.495 . S
C2145 H2151 0.959 . S
C2145 H2152 0.961 . S
C2145 H2153 0.960 . S
C2146 C2144 1.381 . S
C2146 C2147 1.394 . S
C2146 H2154 0.930 . S
C2147 C2146 1.394 . S
C2147 C2148 1.383 . S
C2147 H2155 0.929 . S
C2148 C2147 1.383 . S
C2148 C2149 1.377 . S
C2149 H2133 0.930 . S
C2149 C2148 1.377 . S
C2149 C2150 1.379 . S
C2150 H2134 0.931 . S
C2150 C2144 1.383 . S
C2150 C2149 1.379 . S
H2151 C2145 0.959 . S
H2152 C2145 0.961 . S
H2153 C2145 0.960 . S
H2154 C2146 0.930 . S
H2155 C2147 0.929 . S
H2156 C2164 0.929 . S
H2157 C2166 0.930 . S
H2158 C2168 0.930 . S
H2159 C2171 0.929 . S
H2160 C2174 0.930 . S
H2161 C2176 0.960 . S
H2162 C2176 0.960 . S
H2163 C2176 0.960 . S
C2164 H2156 0.929 . S
C2164 C2165 1.377 . S
C2164 C2166 1.384 . S
C2165 C2164 1.377 . S
C2165 C2171 1.390 . S
C2166 H2157 0.930 . S
C2166 C2164 1.384 . S
C2166 C2167 1.372 . S
C2167 C2166 1.372 . S
C2167 C2168 1.400 . S
C2167 C2172 1.490 . S
C2168 H2158 0.930 . S
C2168 C2167 1.400 . S
C2168 C2171 1.386 . S
H2169 C2185 0.930 . S
H2170 C2186 0.931 . S
C2171 H2159 0.929 . S
C2171 C2165 1.390 . S
C2171 C2168 1.386 . S
C2172 C2167 1.490 . S
C2172 C2174 1.395 . S
C2172 C2175 1.403 . S
H2173 C2179 0.930 . S
C2174 H2160 0.930 . S
C2174 C2172 1.395 . S
C2174 C2177 1.403 . S
C2175 C2172 1.403 . S
C2175 C2176 1.524 . S
C2175 C2179 1.400 . S
C2176 H2161 0.960 . S
C2176 H2162 0.960 . S
C2176 H2163 0.960 . S
C2176 C2175 1.524 . S
C2177 C2174 1.403 . S
C2177 C2178 1.392 . S
C2177 C2181 1.495 . S
C2178 C2177 1.392 . S
C2178 C2179 1.385 . S
C2178 C2180 1.478 . S
C2179 H2173 0.930 . S
C2179 C2175 1.400 . S
C2179 C2178 1.385 . S
C2180 C2178 1.478 . S
C2180 C2182 1.381 . S
C2180 C2186 1.383 . S
C2181 C2177 1.495 . S
C2181 H2187 0.959 . S
C2181 H2188 0.961 . S
C2181 H2189 0.960 . S
C2182 C2180 1.381 . S
C2182 C2183 1.394 . S
C2182 H2190 0.930 . S
C2183 C2182 1.394 . S
C2183 C2184 1.383 . S
C2183 H2191 0.929 . S
C2184 C2183 1.383 . S
C2184 C2185 1.377 . S
C2185 H2169 0.930 . S
C2185 C2184 1.377 . S
C2185 C2186 1.379 . S
C2186 H2170 0.931 . S
C2186 C2180 1.383 . S
C2186 C2185 1.379 . S
H2187 C2181 0.959 . S
H2188 C2181 0.961 . S
H2189 C2181 0.960 . S
H2190 C2182 0.930 . S
H2191 C2183 0.929 . S
H2192 C2200 0.929 . S
H2193 C2202 0.930 . S
H2194 C2204 0.930 . S
H2195 C2207 0.929 . S
H2196 C2210 0.950 . S
H2197 C2212 0.960 . S
H2198 C2212 0.960 . S
H2199 C2212 0.960 . S
C2200 H2192 0.929 . S
C2200 C2201 1.377 . S
C2200 C2202 1.384 . S
C2201 C2200 1.377 . S
C2201 C2207 1.390 1_455 S
C2202 H2193 0.930 . S
C2202 C2200 1.384 . S
C2202 C2203 1.372 . S
C2203 C2202 1.372 . S
C2203 C2204 1.400 1_455 S
C2203 C2208 1.490 . S
C2204 H2194 0.930 . S
C2204 C2203 1.400 1_655 S
C2204 C2207 1.386 . S
H2205 C2221 0.930 . S
H2206 C2222 0.931 . S
C2207 H2195 0.929 . S
C2207 C2201 1.390 1_655 S
C2207 C2204 1.386 . S
C2208 C2203 1.490 . S
C2208 C2210 1.377 1_455 S
C2208 C2211 1.403 . S
H2209 C2215 0.930 . S
C2210 H2196 0.950 . S
C2210 C2208 1.377 1_655 S
C2210 C2213 1.404 . S
C2211 C2208 1.403 . S
C2211 C2212 1.524 . S
C2211 C2215 1.400 . S
C2212 H2197 0.960 . S
C2212 H2198 0.960 . S
C2212 H2199 0.960 . S
C2212 C2211 1.524 . S
C2213 C2210 1.404 . S
C2213 C2214 1.392 1_655 S
C2213 C2217 1.495 . S
C2214 C2213 1.392 1_455 S
C2214 C2215 1.385 . S
C2214 C2216 1.478 1_455 S
C2215 H2209 0.930 . S
C2215 C2211 1.400 . S
C2215 C2214 1.385 . S
C2216 C2214 1.478 1_655 S
C2216 C2218 1.381 1_655 S
C2216 C2222 1.383 . S
C2217 C2213 1.495 . S
C2217 H2223 0.959 . S
C2217 H2224 0.961 . S
C2217 H2225 0.984 . S
C2218 C2216 1.381 1_455 S
C2218 C2219 1.394 . S
C2218 H2226 0.930 . S
C2219 C2218 1.394 . S
C2219 C2220 1.383 1_455 S
C2219 H2227 0.929 . S
C2220 C2219 1.383 1_655 S
C2220 C2221 1.377 . S
C2221 H2205 0.930 . S
C2221 C2220 1.377 . S
C2221 C2222 1.379 . S
C2222 H2206 0.931 . S
C2222 C2216 1.383 . S
C2222 C2221 1.379 . S
H2223 C2217 0.959 . S
H2224 C2217 0.961 . S
H2225 C2217 0.984 . S
H2226 C2218 0.930 . S
H2227 C2219 0.929 . S
H2228 C2236 0.929 . S
H2229 C2238 0.930 . S
H2230 C2240 0.930 . S
H2231 C2243 0.929 . S
H2232 C2246 0.930 . S
H2233 C2248 0.960 . S
H2234 C2248 0.960 . S
H2235 C2248 0.960 . S
C2236 H2228 0.929 . S
C2236 C2237 1.377 . S
C2236 C2238 1.384 . S
C2237 C2236 1.377 . S
C2237 C2243 1.390 . S
C2238 H2229 0.930 . S
C2238 C2236 1.384 . S
C2238 C2239 1.372 . S
C2239 C2238 1.372 . S
C2239 C2240 1.400 . S
C2239 C2244 1.490 . S
C2240 H2230 0.930 . S
C2240 C2239 1.400 . S
C2240 C2243 1.386 . S
H2241 C2257 0.930 . S
H2242 C2258 0.931 . S
C2243 H2231 0.929 . S
C2243 C2237 1.390 . S
C2243 C2240 1.386 . S
C2244 C2239 1.490 . S
C2244 C2246 1.395 . S
C2244 C2247 1.403 . S
H2245 C2251 0.930 . S
C2246 H2232 0.930 . S
C2246 C2244 1.395 . S
C2246 C2249 1.403 . S
C2247 C2244 1.403 . S
C2247 C2248 1.524 . S
C2247 C2251 1.400 . S
C2248 H2233 0.960 . S
C2248 H2234 0.960 . S
C2248 H2235 0.960 . S
C2248 C2247 1.524 . S
C2249 C2246 1.403 . S
C2249 C2250 1.392 . S
C2249 C2253 1.495 . S
C2250 C2249 1.392 . S
C2250 C2251 1.385 . S
C2250 C2252 1.478 . S
C2251 H2245 0.930 . S
C2251 C2247 1.400 . S
C2251 C2250 1.385 . S
C2252 C2250 1.478 . S
C2252 C2254 1.381 . S
C2252 C2258 1.383 . S
C2253 C2249 1.495 . S
C2253 H2259 0.959 . S
C2253 H2260 0.961 . S
C2253 H2261 0.960 . S
C2254 C2252 1.381 . S
C2254 C2255 1.394 . S
C2254 H2262 0.930 . S
C2255 C2254 1.394 . S
C2255 C2256 1.383 . S
C2255 H2263 0.929 . S
C2256 C2255 1.383 . S
C2256 C2257 1.377 . S
C2257 H2241 0.930 . S
C2257 C2256 1.377 . S
C2257 C2258 1.379 . S
C2258 H2242 0.931 . S
C2258 C2252 1.383 . S
C2258 C2257 1.379 . S
H2259 C2253 0.959 . S
H2260 C2253 0.961 . S
H2261 C2253 0.960 . S
H2262 C2254 0.930 . S
H2263 C2255 0.929 . S
H2264 C2272 0.929 . S
H2265 C2274 0.930 . S
H2266 C2276 0.930 . S
H2267 C2279 0.929 . S
H2268 C2282 0.930 . S
H2269 C2284 0.960 . S
H2270 C2284 0.960 . S
H2271 C2284 0.960 . S
C2272 H2264 0.929 . S
C2272 C2273 1.377 . S
C2272 C2274 1.384 . S
C2273 C2272 1.377 . S
C2273 C2279 1.390 . S
C2274 H2265 0.930 . S
C2274 C2272 1.384 . S
C2274 C2275 1.372 . S
C2275 C2274 1.372 . S
C2275 C2276 1.400 . S
C2275 C2280 1.490 . S
C2276 H2266 0.930 . S
C2276 C2275 1.400 . S
C2276 C2279 1.386 . S
H2277 C2293 0.930 . S
H2278 C2294 0.931 . S
C2279 H2267 0.929 . S
C2279 C2273 1.390 . S
C2279 C2276 1.386 . S
C2280 C2275 1.490 . S
C2280 C2282 1.395 . S
C2280 C2283 1.403 . S
H2281 C2287 0.930 . S
C2282 H2268 0.930 . S
C2282 C2280 1.395 . S
C2282 C2285 1.403 . S
C2283 C2280 1.403 . S
C2283 C2284 1.524 . S
C2283 C2287 1.400 . S
C2284 H2269 0.960 . S
C2284 H2270 0.960 . S
C2284 H2271 0.960 . S
C2284 C2283 1.524 . S
C2285 C2282 1.403 . S
C2285 C2286 1.392 . S
C2285 C2289 1.495 . S
C2286 C2285 1.392 . S
C2286 C2287 1.385 . S
C2286 C2288 1.478 . S
C2287 H2281 0.930 . S
C2287 C2283 1.400 . S
C2287 C2286 1.385 . S
C2288 C2286 1.478 . S
C2288 C2290 1.381 . S
C2288 C2294 1.383 . S
C2289 C2285 1.495 . S
C2289 H2295 0.959 . S
C2289 H2296 0.961 . S
C2289 H2297 0.960 . S
C2290 C2288 1.381 . S
C2290 C2291 1.394 . S
C2290 H2298 0.930 . S
C2291 C2290 1.394 . S
C2291 C2292 1.383 . S
C2291 H2299 0.929 1_556 S
C2292 C2291 1.383 . S
C2292 C2293 1.377 . S
C2293 H2277 0.930 . S
C2293 C2292 1.377 . S
C2293 C2294 1.379 . S
C2294 H2278 0.931 . S
C2294 C2288 1.383 . S
C2294 C2293 1.379 . S
H2295 C2289 0.959 . S
H2296 C2289 0.961 . S
H2297 C2289 0.960 . S
H2298 C2290 0.930 . S
H2299 C2291 0.929 1_554 S
H2300 C2308 0.929 . S
H2301 C2310 0.930 . S
H2302 C2312 0.930 . S
H2303 C2315 0.929 . S
H2304 C2318 0.930 . S
H2305 C2320 0.960 . S
H2306 C2320 0.960 . S
H2307 C2320 0.960 . S
C2308 H2300 0.929 . S
C2308 C2309 1.377 . S
C2308 C2310 1.384 . S
C2309 C2308 1.377 . S
C2309 C2315 1.390 . S
C2310 H2301 0.930 . S
C2310 C2308 1.384 . S
C2310 C2311 1.372 . S
C2311 C2310 1.372 . S
C2311 C2312 1.400 . S
C2311 C2316 1.490 . S
C2312 H2302 0.930 . S
C2312 C2311 1.400 . S
C2312 C2315 1.386 . S
H2313 C2329 0.930 . S
H2314 C2330 0.931 . S
C2315 H2303 0.929 . S
C2315 C2309 1.390 . S
C2315 C2312 1.386 . S
C2316 C2311 1.490 . S
C2316 C2318 1.395 . S
C2316 C2319 1.403 . S
H2317 C2323 0.930 . S
C2318 H2304 0.930 . S
C2318 C2316 1.395 . S
C2318 C2321 1.403 . S
C2319 C2316 1.403 . S
C2319 C2320 1.524 . S
C2319 C2323 1.400 . S
C2320 H2305 0.960 . S
C2320 H2306 0.960 . S
C2320 H2307 0.960 . S
C2320 C2319 1.524 . S
C2321 C2318 1.403 . S
C2321 C2322 1.392 . S
C2321 C2325 1.495 . S
C2322 C2321 1.392 . S
C2322 C2323 1.385 . S
C2322 C2324 1.478 . S
C2323 H2317 0.930 . S
C2323 C2319 1.400 . S
C2323 C2322 1.385 . S
C2324 C2322 1.478 . S
C2324 C2326 1.381 . S
C2324 C2330 1.383 . S
C2325 C2321 1.495 . S
C2325 H2331 0.959 . S
C2325 H2332 0.961 . S
C2325 H2333 0.960 . S
C2326 C2324 1.381 . S
C2326 C2327 1.394 . S
C2326 H2334 0.930 . S
C2327 C2326 1.394 . S
C2327 C2328 1.383 . S
C2327 H2335 0.929 . S
C2328 C2327 1.383 . S
C2328 C2329 1.377 . S
C2329 H2313 0.930 . S
C2329 C2328 1.377 . S
C2329 C2330 1.379 . S
C2330 H2314 0.931 . S
C2330 C2324 1.383 . S
C2330 C2329 1.379 . S
H2331 C2325 0.959 . S
H2332 C2325 0.961 . S
H2333 C2325 0.960 . S
H2334 C2326 0.930 . S
H2335 C2327 0.929 . S
H2336 C2344 0.929 . S
H2337 C2346 0.930 . S
H2338 C2348 0.930 . S
H2339 C2351 0.929 . S
H2340 C2354 0.930 . S
H2341 C2356 0.960 . S
H2342 C2356 0.960 . S
H2343 C2356 0.960 . S
C2344 H2336 0.929 . S
C2344 C2345 1.392 . S
C2344 C2346 1.384 . S
C2345 C2344 1.392 . S
C2345 C2351 1.375 1_565 S
C2346 H2337 0.930 . S
C2346 C2344 1.384 . S
C2346 C2347 1.345 1_565 S
C2347 C2346 1.345 1_545 S
C2347 C2348 1.425 . S
C2347 C2352 1.495 . S
C2348 H2338 0.930 . S
C2348 C2347 1.425 . S
C2348 C2351 1.386 . S
H2349 C2365 0.930 . S
H2350 C2366 0.931 . S
C2351 H2339 0.929 . S
C2351 C2345 1.375 1_545 S
C2351 C2348 1.386 . S
C2352 C2347 1.495 . S
C2352 C2354 1.395 . S
C2352 C2355 1.403 1_545 S
H2353 C2359 0.930 . S
C2354 H2340 0.930 . S
C2354 C2352 1.395 . S
C2354 C2357 1.403 . S
C2355 C2352 1.403 1_565 S
C2355 C2356 1.524 . S
C2355 C2359 1.400 . S
C2356 H2341 0.960 . S
C2356 H2342 0.960 . S
C2356 H2343 0.960 . S
C2356 C2355 1.524 . S
C2357 C2354 1.403 . S
C2357 C2358 1.392 . S
C2357 C2361 1.495 . S
C2358 C2357 1.392 . S
C2358 C2359 1.385 1_545 S
C2358 C2360 1.478 . S
C2359 H2353 0.930 . S
C2359 C2355 1.400 . S
C2359 C2358 1.385 1_565 S
C2360 C2358 1.478 . S
C2360 C2362 1.397 . S
C2360 C2366 1.383 . S
C2361 C2357 1.495 . S
C2361 H2367 0.959 . S
C2361 H2368 0.961 . S
C2361 H2369 0.960 . S
C2362 C2360 1.397 . S
C2362 C2363 1.394 . S
C2362 H2370 0.914 1_545 S
C2363 C2362 1.394 . S
C2363 C2364 1.397 . S
C2363 H2371 0.917 1_545 S
C2364 C2363 1.397 . S
C2364 C2365 1.377 . S
C2365 H2349 0.930 . S
C2365 C2364 1.377 . S
C2365 C2366 1.379 . S
C2366 H2350 0.931 . S
C2366 C2360 1.383 . S
C2366 C2365 1.379 . S
H2367 C2361 0.959 . S
H2368 C2361 0.961 . S
H2369 C2361 0.960 . S
H2370 C2362 0.914 1_565 S
H2371 C2363 0.917 1_565 S
H2372 C2380 0.929 . S
H2373 C2382 0.930 . S
H2374 C2384 0.930 . S
H2375 C2387 0.929 . S
H2376 C2390 0.930 . S
H2377 C2392 0.960 . S
H2378 C2392 0.960 . S
H2379 C2392 0.960 . S
C2380 H2372 0.929 . S
C2380 C2381 1.377 . S
C2380 C2382 1.384 . S
C2381 C2380 1.377 . S
C2381 C2387 1.390 . S
C2382 H2373 0.930 . S
C2382 C2380 1.384 . S
C2382 C2383 1.372 . S
C2383 C2382 1.372 . S
C2383 C2384 1.400 . S
C2383 C2388 1.490 . S
C2384 H2374 0.930 . S
C2384 C2383 1.400 . S
C2384 C2387 1.386 . S
H2385 C2401 0.930 . S
H2386 C2402 0.931 . S
C2387 H2375 0.929 . S
C2387 C2381 1.390 . S
C2387 C2384 1.386 . S
C2388 C2383 1.490 . S
C2388 C2390 1.395 . S
C2388 C2391 1.403 . S
H2389 C2395 0.930 . S
C2390 H2376 0.930 . S
C2390 C2388 1.395 . S
C2390 C2393 1.403 . S
C2391 C2388 1.403 . S
C2391 C2392 1.524 . S
C2391 C2395 1.400 . S
C2392 H2377 0.960 . S
C2392 H2378 0.960 . S
C2392 H2379 0.960 . S
C2392 C2391 1.524 . S
C2393 C2390 1.403 . S
C2393 C2394 1.392 . S
C2393 C2397 1.495 . S
C2394 C2393 1.392 . S
C2394 C2395 1.385 . S
C2394 C2396 1.478 . S
C2395 H2389 0.930 . S
C2395 C2391 1.400 . S
C2395 C2394 1.385 . S
C2396 C2394 1.478 . S
C2396 C2398 1.381 . S
C2396 C2402 1.383 . S
C2397 C2393 1.495 . S
C2397 H2403 0.959 . S
C2397 H2404 0.961 . S
C2397 H2405 0.960 . S
C2398 C2396 1.381 . S
C2398 C2399 1.394 . S
C2398 H2406 0.930 . S
C2399 C2398 1.394 . S
C2399 C2400 1.383 . S
C2399 H2407 0.929 . S
C2400 C2399 1.383 . S
C2400 C2401 1.377 . S
C2401 H2385 0.930 . S
C2401 C2400 1.377 . S
C2401 C2402 1.379 . S
C2402 H2386 0.931 . S
C2402 C2396 1.383 . S
C2402 C2401 1.379 . S
H2403 C2397 0.959 . S
H2404 C2397 0.961 . S
H2405 C2397 0.960 . S
H2406 C2398 0.930 . S
H2407 C2399 0.929 . S
H2408 C2416 0.929 . S
H2409 C2418 0.930 . S
H2410 C2420 0.930 . S
H2411 C2423 0.929 . S
H2412 C2426 0.930 . S
H2413 C2428 0.960 . S
H2414 C2428 0.960 . S
H2415 C2428 0.960 . S
C2416 H2408 0.929 . S
C2416 C2417 1.377 . S
C2416 C2418 1.384 . S
C2417 C2416 1.377 . S
C2417 C2423 1.390 . S
C2418 H2409 0.930 . S
C2418 C2416 1.384 . S
C2418 C2419 1.372 . S
C2419 C2418 1.372 . S
C2419 C2420 1.400 . S
C2419 C2424 1.490 . S
C2420 H2410 0.930 . S
C2420 C2419 1.400 . S
C2420 C2423 1.386 . S
H2421 C2437 0.930 . S
H2422 C2438 0.931 . S
C2423 H2411 0.929 . S
C2423 C2417 1.390 . S
C2423 C2420 1.386 . S
C2424 C2419 1.490 . S
C2424 C2426 1.395 . S
C2424 C2427 1.403 . S
H2425 C2431 0.930 . S
C2426 H2412 0.930 . S
C2426 C2424 1.395 . S
C2426 C2429 1.403 . S
C2427 C2424 1.403 . S
C2427 C2428 1.524 . S
C2427 C2431 1.400 . S
C2428 H2413 0.960 . S
C2428 H2414 0.960 . S
C2428 H2415 0.960 . S
C2428 C2427 1.524 . S
C2429 C2426 1.403 . S
C2429 C2430 1.392 . S
C2429 C2433 1.495 . S
C2430 C2429 1.392 . S
C2430 C2431 1.385 . S
C2430 C2432 1.478 . S
C2431 H2425 0.930 . S
C2431 C2427 1.400 . S
C2431 C2430 1.385 . S
C2432 C2430 1.478 . S
C2432 C2434 1.381 . S
C2432 C2438 1.383 . S
C2433 C2429 1.495 . S
C2433 H2439 0.959 . S
C2433 H2440 0.961 . S
C2433 H2441 0.960 . S
C2434 C2432 1.381 . S
C2434 C2435 1.394 . S
C2434 H2442 0.930 . S
C2435 C2434 1.394 . S
C2435 C2436 1.383 . S
C2435 H2443 0.929 . S
C2436 C2435 1.383 . S
C2436 C2437 1.377 . S
C2437 H2421 0.930 . S
C2437 C2436 1.377 . S
C2437 C2438 1.379 . S
C2438 H2422 0.931 . S
C2438 C2432 1.383 . S
C2438 C2437 1.379 . S
H2439 C2433 0.959 . S
H2440 C2433 0.961 . S
H2441 C2433 0.960 . S
H2442 C2434 0.930 . S
H2443 C2435 0.929 . S
H2444 C2452 0.929 . S
H2445 C2454 0.930 . S
H2446 C2456 0.930 . S
H2447 C2459 0.929 . S
H2448 C2462 0.930 . S
H2449 C2464 0.960 . S
H2450 C2464 0.960 . S
H2451 C2464 0.960 . S
C2452 H2444 0.929 . S
C2452 C2453 1.377 . S
C2452 C2454 1.384 . S
C2453 C2452 1.377 . S
C2453 C2459 1.390 . S
C2454 H2445 0.930 . S
C2454 C2452 1.384 . S
C2454 C2455 1.372 . S
C2455 C2454 1.372 . S
C2455 C2456 1.400 . S
C2455 C2460 1.490 . S
C2456 H2446 0.930 . S
C2456 C2455 1.400 . S
C2456 C2459 1.386 . S
H2457 C2473 0.930 . S
H2458 C2474 0.931 . S
C2459 H2447 0.929 . S
C2459 C2453 1.390 . S
C2459 C2456 1.386 . S
C2460 C2455 1.490 . S
C2460 C2462 1.395 . S
C2460 C2463 1.403 . S
H2461 C2467 0.930 . S
C2462 H2448 0.930 . S
C2462 C2460 1.395 . S
C2462 C2465 1.403 . S
C2463 C2460 1.403 . S
C2463 C2464 1.524 . S
C2463 C2467 1.400 . S
C2464 H2449 0.960 . S
C2464 H2450 0.960 . S
C2464 H2451 0.960 . S
C2464 C2463 1.524 . S
C2465 C2462 1.403 . S
C2465 C2466 1.392 . S
C2465 C2469 1.495 . S
C2466 C2465 1.392 . S
C2466 C2467 1.385 . S
C2466 C2468 1.478 . S
C2467 H2461 0.930 . S
C2467 C2463 1.400 . S
C2467 C2466 1.385 . S
C2468 C2466 1.478 . S
C2468 C2470 1.381 . S
C2468 C2474 1.383 . S
C2469 C2465 1.495 . S
C2469 H2475 0.959 . S
C2469 H2476 0.961 . S
C2469 H2477 0.960 . S
C2470 C2468 1.381 . S
C2470 C2471 1.394 . S
C2470 H2478 0.930 . S
C2471 C2470 1.394 . S
C2471 C2472 1.383 . S
C2471 H2479 0.929 . S
C2472 C2471 1.383 . S
C2472 C2473 1.377 . S
C2473 H2457 0.930 . S
C2473 C2472 1.377 . S
C2473 C2474 1.379 . S
C2474 H2458 0.931 . S
C2474 C2468 1.383 . S
C2474 C2473 1.379 . S
H2475 C2469 0.959 . S
H2476 C2469 0.961 . S
H2477 C2469 0.960 . S
H2478 C2470 0.930 . S
H2479 C2471 0.929 . S
H2480 C2488 0.929 . S
H2481 C2490 0.930 . S
H2482 C2492 0.930 . S
H2483 C2495 0.929 . S
H2484 C2498 0.906 1_565 S
H2485 C2500 0.960 . S
H2486 C2500 0.960 . S
H2487 C2500 0.960 . S
C2488 H2480 0.929 . S
C2488 C2489 1.377 1_545 S
C2488 C2490 1.384 . S
C2489 C2488 1.377 1_565 S
C2489 C2495 1.390 . S
C2490 H2481 0.930 . S
C2490 C2488 1.384 . S
C2490 C2491 1.372 . S
C2491 C2490 1.372 . S
C2491 C2492 1.400 1_545 S
C2491 C2496 1.490 . S
C2492 H2482 0.930 . S
C2492 C2491 1.400 1_565 S
C2492 C2495 1.386 . S
H2493 C2509 0.930 . S
H2494 C2510 0.931 1_565 S
C2495 H2483 0.929 . S
C2495 C2489 1.390 . S
C2495 C2492 1.386 . S
C2496 C2491 1.490 . S
C2496 C2498 1.408 . S
C2496 C2499 1.403 . S
H2497 C2503 0.930 . S
C2498 H2484 0.906 1_545 S
C2498 C2496 1.408 . S
C2498 C2501 1.415 . S
C2499 C2496 1.403 . S
C2499 C2500 1.524 . S
C2499 C2503 1.400 . S
C2500 H2485 0.960 . S
C2500 H2486 0.960 . S
C2500 H2487 0.960 . S
C2500 C2499 1.524 . S
C2501 C2498 1.415 . S
C2501 C2502 1.392 . S
C2501 C2505 1.495 1_545 S
C2502 C2501 1.392 . S
C2502 C2503 1.385 . S
C2502 C2504 1.478 . S
C2503 H2497 0.930 . S
C2503 C2499 1.400 . S
C2503 C2502 1.385 . S
C2504 C2502 1.478 . S
C2504 C2506 1.381 . S
C2504 C2510 1.383 . S
C2505 C2501 1.495 1_565 S
C2505 H2511 0.959 . S
C2505 H2512 0.961 . S
C2505 H2513 0.960 1_565 S
C2506 C2504 1.381 . S
C2506 C2507 1.394 . S
C2506 H2514 0.930 . S
C2507 C2506 1.394 . S
C2507 C2508 1.383 . S
C2507 H2515 0.929 . S
C2508 C2507 1.383 . S
C2508 C2509 1.377 . S
C2509 H2493 0.930 . S
C2509 C2508 1.377 . S
C2509 C2510 1.379 . S
C2510 H2494 0.931 1_545 S
C2510 C2504 1.383 . S
C2510 C2509 1.379 . S
H2511 C2505 0.959 . S
H2512 C2505 0.961 . S
H2513 C2505 0.960 1_545 S
H2514 C2506 0.930 . S
H2515 C2507 0.929 . S
H2516 C2524 0.929 . S
H2517 C2526 0.930 . S
H2518 C2528 0.930 . S
H2519 C2531 0.929 . S
H2520 C2534 0.930 . S
H2521 C2536 0.960 . S
H2522 C2536 0.960 . S
H2523 C2536 0.960 . S
C2524 H2516 0.929 . S
C2524 C2525 1.377 . S
C2524 C2526 1.384 . S
C2525 C2524 1.377 . S
C2525 C2531 1.390 . S
C2526 H2517 0.930 . S
C2526 C2524 1.384 . S
C2526 C2527 1.372 . S
C2527 C2526 1.372 . S
C2527 C2528 1.400 . S
C2527 C2532 1.490 . S
C2528 H2518 0.930 . S
C2528 C2527 1.400 . S
C2528 C2531 1.386 . S
H2529 C2545 0.930 . S
H2530 C2546 0.931 . S
C2531 H2519 0.929 . S
C2531 C2525 1.390 . S
C2531 C2528 1.386 . S
C2532 C2527 1.490 . S
C2532 C2534 1.395 . S
C2532 C2535 1.403 . S
H2533 C2539 0.930 . S
C2534 H2520 0.930 . S
C2534 C2532 1.395 . S
C2534 C2537 1.403 . S
C2535 C2532 1.403 . S
C2535 C2536 1.524 . S
C2535 C2539 1.400 . S
C2536 H2521 0.960 . S
C2536 H2522 0.960 . S
C2536 H2523 0.960 . S
C2536 C2535 1.524 . S
C2537 C2534 1.403 . S
C2537 C2538 1.392 . S
C2537 C2541 1.495 . S
C2538 C2537 1.392 . S
C2538 C2539 1.385 . S
C2538 C2540 1.478 . S
C2539 H2533 0.930 . S
C2539 C2535 1.400 . S
C2539 C2538 1.385 . S
C2540 C2538 1.478 . S
C2540 C2542 1.381 . S
C2540 C2546 1.383 . S
C2541 C2537 1.495 . S
C2541 H2547 0.959 . S
C2541 H2548 0.961 . S
C2541 H2549 0.960 . S
C2542 C2540 1.381 . S
C2542 C2543 1.394 . S
C2542 H2550 0.930 . S
C2543 C2542 1.394 . S
C2543 C2544 1.383 . S
C2543 H2551 0.929 . S
C2544 C2543 1.383 . S
C2544 C2545 1.377 . S
C2545 H2529 0.930 . S
C2545 C2544 1.377 . S
C2545 C2546 1.379 . S
C2546 H2530 0.931 . S
C2546 C2540 1.383 . S
C2546 C2545 1.379 . S
H2547 C2541 0.959 . S
H2548 C2541 0.961 . S
H2549 C2541 0.960 . S
H2550 C2542 0.930 . S
H2551 C2543 0.929 . S
H2552 C2560 0.929 . S
H2553 C2562 0.930 . S
H2554 C2564 0.930 . S
H2555 C2567 0.929 . S
H2556 C2570 0.930 . S
H2557 C2572 0.960 . S
H2558 C2572 0.960 . S
H2559 C2572 0.960 . S
C2560 H2552 0.929 . S
C2560 C2561 1.377 . S
C2560 C2562 1.384 . S
C2561 C2560 1.377 . S
C2561 C2567 1.390 . S
C2562 H2553 0.930 . S
C2562 C2560 1.384 . S
C2562 C2563 1.372 . S
C2563 C2562 1.372 . S
C2563 C2564 1.400 . S
C2563 C2568 1.490 . S
C2564 H2554 0.930 . S
C2564 C2563 1.400 . S
C2564 C2567 1.386 . S
H2565 C2581 0.930 . S
H2566 C2582 0.931 . S
C2567 H2555 0.929 . S
C2567 C2561 1.390 . S
C2567 C2564 1.386 . S
C2568 C2563 1.490 . S
C2568 C2570 1.395 . S
C2568 C2571 1.403 . S
H2569 C2575 0.930 . S
C2570 H2556 0.930 . S
C2570 C2568 1.395 . S
C2570 C2573 1.403 . S
C2571 C2568 1.403 . S
C2571 C2572 1.524 . S
C2571 C2575 1.400 . S
C2572 H2557 0.960 . S
C2572 H2558 0.960 . S
C2572 H2559 0.960 . S
C2572 C2571 1.524 . S
C2573 C2570 1.403 . S
C2573 C2574 1.392 . S
C2573 C2577 1.495 . S
C2574 C2573 1.392 . S
C2574 C2575 1.385 . S
C2574 C2576 1.478 . S
C2575 H2569 0.930 . S
C2575 C2571 1.400 . S
C2575 C2574 1.385 . S
C2576 C2574 1.478 . S
C2576 C2578 1.381 . S
C2576 C2582 1.383 1_545 S
C2577 C2573 1.495 . S
C2577 H2583 0.959 . S
C2577 H2584 0.961 1_545 S
C2577 H2585 0.960 . S
C2578 C2576 1.381 . S
C2578 C2579 1.394 . S
C2578 H2586 0.930 . S
C2579 C2578 1.394 . S
C2579 C2580 1.383 . S
C2579 H2587 0.929 . S
C2580 C2579 1.383 . S
C2580 C2581 1.377 1_545 S
C2581 H2565 0.930 . S
C2581 C2580 1.377 1_565 S
C2581 C2582 1.379 . S
C2582 H2566 0.931 . S
C2582 C2576 1.383 1_565 S
C2582 C2581 1.379 . S
H2583 C2577 0.959 . S
H2584 C2577 0.961 1_565 S
H2585 C2577 0.960 . S
H2586 C2578 0.930 . S
H2587 C2579 0.929 . S
H2588 C2596 0.929 . S
H2589 C2598 0.930 . S
H2590 C2600 0.930 . S
H2591 C2603 0.929 . S
H2592 C2606 0.930 . S
H2593 C2608 0.960 . S
H2594 C2608 0.960 . S
H2595 C2608 0.960 . S
C2596 H2588 0.929 . S
C2596 C2597 1.377 . S
C2596 C2598 1.384 . S
C2597 C2596 1.377 . S
C2597 C2603 1.390 . S
C2598 H2589 0.930 . S
C2598 C2596 1.384 . S
C2598 C2599 1.372 . S
C2599 C2598 1.372 . S
C2599 C2600 1.400 . S
C2599 C2604 1.490 . S
C2600 H2590 0.930 . S
C2600 C2599 1.400 . S
C2600 C2603 1.386 . S
H2601 C2617 0.930 . S
H2602 C2618 0.931 . S
C2603 H2591 0.929 . S
C2603 C2597 1.390 . S
C2603 C2600 1.386 . S
C2604 C2599 1.490 . S
C2604 C2606 1.395 . S
C2604 C2607 1.403 . S
H2605 C2611 0.930 . S
C2606 H2592 0.930 . S
C2606 C2604 1.395 . S
C2606 C2609 1.403 . S
C2607 C2604 1.403 . S
C2607 C2608 1.524 . S
C2607 C2611 1.400 . S
C2608 H2593 0.960 . S
C2608 H2594 0.960 . S
C2608 H2595 0.960 . S
C2608 C2607 1.524 . S
C2609 C2606 1.403 . S
C2609 C2610 1.392 . S
C2609 C2613 1.495 . S
C2610 C2609 1.392 . S
C2610 C2611 1.385 . S
C2610 C2612 1.478 . S
C2611 H2605 0.930 . S
C2611 C2607 1.400 . S
C2611 C2610 1.385 . S
C2612 C2610 1.478 . S
C2612 C2614 1.381 . S
C2612 C2618 1.383 . S
C2613 C2609 1.495 . S
C2613 H2619 0.959 . S
C2613 H2620 0.961 . S
C2613 H2621 0.960 . S
C2614 C2612 1.381 . S
C2614 C2615 1.394 . S
C2614 H2622 0.930 . S
C2615 C2614 1.394 . S
C2615 C2616 1.383 . S
C2615 H2623 0.929 . S
C2616 C2615 1.383 . S
C2616 C2617 1.377 . S
C2617 H2601 0.930 . S
C2617 C2616 1.377 . S
C2617 C2618 1.379 . S
C2618 H2602 0.931 . S
C2618 C2612 1.383 . S
C2618 C2617 1.379 . S
H2619 C2613 0.959 . S
H2620 C2613 0.961 . S
H2621 C2613 0.960 . S
H2622 C2614 0.930 . S
H2623 C2615 0.929 . S
H2624 C2632 0.929 . S
H2625 C2634 0.930 . S
H2626 C2636 0.930 . S
H2627 C2639 0.929 . S
H2628 C2642 0.930 . S
H2629 C2644 0.960 . S
H2630 C2644 0.960 . S
H2631 C2644 0.960 1_556 S
C2632 H2624 0.929 . S
C2632 C2633 1.339 1_554 S
C2632 C2634 1.384 . S
C2633 C2632 1.339 1_556 S
C2633 C2639 1.432 . S
C2634 H2625 0.930 . S
C2634 C2632 1.384 . S
C2634 C2635 1.372 1_554 S
C2635 C2634 1.372 1_556 S
C2635 C2636 1.400 . S
C2635 C2640 1.490 . S
C2636 H2626 0.930 . S
C2636 C2635 1.400 . S
C2636 C2639 1.386 . S
H2637 C2653 0.930 . S
H2638 C2654 0.931 . S
C2639 H2627 0.929 . S
C2639 C2633 1.432 . S
C2639 C2636 1.386 . S
C2640 C2635 1.490 . S
C2640 C2642 1.395 . S
C2640 C2643 1.399 1_556 S
H2641 C2647 0.930 1_554 S
C2642 H2628 0.930 . S
C2642 C2640 1.395 . S
C2642 C2645 1.403 . S
C2643 C2640 1.399 1_554 S
C2643 C2644 1.532 . S
C2643 C2647 1.397 1_554 S
C2644 H2629 0.960 . S
C2644 H2630 0.960 . S
C2644 H2631 0.960 1_554 S
C2644 C2643 1.532 . S
C2645 C2642 1.403 . S
C2645 C2646 1.392 . S
C2645 C2649 1.495 . S
C2646 C2645 1.392 . S
C2646 C2647 1.385 . S
C2646 C2648 1.478 . S
C2647 H2641 0.930 1_556 S
C2647 C2643 1.397 1_556 S
C2647 C2646 1.385 . S
C2648 C2646 1.478 . S
C2648 C2650 1.381 1_556 S
C2648 C2654 1.383 . S
C2649 C2645 1.495 . S
C2649 H2655 0.959 . S
C2649 H2656 0.961 . S
C2649 H2657 0.960 . S
C2650 C2648 1.381 1_554 S
C2650 C2651 1.394 . S
C2650 H2658 0.930 . S
C2651 C2650 1.394 . S
C2651 C2652 1.383 1_554 S
C2651 H2659 0.929 . S
C2652 C2651 1.383 1_556 S
C2652 C2653 1.377 . S
C2653 H2637 0.930 . S
C2653 C2652 1.377 . S
C2653 C2654 1.379 . S
C2654 H2638 0.931 . S
C2654 C2648 1.383 . S
C2654 C2653 1.379 . S
H2655 C2649 0.959 . S
H2656 C2649 0.961 . S
H2657 C2649 0.960 . S
H2658 C2650 0.930 . S
H2659 C2651 0.929 . S
H2660 C2668 0.929 . S
H2661 C2670 0.930 . S
H2662 C2672 0.930 . S
H2663 C2675 0.929 . S
H2664 C2678 0.930 1_556 S
H2665 C2680 0.960 . S
H2666 C2680 0.960 . S
H2667 C2680 0.960 . S
C2668 H2660 0.929 . S
C2668 C2669 1.377 1_556 S
C2668 C2670 1.384 . S
C2669 C2668 1.377 1_554 S
C2669 C2675 1.390 . S
C2670 H2661 0.930 . S
C2670 C2668 1.384 . S
C2670 C2671 1.372 1_556 S
C2671 C2670 1.372 1_554 S
C2671 C2672 1.400 . S
C2671 C2676 1.490 . S
C2672 H2662 0.930 . S
C2672 C2671 1.400 . S
C2672 C2675 1.386 . S
H2673 C2689 0.930 . S
H2674 C2690 0.931 . S
C2675 H2663 0.929 . S
C2675 C2669 1.390 . S
C2675 C2672 1.386 . S
C2676 C2671 1.490 . S
C2676 C2678 1.395 . S
C2676 C2679 1.403 . S
H2677 C2683 0.930 . S
C2678 H2664 0.930 1_554 S
C2678 C2676 1.395 . S
C2678 C2681 1.403 . S
C2679 C2676 1.403 . S
C2679 C2680 1.524 . S
C2679 C2683 1.400 . S
C2680 H2665 0.960 . S
C2680 H2666 0.960 . S
C2680 H2667 0.960 . S
C2680 C2679 1.524 . S
C2681 C2678 1.403 . S
C2681 C2682 1.392 . S
C2681 C2685 1.495 1_554 S
C2682 C2681 1.392 . S
C2682 C2683 1.385 . S
C2682 C2684 1.478 . S
C2683 H2677 0.930 . S
C2683 C2679 1.400 . S
C2683 C2682 1.385 . S
C2684 C2682 1.478 . S
C2684 C2686 1.381 1_554 S
C2684 C2690 1.383 . S
C2685 C2681 1.495 1_556 S
C2685 H2691 0.959 . S
C2685 H2692 0.961 . S
C2685 H2693 0.960 . S
C2686 C2684 1.381 1_556 S
C2686 C2687 1.394 . S
C2686 H2694 0.930 . S
C2687 C2686 1.394 . S
C2687 C2688 1.383 1_556 S
C2687 H2695 0.929 . S
C2688 C2687 1.383 1_554 S
C2688 C2689 1.377 . S
C2689 H2673 0.930 . S
C2689 C2688 1.377 . S
C2689 C2690 1.379 . S
C2690 H2674 0.931 . S
C2690 C2684 1.383 . S
C2690 C2689 1.379 . S
H2691 C2685 0.959 . S
H2692 C2685 0.961 . S
H2693 C2685 0.960 . S
H2694 C2686 0.930 . S
H2695 C2687 0.929 . S
H2696 C2704 0.929 . S
H2697 C2706 0.930 . S
H2698 C2708 0.930 . S
H2699 C2711 0.929 . S
H2700 C2714 0.930 . S
H2701 C2716 0.960 . S
H2702 C2716 0.960 . S
H2703 C2716 0.960 . S
C2704 H2696 0.929 . S
C2704 C2705 1.377 . S
C2704 C2706 1.384 . S
C2705 C2704 1.377 . S
C2705 C2711 1.390 . S
C2706 H2697 0.930 . S
C2706 C2704 1.384 . S
C2706 C2707 1.372 . S
C2707 C2706 1.372 . S
C2707 C2708 1.400 . S
C2707 C2712 1.490 . S
C2708 H2698 0.930 . S
C2708 C2707 1.400 . S
C2708 C2711 1.386 . S
H2709 C2725 0.930 . S
H2710 C2726 0.931 . S
C2711 H2699 0.929 . S
C2711 C2705 1.390 . S
C2711 C2708 1.386 . S
C2712 C2707 1.490 . S
C2712 C2714 1.395 . S
C2712 C2715 1.403 . S
H2713 C2719 0.930 . S
C2714 H2700 0.930 . S
C2714 C2712 1.395 . S
C2714 C2717 1.403 . S
C2715 C2712 1.403 . S
C2715 C2716 1.524 . S
C2715 C2719 1.400 . S
C2716 H2701 0.960 . S
C2716 H2702 0.960 . S
C2716 H2703 0.960 . S
C2716 C2715 1.524 . S
C2717 C2714 1.403 . S
C2717 C2718 1.392 . S
C2717 C2721 1.495 . S
C2718 C2717 1.392 . S
C2718 C2719 1.385 . S
C2718 C2720 1.478 . S
C2719 H2713 0.930 . S
C2719 C2715 1.400 . S
C2719 C2718 1.385 . S
C2720 C2718 1.478 . S
C2720 C2722 1.381 . S
C2720 C2726 1.383 . S
C2721 C2717 1.495 . S
C2721 H2727 0.959 . S
C2721 H2728 0.961 . S
C2721 H2729 0.960 . S
C2722 C2720 1.381 . S
C2722 C2723 1.394 . S
C2722 H2730 0.930 . S
C2723 C2722 1.394 . S
C2723 C2724 1.383 . S
C2723 H2731 0.929 . S
C2724 C2723 1.383 . S
C2724 C2725 1.377 . S
C2725 H2709 0.930 . S
C2725 C2724 1.377 . S
C2725 C2726 1.379 . S
C2726 H2710 0.931 . S
C2726 C2720 1.383 . S
C2726 C2725 1.379 . S
H2727 C2721 0.959 . S
H2728 C2721 0.961 . S
H2729 C2721 0.960 . S
H2730 C2722 0.930 . S
H2731 C2723 0.929 . S
H2732 C2740 0.929 . S
H2733 C2742 0.930 . S
H2734 C2744 0.930 . S
H2735 C2747 0.929 . S
H2736 C2750 0.930 . S
H2737 C2752 0.960 . S
H2738 C2752 0.960 . S
H2739 C2752 0.960 . S
C2740 H2732 0.929 . S
C2740 C2741 1.377 . S
C2740 C2742 1.384 . S
C2741 C2740 1.377 . S
C2741 C2747 1.390 . S
C2742 H2733 0.930 . S
C2742 C2740 1.384 . S
C2742 C2743 1.372 . S
C2743 C2742 1.372 . S
C2743 C2744 1.400 . S
C2743 C2748 1.490 . S
C2744 H2734 0.930 . S
C2744 C2743 1.400 . S
C2744 C2747 1.386 . S
H2745 C2761 0.930 . S
H2746 C2762 0.931 . S
C2747 H2735 0.929 . S
C2747 C2741 1.390 . S
C2747 C2744 1.386 . S
C2748 C2743 1.490 . S
C2748 C2750 1.395 . S
C2748 C2751 1.403 . S
H2749 C2755 0.930 . S
C2750 H2736 0.930 . S
C2750 C2748 1.395 . S
C2750 C2753 1.403 . S
C2751 C2748 1.403 . S
C2751 C2752 1.524 . S
C2751 C2755 1.400 . S
C2752 H2737 0.960 . S
C2752 H2738 0.960 . S
C2752 H2739 0.960 . S
C2752 C2751 1.524 . S
C2753 C2750 1.403 . S
C2753 C2754 1.392 . S
C2753 C2757 1.495 . S
C2754 C2753 1.392 . S
C2754 C2755 1.385 . S
C2754 C2756 1.478 . S
C2755 H2749 0.930 . S
C2755 C2751 1.400 . S
C2755 C2754 1.385 . S
C2756 C2754 1.478 . S
C2756 C2758 1.381 . S
C2756 C2762 1.383 . S
C2757 C2753 1.495 . S
C2757 H2763 0.959 . S
C2757 H2764 0.961 . S
C2757 H2765 0.960 . S
C2758 C2756 1.381 . S
C2758 C2759 1.394 . S
C2758 H2766 0.930 . S
C2759 C2758 1.394 . S
C2759 C2760 1.383 . S
C2759 H2767 0.929 . S
C2760 C2759 1.383 . S
C2760 C2761 1.377 . S
C2761 H2745 0.930 . S
C2761 C2760 1.377 . S
C2761 C2762 1.379 . S
C2762 H2746 0.931 . S
C2762 C2756 1.383 . S
C2762 C2761 1.379 . S
H2763 C2757 0.959 . S
H2764 C2757 0.961 . S
H2765 C2757 0.960 . S
H2766 C2758 0.930 . S
H2767 C2759 0.929 . S
H2768 C2776 0.929 . S
H2769 C2778 0.930 . S
H2770 C2780 0.930 . S
H2771 C2783 0.929 . S
H2772 C2786 0.930 . S
H2773 C2788 0.960 . S
H2774 C2788 0.960 . S
H2775 C2788 0.960 . S
C2776 H2768 0.929 . S
C2776 C2777 1.377 . S
C2776 C2778 1.384 . S
C2777 C2776 1.377 . S
C2777 C2783 1.390 . S
C2778 H2769 0.930 . S
C2778 C2776 1.384 . S
C2778 C2779 1.372 . S
C2779 C2778 1.372 . S
C2779 C2780 1.400 . S
C2779 C2784 1.490 . S
C2780 H2770 0.930 . S
C2780 C2779 1.400 . S
C2780 C2783 1.386 . S
H2781 C2797 0.930 . S
H2782 C2798 0.931 . S
C2783 H2771 0.929 . S
C2783 C2777 1.390 . S
C2783 C2780 1.386 . S
C2784 C2779 1.490 . S
C2784 C2786 1.395 . S
C2784 C2787 1.403 . S
H2785 C2791 0.930 . S
C2786 H2772 0.930 . S
C2786 C2784 1.395 . S
C2786 C2789 1.403 . S
C2787 C2784 1.403 . S
C2787 C2788 1.524 . S
C2787 C2791 1.400 . S
C2788 H2773 0.960 . S
C2788 H2774 0.960 . S
C2788 H2775 0.960 . S
C2788 C2787 1.524 . S
C2789 C2786 1.403 . S
C2789 C2790 1.392 . S
C2789 C2793 1.495 . S
C2790 C2789 1.392 . S
C2790 C2791 1.385 . S
C2790 C2792 1.478 . S
C2791 H2785 0.930 . S
C2791 C2787 1.400 . S
C2791 C2790 1.385 . S
C2792 C2790 1.478 . S
C2792 C2794 1.381 . S
C2792 C2798 1.383 . S
C2793 C2789 1.495 . S
C2793 H2799 0.959 . S
C2793 H2800 0.961 . S
C2793 H2801 0.960 . S
C2794 C2792 1.381 . S
C2794 C2795 1.394 . S
C2794 H2802 0.930 . S
C2795 C2794 1.394 . S
C2795 C2796 1.383 . S
C2795 H2803 0.929 . S
C2796 C2795 1.383 . S
C2796 C2797 1.377 . S
C2797 H2781 0.930 . S
C2797 C2796 1.377 . S
C2797 C2798 1.379 . S
C2798 H2782 0.931 . S
C2798 C2792 1.383 . S
C2798 C2797 1.379 . S
H2799 C2793 0.959 . S
H2800 C2793 0.961 . S
H2801 C2793 0.960 . S
H2802 C2794 0.930 . S
H2803 C2795 0.929 . S
H2804 C2812 0.929 . S
H2805 C2814 0.930 . S
H2806 C2816 0.930 . S
H2807 C2819 0.929 . S
H2808 C2822 0.930 . S
H2809 C2824 0.960 . S
H2810 C2824 0.960 . S
H2811 C2824 0.960 . S
C2812 H2804 0.929 . S
C2812 C2813 1.377 . S
C2812 C2814 1.384 . S
C2813 C2812 1.377 . S
C2813 C2819 1.390 . S
C2814 H2805 0.930 . S
C2814 C2812 1.384 . S
C2814 C2815 1.372 . S
C2815 C2814 1.372 . S
C2815 C2816 1.400 . S
C2815 C2820 1.490 . S
C2816 H2806 0.930 . S
C2816 C2815 1.400 . S
C2816 C2819 1.386 . S
H2817 C2833 0.930 1_545 S
H2818 C2834 0.931 . S
C2819 H2807 0.929 . S
C2819 C2813 1.390 . S
C2819 C2816 1.386 . S
C2820 C2815 1.490 . S
C2820 C2822 1.395 . S
C2820 C2823 1.403 . S
H2821 C2827 0.930 . S
C2822 H2808 0.930 . S
C2822 C2820 1.395 . S
C2822 C2825 1.403 . S
C2823 C2820 1.403 . S
C2823 C2824 1.524 . S
C2823 C2827 1.400 . S
C2824 H2809 0.960 . S
C2824 H2810 0.960 . S
C2824 H2811 0.960 . S
C2824 C2823 1.524 . S
C2825 C2822 1.403 . S
C2825 C2826 1.392 . S
C2825 C2829 1.495 . S
C2826 C2825 1.392 . S
C2826 C2827 1.385 . S
C2826 C2828 1.478 . S
C2827 H2821 0.930 . S
C2827 C2823 1.400 . S
C2827 C2826 1.385 . S
C2828 C2826 1.478 . S
C2828 C2830 1.381 . S
C2828 C2834 1.383 . S
C2829 C2825 1.495 . S
C2829 H2835 0.959 . S
C2829 H2836 0.961 . S
C2829 H2837 0.960 . S
C2830 C2828 1.381 . S
C2830 C2831 1.394 . S
C2830 H2838 0.930 . S
C2831 C2830 1.394 . S
C2831 C2832 1.383 . S
C2831 H2839 0.929 . S
C2832 C2831 1.383 . S
C2832 C2833 1.377 . S
C2833 H2817 0.930 1_565 S
C2833 C2832 1.377 . S
C2833 C2834 1.379 . S
C2834 H2818 0.931 . S
C2834 C2828 1.383 . S
C2834 C2833 1.379 . S
H2835 C2829 0.959 . S
H2836 C2829 0.961 . S
H2837 C2829 0.960 . S
H2838 C2830 0.930 . S
H2839 C2831 0.929 . S
H2840 C2848 0.929 . S
H2841 C2850 0.930 . S
H2842 C2852 0.930 . S
H2843 C2855 0.929 . S
H2844 C2858 0.930 . S
H2845 C2860 0.960 . S
H2846 C2860 0.960 . S
H2847 C2860 0.960 . S
C2848 H2840 0.929 . S
C2848 C2849 1.377 . S
C2848 C2850 1.384 . S
C2849 C2848 1.377 . S
C2849 C2855 1.390 . S
C2850 H2841 0.930 . S
C2850 C2848 1.384 . S
C2850 C2851 1.372 . S
C2851 C2850 1.372 . S
C2851 C2852 1.400 . S
C2851 C2856 1.490 . S
C2852 H2842 0.930 . S
C2852 C2851 1.400 . S
C2852 C2855 1.386 . S
H2853 C2869 0.930 . S
H2854 C2870 0.931 . S
C2855 H2843 0.929 . S
C2855 C2849 1.390 . S
C2855 C2852 1.386 . S
C2856 C2851 1.490 . S
C2856 C2858 1.395 . S
C2856 C2859 1.403 . S
H2857 C2863 0.930 . S
C2858 H2844 0.930 . S
C2858 C2856 1.395 . S
C2858 C2861 1.403 . S
C2859 C2856 1.403 . S
C2859 C2860 1.524 . S
C2859 C2863 1.400 . S
C2860 H2845 0.960 . S
C2860 H2846 0.960 . S
C2860 H2847 0.960 . S
C2860 C2859 1.524 . S
C2861 C2858 1.403 . S
C2861 C2862 1.392 . S
C2861 C2865 1.495 . S
C2862 C2861 1.392 . S
C2862 C2863 1.385 . S
C2862 C2864 1.478 . S
C2863 H2857 0.930 . S
C2863 C2859 1.400 . S
C2863 C2862 1.385 . S
C2864 C2862 1.478 . S
C2864 C2866 1.381 . S
C2864 C2870 1.383 . S
C2865 C2861 1.495 . S
C2865 H2871 0.959 . S
C2865 H2872 0.961 . S
C2865 H2873 0.960 . S
C2866 C2864 1.381 . S
C2866 C2867 1.394 . S
C2866 H2874 0.930 . S
C2867 C2866 1.394 . S
C2867 C2868 1.383 . S
C2867 H2875 0.929 . S
C2868 C2867 1.383 . S
C2868 C2869 1.377 . S
C2869 H2853 0.930 . S
C2869 C2868 1.377 . S
C2869 C2870 1.379 . S
C2870 H2854 0.931 . S
C2870 C2864 1.383 . S
C2870 C2869 1.379 . S
H2871 C2865 0.959 . S
H2872 C2865 0.961 . S
H2873 C2865 0.960 . S
H2874 C2866 0.930 . S
H2875 C2867 0.929 . S
H2876 C2884 0.929 . S
H2877 C2886 0.930 . S
H2878 C2888 0.930 . S
H2879 C2891 0.929 . S
H2880 C2894 0.930 . S
H2881 C2896 0.960 . S
H2882 C2896 0.960 . S
H2883 C2896 0.960 . S
C2884 H2876 0.929 . S
C2884 C2885 1.377 . S
C2884 C2886 1.384 . S
C2885 C2884 1.377 . S
C2885 C2891 1.390 . S
C2886 H2877 0.930 . S
C2886 C2884 1.384 . S
C2886 C2887 1.372 . S
C2887 C2886 1.372 . S
C2887 C2888 1.400 . S
C2887 C2892 1.490 . S
C2888 H2878 0.930 . S
C2888 C2887 1.400 . S
C2888 C2891 1.386 . S
H2889 C2905 0.930 . S
H2890 C2906 0.931 . S
C2891 H2879 0.929 . S
C2891 C2885 1.390 . S
C2891 C2888 1.386 . S
C2892 C2887 1.490 . S
C2892 C2894 1.395 . S
C2892 C2895 1.403 . S
H2893 C2899 0.930 . S
C2894 H2880 0.930 . S
C2894 C2892 1.395 . S
C2894 C2897 1.403 . S
C2895 C2892 1.403 . S
C2895 C2896 1.524 . S
C2895 C2899 1.400 . S
C2896 H2881 0.960 . S
C2896 H2882 0.960 . S
C2896 H2883 0.960 . S
C2896 C2895 1.524 . S
C2897 C2894 1.403 . S
C2897 C2898 1.392 . S
C2897 C2901 1.495 . S
C2898 C2897 1.392 . S
C2898 C2899 1.385 . S
C2898 C2900 1.478 . S
C2899 H2893 0.930 . S
C2899 C2895 1.400 . S
C2899 C2898 1.385 . S
C2900 C2898 1.478 . S
C2900 C2902 1.381 . S
C2900 C2906 1.383 . S
C2901 C2897 1.495 . S
C2901 H2907 0.959 . S
C2901 H2908 0.961 . S
C2901 H2909 0.960 . S
C2902 C2900 1.381 . S
C2902 C2903 1.394 . S
C2902 H2910 0.930 . S
C2903 C2902 1.394 . S
C2903 C2904 1.383 . S
C2903 H2911 0.929 . S
C2904 C2903 1.383 . S
C2904 C2905 1.377 . S
C2905 H2889 0.930 . S
C2905 C2904 1.377 . S
C2905 C2906 1.379 . S
C2906 H2890 0.931 . S
C2906 C2900 1.383 . S
C2906 C2905 1.379 . S
H2907 C2901 0.959 . S
H2908 C2901 0.961 . S
H2909 C2901 0.960 . S
H2910 C2902 0.930 . S
H2911 C2903 0.929 . S
H2912 C2920 0.929 . S
H2913 C2922 0.930 . S
H2914 C2924 0.930 . S
H2915 C2927 0.929 . S
H2916 C2930 0.930 . S
H2917 C2932 0.960 . S
H2918 C2932 0.960 . S
H2919 C2932 0.960 . S
C2920 H2912 0.929 . S
C2920 C2921 1.377 . S
C2920 C2922 1.384 . S
C2921 C2920 1.377 . S
C2921 C2927 1.390 . S
C2922 H2913 0.930 . S
C2922 C2920 1.384 . S
C2922 C2923 1.372 . S
C2923 C2922 1.372 . S
C2923 C2924 1.400 . S
C2923 C2928 1.490 . S
C2924 H2914 0.930 . S
C2924 C2923 1.400 . S
C2924 C2927 1.386 . S
H2925 C2941 0.930 . S
H2926 C2942 0.931 . S
C2927 H2915 0.929 . S
C2927 C2921 1.390 . S
C2927 C2924 1.386 . S
C2928 C2923 1.490 . S
C2928 C2930 1.395 . S
C2928 C2931 1.403 . S
H2929 C2935 0.930 . S
C2930 H2916 0.930 . S
C2930 C2928 1.395 . S
C2930 C2933 1.403 . S
C2931 C2928 1.403 . S
C2931 C2932 1.524 . S
C2931 C2935 1.400 . S
C2932 H2917 0.960 . S
C2932 H2918 0.960 . S
C2932 H2919 0.960 . S
C2932 C2931 1.524 . S
C2933 C2930 1.403 . S
C2933 C2934 1.392 . S
C2933 C2937 1.495 . S
C2934 C2933 1.392 . S
C2934 C2935 1.385 . S
C2934 C2936 1.478 . S
C2935 H2929 0.930 . S
C2935 C2931 1.400 . S
C2935 C2934 1.385 . S
C2936 C2934 1.478 . S
C2936 C2938 1.381 . S
C2936 C2942 1.383 . S
C2937 C2933 1.495 . S
C2937 H2943 0.959 . S
C2937 H2944 0.961 . S
C2937 H2945 0.960 . S
C2938 C2936 1.381 . S
C2938 C2939 1.394 . S
C2938 H2946 0.930 . S
C2939 C2938 1.394 . S
C2939 C2940 1.383 . S
C2939 H2947 0.929 . S
C2940 C2939 1.383 . S
C2940 C2941 1.377 . S
C2941 H2925 0.930 . S
C2941 C2940 1.377 . S
C2941 C2942 1.379 . S
C2942 H2926 0.931 . S
C2942 C2936 1.383 . S
C2942 C2941 1.379 . S
H2943 C2937 0.959 . S
H2944 C2937 0.961 . S
H2945 C2937 0.960 . S
H2946 C2938 0.930 . S
H2947 C2939 0.929 . S
H2948 C2956 0.929 . S
H2949 C2958 0.930 . S
H2950 C2960 0.930 . S
H2951 C2963 0.929 . S
H2952 C2966 0.930 . S
H2953 C2968 0.960 . S
H2954 C2968 0.960 . S
H2955 C2968 0.960 . S
C2956 H2948 0.929 . S
C2956 C2957 1.377 . S
C2956 C2958 1.384 . S
C2957 C2956 1.377 . S
C2957 C2963 1.390 . S
C2958 H2949 0.930 . S
C2958 C2956 1.384 . S
C2958 C2959 1.372 . S
C2959 C2958 1.372 . S
C2959 C2960 1.400 . S
C2959 C2964 1.490 . S
C2960 H2950 0.930 . S
C2960 C2959 1.400 . S
C2960 C2963 1.386 . S
H2961 C2977 0.930 . S
H2962 C2978 0.931 . S
C2963 H2951 0.929 . S
C2963 C2957 1.390 . S
C2963 C2960 1.386 . S
C2964 C2959 1.490 . S
C2964 C2966 1.395 . S
C2964 C2967 1.403 . S
H2965 C2971 0.930 . S
C2966 H2952 0.930 . S
C2966 C2964 1.395 . S
C2966 C2969 1.403 . S
C2967 C2964 1.403 . S
C2967 C2968 1.524 . S
C2967 C2971 1.400 . S
C2968 H2953 0.960 . S
C2968 H2954 0.960 . S
C2968 H2955 0.960 . S
C2968 C2967 1.524 . S
C2969 C2966 1.403 . S
C2969 C2970 1.392 . S
C2969 C2973 1.495 . S
C2970 C2969 1.392 . S
C2970 C2971 1.385 . S
C2970 C2972 1.478 . S
C2971 H2965 0.930 . S
C2971 C2967 1.400 . S
C2971 C2970 1.385 . S
C2972 C2970 1.478 . S
C2972 C2974 1.381 . S
C2972 C2978 1.383 . S
C2973 C2969 1.495 . S
C2973 H2979 0.959 . S
C2973 H2980 0.961 . S
C2973 H2981 0.960 . S
C2974 C2972 1.381 . S
C2974 C2975 1.394 . S
C2974 H2982 0.930 . S
C2975 C2974 1.394 . S
C2975 C2976 1.383 . S
C2975 H2983 0.929 . S
C2976 C2975 1.383 . S
C2976 C2977 1.377 . S
C2977 H2961 0.930 . S
C2977 C2976 1.377 . S
C2977 C2978 1.379 . S
C2978 H2962 0.931 . S
C2978 C2972 1.383 . S
C2978 C2977 1.379 . S
H2979 C2973 0.959 . S
H2980 C2973 0.961 . S
H2981 C2973 0.960 . S
H2982 C2974 0.930 . S
H2983 C2975 0.929 . S
H2984 C2992 0.929 . S
H2985 C2994 0.930 . S
H2986 C2996 0.930 . S
H2987 C2999 0.929 . S
H2988 C3002 0.930 . S
H2989 C3004 0.960 . S
H2990 C3004 0.960 . S
H2991 C3004 0.960 . S
C2992 H2984 0.929 . S
C2992 C2993 1.377 . S
C2992 C2994 1.384 . S
C2993 C2992 1.377 . S
C2993 C2999 1.390 . S
C2994 H2985 0.930 . S
C2994 C2992 1.384 . S
C2994 C2995 1.372 . S
C2995 C2994 1.372 . S
C2995 C2996 1.400 . S
C2995 C3000 1.490 . S
C2996 H2986 0.930 . S
C2996 C2995 1.400 . S
C2996 C2999 1.386 . S
H2997 C3013 0.930 . S
H2998 C3014 0.910 1_554 S
C2999 H2987 0.929 . S
C2999 C2993 1.390 . S
C2999 C2996 1.386 . S
C3000 C2995 1.490 . S
C3000 C3002 1.395 1_455 S
C3000 C3003 1.403 . S
H3001 C3007 0.930 . S
C3002 H2988 0.930 . S
C3002 C3000 1.395 1_655 S
C3002 C3005 1.403 . S
C3003 C3000 1.403 . S
C3003 C3004 1.524 . S
C3003 C3007 1.400 . S
C3004 H2989 0.960 . S
C3004 H2990 0.960 . S
C3004 H2991 0.960 . S
C3004 C3003 1.524 . S
C3005 C3002 1.403 . S
C3005 C3006 1.392 1_655 S
C3005 C3009 1.495 . S
C3006 C3005 1.392 1_455 S
C3006 C3007 1.385 . S
C3006 C3008 1.478 . S
C3007 H3001 0.930 . S
C3007 C3003 1.400 . S
C3007 C3006 1.385 . S
C3008 C3006 1.478 . S
C3008 C3010 1.381 . S
C3008 C3014 1.420 . S
C3009 C3005 1.495 . S
C3009 H3015 0.959 . S
C3009 H3016 0.961 . S
C3009 H3017 0.960 . S
C3010 C3008 1.381 . S
C3010 C3011 1.394 . S
C3010 H3018 0.930 . S
C3011 C3010 1.394 . S
C3011 C3012 1.399 . S
C3011 H3019 0.929 . S
C3012 C3011 1.399 . S
C3012 C3013 1.368 1_556 S
C3013 H2997 0.930 . S
C3013 C3012 1.368 1_554 S
C3013 C3014 1.364 1_554 S
C3014 H2998 0.910 1_556 S
C3014 C3008 1.420 . S
C3014 C3013 1.364 1_556 S
H3015 C3009 0.959 . S
H3016 C3009 0.961 . S
H3017 C3009 0.960 . S
H3018 C3010 0.930 . S
H3019 C3011 0.929 . S
H3020 C3028 0.929 . S
H3021 C3030 0.930 . S
H3022 C3032 0.930 . S
H3023 C3035 0.929 . S
H3024 C3038 0.930 . S
H3025 C3040 0.960 . S
H3026 C3040 0.960 . S
H3027 C3040 0.960 . S
C3028 H3020 0.929 . S
C3028 C3029 1.377 . S
C3028 C3030 1.384 . S
C3029 C3028 1.377 . S
C3029 C3035 1.390 . S
C3030 H3021 0.930 . S
C3030 C3028 1.384 . S
C3030 C3031 1.372 . S
C3031 C3030 1.372 . S
C3031 C3032 1.400 . S
C3031 C3036 1.490 . S
C3032 H3022 0.930 . S
C3032 C3031 1.400 . S
C3032 C3035 1.386 . S
H3033 C3049 0.930 . S
H3034 C3050 0.931 . S
C3035 H3023 0.929 . S
C3035 C3029 1.390 . S
C3035 C3032 1.386 . S
C3036 C3031 1.490 . S
C3036 C3038 1.395 . S
C3036 C3039 1.403 . S
H3037 C3043 0.930 . S
C3038 H3024 0.930 . S
C3038 C3036 1.395 . S
C3038 C3041 1.403 . S
C3039 C3036 1.403 . S
C3039 C3040 1.524 . S
C3039 C3043 1.400 . S
C3040 H3025 0.960 . S
C3040 H3026 0.960 . S
C3040 H3027 0.960 . S
C3040 C3039 1.524 . S
C3041 C3038 1.403 . S
C3041 C3042 1.392 . S
C3041 C3045 1.495 . S
C3042 C3041 1.392 . S
C3042 C3043 1.385 . S
C3042 C3044 1.478 . S
C3043 H3037 0.930 . S
C3043 C3039 1.400 . S
C3043 C3042 1.385 . S
C3044 C3042 1.478 . S
C3044 C3046 1.381 . S
C3044 C3050 1.383 . S
C3045 C3041 1.495 . S
C3045 H3051 0.959 . S
C3045 H3052 0.961 . S
C3045 H3053 0.960 . S
C3046 C3044 1.381 . S
C3046 C3047 1.394 . S
C3046 H3054 0.930 . S
C3047 C3046 1.394 . S
C3047 C3048 1.383 . S
C3047 H3055 0.929 . S
C3048 C3047 1.383 . S
C3048 C3049 1.377 . S
C3049 H3033 0.930 . S
C3049 C3048 1.377 . S
C3049 C3050 1.379 . S
C3050 H3034 0.931 . S
C3050 C3044 1.383 . S
C3050 C3049 1.379 . S
H3051 C3045 0.959 . S
H3052 C3045 0.961 . S
H3053 C3045 0.960 . S
H3054 C3046 0.930 . S
H3055 C3047 0.929 . S
H3056 C3064 0.929 . S
H3057 C3066 0.930 . S
H3058 C3068 0.930 . S
H3059 C3071 0.929 . S
H3060 C3074 0.930 . S
H3061 C3076 0.960 . S
H3062 C3076 0.960 . S
H3063 C3076 0.960 . S
C3064 H3056 0.929 . S
C3064 C3065 1.377 . S
C3064 C3066 1.384 . S
C3065 C3064 1.377 . S
C3065 C3071 1.390 . S
C3066 H3057 0.930 . S
C3066 C3064 1.384 . S
C3066 C3067 1.372 . S
C3067 C3066 1.372 . S
C3067 C3068 1.400 . S
C3067 C3072 1.490 . S
C3068 H3058 0.930 . S
C3068 C3067 1.400 . S
C3068 C3071 1.386 . S
H3069 C3085 0.930 . S
H3070 C3086 0.931 . S
C3071 H3059 0.929 . S
C3071 C3065 1.390 . S
C3071 C3068 1.386 . S
C3072 C3067 1.490 . S
C3072 C3074 1.395 . S
C3072 C3075 1.403 . S
H3073 C3079 0.930 . S
C3074 H3060 0.930 . S
C3074 C3072 1.395 . S
C3074 C3077 1.403 . S
C3075 C3072 1.403 . S
C3075 C3076 1.524 . S
C3075 C3079 1.400 . S
C3076 H3061 0.960 . S
C3076 H3062 0.960 . S
C3076 H3063 0.960 . S
C3076 C3075 1.524 . S
C3077 C3074 1.403 . S
C3077 C3078 1.392 . S
C3077 C3081 1.495 . S
C3078 C3077 1.392 . S
C3078 C3079 1.385 . S
C3078 C3080 1.478 . S
C3079 H3073 0.930 . S
C3079 C3075 1.400 . S
C3079 C3078 1.385 . S
C3080 C3078 1.478 . S
C3080 C3082 1.381 . S
C3080 C3086 1.383 . S
C3081 C3077 1.495 . S
C3081 H3087 0.959 . S
C3081 H3088 0.961 . S
C3081 H3089 0.960 . S
C3082 C3080 1.381 . S
C3082 C3083 1.394 . S
C3082 H3090 0.930 . S
C3083 C3082 1.394 . S
C3083 C3084 1.383 . S
C3083 H3091 0.929 . S
C3084 C3083 1.383 . S
C3084 C3085 1.377 . S
C3085 H3069 0.930 . S
C3085 C3084 1.377 . S
C3085 C3086 1.379 . S
C3086 H3070 0.931 . S
C3086 C3080 1.383 . S
C3086 C3085 1.379 . S
H3087 C3081 0.959 . S
H3088 C3081 0.961 . S
H3089 C3081 0.960 . S
H3090 C3082 0.930 . S
H3091 C3083 0.929 . S
H3092 C3100 0.929 . S
H3093 C3102 0.930 . S
H3094 C3104 0.930 . S
H3095 C3107 0.929 . S
H3096 C3110 0.930 . S
H3097 C3112 0.960 . S
H3098 C3112 0.960 . S
H3099 C3112 0.960 . S
C3100 H3092 0.929 . S
C3100 C3101 1.377 . S
C3100 C3102 1.384 . S
C3101 C3100 1.377 . S
C3101 C3107 1.390 . S
C3102 H3093 0.930 . S
C3102 C3100 1.384 . S
C3102 C3103 1.372 . S
C3103 C3102 1.372 . S
C3103 C3104 1.400 . S
C3103 C3108 1.490 . S
C3104 H3094 0.930 . S
C3104 C3103 1.400 . S
C3104 C3107 1.386 . S
H3105 C3121 0.930 . S
H3106 C3122 0.931 . S
C3107 H3095 0.929 . S
C3107 C3101 1.390 . S
C3107 C3104 1.386 . S
C3108 C3103 1.490 . S
C3108 C3110 1.395 . S
C3108 C3111 1.403 . S
H3109 C3115 0.930 . S
C3110 H3096 0.930 . S
C3110 C3108 1.395 . S
C3110 C3113 1.403 . S
C3111 C3108 1.403 . S
C3111 C3112 1.524 . S
C3111 C3115 1.400 . S
C3112 H3097 0.960 . S
C3112 H3098 0.960 . S
C3112 H3099 0.960 . S
C3112 C3111 1.524 . S
C3113 C3110 1.403 . S
C3113 C3114 1.392 . S
C3113 C3117 1.495 . S
C3114 C3113 1.392 . S
C3114 C3115 1.385 . S
C3114 C3116 1.478 . S
C3115 H3109 0.930 . S
C3115 C3111 1.400 . S
C3115 C3114 1.385 . S
C3116 C3114 1.478 . S
C3116 C3118 1.381 . S
C3116 C3122 1.383 . S
C3117 C3113 1.495 . S
C3117 H3123 0.959 . S
C3117 H3124 0.961 . S
C3117 H3125 0.960 . S
C3118 C3116 1.381 . S
C3118 C3119 1.394 . S
C3118 H3126 0.930 . S
C3119 C3118 1.394 . S
C3119 C3120 1.383 . S
C3119 H3127 0.929 . S
C3120 C3119 1.383 . S
C3120 C3121 1.377 . S
C3121 H3105 0.930 . S
C3121 C3120 1.377 . S
C3121 C3122 1.379 . S
C3122 H3106 0.931 . S
C3122 C3116 1.383 . S
C3122 C3121 1.379 . S
H3123 C3117 0.959 . S
H3124 C3117 0.961 . S
H3125 C3117 0.960 . S
H3126 C3118 0.930 . S
H3127 C3119 0.929 . S
H3128 C3136 0.929 . S
H3129 C3138 0.930 . S
H3130 C3140 0.930 . S
H3131 C3143 0.929 . S
H3132 C3146 0.930 1_655 S
H3133 C3148 0.960 . S
H3134 C3148 0.960 . S
H3135 C3148 0.960 . S
C3136 H3128 0.929 . S
C3136 C3137 1.377 . S
C3136 C3138 1.384 . S
C3137 C3136 1.377 . S
C3137 C3143 1.390 1_455 S
C3138 H3129 0.930 . S
C3138 C3136 1.384 . S
C3138 C3139 1.372 . S
C3139 C3138 1.372 . S
C3139 C3140 1.400 1_455 S
C3139 C3144 1.490 . S
C3140 H3130 0.930 . S
C3140 C3139 1.400 1_655 S
C3140 C3143 1.386 . S
H3141 C3157 0.930 . S
H3142 C3158 0.931 . S
C3143 H3131 0.929 . S
C3143 C3137 1.390 1_655 S
C3143 C3140 1.386 . S
C3144 C3139 1.490 . S
C3144 C3146 1.395 . S
C3144 C3147 1.403 . S
H3145 C3151 0.930 . S
C3146 H3132 0.930 1_455 S
C3146 C3144 1.395 . S
C3146 C3149 1.393 . S
C3147 C3144 1.403 . S
C3147 C3148 1.524 . S
C3147 C3151 1.400 . S
C3148 H3133 0.960 . S
C3148 H3134 0.960 . S
C3148 H3135 0.960 . S
C3148 C3147 1.524 . S
C3149 C3146 1.393 . S
C3149 C3150 1.410 . S
C3149 C3153 1.490 1_455 S
C3150 C3149 1.410 . S
C3150 C3151 1.385 . S
C3150 C3152 1.478 . S
C3151 H3145 0.930 . S
C3151 C3147 1.400 . S
C3151 C3150 1.385 . S
C3152 C3150 1.478 . S
C3152 C3154 1.381 . S
C3152 C3158 1.383 1_455 S
C3153 C3149 1.490 1_655 S
C3153 H3159 0.959 . S
C3153 H3160 0.961 . S
C3153 H3161 0.960 1_655 S
C3154 C3152 1.381 . S
C3154 C3155 1.394 . S
C3154 H3162 0.930 . S
C3155 C3154 1.394 . S
C3155 C3156 1.383 . S
C3155 H3163 0.929 . S
C3156 C3155 1.383 . S
C3156 C3157 1.377 1_455 S
C3157 H3141 0.930 . S
C3157 C3156 1.377 1_655 S
C3157 C3158 1.379 . S
C3158 H3142 0.931 . S
C3158 C3152 1.383 1_655 S
C3158 C3157 1.379 . S
H3159 C3153 0.959 . S
H3160 C3153 0.961 . S
H3161 C3153 0.960 1_455 S
H3162 C3154 0.930 . S
H3163 C3155 0.929 . S
H3164 C3172 0.929 . S
H3165 C3174 0.930 . S
H3166 C3176 0.930 . S
H3167 C3179 0.929 . S
H3168 C3182 0.930 . S
H3169 C3184 0.960 . S
H3170 C3184 0.960 . S
H3171 C3184 0.960 . S
C3172 H3164 0.929 . S
C3172 C3173 1.377 . S
C3172 C3174 1.384 . S
C3173 C3172 1.377 . S
C3173 C3179 1.390 . S
C3174 H3165 0.930 . S
C3174 C3172 1.384 . S
C3174 C3175 1.372 . S
C3175 C3174 1.372 . S
C3175 C3176 1.400 . S
C3175 C3180 1.490 . S
C3176 H3166 0.930 . S
C3176 C3175 1.400 . S
C3176 C3179 1.386 . S
H3177 C3193 0.930 . S
H3178 C3194 0.931 . S
C3179 H3167 0.929 . S
C3179 C3173 1.390 . S
C3179 C3176 1.386 . S
C3180 C3175 1.490 . S
C3180 C3182 1.395 . S
C3180 C3183 1.403 . S
H3181 C3187 0.930 . S
C3182 H3168 0.930 . S
C3182 C3180 1.395 . S
C3182 C3185 1.403 . S
C3183 C3180 1.403 . S
C3183 C3184 1.524 . S
C3183 C3187 1.400 . S
C3184 H3169 0.960 . S
C3184 H3170 0.960 . S
C3184 H3171 0.960 . S
C3184 C3183 1.524 . S
C3185 C3182 1.403 . S
C3185 C3186 1.392 . S
C3185 C3189 1.495 . S
C3186 C3185 1.392 . S
C3186 C3187 1.385 . S
C3186 C3188 1.478 . S
C3187 H3181 0.930 . S
C3187 C3183 1.400 . S
C3187 C3186 1.385 . S
C3188 C3186 1.478 . S
C3188 C3190 1.381 . S
C3188 C3194 1.383 . S
C3189 C3185 1.495 . S
C3189 H3195 0.959 . S
C3189 H3196 0.961 . S
C3189 H3197 0.960 . S
C3190 C3188 1.381 . S
C3190 C3191 1.394 . S
C3190 H3198 0.930 . S
C3191 C3190 1.394 . S
C3191 C3192 1.383 . S
C3191 H3199 0.929 . S
C3192 C3191 1.383 . S
C3192 C3193 1.377 . S
C3193 H3177 0.930 . S
C3193 C3192 1.377 . S
C3193 C3194 1.379 . S
C3194 H3178 0.931 . S
C3194 C3188 1.383 . S
C3194 C3193 1.379 . S
H3195 C3189 0.959 . S
H3196 C3189 0.961 . S
H3197 C3189 0.960 . S
H3198 C3190 0.930 . S
H3199 C3191 0.929 . S
H3200 C3208 0.929 . S
H3201 C3210 0.930 . S
H3202 C3212 0.930 . S
H3203 C3215 0.929 . S
H3204 C3218 0.930 . S
H3205 C3220 0.960 . S
H3206 C3220 0.960 . S
H3207 C3220 0.960 . S
C3208 H3200 0.929 . S
C3208 C3209 1.377 . S
C3208 C3210 1.384 . S
C3209 C3208 1.377 . S
C3209 C3215 1.390 . S
C3210 H3201 0.930 . S
C3210 C3208 1.384 . S
C3210 C3211 1.372 . S
C3211 C3210 1.372 . S
C3211 C3212 1.400 . S
C3211 C3216 1.490 . S
C3212 H3202 0.930 . S
C3212 C3211 1.400 . S
C3212 C3215 1.386 . S
H3213 C3229 0.930 . S
H3214 C3230 0.931 . S
C3215 H3203 0.929 . S
C3215 C3209 1.390 . S
C3215 C3212 1.386 . S
C3216 C3211 1.490 . S
C3216 C3218 1.395 . S
C3216 C3219 1.403 . S
H3217 C3223 0.930 . S
C3218 H3204 0.930 . S
C3218 C3216 1.395 . S
C3218 C3221 1.403 . S
C3219 C3216 1.403 . S
C3219 C3220 1.524 . S
C3219 C3223 1.400 . S
C3220 H3205 0.960 . S
C3220 H3206 0.960 . S
C3220 H3207 0.960 . S
C3220 C3219 1.524 . S
C3221 C3218 1.403 . S
C3221 C3222 1.392 . S
C3221 C3225 1.495 . S
C3222 C3221 1.392 . S
C3222 C3223 1.385 . S
C3222 C3224 1.478 . S
C3223 H3217 0.930 . S
C3223 C3219 1.400 . S
C3223 C3222 1.385 . S
C3224 C3222 1.478 . S
C3224 C3226 1.381 . S
C3224 C3230 1.383 . S
C3225 C3221 1.495 . S
C3225 H3231 0.959 . S
C3225 H3232 0.961 . S
C3225 H3233 0.960 . S
C3226 C3224 1.381 . S
C3226 C3227 1.394 . S
C3226 H3234 0.930 . S
C3227 C3226 1.394 . S
C3227 C3228 1.383 . S
C3227 H3235 0.929 . S
C3228 C3227 1.383 . S
C3228 C3229 1.377 . S
C3229 H3213 0.930 . S
C3229 C3228 1.377 . S
C3229 C3230 1.379 . S
C3230 H3214 0.931 . S
C3230 C3224 1.383 . S
C3230 C3229 1.379 . S
H3231 C3225 0.959 . S
H3232 C3225 0.961 . S
H3233 C3225 0.960 . S
H3234 C3226 0.930 . S
H3235 C3227 0.929 . S
H3236 C3244 0.929 . S
H3237 C3246 0.930 . S
H3238 C3248 0.930 . S
H3239 C3251 0.929 . S
H3240 C3254 0.930 . S
H3241 C3256 0.960 . S
H3242 C3256 0.960 . S
H3243 C3256 0.960 . S
C3244 H3236 0.929 . S
C3244 C3245 1.377 . S
C3244 C3246 1.384 . S
C3245 C3244 1.377 . S
C3245 C3251 1.390 . S
C3246 H3237 0.930 . S
C3246 C3244 1.384 . S
C3246 C3247 1.372 . S
C3247 C3246 1.372 . S
C3247 C3248 1.400 . S
C3247 C3252 1.490 . S
C3248 H3238 0.930 . S
C3248 C3247 1.400 . S
C3248 C3251 1.386 . S
H3249 C3265 0.930 . S
H3250 C3266 0.931 . S
C3251 H3239 0.929 . S
C3251 C3245 1.390 . S
C3251 C3248 1.386 . S
C3252 C3247 1.490 . S
C3252 C3254 1.395 . S
C3252 C3255 1.403 . S
H3253 C3259 0.930 . S
C3254 H3240 0.930 . S
C3254 C3252 1.395 . S
C3254 C3257 1.403 . S
C3255 C3252 1.403 . S
C3255 C3256 1.524 . S
C3255 C3259 1.400 . S
C3256 H3241 0.960 . S
C3256 H3242 0.960 . S
C3256 H3243 0.960 . S
C3256 C3255 1.524 . S
C3257 C3254 1.403 . S
C3257 C3258 1.392 . S
C3257 C3261 1.495 . S
C3258 C3257 1.392 . S
C3258 C3259 1.385 . S
C3258 C3260 1.478 . S
C3259 H3253 0.930 . S
C3259 C3255 1.400 . S
C3259 C3258 1.385 . S
C3260 C3258 1.478 . S
C3260 C3262 1.381 . S
C3260 C3266 1.383 . S
C3261 C3257 1.495 . S
C3261 H3267 0.959 . S
C3261 H3268 0.961 . S
C3261 H3269 0.960 . S
C3262 C3260 1.381 . S
C3262 C3263 1.394 . S
C3262 H3270 0.930 . S
C3263 C3262 1.394 . S
C3263 C3264 1.383 . S
C3263 H3271 0.929 . S
C3264 C3263 1.383 . S
C3264 C3265 1.377 . S
C3265 H3249 0.930 . S
C3265 C3264 1.377 . S
C3265 C3266 1.379 . S
C3266 H3250 0.931 . S
C3266 C3260 1.383 . S
C3266 C3265 1.379 . S
H3267 C3261 0.959 . S
H3268 C3261 0.961 . S
H3269 C3261 0.960 . S
H3270 C3262 0.930 . S
H3271 C3263 0.929 . S
H3272 C3280 0.929 . S
H3273 C3282 0.930 . S
H3274 C3284 0.930 . S
H3275 C3287 0.929 . S
H3276 C3290 0.930 . S
H3277 C3292 0.960 . S
H3278 C3292 0.960 . S
H3279 C3292 0.960 . S
C3280 H3272 0.929 . S
C3280 C3281 1.377 . S
C3280 C3282 1.384 . S
C3281 C3280 1.377 . S
C3281 C3287 1.390 . S
C3282 H3273 0.930 . S
C3282 C3280 1.384 . S
C3282 C3283 1.372 . S
C3283 C3282 1.372 . S
C3283 C3284 1.400 . S
C3283 C3288 1.490 . S
C3284 H3274 0.930 . S
C3284 C3283 1.400 . S
C3284 C3287 1.386 . S
H3285 C3301 0.930 . S
H3286 C3302 0.931 . S
C3287 H3275 0.929 . S
C3287 C3281 1.390 . S
C3287 C3284 1.386 . S
C3288 C3283 1.490 . S
C3288 C3290 1.395 . S
C3288 C3291 1.403 . S
H3289 C3295 0.930 . S
C3290 H3276 0.930 . S
C3290 C3288 1.395 . S
C3290 C3293 1.403 . S
C3291 C3288 1.403 . S
C3291 C3292 1.524 . S
C3291 C3295 1.400 . S
C3292 H3277 0.960 . S
C3292 H3278 0.960 . S
C3292 H3279 0.960 . S
C3292 C3291 1.524 . S
C3293 C3290 1.403 . S
C3293 C3294 1.392 . S
C3293 C3297 1.495 . S
C3294 C3293 1.392 . S
C3294 C3295 1.385 . S
C3294 C3296 1.478 . S
C3295 H3289 0.930 . S
C3295 C3291 1.400 . S
C3295 C3294 1.385 . S
C3296 C3294 1.478 . S
C3296 C3298 1.381 . S
C3296 C3302 1.383 . S
C3297 C3293 1.495 . S
C3297 H3303 0.959 . S
C3297 H3304 0.961 . S
C3297 H3305 0.960 . S
C3298 C3296 1.381 . S
C3298 C3299 1.394 . S
C3298 H3306 0.930 . S
C3299 C3298 1.394 . S
C3299 C3300 1.383 . S
C3299 H3307 0.929 . S
C3300 C3299 1.383 . S
C3300 C3301 1.377 . S
C3301 H3285 0.930 . S
C3301 C3300 1.377 . S
C3301 C3302 1.379 . S
C3302 H3286 0.931 . S
C3302 C3296 1.383 . S
C3302 C3301 1.379 . S
H3303 C3297 0.959 . S
H3304 C3297 0.961 . S
H3305 C3297 0.960 . S
H3306 C3298 0.930 . S
H3307 C3299 0.929 . S
H3308 C3316 0.929 . S
H3309 C3318 0.930 . S
H3310 C3320 0.930 . S
H3311 C3323 0.929 . S
H3312 C3326 0.930 . S
H3313 C3328 0.960 . S
H3314 C3328 0.960 . S
H3315 C3328 0.960 . S
C3316 H3308 0.929 . S
C3316 C3317 1.377 . S
C3316 C3318 1.384 . S
C3317 C3316 1.377 . S
C3317 C3323 1.390 . S
C3318 H3309 0.930 . S
C3318 C3316 1.384 . S
C3318 C3319 1.372 . S
C3319 C3318 1.372 . S
C3319 C3320 1.400 . S
C3319 C3324 1.490 . S
C3320 H3310 0.930 . S
C3320 C3319 1.400 . S
C3320 C3323 1.386 . S
H3321 C3337 0.930 . S
H3322 C3338 0.931 . S
C3323 H3311 0.929 . S
C3323 C3317 1.390 . S
C3323 C3320 1.386 . S
C3324 C3319 1.490 . S
C3324 C3326 1.395 . S
C3324 C3327 1.403 . S
H3325 C3331 0.930 . S
C3326 H3312 0.930 . S
C3326 C3324 1.395 . S
C3326 C3329 1.403 . S
C3327 C3324 1.403 . S
C3327 C3328 1.524 . S
C3327 C3331 1.400 . S
C3328 H3313 0.960 . S
C3328 H3314 0.960 . S
C3328 H3315 0.960 . S
C3328 C3327 1.524 . S
C3329 C3326 1.403 . S
C3329 C3330 1.392 . S
C3329 C3333 1.495 . S
C3330 C3329 1.392 . S
C3330 C3331 1.385 . S
C3330 C3332 1.478 . S
C3331 H3325 0.930 . S
C3331 C3327 1.400 . S
C3331 C3330 1.385 . S
C3332 C3330 1.478 . S
C3332 C3334 1.381 . S
C3332 C3338 1.383 . S
C3333 C3329 1.495 . S
C3333 H3339 0.959 . S
C3333 H3340 0.961 . S
C3333 H3341 0.960 . S
C3334 C3332 1.381 . S
C3334 C3335 1.394 . S
C3334 H3342 0.930 . S
C3335 C3334 1.394 . S
C3335 C3336 1.383 . S
C3335 H3343 0.929 . S
C3336 C3335 1.383 . S
C3336 C3337 1.377 . S
C3337 H3321 0.930 . S
C3337 C3336 1.377 . S
C3337 C3338 1.379 . S
C3338 H3322 0.931 . S
C3338 C3332 1.383 . S
C3338 C3337 1.379 . S
H3339 C3333 0.959 . S
H3340 C3333 0.961 . S
H3341 C3333 0.960 . S
H3342 C3334 0.930 . S
H3343 C3335 0.929 . S
H3344 C3352 0.929 . S
H3345 C3354 0.930 . S
H3346 C3356 0.930 . S
H3347 C3359 0.929 . S
H3348 C3362 0.930 . S
H3349 C3364 0.960 . S
H3350 C3364 0.960 . S
H3351 C3364 0.960 . S
C3352 H3344 0.929 . S
C3352 C3353 1.377 . S
C3352 C3354 1.384 . S
C3353 C3352 1.377 . S
C3353 C3359 1.390 . S
C3354 H3345 0.930 . S
C3354 C3352 1.384 . S
C3354 C3355 1.372 . S
C3355 C3354 1.372 . S
C3355 C3356 1.400 . S
C3355 C3360 1.490 . S
C3356 H3346 0.930 . S
C3356 C3355 1.400 . S
C3356 C3359 1.386 . S
H3357 C3373 0.930 . S
H3358 C3374 0.931 . S
C3359 H3347 0.929 . S
C3359 C3353 1.390 . S
C3359 C3356 1.386 . S
C3360 C3355 1.490 . S
C3360 C3362 1.395 . S
C3360 C3363 1.403 . S
H3361 C3367 0.930 . S
C3362 H3348 0.930 . S
C3362 C3360 1.395 . S
C3362 C3365 1.403 . S
C3363 C3360 1.403 . S
C3363 C3364 1.524 . S
C3363 C3367 1.400 . S
C3364 H3349 0.960 . S
C3364 H3350 0.960 . S
C3364 H3351 0.960 . S
C3364 C3363 1.524 . S
C3365 C3362 1.403 . S
C3365 C3366 1.392 . S
C3365 C3369 1.495 . S
C3366 C3365 1.392 . S
C3366 C3367 1.385 . S
C3366 C3368 1.478 . S
C3367 H3361 0.930 . S
C3367 C3363 1.400 . S
C3367 C3366 1.385 . S
C3368 C3366 1.478 . S
C3368 C3370 1.381 . S
C3368 C3374 1.383 . S
C3369 C3365 1.495 . S
C3369 H3375 0.959 . S
C3369 H3376 0.961 . S
C3369 H3377 0.960 . S
C3370 C3368 1.381 . S
C3370 C3371 1.394 . S
C3370 H3378 0.930 . S
C3371 C3370 1.394 . S
C3371 C3372 1.383 . S
C3371 H3379 0.929 . S
C3372 C3371 1.383 . S
C3372 C3373 1.377 . S
C3373 H3357 0.930 . S
C3373 C3372 1.377 . S
C3373 C3374 1.379 . S
C3374 H3358 0.931 . S
C3374 C3368 1.383 . S
C3374 C3373 1.379 . S
H3375 C3369 0.959 . S
H3376 C3369 0.961 . S
H3377 C3369 0.960 . S
H3378 C3370 0.930 . S
H3379 C3371 0.929 . S
H3380 C3388 0.929 . S
H3381 C3390 0.930 . S
H3382 C3392 0.930 . S
H3383 C3395 0.929 . S
H3384 C3398 0.930 . S
H3385 C3400 0.960 . S
H3386 C3400 0.960 . S
H3387 C3400 0.960 . S
C3388 H3380 0.929 . S
C3388 C3389 1.377 . S
C3388 C3390 1.384 . S
C3389 C3388 1.377 . S
C3389 C3395 1.390 . S
C3390 H3381 0.930 . S
C3390 C3388 1.384 . S
C3390 C3391 1.372 . S
C3391 C3390 1.372 . S
C3391 C3392 1.400 . S
C3391 C3396 1.490 . S
C3392 H3382 0.930 . S
C3392 C3391 1.400 . S
C3392 C3395 1.386 . S
H3393 C3409 0.930 . S
H3394 C3410 0.931 . S
C3395 H3383 0.929 . S
C3395 C3389 1.390 . S
C3395 C3392 1.386 . S
C3396 C3391 1.490 . S
C3396 C3398 1.395 . S
C3396 C3399 1.403 . S
H3397 C3403 0.930 . S
C3398 H3384 0.930 . S
C3398 C3396 1.395 . S
C3398 C3401 1.403 . S
C3399 C3396 1.403 . S
C3399 C3400 1.524 . S
C3399 C3403 1.400 . S
C3400 H3385 0.960 . S
C3400 H3386 0.960 . S
C3400 H3387 0.960 . S
C3400 C3399 1.524 . S
C3401 C3398 1.403 . S
C3401 C3402 1.392 . S
C3401 C3405 1.495 . S
C3402 C3401 1.392 . S
C3402 C3403 1.385 . S
C3402 C3404 1.478 . S
C3403 H3397 0.930 . S
C3403 C3399 1.400 . S
C3403 C3402 1.385 . S
C3404 C3402 1.478 . S
C3404 C3406 1.381 . S
C3404 C3410 1.383 . S
C3405 C3401 1.495 . S
C3405 H3411 0.959 . S
C3405 H3412 0.961 . S
C3405 H3413 0.960 . S
C3406 C3404 1.381 . S
C3406 C3407 1.394 . S
C3406 H3414 0.930 . S
C3407 C3406 1.394 . S
C3407 C3408 1.383 . S
C3407 H3415 0.929 . S
C3408 C3407 1.383 . S
C3408 C3409 1.377 . S
C3409 H3393 0.930 . S
C3409 C3408 1.377 . S
C3409 C3410 1.379 . S
C3410 H3394 0.931 . S
C3410 C3404 1.383 . S
C3410 C3409 1.379 . S
H3411 C3405 0.959 . S
H3412 C3405 0.961 . S
H3413 C3405 0.960 . S
H3414 C3406 0.930 . S
H3415 C3407 0.929 . S
H3416 C3424 0.929 . S
H3417 C3426 0.930 . S
H3418 C3428 0.930 . S
H3419 C3431 0.929 . S
H3420 C3434 0.930 . S
H3421 C3436 0.960 . S
H3422 C3436 0.960 . S
H3423 C3436 0.960 . S
C3424 H3416 0.929 . S
C3424 C3425 1.377 . S
C3424 C3426 1.384 . S
C3425 C3424 1.377 . S
C3425 C3431 1.390 . S
C3426 H3417 0.930 . S
C3426 C3424 1.384 . S
C3426 C3427 1.372 . S
C3427 C3426 1.372 . S
C3427 C3428 1.400 . S
C3427 C3432 1.490 . S
C3428 H3418 0.930 . S
C3428 C3427 1.400 . S
C3428 C3431 1.386 . S
H3429 C3445 0.930 . S
H3430 C3446 0.931 . S
C3431 H3419 0.929 . S
C3431 C3425 1.390 . S
C3431 C3428 1.386 . S
C3432 C3427 1.490 . S
C3432 C3434 1.395 . S
C3432 C3435 1.403 . S
H3433 C3439 0.930 . S
C3434 H3420 0.930 . S
C3434 C3432 1.395 . S
C3434 C3437 1.403 . S
C3435 C3432 1.403 . S
C3435 C3436 1.524 . S
C3435 C3439 1.400 . S
C3436 H3421 0.960 . S
C3436 H3422 0.960 . S
C3436 H3423 0.960 . S
C3436 C3435 1.524 . S
C3437 C3434 1.403 . S
C3437 C3438 1.392 . S
C3437 C3441 1.495 . S
C3438 C3437 1.392 . S
C3438 C3439 1.385 . S
C3438 C3440 1.478 . S
C3439 H3433 0.930 . S
C3439 C3435 1.400 . S
C3439 C3438 1.385 . S
C3440 C3438 1.478 . S
C3440 C3442 1.381 . S
C3440 C3446 1.383 . S
C3441 C3437 1.495 . S
C3441 H3447 0.959 . S
C3441 H3448 0.961 . S
C3441 H3449 0.960 . S
C3442 C3440 1.381 . S
C3442 C3443 1.394 . S
C3442 H3450 0.930 . S
C3443 C3442 1.394 . S
C3443 C3444 1.383 . S
C3443 H3451 0.929 . S
C3444 C3443 1.383 . S
C3444 C3445 1.377 . S
C3445 H3429 0.930 . S
C3445 C3444 1.377 . S
C3445 C3446 1.379 . S
C3446 H3430 0.931 . S
C3446 C3440 1.383 . S
C3446 C3445 1.379 . S
H3447 C3441 0.959 . S
H3448 C3441 0.961 . S
H3449 C3441 0.960 . S
H3450 C3442 0.930 . S
H3451 C3443 0.929 . S
H3452 C3460 0.929 . S
H3453 C3462 0.930 . S
H3454 C3464 0.930 . S
H3455 C3467 0.929 . S
H3456 C3470 0.930 . S
H3457 C3472 0.960 . S
H3458 C3472 0.960 . S
H3459 C3472 0.960 . S
C3460 H3452 0.929 . S
C3460 C3461 1.377 . S
C3460 C3462 1.384 . S
C3461 C3460 1.377 . S
C3461 C3467 1.390 . S
C3462 H3453 0.930 . S
C3462 C3460 1.384 . S
C3462 C3463 1.372 . S
C3463 C3462 1.372 . S
C3463 C3464 1.400 . S
C3463 C3468 1.490 . S
C3464 H3454 0.930 . S
C3464 C3463 1.400 . S
C3464 C3467 1.386 . S
H3465 C3481 0.930 . S
H3466 C3482 0.931 . S
C3467 H3455 0.929 . S
C3467 C3461 1.390 . S
C3467 C3464 1.386 . S
C3468 C3463 1.490 . S
C3468 C3470 1.395 . S
C3468 C3471 1.403 . S
H3469 C3475 0.930 . S
C3470 H3456 0.930 . S
C3470 C3468 1.395 . S
C3470 C3473 1.403 . S
C3471 C3468 1.403 . S
C3471 C3472 1.524 . S
C3471 C3475 1.400 . S
C3472 H3457 0.960 . S
C3472 H3458 0.960 . S
C3472 H3459 0.960 . S
C3472 C3471 1.524 . S
C3473 C3470 1.403 . S
C3473 C3474 1.392 . S
C3473 C3477 1.495 . S
C3474 C3473 1.392 . S
C3474 C3475 1.385 . S
C3474 C3476 1.478 . S
C3475 H3469 0.930 . S
C3475 C3471 1.400 . S
C3475 C3474 1.385 . S
C3476 C3474 1.478 . S
C3476 C3478 1.381 . S
C3476 C3482 1.383 . S
C3477 C3473 1.495 . S
C3477 H3483 0.959 . S
C3477 H3484 0.961 . S
C3477 H3485 0.960 . S
C3478 C3476 1.381 . S
C3478 C3479 1.394 . S
C3478 H3486 0.930 . S
C3479 C3478 1.394 . S
C3479 C3480 1.383 . S
C3479 H3487 0.929 . S
C3480 C3479 1.383 . S
C3480 C3481 1.377 . S
C3481 H3465 0.930 . S
C3481 C3480 1.377 . S
C3481 C3482 1.379 . S
C3482 H3466 0.931 . S
C3482 C3476 1.383 . S
C3482 C3481 1.379 . S
H3483 C3477 0.959 . S
H3484 C3477 0.961 . S
H3485 C3477 0.960 . S
H3486 C3478 0.930 . S
H3487 C3479 0.929 . S
H3488 C3496 0.929 . S
H3489 C3498 0.930 . S
H3490 C3500 0.930 . S
H3491 C3503 0.929 . S
H3492 C3506 0.930 . S
H3493 C3508 0.960 . S
H3494 C3508 0.960 . S
H3495 C3508 0.960 . S
C3496 H3488 0.929 . S
C3496 C3497 1.377 . S
C3496 C3498 1.384 . S
C3497 C3496 1.377 . S
C3497 C3503 1.390 . S
C3498 H3489 0.930 . S
C3498 C3496 1.384 . S
C3498 C3499 1.372 . S
C3499 C3498 1.372 . S
C3499 C3500 1.400 . S
C3499 C3504 1.490 . S
C3500 H3490 0.930 . S
C3500 C3499 1.400 . S
C3500 C3503 1.386 . S
H3501 C3517 0.930 . S
H3502 C3518 0.931 . S
C3503 H3491 0.929 . S
C3503 C3497 1.390 . S
C3503 C3500 1.386 . S
C3504 C3499 1.490 . S
C3504 C3506 1.395 . S
C3504 C3507 1.403 . S
H3505 C3511 0.930 . S
C3506 H3492 0.930 . S
C3506 C3504 1.395 . S
C3506 C3509 1.403 . S
C3507 C3504 1.403 . S
C3507 C3508 1.524 . S
C3507 C3511 1.400 . S
C3508 H3493 0.960 . S
C3508 H3494 0.960 . S
C3508 H3495 0.960 . S
C3508 C3507 1.524 . S
C3509 C3506 1.403 . S
C3509 C3510 1.392 . S
C3509 C3513 1.495 . S
C3510 C3509 1.392 . S
C3510 C3511 1.385 . S
C3510 C3512 1.478 . S
C3511 H3505 0.930 . S
C3511 C3507 1.400 . S
C3511 C3510 1.385 . S
C3512 C3510 1.478 . S
C3512 C3514 1.381 . S
C3512 C3518 1.383 . S
C3513 C3509 1.495 . S
C3513 H3519 0.959 . S
C3513 H3520 0.961 . S
C3513 H3521 0.960 . S
C3514 C3512 1.381 . S
C3514 C3515 1.394 . S
C3514 H3522 0.930 . S
C3515 C3514 1.394 . S
C3515 C3516 1.383 . S
C3515 H3523 0.929 . S
C3516 C3515 1.383 . S
C3516 C3517 1.377 . S
C3517 H3501 0.930 . S
C3517 C3516 1.377 . S
C3517 C3518 1.379 . S
C3518 H3502 0.931 . S
C3518 C3512 1.383 . S
C3518 C3517 1.379 . S
H3519 C3513 0.959 . S
H3520 C3513 0.961 . S
H3521 C3513 0.960 . S
H3522 C3514 0.930 . S
H3523 C3515 0.929 . S
H3524 C3532 0.929 . S
H3525 C3534 0.930 . S
H3526 C3536 0.930 . S
H3527 C3539 0.929 . S
H3528 C3542 0.930 . S
H3529 C3544 0.960 . S
H3530 C3544 0.960 . S
H3531 C3544 0.960 . S
C3532 H3524 0.929 . S
C3532 C3533 1.377 . S
C3532 C3534 1.384 . S
C3533 C3532 1.377 . S
C3533 C3539 1.390 . S
C3534 H3525 0.930 . S
C3534 C3532 1.384 . S
C3534 C3535 1.372 . S
C3535 C3534 1.372 . S
C3535 C3536 1.400 . S
C3535 C3540 1.490 . S
C3536 H3526 0.930 . S
C3536 C3535 1.400 . S
C3536 C3539 1.386 . S
H3537 C3553 0.930 . S
H3538 C3554 0.931 . S
C3539 H3527 0.929 . S
C3539 C3533 1.390 . S
C3539 C3536 1.386 . S
C3540 C3535 1.490 . S
C3540 C3542 1.395 . S
C3540 C3543 1.403 . S
H3541 C3547 0.930 . S
C3542 H3528 0.930 . S
C3542 C3540 1.395 . S
C3542 C3545 1.403 . S
C3543 C3540 1.403 . S
C3543 C3544 1.524 . S
C3543 C3547 1.400 . S
C3544 H3529 0.960 . S
C3544 H3530 0.960 . S
C3544 H3531 0.960 . S
C3544 C3543 1.524 . S
C3545 C3542 1.403 . S
C3545 C3546 1.392 . S
C3545 C3549 1.495 . S
C3546 C3545 1.392 . S
C3546 C3547 1.385 . S
C3546 C3548 1.478 . S
C3547 H3541 0.930 . S
C3547 C3543 1.400 . S
C3547 C3546 1.385 . S
C3548 C3546 1.478 . S
C3548 C3550 1.381 . S
C3548 C3554 1.383 . S
C3549 C3545 1.495 . S
C3549 H3555 0.959 . S
C3549 H3556 0.961 . S
C3549 H3557 0.960 . S
C3550 C3548 1.381 . S
C3550 C3551 1.394 . S
C3550 H3558 0.930 . S
C3551 C3550 1.394 . S
C3551 C3552 1.383 . S
C3551 H3559 0.929 . S
C3552 C3551 1.383 . S
C3552 C3553 1.377 . S
C3553 H3537 0.930 . S
C3553 C3552 1.377 . S
C3553 C3554 1.379 . S
C3554 H3538 0.931 . S
C3554 C3548 1.383 . S
C3554 C3553 1.379 . S
H3555 C3549 0.959 . S
H3556 C3549 0.961 . S
H3557 C3549 0.960 . S
H3558 C3550 0.930 . S
H3559 C3551 0.929 . S
H3560 C3568 0.929 . S
H3561 C3570 0.930 . S
H3562 C3572 0.930 . S
H3563 C3575 0.929 . S
H3564 C3578 0.930 . S
H3565 C3580 0.960 . S
H3566 C3580 0.960 . S
H3567 C3580 0.960 . S
C3568 H3560 0.929 . S
C3568 C3569 1.377 . S
C3568 C3570 1.384 . S
C3569 C3568 1.377 . S
C3569 C3575 1.390 . S
C3570 H3561 0.930 . S
C3570 C3568 1.384 . S
C3570 C3571 1.372 . S
C3571 C3570 1.372 . S
C3571 C3572 1.400 . S
C3571 C3576 1.490 . S
C3572 H3562 0.930 . S
C3572 C3571 1.400 . S
C3572 C3575 1.386 . S
H3573 C3589 0.930 . S
H3574 C3590 0.931 . S
C3575 H3563 0.929 . S
C3575 C3569 1.390 . S
C3575 C3572 1.386 . S
C3576 C3571 1.490 . S
C3576 C3578 1.395 . S
C3576 C3579 1.403 . S
H3577 C3583 0.930 . S
C3578 H3564 0.930 . S
C3578 C3576 1.395 . S
C3578 C3581 1.403 . S
C3579 C3576 1.403 . S
C3579 C3580 1.524 . S
C3579 C3583 1.400 . S
C3580 H3565 0.960 . S
C3580 H3566 0.960 . S
C3580 H3567 0.960 . S
C3580 C3579 1.524 . S
C3581 C3578 1.403 . S
C3581 C3582 1.392 . S
C3581 C3585 1.495 . S
C3582 C3581 1.392 . S
C3582 C3583 1.385 . S
C3582 C3584 1.478 . S
C3583 H3577 0.930 . S
C3583 C3579 1.400 . S
C3583 C3582 1.385 . S
C3584 C3582 1.478 . S
C3584 C3586 1.381 . S
C3584 C3590 1.383 . S
C3585 C3581 1.495 . S
C3585 H3591 0.959 . S
C3585 H3592 0.961 . S
C3585 H3593 0.960 . S
C3586 C3584 1.381 . S
C3586 C3587 1.394 . S
C3586 H3594 0.930 . S
C3587 C3586 1.394 . S
C3587 C3588 1.383 . S
C3587 H3595 0.929 . S
C3588 C3587 1.383 . S
C3588 C3589 1.377 . S
C3589 H3573 0.930 . S
C3589 C3588 1.377 . S
C3589 C3590 1.379 . S
C3590 H3574 0.931 . S
C3590 C3584 1.383 . S
C3590 C3589 1.379 . S
H3591 C3585 0.959 . S
H3592 C3585 0.961 . S
H3593 C3585 0.960 . S
H3594 C3586 0.930 . S
H3595 C3587 0.929 . S
H3596 C3604 0.929 . S
H3597 C3606 0.930 . S
H3598 C3608 0.930 . S
H3599 C3611 0.929 . S
H3600 C3614 0.930 1_556 S
H3601 C3616 0.960 . S
H3602 C3616 0.960 . S
H3603 C3616 0.960 . S
C3604 H3596 0.929 . S
C3604 C3605 1.377 . S
C3604 C3606 1.384 . S
C3605 C3604 1.377 . S
C3605 C3611 1.390 . S
C3606 H3597 0.930 . S
C3606 C3604 1.384 . S
C3606 C3607 1.372 . S
C3607 C3606 1.372 . S
C3607 C3608 1.400 . S
C3607 C3612 1.490 . S
C3608 H3598 0.930 . S
C3608 C3607 1.400 . S
C3608 C3611 1.386 . S
H3609 C3625 0.930 . S
H3610 C3626 0.931 . S
C3611 H3599 0.929 . S
C3611 C3605 1.390 . S
C3611 C3608 1.386 . S
C3612 C3607 1.490 . S
C3612 C3614 1.395 . S
C3612 C3615 1.403 . S
H3613 C3619 0.930 . S
C3614 H3600 0.930 1_554 S
C3614 C3612 1.395 . S
C3614 C3617 1.403 . S
C3615 C3612 1.403 . S
C3615 C3616 1.524 . S
C3615 C3619 1.400 . S
C3616 H3601 0.960 . S
C3616 H3602 0.960 . S
C3616 H3603 0.960 . S
C3616 C3615 1.524 . S
C3617 C3614 1.403 . S
C3617 C3618 1.392 . S
C3617 C3621 1.495 1_554 S
C3618 C3617 1.392 . S
C3618 C3619 1.385 . S
C3618 C3620 1.478 . S
C3619 H3613 0.930 . S
C3619 C3615 1.400 . S
C3619 C3618 1.385 . S
C3620 C3618 1.478 . S
C3620 C3622 1.381 . S
C3620 C3626 1.383 1_565 S
C3621 C3617 1.495 1_556 S
C3621 H3627 0.959 . S
C3621 H3628 0.961 . S
C3621 H3629 0.960 . S
C3622 C3620 1.381 . S
C3622 C3623 1.394 . S
C3622 H3630 0.930 . S
C3623 C3622 1.394 . S
C3623 C3624 1.383 1_565 S
C3623 H3631 0.929 . S
C3624 C3623 1.383 1_545 S
C3624 C3625 1.377 . S
C3625 H3609 0.930 . S
C3625 C3624 1.377 . S
C3625 C3626 1.379 . S
C3626 H3610 0.931 . S
C3626 C3620 1.383 1_545 S
C3626 C3625 1.379 . S
H3627 C3621 0.959 . S
H3628 C3621 0.961 . S
H3629 C3621 0.960 . S
H3630 C3622 0.930 . S
H3631 C3623 0.929 . S
H3632 C3640 0.929 . S
H3633 C3642 0.930 . S
H3634 C3644 0.930 . S
H3635 C3647 0.929 . S
H3636 C3650 0.930 . S
H3637 C3652 0.960 . S
H3638 C3652 0.960 . S
H3639 C3652 0.960 . S
C3640 H3632 0.929 . S
C3640 C3641 1.377 . S
C3640 C3642 1.384 . S
C3641 C3640 1.377 . S
C3641 C3647 1.390 . S
C3642 H3633 0.930 . S
C3642 C3640 1.384 . S
C3642 C3643 1.372 . S
C3643 C3642 1.372 . S
C3643 C3644 1.400 . S
C3643 C3648 1.490 . S
C3644 H3634 0.930 . S
C3644 C3643 1.400 . S
C3644 C3647 1.386 . S
H3645 C3661 0.930 . S
H3646 C3662 0.931 . S
C3647 H3635 0.929 . S
C3647 C3641 1.390 . S
C3647 C3644 1.386 . S
C3648 C3643 1.490 . S
C3648 C3650 1.395 . S
C3648 C3651 1.403 . S
H3649 C3655 0.930 . S
C3650 H3636 0.930 . S
C3650 C3648 1.395 . S
C3650 C3653 1.403 . S
C3651 C3648 1.403 . S
C3651 C3652 1.524 . S
C3651 C3655 1.400 . S
C3652 H3637 0.960 . S
C3652 H3638 0.960 . S
C3652 H3639 0.960 . S
C3652 C3651 1.524 . S
C3653 C3650 1.403 . S
C3653 C3654 1.392 . S
C3653 C3657 1.495 . S
C3654 C3653 1.392 . S
C3654 C3655 1.385 . S
C3654 C3656 1.478 . S
C3655 H3649 0.930 . S
C3655 C3651 1.400 . S
C3655 C3654 1.385 . S
C3656 C3654 1.478 . S
C3656 C3658 1.381 . S
C3656 C3662 1.383 . S
C3657 C3653 1.495 . S
C3657 H3663 0.959 . S
C3657 H3664 0.961 . S
C3657 H3665 0.960 . S
C3658 C3656 1.381 . S
C3658 C3659 1.394 . S
C3658 H3666 0.930 . S
C3659 C3658 1.394 . S
C3659 C3660 1.383 . S
C3659 H3667 0.929 . S
C3660 C3659 1.383 . S
C3660 C3661 1.377 . S
C3661 H3645 0.930 . S
C3661 C3660 1.377 . S
C3661 C3662 1.379 . S
C3662 H3646 0.931 . S
C3662 C3656 1.383 . S
C3662 C3661 1.379 . S
H3663 C3657 0.959 . S
H3664 C3657 0.961 . S
H3665 C3657 0.960 . S
H3666 C3658 0.930 . S
H3667 C3659 0.929 . S
H3668 C3676 0.929 . S
H3669 C3678 0.930 . S
H3670 C3680 0.930 . S
H3671 C3683 0.929 . S
H3672 C3686 0.930 . S
H3673 C3688 0.960 . S
H3674 C3688 0.960 . S
H3675 C3688 0.960 . S
C3676 H3668 0.929 . S
C3676 C3677 1.377 . S
C3676 C3678 1.384 . S
C3677 C3676 1.377 . S
C3677 C3683 1.390 . S
C3678 H3669 0.930 . S
C3678 C3676 1.384 . S
C3678 C3679 1.372 . S
C3679 C3678 1.372 . S
C3679 C3680 1.400 . S
C3679 C3684 1.490 . S
C3680 H3670 0.930 . S
C3680 C3679 1.400 . S
C3680 C3683 1.386 . S
H3681 C3697 0.930 . S
H3682 C3698 0.931 . S
C3683 H3671 0.929 . S
C3683 C3677 1.390 . S
C3683 C3680 1.386 . S
C3684 C3679 1.490 . S
C3684 C3686 1.395 . S
C3684 C3687 1.403 . S
H3685 C3691 0.930 1_556 S
C3686 H3672 0.930 . S
C3686 C3684 1.395 . S
C3686 C3689 1.403 . S
C3687 C3684 1.403 . S
C3687 C3688 1.524 1_554 S
C3687 C3691 1.400 . S
C3688 H3673 0.960 . S
C3688 H3674 0.960 . S
C3688 H3675 0.960 . S
C3688 C3687 1.524 1_556 S
C3689 C3686 1.403 . S
C3689 C3690 1.392 . S
C3689 C3693 1.495 . S
C3690 C3689 1.392 . S
C3690 C3691 1.385 . S
C3690 C3692 1.478 . S
C3691 H3685 0.930 1_554 S
C3691 C3687 1.400 . S
C3691 C3690 1.385 . S
C3692 C3690 1.478 . S
C3692 C3694 1.381 . S
C3692 C3698 1.383 . S
C3693 C3689 1.495 . S
C3693 H3699 0.959 . S
C3693 H3700 0.961 . S
C3693 H3701 0.960 . S
C3694 C3692 1.381 . S
C3694 C3695 1.394 . S
C3694 H3702 0.930 . S
C3695 C3694 1.394 . S
C3695 C3696 1.383 . S
C3695 H3703 0.929 . S
C3696 C3695 1.383 . S
C3696 C3697 1.377 . S
C3697 H3681 0.930 . S
C3697 C3696 1.377 . S
C3697 C3698 1.379 . S
C3698 H3682 0.931 . S
C3698 C3692 1.383 . S
C3698 C3697 1.379 . S
H3699 C3693 0.959 . S
H3700 C3693 0.961 . S
H3701 C3693 0.960 . S
H3702 C3694 0.930 . S
H3703 C3695 0.929 . S
H3704 C3712 0.929 . S
H3705 C3714 0.930 . S
H3706 C3716 0.930 . S
H3707 C3719 0.929 . S
H3708 C3722 0.930 . S
H3709 C3724 0.960 . S
H3710 C3724 0.960 . S
H3711 C3724 0.960 . S
C3712 H3704 0.929 . S
C3712 C3713 1.377 . S
C3712 C3714 1.384 . S
C3713 C3712 1.377 . S
C3713 C3719 1.390 . S
C3714 H3705 0.930 . S
C3714 C3712 1.384 . S
C3714 C3715 1.372 . S
C3715 C3714 1.372 . S
C3715 C3716 1.400 . S
C3715 C3720 1.490 . S
C3716 H3706 0.930 . S
C3716 C3715 1.400 . S
C3716 C3719 1.386 . S
H3717 C3733 0.930 . S
H3718 C3734 0.931 . S
C3719 H3707 0.929 . S
C3719 C3713 1.390 . S
C3719 C3716 1.386 . S
C3720 C3715 1.490 . S
C3720 C3722 1.395 . S
C3720 C3723 1.403 . S
H3721 C3727 0.930 . S
C3722 H3708 0.930 . S
C3722 C3720 1.395 . S
C3722 C3725 1.403 . S
C3723 C3720 1.403 . S
C3723 C3724 1.524 . S
C3723 C3727 1.400 . S
C3724 H3709 0.960 . S
C3724 H3710 0.960 . S
C3724 H3711 0.960 . S
C3724 C3723 1.524 . S
C3725 C3722 1.403 . S
C3725 C3726 1.392 . S
C3725 C3729 1.495 . S
C3726 C3725 1.392 . S
C3726 C3727 1.385 . S
C3726 C3728 1.478 . S
C3727 H3721 0.930 . S
C3727 C3723 1.400 . S
C3727 C3726 1.385 . S
C3728 C3726 1.478 . S
C3728 C3730 1.381 . S
C3728 C3734 1.383 . S
C3729 C3725 1.495 . S
C3729 H3735 0.959 . S
C3729 H3736 0.961 . S
C3729 H3737 0.960 . S
C3730 C3728 1.381 . S
C3730 C3731 1.394 . S
C3730 H3738 0.930 . S
C3731 C3730 1.394 . S
C3731 C3732 1.383 . S
C3731 H3739 0.929 . S
C3732 C3731 1.383 . S
C3732 C3733 1.377 . S
C3733 H3717 0.930 . S
C3733 C3732 1.377 . S
C3733 C3734 1.379 . S
C3734 H3718 0.931 . S
C3734 C3728 1.383 . S
C3734 C3733 1.379 . S
H3735 C3729 0.959 . S
H3736 C3729 0.961 . S
H3737 C3729 0.960 . S
H3738 C3730 0.930 . S
H3739 C3731 0.929 . S
H3740 C3748 0.929 . S
H3741 C3750 0.930 . S
H3742 C3752 0.930 . S
H3743 C3755 0.929 . S
H3744 C3758 0.930 . S
H3745 C3760 0.960 . S
H3746 C3760 0.960 . S
H3747 C3760 0.960 . S
C3748 H3740 0.929 . S
C3748 C3749 1.377 . S
C3748 C3750 1.384 . S
C3749 C3748 1.377 . S
C3749 C3755 1.390 . S
C3750 H3741 0.930 . S
C3750 C3748 1.384 . S
C3750 C3751 1.372 . S
C3751 C3750 1.372 . S
C3751 C3752 1.400 . S
C3751 C3756 1.490 . S
C3752 H3742 0.930 . S
C3752 C3751 1.400 . S
C3752 C3755 1.386 . S
H3753 C3769 0.930 . S
H3754 C3770 0.931 . S
C3755 H3743 0.929 . S
C3755 C3749 1.390 . S
C3755 C3752 1.386 . S
C3756 C3751 1.490 . S
C3756 C3758 1.395 . S
C3756 C3759 1.403 . S
H3757 C3763 0.930 . S
C3758 H3744 0.930 . S
C3758 C3756 1.395 . S
C3758 C3761 1.403 . S
C3759 C3756 1.403 . S
C3759 C3760 1.524 . S
C3759 C3763 1.400 . S
C3760 H3745 0.960 . S
C3760 H3746 0.960 . S
C3760 H3747 0.960 . S
C3760 C3759 1.524 . S
C3761 C3758 1.403 . S
C3761 C3762 1.392 . S
C3761 C3765 1.495 . S
C3762 C3761 1.392 . S
C3762 C3763 1.385 . S
C3762 C3764 1.478 . S
C3763 H3757 0.930 . S
C3763 C3759 1.400 . S
C3763 C3762 1.385 . S
C3764 C3762 1.478 . S
C3764 C3766 1.381 . S
C3764 C3770 1.383 . S
C3765 C3761 1.495 . S
C3765 H3771 0.959 . S
C3765 H3772 0.961 . S
C3765 H3773 0.960 . S
C3766 C3764 1.381 . S
C3766 C3767 1.394 . S
C3766 H3774 0.930 . S
C3767 C3766 1.394 . S
C3767 C3768 1.383 . S
C3767 H3775 0.929 . S
C3768 C3767 1.383 . S
C3768 C3769 1.377 . S
C3769 H3753 0.930 . S
C3769 C3768 1.377 . S
C3769 C3770 1.379 . S
C3770 H3754 0.931 . S
C3770 C3764 1.383 . S
C3770 C3769 1.379 . S
H3771 C3765 0.959 . S
H3772 C3765 0.961 . S
H3773 C3765 0.960 . S
H3774 C3766 0.930 . S
H3775 C3767 0.929 . S
H3776 C3784 0.929 . S
H3777 C3786 0.930 . S
H3778 C3788 0.930 . S
H3779 C3791 0.929 . S
H3780 C3794 0.930 . S
H3781 C3796 0.960 . S
H3782 C3796 0.960 . S
H3783 C3796 0.960 . S
C3784 H3776 0.929 . S
C3784 C3785 1.377 . S
C3784 C3786 1.384 . S
C3785 C3784 1.377 . S
C3785 C3791 1.390 . S
C3786 H3777 0.930 . S
C3786 C3784 1.384 . S
C3786 C3787 1.372 . S
C3787 C3786 1.372 . S
C3787 C3788 1.400 . S
C3787 C3792 1.490 . S
C3788 H3778 0.930 . S
C3788 C3787 1.400 . S
C3788 C3791 1.386 . S
H3789 C3805 0.930 . S
H3790 C3806 0.931 . S
C3791 H3779 0.929 . S
C3791 C3785 1.390 . S
C3791 C3788 1.386 . S
C3792 C3787 1.490 . S
C3792 C3794 1.395 . S
C3792 C3795 1.403 . S
H3793 C3799 0.930 . S
C3794 H3780 0.930 . S
C3794 C3792 1.395 . S
C3794 C3797 1.403 . S
C3795 C3792 1.403 . S
C3795 C3796 1.524 . S
C3795 C3799 1.400 . S
C3796 H3781 0.960 . S
C3796 H3782 0.960 . S
C3796 H3783 0.960 . S
C3796 C3795 1.524 . S
C3797 C3794 1.403 . S
C3797 C3798 1.392 . S
C3797 C3801 1.495 . S
C3798 C3797 1.392 . S
C3798 C3799 1.385 . S
C3798 C3800 1.478 . S
C3799 H3793 0.930 . S
C3799 C3795 1.400 . S
C3799 C3798 1.385 . S
C3800 C3798 1.478 . S
C3800 C3802 1.381 . S
C3800 C3806 1.383 . S
C3801 C3797 1.495 . S
C3801 H3807 0.959 . S
C3801 H3808 0.961 . S
C3801 H3809 0.960 . S
C3802 C3800 1.381 . S
C3802 C3803 1.394 . S
C3802 H3810 0.930 . S
C3803 C3802 1.394 . S
C3803 C3804 1.383 . S
C3803 H3811 0.929 . S
C3804 C3803 1.383 . S
C3804 C3805 1.377 . S
C3805 H3789 0.930 . S
C3805 C3804 1.377 . S
C3805 C3806 1.379 . S
C3806 H3790 0.931 . S
C3806 C3800 1.383 . S
C3806 C3805 1.379 . S
H3807 C3801 0.959 . S
H3808 C3801 0.961 . S
H3809 C3801 0.960 . S
H3810 C3802 0.930 . S
H3811 C3803 0.929 . S
H3812 C3820 0.929 . S
H3813 C3822 0.930 . S
H3814 C3824 0.930 . S
H3815 C3827 0.929 . S
H3816 C3830 0.930 . S
H3817 C3832 0.960 . S
H3818 C3832 0.960 . S
H3819 C3832 0.960 . S
C3820 H3812 0.929 . S
C3820 C3821 1.377 . S
C3820 C3822 1.384 . S
C3821 C3820 1.377 . S
C3821 C3827 1.390 . S
C3822 H3813 0.930 . S
C3822 C3820 1.384 . S
C3822 C3823 1.372 . S
C3823 C3822 1.372 . S
C3823 C3824 1.400 . S
C3823 C3828 1.490 . S
C3824 H3814 0.930 . S
C3824 C3823 1.400 . S
C3824 C3827 1.386 . S
H3825 C3841 0.930 . S
H3826 C3842 0.931 . S
C3827 H3815 0.929 . S
C3827 C3821 1.390 . S
C3827 C3824 1.386 . S
C3828 C3823 1.490 . S
C3828 C3830 1.395 . S
C3828 C3831 1.403 . S
H3829 C3835 0.930 . S
C3830 H3816 0.930 . S
C3830 C3828 1.395 . S
C3830 C3833 1.403 . S
C3831 C3828 1.403 . S
C3831 C3832 1.524 . S
C3831 C3835 1.400 . S
C3832 H3817 0.960 . S
C3832 H3818 0.960 . S
C3832 H3819 0.960 . S
C3832 C3831 1.524 . S
C3833 C3830 1.403 . S
C3833 C3834 1.392 . S
C3833 C3837 1.495 . S
C3834 C3833 1.392 . S
C3834 C3835 1.385 . S
C3834 C3836 1.478 . S
C3835 H3829 0.930 . S
C3835 C3831 1.400 . S
C3835 C3834 1.385 . S
C3836 C3834 1.478 . S
C3836 C3838 1.381 . S
C3836 C3842 1.383 . S
C3837 C3833 1.495 . S
C3837 H3843 0.959 . S
C3837 H3844 0.961 . S
C3837 H3845 0.960 . S
C3838 C3836 1.381 . S
C3838 C3839 1.394 . S
C3838 H3846 0.930 . S
C3839 C3838 1.394 . S
C3839 C3840 1.383 . S
C3839 H3847 0.929 . S
C3840 C3839 1.383 . S
C3840 C3841 1.377 . S
C3841 H3825 0.930 . S
C3841 C3840 1.377 . S
C3841 C3842 1.379 . S
C3842 H3826 0.931 . S
C3842 C3836 1.383 . S
C3842 C3841 1.379 . S
H3843 C3837 0.959 . S
H3844 C3837 0.961 . S
H3845 C3837 0.960 . S
H3846 C3838 0.930 . S
H3847 C3839 0.929 . S
H3848 C3856 0.929 . S
H3849 C3858 0.930 . S
H3850 C3860 0.910 1_655 S
H3851 C3863 0.929 1_655 S
H3852 C3866 0.930 . S
H3853 C3868 0.960 . S
H3854 C3868 0.960 . S
H3855 C3868 0.960 . S
C3856 H3848 0.929 . S
C3856 C3857 1.377 . S
C3856 C3858 1.384 . S
C3857 C3856 1.377 . S
C3857 C3863 1.390 . S
C3858 H3849 0.930 . S
C3858 C3856 1.384 . S
C3858 C3859 1.372 . S
C3859 C3858 1.372 . S
C3859 C3860 1.400 . S
C3859 C3864 1.490 . S
C3860 H3850 0.910 1_455 S
C3860 C3859 1.400 . S
C3860 C3863 1.386 . S
H3861 C3877 0.930 . S
H3862 C3878 0.931 . S
C3863 H3851 0.929 1_455 S
C3863 C3857 1.390 . S
C3863 C3860 1.386 . S
C3864 C3859 1.490 . S
C3864 C3866 1.395 . S
C3864 C3867 1.406 . S
H3865 C3871 0.930 1_655 S
C3866 H3852 0.930 . S
C3866 C3864 1.395 . S
C3866 C3869 1.403 . S
C3867 C3864 1.406 . S
C3867 C3868 1.519 1_455 S
C3867 C3871 1.401 . S
C3868 H3853 0.960 . S
C3868 H3854 0.960 . S
C3868 H3855 0.960 . S
C3868 C3867 1.519 1_655 S
C3869 C3866 1.403 . S
C3869 C3870 1.392 . S
C3869 C3873 1.495 . S
C3870 C3869 1.392 . S
C3870 C3871 1.385 . S
C3870 C3872 1.478 . S
C3871 H3865 0.930 1_455 S
C3871 C3867 1.401 . S
C3871 C3870 1.385 . S
C3872 C3870 1.478 . S
C3872 C3874 1.381 . S
C3872 C3878 1.383 . S
C3873 C3869 1.495 . S
C3873 H3879 0.959 . S
C3873 H3880 0.961 . S
C3873 H3881 0.960 . S
C3874 C3872 1.381 . S
C3874 C3875 1.394 . S
C3874 H3882 0.930 . S
C3875 C3874 1.394 . S
C3875 C3876 1.383 . S
C3875 H3883 0.929 . S
C3876 C3875 1.383 . S
C3876 C3877 1.377 . S
C3877 H3861 0.930 . S
C3877 C3876 1.377 . S
C3877 C3878 1.379 . S
C3878 H3862 0.931 . S
C3878 C3872 1.383 . S
C3878 C3877 1.379 . S
H3879 C3873 0.959 . S
H3880 C3873 0.961 . S
H3881 C3873 0.960 . S
H3882 C3874 0.930 . S
H3883 C3875 0.929 . S
H3884 C3892 0.929 . S
H3885 C3894 0.930 . S
H3886 C3896 0.930 . S
H3887 C3899 0.929 . S
H3888 C3902 0.930 . S
H3889 C3904 0.960 . S
H3890 C3904 0.960 . S
H3891 C3904 0.960 . S
C3892 H3884 0.929 . S
C3892 C3893 1.377 . S
C3892 C3894 1.384 . S
C3893 C3892 1.377 . S
C3893 C3899 1.390 . S
C3894 H3885 0.930 . S
C3894 C3892 1.384 . S
C3894 C3895 1.372 . S
C3895 C3894 1.372 . S
C3895 C3896 1.400 . S
C3895 C3900 1.490 . S
C3896 H3886 0.930 . S
C3896 C3895 1.400 . S
C3896 C3899 1.386 . S
H3897 C3913 0.930 . S
H3898 C3914 0.931 . S
C3899 H3887 0.929 . S
C3899 C3893 1.390 . S
C3899 C3896 1.386 . S
C3900 C3895 1.490 . S
C3900 C3902 1.395 . S
C3900 C3903 1.403 . S
H3901 C3907 0.930 . S
C3902 H3888 0.930 . S
C3902 C3900 1.395 . S
C3902 C3905 1.403 . S
C3903 C3900 1.403 . S
C3903 C3904 1.524 . S
C3903 C3907 1.400 . S
C3904 H3889 0.960 . S
C3904 H3890 0.960 . S
C3904 H3891 0.960 . S
C3904 C3903 1.524 . S
C3905 C3902 1.403 . S
C3905 C3906 1.392 . S
C3905 C3909 1.495 . S
C3906 C3905 1.392 . S
C3906 C3907 1.385 . S
C3906 C3908 1.478 . S
C3907 H3901 0.930 . S
C3907 C3903 1.400 . S
C3907 C3906 1.385 . S
C3908 C3906 1.478 . S
C3908 C3910 1.381 . S
C3908 C3914 1.383 . S
C3909 C3905 1.495 . S
C3909 H3915 0.959 . S
C3909 H3916 0.961 . S
C3909 H3917 0.960 . S
C3910 C3908 1.381 . S
C3910 C3911 1.394 . S
C3910 H3918 0.930 . S
C3911 C3910 1.394 . S
C3911 C3912 1.383 . S
C3911 H3919 0.929 . S
C3912 C3911 1.383 . S
C3912 C3913 1.377 . S
C3913 H3897 0.930 . S
C3913 C3912 1.377 . S
C3913 C3914 1.379 . S
C3914 H3898 0.931 . S
C3914 C3908 1.383 . S
C3914 C3913 1.379 . S
H3915 C3909 0.959 . S
H3916 C3909 0.961 . S
H3917 C3909 0.960 . S
H3918 C3910 0.930 . S
H3919 C3911 0.929 . S
H3920 C3928 0.929 . S
H3921 C3930 0.930 . S
H3922 C3932 0.930 . S
H3923 C3935 0.929 . S
H3924 C3938 0.930 . S
H3925 C3940 0.960 . S
H3926 C3940 0.960 . S
H3927 C3940 0.960 . S
C3928 H3920 0.929 . S
C3928 C3929 1.377 . S
C3928 C3930 1.384 . S
C3929 C3928 1.377 . S
C3929 C3935 1.390 . S
C3930 H3921 0.930 . S
C3930 C3928 1.384 . S
C3930 C3931 1.372 . S
C3931 C3930 1.372 . S
C3931 C3932 1.400 . S
C3931 C3936 1.490 . S
C3932 H3922 0.930 . S
C3932 C3931 1.400 . S
C3932 C3935 1.386 . S
H3933 C3949 0.930 1_554 S
H3934 C3950 0.931 . S
C3935 H3923 0.929 . S
C3935 C3929 1.390 . S
C3935 C3932 1.386 . S
C3936 C3931 1.490 . S
C3936 C3938 1.395 . S
C3936 C3939 1.403 . S
H3937 C3943 0.930 . S
C3938 H3924 0.930 . S
C3938 C3936 1.395 . S
C3938 C3941 1.403 . S
C3939 C3936 1.403 . S
C3939 C3940 1.524 . S
C3939 C3943 1.400 . S
C3940 H3925 0.960 . S
C3940 H3926 0.960 . S
C3940 H3927 0.960 . S
C3940 C3939 1.524 . S
C3941 C3938 1.403 . S
C3941 C3942 1.392 . S
C3941 C3945 1.495 . S
C3942 C3941 1.392 . S
C3942 C3943 1.385 . S
C3942 C3944 1.478 . S
C3943 H3937 0.930 . S
C3943 C3939 1.400 . S
C3943 C3942 1.385 . S
C3944 C3942 1.478 . S
C3944 C3946 1.381 . S
C3944 C3950 1.383 . S
C3945 C3941 1.495 . S
C3945 H3951 0.959 . S
C3945 H3952 0.961 . S
C3945 H3953 0.960 . S
C3946 C3944 1.381 . S
C3946 C3947 1.394 . S
C3946 H3954 0.930 . S
C3947 C3946 1.394 . S
C3947 C3948 1.383 . S
C3947 H3955 0.929 . S
C3948 C3947 1.383 . S
C3948 C3949 1.377 . S
C3949 H3933 0.930 1_556 S
C3949 C3948 1.377 . S
C3949 C3950 1.379 . S
C3950 H3934 0.931 . S
C3950 C3944 1.383 . S
C3950 C3949 1.379 . S
H3951 C3945 0.959 . S
H3952 C3945 0.961 . S
H3953 C3945 0.960 . S
H3954 C3946 0.930 . S
H3955 C3947 0.929 . S
H3956 C3964 0.929 . S
H3957 C3966 0.930 . S
H3958 C3968 0.930 . S
H3959 C3971 0.929 . S
H3960 C3974 0.930 . S
H3961 C3976 0.960 . S
H3962 C3976 0.960 . S
H3963 C3976 0.960 . S
C3964 H3956 0.929 . S
C3964 C3965 1.377 . S
C3964 C3966 1.384 . S
C3965 C3964 1.377 . S
C3965 C3971 1.390 . S
C3966 H3957 0.930 . S
C3966 C3964 1.384 . S
C3966 C3967 1.372 . S
C3967 C3966 1.372 . S
C3967 C3968 1.400 . S
C3967 C3972 1.490 . S
C3968 H3958 0.930 . S
C3968 C3967 1.400 . S
C3968 C3971 1.386 . S
H3969 C3985 0.930 . S
H3970 C3986 0.931 . S
C3971 H3959 0.929 . S
C3971 C3965 1.390 . S
C3971 C3968 1.386 . S
C3972 C3967 1.490 . S
C3972 C3974 1.395 . S
C3972 C3975 1.403 . S
H3973 C3979 0.930 . S
C3974 H3960 0.930 . S
C3974 C3972 1.395 . S
C3974 C3977 1.403 . S
C3975 C3972 1.403 . S
C3975 C3976 1.524 . S
C3975 C3979 1.400 . S
C3976 H3961 0.960 . S
C3976 H3962 0.960 . S
C3976 H3963 0.960 . S
C3976 C3975 1.524 . S
C3977 C3974 1.403 . S
C3977 C3978 1.392 . S
C3977 C3981 1.495 . S
C3978 C3977 1.392 . S
C3978 C3979 1.385 . S
C3978 C3980 1.478 . S
C3979 H3973 0.930 . S
C3979 C3975 1.400 . S
C3979 C3978 1.385 . S
C3980 C3978 1.478 . S
C3980 C3982 1.381 . S
C3980 C3986 1.383 . S
C3981 C3977 1.495 . S
C3981 H3987 0.959 . S
C3981 H3988 0.961 . S
C3981 H3989 0.960 . S
C3982 C3980 1.381 . S
C3982 C3983 1.394 . S
C3982 H3990 0.930 . S
C3983 C3982 1.394 . S
C3983 C3984 1.383 . S
C3983 H3991 0.929 . S
C3984 C3983 1.383 . S
C3984 C3985 1.377 . S
C3985 H3969 0.930 . S
C3985 C3984 1.377 . S
C3985 C3986 1.379 . S
C3986 H3970 0.931 . S
C3986 C3980 1.383 . S
C3986 C3985 1.379 . S
H3987 C3981 0.959 . S
H3988 C3981 0.961 . S
H3989 C3981 0.960 . S
H3990 C3982 0.930 . S
H3991 C3983 0.929 . S
H3992 C4000 0.929 . S
H3993 C4002 0.930 . S
H3994 C4004 0.930 1_655 S
H3995 C4007 0.929 1_655 S
H3996 C4010 0.930 . S
H3997 C4012 0.960 . S
H3998 C4012 0.960 . S
H3999 C4012 0.960 . S
C4000 H3992 0.929 . S
C4000 C4001 1.377 . S
C4000 C4002 1.384 . S
C4001 C4000 1.377 . S
C4001 C4007 1.390 . S
C4002 H3993 0.930 . S
C4002 C4000 1.384 . S
C4002 C4003 1.372 . S
C4003 C4002 1.372 . S
C4003 C4004 1.400 . S
C4003 C4008 1.490 . S
C4004 H3994 0.930 1_455 S
C4004 C4003 1.400 . S
C4004 C4007 1.386 . S
H4005 C4021 0.912 1_655 S
H4006 C4022 0.931 . S
C4007 H3995 0.929 1_455 S
C4007 C4001 1.390 . S
C4007 C4004 1.386 . S
C4008 C4003 1.490 . S
C4008 C4010 1.395 . S
C4008 C4011 1.403 . S
H4009 C4015 0.930 1_655 S
C4010 H3996 0.930 . S
C4010 C4008 1.395 . S
C4010 C4013 1.403 . S
C4011 C4008 1.403 . S
C4011 C4012 1.524 1_455 S
C4011 C4015 1.400 . S
C4012 H3997 0.960 . S
C4012 H3998 0.960 . S
C4012 H3999 0.960 . S
C4012 C4011 1.524 1_655 S
C4013 C4010 1.403 . S
C4013 C4014 1.392 . S
C4013 C4017 1.495 . S
C4014 C4013 1.392 . S
C4014 C4015 1.385 . S
C4014 C4016 1.478 . S
C4015 H4009 0.930 1_455 S
C4015 C4011 1.400 . S
C4015 C4014 1.385 . S
C4016 C4014 1.478 . S
C4016 C4018 1.381 . S
C4016 C4022 1.383 . S
C4017 C4013 1.495 . S
C4017 H4023 0.959 . S
C4017 H4024 0.961 . S
C4017 H4025 0.960 . S
C4018 C4016 1.381 . S
C4018 C4019 1.394 . S
C4018 H4026 0.930 . S
C4019 C4018 1.394 . S
C4019 C4020 1.383 . S
C4019 H4027 0.929 . S
C4020 C4019 1.383 . S
C4020 C4021 1.377 . S
C4021 H4005 0.912 1_455 S
C4021 C4020 1.377 . S
C4021 C4022 1.379 . S
C4022 H4006 0.931 . S
C4022 C4016 1.383 . S
C4022 C4021 1.379 . S
H4023 C4017 0.959 . S
H4024 C4017 0.961 . S
H4025 C4017 0.960 . S
H4026 C4018 0.930 . S
H4027 C4019 0.929 . S
H4028 C4036 0.929 . S
H4029 C4038 0.930 . S
H4030 C4040 0.930 . S
H4031 C4043 0.929 . S
H4032 C4046 0.930 . S
H4033 C4048 0.960 . S
H4034 C4048 0.960 . S
H4035 C4048 0.960 . S
C4036 H4028 0.929 . S
C4036 C4037 1.377 . S
C4036 C4038 1.384 . S
C4037 C4036 1.377 . S
C4037 C4043 1.390 . S
C4038 H4029 0.930 . S
C4038 C4036 1.384 . S
C4038 C4039 1.372 . S
C4039 C4038 1.372 . S
C4039 C4040 1.400 . S
C4039 C4044 1.490 . S
C4040 H4030 0.930 . S
C4040 C4039 1.400 . S
C4040 C4043 1.386 . S
H4041 C4057 0.930 . S
H4042 C4058 0.931 . S
C4043 H4031 0.929 . S
C4043 C4037 1.390 . S
C4043 C4040 1.386 . S
C4044 C4039 1.490 . S
C4044 C4046 1.395 . S
C4044 C4047 1.403 . S
H4045 C4051 0.930 . S
C4046 H4032 0.930 . S
C4046 C4044 1.395 . S
C4046 C4049 1.403 . S
C4047 C4044 1.403 . S
C4047 C4048 1.524 . S
C4047 C4051 1.400 . S
C4048 H4033 0.960 . S
C4048 H4034 0.960 . S
C4048 H4035 0.960 . S
C4048 C4047 1.524 . S
C4049 C4046 1.403 . S
C4049 C4050 1.392 . S
C4049 C4053 1.495 . S
C4050 C4049 1.392 . S
C4050 C4051 1.385 . S
C4050 C4052 1.478 . S
C4051 H4045 0.930 . S
C4051 C4047 1.400 . S
C4051 C4050 1.385 . S
C4052 C4050 1.478 . S
C4052 C4054 1.381 . S
C4052 C4058 1.383 . S
C4053 C4049 1.495 . S
C4053 H4059 0.959 . S
C4053 H4060 0.961 . S
C4053 H4061 0.960 . S
C4054 C4052 1.381 . S
C4054 C4055 1.394 . S
C4054 H4062 0.930 . S
C4055 C4054 1.394 . S
C4055 C4056 1.383 . S
C4055 H4063 0.929 . S
C4056 C4055 1.383 . S
C4056 C4057 1.377 . S
C4057 H4041 0.930 . S
C4057 C4056 1.377 . S
C4057 C4058 1.379 . S
C4058 H4042 0.931 . S
C4058 C4052 1.383 . S
C4058 C4057 1.379 . S
H4059 C4053 0.959 . S
H4060 C4053 0.961 . S
H4061 C4053 0.960 . S
H4062 C4054 0.930 . S
H4063 C4055 0.929 . S
H4064 C4072 0.929 . S
H4065 C4074 0.930 . S
H4066 C4076 0.930 . S
H4067 C4079 0.929 . S
H4068 C4082 0.930 . S
H4069 C4084 0.960 . S
H4070 C4084 0.960 . S
H4071 C4084 0.960 . S
C4072 H4064 0.929 . S
C4072 C4073 1.377 . S
C4072 C4074 1.384 . S
C4073 C4072 1.377 . S
C4073 C4079 1.390 . S
C4074 H4065 0.930 . S
C4074 C4072 1.384 . S
C4074 C4075 1.372 . S
C4075 C4074 1.372 . S
C4075 C4076 1.400 . S
C4075 C4080 1.490 . S
C4076 H4066 0.930 . S
C4076 C4075 1.400 . S
C4076 C4079 1.386 . S
H4077 C4093 0.930 . S
H4078 C4094 0.931 . S
C4079 H4067 0.929 . S
C4079 C4073 1.390 . S
C4079 C4076 1.386 . S
C4080 C4075 1.490 . S
C4080 C4082 1.395 . S
C4080 C4083 1.403 . S
H4081 C4087 0.930 . S
C4082 H4068 0.930 . S
C4082 C4080 1.395 . S
C4082 C4085 1.403 . S
C4083 C4080 1.403 . S
C4083 C4084 1.524 . S
C4083 C4087 1.400 . S
C4084 H4069 0.960 . S
C4084 H4070 0.960 . S
C4084 H4071 0.960 . S
C4084 C4083 1.524 . S
C4085 C4082 1.403 . S
C4085 C4086 1.392 . S
C4085 C4089 1.495 . S
C4086 C4085 1.392 . S
C4086 C4087 1.385 . S
C4086 C4088 1.478 . S
C4087 H4081 0.930 . S
C4087 C4083 1.400 . S
C4087 C4086 1.385 . S
C4088 C4086 1.478 . S
C4088 C4090 1.381 . S
C4088 C4094 1.383 . S
C4089 C4085 1.495 . S
C4089 H4095 0.959 . S
C4089 H4096 0.961 . S
C4089 H4097 0.960 . S
C4090 C4088 1.381 . S
C4090 C4091 1.394 . S
C4090 H4098 0.930 . S
C4091 C4090 1.394 . S
C4091 C4092 1.383 . S
C4091 H4099 0.929 . S
C4092 C4091 1.383 . S
C4092 C4093 1.377 . S
C4093 H4077 0.930 . S
C4093 C4092 1.377 . S
C4093 C4094 1.379 . S
C4094 H4078 0.931 . S
C4094 C4088 1.383 . S
C4094 C4093 1.379 . S
H4095 C4089 0.959 . S
H4096 C4089 0.961 . S
H4097 C4089 0.960 . S
H4098 C4090 0.930 . S
H4099 C4091 0.929 . S
H4100 C4108 0.929 . S
H4101 C4110 0.930 . S
H4102 C4112 0.930 . S
H4103 C4115 0.929 . S
H4104 C4118 0.930 . S
H4105 C4120 0.960 . S
H4106 C4120 0.960 . S
H4107 C4120 0.960 . S
C4108 H4100 0.929 . S
C4108 C4109 1.377 . S
C4108 C4110 1.384 . S
C4109 C4108 1.377 . S
C4109 C4115 1.390 . S
C4110 H4101 0.930 . S
C4110 C4108 1.384 . S
C4110 C4111 1.372 . S
C4111 C4110 1.372 . S
C4111 C4112 1.400 . S
C4111 C4116 1.490 . S
C4112 H4102 0.930 . S
C4112 C4111 1.400 . S
C4112 C4115 1.386 . S
H4113 C4129 0.930 . S
H4114 C4130 0.931 . S
C4115 H4103 0.929 . S
C4115 C4109 1.390 . S
C4115 C4112 1.386 . S
C4116 C4111 1.490 . S
C4116 C4118 1.395 . S
C4116 C4119 1.403 . S
H4117 C4123 0.930 . S
C4118 H4104 0.930 . S
C4118 C4116 1.395 . S
C4118 C4121 1.403 . S
C4119 C4116 1.403 . S
C4119 C4120 1.524 . S
C4119 C4123 1.400 . S
C4120 H4105 0.960 . S
C4120 H4106 0.960 . S
C4120 H4107 0.960 . S
C4120 C4119 1.524 . S
C4121 C4118 1.403 . S
C4121 C4122 1.392 . S
C4121 C4125 1.495 . S
C4122 C4121 1.392 . S
C4122 C4123 1.385 . S
C4122 C4124 1.478 . S
C4123 H4117 0.930 . S
C4123 C4119 1.400 . S
C4123 C4122 1.385 . S
C4124 C4122 1.478 . S
C4124 C4126 1.381 . S
C4124 C4130 1.383 . S
C4125 C4121 1.495 . S
C4125 H4131 0.959 . S
C4125 H4132 0.961 . S
C4125 H4133 0.960 . S
C4126 C4124 1.381 . S
C4126 C4127 1.394 . S
C4126 H4134 0.930 . S
C4127 C4126 1.394 . S
C4127 C4128 1.383 . S
C4127 H4135 0.929 . S
C4128 C4127 1.383 . S
C4128 C4129 1.377 . S
C4129 H4113 0.930 . S
C4129 C4128 1.377 . S
C4129 C4130 1.379 . S
C4130 H4114 0.931 . S
C4130 C4124 1.383 . S
C4130 C4129 1.379 . S
H4131 C4125 0.959 . S
H4132 C4125 0.961 . S
H4133 C4125 0.960 . S
H4134 C4126 0.930 . S
H4135 C4127 0.929 . S
H4136 C4144 0.929 . S
H4137 C4146 0.930 . S
H4138 C4148 0.930 . S
H4139 C4151 0.929 . S
H4140 C4154 0.930 . S
H4141 C4156 0.960 . S
H4142 C4156 0.960 . S
H4143 C4156 0.960 . S
C4144 H4136 0.929 . S
C4144 C4145 1.377 . S
C4144 C4146 1.384 . S
C4145 C4144 1.377 . S
C4145 C4151 1.390 . S
C4146 H4137 0.930 . S
C4146 C4144 1.384 . S
C4146 C4147 1.372 . S
C4147 C4146 1.372 . S
C4147 C4148 1.400 . S
C4147 C4152 1.490 . S
C4148 H4138 0.930 . S
C4148 C4147 1.400 . S
C4148 C4151 1.386 . S
H4149 C4165 0.930 . S
H4150 C4166 0.931 . S
C4151 H4139 0.929 . S
C4151 C4145 1.390 . S
C4151 C4148 1.386 . S
C4152 C4147 1.490 . S
C4152 C4154 1.395 . S
C4152 C4155 1.403 . S
H4153 C4159 0.930 . S
C4154 H4140 0.930 . S
C4154 C4152 1.395 . S
C4154 C4157 1.403 . S
C4155 C4152 1.403 . S
C4155 C4156 1.524 . S
C4155 C4159 1.400 . S
C4156 H4141 0.960 . S
C4156 H4142 0.960 . S
C4156 H4143 0.960 . S
C4156 C4155 1.524 . S
C4157 C4154 1.403 . S
C4157 C4158 1.392 . S
C4157 C4161 1.495 . S
C4158 C4157 1.392 . S
C4158 C4159 1.385 . S
C4158 C4160 1.478 . S
C4159 H4153 0.930 . S
C4159 C4155 1.400 . S
C4159 C4158 1.385 . S
C4160 C4158 1.478 . S
C4160 C4162 1.381 . S
C4160 C4166 1.383 . S
C4161 C4157 1.495 . S
C4161 H4167 0.959 . S
C4161 H4168 0.961 . S
C4161 H4169 0.960 . S
C4162 C4160 1.381 . S
C4162 C4163 1.394 . S
C4162 H4170 0.930 . S
C4163 C4162 1.394 . S
C4163 C4164 1.383 . S
C4163 H4171 0.929 . S
C4164 C4163 1.383 . S
C4164 C4165 1.377 . S
C4165 H4149 0.930 . S
C4165 C4164 1.377 . S
C4165 C4166 1.379 . S
C4166 H4150 0.931 . S
C4166 C4160 1.383 . S
C4166 C4165 1.379 . S
H4167 C4161 0.959 . S
H4168 C4161 0.961 . S
H4169 C4161 0.960 . S
H4170 C4162 0.930 . S
H4171 C4163 0.929 . S
H4172 C4180 0.929 . S
H4173 C4182 0.930 . S
H4174 C4184 0.930 . S
H4175 C4187 0.929 . S
H4176 C4190 0.930 . S
H4177 C4192 0.960 . S
H4178 C4192 0.960 . S
H4179 C4192 0.960 . S
C4180 H4172 0.929 . S
C4180 C4181 1.377 . S
C4180 C4182 1.384 . S
C4181 C4180 1.377 . S
C4181 C4187 1.390 . S
C4182 H4173 0.930 . S
C4182 C4180 1.384 . S
C4182 C4183 1.372 . S
C4183 C4182 1.372 . S
C4183 C4184 1.400 . S
C4183 C4188 1.490 . S
C4184 H4174 0.930 . S
C4184 C4183 1.400 . S
C4184 C4187 1.386 . S
H4185 C4201 0.930 . S
H4186 C4202 0.931 . S
C4187 H4175 0.929 . S
C4187 C4181 1.390 . S
C4187 C4184 1.386 . S
C4188 C4183 1.490 . S
C4188 C4190 1.395 . S
C4188 C4191 1.403 . S
H4189 C4195 0.930 . S
C4190 H4176 0.930 . S
C4190 C4188 1.395 . S
C4190 C4193 1.403 . S
C4191 C4188 1.403 . S
C4191 C4192 1.524 . S
C4191 C4195 1.400 . S
C4192 H4177 0.960 . S
C4192 H4178 0.960 . S
C4192 H4179 0.960 . S
C4192 C4191 1.524 . S
C4193 C4190 1.403 . S
C4193 C4194 1.392 . S
C4193 C4197 1.495 . S
C4194 C4193 1.392 . S
C4194 C4195 1.385 . S
C4194 C4196 1.478 . S
C4195 H4189 0.930 . S
C4195 C4191 1.400 . S
C4195 C4194 1.385 . S
C4196 C4194 1.478 . S
C4196 C4198 1.381 . S
C4196 C4202 1.383 . S
C4197 C4193 1.495 . S
C4197 H4203 0.959 . S
C4197 H4204 0.961 . S
C4197 H4205 0.960 . S
C4198 C4196 1.381 . S
C4198 C4199 1.394 . S
C4198 H4206 0.930 . S
C4199 C4198 1.394 . S
C4199 C4200 1.383 . S
C4199 H4207 0.929 . S
C4200 C4199 1.383 . S
C4200 C4201 1.377 . S
C4201 H4185 0.930 . S
C4201 C4200 1.377 . S
C4201 C4202 1.379 . S
C4202 H4186 0.931 . S
C4202 C4196 1.383 . S
C4202 C4201 1.379 . S
H4203 C4197 0.959 . S
H4204 C4197 0.961 . S
H4205 C4197 0.960 . S
H4206 C4198 0.930 . S
H4207 C4199 0.929 . S
H4208 C4216 0.929 . S
H4209 C4218 0.930 . S
H4210 C4220 0.930 . S
H4211 C4223 0.929 . S
H4212 C4226 0.930 . S
H4213 C4228 0.960 . S
H4214 C4228 0.960 . S
H4215 C4228 0.960 . S
C4216 H4208 0.929 . S
C4216 C4217 1.377 . S
C4216 C4218 1.384 . S
C4217 C4216 1.377 . S
C4217 C4223 1.390 . S
C4218 H4209 0.930 . S
C4218 C4216 1.384 . S
C4218 C4219 1.372 . S
C4219 C4218 1.372 . S
C4219 C4220 1.400 . S
C4219 C4224 1.490 . S
C4220 H4210 0.930 . S
C4220 C4219 1.400 . S
C4220 C4223 1.386 . S
H4221 C4237 0.930 . S
H4222 C4238 0.931 . S
C4223 H4211 0.929 . S
C4223 C4217 1.390 . S
C4223 C4220 1.386 . S
C4224 C4219 1.490 . S
C4224 C4226 1.395 . S
C4224 C4227 1.403 . S
H4225 C4231 0.930 . S
C4226 H4212 0.930 . S
C4226 C4224 1.395 . S
C4226 C4229 1.403 . S
C4227 C4224 1.403 . S
C4227 C4228 1.524 . S
C4227 C4231 1.400 . S
C4228 H4213 0.960 . S
C4228 H4214 0.960 . S
C4228 H4215 0.960 . S
C4228 C4227 1.524 . S
C4229 C4226 1.403 . S
C4229 C4230 1.392 . S
C4229 C4233 1.495 . S
C4230 C4229 1.392 . S
C4230 C4231 1.385 . S
C4230 C4232 1.478 . S
C4231 H4225 0.930 . S
C4231 C4227 1.400 . S
C4231 C4230 1.385 . S
C4232 C4230 1.478 . S
C4232 C4234 1.381 . S
C4232 C4238 1.383 . S
C4233 C4229 1.495 . S
C4233 H4239 0.959 . S
C4233 H4240 0.961 . S
C4233 H4241 0.960 . S
C4234 C4232 1.381 . S
C4234 C4235 1.394 . S
C4234 H4242 0.930 . S
C4235 C4234 1.394 . S
C4235 C4236 1.383 . S
C4235 H4243 0.929 . S
C4236 C4235 1.383 . S
C4236 C4237 1.377 . S
C4237 H4221 0.930 . S
C4237 C4236 1.377 . S
C4237 C4238 1.379 . S
C4238 H4222 0.931 . S
C4238 C4232 1.383 . S
C4238 C4237 1.379 . S
H4239 C4233 0.959 . S
H4240 C4233 0.961 . S
H4241 C4233 0.960 . S
H4242 C4234 0.930 . S
H4243 C4235 0.929 . S
H4244 C4252 0.929 . S
H4245 C4254 0.930 . S
H4246 C4256 0.930 . S
H4247 C4259 0.929 . S
H4248 C4262 0.930 . S
H4249 C4264 0.960 . S
H4250 C4264 0.960 . S
H4251 C4264 0.960 . S
C4252 H4244 0.929 . S
C4252 C4253 1.377 . S
C4252 C4254 1.384 . S
C4253 C4252 1.377 . S
C4253 C4259 1.390 . S
C4254 H4245 0.930 . S
C4254 C4252 1.384 . S
C4254 C4255 1.372 . S
C4255 C4254 1.372 . S
C4255 C4256 1.400 . S
C4255 C4260 1.490 . S
C4256 H4246 0.930 . S
C4256 C4255 1.400 . S
C4256 C4259 1.386 . S
H4257 C4273 0.930 . S
H4258 C4274 0.931 . S
C4259 H4247 0.929 . S
C4259 C4253 1.390 . S
C4259 C4256 1.386 . S
C4260 C4255 1.490 . S
C4260 C4262 1.395 . S
C4260 C4263 1.403 . S
H4261 C4267 0.930 . S
C4262 H4248 0.930 . S
C4262 C4260 1.395 . S
C4262 C4265 1.403 . S
C4263 C4260 1.403 . S
C4263 C4264 1.524 . S
C4263 C4267 1.400 . S
C4264 H4249 0.960 . S
C4264 H4250 0.960 . S
C4264 H4251 0.960 . S
C4264 C4263 1.524 . S
C4265 C4262 1.403 . S
C4265 C4266 1.392 . S
C4265 C4269 1.495 . S
C4266 C4265 1.392 . S
C4266 C4267 1.385 . S
C4266 C4268 1.478 . S
C4267 H4261 0.930 . S
C4267 C4263 1.400 . S
C4267 C4266 1.385 . S
C4268 C4266 1.478 . S
C4268 C4270 1.381 . S
C4268 C4274 1.383 . S
C4269 C4265 1.495 . S
C4269 H4275 0.959 . S
C4269 H4276 0.961 . S
C4269 H4277 0.960 . S
C4270 C4268 1.381 . S
C4270 C4271 1.394 . S
C4270 H4278 0.930 . S
C4271 C4270 1.394 . S
C4271 C4272 1.383 . S
C4271 H4279 0.929 . S
C4272 C4271 1.383 . S
C4272 C4273 1.377 . S
C4273 H4257 0.930 . S
C4273 C4272 1.377 . S
C4273 C4274 1.379 . S
C4274 H4258 0.931 . S
C4274 C4268 1.383 . S
C4274 C4273 1.379 . S
H4275 C4269 0.959 . S
H4276 C4269 0.961 . S
H4277 C4269 0.960 . S
H4278 C4270 0.930 . S
H4279 C4271 0.929 . S
H4280 C4288 0.929 . S
H4281 C4290 0.930 . S
H4282 C4292 0.930 . S
H4283 C4295 0.929 . S
H4284 C4298 0.930 . S
H4285 C4300 0.960 . S
H4286 C4300 0.960 . S
H4287 C4300 0.960 . S
C4288 H4280 0.929 . S
C4288 C4289 1.377 . S
C4288 C4290 1.384 . S
C4289 C4288 1.377 . S
C4289 C4295 1.390 . S
C4290 H4281 0.930 . S
C4290 C4288 1.384 . S
C4290 C4291 1.372 . S
C4291 C4290 1.372 . S
C4291 C4292 1.400 . S
C4291 C4296 1.490 . S
C4292 H4282 0.930 . S
C4292 C4291 1.400 . S
C4292 C4295 1.386 . S
H4293 C4309 0.930 . S
H4294 C4310 0.931 . S
C4295 H4283 0.929 . S
C4295 C4289 1.390 . S
C4295 C4292 1.386 . S
C4296 C4291 1.490 . S
C4296 C4298 1.395 . S
C4296 C4299 1.403 . S
H4297 C4303 0.930 . S
C4298 H4284 0.930 . S
C4298 C4296 1.395 . S
C4298 C4301 1.403 . S
C4299 C4296 1.403 . S
C4299 C4300 1.524 . S
C4299 C4303 1.400 . S
C4300 H4285 0.960 . S
C4300 H4286 0.960 . S
C4300 H4287 0.960 . S
C4300 C4299 1.524 . S
C4301 C4298 1.403 . S
C4301 C4302 1.392 . S
C4301 C4305 1.495 . S
C4302 C4301 1.392 . S
C4302 C4303 1.385 . S
C4302 C4304 1.478 . S
C4303 H4297 0.930 . S
C4303 C4299 1.400 . S
C4303 C4302 1.385 . S
C4304 C4302 1.478 . S
C4304 C4306 1.381 . S
C4304 C4310 1.383 . S
C4305 C4301 1.495 . S
C4305 H4311 0.959 . S
C4305 H4312 0.961 . S
C4305 H4313 0.959 . S
C4306 C4304 1.381 . S
C4306 C4307 1.394 . S
C4306 H4314 0.930 . S
C4307 C4306 1.394 . S
C4307 C4308 1.383 . S
C4307 H4315 0.929 1_655 S
C4308 C4307 1.383 . S
C4308 C4309 1.377 . S
C4309 H4293 0.930 . S
C4309 C4308 1.377 . S
C4309 C4310 1.379 . S
C4310 H4294 0.931 . S
C4310 C4304 1.383 . S
C4310 C4309 1.379 . S
H4311 C4305 0.959 . S
H4312 C4305 0.961 . S
H4313 C4305 0.959 . S
H4314 C4306 0.930 . S
H4315 C4307 0.929 1_455 S
H4316 C4324 0.929 . S
H4317 C4326 0.930 . S
H4318 C4328 0.930 . S
H4319 C4331 0.929 . S
H4320 C4334 0.930 . S
H4321 C4336 0.960 . S
H4322 C4336 0.960 . S
H4323 C4336 0.960 . S
C4324 H4316 0.929 . S
C4324 C4325 1.377 . S
C4324 C4326 1.384 . S
C4325 C4324 1.377 . S
C4325 C4331 1.390 . S
C4326 H4317 0.930 . S
C4326 C4324 1.384 . S
C4326 C4327 1.372 . S
C4327 C4326 1.372 . S
C4327 C4328 1.400 . S
C4327 C4332 1.490 . S
C4328 H4318 0.930 . S
C4328 C4327 1.400 . S
C4328 C4331 1.386 . S
H4329 C4345 0.930 . S
H4330 C4346 0.931 . S
C4331 H4319 0.929 . S
C4331 C4325 1.390 . S
C4331 C4328 1.386 . S
C4332 C4327 1.490 . S
C4332 C4334 1.395 . S
C4332 C4335 1.403 . S
H4333 C4339 0.930 . S
C4334 H4320 0.930 . S
C4334 C4332 1.395 . S
C4334 C4337 1.403 . S
C4335 C4332 1.403 . S
C4335 C4336 1.524 . S
C4335 C4339 1.400 . S
C4336 H4321 0.960 . S
C4336 H4322 0.960 . S
C4336 H4323 0.960 . S
C4336 C4335 1.524 . S
C4337 C4334 1.403 . S
C4337 C4338 1.392 . S
C4337 C4341 1.495 . S
C4338 C4337 1.392 . S
C4338 C4339 1.385 . S
C4338 C4340 1.478 . S
C4339 H4333 0.930 . S
C4339 C4335 1.400 . S
C4339 C4338 1.385 . S
C4340 C4338 1.478 . S
C4340 C4342 1.381 . S
C4340 C4346 1.383 . S
C4341 C4337 1.495 . S
C4341 H4347 0.959 . S
C4341 H4348 0.961 . S
C4341 H4349 0.960 . S
C4342 C4340 1.381 . S
C4342 C4343 1.394 . S
C4342 H4350 0.930 . S
C4343 C4342 1.394 . S
C4343 C4344 1.383 . S
C4343 H4351 0.929 . S
C4344 C4343 1.383 . S
C4344 C4345 1.377 . S
C4345 H4329 0.930 . S
C4345 C4344 1.377 . S
C4345 C4346 1.379 . S
C4346 H4330 0.931 . S
C4346 C4340 1.383 . S
C4346 C4345 1.379 . S
H4347 C4341 0.959 . S
H4348 C4341 0.961 . S
H4349 C4341 0.960 . S
H4350 C4342 0.930 . S
H4351 C4343 0.929 . S
H4352 C4360 0.929 . S
H4353 C4362 0.930 . S
H4354 C4364 0.930 . S
H4355 C4367 0.929 . S
H4356 C4370 0.930 . S
H4357 C4372 0.960 . S
H4358 C4372 0.960 . S
H4359 C4372 0.960 . S
C4360 H4352 0.929 . S
C4360 C4361 1.377 . S
C4360 C4362 1.384 . S
C4361 C4360 1.377 . S
C4361 C4367 1.390 . S
C4362 H4353 0.930 . S
C4362 C4360 1.384 . S
C4362 C4363 1.372 . S
C4363 C4362 1.372 . S
C4363 C4364 1.400 . S
C4363 C4368 1.490 . S
C4364 H4354 0.930 . S
C4364 C4363 1.400 . S
C4364 C4367 1.386 . S
H4365 C4381 0.930 . S
H4366 C4382 0.931 . S
C4367 H4355 0.929 . S
C4367 C4361 1.390 . S
C4367 C4364 1.386 . S
C4368 C4363 1.490 . S
C4368 C4370 1.395 . S
C4368 C4371 1.403 . S
H4369 C4375 0.930 . S
C4370 H4356 0.930 . S
C4370 C4368 1.395 . S
C4370 C4373 1.403 . S
C4371 C4368 1.403 . S
C4371 C4372 1.524 . S
C4371 C4375 1.400 . S
C4372 H4357 0.960 . S
C4372 H4358 0.960 . S
C4372 H4359 0.960 . S
C4372 C4371 1.524 . S
C4373 C4370 1.403 . S
C4373 C4374 1.392 . S
C4373 C4377 1.495 . S
C4374 C4373 1.392 . S
C4374 C4375 1.385 . S
C4374 C4376 1.478 . S
C4375 H4369 0.930 . S
C4375 C4371 1.400 . S
C4375 C4374 1.385 . S
C4376 C4374 1.478 . S
C4376 C4378 1.381 . S
C4376 C4382 1.383 . S
C4377 C4373 1.495 . S
C4377 H4383 0.959 . S
C4377 H4384 0.961 . S
C4377 H4385 0.960 . S
C4378 C4376 1.381 . S
C4378 C4379 1.394 . S
C4378 H4386 0.930 . S
C4379 C4378 1.394 . S
C4379 C4380 1.383 . S
C4379 H4387 0.929 . S
C4380 C4379 1.383 . S
C4380 C4381 1.377 . S
C4381 H4365 0.930 . S
C4381 C4380 1.377 . S
C4381 C4382 1.379 . S
C4382 H4366 0.931 . S
C4382 C4376 1.383 . S
C4382 C4381 1.379 . S
H4383 C4377 0.959 . S
H4384 C4377 0.961 . S
H4385 C4377 0.960 . S
H4386 C4378 0.930 . S
H4387 C4379 0.929 . S
H4388 C4396 0.929 . S
H4389 C4398 0.930 . S
H4390 C4400 0.930 . S
H4391 C4403 0.929 . S
H4392 C4406 0.930 . S
H4393 C4408 0.960 . S
H4394 C4408 0.960 . S
H4395 C4408 0.960 . S
C4396 H4388 0.929 . S
C4396 C4397 1.377 . S
C4396 C4398 1.384 . S
C4397 C4396 1.377 . S
C4397 C4403 1.390 . S
C4398 H4389 0.930 . S
C4398 C4396 1.384 . S
C4398 C4399 1.372 . S
C4399 C4398 1.372 . S
C4399 C4400 1.400 . S
C4399 C4404 1.490 . S
C4400 H4390 0.930 . S
C4400 C4399 1.400 . S
C4400 C4403 1.386 . S
H4401 C4417 0.930 1_545 S
H4402 C4418 0.931 . S
C4403 H4391 0.929 . S
C4403 C4397 1.390 . S
C4403 C4400 1.386 . S
C4404 C4399 1.490 . S
C4404 C4406 1.395 . S
C4404 C4407 1.403 . S
H4405 C4411 0.930 . S
C4406 H4392 0.930 . S
C4406 C4404 1.395 . S
C4406 C4409 1.403 . S
C4407 C4404 1.403 . S
C4407 C4408 1.524 . S
C4407 C4411 1.400 . S
C4408 H4393 0.960 . S
C4408 H4394 0.960 . S
C4408 H4395 0.960 . S
C4408 C4407 1.524 . S
C4409 C4406 1.403 . S
C4409 C4410 1.392 . S
C4409 C4413 1.554 . S
C4410 C4409 1.392 . S
C4410 C4411 1.385 . S
C4410 C4412 1.478 . S
C4411 H4405 0.930 . S
C4411 C4407 1.400 . S
C4411 C4410 1.385 . S
C4412 C4410 1.478 . S
C4412 C4414 1.381 . S
C4412 C4418 1.383 . S
C4413 C4409 1.554 . S
C4413 H4419 0.941 1_565 S
C4413 H4420 0.932 1_565 S
C4413 H4421 0.953 1_565 S
C4414 C4412 1.381 . S
C4414 C4415 1.404 . S
C4414 H4422 0.930 . S
C4415 C4414 1.404 . S
C4415 C4416 1.382 1_565 S
C4415 H4423 0.921 1_565 S
C4416 C4415 1.382 1_545 S
C4416 C4417 1.377 1_545 S
C4417 H4401 0.930 1_565 S
C4417 C4416 1.377 1_565 S
C4417 C4418 1.379 . S
C4418 H4402 0.931 . S
C4418 C4412 1.383 . S
C4418 C4417 1.379 . S
H4419 C4413 0.941 1_545 S
H4420 C4413 0.932 1_545 S
H4421 C4413 0.953 1_545 S
H4422 C4414 0.930 . S
H4423 C4415 0.921 1_545 S
H4424 C4432 0.929 . S
H4425 C4434 0.930 . S
H4426 C4436 0.930 . S
H4427 C4439 0.929 . S
H4428 C4442 0.930 . S
H4429 C4444 0.960 . S
H4430 C4444 0.960 . S
H4431 C4444 0.960 . S
C4432 H4424 0.929 . S
C4432 C4433 1.377 . S
C4432 C4434 1.384 . S
C4433 C4432 1.377 . S
C4433 C4439 1.390 . S
C4434 H4425 0.930 . S
C4434 C4432 1.384 . S
C4434 C4435 1.372 . S
C4435 C4434 1.372 . S
C4435 C4436 1.400 . S
C4435 C4440 1.490 . S
C4436 H4426 0.930 . S
C4436 C4435 1.400 . S
C4436 C4439 1.386 . S
H4437 C4453 0.930 . S
H4438 C4454 0.931 . S
C4439 H4427 0.929 . S
C4439 C4433 1.390 . S
C4439 C4436 1.386 . S
C4440 C4435 1.490 . S
C4440 C4442 1.395 . S
C4440 C4443 1.403 . S
H4441 C4447 0.930 . S
C4442 H4428 0.930 . S
C4442 C4440 1.395 . S
C4442 C4445 1.403 . S
C4443 C4440 1.403 . S
C4443 C4444 1.524 . S
C4443 C4447 1.400 . S
C4444 H4429 0.960 . S
C4444 H4430 0.960 . S
C4444 H4431 0.960 . S
C4444 C4443 1.524 . S
C4445 C4442 1.403 . S
C4445 C4446 1.392 . S
C4445 C4449 1.495 . S
C4446 C4445 1.392 . S
C4446 C4447 1.385 . S
C4446 C4448 1.478 . S
C4447 H4441 0.930 . S
C4447 C4443 1.400 . S
C4447 C4446 1.385 . S
C4448 C4446 1.478 . S
C4448 C4450 1.381 . S
C4448 C4454 1.383 . S
C4449 C4445 1.495 . S
C4449 H4455 0.959 . S
C4449 H4456 0.961 . S
C4449 H4457 0.960 . S
C4450 C4448 1.381 . S
C4450 C4451 1.394 . S
C4450 H4458 0.930 . S
C4451 C4450 1.394 . S
C4451 C4452 1.383 . S
C4451 H4459 0.929 . S
C4452 C4451 1.383 . S
C4452 C4453 1.377 . S
C4453 H4437 0.930 . S
C4453 C4452 1.377 . S
C4453 C4454 1.379 . S
C4454 H4438 0.931 . S
C4454 C4448 1.383 . S
C4454 C4453 1.379 . S
H4455 C4449 0.959 . S
H4456 C4449 0.961 . S
H4457 C4449 0.960 . S
H4458 C4450 0.930 . S
H4459 C4451 0.929 . S
H4460 C4468 0.929 . S
H4461 C4470 0.930 . S
H4462 C4472 0.930 . S
H4463 C4475 0.929 . S
H4464 C4478 0.930 . S
H4465 C4480 0.960 . S
H4466 C4480 0.960 . S
H4467 C4480 0.960 . S
C4468 H4460 0.929 . S
C4468 C4469 1.377 . S
C4468 C4470 1.384 . S
C4469 C4468 1.377 . S
C4469 C4475 1.390 1_556 S
C4470 H4461 0.930 . S
C4470 C4468 1.384 . S
C4470 C4471 1.350 1_556 S
C4471 C4470 1.350 1_554 S
C4471 C4472 1.416 . S
C4471 C4476 1.496 . S
C4472 H4462 0.930 . S
C4472 C4471 1.416 . S
C4472 C4475 1.386 . S
H4473 C4489 0.930 . S
H4474 C4490 0.931 . S
C4475 H4463 0.929 . S
C4475 C4469 1.390 1_554 S
C4475 C4472 1.386 . S
C4476 C4471 1.496 . S
C4476 C4478 1.395 1_554 S
C4476 C4479 1.403 . S
H4477 C4483 0.930 . S
C4478 H4464 0.930 . S
C4478 C4476 1.395 1_556 S
C4478 C4481 1.403 . S
C4479 C4476 1.403 . S
C4479 C4480 1.524 . S
C4479 C4483 1.400 . S
C4480 H4465 0.960 . S
C4480 H4466 0.960 . S
C4480 H4467 0.960 . S
C4480 C4479 1.524 . S
C4481 C4478 1.403 . S
C4481 C4482 1.392 1_556 S
C4481 C4485 1.495 . S
C4482 C4481 1.392 1_554 S
C4482 C4483 1.385 . S
C4482 C4484 1.478 . S
C4483 H4477 0.930 . S
C4483 C4479 1.400 . S
C4483 C4482 1.385 . S
C4484 C4482 1.478 . S
C4484 C4486 1.381 1_554 S
C4484 C4490 1.383 . S
C4485 C4481 1.495 . S
C4485 H4491 0.959 . S
C4485 H4492 0.961 . S
C4485 H4493 0.960 . S
C4486 C4484 1.381 1_556 S
C4486 C4487 1.394 1_556 S
C4486 H4494 0.930 . S
C4487 C4486 1.394 1_554 S
C4487 C4488 1.383 . S
C4487 H4495 0.929 1_554 S
C4488 C4487 1.383 . S
C4488 C4489 1.377 . S
C4489 H4473 0.930 . S
C4489 C4488 1.377 . S
C4489 C4490 1.379 . S
C4490 H4474 0.931 . S
C4490 C4484 1.383 . S
C4490 C4489 1.379 . S
H4491 C4485 0.959 . S
H4492 C4485 0.961 . S
H4493 C4485 0.960 . S
H4494 C4486 0.930 . S
H4495 C4487 0.929 1_556 S
H4496 C4504 0.929 . S
H4497 C4506 0.930 . S
H4498 C4508 0.930 . S
H4499 C4511 0.929 . S
H4500 C4514 0.930 . S
H4501 C4516 0.960 . S
H4502 C4516 0.960 . S
H4503 C4516 0.960 . S
C4504 H4496 0.929 . S
C4504 C4505 1.377 . S
C4504 C4506 1.384 . S
C4505 C4504 1.377 . S
C4505 C4511 1.390 . S
C4506 H4497 0.930 . S
C4506 C4504 1.384 . S
C4506 C4507 1.372 . S
C4507 C4506 1.372 . S
C4507 C4508 1.400 . S
C4507 C4512 1.490 . S
C4508 H4498 0.930 . S
C4508 C4507 1.400 . S
C4508 C4511 1.386 . S
H4509 C4525 0.930 . S
H4510 C4526 0.931 . S
C4511 H4499 0.929 . S
C4511 C4505 1.390 . S
C4511 C4508 1.386 . S
C4512 C4507 1.490 . S
C4512 C4514 1.395 . S
C4512 C4515 1.403 . S
H4513 C4519 0.930 . S
C4514 H4500 0.930 . S
C4514 C4512 1.395 . S
C4514 C4517 1.403 . S
C4515 C4512 1.403 . S
C4515 C4516 1.524 . S
C4515 C4519 1.400 . S
C4516 H4501 0.960 . S
C4516 H4502 0.960 . S
C4516 H4503 0.960 . S
C4516 C4515 1.524 . S
C4517 C4514 1.403 . S
C4517 C4518 1.392 . S
C4517 C4521 1.495 . S
C4518 C4517 1.392 . S
C4518 C4519 1.385 . S
C4518 C4520 1.478 . S
C4519 H4513 0.930 . S
C4519 C4515 1.400 . S
C4519 C4518 1.385 . S
C4520 C4518 1.478 . S
C4520 C4522 1.381 . S
C4520 C4526 1.383 . S
C4521 C4517 1.495 . S
C4521 H4527 0.959 . S
C4521 H4528 0.961 . S
C4521 H4529 0.960 . S
C4522 C4520 1.381 . S
C4522 C4523 1.394 . S
C4522 H4530 0.930 . S
C4523 C4522 1.394 . S
C4523 C4524 1.383 . S
C4523 H4531 0.929 . S
C4524 C4523 1.383 . S
C4524 C4525 1.377 . S
C4525 H4509 0.930 . S
C4525 C4524 1.377 . S
C4525 C4526 1.379 . S
C4526 H4510 0.931 . S
C4526 C4520 1.383 . S
C4526 C4525 1.379 . S
H4527 C4521 0.959 . S
H4528 C4521 0.961 . S
H4529 C4521 0.960 . S
H4530 C4522 0.930 . S
H4531 C4523 0.929 . S
H4532 C4540 0.929 . S
H4533 C4542 0.930 . S
H4534 C4544 0.930 . S
H4535 C4547 0.929 . S
H4536 C4550 0.930 . S
H4537 C4552 0.960 . S
H4538 C4552 0.960 . S
H4539 C4552 0.960 . S
C4540 H4532 0.929 . S
C4540 C4541 1.377 . S
C4540 C4542 1.384 . S
C4541 C4540 1.377 . S
C4541 C4547 1.390 1_554 S
C4542 H4533 0.930 . S
C4542 C4540 1.384 . S
C4542 C4543 1.372 . S
C4543 C4542 1.372 . S
C4543 C4544 1.400 1_554 S
C4543 C4548 1.490 . S
C4544 H4534 0.930 . S
C4544 C4543 1.400 1_556 S
C4544 C4547 1.386 . S
H4545 C4561 0.930 . S
H4546 C4562 0.931 . S
C4547 H4535 0.929 . S
C4547 C4541 1.390 1_556 S
C4547 C4544 1.386 . S
C4548 C4543 1.490 . S
C4548 C4550 1.395 . S
C4548 C4551 1.403 1_554 S
H4549 C4555 0.930 . S
C4550 H4536 0.930 . S
C4550 C4548 1.395 . S
C4550 C4553 1.403 . S
C4551 C4548 1.403 1_556 S
C4551 C4552 1.524 . S
C4551 C4555 1.400 . S
C4552 H4537 0.960 . S
C4552 H4538 0.960 . S
C4552 H4539 0.960 . S
C4552 C4551 1.524 . S
C4553 C4550 1.403 . S
C4553 C4554 1.392 . S
C4553 C4557 1.495 . S
C4554 C4553 1.392 . S
C4554 C4555 1.385 1_554 S
C4554 C4556 1.478 . S
C4555 H4549 0.930 . S
C4555 C4551 1.400 . S
C4555 C4554 1.385 1_556 S
C4556 C4554 1.478 . S
C4556 C4558 1.381 . S
C4556 C4562 1.383 1_554 S
C4557 C4553 1.495 . S
C4557 H4563 0.959 . S
C4557 H4564 0.961 . S
C4557 H4565 0.960 . S
C4558 C4556 1.381 . S
C4558 C4559 1.394 . S
C4558 H4566 0.930 . S
C4559 C4558 1.394 . S
C4559 C4560 1.383 1_554 S
C4559 H4567 0.929 . S
C4560 C4559 1.383 1_556 S
C4560 C4561 1.377 . S
C4561 H4545 0.930 . S
C4561 C4560 1.377 . S
C4561 C4562 1.379 . S
C4562 H4546 0.931 . S
C4562 C4556 1.383 1_556 S
C4562 C4561 1.379 . S
H4563 C4557 0.959 . S
H4564 C4557 0.961 . S
H4565 C4557 0.960 . S
H4566 C4558 0.930 . S
H4567 C4559 0.929 . S
H4568 C4576 0.929 . S
H4569 C4578 0.930 . S
H4570 C4580 0.930 . S
H4571 C4583 0.929 . S
H4572 C4586 0.930 . S
H4573 C4588 0.960 . S
H4574 C4588 0.960 . S
H4575 C4588 0.960 . S
C4576 H4568 0.929 . S
C4576 C4577 1.377 . S
C4576 C4578 1.384 . S
C4577 C4576 1.377 . S
C4577 C4583 1.390 . S
C4578 H4569 0.930 . S
C4578 C4576 1.384 . S
C4578 C4579 1.372 . S
C4579 C4578 1.372 . S
C4579 C4580 1.400 . S
C4579 C4584 1.490 . S
C4580 H4570 0.930 . S
C4580 C4579 1.400 . S
C4580 C4583 1.386 . S
H4581 C4597 0.930 . S
H4582 C4598 0.931 . S
C4583 H4571 0.929 . S
C4583 C4577 1.390 . S
C4583 C4580 1.386 . S
C4584 C4579 1.490 . S
C4584 C4586 1.395 . S
C4584 C4587 1.403 . S
H4585 C4591 0.930 . S
C4586 H4572 0.930 . S
C4586 C4584 1.395 . S
C4586 C4589 1.403 . S
C4587 C4584 1.403 . S
C4587 C4588 1.524 . S
C4587 C4591 1.400 . S
C4588 H4573 0.960 . S
C4588 H4574 0.960 . S
C4588 H4575 0.960 . S
C4588 C4587 1.524 . S
C4589 C4586 1.403 . S
C4589 C4590 1.392 . S
C4589 C4593 1.495 . S
C4590 C4589 1.392 . S
C4590 C4591 1.385 . S
C4590 C4592 1.478 . S
C4591 H4585 0.930 . S
C4591 C4587 1.400 . S
C4591 C4590 1.385 . S
C4592 C4590 1.478 . S
C4592 C4594 1.381 . S
C4592 C4598 1.383 . S
C4593 C4589 1.495 . S
C4593 H4599 0.959 . S
C4593 H4600 0.961 . S
C4593 H4601 0.960 . S
C4594 C4592 1.381 . S
C4594 C4595 1.394 . S
C4594 H4602 0.930 . S
C4595 C4594 1.394 . S
C4595 C4596 1.383 . S
C4595 H4603 0.929 . S
C4596 C4595 1.383 . S
C4596 C4597 1.377 . S
C4597 H4581 0.930 . S
C4597 C4596 1.377 . S
C4597 C4598 1.379 . S
C4598 H4582 0.931 . S
C4598 C4592 1.383 . S
C4598 C4597 1.379 . S
H4599 C4593 0.959 . S
H4600 C4593 0.961 . S
H4601 C4593 0.960 . S
H4602 C4594 0.930 . S
H4603 C4595 0.929 . S
H4604 C4612 0.929 . S
H4605 C4614 0.930 . S
H4606 C4616 0.930 . S
H4607 C4619 0.929 . S
H4608 C4622 0.930 . S
H4609 C4624 0.960 . S
H4610 C4624 0.960 . S
H4611 C4624 0.960 . S
C4612 H4604 0.929 . S
C4612 C4613 1.377 . S
C4612 C4614 1.384 . S
C4613 C4612 1.377 . S
C4613 C4619 1.390 . S
C4614 H4605 0.930 . S
C4614 C4612 1.384 . S
C4614 C4615 1.372 . S
C4615 C4614 1.372 . S
C4615 C4616 1.400 . S
C4615 C4620 1.490 . S
C4616 H4606 0.930 . S
C4616 C4615 1.400 . S
C4616 C4619 1.386 . S
H4617 C4633 0.930 . S
H4618 C4634 0.931 . S
C4619 H4607 0.929 . S
C4619 C4613 1.390 . S
C4619 C4616 1.386 . S
C4620 C4615 1.490 . S
C4620 C4622 1.395 . S
C4620 C4623 1.403 . S
H4621 C4627 0.930 . S
C4622 H4608 0.930 . S
C4622 C4620 1.395 . S
C4622 C4625 1.403 . S
C4623 C4620 1.403 . S
C4623 C4624 1.524 . S
C4623 C4627 1.400 . S
C4624 H4609 0.960 . S
C4624 H4610 0.960 . S
C4624 H4611 0.960 . S
C4624 C4623 1.524 . S
C4625 C4622 1.403 . S
C4625 C4626 1.392 . S
C4625 C4629 1.495 . S
C4626 C4625 1.392 . S
C4626 C4627 1.385 . S
C4626 C4628 1.478 . S
C4627 H4621 0.930 . S
C4627 C4623 1.400 . S
C4627 C4626 1.385 . S
C4628 C4626 1.478 . S
C4628 C4630 1.381 . S
C4628 C4634 1.383 . S
C4629 C4625 1.495 . S
C4629 H4635 0.959 . S
C4629 H4636 0.961 . S
C4629 H4637 0.960 . S
C4630 C4628 1.381 . S
C4630 C4631 1.394 . S
C4630 H4638 0.930 . S
C4631 C4630 1.394 . S
C4631 C4632 1.383 . S
C4631 H4639 0.929 . S
C4632 C4631 1.383 . S
C4632 C4633 1.377 . S
C4633 H4617 0.930 . S
C4633 C4632 1.377 . S
C4633 C4634 1.379 . S
C4634 H4618 0.931 . S
C4634 C4628 1.383 . S
C4634 C4633 1.379 . S
H4635 C4629 0.959 . S
H4636 C4629 0.961 . S
H4637 C4629 0.960 . S
H4638 C4630 0.930 . S
H4639 C4631 0.929 . S
C1193 C255 1.467 . S
C1212 C882 1.423 1_556 S
C1229 C147 1.537 . S
C1248 C893 1.535 . S
C1265 C184 0.802 . S
C1284 C922 0.842 . S
C1320 C925 1.442 . S
C1301 C220 1.448 . S
C1337 C40 1.528 . S
C1356 C963 1.481 . S
C1392 C966 0.816 . S
C1373 C74 0.833 . S
C1428 C993 1.420 . S
C1409 C110 1.428 . S
C1445 C14 1.527 . S
C1464 C1022 1.527 . S
C1500 C873 1.494 1_655 S
C1481 C579 1.519 . S
C1517 C616 0.728 . S
C1536 C885 0.742 . S
C1572 C913 1.633 . S
C1553 C687 1.641 . S
C1608 C942 1.019 . S
C1589 C436 1.004 . S
C1625 C580 0.868 . S
C1644 C946 0.861 . S
C1680 C972 1.624 . S
C1661 C615 1.654 . S
C1716 C985 0.618 . S
C1697 C688 0.645 . S
C1752 C1013 1.568 . S
C1733 C435 1.579 . S
C1788 C865 1.542 1_565 S
C1769 C410 1.507 . S
C1805 C722 1.800 . S
C1824 C1032 1.775 . S
C1860 C1063 1.531 . S
C1841 C842 1.552 . S
C1896 C1082 0.816 . S
C1877 C794 0.842 . S
C1913 C302 1.338 . S
C1932 C1005 1.341 . S
C1949 C338 1.402 . S
C1968 C905 1.432 . S
C1985 C830 1.662 . S
C2004 C1093 1.647 . S
C2040 C1122 0.883 . S
C2021 C758 0.851 . S
C2076 C883 1.387 . S
C2057 C158 1.367 . S
C2112 C1112 1.546 . S
C2093 C254 1.544 . S
C2129 C218 0.778 . S
C2148 C923 0.804 . S
C2165 C194 1.365 . S
C2184 C1086 1.398 . S
C2220 C962 1.471 1_655 S
C2201 C3 1.501 . S
C2237 C111 0.709 . S
C2256 C1045 0.720 . S
C2292 C992 1.368 1_556 S
C2273 C76 1.365 . S
C2328 C1143 1.552 . S
C2309 C50 1.570 . S
C2364 C872 1.462 . S
C2345 C364 1.464 1_565 S
C2400 C1106 0.706 . S
C2381 C795 0.694 . S
C2417 C292 1.574 . S
C2436 C912 1.560 . S
C2453 C723 0.936 . S
C2472 C1103 0.934 . S
C2489 C363 0.841 . S
C2508 C945 0.838 . S
C2544 C1053 1.624 . S
C2525 C796 1.627 . S
C2561 C291 0.607 . S
C2580 C986 0.605 . S
C2597 C724 1.558 . S
C2616 C1132 1.557 . S
C2633 C482 1.481 . S
C2652 C866 1.495 . S
C2669 C434 1.773 . S
C2688 C1033 1.762 . S
C2705 C662 1.486 . S
C2724 C982 1.486 . S
C2741 C614 0.815 . S
C2760 C1083 0.814 . S
C2796 C1126 1.331 . S
C2777 C698 1.298 . S
C2813 C554 1.365 . S
C2832 C906 1.438 1_565 S
C2868 C932 1.592 . S
C2849 C650 1.591 . S
C2904 C903 0.819 . S
C2885 C506 0.802 . S
C2921 C183 1.468 . S
C2940 C1162 1.414 . S
C2976 C1113 1.541 . S
C2957 C219 1.539 . S
C2993 C256 0.804 . S
C3012 C1182 0.781 1_556 S
C3029 C148 1.442 . S
C3048 C1085 1.424 . S
C3065 C122 1.538 . S
C3084 C1043 1.560 . S
C3120 C1046 0.752 . S
C3101 C2 0.756 . S
C3156 C1073 1.320 . S
C3137 C39 1.315 . S
C3192 C1142 1.612 . S
C3173 C86 1.606 . S
C3228 C1153 1.520 . S
C3209 C651 1.533 . S
C3245 C472 0.731 . S
C3264 C1105 0.766 . S
C3300 C1173 1.624 . S
C3281 C507 1.630 . S
C3336 C1102 0.995 . S
C3317 C544 1.016 . S
C3372 C1026 0.881 . S
C3353 C652 0.872 . S
C3389 C471 1.636 . S
C3408 C1052 1.597 . S
C3444 C1065 0.635 . S
C3425 C508 0.636 . S
C3461 C543 1.601 . S
C3480 C1133 1.571 . S
C3516 C1145 1.544 . S
C3497 C806 1.528 . S
C3533 C326 1.780 . S
C3552 C952 1.761 . S
C3588 C983 1.492 . S
C3569 C374 1.528 . S
C3624 C1002 0.831 . S
C3605 C398 0.857 . S
C3660 C1125 1.344 . S
C3641 C770 1.328 . S
C3677 C734 1.396 . S
C3696 C1165 1.431 . S
C3732 C933 1.649 . S
C3713 C362 1.644 . S
C3768 C902 0.826 . S
C3749 C290 0.876 . S
C3785 C230 1.361 . S
C3804 C1163 1.365 . S
C3840 C892 1.548 . S
C3821 C182 1.549 . S
C3857 C146 0.787 . S
C3876 C1183 0.767 . S
C3893 C266 1.354 . S
C3912 C926 1.406 . S
C3929 C75 1.575 . S
C3948 C1042 1.530 . S
C3984 C965 0.793 . S
C3965 C38 0.812 . S
C4001 C4 1.293 . S
C4020 C1072 1.294 . S
C4037 C112 1.560 . S
C4056 C1023 1.509 . S
C4092 C1152 1.471 . S
C4073 C832 1.468 . S
C4109 C399 0.709 . S
C4128 C886 0.719 . S
C4164 C1172 1.575 1_655 S
C4145 C760 1.573 . S
C4181 C327 0.931 . S
C4200 C943 0.913 . S
C4217 C831 0.862 . S
C4236 C1025 0.859 . S
C4272 C973 1.625 . S
C4253 C400 1.628 . S
C4289 C759 0.615 . S
C4308 C1066 0.608 . S
C4344 C1012 1.564 . S
C4325 C328 1.568 . S
C4380 C1146 1.497 . S
C4361 C626 1.471 . S
C4416 C953 1.757 . S
C4397 C542 1.773 . S
C4433 C590 1.458 . S
C4452 C1062 1.479 . S
C4488 C1003 0.826 . S
C4469 C470 0.812 . S
C4505 C518 1.273 . S
C4524 C1006 1.321 . S
C4541 C446 1.369 . S
C4560 C1166 1.413 . S
C4596 C1092 1.584 . S
C4577 C578 1.599 1_565 S
C4632 C1123 0.727 . S
C4613 C686 0.777 . S
