# Generated by pormake.
# Topology gar, (4,6)-cn, num edge types: 1
# Building blocks:
#     Node 0, Type 0, BuildingBlock: CEKHIL_clean_sbu_0, # of connection points: 4
#     Node 1, Type 0, BuildingBlock: CEKHIL_clean_sbu_0, # of connection points: 4
#     Node 2, Type 0, BuildingBlock: CEKHIL_clean_sbu_0, # of connection points: 4
#     Node 3, Type 0, BuildingBlock: CEKHIL_clean_sbu_0, # of connection points: 4
#     Node 4, Type 0, BuildingBlock: CEKHIL_clean_sbu_0, # of connection points: 4
#     Node 5, Type 0, BuildingBlock: CEKHIL_clean_sbu_0, # of connection points: 4
#     Node 6, Type 0, BuildingBlock: CEKHIL_clean_sbu_0, # of connection points: 4
#     Node 7, Type 0, BuildingBlock: CEKHIL_clean_sbu_0, # of connection points: 4
#     Node 8, Type 0, BuildingBlock: CEKHIL_clean_sbu_0, # of connection points: 4
#     Node 9, Type 0, BuildingBlock: CEKHIL_clean_sbu_0, # of connection points: 4
#     Node 10, Type 0, BuildingBlock: CEKHIL_clean_sbu_0, # of connection points: 4
#     Node 11, Type 0, BuildingBlock: CEKHIL_clean_sbu_0, # of connection points: 4
#     Node 12, Type 0, BuildingBlock: CEKHIL_clean_sbu_0, # of connection points: 4
#     Node 13, Type 0, BuildingBlock: CEKHIL_clean_sbu_0, # of connection points: 4
#     Node 14, Type 0, BuildingBlock: CEKHIL_clean_sbu_0, # of connection points: 4
#     Node 15, Type 0, BuildingBlock: CEKHIL_clean_sbu_0, # of connection points: 4
#     Node 16, Type 0, BuildingBlock: CEKHIL_clean_sbu_0, # of connection points: 4
#     Node 17, Type 0, BuildingBlock: CEKHIL_clean_sbu_0, # of connection points: 4
#     Node 18, Type 0, BuildingBlock: CEKHIL_clean_sbu_0, # of connection points: 4
#     Node 19, Type 0, BuildingBlock: CEKHIL_clean_sbu_0, # of connection points: 4
#     Node 20, Type 0, BuildingBlock: CEKHIL_clean_sbu_0, # of connection points: 4
#     Node 21, Type 0, BuildingBlock: CEKHIL_clean_sbu_0, # of connection points: 4
#     Node 22, Type 0, BuildingBlock: CEKHIL_clean_sbu_0, # of connection points: 4
#     Node 23, Type 0, BuildingBlock: CEKHIL_clean_sbu_0, # of connection points: 4
#     Node 24, Type 1, BuildingBlock: HISSIN_clean_sbu_0, # of connection points: 6
#     Node 25, Type 1, BuildingBlock: HISSIN_clean_sbu_0, # of connection points: 6
#     Node 26, Type 1, BuildingBlock: HISSIN_clean_sbu_0, # of connection points: 6
#     Node 27, Type 1, BuildingBlock: HISSIN_clean_sbu_0, # of connection points: 6
#     Node 28, Type 1, BuildingBlock: HISSIN_clean_sbu_0, # of connection points: 6
#     Node 29, Type 1, BuildingBlock: HISSIN_clean_sbu_0, # of connection points: 6
#     Node 30, Type 1, BuildingBlock: HISSIN_clean_sbu_0, # of connection points: 6
#     Node 31, Type 1, BuildingBlock: HISSIN_clean_sbu_0, # of connection points: 6
#     Node 32, Type 1, BuildingBlock: HISSIN_clean_sbu_0, # of connection points: 6
#     Node 33, Type 1, BuildingBlock: HISSIN_clean_sbu_0, # of connection points: 6
#     Node 34, Type 1, BuildingBlock: HISSIN_clean_sbu_0, # of connection points: 6
#     Node 35, Type 1, BuildingBlock: HISSIN_clean_sbu_0, # of connection points: 6
#     Node 36, Type 1, BuildingBlock: HISSIN_clean_sbu_0, # of connection points: 6
#     Node 37, Type 1, BuildingBlock: HISSIN_clean_sbu_0, # of connection points: 6
#     Node 38, Type 1, BuildingBlock: HISSIN_clean_sbu_0, # of connection points: 6
#     Node 39, Type 1, BuildingBlock: HISSIN_clean_sbu_0, # of connection points: 6
#     Edge 40, Type (0, 1), BuildingBlock: MIFKUJ_clean_linker_0, # of connection points: 2
#     Edge 41, Type (0, 1), BuildingBlock: MIFKUJ_clean_linker_0, # of connection points: 2
#     Edge 42, Type (0, 1), BuildingBlock: MIFKUJ_clean_linker_0, # of connection points: 2
#     Edge 43, Type (0, 1), BuildingBlock: MIFKUJ_clean_linker_0, # of connection points: 2
#     Edge 44, Type (0, 1), BuildingBlock: MIFKUJ_clean_linker_0, # of connection points: 2
#     Edge 45, Type (0, 1), BuildingBlock: MIFKUJ_clean_linker_0, # of connection points: 2
#     Edge 46, Type (0, 1), BuildingBlock: MIFKUJ_clean_linker_0, # of connection points: 2
#     Edge 47, Type (0, 1), BuildingBlock: MIFKUJ_clean_linker_0, # of connection points: 2
#     Edge 48, Type (0, 1), BuildingBlock: MIFKUJ_clean_linker_0, # of connection points: 2
#     Edge 49, Type (0, 1), BuildingBlock: MIFKUJ_clean_linker_0, # of connection points: 2
#     Edge 50, Type (0, 1), BuildingBlock: MIFKUJ_clean_linker_0, # of connection points: 2
#     Edge 51, Type (0, 1), BuildingBlock: MIFKUJ_clean_linker_0, # of connection points: 2
#     Edge 52, Type (0, 1), BuildingBlock: MIFKUJ_clean_linker_0, # of connection points: 2
#     Edge 53, Type (0, 1), BuildingBlock: MIFKUJ_clean_linker_0, # of connection points: 2
#     Edge 54, Type (0, 1), BuildingBlock: MIFKUJ_clean_linker_0, # of connection points: 2
#     Edge 55, Type (0, 1), BuildingBlock: MIFKUJ_clean_linker_0, # of connection points: 2
#     Edge 56, Type (0, 1), BuildingBlock: MIFKUJ_clean_linker_0, # of connection points: 2
#     Edge 57, Type (0, 1), BuildingBlock: MIFKUJ_clean_linker_0, # of connection points: 2
#     Edge 58, Type (0, 1), BuildingBlock: MIFKUJ_clean_linker_0, # of connection points: 2
#     Edge 59, Type (0, 1), BuildingBlock: MIFKUJ_clean_linker_0, # of connection points: 2
#     Edge 60, Type (0, 1), BuildingBlock: MIFKUJ_clean_linker_0, # of connection points: 2
#     Edge 61, Type (0, 1), BuildingBlock: MIFKUJ_clean_linker_0, # of connection points: 2
#     Edge 62, Type (0, 1), BuildingBlock: MIFKUJ_clean_linker_0, # of connection points: 2
#     Edge 63, Type (0, 1), BuildingBlock: MIFKUJ_clean_linker_0, # of connection points: 2
#     Edge 64, Type (0, 1), BuildingBlock: MIFKUJ_clean_linker_0, # of connection points: 2
#     Edge 65, Type (0, 1), BuildingBlock: MIFKUJ_clean_linker_0, # of connection points: 2
#     Edge 66, Type (0, 1), BuildingBlock: MIFKUJ_clean_linker_0, # of connection points: 2
#     Edge 67, Type (0, 1), BuildingBlock: MIFKUJ_clean_linker_0, # of connection points: 2
#     Edge 68, Type (0, 1), BuildingBlock: MIFKUJ_clean_linker_0, # of connection points: 2
#     Edge 69, Type (0, 1), BuildingBlock: MIFKUJ_clean_linker_0, # of connection points: 2
#     Edge 70, Type (0, 1), BuildingBlock: MIFKUJ_clean_linker_0, # of connection points: 2
#     Edge 71, Type (0, 1), BuildingBlock: MIFKUJ_clean_linker_0, # of connection points: 2
#     Edge 72, Type (0, 1), BuildingBlock: MIFKUJ_clean_linker_0, # of connection points: 2
#     Edge 73, Type (0, 1), BuildingBlock: MIFKUJ_clean_linker_0, # of connection points: 2
#     Edge 74, Type (0, 1), BuildingBlock: MIFKUJ_clean_linker_0, # of connection points: 2
#     Edge 75, Type (0, 1), BuildingBlock: MIFKUJ_clean_linker_0, # of connection points: 2
#     Edge 76, Type (0, 1), BuildingBlock: MIFKUJ_clean_linker_0, # of connection points: 2
#     Edge 77, Type (0, 1), BuildingBlock: MIFKUJ_clean_linker_0, # of connection points: 2
#     Edge 78, Type (0, 1), BuildingBlock: MIFKUJ_clean_linker_0, # of connection points: 2
#     Edge 79, Type (0, 1), BuildingBlock: MIFKUJ_clean_linker_0, # of connection points: 2
#     Edge 80, Type (0, 1), BuildingBlock: MIFKUJ_clean_linker_0, # of connection points: 2
#     Edge 81, Type (0, 1), BuildingBlock: MIFKUJ_clean_linker_0, # of connection points: 2
#     Edge 82, Type (0, 1), BuildingBlock: MIFKUJ_clean_linker_0, # of connection points: 2
#     Edge 83, Type (0, 1), BuildingBlock: MIFKUJ_clean_linker_0, # of connection points: 2
#     Edge 84, Type (0, 1), BuildingBlock: MIFKUJ_clean_linker_0, # of connection points: 2
#     Edge 85, Type (0, 1), BuildingBlock: MIFKUJ_clean_linker_0, # of connection points: 2
#     Edge 86, Type (0, 1), BuildingBlock: MIFKUJ_clean_linker_0, # of connection points: 2
#     Edge 87, Type (0, 1), BuildingBlock: MIFKUJ_clean_linker_0, # of connection points: 2
#     Edge 88, Type (0, 1), BuildingBlock: MIFKUJ_clean_linker_0, # of connection points: 2
#     Edge 89, Type (0, 1), BuildingBlock: MIFKUJ_clean_linker_0, # of connection points: 2
#     Edge 90, Type (0, 1), BuildingBlock: MIFKUJ_clean_linker_0, # of connection points: 2
#     Edge 91, Type (0, 1), BuildingBlock: MIFKUJ_clean_linker_0, # of connection points: 2
#     Edge 92, Type (0, 1), BuildingBlock: MIFKUJ_clean_linker_0, # of connection points: 2
#     Edge 93, Type (0, 1), BuildingBlock: MIFKUJ_clean_linker_0, # of connection points: 2
#     Edge 94, Type (0, 1), BuildingBlock: MIFKUJ_clean_linker_0, # of connection points: 2
#     Edge 95, Type (0, 1), BuildingBlock: MIFKUJ_clean_linker_0, # of connection points: 2
#     Edge 96, Type (0, 1), BuildingBlock: MIFKUJ_clean_linker_0, # of connection points: 2
#     Edge 97, Type (0, 1), BuildingBlock: MIFKUJ_clean_linker_0, # of connection points: 2
#     Edge 98, Type (0, 1), BuildingBlock: MIFKUJ_clean_linker_0, # of connection points: 2
#     Edge 99, Type (0, 1), BuildingBlock: MIFKUJ_clean_linker_0, # of connection points: 2
#     Edge 100, Type (0, 1), BuildingBlock: MIFKUJ_clean_linker_0, # of connection points: 2
#     Edge 101, Type (0, 1), BuildingBlock: MIFKUJ_clean_linker_0, # of connection points: 2
#     Edge 102, Type (0, 1), BuildingBlock: MIFKUJ_clean_linker_0, # of connection points: 2
#     Edge 103, Type (0, 1), BuildingBlock: MIFKUJ_clean_linker_0, # of connection points: 2
#     Edge 104, Type (0, 1), BuildingBlock: MIFKUJ_clean_linker_0, # of connection points: 2
#     Edge 105, Type (0, 1), BuildingBlock: MIFKUJ_clean_linker_0, # of connection points: 2
#     Edge 106, Type (0, 1), BuildingBlock: MIFKUJ_clean_linker_0, # of connection points: 2
#     Edge 107, Type (0, 1), BuildingBlock: MIFKUJ_clean_linker_0, # of connection points: 2
#     Edge 108, Type (0, 1), BuildingBlock: MIFKUJ_clean_linker_0, # of connection points: 2
#     Edge 109, Type (0, 1), BuildingBlock: MIFKUJ_clean_linker_0, # of connection points: 2
#     Edge 110, Type (0, 1), BuildingBlock: MIFKUJ_clean_linker_0, # of connection points: 2
#     Edge 111, Type (0, 1), BuildingBlock: MIFKUJ_clean_linker_0, # of connection points: 2
#     Edge 112, Type (0, 1), BuildingBlock: MIFKUJ_clean_linker_0, # of connection points: 2
#     Edge 113, Type (0, 1), BuildingBlock: MIFKUJ_clean_linker_0, # of connection points: 2
#     Edge 114, Type (0, 1), BuildingBlock: MIFKUJ_clean_linker_0, # of connection points: 2
#     Edge 115, Type (0, 1), BuildingBlock: MIFKUJ_clean_linker_0, # of connection points: 2
#     Edge 116, Type (0, 1), BuildingBlock: MIFKUJ_clean_linker_0, # of connection points: 2
#     Edge 117, Type (0, 1), BuildingBlock: MIFKUJ_clean_linker_0, # of connection points: 2
#     Edge 118, Type (0, 1), BuildingBlock: MIFKUJ_clean_linker_0, # of connection points: 2
#     Edge 119, Type (0, 1), BuildingBlock: MIFKUJ_clean_linker_0, # of connection points: 2
#     Edge 120, Type (0, 1), BuildingBlock: MIFKUJ_clean_linker_0, # of connection points: 2
#     Edge 121, Type (0, 1), BuildingBlock: MIFKUJ_clean_linker_0, # of connection points: 2
#     Edge 122, Type (0, 1), BuildingBlock: MIFKUJ_clean_linker_0, # of connection points: 2
#     Edge 123, Type (0, 1), BuildingBlock: MIFKUJ_clean_linker_0, # of connection points: 2
#     Edge 124, Type (0, 1), BuildingBlock: MIFKUJ_clean_linker_0, # of connection points: 2
#     Edge 125, Type (0, 1), BuildingBlock: MIFKUJ_clean_linker_0, # of connection points: 2
#     Edge 126, Type (0, 1), BuildingBlock: MIFKUJ_clean_linker_0, # of connection points: 2
#     Edge 127, Type (0, 1), BuildingBlock: MIFKUJ_clean_linker_0, # of connection points: 2
#     Edge 128, Type (0, 1), BuildingBlock: MIFKUJ_clean_linker_0, # of connection points: 2
#     Edge 129, Type (0, 1), BuildingBlock: MIFKUJ_clean_linker_0, # of connection points: 2
#     Edge 130, Type (0, 1), BuildingBlock: MIFKUJ_clean_linker_0, # of connection points: 2
#     Edge 131, Type (0, 1), BuildingBlock: MIFKUJ_clean_linker_0, # of connection points: 2
#     Edge 132, Type (0, 1), BuildingBlock: MIFKUJ_clean_linker_0, # of connection points: 2
#     Edge 133, Type (0, 1), BuildingBlock: MIFKUJ_clean_linker_0, # of connection points: 2
#     Edge 134, Type (0, 1), BuildingBlock: MIFKUJ_clean_linker_0, # of connection points: 2
#     Edge 135, Type (0, 1), BuildingBlock: MIFKUJ_clean_linker_0, # of connection points: 2
# Relax obj value: 0.142
# Max RMSD: 0.264
# Mean RMSD: 0.133
data_MOF--net-gar--node1-CEKHIL_clean_sbu_0--node2-HISSIN_clean_sbu_0--edge1-MIFKUJ_clean_linker_0
_symmetry_space_group_name_H-M    P1
_symmetry_Int_Tables_number       1
_symmetry_cell_setting            triclinic
loop_
_symmetry_equiv_pos_as_xyz
'x, y, z'
_cell_length_a     76.391702
_cell_length_b     75.45687
_cell_length_c     73.042274
_cell_angle_alpha  99.294174
_cell_angle_beta   93.483391
_cell_angle_gamma 100.10264
loop_
_atom_site_label
_atom_site_type_symbol
_atom_site_fract_x
_atom_site_fract_y
_atom_site_fract_z
_atom_type_partial_charge
Co0 Co 0.09486 0.31286 0.40118 0.0
O1 O 0.12024 0.31575 0.40026 0.0
O2 O 0.09997 0.29872 0.37846 0.0
C3 C 0.0939 0.34255 0.40972 0.0
O4 O 0.06788 0.30756 0.39658 0.0
Co5 Co 0.07813 0.32324 0.43813 0.0
O6 O 0.05586 0.32051 0.4215 0.0
C7 C 0.09245 0.28925 0.43134 0.0
C8 C 0.11668 0.30534 0.38399 0.0
C9 C 0.05452 0.3124 0.4046 0.0
O10 O 0.09447 0.29134 0.41441 0.0
O11 O 0.08771 0.30128 0.44351 0.0
O12 O 0.09507 0.33587 0.3924 0.0
O13 O 0.09535 0.33165 0.42147 0.0
Co14 Co 1.00049 0.77355 0.64213 0.0
O15 O 0.97492 0.76907 0.64244 0.0
O16 O 0.99431 0.76958 0.66647 0.0
C17 C 1.00272 0.79771 0.62734 0.0
O18 O 0.02734 0.7785 0.64784 0.0
Co19 Co 0.01949 0.77095 0.6056 0.0
O20 O 0.04178 0.781 0.62224 0.0
C21 C 1.00205 0.73741 0.61805 0.0
C22 C 0.9778 0.76778 0.65987 0.0
C23 C 0.04175 0.78192 0.63982 0.0
O24 O 1.00015 0.74664 0.63399 0.0
O25 O 1.0077 0.7448 0.60439 0.0
O26 O 1.00102 0.79989 0.64513 0.0
O27 O 1.00139 0.78105 0.619 0.0
Co28 Co 0.59534 0.81724 0.90459 0.0
O29 O 0.6207 0.81822 0.9055 0.0
O30 O 0.60081 0.8015 0.88317 0.0
C31 C 0.59618 0.84749 0.9114 0.0
O32 O 0.56866 0.81348 0.89799 0.0
Co33 Co 0.57649 0.83085 0.93914 0.0
O34 O 0.55543 0.82821 0.92086 0.0
C35 C 0.58866 0.79559 0.936 0.0
C36 C 0.61744 0.80711 0.8896 0.0
C37 C 0.55502 0.81928 0.90442 0.0
O38 O 0.59234 0.79655 0.91918 0.0
O39 O 0.5837 0.80858 0.94675 0.0
O40 O 0.59806 0.83987 0.89456 0.0
O41 O 0.59576 0.83702 0.92381 0.0
Co42 Co 0.49925 0.27443 0.14045 0.0
O43 O 0.47368 0.27085 0.14085 0.0
O44 O 0.49292 0.27126 0.16497 0.0
C45 C 0.50234 0.29842 0.12529 0.0
O46 O 0.52607 0.27834 0.14609 0.0
Co47 Co 0.51796 0.27043 0.10381 0.0
O48 O 0.54064 0.2781 0.12027 0.0
C49 C 0.49949 0.23762 0.11679 0.0
C50 C 0.47646 0.26985 0.15836 0.0
C51 C 0.54053 0.2799 0.13792 0.0
O52 O 0.49793 0.24723 0.13266 0.0
O53 O 0.50528 0.24464 0.10297 0.0
O54 O 0.50083 0.3009 0.14312 0.0
O55 O 0.50039 0.28163 0.11711 0.0
Co56 Co 0.06568 0.78528 0.13383 0.0
O57 O 0.04089 0.77576 0.12562 0.0
O58 O 0.05477 0.77232 0.15202 0.0
C59 C 0.06563 0.81326 0.12727 0.0
O60 O 0.09024 0.79356 0.14779 0.0
Co61 Co 0.09364 0.79851 0.10787 0.0
O62 O 0.10947 0.80858 0.13104 0.0
C63 C 0.08115 0.75904 0.10625 0.0
C64 C 0.04006 0.76954 0.1412 0.0
C65 C 0.10546 0.80326 0.14618 0.0
O66 O 0.0723 0.7624 0.1204 0.0
O67 O 0.08987 0.77146 0.09853 0.0
O68 O 0.06006 0.80908 0.14277 0.0
O69 O 0.07003 0.80019 0.11578 0.0
Co70 Co 0.51885 0.79518 0.40153 0.0
O71 O 0.5443 0.79764 0.40628 0.0
O72 O 0.52882 0.78766 0.37871 0.0
C73 C 0.51679 0.82235 0.41798 0.0
O74 O 0.49317 0.79149 0.39074 0.0
Co75 Co 0.49304 0.79484 0.43276 0.0
O76 O 0.47487 0.7968 0.41307 0.0
C77 C 0.50958 0.76278 0.42085 0.0
C78 C 0.54419 0.79158 0.38855 0.0
C79 C 0.4778 0.79353 0.39598 0.0
O80 O 0.51549 0.76965 0.40694 0.0
O81 O 0.50148 0.77123 0.43333 0.0
O82 O 0.52147 0.82124 0.40107 0.0
O83 O 0.51485 0.80742 0.42476 0.0
Co84 Co 0.5734 0.29002 0.63577 0.0
O85 O 0.54822 0.28135 0.62889 0.0
O86 O 0.56272 0.27881 0.65528 0.0
C87 C 0.57463 0.31755 0.62772 0.0
O88 O 0.59861 0.2979 0.64835 0.0
Co89 Co 0.60037 0.30039 0.60735 0.0
O90 O 0.61609 0.31289 0.63 0.0
C91 C 0.58666 0.26156 0.60856 0.0
C92 C 0.54769 0.27615 0.64499 0.0
C93 C 0.6132 0.30818 0.64568 0.0
O94 O 0.57861 0.26608 0.62309 0.0
O95 O 0.59527 0.27312 0.59975 0.0
O96 O 0.56921 0.31472 0.64371 0.0
O97 O 0.57768 0.30346 0.61669 0.0
Co98 Co 0.01493 0.2911 0.9039 0.0
O99 O 0.04057 0.29645 0.90941 0.0
O100 O 0.02621 0.28307 0.88205 0.0
C101 C 1.00997 0.31831 0.91789 0.0
O102 O 0.98933 0.28413 0.89211 0.0
Co103 Co 0.98776 0.29114 0.93403 0.0
O104 O 0.96979 0.2899 0.91302 0.0
C105 C 1.00756 0.26074 0.92631 0.0
C106 C 0.04131 0.28929 0.8921 0.0
C107 C 0.97343 0.28535 0.89634 0.0
O108 O 0.01386 0.26669 0.91204 0.0
O109 O 0.99805 0.26917 0.93725 0.0
O110 O 0.01515 0.31652 0.90115 0.0
O111 O 1.00919 0.30422 0.92589 0.0
Co112 Co 0.41132 0.03874 0.29613 0.0
O113 O 0.41117 0.06316 0.29173 0.0
O114 O 0.38789 0.04022 0.28622 0.0
C115 C 0.42628 0.04635 0.32449 0.0
O116 O 0.40582 0.0123 0.29942 0.0
Co117 Co 0.4462 0.02361 0.30158 0.0
O118 O 0.43037 1.00256 0.30898 0.0
C119 C 0.43334 0.02924 0.26441 0.0
C120 C 0.39444 0.05722 0.28579 0.0
C121 C 0.41351 1.00023 0.30537 0.0
O122 O 0.41828 0.03161 0.2703 0.0
O123 O 0.44671 0.02763 0.27507 0.0
O124 O 0.40921 0.04626 0.32263 0.0
O125 O 0.43382 0.04353 0.30925 0.0
Co126 Co 0.28001 0.18215 0.49466 0.0
O127 O 0.3059 0.18566 0.49752 0.0
O128 O 0.2876 0.16133 0.50286 0.0
C129 C 0.27821 0.19132 0.46641 0.0
O130 O 0.25301 0.17237 0.49273 0.0
Co131 Co 0.25888 0.21276 0.49216 0.0
O132 O 0.23722 0.19333 0.48634 0.0
C133 C 0.27506 0.20938 0.52896 0.0
C134 C 0.30392 0.16968 0.50245 0.0
C135 C 0.23801 0.17719 0.4889 0.0
O136 O 0.27998 0.19456 0.52152 0.0
O137 O 0.26732 0.21912 0.51944 0.0
O138 O 0.28 0.17473 0.46768 0.0
O139 O 0.27847 0.2021 0.48215 0.0
Co140 Co 0.17232 0.01337 0.77341 0.0
O141 O 0.16947 0.98554 0.77142 0.0
O142 O 0.1941 1.00186 0.76714 0.0
C143 C 0.1585 0.01804 0.80285 0.0
O144 O 0.18364 0.04213 0.77503 0.0
Co145 Co 0.14376 0.03669 0.77567 0.0
O146 O 0.16255 0.05909 0.78003 0.0
C147 C 0.1489 0.01871 0.73752 0.0
C148 C 0.18605 0.98545 0.76827 0.0
C149 C 0.17879 0.05821 0.77779 0.0
O150 O 0.16207 0.01185 0.74473 0.0
O151 O 0.13972 0.02796 0.74807 0.0
O152 O 0.17501 0.01602 0.80187 0.0
O153 O 0.15073 0.01675 0.78635 0.0
Co154 Co 0.27286 0.94917 0.9941 0.0
O155 O 0.2468 0.94449 0.99234 0.0
O156 O 0.26314 0.9717 1.00165 0.0
C157 C 0.27475 0.93147 0.96585 0.0
O158 O 0.30057 0.959 0.99708 0.0
Co159 Co 0.29249 0.91601 0.99391 0.0
O160 O 0.31424 0.93459 0.99363 0.0
C161 C 0.27461 0.92901 0.02665 0.0
C162 C 0.24717 0.96167 0.99825 0.0
C163 C 0.31493 0.95184 0.9962 0.0
O164 O 0.2735 0.94402 0.02066 0.0
O165 O 0.27967 0.91545 0.01696 0.0
O166 O 0.27246 0.94827 0.96665 0.0
O167 O 0.27456 0.92598 0.98157 0.0
Co168 Co 0.30676 0.38846 0.03018 0.0
O169 O 0.28096 0.38503 0.02874 0.0
O170 O 0.29926 0.41087 0.04085 0.0
C171 C 0.30783 0.37512 1.0002 0.0
O172 O 0.33386 0.39819 0.03327 0.0
Co173 Co 0.32742 0.35685 0.0244 0.0
O174 O 0.34838 0.37582 0.02257 0.0
C175 C 0.31218 0.36563 0.06033 0.0
C176 C 0.28294 0.40216 0.03621 0.0
C177 C 0.34826 0.39259 0.0286 0.0
O178 O 0.30719 0.37969 0.05514 0.0
O179 O 0.31968 0.35451 0.04979 0.0
O180 O 0.30629 0.39214 1.00431 0.0
O181 O 0.30775 0.3664 0.01406 0.0
Co182 Co 0.81439 0.12363 0.02487 0.0
O183 O 0.8404 0.13003 0.02549 0.0
O184 O 0.82658 0.10381 0.03099 0.0
C185 C 0.80988 0.13357 0.99734 0.0
O186 O 0.78719 0.11189 0.02434 0.0
Co187 Co 0.7902 0.15295 0.0229 0.0
O188 O 0.77063 0.13156 0.01537 0.0
C189 C 0.80878 0.15039 0.05924 0.0
C190 C 0.84171 0.11395 0.02874 0.0
C191 C 0.77193 0.11592 0.01912 0.0
O192 O 0.81479 0.13591 0.05224 0.0
O193 O 0.80013 0.15925 0.04952 0.0
O194 O 0.81315 0.11725 0.99734 0.0
O195 O 0.8101 0.1432 0.01355 0.0
Co196 Co 0.18208 0.54257 0.25788 0.0
O197 O 0.17952 0.51759 0.26155 0.0
O198 O 0.19941 0.53107 0.24485 0.0
C199 C 0.18096 0.55461 0.28795 0.0
O200 O 0.1895 0.56785 0.2515 0.0
Co201 Co 0.15301 0.56598 0.26691 0.0
O202 O 0.17154 0.58665 0.26303 0.0
C203 C 0.14788 0.53778 0.23279 0.0
C204 C 0.19302 0.51665 0.25168 0.0
C205 C 0.18536 0.58377 0.25496 0.0
O206 O 0.16401 0.53516 0.23542 0.0
O207 O 0.14077 0.54822 0.24452 0.0
O208 O 0.19587 0.55082 0.28219 0.0
O209 O 0.16723 0.54982 0.27585 0.0
Co210 Co 0.80079 0.88783 0.53039 0.0
O211 O 0.77491 0.88329 0.52896 0.0
O212 O 0.79231 0.90938 0.54192 0.0
C213 C 0.80237 0.87569 0.49999 0.0
O214 O 0.82768 0.89876 0.53352 0.0
Co215 Co 0.82274 0.85732 0.52362 0.0
O216 O 0.84339 0.87722 0.52337 0.0
C217 C 0.80596 0.86322 0.55903 0.0
C218 C 0.77621 0.90019 0.53699 0.0
C219 C 0.84251 0.89384 0.5293 0.0
O220 O 0.80186 0.87815 0.55499 0.0
O221 O 0.81308 0.85244 0.54764 0.0
O222 O 0.79983 0.89232 0.50472 0.0
O223 O 0.80277 0.86653 0.51349 0.0
Co224 Co 0.91665 0.05918 0.26684 0.0
O225 O 0.91992 0.08713 0.27011 0.0
O226 O 0.8947 0.06996 0.26051 0.0
C227 C 0.93144 0.05742 0.29658 0.0
O228 O 0.90521 0.03023 0.26327 0.0
Co229 Co 0.94584 0.03622 0.26559 0.0
O230 O 0.92725 0.0152 0.26895 0.0
C231 C 0.93971 0.05173 0.23164 0.0
C232 C 0.90316 0.08679 0.26525 0.0
C233 C 0.91061 0.01511 0.26601 0.0
O234 O 0.92565 0.05718 0.23903 0.0
O235 O 0.95014 0.0442 0.24093 0.0
O236 O 0.91529 0.06064 0.29473 0.0
O237 O 0.93861 0.05686 0.28092 0.0
Co238 Co 0.31606 0.62324 0.52609 0.0
O239 O 0.34193 0.62824 0.5252 0.0
O240 O 0.32755 0.60256 0.53134 0.0
C241 C 0.31066 0.63345 0.49888 0.0
O242 O 0.28863 0.61348 0.52709 0.0
Co243 Co 0.29579 0.65614 0.52711 0.0
O244 O 0.27424 0.63668 0.52365 0.0
C245 C 0.31595 0.65151 0.56126 0.0
C246 C 0.3428 0.61208 0.52842 0.0
C247 C 0.27402 0.62009 0.52541 0.0
O248 O 0.31841 0.63546 0.55364 0.0
O249 O 0.30911 0.66227 0.55234 0.0
O250 O 0.313 0.61676 0.4985 0.0
O251 O 0.31265 0.64326 0.51519 0.0
Co252 Co 0.41857 0.55907 0.76788 0.0
O253 O 0.42196 0.587 0.77145 0.0
O254 O 0.39679 0.57001 0.76121 0.0
C255 C 0.4333 0.55735 0.79763 0.0
O256 O 0.407 0.5301 0.76411 0.0
Co257 Co 0.44752 0.53595 0.7669 0.0
O258 O 0.42886 0.51492 0.76989 0.0
C259 C 0.44103 0.55057 0.73245 0.0
C260 C 0.40532 0.58679 0.76621 0.0
C261 C 0.41227 0.51487 0.76673 0.0
O262 O 0.42764 0.55711 0.74016 0.0
O263 O 0.45096 0.54233 0.74149 0.0
O264 O 0.41705 0.5603 0.79572 0.0
O265 O 0.44052 0.55684 0.78202 0.0
Co266 Co 0.67796 0.03883 0.7636 0.0
O267 O 0.6757 0.01343 0.76524 0.0
O268 O 0.69492 0.02835 0.74888 0.0
C269 C 0.67786 0.0492 0.79418 0.0
O270 O 0.68472 0.06494 0.75922 0.0
Co271 Co 0.64792 0.06022 0.77524 0.0
O272 O 0.6657 0.08185 0.77211 0.0
C273 C 0.64287 0.03417 0.73989 0.0
C274 C 0.68873 0.01323 0.75463 0.0
C275 C 0.67975 0.08035 0.76388 0.0
O276 O 0.6594 0.03273 0.74163 0.0
O277 O 0.63533 0.04298 0.75263 0.0
O278 O 0.69248 0.04559 0.78755 0.0
O279 O 0.66369 0.0447 0.78265 0.0
Co280 Co 0.78637 0.68038 0.99475 0.0
O281 O 0.81227 0.68417 0.99754 0.0
O282 O 0.79422 0.65972 1.003 0.0
C283 C 0.78432 0.68934 0.96635 0.0
O284 O 0.75946 0.6703 0.99286 0.0
Co285 Co 0.76498 0.71072 0.99224 0.0
O286 O 0.74367 0.69085 0.98528 0.0
C287 C 0.78272 0.70852 0.02873 0.0
C288 C 0.81047 0.66818 1.00245 0.0
C289 C 0.74452 0.67482 0.9882 0.0
O290 O 0.78626 0.69289 0.02162 0.0
O291 O 0.77558 0.71845 0.01891 0.0
O292 O 0.78636 0.67286 0.96776 0.0
O293 O 0.78455 0.70017 0.98207 0.0
Co294 Co 0.91586 0.53627 0.79516 0.0
O295 O 0.91721 0.55845 0.78512 0.0
O296 O 0.89262 0.53763 0.78441 0.0
C297 C 0.93194 0.54893 0.82225 0.0
O298 O 0.90884 0.51238 0.80461 0.0
Co299 Co 0.94927 0.52027 0.80505 0.0
O300 O 0.93266 0.50301 0.81664 0.0
C301 C 0.93485 0.51594 0.7657 0.0
C302 C 0.9002 0.55313 0.78032 0.0
C303 C 0.91586 0.50147 0.81332 0.0
O304 O 0.92137 0.523 0.77068 0.0
O305 O 0.9478 0.51481 0.77716 0.0
O306 O 0.91505 0.54956 0.82023 0.0
O307 O 0.93875 0.54202 0.80765 0.0
Co308 Co 0.77441 0.44828 0.4966 0.0
O309 O 0.74825 0.44278 0.495 0.0
O310 O 0.76398 0.47002 0.50567 0.0
C311 C 0.77692 0.43249 0.46747 0.0
O312 O 0.80198 0.45927 0.49972 0.0
Co313 Co 0.79609 0.41636 0.49373 0.0
O314 O 0.81686 0.43594 0.49339 0.0
C315 C 0.78086 0.42821 0.52895 0.0
C316 C 0.74817 0.4597 0.50187 0.0
C317 C 0.81674 0.45298 0.49759 0.0
O318 O 0.7757 0.44173 0.52269 0.0
O319 O 0.78792 0.4162 0.51911 0.0
O320 O 0.77355 0.44898 0.46942 0.0
O321 O 0.77715 0.42589 0.4826 0.0
Co322 Co 0.67196 0.51376 0.27393 0.0
O323 O 0.66894 0.48596 0.27216 0.0
O324 O 0.69358 0.50205 0.26754 0.0
C325 C 0.65842 0.51855 0.30348 0.0
O326 O 0.68327 0.54254 0.27521 0.0
Co327 Co 0.6435 0.53711 0.27646 0.0
O328 O 0.66219 0.55952 0.28015 0.0
C329 C 0.64741 0.51776 0.23844 0.0
C330 C 0.68544 0.48571 0.26882 0.0
C331 C 0.6784 0.55862 0.27777 0.0
O332 O 0.66132 0.51184 0.24536 0.0
O333 O 0.6383 0.52687 0.24924 0.0
O334 O 0.67496 0.51667 0.3024 0.0
O335 O 0.65049 0.51715 0.28706 0.0
Eu336 Eu 0.05797 0.05868 0.02376 0.0
Eu337 Eu 0.03395 0.01997 1.00757 0.0
C338 C 0.06118 0.03766 0.97944 0.0
C339 C 0.07323 0.11015 0.03925 0.0
C340 C 0.05584 0.11364 0.03763 0.0
C341 C 0.08508 0.14259 0.04331 0.0
C342 C 0.05316 0.13141 0.03746 0.0
C343 C 0.08776 0.12475 0.04322 0.0
C344 C 0.06787 0.14589 0.03901 0.0
C345 C 0.07647 0.09177 0.03274 0.0
O346 O 0.06187 0.01362 0.01407 0.0
O347 O 0.07725 0.04079 0.03065 0.0
C348 C 0.07673 0.02369 0.0231 0.0
O349 O 0.04341 0.05391 0.04999 0.0
O350 O 0.03135 0.99135 0.99465 0.0
O351 O 1.00799 1.00155 1.00323 0.0
O352 O 0.02667 0.02557 0.03858 0.0
C353 C 0.03105 0.03995 0.05234 0.0
O354 O 0.0294 0.06403 0.02079 0.0
O355 O 0.01592 0.03907 0.99967 0.0
O356 O 0.04585 0.02663 0.98043 0.0
O357 O 0.0748 0.08023 0.04435 0.0
O358 O 0.06916 0.08444 0.01597 0.0
O359 O 0.06826 0.0497 0.99458 0.0
C360 C 0.01076 0.97212 0.00818 0.0
C361 C 0.01179 0.97599 0.0277 0.0
C362 C 1.00875 0.93994 0.0094 0.0
C363 C 0.01187 0.96202 0.03802 0.0
C364 C 1.0087 0.95398 0.99906 0.0
C365 C 0.011 0.94393 0.02899 0.0
C366 C 0.01468 0.9871 0.99769 0.0
C367 C 0.01524 0.05489 0.00993 0.0
H368 H 0.04447 0.10246 0.03461 0.0
H369 H 0.09663 0.15353 0.04503 0.0
H370 H 0.03971 0.13335 0.03408 0.0
H371 H 0.10127 0.12223 0.04463 0.0
H372 H 0.01356 0.98993 0.03503 0.0
H373 H 1.00781 0.92608 1.00207 0.0
H374 H 0.01386 0.96563 0.05306 0.0
H375 H 1.00799 0.9508 0.98399 0.0
Eu376 Eu 0.29643 0.7956 0.24808 0.0
Eu377 Eu 0.28253 0.78628 0.28908 0.0
C378 C 0.25745 0.80075 0.26056 0.0
C379 C 0.30255 0.81814 0.20474 0.0
C380 C 0.28518 0.82145 0.2015 0.0
C381 C 0.31312 0.8396 0.18448 0.0
C382 C 0.2818 0.8336 0.18969 0.0
C383 C 0.31647 0.82738 0.1962 0.0
C384 C 0.29572 0.84279 0.18097 0.0
C385 C 0.30641 0.80507 0.21681 0.0
O386 O 0.27182 0.76161 0.26727 0.0
O387 O 0.29147 0.76487 0.24475 0.0
C388 C 0.27944 0.75484 0.25278 0.0
O389 O 0.32058 0.79231 0.26566 0.0
O390 O 0.26363 0.772 0.30567 0.0
O391 O 0.2877 0.78999 0.31926 0.0
O392 O 0.30628 0.7733 0.28392 0.0
C393 C 0.32085 0.78101 0.27756 0.0
O394 O 0.29513 0.8221 0.2666 0.0
O395 O 0.30155 0.81331 0.29432 0.0
O396 O 0.26232 0.80134 0.27825 0.0
O397 O 0.31507 0.81208 0.23304 0.0
O398 O 0.29359 0.79139 0.21772 0.0
O399 O 0.26701 0.7953 0.24712 0.0
C400 C 0.27746 0.76338 0.33218 0.0
C401 C 0.29453 0.76386 0.3409 0.0
C402 C 0.26621 0.7365 0.34562 0.0
C403 C 0.29734 0.75095 0.35199 0.0
C404 C 0.26336 0.74949 0.3346 0.0
C405 C 0.28319 0.73721 0.35463 0.0
C406 C 0.27408 0.77751 0.32109 0.0
C407 C 0.30175 0.82606 0.28405 0.0
H408 H 0.27422 0.8146 0.20803 0.0
H409 H 0.32411 0.84626 0.17784 0.0
H410 H 0.26828 0.8359 0.18748 0.0
H411 H 0.32996 0.82503 0.1985 0.0
H412 H 0.30573 0.77433 0.33935 0.0
H413 H 0.25498 0.72622 0.34754 0.0
H414 H 0.31062 0.75176 0.35857 0.0
H415 H 0.25005 0.74881 0.32816 0.0
Eu416 Eu 0.55696 0.03171 0.52163 0.0
Eu417 Eu 0.51776 0.03737 0.53905 0.0
C418 C 0.55096 0.0317 0.56486 0.0
C419 C 0.60122 0.01457 0.51391 0.0
C420 C 0.59739 0.99848 0.52146 0.0
C421 C 0.63237 0.01124 0.51389 0.0
C422 C 0.61094 0.98877 0.52506 0.0
C423 C 0.61883 0.02087 0.51024 0.0
C424 C 0.62864 0.995 0.52129 0.0
C425 C 0.58714 0.02487 0.50949 0.0
O426 O 0.5361 0.0647 0.54459 0.0
O427 O 0.55636 0.06152 0.52262 0.0
C428 C 0.54853 0.07164 0.5347 0.0
O429 O 0.5368 0.02983 0.49705 0.0
O430 O 0.50229 0.05021 0.55991 0.0
O431 O 0.48867 0.03046 0.53635 0.0
O432 O 0.51733 0.04642 0.51146 0.0
C433 C 0.52339 0.03861 0.49642 0.0
O434 O 0.54376 1.00538 0.52944 0.0
O435 O 0.51482 1.00846 0.52384 0.0
O436 O 0.53351 0.02755 0.5612 0.0
O437 O 0.57146 0.01534 0.50276 0.0
O438 O 0.58598 0.03928 0.52156 0.0
O439 O 0.56161 0.03765 0.5528 0.0
C440 C 0.474 0.05443 0.54799 0.0
C441 C 0.47548 0.0653 0.53405 0.0
C442 C 0.44675 0.06517 0.55603 0.0
C443 C 0.4626 0.07595 0.53105 0.0
C444 C 0.45962 0.05456 0.55902 0.0
C445 C 0.44795 0.0759 0.5419 0.0
C446 C 0.48693 0.04245 0.55079 0.0
C447 C 0.52687 0.99818 0.52488 0.0
H448 H 0.58392 0.99338 0.52453 0.0
H449 H 0.64574 0.01635 0.51057 0.0
H450 H 0.60758 0.97646 0.53095 0.0
H451 H 0.62209 0.03322 0.50438 0.0
H452 H 0.48647 0.06536 0.52534 0.0
H453 H 0.43586 0.06499 0.56487 0.0
H454 H 0.46389 0.08387 0.51993 0.0
H455 H 0.45826 0.0463 0.56987 0.0
Eu456 Eu 0.27608 0.29103 0.76482 0.0
Eu457 Eu 0.31522 0.27933 0.76927 0.0
C458 C 0.27774 0.24826 0.77037 0.0
C459 C 0.22908 0.29909 0.7737 0.0
C460 C 0.21903 0.28175 0.77443 0.0
C461 C 0.20942 0.31305 0.79412 0.0
C462 C 0.20427 0.28012 0.7849 0.0
C463 C 0.22404 0.3147 0.78352 0.0
C464 C 0.19941 0.29575 0.79496 0.0
C465 C 0.2451 0.30124 0.76331 0.0
O466 O 0.30924 0.27472 0.73815 0.0
O467 O 0.28182 0.28309 0.73488 0.0
C468 C 0.29537 0.27676 0.72775 0.0
O469 O 0.2959 0.31818 0.76455 0.0
O470 O 0.33112 0.2579 0.76535 0.0
O471 O 0.34353 0.28505 0.77924 0.0
O472 O 0.32317 0.30934 0.76469 0.0
C473 C 0.3135 0.3223 0.76427 0.0
O474 O 0.28086 0.2914 0.79568 0.0
O475 O 0.31082 0.29092 0.79859 0.0
O476 O 0.29543 0.25303 0.77255 0.0
O477 O 0.25951 0.31134 0.77256 0.0
O478 O 0.24844 0.28673 0.75282 0.0
O479 O 0.26793 0.26046 0.76708 0.0
C480 C 0.36112 0.2678 0.761 0.0
C481 C 0.36203 0.2755 0.74477 0.0
C482 C 0.3886 0.25687 0.75512 0.0
C483 C 0.37622 0.27392 0.73377 0.0
C484 C 0.37444 0.2585 0.76612 0.0
C485 C 0.38965 0.26455 0.73881 0.0
C486 C 0.346 0.26876 0.7723 0.0
C487 C 0.296 0.29335 0.80594 0.0
H488 H 0.22263 0.26944 0.76709 0.0
H489 H 0.20583 0.32534 0.80154 0.0
H490 H 0.19686 0.26661 0.7854 0.0
H491 H 0.23154 0.3282 0.78312 0.0
H492 H 0.35176 0.28266 0.7406 0.0
H493 H 0.39856 0.24933 0.75925 0.0
H494 H 0.37674 0.28017 0.72142 0.0
H495 H 0.3738 0.25233 0.77853 0.0
Eu496 Eu 0.03705 0.05203 0.52402 0.0
Eu497 Eu 0.04869 0.01494 0.50458 0.0
C498 C 0.07347 0.05383 0.50364 0.0
C499 C 0.03864 0.10187 0.53068 0.0
C500 C 0.05698 0.10793 0.52941 0.0
C501 C 0.03203 0.12543 0.51368 0.0
C502 C 0.06273 0.12236 0.52015 0.0
C503 C 0.02626 0.11099 0.52303 0.0
C504 C 0.05031 0.13106 0.51191 0.0
C505 C 0.0324 0.08472 0.53766 0.0
O506 O 0.05786 0.01549 0.53554 0.0
O507 O 0.05341 0.04388 0.54843 0.0
C508 C 0.05966 0.0288 0.55015 0.0
O509 O 0.01418 0.03141 0.5303 0.0
O510 O 0.06772 0.9964 0.50096 0.0
O511 O 0.04239 0.98961 0.48423 0.0
O512 O 0.02202 1.00515 0.51519 0.0
C513 C 0.01095 0.01362 0.52476 0.0
O514 O 0.02228 0.04704 0.49441 0.0
O515 O 0.03693 0.02587 0.47924 0.0
O516 O 0.07322 0.03656 0.50441 0.0
O517 O 0.02012 0.07275 0.52685 0.0
O518 O 0.04479 0.07711 0.54445 0.0
O519 O 0.05945 0.06117 0.50699 0.0
C520 C 0.05242 0.96615 0.49732 0.0
C521 C 0.03605 0.96108 0.50462 0.0
C522 C 0.06343 0.9416 0.50948 0.0
C523 C 0.03358 0.94681 0.51469 0.0
C524 C 0.06595 0.95603 0.49943 0.0
C525 C 0.04741 0.93729 0.51769 0.0
C526 C 0.05622 0.98352 0.49028 0.0
C527 C 0.02552 0.03726 0.47863 0.0
H528 H 0.06694 0.10111 0.53493 0.0
H529 H 0.02219 0.13206 0.50762 0.0
H530 H 0.07686 0.12623 0.51878 0.0
H531 H 0.01207 0.10654 0.52372 0.0
H532 H 0.02538 0.96865 0.50328 0.0
H533 H 0.07429 0.93445 0.51163 0.0
H534 H 0.02099 0.94356 0.52062 0.0
H535 H 0.07874 0.95984 0.49408 0.0
Eu536 Eu 0.31641 0.79942 0.76785 0.0
Eu537 Eu 0.27838 0.77387 0.76485 0.0
C538 C 0.29521 0.80047 0.80391 0.0
C539 C 0.36579 0.81709 0.77017 0.0
C540 C 0.36859 0.79924 0.77043 0.0
C541 C 0.39701 0.82882 0.78066 0.0
C542 C 0.38528 0.79628 0.77665 0.0
C543 C 0.3802 0.8318 0.77469 0.0
C544 C 0.39943 0.81112 0.78244 0.0
C545 C 0.34754 0.82056 0.76874 0.0
O546 O 0.26895 0.80151 0.7629 0.0
O547 O 0.29643 0.81965 0.76362 0.0
C548 C 0.27863 0.81805 0.76306 0.0
O549 O 0.31478 0.77849 0.74163 0.0
O550 O 0.25702 0.75835 0.77781 0.0
O551 O 0.25603 0.75582 0.7478 0.0
O552 O 0.28488 0.7736 0.73501 0.0
C553 C 0.30065 0.77152 0.73 0.0
O554 O 0.32556 0.77229 0.77273 0.0
O555 O 0.29818 0.75338 0.76808 0.0
O556 O 0.28072 0.79227 0.79313 0.0
O557 O 0.33757 0.81321 0.7533 0.0
O558 O 0.33913 0.81833 0.78342 0.0
O559 O 0.31097 0.80072 0.79781 0.0
C560 C 0.2288 0.75356 0.76043 0.0
C561 C 0.2162 0.7388 0.75065 0.0
C562 C 0.20698 0.77329 0.75935 0.0
C563 C 0.19936 0.74143 0.74453 0.0
C564 C 0.22395 0.7707 0.7653 0.0
C565 C 0.19487 0.75883 0.74824 0.0
C566 C 0.24756 0.75172 0.76192 0.0
C567 C 0.31595 0.75544 0.77086 0.0
H568 H 0.3576 0.78772 0.76699 0.0
H569 H 0.40773 0.84047 0.78519 0.0
H570 H 0.3869 0.78252 0.77785 0.0
H571 H 0.3782 0.84567 0.77474 0.0
H572 H 0.21982 0.72555 0.7466 0.0
H573 H 0.20382 0.78686 0.7622 0.0
H574 H 0.19018 0.73011 0.736 0.0
H575 H 0.23365 0.78232 0.77259 0.0
Eu576 Eu 0.54492 0.03004 0.03253 0.0
Eu577 Eu 0.54107 0.05295 0.99888 0.0
C578 C 0.53465 0.06964 0.04105 0.0
C579 C 0.53209 1.0051 0.0709 0.0
C580 C 0.51446 1.00708 0.06661 0.0
C581 C 0.52412 0.99726 0.10054 0.0
C582 C 0.50181 1.00452 0.07934 0.0
C583 C 0.53679 0.99979 0.08772 0.0
C584 C 0.50664 1.00009 0.09665 0.0
C585 C 0.54571 0.01028 0.05853 0.0
O586 O 0.57059 0.05163 1.00283 0.0
O587 O 0.57271 0.04749 0.03312 0.0
C588 C 0.58038 0.05201 0.0184 0.0
O589 O 0.55549 0.01503 0.00799 0.0
O590 O 0.5477 0.07908 0.98949 0.0
O591 O 0.53335 0.05543 0.97024 0.0
O592 O 0.53906 0.02364 0.98501 0.0
C593 C 0.54834 0.01225 0.99081 0.0
O594 O 0.51576 0.02138 0.02027 0.0
O595 O 0.51215 0.04484 1.00476 0.0
O596 O 0.54084 0.07292 0.02533 0.0
O597 O 0.54152 1.00335 0.04093 0.0
O598 O 0.55253 0.02771 0.06118 0.0
O599 O 0.5326 0.05334 0.0455 0.0
C600 C 0.55741 0.07418 0.95996 0.0
C601 C 0.5683 0.06096 0.95743 0.0
C602 C 0.57811 0.09404 0.94483 0.0
C603 C 0.58404 0.06431 0.94885 0.0
C604 C 0.56231 0.09068 0.9535 0.0
C605 C 0.58927 0.08099 0.94273 0.0
C606 C 0.54289 0.07187 0.9721 0.0
C607 C 0.50532 0.03047 0.01192 0.0
H608 H 0.51065 0.01137 0.05373 0.0
H609 H 0.52814 0.99372 0.11375 0.0
H610 H 0.48856 1.00708 0.07607 0.0
H611 H 0.55037 0.99825 0.09122 0.0
H612 H 0.56493 0.04824 0.96264 0.0
H613 H 0.58185 0.10705 0.9403 0.0
H614 H 0.59216 0.05384 0.94711 0.0
H615 H 0.55427 0.10119 0.95573 0.0
Eu616 Eu 0.3 0.30061 0.27511 0.0
Eu617 Eu 0.27876 0.26123 0.25113 0.0
C618 C 0.28832 0.29554 0.23111 0.0
C619 C 0.30999 0.35083 0.28749 0.0
C620 C 0.30003 0.35064 0.27066 0.0
C621 C 0.30736 0.38244 0.29758 0.0
C622 C 0.2936 0.3661 0.26738 0.0
C623 C 0.31381 0.36686 0.30087 0.0
C624 C 0.29695 0.38211 0.28089 0.0
C625 C 0.31445 0.33366 0.29158 0.0
O626 O 0.30767 0.2642 0.24577 0.0
O627 O 0.32104 0.28311 0.27249 0.0
C628 C 0.32189 0.27142 0.25732 0.0
O629 O 0.29217 0.28319 0.29677 0.0
O630 O 0.27575 0.2404 0.22604 0.0
O631 O 0.25818 0.23664 0.24778 0.0
O632 O 0.2889 0.25477 0.2787 0.0
C633 C 0.29041 0.26534 0.29515 0.0
O634 O 0.2716 0.30402 0.26919 0.0
O635 O 0.25788 0.27397 0.26541 0.0
O636 O 0.27539 0.28205 0.23272 0.0
O637 O 0.30169 0.32336 0.29818 0.0
O638 O 0.32165 0.32432 0.27843 0.0
O639 O 0.30118 0.30196 0.24452 0.0
C640 C 0.26993 0.2114 0.23412 0.0
C641 C 0.27788 0.20895 0.25113 0.0
C642 C 0.2785 0.18356 0.21882 0.0
C643 C 0.2865 0.1943 0.2519 0.0
C644 C 0.26991 0.19841 0.21802 0.0
C645 C 0.28735 0.18182 0.23568 0.0
C646 C 0.26433 0.22884 0.23289 0.0
C647 C 0.25735 0.29142 0.26899 0.0
H648 H 0.29666 0.33828 0.26028 0.0
H649 H 0.31024 0.39461 0.30821 0.0
H650 H 0.2853 0.3652 0.25457 0.0
H651 H 0.32132 0.36715 0.31402 0.0
H652 H 0.2782 0.21883 0.26371 0.0
H653 H 0.27905 0.17405 0.20616 0.0
H654 H 0.29308 0.19308 0.26509 0.0
H655 H 0.26401 0.20022 0.20474 0.0
Eu656 Eu 0.54114 0.55284 0.02416 0.0
Eu657 Eu 0.55321 0.51671 1.00409 0.0
C658 C 0.57808 0.55538 1.00472 0.0
C659 C 0.53873 0.60154 0.02974 0.0
C660 C 0.55044 0.60175 0.01568 0.0
C661 C 0.53582 0.63264 0.02748 0.0
C662 C 0.55483 0.61722 1.00758 0.0
C663 C 0.53144 0.61705 0.03566 0.0
C664 C 0.54747 0.6328 0.01324 0.0
C665 C 0.53382 0.58468 0.0373 0.0
O666 O 0.5678 0.52231 0.03399 0.0
O667 O 0.55069 0.54068 0.04947 0.0
C668 C 0.56318 0.53049 0.04997 0.0
O669 O 0.5169 0.53135 0.02515 0.0
O670 O 0.574 0.50058 0.99841 0.0
O671 O 0.54676 0.48947 0.98707 0.0
O672 O 0.52976 0.50606 0.0193 0.0
C673 C 0.51618 0.51373 0.02412 0.0
O674 O 0.53407 0.55268 0.9926 0.0
O675 O 0.53459 0.52293 0.98058 0.0
O676 O 0.57168 0.53947 0.99421 0.0
O677 O 0.52249 0.57181 0.02642 0.0
O678 O 0.54722 0.57846 0.04409 0.0
O679 O 0.57003 0.56115 0.01921 0.0
C680 C 0.56263 0.46935 0.99932 0.0
C681 C 0.55012 0.45335 0.99225 0.0
C682 C 0.57111 0.45541 0.0255 0.0
C683 C 0.54768 0.43878 1.00204 0.0
C684 C 0.57346 0.47003 0.01579 0.0
C685 C 0.55781 0.43985 0.01906 0.0
C686 C 0.56253 0.48588 0.99087 0.0
C687 C 0.53013 0.53873 0.97847 0.0
H688 H 0.55612 0.58985 0.01083 0.0
H689 H 0.52984 0.6444 0.03203 0.0
H690 H 0.56407 0.61697 0.99691 0.0
H691 H 0.52227 0.61704 0.04639 0.0
H692 H 0.54157 0.45248 0.97961 0.0
H693 H 0.57942 0.45652 0.03834 0.0
H694 H 0.53722 0.42708 0.99672 0.0
H695 H 0.58327 0.48214 0.02164 0.0
Eu696 Eu 0.81272 0.29859 0.26527 0.0
Eu697 Eu 0.77502 0.27328 0.26732 0.0
C698 C 0.79393 0.30274 0.30301 0.0
C699 C 0.86204 0.31803 0.275 0.0
C700 C 0.86524 0.32421 0.29434 0.0
C701 C 0.89105 0.30895 0.275 0.0
C702 C 0.88105 0.32251 0.30392 0.0
C703 C 0.87526 0.31073 0.26539 0.0
C704 C 0.89399 0.31456 0.29443 0.0
C705 C 0.84461 0.31793 0.26501 0.0
O706 O 0.76643 0.30023 0.26032 0.0
O707 O 0.79354 0.31954 0.26345 0.0
C708 C 0.77577 0.31718 0.26154 0.0
O709 O 0.80281 0.2871 0.235 0.0
O710 O 0.75396 0.25855 0.28133 0.0
O711 O 0.75114 0.25734 0.25126 0.0
O712 O 0.78666 0.26126 0.24174 0.0
C713 C 0.79571 0.26972 0.2301 0.0
O714 O 0.82092 0.27038 0.26799 0.0
O715 O 0.79466 0.25408 0.27489 0.0
O716 O 0.77888 0.29442 0.29346 0.0
O717 O 0.83805 0.3033 0.25284 0.0
O718 O 0.83241 0.32357 0.27493 0.0
O719 O 0.80922 0.30113 0.29622 0.0
C720 C 0.72497 0.25586 0.26592 0.0
C721 C 0.72119 0.27356 0.26734 0.0
C722 C 0.6941 0.24312 0.25478 0.0
C723 C 0.70406 0.27601 0.26176 0.0
C724 C 0.71118 0.2407 0.26041 0.0
C725 C 0.69062 0.26077 0.25456 0.0
C726 C 0.74345 0.25304 0.26585 0.0
C727 C 0.81189 0.25486 0.27195 0.0
H728 H 0.8554 0.33002 0.30219 0.0
H729 H 0.90071 0.30267 0.26729 0.0
H730 H 0.88308 0.32735 0.31883 0.0
H731 H 0.87315 0.30591 0.25048 0.0
H732 H 0.73178 0.28542 0.27137 0.0
H733 H 0.6839 0.23117 0.2495 0.0
H734 H 0.70176 0.28975 0.26165 0.0
H735 H 0.71393 0.22695 0.25908 0.0
Eu736 Eu 0.04653 0.52906 0.53277 0.0
Eu737 Eu 0.0432 0.55102 0.49801 0.0
C738 C 0.03573 0.56907 0.53984 0.0
C739 C 0.03218 0.50353 0.57052 0.0
C740 C 0.0196 0.51473 0.57469 0.0
C741 C 0.01744 0.48213 0.58867 0.0
C742 C 1.0063 0.5099 0.58615 0.0
C743 C 0.03089 0.48708 0.57731 0.0
C744 C 1.00516 0.49364 0.59345 0.0
C745 C 0.04593 0.50859 0.55823 0.0
O746 O 0.07306 0.55223 0.50439 0.0
O747 O 0.07489 0.54494 0.53364 0.0
C748 C 0.08259 0.55121 0.5197 0.0
O749 O 0.05814 0.51449 0.50873 0.0
O750 O 0.05025 0.57633 0.48713 0.0
O751 O 0.03646 0.55181 0.46869 0.0
O752 O 0.0406 0.52123 0.48562 0.0
C753 C 0.05043 0.51051 0.49176 0.0
O754 O 0.01717 0.52147 0.52104 0.0
O755 O 0.01405 0.54332 0.5031 0.0
O756 O 0.03879 0.57112 0.52273 0.0
O757 O 0.04145 0.50209 0.5406 0.0
O758 O 0.05364 0.52582 0.56121 0.0
O759 O 0.03703 0.55407 0.54628 0.0
C760 C 0.06117 0.56953 0.45836 0.0
C761 C 0.07204 0.55626 0.45748 0.0
C762 C 0.08217 0.5875 0.4418 0.0
C763 C 0.08784 0.55858 0.44883 0.0
C764 C 0.0663 0.58516 0.45049 0.0
C765 C 0.09311 0.57425 0.44098 0.0
C766 C 0.04611 0.56813 0.46991 0.0
C767 C 1.00699 0.52994 0.51152 0.0
H768 H 0.0202 0.52734 0.56925 0.0
H769 H 0.01678 0.46939 0.59386 0.0
H770 H 0.99729 0.51925 0.58976 0.0
H771 H 0.04028 0.47812 0.57386 0.0
H772 H 0.06856 0.54431 0.46392 0.0
H773 H 0.08585 0.59962 0.43566 0.0
H774 H 0.0961 0.54826 0.44859 0.0
H775 H 0.05825 0.5957 0.4514 0.0
Eu776 Eu 0.77635 0.79078 0.26268 0.0
Eu777 Eu 0.81446 0.77955 0.27017 0.0
C778 C 0.77725 0.74869 0.27018 0.0
C779 C 0.72929 0.79713 0.26827 0.0
C780 C 0.72973 0.78864 0.28397 0.0
C781 C 0.69925 0.80169 0.27339 0.0
C782 C 0.71502 0.78673 0.29437 0.0
C783 C 0.71401 0.80361 0.26298 0.0
C784 C 0.69966 0.7933 0.28924 0.0
C785 C 0.74493 0.79938 0.2577 0.0
O786 O 0.81203 0.77857 0.23893 0.0
O787 O 0.78189 0.77699 0.23445 0.0
C788 C 0.79718 0.77515 0.22788 0.0
O789 O 0.79602 0.81614 0.25711 0.0
O790 O 0.83082 0.75856 0.26732 0.0
O791 O 0.84226 0.78573 0.28202 0.0
O792 O 0.82199 0.8109 0.27066 0.0
C793 C 0.81301 0.82215 0.26356 0.0
O794 O 0.7834 0.80047 0.29354 0.0
O795 O 0.80534 0.7844 0.2991 0.0
O796 O 0.79451 0.75211 0.26788 0.0
O797 O 0.75885 0.81078 0.26637 0.0
O798 O 0.74909 0.78427 0.24943 0.0
O799 O 0.76825 0.7623 0.27126 0.0
C800 C 0.86078 0.76923 0.26427 0.0
C801 C 0.86288 0.77896 0.24949 0.0
C802 C 0.88623 0.75549 0.25603 0.0
C803 C 0.87656 0.77688 0.23796 0.0
C804 C 0.87259 0.75763 0.26759 0.0
C805 C 0.88824 0.76492 0.24095 0.0
C806 C 0.84531 0.76966 0.27505 0.0
C807 C 0.79424 0.79499 0.30511 0.0
H808 H 0.74148 0.78355 0.28819 0.0
H809 H 0.68766 0.80707 0.26924 0.0
H810 H 0.71564 0.77999 0.30635 0.0
H811 H 0.71355 0.81024 0.25091 0.0
H812 H 0.85372 0.78784 0.24664 0.0
H813 H 0.89484 0.746 0.25856 0.0
H814 H 0.87791 0.78454 0.22663 0.0
H815 H 0.87094 0.74984 0.27881 0.0
Eu816 Eu 0.7966 0.29262 0.74724 0.0
Eu817 Eu 0.78398 0.28811 0.78984 0.0
C818 C 0.76183 0.30748 0.76324 0.0
C819 C 0.80008 0.3098 0.70149 0.0
C820 C 0.78918 0.32248 0.7071 0.0
C821 C 0.80306 0.32143 0.6725 0.0
C822 C 0.78516 0.33451 0.69542 0.0
C823 C 0.80705 0.30941 0.68418 0.0
C824 C 0.79194 0.33407 0.67787 0.0
C825 C 0.80403 0.29685 0.71356 0.0
O826 O 0.76664 0.26656 0.76832 0.0
O827 O 0.78709 0.26261 0.74724 0.0
C828 C 0.77262 0.25635 0.75475 0.0
O829 O 0.82066 0.28794 0.76379 0.0
O830 O 0.76477 0.27685 0.80802 0.0
O831 O 0.79119 0.291 0.81964 0.0
O832 O 0.80506 0.27144 0.78319 0.0
C833 C 0.82001 0.27724 0.7763 0.0
O834 O 0.80187 0.32104 0.76367 0.0
O835 O 0.80304 0.31516 0.7937 0.0
O836 O 0.76642 0.30653 0.78063 0.0
O837 O 0.81501 0.30376 0.72839 0.0
O838 O 0.79025 0.28547 0.71714 0.0
O839 O 0.76958 0.30031 0.74901 0.0
C840 C 0.77792 0.26644 0.83353 0.0
C841 C 0.78879 0.2536 0.82834 0.0
C842 C 0.77126 0.25264 0.86074 0.0
C843 C 0.79115 0.24056 0.8395 0.0
C844 C 0.76903 0.26572 0.84967 0.0
C845 C 0.78257 0.24005 0.85601 0.0
C846 C 0.77626 0.28107 0.82271 0.0
C847 C 0.80634 0.32622 0.78163 0.0
H848 H 0.78362 0.32292 0.72042 0.0
H849 H 0.80886 0.32092 0.65931 0.0
H850 H 0.77637 0.34381 0.69998 0.0
H851 H 0.81556 0.29978 0.67967 0.0
H852 H 0.79568 0.25384 0.81583 0.0
H853 H 0.76408 0.25244 0.87307 0.0
H854 H 0.80003 0.2312 0.83542 0.0
H855 H 0.76049 0.27542 0.85383 0.0
Eu856 Eu 0.80081 0.80168 0.77781 0.0
Eu857 Eu 0.78365 0.76202 0.75222 0.0
C858 C 0.78733 0.79808 0.73416 0.0
C859 C 0.80954 0.8523 0.79284 0.0
C860 C 0.80931 0.85689 0.77492 0.0
C861 C 0.79617 0.87851 0.8037 0.0
C862 C 0.8022 0.87194 0.77135 0.0
C863 C 0.80343 0.86356 0.80732 0.0
C864 C 0.79501 0.88249 0.78557 0.0
C865 C 0.81352 0.83455 0.7959 0.0
O866 O 0.81204 0.77001 0.74608 0.0
O867 O 0.82351 0.78633 0.77453 0.0
C868 C 0.82569 0.77716 0.75829 0.0
O869 O 0.79448 0.78276 0.79839 0.0
O870 O 0.78189 0.74322 0.72584 0.0
O871 O 0.76749 0.73458 0.74837 0.0
O872 O 0.79528 0.75568 0.77939 0.0
C873 C 0.79505 0.76525 0.79613 0.0
O874 O 0.7713 0.80139 0.77319 0.0
O875 O 0.76144 0.77042 0.76799 0.0
O876 O 0.77651 0.78268 0.73509 0.0
O877 O 0.80032 0.82361 0.80113 0.0
O878 O 0.82181 0.82602 0.78315 0.0
O879 O 0.79973 0.80576 0.74777 0.0
C880 C 0.78266 0.71393 0.73183 0.0
C881 C 0.79926 0.71658 0.74219 0.0
C882 C 0.78382 0.68185 0.72249 0.0
C883 C 0.80795 0.70196 0.74295 0.0
C884 C 0.77502 0.69658 0.7218 0.0
C885 C 0.80021 0.68441 0.73335 0.0
C886 C 0.77343 0.72941 0.7324 0.0
C887 C 0.75875 0.78708 0.77326 0.0
H888 H 0.81375 0.84835 0.76342 0.0
H889 H 0.79085 0.88658 0.81492 0.0
H890 H 0.80133 0.87462 0.75723 0.0
H891 H 0.80342 0.86022 0.8212 0.0
H892 H 0.80538 0.72994 0.74995 0.0
H893 H 0.77758 0.66841 0.71503 0.0
H894 H 0.82069 0.70436 0.75119 0.0
H895 H 0.7622 0.69437 0.71376 0.0
Eu896 Eu 0.55876 0.55544 0.52526 0.0
Eu897 Eu 0.53455 0.51668 0.50894 0.0
C898 C 0.56196 0.53555 0.48066 0.0
C899 C 0.58235 0.60372 0.52592 0.0
C900 C 0.58289 0.60097 0.5065 0.0
C901 C 0.58143 0.63563 0.52611 0.0
C902 C 0.58206 0.61537 0.49687 0.0
C903 C 0.58239 0.62127 0.53574 0.0
C904 C 0.58045 0.63256 0.50655 0.0
C905 C 0.57839 0.58809 0.5355 0.0
O906 O 0.56224 0.51015 0.51522 0.0
O907 O 0.57615 0.53641 0.53441 0.0
C908 C 0.57637 0.51975 0.52585 0.0
O909 O 0.54641 0.54945 0.55223 0.0
O910 O 0.523 0.49301 0.48737 0.0
O911 O 0.51697 0.49338 0.51587 0.0
O912 O 0.52561 0.52433 0.53901 0.0
C913 C 0.53204 0.53727 0.55368 0.0
O914 O 0.53061 0.56156 0.51975 0.0
O915 O 0.5156 0.53499 0.50172 0.0
O916 O 0.54931 0.52178 0.48285 0.0
O917 O 0.56177 0.58389 0.53875 0.0
O918 O 0.58481 0.57368 0.52914 0.0
O919 O 0.56642 0.54985 0.49446 0.0
C920 C 0.5209 0.46573 0.49991 0.0
C921 C 0.50869 0.45246 0.50625 0.0
C922 C 0.54506 0.45081 0.50842 0.0
C923 C 0.51481 0.43924 0.51488 0.0
C924 C 0.53895 0.46415 0.49993 0.0
C925 C 0.53317 0.43913 0.51705 0.0
C926 C 0.51599 0.48352 0.4994 0.0
C927 C 0.51587 0.55177 0.51022 0.0
H928 H 0.5827 0.58747 0.49864 0.0
H929 H 0.58032 0.64885 0.53383 0.0
H930 H 0.58118 0.61266 0.48178 0.0
H931 H 0.58188 0.62358 0.55072 0.0
H932 H 0.49476 0.45361 0.5065 0.0
H933 H 0.55929 0.45096 0.51002 0.0
H934 H 0.50545 0.43024 0.52138 0.0
H935 H 0.54861 0.47439 0.49527 0.0
Eu936 Eu 0.0636 0.53032 0.01528 0.0
Eu937 Eu 0.02464 0.53494 0.033 0.0
C938 C 0.05698 0.52448 0.05672 0.0
C939 C 0.10848 0.51551 1.00699 0.0
C940 C 0.10616 0.50284 0.01918 0.0
C941 C 0.13777 0.50829 1.00171 0.0
C942 C 0.11963 0.49301 0.02268 0.0
C943 C 0.12431 0.51805 0.99821 0.0
C944 C 0.1357 0.49574 0.01411 0.0
C945 C 0.09503 0.52688 1.00411 0.0
O946 O 0.03723 0.56186 0.02612 0.0
O947 O 0.06622 0.55894 0.03123 0.0
C948 C 0.05412 0.56918 0.03026 0.0
O949 O 0.04769 0.54054 0.99343 0.0
O950 O 0.01076 0.55035 0.05346 0.0
O951 O 0.99568 0.52776 0.03337 0.0
O952 O 0.01961 0.53047 1.00193 0.0
C953 C 0.0302 0.53646 0.98985 0.0
O954 O 0.04524 0.50308 1.00719 0.0
O955 O 0.02421 0.5047 0.0286 0.0
O956 O 0.04465 0.53466 0.05696 0.0
O957 O 0.07997 0.51874 0.99455 0.0
O958 O 0.0926 0.53831 0.01871 0.0
O959 O 0.06319 0.51806 0.04119 0.0
C960 C 0.98138 0.55261 0.04321 0.0
C961 C 0.98283 0.5637 0.02948 0.0
C962 C 0.95377 0.56261 0.05105 0.0
C963 C 0.96977 0.57416 0.02652 0.0
C964 C 0.96681 0.5522 0.05399 0.0
C965 C 0.95501 0.5737 0.03724 0.0
C966 C 0.99492 0.54144 0.04654 0.0
C967 C 0.03205 0.49543 0.01577 0.0
H968 H 0.09407 0.50077 0.0262 0.0
H969 H 0.14981 0.51054 0.99464 0.0
H970 H 0.11762 0.48361 0.03243 0.0
H971 H 0.12636 0.52779 0.98878 0.0
H972 H 0.99401 0.56419 0.021 0.0
H973 H 0.94279 0.56211 0.05978 0.0
H974 H 0.9711 0.58237 0.01564 0.0
H975 H 0.96551 0.5438 0.06473 0.0
H976 H 0.98888 0.23704 0.94541 0.0
H977 H 1.00122 0.21661 0.96311 0.0
H978 H 0.05103 0.22781 0.93858 0.0
H979 H 0.03873 0.24838 0.92067 0.0
H980 H 0.0398 0.19005 0.94703 0.0
H981 H 0.04977 0.25405 0.97535 0.0
H982 H 0.03983 0.2833 0.98474 0.0
H983 H 1.00309 0.25813 0.0194 0.0
H984 H 0.0126 0.22863 0.00995 0.0
H985 H 0.08956 0.16421 0.01715 0.0
H986 H 0.08155 0.18546 0.9979 0.0
H987 H 0.03229 0.18591 0.02369 0.0
H988 H 0.04058 0.16519 0.0438 0.0
H989 H 0.04517 0.21873 0.01386 0.0
H990 H 0.03337 0.15524 0.98569 0.0
H991 H 0.04102 0.12492 0.97587 0.0
H992 H 0.07878 0.14765 0.94072 0.0
H993 H 0.07158 0.1782 0.9506 0.0
C994 C 1.00227 0.2347 0.94331 0.0
C995 C 0.013 0.24453 0.93199 0.0
C996 C 1.00927 0.22303 0.95341 0.0
C997 C 0.0271 0.22113 0.95241 0.0
C998 C 0.03724 0.22926 0.93954 0.0
C999 C 0.03019 0.24095 0.92931 0.0
C1000 C 0.0357 0.21304 0.96676 0.0
C1001 C 0.04131 0.19642 0.9616 0.0
C1002 C 0.03722 0.22129 0.98577 0.0
C1003 C 0.0318 0.23911 0.99183 0.0
C1004 C 0.03949 0.25473 0.98488 0.0
C1005 C 0.03394 0.27135 0.99022 0.0
C1006 C 0.02081 0.27256 1.00263 0.0
C1007 C 0.01325 0.25717 0.00978 0.0
C1008 C 0.01873 0.2405 1.00445 0.0
C1009 C 0.07739 0.16942 0.01944 0.0
C1010 C 0.06554 0.16272 0.03185 0.0
C1011 C 0.07274 0.18141 0.00819 0.0
C1012 C 0.0561 0.18672 0.00898 0.0
C1013 C 0.0451 0.18171 0.02272 0.0
C1014 C 0.04982 0.16982 0.03413 0.0
C1015 C 0.04931 0.19564 0.9942 0.0
C1016 C 0.04395 0.21243 0.99928 0.0
C1017 C 0.04784 0.18742 0.97514 0.0
C1018 C 0.05209 0.16904 0.96906 0.0
C1019 C 0.04341 0.1538 0.97599 0.0
C1020 C 0.04765 0.13658 0.97039 0.0
C1021 C 0.06041 0.13437 0.95772 0.0
C1022 C 0.06893 0.14939 0.95057 0.0
C1023 C 0.06477 0.16666 0.95616 0.0
H1024 H 0.06367 0.12102 0.95339 0.0
H1025 H 0.01652 0.28544 1.00674 0.0
H1026 H 0.10068 0.80036 0.18247 0.0
H1027 H 0.12394 0.80276 0.20784 0.0
H1028 H 0.16442 0.81654 0.17119 0.0
H1029 H 0.14139 0.81439 0.14583 0.0
H1030 H 0.16616 0.78474 0.18897 0.0
H1031 H 0.15917 0.84835 0.20267 0.0
H1032 H 0.14192 0.87276 0.21086 0.0
H1033 H 0.12922 0.85282 0.26121 0.0
H1034 H 0.1462 0.82811 0.25317 0.0
H1035 H 0.24983 0.81482 0.23005 0.0
H1036 H 0.22057 0.81776 0.2172 0.0
H1037 H 0.19704 0.80068 0.26521 0.0
H1038 H 0.22667 0.79774 0.27838 0.0
H1039 H 0.1825 0.83078 0.24699 0.0
H1040 H 0.19157 0.76892 0.2352 0.0
H1041 H 0.20929 0.74482 0.22752 0.0
H1042 H 0.21702 0.76045 0.17419 0.0
H1043 H 0.1996 0.78487 0.18169 0.0
C1044 C 0.11454 0.80417 0.17989 0.0
C1045 C 0.11923 0.80701 0.16209 0.0
C1046 C 0.12775 0.8056 0.19441 0.0
C1047 C 0.14579 0.80975 0.19127 0.0
C1048 C 0.1505 0.81331 0.17379 0.0
C1049 C 0.13733 0.81211 0.15934 0.0
C1050 C 0.15988 0.80874 0.20552 0.0
C1051 C 0.16971 0.79477 0.20168 0.0
C1052 C 0.16394 0.82141 0.2224 0.0
C1053 C 0.15375 0.83625 0.2272 0.0
C1054 C 0.15254 0.84905 0.21539 0.0
C1055 C 0.14285 0.86297 0.22003 0.0
C1056 C 0.13442 0.8643 0.23652 0.0
C1057 C 0.13571 0.85175 0.24843 0.0
C1058 C 0.14538 0.83779 0.24384 0.0
C1059 C 0.23851 0.812 0.23807 0.0
C1060 C 0.24039 0.8057 0.255 0.0
C1061 C 0.22185 0.81381 0.23078 0.0
C1062 C 0.20674 0.80921 0.2402 0.0
C1063 C 0.20866 0.8043 0.25783 0.0
C1064 C 0.2255 0.80259 0.26526 0.0
C1065 C 0.18907 0.80716 0.23004 0.0
C1066 C 0.17858 0.82046 0.23456 0.0
C1067 C 0.18415 0.7937 0.21384 0.0
C1068 C 0.19437 0.7788 0.20907 0.0
C1069 C 0.19716 0.7673 0.22189 0.0
C1070 C 0.20714 0.75358 0.21756 0.0
C1071 C 0.21431 0.75113 0.20039 0.0
C1072 C 0.21146 0.76237 0.18749 0.0
C1073 C 0.20152 0.77614 0.19176 0.0
H1074 H 0.22204 0.7405 0.19707 0.0
H1075 H 0.12693 0.87509 0.24009 0.0
H1076 H 0.5204 0.85601 0.4078 0.0
H1077 H 0.51855 0.88494 0.42767 0.0
H1078 H 0.50564 0.85632 0.47312 0.0
H1079 H 0.50714 0.82743 0.45334 0.0
H1080 H 0.48665 0.88292 0.47241 0.0
H1081 H 0.54796 0.87637 0.47035 0.0
H1082 H 0.57521 0.87146 0.45538 0.0
H1083 H 0.57507 0.91934 0.43062 0.0
H1084 H 0.54766 0.92438 0.44525 0.0
H1085 H 0.54572 0.97231 0.53215 0.0
H1086 H 0.54045 0.94034 0.51698 0.0
H1087 H 0.49234 0.9475 0.48719 0.0
H1088 H 0.49724 0.97936 0.50276 0.0
H1089 H 0.54165 0.93057 0.48152 0.0
H1090 H 0.4646 0.90632 0.47295 0.0
H1091 H 0.43863 0.91018 0.49065 0.0
H1092 H 0.4724 0.92217 0.54196 0.0
H1093 H 0.49853 0.91813 0.52461 0.0
C1094 C 0.51695 0.85589 0.42196 0.0
C1095 C 0.51412 0.83955 0.42912 0.0
C1096 C 0.51592 0.87238 0.43327 0.0
C1097 C 0.5122 0.87273 0.45191 0.0
C1098 C 0.50853 0.85631 0.45878 0.0
C1099 C 0.5095 0.83985 0.44748 0.0
C1100 C 0.51338 0.89027 0.46467 0.0
C1101 C 0.49862 0.89341 0.47441 0.0
C1102 C 0.5292 0.90366 0.46757 0.0
C1103 C 0.54565 0.90063 0.45872 0.0
C1104 C 0.55366 0.88576 0.46158 0.0
C1105 C 0.56915 0.88297 0.45319 0.0
C1106 C 0.57684 0.89505 0.44202 0.0
C1107 C 0.56908 0.90997 0.43925 0.0
C1108 C 0.55357 0.91281 0.4476 0.0
C1109 C 0.53379 0.96694 0.5227 0.0
C1110 C 0.52197 0.97832 0.51847 0.0
C1111 C 0.53082 0.9487 0.51404 0.0
C1112 C 0.51607 0.94158 0.5009 0.0
C1113 C 0.50369 0.95264 0.49746 0.0
C1114 C 0.50653 0.97086 0.50633 0.0
C1115 C 0.51485 0.9234 0.48927 0.0
C1116 C 0.52962 0.92015 0.47962 0.0
C1117 C 0.49921 0.90979 0.48685 0.0
C1118 C 0.48355 0.91209 0.49744 0.0
C1119 C 0.46647 0.90971 0.48801 0.0
C1120 C 0.45172 0.91194 0.49799 0.0
C1121 C 0.45387 0.91648 0.51741 0.0
C1122 C 0.47077 0.91873 0.52691 0.0
C1123 C 0.48555 0.9165 0.51701 0.0
H1124 H 0.44244 0.91821 0.52511 0.0
H1125 H 0.58884 0.89288 0.43554 0.0
H1126 H 0.51482 0.2654 0.62547 0.0
H1127 H 0.48604 0.25803 0.63817 0.0
H1128 H 0.51311 0.26477 0.69316 0.0
H1129 H 0.54186 0.27145 0.68046 0.0
H1130 H 0.48522 0.23784 0.68888 0.0
H1131 H 0.49615 0.30011 0.67604 0.0
H1132 H 0.50211 0.32295 0.65541 0.0
H1133 H 0.45361 0.29788 0.62121 0.0
H1134 H 0.44749 0.27475 0.64149 0.0
H1135 H 0.4249 0.26769 0.7506 0.0
H1136 H 0.44972 0.26474 0.73154 0.0
H1137 H 0.41363 0.25488 0.68167 0.0
H1138 H 0.3886 0.25759 0.70069 0.0
H1139 H 0.44334 0.27966 0.67957 0.0
H1140 H 0.43027 0.22004 0.6947 0.0
H1141 H 0.42405 0.19707 0.71507 0.0
H1142 H 0.47592 0.21666 0.74469 0.0
H1143 H 0.48236 0.23995 0.72467 0.0
C1144 C 0.51463 0.26499 0.64021 0.0
C1145 C 0.53056 0.26921 0.65202 0.0
C1146 C 0.49818 0.26086 0.64746 0.0
C1147 C 0.4974 0.26129 0.66669 0.0
C1148 C 0.51337 0.26444 0.6783 0.0
C1149 C 0.52981 0.26831 0.67102 0.0
C1150 C 0.48009 0.25981 0.67506 0.0
C1151 C 0.4761 0.24704 0.68693 0.0
C1152 C 0.46792 0.27146 0.67209 0.0
C1153 C 0.47147 0.28559 0.66015 0.0
C1154 C 0.48681 0.29943 0.66407 0.0
C1155 C 0.49021 0.31242 0.65244 0.0
C1156 C 0.47827 0.31182 0.63698 0.0
C1157 C 0.46286 0.29829 0.63317 0.0
C1158 C 0.45942 0.28525 0.64472 0.0
C1159 C 0.42217 0.26465 0.73558 0.0
C1160 C 0.40475 0.26281 0.72717 0.0
C1161 C 0.43639 0.26297 0.72471 0.0
C1162 C 0.43348 0.25934 0.7052 0.0
C1163 C 0.41614 0.25764 0.69672 0.0
C1164 C 0.40189 0.25929 0.7076 0.0
C1165 C 0.44872 0.25802 0.69376 0.0
C1166 C 0.45231 0.27027 0.68133 0.0
C1167 C 0.46051 0.2459 0.69622 0.0
C1168 C 0.45675 0.23184 0.70825 0.0
C1169 C 0.44031 0.21955 0.70564 0.0
C1170 C 0.43675 0.20645 0.71711 0.0
C1171 C 0.44957 0.20542 0.73119 0.0
C1172 C 0.466 0.21747 0.73379 0.0
C1173 C 0.46962 0.23061 0.72236 0.0
H1174 H 0.44679 0.19527 0.74006 0.0
H1175 H 0.48093 0.32183 0.62795 0.0
H1176 H 0.01324 0.79607 0.59235 0.0
H1177 H 0.02256 0.82136 0.57602 0.0
H1178 H 0.01288 0.85958 0.62321 0.0
H1179 H 1.00379 0.83418 0.63998 0.0
H1180 H 0.99795 0.86363 0.58599 0.0
H1181 H 0.05304 0.85867 0.61872 0.0
H1182 H 0.07572 0.84179 0.62871 0.0
H1183 H 0.0854 0.82541 0.57172 0.0
H1184 H 0.06252 0.84192 0.56135 0.0
H1185 H 0.0359 0.94188 0.55222 0.0
H1186 H 0.03034 0.91928 0.57263 0.0
H1187 H 0.04857 0.8797 0.53238 0.0
H1188 H 0.05447 0.90253 0.51194 0.0
H1189 H 0.0598 0.87723 0.5677 0.0
H1190 H 1.00438 0.87792 0.53409 0.0
H1191 H 0.98114 0.89281 0.52161 0.0
H1192 H 0.97139 0.91479 0.57724 0.0
H1193 H 0.99463 0.90004 0.59006 0.0
C1194 C 0.01311 0.80983 0.59934 0.0
C1195 C 1.00788 0.81316 0.6175 0.0
C1196 C 0.01847 0.82425 0.58997 0.0
C1197 C 0.01852 0.84227 0.59849 0.0
C1198 C 0.01297 0.84571 0.61648 0.0
C1199 C 1.00783 0.83124 0.62602 0.0
C1200 C 0.02434 0.85738 0.58837 0.0
C1201 C 0.01154 0.86689 0.58232 0.0
C1202 C 0.04193 0.86106 0.58303 0.0
C1203 C 0.05595 0.85142 0.58925 0.0
C1204 C 0.0599 0.85136 0.6083 0.0
C1205 C 0.07281 0.84187 0.61404 0.0
C1206 C 0.08197 0.8325 0.60086 0.0
C1207 C 0.07828 0.83266 0.58191 0.0
C1208 C 0.06536 0.8421 0.5761 0.0
C1209 C 0.03875 0.92836 0.54774 0.0
C1210 C 0.04532 0.92381 0.53039 0.0
C1211 C 0.03561 0.91549 0.55942 0.0
C1212 C 0.03872 0.89772 0.55386 0.0
C1213 C 0.04603 0.89334 0.53689 0.0
C1214 C 0.04935 0.90633 0.52523 0.0
C1215 C 0.03342 0.88356 0.56537 0.0
C1216 C 0.04626 0.87414 0.57158 0.0
C1217 C 0.01578 0.87968 0.57058 0.0
C1218 C 1.00132 0.888 0.56302 0.0
C1219 C 0.99728 0.88594 0.54366 0.0
C1220 C 0.98411 0.89433 0.53653 0.0
C1221 C 0.9748 0.90474 0.54862 0.0
C1222 C 0.97857 0.90667 0.56789 0.0
C1223 C 0.99172 0.89827 0.5751 0.0
H1224 H 0.9647 0.9113 0.54301 0.0
H1225 H 0.09195 0.82515 0.60532 0.0
H1226 H 0.55171 0.81065 0.86657 0.0
H1227 H 0.52477 0.80685 0.84544 0.0
H1228 H 0.49395 0.81658 0.89231 0.0
H1229 H 0.52095 0.82056 0.91373 0.0
H1230 H 0.48283 0.78158 0.85422 0.0
H1231 H 0.49109 0.8491 0.87961 0.0
H1232 H 0.51095 0.87924 0.88877 0.0
H1233 H 0.53328 0.8724 0.8361 0.0
H1234 H 0.51321 0.84237 0.82651 0.0
H1235 H 0.40118 0.79504 0.8128 0.0
H1236 H 0.42774 0.79391 0.8325 0.0
H1237 H 0.46099 0.82016 0.79511 0.0
H1238 H 0.43418 0.82216 0.77585 0.0
H1239 H 0.47189 0.83589 0.82817 0.0
H1240 H 0.45733 0.77282 0.79959 0.0
H1241 H 0.4382 0.74246 0.7894 0.0
H1242 H 0.42991 0.73827 0.84627 0.0
H1243 H 0.44879 0.76873 0.85681 0.0
C1244 C 0.53919 0.81178 0.87245 0.0
C1245 C 0.53845 0.81594 0.89184 0.0
C1246 C 0.52385 0.80962 0.86034 0.0
C1247 C 0.50751 0.81139 0.86741 0.0
C1248 C 0.50653 0.8151 0.88671 0.0
C1249 C 0.52194 0.81743 0.89887 0.0
C1250 C 0.4917 0.81027 0.85442 0.0
C1251 C 0.48018 0.79342 0.84863 0.0
C1252 C 0.48882 0.8256 0.84676 0.0
C1253 C 0.50078 0.84356 0.85242 0.0
C1254 C 0.50027 0.85405 0.87003 0.0
C1255 C 0.51153 0.8711 0.87528 0.0
C1256 C 0.52349 0.87766 0.8631 0.0
C1257 C 0.52405 0.86728 0.84555 0.0
C1258 C 0.51267 0.8503 0.84015 0.0
C1259 C 0.41419 0.80025 0.80862 0.0
C1260 C 0.41573 0.80854 0.79277 0.0
C1261 C 0.42938 0.79953 0.81985 0.0
C1262 C 0.44643 0.80665 0.81515 0.0
C1263 C 0.44798 0.81454 0.799 0.0
C1264 C 0.43273 0.81563 0.78798 0.0
C1265 C 0.46249 0.80709 0.82785 0.0
C1266 C 0.47428 0.82388 0.83359 0.0
C1267 C 0.46564 0.79155 0.83528 0.0
C1268 C 0.45438 0.77314 0.82898 0.0
C1269 C 0.45134 0.76548 0.80992 0.0
C1270 C 0.44055 0.74824 0.80408 0.0
C1271 C 0.43281 0.73845 0.81718 0.0
C1272 C 0.4359 0.74587 0.83614 0.0
C1273 C 0.44666 0.76311 0.84206 0.0
H1274 H 0.42446 0.72511 0.81263 0.0
H1275 H 0.53226 0.89082 0.86724 0.0
H1276 H 0.50307 0.21656 0.1436 0.0
H1277 H 0.50426 0.18383 0.13818 0.0
H1278 H 0.49039 0.18076 0.07946 0.0
H1279 H 0.48917 0.21321 0.08476 0.0
H1280 H 0.47555 0.1493 0.09147 0.0
H1281 H 0.53341 0.19079 0.09687 0.0
H1282 H 0.55719 0.21538 0.11391 0.0
H1283 H 0.56281 0.18374 0.15706 0.0
H1284 H 0.53884 0.15907 0.14037 0.0
H1285 H 0.52638 0.10105 0.03227 0.0
H1286 H 0.51625 0.12545 0.05267 0.0
H1287 H 0.52056 0.09696 0.09889 0.0
H1288 H 0.53035 0.07207 0.07836 0.0
H1289 H 0.53779 0.13977 0.10193 0.0
H1290 H 0.48386 0.09508 0.09186 0.0
H1291 H 0.46111 0.07069 0.07298 0.0
H1292 H 0.4487 0.10816 0.0379 0.0
H1293 H 0.47159 0.13273 0.05642 0.0
C1294 C 0.49973 0.20875 0.12965 0.0
C1295 C 0.49626 0.21746 0.11455 0.0
C1296 C 0.50049 0.19009 0.12656 0.0
C1297 C 0.49765 0.17994 0.10838 0.0
C1298 C 0.49265 0.18832 0.0936 0.0
C1299 C 0.49205 0.2069 0.09663 0.0
C1300 C 0.50208 0.16145 0.10404 0.0
C1301 C 0.48908 0.14712 0.094 0.0
C1302 C 0.51969 0.15849 0.10761 0.0
C1303 C 0.53419 0.17322 0.11752 0.0
C1304 C 0.53963 0.18915 0.11006 0.0
C1305 C 0.55314 0.20309 0.11964 0.0
C1306 C 0.56146 0.20115 0.13659 0.0
C1307 C 0.55632 0.18524 0.14396 0.0
C1308 C 0.54277 0.17128 0.13445 0.0
C1309 C 0.52527 0.09996 0.04678 0.0
C1310 C 0.5292 0.08466 0.05372 0.0
C1311 C 0.51942 0.11387 0.05839 0.0
C1312 C 0.51764 0.11291 0.0772 0.0
C1313 C 0.52185 0.09786 0.08436 0.0
C1314 C 0.5274 0.0837 0.07263 0.0
C1315 C 0.51135 0.12789 0.08904 0.0
C1316 C 0.52406 0.14164 0.10022 0.0
C1317 C 0.49351 0.13032 0.08652 0.0
C1318 C 0.47953 0.11571 0.07546 0.0
C1319 C 0.47638 0.09809 0.08003 0.0
C1320 C 0.46344 0.08424 0.06941 0.0
C1321 C 0.45349 0.08786 0.05422 0.0
C1322 C 0.45642 0.10537 0.04967 0.0
C1323 C 0.46936 0.11928 0.06025 0.0
H1324 H 0.44349 0.07712 0.04599 0.0
H1325 H 0.57192 0.21196 0.144 0.0
H1326 H 0.11399 0.28222 0.35065 0.0
H1327 H 0.13668 0.28097 0.32841 0.0
H1328 H 0.17363 0.32234 0.36651 0.0
H1329 H 0.15114 0.32356 0.38888 0.0
H1330 H 0.17031 0.32939 0.32936 0.0
H1331 H 0.18048 0.28131 0.36262 0.0
H1332 H 0.1718 0.25299 0.37531 0.0
H1333 H 0.15422 0.22321 0.32016 0.0
H1334 H 0.16259 0.25143 0.30717 0.0
H1335 H 0.25384 0.32152 0.29362 0.0
H1336 H 0.22742 0.32564 0.30985 0.0
H1337 H 0.197 0.27724 0.27452 0.0
H1338 H 0.22358 0.27269 0.2588 0.0
H1339 H 0.19523 0.2738 0.30879 0.0
H1340 H 0.18696 0.32119 0.27483 0.0
H1341 H 0.19529 0.34942 0.26192 0.0
H1342 H 0.20884 0.38043 0.31719 0.0
H1343 H 0.20074 0.35235 0.33045 0.0
C1344 C 0.12702 0.29087 0.35438 0.0
C1345 C 0.13083 0.30295 0.37149 0.0
C1346 C 0.13992 0.29018 0.34166 0.0
C1347 C 0.15673 0.30165 0.34585 0.0
C1348 C 0.16066 0.31349 0.36304 0.0
C1349 C 0.14786 0.31403 0.37584 0.0
C1350 C 0.1702 0.30141 0.33223 0.0
C1351 C 0.17593 0.31732 0.32491 0.0
C1352 C 0.17704 0.28548 0.32616 0.0
C1353 C 0.17197 0.26852 0.33395 0.0
C1354 C 0.17461 0.26876 0.35322 0.0
C1355 C 0.16978 0.25272 0.36046 0.0
C1356 C 0.16241 0.23632 0.34856 0.0
C1357 C 0.1599 0.23593 0.32937 0.0
C1358 C 0.16469 0.25193 0.32206 0.0
C1359 C 0.24136 0.31212 0.28894 0.0
C1360 C 0.24074 0.29667 0.27516 0.0
C1361 C 0.22624 0.3145 0.29819 0.0
C1362 C 0.21023 0.30168 0.29346 0.0
C1363 C 0.20925 0.28719 0.27851 0.0
C1364 C 0.22441 0.28463 0.26952 0.0
C1365 C 0.19546 0.30181 0.30569 0.0
C1366 C 0.18951 0.28586 0.31291 0.0
C1367 C 0.18838 0.3177 0.31155 0.0
C1368 C 0.19335 0.33462 0.30363 0.0
C1369 C 0.19185 0.334 0.28424 0.0
C1370 C 0.19649 0.34999 0.27686 0.0
C1371 C 0.20262 0.3667 0.28873 0.0
C1372 C 0.20409 0.36747 0.30801 0.0
C1373 C 0.19943 0.35153 0.31547 0.0
H1374 H 0.20618 0.37907 0.283 0.0
H1375 H 0.15869 0.22392 0.35419 0.0
H1376 H 0.92562 0.03114 0.1964 0.0
H1377 H 0.93936 0.02924 0.16665 0.0
H1378 H 0.98245 0.07273 0.19173 0.0
H1379 H 0.96865 0.07459 0.22132 0.0
H1380 H 0.97815 0.07742 0.15722 0.0
H1381 H 0.98383 0.0225 0.18092 0.0
H1382 H 0.97289 0.99369 0.19197 0.0
H1383 H 0.94117 0.97262 0.1399 0.0
H1384 H 0.95176 1.0014 0.12863 0.0
H1385 H 0.03863 0.06544 0.08578 0.0
H1386 H 0.02321 0.06766 0.11422 0.0
H1387 H 0.98477 0.0195 0.08996 0.0
H1388 H 1.0008 0.01681 0.06171 0.0
H1389 H 0.98561 0.01716 0.12356 0.0
H1390 H 0.9787 0.0707 0.0993 0.0
H1391 H 0.98804 0.09934 0.08735 0.0
H1392 H 0.01961 0.12301 0.139 0.0
H1393 H 0.01063 0.09442 0.15116 0.0
C1394 C 0.93769 0.04081 0.19554 0.0
C1395 C 0.94528 0.05364 0.21172 0.0
C1396 C 0.94596 0.03944 0.1783 0.0
C1397 C 0.96255 0.05062 0.17612 0.0
C1398 C 0.96982 0.06375 0.19217 0.0
C1399 C 0.96164 0.06499 0.2094 0.0
C1400 C 0.97243 0.04858 0.15771 0.0
C1401 C 0.97986 0.06414 0.15016 0.0
C1402 C 0.97475 0.03147 0.14731 0.0
C1403 C 0.96845 0.01416 0.15401 0.0
C1404 C 0.97444 0.01176 0.17188 0.0
C1405 C 0.96831 0.99544 0.17817 0.0
C1406 C 0.9563 0.98135 0.16666 0.0
C1407 C 0.95044 0.98355 0.14881 0.0
C1408 C 0.95651 0.99986 0.14246 0.0
C1409 C 0.02693 0.05517 0.08631 0.0
C1410 C 0.02137 0.04089 0.07074 0.0
C1411 C 0.01772 0.05661 0.10289 0.0
C1412 C 1.00197 0.04413 0.10501 0.0
C1413 C 0.99659 0.02965 0.08952 0.0
C1414 C 1.00594 0.02808 0.07298 0.0
C1415 C 0.99144 0.04604 0.12303 0.0
C1416 C 0.9839 0.03047 0.13055 0.0
C1417 C 0.98877 0.06313 0.13326 0.0
C1418 C 0.99414 0.08036 0.12606 0.0
C1419 C 0.98771 0.08199 0.10806 0.0
C1420 C 0.99294 0.09821 0.10126 0.0
C1421 C 1.00445 0.11297 0.1124 0.0
C1422 C 0.01072 0.11156 0.13038 0.0
C1423 C 1.00556 0.09535 0.13724 0.0
H1424 H 1.00849 0.12552 0.1071 0.0
H1425 H 0.95157 0.96873 0.17156 0.0
H1426 H 0.29854 0.61582 0.46295 0.0
H1427 H 0.29193 0.6302 0.43602 0.0
H1428 H 0.3084 0.6835 0.47039 0.0
H1429 H 0.31413 0.66933 0.49713 0.0
H1430 H 0.28015 0.68406 0.45102 0.0
H1431 H 0.33468 0.66253 0.43667 0.0
H1432 H 0.35362 0.63931 0.4304 0.0
H1433 H 0.31686 0.61074 0.38386 0.0
H1434 H 0.29759 0.6337 0.38999 0.0
H1435 H 0.30158 0.74505 0.3891 0.0
H1436 H 0.3048 0.72425 0.41097 0.0
H1437 H 0.27412 0.67929 0.37138 0.0
H1438 H 0.27089 0.70009 0.34926 0.0
H1439 H 0.30569 0.67112 0.39053 0.0
H1440 H 0.25316 0.69613 0.40416 0.0
H1441 H 0.23623 0.72107 0.4107 0.0
H1442 H 0.27187 0.74489 0.45962 0.0
H1443 H 0.28917 0.72022 0.45321 0.0
C1444 C 0.30069 0.63059 0.46467 0.0
C1445 C 0.30677 0.64143 0.48217 0.0
C1446 C 0.29701 0.63882 0.44926 0.0
C1447 C 0.29976 0.65802 0.45105 0.0
C1448 C 0.30599 0.66871 0.46856 0.0
C1449 C 0.30932 0.66055 0.48389 0.0
C1450 C 0.29604 0.66735 0.43508 0.0
C1451 C 0.28588 0.68124 0.43787 0.0
C1452 C 0.30303 0.66347 0.41763 0.0
C1453 C 0.3146 0.64969 0.41393 0.0
C1454 C 0.33058 0.65122 0.42519 0.0
C1455 C 0.34138 0.63812 0.42164 0.0
C1456 C 0.33642 0.62352 0.40678 0.0
C1457 C 0.32067 0.62203 0.39539 0.0
C1458 C 0.30981 0.63508 0.39889 0.0
C1459 C 0.29572 0.7307 0.3849 0.0
C1460 C 0.28593 0.72424 0.36744 0.0
C1461 C 0.2975 0.71884 0.39747 0.0
C1462 C 0.2896 0.70025 0.39285 0.0
C1463 C 0.2803 0.69359 0.37522 0.0
C1464 C 0.27836 0.70551 0.36267 0.0
C1465 C 0.29043 0.68811 0.40689 0.0
C1466 C 0.29988 0.67371 0.40366 0.0
C1467 C 0.28307 0.69168 0.4241 0.0
C1468 C 0.27253 0.70639 0.42813 0.0
C1469 C 0.25745 0.70675 0.41624 0.0
C1470 C 0.24778 0.72083 0.41994 0.0
C1471 C 0.25299 0.73457 0.43555 0.0
C1472 C 0.26785 0.73423 0.44753 0.0
C1473 C 0.27758 0.7202 0.44389 0.0
H1474 H 0.24549 0.74546 0.43838 0.0
H1475 H 0.3448 0.6134 0.40406 0.0
H1476 H 0.60662 0.02769 0.73238 0.0
H1477 H 0.59 0.02209 0.70173 0.0
H1478 H 0.63883 0.01972 0.67553 0.0
H1479 H 0.65561 0.02523 0.70613 0.0
H1480 H 0.62038 0.04652 0.66619 0.0
H1481 H 0.60834 0.98259 0.66942 0.0
H1482 H 0.59804 0.95552 0.68357 0.0
H1483 H 0.54532 0.968 0.68384 0.0
H1484 H 0.55538 0.99531 0.66993 0.0
H1485 H 0.58582 0.03062 0.57333 0.0
H1486 H 0.60006 0.02712 0.60285 0.0
H1487 H 0.5495 0.0236 0.62666 0.0
H1488 H 0.5349 0.02671 0.59677 0.0
H1489 H 0.56826 0.99911 0.63743 0.0
H1490 H 0.57956 0.06306 0.63587 0.0
H1491 H 0.58908 0.09098 0.62278 0.0
H1492 H 0.64222 0.07982 0.62108 0.0
H1493 H 0.63296 0.05167 0.6339 0.0
C1494 C 0.61378 0.02556 0.7201 0.0
C1495 C 0.63246 0.02715 0.72166 0.0
C1496 C 0.60424 0.02226 0.70261 0.0
C1497 C 0.61323 0.02057 0.68644 0.0
C1498 C 0.6317 0.021 0.68791 0.0
C1499 C 0.64124 0.0241 0.7054 0.0
C1500 C 0.60379 0.02086 0.6683 0.0
C1501 C 0.6092 0.03598 0.65969 0.0
C1502 C 0.58874 1.0075 0.66038 0.0
C1503 C 0.58267 0.99111 0.66879 0.0
C1504 C 0.5946 0.97967 0.67266 0.0
C1505 C 0.58879 0.96426 0.6806 0.0
C1506 C 0.57105 0.96007 0.68464 0.0
C1507 C 0.55907 0.97127 0.68072 0.0
C1508 C 0.56481 0.98671 0.67279 0.0
C1509 C 0.57767 0.02914 0.58481 0.0
C1510 C 0.55926 0.0292 0.5828 0.0
C1511 C 0.58585 0.02713 0.60169 0.0
C1512 C 0.57589 0.02544 0.61701 0.0
C1513 C 0.55741 0.02497 0.61497 0.0
C1514 C 0.54912 0.02681 0.59795 0.0
C1515 C 0.58504 0.02465 0.6352 0.0
C1516 C 0.57951 0.00958 0.64388 0.0
C1517 C 0.59988 0.0382 0.6434 0.0
C1518 C 0.60551 0.05515 0.63569 0.0
C1519 C 0.59324 0.06647 0.63256 0.0
C1520 C 0.5986 0.08236 0.62521 0.0
C1521 C 0.61623 0.08715 0.62106 0.0
C1522 C 0.62856 0.07608 0.62428 0.0
C1523 C 0.62327 0.06016 0.6316 0.0
H1524 H 0.62035 0.09945 0.61538 0.0
H1525 H 0.56658 0.94812 0.69078 0.0
H1526 H 0.3139 0.39088 0.96944 0.0
H1527 H 0.31198 0.37557 0.937 0.0
H1528 H 0.29893 0.32315 0.95432 0.0
H1529 H 0.30168 0.3384 0.98683 0.0
H1530 H 0.31904 0.31953 0.92817 0.0
H1531 H 0.26647 0.34517 0.9347 0.0
H1532 H 0.24885 0.36927 0.9429 0.0
H1533 H 0.27391 0.39927 0.90326 0.0
H1534 H 0.29186 0.37545 0.895 0.0
H1535 H 0.26799 0.29685 0.82732 0.0
H1536 H 0.26946 0.30857 0.86074 0.0
H1537 H 0.32695 0.31628 0.86418 0.0
H1538 H 0.32558 0.3041 0.83103 0.0
H1539 H 0.28227 0.34016 0.88036 0.0
H1540 H 0.34432 0.31289 0.90651 0.0
H1541 H 0.35833 0.28584 0.899 0.0
H1542 H 0.30784 0.25374 0.87444 0.0
H1543 H 0.29349 0.28051 0.88202 0.0
C1544 C 0.31077 0.37608 0.96633 0.0
C1545 C 0.30785 0.36585 0.98068 0.0
C1546 C 0.30953 0.36732 0.94774 0.0
C1547 C 0.30488 0.34815 0.94304 0.0
C1548 C 0.30247 0.33792 0.95747 0.0
C1549 C 0.30403 0.34667 0.97609 0.0
C1550 C 0.30233 0.33879 0.92314 0.0
C1551 C 0.31099 0.32407 0.91775 0.0
C1552 C 0.29144 0.34428 0.90949 0.0
C1553 C 0.28062 0.3586 0.91436 0.0
C1554 C 0.26831 0.35696 0.92782 0.0
C1555 C 0.25825 0.37057 0.93247 0.0
C1556 C 0.26029 0.38581 0.92364 0.0
C1557 C 0.27236 0.38746 0.91011 0.0
C1558 C 0.28247 0.3739 0.90542 0.0
C1559 C 0.28095 0.30083 0.83523 0.0
C1560 C 0.29666 0.29941 0.82644 0.0
C1561 C 0.28177 0.30762 0.85435 0.0
C1562 C 0.29831 0.31319 0.86513 0.0
C1563 C 0.31399 0.31174 0.85635 0.0
C1564 C 0.31318 0.3048 0.8373 0.0
C1565 C 0.29924 0.32113 0.88535 0.0
C1566 C 0.29029 0.3356 0.8908 0.0
C1567 C 0.30937 0.315 0.89914 0.0
C1568 C 0.31787 0.29877 0.89468 0.0
C1569 C 0.33619 0.30004 0.89957 0.0
C1570 C 0.3442 0.28476 0.89529 0.0
C1571 C 0.33399 0.2681 0.8862 0.0
C1572 C 0.31575 0.26667 0.88142 0.0
C1573 C 0.30768 0.2819 0.88568 0.0
H1574 H 0.34022 0.25629 0.88289 0.0
H1575 H 0.2525 0.39633 0.92726 0.0
H1576 H 0.9628 0.04389 0.30308 0.0
H1577 H 0.97814 0.04042 0.33255 0.0
H1578 H 0.93811 0.06267 0.36285 0.0
H1579 H 0.92254 0.06578 0.33332 0.0
H1580 H 0.97102 0.07685 0.38239 0.0
H1581 H 0.94092 0.01577 0.35646 0.0
H1582 H 0.93302 0.98807 0.3323 0.0
H1583 H 0.98807 0.98267 0.33321 0.0
H1584 H 0.99635 0.01051 0.35718 0.0
H1585 H 0.99824 0.05644 0.47181 0.0
H1586 H 0.9828 0.0594 0.44244 0.0
H1587 H 0.01542 0.02607 0.41207 0.0
H1588 H 0.03042 0.02248 0.44165 0.0
H1589 H 0.98651 0.01778 0.39208 0.0
H1590 H 0.01772 0.07812 0.41624 0.0
H1591 H 0.02745 0.10652 0.4392 0.0
H1592 H 0.97322 0.11452 0.44025 0.0
H1593 H 0.96313 0.08603 0.41748 0.0
C1594 C 0.95709 0.04802 0.31593 0.0
C1595 C 0.94108 0.05511 0.31523 0.0
C1596 C 0.966 0.04596 0.33309 0.0
C1597 C 0.95961 0.05111 0.35067 0.0
C1598 C 0.94375 0.05846 0.34997 0.0
C1599 C 0.93465 0.06019 0.33278 0.0
C1600 C 0.96927 0.04884 0.36946 0.0
C1601 C 0.97411 0.06379 0.38443 0.0
C1602 C 0.97422 0.03213 0.37276 0.0
C1603 C 0.96928 0.01533 0.35848 0.0
C1604 C 0.95136 1.00875 0.35141 0.0
C1605 C 0.94681 0.99302 0.33776 0.0
C1606 C 0.96004 0.98364 0.33119 0.0
C1607 C 0.97784 0.98996 0.33829 0.0
C1608 C 0.98247 1.00571 0.35191 0.0
C1609 C 1.00231 0.0497 0.45896 0.0
C1610 C 0.01599 0.03924 0.45976 0.0
C1611 C 0.9934 0.05159 0.44177 0.0
C1612 C 0.99779 0.04344 0.42411 0.0
C1613 C 0.01135 0.03277 0.42493 0.0
C1614 C 0.02015 0.03074 0.44217 0.0
C1615 C 0.98831 0.04582 0.40518 0.0
C1616 C 0.98347 0.03089 0.39013 0.0
C1617 C 0.98367 0.06266 0.40168 0.0
C1618 C 0.98965 0.07983 0.41531 0.0
C1619 C 1.00785 0.08587 0.42146 0.0
C1620 C 0.01344 0.102 0.43443 0.0
C1621 C 1.00095 0.11229 0.44122 0.0
C1622 C 0.98287 0.10651 0.43501 0.0
C1623 C 0.97721 0.09038 0.42206 0.0
H1624 H 1.0053 0.12476 0.45126 0.0
H1625 H 0.95649 0.97147 0.32063 0.0
H1626 H 0.34232 0.6782 0.58011 0.0
H1627 H 0.34052 0.69674 0.61048 0.0
H1628 H 0.29212 0.66018 0.61728 0.0
H1629 H 0.29446 0.64128 0.58731 0.0
H1630 H 0.31671 0.71602 0.61847 0.0
H1631 H 0.28236 0.66517 0.66227 0.0
H1632 H 0.28167 0.63342 0.66702 0.0
H1633 H 0.33486 0.63589 0.65036 0.0
H1634 H 0.33592 0.66768 0.64565 0.0
H1635 H 0.2778 0.76116 0.69774 0.0
H1636 H 0.28081 0.73897 0.66993 0.0
H1637 H 0.33 0.73008 0.69579 0.0
H1638 H 0.32742 0.75249 0.72318 0.0
H1639 H 0.30382 0.69668 0.67875 0.0
H1640 H 0.33488 0.75464 0.66555 0.0
H1641 H 0.33677 0.78671 0.66146 0.0
H1642 H 0.29361 0.77031 0.61815 0.0
H1643 H 0.29132 0.73816 0.62219 0.0
C1644 C 0.33189 0.67358 0.58861 0.0
C1645 C 0.3189 0.65792 0.58163 0.0
C1646 C 0.33063 0.6844 0.60583 0.0
C1647 C 0.31614 0.68002 0.61635 0.0
C1648 C 0.30365 0.6638 0.60979 0.0
C1649 C 0.30509 0.65282 0.59269 0.0
C1650 C 0.31336 0.69322 0.63319 0.0
C1651 C 0.31403 0.71169 0.63164 0.0
C1652 C 0.30954 0.68778 0.65045 0.0
C1653 C 0.30911 0.66872 0.65339 0.0
C1654 C 0.29391 0.65894 0.65965 0.0
C1655 C 0.29344 0.64092 0.6623 0.0
C1656 C 0.30817 0.63261 0.6589 0.0
C1657 C 0.32342 0.6423 0.65288 0.0
C1658 C 0.32394 0.6603 0.65016 0.0
C1659 C 0.28933 0.75459 0.6974 0.0
C1660 C 0.30248 0.75882 0.71261 0.0
C1661 C 0.291 0.74186 0.68154 0.0
C1662 C 0.30561 0.73279 0.68079 0.0
C1663 C 0.3186 0.73684 0.69604 0.0
C1664 C 0.31717 0.74983 0.71164 0.0
C1665 C 0.30772 0.71934 0.66403 0.0
C1666 C 0.30664 0.70087 0.66554 0.0
C1667 C 0.31138 0.72476 0.6468 0.0
C1668 C 0.3128 0.74405 0.64432 0.0
C1669 C 0.32569 0.75791 0.65528 0.0
C1670 C 0.32685 0.77609 0.65294 0.0
C1671 C 0.31528 0.78056 0.63959 0.0
C1672 C 0.30255 0.76684 0.62851 0.0
C1673 C 0.30132 0.74863 0.63081 0.0
H1674 H 0.31621 0.79464 0.6378 0.0
H1675 H 0.3078 0.61868 0.661 0.0
H1676 H 0.70103 0.05006 0.82454 0.0
H1677 H 0.69759 0.06229 0.85719 0.0
H1678 H 0.65032 0.08127 0.83947 0.0
H1679 H 0.65343 0.06887 0.80722 0.0
H1680 H 0.67278 0.10598 0.86934 0.0
H1681 H 0.64517 0.04033 0.8497 0.0
H1682 H 0.6474 1.00821 0.83857 0.0
H1683 H 0.6858 0.01043 0.88473 0.0
H1684 H 0.68392 0.04266 0.89599 0.0
H1685 H 0.59483 0.09599 0.91157 0.0
H1686 H 0.6213 0.09787 0.89454 0.0
H1687 H 0.64836 0.07543 0.93643 0.0
H1688 H 0.62176 0.07354 0.95365 0.0
H1689 H 0.64904 0.05628 0.90317 0.0
H1690 H 0.66523 0.11819 0.92866 0.0
H1691 H 0.66218 0.14998 0.93992 0.0
H1692 H 0.646 0.15578 0.8842 0.0
H1693 H 0.64873 0.12395 0.87263 0.0
C1694 C 0.69012 0.05715 0.82767 0.0
C1695 C 0.67736 0.05835 0.81345 0.0
C1696 C 0.68822 0.06416 0.84625 0.0
C1697 C 0.67373 0.0727 0.85065 0.0
C1698 C 0.66167 0.07486 0.83631 0.0
C1699 C 0.66336 0.0676 0.8179 0.0
C1700 C 0.6693 0.0772 0.87003 0.0
C1701 C 0.66778 0.09525 0.87699 0.0
C1702 C 0.66351 0.06324 0.88026 0.0
C1703 C 0.66459 0.04391 0.87352 0.0
C1704 C 0.65418 0.03399 0.85738 0.0
C1705 C 0.65537 0.01577 0.85106 0.0
C1706 C 0.66679 1.0073 0.8609 0.0
C1707 C 0.677 0.01702 0.8771 0.0
C1708 C 0.67589 0.03526 0.88345 0.0
C1709 C 0.60657 0.09194 0.91745 0.0
C1710 C 0.60615 0.08444 0.93382 0.0
C1711 C 0.62176 0.09311 0.90775 0.0
C1712 C 0.63689 0.08695 0.9143 0.0
C1713 C 0.63685 0.08029 0.93115 0.0
C1714 C 0.62161 0.0791 0.94087 0.0
C1715 C 0.65139 0.08498 0.90199 0.0
C1716 C 0.6548 0.06734 0.89628 0.0
C1717 C 0.65896 0.09938 0.893 0.0
C1718 C 0.65725 0.11862 0.89977 0.0
C1719 C 0.66097 0.12621 0.91881 0.0
C1720 C 0.65929 0.14426 0.92525 0.0
C1721 C 0.65391 0.15491 0.91278 0.0
C1722 C 0.65021 0.14753 0.89384 0.0
C1723 C 0.65187 0.12948 0.88732 0.0
H1724 H 0.65261 0.16887 0.91779 0.0
H1725 H 0.66768 0.9932 0.856 0.0
H1726 H 0.33497 0.35379 0.08335 0.0
H1727 H 0.32934 0.34332 0.11269 0.0
H1728 H 0.27667 0.35657 0.10898 0.0
H1729 H 0.28277 0.36811 0.07991 0.0
H1730 H 0.28874 0.36313 0.14383 0.0
H1731 H 0.28488 0.31127 0.0958 0.0
H1732 H 0.29453 0.29177 0.06932 0.0
H1733 H 0.34034 0.2864 0.10361 0.0
H1734 H 0.33109 0.30608 0.13022 0.0
H1735 H 0.26074 0.2974 0.20587 0.0
H1736 H 0.26295 0.31051 0.17711 0.0
H1737 H 0.32027 0.32306 0.18773 0.0
H1738 H 0.31817 0.31068 0.21665 0.0
H1739 H 0.30248 0.30207 0.14873 0.0
H1740 H 0.30597 0.35589 0.19624 0.0
H1741 H 0.29461 0.37379 0.2225 0.0
H1742 H 0.24696 0.37383 0.18813 0.0
H1743 H 0.25785 0.35535 0.16179 0.0
C1744 C 0.32227 0.35471 0.08892 0.0
C1745 C 0.30926 0.36164 0.07926 0.0
C1746 C 0.31898 0.34855 0.10564 0.0
C1747 C 0.30232 0.34849 0.11284 0.0
C1748 C 0.28957 0.35626 0.10369 0.0
C1749 C 0.29306 0.36289 0.08709 0.0
C1750 C 0.29822 0.33983 0.12953 0.0
C1751 C 0.29149 0.34966 0.1447 0.0
C1752 C 0.3018 0.32221 0.13091 0.0
C1753 C 0.30735 0.31026 0.11497 0.0
C1754 C 0.29706 0.30602 0.09766 0.0
C1755 C 0.30246 0.29492 0.08263 0.0
C1756 C 0.31805 0.28788 0.08477 0.0
C1757 C 0.32826 0.29188 0.10196 0.0
C1758 C 0.32294 0.30298 0.11703 0.0
C1759 C 0.27379 0.30299 0.20205 0.0
C1760 C 0.28927 0.30306 0.21355 0.0
C1761 C 0.27503 0.31049 0.18567 0.0
C1762 C 0.29178 0.31778 0.18033 0.0
C1763 C 0.30722 0.31754 0.19162 0.0
C1764 C 0.30598 0.31052 0.20817 0.0
C1765 C 0.29339 0.32553 0.16291 0.0
C1766 C 0.2996 0.31547 0.14765 0.0
C1767 C 0.2891 0.34274 0.16137 0.0
C1768 C 0.28259 0.35398 0.17714 0.0
C1769 C 0.29295 0.35948 0.19436 0.0
C1770 C 0.28659 0.36978 0.20928 0.0
C1771 C 0.26999 0.37493 0.20709 0.0
C1772 C 0.25975 0.36978 0.18991 0.0
C1773 C 0.266 0.35936 0.17497 0.0
H1774 H 0.26511 0.38295 0.21866 0.0
H1775 H 0.32221 0.2793 0.07312 0.0
H1776 H 0.2128 0.94296 0.98929 0.0
H1777 H 0.18475 0.95351 0.9941 0.0
H1778 H 0.21388 1.00719 0.01853 0.0
H1779 H 0.24225 0.99655 0.01378 0.0
H1780 H 0.18657 0.99834 0.03855 0.0
H1781 H 0.19092 0.99764 0.97373 0.0
H1782 H 0.19447 0.98561 0.941 0.0
H1783 H 0.14815 0.94368 0.93923 0.0
H1784 H 0.14445 0.95532 0.97205 0.0
H1785 H 0.11065 0.04192 0.03684 0.0
H1786 H 0.139 0.0317 0.0334 0.0
H1787 H 0.11103 0.97868 1.00542 0.0
H1788 H 0.08249 0.98912 0.00828 0.0
H1789 H 0.13798 0.98724 0.98758 0.0
H1790 H 0.1338 0.98872 0.05281 0.0
H1791 H 0.12989 1.00205 0.08508 0.0
H1792 H 0.17593 0.04402 0.0856 0.0
H1793 H 0.17999 0.03107 0.05324 0.0
C1794 C 0.21337 0.95707 0.99562 0.0
C1795 C 0.23003 0.96885 1.00104 0.0
C1796 C 0.19715 0.96316 0.9983 0.0
C1797 C 0.19685 0.98132 1.00651 0.0
C1798 C 0.21349 0.99313 0.01211 0.0
C1799 C 0.22981 0.98704 0.00932 0.0
C1800 C 0.17924 0.98769 0.00943 0.0
C1801 C 0.17611 0.99618 0.02726 0.0
C1802 C 0.1651 0.98457 0.99501 0.0
C1803 C 0.16757 0.97719 0.97544 0.0
C1804 C 0.18163 0.98571 0.96645 0.0
C1805 C 0.18363 0.979 0.94785 0.0
C1806 C 0.17158 0.96385 0.93807 0.0
C1807 C 0.1575 0.95539 0.94685 0.0
C1808 C 0.15544 0.96204 0.96544 0.0
C1809 C 0.11038 0.02795 0.0302 0.0
C1810 C 0.09397 0.01637 0.02304 0.0
C1811 C 0.1268 0.02204 0.02828 0.0
C1812 C 0.12754 1.00419 0.01938 0.0
C1813 C 0.11114 0.9925 0.01241 0.0
C1814 C 0.09467 0.99847 0.0142 0.0
C1815 C 0.14531 0.99804 0.01665 0.0
C1816 C 0.14845 0.98949 0.99886 0.0
C1817 C 0.15947 1.00123 0.03107 0.0
C1818 C 0.15709 1.00902 0.05054 0.0
C1819 C 0.14302 1.00086 0.05976 0.0
C1820 C 0.14078 1.00834 0.07807 0.0
C1821 C 0.15262 0.0239 0.08737 0.0
C1822 C 0.16675 0.03199 0.07838 0.0
C1823 C 0.16904 0.02457 0.06006 0.0
H1824 H 0.15087 0.02967 0.10154 0.0
H1825 H 0.17314 0.95869 0.92366 0.0
H1826 H 0.73845 0.64413 1.00434 0.0
H1827 H 0.71017 0.62322 1.0045 0.0
H1828 H 0.68401 0.65343 0.9694 0.0
H1829 H 0.71208 0.67488 0.96997 0.0
H1830 H 0.66362 0.64662 0.99377 0.0
H1831 H 0.69419 0.60848 0.95394 0.0
H1832 H 0.71886 0.59299 0.94427 0.0
H1833 H 0.71367 0.56406 0.99026 0.0
H1834 H 0.68912 0.57955 1.00035 0.0
H1835 H 0.5976 0.55075 0.97424 0.0
H1836 H 0.62513 0.57044 0.9684 0.0
H1837 H 0.62447 0.60557 0.02108 0.0
H1838 H 0.59687 0.58649 0.02663 0.0
H1839 H 0.65726 0.57915 0.98398 0.0
H1840 H 0.64328 0.64864 0.02146 0.0
H1841 H 0.61811 0.66482 0.02644 0.0
H1842 H 0.58857 0.63125 0.97739 0.0
H1843 H 0.61358 0.6149 0.97206 0.0
C1844 C 0.72671 0.64624 0.99651 0.0
C1845 C 0.72759 0.66123 0.98714 0.0
C1846 C 0.71049 0.63416 0.99652 0.0
C1847 C 0.69481 0.63645 0.98675 0.0
C1848 C 0.69579 0.65127 0.97711 0.0
C1849 C 0.71191 0.66354 0.9774 0.0
C1850 C 0.67726 0.62403 0.98727 0.0
C1851 C 0.66229 0.63187 0.99156 0.0
C1852 C 0.67519 0.60468 0.98403 0.0
C1853 C 0.68991 0.59529 0.97798 0.0
C1854 C 0.69839 0.5989 0.96206 0.0
C1855 C 0.71234 0.59011 0.9565 0.0
C1856 C 0.71786 0.57758 0.96667 0.0
C1857 C 0.7094 0.57378 0.98241 0.0
C1858 C 0.69545 0.58254 0.98804 0.0
C1859 C 0.60328 0.56273 0.98451 0.0
C1860 C 0.59489 0.56702 1.00086 0.0
C1861 C 0.61907 0.57399 0.98119 0.0
C1862 C 0.62686 0.58977 0.99413 0.0
C1863 C 0.61861 0.59383 0.01058 0.0
C1864 C 0.6028 0.58275 0.0138 0.0
C1865 C 0.64376 0.60181 0.99079 0.0
C1866 C 0.6586 0.5939 0.98606 0.0
C1867 C 0.6456 0.6211 0.99308 0.0
C1868 C 0.63026 0.63046 0.99645 0.0
C1869 C 0.6314 0.6447 0.01175 0.0
C1870 C 0.61716 0.65388 0.01464 0.0
C1871 C 0.60175 0.64903 1.00227 0.0
C1872 C 0.60049 0.63492 0.98701 0.0
C1873 C 0.61467 0.62565 0.98408 0.0
H1874 H 0.59085 0.65629 1.00448 0.0
H1875 H 0.72866 0.57079 0.96234 0.0
H1876 H 0.7215 0.48208 0.26534 0.0
H1877 H 0.73598 0.45546 0.26443 0.0
H1878 H 0.68531 0.42149 0.26811 0.0
H1879 H 0.67096 0.44843 0.26975 0.0
H1880 H 0.7057 0.40526 0.28421 0.0
H1881 H 0.71579 0.4233 0.2252 0.0
H1882 H 0.72608 0.44396 0.20347 0.0
H1883 H 0.77957 0.45309 0.22953 0.0
H1884 H 0.76955 0.43263 0.25155 0.0
H1885 H 0.73896 0.31972 0.26085 0.0
H1886 H 0.72428 0.34628 0.26163 0.0
H1887 H 0.77538 0.38134 0.26321 0.0
H1888 H 0.79004 0.3547 0.26223 0.0
H1889 H 0.7547 0.39669 0.24431 0.0
H1890 H 0.74428 0.37769 0.30285 0.0
H1891 H 0.73385 0.35574 0.32327 0.0
H1892 H 0.68052 0.34753 0.29699 0.0
H1893 H 0.6907 0.36924 0.27621 0.0
C1894 C 0.7132 0.469 0.26584 0.0
C1895 C 0.69459 0.46821 0.26747 0.0
C1896 C 0.72168 0.45325 0.26511 0.0
C1897 C 0.71225 0.43523 0.26564 0.0
C1898 C 0.69363 0.43453 0.2675 0.0
C1899 C 0.68517 0.45033 0.26837 0.0
C1900 C 0.72152 0.41762 0.26456 0.0
C1901 C 0.71623 0.40358 0.27516 0.0
C1902 C 0.73583 0.41429 0.25327 0.0
C1903 C 0.74188 0.4266 0.24014 0.0
C1904 C 0.72972 0.42981 0.22636 0.0
C1905 C 0.73551 0.44146 0.21399 0.0
C1906 C 0.75345 0.44987 0.21516 0.0
C1907 C 0.76567 0.4466 0.22867 0.0
C1908 C 0.75995 0.43497 0.24109 0.0
C1909 C 0.74729 0.33299 0.26132 0.0
C1910 C 0.76614 0.33422 0.26139 0.0
C1911 C 0.73869 0.34866 0.26198 0.0
C1912 C 0.7482 0.36692 0.26286 0.0
C1913 C 0.76703 0.36806 0.26261 0.0
C1914 C 0.77564 0.35241 0.26205 0.0
C1915 C 0.73886 0.38442 0.26392 0.0
C1916 C 0.74416 0.39842 0.25334 0.0
C1917 C 0.72452 0.38765 0.27513 0.0
C1918 C 0.71828 0.37495 0.28786 0.0
C1919 C 0.73034 0.37115 0.30138 0.0
C1920 C 0.72447 0.35875 0.31303 0.0
C1921 C 0.70653 0.35022 0.3114 0.0
C1922 C 0.69441 0.35414 0.29821 0.0
C1923 C 0.70022 0.36649 0.28651 0.0
H1924 H 0.70201 0.34056 0.32035 0.0
H1925 H 0.75791 0.45889 0.20557 0.0
H1926 H 0.8466 0.44441 0.51288 0.0
H1927 H 0.87726 0.46062 0.51595 0.0
H1928 H 0.86022 0.50507 0.49386 0.0
H1929 H 0.82888 0.48845 0.49047 0.0
H1930 H 0.89001 0.49599 0.47786 0.0
H1931 H 0.87522 0.5094 0.5406 0.0
H1932 H 0.86355 0.50286 0.57003 0.0
H1933 H 0.90191 0.4684 0.57615 0.0
H1934 H 0.91362 0.47449 0.54661 0.0
H1935 H 0.98067 0.54556 0.49613 0.0
H1936 H 0.94819 0.53606 0.49476 0.0
H1937 H 0.95507 0.4911 0.52244 0.0
H1938 H 0.98745 0.50086 0.52436 0.0
H1939 H 0.92934 0.50424 0.53634 0.0
H1940 H 0.94174 0.48725 0.47284 0.0
H1941 H 0.95351 0.4922 0.44299 0.0
H1942 H 0.91998 0.53159 0.43798 0.0
H1943 H 0.90817 0.52704 0.46793 0.0
C1944 C 0.84918 0.45774 0.50879 0.0
C1945 C 0.83502 0.46502 0.50141 0.0
C1946 C 0.8669 0.46711 0.51068 0.0
C1947 C 0.87137 0.48428 0.50536 0.0
C1948 C 0.85729 0.49187 0.49818 0.0
C1949 C 0.83929 0.48244 0.49639 0.0
C1950 C 0.8908 0.4936 0.50683 0.0
C1951 C 0.8985 0.49816 0.49078 0.0
C1952 C 0.90227 0.49602 0.52349 0.0
C1953 C 0.89522 0.49231 0.54128 0.0
C1954 C 0.88108 0.50031 0.54813 0.0
C1955 C 0.87447 0.4967 0.56486 0.0
C1956 C 0.88196 0.4852 0.57494 0.0
C1957 C 0.89611 0.4773 0.56833 0.0
C1958 C 0.90275 0.48084 0.5516 0.0
C1959 C 0.97531 0.5336 0.50189 0.0
C1960 C 0.98694 0.524 0.51028 0.0
C1961 C 0.95659 0.52807 0.501 0.0
C1962 C 0.9488 0.51258 0.50823 0.0
C1963 C 0.96044 0.50307 0.51671 0.0
C1964 C 0.97912 0.50867 0.51773 0.0
C1965 C 0.92868 0.50633 0.50728 0.0
C1966 C 0.92085 0.50229 0.52345 0.0
C1967 C 0.91715 0.50419 0.4907 0.0
C1968 C 0.92424 0.50696 0.47272 0.0
C1969 C 0.93698 0.49707 0.46544 0.0
C1970 C 0.94364 0.49979 0.44849 0.0
C1971 C 0.93754 0.51225 0.43862 0.0
C1972 C 0.92472 0.52198 0.44565 0.0
C1973 C 0.91803 0.51933 0.46261 0.0
H1974 H 0.9427 0.51433 0.4255 0.0
H1975 H 0.87683 0.48242 0.58788 0.0
H1976 H 0.40363 0.09385 0.28603 0.0
H1977 H 0.38496 0.11379 0.27482 0.0
H1978 H 0.34172 0.06768 0.25819 0.0
H1979 H 0.36031 0.04759 0.26935 0.0
H1980 H 0.34674 0.09069 0.23154 0.0
H1981 H 0.34019 0.09498 0.29704 0.0
H1982 H 0.35057 0.09996 0.33042 0.0
H1983 H 0.37648 0.15469 0.32783 0.0
H1984 H 0.3665 0.14993 0.29434 0.0
H1985 H 0.27807 0.14471 0.22489 0.0
H1986 H 0.29641 0.12201 0.23037 0.0
H1987 H 0.34047 0.16564 0.25351 0.0
H1988 H 0.32215 0.18814 0.24841 0.0
H1989 H 0.33373 0.14234 0.27658 0.0
H1990 H 0.34112 0.13839 0.21128 0.0
H1991 H 0.33115 0.13382 0.17783 0.0
H1992 H 0.30414 0.07931 0.17977 0.0
H1993 H 0.31376 0.08365 0.21332 0.0
C1994 C 0.39017 0.08794 0.27994 0.0
C1995 C 0.38336 0.0692 0.27868 0.0
C1996 C 0.37954 0.09934 0.27356 0.0
C1997 C 0.36196 0.09218 0.26583 0.0
C1998 C 0.35527 0.07341 0.26412 0.0
C1999 C 0.36586 0.06201 0.2706 0.0
C2000 C 0.35041 0.10445 0.26013 0.0
C2001 C 0.34367 0.10187 0.24139 0.0
C2002 C 0.34672 0.11914 0.27298 0.0
C2003 C 0.35275 0.12203 0.29313 0.0
C2004 C 0.34825 0.10802 0.30354 0.0
C2005 C 0.35403 0.11081 0.32249 0.0
C2006 C 0.36422 0.12761 0.33123 0.0
C2007 C 0.36861 0.14167 0.32104 0.0
C2008 C 0.36289 0.13893 0.30207 0.0
C2009 C 0.29177 0.14933 0.23084 0.0
C2010 C 0.29871 0.16804 0.23646 0.0
C2011 C 0.30222 0.13643 0.23393 0.0
C2012 C 0.31977 0.14218 0.2424 0.0
C2013 C 0.32692 0.16092 0.24711 0.0
C2014 C 0.31648 0.17373 0.24419 0.0
C2015 C 0.33031 0.1289 0.24786 0.0
C2016 C 0.33677 0.1312 0.26666 0.0
C2017 C 0.33379 0.11406 0.23502 0.0
C2018 C 0.32799 0.11142 0.21486 0.0
C2019 C 0.33292 0.12549 0.20462 0.0
C2020 C 0.32736 0.12292 0.18563 0.0
C2021 C 0.31698 0.1063 0.17669 0.0
C2022 C 0.31217 0.09219 0.18672 0.0
C2023 C 0.31768 0.09469 0.20572 0.0
H2024 H 0.31269 0.10435 0.16199 0.0
H2025 H 0.36868 0.12975 0.3459 0.0
H2026 H 0.30335 0.1366 0.51337 0.0
H2027 H 0.3287 0.12241 0.52068 0.0
H2028 H 0.36498 0.16929 0.50964 0.0
H2029 H 0.33959 0.18351 0.50205 0.0
H2030 H 0.37501 0.13837 0.49433 0.0
H2031 H 0.35959 0.16263 0.55419 0.0
H2032 H 0.33968 0.16829 0.57896 0.0
H2033 H 0.32734 0.11081 0.58037 0.0
H2034 H 0.34696 0.10476 0.55538 0.0
H2035 H 0.45198 0.11051 0.53324 0.0
H2036 H 0.42864 0.12786 0.52727 0.0
H2037 H 0.38851 0.08316 0.53652 0.0
H2038 H 0.41171 0.06574 0.54244 0.0
H2039 H 0.38173 0.11511 0.55364 0.0
H2040 H 0.39725 0.0915 0.49242 0.0
H2041 H 0.41817 0.08704 0.46842 0.0
H2042 H 0.43131 0.14507 0.47036 0.0
H2043 H 0.41074 0.1499 0.49467 0.0
C2044 C 0.31672 0.14394 0.51253 0.0
C2045 C 0.31942 0.16124 0.50718 0.0
C2046 C 0.33123 0.13582 0.51679 0.0
C2047 C 0.34883 0.14484 0.51594 0.0
C2048 C 0.35157 0.16205 0.51044 0.0
C2049 C 0.33702 0.1702 0.50617 0.0
C2050 C 0.36427 0.13616 0.52063 0.0
C2051 C 0.37662 0.13354 0.50742 0.0
C2052 C 0.36634 0.12964 0.53763 0.0
C2053 C 0.35463 0.13322 0.55278 0.0
C2054 C 0.35253 0.15118 0.55968 0.0
C2055 C 0.34131 0.15446 0.57377 0.0
C2056 C 0.33222 0.13992 0.5812 0.0
C2057 C 0.33437 0.12206 0.57458 0.0
C2058 C 0.34556 0.1187 0.56047 0.0
C2059 C 0.43818 0.10429 0.53387 0.0
C2060 C 0.43379 0.08667 0.53833 0.0
C2061 C 0.42482 0.11427 0.53048 0.0
C2062 C 0.40673 0.1068 0.53128 0.0
C2063 C 0.40234 0.08929 0.53589 0.0
C2064 C 0.41567 0.07934 0.53932 0.0
C2065 C 0.39232 0.11706 0.52722 0.0
C2066 C 0.38016 0.12001 0.54058 0.0
C2067 C 0.39053 0.12402 0.51043 0.0
C2068 C 0.4026 0.12107 0.49552 0.0
C2069 C 0.40469 0.10332 0.48782 0.0
C2070 C 0.41648 0.10073 0.47415 0.0
C2071 C 0.42611 0.11577 0.46791 0.0
C2072 C 0.42388 0.13343 0.47524 0.0
C2073 C 0.41216 0.13611 0.48897 0.0
H2074 H 0.43529 0.11377 0.45739 0.0
H2075 H 0.32354 0.14249 0.59211 0.0
H2076 H 0.66915 0.59259 0.28011 0.0
H2077 H 0.68642 0.62237 0.27871 0.0
H2078 H 0.73373 0.59917 0.27267 0.0
H2079 H 0.71613 0.56855 0.2741 0.0
H2080 H 0.7431 0.63348 0.29486 0.0
H2081 H 0.71069 0.61362 0.23516 0.0
H2082 H 0.68438 0.60134 0.21253 0.0
H2083 H 0.65976 0.64634 0.2342 0.0
H2084 H 0.68583 0.65877 0.25715 0.0
H2085 H 0.79171 0.71709 0.2707 0.0
H2086 H 0.777 0.68573 0.27181 0.0
H2087 H 0.72618 0.70284 0.27324 0.0
H2088 H 0.74091 0.73429 0.27198 0.0
H2089 H 0.71973 0.67074 0.2525 0.0
H2090 H 0.75152 0.69008 0.31282 0.0
H2091 H 0.77762 0.70238 0.33574 0.0
H2092 H 0.80332 0.65854 0.31309 0.0
H2093 H 0.77745 0.6461 0.28986 0.0
C2094 C 0.68324 0.5934 0.27847 0.0
C2095 C 0.69079 0.57732 0.2772 0.0
C2096 C 0.69328 0.6109 0.27753 0.0
C2097 C 0.71172 0.61379 0.27524 0.0
C2098 C 0.71961 0.59792 0.27435 0.0
C2099 C 0.7094 0.58011 0.27515 0.0
C2100 C 0.72216 0.6332 0.27374 0.0
C2101 C 0.73803 0.64136 0.28529 0.0
C2102 C 0.71586 0.64444 0.26175 0.0
C2103 C 0.70015 0.63703 0.248 0.0
C2104 C 0.6996 0.62083 0.2352 0.0
C2105 C 0.68474 0.61385 0.2223 0.0
C2106 C 0.67039 0.62303 0.22195 0.0
C2107 C 0.67088 0.63923 0.23449 0.0
C2108 C 0.6857 0.64626 0.24745 0.0
C2109 C 0.77739 0.71438 0.27135 0.0
C2110 C 0.76782 0.7289 0.27132 0.0
C2111 C 0.76883 0.69611 0.27211 0.0
C2112 C 0.75012 0.69113 0.27292 0.0
C2113 C 0.74051 0.70562 0.27269 0.0
C2114 C 0.7491 0.72395 0.27203 0.0
C2115 C 0.74066 0.67113 0.27371 0.0
C2116 C 0.72489 0.66286 0.26204 0.0
C2117 C 0.74706 0.65984 0.28559 0.0
C2118 C 0.76264 0.66728 0.29947 0.0
C2119 C 0.7628 0.68315 0.31263 0.0
C2120 C 0.77754 0.69013 0.32569 0.0
C2121 C 0.79214 0.68128 0.32583 0.0
C2122 C 0.79201 0.6654 0.31294 0.0
C2123 C 0.77731 0.65837 0.29983 0.0
H2124 H 0.80353 0.6867 0.33596 0.0
H2125 H 0.6589 0.61761 0.21195 0.0
H2126 H 0.92449 0.46895 0.81868 0.0
H2127 H 0.90375 0.44055 0.81928 0.0
H2128 H 0.85961 0.46924 0.81908 0.0
H2129 H 0.88024 0.49759 0.81775 0.0
H2130 H 0.87899 0.42544 0.83845 0.0
H2131 H 0.82591 0.4441 0.78894 0.0
H2132 H 0.82393 0.46476 0.76622 0.0
H2133 H 0.87865 0.46454 0.75589 0.0
H2134 H 0.88085 0.44369 0.77833 0.0
H2135 H 0.80863 0.34676 0.81658 0.0
H2136 H 0.82502 0.37813 0.82708 0.0
H2137 H 0.84289 0.37901 0.7722 0.0
H2138 H 0.82596 0.34826 0.76152 0.0
H2139 H 0.83428 0.40936 0.78338 0.0
H2140 H 0.86969 0.37196 0.81129 0.0
H2141 H 0.87534 0.34942 0.83085 0.0
H2142 H 0.86206 0.38363 0.87891 0.0
H2143 H 0.85614 0.40628 0.85957 0.0
C2144 C 0.91041 0.46931 0.81918 0.0
C2145 C 0.90393 0.4854 0.81776 0.0
C2146 C 0.89856 0.45306 0.81959 0.0
C2147 C 0.88009 0.4527 0.81879 0.0
C2148 C 0.87378 0.46914 0.81928 0.0
C2149 C 0.88558 0.48532 0.81852 0.0
C2150 C 0.86752 0.4349 0.81501 0.0
C2151 C 0.86908 0.42195 0.82652 0.0
C2152 C 0.85486 0.43021 0.79921 0.0
C2153 C 0.85359 0.44255 0.7855 0.0
C2154 C 0.83749 0.44844 0.78178 0.0
C2155 C 0.83633 0.46017 0.76895 0.0
C2156 C 0.85118 0.46602 0.75968 0.0
C2157 C 0.86718 0.46006 0.76313 0.0
C2158 C 0.86839 0.44829 0.77591 0.0
C2159 C 0.81603 0.35374 0.8068 0.0
C2160 C 0.816 0.34511 0.78824 0.0
C2161 C 0.82545 0.37161 0.81281 0.0
C2162 C 0.83535 0.38091 0.80048 0.0
C2163 C 0.83526 0.37222 0.78196 0.0
C2164 C 0.82559 0.35459 0.77587 0.0
C2165 C 0.84594 0.39965 0.80658 0.0
C2166 C 0.84394 0.41287 0.79552 0.0
C2167 C 0.85869 0.40427 0.82232 0.0
C2168 C 0.86228 0.3907 0.83396 0.0
C2169 C 0.86786 0.3746 0.826 0.0
C2170 C 0.87113 0.36182 0.83705 0.0
C2171 C 0.86901 0.36507 0.8561 0.0
C2172 C 0.86366 0.38112 0.86414 0.0
C2173 C 0.86036 0.39394 0.85315 0.0
H2174 H 0.87155 0.35516 0.86463 0.0
H2175 H 0.85026 0.47513 0.74978 0.0
H2176 H 0.07727 0.82554 0.09635 0.0
H2177 H 0.06971 0.85159 0.08388 0.0
H2178 H 0.04273 0.86653 0.13267 0.0
H2179 H 0.05011 0.84028 0.14519 0.0
H2180 H 0.02142 0.86237 0.10088 0.0
H2181 H 0.07988 0.89458 0.12412 0.0
H2182 H 0.11266 0.89931 0.12966 0.0
H2183 H 0.11717 0.89352 0.07078 0.0
H2184 H 0.08441 0.88848 0.06484 0.0
H2185 H 0.99923 0.9382 0.06269 0.0
H2186 H 1.00965 0.91856 0.08287 0.0
H2187 H 0.04163 0.89845 0.04035 0.0
H2188 H 0.03196 0.91858 0.02049 0.0
H2189 H 0.06078 0.90858 0.07329 0.0
H2190 H 1.00296 0.87229 0.04984 0.0
H2191 H 0.97018 0.86625 0.04352 0.0
H2192 H 0.96466 0.87864 0.10212 0.0
H2193 H 0.99744 0.88498 0.10877 0.0
C2194 C 0.07008 0.8346 0.10462 0.0
C2195 C 0.0641 0.83081 0.12162 0.0
C2196 C 0.06586 0.84954 0.09753 0.0
C2197 C 0.05569 0.86098 0.10739 0.0
C2198 C 0.0506 0.85784 0.12489 0.0
C2199 C 0.05486 0.84289 0.13202 0.0
C2200 C 0.04862 0.8747 0.09829 0.0
C2201 C 0.03002 0.87279 0.09523 0.0
C2202 C 0.05989 0.88791 0.09053 0.0
C2203 C 0.07964 0.89105 0.09404 0.0
C2204 C 0.08785 0.89419 0.11234 0.0
C2205 C 0.10643 0.89695 0.11555 0.0
C2206 C 0.11699 0.89669 0.10058 0.0
C2207 C 0.10898 0.89371 0.08237 0.0
C2208 C 0.0904 0.89093 0.07907 0.0
C2209 C 1.00839 0.92949 0.0576 0.0
C2210 C 0.01477 0.92995 0.03999 0.0
C2211 C 0.01425 0.91822 0.06911 0.0
C2212 C 0.02642 0.90708 0.06309 0.0
C2213 C 0.03229 0.90701 0.04526 0.0
C2214 C 0.02653 0.91834 0.03382 0.0
C2215 C 0.0336 0.89594 0.07553 0.0
C2216 C 0.0522 0.89836 0.07922 0.0
C2217 C 0.02235 0.8831 0.08377 0.0
C2218 C 1.00265 0.87933 0.07978 0.0
C2219 C 0.99476 0.87389 0.06136 0.0
C2220 C 0.97618 0.87038 0.05772 0.0
C2221 C 0.96535 0.87212 0.0724 0.0
C2222 C 0.97307 0.87733 0.09076 0.0
C2223 C 0.99165 0.88088 0.09447 0.0
H2224 H 0.95097 0.86939 0.06956 0.0
H2225 H 0.13138 0.89882 0.1031 0.0
H2226 H 0.97601 0.27924 0.85868 0.0
H2227 H 0.95166 0.27299 0.83383 0.0
H2228 H 0.91349 0.27564 0.87488 0.0
H2229 H 0.93763 0.28181 0.89979 0.0
H2230 H 0.90279 0.24647 0.84567 0.0
H2231 H 0.92651 0.31177 0.85522 0.0
H2232 H 0.95031 0.33882 0.85673 0.0
H2233 H 0.95952 0.32063 0.79993 0.0
H2234 H 0.93589 0.29334 0.79818 0.0
H2235 H 0.82583 0.26995 0.81085 0.0
H2236 H 0.85364 0.26662 0.82633 0.0
H2237 H 0.87975 0.27177 0.77614 0.0
H2238 H 0.85174 0.27624 0.76071 0.0
H2239 H 0.89943 0.29215 0.80435 0.0
H2240 H 0.87219 0.22856 0.79365 0.0
H2241 H 0.84689 0.20297 0.79247 0.0
H2242 H 0.84303 0.21875 0.851 0.0
H2243 H 0.8686 0.24415 0.85266 0.0
C2244 C 0.96243 0.27839 0.86243 0.0
C2245 C 0.95877 0.28112 0.88123 0.0
C2246 C 0.94856 0.27483 0.84821 0.0
C2247 C 0.93084 0.27391 0.85257 0.0
C2248 C 0.9271 0.27623 0.87127 0.0
C2249 C 0.94094 0.27987 0.88548 0.0
C2250 C 0.9161 0.27134 0.83778 0.0
C2251 C 0.90205 0.25638 0.83655 0.0
C2252 C 0.91543 0.28402 0.82558 0.0
C2253 C 0.92962 0.30041 0.82664 0.0
C2254 C 0.93372 0.31346 0.84311 0.0
C2255 C 0.94715 0.32885 0.844 0.0
C2256 C 0.95647 0.3314 0.82846 0.0
C2257 C 0.95232 0.3186 0.81197 0.0
C2258 C 0.93891 0.30318 0.81102 0.0
C2259 C 0.83734 0.26996 0.80291 0.0
C2260 C 0.83658 0.27312 0.78449 0.0
C2261 C 0.85328 0.26792 0.81177 0.0
C2262 C 0.86871 0.26834 0.80225 0.0
C2263 C 0.86795 0.27118 0.78368 0.0
C2264 C 0.85199 0.27369 0.77489 0.0
C2265 C 0.88581 0.26747 0.81247 0.0
C2266 C 0.90036 0.28182 0.81293 0.0
C2267 C 0.88696 0.25418 0.82393 0.0
C2268 C 0.87234 0.23821 0.82327 0.0
C2269 C 0.86605 0.22646 0.80631 0.0
C2270 C 0.85169 0.21196 0.80557 0.0
C2271 C 0.84345 0.20915 0.8217 0.0
C2272 C 0.84962 0.22077 0.83861 0.0
C2273 C 0.86412 0.23513 0.83948 0.0
H2274 H 0.83224 0.19802 0.8211 0.0
H2275 H 0.96686 0.34333 0.82917 0.0
H2276 H 0.55873 0.23414 0.60947 0.0
H2277 H 0.55556 0.20204 0.59544 0.0
H2278 H 0.60864 0.21266 0.57747 0.0
H2279 H 0.6114 0.24514 0.59057 0.0
H2280 H 0.58818 0.19131 0.55096 0.0
H2281 H 0.59836 0.18989 0.61575 0.0
H2282 H 0.59407 0.19649 0.64919 0.0
H2283 H 0.53982 0.1676 0.63813 0.0
H2284 H 0.5437 0.16102 0.6046 0.0
H2285 H 0.58111 0.09185 0.53053 0.0
H2286 H 0.5911 0.12491 0.54122 0.0
H2287 H 0.53828 0.12921 0.55703 0.0
H2288 H 0.52838 0.09646 0.54673 0.0
H2289 H 0.56423 0.14242 0.58564 0.0
H2290 H 0.5544 0.14644 0.51991 0.0
H2291 H 0.55981 0.13965 0.48678 0.0
H2292 H 0.61543 0.16293 0.50049 0.0
H2293 H 0.61039 0.16966 0.53374 0.0
C2294 C 0.56977 0.22958 0.60268 0.0
C2295 C 0.58535 0.24202 0.6012 0.0
C2296 C 0.568 0.21122 0.59473 0.0
C2297 C 0.58204 0.20483 0.58577 0.0
C2298 C 0.59767 0.21726 0.58437 0.0
C2299 C 0.59926 0.23576 0.5919 0.0
C2300 C 0.58005 0.18526 0.57742 0.0
C2301 C 0.58325 0.1806 0.55866 0.0
C2302 C 0.57363 0.17125 0.58743 0.0
C2303 C 0.57131 0.17504 0.60764 0.0
C2304 C 0.58549 0.18502 0.62044 0.0
C2305 C 0.58313 0.18875 0.63941 0.0
C2306 C 0.56668 0.18249 0.64578 0.0
C2307 C 0.55256 0.17244 0.63319 0.0
C2308 C 0.55484 0.16868 0.6142 0.0
C2309 C 0.5716 0.09998 0.53595 0.0
C2310 C 0.55408 0.09164 0.53811 0.0
C2311 C 0.5773 0.1188 0.54202 0.0
C2312 C 0.56544 0.12939 0.55004 0.0
C2313 C 0.54767 0.1212 0.55106 0.0
C2314 C 0.54205 0.1025 0.54519 0.0
C2315 C 0.5716 0.14863 0.55907 0.0
C2316 C 0.56936 0.15317 0.57805 0.0
C2317 C 0.57909 0.1624 0.54932 0.0
C2318 C 0.58205 0.15836 0.52933 0.0
C2319 C 0.56781 0.14996 0.51588 0.0
C2320 C 0.57081 0.14616 0.49707 0.0
C2321 C 0.58796 0.1508 0.49154 0.0
C2322 C 0.60215 0.15931 0.50479 0.0
C2323 C 0.59923 0.16313 0.52361 0.0
H2324 H 0.59025 0.14785 0.47698 0.0
H2325 H 0.56488 0.18541 0.66047 0.0
H2326 H 0.54771 0.78012 0.3519 0.0
H2327 H 0.57529 0.77815 0.33718 0.0
H2328 H 0.60573 0.79628 0.39072 0.0
H2329 H 0.57814 0.79857 0.40556 0.0
H2330 H 0.61968 0.81483 0.36519 0.0
H2331 H 0.60079 0.75214 0.36913 0.0
H2332 H 0.57989 0.72267 0.36558 0.0
H2333 H 0.57476 0.7196 0.30623 0.0
H2334 H 0.59542 0.74919 0.30944 0.0
H2335 H 0.7002 0.79947 0.32718 0.0
H2336 H 0.67468 0.7969 0.34585 0.0
H2337 H 0.63876 0.78118 0.29564 0.0
H2338 H 0.66426 0.78319 0.27685 0.0
H2339 H 0.62914 0.76012 0.32203 0.0
H2340 H 0.64601 0.82437 0.31897 0.0
H2341 H 0.66694 0.85387 0.32287 0.0
H2342 H 0.67607 0.85357 0.38141 0.0
H2343 H 0.65535 0.82394 0.3778 0.0
C2344 C 0.56026 0.78356 0.36057 0.0
C2345 C 0.56079 0.78953 0.37987 0.0
C2346 C 0.57599 0.78232 0.35216 0.0
C2347 C 0.59252 0.78687 0.3629 0.0
C2348 C 0.59309 0.79266 0.38221 0.0
C2349 C 0.57733 0.79394 0.39065 0.0
C2350 C 0.60922 0.78652 0.35374 0.0
C2351 C 0.62192 0.80276 0.35605 0.0
C2352 C 0.61195 0.77084 0.34156 0.0
C2353 C 0.59957 0.75298 0.33954 0.0
C2354 C 0.5951 0.74526 0.35533 0.0
C2355 C 0.58331 0.72851 0.35337 0.0
C2356 C 0.57597 0.71929 0.33569 0.0
C2357 C 0.58044 0.72677 0.31992 0.0
C2358 C 0.59222 0.74352 0.3218 0.0
C2359 C 0.68688 0.79526 0.32011 0.0
C2360 C 0.68421 0.79159 0.30055 0.0
C2361 C 0.67233 0.79392 0.3308 0.0
C2362 C 0.65487 0.78901 0.3221 0.0
C2363 C 0.65216 0.78502 0.30259 0.0
C2364 C 0.6667 0.78635 0.29189 0.0
C2365 C 0.63939 0.78848 0.3333 0.0
C2366 C 0.62695 0.77209 0.33136 0.0
C2367 C 0.63691 0.80399 0.34588 0.0
C2368 C 0.64928 0.82185 0.34807 0.0
C2369 C 0.65259 0.83053 0.33264 0.0
C2370 C 0.66439 0.84729 0.33481 0.0
C2371 C 0.67287 0.85557 0.35237 0.0
C2372 C 0.66951 0.84713 0.36781 0.0
C2373 C 0.65773 0.83037 0.36571 0.0
H2374 H 0.682 0.86854 0.35401 0.0
H2375 H 0.56685 0.70633 0.33421 0.0
H2376 H 0.0849 0.25572 0.40905 0.0
H2377 H 0.08137 0.22595 0.41914 0.0
H2378 H 0.09943 0.25271 0.4755 0.0
H2379 H 0.10246 0.28257 0.46567 0.0
H2380 H 0.11111 0.21416 0.45675 0.0
H2381 H 0.06158 0.2474 0.47376 0.0
H2382 H 0.03854 0.26428 0.46456 0.0
H2383 H 0.01646 0.21951 0.42049 0.0
H2384 H 0.03957 0.20251 0.4293 0.0
H2385 H 0.07833 0.15966 0.52138 0.0
H2386 H 0.08873 0.18342 0.50336 0.0
H2387 H 0.04667 0.15888 0.45981 0.0
H2388 H 0.03624 0.13506 0.47784 0.0
H2389 H 0.04765 0.19366 0.46709 0.0
H2390 H 0.09014 0.15692 0.45354 0.0
H2391 H 0.11301 0.13831 0.45801 0.0
H2392 H 0.14835 0.18551 0.48917 0.0
H2393 H 0.12554 0.2044 0.48527 0.0
C2394 C 0.08859 0.25524 0.42349 0.0
C2395 C 0.09382 0.27144 0.43663 0.0
C2396 C 0.08658 0.23824 0.42921 0.0
C2397 C 0.09018 0.23724 0.44802 0.0
C2398 C 0.09673 0.25329 0.46089 0.0
C2399 C 0.09834 0.27029 0.45529 0.0
C2400 C 0.08454 0.21991 0.45478 0.0
C2401 C 0.09731 0.20964 0.4592 0.0
C2402 C 0.06641 0.21373 0.45708 0.0
C2403 C 0.05238 0.22381 0.45204 0.0
C2404 C 0.05189 0.24124 0.46202 0.0
C2405 C 0.03882 0.25082 0.45689 0.0
C2406 C 0.02608 0.243 0.44191 0.0
C2407 C 0.02635 0.22557 0.43207 0.0
C2408 C 0.03943 0.21596 0.43712 0.0
C2409 C 0.07145 0.15923 0.50787 0.0
C2410 C 0.05647 0.14555 0.50103 0.0
C2411 C 0.07743 0.17276 0.49754 0.0
C2412 C 0.06863 0.17281 0.48011 0.0
C2413 C 0.05368 0.15911 0.47322 0.0
C2414 C 0.04766 0.14559 0.48358 0.0
C2415 C 0.0743 0.1879 0.46976 0.0
C2416 C 0.0615 0.19786 0.46458 0.0
C2417 C 0.09236 0.19342 0.46633 0.0
C2418 C 0.10603 0.18208 0.46921 0.0
C2419 C 0.1027 0.16332 0.46154 0.0
C2420 C 0.11568 0.15273 0.46391 0.0
C2421 C 0.13215 0.16075 0.47377 0.0
C2422 C 0.13561 0.17935 0.48145 0.0
C2423 C 0.12265 0.19001 0.47918 0.0
H2424 H 0.14218 0.15251 0.47554 0.0
H2425 H 0.01596 0.25043 0.43796 0.0
H2426 H 0.5482 0.29623 0.17431 0.0
H2427 H 0.57453 0.29558 0.19491 0.0
H2428 H 0.59703 0.26712 0.14877 0.0
H2429 H 0.57092 0.26803 0.12796 0.0
H2430 H 0.59242 0.24959 0.18183 0.0
H2431 H 0.61685 0.30716 0.16393 0.0
H2432 H 0.6167 0.33896 0.15995 0.0
H2433 H 0.61365 0.35448 0.21871 0.0
H2434 H 0.6135 0.32268 0.223 0.0
H2435 H 0.67668 0.24326 0.2201 0.0
H2436 H 0.65104 0.24839 0.20167 0.0
H2437 H 0.64165 0.28897 0.247 0.0
H2438 H 0.66792 0.28423 0.2654 0.0
H2439 H 0.63817 0.30113 0.21604 0.0
H2440 H 0.6146 0.24532 0.23528 0.0
H2441 H 0.61298 0.21369 0.2407 0.0
H2442 H 0.6117 0.19473 0.18187 0.0
H2443 H 0.61362 0.22629 0.1761 0.0
C2444 C 0.55894 0.29018 0.16848 0.0
C2445 C 0.55753 0.28215 0.14955 0.0
C2446 C 0.57395 0.28986 0.18024 0.0
C2447 C 0.58763 0.28128 0.17331 0.0
C2448 C 0.58657 0.27383 0.1543 0.0
C2449 C 0.57172 0.27446 0.14244 0.0
C2450 C 0.6022 0.2786 0.1862 0.0
C2451 C 0.60261 0.26078 0.18914 0.0
C2452 C 0.61487 0.29338 0.19632 0.0
C2453 C 0.61495 0.31249 0.19375 0.0
C2454 C 0.61595 0.31731 0.17598 0.0
C2455 C 0.61597 0.33534 0.17367 0.0
C2456 C 0.61511 0.34872 0.18906 0.0
C2457 C 0.61428 0.3441 0.20679 0.0
C2458 C 0.61425 0.32607 0.20917 0.0
C2459 C 0.66897 0.25304 0.22629 0.0
C2460 C 0.6741 0.26314 0.2443 0.0
C2461 C 0.65429 0.25597 0.21573 0.0
C2462 C 0.64414 0.26879 0.22306 0.0
C2463 C 0.64922 0.27893 0.24109 0.0
C2464 C 0.66415 0.27619 0.25161 0.0
C2465 C 0.6287 0.27195 0.21148 0.0
C2466 C 0.628 0.28987 0.20883 0.0
C2467 C 0.6155 0.25726 0.20187 0.0
C2468 C 0.61443 0.23823 0.20528 0.0
C2469 C 0.61414 0.23444 0.2235 0.0
C2470 C 0.61315 0.21651 0.22664 0.0
C2471 C 0.61229 0.20221 0.21164 0.0
C2472 C 0.61239 0.20582 0.19347 0.0
C2473 C 0.61343 0.22372 0.19026 0.0
H2474 H 0.6115 0.18834 0.2141 0.0
H2475 H 0.61513 0.36268 0.18724 0.0
H2476 H 0.59138 0.86598 0.94523 0.0
H2477 H 0.58116 0.89499 0.95193 0.0
H2478 H 0.58056 0.89961 0.89381 0.0
H2479 H 0.59096 0.87044 0.88693 0.0
H2480 H 0.59412 0.93333 0.91904 0.0
H2481 H 0.54309 0.88623 0.90738 0.0
H2482 H 0.52485 0.85642 0.90941 0.0
H2483 H 0.52362 0.87335 0.96824 0.0
H2484 H 0.54211 0.90324 0.96663 0.0
H2485 H 0.54612 1.00604 0.95253 0.0
H2486 H 0.55151 0.97858 0.93208 0.0
H2487 H 0.56116 0.9541 0.98028 0.0
H2488 H 0.55604 0.98123 1.00059 0.0
H2489 H 0.53826 0.93046 0.95074 0.0
H2490 H 0.59521 0.97435 0.96208 0.0
H2491 H 0.61388 1.00402 0.95996 0.0
H2492 H 0.60303 0.99277 0.90042 0.0
H2493 H 0.58407 0.96313 0.90224 0.0
C2494 C 0.58926 0.87322 0.93388 0.0
C2495 C 0.5918 0.86588 0.91554 0.0
C2496 C 0.58341 0.88978 0.93772 0.0
C2497 C 0.57988 0.89924 0.9233 0.0
C2498 C 0.58318 0.89243 0.90508 0.0
C2499 C 0.58907 0.87579 0.9012 0.0
C2500 C 0.57184 0.9157 0.92749 0.0
C2501 C 0.58167 0.93271 0.92552 0.0
C2502 C 0.55554 0.9148 0.93581 0.0
C2503 C 0.54404 0.897 0.93687 0.0
C2504 C 0.53901 0.88358 0.92078 0.0
C2505 C 0.52863 0.86665 0.92185 0.0
C2506 C 0.5231 0.86296 0.93895 0.0
C2507 C 0.5279 0.87624 0.955 0.0
C2508 C 0.5383 0.8932 0.95401 0.0
C2509 C 0.54927 0.99471 0.95867 0.0
C2510 C 0.55077 0.99577 0.97812 0.0
C2511 C 0.55235 0.97911 0.94702 0.0
C2512 C 0.55669 0.96438 0.95474 0.0
C2513 C 0.55774 0.96531 0.97409 0.0
C2514 C 0.55493 0.98088 0.98567 0.0
C2515 C 0.56096 0.94809 0.9431 0.0
C2516 C 0.55038 0.93105 0.94366 0.0
C2517 C 0.57646 0.949 0.93338 0.0
C2518 C 0.58805 0.96666 0.93231 0.0
C2519 C 0.5967 0.97828 0.94855 0.0
C2520 C 0.60734 0.99507 0.94741 0.0
C2521 C 0.60958 1.00031 0.93007 0.0
C2522 C 0.60124 0.98872 0.91384 0.0
C2523 C 0.59055 0.97193 0.91492 0.0
H2524 H 0.61782 0.01332 0.9292 0.0
H2525 H 0.51507 0.84982 0.93974 0.0
H2526 H 0.97901 0.75989 0.69513 0.0
H2527 H 0.95537 0.76016 0.71642 0.0
H2528 H 0.92013 0.772 0.67351 0.0
H2529 H 0.94348 0.77148 0.65211 0.0
H2530 H 0.92548 0.79723 0.70837 0.0
H2531 H 0.91149 0.73259 0.68331 0.0
H2532 H 0.91655 0.70092 0.67629 0.0
H2533 H 0.9275 0.70093 0.73464 0.0
H2534 H 0.92281 0.73274 0.742 0.0
H2535 H 0.83559 0.77812 0.72367 0.0
H2536 H 0.86497 0.77706 0.71282 0.0
H2537 H 0.88583 0.77393 0.76819 0.0
H2538 H 0.8562 0.77556 0.77942 0.0
H2539 H 0.89222 0.74578 0.7343 0.0
H2540 H 0.9005 0.80911 0.75902 0.0
H2541 H 0.89281 0.83976 0.76503 0.0
H2542 H 0.89169 0.84203 0.70664 0.0
H2543 H 0.89878 0.81113 0.70016 0.0
C2544 C 0.96612 0.76227 0.69016 0.0
C2545 C 0.9631 0.76577 0.67201 0.0
C2546 C 0.95266 0.76237 0.70231 0.0
C2547 C 0.9361 0.76617 0.6965 0.0
C2548 C 0.93288 0.76908 0.67821 0.0
C2549 C 0.9462 0.76872 0.666 0.0
C2550 C 0.92252 0.76859 0.70975 0.0
C2551 C 0.91819 0.786 0.71407 0.0
C2552 C 0.91356 0.75403 0.71767 0.0
C2553 C 0.91714 0.73519 0.71318 0.0
C2554 C 0.9153 0.72597 0.69463 0.0
C2555 C 0.91802 0.70796 0.69059 0.0
C2556 C 0.92244 0.69895 0.705 0.0
C2557 C 0.92416 0.70795 0.72348 0.0
C2558 C 0.92149 0.72597 0.7276 0.0
C2559 C 0.84641 0.77722 0.73358 0.0
C2560 C 0.84368 0.77682 0.75236 0.0
C2561 C 0.86318 0.77669 0.72737 0.0
C2562 C 0.87746 0.77544 0.73973 0.0
C2563 C 0.87487 0.77493 0.75852 0.0
C2564 C 0.85806 0.77591 0.76489 0.0
C2565 C 0.89485 0.77428 0.73241 0.0
C2566 C 0.8999 0.75714 0.7291 0.0
C2567 C 0.90444 0.78907 0.72532 0.0
C2568 C 0.9 0.80765 0.72909 0.0
C2569 C 0.89835 0.816 0.74741 0.0
C2570 C 0.89411 0.83345 0.7509 0.0
C2571 C 0.89166 0.84279 0.73621 0.0
C2572 C 0.89348 0.83473 0.71799 0.0
C2573 C 0.89761 0.81724 0.71441 0.0
H2574 H 0.88842 0.85632 0.73894 0.0
H2575 H 0.92444 0.68497 0.70185 0.0
H2576 H 0.12195 0.01198 0.80755 0.0
H2577 H 0.10627 0.01441 0.83574 0.0
H2578 H 0.15658 0.03306 0.86909 0.0
H2579 H 0.1723 0.02916 0.84072 0.0
H2580 H 0.13958 0.01919 0.89129 0.0
H2581 H 0.11675 0.06018 0.85723 0.0
H2582 H 0.10261 0.07068 0.83072 0.0
H2583 H 0.05518 0.03062 0.83087 0.0
H2584 H 0.06911 0.01975 0.85726 0.0
H2585 H 0.09651 0.05252 0.97365 0.0
H2586 H 0.11252 0.04942 0.94546 0.0
H2587 H 0.06519 0.01613 0.91451 0.0
H2588 H 0.04921 0.019 0.94282 0.0
H2589 H 0.08066 0.03793 0.89177 0.0
H2590 H 0.10581 0.99971 0.92947 0.0
H2591 H 0.12162 0.99309 0.95733 0.0
H2592 H 0.16701 0.03377 0.95187 0.0
H2593 H 0.15141 0.0408 0.92414 0.0
C2594 C 0.12985 0.01669 0.82082 0.0
C2595 C 0.14876 0.02044 0.82115 0.0
C2596 C 0.12065 0.01839 0.83739 0.0
C2597 C 0.12961 0.02466 0.8556 0.0
C2598 C 0.14861 0.02828 0.85588 0.0
C2599 C 0.15785 0.02612 0.83928 0.0
C2600 C 0.11947 0.02704 0.87394 0.0
C2601 C 0.12682 0.02359 0.8911 0.0
C2602 C 0.10245 0.03263 0.87497 0.0
C2603 C 0.09405 0.03902 0.85907 0.0
C2604 C 0.10335 0.05354 0.85152 0.0
C2605 C 0.09537 0.05957 0.83653 0.0
C2606 C 0.07803 0.05129 0.82907 0.0
C2607 C 0.06862 0.037 0.83663 0.0
C2608 C 0.07655 0.0309 0.85161 0.0
C2609 C 0.08932 0.04449 0.96093 0.0
C2610 C 0.07115 0.03612 0.96121 0.0
C2611 C 0.09872 0.04257 0.94448 0.0
C2612 C 0.0906 0.03228 0.92704 0.0
C2613 C 0.07234 0.02417 0.92724 0.0
C2614 C 0.06302 0.02584 0.94378 0.0
C2615 C 0.10082 0.0301 0.90889 0.0
C2616 C 0.09344 0.03356 0.89181 0.0
C2617 C 0.11806 0.02512 0.90811 0.0
C2618 C 0.12736 0.02092 0.92484 0.0
C2619 C 0.11911 1.00735 0.9343 0.0
C2620 C 0.12805 1.0035 0.95005 0.0
C2621 C 0.14528 0.01307 0.95639 0.0
C2622 C 0.15365 0.02642 0.94696 0.0
C2623 C 0.14476 0.03033 0.93123 0.0
H2624 H 0.15219 0.01017 0.9686 0.0
H2625 H 0.07188 0.05598 0.81747 0.0
H2626 H 0.75199 0.42846 0.54991 0.0
H2627 H 0.74948 0.41816 0.58023 0.0
H2628 H 0.80462 0.41197 0.58167 0.0
H2629 H 0.80712 0.42229 0.55195 0.0
H2630 H 0.75254 0.38529 0.58735 0.0
H2631 H 0.82409 0.41709 0.62368 0.0
H2632 H 0.84534 0.44637 0.6277 0.0
H2633 H 0.80219 0.47431 0.61811 0.0
H2634 H 0.78064 0.44525 0.61428 0.0
H2635 H 0.78568 0.32673 0.63974 0.0
H2636 H 0.77986 0.34753 0.61886 0.0
H2637 H 0.78091 0.39038 0.66603 0.0
H2638 H 0.78784 0.36991 0.68705 0.0
H2639 H 0.79857 0.40408 0.6412 0.0
H2640 H 0.74123 0.36804 0.63939 0.0
H2641 H 0.71879 0.33976 0.6368 0.0
H2642 H 0.73012 0.32304 0.58042 0.0
H2643 H 0.75289 0.35104 0.58277 0.0
C2644 C 0.76366 0.42549 0.55711 0.0
C2645 C 0.77977 0.42625 0.54869 0.0
C2646 C 0.7622 0.41944 0.5743 0.0
C2647 C 0.7769 0.41439 0.58337 0.0
C2648 C 0.79316 0.41608 0.57526 0.0
C2649 C 0.79457 0.42195 0.55819 0.0
C2650 C 0.77522 0.40559 0.60023 0.0
C2651 C 0.76244 0.38954 0.59926 0.0
C2652 C 0.78784 0.41133 0.61605 0.0
C2653 C 0.80074 0.42893 0.61862 0.0
C2654 C 0.8191 0.42949 0.62257 0.0
C2655 C 0.83121 0.44605 0.62477 0.0
C2656 C 0.82512 0.46219 0.62313 0.0
C2657 C 0.8069 0.4618 0.61932 0.0
C2658 C 0.79473 0.44527 0.61711 0.0
C2659 C 0.78486 0.34062 0.64574 0.0
C2660 C 0.78739 0.3466 0.66516 0.0
C2661 C 0.78122 0.35246 0.63374 0.0
C2662 C 0.77964 0.37051 0.64081 0.0
C2663 C 0.78197 0.37651 0.66019 0.0
C2664 C 0.78578 0.3647 0.67222 0.0
C2665 C 0.77649 0.38327 0.62783 0.0
C2666 C 0.78839 0.40003 0.62954 0.0
C2667 C 0.76279 0.37839 0.61294 0.0
C2668 C 0.74884 0.36166 0.61129 0.0
C2669 C 0.73901 0.3583 0.62646 0.0
C2670 C 0.72622 0.34231 0.62503 0.0
C2671 C 0.72303 0.32961 0.60845 0.0
C2672 C 0.7326 0.3329 0.59325 0.0
C2673 C 0.74543 0.34885 0.59461 0.0
H2674 H 0.71314 0.31723 0.60738 0.0
H2675 H 0.83452 0.47499 0.62483 0.0
H2676 H 0.41273 0.0436 0.35798 0.0
H2677 H 0.42939 0.04226 0.38732 0.0
H2678 H 0.47862 0.04908 0.361 0.0
H2679 H 0.46208 0.05001 0.33165 0.0
H2680 H 0.47642 0.02186 0.38079 0.0
H2681 H 0.46799 0.08526 0.39191 0.0
H2682 H 0.44921 0.10885 0.39308 0.0
H2683 H 0.41808 0.08399 0.43241 0.0
H2684 H 0.43681 0.0604 0.43165 0.0
H2685 H 0.53685 0.03835 0.46244 0.0
H2686 H 0.52062 0.04011 0.43295 0.0
H2687 H 0.47218 0.04053 0.46048 0.0
H2688 H 0.48849 0.03984 0.48993 0.0
H2689 H 0.47389 0.0641 0.43969 0.0
H2690 H 0.48168 1.00159 0.43036 0.0
H2691 H 0.49837 0.97629 0.42883 0.0
H2692 H 0.52781 0.99638 0.3858 0.0
H2693 H 0.51146 0.02194 0.38724 0.0
C2694 C 0.42712 0.04499 0.35854 0.0
C2695 C 0.43613 0.04694 0.34259 0.0
C2696 C 0.43661 0.04424 0.37528 0.0
C2697 C 0.45526 0.04571 0.37633 0.0
C2698 C 0.46425 0.04788 0.36045 0.0
C2699 C 0.45478 0.04848 0.34373 0.0
C2700 C 0.46547 0.04465 0.39385 0.0
C2701 C 0.47608 0.03122 0.39366 0.0
C2702 C 0.46456 0.05651 0.41068 0.0
C2703 C 0.45374 0.07107 0.41167 0.0
C2704 C 0.45716 0.08488 0.40084 0.0
C2705 C 0.44655 0.09826 0.40147 0.0
C2706 C 0.43249 0.09795 0.41286 0.0
C2707 C 0.42905 0.08429 0.4237 0.0
C2708 C 0.43971 0.07097 0.42325 0.0
C2709 C 0.52274 0.03881 0.4621 0.0
C2710 C 0.51393 0.03907 0.47841 0.0
C2711 C 0.51345 0.0397 0.44526 0.0
C2712 C 0.49509 0.04024 0.44443 0.0
C2713 C 0.48632 0.04025 0.46075 0.0
C2714 C 0.49566 0.03983 0.47757 0.0
C2715 C 0.48495 0.04123 0.42676 0.0
C2716 C 0.47433 0.05469 0.42689 0.0
C2717 C 0.48563 0.02916 0.40994 0.0
C2718 C 0.49547 0.01379 0.40905 0.0
C2719 C 0.49181 1.00069 0.42067 0.0
C2720 C 0.50119 0.98629 0.4198 0.0
C2721 C 0.51417 0.98476 0.40726 0.0
C2722 C 0.51777 0.9976 0.39553 0.0
C2723 C 0.50844 0.01204 0.39635 0.0
H2724 H 0.52142 0.9736 0.40661 0.0
H2725 H 0.42425 0.10827 0.41328 0.0
H2726 H 0.7858 0.74364 0.04712 0.0
H2727 H 0.79088 0.7551 0.0805 0.0
H2728 H 0.79281 0.70063 0.0905 0.0
H2729 H 0.78844 0.68918 0.05686 0.0
H2730 H 0.7724 0.75035 0.10682 0.0
H2731 H 0.81602 0.70147 0.13188 0.0
H2732 H 0.83956 0.68493 0.12071 0.0
H2733 H 0.85427 0.72362 0.0846 0.0
H2734 H 0.83096 0.74047 0.09568 0.0
H2735 H 0.76884 0.75756 0.20321 0.0
H2736 H 0.7685 0.7462 0.17004 0.0
H2737 H 0.82523 0.76627 0.17273 0.0
H2738 H 0.82577 0.77699 0.20639 0.0
H2739 H 0.81819 0.73557 0.15 0.0
H2740 H 0.79269 0.78914 0.15466 0.0
H2741 H 0.77247 0.81001 0.16539 0.0
H2742 H 0.72712 0.76926 0.1406 0.0
H2743 H 0.74706 0.74804 0.12992 0.0
C2744 C 0.78744 0.73406 0.05637 0.0
C2745 C 0.78666 0.71543 0.0492 0.0
C2746 C 0.79031 0.74066 0.07556 0.0
C2747 C 0.79233 0.72884 0.08827 0.0
C2748 C 0.79167 0.7102 0.08114 0.0
C2749 C 0.78907 0.70362 0.06184 0.0
C2750 C 0.7943 0.73602 0.10886 0.0
C2751 C 0.78246 0.74707 0.11618 0.0
C2752 C 0.80761 0.73222 0.12128 0.0
C2753 C 0.82162 0.72212 0.11449 0.0
C2754 C 0.8243 0.70646 0.12159 0.0
C2755 C 0.8376 0.69703 0.11527 0.0
C2756 C 0.84839 0.70322 0.10194 0.0
C2757 C 0.84588 0.71882 0.09488 0.0
C2758 C 0.8326 0.72829 0.10115 0.0
C2759 C 0.78128 0.75965 0.1968 0.0
C2760 C 0.7973 0.76844 0.20752 0.0
C2761 C 0.78106 0.75316 0.17771 0.0
C2762 C 0.79675 0.7557 0.16857 0.0
C2763 C 0.81288 0.76417 0.17931 0.0
C2764 C 0.81317 0.77039 0.19857 0.0
C2765 C 0.79615 0.74967 0.14788 0.0
C2766 C 0.80817 0.73883 0.14057 0.0
C2767 C 0.78342 0.75421 0.13532 0.0
C2768 C 0.77137 0.76695 0.14163 0.0
C2769 C 0.7784 0.78459 0.1516 0.0
C2770 C 0.76699 0.79648 0.15766 0.0
C2771 C 0.74852 0.79095 0.15372 0.0
C2772 C 0.74143 0.77352 0.14366 0.0
C2773 C 0.75278 0.76156 0.13758 0.0
H2774 H 0.73971 0.80018 0.15842 0.0
H2775 H 0.85874 0.69597 0.09714 0.0
H2776 H 0.13906 0.04606 0.72136 0.0
H2777 H 0.12531 0.04608 0.69052 0.0
H2778 H 0.13118 0.99036 0.67333 0.0
H2779 H 0.14518 0.99024 0.70492 0.0
H2780 H 0.13572 1.00864 0.64297 0.0
H2781 H 0.08936 1.00297 0.68367 0.0
H2782 H 0.07394 0.01077 0.71173 0.0
H2783 H 0.07258 0.06397 0.69853 0.0
H2784 H 0.08823 0.05658 0.67052 0.0
H2785 H 0.07553 1.00013 0.55945 0.0
H2786 H 0.09087 0.99699 0.58891 0.0
H2787 H 0.08172 0.04978 0.61415 0.0
H2788 H 0.06611 0.05279 0.5847 0.0
H2789 H 0.07857 0.03105 0.64027 0.0
H2790 H 0.12577 0.03746 0.60039 0.0
H2791 H 0.1416 0.0302 0.57251 0.0
H2792 H 0.14164 0.97619 0.58408 0.0
H2793 H 0.1256 0.98306 0.61192 0.0
C2794 C 0.13773 0.03367 0.71115 0.0
C2795 C 0.14364 0.01817 0.7164 0.0
C2796 C 0.12952 0.03368 0.69317 0.0
C2797 C 0.12642 0.01814 0.6789 0.0
C2798 C 0.13302 1.00273 0.68363 0.0
C2799 C 0.14132 1.00268 0.70194 0.0
C2800 C 0.11604 0.01834 0.65974 0.0
C2801 C 0.12307 0.01326 0.64256 0.0
C2802 C 0.09954 0.02477 0.65828 0.0
C2803 C 0.09011 0.02927 0.67508 0.0
C2804 C 0.08589 0.01638 0.68682 0.0
C2805 C 0.07709 0.02072 0.70271 0.0
C2806 C 0.07232 0.03787 0.70693 0.0
C2807 C 0.07631 0.0507 0.69525 0.0
C2808 C 0.08513 0.04644 0.67936 0.0
C2809 C 0.07671 0.0112 0.57117 0.0
C2810 C 0.06926 0.0268 0.56902 0.0
C2811 C 0.08582 0.00944 0.58834 0.0
C2812 C 0.0882 0.02322 0.60453 0.0
C2813 C 0.08051 0.0387 0.60243 0.0
C2814 C 0.07143 0.04049 0.58524 0.0
C2815 C 0.09826 0.02149 0.62339 0.0
C2816 C 0.09118 0.02636 0.6406 0.0
C2817 C 0.11472 0.01491 0.62483 0.0
C2818 C 0.12431 0.01071 0.60811 0.0
C2819 C 0.12904 0.02399 0.59691 0.0
C2820 C 0.13807 0.01995 0.58113 0.0
C2821 C 0.14258 1.00273 0.57649 0.0
C2822 C 0.13811 0.98952 0.58766 0.0
C2823 C 0.12905 0.99348 0.60345 0.0
H2824 H 0.14957 0.99963 0.56427 0.0
H2825 H 0.06551 0.0412 0.71923 0.0
H2826 H 0.79682 0.40574 0.46295 0.0
H2827 H 0.80088 0.38586 0.4343 0.0
H2828 H 0.76874 0.41391 0.40267 0.0
H2829 H 0.76502 0.43441 0.43152 0.0
H2830 H 0.75892 0.37285 0.39692 0.0
H2831 H 0.80927 0.42121 0.39659 0.0
H2832 H 0.8367 0.44274 0.4105 0.0
H2833 H 0.8621 0.39778 0.41857 0.0
H2834 H 0.8347 0.37597 0.40497 0.0
H2835 H 0.7691 0.32406 0.30892 0.0
H2836 H 0.76753 0.3475 0.3355 0.0
H2837 H 0.81496 0.33583 0.36264 0.0
H2838 H 0.81728 0.3131 0.33507 0.0
H2839 H 0.81699 0.36958 0.37091 0.0
H2840 H 0.76846 0.32112 0.3736 0.0
H2841 H 0.74122 0.29806 0.36256 0.0
H2842 H 0.71249 0.3405 0.35384 0.0
H2843 H 0.73966 0.36379 0.36438 0.0
C2844 C 0.79077 0.40791 0.44992 0.0
C2845 C 0.7806 0.42174 0.44958 0.0
C2846 C 0.79315 0.39649 0.4335 0.0
C2847 C 0.78514 0.39832 0.41628 0.0
C2848 C 0.77509 0.41224 0.41579 0.0
C2849 C 0.77304 0.42401 0.43225 0.0
C2850 C 0.78671 0.38511 0.3991 0.0
C2851 C 0.77153 0.37233 0.39097 0.0
C2852 C 0.80333 0.38387 0.39188 0.0
C2853 C 0.81987 0.39696 0.39991 0.0
C2854 C 0.82064 0.41591 0.40148 0.0
C2855 C 0.8362 0.42817 0.40928 0.0
C2856 C 0.85112 0.42163 0.41546 0.0
C2857 C 0.85053 0.40282 0.4138 0.0
C2858 C 0.83499 0.39051 0.40602 0.0
C2859 C 0.77915 0.32634 0.32061 0.0
C2860 C 0.79313 0.3164 0.32001 0.0
C2861 C 0.77818 0.33977 0.33596 0.0
C2862 C 0.79074 0.34323 0.35162 0.0
C2863 C 0.80493 0.33346 0.35093 0.0
C2864 C 0.80623 0.32035 0.3352 0.0
C2865 C 0.78909 0.35714 0.36844 0.0
C2866 C 0.80429 0.37004 0.37666 0.0
C2867 C 0.77252 0.3582 0.37608 0.0
C2868 C 0.75616 0.3442 0.36961 0.0
C2869 C 0.75638 0.32553 0.36916 0.0
C2870 C 0.74095 0.31241 0.36298 0.0
C2871 C 0.72516 0.3178 0.3574 0.0
C2872 C 0.72475 0.33633 0.35805 0.0
C2873 C 0.74017 0.3495 0.36413 0.0
H2874 H 0.71322 0.30763 0.35265 0.0
H2875 H 0.86315 0.43114 0.4215 0.0
H2876 H 0.40727 0.01767 0.23543 0.0
H2877 H 0.41145 0.01321 0.202 0.0
H2878 H 0.46794 0.03377 0.21501 0.0
H2879 H 0.46397 0.03791 0.24821 0.0
H2880 H 0.45118 0.04703 0.1842 0.0
H2881 H 0.455 0.99038 0.20914 0.0
H2882 H 0.44176 0.96459 0.22388 0.0
H2883 H 0.39876 0.94926 0.18036 0.0
H2884 H 0.41167 0.97514 0.1655 0.0
H2885 H 0.51439 0.01663 0.13273 0.0
H2886 H 0.49359 0.02137 0.15618 0.0
H2887 H 0.44977 0.99091 0.11725 0.0
H2888 H 0.47073 0.98581 0.09353 0.0
H2889 H 0.44911 0.98266 0.15424 0.0
H2890 H 0.45132 0.03353 0.12423 0.0
H2891 H 0.46503 0.05886 0.10916 0.0
H2892 H 0.49525 0.08537 0.16077 0.0
H2893 H 0.48197 0.06006 0.17611 0.0
C2894 C 0.42053 0.02144 0.23109 0.0
C2895 C 0.43535 0.02796 0.24435 0.0
C2896 C 0.42286 0.01891 0.21207 0.0
C2897 C 0.43998 0.02321 0.20617 0.0
C2898 C 0.45461 0.03049 0.21937 0.0
C2899 C 0.45236 0.03269 0.2383 0.0
C2900 C 0.44331 0.01871 0.18647 0.0
C2901 C 0.45054 0.03299 0.17746 0.0
C2902 C 0.44178 1.00037 0.17751 0.0
C2903 C 0.43415 0.9848 0.18637 0.0
C2904 C 0.44265 0.98159 0.20281 0.0
C2905 C 0.43522 0.96695 0.21117 0.0
C2906 C 0.41939 0.95533 0.2031 0.0
C2907 C 0.41099 0.9583 0.18662 0.0
C2908 C 0.41835 0.97294 0.17823 0.0
C2909 C 0.50041 0.01057 0.12923 0.0
C2910 C 0.49418 1.00081 0.11133 0.0
C2911 C 0.48851 0.0135 0.14256 0.0
C2912 C 0.47017 1.00679 0.13825 0.0
C2913 C 0.46389 0.99634 0.12069 0.0
C2914 C 0.47584 0.99347 0.10723 0.0
C2915 C 0.45789 0.01101 0.15243 0.0
C2916 C 0.44901 0.99671 0.16044 0.0
C2917 C 0.45771 0.02936 0.16036 0.0
C2918 C 0.46564 0.04483 0.15133 0.0
C2919 C 0.46096 0.04471 0.13236 0.0
C2920 C 0.46866 0.05907 0.12376 0.0
C2921 C 0.48101 0.07371 0.134 0.0
C2922 C 0.48566 0.07403 0.15287 0.0
C2923 C 0.47802 0.05969 0.16153 0.0
H2924 H 0.48696 0.08481 0.12731 0.0
H2925 H 0.41366 0.944 0.20959 0.0
H2926 H 0.78183 0.72366 0.95983 0.0
H2927 H 0.78288 0.73486 0.93021 0.0
H2928 H 0.78663 0.68111 0.9018 0.0
H2929 H 0.78587 0.66992 0.93148 0.0
H2930 H 0.80978 0.70553 0.88956 0.0
H2931 H 0.74795 0.6994 0.89875 0.0
H2932 H 0.7211 0.70375 0.91469 0.0
H2933 H 0.73465 0.76167 0.91616 0.0
H2934 H 0.76178 0.75774 0.90055 0.0
H2935 H 0.79445 0.72884 0.79817 0.0
H2936 H 0.7922 0.71438 0.82598 0.0
H2937 H 0.79293 0.76682 0.86001 0.0
H2938 H 0.79481 0.78126 0.83249 0.0
H2939 H 0.7661 0.74076 0.86778 0.0
H2940 H 0.82917 0.74681 0.86065 0.0
H2941 H 0.8554 0.74215 0.8437 0.0
H2942 H 0.83848 0.68396 0.83728 0.0
H2943 H 0.812 0.68829 0.854 0.0
C2944 C 0.78273 0.71417 0.94726 0.0
C2945 C 0.78371 0.69585 0.9481 0.0
C2946 C 0.78327 0.72059 0.93026 0.0
C2947 C 0.78468 0.70884 0.91357 0.0
C2948 C 0.78555 0.69051 0.91438 0.0
C2949 C 0.78502 0.68408 0.93139 0.0
C2950 C 0.78574 0.7158 0.89544 0.0
C2951 C 0.80005 0.71302 0.88472 0.0
C2952 C 0.77325 0.72584 0.88904 0.0
C2953 C 0.75706 0.72829 0.8987 0.0
C2954 C 0.74534 0.7131 0.90267 0.0
C2955 C 0.73003 0.71548 0.91162 0.0
C2956 C 0.72621 0.73298 0.9165 0.0
C2957 C 0.73766 0.74813 0.91242 0.0
C2958 C 0.75301 0.74583 0.90354 0.0
C2959 C 0.79422 0.73732 0.81158 0.0
C2960 C 0.79481 0.75626 0.81297 0.0
C2961 C 0.79295 0.72902 0.82751 0.0
C2962 C 0.7923 0.73947 0.84518 0.0
C2963 C 0.79317 0.75839 0.84658 0.0
C2964 C 0.79439 0.76666 0.83075 0.0
C2965 C 0.79033 0.73088 0.86225 0.0
C2966 C 0.77581 0.73329 0.87269 0.0
C2967 C 0.80257 0.72049 0.86836 0.0
C2968 C 0.81851 0.71787 0.85839 0.0
C2969 C 0.83096 0.73302 0.85549 0.0
C2970 C 0.84589 0.73044 0.84595 0.0
C2971 C 0.84857 0.71277 0.83937 0.0
C2972 C 0.83636 0.69764 0.84236 0.0
C2973 C 0.8214 0.70015 0.85188 0.0
H2974 H 0.86014 0.71079 0.83198 0.0
H2975 H 0.71433 0.7348 0.92339 0.0
H2976 H 0.85144 0.08264 0.03913 0.0
H2977 H 0.8804 0.07268 0.03701 0.0
H2978 H 0.90065 0.11987 0.01292 0.0
H2979 H 0.87238 0.13021 0.01599 0.0
H2980 H 0.89978 0.06138 0.01306 0.0
H2981 H 0.94463 0.13334 0.01842 0.0
H2982 H 0.94601 0.165 0.0345 0.0
H2983 H 0.91487 0.14517 0.07652 0.0
H2984 H 0.9135 0.1134 0.06083 0.0
H2985 H 0.98462 0.0454 0.98513 0.0
H2986 H 0.95583 0.05515 0.98842 0.0
H2987 H 0.97653 0.08815 0.04175 0.0
H2988 H 1.00552 0.07939 0.03783 0.0
H2989 H 0.95673 0.10583 0.02937 0.0
H2990 H 0.94456 0.04257 0.03285 0.0
H2991 H 0.94359 0.00955 0.023 0.0
H2992 H 0.90999 0.0097 0.97373 0.0
H2993 H 0.91094 0.04279 0.98319 0.0
C2994 C 0.86216 0.09102 0.03363 0.0
C2995 C 0.85942 0.10746 0.02804 0.0
C2996 C 0.87882 0.08524 0.03228 0.0
C2997 C 0.89332 0.09559 0.02513 0.0
C2998 C 0.8903 0.11175 0.01914 0.0
C2999 C 0.87386 0.11766 0.0208 0.0
C3000 C 0.91139 0.08957 0.02367 0.0
C3001 C 0.91217 0.07119 0.01666 0.0
C3002 C 0.92798 0.10193 0.02877 0.0
C3003 C 0.9288 0.121 0.03832 0.0
C3004 C 0.93813 0.13574 0.03112 0.0
C3005 C 0.9389 0.1537 0.04017 0.0
C3006 C 0.93048 0.1571 0.05649 0.0
C3007 C 0.92133 0.14253 0.06384 0.0
C3008 C 0.92053 0.12454 0.05486 0.0
C3009 C 0.98312 0.0549 0.99747 0.0
C3010 C 0.99768 0.06163 0.0111 0.0
C3011 C 0.96641 0.06035 0.99952 0.0
C3012 C 0.96337 0.07222 0.01561 0.0
C3013 C 0.97806 0.07907 0.0291 0.0
C3014 C 0.99485 0.074 0.02684 0.0
C3015 C 0.94518 0.07767 0.01843 0.0
C3016 C 0.94436 0.09598 0.02572 0.0
C3017 C 0.92862 0.06507 0.01437 0.0
C3018 C 0.92797 0.04519 0.00864 0.0
C3019 C 0.93706 0.03558 0.01986 0.0
C3020 C 0.9365 0.01685 0.01435 0.0
C3021 C 0.92678 1.00754 0.99772 0.0
C3022 C 0.91754 0.01694 0.98659 0.0
C3023 C 0.91807 0.03568 0.99203 0.0
H3024 H 0.92636 0.99304 0.99348 0.0
H3025 H 0.93109 0.17101 0.06346 0.0
H3026 H 0.38137 0.38542 0.0215 0.0
H3027 H 0.4095 0.40696 0.02388 0.0
H3028 H 0.38284 0.45158 0.04243 0.0
H3029 H 0.35439 0.43004 0.03985 0.0
H3030 H 0.40447 0.46001 0.01664 0.0
H3031 H 0.41062 0.43583 0.0726 0.0
H3032 H 0.41096 0.41242 0.0925 0.0
H3033 H 0.45313 0.39307 0.06363 0.0
H3034 H 0.45283 0.41616 0.04331 0.0
H3035 H 0.48589 0.52452 0.0368 0.0
H3036 H 0.45761 0.50514 0.04058 0.0
H3037 H 0.47971 0.45703 0.02289 0.0
H3038 H 0.50816 0.47629 0.01952 0.0
H3039 H 0.45988 0.45183 0.05064 0.0
H3040 H 0.45195 0.47436 0.99319 0.0
H3041 H 0.45213 0.49817 0.97373 0.0
H3042 H 0.41329 0.52058 1.00572 0.0
H3043 H 0.41316 0.49708 0.02563 0.0
C3044 C 0.3814 0.3998 0.02617 0.0
C3045 C 0.36549 0.40592 0.03051 0.0
C3046 C 0.3976 0.41212 0.02765 0.0
C3047 C 0.39843 0.43092 0.0336 0.0
C3048 C 0.3826 0.43714 0.03789 0.0
C3049 C 0.36632 0.42478 0.03643 0.0
C3050 C 0.4157 0.44405 0.03456 0.0
C3051 C 0.4165 0.4584 0.02437 0.0
C3052 C 0.43157 0.44177 0.04429 0.0
C3053 C 0.43158 0.42764 0.05629 0.0
C3054 C 0.41983 0.42646 0.07034 0.0
C3055 C 0.42004 0.41326 0.08173 0.0
C3056 C 0.43203 0.40123 0.0793 0.0
C3057 C 0.44383 0.40238 0.06547 0.0
C3058 C 0.44365 0.41552 0.05402 0.0
C3059 C 0.48481 0.50981 0.03384 0.0
C3060 C 0.49935 0.50201 0.02774 0.0
C3061 C 0.46855 0.49872 0.03592 0.0
C3062 C 0.46633 0.47956 0.0317 0.0
C3063 C 0.48101 0.47175 0.02619 0.0
C3064 C 0.49731 0.48282 0.02423 0.0
C3065 C 0.44867 0.46763 0.03255 0.0
C3066 C 0.4478 0.4535 0.04304 0.0
C3067 C 0.43274 0.47007 0.02308 0.0
C3068 C 0.43269 0.48409 0.01102 0.0
C3069 C 0.44355 0.48445 0.99616 0.0
C3070 C 0.44362 0.49788 0.98503 0.0
C3071 C 0.43274 0.51091 0.9885 0.0
C3072 C 0.42173 0.5105 1.00307 0.0
C3073 C 0.42166 0.49713 0.01429 0.0
H3074 H 0.4328 0.52133 0.9799 0.0
H3075 H 0.4322 0.39106 0.08816 0.0
H3076 H 0.41888 0.6241 0.78168 0.0
H3077 H 0.40509 0.65133 0.7829 0.0
H3078 H 0.35729 0.61815 0.75285 0.0
H3079 H 0.37108 0.59085 0.75178 0.0
H3080 H 0.3606 0.64972 0.74019 0.0
H3081 H 0.36391 0.64033 0.80418 0.0
H3082 H 0.37904 0.63708 0.83393 0.0
H3083 H 0.41248 0.68976 0.83716 0.0
H3084 H 0.39769 0.69322 0.80731 0.0
H3085 H 0.30329 0.71778 0.75664 0.0
H3086 H 0.3181 0.69123 0.7558 0.0
H3087 H 0.36547 0.72616 0.78481 0.0
H3088 H 0.35085 0.75288 0.78507 0.0
H3089 H 0.36312 0.6944 0.79838 0.0
H3090 H 0.36382 0.70553 0.73789 0.0
H3091 H 0.35446 0.711 0.70676 0.0
H3092 H 0.31945 0.65863 0.69547 0.0
H3093 H 0.32845 0.65288 0.72667 0.0
C3094 C 0.40539 0.62234 0.77527 0.0
C3095 C 0.39651 0.60444 0.76662 0.0
C3096 C 0.39722 0.63832 0.77611 0.0
C3097 C 0.37951 0.63778 0.76824 0.0
C3098 C 0.37077 0.61991 0.75927 0.0
C3099 C 0.37885 0.60388 0.75867 0.0
C3100 C 0.37032 0.65535 0.76917 0.0
C3101 C 0.36097 0.6591 0.75317 0.0
C3102 C 0.37092 0.66902 0.78553 0.0
C3103 C 0.37981 0.66695 0.80343 0.0
C3104 C 0.37457 0.65116 0.81118 0.0
C3105 C 0.38308 0.64929 0.82806 0.0
C3106 C 0.39675 0.66318 0.83741 0.0
C3107 C 0.40192 0.679 0.8299 0.0
C3108 C 0.39347 0.68092 0.813 0.0
C3109 C 0.31687 0.72007 0.76295 0.0
C3110 C 0.32537 0.73827 0.77105 0.0
C3111 C 0.32559 0.7045 0.76237 0.0
C3112 C 0.34344 0.70573 0.7702 0.0
C3113 C 0.35186 0.72389 0.77857 0.0
C3114 C 0.34329 0.73956 0.77872 0.0
C3115 C 0.35304 0.68847 0.76949 0.0
C3116 C 0.36252 0.68486 0.78546 0.0
C3117 C 0.35303 0.67521 0.75301 0.0
C3118 C 0.34664 0.67887 0.73471 0.0
C3119 C 0.3539 0.69529 0.72889 0.0
C3120 C 0.34873 0.69841 0.71121 0.0
C3121 C 0.33642 0.68516 0.69915 0.0
C3122 C 0.32903 0.66885 0.70483 0.0
C3123 C 0.33415 0.66566 0.72252 0.0
H3124 H 0.3328 0.6875 0.68537 0.0
H3125 H 0.40331 0.66171 0.85048 0.0
H3126 H 0.24659 0.63293 0.54121 0.0
H3127 H 0.21558 0.61825 0.54034 0.0
H3128 H 0.22764 0.56801 0.51138 0.0
H3129 H 0.25928 0.58303 0.51198 0.0
H3130 H 0.1966 0.57478 0.49551 0.0
H3131 H 0.21786 0.57239 0.55745 0.0
H3132 H 0.23367 0.58414 0.58866 0.0
H3133 H 0.19886 0.62282 0.59923 0.0
H3134 H 0.18299 0.61148 0.56797 0.0
H3135 H 0.10818 0.54371 0.5443 0.0
H3136 H 0.14074 0.55173 0.54508 0.0
H3137 H 0.13528 0.57998 0.49882 0.0
H3138 H 0.10285 0.57116 0.4974 0.0
H3139 H 0.16415 0.57974 0.55235 0.0
H3140 H 0.17128 0.58453 0.47473 0.0
H3141 H 0.15592 0.57045 0.44378 0.0
H3142 H 0.13465 0.52206 0.465 0.0
H3143 H 0.15002 0.53574 0.49599 0.0
C3144 C 0.24284 0.61866 0.53477 0.0
C3145 C 0.25569 0.60924 0.5267 0.0
C3146 C 0.22493 0.61021 0.53436 0.0
C3147 C 0.21896 0.59187 0.52594 0.0
C3148 C 0.23174 0.58217 0.51803 0.0
C3149 C 0.24993 0.5907 0.51854 0.0
C3150 C 0.19935 0.5834 0.52525 0.0
C3151 C 0.18955 0.57578 0.50798 0.0
C3152 C 0.18988 0.58435 0.54143 0.0
C3153 C 0.1993 0.59115 0.56031 0.0
C3154 C 0.21365 0.58348 0.56638 0.0
C3155 C 0.22261 0.59006 0.58409 0.0
C3156 C 0.21729 0.60424 0.59591 0.0
C3157 C 0.20297 0.61184 0.59006 0.0
C3158 C 0.19396 0.60532 0.57235 0.0
C3159 C 0.11389 0.55157 0.53422 0.0
C3160 C 0.10267 0.55666 0.52074 0.0
C3161 C 0.13266 0.55622 0.53468 0.0
C3162 C 0.14093 0.56627 0.5218 0.0
C3163 C 0.12964 0.57174 0.50861 0.0
C3164 C 0.11091 0.56681 0.50793 0.0
C3165 C 0.16116 0.57141 0.52253 0.0
C3166 C 0.17111 0.57854 0.53984 0.0
C3167 C 0.17077 0.5697 0.50641 0.0
C3168 C 0.16168 0.56124 0.48773 0.0
C3169 C 0.16336 0.57085 0.47276 0.0
C3170 C 0.1546 0.56296 0.45521 0.0
C3171 C 0.14417 0.54541 0.45243 0.0
C3172 C 0.14259 0.53569 0.46717 0.0
C3173 C 0.15132 0.54351 0.48474 0.0
H3174 H 0.13739 0.53932 0.43884 0.0
H3175 H 0.22426 0.60932 0.60961 0.0
H3176 H 0.71943 0.01041 0.73783 0.0
H3177 H 0.73699 0.9863 0.73873 0.0
H3178 H 0.69557 0.95608 0.76526 0.0
H3179 H 0.67802 0.98005 0.76449 0.0
H3180 H 0.72812 0.9647 0.78585 0.0
H3181 H 0.70457 0.93903 0.7227 0.0
H3182 H 0.69793 0.93929 0.6893 0.0
H3183 H 0.75394 0.95375 0.68328 0.0
H3184 H 0.76091 0.95385 0.71673 0.0
H3185 H 0.76203 0.88617 0.79541 0.0
H3186 H 0.74397 0.90764 0.78669 0.0
H3187 H 0.78635 0.93122 0.75649 0.0
H3188 H 0.80441 0.90932 0.76488 0.0
H3189 H 0.75477 0.92707 0.73695 0.0
H3190 H 0.77871 0.9532 0.79937 0.0
H3191 H 0.78607 0.95373 0.83281 0.0
H3192 H 0.73032 0.93998 0.84034 0.0
H3193 H 0.72262 0.93912 0.80688 0.0
C3194 C 0.71386 0.99839 0.74339 0.0
C3195 C 0.69749 0.99722 0.75135 0.0
C3196 C 0.72389 0.98462 0.74384 0.0
C3197 C 0.7176 0.96951 0.75218 0.0
C3198 C 0.70066 0.9677 0.75885 0.0
C3199 C 0.69066 0.98141 0.7584 0.0
C3200 C 0.72954 0.95697 0.75635 0.0
C3201 C 0.73374 0.95625 0.77514 0.0
C3202 C 0.73743 0.94661 0.74238 0.0
C3203 C 0.73325 0.94665 0.72228 0.0
C3204 C 0.71547 0.94246 0.71431 0.0
C3205 C 0.71164 0.94249 0.69535 0.0
C3206 C 0.7255 0.94659 0.68419 0.0
C3207 C 0.74321 0.95061 0.69195 0.0
C3208 C 0.74711 0.95061 0.71091 0.0
C3209 C 0.7676 0.8961 0.78713 0.0
C3210 C 0.78471 0.89631 0.78105 0.0
C3211 C 0.75725 0.90832 0.7821 0.0
C3212 C 0.76394 0.92123 0.7712 0.0
C3213 C 0.78098 0.92139 0.76495 0.0
C3214 C 0.79128 0.90897 0.76981 0.0
C3215 C 0.75303 0.93453 0.76646 0.0
C3216 C 0.74915 0.93552 0.74764 0.0
C3217 C 0.74552 0.94535 0.78041 0.0
C3218 C 0.7501 0.94595 0.80058 0.0
C3219 C 0.76802 0.95016 0.80813 0.0
C3220 C 0.77225 0.95054 0.82709 0.0
C3221 C 0.75867 0.94685 0.83869 0.0
C3222 C 0.74083 0.94282 0.83134 0.0
C3223 C 0.73652 0.94241 0.81238 0.0
H3224 H 0.76198 0.94715 0.85337 0.0
H3225 H 0.72251 0.94659 0.66951 0.0
H3226 H 0.77513 0.93606 0.55039 0.0
H3227 H 0.74928 0.95111 0.54978 0.0
H3228 H 0.71528 0.89944 0.52654 0.0
H3229 H 0.74114 0.88437 0.52682 0.0
H3230 H 0.70834 0.92452 0.50756 0.0
H3231 H 0.71398 0.92101 0.57226 0.0
H3232 H 0.72921 0.92503 0.6038 0.0
H3233 H 0.74076 0.98319 0.60631 0.0
H3234 H 0.72581 0.97951 0.57465 0.0
H3235 H 0.62689 0.95776 0.51471 0.0
H3236 H 0.65093 0.94091 0.51945 0.0
H3237 H 0.68739 0.99168 0.5401 0.0
H3238 H 0.66332 1.00859 0.53585 0.0
H3239 H 0.69221 0.96612 0.56102 0.0
H3240 H 0.6874 0.96905 0.49557 0.0
H3241 H 0.67185 0.96467 0.46413 0.0
H3242 H 0.65832 0.90685 0.46338 0.0
H3243 H 0.6736 0.91092 0.49494 0.0
C3244 C 0.76211 0.92784 0.54539 0.0
C3245 C 0.76024 0.90898 0.53868 0.0
C3246 C 0.74729 0.93647 0.54509 0.0
C3247 C 0.7302 0.92644 0.53822 0.0
C3248 C 0.72827 0.90753 0.53189 0.0
C3249 C 0.74309 0.8989 0.53215 0.0
C3250 C 0.71456 0.93579 0.53674 0.0
C3251 C 0.70466 0.93336 0.51937 0.0
C3252 C 0.70988 0.94769 0.55198 0.0
C3253 C 0.71892 0.94997 0.571 0.0
C3254 C 0.7199 0.93465 0.57947 0.0
C3255 C 0.72846 0.93687 0.59738 0.0
C3256 C 0.73598 0.95435 0.60704 0.0
C3257 C 0.73494 0.96966 0.5988 0.0
C3258 C 0.72641 0.96751 0.58088 0.0
C3259 C 0.63996 0.96535 0.52048 0.0
C3260 C 0.64313 0.98459 0.52479 0.0
C3261 C 0.65376 0.95569 0.52303 0.0
C3262 C 0.67109 0.965 0.52992 0.0
C3263 C 0.67419 0.98415 0.53469 0.0
C3264 C 0.66042 0.99383 0.53209 0.0
C3265 C 0.68607 0.95486 0.53185 0.0
C3266 C 0.69586 0.95718 0.54928 0.0
C3267 C 0.69062 0.94279 0.51669 0.0
C3268 C 0.68147 0.94031 0.4977 0.0
C3269 C 0.68099 0.95542 0.48876 0.0
C3270 C 0.67225 0.95299 0.47091 0.0
C3271 C 0.66406 0.9355 0.46178 0.0
C3272 C 0.66464 0.92039 0.47048 0.0
C3273 C 0.67335 0.92275 0.48834 0.0
H3274 H 0.6573 0.93365 0.44796 0.0
H3275 H 0.74259 0.95604 0.62091 0.0
H3276 H 0.42179 0.48256 0.77277 0.0
H3277 H 0.40445 0.45234 0.77181 0.0
H3278 H 0.35638 0.47153 0.75797 0.0
H3279 H 0.37406 0.50269 0.75919 0.0
H3280 H 0.3481 0.44644 0.78058 0.0
H3281 H 0.37818 0.44225 0.72504 0.0
H3282 H 0.40379 0.44577 0.70608 0.0
H3283 H 0.42916 0.41152 0.73643 0.0
H3284 H 0.4038 0.40798 0.75574 0.0
H3285 H 0.2984 0.35305 0.76055 0.0
H3286 H 0.31279 0.38461 0.75999 0.0
H3287 H 0.36441 0.36985 0.76693 0.0
H3288 H 0.34997 0.33808 0.76681 0.0
H3289 H 0.36955 0.39332 0.74643 0.0
H3290 H 0.34054 0.39857 0.80298 0.0
H3291 H 0.31533 0.39522 0.82251 0.0
H3292 H 0.28832 0.42735 0.79093 0.0
H3293 H 0.31329 0.43071 0.77107 0.0
C3294 C 0.40753 0.48076 0.7694 0.0
C3295 C 0.39981 0.4959 0.76592 0.0
C3296 C 0.39742 0.46294 0.76873 0.0
C3297 C 0.37873 0.45868 0.76437 0.0
C3298 C 0.37069 0.47377 0.76126 0.0
C3299 C 0.38095 0.49189 0.76192 0.0
C3300 C 0.36817 0.4387 0.76319 0.0
C3301 C 0.35275 0.43495 0.7728 0.0
C3302 C 0.37392 0.42295 0.75356 0.0
C3303 C 0.38915 0.42498 0.74194 0.0
C3304 C 0.38927 0.43556 0.72774 0.0
C3305 C 0.40373 0.43755 0.71693 0.0
C3306 C 0.41811 0.42891 0.72008 0.0
C3307 C 0.41802 0.41822 0.73402 0.0
C3308 C 0.4036 0.4162 0.74489 0.0
C3309 C 0.31285 0.35636 0.76198 0.0
C3310 C 0.32271 0.34234 0.76376 0.0
C3311 C 0.32126 0.37484 0.76186 0.0
C3312 C 0.34012 0.38064 0.76385 0.0
C3313 C 0.34997 0.36653 0.7654 0.0
C3314 C 0.34155 0.34801 0.76538 0.0
C3315 C 0.34953 0.40092 0.76401 0.0
C3316 C 0.36481 0.40475 0.75421 0.0
C3317 C 0.34368 0.4167 0.77353 0.0
C3318 C 0.32869 0.41472 0.78543 0.0
C3319 C 0.32917 0.40482 0.80013 0.0
C3320 C 0.31494 0.40293 0.81127 0.0
C3321 C 0.30021 0.41102 0.80793 0.0
C3322 C 0.29972 0.42106 0.79348 0.0
C3323 C 0.31391 0.42297 0.78229 0.0
H3324 H 0.28921 0.40955 0.81656 0.0
H3325 H 0.4293 0.43047 0.71169 0.0
H3326 H 0.18338 0.62001 0.26264 0.0
H3327 H 0.20255 0.64551 0.25293 0.0
H3328 H 0.2325 0.60829 0.2236 0.0
H3329 H 0.21356 0.58263 0.23359 0.0
H3330 H 0.25432 0.6367 0.2434 0.0
H3331 H 0.20457 0.62906 0.1991 0.0
H3332 H 0.17278 0.62441 0.18766 0.0
H3333 H 0.16853 0.67587 0.22037 0.0
H3334 H 0.2002 0.68072 0.23224 0.0
H3335 H 0.27359 0.73585 0.21692 0.0
H3336 H 0.26213 0.70273 0.20738 0.0
H3337 H 0.26381 0.69661 0.26516 0.0
H3338 H 0.27479 0.72931 0.27461 0.0
H3339 H 0.22976 0.6854 0.21814 0.0
H3340 H 0.27464 0.65685 0.26978 0.0
H3341 H 0.30649 0.66178 0.28101 0.0
H3342 H 0.32102 0.68216 0.23138 0.0
H3343 H 0.28927 0.67712 0.21969 0.0
C3344 C 0.19396 0.61719 0.25404 0.0
C3345 C 0.1969 0.59925 0.2489 0.0
C3346 C 0.20484 0.63178 0.24836 0.0
C3347 C 0.21874 0.62876 0.23721 0.0
C3348 C 0.22176 0.6109 0.23207 0.0
C3349 C 0.21093 0.59627 0.23784 0.0
C3350 C 0.23069 0.6445 0.23204 0.0
C3351 C 0.24902 0.64723 0.2376 0.0
C3352 C 0.22385 0.65796 0.22386 0.0
C3353 C 0.2048 0.65524 0.21658 0.0
C3354 C 0.19685 0.63935 0.20392 0.0
C3355 C 0.17884 0.63668 0.19736 0.0
C3356 C 0.16864 0.64983 0.20328 0.0
C3357 C 0.17645 0.66571 0.21577 0.0
C3358 C 0.19444 0.66844 0.22239 0.0
C3359 C 0.2718 0.72727 0.22746 0.0
C3360 C 0.27486 0.73499 0.24646 0.0
C3361 C 0.26528 0.70846 0.22203 0.0
C3362 C 0.26233 0.69726 0.23558 0.0
C3363 C 0.26627 0.70495 0.25449 0.0
C3364 C 0.27237 0.72364 0.25987 0.0
C3365 C 0.25305 0.67801 0.23066 0.0
C3366 C 0.23518 0.67459 0.22327 0.0
C3367 C 0.26033 0.66387 0.23701 0.0
C3368 C 0.27951 0.66662 0.24386 0.0
C3369 C 0.28461 0.66223 0.26117 0.0
C3370 C 0.30266 0.66509 0.26764 0.0
C3371 C 0.31577 0.6723 0.25693 0.0
C3372 C 0.31085 0.67662 0.23969 0.0
C3373 C 0.29282 0.67379 0.23314 0.0
H3374 H 0.32973 0.67452 0.26198 0.0
H3375 H 0.1547 0.64773 0.1982 0.0
H3376 H 0.53528 0.74569 0.40539 0.0
H3377 H 0.54694 0.72055 0.41597 0.0
H3378 H 0.50561 0.71498 0.4535 0.0
H3379 H 0.494 0.74018 0.44322 0.0
H3380 H 0.53914 0.72271 0.47116 0.0
H3381 H 0.50704 0.68102 0.41769 0.0
H3382 H 0.49838 0.67028 0.38412 0.0
H3383 H 0.55296 0.66797 0.37482 0.0
H3384 H 0.56198 0.67892 0.40833 0.0
H3385 H 0.55223 0.64904 0.5125 0.0
H3386 H 0.5407 0.66949 0.49433 0.0
H3387 H 0.58365 0.66672 0.45879 0.0
H3388 H 0.59502 0.64558 0.47682 0.0
H3389 H 0.55235 0.6642 0.43868 0.0
H3390 H 0.58454 0.70472 0.49175 0.0
H3391 H 0.5938 0.71597 0.52514 0.0
H3392 H 0.54003 0.72168 0.53484 0.0
H3393 H 0.53039 0.71023 0.50155 0.0
C3394 C 0.52835 0.73875 0.41549 0.0
C3395 C 0.51394 0.74512 0.42376 0.0
C3396 C 0.53501 0.72437 0.42148 0.0
C3397 C 0.52721 0.71609 0.43562 0.0
C3398 C 0.51187 0.72135 0.44266 0.0
C3399 C 0.50528 0.73576 0.4368 0.0
C3400 C 0.53642 0.70402 0.44507 0.0
C3401 C 0.5418 0.70978 0.46411 0.0
C3402 C 0.54065 0.68767 0.43561 0.0
C3403 C 0.53521 0.68096 0.41549 0.0
C3404 C 0.51722 0.67837 0.40846 0.0
C3405 C 0.51224 0.6722 0.38945 0.0
C3406 C 0.52512 0.66849 0.37734 0.0
C3407 C 0.543 0.67087 0.38422 0.0
C3408 C 0.54805 0.67703 0.40322 0.0
C3409 C 0.55941 0.65304 0.50102 0.0
C3410 C 0.57472 0.64611 0.49626 0.0
C3411 C 0.55278 0.66466 0.4906 0.0
C3412 C 0.56154 0.66989 0.47546 0.0
C3413 C 0.57678 0.66289 0.47052 0.0
C3414 C 0.58331 0.65098 0.48084 0.0
C3415 C 0.55451 0.68264 0.4649 0.0
C3416 C 0.54973 0.67716 0.44568 0.0
C3417 C 0.55093 0.69941 0.47413 0.0
C3418 C 0.55673 0.70652 0.49415 0.0
C3419 C 0.57467 0.70828 0.50102 0.0
C3420 C 0.57999 0.71471 0.51993 0.0
C3421 C 0.56751 0.71952 0.53211 0.0
C3422 C 0.54969 0.71796 0.52539 0.0
C3423 C 0.54429 0.71153 0.50649 0.0
H3424 H 0.57165 0.72447 0.54675 0.0
H3425 H 0.52124 0.66373 0.36262 0.0
H3426 H 0.61469 0.29623 0.67905 0.0
H3427 H 0.63954 0.30364 0.70324 0.0
H3428 H 0.66881 0.34072 0.67176 0.0
H3429 H 0.64416 0.33309 0.64726 0.0
H3430 H 0.68797 0.31728 0.681 0.0
H3431 H 0.6528 0.35631 0.71367 0.0
H3432 H 0.62564 0.36421 0.72686 0.0
H3433 H 0.62617 0.32418 0.76242 0.0
H3434 H 0.65319 0.31584 0.74926 0.0
H3435 H 0.76232 0.33512 0.74406 0.0
H3436 H 0.73632 0.34341 0.72873 0.0
H3437 H 0.7015 0.30597 0.75547 0.0
H3438 H 0.72762 0.29833 0.77148 0.0
H3439 H 0.68577 0.33387 0.74927 0.0
H3440 H 0.71772 0.29212 0.71429 0.0
H3441 H 0.74351 0.28193 0.70002 0.0
H3442 H 0.7475 0.32485 0.66753 0.0
H3443 H 0.72204 0.33562 0.68198 0.0
C3444 C 0.6263 0.30615 0.67736 0.0
C3445 C 0.62752 0.31392 0.66112 0.0
C3446 C 0.64045 0.31049 0.6913 0.0
C3447 C 0.65595 0.32286 0.68938 0.0
C3448 C 0.65693 0.33116 0.67352 0.0
C3449 C 0.64286 0.32673 0.6595 0.0
C3450 C 0.67185 0.32553 0.70284 0.0
C3451 C 0.68762 0.32138 0.6959 0.0
C3452 C 0.67115 0.33027 0.72231 0.0
C3453 C 0.65498 0.33537 0.73038 0.0
C3454 C 0.64706 0.3491 0.72421 0.0
C3455 C 0.6317 0.35367 0.7317 0.0
C3456 C 0.62417 0.34469 0.74545 0.0
C3457 C 0.63202 0.33114 0.75177 0.0
C3458 C 0.64738 0.3265 0.74432 0.0
C3459 C 0.74908 0.32927 0.7472 0.0
C3460 C 0.74678 0.31608 0.75877 0.0
C3461 C 0.73428 0.33392 0.73841 0.0
C3462 C 0.71703 0.32489 0.74056 0.0
C3463 C 0.71472 0.31301 0.75356 0.0
C3464 C 0.72958 0.30867 0.76271 0.0
C3465 C 0.70183 0.32565 0.72736 0.0
C3466 C 0.68619 0.33024 0.73434 0.0
C3467 C 0.70253 0.3211 0.70784 0.0
C3468 C 0.71811 0.31483 0.69942 0.0
C3469 C 0.72423 0.29952 0.70427 0.0
C3470 C 0.73877 0.29362 0.69613 0.0
C3471 C 0.74712 0.30272 0.68287 0.0
C3472 C 0.74101 0.31781 0.6778 0.0
C3473 C 0.72657 0.32386 0.68602 0.0
H3474 H 0.75833 0.29808 0.67652 0.0
H3475 H 0.61227 0.34824 0.75122 0.0
H3476 H 0.99362 0.32247 0.94981 0.0
H3477 H 0.9893 0.35087 0.96848 0.0
H3478 H 0.01176 0.38093 0.92727 0.0
H3479 H 0.01585 0.35233 0.90821 0.0
H3480 H 0.01581 0.37702 0.98388 0.0
H3481 H 0.996 0.42058 0.92963 0.0
H3482 H 0.97724 0.41601 0.89995 0.0
H3483 H 0.94511 0.36826 0.9139 0.0
H3484 H 0.96348 0.3727 0.9438 0.0
H3485 H 0.05143 0.47017 1.00267 0.0
H3486 H 0.0404 0.43801 0.9896 0.0
H3487 H 0.98703 0.44393 1.00209 0.0
H3488 H 0.9981 0.47633 0.01553 0.0
H3489 H 0.99046 0.42789 0.96416 0.0
H3490 H 1.00444 0.41904 0.02582 0.0
H3491 H 0.02256 0.42348 0.05587 0.0
H3492 H 0.06379 0.40087 0.02827 0.0
H3493 H 0.04603 0.39655 0.998 0.0
C3494 C 0.99735 0.33507 0.94451 0.0
C3495 C 1.00525 0.33524 0.92763 0.0
C3496 C 0.99484 0.35128 0.95522 0.0
C3497 C 1.0002 0.36798 0.94928 0.0
C3498 C 1.00731 0.36814 0.93198 0.0
C3499 C 1.00972 0.35183 0.92115 0.0
C3500 C 1.00036 0.38529 0.96215 0.0
C3501 C 1.01006 0.38806 0.97965 0.0
C3502 C 0.99253 0.39953 0.95678 0.0
C3503 C 0.98122 0.39692 0.93893 0.0
C3504 C 0.98487 0.40917 0.92643 0.0
C3505 C 0.97431 0.40659 0.90955 0.0
C3506 C 0.96002 0.39183 0.90503 0.0
C3507 C 0.95622 0.37965 0.9174 0.0
C3508 C 0.96672 0.38218 0.9343 0.0
C3509 C 0.03738 0.46457 1.00286 0.0
C3510 C 0.02558 0.47567 0.01003 0.0
C3511 C 0.03112 0.44622 0.99546 0.0
C3512 C 0.01294 0.43869 0.99494 0.0
C3513 C 1.00112 0.44958 1.00245 0.0
C3514 C 1.00746 0.46797 0.01018 0.0
C3515 C 1.00647 0.41969 0.98543 0.0
C3516 C 0.99574 0.41664 0.96853 0.0
C3517 C 0.01318 0.40509 0.99141 0.0
C3518 C 0.0239 0.40753 0.00961 0.0
C3519 C 0.01742 0.41512 0.02613 0.0
C3520 C 0.02762 0.4176 0.04321 0.0
C3521 C 0.04432 0.41247 0.04398 0.0
C3522 C 0.05084 0.40483 0.02766 0.0
C3523 C 0.04069 0.40233 0.01054 0.0
H3524 H 0.0522 0.41441 0.05721 0.0
H3525 H 0.95188 0.38984 0.89194 0.0
H3526 H 1.00711 0.7625 0.12186 0.0
H3527 H 0.97829 0.75526 0.13448 0.0
H3528 H 1.00532 0.75234 0.18722 0.0
H3529 H 0.03409 0.75912 0.17462 0.0
H3530 H 0.97442 0.72802 0.1803 0.0
H3531 H 0.99462 0.79228 0.17859 0.0
H3532 H 1.00456 0.81856 0.16312 0.0
H3533 H 0.95509 0.80591 0.12831 0.0
H3534 H 0.94497 0.77938 0.14341 0.0
H3535 H 0.92264 0.76157 0.24995 0.0
H3536 H 0.94549 0.75645 0.22877 0.0
H3537 H 0.90843 0.75674 0.18189 0.0
H3538 H 0.88533 0.7615 0.20295 0.0
H3539 H 0.94095 0.77888 0.18144 0.0
H3540 H 0.91911 0.71727 0.18822 0.0
H3541 H 0.90989 0.69211 0.20538 0.0
H3542 H 0.96295 0.70075 0.23239 0.0
H3543 H 0.97244 0.72616 0.2156 0.0
C3544 C 1.00689 0.75987 0.136 0.0
C3545 C 0.02284 0.76169 0.14738 0.0
C3546 C 0.99042 0.75577 0.14319 0.0
C3547 C 0.98972 0.75367 0.16189 0.0
C3548 C 1.00558 0.75399 0.17277 0.0
C3549 C 0.02202 0.75795 0.16556 0.0
C3550 C 0.97285 0.75335 0.17086 0.0
C3551 C 0.96708 0.73912 0.18057 0.0
C3552 C 0.96313 0.76771 0.17093 0.0
C3553 C 0.96914 0.78373 0.16196 0.0
C3554 C 0.98592 0.79504 0.16755 0.0
C3555 C 0.99158 0.80998 0.15885 0.0
C3556 C 0.98049 0.81387 0.1447 0.0
C3557 C 0.96369 0.80285 0.13924 0.0
C3558 C 0.95798 0.78787 0.14786 0.0
C3559 C 0.91926 0.76029 0.23512 0.0
C3560 C 0.90217 0.76195 0.22813 0.0
C3561 C 0.93232 0.75736 0.22304 0.0
C3562 C 0.92854 0.756 0.20377 0.0
C3563 C 0.91156 0.75771 0.19673 0.0
C3564 C 0.89844 0.76057 0.2088 0.0
C3565 C 0.94269 0.75372 0.19116 0.0
C3566 C 0.948 0.76753 0.18083 0.0
C3567 C 0.95206 0.73909 0.19071 0.0
C3568 C 0.94646 0.7237 0.20073 0.0
C3569 C 0.92879 0.71389 0.19792 0.0
C3570 C 0.92351 0.69957 0.20756 0.0
C3571 C 0.93582 0.69485 0.21999 0.0
C3572 C 0.95344 0.70442 0.22276 0.0
C3573 C 0.95877 0.71877 0.21316 0.0
H3574 H 0.93171 0.68376 0.22745 0.0
H3575 H 0.9849 0.82544 0.13798 0.0
H3576 H 0.51204 0.33503 0.13957 0.0
H3577 H 0.52191 0.35984 0.12244 0.0
H3578 H 0.51401 0.32094 0.07104 0.0
H3579 H 0.50453 0.29618 0.08804 0.0
H3580 H 0.54511 0.34294 0.0733 0.0
H3581 H 0.48476 0.35058 0.08227 0.0
H3582 H 0.45899 0.35538 0.09997 0.0
H3583 H 0.48916 0.40609 0.13043 0.0
H3584 H 0.51517 0.40151 0.11303 0.0
H3585 H 0.54863 0.40267 1.00746 0.0
H3586 H 0.53971 0.37938 0.02647 0.0
H3587 H 0.54905 0.4209 0.0759 0.0
H3588 H 0.55714 0.44436 0.05693 0.0
H3589 H 0.51828 0.39847 0.07593 0.0
H3590 H 0.5783 0.39118 0.06553 0.0
H3591 H 0.60334 0.38658 0.04664 0.0
H3592 H 0.57325 0.33499 0.01813 0.0
H3593 H 0.54793 0.33938 0.03668 0.0
C3594 C 0.51232 0.33182 0.12461 0.0
C3595 C 0.50754 0.31367 0.11515 0.0
C3596 C 0.5179 0.346 0.11483 0.0
C3597 C 0.51859 0.34226 0.09542 0.0
C3598 C 0.51364 0.32415 0.08599 0.0
C3599 C 0.50818 0.31001 0.09574 0.0
C3600 C 0.52501 0.35702 0.08489 0.0
C3601 C 0.53911 0.35499 0.07373 0.0
C3602 C 0.5175 0.37298 0.08581 0.0
C3603 C 0.50198 0.37559 0.0965 0.0
C3604 C 0.48596 0.36267 0.09287 0.0
C3605 C 0.47129 0.36537 0.10281 0.0
C3606 C 0.47245 0.381 0.11635 0.0
C3607 C 0.48828 0.39398 0.11996 0.0
C3608 C 0.50299 0.39134 0.11005 0.0
C3609 C 0.54875 0.40687 0.02237 0.0
C3610 C 0.55368 0.42541 0.03064 0.0
C3611 C 0.54381 0.3935 0.03325 0.0
C3612 C 0.54392 0.39837 0.05265 0.0
C3613 C 0.54894 0.41682 0.06097 0.0
C3614 C 0.55377 0.4302 0.0501 0.0
C3615 C 0.53826 0.38428 0.06422 0.0
C3616 C 0.52435 0.38646 0.0756 0.0
C3617 C 0.54589 0.36842 0.06345 0.0
C3618 C 0.56117 0.36568 0.0524 0.0
C3619 C 0.57698 0.37891 0.05515 0.0
C3620 C 0.59123 0.37633 0.04451 0.0
C3621 C 0.58987 0.36052 0.03116 0.0
C3622 C 0.57428 0.34723 0.02846 0.0
C3623 C 0.55998 0.34975 0.03905 0.0
H3624 H 0.60092 0.35856 0.02294 0.0
H3625 H 0.46108 0.38308 0.12401 0.0
H3626 H 0.0484 0.30448 0.36677 0.0
H3627 H 0.0203 0.30208 0.34795 0.0
H3628 H 0.99322 0.31077 0.39777 0.0
H3629 H 0.02143 0.31353 0.41691 0.0
H3630 H 0.97633 0.27924 0.36244 0.0
H3631 H 0.99811 0.34525 0.38442 0.0
H3632 H 0.0218 0.37279 0.38973 0.0
H3633 H 0.03114 0.36349 0.33191 0.0
H3634 H 1.00734 0.33594 0.32622 0.0
H3635 H 0.89662 0.30324 0.32804 0.0
H3636 H 0.92358 0.29999 0.34584 0.0
H3637 H 0.9551 0.31551 0.30192 0.0
H3638 H 0.92825 0.31962 0.28439 0.0
H3639 H 0.97032 0.33352 0.33387 0.0
H3640 H 0.94681 0.271 0.30985 0.0
H3641 H 0.92468 0.24225 0.30245 0.0
H3642 H 0.92041 0.24216 0.36077 0.0
H3643 H 0.94237 0.27104 0.36854 0.0
C3644 C 0.03646 0.30563 0.37379 0.0
C3645 C 0.03715 0.30925 0.39336 0.0
C3646 C 0.02044 0.30424 0.36299 0.0
C3647 C 1.00481 0.3062 0.37153 0.0
C3648 C 1.00522 0.30912 0.39101 0.0
C3649 C 0.02132 0.31077 0.40188 0.0
C3650 C 0.98844 0.30662 0.36001 0.0
C3651 C 0.97478 0.29114 0.35638 0.0
C3652 C 0.98693 0.3219 0.35159 0.0
C3653 C 1.0011 0.33849 0.35494 0.0
C3654 C 1.00531 0.34902 0.37288 0.0
C3655 C 0.01873 0.36464 0.37596 0.0
C3656 C 0.02809 0.36981 0.36123 0.0
C3657 C 0.02392 0.35945 0.34333 0.0
C3658 C 0.01042 0.34388 0.34015 0.0
C3659 C 0.9093 0.30609 0.32221 0.0
C3660 C 0.91031 0.31182 0.30485 0.0
C3661 C 0.92468 0.30395 0.33229 0.0
C3662 C 0.94133 0.30729 0.32512 0.0
C3663 C 0.94236 0.31279 0.30768 0.0
C3664 C 0.927 0.31502 0.29763 0.0
C3665 C 0.95779 0.30615 0.33634 0.0
C3666 C 0.97164 0.32152 0.33988 0.0
C3667 C 0.95952 0.29058 0.34437 0.0
C3668 C 0.94612 0.27332 0.33978 0.0
C3669 C 0.94103 0.26496 0.32111 0.0
C3670 C 0.92854 0.24861 0.31684 0.0
C3671 C 0.9211 0.24042 0.33113 0.0
C3672 C 0.92617 0.24854 0.34972 0.0
C3673 C 0.93865 0.26489 0.35406 0.0
H3674 H 0.91145 0.22776 0.3278 0.0
H3675 H 0.03852 0.38188 0.36367 0.0
H3676 H 0.99102 0.71346 0.58591 0.0
H3677 H 0.99154 0.68089 0.58002 0.0
H3678 H 1.00758 0.6832 0.63817 0.0
H3679 H 1.00699 0.71608 0.64419 0.0
H3680 H 0.0304 0.66892 0.61525 0.0
H3681 H 0.9685 0.65681 0.62024 0.0
H3682 H 0.93703 0.65997 0.61584 0.0
H3683 H 0.93678 0.6431 0.55679 0.0
H3684 H 0.96834 0.6401 0.56077 0.0
H3685 H 0.03676 0.57527 0.57798 0.0
H3686 H 0.02694 0.60045 0.59792 0.0
H3687 H 0.01134 0.62154 0.54919 0.0
H3688 H 0.0213 0.59675 0.52927 0.0
H3689 H 0.98546 0.61984 0.57607 0.0
H3690 H 0.04906 0.6403 0.57159 0.0
H3691 H 0.08087 0.63821 0.57571 0.0
H3692 H 0.07746 0.63985 0.6344 0.0
H3693 H 0.04553 0.64167 0.63057 0.0
C3694 C 0.99423 0.70696 0.59754 0.0
C3695 C 0.99905 0.71728 0.61548 0.0
C3696 C 0.99441 0.6883 0.59419 0.0
C3697 C 0.9995 0.67959 0.60868 0.0
C3698 C 1.0035 0.68967 0.62683 0.0
C3699 C 1.00309 0.70839 0.63025 0.0
C3700 C 1.00287 0.66072 0.60404 0.0
C3701 C 0.02042 0.65796 0.60722 0.0
C3702 C 0.98989 0.64653 0.59337 0.0
C3703 C 0.97086 0.64827 0.59082 0.0
C3704 C 0.96179 0.65389 0.60629 0.0
C3705 C 0.94392 0.65563 0.60388 0.0
C3706 C 0.93492 0.65175 0.58605 0.0
C3707 C 0.94377 0.64609 0.5706 0.0
C3708 C 0.96165 0.64432 0.57293 0.0
C3709 C 0.03122 0.58528 0.57154 0.0
C3710 C 0.02993 0.58413 0.55207 0.0
C3711 C 0.02561 0.5996 0.58294 0.0
C3712 C 0.01838 0.61276 0.57497 0.0
C3713 C 0.0168 0.61143 0.55556 0.0
C3714 C 0.02265 0.59735 0.54422 0.0
C3715 C 0.01307 0.62847 0.58666 0.0
C3716 C 0.99521 0.63058 0.58472 0.0
C3717 C 0.02573 0.64206 0.59848 0.0
C3718 C 0.04486 0.6408 0.60075 0.0
C3719 C 0.05504 0.63998 0.58534 0.0
C3720 C 0.0731 0.6389 0.58762 0.0
C3721 C 0.08116 0.63881 0.60529 0.0
C3722 C 0.07119 0.63985 0.62072 0.0
C3723 C 0.05311 0.6409 0.61849 0.0
H3724 H 0.09516 0.638 0.60704 0.0
H3725 H 0.92108 0.65311 0.58421 0.0
H3726 H 0.65314 0.82005 0.89777 0.0
H3727 H 0.6767 0.81657 0.87705 0.0
H3728 H 0.63827 0.78099 0.83532 0.0
H3729 H 0.61455 0.78467 0.85584 0.0
H3730 H 0.69028 0.78853 0.86068 0.0
H3731 H 0.64863 0.78997 0.79251 0.0
H3732 H 0.62207 0.80153 0.78225 0.0
H3733 H 0.63172 0.84405 0.83046 0.0
H3734 H 0.65847 0.83288 0.84087 0.0
H3735 H 0.73316 0.76041 0.78161 0.0
H3736 H 0.70869 0.76434 0.80079 0.0
H3737 H 0.72204 0.82275 0.804 0.0
H3738 H 0.747 0.81906 0.78499 0.0
H3739 H 0.6835 0.80596 0.79827 0.0
H3740 H 0.73699 0.80962 0.83766 0.0
H3741 H 0.76406 0.80002 0.84962 0.0
H3742 H 0.7322 0.75096 0.86114 0.0
H3743 H 0.70494 0.76002 0.84875 0.0
C3744 C 0.64974 0.81128 0.88428 0.0
C3745 C 0.63199 0.80276 0.87835 0.0
C3746 C 0.66321 0.80932 0.87246 0.0
C3747 C 0.65914 0.79882 0.85454 0.0
C3748 C 0.6416 0.78947 0.84897 0.0
C3749 C 0.6281 0.79149 0.86075 0.0
C3750 C 0.67318 0.79818 0.84151 0.0
C3751 C 0.68878 0.79229 0.84702 0.0
C3752 C 0.67131 0.80341 0.82382 0.0
C3753 C 0.65545 0.81047 0.81754 0.0
C3754 C 0.64512 0.80183 0.80087 0.0
C3755 C 0.63003 0.80831 0.79504 0.0
C3756 C 0.62518 0.82348 0.80572 0.0
C3757 C 0.63546 0.83226 0.82223 0.0
C3758 C 0.65058 0.82585 0.82811 0.0
C3759 C 0.73078 0.77412 0.78607 0.0
C3760 C 0.74215 0.78946 0.7819 0.0
C3761 C 0.71681 0.7763 0.79709 0.0
C3762 C 0.71379 0.79381 0.80394 0.0
C3763 C 0.72429 0.80913 0.79883 0.0
C3764 C 0.7385 0.80699 0.78799 0.0
C3765 C 0.70039 0.79603 0.81738 0.0
C3766 C 0.68494 0.80217 0.81192 0.0
C3767 C 0.70248 0.79123 0.83522 0.0
C3768 C 0.71892 0.78541 0.84204 0.0
C3769 C 0.73576 0.79663 0.84243 0.0
C3770 C 0.75113 0.79132 0.84934 0.0
C3771 C 0.74982 0.7749 0.85612 0.0
C3772 C 0.73317 0.76367 0.85585 0.0
C3773 C 0.71776 0.76888 0.84885 0.0
H3774 H 0.76169 0.77096 0.86172 0.0
H3775 H 0.61348 0.82846 0.8012 0.0
H3776 H 0.45727 0.57983 0.71569 0.0
H3777 H 0.4718 0.57839 0.68649 0.0
H3778 H 0.45264 0.52024 0.67386 0.0
H3779 H 0.43878 0.52174 0.7033 0.0
H3780 H 0.48199 0.52248 0.66202 0.0
H3781 H 0.43914 0.55871 0.64857 0.0
H3782 H 0.42288 0.58436 0.65315 0.0
H3783 H 0.47187 0.6225 0.65386 0.0
H3784 H 0.48845 0.59708 0.6495 0.0
H3785 H 0.50586 0.51161 0.56598 0.0
H3786 H 0.49022 0.51429 0.5945 0.0
H3787 H 0.51949 0.56916 0.61214 0.0
H3788 H 0.5354 0.56638 0.58382 0.0
H3789 H 0.48524 0.56894 0.621 0.0
H3790 H 0.52741 0.53122 0.63317 0.0
H3791 H 0.54241 0.50474 0.62714 0.0
H3792 H 0.49252 0.46823 0.6272 0.0
H3793 H 0.47716 0.4945 0.63299 0.0
C3794 C 0.45547 0.56679 0.70642 0.0
C3795 C 0.44577 0.55105 0.71207 0.0
C3796 C 0.46407 0.56588 0.68938 0.0
C3797 C 0.46355 0.54915 0.67683 0.0
C3798 C 0.45369 0.53351 0.68252 0.0
C3799 C 0.44528 0.53443 0.69955 0.0
C3800 C 0.47358 0.54763 0.65851 0.0
C3801 C 0.48227 0.53266 0.65308 0.0
C3802 C 0.47491 0.56069 0.64615 0.0
C3803 C 0.46506 0.57601 0.64893 0.0
C3804 C 0.44646 0.57258 0.64985 0.0
C3805 C 0.43718 0.58707 0.65238 0.0
C3806 C 0.44635 0.60505 0.65386 0.0
C3807 C 0.4648 0.60857 0.65276 0.0
C3808 C 0.47414 0.59412 0.65025 0.0
C3809 C 0.5092 0.52428 0.5759 0.0
C3810 C 0.52239 0.53865 0.57203 0.0
C3811 C 0.5001 0.52584 0.59255 0.0
C3812 C 0.50333 0.54198 0.60632 0.0
C3813 C 0.51631 0.55643 0.60231 0.0
C3814 C 0.52566 0.55475 0.58584 0.0
C3815 C 0.4934 0.54378 0.62459 0.0
C3816 C 0.48482 0.55879 0.62998 0.0
C3817 C 0.49193 0.53063 0.63677 0.0
C3818 C 0.50111 0.51482 0.63332 0.0
C3819 C 0.51961 0.51754 0.63175 0.0
C3820 C 0.52818 0.50257 0.6284 0.0
C3821 C 0.51841 0.48481 0.62673 0.0
C3822 C 0.50006 0.48199 0.62847 0.0
C3823 C 0.49142 0.49692 0.63179 0.0
H3824 H 0.52508 0.47324 0.62414 0.0
H3825 H 0.43914 0.61625 0.65581 0.0
H3826 H 0.80471 0.1679 0.99604 0.0
H3827 H 0.79916 0.18164 0.96899 0.0
H3828 H 0.80082 0.1309 0.93281 0.0
H3829 H 0.80685 0.11692 0.96028 0.0
H3830 H 0.81934 0.16139 0.92033 0.0
H3831 H 0.7611 0.14346 0.9399 0.0
H3832 H 0.73915 0.14092 0.96319 0.0
H3833 H 0.74604 0.19943 0.97615 0.0
H3834 H 0.7683 0.20234 0.95323 0.0
H3835 H 0.78654 0.20413 0.84637 0.0
H3836 H 0.79061 0.1825 0.86724 0.0
H3837 H 0.78941 0.22425 0.91476 0.0
H3838 H 0.78575 0.24596 0.89417 0.0
H3839 H 0.76762 0.19281 0.91748 0.0
H3840 H 0.82889 0.21125 0.90468 0.0
H3841 H 0.85369 0.21594 0.88481 0.0
H3842 H 0.84221 0.15886 0.86084 0.0
H3843 H 0.81737 0.15383 0.88068 0.0
C3844 C 0.80383 0.15951 0.98238 0.0
C3845 C 0.80606 0.14121 0.98035 0.0
C3846 C 0.8006 0.16744 0.96687 0.0
C3847 C 0.79922 0.15725 0.94883 0.0
C3848 C 0.8017 0.13899 0.94661 0.0
C3849 C 0.80506 0.131 0.96228 0.0
C3850 C 0.79526 0.16605 0.9326 0.0
C3851 C 0.80778 0.16785 0.9194 0.0
C3852 C 0.78038 0.17486 0.9316 0.0
C3853 C 0.76644 0.17311 0.94487 0.0
C3854 C 0.75797 0.15579 0.94775 0.0
C3855 C 0.74548 0.15428 0.9609 0.0
C3856 C 0.74123 0.17001 0.97116 0.0
C3857 C 0.74935 0.18726 0.96819 0.0
C3858 C 0.76189 0.18885 0.9551 0.0
C3859 C 0.78736 0.20879 0.86127 0.0
C3860 C 0.78561 0.22681 0.86852 0.0
C3861 C 0.78966 0.19637 0.87319 0.0
C3862 C 0.79027 0.20171 0.8926 0.0
C3863 C 0.78879 0.21972 0.89984 0.0
C3864 C 0.78659 0.23213 0.888 0.0
C3865 C 0.79196 0.18859 0.90554 0.0
C3866 C 0.77895 0.18597 0.9181 0.0
C3867 C 0.80645 0.17922 0.90606 0.0
C3868 C 0.82117 0.18221 0.89397 0.0
C3869 C 0.83159 0.19973 0.89507 0.0
C3870 C 0.84569 0.20243 0.88389 0.0
C3871 C 0.84947 0.18772 0.87151 0.0
C3872 C 0.83923 0.17025 0.8704 0.0
C3873 C 0.82518 0.16745 0.88165 0.0
H3874 H 0.86035 0.18986 0.8628 0.0
H3875 H 0.73166 0.16887 0.98142 0.0
H3876 H 0.11434 0.54194 0.22178 0.0
H3877 H 0.09833 0.5322 0.1912 0.0
H3878 H 0.14077 0.50498 0.17216 0.0
H3879 H 0.15741 0.51532 0.20291 0.0
H3880 H 0.13276 0.52551 0.14873 0.0
H3881 H 0.09811 0.48049 0.17661 0.0
H3882 H 0.08075 0.46785 0.20045 0.0
H3883 H 0.04194 0.5014 0.19245 0.0
H3884 H 0.05919 0.51444 0.16875 0.0
H3885 H 0.08154 0.50284 0.06109 0.0
H3886 H 0.0958 0.49801 0.09019 0.0
H3887 H 0.06427 0.53227 0.12132 0.0
H3888 H 0.04973 0.53708 0.09223 0.0
H3889 H 0.06762 0.50143 0.1366 0.0
H3890 H 0.1059 0.55 0.11328 0.0
H3891 H 0.12318 0.56246 0.08925 0.0
H3892 H 0.15512 0.52091 0.08867 0.0
H3893 H 0.13787 0.50808 0.11257 0.0
C3894 C 0.12025 0.53365 0.21127 0.0
C3895 C 0.13728 0.52953 0.21483 0.0
C3896 C 0.11094 0.52791 0.19374 0.0
C3897 C 0.1182 0.51761 0.17942 0.0
C3898 C 0.13489 0.51286 0.18306 0.0
C3899 C 0.14435 0.51876 0.20064 0.0
C3900 C 0.10907 0.51364 0.16031 0.0
C3901 C 0.11862 0.51976 0.14598 0.0
C3902 C 0.09055 0.5064 0.15674 0.0
C3903 C 0.08001 0.4985 0.17092 0.0
C3904 C 0.08593 0.48526 0.18 0.0
C3905 C 0.0761 0.47801 0.19349 0.0
C3906 C 0.06026 0.48383 0.19797 0.0
C3907 C 0.05421 0.49689 0.18895 0.0
C3908 C 0.06399 0.50419 0.17545 0.0
C3909 C 0.07749 0.50926 0.0741 0.0
C3910 C 0.06461 0.52052 0.07435 0.0
C3911 C 0.08567 0.50645 0.09071 0.0
C3912 C 0.08121 0.51495 0.10785 0.0
C3913 C 0.06786 0.52559 0.10818 0.0
C3914 C 0.05964 0.52839 0.09156 0.0
C3915 C 0.09124 0.51377 0.12542 0.0
C3916 C 0.08184 0.50672 0.13935 0.0
C3917 C 0.10991 0.52005 0.12863 0.0
C3918 C 0.12049 0.52798 0.11455 0.0
C3919 C 0.11655 0.54347 0.10795 0.0
C3920 C 0.12634 0.55061 0.09437 0.0
C3921 C 0.14021 0.54245 0.0874 0.0
C3922 C 0.14436 0.5272 0.09406 0.0
C3923 C 0.13459 0.52 0.10763 0.0
H3924 H 0.14776 0.54798 0.07687 0.0
H3925 H 0.05267 0.47821 0.20843 0.0
H3926 H 0.79501 0.88964 0.4687 0.0
H3927 H 0.79394 0.87486 0.43614 0.0
H3928 H 0.81005 0.82786 0.45383 0.0
H3929 H 0.81097 0.84251 0.48652 0.0
H3930 H 0.82797 0.83912 0.42344 0.0
H3931 H 0.76791 0.82507 0.44064 0.0
H3932 H 0.74031 0.83241 0.45324 0.0
H3933 H 0.73416 0.86536 0.41138 0.0
H3934 H 0.76189 0.85844 0.3987 0.0
H3935 H 0.80873 0.78178 0.33438 0.0
H3936 H 0.81015 0.79408 0.36768 0.0
H3937 H 0.78276 0.83668 0.35515 0.0
H3938 H 0.78057 0.82394 0.32204 0.0
H3939 H 0.77055 0.82646 0.38386 0.0
H3940 H 0.83039 0.84278 0.36732 0.0
H3941 H 0.85853 0.83733 0.35459 0.0
H3942 H 0.86594 0.80272 0.39455 0.0
H3943 H 0.83772 0.80779 0.40738 0.0
C3944 C 0.79845 0.87621 0.46569 0.0
C3945 C 0.80301 0.86723 0.48024 0.0
C3946 C 0.79776 0.86774 0.44705 0.0
C3947 C 0.80175 0.85016 0.4425 0.0
C3948 C 0.80688 0.8414 0.45698 0.0
C3949 C 0.80737 0.84978 0.47566 0.0
C3950 C 0.80013 0.8408 0.42267 0.0
C3951 C 0.81537 0.83611 0.41482 0.0
C3952 C 0.7838 0.83727 0.41128 0.0
C3953 C 0.76707 0.84137 0.41883 0.0
C3954 C 0.76075 0.834 0.43422 0.0
C3955 C 0.74507 0.83807 0.44136 0.0
C3956 C 0.73551 0.84938 0.43315 0.0
C3957 C 0.74159 0.85662 0.41775 0.0
C3958 C 0.75728 0.85262 0.41057 0.0
C3959 C 0.80293 0.79371 0.33873 0.0
C3960 C 0.79457 0.80186 0.32547 0.0
C3961 C 0.80387 0.80085 0.35782 0.0
C3962 C 0.79689 0.81662 0.3641 0.0
C3963 C 0.78828 0.82455 0.35083 0.0
C3964 C 0.78705 0.81723 0.33182 0.0
C3965 C 0.79849 0.82492 0.38436 0.0
C3966 C 0.7832 0.82941 0.39237 0.0
C3967 C 0.81486 0.82853 0.39581 0.0
C3968 C 0.83185 0.82551 0.38817 0.0
C3969 C 0.83796 0.83391 0.37331 0.0
C3970 C 0.85393 0.8309 0.36609 0.0
C3971 C 0.86399 0.81964 0.37372 0.0
C3972 C 0.85812 0.81141 0.38863 0.0
C3973 C 0.84215 0.81436 0.39589 0.0
H3974 H 0.87635 0.81733 0.36811 0.0
H3975 H 0.72337 0.85251 0.4387 0.0
H3976 H 0.42034 0.55474 0.83253 0.0
H3977 H 0.43616 0.55187 0.862 0.0
H3978 H 0.48485 0.55235 0.83526 0.0
H3979 H 0.46905 0.55515 0.80586 0.0
H3980 H 0.4524 0.52871 0.87631 0.0
H3981 H 0.52236 0.56794 0.86667 0.0
H3982 H 0.53601 0.59321 0.85144 0.0
H3983 H 0.48793 0.61533 0.85397 0.0
H3984 H 0.47409 0.59032 0.86942 0.0
H3985 H 0.51503 0.51207 0.94755 0.0
H3986 H 0.49923 0.51516 0.91829 0.0
H3987 H 0.50676 0.57332 0.93663 0.0
H3988 H 0.52253 0.57022 0.96601 0.0
H3989 H 0.5104 0.56881 0.90062 0.0
H3990 H 0.46395 0.54206 0.93386 0.0
H3991 H 0.44823 0.51976 0.95125 0.0
H3992 H 0.44665 0.47667 0.90458 0.0
H3993 H 0.46248 0.49879 0.88689 0.0
C3994 C 0.43443 0.55424 0.83279 0.0
C3995 C 0.44312 0.55529 0.81626 0.0
C3996 C 0.44363 0.55252 0.84992 0.0
C3997 C 0.46216 0.55205 0.85169 0.0
C3998 C 0.47079 0.55297 0.83509 0.0
C3999 C 0.46156 0.55449 0.81793 0.0
C4000 C 0.47226 0.55059 0.87055 0.0
C4001 C 0.46516 0.53748 0.88135 0.0
C4002 C 0.48892 0.56203 0.87821 0.0
C4003 C 0.49714 0.57714 0.869 0.0
C4004 C 0.51473 0.57822 0.86401 0.0
C4005 C 0.52249 0.59249 0.85534 0.0
C4006 C 0.51282 0.60583 0.85168 0.0
C4007 C 0.49538 0.60495 0.85674 0.0
C4008 C 0.48756 0.59072 0.86543 0.0
C4009 C 0.51341 0.52561 0.94553 0.0
C4010 C 0.52037 0.54082 0.95978 0.0
C4011 C 0.50409 0.5274 0.92852 0.0
C4012 C 0.50121 0.54454 0.92456 0.0
C4013 C 0.50844 0.5598 0.93867 0.0
C4014 C 0.51757 0.55799 0.95581 0.0
C4015 C 0.49084 0.54651 0.90604 0.0
C4016 C 0.4978 0.55983 0.8954 0.0
C4017 C 0.47397 0.5354 0.89862 0.0
C4018 C 0.46456 0.52203 0.90915 0.0
C4019 C 0.46036 0.5278 0.92736 0.0
C4020 C 0.4514 0.51519 0.93726 0.0
C4021 C 0.4465 0.49677 0.92908 0.0
C4022 C 0.45049 0.49093 0.91092 0.0
C4023 C 0.45943 0.50351 0.90093 0.0
H4024 H 0.43956 0.48702 0.93679 0.0
H4025 H 0.51886 0.61686 0.84496 0.0
H4026 H 0.78127 0.15518 0.07916 0.0
H4027 H 0.78194 0.17483 0.109 0.0
H4028 H 0.83941 0.18152 0.11569 0.0
H4029 H 0.83869 0.16242 0.08476 0.0
H4030 H 0.78903 0.17669 0.14194 0.0
H4031 H 0.8576 0.22352 0.14201 0.0
H4032 H 0.87849 0.23374 0.11967 0.0
H4033 H 0.83505 0.22395 0.07692 0.0
H4034 H 0.8139 0.21389 0.09906 0.0
H4035 H 0.8017 0.23524 0.22726 0.0
H4036 H 0.80711 0.21466 0.19989 0.0
H4037 H 0.8052 0.25687 0.16679 0.0
H4038 H 0.80049 0.27805 0.19478 0.0
H4039 H 0.82872 0.23762 0.15419 0.0
H4040 H 0.76917 0.22241 0.16795 0.0
H4041 H 0.74358 0.21457 0.18599 0.0
H4042 H 0.7606 0.16474 0.19344 0.0
H4043 H 0.78679 0.17265 0.17616 0.0
C4044 C 0.79406 0.16043 0.08719 0.0
C4045 C 0.80991 0.15713 0.07962 0.0
C4046 C 0.79445 0.1718 0.10435 0.0
C4047 C 0.81073 0.18016 0.11471 0.0
C4048 C 0.82664 0.17571 0.10787 0.0
C4049 C 0.82624 0.16444 0.09036 0.0
C4050 C 0.81061 0.19399 0.13204 0.0
C4051 C 0.79785 0.18993 0.14461 0.0
C4052 C 0.82165 0.21164 0.1355 0.0
C4053 C 0.83424 0.21773 0.12212 0.0
C4054 C 0.85252 0.22358 0.12785 0.0
C4055 C 0.8644 0.22935 0.11522 0.0
C4056 C 0.85811 0.22942 0.09687 0.0
C4057 C 0.83992 0.22381 0.09112 0.0
C4058 C 0.82799 0.21807 0.10369 0.0
C4059 C 0.80248 0.24025 0.21419 0.0
C4060 C 0.8003 0.25822 0.21314 0.0
C4061 C 0.80557 0.22839 0.19847 0.0
C4062 C 0.80608 0.2339 0.18102 0.0
C4063 C 0.80474 0.25216 0.18003 0.0
C4064 C 0.80198 0.26427 0.196 0.0
C4065 C 0.80713 0.22022 0.16391 0.0
C4066 C 0.82004 0.2243 0.15153 0.0
C4067 C 0.79557 0.20288 0.16002 0.0
C4068 C 0.78013 0.19827 0.17096 0.0
C4069 C 0.76767 0.20993 0.17371 0.0
C4070 C 0.75306 0.20548 0.18384 0.0
C4071 C 0.75058 0.18925 0.19102 0.0
C4072 C 0.7627 0.17743 0.18809 0.0
C4073 C 0.77745 0.18191 0.17817 0.0
H4074 H 0.73919 0.18577 0.19875 0.0
H4075 H 0.86733 0.23387 0.08712 0.0
H4076 H 0.20692 0.56523 0.31747 0.0
H4077 H 0.2026 0.57738 0.34988 0.0
H4078 H 0.14694 0.57561 0.3336 0.0
H4079 H 0.15124 0.56417 0.30162 0.0
H4080 H 0.15879 0.60467 0.35858 0.0
H4081 H 0.16355 0.53904 0.35048 0.0
H4082 H 0.18055 0.51411 0.34393 0.0
H4083 H 0.22083 0.54179 0.38771 0.0
H4084 H 0.2041 0.56695 0.39438 0.0
H4085 H 0.10433 0.54842 0.41651 0.0
H4086 H 0.12972 0.55247 0.39805 0.0
H4087 H 0.14496 0.60878 0.4254 0.0
H4088 H 0.1192 0.60481 0.44384 0.0
H4089 H 0.16495 0.56181 0.40237 0.0
H4090 H 0.15905 0.63362 0.39221 0.0
H4091 H 0.13786 0.65495 0.39573 0.0
H4092 H 0.09373 0.60963 0.38415 0.0
H4093 H 0.11467 0.58811 0.38037 0.0
C4094 C 0.19387 0.56777 0.32085 0.0
C4095 C 0.17936 0.56358 0.30708 0.0
C4096 C 0.19143 0.57468 0.33933 0.0
C4097 C 0.17442 0.5773 0.3442 0.0
C4098 C 0.16022 0.57387 0.33022 0.0
C4099 C 0.16267 0.56715 0.31189 0.0
C4100 C 0.17038 0.58171 0.36382 0.0
C4101 C 0.16056 0.59563 0.36841 0.0
C4102 C 0.17277 0.57002 0.37673 0.0
C4103 C 0.18273 0.55492 0.37275 0.0
C4104 C 0.17608 0.53982 0.35863 0.0
C4105 C 0.18566 0.52566 0.3549 0.0
C4106 C 0.2018 0.5264 0.36535 0.0
C4107 C 0.20836 0.54127 0.37959 0.0
C4108 C 0.19885 0.55547 0.38334 0.0
C4109 C 0.11326 0.56158 0.41885 0.0
C4110 C 0.10964 0.57639 0.43137 0.0
C4111 C 0.12784 0.56386 0.40836 0.0
C4112 C 0.13914 0.58098 0.41021 0.0
C4113 C 0.13626 0.59552 0.42359 0.0
C4114 C 0.12151 0.59327 0.434 0.0
C4115 C 0.15223 0.58381 0.39632 0.0
C4116 C 0.16394 0.57147 0.39302 0.0
C4117 C 0.15107 0.59652 0.38422 0.0
C4118 C 0.1384 0.60931 0.38629 0.0
C4119 C 0.14482 0.62825 0.39042 0.0
C4120 C 0.13286 0.64036 0.39244 0.0
C4121 C 0.11447 0.63364 0.39025 0.0
C4122 C 0.10798 0.61481 0.38592 0.0
C4123 C 0.11988 0.60266 0.38384 0.0
H4124 H 0.10524 0.64303 0.39185 0.0
H4125 H 0.20919 0.51543 0.36245 0.0
H4126 H 0.81273 0.83256 0.57138 0.0
H4127 H 0.80776 0.82327 0.6012 0.0
H4128 H 0.78701 0.87212 0.61935 0.0
H4129 H 0.79172 0.88154 0.58904 0.0
H4130 H 0.82155 0.83714 0.63483 0.0
H4131 H 0.75655 0.8628 0.65168 0.0
H4132 H 0.72983 0.86928 0.63523 0.0
H4133 H 0.73554 0.83001 0.58747 0.0
H4134 H 0.76215 0.82314 0.60371 0.0
H4135 H 0.8075 0.82995 0.72797 0.0
H4136 H 0.80862 0.8424 0.69918 0.0
H4137 H 0.76701 0.79795 0.67233 0.0
H4138 H 0.76573 0.78533 0.70128 0.0
H4139 H 0.76304 0.83095 0.66152 0.0
H4140 H 0.809 0.79562 0.66607 0.0
H4141 H 0.83478 0.78654 0.68158 0.0
H4142 H 0.86586 0.84017 0.68349 0.0
H4143 H 0.84014 0.84969 0.66841 0.0
C4144 C 0.80706 0.84144 0.5816 0.0
C4145 C 0.80265 0.8579 0.57761 0.0
C4146 C 0.80428 0.83607 0.59879 0.0
C4147 C 0.79695 0.84688 0.61267 0.0
C4148 C 0.7925 0.86337 0.60886 0.0
C4149 C 0.79527 0.8688 0.59151 0.0
C4150 C 0.79427 0.84072 0.63101 0.0
C4151 C 0.80875 0.83593 0.64066 0.0
C4152 C 0.77754 0.83878 0.63866 0.0
C4153 C 0.76145 0.84263 0.62884 0.0
C4154 C 0.75207 0.85552 0.63768 0.0
C4155 C 0.73695 0.85926 0.6284 0.0
C4156 C 0.73103 0.85011 0.61029 0.0
C4157 C 0.74018 0.83714 0.60146 0.0
C4158 C 0.75529 0.83334 0.61069 0.0
C4159 C 0.79842 0.82284 0.71605 0.0
C4160 C 0.78662 0.80647 0.717 0.0
C4161 C 0.7991 0.83002 0.69953 0.0
C4162 C 0.78805 0.82104 0.68344 0.0
C4163 C 0.77568 0.80515 0.68452 0.0
C4164 C 0.77501 0.79791 0.7011 0.0
C4165 C 0.79036 0.82758 0.66528 0.0
C4166 C 0.77585 0.83238 0.65572 0.0
C4167 C 0.80698 0.82921 0.65747 0.0
C4168 C 0.82258 0.82343 0.66628 0.0
C4169 C 0.82129 0.80552 0.66994 0.0
C4170 C 0.83589 0.80029 0.67866 0.0
C4171 C 0.85193 0.81278 0.68358 0.0
C4172 C 0.85342 0.83051 0.67974 0.0
C4173 C 0.83883 0.83584 0.67111 0.0
H4174 H 0.86321 0.80868 0.6903 0.0
H4175 H 0.71933 0.85304 0.60312 0.0
H4176 H 0.74257 0.4925 0.52218 0.0
H4177 H 0.71402 0.50228 0.52798 0.0
H4178 H 0.68579 0.45229 0.49373 0.0
H4179 H 0.71404 0.44223 0.48873 0.0
H4180 H 0.68825 0.51105 0.51007 0.0
H4181 H 0.64424 0.43933 0.5029 0.0
H4182 H 0.64638 0.40853 0.50901 0.0
H4183 H 0.68942 0.43174 0.55136 0.0
H4184 H 0.68744 0.46268 0.54558 0.0
H4185 H 0.58348 0.48734 0.50684 0.0
H4186 H 0.61228 0.47753 0.50442 0.0
H4187 H 0.6376 0.52546 0.54367 0.0
H4188 H 0.60891 0.53557 0.54578 0.0
H4189 H 0.63675 0.46824 0.52598 0.0
H4190 H 0.68262 0.5395 0.53251 0.0
H4191 H 0.68044 0.57075 0.528 0.0
H4192 H 0.63382 0.54961 0.48964 0.0
H4193 H 0.63588 0.51826 0.49364 0.0
C4194 C 0.73027 0.48354 0.51596 0.0
C4195 C 0.73083 0.46643 0.5051 0.0
C4196 C 0.71381 0.48919 0.51926 0.0
C4197 C 0.69728 0.47798 0.51174 0.0
C4198 C 0.69798 0.46113 0.5004 0.0
C4199 C 0.71434 0.45539 0.49736 0.0
C4200 C 0.67946 0.48385 0.51551 0.0
C4201 C 0.67715 0.50171 0.51388 0.0
C4202 C 0.66447 0.47181 0.52013 0.0
C4203 C 0.6658 0.45328 0.52368 0.0
C4204 C 0.65415 0.43785 0.51351 0.0
C4205 C 0.65535 0.42037 0.5169 0.0
C4206 C 0.66807 0.41817 0.53052 0.0
C4207 C 0.67961 0.43345 0.54078 0.0
C4208 C 0.67848 0.45096 0.53743 0.0
C4209 C 0.59509 0.49576 0.51516 0.0
C4210 C 0.5936 0.51238 0.52648 0.0
C4211 C 0.61171 0.49009 0.51375 0.0
C4212 C 0.62752 0.50082 0.52353 0.0
C4213 C 0.6259 0.51698 0.53555 0.0
C4214 C 0.60931 0.52272 0.53689 0.0
C4215 C 0.6456 0.49541 0.52062 0.0
C4216 C 0.64791 0.47762 0.52232 0.0
C4217 C 0.66061 0.50761 0.51628 0.0
C4218 C 0.65933 0.52646 0.51352 0.0
C4219 C 0.67195 0.54149 0.52303 0.0
C4220 C 0.67073 0.55924 0.52058 0.0
C4221 C 0.65697 0.56217 0.50859 0.0
C4222 C 0.64442 0.54735 0.499 0.0
C4223 C 0.64561 0.52957 0.50138 0.0
H4224 H 0.65605 0.57593 0.50671 0.0
H4225 H 0.66894 0.40463 0.53315 0.0
H4226 H 0.23348 0.14135 0.494 0.0
H4227 H 0.20545 0.12027 0.49502 0.0
H4228 H 0.17581 0.16169 0.48415 0.0
H4229 H 0.2037 0.18288 0.48325 0.0
H4230 H 0.16267 0.14544 0.51174 0.0
H4231 H 0.17827 0.12506 0.4502 0.0
H4232 H 0.19786 0.1144 0.42686 0.0
H4233 H 0.20077 0.06756 0.45257 0.0
H4234 H 0.18138 0.07807 0.47622 0.0
H4235 H 0.07722 0.08844 0.49554 0.0
H4236 H 0.10465 0.1088 0.49125 0.0
H4237 H 0.13488 0.06695 0.49908 0.0
H4238 H 0.10734 0.04626 0.50283 0.0
H4239 H 0.1476 0.08369 0.47268 0.0
H4240 H 0.1314 0.10348 0.53388 0.0
H4241 H 0.11165 0.11388 0.55713 0.0
H4242 H 0.1105 0.16204 0.53315 0.0
H4243 H 0.12984 0.15171 0.50948 0.0
C4244 C 0.22101 0.14597 0.49168 0.0
C4245 C 0.22096 0.16388 0.48849 0.0
C4246 C 0.20495 0.13385 0.49223 0.0
C4247 C 0.18842 0.13928 0.48952 0.0
C4248 C 0.18833 0.15712 0.48628 0.0
C4249 C 0.20436 0.16922 0.48569 0.0
C4250 C 0.17125 0.12653 0.49038 0.0
C4251 C 0.15926 0.13203 0.50302 0.0
C4252 C 0.16692 0.10884 0.47934 0.0
C4253 C 0.17851 0.10245 0.46508 0.0
C4254 C 0.18319 0.11256 0.45095 0.0
C4255 C 0.19424 0.10653 0.43766 0.0
C4256 C 0.20059 0.09034 0.43826 0.0
C4257 C 0.19586 0.08011 0.45213 0.0
C4258 C 0.18483 0.08609 0.46548 0.0
C4259 C 0.08967 0.08347 0.49622 0.0
C4260 C 0.09004 0.06569 0.49964 0.0
C4261 C 0.10541 0.09521 0.49385 0.0
C4262 C 0.12199 0.08962 0.49521 0.0
C4263 C 0.12232 0.07167 0.49803 0.0
C4264 C 0.10653 0.05983 0.50019 0.0
C4265 C 0.13899 0.10256 0.49409 0.0
C4266 C 0.15096 0.09709 0.48142 0.0
C4267 C 0.14333 0.12027 0.50519 0.0
C4268 C 0.13187 0.12665 0.51966 0.0
C4269 C 0.12679 0.11619 0.53342 0.0
C4270 C 0.11565 0.12208 0.5467 0.0
C4271 C 0.10973 0.13856 0.54656 0.0
C4272 C 0.11499 0.14922 0.53318 0.0
C4273 C 0.12601 0.14333 0.5198 0.0
H4274 H 0.1011 0.14309 0.55684 0.0
H4275 H 0.20915 0.0857 0.42795 0.0
H4276 H 0.22202 0.98181 0.76359 0.0
H4277 H 0.23665 0.95509 0.76233 0.0
H4278 H 0.18668 0.92179 0.7696 0.0
H4279 H 0.17209 0.9484 0.77051 0.0
H4280 H 0.24713 0.9328 0.78079 0.0
H4281 H 0.18506 0.87602 0.75977 0.0
H4282 H 0.15595 0.87035 0.74097 0.0
H4283 H 0.17725 0.90922 0.70735 0.0
H4284 H 0.20641 0.9151 0.7259 0.0
H4285 H 0.24214 0.82146 0.76435 0.0
H4286 H 0.22771 0.84822 0.76521 0.0
H4287 H 0.27867 0.8819 0.76205 0.0
H4288 H 0.29305 0.85534 0.76191 0.0
H4289 H 0.21774 0.87098 0.74851 0.0
H4290 H 0.28051 0.9251 0.76681 0.0
H4291 H 0.30959 0.93162 0.7857 0.0
H4292 H 0.28686 0.89917 0.8246 0.0
H4293 H 0.25761 0.89267 0.80593 0.0
C4294 C 0.21391 0.96883 0.76477 0.0
C4295 C 0.19538 0.96805 0.76699 0.0
C4296 C 0.22252 0.95313 0.76412 0.0
C4297 C 0.21332 0.93526 0.76547 0.0
C4298 C 0.19478 0.93458 0.76787 0.0
C4299 C 0.18618 0.95028 0.76856 0.0
C4300 C 0.22298 0.91794 0.76469 0.0
C4301 C 0.2405 0.91944 0.77342 0.0
C4302 C 0.21523 0.89963 0.75557 0.0
C4303 C 0.19782 0.89606 0.7443 0.0
C4304 C 0.18351 0.88327 0.74831 0.0
C4305 C 0.16702 0.88004 0.73773 0.0
C4306 C 0.16477 0.88939 0.72299 0.0
C4307 C 0.179 0.90201 0.7188 0.0
C4308 C 0.19549 0.90532 0.72936 0.0
C4309 C 0.2505 0.83452 0.7639 0.0
C4310 C 0.26925 0.83536 0.76305 0.0
C4311 C 0.242 0.85029 0.76438 0.0
C4312 C 0.2515 0.86836 0.76419 0.0
C4313 C 0.27025 0.86907 0.76305 0.0
C4314 C 0.27875 0.85332 0.76265 0.0
C4315 C 0.24189 0.88577 0.76475 0.0
C4316 C 0.22437 0.88431 0.75594 0.0
C4317 C 0.24965 0.90417 0.77371 0.0
C4318 C 0.2671 0.90802 0.78482 0.0
C4319 C 0.28178 0.91933 0.77937 0.0
C4320 C 0.29826 0.92303 0.79002 0.0
C4321 C 0.30011 0.91566 0.80625 0.0
C4322 C 0.28546 0.90467 0.81191 0.0
C4323 C 0.26897 0.90091 0.80128 0.0
H4324 H 0.31287 0.91856 0.8145 0.0
H4325 H 0.152 0.88687 0.71482 0.0
H4326 H 0.34544 0.94168 0.00823 0.0
H4327 H 0.37606 0.95792 0.01134 0.0
H4328 H 0.35856 1.00438 0.99399 0.0
H4329 H 0.32721 0.98785 0.99068 0.0
H4330 H 0.38888 0.99584 0.97652 0.0
H4331 H 0.37319 1.00642 0.03917 0.0
H4332 H 0.36068 0.9979 0.06755 0.0
H4333 H 0.39874 0.96281 0.07203 0.0
H4334 H 0.41132 0.9709 0.04351 0.0
H4335 H 0.47873 0.04659 0.9979 0.0
H4336 H 0.44632 0.03648 0.99605 0.0
H4337 H 0.45373 0.98986 0.02076 0.0
H4338 H 0.4861 1.00016 0.02308 0.0
H4339 H 0.42738 1.00192 0.03521 0.0
H4340 H 0.44102 0.98815 0.9718 0.0
H4341 H 0.45328 0.99467 0.94261 0.0
H4342 H 0.41923 0.03383 0.9389 0.0
H4343 H 0.40693 0.02771 0.96821 0.0
C4344 C 0.34787 0.95539 1.00507 0.0
C4345 C 0.33354 0.96331 0.99913 0.0
C4346 C 0.3656 0.96477 1.00698 0.0
C4347 C 0.36992 0.98255 1.00309 0.0
C4348 C 0.35573 0.99069 0.99716 0.0
C4349 C 0.33774 0.98127 0.99538 0.0
C4350 C 0.38928 0.9921 1.0051 0.0
C4351 C 0.39719 0.99755 0.98949 0.0
C4352 C 0.4005 0.99391 0.02181 0.0
C4353 C 0.39312 0.98918 0.03911 0.0
C4354 C 0.37882 0.99679 0.04614 0.0
C4355 C 0.37173 0.99205 0.06226 0.0
C4356 C 0.37888 0.97979 0.07156 0.0
C4357 C 0.3932 0.97229 0.0648 0.0
C4358 C 0.40033 0.97698 0.04867 0.0
C4359 C 0.47352 0.03415 1.00291 0.0
C4360 C 0.4853 0.02421 0.01054 0.0
C4361 C 0.45483 0.02827 1.00175 0.0
C4362 C 0.44721 0.01213 0.00797 0.0
C4363 C 0.45898 1.00232 0.01578 0.0
C4364 C 0.47765 1.00824 0.01705 0.0
C4365 C 0.42714 1.00547 1.00654 0.0
C4366 C 0.41909 1.00048 0.02227 0.0
C4367 C 0.41584 1.00391 0.9899 0.0
C4368 C 0.42322 1.00763 0.9723 0.0
C4369 C 0.43625 0.99826 0.96483 0.0
C4370 C 0.44319 1.00186 0.94825 0.0
C4371 C 0.43708 0.0147 0.93894 0.0
C4372 C 0.42398 0.02392 0.94615 0.0
C4373 C 0.41702 0.02038 0.96274 0.0
H4374 H 0.44246 0.01746 0.9261 0.0
H4375 H 0.37335 0.97611 0.08403 0.0
H4376 H 0.91079 0.5887 0.77682 0.0
H4377 H 0.8927 0.60852 0.76457 0.0
H4378 H 0.84843 0.56306 0.7503 0.0
H4379 H 0.8663 0.5433 0.7632 0.0
H4380 H 0.87608 0.61077 0.73304 0.0
H4381 H 0.80996 0.57786 0.75855 0.0
H4382 H 0.79958 0.55994 0.78258 0.0
H4383 H 0.84831 0.58295 0.81722 0.0
H4384 H 0.85886 0.60115 0.79351 0.0
H4385 H 0.80695 0.65761 0.70608 0.0
H4386 H 0.82305 0.63281 0.71019 0.0
H4387 H 0.82945 0.65178 0.76963 0.0
H4388 H 0.81331 0.67625 0.76563 0.0
H4389 H 0.81931 0.6154 0.76144 0.0
H4390 H 0.86352 0.66212 0.74475 0.0
H4391 H 0.87706 0.68385 0.72541 0.0
H4392 H 0.8764 0.63948 0.68027 0.0
H4393 H 0.86271 0.61749 0.69932 0.0
C4394 C 0.89725 0.58289 0.77094 0.0
C4395 C 0.88984 0.56454 0.77121 0.0
C4396 C 0.88696 0.5942 0.76384 0.0
C4397 C 0.86913 0.58734 0.75676 0.0
C4398 C 0.86205 0.56873 0.75602 0.0
C4399 C 0.87226 0.55746 0.76338 0.0
C4400 C 0.85769 0.60001 0.75156 0.0
C4401 C 0.86357 0.61164 0.73908 0.0
C4402 C 0.84154 0.60143 0.75974 0.0
C4403 C 0.83527 0.59066 0.77415 0.0
C4404 C 0.81843 0.5791 0.77132 0.0
C4405 C 0.81252 0.56891 0.78488 0.0
C4406 C 0.82331 0.57025 0.80138 0.0
C4407 C 0.84 0.58186 0.8044 0.0
C4408 C 0.84595 0.5921 0.7909 0.0
C4409 C 0.81167 0.6563 0.71999 0.0
C4410 C 0.80903 0.66886 0.73553 0.0
C4411 C 0.82094 0.64227 0.72231 0.0
C4412 C 0.82751 0.64058 0.7402 0.0
C4413 C 0.82448 0.65286 0.75572 0.0
C4414 C 0.81537 0.66689 0.75341 0.0
C4415 C 0.83775 0.6262 0.74302 0.0
C4416 C 0.83162 0.61423 0.75505 0.0
C4417 C 0.85397 0.62498 0.73498 0.0
C4418 C 0.86186 0.63819 0.72336 0.0
C4419 C 0.86607 0.65702 0.73063 0.0
C4420 C 0.87383 0.66938 0.71974 0.0
C4421 C 0.87752 0.66306 0.7016 0.0
C4422 C 0.87349 0.64436 0.69432 0.0
C4423 C 0.86575 0.63194 0.70515 0.0
H4424 H 0.88355 0.67264 0.6932 0.0
H4425 H 0.81872 0.56233 0.81185 0.0
H4426 H 0.81026 0.63478 0.01245 0.0
H4427 H 0.83577 0.62052 0.01889 0.0
H4428 H 0.87164 0.66812 0.00877 0.0
H4429 H 0.84606 0.68239 1.00202 0.0
H4430 H 0.88177 0.63757 0.9925 0.0
H4431 H 0.86629 0.66009 0.05291 0.0
H4432 H 0.84639 0.66474 0.07787 0.0
H4433 H 0.83514 0.60699 0.07798 0.0
H4434 H 0.85465 0.60192 0.0527 0.0
H4435 H 0.95907 0.60872 0.02969 0.0
H4436 H 0.93573 0.62633 0.02453 0.0
H4437 H 0.89559 0.581 0.03236 0.0
H4438 H 0.91877 0.56332 0.03744 0.0
H4439 H 0.88908 0.61268 0.05076 0.0
H4440 H 0.90462 0.59066 0.9894 0.0
H4441 H 0.92575 0.58688 0.96557 0.0
H4442 H 0.93765 0.64498 0.96774 0.0
H4443 H 0.91708 0.64919 0.99217 0.0
C4444 C 0.82356 0.64227 0.01165 0.0
C4445 C 0.82609 0.65978 1.00679 0.0
C4446 C 0.83818 0.63411 0.0154 0.0
C4447 C 0.85571 0.6433 0.01455 0.0
C4448 C 0.85828 0.66074 0.00956 0.0
C4449 C 0.84363 0.66892 1.00578 0.0
C4450 C 0.87126 0.63459 0.01876 0.0
C4451 C 0.88352 0.63239 1.00537 0.0
C4452 C 0.87349 0.6276 0.03546 0.0
C4453 C 0.86183 0.63061 0.05077 0.0
C4454 C 0.85947 0.64836 0.05814 0.0
C4455 C 0.84827 0.65108 0.07237 0.0
C4456 C 0.83951 0.63618 0.07951 0.0
C4457 C 0.84193 0.61852 0.07243 0.0
C4458 C 0.85305 0.61571 0.05815 0.0
C4459 C 0.94526 0.60243 0.03016 0.0
C4460 C 0.94085 0.58455 0.03398 0.0
C4461 C 0.93192 0.61255 0.02726 0.0
C4462 C 0.91383 0.60498 0.02792 0.0
C4463 C 0.90942 0.58721 0.03186 0.0
C4464 C 0.92273 0.57711 0.0348 0.0
C4465 C 0.89942 0.6154 0.02439 0.0
C4466 C 0.88738 0.61795 0.03793 0.0
C4467 C 0.89749 0.62281 0.00789 0.0
C4468 C 0.90945 0.62025 0.9928 0.0
C4469 C 0.91183 0.60265 0.98491 0.0
C4470 C 0.92372 0.60043 0.97128 0.0
C4471 C 0.93303 0.61568 0.96511 0.0
C4472 C 0.93045 0.63319 0.97255 0.0
C4473 C 0.91871 0.6355 0.98634 0.0
H4474 H 0.94226 0.61394 0.95459 0.0
H4475 H 0.83086 0.63833 0.09053 0.0
H4476 H 0.17069 0.09276 0.78457 0.0
H4477 H 0.18803 0.12255 0.78317 0.0
H4478 H 0.23333 0.09808 0.7692 0.0
H4479 H 0.21567 0.0675 0.77063 0.0
H4480 H 0.24538 0.13157 0.7924 0.0
H4481 H 0.20637 0.11473 0.73604 0.0
H4482 H 0.17753 0.10408 0.71697 0.0
H4483 H 0.15735 0.14968 0.74524 0.0
H4484 H 0.18599 0.16048 0.76466 0.0
H4485 H 0.29253 0.21677 0.77064 0.0
H4486 H 0.278 0.18528 0.77127 0.0
H4487 H 0.2271 0.20224 0.77379 0.0
H4488 H 0.24159 0.23359 0.77221 0.0
H4489 H 0.21885 0.17135 0.75532 0.0
H4490 H 0.25615 0.18753 0.81292 0.0
H4491 H 0.28418 0.19829 0.83338 0.0
H4492 H 0.30674 0.15462 0.80461 0.0
H4493 H 0.2789 0.14372 0.78384 0.0
C4494 C 0.18434 0.09331 0.78116 0.0
C4495 C 0.19132 0.07691 0.77766 0.0
C4496 C 0.19442 0.1108 0.78025 0.0
C4497 C 0.21228 0.11332 0.77569 0.0
C4498 C 0.21965 0.09711 0.77266 0.0
C4499 C 0.20942 0.07934 0.77349 0.0
C4500 C 0.22268 0.1327 0.77406 0.0
C4501 C 0.23958 0.14004 0.78399 0.0
C4502 C 0.21546 0.1447 0.76366 0.0
C4503 C 0.19828 0.13833 0.75191 0.0
C4504 C 0.19574 0.12243 0.73827 0.0
C4505 C 0.17944 0.11637 0.72739 0.0
C4506 C 0.1656 0.12618 0.72992 0.0
C4507 C 0.16807 0.14209 0.7433 0.0
C4508 C 0.18434 0.1482 0.75424 0.0
C4509 C 0.27823 0.21396 0.77143 0.0
C4510 C 0.26856 0.2284 0.77147 0.0
C4511 C 0.26975 0.1956 0.77198 0.0
C4512 C 0.25106 0.19052 0.77307 0.0
C4513 C 0.2414 0.205 0.77301 0.0
C4514 C 0.24986 0.22331 0.77218 0.0
C4515 C 0.24158 0.17048 0.77385 0.0
C4516 C 0.22476 0.16297 0.76375 0.0
C4517 C 0.2488 0.15844 0.78428 0.0
C4518 C 0.26552 0.16494 0.79671 0.0
C4519 C 0.26714 0.1803 0.81089 0.0
C4520 C 0.28298 0.18641 0.82255 0.0
C4521 C 0.29725 0.17718 0.82026 0.0
C4522 C 0.29568 0.16178 0.80634 0.0
C4523 C 0.27988 0.15562 0.79463 0.0
H4524 H 0.3095 0.18193 0.8293 0.0
H4525 H 0.15299 0.12146 0.72149 0.0
H4526 H 0.42298 0.97242 0.32159 0.0
H4527 H 0.40402 0.94317 0.32359 0.0
H4528 H 0.35968 0.95921 0.29522 0.0
H4529 H 0.37823 0.98846 0.29362 0.0
H4530 H 0.34821 0.94256 0.32193 0.0
H4531 H 0.38549 0.93098 0.2723 0.0
H4532 H 0.41381 0.93076 0.25783 0.0
H4533 H 0.42975 0.8969 0.2953 0.0
H4534 H 0.40159 0.89714 0.31015 0.0
H4535 H 0.29787 0.85759 0.2719 0.0
H4536 H 0.31676 0.88785 0.28175 0.0
H4537 H 0.34718 0.86665 0.32199 0.0
H4538 H 0.32812 0.83644 0.31255 0.0
H4539 H 0.36685 0.8851 0.29416 0.0
H4540 H 0.32525 0.89388 0.34001 0.0
H4541 H 0.29531 0.89358 0.35092 0.0
H4542 H 0.28575 0.93238 0.31625 0.0
H4543 H 0.31555 0.9327 0.30491 0.0
C4544 C 0.40917 0.96973 0.31587 0.0
C4545 C 0.40217 0.98274 0.30734 0.0
C4546 C 0.39836 0.95301 0.317 0.0
C4547 C 0.38049 0.94894 0.30938 0.0
C4548 C 0.37341 0.96207 0.30127 0.0
C4549 C 0.3841 0.97879 0.30029 0.0
C4550 C 0.36919 0.93078 0.30907 0.0
C4551 C 0.35229 0.93 0.31582 0.0
C4552 C 0.37459 0.91437 0.30133 0.0
C4553 C 0.39156 0.91429 0.2925 0.0
C4554 C 0.39511 0.92364 0.27756 0.0
C4555 C 0.41111 0.92348 0.26927 0.0
C4556 C 0.4236 0.91388 0.27569 0.0
C4557 C 0.42009 0.90438 0.29038 0.0
C4558 C 0.40411 0.90451 0.29874 0.0
C4559 C 0.30838 0.85947 0.28307 0.0
C4560 C 0.31156 0.8447 0.29145 0.0
C4561 C 0.3191 0.87672 0.2887 0.0
C4562 C 0.33329 0.87937 0.30258 0.0
C4563 C 0.33622 0.8648 0.3113 0.0
C4564 C 0.32529 0.84762 0.30594 0.0
C4565 C 0.34589 0.89699 0.30675 0.0
C4566 C 0.36298 0.89765 0.30063 0.0
C4567 C 0.3405 0.91329 0.31464 0.0
C4568 C 0.32259 0.9132 0.3215 0.0
C4569 C 0.31671 0.90223 0.33458 0.0
C4570 C 0.29977 0.90208 0.34087 0.0
C4571 C 0.28862 0.91293 0.33425 0.0
C4572 C 0.2944 0.92397 0.32136 0.0
C4573 C 0.31132 0.92416 0.31501 0.0
H4574 H 0.27551 0.91279 0.33914 0.0
H4575 H 0.43598 0.91376 0.26925 0.0
H4576 H 0.56836 0.34963 0.64731 0.0
H4577 H 0.56761 0.37805 0.63531 0.0
H4578 H 0.58469 0.35409 0.58326 0.0
H4579 H 0.58594 0.32609 0.59524 0.0
H4580 H 0.59775 0.39059 0.59146 0.0
H4581 H 0.5395 0.34883 0.59181 0.0
H4582 H 0.51634 0.33315 0.60892 0.0
H4583 H 0.51151 0.38475 0.64099 0.0
H4584 H 0.53477 0.40067 0.6242 0.0
H4585 H 0.55567 0.41453 0.51333 0.0
H4586 H 0.56773 0.40037 0.53808 0.0
H4587 H 0.53957 0.43058 0.57801 0.0
H4588 H 0.52693 0.44395 0.55321 0.0
H4589 H 0.5347 0.39811 0.58316 0.0
H4590 H 0.58621 0.44071 0.57706 0.0
H4591 H 0.60994 0.45768 0.56171 0.0
H4592 H 0.62873 0.40804 0.54302 0.0
H4593 H 0.60493 0.39069 0.55792 0.0
C4594 C 0.57234 0.35063 0.63348 0.0
C4595 C 0.5768 0.33556 0.62203 0.0
C4596 C 0.57196 0.36685 0.62667 0.0
C4597 C 0.57578 0.368 0.60828 0.0
C4598 C 0.58167 0.35348 0.59748 0.0
C4599 C 0.5822 0.3374 0.60429 0.0
C4600 C 0.57106 0.38274 0.59903 0.0
C4601 C 0.58401 0.3924 0.58966 0.0
C4602 C 0.55325 0.3855 0.59727 0.0
C4603 C 0.53896 0.37589 0.60691 0.0
C4604 C 0.5335 0.3568 0.60254 0.0
C4605 C 0.52038 0.34788 0.61218 0.0
C4606 C 0.51251 0.35795 0.62607 0.0
C4607 C 0.51765 0.37696 0.63026 0.0
C4608 C 0.53079 0.38594 0.6207 0.0
C4609 C 0.55205 0.41797 0.5274 0.0
C4610 C 0.54016 0.42995 0.53141 0.0
C4611 C 0.5591 0.41013 0.54157 0.0
C4612 C 0.55476 0.41464 0.55998 0.0
C4613 C 0.54308 0.42687 0.56394 0.0
C4614 C 0.53578 0.43438 0.54977 0.0
C4615 C 0.56126 0.40555 0.57484 0.0
C4616 C 0.54859 0.3969 0.58526 0.0
C4617 C 0.57939 0.40401 0.57773 0.0
C4618 C 0.59369 0.41436 0.56856 0.0
C4619 C 0.5953 0.43337 0.56954 0.0
C4620 C 0.60878 0.44307 0.56093 0.0
C4621 C 0.62083 0.43395 0.55139 0.0
C4622 C 0.6194 0.4151 0.55041 0.0
C4623 C 0.60592 0.40532 0.55895 0.0
H4624 H 0.6313 0.44151 0.54483 0.0
H4625 H 0.50242 0.35106 0.63359 0.0
H4626 H 0.47923 0.78932 0.35823 0.0
H4627 H 0.45426 0.78442 0.33431 0.0
H4628 H 0.41769 0.78774 0.37691 0.0
H4629 H 0.44248 0.79256 0.40097 0.0
H4630 H 0.40695 0.75776 0.34832 0.0
H4631 H 0.42961 0.82323 0.35576 0.0
H4632 H 0.45292 0.85034 0.35564 0.0
H4633 H 0.45965 0.83089 0.29841 0.0
H4634 H 0.43653 0.80353 0.29827 0.0
H4635 H 0.32742 0.77527 0.31252 0.0
H4636 H 0.35591 0.77453 0.32849 0.0
H4637 H 0.38164 0.78042 0.27818 0.0
H4638 H 0.35291 0.78247 0.26233 0.0
H4639 H 0.40076 0.80165 0.30563 0.0
H4640 H 0.37476 0.73833 0.29663 0.0
H4641 H 0.35084 0.71169 0.29655 0.0
H4642 H 0.35039 0.72623 0.3558 0.0
H4643 H 0.37416 0.75305 0.35623 0.0
C4644 C 0.46588 0.78905 0.36255 0.0
C4645 C 0.46283 0.7913 0.38153 0.0
C4646 C 0.45167 0.78628 0.34884 0.0
C4647 C 0.43422 0.78574 0.35391 0.0
C4648 C 0.43112 0.78805 0.37279 0.0
C4649 C 0.4453 0.79089 0.38651 0.0
C4650 C 0.41904 0.78264 0.3396 0.0
C4651 C 0.40551 0.76733 0.33897 0.0
C4652 C 0.41765 0.79477 0.32697 0.0
C4653 C 0.43151 0.81123 0.32707 0.0
C4654 C 0.43618 0.82465 0.3432 0.0
C4655 C 0.44933 0.84008 0.34317 0.0
C4656 C 0.4578 0.8423 0.32705 0.0
C4657 C 0.4531 0.82913 0.3109 0.0
C4658 C 0.43998 0.81367 0.31087 0.0
C4659 C 0.33907 0.7761 0.30472 0.0
C4660 C 0.33798 0.7787 0.28613 0.0
C4661 C 0.35538 0.77554 0.31385 0.0
C4662 C 0.37087 0.77682 0.30439 0.0
C4663 C 0.36981 0.7792 0.28568 0.0
C4664 C 0.35346 0.78032 0.27664 0.0
C4665 C 0.38823 0.77702 0.31469 0.0
C4666 C 0.40227 0.79175 0.31457 0.0
C4667 C 0.39016 0.76423 0.32655 0.0
C4668 C 0.37626 0.74773 0.32644 0.0
C4669 C 0.36955 0.73585 0.30964 0.0
C4670 C 0.35601 0.72073 0.30953 0.0
C4671 C 0.3491 0.71728 0.32616 0.0
C4672 C 0.35578 0.7289 0.34294 0.0
C4673 C 0.36933 0.74403 0.34313 0.0
H4674 H 0.33858 0.70559 0.32604 0.0
H4675 H 0.46798 0.85426 0.32705 0.0
H4676 H 0.10826 0.74343 0.09228 0.0
H4677 H 0.10683 0.71122 0.07883 0.0
H4678 H 0.05071 0.6998 0.08717 0.0
H4679 H 0.05252 0.73155 0.10182 0.0
H4680 H 0.06383 0.67417 0.09586 0.0
H4681 H 0.06894 0.70483 0.04281 0.0
H4682 H 0.08281 0.72725 0.02435 0.0
H4683 H 0.13023 0.70398 0.02418 0.0
H4684 H 0.11671 0.68154 0.04283 0.0
H4685 H 0.03206 0.594 0.03217 0.0
H4686 H 0.04005 0.62682 0.04347 0.0
H4687 H 0.09559 0.62283 0.05051 0.0
H4688 H 0.08777 0.58977 0.03924 0.0
H4689 H 0.08623 0.65533 0.0347 0.0
H4690 H 0.07758 0.62277 0.0868 0.0
H4691 H 0.06041 0.59956 0.1023 0.0
H4692 H 0.01554 0.62671 0.10107 0.0
H4693 H 0.03237 0.64994 0.08531 0.0
C4694 C 0.09568 0.73393 0.09125 0.0
C4695 C 0.0805 0.73983 0.09806 0.0
C4696 C 0.09482 0.7156 0.08345 0.0
C4697 C 0.07858 0.70308 0.08166 0.0
C4698 C 0.06342 0.70911 0.08844 0.0
C4699 C 0.06443 0.72725 0.09677 0.0
C4700 C 0.07721 0.68363 0.07305 0.0
C4701 C 0.06865 0.67017 0.08242 0.0
C4702 C 0.08378 0.67823 0.05566 0.0
C4703 C 0.09189 0.69165 0.04439 0.0
C4704 C 0.08237 0.70458 0.03894 0.0
C4705 C 0.09016 0.71727 0.02843 0.0
C4706 C 0.10741 0.71708 0.02315 0.0
C4707 C 0.11689 0.70414 0.02831 0.0
C4708 C 0.10916 0.69142 0.03884 0.0
C4709 C 0.04602 0.60007 0.03586 0.0
C4710 C 0.05927 0.58925 0.03506 0.0
C4711 C 0.05054 0.61882 0.04226 0.0
C4712 C 0.06835 0.62708 0.04792 0.0
C4713 C 0.08177 0.61659 0.04616 0.0
C4714 C 0.07725 0.59773 0.03984 0.0
C4715 C 0.07252 0.64629 0.05735 0.0
C4716 C 0.08164 0.65955 0.0482 0.0
C4717 C 0.06608 0.65161 0.07471 0.0
C4718 C 0.0562 0.63803 0.0848 0.0
C4719 C 0.06403 0.62375 0.08978 0.0
C4720 C 0.05436 0.61059 0.0986 0.0
C4721 C 0.03688 0.61165 0.10265 0.0
C4722 C 0.02907 0.62591 0.09794 0.0
C4723 C 0.03868 0.63909 0.08908 0.0
H4724 H 0.02941 0.60143 0.10944 0.0
H4725 H 0.11342 0.72692 0.01502 0.0
H4726 H 0.04646 0.27217 0.85759 0.0
H4727 H 0.07461 0.2723 0.84342 0.0
H4728 H 0.10314 0.3052 0.89374 0.0
H4729 H 0.07493 0.30515 0.90808 0.0
H4730 H 0.11275 0.31861 0.86201 0.0
H4731 H 0.1063 0.26142 0.88358 0.0
H4732 H 0.09061 0.23099 0.88751 0.0
H4733 H 0.0854 0.213 0.82826 0.0
H4734 H 0.10083 0.24341 0.82394 0.0
H4735 H 0.19789 0.31279 0.8306 0.0
H4736 H 0.17219 0.31073 0.84909 0.0
H4737 H 0.14035 0.27313 0.80342 0.0
H4738 H 0.16615 0.27488 0.78503 0.0
H4739 H 0.13352 0.26209 0.83507 0.0
H4740 H 0.13756 0.31926 0.813 0.0
H4741 H 0.15237 0.34975 0.80828 0.0
H4742 H 0.16118 0.36783 0.8675 0.0
H4743 H 0.14661 0.33736 0.87256 0.0
C4744 C 0.05873 0.27934 0.86571 0.0
C4745 C 0.05849 0.28865 0.88396 0.0
C4746 C 0.07481 0.27934 0.85761 0.0
C4747 C 0.09097 0.28865 0.86758 0.0
C4748 C 0.09081 0.2979 0.88584 0.0
C4749 C 0.0747 0.29781 0.89402 0.0
C4750 C 0.1079 0.28923 0.85859 0.0
C4751 C 0.1175 0.30628 0.85641 0.0
C4752 C 0.11378 0.27311 0.85089 0.0
C4753 C 0.1046 0.25475 0.85343 0.0
C4754 C 0.10169 0.25102 0.87138 0.0
C4755 C 0.09286 0.23376 0.87367 0.0
C4756 C 0.08698 0.22008 0.85814 0.0
C4757 C 0.08995 0.22361 0.84028 0.0
C4758 C 0.09875 0.24085 0.8379 0.0
C4759 C 0.18538 0.30412 0.82451 0.0
C4760 C 0.18397 0.29409 0.80634 0.0
C4761 C 0.17071 0.30296 0.83507 0.0
C4762 C 0.15424 0.292 0.82754 0.0
C4763 C 0.15291 0.28168 0.80953 0.0
C4764 C 0.16765 0.28268 0.79903 0.0
C4765 C 0.13832 0.29148 0.8383 0.0
C4766 C 0.12888 0.27444 0.84079 0.0
C4767 C 0.13249 0.30762 0.84617 0.0
C4768 C 0.14117 0.32598 0.84315 0.0
C4769 C 0.14277 0.3297 0.82501 0.0
C4770 C 0.1511 0.34699 0.82228 0.0
C4771 C 0.15776 0.36071 0.83758 0.0
C4772 C 0.15604 0.35718 0.85566 0.0
C4773 C 0.14774 0.33991 0.85847 0.0
H4774 H 0.16421 0.37408 0.83544 0.0
H4775 H 0.08014 0.20673 0.85995 0.0
H4776 H 0.58869 0.79018 0.97206 0.0
H4777 H 0.58515 0.76114 0.98323 0.0
H4778 H 0.58522 0.73258 0.92711 0.0
H4779 H 0.58875 0.76169 0.91571 0.0
H4780 H 0.55656 0.71845 0.94432 0.0
H4781 H 0.61945 0.73368 0.95789 0.0
H4782 H 0.64859 0.7529 0.97026 0.0
H4783 H 0.63229 0.75695 0.02578 0.0
H4784 H 0.60293 0.73797 0.01372 0.0
H4785 H 0.55057 0.63351 0.97626 0.0
H4786 H 0.56044 0.66002 0.96173 0.0
H4787 H 0.5643 0.69544 0.01504 0.0
H4788 H 0.55515 0.66884 0.02986 0.0
H4789 H 0.59318 0.70424 0.99657 0.0
H4790 H 0.52911 0.6915 0.98203 0.0
H4791 H 0.5001 0.67213 0.96934 0.0
H4792 H 0.51912 0.66327 0.9151 0.0
H4793 H 0.54833 0.68242 0.92752 0.0
C4794 C 0.58821 0.77777 0.96208 0.0
C4795 C 0.58888 0.77825 0.94296 0.0
C4796 C 0.58629 0.76118 0.96853 0.0
C4797 C 0.58498 0.74472 0.95601 0.0
C4798 C 0.58623 0.74516 0.93699 0.0
C4799 C 0.58832 0.76181 0.93052 0.0
C4800 C 0.58076 0.7271 0.96272 0.0
C4801 C 0.56475 0.71515 0.95548 0.0
C4802 C 0.59129 0.72301 0.97752 0.0
C4803 C 0.60891 0.73451 0.98487 0.0
C4804 C 0.62201 0.7388 0.97272 0.0
C4805 C 0.63858 0.74963 0.97968 0.0
C4806 C 0.64227 0.75618 0.99879 0.0
C4807 C 0.6294 0.75188 0.01098 0.0
C4808 C 0.6128 0.74107 1.00409 0.0
C4809 C 0.55358 0.64693 0.98492 0.0
C4810 C 0.55211 0.64907 1.00424 0.0
C4811 C 0.5591 0.66208 0.97656 0.0
C4812 C 0.56297 0.67971 0.98728 0.0
C4813 C 0.56136 0.68193 1.00652 0.0
C4814 C 0.55593 0.66676 0.01493 0.0
C4815 C 0.56879 0.69586 0.97845 0.0
C4816 C 0.5851 0.70749 0.98528 0.0
C4817 C 0.55855 0.69965 0.96325 0.0
C4818 C 0.54096 0.68823 0.95575 0.0
C4819 C 0.52715 0.68531 0.96743 0.0
C4820 C 0.51066 0.67439 0.96028 0.0
C4821 C 0.50779 0.66643 0.94144 0.0
C4822 C 0.52137 0.66942 0.92969 0.0
C4823 C 0.53789 0.68032 0.93678 0.0
H4824 H 0.49502 0.65798 0.93593 0.0
H4825 H 0.65512 0.76455 1.00415 0.0
H4826 H 0.07496 0.78017 0.62829 0.0
H4827 H 0.10202 0.77999 0.6479 0.0
H4828 H 0.07449 0.79082 0.69712 0.0
H4829 H 0.04738 0.79103 0.67771 0.0
H4830 H 0.11114 0.80866 0.7013 0.0
H4831 H 0.07422 0.74901 0.68125 0.0
H4832 H 0.05706 0.72356 0.65801 0.0
H4833 H 0.10454 0.71781 0.63082 0.0
H4834 H 0.12193 0.74347 0.65374 0.0
H4835 H 0.16751 0.77385 0.76286 0.0
H4836 H 0.14142 0.78021 0.74548 0.0
H4837 H 0.16125 0.75939 0.69373 0.0
H4838 H 0.18664 0.75222 0.71107 0.0
H4839 H 0.12766 0.74729 0.69172 0.0
H4840 H 0.1649 0.8073 0.71215 0.0
H4841 H 0.182 0.83176 0.73654 0.0
H4842 H 0.13422 0.83647 0.76353 0.0
H4843 H 0.11688 0.81194 0.73939 0.0
C4844 C 0.07477 0.78295 0.64328 0.0
C4845 C 0.05893 0.78528 0.65143 0.0
C4846 C 0.09023 0.78282 0.65445 0.0
C4847 C 0.09011 0.78513 0.6739 0.0
C4848 C 0.0748 0.78897 0.68213 0.0
C4849 C 0.0593 0.78896 0.67099 0.0
C4850 C 0.1051 0.78133 0.68545 0.0
C4851 C 0.11476 0.79525 0.69931 0.0
C4852 C 0.10973 0.76382 0.68279 0.0
C4853 C 0.09933 0.74828 0.66909 0.0
C4854 C 0.08097 0.74242 0.67022 0.0
C4855 C 0.07121 0.72794 0.65712 0.0
C4856 C 0.0797 0.7191 0.64292 0.0
C4857 C 0.09798 0.7247 0.64181 0.0
C4858 C 0.1078 0.7392 0.65485 0.0
C4859 C 0.16612 0.77057 0.74778 0.0
C4860 C 0.17888 0.76243 0.73824 0.0
C4861 C 0.15135 0.77433 0.73786 0.0
C4862 C 0.1495 0.77053 0.71825 0.0
C4863 C 0.16232 0.76239 0.70882 0.0
C4864 C 0.1768 0.75828 0.71871 0.0
C4865 C 0.13419 0.77476 0.70736 0.0
C4866 C 0.12427 0.7608 0.69367 0.0
C4867 C 0.1294 0.79225 0.71019 0.0
C4868 C 0.13964 0.80767 0.72408 0.0
C4869 C 0.15806 0.81355 0.7233 0.0
C4870 C 0.16779 0.8274 0.73709 0.0
C4871 C 0.15922 0.83551 0.75167 0.0
C4872 C 0.14085 0.83007 0.75229 0.0
C4873 C 0.13106 0.81624 0.73854 0.0
H4874 H 0.16679 0.84608 0.76245 0.0
H4875 H 0.07212 0.70789 0.6328 0.0
H4876 H 0.09235 0.36042 0.44484 0.0
H4877 H 0.08203 0.38914 0.45391 0.0
H4878 H 0.07291 0.39351 0.39605 0.0
H4879 H 0.08362 0.36489 0.38686 0.0
H4880 H 0.08775 0.42636 0.41702 0.0
H4881 H 0.03897 0.37932 0.41867 0.0
H4882 H 0.02256 0.3505 0.42583 0.0
H4883 H 0.03144 0.37266 0.48431 0.0
H4884 H 0.04811 0.40155 0.47746 0.0
H4885 H 0.04279 0.50007 0.45387 0.0
H4886 H 0.04658 0.4712 0.43482 0.0
H4887 H 0.06619 0.45356 0.48419 0.0
H4888 H 0.06258 0.48206 0.50311 0.0
H4889 H 0.04048 0.42674 0.46072 0.0
H4890 H 0.09431 0.4718 0.45732 0.0
H4891 H 0.10941 0.50064 0.44899 0.0
H4892 H 0.08914 0.48154 0.39177 0.0
H4893 H 0.07347 0.45273 0.39986 0.0
C4894 C 0.08827 0.36755 0.43406 0.0
C4895 C 0.0887 0.36041 0.41517 0.0
C4896 C 0.08231 0.38391 0.43924 0.0
C4897 C 0.07644 0.39327 0.42562 0.0
C4898 C 0.07735 0.38646 0.40675 0.0
C4899 C 0.08344 0.37012 0.40155 0.0
C4900 C 0.06903 0.40994 0.43132 0.0
C4901 C 0.07716 0.4264 0.42626 0.0
C4902 C 0.05507 0.4099 0.44321 0.0
C4903 C 0.04483 0.39262 0.4475 0.0
C4904 C 0.03745 0.37804 0.43304 0.0
C4905 C 0.02812 0.36167 0.43706 0.0
C4906 C 0.02597 0.35973 0.45553 0.0
C4907 C 0.03311 0.37418 0.47 0.0
C4908 C 0.04248 0.39058 0.46605 0.0
C4909 C 0.04785 0.48998 0.4606 0.0
C4910 C 0.05248 0.49335 0.47995 0.0
C4911 C 0.04999 0.47355 0.44974 0.0
C4912 C 0.05662 0.46032 0.45817 0.0
C4913 C 0.06096 0.46359 0.47747 0.0
C4914 C 0.05902 0.47996 0.48824 0.0
C4915 C 0.05981 0.44318 0.44715 0.0
C4916 C 0.05079 0.42659 0.45114 0.0
C4917 C 0.07276 0.44309 0.43413 0.0
C4918 C 0.08253 0.46022 0.42923 0.0
C4919 C 0.09295 0.47381 0.44299 0.0
C4920 C 0.10163 0.49015 0.43831 0.0
C4921 C 0.10024 0.49295 0.41987 0.0
C4922 C 0.09018 0.47938 0.40606 0.0
C4923 C 0.08137 0.46305 0.41069 0.0
H4924 H 0.10698 0.50563 0.41629 0.0
H4925 H 0.01875 0.34705 0.45862 0.0
H4926 H 0.44089 0.25898 0.14763 0.0
H4927 H 0.41632 0.25793 0.16756 0.0
H4928 H 0.45404 0.27647 0.21623 0.0
H4929 H 0.47871 0.27676 0.19636 0.0
H4930 H 0.42814 0.25248 0.22408 0.0
H4931 H 0.43094 0.30606 0.19701 0.0
H4932 H 0.43223 0.32463 0.1721 0.0
H4933 H 0.38105 0.29452 0.14724 0.0
H4934 H 0.37957 0.27557 0.17184 0.0
H4935 H 0.35551 0.28715 0.27423 0.0
H4936 H 0.38403 0.28529 0.26084 0.0
H4937 H 0.35621 0.24715 0.21334 0.0
H4938 H 0.32793 0.24849 0.22659 0.0
H4939 H 0.3788 0.28376 0.20809 0.0
H4940 H 0.37821 0.22913 0.23604 0.0
H4941 H 0.37757 0.2129 0.26278 0.0
H4942 H 0.42573 0.24889 0.28846 0.0
H4943 H 0.4265 0.26552 0.26197 0.0
C4944 C 0.44393 0.2627 0.16258 0.0
C4945 C 0.46168 0.2681 0.17044 0.0
C4946 C 0.42989 0.26219 0.17397 0.0
C4947 C 0.4333 0.26756 0.19339 0.0
C4948 C 0.45106 0.27236 0.2013 0.0
C4949 C 0.46514 0.27255 0.18992 0.0
C4950 C 0.4183 0.2686 0.2053 0.0
C4951 C 0.41749 0.25954 0.2207 0.0
C4952 C 0.4044 0.27791 0.20104 0.0
C4953 C 0.40522 0.28929 0.1862 0.0
C4954 C 0.42002 0.3033 0.18616 0.0
C4955 C 0.42078 0.31391 0.1721 0.0
C4956 C 0.40675 0.31073 0.15807 0.0
C4957 C 0.39192 0.29695 0.1581 0.0
C4958 C 0.39111 0.28628 0.17211 0.0
C4959 C 0.35553 0.27803 0.26116 0.0
C4960 C 0.33941 0.26816 0.25137 0.0
C4961 C 0.3718 0.27701 0.25356 0.0
C4962 C 0.37209 0.26617 0.23609 0.0
C4963 C 0.35618 0.2556 0.22682 0.0
C4964 C 0.34003 0.25644 0.23445 0.0
C4965 C 0.3885 0.26723 0.22635 0.0
C4966 C 0.38957 0.27683 0.21145 0.0
C4967 C 0.40272 0.25876 0.2313 0.0
C4968 C 0.40228 0.24871 0.24715 0.0
C4969 C 0.38855 0.23371 0.24748 0.0
C4970 C 0.38819 0.2244 0.26257 0.0
C4971 C 0.40156 0.2299 0.27734 0.0
C4972 C 0.41536 0.24467 0.27703 0.0
C4973 C 0.41577 0.25403 0.26197 0.0
H4974 H 0.40126 0.22268 0.28901 0.0
H4975 H 0.40736 0.31896 0.14721 0.0
H4976 H 0.62265 0.50675 0.30891 0.0
H4977 H 0.60719 0.50869 0.3372 0.0
H4978 H 0.65581 0.53855 0.36888 0.0
H4979 H 0.67164 0.53482 0.34061 0.0
H4980 H 0.6422 0.52557 0.39289 0.0
H4981 H 0.60785 0.55419 0.3531 0.0
H4982 H 0.58976 0.55685 0.32485 0.0
H4983 H 0.55164 0.50967 0.33126 0.0
H4984 H 0.56959 0.50664 0.35945 0.0
H4985 H 0.59472 0.55581 0.47318 0.0
H4986 H 0.61078 0.5532 0.44493 0.0
H4987 H 0.56829 0.51033 0.41732 0.0
H4988 H 0.55242 0.51264 0.44568 0.0
H4989 H 0.57845 0.53055 0.39182 0.0
H4990 H 0.61387 0.50362 0.43276 0.0
H4991 H 0.63394 0.50073 0.45945 0.0
H4992 H 0.67078 0.54802 0.45102 0.0
H4993 H 0.65095 0.55118 0.42427 0.0
C4994 C 0.63019 0.51381 0.32184 0.0
C4995 C 0.64872 0.52066 0.32178 0.0
C4996 C 0.62106 0.51527 0.33845 0.0
C4997 C 0.62953 0.52454 0.3562 0.0
C4998 C 0.64818 0.53134 0.35606 0.0
C4999 C 0.65748 0.52927 0.33951 0.0
C5000 C 0.61942 0.52672 0.37457 0.0
C5001 C 0.62834 0.52705 0.39232 0.0
C5002 C 0.60095 0.5283 0.37513 0.0
C5003 C 0.59015 0.53009 0.35825 0.0
C5004 C 0.59565 0.54435 0.34842 0.0
C5005 C 0.58542 0.54592 0.33243 0.0
C5006 C 0.56959 0.53341 0.32623 0.0
C5007 C 0.56392 0.51933 0.33605 0.0
C5008 C 0.5741 0.51769 0.35204 0.0
C5009 C 0.58862 0.54578 0.46117 0.0
C5010 C 0.57183 0.53457 0.46237 0.0
C5011 C 0.59808 0.54415 0.44471 0.0
C5012 C 0.59129 0.53137 0.42819 0.0
C5013 C 0.57437 0.52039 0.42932 0.0
C5014 C 0.5651 0.52176 0.44588 0.0
C5015 C 0.60137 0.52963 0.40993 0.0
C5016 C 0.59239 0.5293 0.39226 0.0
C5017 C 0.61988 0.52852 0.4095 0.0
C5018 C 0.63087 0.52771 0.42662 0.0
C5019 C 0.62612 0.51356 0.43678 0.0
C5020 C 0.63751 0.5118 0.45183 0.0
C5021 C 0.65368 0.52411 0.45682 0.0
C5022 C 0.65831 0.53844 0.44705 0.0
C5023 C 0.64701 0.54021 0.43195 0.0
H5024 H 0.66265 0.52253 0.46824 0.0
H5025 H 0.5617 0.53464 0.31385 0.0
H5026 H 0.29127 0.95076 0.05867 0.0
H5027 H 0.29289 0.9417 0.08952 0.0
H5028 H 0.25341 0.89317 0.06862 0.0
H5029 H 0.252 0.90204 0.03789 0.0
H5030 H 0.25062 0.90791 0.10643 0.0
H5031 H 0.2952 0.89061 0.06549 0.0
H5032 H 0.31983 0.89763 0.04593 0.0
H5033 H 0.35128 0.93282 0.09298 0.0
H5034 H 0.32669 0.92617 0.11277 0.0
H5035 H 0.26785 0.83766 0.15405 0.0
H5036 H 0.26256 0.85752 0.13184 0.0
H5037 H 0.31001 0.89615 0.15603 0.0
H5038 H 0.31549 0.87619 0.1782 0.0
H5039 H 0.30956 0.89141 0.11998 0.0
H5040 H 0.26706 0.90491 0.16241 0.0
H5041 H 0.24244 0.89854 0.18212 0.0
H5042 H 0.20724 0.872 0.13366 0.0
H5043 H 0.23173 0.87797 0.11366 0.0
C5044 C 0.28239 0.9386 0.06095 0.0
C5045 C 0.27141 0.92714 0.04601 0.0
C5046 C 0.28344 0.93334 0.0785 0.0
C5047 C 0.27341 0.91664 0.0813 0.0
C5048 C 0.26123 0.9061 0.06681 0.0
C5049 C 0.26039 0.9112 0.04927 0.0
C5050 C 0.27725 0.90874 0.09817 0.0
C5051 C 0.26349 0.90429 0.10945 0.0
C5052 C 0.29416 0.90436 0.10232 0.0
C5053 C 0.30905 0.90807 0.09054 0.0
C5054 C 0.30733 0.89993 0.07163 0.0
C5055 C 0.32128 0.90383 0.06051 0.0
C5056 C 0.33709 0.91571 0.0682 0.0
C5057 C 0.33901 0.92365 0.08704 0.0
C5058 C 0.32508 0.91982 0.09821 0.0
C5059 C 0.27703 0.85051 0.15484 0.0
C5060 C 0.29208 0.85533 0.16796 0.0
C5061 C 0.27397 0.8619 0.14212 0.0
C5062 C 0.28573 0.87853 0.14237 0.0
C5063 C 0.30071 0.88343 0.15553 0.0
C5064 C 0.30386 0.87197 0.16818 0.0
C5065 C 0.28283 0.89029 0.12828 0.0
C5066 C 0.29677 0.89535 0.11737 0.0
C5067 C 0.26611 0.89534 0.1246 0.0
C5068 C 0.25129 0.89178 0.13654 0.0
C5069 C 0.25411 0.8976 0.15596 0.0
C5070 C 0.24017 0.89408 0.16719 0.0
C5071 C 0.2233 0.88484 0.15915 0.0
C5072 C 0.22032 0.87915 0.13986 0.0
C5073 C 0.23422 0.88262 0.12857 0.0
H5074 H 0.21252 0.88212 0.16787 0.0
H5075 H 0.34787 0.91873 0.05956 0.0
H5076 H 0.92 0.54313 0.8555 0.0
H5077 H 0.93835 0.5448 0.88455 0.0
H5078 H 0.98544 0.56563 0.85901 0.0
H5079 H 0.96719 0.56277 0.82962 0.0
H5080 H 0.99196 0.53992 0.87523 0.0
H5081 H 0.96684 0.5934 0.89611 0.0
H5082 H 0.94192 0.61011 0.90024 0.0
H5083 H 0.91716 0.57151 0.93248 0.0
H5084 H 0.94206 0.55474 0.9288 0.0
H5085 H 0.04593 0.55262 0.96222 0.0
H5086 H 0.03082 0.55864 0.93387 0.0
H5087 H 0.98022 0.53282 0.94934 0.0
H5088 H 0.99497 0.52692 0.97748 0.0
H5089 H 0.97783 0.56481 0.93854 0.0
H5090 H 1.00154 0.51065 0.91629 0.0
H5091 H 0.02527 0.49255 0.91107 0.0
H5092 H 0.05183 0.5315 0.88021 0.0
H5093 H 0.02835 0.54997 0.88547 0.0
C5094 C 0.93421 0.54844 0.85629 0.0
C5095 C 0.94226 0.5529 0.84049 0.0
C5096 C 0.9447 0.54948 0.8729 0.0
C5097 C 0.9633 0.55561 0.8741 0.0
C5098 C 0.97115 0.56085 0.85845 0.0
C5099 C 0.96074 0.55931 0.84172 0.0
C5100 C 0.97472 0.55503 0.89106 0.0
C5101 C 0.98912 0.54577 0.88904 0.0
C5102 C 0.9708 0.56225 0.90913 0.0
C5103 C 0.95628 0.57281 0.91214 0.0
C5104 C 0.95611 0.58854 0.90415 0.0
C5105 C 0.94201 0.59803 0.90645 0.0
C5106 C 0.92798 0.59189 0.91664 0.0
C5107 C 0.92809 0.57632 0.92469 0.0
C5108 C 0.94225 0.56689 0.92262 0.0
C5109 C 0.03161 0.54814 0.9595 0.0
C5110 C 0.02168 0.53932 0.97213 0.0
C5111 C 0.02301 0.55161 0.94334 0.0
C5112 C 1.0044 0.5462 0.93958 0.0
C5113 C 0.99456 0.53725 0.95207 0.0
C5114 C 1.00308 0.53381 0.96813 0.0
C5115 C 0.99495 0.54966 0.92262 0.0
C5116 C 0.9809 0.55938 0.92467 0.0
C5117 C 0.99919 0.54286 0.90458 0.0
C5118 C 0.01333 0.5318 0.90148 0.0
C5119 C 0.01253 0.51544 0.90854 0.0
C5120 C 0.02592 0.5051 0.90554 0.0
C5121 C 0.04009 0.5109 0.89537 0.0
C5122 C 0.04087 0.52705 0.88813 0.0
C5123 C 0.02753 0.53745 0.89111 0.0
H5124 H 0.05043 0.50287 0.89305 0.0
H5125 H 0.91704 0.5992 0.91833 0.0
H5126 H 0.3015 0.20348 0.55333 0.0
H5127 H 0.30702 0.21525 0.58688 0.0
H5128 H 0.26044 0.24026 0.58457 0.0
H5129 H 0.25557 0.22947 0.55105 0.0
H5130 H 0.28454 0.26299 0.60521 0.0
H5131 H 0.26332 0.19813 0.60332 0.0
H5132 H 0.26407 0.16539 0.59375 0.0
H5133 H 0.31744 0.17398 0.61998 0.0
H5134 H 0.31704 0.2068 0.62962 0.0
H5135 H 0.26908 0.27827 0.70087 0.0
H5136 H 0.26736 0.26694 0.66739 0.0
H5137 H 0.31821 0.25033 0.67429 0.0
H5138 H 0.32001 0.26148 0.7078 0.0
H5139 H 0.29453 0.2238 0.65171 0.0
H5140 H 0.31477 0.28812 0.65545 0.0
H5141 H 0.31417 0.32089 0.66481 0.0
H5142 H 0.26253 0.31324 0.63481 0.0
H5143 H 0.26271 0.28036 0.62547 0.0
C5144 C 0.29242 0.21143 0.56003 0.0
C5145 C 0.27811 0.21555 0.54949 0.0
C5146 C 0.29551 0.21809 0.57928 0.0
C5147 C 0.28401 0.2285 0.58852 0.0
C5148 C 0.26961 0.23238 0.57794 0.0
C5149 C 0.26678 0.22613 0.5587 0.0
C5150 C 0.28697 0.23576 0.60905 0.0
C5151 C 0.28647 0.25429 0.61533 0.0
C5152 C 0.29012 0.22471 0.62244 0.0
C5153 C 0.2902 0.20492 0.61705 0.0
C5154 C 0.27522 0.19303 0.607 0.0
C5155 C 0.27559 0.17447 0.60157 0.0
C5156 C 0.29081 0.16762 0.60622 0.0
C5157 C 0.30566 0.1793 0.61639 0.0
C5158 C 0.30536 0.19788 0.62187 0.0
C5159 C 0.27999 0.27234 0.6953 0.0
C5160 C 0.29471 0.27089 0.70715 0.0
C5161 C 0.27899 0.26587 0.67609 0.0
C5162 C 0.29271 0.25785 0.66821 0.0
C5163 C 0.30744 0.25642 0.67998 0.0
C5164 C 0.30847 0.26292 0.69919 0.0
C5165 C 0.29159 0.25083 0.64775 0.0
C5166 C 0.29256 0.23243 0.64153 0.0
C5167 C 0.28879 0.26195 0.63439 0.0
C5168 C 0.28869 0.28174 0.63989 0.0
C5169 C 0.30323 0.2934 0.65096 0.0
C5170 C 0.30297 0.312 0.65624 0.0
C5171 C 0.28831 0.31913 0.65044 0.0
C5172 C 0.27388 0.30769 0.6393 0.0
C5173 C 0.27406 0.28907 0.63399 0.0
H5174 H 0.28813 0.33354 0.65455 0.0
H5175 H 0.29108 0.15326 0.60195 0.0
H5176 H 0.61373 0.51902 0.22428 0.0
H5177 H 0.60176 0.52055 0.19347 0.0
H5178 H 0.65144 0.51227 0.17194 0.0
H5179 H 0.66425 0.51188 0.20393 0.0
H5180 H 0.63979 0.53366 0.15168 0.0
H5181 H 0.6068 0.47826 0.16391 0.0
H5182 H 0.58858 0.45725 0.18099 0.0
H5183 H 0.54725 0.48917 0.18116 0.0
H5184 H 0.56531 0.51051 0.16428 0.0
H5185 H 0.59473 0.5176 0.05716 0.0
H5186 H 0.60973 0.51436 0.08687 0.0
H5187 H 0.56807 0.53452 0.11616 0.0
H5188 H 0.55326 0.53822 0.08648 0.0
H5189 H 0.57668 0.50527 0.13098 0.0
H5190 H 0.61148 0.5605 0.11761 0.0
H5191 H 0.63006 0.57921 0.0987 0.0
H5192 H 0.66852 0.54395 0.09825 0.0
H5193 H 0.65004 0.52487 0.11695 0.0
C5194 C 0.62242 0.5173 0.21321 0.0
C5195 C 0.64028 0.51512 0.21746 0.0
C5196 C 0.61522 0.518 0.19503 0.0
C5197 C 0.62508 0.51606 0.17933 0.0
C5198 C 0.64301 0.5137 0.18327 0.0
C5199 C 0.65042 0.51321 0.20183 0.0
C5200 C 0.61653 0.51699 0.15947 0.0
C5201 C 0.62607 0.52709 0.14724 0.0
C5202 C 0.59839 0.50882 0.15277 0.0
C5203 C 0.58749 0.49608 0.16298 0.0
C5204 C 0.59387 0.48087 0.1677 0.0
C5205 C 0.58357 0.46889 0.17733 0.0
C5206 C 0.56679 0.4719 0.1822 0.0
C5207 C 0.56026 0.48687 0.1774 0.0
C5208 C 0.57052 0.4989 0.16778 0.0
C5209 C 0.58865 0.52146 0.06986 0.0
C5210 C 0.5725 0.5283 0.06882 0.0
C5211 C 0.59743 0.51964 0.08715 0.0
C5212 C 0.59046 0.52424 0.1045 0.0
C5213 C 0.57416 0.53078 0.10344 0.0
C5214 C 0.56557 0.53297 0.08618 0.0
C5215 C 0.59985 0.52208 0.12343 0.0
C5216 C 0.59042 0.51176 0.13547 0.0
C5217 C 0.61815 0.52968 0.12969 0.0
C5218 C 0.62928 0.54115 0.11852 0.0
C5219 C 0.62383 0.55665 0.11335 0.0
C5220 C 0.63435 0.56734 0.10269 0.0
C5221 C 0.65043 0.56274 0.09723 0.0
C5222 C 0.65604 0.54748 0.10246 0.0
C5223 C 0.64556 0.53673 0.1131 0.0
H5224 H 0.65856 0.57104 0.08898 0.0
H5225 H 0.55883 0.46261 0.18965 0.0
H5226 H 0.27588 0.89538 0.96232 0.0
H5227 H 0.27953 0.87409 0.93474 0.0
H5228 H 0.28276 0.91725 0.90223 0.0
H5229 H 0.27858 0.93884 0.9301 0.0
H5230 H 0.26347 0.88602 0.88229 0.0
H5231 H 0.32052 0.90237 0.9166 0.0
H5232 H 0.34213 0.90785 0.94433 0.0
H5233 H 0.3286 0.85128 0.94942 0.0
H5234 H 0.3067 0.84552 0.92188 0.0
H5235 H 0.3217 0.825 0.82628 0.0
H5236 H 0.31859 0.84737 0.85335 0.0
H5237 H 0.26243 0.82452 0.85056 0.0
H5238 H 0.26531 0.80247 0.82288 0.0
H5239 H 0.31006 0.84823 0.88675 0.0
H5240 H 0.23885 0.85942 0.86433 0.0
H5241 H 0.21909 0.85468 0.83528 0.0
H5242 H 0.26471 0.8591 0.8036 0.0
H5243 H 0.28474 0.86479 0.83245 0.0
C5244 C 0.2774 0.90048 0.94936 0.0
C5245 C 0.27711 0.91894 0.94853 0.0
C5246 C 0.27953 0.88821 0.93352 0.0
C5247 C 0.28177 0.89401 0.91635 0.0
C5248 C 0.28115 0.91239 0.9153 0.0
C5249 C 0.27885 0.92476 0.93125 0.0
C5250 C 0.28499 0.88077 0.89982 0.0
C5251 C 0.27368 0.8778 0.88325 0.0
C5252 C 0.29856 0.8702 0.9008 0.0
C5253 C 0.31187 0.87355 0.91724 0.0
C5254 C 0.32208 0.89112 0.9237 0.0
C5255 C 0.33438 0.89428 0.93937 0.0
C5256 C 0.33671 0.87993 0.94864 0.0
C5257 C 0.32677 0.86239 0.94223 0.0
C5258 C 0.31442 0.85916 0.92657 0.0
C5259 C 0.30869 0.82451 0.83152 0.0
C5260 C 0.29372 0.81193 0.82223 0.0
C5261 C 0.30693 0.83739 0.84709 0.0
C5262 C 0.2902 0.83801 0.85391 0.0
C5263 C 0.27543 0.8247 0.84538 0.0
C5264 C 0.27712 0.81196 0.82959 0.0
C5265 C 0.28821 0.85304 0.86937 0.0
C5266 C 0.29982 0.85641 0.88573 0.0
C5267 C 0.27523 0.86426 0.86796 0.0
C5268 C 0.26331 0.86227 0.8506 0.0
C5269 C 0.24468 0.85964 0.8512 0.0
C5270 C 0.23342 0.85681 0.83474 0.0
C5271 C 0.24063 0.85652 0.81759 0.0
C5272 C 0.25911 0.85926 0.81687 0.0
C5273 C 0.27043 0.86244 0.83329 0.0
H5274 H 0.23189 0.85421 0.80487 0.0
H5275 H 0.34624 0.8824 0.96079 0.0
H5276 H 0.95633 0.49345 0.75054 0.0
H5277 H 0.96148 0.48608 0.71789 0.0
H5278 H 0.92114 0.51587 0.70274 0.0
H5279 H 0.91572 0.52332 0.73564 0.0
H5280 H 0.92399 0.48194 0.67571 0.0
H5281 H 0.95796 0.53934 0.70706 0.0
H5282 H 0.97662 0.56039 0.73313 0.0
H5283 H 0.0174 0.52779 0.72768 0.0
H5284 H 0.99884 0.50636 0.70177 0.0
H5285 H 0.97058 0.49937 0.59391 0.0
H5286 H 0.95242 0.49937 0.62039 0.0
H5287 H 0.99237 0.47874 0.65074 0.0
H5288 H 0.01092 0.47957 0.62492 0.0
H5289 H 0.98609 0.51102 0.66841 0.0
H5290 H 0.95054 0.45322 0.63616 0.0
H5291 H 0.93132 0.43349 0.60963 0.0
H5292 H 0.89299 0.46893 0.61539 0.0
H5293 H 0.9121 0.48901 0.64181 0.0
C5294 C 0.94832 0.49822 0.7403 0.0
C5295 C 0.9359 0.50932 0.74572 0.0
C5296 C 0.95118 0.49386 0.72163 0.0
C5297 C 0.94181 0.50061 0.70804 0.0
C5298 C 0.92844 0.51052 0.71311 0.0
C5299 C 0.92548 0.51486 0.7319 0.0
C5300 C 0.94811 0.49954 0.6893 0.0
C5301 C 0.93745 0.48847 0.67394 0.0
C5302 C 0.96562 0.50821 0.68713 0.0
C5303 C 0.97694 0.52116 0.70258 0.0
C5304 C 0.97084 0.53658 0.71153 0.0
C5305 C 0.98141 0.54859 0.72626 0.0
C5306 C 0.99817 0.54541 0.73209 0.0
C5307 C 1.00441 0.53023 0.72316 0.0
C5308 C 0.99387 0.51815 0.70844 0.0
C5309 C 0.97538 0.49462 0.60615 0.0
C5310 C 0.99236 0.48978 0.60743 0.0
C5311 C 0.96489 0.49443 0.62116 0.0
C5312 C 0.97113 0.48915 0.63752 0.0
C5313 C 0.98736 0.4829 0.63821 0.0
C5314 C 0.9979 0.48325 0.62335 0.0
C5315 C 0.96235 0.49263 0.65485 0.0
C5316 C 0.97257 0.50448 0.67001 0.0
C5317 C 0.94439 0.48491 0.6566 0.0
C5318 C 0.93284 0.47271 0.64085 0.0
C5319 C 0.93808 0.45688 0.63168 0.0
C5320 C 0.92719 0.44562 0.61668 0.0
C5321 C 0.91097 0.44998 0.6108 0.0
C5322 C 0.90557 0.46558 0.61995 0.0
C5323 C 0.91642 0.47689 0.63495 0.0
H5324 H 0.90256 0.44125 0.59918 0.0
H5325 H 1.00633 0.55473 0.74349 0.0
H5326 H 0.27865 0.22633 0.46054 0.0
H5327 H 0.28015 0.23775 0.43111 0.0
H5328 H 0.27838 0.18301 0.40164 0.0
H5329 H 0.27738 0.17159 0.4312 0.0
H5330 H 0.30247 0.20535 0.3885 0.0
H5331 H 0.24171 0.20567 0.40031 0.0
H5332 H 0.21676 0.21278 0.41828 0.0
H5333 H 0.23671 0.27023 0.42206 0.0
H5334 H 0.26194 0.26346 0.40432 0.0
H5335 H 0.28728 0.22897 0.29823 0.0
H5336 H 0.28463 0.21548 0.32648 0.0
H5337 H 0.28915 0.26917 0.35946 0.0
H5338 H 0.29155 0.28272 0.33133 0.0
H5339 H 0.26273 0.24602 0.3699 0.0
H5340 H 0.32407 0.24508 0.35847 0.0
H5341 H 0.34845 0.2374 0.33987 0.0
H5342 H 0.32646 0.1802 0.33459 0.0
H5343 H 0.3018 0.18755 0.35296 0.0
C5344 C 0.27843 0.21667 0.44779 0.0
C5345 C 0.27783 0.19801 0.44828 0.0
C5346 C 0.27922 0.22323 0.43089 0.0
C5347 C 0.27916 0.21127 0.41396 0.0
C5348 C 0.27844 0.19258 0.41442 0.0
C5349 C 0.27778 0.18603 0.43136 0.0
C5350 C 0.2803 0.21833 0.39591 0.0
C5351 C 0.29357 0.214 0.38433 0.0
C5352 C 0.26895 0.22992 0.39044 0.0
C5353 C 0.25381 0.23405 0.40113 0.0
C5354 C 0.24086 0.21982 0.4051 0.0
C5355 C 0.22665 0.22379 0.41522 0.0
C5356 C 0.22517 0.24195 0.42135 0.0
C5357 C 0.23788 0.25617 0.41732 0.0
C5358 C 0.25213 0.25228 0.40722 0.0
C5359 C 0.28779 0.23795 0.31148 0.0
C5360 C 0.28966 0.25699 0.31238 0.0
C5361 C 0.28634 0.23019 0.32769 0.0
C5362 C 0.28681 0.24127 0.34524 0.0
C5363 C 0.28872 0.26027 0.34616 0.0
C5364 C 0.29018 0.26802 0.32999 0.0
C5365 C 0.28499 0.23318 0.36263 0.0
C5366 C 0.27158 0.23731 0.37407 0.0
C5367 C 0.29612 0.22132 0.36789 0.0
C5368 C 0.31099 0.21688 0.35693 0.0
C5369 C 0.32436 0.23087 0.35322 0.0
C5370 C 0.33824 0.22658 0.34274 0.0
C5371 C 0.33898 0.20833 0.33601 0.0
C5372 C 0.32586 0.19433 0.33979 0.0
C5373 C 0.31194 0.19855 0.35025 0.0
H5374 H 0.34973 0.20503 0.32789 0.0
H5375 H 0.21416 0.24499 0.42917 0.0
H5376 H 0.37222 0.62613 0.51234 0.0
H5377 H 0.4003 0.61551 0.50896 0.0
H5378 H 0.38216 0.57205 0.53906 0.0
H5379 H 0.35331 0.58215 0.5414 0.0
H5380 H 0.42688 0.6141 0.5276 0.0
H5381 H 0.40555 0.53742 0.5317 0.0
H5382 H 0.37913 0.51265 0.52354 0.0
H5383 H 0.35967 0.54004 0.48159 0.0
H5384 H 0.38606 0.56485 0.48936 0.0
H5385 H 0.50736 0.5793 0.53584 0.0
H5386 H 0.47856 0.58864 0.53943 0.0
H5387 H 0.45581 0.55026 0.48987 0.0
H5388 H 0.48445 0.54011 0.48696 0.0
H5389 H 0.43154 0.54895 0.5106 0.0
H5390 H 0.46728 0.60152 0.49451 0.0
H5391 H 0.49321 0.62661 0.4966 0.0
H5392 H 0.48275 0.64815 0.55211 0.0
H5393 H 0.45688 0.62304 0.55043 0.0
C5394 C 0.37407 0.61423 0.51823 0.0
C5395 C 0.36022 0.60507 0.52715 0.0
C5396 C 0.39038 0.60813 0.51634 0.0
C5397 C 0.39384 0.5927 0.52352 0.0
C5398 C 0.38009 0.58366 0.53281 0.0
C5399 C 0.36348 0.58957 0.53434 0.0
C5400 C 0.41181 0.58654 0.52132 0.0
C5401 C 0.42772 0.59979 0.52389 0.0
C5402 C 0.41352 0.56795 0.51609 0.0
C5403 C 0.39766 0.55308 0.51128 0.0
C5404 C 0.39564 0.53813 0.52071 0.0
C5405 C 0.38067 0.52409 0.51616 0.0
C5406 C 0.3677 0.52481 0.5021 0.0
C5407 C 0.36969 0.53953 0.49252 0.0
C5408 C 0.38464 0.5536 0.49701 0.0
C5409 C 0.49634 0.573 0.52549 0.0
C5410 C 0.49858 0.55907 0.5109 0.0
C5411 C 0.47967 0.57844 0.52753 0.0
C5412 C 0.4646 0.57059 0.51476 0.0
C5413 C 0.4669 0.55674 0.50007 0.0
C5414 C 0.48349 0.551 0.49827 0.0
C5415 C 0.44654 0.57652 0.51685 0.0
C5416 C 0.43065 0.56325 0.51432 0.0
C5417 C 0.44475 0.59516 0.52134 0.0
C5418 C 0.46025 0.6103 0.52241 0.0
C5419 C 0.47058 0.61154 0.5072 0.0
C5420 C 0.48525 0.62577 0.50831 0.0
C5421 C 0.48965 0.63893 0.52449 0.0
C5422 C 0.47934 0.63792 0.53959 0.0
C5423 C 0.46466 0.62371 0.53857 0.0
H5424 H 0.50102 0.64994 0.52532 0.0
H5425 H 0.35612 0.51393 0.4986 0.0
H5426 H 0.87684 0.88795 0.52985 0.0
H5427 H 0.90443 0.91031 0.53204 0.0
H5428 H 0.87434 0.95382 0.53533 0.0
H5429 H 0.84644 0.93138 0.53323 0.0
H5430 H 0.90024 0.95716 0.51042 0.0
H5431 H 0.89755 0.94948 0.57333 0.0
H5432 H 0.8937 0.93271 0.59954 0.0
H5433 H 0.93939 0.90874 0.58648 0.0
H5434 H 0.94341 0.92528 0.56006 0.0
H5435 H 0.97985 0.02552 0.53266 0.0
H5436 H 0.95086 1.00702 0.53603 0.0
H5437 H 0.97392 0.95843 0.52875 0.0
H5438 H 1.0029 0.97679 0.52519 0.0
H5439 H 0.95056 0.96011 0.5578 0.0
H5440 H 0.95115 0.96678 0.49315 0.0
H5441 H 0.95462 0.9843 0.46745 0.0
H5442 H 0.91208 0.01153 0.4851 0.0
H5443 H 0.90855 0.99436 0.51109 0.0
C5444 C 0.87599 0.90226 0.53112 0.0
C5445 C 0.85931 0.9078 0.53138 0.0
C5446 C 0.89186 0.91508 0.53245 0.0
C5447 C 0.89155 0.93381 0.53398 0.0
C5448 C 0.87495 0.93945 0.5342 0.0
C5449 C 0.85901 0.92661 0.53308 0.0
C5450 C 0.90861 0.94726 0.53494 0.0
C5451 C 0.91111 0.95806 0.521 0.0
C5452 C 0.92295 0.94832 0.54859 0.0
C5453 C 0.92068 0.93846 0.56457 0.0
C5454 C 0.9067 0.94052 0.57594 0.0
C5455 C 0.90451 0.9311 0.59087 0.0
C5456 C 0.91628 0.91964 0.59465 0.0
C5457 C 0.9303 0.91763 0.58353 0.0
C5458 C 0.93255 0.92704 0.56859 0.0
C5459 C 0.97883 0.01093 0.53198 0.0
C5460 C 0.99374 1.00265 0.52854 0.0
C5461 C 0.9622 1.00035 0.53383 0.0
C5462 C 0.96014 0.98129 0.5325 0.0
C5463 C 0.97515 0.97309 0.5298 0.0
C5464 C 0.99171 0.98361 0.52767 0.0
C5465 C 0.94222 0.9698 0.53315 0.0
C5466 C 0.9396 0.95935 0.54736 0.0
C5467 C 0.92771 0.96921 0.51988 0.0
C5468 C 0.92973 0.97944 0.50419 0.0
C5469 C 0.94264 0.97662 0.49165 0.0
C5470 C 0.9446 0.98647 0.47701 0.0
C5471 C 0.93361 0.99907 0.47468 0.0
C5472 C 0.9206 1.0018 0.48694 0.0
C5473 C 0.91861 0.992 0.50163 0.0
H5474 H 0.93515 1.00668 0.46334 0.0
H5475 H 0.91455 0.91234 0.6062 0.0
H5476 H 0.91842 0.12456 0.2688 0.0
H5477 H 0.90444 0.15148 0.26947 0.0
H5478 H 0.85254 0.11709 0.26484 0.0
H5479 H 0.86665 0.09008 0.26295 0.0
H5480 H 0.84397 0.14119 0.25092 0.0
H5481 H 0.88188 0.15562 0.30809 0.0
H5482 H 0.90958 0.16169 0.32914 0.0
H5483 H 0.93227 0.20446 0.30053 0.0
H5484 H 0.9048 0.19847 0.27916 0.0
H5485 H 0.79787 0.21809 0.27545 0.0
H5486 H 0.81239 0.19139 0.27467 0.0
H5487 H 0.86254 0.22456 0.26776 0.0
H5488 H 0.84801 0.25129 0.26868 0.0
H5489 H 0.87186 0.20161 0.28764 0.0
H5490 H 0.83203 0.18703 0.23136 0.0
H5491 H 0.80282 0.18182 0.21302 0.0
H5492 H 0.78239 0.13944 0.24315 0.0
H5493 H 0.81139 0.14459 0.26185 0.0
C5494 C 0.90398 0.1225 0.26791 0.0
C5495 C 0.89411 0.10431 0.26581 0.0
C5496 C 0.8957 0.13841 0.2686 0.0
C5497 C 0.87678 0.1376 0.26785 0.0
C5498 C 0.86696 0.11929 0.26559 0.0
C5499 C 0.87525 0.10336 0.26454 0.0
C5500 C 0.86734 0.15514 0.26899 0.0
C5501 C 0.85029 0.15418 0.25932 0.0
C5502 C 0.87468 0.17313 0.27942 0.0
C5503 C 0.89138 0.1764 0.29186 0.0
C5504 C 0.89285 0.16618 0.30618 0.0
C5505 C 0.9085 0.16964 0.31818 0.0
C5506 C 0.9227 0.1834 0.31612 0.0
C5507 C 0.92129 0.19374 0.30206 0.0
C5508 C 0.90569 0.19032 0.28999 0.0
C5509 C 0.81203 0.21996 0.27381 0.0
C5510 C 0.82132 0.2377 0.27222 0.0
C5511 C 0.82055 0.20423 0.27314 0.0
C5512 C 0.83909 0.20486 0.27078 0.0
C5513 C 0.8484 0.22269 0.26954 0.0
C5514 C 0.83986 0.23839 0.27007 0.0
C5515 C 0.84861 0.18748 0.2697 0.0
C5516 C 0.86565 0.18854 0.27931 0.0
C5517 C 0.84115 0.16953 0.25949 0.0
C5518 C 0.82383 0.1663 0.24811 0.0
C5519 C 0.82128 0.17666 0.23413 0.0
C5520 C 0.80476 0.17372 0.22367 0.0
C5521 C 0.79076 0.16033 0.22696 0.0
C5522 C 0.79325 0.14982 0.24065 0.0
C5523 C 0.80972 0.15274 0.25117 0.0
H5524 H 0.77798 0.15805 0.21891 0.0
H5525 H 0.93478 0.18609 0.32547 0.0
H5526 H 0.74861 0.0998 0.98888 0.0
H5527 H 0.71698 0.08635 0.98857 0.0
H5528 H 0.72284 0.09252 0.04848 0.0
H5529 H 0.7548 0.10512 0.04859 0.0
H5530 H 0.699 0.06353 0.03654 0.0
H5531 H 0.70541 0.12455 0.02136 0.0
H5532 H 0.71471 0.14894 1.00322 0.0
H5533 H 0.68599 0.11511 0.95385 0.0
H5534 H 0.67651 0.09055 0.97167 0.0
H5535 H 0.60584 0.05942 0.04872 0.0
H5536 H 0.63835 0.06799 0.0491 0.0
H5537 H 0.63321 0.06393 0.98937 0.0
H5538 H 0.6008 0.05613 0.98906 0.0
H5539 H 0.65678 0.09146 1.0014 0.0
H5540 H 0.64964 0.03089 0.01514 0.0
H5541 H 0.63938 1.00584 0.03214 0.0
H5542 H 0.66902 0.03702 0.08233 0.0
H5543 H 0.67928 0.06236 0.06569 0.0
C5544 C 0.74331 0.09762 1.00193 0.0
C5545 C 0.75446 0.10311 0.01871 0.0
C5546 C 0.72502 0.09027 1.00182 0.0
C5547 C 0.71701 0.08884 0.01856 0.0
C5548 C 0.72838 0.09345 0.03529 0.0
C5549 C 0.7468 0.10051 0.03536 0.0
C5550 C 0.69688 0.08328 0.01869 0.0
C5551 C 0.68984 0.06985 0.02901 0.0
C5552 C 0.6845 0.09096 0.00854 0.0
C5553 C 0.69038 0.10568 0.99782 0.0
C5554 C 0.70116 0.12229 1.00662 0.0
C5555 C 0.70641 0.13616 0.99639 0.0
C5556 C 0.70088 0.13359 0.9774 0.0
C5557 C 0.69017 0.11713 0.96857 0.0
C5558 C 0.68484 0.10324 0.97872 0.0
C5559 C 0.61161 0.06031 0.03565 0.0
C5560 C 0.60046 0.05701 0.01887 0.0
C5561 C 0.63037 0.0651 0.03584 0.0
C5562 C 0.63868 0.0664 0.01922 0.0
C5563 C 0.62748 0.06311 1.00248 0.0
C5564 C 0.60877 0.05857 1.00231 0.0
C5565 C 0.65884 0.07164 0.01917 0.0
C5566 C 0.6659 0.08507 0.0089 0.0
C5567 C 0.67118 0.0638 0.02918 0.0
C5568 C 0.66508 0.04859 0.03921 0.0
C5569 C 0.65387 0.03245 0.02984 0.0
C5570 C 0.64807 0.01819 0.0394 0.0
C5571 C 0.6535 0.01986 0.05831 0.0
C5572 C 0.6648 0.03576 0.06769 0.0
C5573 C 0.67062 0.05007 0.05819 0.0
H5574 H 0.649 1.00881 0.06569 0.0
H5575 H 0.70485 0.14435 0.9695 0.0
H5576 H 0.18131 0.48376 0.26209 0.0
H5577 H 0.19875 0.45995 0.26532 0.0
H5578 H 0.24279 0.49027 0.24233 0.0
H5579 H 0.22544 0.51405 0.23891 0.0
H5580 H 0.21722 0.43773 0.24098 0.0
H5581 H 0.27978 0.49116 0.27242 0.0
H5582 H 0.28734 0.52307 0.28908 0.0
H5583 H 0.23615 0.51742 0.31103 0.0
H5584 H 0.22842 0.48542 0.29475 0.0
H5585 H 0.29321 0.39605 0.24884 0.0
H5586 H 0.27494 0.41836 0.24273 0.0
H5587 H 0.2635 0.42641 0.30025 0.0
H5588 H 0.28108 0.40348 0.30629 0.0
H5589 H 0.27145 0.4591 0.28551 0.0
H5590 H 0.2356 0.3993 0.27092 0.0
H5591 H 0.22708 0.36717 0.25539 0.0
H5592 H 0.22137 0.38418 0.2024 0.0
H5593 H 0.23105 0.41639 0.21741 0.0
C5594 C 0.19457 0.48515 0.25734 0.0
C5595 C 0.20209 0.50083 0.25041 0.0
C5596 C 0.20448 0.47154 0.25916 0.0
C5597 C 0.2221 0.47354 0.2543 0.0
C5598 C 0.22924 0.48861 0.24631 0.0
C5599 C 0.21929 0.50213 0.24431 0.0
C5600 C 0.23354 0.46077 0.2591 0.0
C5601 C 0.22915 0.44235 0.25061 0.0
C5602 C 0.2488 0.46685 0.27204 0.0
C5603 C 0.25346 0.48597 0.28219 0.0
C5604 C 0.27018 0.49672 0.28087 0.0
C5605 C 0.27449 0.51482 0.29024 0.0
C5606 C 0.26221 0.52229 0.30106 0.0
C5607 C 0.24562 0.51164 0.30259 0.0
C5608 C 0.24126 0.49353 0.29328 0.0
C5609 C 0.28677 0.40251 0.26017 0.0
C5610 C 0.28836 0.39775 0.27796 0.0
C5611 C 0.27644 0.41533 0.25668 0.0
C5612 C 0.26772 0.4238 0.27099 0.0
C5613 C 0.27013 0.41995 0.28903 0.0
C5614 C 0.28028 0.40693 0.29247 0.0
C5615 C 0.25547 0.43608 0.26696 0.0
C5616 C 0.25965 0.45444 0.27571 0.0
C5617 C 0.23989 0.42983 0.25442 0.0
C5618 C 0.23437 0.41034 0.24531 0.0
C5619 C 0.23293 0.39622 0.25591 0.0
C5620 C 0.22789 0.37796 0.24718 0.0
C5621 C 0.22377 0.37362 0.2279 0.0
C5622 C 0.22474 0.38754 0.21731 0.0
C5623 C 0.23013 0.40581 0.22591 0.0
H5624 H 0.21976 0.35948 0.22119 0.0
H5625 H 0.26556 0.53631 0.30828 0.0
H5626 H 0.28331 0.43897 0.04185 0.0
H5627 H 0.25777 0.45431 0.0403 0.0
H5628 H 0.2219 0.40214 0.03231 0.0
H5629 H 0.24748 0.3867 0.03304 0.0
H5630 H 0.21115 0.4204 0.00895 0.0
H5631 H 0.22792 0.43548 0.0745 0.0
H5632 H 0.24812 0.44721 0.10317 0.0
H5633 H 0.25867 0.50043 0.08794 0.0
H5634 H 0.23871 0.48897 0.05904 0.0
H5635 H 0.13297 0.45972 0.01803 0.0
H5636 H 0.15719 0.44348 0.02421 0.0
H5637 H 0.19583 0.49282 0.02538 0.0
H5638 H 0.17171 0.50924 0.01968 0.0
H5639 H 0.20407 0.4752 0.05338 0.0
H5640 H 0.1878 0.45893 0.98704 0.0
H5641 H 0.16703 0.44673 0.95884 0.0
H5642 H 0.15476 0.39484 0.97676 0.0
H5643 H 0.17529 0.40681 1.00519 0.0
C5644 C 0.26997 0.43078 0.04004 0.0
C5645 C 0.26744 0.4116 0.03762 0.0
C5646 C 0.25532 0.43959 0.03922 0.0
C5647 C 0.23776 0.42947 0.0364 0.0
C5648 C 0.23524 0.41032 0.03447 0.0
C5649 C 0.2499 0.40149 0.03499 0.0
C5650 C 0.2221 0.43872 0.03443 0.0
C5651 C 0.20949 0.43218 0.0189 0.0
C5652 C 0.21995 0.45436 0.04713 0.0
C5653 C 0.23193 0.46132 0.06452 0.0
C5654 C 0.23464 0.44965 0.0772 0.0
C5655 C 0.24603 0.45626 0.0935 0.0
C5656 C 0.25471 0.47454 0.09735 0.0
C5657 C 0.25196 0.48627 0.08493 0.0
C5658 C 0.24059 0.47973 0.06859 0.0
C5659 C 0.14661 0.46717 0.01978 0.0
C5660 C 0.15036 0.48579 0.01822 0.0
C5661 C 0.16047 0.45782 0.02317 0.0
C5662 C 0.17839 0.46685 0.02505 0.0
C5663 C 0.18214 0.48552 0.02391 0.0
C5664 C 0.16832 0.49485 0.02047 0.0
C5665 C 0.19328 0.45687 0.02794 0.0
C5666 C 0.20573 0.46332 0.04358 0.0
C5667 C 0.1952 0.44104 0.01546 0.0
C5668 C 0.18293 0.43382 0.99833 0.0
C5669 C 0.18057 0.44496 0.98503 0.0
C5670 C 0.16886 0.43808 0.969 0.0
C5671 C 0.15954 0.42004 0.96604 0.0
C5672 C 0.16196 0.40882 0.97908 0.0
C5673 C 0.17364 0.41564 0.99515 0.0
H5674 H 0.15049 0.41474 0.95361 0.0
H5675 H 0.26352 0.47963 0.10998 0.0
H5676 H 0.91915 0.98497 0.27869 0.0
H5677 H 0.90213 0.95453 0.27773 0.0
H5678 H 0.85626 0.96977 0.2518 0.0
H5679 H 0.87353 1.00109 0.25305 0.0
H5680 H 0.84379 0.94612 0.27389 0.0
H5681 H 0.88489 0.9402 0.22768 0.0
H5682 H 0.91415 0.94386 0.21479 0.0
H5683 H 0.93381 0.91389 0.25423 0.0
H5684 H 0.90473 0.91026 0.26753 0.0
H5685 H 0.79902 0.85073 0.25128 0.0
H5686 H 0.81344 0.8824 0.25097 0.0
H5687 H 0.86271 0.87191 0.2748 0.0
H5688 H 0.84836 0.84013 0.27483 0.0
H5689 H 0.87242 0.89341 0.25215 0.0
H5690 H 0.83149 0.90003 0.29888 0.0
H5691 H 0.80222 0.89642 0.31177 0.0
H5692 H 0.7821 0.92483 0.2711 0.0
H5693 H 0.81119 0.92841 0.25782 0.0
C5694 C 0.90544 0.98219 0.27265 0.0
C5695 C 0.8982 0.99624 0.26579 0.0
C5696 C 0.89555 0.96426 0.27199 0.0
C5697 C 0.87764 0.95881 0.26419 0.0
C5698 C 0.86999 0.97292 0.2578 0.0
C5699 C 0.88 0.99114 0.25853 0.0
C5700 C 0.86746 0.93865 0.26286 0.0
C5701 C 0.85009 0.93471 0.26881 0.0
C5702 C 0.8752 0.92301 0.25669 0.0
C5703 C 0.89268 0.9251 0.2487 0.0
C5704 C 0.89549 0.93449 0.23368 0.0
C5705 C 0.91204 0.93655 0.22629 0.0
C5706 C 0.92584 0.92915 0.23372 0.0
C5707 C 0.92311 0.91963 0.24851 0.0
C5708 C 0.90659 0.91755 0.25597 0.0
C5709 C 0.81295 0.85501 0.2565 0.0
C5710 C 0.82221 0.8422 0.26311 0.0
C5711 C 0.82132 0.87354 0.25648 0.0
C5712 C 0.83949 0.88052 0.26318 0.0
C5713 C 0.8488 0.86761 0.26952 0.0
C5714 C 0.84042 0.8491 0.26958 0.0
C5715 C 0.8488 0.90081 0.26335 0.0
C5716 C 0.86606 0.90479 0.25721 0.0
C5717 C 0.84093 0.91643 0.26931 0.0
C5718 C 0.82345 0.91431 0.27724 0.0
C5719 C 0.82078 0.90539 0.29261 0.0
C5720 C 0.80423 0.90337 0.29999 0.0
C5721 C 0.79029 0.91034 0.29222 0.0
C5722 C 0.79289 0.9194 0.27708 0.0
C5723 C 0.80941 0.92144 0.26963 0.0
H5724 H 0.77749 0.90877 0.29796 0.0
H5725 H 0.93864 0.93076 0.22798 0.0
H5726 H 0.67299 0.1151 0.77 0.0
H5727 H 0.69044 0.14242 0.76176 0.0
H5728 H 0.72833 0.11093 0.73859 0.0
H5729 H 0.71099 0.08336 0.74693 0.0
H5730 H 0.74454 0.14327 0.76103 0.0
H5731 H 0.70036 0.12451 0.70938 0.0
H5732 H 0.66997 0.11384 0.69363 0.0
H5733 H 0.65428 0.16304 0.71985 0.0
H5734 H 0.68449 0.17391 0.73597 0.0
H5735 H 0.78558 0.22765 0.73587 0.0
H5736 H 0.77129 0.19523 0.73036 0.0
H5737 H 0.72491 0.20959 0.75557 0.0
H5738 H 0.73894 0.24176 0.76103 0.0
H5739 H 0.71588 0.18252 0.72487 0.0
H5740 H 0.75685 0.19732 0.7814 0.0
H5741 H 0.78653 0.20837 0.79878 0.0
H5742 H 0.80757 0.1669 0.76425 0.0
H5743 H 0.77803 0.15573 0.74654 0.0
C5744 C 0.68501 0.11389 0.76313 0.0
C5745 C 0.69054 0.09698 0.75908 0.0
C5746 C 0.69491 0.12953 0.75833 0.0
C5747 C 0.7105 0.12861 0.74929 0.0
C5748 C 0.71626 0.11186 0.74544 0.0
C5749 C 0.70632 0.09614 0.75022 0.0
C5750 C 0.72091 0.14541 0.74448 0.0
C5751 C 0.73846 0.15164 0.75271 0.0
C5752 C 0.71287 0.15637 0.73378 0.0
C5753 C 0.6947 0.14999 0.72395 0.0
C5754 C 0.69041 0.13301 0.71187 0.0
C5755 C 0.67321 0.12693 0.70287 0.0
C5756 C 0.6602 0.13775 0.70575 0.0
C5757 C 0.66437 0.15469 0.71762 0.0
C5758 C 0.68155 0.16083 0.72667 0.0
C5759 C 0.7722 0.22388 0.7399 0.0
C5760 C 0.76343 0.23718 0.74905 0.0
C5761 C 0.76411 0.20539 0.7368 0.0
C5762 C 0.74713 0.20006 0.74272 0.0
C5763 C 0.73801 0.21344 0.75089 0.0
C5764 C 0.7461 0.23181 0.7541 0.0
C5765 C 0.73922 0.18059 0.74195 0.0
C5766 C 0.72215 0.17387 0.73269 0.0
C5767 C 0.74763 0.16924 0.7518 0.0
C5768 C 0.76532 0.17585 0.76251 0.0
C5769 C 0.76785 0.19065 0.77744 0.0
C5770 C 0.78462 0.19692 0.78736 0.0
C5771 C 0.79893 0.18838 0.78256 0.0
C5772 C 0.79648 0.17352 0.7679 0.0
C5773 C 0.77972 0.16721 0.75793 0.0
H5774 H 0.8119 0.19326 0.79023 0.0
H5775 H 0.6469 0.13301 0.69878 0.0
loop_
_geom_bond_atom_site_label_1
_geom_bond_atom_site_label_2
_geom_bond_distance
_geom_bond_site_symmetry_2
_ccdc_geom_bond_type
Co0 O1 2.216 . S
Co0 O2 2.091 . S
Co0 O4 2.004 . S
Co0 O10 2.021 . S
Co0 O12 2.137 . S
Co0 O13 2.244 . S
O1 Co0 2.216 . S
O1 C8 1.247 . S
O2 Co0 2.091 . S
O2 C8 1.261 . S
C3 O12 1.247 . S
C3 O13 1.272 . S
O4 Co0 2.004 . S
O4 C9 1.259 . S
Co5 O6 2.061 . S
Co5 O11 2.052 . S
Co5 O13 2.135 . S
O6 Co5 2.061 . S
O6 C9 1.235 . S
C7 O10 1.238 . S
C7 O11 1.241 . S
C8 O1 1.247 . S
C8 O2 1.261 . S
C9 O4 1.259 . S
C9 O6 1.235 . S
O10 Co0 2.021 . S
O10 C7 1.238 . S
O11 Co5 2.052 . S
O11 C7 1.241 . S
O12 Co0 2.137 . S
O12 C3 1.247 . S
O13 Co0 2.244 . S
O13 C3 1.272 . S
O13 Co5 2.135 . S
Co14 O15 2.216 . S
Co14 O16 2.091 . S
Co14 O18 2.004 1_655 S
Co14 O24 2.021 . S
Co14 O26 2.137 . S
Co14 O27 2.244 1_655 S
O15 Co14 2.216 . S
O15 C22 1.247 . S
O16 Co14 2.091 . S
O16 C22 1.261 . S
C17 O26 1.247 1_455 S
C17 O27 1.272 . S
O18 Co14 2.004 1_455 S
O18 C23 1.259 . S
Co19 O20 2.061 . S
Co19 O25 2.052 . S
Co19 O27 2.135 . S
O20 Co19 2.061 . S
O20 C23 1.235 . S
C21 O24 1.259 . S
C21 O25 1.215 1_655 S
C22 O15 1.247 . S
C22 O16 1.261 . S
C23 O18 1.259 . S
C23 O20 1.235 . S
O24 Co14 2.021 . S
O24 C21 1.259 . S
O25 Co19 2.052 . S
O25 C21 1.215 1_455 S
O26 Co14 2.137 . S
O26 C17 1.247 1_655 S
O27 Co14 2.244 1_455 S
O27 C17 1.272 . S
O27 Co19 2.135 . S
Co28 O29 2.216 . S
Co28 O30 2.091 . S
Co28 O32 2.004 . S
Co28 O38 2.021 . S
Co28 O40 2.137 . S
Co28 O41 2.244 . S
O29 Co28 2.216 . S
O29 C36 1.247 . S
O30 Co28 2.091 . S
O30 C36 1.261 . S
C31 O40 1.247 . S
C31 O41 1.272 . S
O32 Co28 2.004 . S
O32 C37 1.259 . S
Co33 O34 2.061 . S
Co33 O39 2.052 . S
Co33 O41 2.135 . S
O34 Co33 2.061 . S
O34 C37 1.235 . S
C35 O38 1.238 . S
C35 O39 1.241 . S
C36 O29 1.247 . S
C36 O30 1.261 . S
C37 O32 1.259 . S
C37 O34 1.235 . S
O38 Co28 2.021 . S
O38 C35 1.238 . S
O39 Co33 2.052 . S
O39 C35 1.241 . S
O40 Co28 2.137 . S
O40 C31 1.247 . S
O41 Co28 2.244 . S
O41 C31 1.272 . S
O41 Co33 2.135 . S
Co42 O43 2.216 . S
Co42 O44 2.091 . S
Co42 O46 2.004 . S
Co42 O52 2.021 . S
Co42 O54 2.137 . S
Co42 O55 2.244 . S
O43 Co42 2.216 . S
O43 C50 1.247 . S
O44 Co42 2.091 . S
O44 C50 1.261 . S
C45 O54 1.247 . S
C45 O55 1.272 . S
O46 Co42 2.004 . S
O46 C51 1.259 . S
Co47 O48 2.061 . S
Co47 O53 2.052 . S
Co47 O55 2.135 . S
O48 Co47 2.061 . S
O48 C51 1.235 . S
C49 O52 1.238 . S
C49 O53 1.241 . S
C50 O43 1.247 . S
C50 O44 1.261 . S
C51 O46 1.259 . S
C51 O48 1.235 . S
O52 Co42 2.021 . S
O52 C49 1.238 . S
O53 Co47 2.052 . S
O53 C49 1.241 . S
O54 Co42 2.137 . S
O54 C45 1.247 . S
O55 Co42 2.244 . S
O55 C45 1.272 . S
O55 Co47 2.135 . S
Co56 O57 2.216 . S
Co56 O58 2.091 . S
Co56 O60 2.004 . S
Co56 O66 2.021 . S
Co56 O68 2.137 . S
Co56 O69 2.244 . S
O57 Co56 2.216 . S
O57 C64 1.247 . S
O58 Co56 2.091 . S
O58 C64 1.261 . S
C59 O68 1.247 . S
C59 O69 1.272 . S
O60 Co56 2.004 . S
O60 C65 1.259 . S
Co61 O62 2.061 . S
Co61 O67 2.052 . S
Co61 O69 2.135 . S
O62 Co61 2.061 . S
O62 C65 1.235 . S
C63 O66 1.238 . S
C63 O67 1.241 . S
C64 O57 1.247 . S
C64 O58 1.261 . S
C65 O60 1.259 . S
C65 O62 1.235 . S
O66 Co56 2.021 . S
O66 C63 1.238 . S
O67 Co61 2.052 . S
O67 C63 1.241 . S
O68 Co56 2.137 . S
O68 C59 1.247 . S
O69 Co56 2.244 . S
O69 C59 1.272 . S
O69 Co61 2.135 . S
Co70 O71 2.216 . S
Co70 O72 2.091 . S
Co70 O74 2.004 . S
Co70 O80 2.021 . S
Co70 O82 2.137 . S
Co70 O83 2.244 . S
O71 Co70 2.216 . S
O71 C78 1.247 . S
O72 Co70 2.091 . S
O72 C78 1.261 . S
C73 O82 1.247 . S
C73 O83 1.272 . S
O74 Co70 2.004 . S
O74 C79 1.259 . S
Co75 O76 2.061 . S
Co75 O81 2.052 . S
Co75 O83 2.135 . S
O76 Co75 2.061 . S
O76 C79 1.235 . S
C77 O80 1.238 . S
C77 O81 1.241 . S
C78 O71 1.247 . S
C78 O72 1.261 . S
C79 O74 1.259 . S
C79 O76 1.235 . S
O80 Co70 2.021 . S
O80 C77 1.238 . S
O81 Co75 2.052 . S
O81 C77 1.241 . S
O82 Co70 2.137 . S
O82 C73 1.247 . S
O83 Co70 2.244 . S
O83 C73 1.272 . S
O83 Co75 2.135 . S
Co84 O85 2.216 . S
Co84 O86 2.091 . S
Co84 O88 2.004 . S
Co84 O94 2.021 . S
Co84 O96 2.137 . S
Co84 O97 2.244 . S
O85 Co84 2.216 . S
O85 C92 1.247 . S
O86 Co84 2.091 . S
O86 C92 1.261 . S
C87 O96 1.247 . S
C87 O97 1.272 . S
O88 Co84 2.004 . S
O88 C93 1.259 . S
Co89 O90 2.061 . S
Co89 O95 2.052 . S
Co89 O97 2.135 . S
O90 Co89 2.061 . S
O90 C93 1.235 . S
C91 O94 1.238 . S
C91 O95 1.241 . S
C92 O85 1.247 . S
C92 O86 1.261 . S
C93 O88 1.259 . S
C93 O90 1.235 . S
O94 Co84 2.021 . S
O94 C91 1.238 . S
O95 Co89 2.052 . S
O95 C91 1.241 . S
O96 Co84 2.137 . S
O96 C87 1.247 . S
O97 Co84 2.244 . S
O97 C87 1.272 . S
O97 Co89 2.135 . S
Co98 O99 2.216 . S
Co98 O100 2.091 . S
Co98 O102 2.004 1_455 S
Co98 O108 2.021 . S
Co98 O110 2.137 . S
Co98 O111 2.244 . S
O99 Co98 2.216 . S
O99 C106 1.247 . S
O100 Co98 2.091 . S
O100 C106 1.261 . S
C101 O110 1.247 . S
C101 O111 1.272 . S
O102 Co98 2.004 1_655 S
O102 C107 1.259 . S
Co103 O104 2.061 . S
Co103 O109 2.052 . S
Co103 O111 2.135 1_655 S
O104 Co103 2.061 . S
O104 C107 1.235 . S
C105 O108 1.238 . S
C105 O109 1.241 1_455 S
C106 O99 1.247 . S
C106 O100 1.261 . S
C107 O102 1.259 . S
C107 O104 1.235 . S
O108 Co98 2.021 . S
O108 C105 1.238 . S
O109 Co103 2.052 . S
O109 C105 1.241 1_655 S
O110 Co98 2.137 . S
O110 C101 1.247 . S
O111 Co98 2.244 . S
O111 C101 1.272 . S
O111 Co103 2.135 1_455 S
Co112 O113 2.216 . S
Co112 O114 2.091 . S
Co112 O116 2.004 1_545 S
Co112 O122 2.021 . S
Co112 O124 2.137 . S
Co112 O125 2.244 . S
O113 Co112 2.216 . S
O113 C120 1.247 . S
O114 Co112 2.091 . S
O114 C120 1.261 . S
C115 O124 1.247 . S
C115 O125 1.272 . S
O116 Co112 2.004 1_565 S
O116 C121 1.259 . S
Co117 O118 2.061 . S
Co117 O123 2.052 . S
Co117 O125 2.135 1_565 S
O118 Co117 2.061 . S
O118 C121 1.235 . S
C119 O122 1.238 . S
C119 O123 1.241 1_545 S
C120 O113 1.247 . S
C120 O114 1.261 . S
C121 O116 1.259 . S
C121 O118 1.235 . S
O122 Co112 2.021 . S
O122 C119 1.238 . S
O123 Co117 2.052 . S
O123 C119 1.241 1_565 S
O124 Co112 2.137 . S
O124 C115 1.247 . S
O125 Co112 2.244 . S
O125 C115 1.272 . S
O125 Co117 2.135 1_545 S
Co126 O127 2.216 . S
Co126 O128 2.091 . S
Co126 O130 2.004 . S
Co126 O136 2.021 . S
Co126 O138 2.137 . S
Co126 O139 2.244 . S
O127 Co126 2.216 . S
O127 C134 1.247 . S
O128 Co126 2.091 . S
O128 C134 1.261 . S
C129 O138 1.247 . S
C129 O139 1.272 . S
O130 Co126 2.004 . S
O130 C135 1.259 . S
Co131 O132 2.061 . S
Co131 O137 2.052 . S
Co131 O139 2.135 . S
O132 Co131 2.061 . S
O132 C135 1.235 . S
C133 O136 1.238 . S
C133 O137 1.241 . S
C134 O127 1.247 . S
C134 O128 1.261 . S
C135 O130 1.259 . S
C135 O132 1.235 . S
O136 Co126 2.021 . S
O136 C133 1.238 . S
O137 Co131 2.052 . S
O137 C133 1.241 . S
O138 Co126 2.137 . S
O138 C129 1.247 . S
O139 Co126 2.244 . S
O139 C129 1.272 . S
O139 Co131 2.135 . S
Co140 O141 2.216 1_545 S
Co140 O142 2.091 1_545 S
Co140 O144 2.004 . S
Co140 O150 2.012 . S
Co140 O152 2.137 . S
Co140 O153 2.244 . S
O141 Co140 2.216 1_565 S
O141 C148 1.247 . S
O142 Co140 2.091 1_565 S
O142 C148 1.261 . S
C143 O152 1.247 . S
C143 O153 1.272 . S
O144 Co140 2.004 . S
O144 C149 1.259 . S
Co145 O146 2.061 . S
Co145 O151 2.052 . S
Co145 O153 2.135 . S
O146 Co145 2.061 . S
O146 C149 1.235 . S
C147 O150 1.263 . S
C147 O151 1.241 . S
C148 O141 1.247 . S
C148 O142 1.261 . S
C149 O144 1.259 . S
C149 O146 1.235 . S
O150 Co140 2.012 . S
O150 C147 1.263 . S
O151 Co145 2.052 . S
O151 C147 1.241 . S
O152 Co140 2.137 . S
O152 C143 1.247 . S
O153 Co140 2.244 . S
O153 C143 1.272 . S
O153 Co145 2.135 . S
Co154 O155 2.216 . S
Co154 O156 2.091 . S
Co154 O158 2.004 . S
Co154 O164 2.021 . S
Co154 O166 2.137 1_554 S
Co154 O167 2.244 1_554 S
O155 Co154 2.216 . S
O155 C162 1.247 . S
O156 Co154 2.091 . S
O156 C162 1.261 . S
C157 O166 1.247 . S
C157 O167 1.272 . S
O158 Co154 2.004 . S
O158 C163 1.259 . S
Co159 O160 2.061 . S
Co159 O165 2.052 . S
Co159 O167 2.135 1_554 S
O160 Co159 2.061 . S
O160 C163 1.235 . S
C161 O164 1.238 . S
C161 O165 1.241 . S
C162 O155 1.247 . S
C162 O156 1.261 . S
C163 O158 1.259 . S
C163 O160 1.235 . S
O164 Co154 2.021 . S
O164 C161 1.238 . S
O165 Co159 2.052 . S
O165 C161 1.241 . S
O166 Co154 2.137 1_556 S
O166 C157 1.247 . S
O167 Co154 2.244 1_556 S
O167 C157 1.272 . S
O167 Co159 2.135 1_556 S
Co168 O169 2.216 . S
Co168 O170 2.091 . S
Co168 O172 2.004 . S
Co168 O178 2.021 . S
Co168 O180 2.137 1_554 S
Co168 O181 2.244 1_554 S
O169 Co168 2.216 . S
O169 C176 1.247 . S
O170 Co168 2.091 . S
O170 C176 1.261 . S
C171 O180 1.247 . S
C171 O181 1.272 . S
O172 Co168 2.004 . S
O172 C177 1.259 . S
Co173 O174 2.061 . S
Co173 O179 2.052 . S
Co173 O181 2.135 1_554 S
O174 Co173 2.061 . S
O174 C177 1.235 . S
C175 O178 1.238 . S
C175 O179 1.241 . S
C176 O169 1.247 . S
C176 O170 1.261 . S
C177 O172 1.259 . S
C177 O174 1.235 . S
O178 Co168 2.021 . S
O178 C175 1.238 . S
O179 Co173 2.052 . S
O179 C175 1.241 . S
O180 Co168 2.137 1_556 S
O180 C171 1.247 . S
O181 Co168 2.244 1_556 S
O181 C171 1.272 . S
O181 Co173 2.135 1_556 S
Co182 O183 2.216 . S
Co182 O184 2.091 . S
Co182 O186 2.004 . S
Co182 O192 2.021 . S
Co182 O194 2.137 1_554 S
Co182 O195 2.244 1_554 S
O183 Co182 2.216 . S
O183 C190 1.247 . S
O184 Co182 2.091 . S
O184 C190 1.261 . S
C185 O194 1.247 . S
C185 O195 1.272 . S
O186 Co182 2.004 . S
O186 C191 1.259 . S
Co187 O188 2.061 . S
Co187 O193 2.052 . S
Co187 O195 2.135 1_554 S
O188 Co187 2.061 . S
O188 C191 1.235 . S
C189 O192 1.238 . S
C189 O193 1.241 . S
C190 O183 1.247 . S
C190 O184 1.261 . S
C191 O186 1.259 . S
C191 O188 1.235 . S
O192 Co182 2.021 . S
O192 C189 1.238 . S
O193 Co187 2.052 . S
O193 C189 1.241 . S
O194 Co182 2.137 1_556 S
O194 C185 1.247 . S
O195 Co182 2.244 1_556 S
O195 C185 1.272 . S
O195 Co187 2.135 1_556 S
Co196 O197 2.216 . S
Co196 O198 2.091 . S
Co196 O200 2.004 . S
Co196 O206 2.021 . S
Co196 O208 2.137 . S
Co196 O209 2.244 . S
O197 Co196 2.216 . S
O197 C204 1.247 . S
O198 Co196 2.091 . S
O198 C204 1.261 . S
C199 O208 1.247 . S
C199 O209 1.272 . S
O200 Co196 2.004 . S
O200 C205 1.259 . S
Co201 O202 2.061 . S
Co201 O207 2.052 . S
Co201 O209 2.135 . S
O202 Co201 2.061 . S
O202 C205 1.235 . S
C203 O206 1.238 . S
C203 O207 1.241 . S
C204 O197 1.247 . S
C204 O198 1.261 . S
C205 O200 1.259 . S
C205 O202 1.235 . S
O206 Co196 2.021 . S
O206 C203 1.238 . S
O207 Co201 2.052 . S
O207 C203 1.241 . S
O208 Co196 2.137 . S
O208 C199 1.247 . S
O209 Co196 2.244 . S
O209 C199 1.272 . S
O209 Co201 2.135 . S
Co210 O211 2.216 . S
Co210 O212 2.091 . S
Co210 O214 2.004 . S
Co210 O220 2.021 . S
Co210 O222 2.137 . S
Co210 O223 2.244 . S
O211 Co210 2.216 . S
O211 C218 1.247 . S
O212 Co210 2.091 . S
O212 C218 1.261 . S
C213 O222 1.247 . S
C213 O223 1.272 . S
O214 Co210 2.004 . S
O214 C219 1.259 . S
Co215 O216 2.061 . S
Co215 O221 2.052 . S
Co215 O223 2.135 . S
O216 Co215 2.061 . S
O216 C219 1.235 . S
C217 O220 1.238 . S
C217 O221 1.241 . S
C218 O211 1.247 . S
C218 O212 1.261 . S
C219 O214 1.259 . S
C219 O216 1.235 . S
O220 Co210 2.021 . S
O220 C217 1.238 . S
O221 Co215 2.052 . S
O221 C217 1.241 . S
O222 Co210 2.137 . S
O222 C213 1.247 . S
O223 Co210 2.244 . S
O223 C213 1.272 . S
O223 Co215 2.135 . S
Co224 O225 2.216 . S
Co224 O226 2.091 . S
Co224 O228 2.004 . S
Co224 O234 2.021 . S
Co224 O236 2.137 . S
Co224 O237 2.244 . S
O225 Co224 2.216 . S
O225 C232 1.247 . S
O226 Co224 2.091 . S
O226 C232 1.261 . S
C227 O236 1.247 . S
C227 O237 1.272 . S
O228 Co224 2.004 . S
O228 C233 1.259 . S
Co229 O230 2.061 . S
Co229 O235 2.052 . S
Co229 O237 2.135 . S
O230 Co229 2.061 . S
O230 C233 1.235 . S
C231 O234 1.238 . S
C231 O235 1.241 . S
C232 O225 1.247 . S
C232 O226 1.261 . S
C233 O228 1.259 . S
C233 O230 1.235 . S
O234 Co224 2.021 . S
O234 C231 1.238 . S
O235 Co229 2.052 . S
O235 C231 1.241 . S
O236 Co224 2.137 . S
O236 C227 1.247 . S
O237 Co224 2.244 . S
O237 C227 1.272 . S
O237 Co229 2.135 . S
Co238 O239 2.216 . S
Co238 O240 2.091 . S
Co238 O242 2.004 . S
Co238 O248 2.021 . S
Co238 O250 2.137 . S
Co238 O251 2.244 . S
O239 Co238 2.216 . S
O239 C246 1.247 . S
O240 Co238 2.091 . S
O240 C246 1.261 . S
C241 O250 1.247 . S
C241 O251 1.272 . S
O242 Co238 2.004 . S
O242 C247 1.259 . S
Co243 O244 2.061 . S
Co243 O249 2.052 . S
Co243 O251 2.135 . S
O244 Co243 2.061 . S
O244 C247 1.235 . S
C245 O248 1.238 . S
C245 O249 1.241 . S
C246 O239 1.247 . S
C246 O240 1.261 . S
C247 O242 1.259 . S
C247 O244 1.235 . S
O248 Co238 2.021 . S
O248 C245 1.238 . S
O249 Co243 2.052 . S
O249 C245 1.241 . S
O250 Co238 2.137 . S
O250 C241 1.247 . S
O251 Co238 2.244 . S
O251 C241 1.272 . S
O251 Co243 2.135 . S
Co252 O253 2.216 . S
Co252 O254 2.091 . S
Co252 O256 2.004 . S
Co252 O262 2.021 . S
Co252 O264 2.137 . S
Co252 O265 2.244 . S
O253 Co252 2.216 . S
O253 C260 1.247 . S
O254 Co252 2.091 . S
O254 C260 1.261 . S
C255 O264 1.247 . S
C255 O265 1.272 . S
O256 Co252 2.004 . S
O256 C261 1.259 . S
Co257 O258 2.061 . S
Co257 O263 2.052 . S
Co257 O265 2.135 . S
O258 Co257 2.061 . S
O258 C261 1.235 . S
C259 O262 1.238 . S
C259 O263 1.241 . S
C260 O253 1.247 . S
C260 O254 1.261 . S
C261 O256 1.259 . S
C261 O258 1.235 . S
O262 Co252 2.021 . S
O262 C259 1.238 . S
O263 Co257 2.052 . S
O263 C259 1.241 . S
O264 Co252 2.137 . S
O264 C255 1.247 . S
O265 Co252 2.244 . S
O265 C255 1.272 . S
O265 Co257 2.135 . S
Co266 O267 2.216 . S
Co266 O268 2.091 . S
Co266 O270 2.004 . S
Co266 O276 2.021 . S
Co266 O278 2.137 . S
Co266 O279 2.244 . S
O267 Co266 2.216 . S
O267 C274 1.247 . S
O268 Co266 2.091 . S
O268 C274 1.261 . S
C269 O278 1.247 . S
C269 O279 1.272 . S
O270 Co266 2.004 . S
O270 C275 1.259 . S
Co271 O272 2.061 . S
Co271 O277 2.052 . S
Co271 O279 2.135 . S
O272 Co271 2.061 . S
O272 C275 1.235 . S
C273 O276 1.238 . S
C273 O277 1.241 . S
C274 O267 1.247 . S
C274 O268 1.261 . S
C275 O270 1.259 . S
C275 O272 1.235 . S
O276 Co266 2.021 . S
O276 C273 1.238 . S
O277 Co271 2.052 . S
O277 C273 1.241 . S
O278 Co266 2.137 . S
O278 C269 1.247 . S
O279 Co266 2.244 . S
O279 C269 1.272 . S
O279 Co271 2.135 . S
Co280 O281 2.216 . S
Co280 O282 2.091 . S
Co280 O284 2.004 1_554 S
Co280 O290 2.021 . S
Co280 O292 2.137 1_554 S
Co280 O293 2.244 1_554 S
O281 Co280 2.216 . S
O281 C288 1.247 . S
O282 Co280 2.091 . S
O282 C288 1.261 . S
C283 O292 1.247 . S
C283 O293 1.272 . S
O284 Co280 2.004 1_556 S
O284 C289 1.259 1_556 S
Co285 O286 2.061 . S
Co285 O291 2.052 . S
Co285 O293 2.135 1_554 S
O286 Co285 2.061 . S
O286 C289 1.235 . S
C287 O290 1.238 . S
C287 O291 1.241 . S
C288 O281 1.247 . S
C288 O282 1.261 . S
C289 O284 1.259 1_554 S
C289 O286 1.235 . S
O290 Co280 2.021 . S
O290 C287 1.238 . S
O291 Co285 2.052 . S
O291 C287 1.241 . S
O292 Co280 2.137 1_556 S
O292 C283 1.247 . S
O293 Co280 2.244 1_556 S
O293 C283 1.272 . S
O293 Co285 2.135 1_556 S
Co294 O295 2.216 . S
Co294 O296 2.091 . S
Co294 O298 2.004 . S
Co294 O304 2.021 . S
Co294 O306 2.137 . S
Co294 O307 2.244 . S
O295 Co294 2.216 . S
O295 C302 1.247 . S
O296 Co294 2.091 . S
O296 C302 1.261 . S
C297 O306 1.247 . S
C297 O307 1.272 . S
O298 Co294 2.004 . S
O298 C303 1.259 . S
Co299 O300 2.061 . S
Co299 O305 2.052 . S
Co299 O307 2.135 . S
O300 Co299 2.061 . S
O300 C303 1.235 . S
C301 O304 1.238 . S
C301 O305 1.241 . S
C302 O295 1.247 . S
C302 O296 1.261 . S
C303 O298 1.259 . S
C303 O300 1.235 . S
O304 Co294 2.021 . S
O304 C301 1.238 . S
O305 Co299 2.052 . S
O305 C301 1.241 . S
O306 Co294 2.137 . S
O306 C297 1.247 . S
O307 Co294 2.244 . S
O307 C297 1.272 . S
O307 Co299 2.135 . S
Co308 O309 2.216 . S
Co308 O310 2.091 . S
Co308 O312 2.004 . S
Co308 O318 2.021 . S
Co308 O320 2.137 . S
Co308 O321 2.244 . S
O309 Co308 2.216 . S
O309 C316 1.247 . S
O310 Co308 2.091 . S
O310 C316 1.261 . S
C311 O320 1.247 . S
C311 O321 1.272 . S
O312 Co308 2.004 . S
O312 C317 1.259 . S
Co313 O314 2.061 . S
Co313 O319 2.052 . S
Co313 O321 2.135 . S
O314 Co313 2.061 . S
O314 C317 1.235 . S
C315 O318 1.238 . S
C315 O319 1.241 . S
C316 O309 1.247 . S
C316 O310 1.261 . S
C317 O312 1.259 . S
C317 O314 1.235 . S
O318 Co308 2.021 . S
O318 C315 1.238 . S
O319 Co313 2.052 . S
O319 C315 1.241 . S
O320 Co308 2.137 . S
O320 C311 1.247 . S
O321 Co308 2.244 . S
O321 C311 1.272 . S
O321 Co313 2.135 . S
Co322 O323 2.216 . S
Co322 O324 2.091 . S
Co322 O326 2.004 . S
Co322 O332 2.021 . S
Co322 O334 2.137 . S
Co322 O335 2.244 . S
O323 Co322 2.216 . S
O323 C330 1.247 . S
O324 Co322 2.091 . S
O324 C330 1.261 . S
C325 O334 1.247 . S
C325 O335 1.272 . S
O326 Co322 2.004 . S
O326 C331 1.259 . S
Co327 O328 2.061 . S
Co327 O333 2.052 . S
Co327 O335 2.135 . S
O328 Co327 2.061 . S
O328 C331 1.235 . S
C329 O332 1.238 . S
C329 O333 1.241 . S
C330 O323 1.247 . S
C330 O324 1.261 . S
C331 O326 1.259 . S
C331 O328 1.235 . S
O332 Co322 2.021 . S
O332 C329 1.238 . S
O333 Co327 2.052 . S
O333 C329 1.241 . S
O334 Co322 2.137 . S
O334 C325 1.247 . S
O335 Co322 2.244 . S
O335 C325 1.272 . S
O335 Co327 2.135 . S
Eu336 C345 2.828 . S
Eu336 O347 2.392 . S
Eu336 O349 2.418 . S
Eu336 O354 2.373 . S
Eu336 O357 2.488 . S
Eu336 O358 2.471 1_554 S
Eu336 O359 2.349 1_554 S
Eu337 O346 2.373 . S
Eu337 O350 2.488 1_545 S
Eu337 O351 2.471 1_545 S
Eu337 O352 2.349 . S
Eu337 O355 2.392 1_554 S
Eu337 O356 2.418 1_554 S
Eu337 C366 2.828 1_545 S
C338 O356 1.244 . S
C338 O359 1.265 . S
C339 C340 1.379 1_554 S
C339 C343 1.373 . S
C339 C345 1.505 . S
C340 C339 1.379 1_556 S
C340 C342 1.369 . S
C340 H368 0.930 . S
C341 C343 1.383 . S
C341 C344 1.382 1_554 S
C341 H369 0.930 . S
C342 C340 1.369 . S
C342 C344 1.392 . S
C342 H370 0.930 . S
C343 C339 1.373 . S
C343 C341 1.383 . S
C343 H371 0.931 . S
C344 C341 1.382 1_556 S
C344 C342 1.392 . S
C345 Eu336 2.828 . S
C345 C339 1.505 . S
C345 O357 1.249 . S
C345 O358 1.244 1_554 S
O346 Eu337 2.373 . S
O346 C348 1.258 . S
O347 Eu336 2.392 . S
O347 C348 1.242 . S
C348 O346 1.258 . S
C348 O347 1.242 . S
O349 Eu336 2.418 . S
O349 C353 1.244 . S
O350 Eu337 2.488 1_565 S
O350 C366 1.246 . S
O351 Eu337 2.471 1_565 S
O351 C366 1.244 . S
O352 Eu337 2.349 . S
O352 C353 1.265 . S
C353 O349 1.244 . S
C353 O352 1.265 . S
O354 Eu336 2.373 . S
O354 C367 1.258 . S
O355 Eu337 2.392 1_556 S
O355 C367 1.242 1_556 S
O356 Eu337 2.418 1_556 S
O356 C338 1.244 . S
O357 Eu336 2.488 . S
O357 C345 1.249 . S
O358 Eu336 2.471 1_556 S
O358 C345 1.244 1_556 S
O359 Eu336 2.349 1_556 S
O359 C338 1.265 . S
C360 C361 1.379 . S
C360 C364 1.373 . S
C360 C366 1.505 . S
C361 C360 1.379 . S
C361 C363 1.369 . S
C361 H372 0.930 . S
C362 C364 1.383 . S
C362 C365 1.382 . S
C362 H373 0.930 . S
C363 C361 1.369 . S
C363 C365 1.392 . S
C363 H374 0.930 . S
C364 C360 1.373 . S
C364 C362 1.383 . S
C364 H375 0.931 1_554 S
C365 C362 1.382 . S
C365 C363 1.392 . S
C366 Eu337 2.828 1_565 S
C366 O350 1.246 . S
C366 O351 1.244 . S
C366 C360 1.505 . S
C367 O354 1.258 . S
C367 O355 1.242 1_554 S
H368 C340 0.930 . S
H369 C341 0.930 . S
H370 C342 0.930 . S
H371 C343 0.931 . S
H372 C361 0.930 . S
H373 C362 0.930 . S
H374 C363 0.930 . S
H375 C364 0.931 1_556 S
Eu376 C385 2.828 . S
Eu376 O387 2.392 . S
Eu376 O389 2.418 . S
Eu376 O394 2.373 . S
Eu376 O397 2.488 . S
Eu376 O398 2.471 . S
Eu376 O399 2.349 . S
Eu377 O386 2.373 . S
Eu377 O390 2.488 . S
Eu377 O391 2.471 . S
Eu377 O392 2.349 . S
Eu377 O395 2.392 . S
Eu377 O396 2.418 . S
Eu377 C406 2.828 . S
C378 O396 1.244 . S
C378 O399 1.265 . S
C379 C380 1.379 . S
C379 C383 1.373 . S
C379 C385 1.505 . S
C380 C379 1.379 . S
C380 C382 1.369 . S
C380 H408 0.930 . S
C381 C383 1.383 . S
C381 C384 1.382 . S
C381 H409 0.930 . S
C382 C380 1.369 . S
C382 C384 1.392 . S
C382 H410 0.930 . S
C383 C379 1.373 . S
C383 C381 1.383 . S
C383 H411 0.931 . S
C384 C381 1.382 . S
C384 C382 1.392 . S
C385 Eu376 2.828 . S
C385 C379 1.505 . S
C385 O397 1.249 . S
C385 O398 1.244 . S
O386 Eu377 2.373 . S
O386 C388 1.258 . S
O387 Eu376 2.392 . S
O387 C388 1.242 . S
C388 O386 1.258 . S
C388 O387 1.242 . S
O389 Eu376 2.418 . S
O389 C393 1.244 . S
O390 Eu377 2.488 . S
O390 C406 1.249 . S
O391 Eu377 2.471 . S
O391 C406 1.244 . S
O392 Eu377 2.349 . S
O392 C393 1.265 . S
C393 O389 1.244 . S
C393 O392 1.265 . S
O394 Eu376 2.373 . S
O394 C407 1.258 . S
O395 Eu377 2.392 . S
O395 C407 1.242 . S
O396 Eu377 2.418 . S
O396 C378 1.244 . S
O397 Eu376 2.488 . S
O397 C385 1.249 . S
O398 Eu376 2.471 . S
O398 C385 1.244 . S
O399 Eu376 2.349 . S
O399 C378 1.265 . S
C400 C401 1.379 . S
C400 C404 1.373 . S
C400 C406 1.505 . S
C401 C400 1.379 . S
C401 C403 1.369 . S
C401 H412 0.930 . S
C402 C404 1.383 . S
C402 C405 1.382 . S
C402 H413 0.930 . S
C403 C401 1.369 . S
C403 C405 1.392 . S
C403 H414 0.930 . S
C404 C400 1.373 . S
C404 C402 1.383 . S
C404 H415 0.931 . S
C405 C402 1.382 . S
C405 C403 1.392 . S
C406 Eu377 2.828 . S
C406 O390 1.249 . S
C406 O391 1.244 . S
C406 C400 1.505 . S
C407 O394 1.258 . S
C407 O395 1.242 . S
H408 C380 0.930 . S
H409 C381 0.930 . S
H410 C382 0.930 . S
H411 C383 0.931 . S
H412 C401 0.930 . S
H413 C402 0.930 . S
H414 C403 0.930 . S
H415 C404 0.931 . S
Eu416 C425 2.828 . S
Eu416 O427 2.392 . S
Eu416 O429 2.418 . S
Eu416 O434 2.339 1_545 S
Eu416 O437 2.488 . S
Eu416 O438 2.471 . S
Eu416 O439 2.349 . S
Eu417 O426 2.373 . S
Eu417 O430 2.488 . S
Eu417 O431 2.471 . S
Eu417 O432 2.349 . S
Eu417 O435 2.392 1_545 S
Eu417 O436 2.418 . S
Eu417 C446 2.828 . S
C418 O436 1.244 . S
C418 O439 1.265 . S
C419 C420 1.379 . S
C419 C423 1.373 . S
C419 C425 1.505 1_565 S
C420 C419 1.379 . S
C420 C422 1.369 . S
C420 H448 0.930 . S
C421 C423 1.383 . S
C421 C424 1.382 . S
C421 H449 0.930 . S
C422 C420 1.369 . S
C422 C424 1.392 . S
C422 H450 0.930 . S
C423 C419 1.373 . S
C423 C421 1.383 . S
C423 H451 0.931 1_565 S
C424 C421 1.382 . S
C424 C422 1.392 . S
C425 Eu416 2.828 . S
C425 C419 1.505 1_545 S
C425 O437 1.249 . S
C425 O438 1.244 . S
O426 Eu417 2.373 . S
O426 C428 1.258 . S
O427 Eu416 2.392 . S
O427 C428 1.242 . S
C428 O426 1.258 . S
C428 O427 1.242 . S
O429 Eu416 2.418 . S
O429 C433 1.244 . S
O430 Eu417 2.488 . S
O430 C446 1.249 . S
O431 Eu417 2.471 . S
O431 C446 1.244 . S
O432 Eu417 2.349 . S
O432 C433 1.265 . S
C433 O429 1.244 . S
C433 O432 1.265 . S
O434 Eu416 2.339 1_565 S
O434 C447 1.279 . S
O435 Eu417 2.392 1_565 S
O435 C447 1.242 . S
O436 Eu417 2.418 . S
O436 C418 1.244 . S
O437 Eu416 2.488 . S
O437 C425 1.249 . S
O438 Eu416 2.471 . S
O438 C425 1.244 . S
O439 Eu416 2.349 . S
O439 C418 1.265 . S
C440 C441 1.379 . S
C440 C444 1.373 . S
C440 C446 1.505 . S
C441 C440 1.379 . S
C441 C443 1.369 . S
C441 H452 0.930 . S
C442 C444 1.383 . S
C442 C445 1.382 . S
C442 H453 0.930 . S
C443 C441 1.369 . S
C443 C445 1.392 . S
C443 H454 0.930 . S
C444 C440 1.373 . S
C444 C442 1.383 . S
C444 H455 0.931 . S
C445 C442 1.382 . S
C445 C443 1.392 . S
C446 Eu417 2.828 . S
C446 O430 1.249 . S
C446 O431 1.244 . S
C446 C440 1.505 . S
C447 O434 1.279 . S
C447 O435 1.242 . S
H448 C420 0.930 . S
H449 C421 0.930 . S
H450 C422 0.930 . S
H451 C423 0.931 1_545 S
H452 C441 0.930 . S
H453 C442 0.930 . S
H454 C443 0.930 . S
H455 C444 0.931 . S
Eu456 C465 2.828 . S
Eu456 O467 2.392 . S
Eu456 O469 2.418 . S
Eu456 O474 2.373 . S
Eu456 O477 2.488 . S
Eu456 O478 2.471 . S
Eu456 O479 2.349 . S
Eu457 O466 2.373 . S
Eu457 O470 2.488 . S
Eu457 O471 2.471 . S
Eu457 O472 2.349 . S
Eu457 O475 2.392 . S
Eu457 O476 2.418 . S
Eu457 C486 2.828 . S
C458 O476 1.244 . S
C458 O479 1.265 . S
C459 C460 1.379 . S
C459 C463 1.373 . S
C459 C465 1.505 . S
C460 C459 1.379 . S
C460 C462 1.369 . S
C460 H488 0.930 . S
C461 C463 1.383 . S
C461 C464 1.382 . S
C461 H489 0.930 . S
C462 C460 1.369 . S
C462 C464 1.392 . S
C462 H490 0.930 . S
C463 C459 1.373 . S
C463 C461 1.383 . S
C463 H491 0.931 . S
C464 C461 1.382 . S
C464 C462 1.392 . S
C465 Eu456 2.828 . S
C465 C459 1.505 . S
C465 O477 1.249 . S
C465 O478 1.244 . S
O466 Eu457 2.373 . S
O466 C468 1.258 . S
O467 Eu456 2.392 . S
O467 C468 1.242 . S
C468 O466 1.258 . S
C468 O467 1.242 . S
O469 Eu456 2.418 . S
O469 C473 1.244 . S
O470 Eu457 2.488 . S
O470 C486 1.249 . S
O471 Eu457 2.471 . S
O471 C486 1.244 . S
O472 Eu457 2.349 . S
O472 C473 1.265 . S
C473 O469 1.244 . S
C473 O472 1.265 . S
O474 Eu456 2.373 . S
O474 C487 1.258 . S
O475 Eu457 2.392 . S
O475 C487 1.242 . S
O476 Eu457 2.418 . S
O476 C458 1.244 . S
O477 Eu456 2.488 . S
O477 C465 1.249 . S
O478 Eu456 2.471 . S
O478 C465 1.244 . S
O479 Eu456 2.349 . S
O479 C458 1.265 . S
C480 C481 1.379 . S
C480 C484 1.373 . S
C480 C486 1.505 . S
C481 C480 1.379 . S
C481 C483 1.369 . S
C481 H492 0.930 . S
C482 C484 1.383 . S
C482 C485 1.382 . S
C482 H493 0.930 . S
C483 C481 1.369 . S
C483 C485 1.392 . S
C483 H494 0.930 . S
C484 C480 1.373 . S
C484 C482 1.383 . S
C484 H495 0.931 . S
C485 C482 1.382 . S
C485 C483 1.392 . S
C486 Eu457 2.828 . S
C486 O470 1.249 . S
C486 O471 1.244 . S
C486 C480 1.505 . S
C487 O474 1.258 . S
C487 O475 1.242 . S
H488 C460 0.930 . S
H489 C461 0.930 . S
H490 C462 0.930 . S
H491 C463 0.931 . S
H492 C481 0.930 . S
H493 C482 0.930 . S
H494 C483 0.930 . S
H495 C484 0.931 . S
Eu496 C505 2.828 . S
Eu496 O507 2.392 . S
Eu496 O509 2.429 . S
Eu496 O514 2.373 . S
Eu496 O517 2.488 . S
Eu496 O518 2.471 . S
Eu496 O519 2.349 . S
Eu497 O506 2.373 . S
Eu497 O510 2.488 1_545 S
Eu497 O511 2.471 1_545 S
Eu497 O512 2.349 . S
Eu497 O515 2.392 . S
Eu497 O516 2.418 . S
Eu497 C526 2.828 1_545 S
C498 O516 1.244 . S
C498 O519 1.265 . S
C499 C500 1.379 . S
C499 C503 1.373 . S
C499 C505 1.505 . S
C500 C499 1.379 . S
C500 C502 1.369 . S
C500 H528 0.930 . S
C501 C503 1.383 . S
C501 C504 1.382 . S
C501 H529 0.930 1_455 S
C502 C500 1.369 . S
C502 C504 1.392 . S
C502 H530 0.930 . S
C503 C499 1.373 . S
C503 C501 1.383 . S
C503 H531 0.949 . S
C504 C501 1.382 . S
C504 C502 1.392 . S
C505 Eu496 2.828 . S
C505 C499 1.505 . S
C505 O517 1.249 . S
C505 O518 1.244 . S
O506 Eu497 2.373 . S
O506 C508 1.258 . S
O507 Eu496 2.392 . S
O507 C508 1.242 . S
C508 O506 1.258 . S
C508 O507 1.242 . S
O509 Eu496 2.429 . S
O509 C513 1.248 . S
O510 Eu497 2.488 1_565 S
O510 C526 1.249 . S
O511 Eu497 2.471 1_565 S
O511 C526 1.244 . S
O512 Eu497 2.349 . S
O512 C513 1.265 . S
C513 O509 1.248 . S
C513 O512 1.265 . S
O514 Eu496 2.373 . S
O514 C527 1.258 . S
O515 Eu497 2.392 . S
O515 C527 1.242 . S
O516 Eu497 2.418 . S
O516 C498 1.244 . S
O517 Eu496 2.488 . S
O517 C505 1.249 . S
O518 Eu496 2.471 . S
O518 C505 1.244 . S
O519 Eu496 2.349 . S
O519 C498 1.265 . S
C520 C521 1.379 . S
C520 C524 1.373 . S
C520 C526 1.505 . S
C521 C520 1.379 . S
C521 C523 1.369 . S
C521 H532 0.930 . S
C522 C524 1.383 . S
C522 C525 1.382 . S
C522 H533 0.930 . S
C523 C521 1.369 . S
C523 C525 1.392 . S
C523 H534 0.930 . S
C524 C520 1.373 . S
C524 C522 1.383 . S
C524 H535 0.931 . S
C525 C522 1.382 . S
C525 C523 1.392 . S
C526 Eu497 2.828 1_565 S
C526 O510 1.249 . S
C526 O511 1.244 . S
C526 C520 1.505 . S
C527 O514 1.258 . S
C527 O515 1.242 . S
H528 C500 0.930 . S
H529 C501 0.930 1_655 S
H530 C502 0.930 . S
H531 C503 0.949 . S
H532 C521 0.930 . S
H533 C522 0.930 . S
H534 C523 0.930 . S
H535 C524 0.931 . S
Eu536 C545 2.828 . S
Eu536 O547 2.392 . S
Eu536 O549 2.418 . S
Eu536 O554 2.373 . S
Eu536 O557 2.488 . S
Eu536 O558 2.471 . S
Eu536 O559 2.349 . S
Eu537 O546 2.373 . S
Eu537 O550 2.488 . S
Eu537 O551 2.471 . S
Eu537 O552 2.349 . S
Eu537 O555 2.392 . S
Eu537 O556 2.418 . S
Eu537 C566 2.828 . S
C538 O556 1.244 . S
C538 O559 1.265 . S
C539 C540 1.379 . S
C539 C543 1.373 . S
C539 C545 1.505 . S
C540 C539 1.379 . S
C540 C542 1.369 . S
C540 H568 0.930 . S
C541 C543 1.383 . S
C541 C544 1.382 . S
C541 H569 0.930 . S
C542 C540 1.369 . S
C542 C544 1.392 . S
C542 H570 0.930 . S
C543 C539 1.373 . S
C543 C541 1.383 . S
C543 H571 0.931 . S
C544 C541 1.382 . S
C544 C542 1.392 . S
C545 Eu536 2.828 . S
C545 C539 1.505 . S
C545 O557 1.249 . S
C545 O558 1.244 . S
O546 Eu537 2.373 . S
O546 C548 1.258 . S
O547 Eu536 2.392 . S
O547 C548 1.242 . S
C548 O546 1.258 . S
C548 O547 1.242 . S
O549 Eu536 2.418 . S
O549 C553 1.244 . S
O550 Eu537 2.488 . S
O550 C566 1.249 . S
O551 Eu537 2.471 . S
O551 C566 1.244 . S
O552 Eu537 2.349 . S
O552 C553 1.265 . S
C553 O549 1.244 . S
C553 O552 1.265 . S
O554 Eu536 2.373 . S
O554 C567 1.258 . S
O555 Eu537 2.392 . S
O555 C567 1.242 . S
O556 Eu537 2.418 . S
O556 C538 1.244 . S
O557 Eu536 2.488 . S
O557 C545 1.249 . S
O558 Eu536 2.471 . S
O558 C545 1.244 . S
O559 Eu536 2.349 . S
O559 C538 1.265 . S
C560 C561 1.379 . S
C560 C564 1.373 . S
C560 C566 1.505 . S
C561 C560 1.379 . S
C561 C563 1.369 . S
C561 H572 0.930 . S
C562 C564 1.383 . S
C562 C565 1.382 . S
C562 H573 0.930 . S
C563 C561 1.369 . S
C563 C565 1.392 . S
C563 H574 0.930 . S
C564 C560 1.373 . S
C564 C562 1.383 . S
C564 H575 0.931 . S
C565 C562 1.382 . S
C565 C563 1.392 . S
C566 Eu537 2.828 . S
C566 O550 1.249 . S
C566 O551 1.244 . S
C566 C560 1.505 . S
C567 O554 1.258 . S
C567 O555 1.242 . S
H568 C540 0.930 . S
H569 C541 0.930 . S
H570 C542 0.930 . S
H571 C543 0.931 . S
H572 C561 0.930 . S
H573 C562 0.930 . S
H574 C563 0.930 . S
H575 C564 0.931 . S
Eu576 C585 2.828 . S
Eu576 O587 2.392 . S
Eu576 O589 2.418 1_545 S
Eu576 O594 2.373 . S
Eu576 O597 2.488 . S
Eu576 O598 2.471 . S
Eu576 O599 2.349 . S
Eu577 O586 2.373 . S
Eu577 O590 2.488 . S
Eu577 O591 2.471 . S
Eu577 O592 2.349 . S
Eu577 O595 2.392 . S
Eu577 O596 2.418 1_556 S
Eu577 C606 2.828 . S
C578 O596 1.244 . S
C578 O599 1.265 . S
C579 C580 1.379 . S
C579 C583 1.373 1_545 S
C579 C585 1.505 . S
C580 C579 1.379 . S
C580 C582 1.369 . S
C580 H608 0.930 . S
C581 C583 1.383 . S
C581 C584 1.382 1_565 S
C581 H609 0.930 . S
C582 C580 1.369 . S
C582 C584 1.392 . S
C582 H610 0.930 . S
C583 C579 1.373 1_565 S
C583 C581 1.383 . S
C583 H611 0.931 . S
C584 C581 1.382 1_545 S
C584 C582 1.392 . S
C585 Eu576 2.828 . S
C585 C579 1.505 . S
C585 O597 1.249 . S
C585 O598 1.244 . S
O586 Eu577 2.373 . S
O586 C588 1.258 1_556 S
O587 Eu576 2.392 . S
O587 C588 1.242 . S
C588 O586 1.258 1_554 S
C588 O587 1.242 . S
O589 Eu576 2.418 1_565 S
O589 C593 1.247 1_554 S
O590 Eu577 2.488 . S
O590 C606 1.249 . S
O591 Eu577 2.471 . S
O591 C606 1.244 . S
O592 Eu577 2.349 . S
O592 C593 1.264 1_545 S
C593 O589 1.247 1_556 S
C593 O592 1.264 1_565 S
O594 Eu576 2.373 . S
O594 C607 1.258 . S
O595 Eu577 2.392 . S
O595 C607 1.242 1_556 S
O596 Eu577 2.418 1_554 S
O596 C578 1.244 . S
O597 Eu576 2.488 . S
O597 C585 1.249 . S
O598 Eu576 2.471 . S
O598 C585 1.244 . S
O599 Eu576 2.349 . S
O599 C578 1.265 . S
C600 C601 1.379 . S
C600 C604 1.373 . S
C600 C606 1.505 . S
C601 C600 1.379 . S
C601 C603 1.369 . S
C601 H612 0.930 . S
C602 C604 1.383 . S
C602 C605 1.382 . S
C602 H613 0.930 . S
C603 C601 1.369 . S
C603 C605 1.392 . S
C603 H614 0.930 . S
C604 C600 1.373 . S
C604 C602 1.383 . S
C604 H615 0.931 . S
C605 C602 1.382 . S
C605 C603 1.392 . S
C606 Eu577 2.828 . S
C606 O590 1.249 . S
C606 O591 1.244 . S
C606 C600 1.505 . S
C607 O594 1.258 . S
C607 O595 1.242 1_554 S
H608 C580 0.930 . S
H609 C581 0.930 . S
H610 C582 0.930 . S
H611 C583 0.931 . S
H612 C601 0.930 . S
H613 C602 0.930 . S
H614 C603 0.930 . S
H615 C604 0.931 . S
Eu616 C625 2.828 . S
Eu616 O627 2.392 . S
Eu616 O629 2.418 . S
Eu616 O634 2.373 . S
Eu616 O637 2.488 . S
Eu616 O638 2.471 . S
Eu616 O639 2.349 . S
Eu617 O626 2.373 . S
Eu617 O630 2.488 . S
Eu617 O631 2.471 . S
Eu617 O632 2.349 . S
Eu617 O635 2.392 . S
Eu617 O636 2.418 . S
Eu617 C646 2.828 . S
C618 O636 1.244 . S
C618 O639 1.265 . S
C619 C620 1.379 . S
C619 C623 1.373 . S
C619 C625 1.505 . S
C620 C619 1.379 . S
C620 C622 1.369 . S
C620 H648 0.930 . S
C621 C623 1.383 . S
C621 C624 1.382 . S
C621 H649 0.930 . S
C622 C620 1.369 . S
C622 C624 1.392 . S
C622 H650 0.930 . S
C623 C619 1.373 . S
C623 C621 1.383 . S
C623 H651 0.931 . S
C624 C621 1.382 . S
C624 C622 1.392 . S
C625 Eu616 2.828 . S
C625 C619 1.505 . S
C625 O637 1.249 . S
C625 O638 1.244 . S
O626 Eu617 2.373 . S
O626 C628 1.258 . S
O627 Eu616 2.392 . S
O627 C628 1.242 . S
C628 O626 1.258 . S
C628 O627 1.242 . S
O629 Eu616 2.418 . S
O629 C633 1.244 . S
O630 Eu617 2.488 . S
O630 C646 1.249 . S
O631 Eu617 2.471 . S
O631 C646 1.244 . S
O632 Eu617 2.349 . S
O632 C633 1.265 . S
C633 O629 1.244 . S
C633 O632 1.265 . S
O634 Eu616 2.373 . S
O634 C647 1.258 . S
O635 Eu617 2.392 . S
O635 C647 1.242 . S
O636 Eu617 2.418 . S
O636 C618 1.244 . S
O637 Eu616 2.488 . S
O637 C625 1.249 . S
O638 Eu616 2.471 . S
O638 C625 1.244 . S
O639 Eu616 2.349 . S
O639 C618 1.265 . S
C640 C641 1.379 . S
C640 C644 1.373 . S
C640 C646 1.505 . S
C641 C640 1.379 . S
C641 C643 1.369 . S
C641 H652 0.930 . S
C642 C644 1.383 . S
C642 C645 1.382 . S
C642 H653 0.930 . S
C643 C641 1.369 . S
C643 C645 1.392 . S
C643 H654 0.930 . S
C644 C640 1.373 . S
C644 C642 1.383 . S
C644 H655 0.931 . S
C645 C642 1.382 . S
C645 C643 1.392 . S
C646 Eu617 2.828 . S
C646 O630 1.249 . S
C646 O631 1.244 . S
C646 C640 1.505 . S
C647 O634 1.258 . S
C647 O635 1.242 . S
H648 C620 0.930 . S
H649 C621 0.930 . S
H650 C622 0.930 . S
H651 C623 0.931 . S
H652 C641 0.930 . S
H653 C642 0.930 . S
H654 C643 0.930 . S
H655 C644 0.931 . S
Eu656 C665 2.828 . S
Eu656 O667 2.392 . S
Eu656 O669 2.418 . S
Eu656 O674 2.373 1_554 S
Eu656 O677 2.488 . S
Eu656 O678 2.471 . S
Eu656 O679 2.349 . S
Eu657 O666 2.379 . S
Eu657 O670 2.491 . S
Eu657 O671 2.475 . S
Eu657 O672 2.351 . S
Eu657 O675 2.388 1_554 S
Eu657 O676 2.417 . S
Eu657 C686 2.831 . S
C658 O676 1.244 . S
C658 O679 1.265 . S
C659 C660 1.379 . S
C659 C663 1.373 . S
C659 C665 1.505 1_556 S
C660 C659 1.379 . S
C660 C662 1.369 . S
C660 H688 0.930 . S
C661 C663 1.383 . S
C661 C664 1.382 . S
C661 H689 0.930 . S
C662 C660 1.369 . S
C662 C664 1.392 . S
C662 H690 0.930 . S
C663 C659 1.373 . S
C663 C661 1.383 . S
C663 H691 0.931 1_556 S
C664 C661 1.382 . S
C664 C662 1.392 . S
C665 Eu656 2.828 . S
C665 C659 1.505 1_554 S
C665 O677 1.249 . S
C665 O678 1.244 . S
O666 Eu657 2.379 . S
O666 C668 1.258 . S
O667 Eu656 2.392 . S
O667 C668 1.242 . S
C668 O666 1.258 . S
C668 O667 1.242 . S
O669 Eu656 2.418 . S
O669 C673 1.244 . S
O670 Eu657 2.491 . S
O670 C686 1.249 . S
O671 Eu657 2.475 . S
O671 C686 1.244 . S
O672 Eu657 2.351 . S
O672 C673 1.265 . S
C673 O669 1.244 . S
C673 O672 1.265 . S
O674 Eu656 2.373 1_556 S
O674 C687 1.258 . S
O675 Eu657 2.388 1_556 S
O675 C687 1.242 . S
O676 Eu657 2.417 . S
O676 C658 1.244 . S
O677 Eu656 2.488 . S
O677 C665 1.249 . S
O678 Eu656 2.471 . S
O678 C665 1.244 . S
O679 Eu656 2.349 . S
O679 C658 1.265 . S
C680 C681 1.379 . S
C680 C684 1.373 . S
C680 C686 1.505 . S
C681 C680 1.379 . S
C681 C683 1.369 . S
C681 H692 0.930 . S
C682 C684 1.383 . S
C682 C685 1.382 . S
C682 H693 0.930 . S
C683 C681 1.369 . S
C683 C685 1.392 . S
C683 H694 0.930 . S
C684 C680 1.373 . S
C684 C682 1.383 . S
C684 H695 0.931 . S
C685 C682 1.382 . S
C685 C683 1.392 . S
C686 Eu657 2.831 . S
C686 O670 1.249 . S
C686 O671 1.244 . S
C686 C680 1.505 . S
C687 O674 1.258 . S
C687 O675 1.242 . S
H688 C660 0.930 . S
H689 C661 0.930 . S
H690 C662 0.930 . S
H691 C663 0.931 1_554 S
H692 C681 0.930 . S
H693 C682 0.930 . S
H694 C683 0.930 . S
H695 C684 0.931 . S
Eu696 C705 2.828 . S
Eu696 O707 2.392 . S
Eu696 O709 2.418 . S
Eu696 O714 2.373 . S
Eu696 O717 2.488 . S
Eu696 O718 2.471 . S
Eu696 O719 2.349 . S
Eu697 O706 2.373 . S
Eu697 O710 2.488 . S
Eu697 O711 2.471 . S
Eu697 O712 2.349 . S
Eu697 O715 2.392 . S
Eu697 O716 2.418 . S
Eu697 C726 2.828 . S
C698 O716 1.244 . S
C698 O719 1.265 . S
C699 C700 1.379 . S
C699 C703 1.373 . S
C699 C705 1.505 . S
C700 C699 1.379 . S
C700 C702 1.369 . S
C700 H728 0.930 . S
C701 C703 1.383 . S
C701 C704 1.382 . S
C701 H729 0.930 . S
C702 C700 1.369 . S
C702 C704 1.392 . S
C702 H730 0.930 . S
C703 C699 1.373 . S
C703 C701 1.383 . S
C703 H731 0.931 . S
C704 C701 1.382 . S
C704 C702 1.392 . S
C705 Eu696 2.828 . S
C705 C699 1.505 . S
C705 O717 1.249 . S
C705 O718 1.244 . S
O706 Eu697 2.373 . S
O706 C708 1.258 . S
O707 Eu696 2.392 . S
O707 C708 1.242 . S
C708 O706 1.258 . S
C708 O707 1.242 . S
O709 Eu696 2.418 . S
O709 C713 1.244 . S
O710 Eu697 2.488 . S
O710 C726 1.249 . S
O711 Eu697 2.471 . S
O711 C726 1.244 . S
O712 Eu697 2.349 . S
O712 C713 1.265 . S
C713 O709 1.244 . S
C713 O712 1.265 . S
O714 Eu696 2.373 . S
O714 C727 1.258 . S
O715 Eu697 2.392 . S
O715 C727 1.242 . S
O716 Eu697 2.418 . S
O716 C698 1.244 . S
O717 Eu696 2.488 . S
O717 C705 1.249 . S
O718 Eu696 2.471 . S
O718 C705 1.244 . S
O719 Eu696 2.349 . S
O719 C698 1.265 . S
C720 C721 1.379 . S
C720 C724 1.373 . S
C720 C726 1.505 . S
C721 C720 1.379 . S
C721 C723 1.369 . S
C721 H732 0.930 . S
C722 C724 1.383 . S
C722 C725 1.382 . S
C722 H733 0.930 . S
C723 C721 1.369 . S
C723 C725 1.392 . S
C723 H734 0.930 . S
C724 C720 1.373 . S
C724 C722 1.383 . S
C724 H735 0.931 . S
C725 C722 1.382 . S
C725 C723 1.392 . S
C726 Eu697 2.828 . S
C726 O710 1.249 . S
C726 O711 1.244 . S
C726 C720 1.505 . S
C727 O714 1.258 . S
C727 O715 1.242 . S
H728 C700 0.930 . S
H729 C701 0.930 . S
H730 C702 0.930 . S
H731 C703 0.931 . S
H732 C721 0.930 . S
H733 C722 0.930 . S
H734 C723 0.930 . S
H735 C724 0.931 . S
Eu736 C745 2.828 . S
Eu736 O747 2.392 . S
Eu736 O749 2.418 . S
Eu736 O754 2.373 . S
Eu736 O757 2.488 . S
Eu736 O758 2.471 . S
Eu736 O759 2.349 . S
Eu737 O746 2.373 . S
Eu737 O750 2.488 . S
Eu737 O751 2.471 . S
Eu737 O752 2.349 . S
Eu737 O755 2.392 . S
Eu737 O756 2.418 . S
Eu737 C766 2.828 . S
C738 O756 1.244 . S
C738 O759 1.265 . S
C739 C740 1.379 1_455 S
C739 C743 1.373 . S
C739 C745 1.505 . S
C740 C739 1.379 1_655 S
C740 C742 1.369 . S
C740 H768 0.930 . S
C741 C743 1.383 1_655 S
C741 C744 1.382 . S
C741 H769 0.930 . S
C742 C740 1.369 . S
C742 C744 1.392 . S
C742 H770 0.930 . S
C743 C739 1.373 . S
C743 C741 1.383 1_455 S
C743 H771 0.931 . S
C744 C741 1.382 . S
C744 C742 1.392 . S
C745 Eu736 2.828 . S
C745 C739 1.505 . S
C745 O757 1.249 . S
C745 O758 1.244 . S
O746 Eu737 2.373 . S
O746 C748 1.258 . S
O747 Eu736 2.392 . S
O747 C748 1.242 . S
C748 O746 1.258 . S
C748 O747 1.242 . S
O749 Eu736 2.418 . S
O749 C753 1.244 . S
O750 Eu737 2.488 . S
O750 C766 1.249 . S
O751 Eu737 2.471 . S
O751 C766 1.244 . S
O752 Eu737 2.349 . S
O752 C753 1.265 . S
C753 O749 1.244 . S
C753 O752 1.265 . S
O754 Eu736 2.373 . S
O754 C767 1.258 1_455 S
O755 Eu737 2.392 . S
O755 C767 1.242 1_455 S
O756 Eu737 2.418 . S
O756 C738 1.244 . S
O757 Eu736 2.488 . S
O757 C745 1.249 . S
O758 Eu736 2.471 . S
O758 C745 1.244 . S
O759 Eu736 2.349 . S
O759 C738 1.265 . S
C760 C761 1.379 . S
C760 C764 1.373 . S
C760 C766 1.505 . S
C761 C760 1.379 . S
C761 C763 1.369 . S
C761 H772 0.930 . S
C762 C764 1.383 . S
C762 C765 1.382 . S
C762 H773 0.930 . S
C763 C761 1.369 . S
C763 C765 1.392 . S
C763 H774 0.930 . S
C764 C760 1.373 . S
C764 C762 1.383 . S
C764 H775 0.931 . S
C765 C762 1.382 . S
C765 C763 1.392 . S
C766 Eu737 2.828 . S
C766 O750 1.249 . S
C766 O751 1.244 . S
C766 C760 1.505 . S
C767 O754 1.258 1_655 S
C767 O755 1.242 1_655 S
H768 C740 0.930 . S
H769 C741 0.930 . S
H770 C742 0.930 . S
H771 C743 0.931 . S
H772 C761 0.930 . S
H773 C762 0.930 . S
H774 C763 0.930 . S
H775 C764 0.931 . S
Eu776 C785 2.828 . S
Eu776 O787 2.392 . S
Eu776 O789 2.418 . S
Eu776 O794 2.373 . S
Eu776 O797 2.488 . S
Eu776 O798 2.471 . S
Eu776 O799 2.349 . S
Eu777 O786 2.373 . S
Eu777 O790 2.488 . S
Eu777 O791 2.471 . S
Eu777 O792 2.349 . S
Eu777 O795 2.392 . S
Eu777 O796 2.418 . S
Eu777 C806 2.828 . S
C778 O796 1.244 . S
C778 O799 1.265 . S
C779 C780 1.379 . S
C779 C783 1.373 . S
C779 C785 1.505 . S
C780 C779 1.379 . S
C780 C782 1.369 . S
C780 H808 0.930 . S
C781 C783 1.383 . S
C781 C784 1.382 . S
C781 H809 0.930 . S
C782 C780 1.369 . S
C782 C784 1.392 . S
C782 H810 0.930 . S
C783 C779 1.373 . S
C783 C781 1.383 . S
C783 H811 0.931 . S
C784 C781 1.382 . S
C784 C782 1.392 . S
C785 Eu776 2.828 . S
C785 C779 1.505 . S
C785 O797 1.249 . S
C785 O798 1.244 . S
O786 Eu777 2.373 . S
O786 C788 1.258 . S
O787 Eu776 2.392 . S
O787 C788 1.242 . S
C788 O786 1.258 . S
C788 O787 1.242 . S
O789 Eu776 2.418 . S
O789 C793 1.244 . S
O790 Eu777 2.488 . S
O790 C806 1.249 . S
O791 Eu777 2.471 . S
O791 C806 1.244 . S
O792 Eu777 2.349 . S
O792 C793 1.265 . S
C793 O789 1.244 . S
C793 O792 1.265 . S
O794 Eu776 2.373 . S
O794 C807 1.258 . S
O795 Eu777 2.392 . S
O795 C807 1.242 . S
O796 Eu777 2.418 . S
O796 C778 1.244 . S
O797 Eu776 2.488 . S
O797 C785 1.249 . S
O798 Eu776 2.471 . S
O798 C785 1.244 . S
O799 Eu776 2.349 . S
O799 C778 1.265 . S
C800 C801 1.379 . S
C800 C804 1.373 . S
C800 C806 1.505 . S
C801 C800 1.379 . S
C801 C803 1.369 . S
C801 H812 0.930 . S
C802 C804 1.383 . S
C802 C805 1.382 . S
C802 H813 0.930 . S
C803 C801 1.369 . S
C803 C805 1.392 . S
C803 H814 0.930 . S
C804 C800 1.373 . S
C804 C802 1.383 . S
C804 H815 0.931 . S
C805 C802 1.382 . S
C805 C803 1.392 . S
C806 Eu777 2.828 . S
C806 O790 1.249 . S
C806 O791 1.244 . S
C806 C800 1.505 . S
C807 O794 1.258 . S
C807 O795 1.242 . S
H808 C780 0.930 . S
H809 C781 0.930 . S
H810 C782 0.930 . S
H811 C783 0.931 . S
H812 C801 0.930 . S
H813 C802 0.930 . S
H814 C803 0.930 . S
H815 C804 0.931 . S
Eu816 C825 2.828 . S
Eu816 O827 2.392 . S
Eu816 O829 2.418 . S
Eu816 O834 2.373 . S
Eu816 O837 2.488 . S
Eu816 O838 2.471 . S
Eu816 O839 2.349 . S
Eu817 O826 2.373 . S
Eu817 O830 2.488 . S
Eu817 O831 2.471 . S
Eu817 O832 2.349 . S
Eu817 O835 2.392 . S
Eu817 O836 2.418 . S
Eu817 C846 2.828 . S
C818 O836 1.244 . S
C818 O839 1.265 . S
C819 C820 1.379 . S
C819 C823 1.373 . S
C819 C825 1.505 . S
C820 C819 1.379 . S
C820 C822 1.369 . S
C820 H848 0.930 . S
C821 C823 1.383 . S
C821 C824 1.382 . S
C821 H849 0.930 . S
C822 C820 1.369 . S
C822 C824 1.392 . S
C822 H850 0.930 . S
C823 C819 1.373 . S
C823 C821 1.383 . S
C823 H851 0.931 . S
C824 C821 1.382 . S
C824 C822 1.392 . S
C825 Eu816 2.828 . S
C825 C819 1.505 . S
C825 O837 1.249 . S
C825 O838 1.244 . S
O826 Eu817 2.373 . S
O826 C828 1.258 . S
O827 Eu816 2.392 . S
O827 C828 1.242 . S
C828 O826 1.258 . S
C828 O827 1.242 . S
O829 Eu816 2.418 . S
O829 C833 1.244 . S
O830 Eu817 2.488 . S
O830 C846 1.249 . S
O831 Eu817 2.471 . S
O831 C846 1.244 . S
O832 Eu817 2.349 . S
O832 C833 1.265 . S
C833 O829 1.244 . S
C833 O832 1.265 . S
O834 Eu816 2.373 . S
O834 C847 1.258 . S
O835 Eu817 2.392 . S
O835 C847 1.242 . S
O836 Eu817 2.418 . S
O836 C818 1.244 . S
O837 Eu816 2.488 . S
O837 C825 1.249 . S
O838 Eu816 2.471 . S
O838 C825 1.244 . S
O839 Eu816 2.349 . S
O839 C818 1.265 . S
C840 C841 1.379 . S
C840 C844 1.373 . S
C840 C846 1.505 . S
C841 C840 1.379 . S
C841 C843 1.369 . S
C841 H852 0.930 . S
C842 C844 1.383 . S
C842 C845 1.382 . S
C842 H853 0.930 . S
C843 C841 1.369 . S
C843 C845 1.392 . S
C843 H854 0.930 . S
C844 C840 1.373 . S
C844 C842 1.383 . S
C844 H855 0.931 . S
C845 C842 1.382 . S
C845 C843 1.392 . S
C846 Eu817 2.828 . S
C846 O830 1.249 . S
C846 O831 1.244 . S
C846 C840 1.505 . S
C847 O834 1.258 . S
C847 O835 1.242 . S
H848 C820 0.930 . S
H849 C821 0.930 . S
H850 C822 0.930 . S
H851 C823 0.931 . S
H852 C841 0.930 . S
H853 C842 0.930 . S
H854 C843 0.930 . S
H855 C844 0.931 . S
Eu856 C865 2.828 . S
Eu856 O867 2.392 . S
Eu856 O869 2.418 . S
Eu856 O874 2.373 . S
Eu856 O877 2.488 . S
Eu856 O878 2.471 . S
Eu856 O879 2.349 . S
Eu857 O866 2.373 . S
Eu857 O870 2.488 . S
Eu857 O871 2.471 . S
Eu857 O872 2.349 . S
Eu857 O875 2.392 . S
Eu857 O876 2.418 . S
Eu857 C886 2.828 . S
C858 O876 1.244 . S
C858 O879 1.265 . S
C859 C860 1.379 . S
C859 C863 1.373 . S
C859 C865 1.505 . S
C860 C859 1.379 . S
C860 C862 1.369 . S
C860 H888 0.930 . S
C861 C863 1.383 . S
C861 C864 1.382 . S
C861 H889 0.930 . S
C862 C860 1.369 . S
C862 C864 1.392 . S
C862 H890 0.930 . S
C863 C859 1.373 . S
C863 C861 1.383 . S
C863 H891 0.931 . S
C864 C861 1.382 . S
C864 C862 1.392 . S
C865 Eu856 2.828 . S
C865 C859 1.505 . S
C865 O877 1.249 . S
C865 O878 1.244 . S
O866 Eu857 2.373 . S
O866 C868 1.258 . S
O867 Eu856 2.392 . S
O867 C868 1.242 . S
C868 O866 1.258 . S
C868 O867 1.242 . S
O869 Eu856 2.418 . S
O869 C873 1.244 . S
O870 Eu857 2.488 . S
O870 C886 1.249 . S
O871 Eu857 2.471 . S
O871 C886 1.244 . S
O872 Eu857 2.349 . S
O872 C873 1.265 . S
C873 O869 1.244 . S
C873 O872 1.265 . S
O874 Eu856 2.373 . S
O874 C887 1.258 . S
O875 Eu857 2.392 . S
O875 C887 1.242 . S
O876 Eu857 2.418 . S
O876 C858 1.244 . S
O877 Eu856 2.488 . S
O877 C865 1.249 . S
O878 Eu856 2.471 . S
O878 C865 1.244 . S
O879 Eu856 2.349 . S
O879 C858 1.265 . S
C880 C881 1.379 . S
C880 C884 1.373 . S
C880 C886 1.505 . S
C881 C880 1.379 . S
C881 C883 1.369 . S
C881 H892 0.930 . S
C882 C884 1.383 . S
C882 C885 1.382 . S
C882 H893 0.930 . S
C883 C881 1.369 . S
C883 C885 1.392 . S
C883 H894 0.930 . S
C884 C880 1.373 . S
C884 C882 1.383 . S
C884 H895 0.931 . S
C885 C882 1.382 . S
C885 C883 1.392 . S
C886 Eu857 2.828 . S
C886 O870 1.249 . S
C886 O871 1.244 . S
C886 C880 1.505 . S
C887 O874 1.258 . S
C887 O875 1.242 . S
H888 C860 0.930 . S
H889 C861 0.930 . S
H890 C862 0.930 . S
H891 C863 0.931 . S
H892 C881 0.930 . S
H893 C882 0.930 . S
H894 C883 0.930 . S
H895 C884 0.931 . S
Eu896 C905 2.828 . S
Eu896 O907 2.392 . S
Eu896 O909 2.418 . S
Eu896 O914 2.373 . S
Eu896 O917 2.488 . S
Eu896 O918 2.471 . S
Eu896 O919 2.349 . S
Eu897 O906 2.373 . S
Eu897 O910 2.488 . S
Eu897 O911 2.471 . S
Eu897 O912 2.349 . S
Eu897 O915 2.392 . S
Eu897 O916 2.418 . S
Eu897 C926 2.828 . S
C898 O916 1.244 . S
C898 O919 1.265 . S
C899 C900 1.379 . S
C899 C903 1.373 . S
C899 C905 1.505 . S
C900 C899 1.379 . S
C900 C902 1.369 . S
C900 H928 0.930 . S
C901 C903 1.383 . S
C901 C904 1.382 . S
C901 H929 0.930 . S
C902 C900 1.369 . S
C902 C904 1.392 . S
C902 H930 0.930 . S
C903 C899 1.373 . S
C903 C901 1.383 . S
C903 H931 0.931 . S
C904 C901 1.382 . S
C904 C902 1.392 . S
C905 Eu896 2.828 . S
C905 C899 1.505 . S
C905 O917 1.249 . S
C905 O918 1.244 . S
O906 Eu897 2.373 . S
O906 C908 1.258 . S
O907 Eu896 2.392 . S
O907 C908 1.242 . S
C908 O906 1.258 . S
C908 O907 1.242 . S
O909 Eu896 2.418 . S
O909 C913 1.244 . S
O910 Eu897 2.488 . S
O910 C926 1.249 . S
O911 Eu897 2.471 . S
O911 C926 1.244 . S
O912 Eu897 2.349 . S
O912 C913 1.265 . S
C913 O909 1.244 . S
C913 O912 1.265 . S
O914 Eu896 2.373 . S
O914 C927 1.258 . S
O915 Eu897 2.392 . S
O915 C927 1.242 . S
O916 Eu897 2.418 . S
O916 C898 1.244 . S
O917 Eu896 2.488 . S
O917 C905 1.249 . S
O918 Eu896 2.471 . S
O918 C905 1.244 . S
O919 Eu896 2.349 . S
O919 C898 1.265 . S
C920 C921 1.379 . S
C920 C924 1.373 . S
C920 C926 1.505 . S
C921 C920 1.379 . S
C921 C923 1.369 . S
C921 H932 0.930 . S
C922 C924 1.383 . S
C922 C925 1.382 . S
C922 H933 0.930 . S
C923 C921 1.369 . S
C923 C925 1.392 . S
C923 H934 0.930 . S
C924 C920 1.373 . S
C924 C922 1.383 . S
C924 H935 0.931 . S
C925 C922 1.382 . S
C925 C923 1.392 . S
C926 Eu897 2.828 . S
C926 O910 1.249 . S
C926 O911 1.244 . S
C926 C920 1.505 . S
C927 O914 1.258 . S
C927 O915 1.242 . S
H928 C900 0.930 . S
H929 C901 0.930 . S
H930 C902 0.930 . S
H931 C903 0.931 . S
H932 C921 0.930 . S
H933 C922 0.930 . S
H934 C923 0.930 . S
H935 C924 0.931 . S
Eu936 C945 2.828 1_554 S
Eu936 O947 2.392 . S
Eu936 O949 2.418 1_554 S
Eu936 O954 2.373 1_554 S
Eu936 O957 2.488 1_554 S
Eu936 O958 2.471 . S
Eu936 O959 2.349 . S
Eu937 O946 2.373 . S
Eu937 O950 2.488 1_455 S
Eu937 O951 2.471 1_455 S
Eu937 O952 2.349 1_554 S
Eu937 O955 2.392 . S
Eu937 O956 2.418 . S
Eu937 C966 2.828 1_455 S
C938 O956 1.244 . S
C938 O959 1.265 . S
C939 C940 1.379 1_556 S
C939 C943 1.373 . S
C939 C945 1.505 . S
C940 C939 1.379 1_554 S
C940 C942 1.369 . S
C940 H968 0.930 . S
C941 C943 1.383 . S
C941 C944 1.382 . S
C941 H969 0.930 . S
C942 C940 1.369 . S
C942 C944 1.392 1_554 S
C942 H970 0.930 . S
C943 C939 1.373 . S
C943 C941 1.383 . S
C943 H971 0.931 . S
C944 C941 1.382 . S
C944 C942 1.392 1_556 S
C945 Eu936 2.828 1_556 S
C945 C939 1.505 . S
C945 O957 1.249 . S
C945 O958 1.244 1_556 S
O946 Eu937 2.373 . S
O946 C948 1.258 . S
O947 Eu936 2.392 . S
O947 C948 1.242 . S
C948 O946 1.258 . S
C948 O947 1.242 . S
O949 Eu936 2.418 1_556 S
O949 C953 1.244 . S
O950 Eu937 2.488 1_655 S
O950 C966 1.249 . S
O951 Eu937 2.471 1_655 S
O951 C966 1.244 . S
O952 Eu937 2.349 1_556 S
O952 C953 1.265 . S
C953 O949 1.244 . S
C953 O952 1.265 . S
O954 Eu936 2.373 1_556 S
O954 C967 1.258 1_556 S
O955 Eu937 2.392 . S
O955 C967 1.242 . S
O956 Eu937 2.418 . S
O956 C938 1.244 . S
O957 Eu936 2.488 1_556 S
O957 C945 1.249 . S
O958 Eu936 2.471 . S
O958 C945 1.244 1_554 S
O959 Eu936 2.349 . S
O959 C938 1.265 . S
C960 C961 1.379 . S
C960 C964 1.373 . S
C960 C966 1.505 . S
C961 C960 1.379 . S
C961 C963 1.369 . S
C961 H972 0.930 . S
C962 C964 1.383 . S
C962 C965 1.382 . S
C962 H973 0.930 . S
C963 C961 1.369 . S
C963 C965 1.392 . S
C963 H974 0.930 . S
C964 C960 1.373 . S
C964 C962 1.383 . S
C964 H975 0.931 . S
C965 C962 1.382 . S
C965 C963 1.392 . S
C966 Eu937 2.828 1_655 S
C966 O950 1.249 . S
C966 O951 1.244 . S
C966 C960 1.505 . S
C967 O954 1.258 1_554 S
C967 O955 1.242 . S
H968 C940 0.930 . S
H969 C941 0.930 . S
H970 C942 0.930 . S
H971 C943 0.931 . S
H972 C961 0.930 . S
H973 C962 0.930 . S
H974 C963 0.930 . S
H975 C964 0.931 . S
H976 C994 0.951 . S
H977 C996 0.951 . S
H978 C998 0.950 . S
H979 C999 0.950 . S
H980 C1001 0.950 . S
H981 C1004 0.950 . S
H982 C1005 0.950 . S
H983 C1007 0.966 . S
H984 C1008 0.950 . S
H985 C1009 0.951 . S
H986 C1011 0.951 . S
H987 C1013 0.950 1_655 S
H988 C1014 0.950 . S
H989 C1016 0.950 . S
H990 C1019 0.950 . S
H991 C1020 0.950 . S
H992 C1022 0.950 . S
H993 C1023 0.950 . S
C994 H976 0.951 . S
C994 C995 1.366 1_655 S
C994 C996 1.388 . S
C995 C994 1.366 1_455 S
C995 C999 1.385 . S
C996 H977 0.951 . S
C996 C994 1.388 . S
C996 C997 1.366 1_655 S
C997 C996 1.366 1_455 S
C997 C998 1.414 . S
C997 C1000 1.499 . S
C998 H978 0.950 . S
C998 C997 1.414 . S
C998 C999 1.374 . S
C999 H979 0.950 . S
C999 C995 1.385 . S
C999 C998 1.374 . S
C1000 C997 1.499 . S
C1000 C1001 1.373 . S
C1000 C1002 1.389 . S
C1001 H980 0.950 . S
C1001 C1000 1.373 . S
C1001 C1017 1.377 . S
C1002 C1000 1.389 . S
C1002 C1003 1.524 . S
C1002 C1016 1.377 . S
C1003 C1002 1.524 . S
C1003 C1004 1.397 . S
C1003 C1008 1.363 1_455 S
C1004 H981 0.950 . S
C1004 C1003 1.397 . S
C1004 C1005 1.334 . S
C1005 H982 0.950 . S
C1005 C1004 1.334 . S
C1005 C1006 1.287 1_455 S
C1006 C1005 1.287 1_655 S
C1006 C1007 1.524 . S
C1006 H1025 0.913 1_556 S
C1007 H983 0.966 . S
C1007 C1006 1.524 . S
C1007 C1008 1.415 . S
C1008 H984 0.950 . S
C1008 C1003 1.363 1_655 S
C1008 C1007 1.415 . S
C1009 H985 0.951 . S
C1009 C1010 1.366 . S
C1009 C1011 1.388 . S
C1010 C1009 1.366 . S
C1010 C1014 1.385 . S
C1011 H986 0.951 . S
C1011 C1009 1.388 . S
C1011 C1012 1.366 . S
C1012 C1011 1.366 . S
C1012 C1013 1.414 . S
C1012 C1015 1.499 . S
C1013 H987 0.950 1_455 S
C1013 C1012 1.414 . S
C1013 C1014 1.374 . S
C1014 H988 0.950 . S
C1014 C1010 1.385 . S
C1014 C1013 1.374 . S
C1015 C1012 1.499 . S
C1015 C1016 1.373 . S
C1015 C1017 1.389 . S
C1016 H989 0.950 . S
C1016 C1002 1.377 . S
C1016 C1015 1.373 . S
C1017 C1001 1.377 . S
C1017 C1015 1.389 . S
C1017 C1018 1.524 . S
C1018 C1017 1.524 . S
C1018 C1019 1.397 . S
C1018 C1023 1.363 . S
C1019 H990 0.950 . S
C1019 C1018 1.397 . S
C1019 C1020 1.334 . S
C1020 H991 0.950 . S
C1020 C1019 1.334 . S
C1020 C1021 1.287 . S
C1021 C1020 1.287 . S
C1021 C1022 1.524 . S
C1021 H1024 0.999 . S
C1022 H992 0.950 . S
C1022 C1021 1.524 . S
C1022 C1023 1.415 . S
C1023 H993 0.950 . S
C1023 C1018 1.363 . S
C1023 C1022 1.415 . S
H1024 C1021 0.999 . S
H1025 C1006 0.913 1_554 S
H1026 C1044 0.951 . S
H1027 C1046 0.951 . S
H1028 C1048 0.950 . S
H1029 C1049 0.950 . S
H1030 C1051 0.950 . S
H1031 C1054 0.950 . S
H1032 C1055 0.950 . S
H1033 C1057 0.950 . S
H1034 C1058 0.950 . S
H1035 C1059 0.951 . S
H1036 C1061 0.951 . S
H1037 C1063 0.950 . S
H1038 C1064 0.950 . S
H1039 C1066 0.950 . S
H1040 C1069 0.950 . S
H1041 C1070 0.950 . S
H1042 C1072 0.950 . S
H1043 C1073 0.950 . S
C1044 H1026 0.951 . S
C1044 C1045 1.366 . S
C1044 C1046 1.388 . S
C1045 C1044 1.366 . S
C1045 C1049 1.385 . S
C1046 H1027 0.951 . S
C1046 C1044 1.388 . S
C1046 C1047 1.366 . S
C1047 C1046 1.366 . S
C1047 C1048 1.414 . S
C1047 C1050 1.499 . S
C1048 H1028 0.950 . S
C1048 C1047 1.414 . S
C1048 C1049 1.374 . S
C1049 H1029 0.950 . S
C1049 C1045 1.385 . S
C1049 C1048 1.374 . S
C1050 C1047 1.499 . S
C1050 C1051 1.373 . S
C1050 C1052 1.389 . S
C1051 H1030 0.950 . S
C1051 C1050 1.373 . S
C1051 C1067 1.377 . S
C1052 C1050 1.389 . S
C1052 C1053 1.524 . S
C1052 C1066 1.377 . S
C1053 C1052 1.524 . S
C1053 C1054 1.397 . S
C1053 C1058 1.363 . S
C1054 H1031 0.950 . S
C1054 C1053 1.397 . S
C1054 C1055 1.334 . S
C1055 H1032 0.950 . S
C1055 C1054 1.334 . S
C1055 C1056 1.287 . S
C1056 C1055 1.287 . S
C1056 C1057 1.524 . S
C1056 H1075 0.913 . S
C1057 H1033 0.950 . S
C1057 C1056 1.524 . S
C1057 C1058 1.415 . S
C1058 H1034 0.950 . S
C1058 C1053 1.363 . S
C1058 C1057 1.415 . S
C1059 H1035 0.951 . S
C1059 C1060 1.366 . S
C1059 C1061 1.388 . S
C1060 C1059 1.366 . S
C1060 C1064 1.385 . S
C1061 H1036 0.951 . S
C1061 C1059 1.388 . S
C1061 C1062 1.366 . S
C1062 C1061 1.366 . S
C1062 C1063 1.414 . S
C1062 C1065 1.499 . S
C1063 H1037 0.950 . S
C1063 C1062 1.414 . S
C1063 C1064 1.374 . S
C1064 H1038 0.950 . S
C1064 C1060 1.385 . S
C1064 C1063 1.374 . S
C1065 C1062 1.499 . S
C1065 C1066 1.373 . S
C1065 C1067 1.389 . S
C1066 H1039 0.950 . S
C1066 C1052 1.377 . S
C1066 C1065 1.373 . S
C1067 C1051 1.377 . S
C1067 C1065 1.389 . S
C1067 C1068 1.524 . S
C1068 C1067 1.524 . S
C1068 C1069 1.397 . S
C1068 C1073 1.363 . S
C1069 H1040 0.950 . S
C1069 C1068 1.397 . S
C1069 C1070 1.334 . S
C1070 H1041 0.950 . S
C1070 C1069 1.334 . S
C1070 C1071 1.287 . S
C1071 C1070 1.287 . S
C1071 C1072 1.524 . S
C1071 H1074 0.999 . S
C1072 H1042 0.950 . S
C1072 C1071 1.524 . S
C1072 C1073 1.415 . S
C1073 H1043 0.950 . S
C1073 C1068 1.363 . S
C1073 C1072 1.415 . S
H1074 C1071 0.999 . S
H1075 C1056 0.913 . S
H1076 C1094 0.951 . S
H1077 C1096 0.951 . S
H1078 C1098 0.950 . S
H1079 C1099 0.950 . S
H1080 C1101 0.950 . S
H1081 C1104 0.950 . S
H1082 C1105 0.950 . S
H1083 C1107 0.950 . S
H1084 C1108 0.950 . S
H1085 C1109 0.951 . S
H1086 C1111 0.951 . S
H1087 C1113 0.950 . S
H1088 C1114 0.950 . S
H1089 C1116 0.950 . S
H1090 C1119 0.950 . S
H1091 C1120 0.950 . S
H1092 C1122 0.950 . S
H1093 C1123 0.950 . S
C1094 H1076 0.951 . S
C1094 C1095 1.366 . S
C1094 C1096 1.388 . S
C1095 C1094 1.366 . S
C1095 C1099 1.385 . S
C1096 H1077 0.951 . S
C1096 C1094 1.388 . S
C1096 C1097 1.366 . S
C1097 C1096 1.366 . S
C1097 C1098 1.414 . S
C1097 C1100 1.499 . S
C1098 H1078 0.950 . S
C1098 C1097 1.414 . S
C1098 C1099 1.374 . S
C1099 H1079 0.950 . S
C1099 C1095 1.385 . S
C1099 C1098 1.374 . S
C1100 C1097 1.499 . S
C1100 C1101 1.373 . S
C1100 C1102 1.389 . S
C1101 H1080 0.950 . S
C1101 C1100 1.373 . S
C1101 C1117 1.377 . S
C1102 C1100 1.389 . S
C1102 C1103 1.524 . S
C1102 C1116 1.377 . S
C1103 C1102 1.524 . S
C1103 C1104 1.397 . S
C1103 C1108 1.363 . S
C1104 H1081 0.950 . S
C1104 C1103 1.397 . S
C1104 C1105 1.334 . S
C1105 H1082 0.950 . S
C1105 C1104 1.334 . S
C1105 C1106 1.287 . S
C1106 C1105 1.287 . S
C1106 C1107 1.524 . S
C1106 H1125 0.913 . S
C1107 H1083 0.950 . S
C1107 C1106 1.524 . S
C1107 C1108 1.415 . S
C1108 H1084 0.950 . S
C1108 C1103 1.363 . S
C1108 C1107 1.415 . S
C1109 H1085 0.951 . S
C1109 C1110 1.366 . S
C1109 C1111 1.388 . S
C1110 C1109 1.366 . S
C1110 C1114 1.385 . S
C1111 H1086 0.951 . S
C1111 C1109 1.388 . S
C1111 C1112 1.366 . S
C1112 C1111 1.366 . S
C1112 C1113 1.414 . S
C1112 C1115 1.499 . S
C1113 H1087 0.950 . S
C1113 C1112 1.414 . S
C1113 C1114 1.374 . S
C1114 H1088 0.950 . S
C1114 C1110 1.385 . S
C1114 C1113 1.374 . S
C1115 C1112 1.499 . S
C1115 C1116 1.373 . S
C1115 C1117 1.389 . S
C1116 H1089 0.950 . S
C1116 C1102 1.377 . S
C1116 C1115 1.373 . S
C1117 C1101 1.377 . S
C1117 C1115 1.389 . S
C1117 C1118 1.524 . S
C1118 C1117 1.524 . S
C1118 C1119 1.397 . S
C1118 C1123 1.363 . S
C1119 H1090 0.950 . S
C1119 C1118 1.397 . S
C1119 C1120 1.334 . S
C1120 H1091 0.950 . S
C1120 C1119 1.334 . S
C1120 C1121 1.287 . S
C1121 C1120 1.287 . S
C1121 C1122 1.524 . S
C1121 H1124 0.999 . S
C1122 H1092 0.950 . S
C1122 C1121 1.524 . S
C1122 C1123 1.415 . S
C1123 H1093 0.950 . S
C1123 C1118 1.363 . S
C1123 C1122 1.415 . S
H1124 C1121 0.999 . S
H1125 C1106 0.913 . S
H1126 C1144 0.951 . S
H1127 C1146 0.951 . S
H1128 C1148 0.950 . S
H1129 C1149 0.950 . S
H1130 C1151 0.950 . S
H1131 C1154 0.950 . S
H1132 C1155 0.950 . S
H1133 C1157 0.950 . S
H1134 C1158 0.950 . S
H1135 C1159 0.951 . S
H1136 C1161 0.951 . S
H1137 C1163 0.950 . S
H1138 C1164 0.950 . S
H1139 C1166 0.950 . S
H1140 C1169 0.950 . S
H1141 C1170 0.950 . S
H1142 C1172 0.950 . S
H1143 C1173 0.950 . S
C1144 H1126 0.951 . S
C1144 C1145 1.366 . S
C1144 C1146 1.388 . S
C1145 C1144 1.366 . S
C1145 C1149 1.385 . S
C1146 H1127 0.951 . S
C1146 C1144 1.388 . S
C1146 C1147 1.366 . S
C1147 C1146 1.366 . S
C1147 C1148 1.414 . S
C1147 C1150 1.499 . S
C1148 H1128 0.950 . S
C1148 C1147 1.414 . S
C1148 C1149 1.374 . S
C1149 H1129 0.950 . S
C1149 C1145 1.385 . S
C1149 C1148 1.374 . S
C1150 C1147 1.499 . S
C1150 C1151 1.373 . S
C1150 C1152 1.389 . S
C1151 H1130 0.950 . S
C1151 C1150 1.373 . S
C1151 C1167 1.377 . S
C1152 C1150 1.389 . S
C1152 C1153 1.524 . S
C1152 C1166 1.377 . S
C1153 C1152 1.524 . S
C1153 C1154 1.397 . S
C1153 C1158 1.363 . S
C1154 H1131 0.950 . S
C1154 C1153 1.397 . S
C1154 C1155 1.334 . S
C1155 H1132 0.950 . S
C1155 C1154 1.334 . S
C1155 C1156 1.287 . S
C1156 C1155 1.287 . S
C1156 C1157 1.524 . S
C1156 H1175 0.913 . S
C1157 H1133 0.950 . S
C1157 C1156 1.524 . S
C1157 C1158 1.415 . S
C1158 H1134 0.950 . S
C1158 C1153 1.363 . S
C1158 C1157 1.415 . S
C1159 H1135 0.951 . S
C1159 C1160 1.366 . S
C1159 C1161 1.388 . S
C1160 C1159 1.366 . S
C1160 C1164 1.385 . S
C1161 H1136 0.951 . S
C1161 C1159 1.388 . S
C1161 C1162 1.366 . S
C1162 C1161 1.366 . S
C1162 C1163 1.414 . S
C1162 C1165 1.499 . S
C1163 H1137 0.950 . S
C1163 C1162 1.414 . S
C1163 C1164 1.374 . S
C1164 H1138 0.950 . S
C1164 C1160 1.385 . S
C1164 C1163 1.374 . S
C1165 C1162 1.499 . S
C1165 C1166 1.373 . S
C1165 C1167 1.389 . S
C1166 H1139 0.950 . S
C1166 C1152 1.377 . S
C1166 C1165 1.373 . S
C1167 C1151 1.377 . S
C1167 C1165 1.389 . S
C1167 C1168 1.524 . S
C1168 C1167 1.524 . S
C1168 C1169 1.397 . S
C1168 C1173 1.363 . S
C1169 H1140 0.950 . S
C1169 C1168 1.397 . S
C1169 C1170 1.334 . S
C1170 H1141 0.950 . S
C1170 C1169 1.334 . S
C1170 C1171 1.287 . S
C1171 C1170 1.287 . S
C1171 C1172 1.524 . S
C1171 H1174 0.999 . S
C1172 H1142 0.950 . S
C1172 C1171 1.524 . S
C1172 C1173 1.415 . S
C1173 H1143 0.950 . S
C1173 C1168 1.363 . S
C1173 C1172 1.415 . S
H1174 C1171 0.999 . S
H1175 C1156 0.913 . S
H1176 C1194 0.951 . S
H1177 C1196 0.951 . S
H1178 C1198 0.950 . S
H1179 C1199 0.918 1_655 S
H1180 C1201 0.887 1_655 S
H1181 C1204 0.950 . S
H1182 C1205 0.950 . S
H1183 C1207 0.950 . S
H1184 C1208 0.950 . S
H1185 C1209 0.951 . S
H1186 C1211 0.951 . S
H1187 C1213 0.950 . S
H1188 C1214 0.950 . S
H1189 C1216 0.950 . S
H1190 C1219 0.934 1_455 S
H1191 C1220 0.950 . S
H1192 C1222 0.950 . S
H1193 C1223 0.950 . S
C1194 H1176 0.951 . S
C1194 C1195 1.366 . S
C1194 C1196 1.388 . S
C1195 C1194 1.366 . S
C1195 C1199 1.409 . S
C1196 H1177 0.951 . S
C1196 C1194 1.388 . S
C1196 C1197 1.366 . S
C1197 C1196 1.366 . S
C1197 C1198 1.414 . S
C1197 C1200 1.499 . S
C1198 H1178 0.950 . S
C1198 C1197 1.414 . S
C1198 C1199 1.383 . S
C1199 H1179 0.918 1_455 S
C1199 C1195 1.409 . S
C1199 C1198 1.383 . S
C1200 C1197 1.499 . S
C1200 C1201 1.373 . S
C1200 C1202 1.389 . S
C1201 H1180 0.887 1_455 S
C1201 C1200 1.373 . S
C1201 C1217 1.377 . S
C1202 C1200 1.389 . S
C1202 C1203 1.524 . S
C1202 C1216 1.377 . S
C1203 C1202 1.524 . S
C1203 C1204 1.397 . S
C1203 C1208 1.363 . S
C1204 H1181 0.950 . S
C1204 C1203 1.397 . S
C1204 C1205 1.334 . S
C1205 H1182 0.950 . S
C1205 C1204 1.334 . S
C1205 C1206 1.287 . S
C1206 C1205 1.287 . S
C1206 C1207 1.524 . S
C1206 H1225 0.913 . S
C1207 H1183 0.950 . S
C1207 C1206 1.524 . S
C1207 C1208 1.415 . S
C1208 H1184 0.950 . S
C1208 C1203 1.363 . S
C1208 C1207 1.415 . S
C1209 H1185 0.951 . S
C1209 C1210 1.366 . S
C1209 C1211 1.388 . S
C1210 C1209 1.366 . S
C1210 C1214 1.385 . S
C1211 H1186 0.951 . S
C1211 C1209 1.388 . S
C1211 C1212 1.366 . S
C1212 C1211 1.366 . S
C1212 C1213 1.414 . S
C1212 C1215 1.499 . S
C1213 H1187 0.950 . S
C1213 C1212 1.414 . S
C1213 C1214 1.374 . S
C1214 H1188 0.950 . S
C1214 C1210 1.385 . S
C1214 C1213 1.374 . S
C1215 C1212 1.499 . S
C1215 C1216 1.373 . S
C1215 C1217 1.389 . S
C1216 H1189 0.950 . S
C1216 C1202 1.377 . S
C1216 C1215 1.373 . S
C1217 C1201 1.377 . S
C1217 C1215 1.389 . S
C1217 C1218 1.570 . S
C1218 C1217 1.570 . S
C1218 C1219 1.399 1_455 S
C1218 C1223 1.319 1_455 S
C1219 H1190 0.934 1_655 S
C1219 C1218 1.399 1_655 S
C1219 C1220 1.350 . S
C1220 H1191 0.950 . S
C1220 C1219 1.350 . S
C1220 C1221 1.287 . S
C1221 C1220 1.287 . S
C1221 C1222 1.524 . S
C1221 H1224 0.999 . S
C1222 H1192 0.950 . S
C1222 C1221 1.524 . S
C1222 C1223 1.415 . S
C1223 H1193 0.950 . S
C1223 C1218 1.319 1_655 S
C1223 C1222 1.415 . S
H1224 C1221 0.999 . S
H1225 C1206 0.913 . S
H1226 C1244 0.951 . S
H1227 C1246 0.951 . S
H1228 C1248 0.950 . S
H1229 C1249 0.950 . S
H1230 C1251 0.950 . S
H1231 C1254 0.950 . S
H1232 C1255 0.950 . S
H1233 C1257 0.950 . S
H1234 C1258 0.950 . S
H1235 C1259 0.951 . S
H1236 C1261 0.951 . S
H1237 C1263 0.950 . S
H1238 C1264 0.950 . S
H1239 C1266 0.950 . S
H1240 C1269 0.950 . S
H1241 C1270 0.950 . S
H1242 C1272 0.950 . S
H1243 C1273 0.950 . S
C1244 H1226 0.951 . S
C1244 C1245 1.366 . S
C1244 C1246 1.388 . S
C1245 C1244 1.366 . S
C1245 C1249 1.385 . S
C1246 H1227 0.951 . S
C1246 C1244 1.388 . S
C1246 C1247 1.366 . S
C1247 C1246 1.366 . S
C1247 C1248 1.414 . S
C1247 C1250 1.499 . S
C1248 H1228 0.950 . S
C1248 C1247 1.414 . S
C1248 C1249 1.374 . S
C1249 H1229 0.950 . S
C1249 C1245 1.385 . S
C1249 C1248 1.374 . S
C1250 C1247 1.499 . S
C1250 C1251 1.373 . S
C1250 C1252 1.389 . S
C1251 H1230 0.950 . S
C1251 C1250 1.373 . S
C1251 C1267 1.377 . S
C1252 C1250 1.389 . S
C1252 C1253 1.524 . S
C1252 C1266 1.377 . S
C1253 C1252 1.524 . S
C1253 C1254 1.397 . S
C1253 C1258 1.363 . S
C1254 H1231 0.950 . S
C1254 C1253 1.397 . S
C1254 C1255 1.334 . S
C1255 H1232 0.950 . S
C1255 C1254 1.334 . S
C1255 C1256 1.287 . S
C1256 C1255 1.287 . S
C1256 C1257 1.524 . S
C1256 H1275 0.913 . S
C1257 H1233 0.950 . S
C1257 C1256 1.524 . S
C1257 C1258 1.415 . S
C1258 H1234 0.950 . S
C1258 C1253 1.363 . S
C1258 C1257 1.415 . S
C1259 H1235 0.951 . S
C1259 C1260 1.366 . S
C1259 C1261 1.388 . S
C1260 C1259 1.366 . S
C1260 C1264 1.385 . S
C1261 H1236 0.951 . S
C1261 C1259 1.388 . S
C1261 C1262 1.366 . S
C1262 C1261 1.366 . S
C1262 C1263 1.414 . S
C1262 C1265 1.499 . S
C1263 H1237 0.950 . S
C1263 C1262 1.414 . S
C1263 C1264 1.374 . S
C1264 H1238 0.950 . S
C1264 C1260 1.385 . S
C1264 C1263 1.374 . S
C1265 C1262 1.499 . S
C1265 C1266 1.373 . S
C1265 C1267 1.389 . S
C1266 H1239 0.950 . S
C1266 C1252 1.377 . S
C1266 C1265 1.373 . S
C1267 C1251 1.377 . S
C1267 C1265 1.389 . S
C1267 C1268 1.524 . S
C1268 C1267 1.524 . S
C1268 C1269 1.397 . S
C1268 C1273 1.363 . S
C1269 H1240 0.950 . S
C1269 C1268 1.397 . S
C1269 C1270 1.334 . S
C1270 H1241 0.950 . S
C1270 C1269 1.334 . S
C1270 C1271 1.287 . S
C1271 C1270 1.287 . S
C1271 C1272 1.524 . S
C1271 H1274 0.999 . S
C1272 H1242 0.950 . S
C1272 C1271 1.524 . S
C1272 C1273 1.415 . S
C1273 H1243 0.950 . S
C1273 C1268 1.363 . S
C1273 C1272 1.415 . S
H1274 C1271 0.999 . S
H1275 C1256 0.913 . S
H1276 C1294 0.951 . S
H1277 C1296 0.951 . S
H1278 C1298 0.950 . S
H1279 C1299 0.950 . S
H1280 C1301 0.950 . S
H1281 C1304 0.950 . S
H1282 C1305 0.950 . S
H1283 C1307 0.950 . S
H1284 C1308 0.950 . S
H1285 C1309 0.951 . S
H1286 C1311 0.951 . S
H1287 C1313 0.950 . S
H1288 C1314 0.950 . S
H1289 C1316 0.950 . S
H1290 C1319 0.950 . S
H1291 C1320 0.950 . S
H1292 C1322 0.950 . S
H1293 C1323 0.950 . S
C1294 H1276 0.951 . S
C1294 C1295 1.366 . S
C1294 C1296 1.388 . S
C1295 C1294 1.366 . S
C1295 C1299 1.385 . S
C1296 H1277 0.951 . S
C1296 C1294 1.388 . S
C1296 C1297 1.366 . S
C1297 C1296 1.366 . S
C1297 C1298 1.414 . S
C1297 C1300 1.499 . S
C1298 H1278 0.950 . S
C1298 C1297 1.414 . S
C1298 C1299 1.374 . S
C1299 H1279 0.950 . S
C1299 C1295 1.385 . S
C1299 C1298 1.374 . S
C1300 C1297 1.499 . S
C1300 C1301 1.373 . S
C1300 C1302 1.389 . S
C1301 H1280 0.950 . S
C1301 C1300 1.373 . S
C1301 C1317 1.377 . S
C1302 C1300 1.389 . S
C1302 C1303 1.524 . S
C1302 C1316 1.377 . S
C1303 C1302 1.524 . S
C1303 C1304 1.397 . S
C1303 C1308 1.363 . S
C1304 H1281 0.950 . S
C1304 C1303 1.397 . S
C1304 C1305 1.334 . S
C1305 H1282 0.950 . S
C1305 C1304 1.334 . S
C1305 C1306 1.287 . S
C1306 C1305 1.287 . S
C1306 C1307 1.524 . S
C1306 H1325 0.913 . S
C1307 H1283 0.950 . S
C1307 C1306 1.524 . S
C1307 C1308 1.415 . S
C1308 H1284 0.950 . S
C1308 C1303 1.363 . S
C1308 C1307 1.415 . S
C1309 H1285 0.951 . S
C1309 C1310 1.366 . S
C1309 C1311 1.388 . S
C1310 C1309 1.366 . S
C1310 C1314 1.385 . S
C1311 H1286 0.951 . S
C1311 C1309 1.388 . S
C1311 C1312 1.366 . S
C1312 C1311 1.366 . S
C1312 C1313 1.414 . S
C1312 C1315 1.499 . S
C1313 H1287 0.950 . S
C1313 C1312 1.414 . S
C1313 C1314 1.374 . S
C1314 H1288 0.950 . S
C1314 C1310 1.385 . S
C1314 C1313 1.374 . S
C1315 C1312 1.499 . S
C1315 C1316 1.373 . S
C1315 C1317 1.389 . S
C1316 H1289 0.950 . S
C1316 C1302 1.377 . S
C1316 C1315 1.373 . S
C1317 C1301 1.377 . S
C1317 C1315 1.389 . S
C1317 C1318 1.524 . S
C1318 C1317 1.524 . S
C1318 C1319 1.397 . S
C1318 C1323 1.363 . S
C1319 H1290 0.950 . S
C1319 C1318 1.397 . S
C1319 C1320 1.334 . S
C1320 H1291 0.950 . S
C1320 C1319 1.334 . S
C1320 C1321 1.287 . S
C1321 C1320 1.287 . S
C1321 C1322 1.524 . S
C1321 H1324 0.999 . S
C1322 H1292 0.950 . S
C1322 C1321 1.524 . S
C1322 C1323 1.415 . S
C1323 H1293 0.950 . S
C1323 C1318 1.363 . S
C1323 C1322 1.415 . S
H1324 C1321 0.999 . S
H1325 C1306 0.913 . S
H1326 C1344 0.951 . S
H1327 C1346 0.951 . S
H1328 C1348 0.950 . S
H1329 C1349 0.950 . S
H1330 C1351 0.950 . S
H1331 C1354 0.950 . S
H1332 C1355 0.950 . S
H1333 C1357 0.950 . S
H1334 C1358 0.950 . S
H1335 C1359 0.951 . S
H1336 C1361 0.951 . S
H1337 C1363 0.950 . S
H1338 C1364 0.950 . S
H1339 C1366 0.950 . S
H1340 C1369 0.950 . S
H1341 C1370 0.950 . S
H1342 C1372 0.950 . S
H1343 C1373 0.950 . S
C1344 H1326 0.951 . S
C1344 C1345 1.366 . S
C1344 C1346 1.388 . S
C1345 C1344 1.366 . S
C1345 C1349 1.385 . S
C1346 H1327 0.951 . S
C1346 C1344 1.388 . S
C1346 C1347 1.366 . S
C1347 C1346 1.366 . S
C1347 C1348 1.414 . S
C1347 C1350 1.499 . S
C1348 H1328 0.950 . S
C1348 C1347 1.414 . S
C1348 C1349 1.374 . S
C1349 H1329 0.950 . S
C1349 C1345 1.385 . S
C1349 C1348 1.374 . S
C1350 C1347 1.499 . S
C1350 C1351 1.373 . S
C1350 C1352 1.389 . S
C1351 H1330 0.950 . S
C1351 C1350 1.373 . S
C1351 C1367 1.377 . S
C1352 C1350 1.389 . S
C1352 C1353 1.524 . S
C1352 C1366 1.377 . S
C1353 C1352 1.524 . S
C1353 C1354 1.397 . S
C1353 C1358 1.363 . S
C1354 H1331 0.950 . S
C1354 C1353 1.397 . S
C1354 C1355 1.334 . S
C1355 H1332 0.950 . S
C1355 C1354 1.334 . S
C1355 C1356 1.287 . S
C1356 C1355 1.287 . S
C1356 C1357 1.524 . S
C1356 H1375 0.913 . S
C1357 H1333 0.950 . S
C1357 C1356 1.524 . S
C1357 C1358 1.415 . S
C1358 H1334 0.950 . S
C1358 C1353 1.363 . S
C1358 C1357 1.415 . S
C1359 H1335 0.951 . S
C1359 C1360 1.366 . S
C1359 C1361 1.388 . S
C1360 C1359 1.366 . S
C1360 C1364 1.385 . S
C1361 H1336 0.951 . S
C1361 C1359 1.388 . S
C1361 C1362 1.366 . S
C1362 C1361 1.366 . S
C1362 C1363 1.414 . S
C1362 C1365 1.499 . S
C1363 H1337 0.950 . S
C1363 C1362 1.414 . S
C1363 C1364 1.374 . S
C1364 H1338 0.950 . S
C1364 C1360 1.385 . S
C1364 C1363 1.374 . S
C1365 C1362 1.499 . S
C1365 C1366 1.373 . S
C1365 C1367 1.389 . S
C1366 H1339 0.950 . S
C1366 C1352 1.377 . S
C1366 C1365 1.373 . S
C1367 C1351 1.377 . S
C1367 C1365 1.389 . S
C1367 C1368 1.524 . S
C1368 C1367 1.524 . S
C1368 C1369 1.397 . S
C1368 C1373 1.363 . S
C1369 H1340 0.950 . S
C1369 C1368 1.397 . S
C1369 C1370 1.334 . S
C1370 H1341 0.950 . S
C1370 C1369 1.334 . S
C1370 C1371 1.287 . S
C1371 C1370 1.287 . S
C1371 C1372 1.524 . S
C1371 H1374 0.999 . S
C1372 H1342 0.950 . S
C1372 C1371 1.524 . S
C1372 C1373 1.415 . S
C1373 H1343 0.950 . S
C1373 C1368 1.363 . S
C1373 C1372 1.415 . S
H1374 C1371 0.999 . S
H1375 C1356 0.913 . S
H1376 C1394 0.951 . S
H1377 C1396 0.951 . S
H1378 C1398 0.950 . S
H1379 C1399 0.950 . S
H1380 C1401 0.950 . S
H1381 C1404 0.950 . S
H1382 C1405 0.950 . S
H1383 C1407 0.950 . S
H1384 C1408 0.950 . S
H1385 C1409 0.951 . S
H1386 C1411 0.951 . S
H1387 C1413 0.950 . S
H1388 C1414 0.980 . S
H1389 C1416 0.950 . S
H1390 C1419 0.950 1_655 S
H1391 C1420 0.950 . S
H1392 C1422 0.950 . S
H1393 C1423 0.950 . S
C1394 H1376 0.951 . S
C1394 C1395 1.366 . S
C1394 C1396 1.388 . S
C1395 C1394 1.366 . S
C1395 C1399 1.385 . S
C1396 H1377 0.951 . S
C1396 C1394 1.388 . S
C1396 C1397 1.366 . S
C1397 C1396 1.366 . S
C1397 C1398 1.414 . S
C1397 C1400 1.499 . S
C1398 H1378 0.950 . S
C1398 C1397 1.414 . S
C1398 C1399 1.374 . S
C1399 H1379 0.950 . S
C1399 C1395 1.385 . S
C1399 C1398 1.374 . S
C1400 C1397 1.499 . S
C1400 C1401 1.373 . S
C1400 C1402 1.389 . S
C1401 H1380 0.950 . S
C1401 C1400 1.373 . S
C1401 C1417 1.377 . S
C1402 C1400 1.389 . S
C1402 C1403 1.524 . S
C1402 C1416 1.377 . S
C1403 C1402 1.524 . S
C1403 C1404 1.397 . S
C1403 C1408 1.363 . S
C1404 H1381 0.950 . S
C1404 C1403 1.397 . S
C1404 C1405 1.334 1_545 S
C1405 H1382 0.950 . S
C1405 C1404 1.334 1_565 S
C1405 C1406 1.287 . S
C1406 C1405 1.287 . S
C1406 C1407 1.524 . S
C1406 H1425 0.913 . S
C1407 H1383 0.950 . S
C1407 C1406 1.524 . S
C1407 C1408 1.415 1_565 S
C1408 H1384 0.950 . S
C1408 C1403 1.363 . S
C1408 C1407 1.415 1_545 S
C1409 H1385 0.951 . S
C1409 C1410 1.366 . S
C1409 C1411 1.388 . S
C1410 C1409 1.366 . S
C1410 C1414 1.321 1_455 S
C1411 H1386 0.951 . S
C1411 C1409 1.388 . S
C1411 C1412 1.422 . S
C1412 C1411 1.422 . S
C1412 C1413 1.390 1_455 S
C1412 C1415 1.468 1_455 S
C1413 H1387 0.950 . S
C1413 C1412 1.390 1_655 S
C1413 C1414 1.410 . S
C1414 H1388 0.980 . S
C1414 C1410 1.321 1_655 S
C1414 C1413 1.410 . S
C1415 C1412 1.468 1_655 S
C1415 C1416 1.373 . S
C1415 C1417 1.389 . S
C1416 H1389 0.950 . S
C1416 C1402 1.377 . S
C1416 C1415 1.373 . S
C1417 C1401 1.377 . S
C1417 C1415 1.389 . S
C1417 C1418 1.524 1_655 S
C1418 C1417 1.524 1_455 S
C1418 C1419 1.397 . S
C1418 C1423 1.363 . S
C1419 H1390 0.950 1_455 S
C1419 C1418 1.397 . S
C1419 C1420 1.334 . S
C1420 H1391 0.950 . S
C1420 C1419 1.334 . S
C1420 C1421 1.287 . S
C1421 C1420 1.287 . S
C1421 C1422 1.524 . S
C1421 H1424 0.999 . S
C1422 H1392 0.950 . S
C1422 C1421 1.524 . S
C1422 C1423 1.415 . S
C1423 H1393 0.950 . S
C1423 C1418 1.363 . S
C1423 C1422 1.415 . S
H1424 C1421 0.999 . S
H1425 C1406 0.913 . S
H1426 C1444 0.951 . S
H1427 C1446 0.951 . S
H1428 C1448 0.950 . S
H1429 C1449 0.950 . S
H1430 C1451 0.950 . S
H1431 C1454 0.950 . S
H1432 C1455 0.950 . S
H1433 C1457 0.950 . S
H1434 C1458 0.950 . S
H1435 C1459 0.951 . S
H1436 C1461 0.951 . S
H1437 C1463 0.950 . S
H1438 C1464 0.950 . S
H1439 C1466 0.950 . S
H1440 C1469 0.950 . S
H1441 C1470 0.950 . S
H1442 C1472 0.950 . S
H1443 C1473 0.950 . S
C1444 H1426 0.951 . S
C1444 C1445 1.366 . S
C1444 C1446 1.388 . S
C1445 C1444 1.366 . S
C1445 C1449 1.385 . S
C1446 H1427 0.951 . S
C1446 C1444 1.388 . S
C1446 C1447 1.366 . S
C1447 C1446 1.366 . S
C1447 C1448 1.414 . S
C1447 C1450 1.499 . S
C1448 H1428 0.950 . S
C1448 C1447 1.414 . S
C1448 C1449 1.374 . S
C1449 H1429 0.950 . S
C1449 C1445 1.385 . S
C1449 C1448 1.374 . S
C1450 C1447 1.499 . S
C1450 C1451 1.373 . S
C1450 C1452 1.389 . S
C1451 H1430 0.950 . S
C1451 C1450 1.373 . S
C1451 C1467 1.377 . S
C1452 C1450 1.389 . S
C1452 C1453 1.524 . S
C1452 C1466 1.377 . S
C1453 C1452 1.524 . S
C1453 C1454 1.397 . S
C1453 C1458 1.363 . S
C1454 H1431 0.950 . S
C1454 C1453 1.397 . S
C1454 C1455 1.334 . S
C1455 H1432 0.950 . S
C1455 C1454 1.334 . S
C1455 C1456 1.287 . S
C1456 C1455 1.287 . S
C1456 C1457 1.524 . S
C1456 H1475 0.913 . S
C1457 H1433 0.950 . S
C1457 C1456 1.524 . S
C1457 C1458 1.415 . S
C1458 H1434 0.950 . S
C1458 C1453 1.363 . S
C1458 C1457 1.415 . S
C1459 H1435 0.951 . S
C1459 C1460 1.366 . S
C1459 C1461 1.388 . S
C1460 C1459 1.366 . S
C1460 C1464 1.385 . S
C1461 H1436 0.951 . S
C1461 C1459 1.388 . S
C1461 C1462 1.366 . S
C1462 C1461 1.366 . S
C1462 C1463 1.414 . S
C1462 C1465 1.499 . S
C1463 H1437 0.950 . S
C1463 C1462 1.414 . S
C1463 C1464 1.374 . S
C1464 H1438 0.950 . S
C1464 C1460 1.385 . S
C1464 C1463 1.374 . S
C1465 C1462 1.499 . S
C1465 C1466 1.373 . S
C1465 C1467 1.389 . S
C1466 H1439 0.950 . S
C1466 C1452 1.377 . S
C1466 C1465 1.373 . S
C1467 C1451 1.377 . S
C1467 C1465 1.389 . S
C1467 C1468 1.524 . S
C1468 C1467 1.524 . S
C1468 C1469 1.397 . S
C1468 C1473 1.363 . S
C1469 H1440 0.950 . S
C1469 C1468 1.397 . S
C1469 C1470 1.334 . S
C1470 H1441 0.950 . S
C1470 C1469 1.334 . S
C1470 C1471 1.287 . S
C1471 C1470 1.287 . S
C1471 C1472 1.524 . S
C1471 H1474 0.999 . S
C1472 H1442 0.950 . S
C1472 C1471 1.524 . S
C1472 C1473 1.415 . S
C1473 H1443 0.950 . S
C1473 C1468 1.363 . S
C1473 C1472 1.415 . S
H1474 C1471 0.999 . S
H1475 C1456 0.913 . S
H1476 C1494 0.951 . S
H1477 C1496 0.951 . S
H1478 C1498 0.950 . S
H1479 C1499 0.950 . S
H1480 C1501 0.950 . S
H1481 C1504 0.948 1_545 S
H1482 C1505 0.950 . S
H1483 C1507 0.950 . S
H1484 C1508 0.950 . S
H1485 C1509 0.951 . S
H1486 C1511 0.951 . S
H1487 C1513 0.950 . S
H1488 C1514 0.950 . S
H1489 C1516 0.950 . S
H1490 C1519 0.950 . S
H1491 C1520 0.950 . S
H1492 C1522 0.950 . S
H1493 C1523 0.950 . S
C1494 H1476 0.951 . S
C1494 C1495 1.366 . S
C1494 C1496 1.388 . S
C1495 C1494 1.366 . S
C1495 C1499 1.385 . S
C1496 H1477 0.951 . S
C1496 C1494 1.388 . S
C1496 C1497 1.366 . S
C1497 C1496 1.366 . S
C1497 C1498 1.414 . S
C1497 C1500 1.499 . S
C1498 H1478 0.950 . S
C1498 C1497 1.414 . S
C1498 C1499 1.374 . S
C1499 H1479 0.950 . S
C1499 C1495 1.385 . S
C1499 C1498 1.374 . S
C1500 C1497 1.499 . S
C1500 C1501 1.373 . S
C1500 C1502 1.389 . S
C1501 H1480 0.950 . S
C1501 C1500 1.373 . S
C1501 C1517 1.377 . S
C1502 C1500 1.389 . S
C1502 C1503 1.524 . S
C1502 C1516 1.377 . S
C1503 C1502 1.524 . S
C1503 C1504 1.397 1_545 S
C1503 C1508 1.363 . S
C1504 H1481 0.948 1_565 S
C1504 C1503 1.397 1_565 S
C1504 C1505 1.334 . S
C1505 H1482 0.950 . S
C1505 C1504 1.334 . S
C1505 C1506 1.287 . S
C1506 C1505 1.287 . S
C1506 C1507 1.524 . S
C1506 H1525 0.913 . S
C1507 H1483 0.950 . S
C1507 C1506 1.524 . S
C1507 C1508 1.415 1_565 S
C1508 H1484 0.950 . S
C1508 C1503 1.363 . S
C1508 C1507 1.415 1_545 S
C1509 H1485 0.951 . S
C1509 C1510 1.366 . S
C1509 C1511 1.388 . S
C1510 C1509 1.366 . S
C1510 C1514 1.385 . S
C1511 H1486 0.951 . S
C1511 C1509 1.388 . S
C1511 C1512 1.366 . S
C1512 C1511 1.366 . S
C1512 C1513 1.414 . S
C1512 C1515 1.499 . S
C1513 H1487 0.950 . S
C1513 C1512 1.414 . S
C1513 C1514 1.374 . S
C1514 H1488 0.950 . S
C1514 C1510 1.385 . S
C1514 C1513 1.374 . S
C1515 C1512 1.499 . S
C1515 C1516 1.373 . S
C1515 C1517 1.389 . S
C1516 H1489 0.950 . S
C1516 C1502 1.377 . S
C1516 C1515 1.373 . S
C1517 C1501 1.377 . S
C1517 C1515 1.389 . S
C1517 C1518 1.524 . S
C1518 C1517 1.524 . S
C1518 C1519 1.397 . S
C1518 C1523 1.363 . S
C1519 H1490 0.950 . S
C1519 C1518 1.397 . S
C1519 C1520 1.334 . S
C1520 H1491 0.950 . S
C1520 C1519 1.334 . S
C1520 C1521 1.287 . S
C1521 C1520 1.287 . S
C1521 C1522 1.524 . S
C1521 H1524 0.999 . S
C1522 H1492 0.950 . S
C1522 C1521 1.524 . S
C1522 C1523 1.415 . S
C1523 H1493 0.950 . S
C1523 C1518 1.363 . S
C1523 C1522 1.415 . S
H1524 C1521 0.999 . S
H1525 C1506 0.913 . S
H1526 C1544 0.951 . S
H1527 C1546 0.951 . S
H1528 C1548 0.950 . S
H1529 C1549 0.950 . S
H1530 C1551 0.950 . S
H1531 C1554 0.950 . S
H1532 C1555 0.950 . S
H1533 C1557 0.950 . S
H1534 C1558 0.950 . S
H1535 C1559 0.951 . S
H1536 C1561 0.951 . S
H1537 C1563 0.950 . S
H1538 C1564 0.950 . S
H1539 C1566 0.950 . S
H1540 C1569 0.950 . S
H1541 C1570 0.950 . S
H1542 C1572 0.950 . S
H1543 C1573 0.950 . S
C1544 H1526 0.951 . S
C1544 C1545 1.366 . S
C1544 C1546 1.388 . S
C1545 C1544 1.366 . S
C1545 C1549 1.385 . S
C1546 H1527 0.951 . S
C1546 C1544 1.388 . S
C1546 C1547 1.366 . S
C1547 C1546 1.366 . S
C1547 C1548 1.414 . S
C1547 C1550 1.499 . S
C1548 H1528 0.950 . S
C1548 C1547 1.414 . S
C1548 C1549 1.374 . S
C1549 H1529 0.950 . S
C1549 C1545 1.385 . S
C1549 C1548 1.374 . S
C1550 C1547 1.499 . S
C1550 C1551 1.373 . S
C1550 C1552 1.389 . S
C1551 H1530 0.950 . S
C1551 C1550 1.373 . S
C1551 C1567 1.377 . S
C1552 C1550 1.389 . S
C1552 C1553 1.524 . S
C1552 C1566 1.377 . S
C1553 C1552 1.524 . S
C1553 C1554 1.397 . S
C1553 C1558 1.363 . S
C1554 H1531 0.950 . S
C1554 C1553 1.397 . S
C1554 C1555 1.334 . S
C1555 H1532 0.950 . S
C1555 C1554 1.334 . S
C1555 C1556 1.287 . S
C1556 C1555 1.287 . S
C1556 C1557 1.524 . S
C1556 H1575 0.913 . S
C1557 H1533 0.950 . S
C1557 C1556 1.524 . S
C1557 C1558 1.415 . S
C1558 H1534 0.950 . S
C1558 C1553 1.363 . S
C1558 C1557 1.415 . S
C1559 H1535 0.951 . S
C1559 C1560 1.366 . S
C1559 C1561 1.388 . S
C1560 C1559 1.366 . S
C1560 C1564 1.385 . S
C1561 H1536 0.951 . S
C1561 C1559 1.388 . S
C1561 C1562 1.366 . S
C1562 C1561 1.366 . S
C1562 C1563 1.414 . S
C1562 C1565 1.499 . S
C1563 H1537 0.950 . S
C1563 C1562 1.414 . S
C1563 C1564 1.374 . S
C1564 H1538 0.950 . S
C1564 C1560 1.385 . S
C1564 C1563 1.374 . S
C1565 C1562 1.499 . S
C1565 C1566 1.373 . S
C1565 C1567 1.389 . S
C1566 H1539 0.950 . S
C1566 C1552 1.377 . S
C1566 C1565 1.373 . S
C1567 C1551 1.377 . S
C1567 C1565 1.389 . S
C1567 C1568 1.524 . S
C1568 C1567 1.524 . S
C1568 C1569 1.397 . S
C1568 C1573 1.363 . S
C1569 H1540 0.950 . S
C1569 C1568 1.397 . S
C1569 C1570 1.334 . S
C1570 H1541 0.950 . S
C1570 C1569 1.334 . S
C1570 C1571 1.287 . S
C1571 C1570 1.287 . S
C1571 C1572 1.524 . S
C1571 H1574 0.999 . S
C1572 H1542 0.950 . S
C1572 C1571 1.524 . S
C1572 C1573 1.415 . S
C1573 H1543 0.950 . S
C1573 C1568 1.363 . S
C1573 C1572 1.415 . S
H1574 C1571 0.999 . S
H1575 C1556 0.913 . S
H1576 C1594 0.951 . S
H1577 C1596 0.951 . S
H1578 C1598 0.950 . S
H1579 C1599 0.950 . S
H1580 C1601 0.950 . S
H1581 C1604 0.950 . S
H1582 C1605 0.950 . S
H1583 C1607 0.950 . S
H1584 C1608 0.950 1_545 S
H1585 C1609 0.931 1_655 S
H1586 C1611 0.951 . S
H1587 C1613 0.950 . S
H1588 C1614 0.950 . S
H1589 C1616 0.950 . S
H1590 C1619 0.950 . S
H1591 C1620 0.950 . S
H1592 C1622 0.950 . S
H1593 C1623 0.950 . S
C1594 H1576 0.951 . S
C1594 C1595 1.366 . S
C1594 C1596 1.388 . S
C1595 C1594 1.366 . S
C1595 C1599 1.385 . S
C1596 H1577 0.951 . S
C1596 C1594 1.388 . S
C1596 C1597 1.366 . S
C1597 C1596 1.366 . S
C1597 C1598 1.414 . S
C1597 C1600 1.499 . S
C1598 H1578 0.950 . S
C1598 C1597 1.414 . S
C1598 C1599 1.374 . S
C1599 H1579 0.950 . S
C1599 C1595 1.385 . S
C1599 C1598 1.374 . S
C1600 C1597 1.499 . S
C1600 C1601 1.373 . S
C1600 C1602 1.389 . S
C1601 H1580 0.950 . S
C1601 C1600 1.373 . S
C1601 C1617 1.377 . S
C1602 C1600 1.389 . S
C1602 C1603 1.524 . S
C1602 C1616 1.377 . S
C1603 C1602 1.524 . S
C1603 C1604 1.397 . S
C1603 C1608 1.363 1_545 S
C1604 H1581 0.950 . S
C1604 C1603 1.397 . S
C1604 C1605 1.334 1_545 S
C1605 H1582 0.950 . S
C1605 C1604 1.334 1_565 S
C1605 C1606 1.287 . S
C1606 C1605 1.287 . S
C1606 C1607 1.524 . S
C1606 H1625 0.913 . S
C1607 H1583 0.950 . S
C1607 C1606 1.524 . S
C1607 C1608 1.415 . S
C1608 H1584 0.950 1_565 S
C1608 C1603 1.363 1_565 S
C1608 C1607 1.415 . S
C1609 H1585 0.931 1_455 S
C1609 C1610 1.366 . S
C1609 C1611 1.388 1_455 S
C1610 C1609 1.366 . S
C1610 C1614 1.385 . S
C1611 H1586 0.951 . S
C1611 C1609 1.388 1_655 S
C1611 C1612 1.338 1_655 S
C1612 C1611 1.338 1_455 S
C1612 C1613 1.471 . S
C1612 C1615 1.473 1_455 S
C1613 H1587 0.950 . S
C1613 C1612 1.471 . S
C1613 C1614 1.374 . S
C1614 H1588 0.950 . S
C1614 C1610 1.385 . S
C1614 C1613 1.374 . S
C1615 C1612 1.473 1_655 S
C1615 C1616 1.373 . S
C1615 C1617 1.389 . S
C1616 H1589 0.950 . S
C1616 C1602 1.377 . S
C1616 C1615 1.373 . S
C1617 C1601 1.377 . S
C1617 C1615 1.389 . S
C1617 C1618 1.524 . S
C1618 C1617 1.524 . S
C1618 C1619 1.397 1_655 S
C1618 C1623 1.363 . S
C1619 H1590 0.950 . S
C1619 C1618 1.397 1_455 S
C1619 C1620 1.334 . S
C1620 H1591 0.950 . S
C1620 C1619 1.334 . S
C1620 C1621 1.287 . S
C1621 C1620 1.287 . S
C1621 C1622 1.524 1_455 S
C1621 H1624 0.999 . S
C1622 H1592 0.950 . S
C1622 C1621 1.524 1_655 S
C1622 C1623 1.415 . S
C1623 H1593 0.950 . S
C1623 C1618 1.363 . S
C1623 C1622 1.415 . S
H1624 C1621 0.999 . S
H1625 C1606 0.913 . S
H1626 C1644 0.951 . S
H1627 C1646 0.951 . S
H1628 C1648 0.950 . S
H1629 C1649 0.950 . S
H1630 C1651 0.950 . S
H1631 C1654 0.950 . S
H1632 C1655 0.950 . S
H1633 C1657 0.950 . S
H1634 C1658 0.950 . S
H1635 C1659 0.951 . S
H1636 C1661 0.951 . S
H1637 C1663 0.950 . S
H1638 C1664 0.950 . S
H1639 C1666 0.950 . S
H1640 C1669 0.950 . S
H1641 C1670 0.950 . S
H1642 C1672 0.950 . S
H1643 C1673 0.950 . S
C1644 H1626 0.951 . S
C1644 C1645 1.366 . S
C1644 C1646 1.388 . S
C1645 C1644 1.366 . S
C1645 C1649 1.385 . S
C1646 H1627 0.951 . S
C1646 C1644 1.388 . S
C1646 C1647 1.366 . S
C1647 C1646 1.366 . S
C1647 C1648 1.414 . S
C1647 C1650 1.499 . S
C1648 H1628 0.950 . S
C1648 C1647 1.414 . S
C1648 C1649 1.374 . S
C1649 H1629 0.950 . S
C1649 C1645 1.385 . S
C1649 C1648 1.374 . S
C1650 C1647 1.499 . S
C1650 C1651 1.373 . S
C1650 C1652 1.389 . S
C1651 H1630 0.950 . S
C1651 C1650 1.373 . S
C1651 C1667 1.377 . S
C1652 C1650 1.389 . S
C1652 C1653 1.524 . S
C1652 C1666 1.377 . S
C1653 C1652 1.524 . S
C1653 C1654 1.397 . S
C1653 C1658 1.363 . S
C1654 H1631 0.950 . S
C1654 C1653 1.397 . S
C1654 C1655 1.334 . S
C1655 H1632 0.950 . S
C1655 C1654 1.334 . S
C1655 C1656 1.287 . S
C1656 C1655 1.287 . S
C1656 C1657 1.524 . S
C1656 H1675 0.913 . S
C1657 H1633 0.950 . S
C1657 C1656 1.524 . S
C1657 C1658 1.415 . S
C1658 H1634 0.950 . S
C1658 C1653 1.363 . S
C1658 C1657 1.415 . S
C1659 H1635 0.951 . S
C1659 C1660 1.366 . S
C1659 C1661 1.388 . S
C1660 C1659 1.366 . S
C1660 C1664 1.385 . S
C1661 H1636 0.951 . S
C1661 C1659 1.388 . S
C1661 C1662 1.366 . S
C1662 C1661 1.366 . S
C1662 C1663 1.414 . S
C1662 C1665 1.499 . S
C1663 H1637 0.950 . S
C1663 C1662 1.414 . S
C1663 C1664 1.374 . S
C1664 H1638 0.950 . S
C1664 C1660 1.385 . S
C1664 C1663 1.374 . S
C1665 C1662 1.499 . S
C1665 C1666 1.373 . S
C1665 C1667 1.389 . S
C1666 H1639 0.950 . S
C1666 C1652 1.377 . S
C1666 C1665 1.373 . S
C1667 C1651 1.377 . S
C1667 C1665 1.389 . S
C1667 C1668 1.524 . S
C1668 C1667 1.524 . S
C1668 C1669 1.397 . S
C1668 C1673 1.363 . S
C1669 H1640 0.950 . S
C1669 C1668 1.397 . S
C1669 C1670 1.334 . S
C1670 H1641 0.950 . S
C1670 C1669 1.334 . S
C1670 C1671 1.287 . S
C1671 C1670 1.287 . S
C1671 C1672 1.524 . S
C1671 H1674 0.999 . S
C1672 H1642 0.950 . S
C1672 C1671 1.524 . S
C1672 C1673 1.415 . S
C1673 H1643 0.950 . S
C1673 C1668 1.363 . S
C1673 C1672 1.415 . S
H1674 C1671 0.999 . S
H1675 C1656 0.913 . S
H1676 C1694 0.951 . S
H1677 C1696 0.951 . S
H1678 C1698 0.950 . S
H1679 C1699 0.950 . S
H1680 C1701 0.950 . S
H1681 C1704 0.950 . S
H1682 C1705 0.950 . S
H1683 C1707 0.950 . S
H1684 C1708 0.950 . S
H1685 C1709 0.951 . S
H1686 C1711 0.951 . S
H1687 C1713 0.950 . S
H1688 C1714 0.950 . S
H1689 C1716 0.950 . S
H1690 C1719 0.950 . S
H1691 C1720 0.950 . S
H1692 C1722 0.950 . S
H1693 C1723 0.950 . S
C1694 H1676 0.951 . S
C1694 C1695 1.366 . S
C1694 C1696 1.388 . S
C1695 C1694 1.366 . S
C1695 C1699 1.385 . S
C1696 H1677 0.951 . S
C1696 C1694 1.388 . S
C1696 C1697 1.366 . S
C1697 C1696 1.366 . S
C1697 C1698 1.414 . S
C1697 C1700 1.499 . S
C1698 H1678 0.950 . S
C1698 C1697 1.414 . S
C1698 C1699 1.374 . S
C1699 H1679 0.950 . S
C1699 C1695 1.385 . S
C1699 C1698 1.374 . S
C1700 C1697 1.499 . S
C1700 C1701 1.373 . S
C1700 C1702 1.389 . S
C1701 H1680 0.950 . S
C1701 C1700 1.373 . S
C1701 C1717 1.377 . S
C1702 C1700 1.389 . S
C1702 C1703 1.524 . S
C1702 C1716 1.377 . S
C1703 C1702 1.524 . S
C1703 C1704 1.397 . S
C1703 C1708 1.363 . S
C1704 H1681 0.950 . S
C1704 C1703 1.397 . S
C1704 C1705 1.334 1_545 S
C1705 H1682 0.950 . S
C1705 C1704 1.334 1_565 S
C1705 C1706 1.287 . S
C1706 C1705 1.287 . S
C1706 C1707 1.524 . S
C1706 H1725 0.913 . S
C1707 H1683 0.950 . S
C1707 C1706 1.524 . S
C1707 C1708 1.415 1_565 S
C1708 H1684 0.950 . S
C1708 C1703 1.363 . S
C1708 C1707 1.415 1_545 S
C1709 H1685 0.951 . S
C1709 C1710 1.366 . S
C1709 C1711 1.388 . S
C1710 C1709 1.366 . S
C1710 C1714 1.385 . S
C1711 H1686 0.951 . S
C1711 C1709 1.388 . S
C1711 C1712 1.366 . S
C1712 C1711 1.366 . S
C1712 C1713 1.414 . S
C1712 C1715 1.499 . S
C1713 H1687 0.950 . S
C1713 C1712 1.414 . S
C1713 C1714 1.374 . S
C1714 H1688 0.950 . S
C1714 C1710 1.385 . S
C1714 C1713 1.374 . S
C1715 C1712 1.499 . S
C1715 C1716 1.373 . S
C1715 C1717 1.389 . S
C1716 H1689 0.950 . S
C1716 C1702 1.377 . S
C1716 C1715 1.373 . S
C1717 C1701 1.377 . S
C1717 C1715 1.389 . S
C1717 C1718 1.524 . S
C1718 C1717 1.524 . S
C1718 C1719 1.397 . S
C1718 C1723 1.363 . S
C1719 H1690 0.950 . S
C1719 C1718 1.397 . S
C1719 C1720 1.334 . S
C1720 H1691 0.950 . S
C1720 C1719 1.334 . S
C1720 C1721 1.287 . S
C1721 C1720 1.287 . S
C1721 C1722 1.524 . S
C1721 H1724 0.999 . S
C1722 H1692 0.950 . S
C1722 C1721 1.524 . S
C1722 C1723 1.415 . S
C1723 H1693 0.950 . S
C1723 C1718 1.363 . S
C1723 C1722 1.415 . S
H1724 C1721 0.999 . S
H1725 C1706 0.913 . S
H1726 C1744 0.951 . S
H1727 C1746 0.951 . S
H1728 C1748 0.950 . S
H1729 C1749 0.950 . S
H1730 C1751 0.950 . S
H1731 C1754 0.950 . S
H1732 C1755 0.950 . S
H1733 C1757 0.950 . S
H1734 C1758 0.950 . S
H1735 C1759 0.951 . S
H1736 C1761 0.951 . S
H1737 C1763 0.950 . S
H1738 C1764 0.950 . S
H1739 C1766 0.950 . S
H1740 C1769 0.950 . S
H1741 C1770 0.950 . S
H1742 C1772 0.950 . S
H1743 C1773 0.950 . S
C1744 H1726 0.951 . S
C1744 C1745 1.366 . S
C1744 C1746 1.388 . S
C1745 C1744 1.366 . S
C1745 C1749 1.385 . S
C1746 H1727 0.951 . S
C1746 C1744 1.388 . S
C1746 C1747 1.366 . S
C1747 C1746 1.366 . S
C1747 C1748 1.414 . S
C1747 C1750 1.499 . S
C1748 H1728 0.950 . S
C1748 C1747 1.414 . S
C1748 C1749 1.374 . S
C1749 H1729 0.950 . S
C1749 C1745 1.385 . S
C1749 C1748 1.374 . S
C1750 C1747 1.499 . S
C1750 C1751 1.373 . S
C1750 C1752 1.389 . S
C1751 H1730 0.950 . S
C1751 C1750 1.373 . S
C1751 C1767 1.377 . S
C1752 C1750 1.389 . S
C1752 C1753 1.524 . S
C1752 C1766 1.377 . S
C1753 C1752 1.524 . S
C1753 C1754 1.397 . S
C1753 C1758 1.363 . S
C1754 H1731 0.950 . S
C1754 C1753 1.397 . S
C1754 C1755 1.334 . S
C1755 H1732 0.950 . S
C1755 C1754 1.334 . S
C1755 C1756 1.287 . S
C1756 C1755 1.287 . S
C1756 C1757 1.524 . S
C1756 H1775 0.913 . S
C1757 H1733 0.950 . S
C1757 C1756 1.524 . S
C1757 C1758 1.415 . S
C1758 H1734 0.950 . S
C1758 C1753 1.363 . S
C1758 C1757 1.415 . S
C1759 H1735 0.951 . S
C1759 C1760 1.366 . S
C1759 C1761 1.388 . S
C1760 C1759 1.366 . S
C1760 C1764 1.385 . S
C1761 H1736 0.951 . S
C1761 C1759 1.388 . S
C1761 C1762 1.366 . S
C1762 C1761 1.366 . S
C1762 C1763 1.414 . S
C1762 C1765 1.499 . S
C1763 H1737 0.950 . S
C1763 C1762 1.414 . S
C1763 C1764 1.374 . S
C1764 H1738 0.950 . S
C1764 C1760 1.385 . S
C1764 C1763 1.374 . S
C1765 C1762 1.499 . S
C1765 C1766 1.373 . S
C1765 C1767 1.389 . S
C1766 H1739 0.950 . S
C1766 C1752 1.377 . S
C1766 C1765 1.373 . S
C1767 C1751 1.377 . S
C1767 C1765 1.389 . S
C1767 C1768 1.524 . S
C1768 C1767 1.524 . S
C1768 C1769 1.397 . S
C1768 C1773 1.363 . S
C1769 H1740 0.950 . S
C1769 C1768 1.397 . S
C1769 C1770 1.334 . S
C1770 H1741 0.950 . S
C1770 C1769 1.334 . S
C1770 C1771 1.287 . S
C1771 C1770 1.287 . S
C1771 C1772 1.524 . S
C1771 H1774 0.999 . S
C1772 H1742 0.950 . S
C1772 C1771 1.524 . S
C1772 C1773 1.415 . S
C1773 H1743 0.950 . S
C1773 C1768 1.363 . S
C1773 C1772 1.415 . S
H1774 C1771 0.999 . S
H1775 C1756 0.913 . S
H1776 C1794 0.951 . S
H1777 C1796 0.951 . S
H1778 C1798 0.950 . S
H1779 C1799 0.950 . S
H1780 C1801 0.950 . S
H1781 C1804 0.950 . S
H1782 C1805 0.950 . S
H1783 C1807 0.950 . S
H1784 C1808 0.950 . S
H1785 C1809 0.951 . S
H1786 C1811 0.951 . S
H1787 C1813 0.950 . S
H1788 C1814 0.950 . S
H1789 C1816 0.952 1_556 S
H1790 C1819 0.950 1_565 S
H1791 C1820 0.950 . S
H1792 C1822 0.950 . S
H1793 C1823 0.950 . S
C1794 H1776 0.951 . S
C1794 C1795 1.366 . S
C1794 C1796 1.388 . S
C1795 C1794 1.366 . S
C1795 C1799 1.385 . S
C1796 H1777 0.951 . S
C1796 C1794 1.388 . S
C1796 C1797 1.366 . S
C1797 C1796 1.366 . S
C1797 C1798 1.414 . S
C1797 C1800 1.499 . S
C1798 H1778 0.950 . S
C1798 C1797 1.414 . S
C1798 C1799 1.374 . S
C1799 H1779 0.950 . S
C1799 C1795 1.385 . S
C1799 C1798 1.374 . S
C1800 C1797 1.499 . S
C1800 C1801 1.373 . S
C1800 C1802 1.389 . S
C1801 H1780 0.950 . S
C1801 C1800 1.373 . S
C1801 C1817 1.377 . S
C1802 C1800 1.389 . S
C1802 C1803 1.524 1_554 S
C1802 C1816 1.377 . S
C1803 C1802 1.524 1_556 S
C1803 C1804 1.397 . S
C1803 C1808 1.363 . S
C1804 H1781 0.950 . S
C1804 C1803 1.397 . S
C1804 C1805 1.334 . S
C1805 H1782 0.950 . S
C1805 C1804 1.334 . S
C1805 C1806 1.287 . S
C1806 C1805 1.287 . S
C1806 C1807 1.524 . S
C1806 H1825 0.913 . S
C1807 H1783 0.950 . S
C1807 C1806 1.524 . S
C1807 C1808 1.415 . S
C1808 H1784 0.950 . S
C1808 C1803 1.363 . S
C1808 C1807 1.415 . S
C1809 H1785 0.951 . S
C1809 C1810 1.366 . S
C1809 C1811 1.388 . S
C1810 C1809 1.366 . S
C1810 C1814 1.385 1_545 S
C1811 H1786 0.951 . S
C1811 C1809 1.388 . S
C1811 C1812 1.366 1_545 S
C1812 C1811 1.366 1_565 S
C1812 C1813 1.414 . S
C1812 C1815 1.499 . S
C1813 H1787 0.950 . S
C1813 C1812 1.414 . S
C1813 C1814 1.374 . S
C1814 H1788 0.950 . S
C1814 C1810 1.385 1_565 S
C1814 C1813 1.374 . S
C1815 C1812 1.499 . S
C1815 C1816 1.373 . S
C1815 C1817 1.389 . S
C1816 H1789 0.952 1_554 S
C1816 C1802 1.377 . S
C1816 C1815 1.373 . S
C1817 C1801 1.377 . S
C1817 C1815 1.389 . S
C1817 C1818 1.524 1_565 S
C1818 C1817 1.524 1_545 S
C1818 C1819 1.397 . S
C1818 C1823 1.363 . S
C1819 H1790 0.950 1_545 S
C1819 C1818 1.397 . S
C1819 C1820 1.334 . S
C1820 H1791 0.950 . S
C1820 C1819 1.334 . S
C1820 C1821 1.287 . S
C1821 C1820 1.287 . S
C1821 C1822 1.524 . S
C1821 H1824 0.999 . S
C1822 H1792 0.950 . S
C1822 C1821 1.524 . S
C1822 C1823 1.415 . S
C1823 H1793 0.950 . S
C1823 C1818 1.363 . S
C1823 C1822 1.415 . S
H1824 C1821 0.999 . S
H1825 C1806 0.913 . S
H1826 C1844 0.951 . S
H1827 C1846 0.951 . S
H1828 C1848 0.950 . S
H1829 C1849 0.950 . S
H1830 C1851 0.950 . S
H1831 C1854 0.950 . S
H1832 C1855 0.950 . S
H1833 C1857 0.950 . S
H1834 C1858 0.950 . S
H1835 C1859 0.951 . S
H1836 C1861 0.951 . S
H1837 C1863 0.950 . S
H1838 C1864 0.950 . S
H1839 C1866 0.950 . S
H1840 C1869 0.950 . S
H1841 C1870 0.950 . S
H1842 C1872 0.950 . S
H1843 C1873 0.950 . S
C1844 H1826 0.951 . S
C1844 C1845 1.366 . S
C1844 C1846 1.388 . S
C1845 C1844 1.366 . S
C1845 C1849 1.385 1_554 S
C1846 H1827 0.951 . S
C1846 C1844 1.388 . S
C1846 C1847 1.366 . S
C1847 C1846 1.366 . S
C1847 C1848 1.414 1_554 S
C1847 C1850 1.499 . S
C1848 H1828 0.950 . S
C1848 C1847 1.414 1_556 S
C1848 C1849 1.374 . S
C1849 H1829 0.950 . S
C1849 C1845 1.385 1_556 S
C1849 C1848 1.374 . S
C1850 C1847 1.499 . S
C1850 C1851 1.373 1_554 S
C1850 C1852 1.389 . S
C1851 H1830 0.950 . S
C1851 C1850 1.373 1_556 S
C1851 C1867 1.391 . S
C1852 C1850 1.389 . S
C1852 C1853 1.524 . S
C1852 C1866 1.377 . S
C1853 C1852 1.524 . S
C1853 C1854 1.397 1_554 S
C1853 C1858 1.363 . S
C1854 H1831 0.950 . S
C1854 C1853 1.397 1_556 S
C1854 C1855 1.334 . S
C1855 H1832 0.950 . S
C1855 C1854 1.334 . S
C1855 C1856 1.287 1_556 S
C1856 C1855 1.287 1_554 S
C1856 C1857 1.524 . S
C1856 H1875 0.913 . S
C1857 H1833 0.950 . S
C1857 C1856 1.524 . S
C1857 C1858 1.415 . S
C1858 H1834 0.950 . S
C1858 C1853 1.363 . S
C1858 C1857 1.415 . S
C1859 H1835 0.951 . S
C1859 C1860 1.366 1_556 S
C1859 C1861 1.388 . S
C1860 C1859 1.366 1_554 S
C1860 C1864 1.385 . S
C1861 H1836 0.951 . S
C1861 C1859 1.388 . S
C1861 C1862 1.366 1_556 S
C1862 C1861 1.366 1_554 S
C1862 C1863 1.414 . S
C1862 C1865 1.499 . S
C1863 H1837 0.950 . S
C1863 C1862 1.414 . S
C1863 C1864 1.374 . S
C1864 H1838 0.950 . S
C1864 C1860 1.385 . S
C1864 C1863 1.374 . S
C1865 C1862 1.499 . S
C1865 C1866 1.373 . S
C1865 C1867 1.367 1_554 S
C1866 H1839 0.950 . S
C1866 C1852 1.377 . S
C1866 C1865 1.373 . S
C1867 C1851 1.391 . S
C1867 C1865 1.367 1_556 S
C1867 C1868 1.534 . S
C1868 C1867 1.534 . S
C1868 C1869 1.397 1_556 S
C1868 C1873 1.363 . S
C1869 H1840 0.950 . S
C1869 C1868 1.397 1_554 S
C1869 C1870 1.334 . S
C1870 H1841 0.950 . S
C1870 C1869 1.334 . S
C1870 C1871 1.287 1_554 S
C1871 C1870 1.287 1_556 S
C1871 C1872 1.524 . S
C1871 H1874 0.999 . S
C1872 H1842 0.950 . S
C1872 C1871 1.524 . S
C1872 C1873 1.415 . S
C1873 H1843 0.950 . S
C1873 C1868 1.363 . S
C1873 C1872 1.415 . S
H1874 C1871 0.999 . S
H1875 C1856 0.913 . S
H1876 C1894 0.951 . S
H1877 C1896 0.951 . S
H1878 C1898 0.950 . S
H1879 C1899 0.950 . S
H1880 C1901 0.950 . S
H1881 C1904 0.950 . S
H1882 C1905 0.950 . S
H1883 C1907 0.950 . S
H1884 C1908 0.950 . S
H1885 C1909 0.951 . S
H1886 C1911 0.951 . S
H1887 C1913 0.950 . S
H1888 C1914 0.950 . S
H1889 C1916 0.950 . S
H1890 C1919 0.950 . S
H1891 C1920 0.950 . S
H1892 C1922 0.950 . S
H1893 C1923 0.950 . S
C1894 H1876 0.951 . S
C1894 C1895 1.366 . S
C1894 C1896 1.388 . S
C1895 C1894 1.366 . S
C1895 C1899 1.385 . S
C1896 H1877 0.951 . S
C1896 C1894 1.388 . S
C1896 C1897 1.366 . S
C1897 C1896 1.366 . S
C1897 C1898 1.414 . S
C1897 C1900 1.499 . S
C1898 H1878 0.950 . S
C1898 C1897 1.414 . S
C1898 C1899 1.374 . S
C1899 H1879 0.950 . S
C1899 C1895 1.385 . S
C1899 C1898 1.374 . S
C1900 C1897 1.499 . S
C1900 C1901 1.373 . S
C1900 C1902 1.389 . S
C1901 H1880 0.950 . S
C1901 C1900 1.373 . S
C1901 C1917 1.377 . S
C1902 C1900 1.389 . S
C1902 C1903 1.524 . S
C1902 C1916 1.377 . S
C1903 C1902 1.524 . S
C1903 C1904 1.397 . S
C1903 C1908 1.363 . S
C1904 H1881 0.950 . S
C1904 C1903 1.397 . S
C1904 C1905 1.334 . S
C1905 H1882 0.950 . S
C1905 C1904 1.334 . S
C1905 C1906 1.287 . S
C1906 C1905 1.287 . S
C1906 C1907 1.524 . S
C1906 H1925 0.913 . S
C1907 H1883 0.950 . S
C1907 C1906 1.524 . S
C1907 C1908 1.415 . S
C1908 H1884 0.950 . S
C1908 C1903 1.363 . S
C1908 C1907 1.415 . S
C1909 H1885 0.951 . S
C1909 C1910 1.366 . S
C1909 C1911 1.388 . S
C1910 C1909 1.366 . S
C1910 C1914 1.385 . S
C1911 H1886 0.951 . S
C1911 C1909 1.388 . S
C1911 C1912 1.366 . S
C1912 C1911 1.366 . S
C1912 C1913 1.414 . S
C1912 C1915 1.499 . S
C1913 H1887 0.950 . S
C1913 C1912 1.414 . S
C1913 C1914 1.374 . S
C1914 H1888 0.950 . S
C1914 C1910 1.385 . S
C1914 C1913 1.374 . S
C1915 C1912 1.499 . S
C1915 C1916 1.373 . S
C1915 C1917 1.389 . S
C1916 H1889 0.950 . S
C1916 C1902 1.377 . S
C1916 C1915 1.373 . S
C1917 C1901 1.377 . S
C1917 C1915 1.389 . S
C1917 C1918 1.524 . S
C1918 C1917 1.524 . S
C1918 C1919 1.397 . S
C1918 C1923 1.363 . S
C1919 H1890 0.950 . S
C1919 C1918 1.397 . S
C1919 C1920 1.334 . S
C1920 H1891 0.950 . S
C1920 C1919 1.334 . S
C1920 C1921 1.287 . S
C1921 C1920 1.287 . S
C1921 C1922 1.524 . S
C1921 H1924 0.999 . S
C1922 H1892 0.950 . S
C1922 C1921 1.524 . S
C1922 C1923 1.415 . S
C1923 H1893 0.950 . S
C1923 C1918 1.363 . S
C1923 C1922 1.415 . S
H1924 C1921 0.999 . S
H1925 C1906 0.913 . S
H1926 C1944 0.951 . S
H1927 C1946 0.951 . S
H1928 C1948 0.950 . S
H1929 C1949 0.950 . S
H1930 C1951 0.950 . S
H1931 C1954 0.950 . S
H1932 C1955 0.950 . S
H1933 C1957 0.950 . S
H1934 C1958 0.950 . S
H1935 C1959 0.951 . S
H1936 C1961 0.951 . S
H1937 C1963 0.950 . S
H1938 C1964 0.950 . S
H1939 C1966 0.950 . S
H1940 C1969 0.950 . S
H1941 C1970 0.950 . S
H1942 C1972 0.950 . S
H1943 C1973 0.950 . S
C1944 H1926 0.951 . S
C1944 C1945 1.366 . S
C1944 C1946 1.388 . S
C1945 C1944 1.366 . S
C1945 C1949 1.385 . S
C1946 H1927 0.951 . S
C1946 C1944 1.388 . S
C1946 C1947 1.366 . S
C1947 C1946 1.366 . S
C1947 C1948 1.414 . S
C1947 C1950 1.499 . S
C1948 H1928 0.950 . S
C1948 C1947 1.414 . S
C1948 C1949 1.374 . S
C1949 H1929 0.950 . S
C1949 C1945 1.385 . S
C1949 C1948 1.374 . S
C1950 C1947 1.499 . S
C1950 C1951 1.373 . S
C1950 C1952 1.389 . S
C1951 H1930 0.950 . S
C1951 C1950 1.373 . S
C1951 C1967 1.377 . S
C1952 C1950 1.389 . S
C1952 C1953 1.524 . S
C1952 C1966 1.377 . S
C1953 C1952 1.524 . S
C1953 C1954 1.397 . S
C1953 C1958 1.363 . S
C1954 H1931 0.950 . S
C1954 C1953 1.397 . S
C1954 C1955 1.334 . S
C1955 H1932 0.950 . S
C1955 C1954 1.334 . S
C1955 C1956 1.287 . S
C1956 C1955 1.287 . S
C1956 C1957 1.524 . S
C1956 H1975 0.913 . S
C1957 H1933 0.950 . S
C1957 C1956 1.524 . S
C1957 C1958 1.415 . S
C1958 H1934 0.950 . S
C1958 C1953 1.363 . S
C1958 C1957 1.415 . S
C1959 H1935 0.951 . S
C1959 C1960 1.366 . S
C1959 C1961 1.388 . S
C1960 C1959 1.366 . S
C1960 C1964 1.385 . S
C1961 H1936 0.951 . S
C1961 C1959 1.388 . S
C1961 C1962 1.366 . S
C1962 C1961 1.366 . S
C1962 C1963 1.414 . S
C1962 C1965 1.499 . S
C1963 H1937 0.950 . S
C1963 C1962 1.414 . S
C1963 C1964 1.374 . S
C1964 H1938 0.950 . S
C1964 C1960 1.385 . S
C1964 C1963 1.374 . S
C1965 C1962 1.499 . S
C1965 C1966 1.373 . S
C1965 C1967 1.389 . S
C1966 H1939 0.950 . S
C1966 C1952 1.377 . S
C1966 C1965 1.373 . S
C1967 C1951 1.377 . S
C1967 C1965 1.389 . S
C1967 C1968 1.524 . S
C1968 C1967 1.524 . S
C1968 C1969 1.397 . S
C1968 C1973 1.363 . S
C1969 H1940 0.950 . S
C1969 C1968 1.397 . S
C1969 C1970 1.334 . S
C1970 H1941 0.950 . S
C1970 C1969 1.334 . S
C1970 C1971 1.287 . S
C1971 C1970 1.287 . S
C1971 C1972 1.524 . S
C1971 H1974 0.999 . S
C1972 H1942 0.950 . S
C1972 C1971 1.524 . S
C1972 C1973 1.415 . S
C1973 H1943 0.950 . S
C1973 C1968 1.363 . S
C1973 C1972 1.415 . S
H1974 C1971 0.999 . S
H1975 C1956 0.913 . S
H1976 C1994 0.951 . S
H1977 C1996 0.951 . S
H1978 C1998 0.950 . S
H1979 C1999 0.950 . S
H1980 C2001 0.950 . S
H1981 C2004 0.950 . S
H1982 C2005 0.950 . S
H1983 C2007 0.950 . S
H1984 C2008 0.950 . S
H1985 C2009 0.951 . S
H1986 C2011 0.951 . S
H1987 C2013 0.950 . S
H1988 C2014 0.950 . S
H1989 C2016 0.950 . S
H1990 C2019 0.950 . S
H1991 C2020 0.950 . S
H1992 C2022 0.950 . S
H1993 C2023 0.950 . S
C1994 H1976 0.951 . S
C1994 C1995 1.366 . S
C1994 C1996 1.388 . S
C1995 C1994 1.366 . S
C1995 C1999 1.385 . S
C1996 H1977 0.951 . S
C1996 C1994 1.388 . S
C1996 C1997 1.366 . S
C1997 C1996 1.366 . S
C1997 C1998 1.414 . S
C1997 C2000 1.499 . S
C1998 H1978 0.950 . S
C1998 C1997 1.414 . S
C1998 C1999 1.374 . S
C1999 H1979 0.950 . S
C1999 C1995 1.385 . S
C1999 C1998 1.374 . S
C2000 C1997 1.499 . S
C2000 C2001 1.373 . S
C2000 C2002 1.389 . S
C2001 H1980 0.950 . S
C2001 C2000 1.373 . S
C2001 C2017 1.377 . S
C2002 C2000 1.389 . S
C2002 C2003 1.524 . S
C2002 C2016 1.377 . S
C2003 C2002 1.524 . S
C2003 C2004 1.397 . S
C2003 C2008 1.363 . S
C2004 H1981 0.950 . S
C2004 C2003 1.397 . S
C2004 C2005 1.334 . S
C2005 H1982 0.950 . S
C2005 C2004 1.334 . S
C2005 C2006 1.287 . S
C2006 C2005 1.287 . S
C2006 C2007 1.524 . S
C2006 H2025 0.913 . S
C2007 H1983 0.950 . S
C2007 C2006 1.524 . S
C2007 C2008 1.415 . S
C2008 H1984 0.950 . S
C2008 C2003 1.363 . S
C2008 C2007 1.415 . S
C2009 H1985 0.951 . S
C2009 C2010 1.366 . S
C2009 C2011 1.388 . S
C2010 C2009 1.366 . S
C2010 C2014 1.385 . S
C2011 H1986 0.951 . S
C2011 C2009 1.388 . S
C2011 C2012 1.366 . S
C2012 C2011 1.366 . S
C2012 C2013 1.414 . S
C2012 C2015 1.499 . S
C2013 H1987 0.950 . S
C2013 C2012 1.414 . S
C2013 C2014 1.374 . S
C2014 H1988 0.950 . S
C2014 C2010 1.385 . S
C2014 C2013 1.374 . S
C2015 C2012 1.499 . S
C2015 C2016 1.373 . S
C2015 C2017 1.389 . S
C2016 H1989 0.950 . S
C2016 C2002 1.377 . S
C2016 C2015 1.373 . S
C2017 C2001 1.377 . S
C2017 C2015 1.389 . S
C2017 C2018 1.524 . S
C2018 C2017 1.524 . S
C2018 C2019 1.397 . S
C2018 C2023 1.363 . S
C2019 H1990 0.950 . S
C2019 C2018 1.397 . S
C2019 C2020 1.334 . S
C2020 H1991 0.950 . S
C2020 C2019 1.334 . S
C2020 C2021 1.287 . S
C2021 C2020 1.287 . S
C2021 C2022 1.524 . S
C2021 H2024 0.999 . S
C2022 H1992 0.950 . S
C2022 C2021 1.524 . S
C2022 C2023 1.415 . S
C2023 H1993 0.950 . S
C2023 C2018 1.363 . S
C2023 C2022 1.415 . S
H2024 C2021 0.999 . S
H2025 C2006 0.913 . S
H2026 C2044 0.951 . S
H2027 C2046 0.951 . S
H2028 C2048 0.950 . S
H2029 C2049 0.950 . S
H2030 C2051 0.950 . S
H2031 C2054 0.950 . S
H2032 C2055 0.950 . S
H2033 C2057 0.950 . S
H2034 C2058 0.950 . S
H2035 C2059 0.951 . S
H2036 C2061 0.951 . S
H2037 C2063 0.950 . S
H2038 C2064 0.950 . S
H2039 C2066 0.950 . S
H2040 C2069 0.950 . S
H2041 C2070 0.950 . S
H2042 C2072 0.950 . S
H2043 C2073 0.950 . S
C2044 H2026 0.951 . S
C2044 C2045 1.366 . S
C2044 C2046 1.388 . S
C2045 C2044 1.366 . S
C2045 C2049 1.385 . S
C2046 H2027 0.951 . S
C2046 C2044 1.388 . S
C2046 C2047 1.366 . S
C2047 C2046 1.366 . S
C2047 C2048 1.414 . S
C2047 C2050 1.499 . S
C2048 H2028 0.950 . S
C2048 C2047 1.414 . S
C2048 C2049 1.374 . S
C2049 H2029 0.950 . S
C2049 C2045 1.385 . S
C2049 C2048 1.374 . S
C2050 C2047 1.499 . S
C2050 C2051 1.373 . S
C2050 C2052 1.389 . S
C2051 H2030 0.950 . S
C2051 C2050 1.373 . S
C2051 C2067 1.377 . S
C2052 C2050 1.389 . S
C2052 C2053 1.524 . S
C2052 C2066 1.377 . S
C2053 C2052 1.524 . S
C2053 C2054 1.397 . S
C2053 C2058 1.363 . S
C2054 H2031 0.950 . S
C2054 C2053 1.397 . S
C2054 C2055 1.334 . S
C2055 H2032 0.950 . S
C2055 C2054 1.334 . S
C2055 C2056 1.287 . S
C2056 C2055 1.287 . S
C2056 C2057 1.524 . S
C2056 H2075 0.913 . S
C2057 H2033 0.950 . S
C2057 C2056 1.524 . S
C2057 C2058 1.415 . S
C2058 H2034 0.950 . S
C2058 C2053 1.363 . S
C2058 C2057 1.415 . S
C2059 H2035 0.951 . S
C2059 C2060 1.366 . S
C2059 C2061 1.388 . S
C2060 C2059 1.366 . S
C2060 C2064 1.385 . S
C2061 H2036 0.951 . S
C2061 C2059 1.388 . S
C2061 C2062 1.366 . S
C2062 C2061 1.366 . S
C2062 C2063 1.414 . S
C2062 C2065 1.499 . S
C2063 H2037 0.950 . S
C2063 C2062 1.414 . S
C2063 C2064 1.374 . S
C2064 H2038 0.950 . S
C2064 C2060 1.385 . S
C2064 C2063 1.374 . S
C2065 C2062 1.499 . S
C2065 C2066 1.373 . S
C2065 C2067 1.389 . S
C2066 H2039 0.950 . S
C2066 C2052 1.377 . S
C2066 C2065 1.373 . S
C2067 C2051 1.377 . S
C2067 C2065 1.389 . S
C2067 C2068 1.524 . S
C2068 C2067 1.524 . S
C2068 C2069 1.397 . S
C2068 C2073 1.363 . S
C2069 H2040 0.950 . S
C2069 C2068 1.397 . S
C2069 C2070 1.334 . S
C2070 H2041 0.950 . S
C2070 C2069 1.334 . S
C2070 C2071 1.287 . S
C2071 C2070 1.287 . S
C2071 C2072 1.524 . S
C2071 H2074 0.999 . S
C2072 H2042 0.950 . S
C2072 C2071 1.524 . S
C2072 C2073 1.415 . S
C2073 H2043 0.950 . S
C2073 C2068 1.363 . S
C2073 C2072 1.415 . S
H2074 C2071 0.999 . S
H2075 C2056 0.913 . S
H2076 C2094 0.951 . S
H2077 C2096 0.951 . S
H2078 C2098 0.950 . S
H2079 C2099 0.950 . S
H2080 C2101 0.950 . S
H2081 C2104 0.950 . S
H2082 C2105 0.950 . S
H2083 C2107 0.950 . S
H2084 C2108 0.950 . S
H2085 C2109 0.951 . S
H2086 C2111 0.951 . S
H2087 C2113 0.950 . S
H2088 C2114 0.950 . S
H2089 C2116 0.950 . S
H2090 C2119 0.950 . S
H2091 C2120 0.950 . S
H2092 C2122 0.950 . S
H2093 C2123 0.950 . S
C2094 H2076 0.951 . S
C2094 C2095 1.366 . S
C2094 C2096 1.388 . S
C2095 C2094 1.366 . S
C2095 C2099 1.385 . S
C2096 H2077 0.951 . S
C2096 C2094 1.388 . S
C2096 C2097 1.366 . S
C2097 C2096 1.366 . S
C2097 C2098 1.414 . S
C2097 C2100 1.499 . S
C2098 H2078 0.950 . S
C2098 C2097 1.414 . S
C2098 C2099 1.374 . S
C2099 H2079 0.950 . S
C2099 C2095 1.385 . S
C2099 C2098 1.374 . S
C2100 C2097 1.499 . S
C2100 C2101 1.373 . S
C2100 C2102 1.389 . S
C2101 H2080 0.950 . S
C2101 C2100 1.373 . S
C2101 C2117 1.377 . S
C2102 C2100 1.389 . S
C2102 C2103 1.524 . S
C2102 C2116 1.377 . S
C2103 C2102 1.524 . S
C2103 C2104 1.397 . S
C2103 C2108 1.363 . S
C2104 H2081 0.950 . S
C2104 C2103 1.397 . S
C2104 C2105 1.334 . S
C2105 H2082 0.950 . S
C2105 C2104 1.334 . S
C2105 C2106 1.287 . S
C2106 C2105 1.287 . S
C2106 C2107 1.524 . S
C2106 H2125 0.913 . S
C2107 H2083 0.950 . S
C2107 C2106 1.524 . S
C2107 C2108 1.415 . S
C2108 H2084 0.950 . S
C2108 C2103 1.363 . S
C2108 C2107 1.415 . S
C2109 H2085 0.951 . S
C2109 C2110 1.366 . S
C2109 C2111 1.388 . S
C2110 C2109 1.366 . S
C2110 C2114 1.385 . S
C2111 H2086 0.951 . S
C2111 C2109 1.388 . S
C2111 C2112 1.366 . S
C2112 C2111 1.366 . S
C2112 C2113 1.414 . S
C2112 C2115 1.499 . S
C2113 H2087 0.950 . S
C2113 C2112 1.414 . S
C2113 C2114 1.374 . S
C2114 H2088 0.950 . S
C2114 C2110 1.385 . S
C2114 C2113 1.374 . S
C2115 C2112 1.499 . S
C2115 C2116 1.373 . S
C2115 C2117 1.389 . S
C2116 H2089 0.950 . S
C2116 C2102 1.377 . S
C2116 C2115 1.373 . S
C2117 C2101 1.377 . S
C2117 C2115 1.389 . S
C2117 C2118 1.524 . S
C2118 C2117 1.524 . S
C2118 C2119 1.397 . S
C2118 C2123 1.363 . S
C2119 H2090 0.950 . S
C2119 C2118 1.397 . S
C2119 C2120 1.334 . S
C2120 H2091 0.950 . S
C2120 C2119 1.334 . S
C2120 C2121 1.287 . S
C2121 C2120 1.287 . S
C2121 C2122 1.524 . S
C2121 H2124 0.999 . S
C2122 H2092 0.950 . S
C2122 C2121 1.524 . S
C2122 C2123 1.415 . S
C2123 H2093 0.950 . S
C2123 C2118 1.363 . S
C2123 C2122 1.415 . S
H2124 C2121 0.999 . S
H2125 C2106 0.913 . S
H2126 C2144 0.951 . S
H2127 C2146 0.951 . S
H2128 C2148 0.950 . S
H2129 C2149 0.950 . S
H2130 C2151 0.950 . S
H2131 C2154 0.950 . S
H2132 C2155 0.950 . S
H2133 C2157 0.950 . S
H2134 C2158 0.950 . S
H2135 C2159 0.951 . S
H2136 C2161 0.951 . S
H2137 C2163 0.950 . S
H2138 C2164 0.950 . S
H2139 C2166 0.950 . S
H2140 C2169 0.950 . S
H2141 C2170 0.950 . S
H2142 C2172 0.950 . S
H2143 C2173 0.950 . S
C2144 H2126 0.951 . S
C2144 C2145 1.366 . S
C2144 C2146 1.388 . S
C2145 C2144 1.366 . S
C2145 C2149 1.385 . S
C2146 H2127 0.951 . S
C2146 C2144 1.388 . S
C2146 C2147 1.366 . S
C2147 C2146 1.366 . S
C2147 C2148 1.414 . S
C2147 C2150 1.499 . S
C2148 H2128 0.950 . S
C2148 C2147 1.414 . S
C2148 C2149 1.374 . S
C2149 H2129 0.950 . S
C2149 C2145 1.385 . S
C2149 C2148 1.374 . S
C2150 C2147 1.499 . S
C2150 C2151 1.373 . S
C2150 C2152 1.389 . S
C2151 H2130 0.950 . S
C2151 C2150 1.373 . S
C2151 C2167 1.377 . S
C2152 C2150 1.389 . S
C2152 C2153 1.524 . S
C2152 C2166 1.377 . S
C2153 C2152 1.524 . S
C2153 C2154 1.397 . S
C2153 C2158 1.363 . S
C2154 H2131 0.950 . S
C2154 C2153 1.397 . S
C2154 C2155 1.334 . S
C2155 H2132 0.950 . S
C2155 C2154 1.334 . S
C2155 C2156 1.287 . S
C2156 C2155 1.287 . S
C2156 C2157 1.524 . S
C2156 H2175 0.913 . S
C2157 H2133 0.950 . S
C2157 C2156 1.524 . S
C2157 C2158 1.415 . S
C2158 H2134 0.950 . S
C2158 C2153 1.363 . S
C2158 C2157 1.415 . S
C2159 H2135 0.951 . S
C2159 C2160 1.366 . S
C2159 C2161 1.388 . S
C2160 C2159 1.366 . S
C2160 C2164 1.385 . S
C2161 H2136 0.951 . S
C2161 C2159 1.388 . S
C2161 C2162 1.366 . S
C2162 C2161 1.366 . S
C2162 C2163 1.414 . S
C2162 C2165 1.499 . S
C2163 H2137 0.950 . S
C2163 C2162 1.414 . S
C2163 C2164 1.374 . S
C2164 H2138 0.950 . S
C2164 C2160 1.385 . S
C2164 C2163 1.374 . S
C2165 C2162 1.499 . S
C2165 C2166 1.373 . S
C2165 C2167 1.389 . S
C2166 H2139 0.950 . S
C2166 C2152 1.377 . S
C2166 C2165 1.373 . S
C2167 C2151 1.377 . S
C2167 C2165 1.389 . S
C2167 C2168 1.524 . S
C2168 C2167 1.524 . S
C2168 C2169 1.397 . S
C2168 C2173 1.363 . S
C2169 H2140 0.950 . S
C2169 C2168 1.397 . S
C2169 C2170 1.334 . S
C2170 H2141 0.950 . S
C2170 C2169 1.334 . S
C2170 C2171 1.287 . S
C2171 C2170 1.287 . S
C2171 C2172 1.524 . S
C2171 H2174 0.999 . S
C2172 H2142 0.950 . S
C2172 C2171 1.524 . S
C2172 C2173 1.415 . S
C2173 H2143 0.950 . S
C2173 C2168 1.363 . S
C2173 C2172 1.415 . S
H2174 C2171 0.999 . S
H2175 C2156 0.913 . S
H2176 C2194 0.951 . S
H2177 C2196 0.951 . S
H2178 C2198 0.950 . S
H2179 C2199 0.950 . S
H2180 C2201 0.950 . S
H2181 C2204 0.950 . S
H2182 C2205 0.950 . S
H2183 C2207 0.950 . S
H2184 C2208 0.950 . S
H2185 C2209 0.951 . S
H2186 C2211 0.951 . S
H2187 C2213 0.950 . S
H2188 C2214 0.950 . S
H2189 C2216 0.950 . S
H2190 C2219 0.950 . S
H2191 C2220 0.950 . S
H2192 C2222 0.950 . S
H2193 C2223 0.950 . S
C2194 H2176 0.951 . S
C2194 C2195 1.366 . S
C2194 C2196 1.388 . S
C2195 C2194 1.366 . S
C2195 C2199 1.385 . S
C2196 H2177 0.951 . S
C2196 C2194 1.388 . S
C2196 C2197 1.366 . S
C2197 C2196 1.366 . S
C2197 C2198 1.414 . S
C2197 C2200 1.499 . S
C2198 H2178 0.950 . S
C2198 C2197 1.414 . S
C2198 C2199 1.374 . S
C2199 H2179 0.950 . S
C2199 C2195 1.385 . S
C2199 C2198 1.374 . S
C2200 C2197 1.499 . S
C2200 C2201 1.373 . S
C2200 C2202 1.389 . S
C2201 H2180 0.950 . S
C2201 C2200 1.373 . S
C2201 C2217 1.377 . S
C2202 C2200 1.389 . S
C2202 C2203 1.524 . S
C2202 C2216 1.377 . S
C2203 C2202 1.524 . S
C2203 C2204 1.397 . S
C2203 C2208 1.363 . S
C2204 H2181 0.950 . S
C2204 C2203 1.397 . S
C2204 C2205 1.334 . S
C2205 H2182 0.950 . S
C2205 C2204 1.334 . S
C2205 C2206 1.287 . S
C2206 C2205 1.287 . S
C2206 C2207 1.524 . S
C2206 H2225 0.913 . S
C2207 H2183 0.950 . S
C2207 C2206 1.524 . S
C2207 C2208 1.415 . S
C2208 H2184 0.950 . S
C2208 C2203 1.363 . S
C2208 C2207 1.415 . S
C2209 H2185 0.951 . S
C2209 C2210 1.366 . S
C2209 C2211 1.388 . S
C2210 C2209 1.366 . S
C2210 C2214 1.385 . S
C2211 H2186 0.951 . S
C2211 C2209 1.388 . S
C2211 C2212 1.366 . S
C2212 C2211 1.366 . S
C2212 C2213 1.414 . S
C2212 C2215 1.499 . S
C2213 H2187 0.950 . S
C2213 C2212 1.414 . S
C2213 C2214 1.374 . S
C2214 H2188 0.950 . S
C2214 C2210 1.385 . S
C2214 C2213 1.374 . S
C2215 C2212 1.499 . S
C2215 C2216 1.373 . S
C2215 C2217 1.389 . S
C2216 H2189 0.950 . S
C2216 C2202 1.377 . S
C2216 C2215 1.373 . S
C2217 C2201 1.377 . S
C2217 C2215 1.389 . S
C2217 C2218 1.524 . S
C2218 C2217 1.524 . S
C2218 C2219 1.397 . S
C2218 C2223 1.363 . S
C2219 H2190 0.950 . S
C2219 C2218 1.397 . S
C2219 C2220 1.334 1_455 S
C2220 H2191 0.950 . S
C2220 C2219 1.334 1_655 S
C2220 C2221 1.287 . S
C2221 C2220 1.287 . S
C2221 C2222 1.524 . S
C2221 H2224 0.999 . S
C2222 H2192 0.950 . S
C2222 C2221 1.524 . S
C2222 C2223 1.415 1_655 S
C2223 H2193 0.950 . S
C2223 C2218 1.363 . S
C2223 C2222 1.415 1_455 S
H2224 C2221 0.999 . S
H2225 C2206 0.913 . S
H2226 C2244 0.951 . S
H2227 C2246 0.951 . S
H2228 C2248 0.950 . S
H2229 C2249 0.950 . S
H2230 C2251 0.950 . S
H2231 C2254 0.950 . S
H2232 C2255 0.950 . S
H2233 C2257 0.950 . S
H2234 C2258 0.950 . S
H2235 C2259 0.951 . S
H2236 C2261 0.951 . S
H2237 C2263 0.950 . S
H2238 C2264 0.950 . S
H2239 C2266 0.950 . S
H2240 C2269 0.950 . S
H2241 C2270 0.950 . S
H2242 C2272 0.950 . S
H2243 C2273 0.950 . S
C2244 H2226 0.951 . S
C2244 C2245 1.366 . S
C2244 C2246 1.388 . S
C2245 C2244 1.366 . S
C2245 C2249 1.385 . S
C2246 H2227 0.951 . S
C2246 C2244 1.388 . S
C2246 C2247 1.366 . S
C2247 C2246 1.366 . S
C2247 C2248 1.414 . S
C2247 C2250 1.499 . S
C2248 H2228 0.950 . S
C2248 C2247 1.414 . S
C2248 C2249 1.374 . S
C2249 H2229 0.950 . S
C2249 C2245 1.385 . S
C2249 C2248 1.374 . S
C2250 C2247 1.499 . S
C2250 C2251 1.373 . S
C2250 C2252 1.389 . S
C2251 H2230 0.950 . S
C2251 C2250 1.373 . S
C2251 C2267 1.377 . S
C2252 C2250 1.389 . S
C2252 C2253 1.524 . S
C2252 C2266 1.377 . S
C2253 C2252 1.524 . S
C2253 C2254 1.397 . S
C2253 C2258 1.363 . S
C2254 H2231 0.950 . S
C2254 C2253 1.397 . S
C2254 C2255 1.334 . S
C2255 H2232 0.950 . S
C2255 C2254 1.334 . S
C2255 C2256 1.287 . S
C2256 C2255 1.287 . S
C2256 C2257 1.524 . S
C2256 H2275 0.913 . S
C2257 H2233 0.950 . S
C2257 C2256 1.524 . S
C2257 C2258 1.415 . S
C2258 H2234 0.950 . S
C2258 C2253 1.363 . S
C2258 C2257 1.415 . S
C2259 H2235 0.951 . S
C2259 C2260 1.366 . S
C2259 C2261 1.388 . S
C2260 C2259 1.366 . S
C2260 C2264 1.385 . S
C2261 H2236 0.951 . S
C2261 C2259 1.388 . S
C2261 C2262 1.366 . S
C2262 C2261 1.366 . S
C2262 C2263 1.414 . S
C2262 C2265 1.499 . S
C2263 H2237 0.950 . S
C2263 C2262 1.414 . S
C2263 C2264 1.374 . S
C2264 H2238 0.950 . S
C2264 C2260 1.385 . S
C2264 C2263 1.374 . S
C2265 C2262 1.499 . S
C2265 C2266 1.373 . S
C2265 C2267 1.389 . S
C2266 H2239 0.950 . S
C2266 C2252 1.377 . S
C2266 C2265 1.373 . S
C2267 C2251 1.377 . S
C2267 C2265 1.389 . S
C2267 C2268 1.524 . S
C2268 C2267 1.524 . S
C2268 C2269 1.397 . S
C2268 C2273 1.363 . S
C2269 H2240 0.950 . S
C2269 C2268 1.397 . S
C2269 C2270 1.334 . S
C2270 H2241 0.950 . S
C2270 C2269 1.334 . S
C2270 C2271 1.287 . S
C2271 C2270 1.287 . S
C2271 C2272 1.524 . S
C2271 H2274 0.999 . S
C2272 H2242 0.950 . S
C2272 C2271 1.524 . S
C2272 C2273 1.415 . S
C2273 H2243 0.950 . S
C2273 C2268 1.363 . S
C2273 C2272 1.415 . S
H2274 C2271 0.999 . S
H2275 C2256 0.913 . S
H2276 C2294 0.951 . S
H2277 C2296 0.951 . S
H2278 C2298 0.950 . S
H2279 C2299 0.950 . S
H2280 C2301 0.950 . S
H2281 C2304 0.950 . S
H2282 C2305 0.950 . S
H2283 C2307 0.950 . S
H2284 C2308 0.950 . S
H2285 C2309 0.951 . S
H2286 C2311 0.951 . S
H2287 C2313 0.950 . S
H2288 C2314 0.950 . S
H2289 C2316 0.950 . S
H2290 C2319 0.950 . S
H2291 C2320 0.950 . S
H2292 C2322 0.950 . S
H2293 C2323 0.950 . S
C2294 H2276 0.951 . S
C2294 C2295 1.366 . S
C2294 C2296 1.388 . S
C2295 C2294 1.366 . S
C2295 C2299 1.385 . S
C2296 H2277 0.951 . S
C2296 C2294 1.388 . S
C2296 C2297 1.366 . S
C2297 C2296 1.366 . S
C2297 C2298 1.414 . S
C2297 C2300 1.499 . S
C2298 H2278 0.950 . S
C2298 C2297 1.414 . S
C2298 C2299 1.374 . S
C2299 H2279 0.950 . S
C2299 C2295 1.385 . S
C2299 C2298 1.374 . S
C2300 C2297 1.499 . S
C2300 C2301 1.373 . S
C2300 C2302 1.389 . S
C2301 H2280 0.950 . S
C2301 C2300 1.373 . S
C2301 C2317 1.377 . S
C2302 C2300 1.389 . S
C2302 C2303 1.524 . S
C2302 C2316 1.377 . S
C2303 C2302 1.524 . S
C2303 C2304 1.397 . S
C2303 C2308 1.363 . S
C2304 H2281 0.950 . S
C2304 C2303 1.397 . S
C2304 C2305 1.334 . S
C2305 H2282 0.950 . S
C2305 C2304 1.334 . S
C2305 C2306 1.287 . S
C2306 C2305 1.287 . S
C2306 C2307 1.524 . S
C2306 H2325 0.913 . S
C2307 H2283 0.950 . S
C2307 C2306 1.524 . S
C2307 C2308 1.415 . S
C2308 H2284 0.950 . S
C2308 C2303 1.363 . S
C2308 C2307 1.415 . S
C2309 H2285 0.951 . S
C2309 C2310 1.366 . S
C2309 C2311 1.388 . S
C2310 C2309 1.366 . S
C2310 C2314 1.385 . S
C2311 H2286 0.951 . S
C2311 C2309 1.388 . S
C2311 C2312 1.366 . S
C2312 C2311 1.366 . S
C2312 C2313 1.414 . S
C2312 C2315 1.499 . S
C2313 H2287 0.950 . S
C2313 C2312 1.414 . S
C2313 C2314 1.374 . S
C2314 H2288 0.950 . S
C2314 C2310 1.385 . S
C2314 C2313 1.374 . S
C2315 C2312 1.499 . S
C2315 C2316 1.373 . S
C2315 C2317 1.389 . S
C2316 H2289 0.950 . S
C2316 C2302 1.377 . S
C2316 C2315 1.373 . S
C2317 C2301 1.377 . S
C2317 C2315 1.389 . S
C2317 C2318 1.524 . S
C2318 C2317 1.524 . S
C2318 C2319 1.397 . S
C2318 C2323 1.363 . S
C2319 H2290 0.950 . S
C2319 C2318 1.397 . S
C2319 C2320 1.334 . S
C2320 H2291 0.950 . S
C2320 C2319 1.334 . S
C2320 C2321 1.287 . S
C2321 C2320 1.287 . S
C2321 C2322 1.524 . S
C2321 H2324 0.999 . S
C2322 H2292 0.950 . S
C2322 C2321 1.524 . S
C2322 C2323 1.415 . S
C2323 H2293 0.950 . S
C2323 C2318 1.363 . S
C2323 C2322 1.415 . S
H2324 C2321 0.999 . S
H2325 C2306 0.913 . S
H2326 C2344 0.951 . S
H2327 C2346 0.951 . S
H2328 C2348 0.950 . S
H2329 C2349 0.950 . S
H2330 C2351 0.950 . S
H2331 C2354 0.950 . S
H2332 C2355 0.950 . S
H2333 C2357 0.950 . S
H2334 C2358 0.950 . S
H2335 C2359 0.951 . S
H2336 C2361 0.951 . S
H2337 C2363 0.950 . S
H2338 C2364 0.950 . S
H2339 C2366 0.950 . S
H2340 C2369 0.950 . S
H2341 C2370 0.950 . S
H2342 C2372 0.950 . S
H2343 C2373 0.950 . S
C2344 H2326 0.951 . S
C2344 C2345 1.366 . S
C2344 C2346 1.388 . S
C2345 C2344 1.366 . S
C2345 C2349 1.385 . S
C2346 H2327 0.951 . S
C2346 C2344 1.388 . S
C2346 C2347 1.366 . S
C2347 C2346 1.366 . S
C2347 C2348 1.414 . S
C2347 C2350 1.499 . S
C2348 H2328 0.950 . S
C2348 C2347 1.414 . S
C2348 C2349 1.374 . S
C2349 H2329 0.950 . S
C2349 C2345 1.385 . S
C2349 C2348 1.374 . S
C2350 C2347 1.499 . S
C2350 C2351 1.373 . S
C2350 C2352 1.389 . S
C2351 H2330 0.950 . S
C2351 C2350 1.373 . S
C2351 C2367 1.377 . S
C2352 C2350 1.389 . S
C2352 C2353 1.524 . S
C2352 C2366 1.377 . S
C2353 C2352 1.524 . S
C2353 C2354 1.397 . S
C2353 C2358 1.363 . S
C2354 H2331 0.950 . S
C2354 C2353 1.397 . S
C2354 C2355 1.334 . S
C2355 H2332 0.950 . S
C2355 C2354 1.334 . S
C2355 C2356 1.287 . S
C2356 C2355 1.287 . S
C2356 C2357 1.524 . S
C2356 H2375 0.913 . S
C2357 H2333 0.950 . S
C2357 C2356 1.524 . S
C2357 C2358 1.415 . S
C2358 H2334 0.950 . S
C2358 C2353 1.363 . S
C2358 C2357 1.415 . S
C2359 H2335 0.951 . S
C2359 C2360 1.366 . S
C2359 C2361 1.388 . S
C2360 C2359 1.366 . S
C2360 C2364 1.385 . S
C2361 H2336 0.951 . S
C2361 C2359 1.388 . S
C2361 C2362 1.366 . S
C2362 C2361 1.366 . S
C2362 C2363 1.414 . S
C2362 C2365 1.499 . S
C2363 H2337 0.950 . S
C2363 C2362 1.414 . S
C2363 C2364 1.374 . S
C2364 H2338 0.950 . S
C2364 C2360 1.385 . S
C2364 C2363 1.374 . S
C2365 C2362 1.499 . S
C2365 C2366 1.373 . S
C2365 C2367 1.389 . S
C2366 H2339 0.950 . S
C2366 C2352 1.377 . S
C2366 C2365 1.373 . S
C2367 C2351 1.377 . S
C2367 C2365 1.389 . S
C2367 C2368 1.524 . S
C2368 C2367 1.524 . S
C2368 C2369 1.397 . S
C2368 C2373 1.363 . S
C2369 H2340 0.950 . S
C2369 C2368 1.397 . S
C2369 C2370 1.334 . S
C2370 H2341 0.950 . S
C2370 C2369 1.334 . S
C2370 C2371 1.287 . S
C2371 C2370 1.287 . S
C2371 C2372 1.524 . S
C2371 H2374 0.999 . S
C2372 H2342 0.950 . S
C2372 C2371 1.524 . S
C2372 C2373 1.415 . S
C2373 H2343 0.950 . S
C2373 C2368 1.363 . S
C2373 C2372 1.415 . S
H2374 C2371 0.999 . S
H2375 C2356 0.913 . S
H2376 C2394 0.951 . S
H2377 C2396 0.951 . S
H2378 C2398 0.950 . S
H2379 C2399 0.950 . S
H2380 C2401 0.950 . S
H2381 C2404 0.950 . S
H2382 C2405 0.950 . S
H2383 C2407 0.950 . S
H2384 C2408 0.950 . S
H2385 C2409 0.951 . S
H2386 C2411 0.951 . S
H2387 C2413 0.950 . S
H2388 C2414 0.950 . S
H2389 C2416 0.950 . S
H2390 C2419 0.950 . S
H2391 C2420 0.950 . S
H2392 C2422 0.950 . S
H2393 C2423 0.950 . S
C2394 H2376 0.951 . S
C2394 C2395 1.366 . S
C2394 C2396 1.388 . S
C2395 C2394 1.366 . S
C2395 C2399 1.385 . S
C2396 H2377 0.951 . S
C2396 C2394 1.388 . S
C2396 C2397 1.366 . S
C2397 C2396 1.366 . S
C2397 C2398 1.414 . S
C2397 C2400 1.499 . S
C2398 H2378 0.950 . S
C2398 C2397 1.414 . S
C2398 C2399 1.374 . S
C2399 H2379 0.950 . S
C2399 C2395 1.385 . S
C2399 C2398 1.374 . S
C2400 C2397 1.499 . S
C2400 C2401 1.373 . S
C2400 C2402 1.389 . S
C2401 H2380 0.950 . S
C2401 C2400 1.373 . S
C2401 C2417 1.377 . S
C2402 C2400 1.389 . S
C2402 C2403 1.524 . S
C2402 C2416 1.377 . S
C2403 C2402 1.524 . S
C2403 C2404 1.397 . S
C2403 C2408 1.361 1_455 S
C2404 H2381 0.950 . S
C2404 C2403 1.397 . S
C2404 C2405 1.334 . S
C2405 H2382 0.950 . S
C2405 C2404 1.334 . S
C2405 C2406 1.287 1_455 S
C2406 C2405 1.287 1_655 S
C2406 C2407 1.524 . S
C2406 H2425 0.913 . S
C2407 H2383 0.950 . S
C2407 C2406 1.524 . S
C2407 C2408 1.416 . S
C2408 H2384 0.950 . S
C2408 C2403 1.361 1_655 S
C2408 C2407 1.416 . S
C2409 H2385 0.951 . S
C2409 C2410 1.366 . S
C2409 C2411 1.388 . S
C2410 C2409 1.366 . S
C2410 C2414 1.385 . S
C2411 H2386 0.951 . S
C2411 C2409 1.388 . S
C2411 C2412 1.366 . S
C2412 C2411 1.366 . S
C2412 C2413 1.414 . S
C2412 C2415 1.499 . S
C2413 H2387 0.950 . S
C2413 C2412 1.414 . S
C2413 C2414 1.374 . S
C2414 H2388 0.950 . S
C2414 C2410 1.385 . S
C2414 C2413 1.374 . S
C2415 C2412 1.499 . S
C2415 C2416 1.373 . S
C2415 C2417 1.389 . S
C2416 H2389 0.950 . S
C2416 C2402 1.377 . S
C2416 C2415 1.373 . S
C2417 C2401 1.377 . S
C2417 C2415 1.389 . S
C2417 C2418 1.524 . S
C2418 C2417 1.524 . S
C2418 C2419 1.397 . S
C2418 C2423 1.363 . S
C2419 H2390 0.950 . S
C2419 C2418 1.397 . S
C2419 C2420 1.334 . S
C2420 H2391 0.950 . S
C2420 C2419 1.334 . S
C2420 C2421 1.287 . S
C2421 C2420 1.287 . S
C2421 C2422 1.524 . S
C2421 H2424 0.999 . S
C2422 H2392 0.950 . S
C2422 C2421 1.524 . S
C2422 C2423 1.415 . S
C2423 H2393 0.950 . S
C2423 C2418 1.363 . S
C2423 C2422 1.415 . S
H2424 C2421 0.999 . S
H2425 C2406 0.913 . S
H2426 C2444 0.951 . S
H2427 C2446 0.951 . S
H2428 C2448 0.950 . S
H2429 C2449 0.950 . S
H2430 C2451 0.950 . S
H2431 C2454 0.950 . S
H2432 C2455 0.950 . S
H2433 C2457 0.950 . S
H2434 C2458 0.950 . S
H2435 C2459 0.951 . S
H2436 C2461 0.951 . S
H2437 C2463 0.950 . S
H2438 C2464 0.950 . S
H2439 C2466 0.950 . S
H2440 C2469 0.950 . S
H2441 C2470 0.950 . S
H2442 C2472 0.950 . S
H2443 C2473 0.950 . S
C2444 H2426 0.951 . S
C2444 C2445 1.366 . S
C2444 C2446 1.388 . S
C2445 C2444 1.366 . S
C2445 C2449 1.385 . S
C2446 H2427 0.951 . S
C2446 C2444 1.388 . S
C2446 C2447 1.366 . S
C2447 C2446 1.366 . S
C2447 C2448 1.414 . S
C2447 C2450 1.499 . S
C2448 H2428 0.950 . S
C2448 C2447 1.414 . S
C2448 C2449 1.374 . S
C2449 H2429 0.950 . S
C2449 C2445 1.385 . S
C2449 C2448 1.374 . S
C2450 C2447 1.499 . S
C2450 C2451 1.373 . S
C2450 C2452 1.389 . S
C2451 H2430 0.950 . S
C2451 C2450 1.373 . S
C2451 C2467 1.377 . S
C2452 C2450 1.389 . S
C2452 C2453 1.524 . S
C2452 C2466 1.377 . S
C2453 C2452 1.524 . S
C2453 C2454 1.397 . S
C2453 C2458 1.363 . S
C2454 H2431 0.950 . S
C2454 C2453 1.397 . S
C2454 C2455 1.334 . S
C2455 H2432 0.950 . S
C2455 C2454 1.334 . S
C2455 C2456 1.287 . S
C2456 C2455 1.287 . S
C2456 C2457 1.524 . S
C2456 H2475 0.913 . S
C2457 H2433 0.950 . S
C2457 C2456 1.524 . S
C2457 C2458 1.415 . S
C2458 H2434 0.950 . S
C2458 C2453 1.363 . S
C2458 C2457 1.415 . S
C2459 H2435 0.951 . S
C2459 C2460 1.366 . S
C2459 C2461 1.388 . S
C2460 C2459 1.366 . S
C2460 C2464 1.385 . S
C2461 H2436 0.951 . S
C2461 C2459 1.388 . S
C2461 C2462 1.366 . S
C2462 C2461 1.366 . S
C2462 C2463 1.414 . S
C2462 C2465 1.499 . S
C2463 H2437 0.950 . S
C2463 C2462 1.414 . S
C2463 C2464 1.374 . S
C2464 H2438 0.950 . S
C2464 C2460 1.385 . S
C2464 C2463 1.374 . S
C2465 C2462 1.499 . S
C2465 C2466 1.373 . S
C2465 C2467 1.389 . S
C2466 H2439 0.950 . S
C2466 C2452 1.377 . S
C2466 C2465 1.373 . S
C2467 C2451 1.377 . S
C2467 C2465 1.389 . S
C2467 C2468 1.524 . S
C2468 C2467 1.524 . S
C2468 C2469 1.397 . S
C2468 C2473 1.363 . S
C2469 H2440 0.950 . S
C2469 C2468 1.397 . S
C2469 C2470 1.334 . S
C2470 H2441 0.950 . S
C2470 C2469 1.334 . S
C2470 C2471 1.287 . S
C2471 C2470 1.287 . S
C2471 C2472 1.524 . S
C2471 H2474 0.999 . S
C2472 H2442 0.950 . S
C2472 C2471 1.524 . S
C2472 C2473 1.415 . S
C2473 H2443 0.950 . S
C2473 C2468 1.363 . S
C2473 C2472 1.415 . S
H2474 C2471 0.999 . S
H2475 C2456 0.913 . S
H2476 C2494 0.951 . S
H2477 C2496 0.951 . S
H2478 C2498 0.950 . S
H2479 C2499 0.950 . S
H2480 C2501 0.950 . S
H2481 C2504 0.950 . S
H2482 C2505 0.950 . S
H2483 C2507 0.950 1_554 S
H2484 C2508 0.950 . S
H2485 C2509 0.951 . S
H2486 C2511 0.951 . S
H2487 C2513 0.950 . S
H2488 C2514 0.950 1_554 S
H2489 C2516 0.950 . S
H2490 C2519 0.950 . S
H2491 C2520 0.950 . S
H2492 C2522 0.950 . S
H2493 C2523 0.950 . S
C2494 H2476 0.951 . S
C2494 C2495 1.366 . S
C2494 C2496 1.388 . S
C2495 C2494 1.366 . S
C2495 C2499 1.385 . S
C2496 H2477 0.951 . S
C2496 C2494 1.388 . S
C2496 C2497 1.366 . S
C2497 C2496 1.366 . S
C2497 C2498 1.414 . S
C2497 C2500 1.499 . S
C2498 H2478 0.950 . S
C2498 C2497 1.414 . S
C2498 C2499 1.374 . S
C2499 H2479 0.950 . S
C2499 C2495 1.385 . S
C2499 C2498 1.374 . S
C2500 C2497 1.499 . S
C2500 C2501 1.373 . S
C2500 C2502 1.389 . S
C2501 H2480 0.950 . S
C2501 C2500 1.373 . S
C2501 C2517 1.377 . S
C2502 C2500 1.389 . S
C2502 C2503 1.524 . S
C2502 C2516 1.377 . S
C2503 C2502 1.524 . S
C2503 C2504 1.397 . S
C2503 C2508 1.363 . S
C2504 H2481 0.950 . S
C2504 C2503 1.397 . S
C2504 C2505 1.334 . S
C2505 H2482 0.950 . S
C2505 C2504 1.334 . S
C2505 C2506 1.287 . S
C2506 C2505 1.287 . S
C2506 C2507 1.524 . S
C2506 H2525 0.913 . S
C2507 H2483 0.950 1_556 S
C2507 C2506 1.524 . S
C2507 C2508 1.415 . S
C2508 H2484 0.950 . S
C2508 C2503 1.363 . S
C2508 C2507 1.415 . S
C2509 H2485 0.951 . S
C2509 C2510 1.366 . S
C2509 C2511 1.388 . S
C2510 C2509 1.366 . S
C2510 C2514 1.385 . S
C2511 H2486 0.951 . S
C2511 C2509 1.388 . S
C2511 C2512 1.366 . S
C2512 C2511 1.366 . S
C2512 C2513 1.414 . S
C2512 C2515 1.499 . S
C2513 H2487 0.950 . S
C2513 C2512 1.414 . S
C2513 C2514 1.374 . S
C2514 H2488 0.950 1_556 S
C2514 C2510 1.385 . S
C2514 C2513 1.374 . S
C2515 C2512 1.499 . S
C2515 C2516 1.373 . S
C2515 C2517 1.389 . S
C2516 H2489 0.950 . S
C2516 C2502 1.377 . S
C2516 C2515 1.373 . S
C2517 C2501 1.377 . S
C2517 C2515 1.389 . S
C2517 C2518 1.524 . S
C2518 C2517 1.524 . S
C2518 C2519 1.397 . S
C2518 C2523 1.363 . S
C2519 H2490 0.950 . S
C2519 C2518 1.397 . S
C2519 C2520 1.334 . S
C2520 H2491 0.950 . S
C2520 C2519 1.334 . S
C2520 C2521 1.287 . S
C2521 C2520 1.287 . S
C2521 C2522 1.524 . S
C2521 H2524 0.999 . S
C2522 H2492 0.950 . S
C2522 C2521 1.524 . S
C2522 C2523 1.415 . S
C2523 H2493 0.950 . S
C2523 C2518 1.363 . S
C2523 C2522 1.415 . S
H2524 C2521 0.999 . S
H2525 C2506 0.913 . S
H2526 C2544 0.951 . S
H2527 C2546 0.951 . S
H2528 C2548 0.950 . S
H2529 C2549 0.950 . S
H2530 C2551 0.950 . S
H2531 C2554 0.950 . S
H2532 C2555 0.950 . S
H2533 C2557 0.950 . S
H2534 C2558 0.950 . S
H2535 C2559 0.951 . S
H2536 C2561 0.951 . S
H2537 C2563 0.950 . S
H2538 C2564 0.950 . S
H2539 C2566 0.950 . S
H2540 C2569 0.950 . S
H2541 C2570 0.950 . S
H2542 C2572 0.950 . S
H2543 C2573 0.950 . S
C2544 H2526 0.951 . S
C2544 C2545 1.366 . S
C2544 C2546 1.388 . S
C2545 C2544 1.366 . S
C2545 C2549 1.385 . S
C2546 H2527 0.951 . S
C2546 C2544 1.388 . S
C2546 C2547 1.366 . S
C2547 C2546 1.366 . S
C2547 C2548 1.414 . S
C2547 C2550 1.499 . S
C2548 H2528 0.950 . S
C2548 C2547 1.414 . S
C2548 C2549 1.374 . S
C2549 H2529 0.950 . S
C2549 C2545 1.385 . S
C2549 C2548 1.374 . S
C2550 C2547 1.499 . S
C2550 C2551 1.373 . S
C2550 C2552 1.389 . S
C2551 H2530 0.950 . S
C2551 C2550 1.373 . S
C2551 C2567 1.377 . S
C2552 C2550 1.389 . S
C2552 C2553 1.524 . S
C2552 C2566 1.377 . S
C2553 C2552 1.524 . S
C2553 C2554 1.397 . S
C2553 C2558 1.363 . S
C2554 H2531 0.950 . S
C2554 C2553 1.397 . S
C2554 C2555 1.334 . S
C2555 H2532 0.950 . S
C2555 C2554 1.334 . S
C2555 C2556 1.287 . S
C2556 C2555 1.287 . S
C2556 C2557 1.524 . S
C2556 H2575 0.913 . S
C2557 H2533 0.950 . S
C2557 C2556 1.524 . S
C2557 C2558 1.415 . S
C2558 H2534 0.950 . S
C2558 C2553 1.363 . S
C2558 C2557 1.415 . S
C2559 H2535 0.951 . S
C2559 C2560 1.366 . S
C2559 C2561 1.388 . S
C2560 C2559 1.366 . S
C2560 C2564 1.385 . S
C2561 H2536 0.951 . S
C2561 C2559 1.388 . S
C2561 C2562 1.366 . S
C2562 C2561 1.366 . S
C2562 C2563 1.414 . S
C2562 C2565 1.499 . S
C2563 H2537 0.950 . S
C2563 C2562 1.414 . S
C2563 C2564 1.374 . S
C2564 H2538 0.950 . S
C2564 C2560 1.385 . S
C2564 C2563 1.374 . S
C2565 C2562 1.499 . S
C2565 C2566 1.373 . S
C2565 C2567 1.389 . S
C2566 H2539 0.950 . S
C2566 C2552 1.377 . S
C2566 C2565 1.373 . S
C2567 C2551 1.377 . S
C2567 C2565 1.389 . S
C2567 C2568 1.524 . S
C2568 C2567 1.524 . S
C2568 C2569 1.397 . S
C2568 C2573 1.363 . S
C2569 H2540 0.950 . S
C2569 C2568 1.397 . S
C2569 C2570 1.334 . S
C2570 H2541 0.950 . S
C2570 C2569 1.334 . S
C2570 C2571 1.287 . S
C2571 C2570 1.287 . S
C2571 C2572 1.524 . S
C2571 H2574 0.999 . S
C2572 H2542 0.950 . S
C2572 C2571 1.524 . S
C2572 C2573 1.415 . S
C2573 H2543 0.950 . S
C2573 C2568 1.363 . S
C2573 C2572 1.415 . S
H2574 C2571 0.999 . S
H2575 C2556 0.913 . S
H2576 C2594 0.951 1_565 S
H2577 C2596 0.951 1_565 S
H2578 C2598 0.950 . S
H2579 C2599 0.950 . S
H2580 C2601 0.950 . S
H2581 C2604 0.950 . S
H2582 C2605 0.950 . S
H2583 C2607 0.950 . S
H2584 C2608 0.950 . S
H2585 C2609 0.951 . S
H2586 C2611 0.951 . S
H2587 C2613 0.950 . S
H2588 C2614 0.950 . S
H2589 C2616 0.950 . S
H2590 C2619 0.950 . S
H2591 C2620 0.950 . S
H2592 C2622 0.950 . S
H2593 C2623 0.950 . S
C2594 H2576 0.951 1_545 S
C2594 C2595 1.366 . S
C2594 C2596 1.388 . S
C2595 C2594 1.366 . S
C2595 C2599 1.385 . S
C2596 H2577 0.951 1_545 S
C2596 C2594 1.388 . S
C2596 C2597 1.366 . S
C2597 C2596 1.366 . S
C2597 C2598 1.414 . S
C2597 C2600 1.499 . S
C2598 H2578 0.950 . S
C2598 C2597 1.414 . S
C2598 C2599 1.374 . S
C2599 H2579 0.950 . S
C2599 C2595 1.385 . S
C2599 C2598 1.374 . S
C2600 C2597 1.499 . S
C2600 C2601 1.373 . S
C2600 C2602 1.389 . S
C2601 H2580 0.950 . S
C2601 C2600 1.373 . S
C2601 C2617 1.377 . S
C2602 C2600 1.389 . S
C2602 C2603 1.524 . S
C2602 C2616 1.377 . S
C2603 C2602 1.524 . S
C2603 C2604 1.397 . S
C2603 C2608 1.363 . S
C2604 H2581 0.950 . S
C2604 C2603 1.397 . S
C2604 C2605 1.334 . S
C2605 H2582 0.950 . S
C2605 C2604 1.334 . S
C2605 C2606 1.287 . S
C2606 C2605 1.287 . S
C2606 C2607 1.524 . S
C2606 H2625 0.913 . S
C2607 H2583 0.950 . S
C2607 C2606 1.524 . S
C2607 C2608 1.415 . S
C2608 H2584 0.950 . S
C2608 C2603 1.363 . S
C2608 C2607 1.415 . S
C2609 H2585 0.951 . S
C2609 C2610 1.366 . S
C2609 C2611 1.388 . S
C2610 C2609 1.366 . S
C2610 C2614 1.385 . S
C2611 H2586 0.951 . S
C2611 C2609 1.388 . S
C2611 C2612 1.366 . S
C2612 C2611 1.366 . S
C2612 C2613 1.414 . S
C2612 C2615 1.499 . S
C2613 H2587 0.950 . S
C2613 C2612 1.414 . S
C2613 C2614 1.374 . S
C2614 H2588 0.950 . S
C2614 C2610 1.385 . S
C2614 C2613 1.374 . S
C2615 C2612 1.499 . S
C2615 C2616 1.373 . S
C2615 C2617 1.389 . S
C2616 H2589 0.950 . S
C2616 C2602 1.377 . S
C2616 C2615 1.373 . S
C2617 C2601 1.377 . S
C2617 C2615 1.389 . S
C2617 C2618 1.524 . S
C2618 C2617 1.524 . S
C2618 C2619 1.397 1_545 S
C2618 C2623 1.363 . S
C2619 H2590 0.950 . S
C2619 C2618 1.397 1_565 S
C2619 C2620 1.334 . S
C2620 H2591 0.950 . S
C2620 C2619 1.334 . S
C2620 C2621 1.287 . S
C2621 C2620 1.287 . S
C2621 C2622 1.524 1_565 S
C2621 H2624 0.999 . S
C2622 H2592 0.950 . S
C2622 C2621 1.524 1_545 S
C2622 C2623 1.415 . S
C2623 H2593 0.950 . S
C2623 C2618 1.363 . S
C2623 C2622 1.415 . S
H2624 C2621 0.999 . S
H2625 C2606 0.913 . S
H2626 C2644 0.951 . S
H2627 C2646 0.951 . S
H2628 C2648 0.950 . S
H2629 C2649 0.950 . S
H2630 C2651 0.950 . S
H2631 C2654 0.950 . S
H2632 C2655 0.950 . S
H2633 C2657 0.950 . S
H2634 C2658 0.950 . S
H2635 C2659 0.951 . S
H2636 C2661 0.951 . S
H2637 C2663 0.950 . S
H2638 C2664 0.950 . S
H2639 C2666 0.950 . S
H2640 C2669 0.950 . S
H2641 C2670 0.950 . S
H2642 C2672 0.950 . S
H2643 C2673 0.950 . S
C2644 H2626 0.951 . S
C2644 C2645 1.366 . S
C2644 C2646 1.388 . S
C2645 C2644 1.366 . S
C2645 C2649 1.385 . S
C2646 H2627 0.951 . S
C2646 C2644 1.388 . S
C2646 C2647 1.366 . S
C2647 C2646 1.366 . S
C2647 C2648 1.414 . S
C2647 C2650 1.499 . S
C2648 H2628 0.950 . S
C2648 C2647 1.414 . S
C2648 C2649 1.374 . S
C2649 H2629 0.950 . S
C2649 C2645 1.385 . S
C2649 C2648 1.374 . S
C2650 C2647 1.499 . S
C2650 C2651 1.373 . S
C2650 C2652 1.389 . S
C2651 H2630 0.950 . S
C2651 C2650 1.373 . S
C2651 C2667 1.377 . S
C2652 C2650 1.389 . S
C2652 C2653 1.524 . S
C2652 C2666 1.377 . S
C2653 C2652 1.524 . S
C2653 C2654 1.397 . S
C2653 C2658 1.363 . S
C2654 H2631 0.950 . S
C2654 C2653 1.397 . S
C2654 C2655 1.334 . S
C2655 H2632 0.950 . S
C2655 C2654 1.334 . S
C2655 C2656 1.287 . S
C2656 C2655 1.287 . S
C2656 C2657 1.524 . S
C2656 H2675 0.913 . S
C2657 H2633 0.950 . S
C2657 C2656 1.524 . S
C2657 C2658 1.415 . S
C2658 H2634 0.950 . S
C2658 C2653 1.363 . S
C2658 C2657 1.415 . S
C2659 H2635 0.951 . S
C2659 C2660 1.366 . S
C2659 C2661 1.388 . S
C2660 C2659 1.366 . S
C2660 C2664 1.385 . S
C2661 H2636 0.951 . S
C2661 C2659 1.388 . S
C2661 C2662 1.366 . S
C2662 C2661 1.366 . S
C2662 C2663 1.414 . S
C2662 C2665 1.499 . S
C2663 H2637 0.950 . S
C2663 C2662 1.414 . S
C2663 C2664 1.374 . S
C2664 H2638 0.950 . S
C2664 C2660 1.385 . S
C2664 C2663 1.374 . S
C2665 C2662 1.499 . S
C2665 C2666 1.373 . S
C2665 C2667 1.389 . S
C2666 H2639 0.950 . S
C2666 C2652 1.377 . S
C2666 C2665 1.373 . S
C2667 C2651 1.377 . S
C2667 C2665 1.389 . S
C2667 C2668 1.524 . S
C2668 C2667 1.524 . S
C2668 C2669 1.397 . S
C2668 C2673 1.363 . S
C2669 H2640 0.950 . S
C2669 C2668 1.397 . S
C2669 C2670 1.334 . S
C2670 H2641 0.950 . S
C2670 C2669 1.334 . S
C2670 C2671 1.287 . S
C2671 C2670 1.287 . S
C2671 C2672 1.524 . S
C2671 H2674 0.999 . S
C2672 H2642 0.950 . S
C2672 C2671 1.524 . S
C2672 C2673 1.415 . S
C2673 H2643 0.950 . S
C2673 C2668 1.363 . S
C2673 C2672 1.415 . S
H2674 C2671 0.999 . S
H2675 C2656 0.913 . S
H2676 C2694 0.934 1_565 S
H2677 C2696 0.951 1_565 S
H2678 C2698 0.950 . S
H2679 C2699 0.950 . S
H2680 C2701 0.950 . S
H2681 C2704 0.950 . S
H2682 C2705 0.950 . S
H2683 C2707 0.950 . S
H2684 C2708 0.950 . S
H2685 C2709 0.951 . S
H2686 C2711 0.951 . S
H2687 C2713 0.950 . S
H2688 C2714 0.950 . S
H2689 C2716 0.950 . S
H2690 C2719 0.931 1_565 S
H2691 C2720 0.950 . S
H2692 C2722 0.950 . S
H2693 C2723 0.950 . S
C2694 H2676 0.934 1_545 S
C2694 C2695 1.387 . S
C2694 C2696 1.384 . S
C2695 C2694 1.387 . S
C2695 C2699 1.385 . S
C2696 H2677 0.951 1_545 S
C2696 C2694 1.384 . S
C2696 C2697 1.366 . S
C2697 C2696 1.366 . S
C2697 C2698 1.414 . S
C2697 C2700 1.499 . S
C2698 H2678 0.950 . S
C2698 C2697 1.414 . S
C2698 C2699 1.374 . S
C2699 H2679 0.950 . S
C2699 C2695 1.385 . S
C2699 C2698 1.374 . S
C2700 C2697 1.499 . S
C2700 C2701 1.373 . S
C2700 C2702 1.389 . S
C2701 H2680 0.950 . S
C2701 C2700 1.373 . S
C2701 C2717 1.377 . S
C2702 C2700 1.389 . S
C2702 C2703 1.524 . S
C2702 C2716 1.377 . S
C2703 C2702 1.524 . S
C2703 C2704 1.397 . S
C2703 C2708 1.363 . S
C2704 H2681 0.950 . S
C2704 C2703 1.397 . S
C2704 C2705 1.334 . S
C2705 H2682 0.950 . S
C2705 C2704 1.334 . S
C2705 C2706 1.287 . S
C2706 C2705 1.287 . S
C2706 C2707 1.524 . S
C2706 H2725 0.913 . S
C2707 H2683 0.950 . S
C2707 C2706 1.524 . S
C2707 C2708 1.415 . S
C2708 H2684 0.950 . S
C2708 C2703 1.363 . S
C2708 C2707 1.415 . S
C2709 H2685 0.951 . S
C2709 C2710 1.366 . S
C2709 C2711 1.388 . S
C2710 C2709 1.366 . S
C2710 C2714 1.385 . S
C2711 H2686 0.951 . S
C2711 C2709 1.388 . S
C2711 C2712 1.366 . S
C2712 C2711 1.366 . S
C2712 C2713 1.414 . S
C2712 C2715 1.499 . S
C2713 H2687 0.950 . S
C2713 C2712 1.414 . S
C2713 C2714 1.374 . S
C2714 H2688 0.950 . S
C2714 C2710 1.385 . S
C2714 C2713 1.374 . S
C2715 C2712 1.499 . S
C2715 C2716 1.373 . S
C2715 C2717 1.389 . S
C2716 H2689 0.950 . S
C2716 C2702 1.377 . S
C2716 C2715 1.373 . S
C2717 C2701 1.377 . S
C2717 C2715 1.389 . S
C2717 C2718 1.524 . S
C2718 C2717 1.524 . S
C2718 C2719 1.429 . S
C2718 C2723 1.363 . S
C2719 H2690 0.931 1_545 S
C2719 C2718 1.429 . S
C2719 C2720 1.321 1_545 S
C2720 H2691 0.950 . S
C2720 C2719 1.321 1_565 S
C2720 C2721 1.287 1_565 S
C2721 C2720 1.287 1_545 S
C2721 C2722 1.524 . S
C2721 H2724 0.999 . S
C2722 H2692 0.950 . S
C2722 C2721 1.524 . S
C2722 C2723 1.415 . S
C2723 H2693 0.950 . S
C2723 C2718 1.363 . S
C2723 C2722 1.415 . S
H2724 C2721 0.999 . S
H2725 C2706 0.913 . S
H2726 C2744 0.951 . S
H2727 C2746 0.951 . S
H2728 C2748 0.950 . S
H2729 C2749 0.950 . S
H2730 C2751 0.950 . S
H2731 C2754 0.950 . S
H2732 C2755 0.950 . S
H2733 C2757 0.950 . S
H2734 C2758 0.950 . S
H2735 C2759 0.951 . S
H2736 C2761 0.951 . S
H2737 C2763 0.950 . S
H2738 C2764 0.950 . S
H2739 C2766 0.950 . S
H2740 C2769 0.950 . S
H2741 C2770 0.950 . S
H2742 C2772 0.950 . S
H2743 C2773 0.950 . S
C2744 H2726 0.951 . S
C2744 C2745 1.366 . S
C2744 C2746 1.388 . S
C2745 C2744 1.366 . S
C2745 C2749 1.385 . S
C2746 H2727 0.951 . S
C2746 C2744 1.388 . S
C2746 C2747 1.366 . S
C2747 C2746 1.366 . S
C2747 C2748 1.414 . S
C2747 C2750 1.499 . S
C2748 H2728 0.950 . S
C2748 C2747 1.414 . S
C2748 C2749 1.374 . S
C2749 H2729 0.950 . S
C2749 C2745 1.385 . S
C2749 C2748 1.374 . S
C2750 C2747 1.499 . S
C2750 C2751 1.373 . S
C2750 C2752 1.389 . S
C2751 H2730 0.950 . S
C2751 C2750 1.373 . S
C2751 C2767 1.377 . S
C2752 C2750 1.389 . S
C2752 C2753 1.524 . S
C2752 C2766 1.377 . S
C2753 C2752 1.524 . S
C2753 C2754 1.397 . S
C2753 C2758 1.363 . S
C2754 H2731 0.950 . S
C2754 C2753 1.397 . S
C2754 C2755 1.334 . S
C2755 H2732 0.950 . S
C2755 C2754 1.334 . S
C2755 C2756 1.287 . S
C2756 C2755 1.287 . S
C2756 C2757 1.524 . S
C2756 H2775 0.913 . S
C2757 H2733 0.950 . S
C2757 C2756 1.524 . S
C2757 C2758 1.415 . S
C2758 H2734 0.950 . S
C2758 C2753 1.363 . S
C2758 C2757 1.415 . S
C2759 H2735 0.951 . S
C2759 C2760 1.366 . S
C2759 C2761 1.388 . S
C2760 C2759 1.366 . S
C2760 C2764 1.385 . S
C2761 H2736 0.951 . S
C2761 C2759 1.388 . S
C2761 C2762 1.366 . S
C2762 C2761 1.366 . S
C2762 C2763 1.414 . S
C2762 C2765 1.499 . S
C2763 H2737 0.950 . S
C2763 C2762 1.414 . S
C2763 C2764 1.374 . S
C2764 H2738 0.950 . S
C2764 C2760 1.385 . S
C2764 C2763 1.374 . S
C2765 C2762 1.499 . S
C2765 C2766 1.373 . S
C2765 C2767 1.389 . S
C2766 H2739 0.950 . S
C2766 C2752 1.377 . S
C2766 C2765 1.373 . S
C2767 C2751 1.377 . S
C2767 C2765 1.389 . S
C2767 C2768 1.524 . S
C2768 C2767 1.524 . S
C2768 C2769 1.397 . S
C2768 C2773 1.363 . S
C2769 H2740 0.950 . S
C2769 C2768 1.397 . S
C2769 C2770 1.334 . S
C2770 H2741 0.950 . S
C2770 C2769 1.334 . S
C2770 C2771 1.287 . S
C2771 C2770 1.287 . S
C2771 C2772 1.524 . S
C2771 H2774 0.999 . S
C2772 H2742 0.950 . S
C2772 C2771 1.524 . S
C2772 C2773 1.415 . S
C2773 H2743 0.950 . S
C2773 C2768 1.363 . S
C2773 C2772 1.415 . S
H2774 C2771 0.999 . S
H2775 C2756 0.913 . S
H2776 C2794 0.951 . S
H2777 C2796 0.951 . S
H2778 C2798 0.950 . S
H2779 C2799 0.950 . S
H2780 C2801 0.950 . S
H2781 C2804 0.950 . S
H2782 C2805 0.950 . S
H2783 C2807 0.950 . S
H2784 C2808 0.950 . S
H2785 C2809 0.977 . S
H2786 C2811 0.951 1_565 S
H2787 C2813 0.950 . S
H2788 C2814 0.950 . S
H2789 C2816 0.950 . S
H2790 C2819 0.950 . S
H2791 C2820 0.950 . S
H2792 C2822 0.950 . S
H2793 C2823 0.950 1_565 S
C2794 H2776 0.951 . S
C2794 C2795 1.366 . S
C2794 C2796 1.388 . S
C2795 C2794 1.366 . S
C2795 C2799 1.385 1_545 S
C2796 H2777 0.951 . S
C2796 C2794 1.388 . S
C2796 C2797 1.366 . S
C2797 C2796 1.366 . S
C2797 C2798 1.414 1_545 S
C2797 C2800 1.499 . S
C2798 H2778 0.950 . S
C2798 C2797 1.414 1_565 S
C2798 C2799 1.374 . S
C2799 H2779 0.950 . S
C2799 C2795 1.385 1_565 S
C2799 C2798 1.374 . S
C2800 C2797 1.499 . S
C2800 C2801 1.373 . S
C2800 C2802 1.389 . S
C2801 H2780 0.950 . S
C2801 C2800 1.373 . S
C2801 C2817 1.377 . S
C2802 C2800 1.389 . S
C2802 C2803 1.524 . S
C2802 C2816 1.377 . S
C2803 C2802 1.524 . S
C2803 C2804 1.397 1_545 S
C2803 C2808 1.363 . S
C2804 H2781 0.950 . S
C2804 C2803 1.397 1_565 S
C2804 C2805 1.334 . S
C2805 H2782 0.950 . S
C2805 C2804 1.334 . S
C2805 C2806 1.287 . S
C2806 C2805 1.287 . S
C2806 C2807 1.524 1_565 S
C2806 H2825 0.913 . S
C2807 H2783 0.950 . S
C2807 C2806 1.524 1_545 S
C2807 C2808 1.415 . S
C2808 H2784 0.950 . S
C2808 C2803 1.363 . S
C2808 C2807 1.415 . S
C2809 H2785 0.977 . S
C2809 C2810 1.366 . S
C2809 C2811 1.388 . S
C2810 C2809 1.366 . S
C2810 C2814 1.385 . S
C2811 H2786 0.951 1_545 S
C2811 C2809 1.388 . S
C2811 C2812 1.366 . S
C2812 C2811 1.366 . S
C2812 C2813 1.414 . S
C2812 C2815 1.499 . S
C2813 H2787 0.950 . S
C2813 C2812 1.414 . S
C2813 C2814 1.374 . S
C2814 H2788 0.950 . S
C2814 C2810 1.385 . S
C2814 C2813 1.374 . S
C2815 C2812 1.499 . S
C2815 C2816 1.373 . S
C2815 C2817 1.389 . S
C2816 H2789 0.950 . S
C2816 C2802 1.377 . S
C2816 C2815 1.373 . S
C2817 C2801 1.377 . S
C2817 C2815 1.389 . S
C2817 C2818 1.524 . S
C2818 C2817 1.524 . S
C2818 C2819 1.397 . S
C2818 C2823 1.363 . S
C2819 H2790 0.950 . S
C2819 C2818 1.397 . S
C2819 C2820 1.334 . S
C2820 H2791 0.950 . S
C2820 C2819 1.334 . S
C2820 C2821 1.287 . S
C2821 C2820 1.287 . S
C2821 C2822 1.524 . S
C2821 H2824 0.999 . S
C2822 H2792 0.950 . S
C2822 C2821 1.524 . S
C2822 C2823 1.415 . S
C2823 H2793 0.950 1_545 S
C2823 C2818 1.363 . S
C2823 C2822 1.415 . S
H2824 C2821 0.999 . S
H2825 C2806 0.913 . S
H2826 C2844 0.951 . S
H2827 C2846 0.951 . S
H2828 C2848 0.950 . S
H2829 C2849 0.950 . S
H2830 C2851 0.950 . S
H2831 C2854 0.950 . S
H2832 C2855 0.950 . S
H2833 C2857 0.950 . S
H2834 C2858 0.950 . S
H2835 C2859 0.951 . S
H2836 C2861 0.951 . S
H2837 C2863 0.950 . S
H2838 C2864 0.950 . S
H2839 C2866 0.950 . S
H2840 C2869 0.950 . S
H2841 C2870 0.950 . S
H2842 C2872 0.950 . S
H2843 C2873 0.950 . S
C2844 H2826 0.951 . S
C2844 C2845 1.366 . S
C2844 C2846 1.388 . S
C2845 C2844 1.366 . S
C2845 C2849 1.385 . S
C2846 H2827 0.951 . S
C2846 C2844 1.388 . S
C2846 C2847 1.366 . S
C2847 C2846 1.366 . S
C2847 C2848 1.414 . S
C2847 C2850 1.499 . S
C2848 H2828 0.950 . S
C2848 C2847 1.414 . S
C2848 C2849 1.374 . S
C2849 H2829 0.950 . S
C2849 C2845 1.385 . S
C2849 C2848 1.374 . S
C2850 C2847 1.499 . S
C2850 C2851 1.373 . S
C2850 C2852 1.389 . S
C2851 H2830 0.950 . S
C2851 C2850 1.373 . S
C2851 C2867 1.377 . S
C2852 C2850 1.389 . S
C2852 C2853 1.524 . S
C2852 C2866 1.377 . S
C2853 C2852 1.524 . S
C2853 C2854 1.397 . S
C2853 C2858 1.363 . S
C2854 H2831 0.950 . S
C2854 C2853 1.397 . S
C2854 C2855 1.334 . S
C2855 H2832 0.950 . S
C2855 C2854 1.334 . S
C2855 C2856 1.287 . S
C2856 C2855 1.287 . S
C2856 C2857 1.524 . S
C2856 H2875 0.913 . S
C2857 H2833 0.950 . S
C2857 C2856 1.524 . S
C2857 C2858 1.415 . S
C2858 H2834 0.950 . S
C2858 C2853 1.363 . S
C2858 C2857 1.415 . S
C2859 H2835 0.951 . S
C2859 C2860 1.366 . S
C2859 C2861 1.388 . S
C2860 C2859 1.366 . S
C2860 C2864 1.385 . S
C2861 H2836 0.951 . S
C2861 C2859 1.388 . S
C2861 C2862 1.366 . S
C2862 C2861 1.366 . S
C2862 C2863 1.414 . S
C2862 C2865 1.499 . S
C2863 H2837 0.950 . S
C2863 C2862 1.414 . S
C2863 C2864 1.374 . S
C2864 H2838 0.950 . S
C2864 C2860 1.385 . S
C2864 C2863 1.374 . S
C2865 C2862 1.499 . S
C2865 C2866 1.373 . S
C2865 C2867 1.389 . S
C2866 H2839 0.950 . S
C2866 C2852 1.377 . S
C2866 C2865 1.373 . S
C2867 C2851 1.377 . S
C2867 C2865 1.389 . S
C2867 C2868 1.524 . S
C2868 C2867 1.524 . S
C2868 C2869 1.397 . S
C2868 C2873 1.363 . S
C2869 H2840 0.950 . S
C2869 C2868 1.397 . S
C2869 C2870 1.334 . S
C2870 H2841 0.950 . S
C2870 C2869 1.334 . S
C2870 C2871 1.287 . S
C2871 C2870 1.287 . S
C2871 C2872 1.524 . S
C2871 H2874 0.999 . S
C2872 H2842 0.950 . S
C2872 C2871 1.524 . S
C2872 C2873 1.415 . S
C2873 H2843 0.950 . S
C2873 C2868 1.363 . S
C2873 C2872 1.415 . S
H2874 C2871 0.999 . S
H2875 C2856 0.913 . S
H2876 C2894 0.951 . S
H2877 C2896 0.951 . S
H2878 C2898 0.950 . S
H2879 C2899 0.950 . S
H2880 C2901 0.950 . S
H2881 C2904 0.950 . S
H2882 C2905 0.950 . S
H2883 C2907 0.950 . S
H2884 C2908 0.950 . S
H2885 C2909 0.951 . S
H2886 C2911 0.951 . S
H2887 C2913 0.950 . S
H2888 C2914 0.950 . S
H2889 C2916 0.950 . S
H2890 C2919 0.950 . S
H2891 C2920 0.950 . S
H2892 C2922 0.950 . S
H2893 C2923 0.950 . S
C2894 H2876 0.951 . S
C2894 C2895 1.366 1_565 S
C2894 C2896 1.388 . S
C2895 C2894 1.366 1_545 S
C2895 C2899 1.385 . S
C2896 H2877 0.951 . S
C2896 C2894 1.388 . S
C2896 C2897 1.366 1_565 S
C2897 C2896 1.366 1_545 S
C2897 C2898 1.414 . S
C2897 C2900 1.499 . S
C2898 H2878 0.950 . S
C2898 C2897 1.414 . S
C2898 C2899 1.374 . S
C2899 H2879 0.950 . S
C2899 C2895 1.385 . S
C2899 C2898 1.374 . S
C2900 C2897 1.499 . S
C2900 C2901 1.373 . S
C2900 C2902 1.389 1_545 S
C2901 H2880 0.950 . S
C2901 C2900 1.373 . S
C2901 C2917 1.377 . S
C2902 C2900 1.389 1_565 S
C2902 C2903 1.524 . S
C2902 C2916 1.377 . S
C2903 C2902 1.524 . S
C2903 C2904 1.397 . S
C2903 C2908 1.363 . S
C2904 H2881 0.950 . S
C2904 C2903 1.397 . S
C2904 C2905 1.334 . S
C2905 H2882 0.950 . S
C2905 C2904 1.334 . S
C2905 C2906 1.287 . S
C2906 C2905 1.287 . S
C2906 C2907 1.524 . S
C2906 H2925 0.913 . S
C2907 H2883 0.950 . S
C2907 C2906 1.524 . S
C2907 C2908 1.415 . S
C2908 H2884 0.950 . S
C2908 C2903 1.363 . S
C2908 C2907 1.415 . S
C2909 H2885 0.951 . S
C2909 C2910 1.366 . S
C2909 C2911 1.388 . S
C2910 C2909 1.366 . S
C2910 C2914 1.385 1_545 S
C2911 H2886 0.951 . S
C2911 C2909 1.388 . S
C2911 C2912 1.366 . S
C2912 C2911 1.366 . S
C2912 C2913 1.414 1_545 S
C2912 C2915 1.499 . S
C2913 H2887 0.950 . S
C2913 C2912 1.414 1_565 S
C2913 C2914 1.374 . S
C2914 H2888 0.950 . S
C2914 C2910 1.385 1_565 S
C2914 C2913 1.374 . S
C2915 C2912 1.499 . S
C2915 C2916 1.373 1_545 S
C2915 C2917 1.389 . S
C2916 H2889 0.950 . S
C2916 C2902 1.377 . S
C2916 C2915 1.373 1_565 S
C2917 C2901 1.377 . S
C2917 C2915 1.389 . S
C2917 C2918 1.524 . S
C2918 C2917 1.524 . S
C2918 C2919 1.397 . S
C2918 C2923 1.363 . S
C2919 H2890 0.950 . S
C2919 C2918 1.397 . S
C2919 C2920 1.334 . S
C2920 H2891 0.950 . S
C2920 C2919 1.334 . S
C2920 C2921 1.287 . S
C2921 C2920 1.287 . S
C2921 C2922 1.524 . S
C2921 H2924 0.999 . S
C2922 H2892 0.950 . S
C2922 C2921 1.524 . S
C2922 C2923 1.415 . S
C2923 H2893 0.950 . S
C2923 C2918 1.363 . S
C2923 C2922 1.415 . S
H2924 C2921 0.999 . S
H2925 C2906 0.913 . S
H2926 C2944 0.951 . S
H2927 C2946 0.951 . S
H2928 C2948 0.950 . S
H2929 C2949 0.950 . S
H2930 C2951 0.950 . S
H2931 C2954 0.950 . S
H2932 C2955 0.950 . S
H2933 C2957 0.950 . S
H2934 C2958 0.950 . S
H2935 C2959 0.951 . S
H2936 C2961 0.951 . S
H2937 C2963 0.950 . S
H2938 C2964 0.950 . S
H2939 C2966 0.950 . S
H2940 C2969 0.950 . S
H2941 C2970 0.950 . S
H2942 C2972 0.950 . S
H2943 C2973 0.950 . S
C2944 H2926 0.951 . S
C2944 C2945 1.366 . S
C2944 C2946 1.388 . S
C2945 C2944 1.366 . S
C2945 C2949 1.385 . S
C2946 H2927 0.951 . S
C2946 C2944 1.388 . S
C2946 C2947 1.366 . S
C2947 C2946 1.366 . S
C2947 C2948 1.414 . S
C2947 C2950 1.499 . S
C2948 H2928 0.950 . S
C2948 C2947 1.414 . S
C2948 C2949 1.374 . S
C2949 H2929 0.950 . S
C2949 C2945 1.385 . S
C2949 C2948 1.374 . S
C2950 C2947 1.499 . S
C2950 C2951 1.373 . S
C2950 C2952 1.389 . S
C2951 H2930 0.950 . S
C2951 C2950 1.373 . S
C2951 C2967 1.377 . S
C2952 C2950 1.389 . S
C2952 C2953 1.524 . S
C2952 C2966 1.377 . S
C2953 C2952 1.524 . S
C2953 C2954 1.397 . S
C2953 C2958 1.363 . S
C2954 H2931 0.950 . S
C2954 C2953 1.397 . S
C2954 C2955 1.334 . S
C2955 H2932 0.950 . S
C2955 C2954 1.334 . S
C2955 C2956 1.287 . S
C2956 C2955 1.287 . S
C2956 C2957 1.524 . S
C2956 H2975 0.913 . S
C2957 H2933 0.950 . S
C2957 C2956 1.524 . S
C2957 C2958 1.415 . S
C2958 H2934 0.950 . S
C2958 C2953 1.363 . S
C2958 C2957 1.415 . S
C2959 H2935 0.951 . S
C2959 C2960 1.366 . S
C2959 C2961 1.388 . S
C2960 C2959 1.366 . S
C2960 C2964 1.385 . S
C2961 H2936 0.951 . S
C2961 C2959 1.388 . S
C2961 C2962 1.366 . S
C2962 C2961 1.366 . S
C2962 C2963 1.414 . S
C2962 C2965 1.499 . S
C2963 H2937 0.950 . S
C2963 C2962 1.414 . S
C2963 C2964 1.374 . S
C2964 H2938 0.950 . S
C2964 C2960 1.385 . S
C2964 C2963 1.374 . S
C2965 C2962 1.499 . S
C2965 C2966 1.373 . S
C2965 C2967 1.389 . S
C2966 H2939 0.950 . S
C2966 C2952 1.377 . S
C2966 C2965 1.373 . S
C2967 C2951 1.377 . S
C2967 C2965 1.389 . S
C2967 C2968 1.524 . S
C2968 C2967 1.524 . S
C2968 C2969 1.397 . S
C2968 C2973 1.363 . S
C2969 H2940 0.950 . S
C2969 C2968 1.397 . S
C2969 C2970 1.334 . S
C2970 H2941 0.950 . S
C2970 C2969 1.334 . S
C2970 C2971 1.287 . S
C2971 C2970 1.287 . S
C2971 C2972 1.524 . S
C2971 H2974 0.999 . S
C2972 H2942 0.950 . S
C2972 C2971 1.524 . S
C2972 C2973 1.415 . S
C2973 H2943 0.950 . S
C2973 C2968 1.363 . S
C2973 C2972 1.415 . S
H2974 C2971 0.999 . S
H2975 C2956 0.913 . S
H2976 C2994 0.951 . S
H2977 C2996 0.951 . S
H2978 C2998 0.950 . S
H2979 C2999 0.950 . S
H2980 C3001 0.950 . S
H2981 C3004 0.950 . S
H2982 C3005 0.950 . S
H2983 C3007 0.950 . S
H2984 C3008 0.950 . S
H2985 C3009 0.951 . S
H2986 C3011 0.951 . S
H2987 C3013 0.950 . S
H2988 C3014 0.950 . S
H2989 C3016 0.950 . S
H2990 C3019 0.950 . S
H2991 C3020 0.950 . S
H2992 C3022 0.950 . S
H2993 C3023 0.950 . S
C2994 H2976 0.951 . S
C2994 C2995 1.366 . S
C2994 C2996 1.388 . S
C2995 C2994 1.366 . S
C2995 C2999 1.385 1_554 S
C2996 H2977 0.951 . S
C2996 C2994 1.388 . S
C2996 C2997 1.366 . S
C2997 C2996 1.366 . S
C2997 C2998 1.414 1_554 S
C2997 C3000 1.499 . S
C2998 H2978 0.950 . S
C2998 C2997 1.414 1_556 S
C2998 C2999 1.374 . S
C2999 H2979 0.950 . S
C2999 C2995 1.385 1_556 S
C2999 C2998 1.374 . S
C3000 C2997 1.499 . S
C3000 C3001 1.373 1_554 S
C3000 C3002 1.389 . S
C3001 H2980 0.950 . S
C3001 C3000 1.373 1_556 S
C3001 C3017 1.377 . S
C3002 C3000 1.389 . S
C3002 C3003 1.524 . S
C3002 C3016 1.377 . S
C3003 C3002 1.524 . S
C3003 C3004 1.397 . S
C3003 C3008 1.363 . S
C3004 H2981 0.950 . S
C3004 C3003 1.397 . S
C3004 C3005 1.334 . S
C3005 H2982 0.950 . S
C3005 C3004 1.334 . S
C3005 C3006 1.287 . S
C3006 C3005 1.287 . S
C3006 C3007 1.524 . S
C3006 H3025 0.913 . S
C3007 H2983 0.950 . S
C3007 C3006 1.524 . S
C3007 C3008 1.415 . S
C3008 H2984 0.950 . S
C3008 C3003 1.363 . S
C3008 C3007 1.415 . S
C3009 H2985 0.951 . S
C3009 C3010 1.366 1_556 S
C3009 C3011 1.388 . S
C3010 C3009 1.366 1_554 S
C3010 C3014 1.385 . S
C3011 H2986 0.951 . S
C3011 C3009 1.388 . S
C3011 C3012 1.366 1_556 S
C3012 C3011 1.366 1_554 S
C3012 C3013 1.414 . S
C3012 C3015 1.499 . S
C3013 H2987 0.950 . S
C3013 C3012 1.414 . S
C3013 C3014 1.374 . S
C3014 H2988 0.950 . S
C3014 C3010 1.385 . S
C3014 C3013 1.374 . S
C3015 C3012 1.499 . S
C3015 C3016 1.373 . S
C3015 C3017 1.389 1_554 S
C3016 H2989 0.950 . S
C3016 C3002 1.377 . S
C3016 C3015 1.373 . S
C3017 C3001 1.377 . S
C3017 C3015 1.389 1_556 S
C3017 C3018 1.524 . S
C3018 C3017 1.524 . S
C3018 C3019 1.397 . S
C3018 C3023 1.363 . S
C3019 H2990 0.950 . S
C3019 C3018 1.397 . S
C3019 C3020 1.334 . S
C3020 H2991 0.950 . S
C3020 C3019 1.334 . S
C3020 C3021 1.287 . S
C3021 C3020 1.287 . S
C3021 C3022 1.524 . S
C3021 H3024 0.999 . S
C3022 H2992 0.950 . S
C3022 C3021 1.524 . S
C3022 C3023 1.415 . S
C3023 H2993 0.950 . S
C3023 C3018 1.363 . S
C3023 C3022 1.415 . S
H3024 C3021 0.999 . S
H3025 C3006 0.913 . S
H3026 C3044 0.934 1_556 S
H3027 C3046 0.911 1_556 S
H3028 C3048 0.950 . S
H3029 C3049 0.950 . S
H3030 C3051 0.950 . S
H3031 C3054 0.950 . S
H3032 C3055 0.950 . S
H3033 C3057 0.950 . S
H3034 C3058 0.950 . S
H3035 C3059 0.951 . S
H3036 C3061 0.951 . S
H3037 C3063 0.950 1_556 S
H3038 C3064 0.950 1_556 S
H3039 C3066 0.950 . S
H3040 C3069 0.950 . S
H3041 C3070 0.950 . S
H3042 C3072 0.950 . S
H3043 C3073 0.950 . S
C3044 H3026 0.934 1_554 S
C3044 C3045 1.366 . S
C3044 C3046 1.388 . S
C3045 C3044 1.366 . S
C3045 C3049 1.385 . S
C3046 H3027 0.911 1_554 S
C3046 C3044 1.388 . S
C3046 C3047 1.366 . S
C3047 C3046 1.366 . S
C3047 C3048 1.414 . S
C3047 C3050 1.499 . S
C3048 H3028 0.950 . S
C3048 C3047 1.414 . S
C3048 C3049 1.374 . S
C3049 H3029 0.950 . S
C3049 C3045 1.385 . S
C3049 C3048 1.374 . S
C3050 C3047 1.499 . S
C3050 C3051 1.373 . S
C3050 C3052 1.389 . S
C3051 H3030 0.950 . S
C3051 C3050 1.373 . S
C3051 C3067 1.377 . S
C3052 C3050 1.389 . S
C3052 C3053 1.524 . S
C3052 C3066 1.377 . S
C3053 C3052 1.524 . S
C3053 C3054 1.397 . S
C3053 C3058 1.363 . S
C3054 H3031 0.950 . S
C3054 C3053 1.397 . S
C3054 C3055 1.334 . S
C3055 H3032 0.950 . S
C3055 C3054 1.334 . S
C3055 C3056 1.287 . S
C3056 C3055 1.287 . S
C3056 C3057 1.524 . S
C3056 H3075 0.913 . S
C3057 H3033 0.950 . S
C3057 C3056 1.524 . S
C3057 C3058 1.415 . S
C3058 H3034 0.950 . S
C3058 C3053 1.363 . S
C3058 C3057 1.415 . S
C3059 H3035 0.951 . S
C3059 C3060 1.366 . S
C3059 C3061 1.388 . S
C3060 C3059 1.366 . S
C3060 C3064 1.385 . S
C3061 H3036 0.951 . S
C3061 C3059 1.388 . S
C3061 C3062 1.366 . S
C3062 C3061 1.366 . S
C3062 C3063 1.414 . S
C3062 C3065 1.499 . S
C3063 H3037 0.950 1_554 S
C3063 C3062 1.414 . S
C3063 C3064 1.374 . S
C3064 H3038 0.950 1_554 S
C3064 C3060 1.385 . S
C3064 C3063 1.374 . S
C3065 C3062 1.499 . S
C3065 C3066 1.373 . S
C3065 C3067 1.389 . S
C3066 H3039 0.950 . S
C3066 C3052 1.377 . S
C3066 C3065 1.373 . S
C3067 C3051 1.377 . S
C3067 C3065 1.389 . S
C3067 C3068 1.524 . S
C3068 C3067 1.524 . S
C3068 C3069 1.397 1_554 S
C3068 C3073 1.363 . S
C3069 H3040 0.950 . S
C3069 C3068 1.397 1_556 S
C3069 C3070 1.334 . S
C3070 H3041 0.950 . S
C3070 C3069 1.334 . S
C3070 C3071 1.287 . S
C3071 C3070 1.287 . S
C3071 C3072 1.524 1_556 S
C3071 H3074 0.999 . S
C3072 H3042 0.950 . S
C3072 C3071 1.524 1_554 S
C3072 C3073 1.415 . S
C3073 H3043 0.950 . S
C3073 C3068 1.363 . S
C3073 C3072 1.415 . S
H3074 C3071 0.999 . S
H3075 C3056 0.913 . S
H3076 C3094 0.951 . S
H3077 C3096 0.951 . S
H3078 C3098 0.950 . S
H3079 C3099 0.950 . S
H3080 C3101 0.950 . S
H3081 C3104 0.950 . S
H3082 C3105 0.950 . S
H3083 C3107 0.950 . S
H3084 C3108 0.950 . S
H3085 C3109 0.951 . S
H3086 C3111 0.951 . S
H3087 C3113 0.950 . S
H3088 C3114 0.950 . S
H3089 C3116 0.950 . S
H3090 C3119 0.950 . S
H3091 C3120 0.950 . S
H3092 C3122 0.950 . S
H3093 C3123 0.950 . S
C3094 H3076 0.951 . S
C3094 C3095 1.366 . S
C3094 C3096 1.388 . S
C3095 C3094 1.366 . S
C3095 C3099 1.385 . S
C3096 H3077 0.951 . S
C3096 C3094 1.388 . S
C3096 C3097 1.366 . S
C3097 C3096 1.366 . S
C3097 C3098 1.414 . S
C3097 C3100 1.499 . S
C3098 H3078 0.950 . S
C3098 C3097 1.414 . S
C3098 C3099 1.374 . S
C3099 H3079 0.950 . S
C3099 C3095 1.385 . S
C3099 C3098 1.374 . S
C3100 C3097 1.499 . S
C3100 C3101 1.373 . S
C3100 C3102 1.389 . S
C3101 H3080 0.950 . S
C3101 C3100 1.373 . S
C3101 C3117 1.377 . S
C3102 C3100 1.389 . S
C3102 C3103 1.524 . S
C3102 C3116 1.377 . S
C3103 C3102 1.524 . S
C3103 C3104 1.397 . S
C3103 C3108 1.363 . S
C3104 H3081 0.950 . S
C3104 C3103 1.397 . S
C3104 C3105 1.334 . S
C3105 H3082 0.950 . S
C3105 C3104 1.334 . S
C3105 C3106 1.287 . S
C3106 C3105 1.287 . S
C3106 C3107 1.524 . S
C3106 H3125 0.913 . S
C3107 H3083 0.950 . S
C3107 C3106 1.524 . S
C3107 C3108 1.415 . S
C3108 H3084 0.950 . S
C3108 C3103 1.363 . S
C3108 C3107 1.415 . S
C3109 H3085 0.951 . S
C3109 C3110 1.366 . S
C3109 C3111 1.388 . S
C3110 C3109 1.366 . S
C3110 C3114 1.385 . S
C3111 H3086 0.951 . S
C3111 C3109 1.388 . S
C3111 C3112 1.366 . S
C3112 C3111 1.366 . S
C3112 C3113 1.414 . S
C3112 C3115 1.499 . S
C3113 H3087 0.950 . S
C3113 C3112 1.414 . S
C3113 C3114 1.374 . S
C3114 H3088 0.950 . S
C3114 C3110 1.385 . S
C3114 C3113 1.374 . S
C3115 C3112 1.499 . S
C3115 C3116 1.373 . S
C3115 C3117 1.389 . S
C3116 H3089 0.950 . S
C3116 C3102 1.377 . S
C3116 C3115 1.373 . S
C3117 C3101 1.377 . S
C3117 C3115 1.389 . S
C3117 C3118 1.524 . S
C3118 C3117 1.524 . S
C3118 C3119 1.397 . S
C3118 C3123 1.363 . S
C3119 H3090 0.950 . S
C3119 C3118 1.397 . S
C3119 C3120 1.334 . S
C3120 H3091 0.950 . S
C3120 C3119 1.334 . S
C3120 C3121 1.287 . S
C3121 C3120 1.287 . S
C3121 C3122 1.524 . S
C3121 H3124 0.999 . S
C3122 H3092 0.950 . S
C3122 C3121 1.524 . S
C3122 C3123 1.415 . S
C3123 H3093 0.950 . S
C3123 C3118 1.363 . S
C3123 C3122 1.415 . S
H3124 C3121 0.999 . S
H3125 C3106 0.913 . S
H3126 C3144 0.951 . S
H3127 C3146 0.951 . S
H3128 C3148 0.950 . S
H3129 C3149 0.950 . S
H3130 C3151 0.950 . S
H3131 C3154 0.950 . S
H3132 C3155 0.950 . S
H3133 C3157 0.950 . S
H3134 C3158 0.950 . S
H3135 C3159 0.951 . S
H3136 C3161 0.951 . S
H3137 C3163 0.950 . S
H3138 C3164 0.950 . S
H3139 C3166 0.950 . S
H3140 C3169 0.950 . S
H3141 C3170 0.950 . S
H3142 C3172 0.950 . S
H3143 C3173 0.950 . S
C3144 H3126 0.951 . S
C3144 C3145 1.366 . S
C3144 C3146 1.388 . S
C3145 C3144 1.366 . S
C3145 C3149 1.385 . S
C3146 H3127 0.951 . S
C3146 C3144 1.388 . S
C3146 C3147 1.366 . S
C3147 C3146 1.366 . S
C3147 C3148 1.414 . S
C3147 C3150 1.499 . S
C3148 H3128 0.950 . S
C3148 C3147 1.414 . S
C3148 C3149 1.374 . S
C3149 H3129 0.950 . S
C3149 C3145 1.385 . S
C3149 C3148 1.374 . S
C3150 C3147 1.499 . S
C3150 C3151 1.373 . S
C3150 C3152 1.389 . S
C3151 H3130 0.950 . S
C3151 C3150 1.373 . S
C3151 C3167 1.377 . S
C3152 C3150 1.389 . S
C3152 C3153 1.524 . S
C3152 C3166 1.377 . S
C3153 C3152 1.524 . S
C3153 C3154 1.397 . S
C3153 C3158 1.363 . S
C3154 H3131 0.950 . S
C3154 C3153 1.397 . S
C3154 C3155 1.334 . S
C3155 H3132 0.950 . S
C3155 C3154 1.334 . S
C3155 C3156 1.287 . S
C3156 C3155 1.287 . S
C3156 C3157 1.524 . S
C3156 H3175 0.913 . S
C3157 H3133 0.950 . S
C3157 C3156 1.524 . S
C3157 C3158 1.415 . S
C3158 H3134 0.950 . S
C3158 C3153 1.363 . S
C3158 C3157 1.415 . S
C3159 H3135 0.951 . S
C3159 C3160 1.366 . S
C3159 C3161 1.388 . S
C3160 C3159 1.366 . S
C3160 C3164 1.385 . S
C3161 H3136 0.951 . S
C3161 C3159 1.388 . S
C3161 C3162 1.366 . S
C3162 C3161 1.366 . S
C3162 C3163 1.414 . S
C3162 C3165 1.499 . S
C3163 H3137 0.950 . S
C3163 C3162 1.414 . S
C3163 C3164 1.374 . S
C3164 H3138 0.950 . S
C3164 C3160 1.385 . S
C3164 C3163 1.374 . S
C3165 C3162 1.499 . S
C3165 C3166 1.373 . S
C3165 C3167 1.389 . S
C3166 H3139 0.950 . S
C3166 C3152 1.377 . S
C3166 C3165 1.373 . S
C3167 C3151 1.377 . S
C3167 C3165 1.389 . S
C3167 C3168 1.524 . S
C3168 C3167 1.524 . S
C3168 C3169 1.397 . S
C3168 C3173 1.363 . S
C3169 H3140 0.950 . S
C3169 C3168 1.397 . S
C3169 C3170 1.334 . S
C3170 H3141 0.950 . S
C3170 C3169 1.334 . S
C3170 C3171 1.287 . S
C3171 C3170 1.287 . S
C3171 C3172 1.524 . S
C3171 H3174 0.999 . S
C3172 H3142 0.950 . S
C3172 C3171 1.524 . S
C3172 C3173 1.415 . S
C3173 H3143 0.950 . S
C3173 C3168 1.363 . S
C3173 C3172 1.415 . S
H3174 C3171 0.999 . S
H3175 C3156 0.913 . S
H3176 C3194 0.988 . S
H3177 C3196 0.951 . S
H3178 C3198 0.950 . S
H3179 C3199 0.950 . S
H3180 C3201 0.950 . S
H3181 C3204 0.950 . S
H3182 C3205 0.950 . S
H3183 C3207 0.950 . S
H3184 C3208 0.950 . S
H3185 C3209 0.951 . S
H3186 C3211 0.951 . S
H3187 C3213 0.950 . S
H3188 C3214 0.950 . S
H3189 C3216 0.950 . S
H3190 C3219 0.950 . S
H3191 C3220 0.950 . S
H3192 C3222 0.950 . S
H3193 C3223 0.950 . S
C3194 H3176 0.988 . S
C3194 C3195 1.382 . S
C3194 C3196 1.337 1_545 S
C3195 C3194 1.382 . S
C3195 C3199 1.385 1_545 S
C3196 H3177 0.951 . S
C3196 C3194 1.337 1_565 S
C3196 C3197 1.366 . S
C3197 C3196 1.366 . S
C3197 C3198 1.414 . S
C3197 C3200 1.499 . S
C3198 H3178 0.950 . S
C3198 C3197 1.414 . S
C3198 C3199 1.374 . S
C3199 H3179 0.950 . S
C3199 C3195 1.385 1_565 S
C3199 C3198 1.374 . S
C3200 C3197 1.499 . S
C3200 C3201 1.373 . S
C3200 C3202 1.389 . S
C3201 H3180 0.950 . S
C3201 C3200 1.373 . S
C3201 C3217 1.377 . S
C3202 C3200 1.389 . S
C3202 C3203 1.524 . S
C3202 C3216 1.377 . S
C3203 C3202 1.524 . S
C3203 C3204 1.397 . S
C3203 C3208 1.363 . S
C3204 H3181 0.950 . S
C3204 C3203 1.397 . S
C3204 C3205 1.334 . S
C3205 H3182 0.950 . S
C3205 C3204 1.334 . S
C3205 C3206 1.287 . S
C3206 C3205 1.287 . S
C3206 C3207 1.524 . S
C3206 H3225 0.913 . S
C3207 H3183 0.950 . S
C3207 C3206 1.524 . S
C3207 C3208 1.415 . S
C3208 H3184 0.950 . S
C3208 C3203 1.363 . S
C3208 C3207 1.415 . S
C3209 H3185 0.951 . S
C3209 C3210 1.366 . S
C3209 C3211 1.388 . S
C3210 C3209 1.366 . S
C3210 C3214 1.385 . S
C3211 H3186 0.951 . S
C3211 C3209 1.388 . S
C3211 C3212 1.366 . S
C3212 C3211 1.366 . S
C3212 C3213 1.414 . S
C3212 C3215 1.499 . S
C3213 H3187 0.950 . S
C3213 C3212 1.414 . S
C3213 C3214 1.374 . S
C3214 H3188 0.950 . S
C3214 C3210 1.385 . S
C3214 C3213 1.374 . S
C3215 C3212 1.499 . S
C3215 C3216 1.373 . S
C3215 C3217 1.389 . S
C3216 H3189 0.950 . S
C3216 C3202 1.377 . S
C3216 C3215 1.373 . S
C3217 C3201 1.377 . S
C3217 C3215 1.389 . S
C3217 C3218 1.524 . S
C3218 C3217 1.524 . S
C3218 C3219 1.397 . S
C3218 C3223 1.363 . S
C3219 H3190 0.950 . S
C3219 C3218 1.397 . S
C3219 C3220 1.334 . S
C3220 H3191 0.950 . S
C3220 C3219 1.334 . S
C3220 C3221 1.287 . S
C3221 C3220 1.287 . S
C3221 C3222 1.524 . S
C3221 H3224 0.999 . S
C3222 H3192 0.950 . S
C3222 C3221 1.524 . S
C3222 C3223 1.415 . S
C3223 H3193 0.950 . S
C3223 C3218 1.363 . S
C3223 C3222 1.415 . S
H3224 C3221 0.999 . S
H3225 C3206 0.913 . S
H3226 C3244 0.951 . S
H3227 C3246 0.951 . S
H3228 C3248 0.950 . S
H3229 C3249 0.950 . S
H3230 C3251 0.950 . S
H3231 C3254 0.950 . S
H3232 C3255 0.950 . S
H3233 C3257 0.950 . S
H3234 C3258 0.950 . S
H3235 C3259 0.951 . S
H3236 C3261 0.951 . S
H3237 C3263 0.950 . S
H3238 C3264 0.950 . S
H3239 C3266 0.950 . S
H3240 C3269 0.950 . S
H3241 C3270 0.950 . S
H3242 C3272 0.950 . S
H3243 C3273 0.950 . S
C3244 H3226 0.951 . S
C3244 C3245 1.366 . S
C3244 C3246 1.388 . S
C3245 C3244 1.366 . S
C3245 C3249 1.385 . S
C3246 H3227 0.951 . S
C3246 C3244 1.388 . S
C3246 C3247 1.366 . S
C3247 C3246 1.366 . S
C3247 C3248 1.414 . S
C3247 C3250 1.499 . S
C3248 H3228 0.950 . S
C3248 C3247 1.414 . S
C3248 C3249 1.374 . S
C3249 H3229 0.950 . S
C3249 C3245 1.385 . S
C3249 C3248 1.374 . S
C3250 C3247 1.499 . S
C3250 C3251 1.373 . S
C3250 C3252 1.389 . S
C3251 H3230 0.950 . S
C3251 C3250 1.373 . S
C3251 C3267 1.377 . S
C3252 C3250 1.389 . S
C3252 C3253 1.524 . S
C3252 C3266 1.377 . S
C3253 C3252 1.524 . S
C3253 C3254 1.397 . S
C3253 C3258 1.363 . S
C3254 H3231 0.950 . S
C3254 C3253 1.397 . S
C3254 C3255 1.334 . S
C3255 H3232 0.950 . S
C3255 C3254 1.334 . S
C3255 C3256 1.287 . S
C3256 C3255 1.287 . S
C3256 C3257 1.524 . S
C3256 H3275 0.913 . S
C3257 H3233 0.950 . S
C3257 C3256 1.524 . S
C3257 C3258 1.415 . S
C3258 H3234 0.950 . S
C3258 C3253 1.363 . S
C3258 C3257 1.415 . S
C3259 H3235 0.951 . S
C3259 C3260 1.366 . S
C3259 C3261 1.388 . S
C3260 C3259 1.366 . S
C3260 C3264 1.385 . S
C3261 H3236 0.951 . S
C3261 C3259 1.388 . S
C3261 C3262 1.366 . S
C3262 C3261 1.366 . S
C3262 C3263 1.414 . S
C3262 C3265 1.499 . S
C3263 H3237 0.950 . S
C3263 C3262 1.414 . S
C3263 C3264 1.374 . S
C3264 H3238 0.950 . S
C3264 C3260 1.385 . S
C3264 C3263 1.374 . S
C3265 C3262 1.499 . S
C3265 C3266 1.373 . S
C3265 C3267 1.389 . S
C3266 H3239 0.950 . S
C3266 C3252 1.377 . S
C3266 C3265 1.373 . S
C3267 C3251 1.377 . S
C3267 C3265 1.389 . S
C3267 C3268 1.524 . S
C3268 C3267 1.524 . S
C3268 C3269 1.397 . S
C3268 C3273 1.363 . S
C3269 H3240 0.950 . S
C3269 C3268 1.397 . S
C3269 C3270 1.334 . S
C3270 H3241 0.950 . S
C3270 C3269 1.334 . S
C3270 C3271 1.287 . S
C3271 C3270 1.287 . S
C3271 C3272 1.524 . S
C3271 H3274 0.999 . S
C3272 H3242 0.950 . S
C3272 C3271 1.524 . S
C3272 C3273 1.415 . S
C3273 H3243 0.950 . S
C3273 C3268 1.363 . S
C3273 C3272 1.415 . S
H3274 C3271 0.999 . S
H3275 C3256 0.913 . S
H3276 C3294 0.951 . S
H3277 C3296 0.951 . S
H3278 C3298 0.950 . S
H3279 C3299 0.950 . S
H3280 C3301 0.950 . S
H3281 C3304 0.950 . S
H3282 C3305 0.950 . S
H3283 C3307 0.950 . S
H3284 C3308 0.950 . S
H3285 C3309 0.951 . S
H3286 C3311 0.951 . S
H3287 C3313 0.950 . S
H3288 C3314 0.950 . S
H3289 C3316 0.950 . S
H3290 C3319 0.950 . S
H3291 C3320 0.950 . S
H3292 C3322 0.950 . S
H3293 C3323 0.950 . S
C3294 H3276 0.951 . S
C3294 C3295 1.366 . S
C3294 C3296 1.388 . S
C3295 C3294 1.366 . S
C3295 C3299 1.385 . S
C3296 H3277 0.951 . S
C3296 C3294 1.388 . S
C3296 C3297 1.366 . S
C3297 C3296 1.366 . S
C3297 C3298 1.414 . S
C3297 C3300 1.499 . S
C3298 H3278 0.950 . S
C3298 C3297 1.414 . S
C3298 C3299 1.374 . S
C3299 H3279 0.950 . S
C3299 C3295 1.385 . S
C3299 C3298 1.374 . S
C3300 C3297 1.499 . S
C3300 C3301 1.373 . S
C3300 C3302 1.389 . S
C3301 H3280 0.950 . S
C3301 C3300 1.373 . S
C3301 C3317 1.377 . S
C3302 C3300 1.389 . S
C3302 C3303 1.524 . S
C3302 C3316 1.377 . S
C3303 C3302 1.524 . S
C3303 C3304 1.397 . S
C3303 C3308 1.363 . S
C3304 H3281 0.950 . S
C3304 C3303 1.397 . S
C3304 C3305 1.334 . S
C3305 H3282 0.950 . S
C3305 C3304 1.334 . S
C3305 C3306 1.287 . S
C3306 C3305 1.287 . S
C3306 C3307 1.524 . S
C3306 H3325 0.913 . S
C3307 H3283 0.950 . S
C3307 C3306 1.524 . S
C3307 C3308 1.415 . S
C3308 H3284 0.950 . S
C3308 C3303 1.363 . S
C3308 C3307 1.415 . S
C3309 H3285 0.951 . S
C3309 C3310 1.366 . S
C3309 C3311 1.388 . S
C3310 C3309 1.366 . S
C3310 C3314 1.385 . S
C3311 H3286 0.951 . S
C3311 C3309 1.388 . S
C3311 C3312 1.366 . S
C3312 C3311 1.366 . S
C3312 C3313 1.414 . S
C3312 C3315 1.499 . S
C3313 H3287 0.950 . S
C3313 C3312 1.414 . S
C3313 C3314 1.374 . S
C3314 H3288 0.950 . S
C3314 C3310 1.385 . S
C3314 C3313 1.374 . S
C3315 C3312 1.499 . S
C3315 C3316 1.373 . S
C3315 C3317 1.389 . S
C3316 H3289 0.950 . S
C3316 C3302 1.377 . S
C3316 C3315 1.373 . S
C3317 C3301 1.377 . S
C3317 C3315 1.389 . S
C3317 C3318 1.524 . S
C3318 C3317 1.524 . S
C3318 C3319 1.397 . S
C3318 C3323 1.363 . S
C3319 H3290 0.950 . S
C3319 C3318 1.397 . S
C3319 C3320 1.334 . S
C3320 H3291 0.950 . S
C3320 C3319 1.334 . S
C3320 C3321 1.287 . S
C3321 C3320 1.287 . S
C3321 C3322 1.524 . S
C3321 H3324 0.999 . S
C3322 H3292 0.950 . S
C3322 C3321 1.524 . S
C3322 C3323 1.415 . S
C3323 H3293 0.950 . S
C3323 C3318 1.363 . S
C3323 C3322 1.415 . S
H3324 C3321 0.999 . S
H3325 C3306 0.913 . S
H3326 C3344 0.951 . S
H3327 C3346 0.951 . S
H3328 C3348 0.950 . S
H3329 C3349 0.950 . S
H3330 C3351 0.950 . S
H3331 C3354 0.950 . S
H3332 C3355 0.950 . S
H3333 C3357 0.950 . S
H3334 C3358 0.950 . S
H3335 C3359 0.951 . S
H3336 C3361 0.951 . S
H3337 C3363 0.950 . S
H3338 C3364 0.950 . S
H3339 C3366 0.950 . S
H3340 C3369 0.950 . S
H3341 C3370 0.950 . S
H3342 C3372 0.950 . S
H3343 C3373 0.950 . S
C3344 H3326 0.951 . S
C3344 C3345 1.366 . S
C3344 C3346 1.388 . S
C3345 C3344 1.366 . S
C3345 C3349 1.385 . S
C3346 H3327 0.951 . S
C3346 C3344 1.388 . S
C3346 C3347 1.366 . S
C3347 C3346 1.366 . S
C3347 C3348 1.414 . S
C3347 C3350 1.499 . S
C3348 H3328 0.950 . S
C3348 C3347 1.414 . S
C3348 C3349 1.374 . S
C3349 H3329 0.950 . S
C3349 C3345 1.385 . S
C3349 C3348 1.374 . S
C3350 C3347 1.499 . S
C3350 C3351 1.373 . S
C3350 C3352 1.389 . S
C3351 H3330 0.950 . S
C3351 C3350 1.373 . S
C3351 C3367 1.377 . S
C3352 C3350 1.389 . S
C3352 C3353 1.524 . S
C3352 C3366 1.377 . S
C3353 C3352 1.524 . S
C3353 C3354 1.397 . S
C3353 C3358 1.363 . S
C3354 H3331 0.950 . S
C3354 C3353 1.397 . S
C3354 C3355 1.334 . S
C3355 H3332 0.950 . S
C3355 C3354 1.334 . S
C3355 C3356 1.287 . S
C3356 C3355 1.287 . S
C3356 C3357 1.524 . S
C3356 H3375 0.913 . S
C3357 H3333 0.950 . S
C3357 C3356 1.524 . S
C3357 C3358 1.415 . S
C3358 H3334 0.950 . S
C3358 C3353 1.363 . S
C3358 C3357 1.415 . S
C3359 H3335 0.951 . S
C3359 C3360 1.366 . S
C3359 C3361 1.388 . S
C3360 C3359 1.366 . S
C3360 C3364 1.385 . S
C3361 H3336 0.951 . S
C3361 C3359 1.388 . S
C3361 C3362 1.366 . S
C3362 C3361 1.366 . S
C3362 C3363 1.414 . S
C3362 C3365 1.499 . S
C3363 H3337 0.950 . S
C3363 C3362 1.414 . S
C3363 C3364 1.374 . S
C3364 H3338 0.950 . S
C3364 C3360 1.385 . S
C3364 C3363 1.374 . S
C3365 C3362 1.499 . S
C3365 C3366 1.373 . S
C3365 C3367 1.389 . S
C3366 H3339 0.950 . S
C3366 C3352 1.377 . S
C3366 C3365 1.373 . S
C3367 C3351 1.377 . S
C3367 C3365 1.389 . S
C3367 C3368 1.524 . S
C3368 C3367 1.524 . S
C3368 C3369 1.397 . S
C3368 C3373 1.363 . S
C3369 H3340 0.950 . S
C3369 C3368 1.397 . S
C3369 C3370 1.334 . S
C3370 H3341 0.950 . S
C3370 C3369 1.334 . S
C3370 C3371 1.287 . S
C3371 C3370 1.287 . S
C3371 C3372 1.524 . S
C3371 H3374 0.999 . S
C3372 H3342 0.950 . S
C3372 C3371 1.524 . S
C3372 C3373 1.415 . S
C3373 H3343 0.950 . S
C3373 C3368 1.363 . S
C3373 C3372 1.415 . S
H3374 C3371 0.999 . S
H3375 C3356 0.913 . S
H3376 C3394 0.951 . S
H3377 C3396 0.951 . S
H3378 C3398 0.950 . S
H3379 C3399 0.950 . S
H3380 C3401 0.950 . S
H3381 C3404 0.950 . S
H3382 C3405 0.950 . S
H3383 C3407 0.950 . S
H3384 C3408 0.950 . S
H3385 C3409 0.951 . S
H3386 C3411 0.951 . S
H3387 C3413 0.950 . S
H3388 C3414 0.950 . S
H3389 C3416 0.950 . S
H3390 C3419 0.950 . S
H3391 C3420 0.950 . S
H3392 C3422 0.950 . S
H3393 C3423 0.950 . S
C3394 H3376 0.951 . S
C3394 C3395 1.366 . S
C3394 C3396 1.388 . S
C3395 C3394 1.366 . S
C3395 C3399 1.385 . S
C3396 H3377 0.951 . S
C3396 C3394 1.388 . S
C3396 C3397 1.366 . S
C3397 C3396 1.366 . S
C3397 C3398 1.414 . S
C3397 C3400 1.499 . S
C3398 H3378 0.950 . S
C3398 C3397 1.414 . S
C3398 C3399 1.374 . S
C3399 H3379 0.950 . S
C3399 C3395 1.385 . S
C3399 C3398 1.374 . S
C3400 C3397 1.499 . S
C3400 C3401 1.373 . S
C3400 C3402 1.389 . S
C3401 H3380 0.950 . S
C3401 C3400 1.373 . S
C3401 C3417 1.377 . S
C3402 C3400 1.389 . S
C3402 C3403 1.524 . S
C3402 C3416 1.377 . S
C3403 C3402 1.524 . S
C3403 C3404 1.397 . S
C3403 C3408 1.363 . S
C3404 H3381 0.950 . S
C3404 C3403 1.397 . S
C3404 C3405 1.334 . S
C3405 H3382 0.950 . S
C3405 C3404 1.334 . S
C3405 C3406 1.287 . S
C3406 C3405 1.287 . S
C3406 C3407 1.524 . S
C3406 H3425 0.913 . S
C3407 H3383 0.950 . S
C3407 C3406 1.524 . S
C3407 C3408 1.415 . S
C3408 H3384 0.950 . S
C3408 C3403 1.363 . S
C3408 C3407 1.415 . S
C3409 H3385 0.951 . S
C3409 C3410 1.366 . S
C3409 C3411 1.388 . S
C3410 C3409 1.366 . S
C3410 C3414 1.385 . S
C3411 H3386 0.951 . S
C3411 C3409 1.388 . S
C3411 C3412 1.366 . S
C3412 C3411 1.366 . S
C3412 C3413 1.414 . S
C3412 C3415 1.499 . S
C3413 H3387 0.950 . S
C3413 C3412 1.414 . S
C3413 C3414 1.374 . S
C3414 H3388 0.950 . S
C3414 C3410 1.385 . S
C3414 C3413 1.374 . S
C3415 C3412 1.499 . S
C3415 C3416 1.373 . S
C3415 C3417 1.389 . S
C3416 H3389 0.950 . S
C3416 C3402 1.377 . S
C3416 C3415 1.373 . S
C3417 C3401 1.377 . S
C3417 C3415 1.389 . S
C3417 C3418 1.524 . S
C3418 C3417 1.524 . S
C3418 C3419 1.397 . S
C3418 C3423 1.363 . S
C3419 H3390 0.950 . S
C3419 C3418 1.397 . S
C3419 C3420 1.334 . S
C3420 H3391 0.950 . S
C3420 C3419 1.334 . S
C3420 C3421 1.287 . S
C3421 C3420 1.287 . S
C3421 C3422 1.524 . S
C3421 H3424 0.999 . S
C3422 H3392 0.950 . S
C3422 C3421 1.524 . S
C3422 C3423 1.415 . S
C3423 H3393 0.950 . S
C3423 C3418 1.363 . S
C3423 C3422 1.415 . S
H3424 C3421 0.999 . S
H3425 C3406 0.913 . S
H3426 C3444 0.951 . S
H3427 C3446 0.951 . S
H3428 C3448 0.950 . S
H3429 C3449 0.950 . S
H3430 C3451 0.950 . S
H3431 C3454 0.950 . S
H3432 C3455 0.950 . S
H3433 C3457 0.950 . S
H3434 C3458 0.950 . S
H3435 C3459 0.951 . S
H3436 C3461 0.951 . S
H3437 C3463 0.950 . S
H3438 C3464 0.950 . S
H3439 C3466 0.950 . S
H3440 C3469 0.950 . S
H3441 C3470 0.950 . S
H3442 C3472 0.950 . S
H3443 C3473 0.950 . S
C3444 H3426 0.951 . S
C3444 C3445 1.366 . S
C3444 C3446 1.388 . S
C3445 C3444 1.366 . S
C3445 C3449 1.385 . S
C3446 H3427 0.951 . S
C3446 C3444 1.388 . S
C3446 C3447 1.366 . S
C3447 C3446 1.366 . S
C3447 C3448 1.414 . S
C3447 C3450 1.499 . S
C3448 H3428 0.950 . S
C3448 C3447 1.414 . S
C3448 C3449 1.374 . S
C3449 H3429 0.950 . S
C3449 C3445 1.385 . S
C3449 C3448 1.374 . S
C3450 C3447 1.499 . S
C3450 C3451 1.373 . S
C3450 C3452 1.389 . S
C3451 H3430 0.950 . S
C3451 C3450 1.373 . S
C3451 C3467 1.377 . S
C3452 C3450 1.389 . S
C3452 C3453 1.524 . S
C3452 C3466 1.377 . S
C3453 C3452 1.524 . S
C3453 C3454 1.397 . S
C3453 C3458 1.363 . S
C3454 H3431 0.950 . S
C3454 C3453 1.397 . S
C3454 C3455 1.334 . S
C3455 H3432 0.950 . S
C3455 C3454 1.334 . S
C3455 C3456 1.287 . S
C3456 C3455 1.287 . S
C3456 C3457 1.524 . S
C3456 H3475 0.913 . S
C3457 H3433 0.950 . S
C3457 C3456 1.524 . S
C3457 C3458 1.415 . S
C3458 H3434 0.950 . S
C3458 C3453 1.363 . S
C3458 C3457 1.415 . S
C3459 H3435 0.951 . S
C3459 C3460 1.366 . S
C3459 C3461 1.388 . S
C3460 C3459 1.366 . S
C3460 C3464 1.385 . S
C3461 H3436 0.951 . S
C3461 C3459 1.388 . S
C3461 C3462 1.366 . S
C3462 C3461 1.366 . S
C3462 C3463 1.414 . S
C3462 C3465 1.499 . S
C3463 H3437 0.950 . S
C3463 C3462 1.414 . S
C3463 C3464 1.374 . S
C3464 H3438 0.950 . S
C3464 C3460 1.385 . S
C3464 C3463 1.374 . S
C3465 C3462 1.499 . S
C3465 C3466 1.373 . S
C3465 C3467 1.389 . S
C3466 H3439 0.950 . S
C3466 C3452 1.377 . S
C3466 C3465 1.373 . S
C3467 C3451 1.377 . S
C3467 C3465 1.389 . S
C3467 C3468 1.524 . S
C3468 C3467 1.524 . S
C3468 C3469 1.397 . S
C3468 C3473 1.363 . S
C3469 H3440 0.950 . S
C3469 C3468 1.397 . S
C3469 C3470 1.334 . S
C3470 H3441 0.950 . S
C3470 C3469 1.334 . S
C3470 C3471 1.287 . S
C3471 C3470 1.287 . S
C3471 C3472 1.524 . S
C3471 H3474 0.999 . S
C3472 H3442 0.950 . S
C3472 C3471 1.524 . S
C3472 C3473 1.415 . S
C3473 H3443 0.950 . S
C3473 C3468 1.363 . S
C3473 C3472 1.415 . S
H3474 C3471 0.999 . S
H3475 C3456 0.913 . S
H3476 C3494 0.931 1_655 S
H3477 C3496 0.951 1_655 S
H3478 C3498 0.950 . S
H3479 C3499 0.950 . S
H3480 C3501 0.950 . S
H3481 C3504 0.950 1_455 S
H3482 C3505 0.950 . S
H3483 C3507 0.950 . S
H3484 C3508 0.950 . S
H3485 C3509 0.951 . S
H3486 C3511 0.951 . S
H3487 C3513 0.950 . S
H3488 C3514 0.950 . S
H3489 C3516 0.950 1_655 S
H3490 C3519 0.950 . S
H3491 C3520 0.950 . S
H3492 C3522 0.950 . S
H3493 C3523 0.950 . S
C3494 H3476 0.931 1_455 S
C3494 C3495 1.389 . S
C3494 C3496 1.385 . S
C3495 C3494 1.389 . S
C3495 C3499 1.385 . S
C3496 H3477 0.951 1_455 S
C3496 C3494 1.385 . S
C3496 C3497 1.366 . S
C3497 C3496 1.366 . S
C3497 C3498 1.414 . S
C3497 C3500 1.499 . S
C3498 H3478 0.950 . S
C3498 C3497 1.414 . S
C3498 C3499 1.374 . S
C3499 H3479 0.950 . S
C3499 C3495 1.385 . S
C3499 C3498 1.374 . S
C3500 C3497 1.499 . S
C3500 C3501 1.373 . S
C3500 C3502 1.389 . S
C3501 H3480 0.950 . S
C3501 C3500 1.373 . S
C3501 C3517 1.377 . S
C3502 C3500 1.389 . S
C3502 C3503 1.524 1_455 S
C3502 C3516 1.377 . S
C3503 C3502 1.524 1_655 S
C3503 C3504 1.397 . S
C3503 C3508 1.363 . S
C3504 H3481 0.950 1_655 S
C3504 C3503 1.397 . S
C3504 C3505 1.334 . S
C3505 H3482 0.950 . S
C3505 C3504 1.334 . S
C3505 C3506 1.287 . S
C3506 C3505 1.287 . S
C3506 C3507 1.524 . S
C3506 H3525 0.913 . S
C3507 H3483 0.950 . S
C3507 C3506 1.524 . S
C3507 C3508 1.415 . S
C3508 H3484 0.950 . S
C3508 C3503 1.363 . S
C3508 C3507 1.415 . S
C3509 H3485 0.951 . S
C3509 C3510 1.366 1_556 S
C3509 C3511 1.388 . S
C3510 C3509 1.366 1_554 S
C3510 C3514 1.385 . S
C3511 H3486 0.951 . S
C3511 C3509 1.388 . S
C3511 C3512 1.366 . S
C3512 C3511 1.366 . S
C3512 C3513 1.414 . S
C3512 C3515 1.499 . S
C3513 H3487 0.950 . S
C3513 C3512 1.414 . S
C3513 C3514 1.374 1_556 S
C3514 H3488 0.950 . S
C3514 C3510 1.385 . S
C3514 C3513 1.374 1_554 S
C3515 C3512 1.499 . S
C3515 C3516 1.373 . S
C3515 C3517 1.389 . S
C3516 H3489 0.950 1_455 S
C3516 C3502 1.377 . S
C3516 C3515 1.373 . S
C3517 C3501 1.377 . S
C3517 C3515 1.389 . S
C3517 C3518 1.524 . S
C3518 C3517 1.524 . S
C3518 C3519 1.397 1_556 S
C3518 C3523 1.363 . S
C3519 H3490 0.950 . S
C3519 C3518 1.397 1_554 S
C3519 C3520 1.334 . S
C3520 H3491 0.950 . S
C3520 C3519 1.334 . S
C3520 C3521 1.287 . S
C3521 C3520 1.287 . S
C3521 C3522 1.524 1_554 S
C3521 H3524 0.999 . S
C3522 H3492 0.950 . S
C3522 C3521 1.524 1_556 S
C3522 C3523 1.415 . S
C3523 H3493 0.950 . S
C3523 C3518 1.363 . S
C3523 C3522 1.415 . S
H3524 C3521 0.999 . S
H3525 C3506 0.913 . S
H3526 C3544 0.951 . S
H3527 C3546 0.951 . S
H3528 C3548 0.951 . S
H3529 C3549 0.950 . S
H3530 C3551 0.950 . S
H3531 C3554 0.950 . S
H3532 C3555 0.950 . S
H3533 C3557 0.950 . S
H3534 C3558 0.950 . S
H3535 C3559 0.951 . S
H3536 C3561 0.951 . S
H3537 C3563 0.950 . S
H3538 C3564 0.950 . S
H3539 C3566 0.950 . S
H3540 C3569 0.950 . S
H3541 C3570 0.950 . S
H3542 C3572 0.950 . S
H3543 C3573 0.950 . S
C3544 H3526 0.951 . S
C3544 C3545 1.373 . S
C3544 C3546 1.379 1_455 S
C3545 C3544 1.373 . S
C3545 C3549 1.385 . S
C3546 H3527 0.951 . S
C3546 C3544 1.379 1_655 S
C3546 C3547 1.366 . S
C3547 C3546 1.366 . S
C3547 C3548 1.404 1_655 S
C3547 C3550 1.499 . S
C3548 H3528 0.951 . S
C3548 C3547 1.404 1_455 S
C3548 C3549 1.385 . S
C3549 H3529 0.950 . S
C3549 C3545 1.385 . S
C3549 C3548 1.385 . S
C3550 C3547 1.499 . S
C3550 C3551 1.373 . S
C3550 C3552 1.389 . S
C3551 H3530 0.950 . S
C3551 C3550 1.373 . S
C3551 C3567 1.377 . S
C3552 C3550 1.389 . S
C3552 C3553 1.524 . S
C3552 C3566 1.377 . S
C3553 C3552 1.524 . S
C3553 C3554 1.397 . S
C3553 C3558 1.363 . S
C3554 H3531 0.950 . S
C3554 C3553 1.397 . S
C3554 C3555 1.334 . S
C3555 H3532 0.950 . S
C3555 C3554 1.334 . S
C3555 C3556 1.287 . S
C3556 C3555 1.287 . S
C3556 C3557 1.524 . S
C3556 H3575 0.913 . S
C3557 H3533 0.950 . S
C3557 C3556 1.524 . S
C3557 C3558 1.415 . S
C3558 H3534 0.950 . S
C3558 C3553 1.363 . S
C3558 C3557 1.415 . S
C3559 H3535 0.951 . S
C3559 C3560 1.366 . S
C3559 C3561 1.388 . S
C3560 C3559 1.366 . S
C3560 C3564 1.385 . S
C3561 H3536 0.951 . S
C3561 C3559 1.388 . S
C3561 C3562 1.366 . S
C3562 C3561 1.366 . S
C3562 C3563 1.414 . S
C3562 C3565 1.499 . S
C3563 H3537 0.950 . S
C3563 C3562 1.414 . S
C3563 C3564 1.374 . S
C3564 H3538 0.950 . S
C3564 C3560 1.385 . S
C3564 C3563 1.374 . S
C3565 C3562 1.499 . S
C3565 C3566 1.373 . S
C3565 C3567 1.389 . S
C3566 H3539 0.950 . S
C3566 C3552 1.377 . S
C3566 C3565 1.373 . S
C3567 C3551 1.377 . S
C3567 C3565 1.389 . S
C3567 C3568 1.524 . S
C3568 C3567 1.524 . S
C3568 C3569 1.397 . S
C3568 C3573 1.363 . S
C3569 H3540 0.950 . S
C3569 C3568 1.397 . S
C3569 C3570 1.334 . S
C3570 H3541 0.950 . S
C3570 C3569 1.334 . S
C3570 C3571 1.287 . S
C3571 C3570 1.287 . S
C3571 C3572 1.524 . S
C3571 H3574 0.999 . S
C3572 H3542 0.950 . S
C3572 C3571 1.524 . S
C3572 C3573 1.415 . S
C3573 H3543 0.950 . S
C3573 C3568 1.363 . S
C3573 C3572 1.415 . S
H3574 C3571 0.999 . S
H3575 C3556 0.913 . S
H3576 C3594 0.951 . S
H3577 C3596 0.951 . S
H3578 C3598 0.950 . S
H3579 C3599 0.950 . S
H3580 C3601 0.950 . S
H3581 C3604 0.950 . S
H3582 C3605 0.950 . S
H3583 C3607 0.950 . S
H3584 C3608 0.950 . S
H3585 C3609 0.951 . S
H3586 C3611 0.951 . S
H3587 C3613 0.950 . S
H3588 C3614 0.950 . S
H3589 C3616 0.950 . S
H3590 C3619 0.950 . S
H3591 C3620 0.950 . S
H3592 C3622 0.950 . S
H3593 C3623 0.950 . S
C3594 H3576 0.951 . S
C3594 C3595 1.366 . S
C3594 C3596 1.388 . S
C3595 C3594 1.366 . S
C3595 C3599 1.385 . S
C3596 H3577 0.951 . S
C3596 C3594 1.388 . S
C3596 C3597 1.366 . S
C3597 C3596 1.366 . S
C3597 C3598 1.414 . S
C3597 C3600 1.499 . S
C3598 H3578 0.950 . S
C3598 C3597 1.414 . S
C3598 C3599 1.374 . S
C3599 H3579 0.950 . S
C3599 C3595 1.385 . S
C3599 C3598 1.374 . S
C3600 C3597 1.499 . S
C3600 C3601 1.373 . S
C3600 C3602 1.389 . S
C3601 H3580 0.950 . S
C3601 C3600 1.373 . S
C3601 C3617 1.377 . S
C3602 C3600 1.389 . S
C3602 C3603 1.524 . S
C3602 C3616 1.377 . S
C3603 C3602 1.524 . S
C3603 C3604 1.397 . S
C3603 C3608 1.363 . S
C3604 H3581 0.950 . S
C3604 C3603 1.397 . S
C3604 C3605 1.334 . S
C3605 H3582 0.950 . S
C3605 C3604 1.334 . S
C3605 C3606 1.287 . S
C3606 C3605 1.287 . S
C3606 C3607 1.524 . S
C3606 H3625 0.913 . S
C3607 H3583 0.950 . S
C3607 C3606 1.524 . S
C3607 C3608 1.415 . S
C3608 H3584 0.950 . S
C3608 C3603 1.363 . S
C3608 C3607 1.415 . S
C3609 H3585 0.951 . S
C3609 C3610 1.366 . S
C3609 C3611 1.388 . S
C3610 C3609 1.366 . S
C3610 C3614 1.385 . S
C3611 H3586 0.951 . S
C3611 C3609 1.388 . S
C3611 C3612 1.366 . S
C3612 C3611 1.366 . S
C3612 C3613 1.414 . S
C3612 C3615 1.499 . S
C3613 H3587 0.950 . S
C3613 C3612 1.414 . S
C3613 C3614 1.374 . S
C3614 H3588 0.950 . S
C3614 C3610 1.385 . S
C3614 C3613 1.374 . S
C3615 C3612 1.499 . S
C3615 C3616 1.373 . S
C3615 C3617 1.389 . S
C3616 H3589 0.950 . S
C3616 C3602 1.377 . S
C3616 C3615 1.373 . S
C3617 C3601 1.377 . S
C3617 C3615 1.389 . S
C3617 C3618 1.524 . S
C3618 C3617 1.524 . S
C3618 C3619 1.397 . S
C3618 C3623 1.363 . S
C3619 H3590 0.950 . S
C3619 C3618 1.397 . S
C3619 C3620 1.334 . S
C3620 H3591 0.950 . S
C3620 C3619 1.334 . S
C3620 C3621 1.287 . S
C3621 C3620 1.287 . S
C3621 C3622 1.524 . S
C3621 H3624 0.999 . S
C3622 H3592 0.950 . S
C3622 C3621 1.524 . S
C3622 C3623 1.415 . S
C3623 H3593 0.950 . S
C3623 C3618 1.363 . S
C3623 C3622 1.415 . S
H3624 C3621 0.999 . S
H3625 C3606 0.913 . S
H3626 C3644 0.951 . S
H3627 C3646 0.951 . S
H3628 C3648 0.950 1_655 S
H3629 C3649 0.950 . S
H3630 C3651 0.950 . S
H3631 C3654 0.961 . S
H3632 C3655 0.950 . S
H3633 C3657 0.950 . S
H3634 C3658 0.950 . S
H3635 C3659 0.951 . S
H3636 C3661 0.951 . S
H3637 C3663 0.950 . S
H3638 C3664 0.950 . S
H3639 C3666 0.950 . S
H3640 C3669 0.950 . S
H3641 C3670 0.950 . S
H3642 C3672 0.950 . S
H3643 C3673 0.950 . S
C3644 H3626 0.951 . S
C3644 C3645 1.366 . S
C3644 C3646 1.388 . S
C3645 C3644 1.366 . S
C3645 C3649 1.385 . S
C3646 H3627 0.951 . S
C3646 C3644 1.388 . S
C3646 C3647 1.379 . S
C3647 C3646 1.379 . S
C3647 C3648 1.415 . S
C3647 C3650 1.485 1_455 S
C3648 H3628 0.950 1_455 S
C3648 C3647 1.415 . S
C3648 C3649 1.374 . S
C3649 H3629 0.950 . S
C3649 C3645 1.385 . S
C3649 C3648 1.374 . S
C3650 C3647 1.485 1_655 S
C3650 C3651 1.373 . S
C3650 C3652 1.389 . S
C3651 H3630 0.950 . S
C3651 C3650 1.373 . S
C3651 C3667 1.377 . S
C3652 C3650 1.389 . S
C3652 C3653 1.524 . S
C3652 C3666 1.377 . S
C3653 C3652 1.524 . S
C3653 C3654 1.404 . S
C3653 C3658 1.363 . S
C3654 H3631 0.961 . S
C3654 C3653 1.404 . S
C3654 C3655 1.317 1_655 S
C3655 H3632 0.950 . S
C3655 C3654 1.317 1_455 S
C3655 C3656 1.287 . S
C3656 C3655 1.287 . S
C3656 C3657 1.524 . S
C3656 H3675 0.913 . S
C3657 H3633 0.950 . S
C3657 C3656 1.524 . S
C3657 C3658 1.415 1_455 S
C3658 H3634 0.950 . S
C3658 C3653 1.363 . S
C3658 C3657 1.415 1_655 S
C3659 H3635 0.951 . S
C3659 C3660 1.366 . S
C3659 C3661 1.388 . S
C3660 C3659 1.366 . S
C3660 C3664 1.385 . S
C3661 H3636 0.951 . S
C3661 C3659 1.388 . S
C3661 C3662 1.366 . S
C3662 C3661 1.366 . S
C3662 C3663 1.414 . S
C3662 C3665 1.499 . S
C3663 H3637 0.950 . S
C3663 C3662 1.414 . S
C3663 C3664 1.374 . S
C3664 H3638 0.950 . S
C3664 C3660 1.385 . S
C3664 C3663 1.374 . S
C3665 C3662 1.499 . S
C3665 C3666 1.373 . S
C3665 C3667 1.389 . S
C3666 H3639 0.950 . S
C3666 C3652 1.377 . S
C3666 C3665 1.373 . S
C3667 C3651 1.377 . S
C3667 C3665 1.389 . S
C3667 C3668 1.524 . S
C3668 C3667 1.524 . S
C3668 C3669 1.397 . S
C3668 C3673 1.363 . S
C3669 H3640 0.950 . S
C3669 C3668 1.397 . S
C3669 C3670 1.334 . S
C3670 H3641 0.950 . S
C3670 C3669 1.334 . S
C3670 C3671 1.287 . S
C3671 C3670 1.287 . S
C3671 C3672 1.524 . S
C3671 H3674 0.999 . S
C3672 H3642 0.950 . S
C3672 C3671 1.524 . S
C3672 C3673 1.415 . S
C3673 H3643 0.950 . S
C3673 C3668 1.363 . S
C3673 C3672 1.415 . S
H3674 C3671 0.999 . S
H3675 C3656 0.913 . S
H3676 C3694 0.951 . S
H3677 C3696 0.951 . S
H3678 C3698 0.950 . S
H3679 C3699 0.950 . S
H3680 C3701 0.950 . S
H3681 C3704 0.950 . S
H3682 C3705 0.950 . S
H3683 C3707 0.950 . S
H3684 C3708 0.950 . S
H3685 C3709 0.951 . S
H3686 C3711 0.951 . S
H3687 C3713 0.950 1_655 S
H3688 C3714 0.950 . S
H3689 C3716 0.921 1_655 S
H3690 C3719 0.950 . S
H3691 C3720 0.950 . S
H3692 C3722 0.950 . S
H3693 C3723 0.950 . S
C3694 H3676 0.951 . S
C3694 C3695 1.366 . S
C3694 C3696 1.388 . S
C3695 C3694 1.366 . S
C3695 C3699 1.385 1_655 S
C3696 H3677 0.951 . S
C3696 C3694 1.388 . S
C3696 C3697 1.366 1_655 S
C3697 C3696 1.366 1_455 S
C3697 C3698 1.414 . S
C3697 C3700 1.499 . S
C3698 H3678 0.950 . S
C3698 C3697 1.414 . S
C3698 C3699 1.374 . S
C3699 H3679 0.950 . S
C3699 C3695 1.385 1_455 S
C3699 C3698 1.374 . S
C3700 C3697 1.499 . S
C3700 C3701 1.373 . S
C3700 C3702 1.389 1_455 S
C3701 H3680 0.950 . S
C3701 C3700 1.373 . S
C3701 C3717 1.377 . S
C3702 C3700 1.389 1_655 S
C3702 C3703 1.524 . S
C3702 C3716 1.351 1_655 S
C3703 C3702 1.524 . S
C3703 C3704 1.397 . S
C3703 C3708 1.363 . S
C3704 H3681 0.950 . S
C3704 C3703 1.397 . S
C3704 C3705 1.334 . S
C3705 H3682 0.950 . S
C3705 C3704 1.334 . S
C3705 C3706 1.287 . S
C3706 C3705 1.287 . S
C3706 C3707 1.524 . S
C3706 H3725 0.913 . S
C3707 H3683 0.950 . S
C3707 C3706 1.524 . S
C3707 C3708 1.415 . S
C3708 H3684 0.950 . S
C3708 C3703 1.363 . S
C3708 C3707 1.415 . S
C3709 H3685 0.951 . S
C3709 C3710 1.366 . S
C3709 C3711 1.388 . S
C3710 C3709 1.366 . S
C3710 C3714 1.385 . S
C3711 H3686 0.951 . S
C3711 C3709 1.388 . S
C3711 C3712 1.366 . S
C3712 C3711 1.366 . S
C3712 C3713 1.414 . S
C3712 C3715 1.499 . S
C3713 H3687 0.950 1_455 S
C3713 C3712 1.414 . S
C3713 C3714 1.374 . S
C3714 H3688 0.950 . S
C3714 C3710 1.385 . S
C3714 C3713 1.374 . S
C3715 C3712 1.499 . S
C3715 C3716 1.431 . S
C3715 C3717 1.389 . S
C3716 H3689 0.921 1_455 S
C3716 C3702 1.351 1_455 S
C3716 C3715 1.431 . S
C3717 C3701 1.377 . S
C3717 C3715 1.389 . S
C3717 C3718 1.524 . S
C3718 C3717 1.524 . S
C3718 C3719 1.397 . S
C3718 C3723 1.363 . S
C3719 H3690 0.950 . S
C3719 C3718 1.397 . S
C3719 C3720 1.334 . S
C3720 H3691 0.950 . S
C3720 C3719 1.334 . S
C3720 C3721 1.287 . S
C3721 C3720 1.287 . S
C3721 C3722 1.524 . S
C3721 H3724 0.999 . S
C3722 H3692 0.950 . S
C3722 C3721 1.524 . S
C3722 C3723 1.415 . S
C3723 H3693 0.950 . S
C3723 C3718 1.363 . S
C3723 C3722 1.415 . S
H3724 C3721 0.999 . S
H3725 C3706 0.913 . S
H3726 C3744 0.951 . S
H3727 C3746 0.951 . S
H3728 C3748 0.950 . S
H3729 C3749 0.950 . S
H3730 C3751 0.950 . S
H3731 C3754 0.950 . S
H3732 C3755 0.950 . S
H3733 C3757 0.950 . S
H3734 C3758 0.950 . S
H3735 C3759 0.951 . S
H3736 C3761 0.951 . S
H3737 C3763 0.950 . S
H3738 C3764 0.950 . S
H3739 C3766 0.950 . S
H3740 C3769 0.950 . S
H3741 C3770 0.950 . S
H3742 C3772 0.950 . S
H3743 C3773 0.950 . S
C3744 H3726 0.951 . S
C3744 C3745 1.366 . S
C3744 C3746 1.388 . S
C3745 C3744 1.366 . S
C3745 C3749 1.385 . S
C3746 H3727 0.951 . S
C3746 C3744 1.388 . S
C3746 C3747 1.366 . S
C3747 C3746 1.366 . S
C3747 C3748 1.414 . S
C3747 C3750 1.499 . S
C3748 H3728 0.950 . S
C3748 C3747 1.414 . S
C3748 C3749 1.374 . S
C3749 H3729 0.950 . S
C3749 C3745 1.385 . S
C3749 C3748 1.374 . S
C3750 C3747 1.499 . S
C3750 C3751 1.373 . S
C3750 C3752 1.389 . S
C3751 H3730 0.950 . S
C3751 C3750 1.373 . S
C3751 C3767 1.377 . S
C3752 C3750 1.389 . S
C3752 C3753 1.524 . S
C3752 C3766 1.377 . S
C3753 C3752 1.524 . S
C3753 C3754 1.397 . S
C3753 C3758 1.363 . S
C3754 H3731 0.950 . S
C3754 C3753 1.397 . S
C3754 C3755 1.334 . S
C3755 H3732 0.950 . S
C3755 C3754 1.334 . S
C3755 C3756 1.287 . S
C3756 C3755 1.287 . S
C3756 C3757 1.524 . S
C3756 H3775 0.913 . S
C3757 H3733 0.950 . S
C3757 C3756 1.524 . S
C3757 C3758 1.415 . S
C3758 H3734 0.950 . S
C3758 C3753 1.363 . S
C3758 C3757 1.415 . S
C3759 H3735 0.951 . S
C3759 C3760 1.366 . S
C3759 C3761 1.388 . S
C3760 C3759 1.366 . S
C3760 C3764 1.385 . S
C3761 H3736 0.951 . S
C3761 C3759 1.388 . S
C3761 C3762 1.366 . S
C3762 C3761 1.366 . S
C3762 C3763 1.414 . S
C3762 C3765 1.499 . S
C3763 H3737 0.950 . S
C3763 C3762 1.414 . S
C3763 C3764 1.374 . S
C3764 H3738 0.950 . S
C3764 C3760 1.385 . S
C3764 C3763 1.374 . S
C3765 C3762 1.499 . S
C3765 C3766 1.373 . S
C3765 C3767 1.389 . S
C3766 H3739 0.950 . S
C3766 C3752 1.377 . S
C3766 C3765 1.373 . S
C3767 C3751 1.377 . S
C3767 C3765 1.389 . S
C3767 C3768 1.524 . S
C3768 C3767 1.524 . S
C3768 C3769 1.397 . S
C3768 C3773 1.363 . S
C3769 H3740 0.950 . S
C3769 C3768 1.397 . S
C3769 C3770 1.334 . S
C3770 H3741 0.950 . S
C3770 C3769 1.334 . S
C3770 C3771 1.287 . S
C3771 C3770 1.287 . S
C3771 C3772 1.524 . S
C3771 H3774 0.999 . S
C3772 H3742 0.950 . S
C3772 C3771 1.524 . S
C3772 C3773 1.415 . S
C3773 H3743 0.950 . S
C3773 C3768 1.363 . S
C3773 C3772 1.415 . S
H3774 C3771 0.999 . S
H3775 C3756 0.913 . S
H3776 C3794 0.951 . S
H3777 C3796 0.951 . S
H3778 C3798 0.950 . S
H3779 C3799 0.950 . S
H3780 C3801 0.950 . S
H3781 C3804 0.950 . S
H3782 C3805 0.950 . S
H3783 C3807 0.950 . S
H3784 C3808 0.950 . S
H3785 C3809 0.951 . S
H3786 C3811 0.951 . S
H3787 C3813 0.950 . S
H3788 C3814 0.950 . S
H3789 C3816 0.950 . S
H3790 C3819 0.950 . S
H3791 C3820 0.950 . S
H3792 C3822 0.950 . S
H3793 C3823 0.950 . S
C3794 H3776 0.951 . S
C3794 C3795 1.366 . S
C3794 C3796 1.388 . S
C3795 C3794 1.366 . S
C3795 C3799 1.385 . S
C3796 H3777 0.951 . S
C3796 C3794 1.388 . S
C3796 C3797 1.366 . S
C3797 C3796 1.366 . S
C3797 C3798 1.414 . S
C3797 C3800 1.499 . S
C3798 H3778 0.950 . S
C3798 C3797 1.414 . S
C3798 C3799 1.374 . S
C3799 H3779 0.950 . S
C3799 C3795 1.385 . S
C3799 C3798 1.374 . S
C3800 C3797 1.499 . S
C3800 C3801 1.373 . S
C3800 C3802 1.389 . S
C3801 H3780 0.950 . S
C3801 C3800 1.373 . S
C3801 C3817 1.377 . S
C3802 C3800 1.389 . S
C3802 C3803 1.524 . S
C3802 C3816 1.377 . S
C3803 C3802 1.524 . S
C3803 C3804 1.397 . S
C3803 C3808 1.363 . S
C3804 H3781 0.950 . S
C3804 C3803 1.397 . S
C3804 C3805 1.334 . S
C3805 H3782 0.950 . S
C3805 C3804 1.334 . S
C3805 C3806 1.287 . S
C3806 C3805 1.287 . S
C3806 C3807 1.524 . S
C3806 H3825 0.913 . S
C3807 H3783 0.950 . S
C3807 C3806 1.524 . S
C3807 C3808 1.415 . S
C3808 H3784 0.950 . S
C3808 C3803 1.363 . S
C3808 C3807 1.415 . S
C3809 H3785 0.951 . S
C3809 C3810 1.366 . S
C3809 C3811 1.388 . S
C3810 C3809 1.366 . S
C3810 C3814 1.385 . S
C3811 H3786 0.951 . S
C3811 C3809 1.388 . S
C3811 C3812 1.366 . S
C3812 C3811 1.366 . S
C3812 C3813 1.414 . S
C3812 C3815 1.499 . S
C3813 H3787 0.950 . S
C3813 C3812 1.414 . S
C3813 C3814 1.374 . S
C3814 H3788 0.950 . S
C3814 C3810 1.385 . S
C3814 C3813 1.374 . S
C3815 C3812 1.499 . S
C3815 C3816 1.373 . S
C3815 C3817 1.389 . S
C3816 H3789 0.950 . S
C3816 C3802 1.377 . S
C3816 C3815 1.373 . S
C3817 C3801 1.377 . S
C3817 C3815 1.389 . S
C3817 C3818 1.524 . S
C3818 C3817 1.524 . S
C3818 C3819 1.397 . S
C3818 C3823 1.363 . S
C3819 H3790 0.950 . S
C3819 C3818 1.397 . S
C3819 C3820 1.334 . S
C3820 H3791 0.950 . S
C3820 C3819 1.334 . S
C3820 C3821 1.287 . S
C3821 C3820 1.287 . S
C3821 C3822 1.524 . S
C3821 H3824 0.999 . S
C3822 H3792 0.950 . S
C3822 C3821 1.524 . S
C3822 C3823 1.415 . S
C3823 H3793 0.950 . S
C3823 C3818 1.363 . S
C3823 C3822 1.415 . S
H3824 C3821 0.999 . S
H3825 C3806 0.913 . S
H3826 C3844 0.951 . S
H3827 C3846 0.951 . S
H3828 C3848 0.950 . S
H3829 C3849 0.950 . S
H3830 C3851 0.950 . S
H3831 C3854 0.950 . S
H3832 C3855 0.950 . S
H3833 C3857 0.950 . S
H3834 C3858 0.950 . S
H3835 C3859 0.951 . S
H3836 C3861 0.951 . S
H3837 C3863 0.950 . S
H3838 C3864 0.950 . S
H3839 C3866 0.950 . S
H3840 C3869 0.950 . S
H3841 C3870 0.950 . S
H3842 C3872 0.950 . S
H3843 C3873 0.950 . S
C3844 H3826 0.951 . S
C3844 C3845 1.366 . S
C3844 C3846 1.388 . S
C3845 C3844 1.366 . S
C3845 C3849 1.385 . S
C3846 H3827 0.951 . S
C3846 C3844 1.388 . S
C3846 C3847 1.366 . S
C3847 C3846 1.366 . S
C3847 C3848 1.414 . S
C3847 C3850 1.499 . S
C3848 H3828 0.950 . S
C3848 C3847 1.414 . S
C3848 C3849 1.374 . S
C3849 H3829 0.950 . S
C3849 C3845 1.385 . S
C3849 C3848 1.374 . S
C3850 C3847 1.499 . S
C3850 C3851 1.373 . S
C3850 C3852 1.389 . S
C3851 H3830 0.950 . S
C3851 C3850 1.373 . S
C3851 C3867 1.377 . S
C3852 C3850 1.389 . S
C3852 C3853 1.524 . S
C3852 C3866 1.377 . S
C3853 C3852 1.524 . S
C3853 C3854 1.397 . S
C3853 C3858 1.363 . S
C3854 H3831 0.950 . S
C3854 C3853 1.397 . S
C3854 C3855 1.334 . S
C3855 H3832 0.950 . S
C3855 C3854 1.334 . S
C3855 C3856 1.287 . S
C3856 C3855 1.287 . S
C3856 C3857 1.524 . S
C3856 H3875 0.913 . S
C3857 H3833 0.950 . S
C3857 C3856 1.524 . S
C3857 C3858 1.415 . S
C3858 H3834 0.950 . S
C3858 C3853 1.363 . S
C3858 C3857 1.415 . S
C3859 H3835 0.951 . S
C3859 C3860 1.366 . S
C3859 C3861 1.388 . S
C3860 C3859 1.366 . S
C3860 C3864 1.385 . S
C3861 H3836 0.951 . S
C3861 C3859 1.388 . S
C3861 C3862 1.366 . S
C3862 C3861 1.366 . S
C3862 C3863 1.414 . S
C3862 C3865 1.499 . S
C3863 H3837 0.950 . S
C3863 C3862 1.414 . S
C3863 C3864 1.374 . S
C3864 H3838 0.950 . S
C3864 C3860 1.385 . S
C3864 C3863 1.374 . S
C3865 C3862 1.499 . S
C3865 C3866 1.373 . S
C3865 C3867 1.389 . S
C3866 H3839 0.950 . S
C3866 C3852 1.377 . S
C3866 C3865 1.373 . S
C3867 C3851 1.377 . S
C3867 C3865 1.389 . S
C3867 C3868 1.524 . S
C3868 C3867 1.524 . S
C3868 C3869 1.397 . S
C3868 C3873 1.363 . S
C3869 H3840 0.950 . S
C3869 C3868 1.397 . S
C3869 C3870 1.334 . S
C3870 H3841 0.950 . S
C3870 C3869 1.334 . S
C3870 C3871 1.287 . S
C3871 C3870 1.287 . S
C3871 C3872 1.524 . S
C3871 H3874 0.999 . S
C3872 H3842 0.950 . S
C3872 C3871 1.524 . S
C3872 C3873 1.415 . S
C3873 H3843 0.950 . S
C3873 C3868 1.363 . S
C3873 C3872 1.415 . S
H3874 C3871 0.999 . S
H3875 C3856 0.913 . S
H3876 C3894 0.951 . S
H3877 C3896 0.951 . S
H3878 C3898 0.950 . S
H3879 C3899 0.950 . S
H3880 C3901 0.950 . S
H3881 C3904 0.950 . S
H3882 C3905 0.950 . S
H3883 C3907 0.950 . S
H3884 C3908 0.950 . S
H3885 C3909 0.951 . S
H3886 C3911 0.951 . S
H3887 C3913 0.950 . S
H3888 C3914 0.950 . S
H3889 C3916 0.950 . S
H3890 C3919 0.950 . S
H3891 C3920 0.950 . S
H3892 C3922 0.950 . S
H3893 C3923 0.950 . S
C3894 H3876 0.951 . S
C3894 C3895 1.366 . S
C3894 C3896 1.388 . S
C3895 C3894 1.366 . S
C3895 C3899 1.385 . S
C3896 H3877 0.951 . S
C3896 C3894 1.388 . S
C3896 C3897 1.366 . S
C3897 C3896 1.366 . S
C3897 C3898 1.414 . S
C3897 C3900 1.499 . S
C3898 H3878 0.950 . S
C3898 C3897 1.414 . S
C3898 C3899 1.374 . S
C3899 H3879 0.950 . S
C3899 C3895 1.385 . S
C3899 C3898 1.374 . S
C3900 C3897 1.499 . S
C3900 C3901 1.373 . S
C3900 C3902 1.389 . S
C3901 H3880 0.950 . S
C3901 C3900 1.373 . S
C3901 C3917 1.377 . S
C3902 C3900 1.389 . S
C3902 C3903 1.524 . S
C3902 C3916 1.377 . S
C3903 C3902 1.524 . S
C3903 C3904 1.397 . S
C3903 C3908 1.363 . S
C3904 H3881 0.950 . S
C3904 C3903 1.397 . S
C3904 C3905 1.334 . S
C3905 H3882 0.950 . S
C3905 C3904 1.334 . S
C3905 C3906 1.287 . S
C3906 C3905 1.287 . S
C3906 C3907 1.524 . S
C3906 H3925 0.913 . S
C3907 H3883 0.950 . S
C3907 C3906 1.524 . S
C3907 C3908 1.415 . S
C3908 H3884 0.950 . S
C3908 C3903 1.363 . S
C3908 C3907 1.415 . S
C3909 H3885 0.951 . S
C3909 C3910 1.366 . S
C3909 C3911 1.388 . S
C3910 C3909 1.366 . S
C3910 C3914 1.385 . S
C3911 H3886 0.951 . S
C3911 C3909 1.388 . S
C3911 C3912 1.366 . S
C3912 C3911 1.366 . S
C3912 C3913 1.414 . S
C3912 C3915 1.499 . S
C3913 H3887 0.950 . S
C3913 C3912 1.414 . S
C3913 C3914 1.374 . S
C3914 H3888 0.950 . S
C3914 C3910 1.385 . S
C3914 C3913 1.374 . S
C3915 C3912 1.499 . S
C3915 C3916 1.373 . S
C3915 C3917 1.389 . S
C3916 H3889 0.950 . S
C3916 C3902 1.377 . S
C3916 C3915 1.373 . S
C3917 C3901 1.377 . S
C3917 C3915 1.389 . S
C3917 C3918 1.524 . S
C3918 C3917 1.524 . S
C3918 C3919 1.397 . S
C3918 C3923 1.363 . S
C3919 H3890 0.950 . S
C3919 C3918 1.397 . S
C3919 C3920 1.334 . S
C3920 H3891 0.950 . S
C3920 C3919 1.334 . S
C3920 C3921 1.287 . S
C3921 C3920 1.287 . S
C3921 C3922 1.524 . S
C3921 H3924 0.999 . S
C3922 H3892 0.950 . S
C3922 C3921 1.524 . S
C3922 C3923 1.415 . S
C3923 H3893 0.950 . S
C3923 C3918 1.363 . S
C3923 C3922 1.415 . S
H3924 C3921 0.999 . S
H3925 C3906 0.913 . S
H3926 C3944 0.951 . S
H3927 C3946 0.951 . S
H3928 C3948 0.950 . S
H3929 C3949 0.950 . S
H3930 C3951 0.950 . S
H3931 C3954 0.950 . S
H3932 C3955 0.950 . S
H3933 C3957 0.950 . S
H3934 C3958 0.950 . S
H3935 C3959 0.951 . S
H3936 C3961 0.951 . S
H3937 C3963 0.950 . S
H3938 C3964 0.950 . S
H3939 C3966 0.950 . S
H3940 C3969 0.950 . S
H3941 C3970 0.950 . S
H3942 C3972 0.950 . S
H3943 C3973 0.950 . S
C3944 H3926 0.951 . S
C3944 C3945 1.366 . S
C3944 C3946 1.388 . S
C3945 C3944 1.366 . S
C3945 C3949 1.385 . S
C3946 H3927 0.951 . S
C3946 C3944 1.388 . S
C3946 C3947 1.366 . S
C3947 C3946 1.366 . S
C3947 C3948 1.414 . S
C3947 C3950 1.499 . S
C3948 H3928 0.950 . S
C3948 C3947 1.414 . S
C3948 C3949 1.374 . S
C3949 H3929 0.950 . S
C3949 C3945 1.385 . S
C3949 C3948 1.374 . S
C3950 C3947 1.499 . S
C3950 C3951 1.373 . S
C3950 C3952 1.389 . S
C3951 H3930 0.950 . S
C3951 C3950 1.373 . S
C3951 C3967 1.377 . S
C3952 C3950 1.389 . S
C3952 C3953 1.524 . S
C3952 C3966 1.377 . S
C3953 C3952 1.524 . S
C3953 C3954 1.397 . S
C3953 C3958 1.363 . S
C3954 H3931 0.950 . S
C3954 C3953 1.397 . S
C3954 C3955 1.334 . S
C3955 H3932 0.950 . S
C3955 C3954 1.334 . S
C3955 C3956 1.287 . S
C3956 C3955 1.287 . S
C3956 C3957 1.524 . S
C3956 H3975 0.913 . S
C3957 H3933 0.950 . S
C3957 C3956 1.524 . S
C3957 C3958 1.415 . S
C3958 H3934 0.950 . S
C3958 C3953 1.363 . S
C3958 C3957 1.415 . S
C3959 H3935 0.951 . S
C3959 C3960 1.366 . S
C3959 C3961 1.388 . S
C3960 C3959 1.366 . S
C3960 C3964 1.385 . S
C3961 H3936 0.951 . S
C3961 C3959 1.388 . S
C3961 C3962 1.366 . S
C3962 C3961 1.366 . S
C3962 C3963 1.414 . S
C3962 C3965 1.499 . S
C3963 H3937 0.950 . S
C3963 C3962 1.414 . S
C3963 C3964 1.374 . S
C3964 H3938 0.950 . S
C3964 C3960 1.385 . S
C3964 C3963 1.374 . S
C3965 C3962 1.499 . S
C3965 C3966 1.373 . S
C3965 C3967 1.389 . S
C3966 H3939 0.950 . S
C3966 C3952 1.377 . S
C3966 C3965 1.373 . S
C3967 C3951 1.377 . S
C3967 C3965 1.389 . S
C3967 C3968 1.524 . S
C3968 C3967 1.524 . S
C3968 C3969 1.397 . S
C3968 C3973 1.363 . S
C3969 H3940 0.950 . S
C3969 C3968 1.397 . S
C3969 C3970 1.334 . S
C3970 H3941 0.950 . S
C3970 C3969 1.334 . S
C3970 C3971 1.287 . S
C3971 C3970 1.287 . S
C3971 C3972 1.524 . S
C3971 H3974 0.999 . S
C3972 H3942 0.950 . S
C3972 C3971 1.524 . S
C3972 C3973 1.415 . S
C3973 H3943 0.950 . S
C3973 C3968 1.363 . S
C3973 C3972 1.415 . S
H3974 C3971 0.999 . S
H3975 C3956 0.913 . S
H3976 C3994 0.951 . S
H3977 C3996 0.951 . S
H3978 C3998 0.950 . S
H3979 C3999 0.950 . S
H3980 C4001 0.950 . S
H3981 C4004 0.950 . S
H3982 C4005 0.950 . S
H3983 C4007 0.950 . S
H3984 C4008 0.950 . S
H3985 C4009 0.951 . S
H3986 C4011 0.951 . S
H3987 C4013 0.950 . S
H3988 C4014 0.950 . S
H3989 C4016 0.950 . S
H3990 C4019 0.950 . S
H3991 C4020 0.950 . S
H3992 C4022 0.950 . S
H3993 C4023 0.950 . S
C3994 H3976 0.951 . S
C3994 C3995 1.366 . S
C3994 C3996 1.388 . S
C3995 C3994 1.366 . S
C3995 C3999 1.385 . S
C3996 H3977 0.951 . S
C3996 C3994 1.388 . S
C3996 C3997 1.366 . S
C3997 C3996 1.366 . S
C3997 C3998 1.414 . S
C3997 C4000 1.499 . S
C3998 H3978 0.950 . S
C3998 C3997 1.414 . S
C3998 C3999 1.374 . S
C3999 H3979 0.950 . S
C3999 C3995 1.385 . S
C3999 C3998 1.374 . S
C4000 C3997 1.499 . S
C4000 C4001 1.373 . S
C4000 C4002 1.389 . S
C4001 H3980 0.950 . S
C4001 C4000 1.373 . S
C4001 C4017 1.377 . S
C4002 C4000 1.389 . S
C4002 C4003 1.524 . S
C4002 C4016 1.377 . S
C4003 C4002 1.524 . S
C4003 C4004 1.397 . S
C4003 C4008 1.363 . S
C4004 H3981 0.950 . S
C4004 C4003 1.397 . S
C4004 C4005 1.334 . S
C4005 H3982 0.950 . S
C4005 C4004 1.334 . S
C4005 C4006 1.287 . S
C4006 C4005 1.287 . S
C4006 C4007 1.524 . S
C4006 H4025 0.913 . S
C4007 H3983 0.950 . S
C4007 C4006 1.524 . S
C4007 C4008 1.415 . S
C4008 H3984 0.950 . S
C4008 C4003 1.363 . S
C4008 C4007 1.415 . S
C4009 H3985 0.951 . S
C4009 C4010 1.366 . S
C4009 C4011 1.388 . S
C4010 C4009 1.366 . S
C4010 C4014 1.385 . S
C4011 H3986 0.951 . S
C4011 C4009 1.388 . S
C4011 C4012 1.366 . S
C4012 C4011 1.366 . S
C4012 C4013 1.414 . S
C4012 C4015 1.499 . S
C4013 H3987 0.950 . S
C4013 C4012 1.414 . S
C4013 C4014 1.374 . S
C4014 H3988 0.950 . S
C4014 C4010 1.385 . S
C4014 C4013 1.374 . S
C4015 C4012 1.499 . S
C4015 C4016 1.373 . S
C4015 C4017 1.389 . S
C4016 H3989 0.950 . S
C4016 C4002 1.377 . S
C4016 C4015 1.373 . S
C4017 C4001 1.377 . S
C4017 C4015 1.389 . S
C4017 C4018 1.524 . S
C4018 C4017 1.524 . S
C4018 C4019 1.397 . S
C4018 C4023 1.363 . S
C4019 H3990 0.950 . S
C4019 C4018 1.397 . S
C4019 C4020 1.334 . S
C4020 H3991 0.950 . S
C4020 C4019 1.334 . S
C4020 C4021 1.287 . S
C4021 C4020 1.287 . S
C4021 C4022 1.524 . S
C4021 H4024 0.999 . S
C4022 H3992 0.950 . S
C4022 C4021 1.524 . S
C4022 C4023 1.415 . S
C4023 H3993 0.950 . S
C4023 C4018 1.363 . S
C4023 C4022 1.415 . S
H4024 C4021 0.999 . S
H4025 C4006 0.913 . S
H4026 C4044 0.951 . S
H4027 C4046 0.951 . S
H4028 C4048 0.950 . S
H4029 C4049 0.950 . S
H4030 C4051 0.950 . S
H4031 C4054 0.950 . S
H4032 C4055 0.950 . S
H4033 C4057 0.950 . S
H4034 C4058 0.950 . S
H4035 C4059 0.951 . S
H4036 C4061 0.951 . S
H4037 C4063 0.950 . S
H4038 C4064 0.950 . S
H4039 C4066 0.950 . S
H4040 C4069 0.950 . S
H4041 C4070 0.950 . S
H4042 C4072 0.950 . S
H4043 C4073 0.950 . S
C4044 H4026 0.951 . S
C4044 C4045 1.366 . S
C4044 C4046 1.388 . S
C4045 C4044 1.366 . S
C4045 C4049 1.385 . S
C4046 H4027 0.951 . S
C4046 C4044 1.388 . S
C4046 C4047 1.366 . S
C4047 C4046 1.366 . S
C4047 C4048 1.414 . S
C4047 C4050 1.499 . S
C4048 H4028 0.950 . S
C4048 C4047 1.414 . S
C4048 C4049 1.374 . S
C4049 H4029 0.950 . S
C4049 C4045 1.385 . S
C4049 C4048 1.374 . S
C4050 C4047 1.499 . S
C4050 C4051 1.373 . S
C4050 C4052 1.389 . S
C4051 H4030 0.950 . S
C4051 C4050 1.373 . S
C4051 C4067 1.377 . S
C4052 C4050 1.389 . S
C4052 C4053 1.524 . S
C4052 C4066 1.377 . S
C4053 C4052 1.524 . S
C4053 C4054 1.397 . S
C4053 C4058 1.363 . S
C4054 H4031 0.950 . S
C4054 C4053 1.397 . S
C4054 C4055 1.334 . S
C4055 H4032 0.950 . S
C4055 C4054 1.334 . S
C4055 C4056 1.287 . S
C4056 C4055 1.287 . S
C4056 C4057 1.524 . S
C4056 H4075 0.913 . S
C4057 H4033 0.950 . S
C4057 C4056 1.524 . S
C4057 C4058 1.415 . S
C4058 H4034 0.950 . S
C4058 C4053 1.363 . S
C4058 C4057 1.415 . S
C4059 H4035 0.951 . S
C4059 C4060 1.366 . S
C4059 C4061 1.388 . S
C4060 C4059 1.366 . S
C4060 C4064 1.385 . S
C4061 H4036 0.951 . S
C4061 C4059 1.388 . S
C4061 C4062 1.366 . S
C4062 C4061 1.366 . S
C4062 C4063 1.414 . S
C4062 C4065 1.499 . S
C4063 H4037 0.950 . S
C4063 C4062 1.414 . S
C4063 C4064 1.374 . S
C4064 H4038 0.950 . S
C4064 C4060 1.385 . S
C4064 C4063 1.374 . S
C4065 C4062 1.499 . S
C4065 C4066 1.373 . S
C4065 C4067 1.389 . S
C4066 H4039 0.950 . S
C4066 C4052 1.377 . S
C4066 C4065 1.373 . S
C4067 C4051 1.377 . S
C4067 C4065 1.389 . S
C4067 C4068 1.524 . S
C4068 C4067 1.524 . S
C4068 C4069 1.397 . S
C4068 C4073 1.363 . S
C4069 H4040 0.950 . S
C4069 C4068 1.397 . S
C4069 C4070 1.334 . S
C4070 H4041 0.950 . S
C4070 C4069 1.334 . S
C4070 C4071 1.287 . S
C4071 C4070 1.287 . S
C4071 C4072 1.524 . S
C4071 H4074 0.999 . S
C4072 H4042 0.950 . S
C4072 C4071 1.524 . S
C4072 C4073 1.415 . S
C4073 H4043 0.950 . S
C4073 C4068 1.363 . S
C4073 C4072 1.415 . S
H4074 C4071 0.999 . S
H4075 C4056 0.913 . S
H4076 C4094 0.951 . S
H4077 C4096 0.951 . S
H4078 C4098 0.950 . S
H4079 C4099 0.950 . S
H4080 C4101 0.950 . S
H4081 C4104 0.950 . S
H4082 C4105 0.950 . S
H4083 C4107 0.950 . S
H4084 C4108 0.950 . S
H4085 C4109 0.951 . S
H4086 C4111 0.951 . S
H4087 C4113 0.950 . S
H4088 C4114 0.950 . S
H4089 C4116 0.950 . S
H4090 C4119 0.950 . S
H4091 C4120 0.950 . S
H4092 C4122 0.950 . S
H4093 C4123 0.950 . S
C4094 H4076 0.951 . S
C4094 C4095 1.366 . S
C4094 C4096 1.388 . S
C4095 C4094 1.366 . S
C4095 C4099 1.385 . S
C4096 H4077 0.951 . S
C4096 C4094 1.388 . S
C4096 C4097 1.366 . S
C4097 C4096 1.366 . S
C4097 C4098 1.414 . S
C4097 C4100 1.499 . S
C4098 H4078 0.950 . S
C4098 C4097 1.414 . S
C4098 C4099 1.374 . S
C4099 H4079 0.950 . S
C4099 C4095 1.385 . S
C4099 C4098 1.374 . S
C4100 C4097 1.499 . S
C4100 C4101 1.373 . S
C4100 C4102 1.389 . S
C4101 H4080 0.950 . S
C4101 C4100 1.373 . S
C4101 C4117 1.377 . S
C4102 C4100 1.389 . S
C4102 C4103 1.524 . S
C4102 C4116 1.377 . S
C4103 C4102 1.524 . S
C4103 C4104 1.397 . S
C4103 C4108 1.363 . S
C4104 H4081 0.950 . S
C4104 C4103 1.397 . S
C4104 C4105 1.334 . S
C4105 H4082 0.950 . S
C4105 C4104 1.334 . S
C4105 C4106 1.287 . S
C4106 C4105 1.287 . S
C4106 C4107 1.524 . S
C4106 H4125 0.913 . S
C4107 H4083 0.950 . S
C4107 C4106 1.524 . S
C4107 C4108 1.415 . S
C4108 H4084 0.950 . S
C4108 C4103 1.363 . S
C4108 C4107 1.415 . S
C4109 H4085 0.951 . S
C4109 C4110 1.366 . S
C4109 C4111 1.388 . S
C4110 C4109 1.366 . S
C4110 C4114 1.385 . S
C4111 H4086 0.951 . S
C4111 C4109 1.388 . S
C4111 C4112 1.366 . S
C4112 C4111 1.366 . S
C4112 C4113 1.414 . S
C4112 C4115 1.499 . S
C4113 H4087 0.950 . S
C4113 C4112 1.414 . S
C4113 C4114 1.374 . S
C4114 H4088 0.950 . S
C4114 C4110 1.385 . S
C4114 C4113 1.374 . S
C4115 C4112 1.499 . S
C4115 C4116 1.373 . S
C4115 C4117 1.389 . S
C4116 H4089 0.950 . S
C4116 C4102 1.377 . S
C4116 C4115 1.373 . S
C4117 C4101 1.377 . S
C4117 C4115 1.389 . S
C4117 C4118 1.524 . S
C4118 C4117 1.524 . S
C4118 C4119 1.397 . S
C4118 C4123 1.363 . S
C4119 H4090 0.950 . S
C4119 C4118 1.397 . S
C4119 C4120 1.334 . S
C4120 H4091 0.950 . S
C4120 C4119 1.334 . S
C4120 C4121 1.287 . S
C4121 C4120 1.287 . S
C4121 C4122 1.524 . S
C4121 H4124 0.999 . S
C4122 H4092 0.950 . S
C4122 C4121 1.524 . S
C4122 C4123 1.415 . S
C4123 H4093 0.950 . S
C4123 C4118 1.363 . S
C4123 C4122 1.415 . S
H4124 C4121 0.999 . S
H4125 C4106 0.913 . S
H4126 C4144 0.951 . S
H4127 C4146 0.951 . S
H4128 C4148 0.950 . S
H4129 C4149 0.950 . S
H4130 C4151 0.950 . S
H4131 C4154 0.950 . S
H4132 C4155 0.950 . S
H4133 C4157 0.950 . S
H4134 C4158 0.950 . S
H4135 C4159 0.951 . S
H4136 C4161 0.951 . S
H4137 C4163 0.950 . S
H4138 C4164 0.950 . S
H4139 C4166 0.950 . S
H4140 C4169 0.950 . S
H4141 C4170 0.950 . S
H4142 C4172 0.950 . S
H4143 C4173 0.950 . S
C4144 H4126 0.951 . S
C4144 C4145 1.366 . S
C4144 C4146 1.388 . S
C4145 C4144 1.366 . S
C4145 C4149 1.385 . S
C4146 H4127 0.951 . S
C4146 C4144 1.388 . S
C4146 C4147 1.366 . S
C4147 C4146 1.366 . S
C4147 C4148 1.414 . S
C4147 C4150 1.499 . S
C4148 H4128 0.950 . S
C4148 C4147 1.414 . S
C4148 C4149 1.374 . S
C4149 H4129 0.950 . S
C4149 C4145 1.385 . S
C4149 C4148 1.374 . S
C4150 C4147 1.499 . S
C4150 C4151 1.373 . S
C4150 C4152 1.389 . S
C4151 H4130 0.950 . S
C4151 C4150 1.373 . S
C4151 C4167 1.377 . S
C4152 C4150 1.389 . S
C4152 C4153 1.524 . S
C4152 C4166 1.377 . S
C4153 C4152 1.524 . S
C4153 C4154 1.397 . S
C4153 C4158 1.363 . S
C4154 H4131 0.950 . S
C4154 C4153 1.397 . S
C4154 C4155 1.334 . S
C4155 H4132 0.950 . S
C4155 C4154 1.334 . S
C4155 C4156 1.287 . S
C4156 C4155 1.287 . S
C4156 C4157 1.524 . S
C4156 H4175 0.913 . S
C4157 H4133 0.950 . S
C4157 C4156 1.524 . S
C4157 C4158 1.415 . S
C4158 H4134 0.950 . S
C4158 C4153 1.363 . S
C4158 C4157 1.415 . S
C4159 H4135 0.951 . S
C4159 C4160 1.366 . S
C4159 C4161 1.388 . S
C4160 C4159 1.366 . S
C4160 C4164 1.385 . S
C4161 H4136 0.951 . S
C4161 C4159 1.388 . S
C4161 C4162 1.366 . S
C4162 C4161 1.366 . S
C4162 C4163 1.414 . S
C4162 C4165 1.499 . S
C4163 H4137 0.950 . S
C4163 C4162 1.414 . S
C4163 C4164 1.374 . S
C4164 H4138 0.950 . S
C4164 C4160 1.385 . S
C4164 C4163 1.374 . S
C4165 C4162 1.499 . S
C4165 C4166 1.373 . S
C4165 C4167 1.389 . S
C4166 H4139 0.950 . S
C4166 C4152 1.377 . S
C4166 C4165 1.373 . S
C4167 C4151 1.377 . S
C4167 C4165 1.389 . S
C4167 C4168 1.524 . S
C4168 C4167 1.524 . S
C4168 C4169 1.397 . S
C4168 C4173 1.363 . S
C4169 H4140 0.950 . S
C4169 C4168 1.397 . S
C4169 C4170 1.334 . S
C4170 H4141 0.950 . S
C4170 C4169 1.334 . S
C4170 C4171 1.287 . S
C4171 C4170 1.287 . S
C4171 C4172 1.524 . S
C4171 H4174 0.999 . S
C4172 H4142 0.950 . S
C4172 C4171 1.524 . S
C4172 C4173 1.415 . S
C4173 H4143 0.950 . S
C4173 C4168 1.363 . S
C4173 C4172 1.415 . S
H4174 C4171 0.999 . S
H4175 C4156 0.913 . S
H4176 C4194 0.951 . S
H4177 C4196 0.951 . S
H4178 C4198 0.950 . S
H4179 C4199 0.950 . S
H4180 C4201 0.950 . S
H4181 C4204 0.950 . S
H4182 C4205 0.950 . S
H4183 C4207 0.950 . S
H4184 C4208 0.950 . S
H4185 C4209 0.951 . S
H4186 C4211 0.951 . S
H4187 C4213 0.950 . S
H4188 C4214 0.950 . S
H4189 C4216 0.950 . S
H4190 C4219 0.950 . S
H4191 C4220 0.950 . S
H4192 C4222 0.950 . S
H4193 C4223 0.950 . S
C4194 H4176 0.951 . S
C4194 C4195 1.366 . S
C4194 C4196 1.388 . S
C4195 C4194 1.366 . S
C4195 C4199 1.385 . S
C4196 H4177 0.951 . S
C4196 C4194 1.388 . S
C4196 C4197 1.366 . S
C4197 C4196 1.366 . S
C4197 C4198 1.414 . S
C4197 C4200 1.499 . S
C4198 H4178 0.950 . S
C4198 C4197 1.414 . S
C4198 C4199 1.374 . S
C4199 H4179 0.950 . S
C4199 C4195 1.385 . S
C4199 C4198 1.374 . S
C4200 C4197 1.499 . S
C4200 C4201 1.373 . S
C4200 C4202 1.389 . S
C4201 H4180 0.950 . S
C4201 C4200 1.373 . S
C4201 C4217 1.377 . S
C4202 C4200 1.389 . S
C4202 C4203 1.524 . S
C4202 C4216 1.377 . S
C4203 C4202 1.524 . S
C4203 C4204 1.397 . S
C4203 C4208 1.363 . S
C4204 H4181 0.950 . S
C4204 C4203 1.397 . S
C4204 C4205 1.334 . S
C4205 H4182 0.950 . S
C4205 C4204 1.334 . S
C4205 C4206 1.287 . S
C4206 C4205 1.287 . S
C4206 C4207 1.524 . S
C4206 H4225 0.913 . S
C4207 H4183 0.950 . S
C4207 C4206 1.524 . S
C4207 C4208 1.415 . S
C4208 H4184 0.950 . S
C4208 C4203 1.363 . S
C4208 C4207 1.415 . S
C4209 H4185 0.951 . S
C4209 C4210 1.366 . S
C4209 C4211 1.388 . S
C4210 C4209 1.366 . S
C4210 C4214 1.385 . S
C4211 H4186 0.951 . S
C4211 C4209 1.388 . S
C4211 C4212 1.366 . S
C4212 C4211 1.366 . S
C4212 C4213 1.414 . S
C4212 C4215 1.499 . S
C4213 H4187 0.950 . S
C4213 C4212 1.414 . S
C4213 C4214 1.374 . S
C4214 H4188 0.950 . S
C4214 C4210 1.385 . S
C4214 C4213 1.374 . S
C4215 C4212 1.499 . S
C4215 C4216 1.373 . S
C4215 C4217 1.389 . S
C4216 H4189 0.950 . S
C4216 C4202 1.377 . S
C4216 C4215 1.373 . S
C4217 C4201 1.377 . S
C4217 C4215 1.389 . S
C4217 C4218 1.524 . S
C4218 C4217 1.524 . S
C4218 C4219 1.397 . S
C4218 C4223 1.363 . S
C4219 H4190 0.950 . S
C4219 C4218 1.397 . S
C4219 C4220 1.334 . S
C4220 H4191 0.950 . S
C4220 C4219 1.334 . S
C4220 C4221 1.287 . S
C4221 C4220 1.287 . S
C4221 C4222 1.524 . S
C4221 H4224 0.999 . S
C4222 H4192 0.950 . S
C4222 C4221 1.524 . S
C4222 C4223 1.415 . S
C4223 H4193 0.950 . S
C4223 C4218 1.363 . S
C4223 C4222 1.415 . S
H4224 C4221 0.999 . S
H4225 C4206 0.913 . S
H4226 C4244 0.951 . S
H4227 C4246 0.951 . S
H4228 C4248 0.950 . S
H4229 C4249 0.950 . S
H4230 C4251 0.950 . S
H4231 C4254 0.950 . S
H4232 C4255 0.950 . S
H4233 C4257 0.950 . S
H4234 C4258 0.950 . S
H4235 C4259 0.951 . S
H4236 C4261 0.951 . S
H4237 C4263 0.950 . S
H4238 C4264 0.950 . S
H4239 C4266 0.950 . S
H4240 C4269 0.950 . S
H4241 C4270 0.950 . S
H4242 C4272 0.950 . S
H4243 C4273 0.950 . S
C4244 H4226 0.951 . S
C4244 C4245 1.366 . S
C4244 C4246 1.388 . S
C4245 C4244 1.366 . S
C4245 C4249 1.385 . S
C4246 H4227 0.951 . S
C4246 C4244 1.388 . S
C4246 C4247 1.366 . S
C4247 C4246 1.366 . S
C4247 C4248 1.414 . S
C4247 C4250 1.499 . S
C4248 H4228 0.950 . S
C4248 C4247 1.414 . S
C4248 C4249 1.374 . S
C4249 H4229 0.950 . S
C4249 C4245 1.385 . S
C4249 C4248 1.374 . S
C4250 C4247 1.499 . S
C4250 C4251 1.373 . S
C4250 C4252 1.389 . S
C4251 H4230 0.950 . S
C4251 C4250 1.373 . S
C4251 C4267 1.377 . S
C4252 C4250 1.389 . S
C4252 C4253 1.524 . S
C4252 C4266 1.377 . S
C4253 C4252 1.524 . S
C4253 C4254 1.397 . S
C4253 C4258 1.363 . S
C4254 H4231 0.950 . S
C4254 C4253 1.397 . S
C4254 C4255 1.334 . S
C4255 H4232 0.950 . S
C4255 C4254 1.334 . S
C4255 C4256 1.287 . S
C4256 C4255 1.287 . S
C4256 C4257 1.524 . S
C4256 H4275 0.913 . S
C4257 H4233 0.950 . S
C4257 C4256 1.524 . S
C4257 C4258 1.415 . S
C4258 H4234 0.950 . S
C4258 C4253 1.363 . S
C4258 C4257 1.415 . S
C4259 H4235 0.951 . S
C4259 C4260 1.366 . S
C4259 C4261 1.388 . S
C4260 C4259 1.366 . S
C4260 C4264 1.385 . S
C4261 H4236 0.951 . S
C4261 C4259 1.388 . S
C4261 C4262 1.366 . S
C4262 C4261 1.366 . S
C4262 C4263 1.414 . S
C4262 C4265 1.499 . S
C4263 H4237 0.950 . S
C4263 C4262 1.414 . S
C4263 C4264 1.374 . S
C4264 H4238 0.950 . S
C4264 C4260 1.385 . S
C4264 C4263 1.374 . S
C4265 C4262 1.499 . S
C4265 C4266 1.373 . S
C4265 C4267 1.389 . S
C4266 H4239 0.950 . S
C4266 C4252 1.377 . S
C4266 C4265 1.373 . S
C4267 C4251 1.377 . S
C4267 C4265 1.389 . S
C4267 C4268 1.524 . S
C4268 C4267 1.524 . S
C4268 C4269 1.397 . S
C4268 C4273 1.363 . S
C4269 H4240 0.950 . S
C4269 C4268 1.397 . S
C4269 C4270 1.334 . S
C4270 H4241 0.950 . S
C4270 C4269 1.334 . S
C4270 C4271 1.287 . S
C4271 C4270 1.287 . S
C4271 C4272 1.524 . S
C4271 H4274 0.999 . S
C4272 H4242 0.950 . S
C4272 C4271 1.524 . S
C4272 C4273 1.415 . S
C4273 H4243 0.950 . S
C4273 C4268 1.363 . S
C4273 C4272 1.415 . S
H4274 C4271 0.999 . S
H4275 C4256 0.913 . S
H4276 C4294 0.951 . S
H4277 C4296 0.951 . S
H4278 C4298 0.950 . S
H4279 C4299 0.950 . S
H4280 C4301 0.950 . S
H4281 C4304 0.950 . S
H4282 C4305 0.950 . S
H4283 C4307 0.950 . S
H4284 C4308 0.950 . S
H4285 C4309 0.951 . S
H4286 C4311 0.951 . S
H4287 C4313 0.950 . S
H4288 C4314 0.950 . S
H4289 C4316 0.950 . S
H4290 C4319 0.950 . S
H4291 C4320 0.950 . S
H4292 C4322 0.950 . S
H4293 C4323 0.950 . S
C4294 H4276 0.951 . S
C4294 C4295 1.366 . S
C4294 C4296 1.388 . S
C4295 C4294 1.366 . S
C4295 C4299 1.385 . S
C4296 H4277 0.951 . S
C4296 C4294 1.388 . S
C4296 C4297 1.366 . S
C4297 C4296 1.366 . S
C4297 C4298 1.414 . S
C4297 C4300 1.499 . S
C4298 H4278 0.950 . S
C4298 C4297 1.414 . S
C4298 C4299 1.374 . S
C4299 H4279 0.950 . S
C4299 C4295 1.385 . S
C4299 C4298 1.374 . S
C4300 C4297 1.499 . S
C4300 C4301 1.373 . S
C4300 C4302 1.389 . S
C4301 H4280 0.950 . S
C4301 C4300 1.373 . S
C4301 C4317 1.377 . S
C4302 C4300 1.389 . S
C4302 C4303 1.524 . S
C4302 C4316 1.377 . S
C4303 C4302 1.524 . S
C4303 C4304 1.397 . S
C4303 C4308 1.363 . S
C4304 H4281 0.950 . S
C4304 C4303 1.397 . S
C4304 C4305 1.334 . S
C4305 H4282 0.950 . S
C4305 C4304 1.334 . S
C4305 C4306 1.287 . S
C4306 C4305 1.287 . S
C4306 C4307 1.524 . S
C4306 H4325 0.913 . S
C4307 H4283 0.950 . S
C4307 C4306 1.524 . S
C4307 C4308 1.415 . S
C4308 H4284 0.950 . S
C4308 C4303 1.363 . S
C4308 C4307 1.415 . S
C4309 H4285 0.951 . S
C4309 C4310 1.366 . S
C4309 C4311 1.388 . S
C4310 C4309 1.366 . S
C4310 C4314 1.385 . S
C4311 H4286 0.951 . S
C4311 C4309 1.388 . S
C4311 C4312 1.366 . S
C4312 C4311 1.366 . S
C4312 C4313 1.414 . S
C4312 C4315 1.499 . S
C4313 H4287 0.950 . S
C4313 C4312 1.414 . S
C4313 C4314 1.374 . S
C4314 H4288 0.950 . S
C4314 C4310 1.385 . S
C4314 C4313 1.374 . S
C4315 C4312 1.499 . S
C4315 C4316 1.373 . S
C4315 C4317 1.389 . S
C4316 H4289 0.950 . S
C4316 C4302 1.377 . S
C4316 C4315 1.373 . S
C4317 C4301 1.377 . S
C4317 C4315 1.389 . S
C4317 C4318 1.524 . S
C4318 C4317 1.524 . S
C4318 C4319 1.397 . S
C4318 C4323 1.363 . S
C4319 H4290 0.950 . S
C4319 C4318 1.397 . S
C4319 C4320 1.334 . S
C4320 H4291 0.950 . S
C4320 C4319 1.334 . S
C4320 C4321 1.287 . S
C4321 C4320 1.287 . S
C4321 C4322 1.524 . S
C4321 H4324 0.999 . S
C4322 H4292 0.950 . S
C4322 C4321 1.524 . S
C4322 C4323 1.415 . S
C4323 H4293 0.950 . S
C4323 C4318 1.363 . S
C4323 C4322 1.415 . S
H4324 C4321 0.999 . S
H4325 C4306 0.913 . S
H4326 C4344 0.951 . S
H4327 C4346 0.951 . S
H4328 C4348 0.950 . S
H4329 C4349 0.950 . S
H4330 C4351 0.950 . S
H4331 C4354 0.950 . S
H4332 C4355 0.950 . S
H4333 C4357 0.950 . S
H4334 C4358 0.950 . S
H4335 C4359 0.951 . S
H4336 C4361 0.951 . S
H4337 C4363 0.950 . S
H4338 C4364 0.950 . S
H4339 C4366 0.950 . S
H4340 C4369 0.950 . S
H4341 C4370 0.950 . S
H4342 C4372 0.950 . S
H4343 C4373 0.950 . S
C4344 H4326 0.951 . S
C4344 C4345 1.366 . S
C4344 C4346 1.388 . S
C4345 C4344 1.366 . S
C4345 C4349 1.385 . S
C4346 H4327 0.951 . S
C4346 C4344 1.388 . S
C4346 C4347 1.366 . S
C4347 C4346 1.366 . S
C4347 C4348 1.414 . S
C4347 C4350 1.499 . S
C4348 H4328 0.950 . S
C4348 C4347 1.414 . S
C4348 C4349 1.374 . S
C4349 H4329 0.950 . S
C4349 C4345 1.385 . S
C4349 C4348 1.374 . S
C4350 C4347 1.499 . S
C4350 C4351 1.373 1_554 S
C4350 C4352 1.389 . S
C4351 H4330 0.950 . S
C4351 C4350 1.373 1_556 S
C4351 C4367 1.377 . S
C4352 C4350 1.389 . S
C4352 C4353 1.524 . S
C4352 C4366 1.377 . S
C4353 C4352 1.524 . S
C4353 C4354 1.397 . S
C4353 C4358 1.363 . S
C4354 H4331 0.950 . S
C4354 C4353 1.397 . S
C4354 C4355 1.334 . S
C4355 H4332 0.950 . S
C4355 C4354 1.334 . S
C4355 C4356 1.287 . S
C4356 C4355 1.287 . S
C4356 C4357 1.524 . S
C4356 H4375 0.913 . S
C4357 H4333 0.950 . S
C4357 C4356 1.524 . S
C4357 C4358 1.415 . S
C4358 H4334 0.950 . S
C4358 C4353 1.363 . S
C4358 C4357 1.415 . S
C4359 H4335 0.951 . S
C4359 C4360 1.366 . S
C4359 C4361 1.388 . S
C4360 C4359 1.366 . S
C4360 C4364 1.385 1_545 S
C4361 H4336 0.951 . S
C4361 C4359 1.388 . S
C4361 C4362 1.366 1_545 S
C4362 C4361 1.366 1_565 S
C4362 C4363 1.414 . S
C4362 C4365 1.499 . S
C4363 H4337 0.950 . S
C4363 C4362 1.414 . S
C4363 C4364 1.374 . S
C4364 H4338 0.950 . S
C4364 C4360 1.385 1_565 S
C4364 C4363 1.374 . S
C4365 C4362 1.499 . S
C4365 C4366 1.373 . S
C4365 C4367 1.389 1_554 S
C4366 H4339 0.950 . S
C4366 C4352 1.377 . S
C4366 C4365 1.373 . S
C4367 C4351 1.377 . S
C4367 C4365 1.389 1_556 S
C4367 C4368 1.524 . S
C4368 C4367 1.524 . S
C4368 C4369 1.397 . S
C4368 C4373 1.363 1_565 S
C4369 H4340 0.950 . S
C4369 C4368 1.397 . S
C4369 C4370 1.334 . S
C4370 H4341 0.950 . S
C4370 C4369 1.334 . S
C4370 C4371 1.287 1_565 S
C4371 C4370 1.287 1_545 S
C4371 C4372 1.524 . S
C4371 H4374 0.999 . S
C4372 H4342 0.950 . S
C4372 C4371 1.524 . S
C4372 C4373 1.415 . S
C4373 H4343 0.950 . S
C4373 C4368 1.363 1_545 S
C4373 C4372 1.415 . S
H4374 C4371 0.999 . S
H4375 C4356 0.913 . S
H4376 C4394 0.951 . S
H4377 C4396 0.951 . S
H4378 C4398 0.950 . S
H4379 C4399 0.950 . S
H4380 C4401 0.950 . S
H4381 C4404 0.950 . S
H4382 C4405 0.950 . S
H4383 C4407 0.950 . S
H4384 C4408 0.950 . S
H4385 C4409 0.951 . S
H4386 C4411 0.951 . S
H4387 C4413 0.950 . S
H4388 C4414 0.950 . S
H4389 C4416 0.950 . S
H4390 C4419 0.950 . S
H4391 C4420 0.950 . S
H4392 C4422 0.950 . S
H4393 C4423 0.950 . S
C4394 H4376 0.951 . S
C4394 C4395 1.366 . S
C4394 C4396 1.388 . S
C4395 C4394 1.366 . S
C4395 C4399 1.385 . S
C4396 H4377 0.951 . S
C4396 C4394 1.388 . S
C4396 C4397 1.366 . S
C4397 C4396 1.366 . S
C4397 C4398 1.414 . S
C4397 C4400 1.499 . S
C4398 H4378 0.950 . S
C4398 C4397 1.414 . S
C4398 C4399 1.374 . S
C4399 H4379 0.950 . S
C4399 C4395 1.385 . S
C4399 C4398 1.374 . S
C4400 C4397 1.499 . S
C4400 C4401 1.373 . S
C4400 C4402 1.389 . S
C4401 H4380 0.950 . S
C4401 C4400 1.373 . S
C4401 C4417 1.377 . S
C4402 C4400 1.389 . S
C4402 C4403 1.524 . S
C4402 C4416 1.377 . S
C4403 C4402 1.524 . S
C4403 C4404 1.397 . S
C4403 C4408 1.363 . S
C4404 H4381 0.950 . S
C4404 C4403 1.397 . S
C4404 C4405 1.334 . S
C4405 H4382 0.950 . S
C4405 C4404 1.334 . S
C4405 C4406 1.287 . S
C4406 C4405 1.287 . S
C4406 C4407 1.524 . S
C4406 H4425 0.913 . S
C4407 H4383 0.950 . S
C4407 C4406 1.524 . S
C4407 C4408 1.415 . S
C4408 H4384 0.950 . S
C4408 C4403 1.363 . S
C4408 C4407 1.415 . S
C4409 H4385 0.951 . S
C4409 C4410 1.366 . S
C4409 C4411 1.388 . S
C4410 C4409 1.366 . S
C4410 C4414 1.385 . S
C4411 H4386 0.951 . S
C4411 C4409 1.388 . S
C4411 C4412 1.366 . S
C4412 C4411 1.366 . S
C4412 C4413 1.414 . S
C4412 C4415 1.499 . S
C4413 H4387 0.950 . S
C4413 C4412 1.414 . S
C4413 C4414 1.374 . S
C4414 H4388 0.950 . S
C4414 C4410 1.385 . S
C4414 C4413 1.374 . S
C4415 C4412 1.499 . S
C4415 C4416 1.373 . S
C4415 C4417 1.389 . S
C4416 H4389 0.950 . S
C4416 C4402 1.377 . S
C4416 C4415 1.373 . S
C4417 C4401 1.377 . S
C4417 C4415 1.389 . S
C4417 C4418 1.524 . S
C4418 C4417 1.524 . S
C4418 C4419 1.397 . S
C4418 C4423 1.363 . S
C4419 H4390 0.950 . S
C4419 C4418 1.397 . S
C4419 C4420 1.334 . S
C4420 H4391 0.950 . S
C4420 C4419 1.334 . S
C4420 C4421 1.287 . S
C4421 C4420 1.287 . S
C4421 C4422 1.524 . S
C4421 H4424 0.999 . S
C4422 H4392 0.950 . S
C4422 C4421 1.524 . S
C4422 C4423 1.415 . S
C4423 H4393 0.950 . S
C4423 C4418 1.363 . S
C4423 C4422 1.415 . S
H4424 C4421 0.999 . S
H4425 C4406 0.913 . S
H4426 C4444 0.951 . S
H4427 C4446 0.951 . S
H4428 C4448 0.950 . S
H4429 C4449 0.950 1_556 S
H4430 C4451 0.950 1_556 S
H4431 C4454 0.950 . S
H4432 C4455 0.950 . S
H4433 C4457 0.950 . S
H4434 C4458 0.950 . S
H4435 C4459 0.951 . S
H4436 C4461 0.951 . S
H4437 C4463 0.950 . S
H4438 C4464 0.950 . S
H4439 C4466 0.950 . S
H4440 C4469 0.950 . S
H4441 C4470 0.950 . S
H4442 C4472 0.950 . S
H4443 C4473 0.950 . S
C4444 H4426 0.951 . S
C4444 C4445 1.366 . S
C4444 C4446 1.388 . S
C4445 C4444 1.366 . S
C4445 C4449 1.385 . S
C4446 H4427 0.951 . S
C4446 C4444 1.388 . S
C4446 C4447 1.366 . S
C4447 C4446 1.366 . S
C4447 C4448 1.414 . S
C4447 C4450 1.499 . S
C4448 H4428 0.950 . S
C4448 C4447 1.414 . S
C4448 C4449 1.374 . S
C4449 H4429 0.950 1_554 S
C4449 C4445 1.385 . S
C4449 C4448 1.374 . S
C4450 C4447 1.499 . S
C4450 C4451 1.373 . S
C4450 C4452 1.389 . S
C4451 H4430 0.950 1_554 S
C4451 C4450 1.373 . S
C4451 C4467 1.377 . S
C4452 C4450 1.389 . S
C4452 C4453 1.524 . S
C4452 C4466 1.377 . S
C4453 C4452 1.524 . S
C4453 C4454 1.397 . S
C4453 C4458 1.363 . S
C4454 H4431 0.950 . S
C4454 C4453 1.397 . S
C4454 C4455 1.334 . S
C4455 H4432 0.950 . S
C4455 C4454 1.334 . S
C4455 C4456 1.287 . S
C4456 C4455 1.287 . S
C4456 C4457 1.524 . S
C4456 H4475 0.913 . S
C4457 H4433 0.950 . S
C4457 C4456 1.524 . S
C4457 C4458 1.415 . S
C4458 H4434 0.950 . S
C4458 C4453 1.363 . S
C4458 C4457 1.415 . S
C4459 H4435 0.951 . S
C4459 C4460 1.366 . S
C4459 C4461 1.388 . S
C4460 C4459 1.366 . S
C4460 C4464 1.385 . S
C4461 H4436 0.951 . S
C4461 C4459 1.388 . S
C4461 C4462 1.366 . S
C4462 C4461 1.366 . S
C4462 C4463 1.414 . S
C4462 C4465 1.499 . S
C4463 H4437 0.950 . S
C4463 C4462 1.414 . S
C4463 C4464 1.374 . S
C4464 H4438 0.950 . S
C4464 C4460 1.385 . S
C4464 C4463 1.374 . S
C4465 C4462 1.499 . S
C4465 C4466 1.373 . S
C4465 C4467 1.389 . S
C4466 H4439 0.950 . S
C4466 C4452 1.377 . S
C4466 C4465 1.373 . S
C4467 C4451 1.377 . S
C4467 C4465 1.389 . S
C4467 C4468 1.524 1_554 S
C4468 C4467 1.524 1_556 S
C4468 C4469 1.397 . S
C4468 C4473 1.363 . S
C4469 H4440 0.950 . S
C4469 C4468 1.397 . S
C4469 C4470 1.334 . S
C4470 H4441 0.950 . S
C4470 C4469 1.334 . S
C4470 C4471 1.287 . S
C4471 C4470 1.287 . S
C4471 C4472 1.524 . S
C4471 H4474 0.999 . S
C4472 H4442 0.950 . S
C4472 C4471 1.524 . S
C4472 C4473 1.415 . S
C4473 H4443 0.950 . S
C4473 C4468 1.363 . S
C4473 C4472 1.415 . S
H4474 C4471 0.999 . S
H4475 C4456 0.913 . S
H4476 C4494 0.951 . S
H4477 C4496 0.951 . S
H4478 C4498 0.950 . S
H4479 C4499 0.950 . S
H4480 C4501 0.950 . S
H4481 C4504 0.950 . S
H4482 C4505 0.950 . S
H4483 C4507 0.950 . S
H4484 C4508 0.950 . S
H4485 C4509 0.951 . S
H4486 C4511 0.951 . S
H4487 C4513 0.950 . S
H4488 C4514 0.950 . S
H4489 C4516 0.950 . S
H4490 C4519 0.950 . S
H4491 C4520 0.950 . S
H4492 C4522 0.950 . S
H4493 C4523 0.950 . S
C4494 H4476 0.951 . S
C4494 C4495 1.366 . S
C4494 C4496 1.388 . S
C4495 C4494 1.366 . S
C4495 C4499 1.385 . S
C4496 H4477 0.951 . S
C4496 C4494 1.388 . S
C4496 C4497 1.366 . S
C4497 C4496 1.366 . S
C4497 C4498 1.414 . S
C4497 C4500 1.499 . S
C4498 H4478 0.950 . S
C4498 C4497 1.414 . S
C4498 C4499 1.374 . S
C4499 H4479 0.950 . S
C4499 C4495 1.385 . S
C4499 C4498 1.374 . S
C4500 C4497 1.499 . S
C4500 C4501 1.373 . S
C4500 C4502 1.389 . S
C4501 H4480 0.950 . S
C4501 C4500 1.373 . S
C4501 C4517 1.377 . S
C4502 C4500 1.389 . S
C4502 C4503 1.524 . S
C4502 C4516 1.377 . S
C4503 C4502 1.524 . S
C4503 C4504 1.397 . S
C4503 C4508 1.363 . S
C4504 H4481 0.950 . S
C4504 C4503 1.397 . S
C4504 C4505 1.334 . S
C4505 H4482 0.950 . S
C4505 C4504 1.334 . S
C4505 C4506 1.287 . S
C4506 C4505 1.287 . S
C4506 C4507 1.524 . S
C4506 H4525 0.913 . S
C4507 H4483 0.950 . S
C4507 C4506 1.524 . S
C4507 C4508 1.415 . S
C4508 H4484 0.950 . S
C4508 C4503 1.363 . S
C4508 C4507 1.415 . S
C4509 H4485 0.951 . S
C4509 C4510 1.366 . S
C4509 C4511 1.388 . S
C4510 C4509 1.366 . S
C4510 C4514 1.385 . S
C4511 H4486 0.951 . S
C4511 C4509 1.388 . S
C4511 C4512 1.366 . S
C4512 C4511 1.366 . S
C4512 C4513 1.414 . S
C4512 C4515 1.499 . S
C4513 H4487 0.950 . S
C4513 C4512 1.414 . S
C4513 C4514 1.374 . S
C4514 H4488 0.950 . S
C4514 C4510 1.385 . S
C4514 C4513 1.374 . S
C4515 C4512 1.499 . S
C4515 C4516 1.373 . S
C4515 C4517 1.389 . S
C4516 H4489 0.950 . S
C4516 C4502 1.377 . S
C4516 C4515 1.373 . S
C4517 C4501 1.377 . S
C4517 C4515 1.389 . S
C4517 C4518 1.524 . S
C4518 C4517 1.524 . S
C4518 C4519 1.397 . S
C4518 C4523 1.363 . S
C4519 H4490 0.950 . S
C4519 C4518 1.397 . S
C4519 C4520 1.334 . S
C4520 H4491 0.950 . S
C4520 C4519 1.334 . S
C4520 C4521 1.287 . S
C4521 C4520 1.287 . S
C4521 C4522 1.524 . S
C4521 H4524 0.999 . S
C4522 H4492 0.950 . S
C4522 C4521 1.524 . S
C4522 C4523 1.415 . S
C4523 H4493 0.950 . S
C4523 C4518 1.363 . S
C4523 C4522 1.415 . S
H4524 C4521 0.999 . S
H4525 C4506 0.913 . S
H4526 C4544 0.951 . S
H4527 C4546 0.951 . S
H4528 C4548 0.950 . S
H4529 C4549 0.950 . S
H4530 C4551 0.950 . S
H4531 C4554 0.950 . S
H4532 C4555 0.950 . S
H4533 C4557 0.950 . S
H4534 C4558 0.950 . S
H4535 C4559 0.951 . S
H4536 C4561 0.951 . S
H4537 C4563 0.950 . S
H4538 C4564 0.950 . S
H4539 C4566 0.950 . S
H4540 C4569 0.950 . S
H4541 C4570 0.950 . S
H4542 C4572 0.950 . S
H4543 C4573 0.950 . S
C4544 H4526 0.951 . S
C4544 C4545 1.366 . S
C4544 C4546 1.388 . S
C4545 C4544 1.366 . S
C4545 C4549 1.385 . S
C4546 H4527 0.951 . S
C4546 C4544 1.388 . S
C4546 C4547 1.366 . S
C4547 C4546 1.366 . S
C4547 C4548 1.414 . S
C4547 C4550 1.499 . S
C4548 H4528 0.950 . S
C4548 C4547 1.414 . S
C4548 C4549 1.374 . S
C4549 H4529 0.950 . S
C4549 C4545 1.385 . S
C4549 C4548 1.374 . S
C4550 C4547 1.499 . S
C4550 C4551 1.373 . S
C4550 C4552 1.389 . S
C4551 H4530 0.950 . S
C4551 C4550 1.373 . S
C4551 C4567 1.377 . S
C4552 C4550 1.389 . S
C4552 C4553 1.524 . S
C4552 C4566 1.377 . S
C4553 C4552 1.524 . S
C4553 C4554 1.397 . S
C4553 C4558 1.363 . S
C4554 H4531 0.950 . S
C4554 C4553 1.397 . S
C4554 C4555 1.334 . S
C4555 H4532 0.950 . S
C4555 C4554 1.334 . S
C4555 C4556 1.287 . S
C4556 C4555 1.287 . S
C4556 C4557 1.524 . S
C4556 H4575 0.913 . S
C4557 H4533 0.950 . S
C4557 C4556 1.524 . S
C4557 C4558 1.415 . S
C4558 H4534 0.950 . S
C4558 C4553 1.363 . S
C4558 C4557 1.415 . S
C4559 H4535 0.951 . S
C4559 C4560 1.366 . S
C4559 C4561 1.388 . S
C4560 C4559 1.366 . S
C4560 C4564 1.385 . S
C4561 H4536 0.951 . S
C4561 C4559 1.388 . S
C4561 C4562 1.366 . S
C4562 C4561 1.366 . S
C4562 C4563 1.414 . S
C4562 C4565 1.499 . S
C4563 H4537 0.950 . S
C4563 C4562 1.414 . S
C4563 C4564 1.374 . S
C4564 H4538 0.950 . S
C4564 C4560 1.385 . S
C4564 C4563 1.374 . S
C4565 C4562 1.499 . S
C4565 C4566 1.373 . S
C4565 C4567 1.389 . S
C4566 H4539 0.950 . S
C4566 C4552 1.377 . S
C4566 C4565 1.373 . S
C4567 C4551 1.377 . S
C4567 C4565 1.389 . S
C4567 C4568 1.524 . S
C4568 C4567 1.524 . S
C4568 C4569 1.397 . S
C4568 C4573 1.363 . S
C4569 H4540 0.950 . S
C4569 C4568 1.397 . S
C4569 C4570 1.334 . S
C4570 H4541 0.950 . S
C4570 C4569 1.334 . S
C4570 C4571 1.287 . S
C4571 C4570 1.287 . S
C4571 C4572 1.524 . S
C4571 H4574 0.999 . S
C4572 H4542 0.950 . S
C4572 C4571 1.524 . S
C4572 C4573 1.415 . S
C4573 H4543 0.950 . S
C4573 C4568 1.363 . S
C4573 C4572 1.415 . S
H4574 C4571 0.999 . S
H4575 C4556 0.913 . S
H4576 C4594 0.951 . S
H4577 C4596 0.951 . S
H4578 C4598 0.950 . S
H4579 C4599 0.950 . S
H4580 C4601 0.950 . S
H4581 C4604 0.950 . S
H4582 C4605 0.950 . S
H4583 C4607 0.950 . S
H4584 C4608 0.950 . S
H4585 C4609 0.951 . S
H4586 C4611 0.951 . S
H4587 C4613 0.950 . S
H4588 C4614 0.950 . S
H4589 C4616 0.950 . S
H4590 C4619 0.950 . S
H4591 C4620 0.950 . S
H4592 C4622 0.950 . S
H4593 C4623 0.950 . S
C4594 H4576 0.951 . S
C4594 C4595 1.366 . S
C4594 C4596 1.388 . S
C4595 C4594 1.366 . S
C4595 C4599 1.385 . S
C4596 H4577 0.951 . S
C4596 C4594 1.388 . S
C4596 C4597 1.366 . S
C4597 C4596 1.366 . S
C4597 C4598 1.414 . S
C4597 C4600 1.499 . S
C4598 H4578 0.950 . S
C4598 C4597 1.414 . S
C4598 C4599 1.374 . S
C4599 H4579 0.950 . S
C4599 C4595 1.385 . S
C4599 C4598 1.374 . S
C4600 C4597 1.499 . S
C4600 C4601 1.373 . S
C4600 C4602 1.389 . S
C4601 H4580 0.950 . S
C4601 C4600 1.373 . S
C4601 C4617 1.377 . S
C4602 C4600 1.389 . S
C4602 C4603 1.524 . S
C4602 C4616 1.377 . S
C4603 C4602 1.524 . S
C4603 C4604 1.397 . S
C4603 C4608 1.363 . S
C4604 H4581 0.950 . S
C4604 C4603 1.397 . S
C4604 C4605 1.334 . S
C4605 H4582 0.950 . S
C4605 C4604 1.334 . S
C4605 C4606 1.287 . S
C4606 C4605 1.287 . S
C4606 C4607 1.524 . S
C4606 H4625 0.913 . S
C4607 H4583 0.950 . S
C4607 C4606 1.524 . S
C4607 C4608 1.415 . S
C4608 H4584 0.950 . S
C4608 C4603 1.363 . S
C4608 C4607 1.415 . S
C4609 H4585 0.951 . S
C4609 C4610 1.366 . S
C4609 C4611 1.388 . S
C4610 C4609 1.366 . S
C4610 C4614 1.385 . S
C4611 H4586 0.951 . S
C4611 C4609 1.388 . S
C4611 C4612 1.366 . S
C4612 C4611 1.366 . S
C4612 C4613 1.414 . S
C4612 C4615 1.499 . S
C4613 H4587 0.950 . S
C4613 C4612 1.414 . S
C4613 C4614 1.374 . S
C4614 H4588 0.950 . S
C4614 C4610 1.385 . S
C4614 C4613 1.374 . S
C4615 C4612 1.499 . S
C4615 C4616 1.373 . S
C4615 C4617 1.389 . S
C4616 H4589 0.950 . S
C4616 C4602 1.377 . S
C4616 C4615 1.373 . S
C4617 C4601 1.377 . S
C4617 C4615 1.389 . S
C4617 C4618 1.524 . S
C4618 C4617 1.524 . S
C4618 C4619 1.397 . S
C4618 C4623 1.363 . S
C4619 H4590 0.950 . S
C4619 C4618 1.397 . S
C4619 C4620 1.334 . S
C4620 H4591 0.950 . S
C4620 C4619 1.334 . S
C4620 C4621 1.287 . S
C4621 C4620 1.287 . S
C4621 C4622 1.524 . S
C4621 H4624 0.999 . S
C4622 H4592 0.950 . S
C4622 C4621 1.524 . S
C4622 C4623 1.415 . S
C4623 H4593 0.950 . S
C4623 C4618 1.363 . S
C4623 C4622 1.415 . S
H4624 C4621 0.999 . S
H4625 C4606 0.913 . S
H4626 C4644 0.951 . S
H4627 C4646 0.951 . S
H4628 C4648 0.950 . S
H4629 C4649 0.950 . S
H4630 C4651 0.950 . S
H4631 C4654 0.950 . S
H4632 C4655 0.950 . S
H4633 C4657 0.950 . S
H4634 C4658 0.950 . S
H4635 C4659 0.951 . S
H4636 C4661 0.951 . S
H4637 C4663 0.950 . S
H4638 C4664 0.950 . S
H4639 C4666 0.950 . S
H4640 C4669 0.950 . S
H4641 C4670 0.950 . S
H4642 C4672 0.950 . S
H4643 C4673 0.950 . S
C4644 H4626 0.951 . S
C4644 C4645 1.366 . S
C4644 C4646 1.388 . S
C4645 C4644 1.366 . S
C4645 C4649 1.385 . S
C4646 H4627 0.951 . S
C4646 C4644 1.388 . S
C4646 C4647 1.366 . S
C4647 C4646 1.366 . S
C4647 C4648 1.414 . S
C4647 C4650 1.499 . S
C4648 H4628 0.950 . S
C4648 C4647 1.414 . S
C4648 C4649 1.374 . S
C4649 H4629 0.950 . S
C4649 C4645 1.385 . S
C4649 C4648 1.374 . S
C4650 C4647 1.499 . S
C4650 C4651 1.373 . S
C4650 C4652 1.389 . S
C4651 H4630 0.950 . S
C4651 C4650 1.373 . S
C4651 C4667 1.377 . S
C4652 C4650 1.389 . S
C4652 C4653 1.524 . S
C4652 C4666 1.377 . S
C4653 C4652 1.524 . S
C4653 C4654 1.397 . S
C4653 C4658 1.363 . S
C4654 H4631 0.950 . S
C4654 C4653 1.397 . S
C4654 C4655 1.334 . S
C4655 H4632 0.950 . S
C4655 C4654 1.334 . S
C4655 C4656 1.287 . S
C4656 C4655 1.287 . S
C4656 C4657 1.524 . S
C4656 H4675 0.913 . S
C4657 H4633 0.950 . S
C4657 C4656 1.524 . S
C4657 C4658 1.415 . S
C4658 H4634 0.950 . S
C4658 C4653 1.363 . S
C4658 C4657 1.415 . S
C4659 H4635 0.951 . S
C4659 C4660 1.366 . S
C4659 C4661 1.388 . S
C4660 C4659 1.366 . S
C4660 C4664 1.385 . S
C4661 H4636 0.951 . S
C4661 C4659 1.388 . S
C4661 C4662 1.366 . S
C4662 C4661 1.366 . S
C4662 C4663 1.414 . S
C4662 C4665 1.499 . S
C4663 H4637 0.950 . S
C4663 C4662 1.414 . S
C4663 C4664 1.374 . S
C4664 H4638 0.950 . S
C4664 C4660 1.385 . S
C4664 C4663 1.374 . S
C4665 C4662 1.499 . S
C4665 C4666 1.373 . S
C4665 C4667 1.389 . S
C4666 H4639 0.950 . S
C4666 C4652 1.377 . S
C4666 C4665 1.373 . S
C4667 C4651 1.377 . S
C4667 C4665 1.389 . S
C4667 C4668 1.524 . S
C4668 C4667 1.524 . S
C4668 C4669 1.397 . S
C4668 C4673 1.363 . S
C4669 H4640 0.950 . S
C4669 C4668 1.397 . S
C4669 C4670 1.334 . S
C4670 H4641 0.950 . S
C4670 C4669 1.334 . S
C4670 C4671 1.287 . S
C4671 C4670 1.287 . S
C4671 C4672 1.524 . S
C4671 H4674 0.999 . S
C4672 H4642 0.950 . S
C4672 C4671 1.524 . S
C4672 C4673 1.415 . S
C4673 H4643 0.950 . S
C4673 C4668 1.363 . S
C4673 C4672 1.415 . S
H4674 C4671 0.999 . S
H4675 C4656 0.913 . S
H4676 C4694 0.951 . S
H4677 C4696 0.951 . S
H4678 C4698 0.950 . S
H4679 C4699 0.950 . S
H4680 C4701 0.950 . S
H4681 C4704 0.950 . S
H4682 C4705 0.950 . S
H4683 C4707 0.950 . S
H4684 C4708 0.950 . S
H4685 C4709 0.951 . S
H4686 C4711 0.951 . S
H4687 C4713 0.950 . S
H4688 C4714 0.950 . S
H4689 C4716 0.950 . S
H4690 C4719 0.950 . S
H4691 C4720 0.950 . S
H4692 C4722 0.950 . S
H4693 C4723 0.929 1_655 S
C4694 H4676 0.951 . S
C4694 C4695 1.366 . S
C4694 C4696 1.388 . S
C4695 C4694 1.366 . S
C4695 C4699 1.385 . S
C4696 H4677 0.951 . S
C4696 C4694 1.388 . S
C4696 C4697 1.366 . S
C4697 C4696 1.366 . S
C4697 C4698 1.414 . S
C4697 C4700 1.499 . S
C4698 H4678 0.950 . S
C4698 C4697 1.414 . S
C4698 C4699 1.374 . S
C4699 H4679 0.950 . S
C4699 C4695 1.385 . S
C4699 C4698 1.374 . S
C4700 C4697 1.499 . S
C4700 C4701 1.373 . S
C4700 C4702 1.389 . S
C4701 H4680 0.950 . S
C4701 C4700 1.373 . S
C4701 C4717 1.377 . S
C4702 C4700 1.389 . S
C4702 C4703 1.524 . S
C4702 C4716 1.377 . S
C4703 C4702 1.524 . S
C4703 C4704 1.397 . S
C4703 C4708 1.363 . S
C4704 H4681 0.950 . S
C4704 C4703 1.397 . S
C4704 C4705 1.334 . S
C4705 H4682 0.950 . S
C4705 C4704 1.334 . S
C4705 C4706 1.287 . S
C4706 C4705 1.287 . S
C4706 C4707 1.524 . S
C4706 H4725 0.913 . S
C4707 H4683 0.950 . S
C4707 C4706 1.524 . S
C4707 C4708 1.415 . S
C4708 H4684 0.950 . S
C4708 C4703 1.363 . S
C4708 C4707 1.415 . S
C4709 H4685 0.951 . S
C4709 C4710 1.366 . S
C4709 C4711 1.388 . S
C4710 C4709 1.366 . S
C4710 C4714 1.385 . S
C4711 H4686 0.951 . S
C4711 C4709 1.388 . S
C4711 C4712 1.366 . S
C4712 C4711 1.366 . S
C4712 C4713 1.414 . S
C4712 C4715 1.499 . S
C4713 H4687 0.950 . S
C4713 C4712 1.414 . S
C4713 C4714 1.374 . S
C4714 H4688 0.950 . S
C4714 C4710 1.385 . S
C4714 C4713 1.374 . S
C4715 C4712 1.499 . S
C4715 C4716 1.373 . S
C4715 C4717 1.389 . S
C4716 H4689 0.950 . S
C4716 C4702 1.377 . S
C4716 C4715 1.373 . S
C4717 C4701 1.377 . S
C4717 C4715 1.389 . S
C4717 C4718 1.524 . S
C4718 C4717 1.524 . S
C4718 C4719 1.397 . S
C4718 C4723 1.423 . S
C4719 H4690 0.950 . S
C4719 C4718 1.397 . S
C4719 C4720 1.334 . S
C4720 H4691 0.950 . S
C4720 C4719 1.334 . S
C4720 C4721 1.287 1_455 S
C4721 C4720 1.287 1_655 S
C4721 C4722 1.524 . S
C4721 H4724 0.999 . S
C4722 H4692 0.950 . S
C4722 C4721 1.524 . S
C4722 C4723 1.378 1_655 S
C4723 H4693 0.929 1_455 S
C4723 C4718 1.423 . S
C4723 C4722 1.378 1_455 S
H4724 C4721 0.999 . S
H4725 C4706 0.913 . S
H4726 C4744 0.951 . S
H4727 C4746 0.951 . S
H4728 C4748 0.950 . S
H4729 C4749 0.950 . S
H4730 C4751 0.950 . S
H4731 C4754 0.950 . S
H4732 C4755 0.950 . S
H4733 C4757 0.950 . S
H4734 C4758 0.950 . S
H4735 C4759 0.951 . S
H4736 C4761 0.951 . S
H4737 C4763 0.950 . S
H4738 C4764 0.950 . S
H4739 C4766 0.950 . S
H4740 C4769 0.950 . S
H4741 C4770 0.950 . S
H4742 C4772 0.950 . S
H4743 C4773 0.950 . S
C4744 H4726 0.951 . S
C4744 C4745 1.366 . S
C4744 C4746 1.388 . S
C4745 C4744 1.366 . S
C4745 C4749 1.385 . S
C4746 H4727 0.951 . S
C4746 C4744 1.388 . S
C4746 C4747 1.366 . S
C4747 C4746 1.366 . S
C4747 C4748 1.414 . S
C4747 C4750 1.499 . S
C4748 H4728 0.950 . S
C4748 C4747 1.414 . S
C4748 C4749 1.374 . S
C4749 H4729 0.950 . S
C4749 C4745 1.385 . S
C4749 C4748 1.374 . S
C4750 C4747 1.499 . S
C4750 C4751 1.373 . S
C4750 C4752 1.389 . S
C4751 H4730 0.950 . S
C4751 C4750 1.373 . S
C4751 C4767 1.377 . S
C4752 C4750 1.389 . S
C4752 C4753 1.524 . S
C4752 C4766 1.377 . S
C4753 C4752 1.524 . S
C4753 C4754 1.397 . S
C4753 C4758 1.363 . S
C4754 H4731 0.950 . S
C4754 C4753 1.397 . S
C4754 C4755 1.334 . S
C4755 H4732 0.950 . S
C4755 C4754 1.334 . S
C4755 C4756 1.287 . S
C4756 C4755 1.287 . S
C4756 C4757 1.524 . S
C4756 H4775 0.913 . S
C4757 H4733 0.950 . S
C4757 C4756 1.524 . S
C4757 C4758 1.415 . S
C4758 H4734 0.950 . S
C4758 C4753 1.363 . S
C4758 C4757 1.415 . S
C4759 H4735 0.951 . S
C4759 C4760 1.366 . S
C4759 C4761 1.388 . S
C4760 C4759 1.366 . S
C4760 C4764 1.385 . S
C4761 H4736 0.951 . S
C4761 C4759 1.388 . S
C4761 C4762 1.366 . S
C4762 C4761 1.366 . S
C4762 C4763 1.414 . S
C4762 C4765 1.499 . S
C4763 H4737 0.950 . S
C4763 C4762 1.414 . S
C4763 C4764 1.374 . S
C4764 H4738 0.950 . S
C4764 C4760 1.385 . S
C4764 C4763 1.374 . S
C4765 C4762 1.499 . S
C4765 C4766 1.373 . S
C4765 C4767 1.389 . S
C4766 H4739 0.950 . S
C4766 C4752 1.377 . S
C4766 C4765 1.373 . S
C4767 C4751 1.377 . S
C4767 C4765 1.389 . S
C4767 C4768 1.524 . S
C4768 C4767 1.524 . S
C4768 C4769 1.397 . S
C4768 C4773 1.363 . S
C4769 H4740 0.950 . S
C4769 C4768 1.397 . S
C4769 C4770 1.334 . S
C4770 H4741 0.950 . S
C4770 C4769 1.334 . S
C4770 C4771 1.287 . S
C4771 C4770 1.287 . S
C4771 C4772 1.524 . S
C4771 H4774 0.999 . S
C4772 H4742 0.950 . S
C4772 C4771 1.524 . S
C4772 C4773 1.415 . S
C4773 H4743 0.950 . S
C4773 C4768 1.363 . S
C4773 C4772 1.415 . S
H4774 C4771 0.999 . S
H4775 C4756 0.913 . S
H4776 C4794 0.951 . S
H4777 C4796 0.951 . S
H4778 C4798 0.950 . S
H4779 C4799 0.950 . S
H4780 C4801 0.950 . S
H4781 C4804 0.950 . S
H4782 C4805 0.950 . S
H4783 C4807 0.950 . S
H4784 C4808 0.950 . S
H4785 C4809 0.951 . S
H4786 C4811 0.951 . S
H4787 C4813 0.950 . S
H4788 C4814 0.950 . S
H4789 C4816 0.950 . S
H4790 C4819 0.950 . S
H4791 C4820 0.950 . S
H4792 C4822 0.950 . S
H4793 C4823 0.950 . S
C4794 H4776 0.951 . S
C4794 C4795 1.366 . S
C4794 C4796 1.388 . S
C4795 C4794 1.366 . S
C4795 C4799 1.385 . S
C4796 H4777 0.951 . S
C4796 C4794 1.388 . S
C4796 C4797 1.366 . S
C4797 C4796 1.366 . S
C4797 C4798 1.414 . S
C4797 C4800 1.499 . S
C4798 H4778 0.950 . S
C4798 C4797 1.414 . S
C4798 C4799 1.374 . S
C4799 H4779 0.950 . S
C4799 C4795 1.385 . S
C4799 C4798 1.374 . S
C4800 C4797 1.499 . S
C4800 C4801 1.373 . S
C4800 C4802 1.389 . S
C4801 H4780 0.950 . S
C4801 C4800 1.373 . S
C4801 C4817 1.377 . S
C4802 C4800 1.389 . S
C4802 C4803 1.524 . S
C4802 C4816 1.377 . S
C4803 C4802 1.524 . S
C4803 C4804 1.397 . S
C4803 C4808 1.363 . S
C4804 H4781 0.950 . S
C4804 C4803 1.397 . S
C4804 C4805 1.334 . S
C4805 H4782 0.950 . S
C4805 C4804 1.334 . S
C4805 C4806 1.287 . S
C4806 C4805 1.287 . S
C4806 C4807 1.524 . S
C4806 H4825 0.913 . S
C4807 H4783 0.950 . S
C4807 C4806 1.524 . S
C4807 C4808 1.415 . S
C4808 H4784 0.950 . S
C4808 C4803 1.363 . S
C4808 C4807 1.415 . S
C4809 H4785 0.951 . S
C4809 C4810 1.366 . S
C4809 C4811 1.388 . S
C4810 C4809 1.366 . S
C4810 C4814 1.385 . S
C4811 H4786 0.951 . S
C4811 C4809 1.388 . S
C4811 C4812 1.366 . S
C4812 C4811 1.366 . S
C4812 C4813 1.414 . S
C4812 C4815 1.499 . S
C4813 H4787 0.950 . S
C4813 C4812 1.414 . S
C4813 C4814 1.374 . S
C4814 H4788 0.950 . S
C4814 C4810 1.385 . S
C4814 C4813 1.374 . S
C4815 C4812 1.499 . S
C4815 C4816 1.373 . S
C4815 C4817 1.389 . S
C4816 H4789 0.950 . S
C4816 C4802 1.377 . S
C4816 C4815 1.373 . S
C4817 C4801 1.377 . S
C4817 C4815 1.389 . S
C4817 C4818 1.524 . S
C4818 C4817 1.524 . S
C4818 C4819 1.397 . S
C4818 C4823 1.363 . S
C4819 H4790 0.950 . S
C4819 C4818 1.397 . S
C4819 C4820 1.334 . S
C4820 H4791 0.950 . S
C4820 C4819 1.334 . S
C4820 C4821 1.287 . S
C4821 C4820 1.287 . S
C4821 C4822 1.524 . S
C4821 H4824 0.999 . S
C4822 H4792 0.950 . S
C4822 C4821 1.524 . S
C4822 C4823 1.415 . S
C4823 H4793 0.950 . S
C4823 C4818 1.363 . S
C4823 C4822 1.415 . S
H4824 C4821 0.999 . S
H4825 C4806 0.913 . S
H4826 C4844 0.951 . S
H4827 C4846 0.951 . S
H4828 C4848 0.950 . S
H4829 C4849 0.950 . S
H4830 C4851 0.950 . S
H4831 C4854 0.950 . S
H4832 C4855 0.950 . S
H4833 C4857 0.950 . S
H4834 C4858 0.950 . S
H4835 C4859 0.951 . S
H4836 C4861 0.951 . S
H4837 C4863 0.950 . S
H4838 C4864 0.950 . S
H4839 C4866 0.950 . S
H4840 C4869 0.950 . S
H4841 C4870 0.950 . S
H4842 C4872 0.950 . S
H4843 C4873 0.950 . S
C4844 H4826 0.951 . S
C4844 C4845 1.366 . S
C4844 C4846 1.388 . S
C4845 C4844 1.366 . S
C4845 C4849 1.385 . S
C4846 H4827 0.951 . S
C4846 C4844 1.388 . S
C4846 C4847 1.366 . S
C4847 C4846 1.366 . S
C4847 C4848 1.414 . S
C4847 C4850 1.499 . S
C4848 H4828 0.950 . S
C4848 C4847 1.414 . S
C4848 C4849 1.374 . S
C4849 H4829 0.950 . S
C4849 C4845 1.385 . S
C4849 C4848 1.374 . S
C4850 C4847 1.499 . S
C4850 C4851 1.373 . S
C4850 C4852 1.389 . S
C4851 H4830 0.950 . S
C4851 C4850 1.373 . S
C4851 C4867 1.377 . S
C4852 C4850 1.389 . S
C4852 C4853 1.524 . S
C4852 C4866 1.377 . S
C4853 C4852 1.524 . S
C4853 C4854 1.397 . S
C4853 C4858 1.363 . S
C4854 H4831 0.950 . S
C4854 C4853 1.397 . S
C4854 C4855 1.334 . S
C4855 H4832 0.950 . S
C4855 C4854 1.334 . S
C4855 C4856 1.287 . S
C4856 C4855 1.287 . S
C4856 C4857 1.524 . S
C4856 H4875 0.913 . S
C4857 H4833 0.950 . S
C4857 C4856 1.524 . S
C4857 C4858 1.415 . S
C4858 H4834 0.950 . S
C4858 C4853 1.363 . S
C4858 C4857 1.415 . S
C4859 H4835 0.951 . S
C4859 C4860 1.366 . S
C4859 C4861 1.388 . S
C4860 C4859 1.366 . S
C4860 C4864 1.385 . S
C4861 H4836 0.951 . S
C4861 C4859 1.388 . S
C4861 C4862 1.366 . S
C4862 C4861 1.366 . S
C4862 C4863 1.414 . S
C4862 C4865 1.499 . S
C4863 H4837 0.950 . S
C4863 C4862 1.414 . S
C4863 C4864 1.374 . S
C4864 H4838 0.950 . S
C4864 C4860 1.385 . S
C4864 C4863 1.374 . S
C4865 C4862 1.499 . S
C4865 C4866 1.373 . S
C4865 C4867 1.389 . S
C4866 H4839 0.950 . S
C4866 C4852 1.377 . S
C4866 C4865 1.373 . S
C4867 C4851 1.377 . S
C4867 C4865 1.389 . S
C4867 C4868 1.524 . S
C4868 C4867 1.524 . S
C4868 C4869 1.397 . S
C4868 C4873 1.363 . S
C4869 H4840 0.950 . S
C4869 C4868 1.397 . S
C4869 C4870 1.334 . S
C4870 H4841 0.950 . S
C4870 C4869 1.334 . S
C4870 C4871 1.287 . S
C4871 C4870 1.287 . S
C4871 C4872 1.524 . S
C4871 H4874 0.999 . S
C4872 H4842 0.950 . S
C4872 C4871 1.524 . S
C4872 C4873 1.415 . S
C4873 H4843 0.950 . S
C4873 C4868 1.363 . S
C4873 C4872 1.415 . S
H4874 C4871 0.999 . S
H4875 C4856 0.913 . S
H4876 C4894 0.951 . S
H4877 C4896 0.951 . S
H4878 C4898 0.950 . S
H4879 C4899 0.950 . S
H4880 C4901 0.950 . S
H4881 C4904 0.950 . S
H4882 C4905 0.950 . S
H4883 C4907 0.950 . S
H4884 C4908 0.950 . S
H4885 C4909 0.951 . S
H4886 C4911 0.951 . S
H4887 C4913 0.950 . S
H4888 C4914 0.950 . S
H4889 C4916 0.950 . S
H4890 C4919 0.950 . S
H4891 C4920 0.950 . S
H4892 C4922 0.950 . S
H4893 C4923 0.950 . S
C4894 H4876 0.951 . S
C4894 C4895 1.366 . S
C4894 C4896 1.388 . S
C4895 C4894 1.366 . S
C4895 C4899 1.385 . S
C4896 H4877 0.951 . S
C4896 C4894 1.388 . S
C4896 C4897 1.366 . S
C4897 C4896 1.366 . S
C4897 C4898 1.414 . S
C4897 C4900 1.499 . S
C4898 H4878 0.950 . S
C4898 C4897 1.414 . S
C4898 C4899 1.374 . S
C4899 H4879 0.950 . S
C4899 C4895 1.385 . S
C4899 C4898 1.374 . S
C4900 C4897 1.499 . S
C4900 C4901 1.373 . S
C4900 C4902 1.389 . S
C4901 H4880 0.950 . S
C4901 C4900 1.373 . S
C4901 C4917 1.377 . S
C4902 C4900 1.389 . S
C4902 C4903 1.524 . S
C4902 C4916 1.377 . S
C4903 C4902 1.524 . S
C4903 C4904 1.397 . S
C4903 C4908 1.363 . S
C4904 H4881 0.950 . S
C4904 C4903 1.397 . S
C4904 C4905 1.334 . S
C4905 H4882 0.950 . S
C4905 C4904 1.334 . S
C4905 C4906 1.287 . S
C4906 C4905 1.287 . S
C4906 C4907 1.524 . S
C4906 H4925 0.913 . S
C4907 H4883 0.950 . S
C4907 C4906 1.524 . S
C4907 C4908 1.415 . S
C4908 H4884 0.950 . S
C4908 C4903 1.363 . S
C4908 C4907 1.415 . S
C4909 H4885 0.951 . S
C4909 C4910 1.366 . S
C4909 C4911 1.388 . S
C4910 C4909 1.366 . S
C4910 C4914 1.385 . S
C4911 H4886 0.951 . S
C4911 C4909 1.388 . S
C4911 C4912 1.366 . S
C4912 C4911 1.366 . S
C4912 C4913 1.414 . S
C4912 C4915 1.499 . S
C4913 H4887 0.950 . S
C4913 C4912 1.414 . S
C4913 C4914 1.374 . S
C4914 H4888 0.950 . S
C4914 C4910 1.385 . S
C4914 C4913 1.374 . S
C4915 C4912 1.499 . S
C4915 C4916 1.373 . S
C4915 C4917 1.389 . S
C4916 H4889 0.950 . S
C4916 C4902 1.377 . S
C4916 C4915 1.373 . S
C4917 C4901 1.377 . S
C4917 C4915 1.389 . S
C4917 C4918 1.524 . S
C4918 C4917 1.524 . S
C4918 C4919 1.397 . S
C4918 C4923 1.363 . S
C4919 H4890 0.950 . S
C4919 C4918 1.397 . S
C4919 C4920 1.334 . S
C4920 H4891 0.950 . S
C4920 C4919 1.334 . S
C4920 C4921 1.287 . S
C4921 C4920 1.287 . S
C4921 C4922 1.524 . S
C4921 H4924 0.999 . S
C4922 H4892 0.950 . S
C4922 C4921 1.524 . S
C4922 C4923 1.415 . S
C4923 H4893 0.950 . S
C4923 C4918 1.363 . S
C4923 C4922 1.415 . S
H4924 C4921 0.999 . S
H4925 C4906 0.913 . S
H4926 C4944 0.951 . S
H4927 C4946 0.951 . S
H4928 C4948 0.950 . S
H4929 C4949 0.950 . S
H4930 C4951 0.950 . S
H4931 C4954 0.950 . S
H4932 C4955 0.950 . S
H4933 C4957 0.950 . S
H4934 C4958 0.950 . S
H4935 C4959 0.951 . S
H4936 C4961 0.951 . S
H4937 C4963 0.950 . S
H4938 C4964 0.950 . S
H4939 C4966 0.950 . S
H4940 C4969 0.950 . S
H4941 C4970 0.950 . S
H4942 C4972 0.950 . S
H4943 C4973 0.950 . S
C4944 H4926 0.951 . S
C4944 C4945 1.366 . S
C4944 C4946 1.388 . S
C4945 C4944 1.366 . S
C4945 C4949 1.385 . S
C4946 H4927 0.951 . S
C4946 C4944 1.388 . S
C4946 C4947 1.366 . S
C4947 C4946 1.366 . S
C4947 C4948 1.414 . S
C4947 C4950 1.499 . S
C4948 H4928 0.950 . S
C4948 C4947 1.414 . S
C4948 C4949 1.374 . S
C4949 H4929 0.950 . S
C4949 C4945 1.385 . S
C4949 C4948 1.374 . S
C4950 C4947 1.499 . S
C4950 C4951 1.373 . S
C4950 C4952 1.389 . S
C4951 H4930 0.950 . S
C4951 C4950 1.373 . S
C4951 C4967 1.377 . S
C4952 C4950 1.389 . S
C4952 C4953 1.524 . S
C4952 C4966 1.377 . S
C4953 C4952 1.524 . S
C4953 C4954 1.397 . S
C4953 C4958 1.363 . S
C4954 H4931 0.950 . S
C4954 C4953 1.397 . S
C4954 C4955 1.334 . S
C4955 H4932 0.950 . S
C4955 C4954 1.334 . S
C4955 C4956 1.287 . S
C4956 C4955 1.287 . S
C4956 C4957 1.524 . S
C4956 H4975 0.913 . S
C4957 H4933 0.950 . S
C4957 C4956 1.524 . S
C4957 C4958 1.415 . S
C4958 H4934 0.950 . S
C4958 C4953 1.363 . S
C4958 C4957 1.415 . S
C4959 H4935 0.951 . S
C4959 C4960 1.366 . S
C4959 C4961 1.388 . S
C4960 C4959 1.366 . S
C4960 C4964 1.385 . S
C4961 H4936 0.951 . S
C4961 C4959 1.388 . S
C4961 C4962 1.366 . S
C4962 C4961 1.366 . S
C4962 C4963 1.414 . S
C4962 C4965 1.499 . S
C4963 H4937 0.950 . S
C4963 C4962 1.414 . S
C4963 C4964 1.374 . S
C4964 H4938 0.950 . S
C4964 C4960 1.385 . S
C4964 C4963 1.374 . S
C4965 C4962 1.499 . S
C4965 C4966 1.373 . S
C4965 C4967 1.389 . S
C4966 H4939 0.950 . S
C4966 C4952 1.377 . S
C4966 C4965 1.373 . S
C4967 C4951 1.377 . S
C4967 C4965 1.389 . S
C4967 C4968 1.524 . S
C4968 C4967 1.524 . S
C4968 C4969 1.397 . S
C4968 C4973 1.363 . S
C4969 H4940 0.950 . S
C4969 C4968 1.397 . S
C4969 C4970 1.334 . S
C4970 H4941 0.950 . S
C4970 C4969 1.334 . S
C4970 C4971 1.287 . S
C4971 C4970 1.287 . S
C4971 C4972 1.524 . S
C4971 H4974 0.999 . S
C4972 H4942 0.950 . S
C4972 C4971 1.524 . S
C4972 C4973 1.415 . S
C4973 H4943 0.950 . S
C4973 C4968 1.363 . S
C4973 C4972 1.415 . S
H4974 C4971 0.999 . S
H4975 C4956 0.913 . S
H4976 C4994 0.951 . S
H4977 C4996 0.951 . S
H4978 C4998 0.950 . S
H4979 C4999 0.950 . S
H4980 C5001 0.950 . S
H4981 C5004 0.950 . S
H4982 C5005 0.950 . S
H4983 C5007 0.950 . S
H4984 C5008 0.950 . S
H4985 C5009 0.951 . S
H4986 C5011 0.951 . S
H4987 C5013 0.950 . S
H4988 C5014 0.950 . S
H4989 C5016 0.950 . S
H4990 C5019 0.950 . S
H4991 C5020 0.950 . S
H4992 C5022 0.950 . S
H4993 C5023 0.950 . S
C4994 H4976 0.951 . S
C4994 C4995 1.366 . S
C4994 C4996 1.388 . S
C4995 C4994 1.366 . S
C4995 C4999 1.385 . S
C4996 H4977 0.951 . S
C4996 C4994 1.388 . S
C4996 C4997 1.366 . S
C4997 C4996 1.366 . S
C4997 C4998 1.414 . S
C4997 C5000 1.499 . S
C4998 H4978 0.950 . S
C4998 C4997 1.414 . S
C4998 C4999 1.374 . S
C4999 H4979 0.950 . S
C4999 C4995 1.385 . S
C4999 C4998 1.374 . S
C5000 C4997 1.499 . S
C5000 C5001 1.373 . S
C5000 C5002 1.389 . S
C5001 H4980 0.950 . S
C5001 C5000 1.373 . S
C5001 C5017 1.377 . S
C5002 C5000 1.389 . S
C5002 C5003 1.524 . S
C5002 C5016 1.377 . S
C5003 C5002 1.524 . S
C5003 C5004 1.397 . S
C5003 C5008 1.363 . S
C5004 H4981 0.950 . S
C5004 C5003 1.397 . S
C5004 C5005 1.334 . S
C5005 H4982 0.950 . S
C5005 C5004 1.334 . S
C5005 C5006 1.287 . S
C5006 C5005 1.287 . S
C5006 C5007 1.524 . S
C5006 H5025 0.913 . S
C5007 H4983 0.950 . S
C5007 C5006 1.524 . S
C5007 C5008 1.415 . S
C5008 H4984 0.950 . S
C5008 C5003 1.363 . S
C5008 C5007 1.415 . S
C5009 H4985 0.951 . S
C5009 C5010 1.366 . S
C5009 C5011 1.388 . S
C5010 C5009 1.366 . S
C5010 C5014 1.385 . S
C5011 H4986 0.951 . S
C5011 C5009 1.388 . S
C5011 C5012 1.366 . S
C5012 C5011 1.366 . S
C5012 C5013 1.414 . S
C5012 C5015 1.499 . S
C5013 H4987 0.950 . S
C5013 C5012 1.414 . S
C5013 C5014 1.374 . S
C5014 H4988 0.950 . S
C5014 C5010 1.385 . S
C5014 C5013 1.374 . S
C5015 C5012 1.499 . S
C5015 C5016 1.373 . S
C5015 C5017 1.389 . S
C5016 H4989 0.950 . S
C5016 C5002 1.377 . S
C5016 C5015 1.373 . S
C5017 C5001 1.377 . S
C5017 C5015 1.389 . S
C5017 C5018 1.524 . S
C5018 C5017 1.524 . S
C5018 C5019 1.397 . S
C5018 C5023 1.363 . S
C5019 H4990 0.950 . S
C5019 C5018 1.397 . S
C5019 C5020 1.334 . S
C5020 H4991 0.950 . S
C5020 C5019 1.334 . S
C5020 C5021 1.287 . S
C5021 C5020 1.287 . S
C5021 C5022 1.524 . S
C5021 H5024 0.999 . S
C5022 H4992 0.950 . S
C5022 C5021 1.524 . S
C5022 C5023 1.415 . S
C5023 H4993 0.950 . S
C5023 C5018 1.363 . S
C5023 C5022 1.415 . S
H5024 C5021 0.999 . S
H5025 C5006 0.913 . S
H5026 C5044 0.951 . S
H5027 C5046 0.951 . S
H5028 C5048 0.950 . S
H5029 C5049 0.950 . S
H5030 C5051 0.950 . S
H5031 C5054 0.950 . S
H5032 C5055 0.950 . S
H5033 C5057 0.950 . S
H5034 C5058 0.950 . S
H5035 C5059 0.951 . S
H5036 C5061 0.951 . S
H5037 C5063 0.950 . S
H5038 C5064 0.950 . S
H5039 C5066 0.950 . S
H5040 C5069 0.950 . S
H5041 C5070 0.950 . S
H5042 C5072 0.950 . S
H5043 C5073 0.950 . S
C5044 H5026 0.951 . S
C5044 C5045 1.366 . S
C5044 C5046 1.388 . S
C5045 C5044 1.366 . S
C5045 C5049 1.385 . S
C5046 H5027 0.951 . S
C5046 C5044 1.388 . S
C5046 C5047 1.366 . S
C5047 C5046 1.366 . S
C5047 C5048 1.414 . S
C5047 C5050 1.499 . S
C5048 H5028 0.950 . S
C5048 C5047 1.414 . S
C5048 C5049 1.374 . S
C5049 H5029 0.950 . S
C5049 C5045 1.385 . S
C5049 C5048 1.374 . S
C5050 C5047 1.499 . S
C5050 C5051 1.373 . S
C5050 C5052 1.389 . S
C5051 H5030 0.950 . S
C5051 C5050 1.373 . S
C5051 C5067 1.377 . S
C5052 C5050 1.389 . S
C5052 C5053 1.524 . S
C5052 C5066 1.377 . S
C5053 C5052 1.524 . S
C5053 C5054 1.397 . S
C5053 C5058 1.363 . S
C5054 H5031 0.950 . S
C5054 C5053 1.397 . S
C5054 C5055 1.334 . S
C5055 H5032 0.950 . S
C5055 C5054 1.334 . S
C5055 C5056 1.287 . S
C5056 C5055 1.287 . S
C5056 C5057 1.524 . S
C5056 H5075 0.913 . S
C5057 H5033 0.950 . S
C5057 C5056 1.524 . S
C5057 C5058 1.415 . S
C5058 H5034 0.950 . S
C5058 C5053 1.363 . S
C5058 C5057 1.415 . S
C5059 H5035 0.951 . S
C5059 C5060 1.366 . S
C5059 C5061 1.388 . S
C5060 C5059 1.366 . S
C5060 C5064 1.385 . S
C5061 H5036 0.951 . S
C5061 C5059 1.388 . S
C5061 C5062 1.366 . S
C5062 C5061 1.366 . S
C5062 C5063 1.414 . S
C5062 C5065 1.499 . S
C5063 H5037 0.950 . S
C5063 C5062 1.414 . S
C5063 C5064 1.374 . S
C5064 H5038 0.950 . S
C5064 C5060 1.385 . S
C5064 C5063 1.374 . S
C5065 C5062 1.499 . S
C5065 C5066 1.373 . S
C5065 C5067 1.389 . S
C5066 H5039 0.950 . S
C5066 C5052 1.377 . S
C5066 C5065 1.373 . S
C5067 C5051 1.377 . S
C5067 C5065 1.389 . S
C5067 C5068 1.524 . S
C5068 C5067 1.524 . S
C5068 C5069 1.397 . S
C5068 C5073 1.363 . S
C5069 H5040 0.950 . S
C5069 C5068 1.397 . S
C5069 C5070 1.334 . S
C5070 H5041 0.950 . S
C5070 C5069 1.334 . S
C5070 C5071 1.287 . S
C5071 C5070 1.287 . S
C5071 C5072 1.524 . S
C5071 H5074 0.999 . S
C5072 H5042 0.950 . S
C5072 C5071 1.524 . S
C5072 C5073 1.415 . S
C5073 H5043 0.950 . S
C5073 C5068 1.363 . S
C5073 C5072 1.415 . S
H5074 C5071 0.999 . S
H5075 C5056 0.913 . S
H5076 C5094 0.951 . S
H5077 C5096 0.951 . S
H5078 C5098 0.950 . S
H5079 C5099 0.950 . S
H5080 C5101 0.950 . S
H5081 C5104 0.950 . S
H5082 C5105 0.950 . S
H5083 C5107 0.950 . S
H5084 C5108 0.950 . S
H5085 C5109 0.951 . S
H5086 C5111 0.951 . S
H5087 C5113 0.950 . S
H5088 C5114 0.950 . S
H5089 C5116 0.950 . S
H5090 C5119 0.950 . S
H5091 C5120 0.950 . S
H5092 C5122 0.950 . S
H5093 C5123 0.950 . S
C5094 H5076 0.951 . S
C5094 C5095 1.366 . S
C5094 C5096 1.388 . S
C5095 C5094 1.366 . S
C5095 C5099 1.385 . S
C5096 H5077 0.951 . S
C5096 C5094 1.388 . S
C5096 C5097 1.366 . S
C5097 C5096 1.366 . S
C5097 C5098 1.414 . S
C5097 C5100 1.499 . S
C5098 H5078 0.950 . S
C5098 C5097 1.414 . S
C5098 C5099 1.374 . S
C5099 H5079 0.950 . S
C5099 C5095 1.385 . S
C5099 C5098 1.374 . S
C5100 C5097 1.499 . S
C5100 C5101 1.373 . S
C5100 C5102 1.389 . S
C5101 H5080 0.950 . S
C5101 C5100 1.373 . S
C5101 C5117 1.377 . S
C5102 C5100 1.389 . S
C5102 C5103 1.524 . S
C5102 C5116 1.377 . S
C5103 C5102 1.524 . S
C5103 C5104 1.397 . S
C5103 C5108 1.363 . S
C5104 H5081 0.950 . S
C5104 C5103 1.397 . S
C5104 C5105 1.334 . S
C5105 H5082 0.950 . S
C5105 C5104 1.334 . S
C5105 C5106 1.287 . S
C5106 C5105 1.287 . S
C5106 C5107 1.524 . S
C5106 H5125 0.913 . S
C5107 H5083 0.950 . S
C5107 C5106 1.524 . S
C5107 C5108 1.415 . S
C5108 H5084 0.950 . S
C5108 C5103 1.363 . S
C5108 C5107 1.415 . S
C5109 H5085 0.951 . S
C5109 C5110 1.366 . S
C5109 C5111 1.388 . S
C5110 C5109 1.366 . S
C5110 C5114 1.385 1_455 S
C5111 H5086 0.951 . S
C5111 C5109 1.388 . S
C5111 C5112 1.366 1_455 S
C5112 C5111 1.366 1_655 S
C5112 C5113 1.414 . S
C5112 C5115 1.499 . S
C5113 H5087 0.950 . S
C5113 C5112 1.414 . S
C5113 C5114 1.374 . S
C5114 H5088 0.950 . S
C5114 C5110 1.385 1_655 S
C5114 C5113 1.374 . S
C5115 C5112 1.499 . S
C5115 C5116 1.373 . S
C5115 C5117 1.389 . S
C5116 H5089 0.950 . S
C5116 C5102 1.377 . S
C5116 C5115 1.373 . S
C5117 C5101 1.377 . S
C5117 C5115 1.389 . S
C5117 C5118 1.524 1_655 S
C5118 C5117 1.524 1_455 S
C5118 C5119 1.397 . S
C5118 C5123 1.363 . S
C5119 H5090 0.950 . S
C5119 C5118 1.397 . S
C5119 C5120 1.334 . S
C5120 H5091 0.950 . S
C5120 C5119 1.334 . S
C5120 C5121 1.287 . S
C5121 C5120 1.287 . S
C5121 C5122 1.524 . S
C5121 H5124 0.999 . S
C5122 H5092 0.950 . S
C5122 C5121 1.524 . S
C5122 C5123 1.415 . S
C5123 H5093 0.950 . S
C5123 C5118 1.363 . S
C5123 C5122 1.415 . S
H5124 C5121 0.999 . S
H5125 C5106 0.913 . S
H5126 C5144 0.951 . S
H5127 C5146 0.951 . S
H5128 C5148 0.950 . S
H5129 C5149 0.950 . S
H5130 C5151 0.950 . S
H5131 C5154 0.950 . S
H5132 C5155 0.950 . S
H5133 C5157 0.950 . S
H5134 C5158 0.950 . S
H5135 C5159 0.951 . S
H5136 C5161 0.951 . S
H5137 C5163 0.950 . S
H5138 C5164 0.950 . S
H5139 C5166 0.950 . S
H5140 C5169 0.950 . S
H5141 C5170 0.950 . S
H5142 C5172 0.950 . S
H5143 C5173 0.950 . S
C5144 H5126 0.951 . S
C5144 C5145 1.366 . S
C5144 C5146 1.388 . S
C5145 C5144 1.366 . S
C5145 C5149 1.385 . S
C5146 H5127 0.951 . S
C5146 C5144 1.388 . S
C5146 C5147 1.366 . S
C5147 C5146 1.366 . S
C5147 C5148 1.414 . S
C5147 C5150 1.499 . S
C5148 H5128 0.950 . S
C5148 C5147 1.414 . S
C5148 C5149 1.374 . S
C5149 H5129 0.950 . S
C5149 C5145 1.385 . S
C5149 C5148 1.374 . S
C5150 C5147 1.499 . S
C5150 C5151 1.373 . S
C5150 C5152 1.389 . S
C5151 H5130 0.950 . S
C5151 C5150 1.373 . S
C5151 C5167 1.377 . S
C5152 C5150 1.389 . S
C5152 C5153 1.524 . S
C5152 C5166 1.377 . S
C5153 C5152 1.524 . S
C5153 C5154 1.397 . S
C5153 C5158 1.363 . S
C5154 H5131 0.950 . S
C5154 C5153 1.397 . S
C5154 C5155 1.334 . S
C5155 H5132 0.950 . S
C5155 C5154 1.334 . S
C5155 C5156 1.287 . S
C5156 C5155 1.287 . S
C5156 C5157 1.524 . S
C5156 H5175 0.913 . S
C5157 H5133 0.950 . S
C5157 C5156 1.524 . S
C5157 C5158 1.415 . S
C5158 H5134 0.950 . S
C5158 C5153 1.363 . S
C5158 C5157 1.415 . S
C5159 H5135 0.951 . S
C5159 C5160 1.366 . S
C5159 C5161 1.388 . S
C5160 C5159 1.366 . S
C5160 C5164 1.385 . S
C5161 H5136 0.951 . S
C5161 C5159 1.388 . S
C5161 C5162 1.366 . S
C5162 C5161 1.366 . S
C5162 C5163 1.414 . S
C5162 C5165 1.499 . S
C5163 H5137 0.950 . S
C5163 C5162 1.414 . S
C5163 C5164 1.374 . S
C5164 H5138 0.950 . S
C5164 C5160 1.385 . S
C5164 C5163 1.374 . S
C5165 C5162 1.499 . S
C5165 C5166 1.373 . S
C5165 C5167 1.389 . S
C5166 H5139 0.950 . S
C5166 C5152 1.377 . S
C5166 C5165 1.373 . S
C5167 C5151 1.377 . S
C5167 C5165 1.389 . S
C5167 C5168 1.524 . S
C5168 C5167 1.524 . S
C5168 C5169 1.397 . S
C5168 C5173 1.363 . S
C5169 H5140 0.950 . S
C5169 C5168 1.397 . S
C5169 C5170 1.334 . S
C5170 H5141 0.950 . S
C5170 C5169 1.334 . S
C5170 C5171 1.287 . S
C5171 C5170 1.287 . S
C5171 C5172 1.524 . S
C5171 H5174 0.999 . S
C5172 H5142 0.950 . S
C5172 C5171 1.524 . S
C5172 C5173 1.415 . S
C5173 H5143 0.950 . S
C5173 C5168 1.363 . S
C5173 C5172 1.415 . S
H5174 C5171 0.999 . S
H5175 C5156 0.913 . S
H5176 C5194 0.951 . S
H5177 C5196 0.951 . S
H5178 C5198 0.950 . S
H5179 C5199 0.950 . S
H5180 C5201 0.950 . S
H5181 C5204 0.950 . S
H5182 C5205 0.950 . S
H5183 C5207 0.950 . S
H5184 C5208 0.950 . S
H5185 C5209 0.951 . S
H5186 C5211 0.951 . S
H5187 C5213 0.950 . S
H5188 C5214 0.950 . S
H5189 C5216 0.950 . S
H5190 C5219 0.950 . S
H5191 C5220 0.950 . S
H5192 C5222 0.950 . S
H5193 C5223 0.950 . S
C5194 H5176 0.951 . S
C5194 C5195 1.366 . S
C5194 C5196 1.388 . S
C5195 C5194 1.366 . S
C5195 C5199 1.385 . S
C5196 H5177 0.951 . S
C5196 C5194 1.388 . S
C5196 C5197 1.366 . S
C5197 C5196 1.366 . S
C5197 C5198 1.414 . S
C5197 C5200 1.499 . S
C5198 H5178 0.950 . S
C5198 C5197 1.414 . S
C5198 C5199 1.374 . S
C5199 H5179 0.950 . S
C5199 C5195 1.385 . S
C5199 C5198 1.374 . S
C5200 C5197 1.499 . S
C5200 C5201 1.373 . S
C5200 C5202 1.389 . S
C5201 H5180 0.950 . S
C5201 C5200 1.373 . S
C5201 C5217 1.377 . S
C5202 C5200 1.389 . S
C5202 C5203 1.524 . S
C5202 C5216 1.377 . S
C5203 C5202 1.524 . S
C5203 C5204 1.397 . S
C5203 C5208 1.363 . S
C5204 H5181 0.950 . S
C5204 C5203 1.397 . S
C5204 C5205 1.334 . S
C5205 H5182 0.950 . S
C5205 C5204 1.334 . S
C5205 C5206 1.287 . S
C5206 C5205 1.287 . S
C5206 C5207 1.524 . S
C5206 H5225 0.913 . S
C5207 H5183 0.950 . S
C5207 C5206 1.524 . S
C5207 C5208 1.415 . S
C5208 H5184 0.950 . S
C5208 C5203 1.363 . S
C5208 C5207 1.415 . S
C5209 H5185 0.951 . S
C5209 C5210 1.366 . S
C5209 C5211 1.388 . S
C5210 C5209 1.366 . S
C5210 C5214 1.385 . S
C5211 H5186 0.951 . S
C5211 C5209 1.388 . S
C5211 C5212 1.366 . S
C5212 C5211 1.366 . S
C5212 C5213 1.414 . S
C5212 C5215 1.499 . S
C5213 H5187 0.950 . S
C5213 C5212 1.414 . S
C5213 C5214 1.374 . S
C5214 H5188 0.950 . S
C5214 C5210 1.385 . S
C5214 C5213 1.374 . S
C5215 C5212 1.499 . S
C5215 C5216 1.373 . S
C5215 C5217 1.389 . S
C5216 H5189 0.950 . S
C5216 C5202 1.377 . S
C5216 C5215 1.373 . S
C5217 C5201 1.377 . S
C5217 C5215 1.389 . S
C5217 C5218 1.524 . S
C5218 C5217 1.524 . S
C5218 C5219 1.397 . S
C5218 C5223 1.363 . S
C5219 H5190 0.950 . S
C5219 C5218 1.397 . S
C5219 C5220 1.334 . S
C5220 H5191 0.950 . S
C5220 C5219 1.334 . S
C5220 C5221 1.287 . S
C5221 C5220 1.287 . S
C5221 C5222 1.524 . S
C5221 H5224 0.999 . S
C5222 H5192 0.950 . S
C5222 C5221 1.524 . S
C5222 C5223 1.415 . S
C5223 H5193 0.950 . S
C5223 C5218 1.363 . S
C5223 C5222 1.415 . S
H5224 C5221 0.999 . S
H5225 C5206 0.913 . S
H5226 C5244 0.951 . S
H5227 C5246 0.951 . S
H5228 C5248 0.950 . S
H5229 C5249 0.950 . S
H5230 C5251 0.950 . S
H5231 C5254 0.950 . S
H5232 C5255 0.950 . S
H5233 C5257 0.950 . S
H5234 C5258 0.950 . S
H5235 C5259 0.951 . S
H5236 C5261 0.951 . S
H5237 C5263 0.950 . S
H5238 C5264 0.950 . S
H5239 C5266 0.950 . S
H5240 C5269 0.950 . S
H5241 C5270 0.950 . S
H5242 C5272 0.950 . S
H5243 C5273 0.950 . S
C5244 H5226 0.951 . S
C5244 C5245 1.366 . S
C5244 C5246 1.388 . S
C5245 C5244 1.366 . S
C5245 C5249 1.385 . S
C5246 H5227 0.951 . S
C5246 C5244 1.388 . S
C5246 C5247 1.366 . S
C5247 C5246 1.366 . S
C5247 C5248 1.414 . S
C5247 C5250 1.499 . S
C5248 H5228 0.950 . S
C5248 C5247 1.414 . S
C5248 C5249 1.374 . S
C5249 H5229 0.950 . S
C5249 C5245 1.385 . S
C5249 C5248 1.374 . S
C5250 C5247 1.499 . S
C5250 C5251 1.373 . S
C5250 C5252 1.389 . S
C5251 H5230 0.950 . S
C5251 C5250 1.373 . S
C5251 C5267 1.377 . S
C5252 C5250 1.389 . S
C5252 C5253 1.524 . S
C5252 C5266 1.377 . S
C5253 C5252 1.524 . S
C5253 C5254 1.397 . S
C5253 C5258 1.363 . S
C5254 H5231 0.950 . S
C5254 C5253 1.397 . S
C5254 C5255 1.334 . S
C5255 H5232 0.950 . S
C5255 C5254 1.334 . S
C5255 C5256 1.287 . S
C5256 C5255 1.287 . S
C5256 C5257 1.524 . S
C5256 H5275 0.913 . S
C5257 H5233 0.950 . S
C5257 C5256 1.524 . S
C5257 C5258 1.415 . S
C5258 H5234 0.950 . S
C5258 C5253 1.363 . S
C5258 C5257 1.415 . S
C5259 H5235 0.951 . S
C5259 C5260 1.366 . S
C5259 C5261 1.388 . S
C5260 C5259 1.366 . S
C5260 C5264 1.385 . S
C5261 H5236 0.951 . S
C5261 C5259 1.388 . S
C5261 C5262 1.366 . S
C5262 C5261 1.366 . S
C5262 C5263 1.414 . S
C5262 C5265 1.499 . S
C5263 H5237 0.950 . S
C5263 C5262 1.414 . S
C5263 C5264 1.374 . S
C5264 H5238 0.950 . S
C5264 C5260 1.385 . S
C5264 C5263 1.374 . S
C5265 C5262 1.499 . S
C5265 C5266 1.373 . S
C5265 C5267 1.389 . S
C5266 H5239 0.950 . S
C5266 C5252 1.377 . S
C5266 C5265 1.373 . S
C5267 C5251 1.377 . S
C5267 C5265 1.389 . S
C5267 C5268 1.524 . S
C5268 C5267 1.524 . S
C5268 C5269 1.397 . S
C5268 C5273 1.363 . S
C5269 H5240 0.950 . S
C5269 C5268 1.397 . S
C5269 C5270 1.334 . S
C5270 H5241 0.950 . S
C5270 C5269 1.334 . S
C5270 C5271 1.287 . S
C5271 C5270 1.287 . S
C5271 C5272 1.524 . S
C5271 H5274 0.999 . S
C5272 H5242 0.950 . S
C5272 C5271 1.524 . S
C5272 C5273 1.415 . S
C5273 H5243 0.950 . S
C5273 C5268 1.363 . S
C5273 C5272 1.415 . S
H5274 C5271 0.999 . S
H5275 C5256 0.913 . S
H5276 C5294 0.951 . S
H5277 C5296 0.951 . S
H5278 C5298 0.950 . S
H5279 C5299 0.950 . S
H5280 C5301 0.950 . S
H5281 C5304 0.950 . S
H5282 C5305 0.950 . S
H5283 C5307 0.950 . S
H5284 C5308 0.950 . S
H5285 C5309 0.951 . S
H5286 C5311 0.951 . S
H5287 C5313 0.950 . S
H5288 C5314 0.950 1_455 S
H5289 C5316 0.950 . S
H5290 C5319 0.950 . S
H5291 C5320 0.950 . S
H5292 C5322 0.950 . S
H5293 C5323 0.950 . S
C5294 H5276 0.951 . S
C5294 C5295 1.366 . S
C5294 C5296 1.388 . S
C5295 C5294 1.366 . S
C5295 C5299 1.385 . S
C5296 H5277 0.951 . S
C5296 C5294 1.388 . S
C5296 C5297 1.366 . S
C5297 C5296 1.366 . S
C5297 C5298 1.414 . S
C5297 C5300 1.499 . S
C5298 H5278 0.950 . S
C5298 C5297 1.414 . S
C5298 C5299 1.374 . S
C5299 H5279 0.950 . S
C5299 C5295 1.385 . S
C5299 C5298 1.374 . S
C5300 C5297 1.499 . S
C5300 C5301 1.373 . S
C5300 C5302 1.389 . S
C5301 H5280 0.950 . S
C5301 C5300 1.373 . S
C5301 C5317 1.377 . S
C5302 C5300 1.389 . S
C5302 C5303 1.524 . S
C5302 C5316 1.377 . S
C5303 C5302 1.524 . S
C5303 C5304 1.397 . S
C5303 C5308 1.363 . S
C5304 H5281 0.950 . S
C5304 C5303 1.397 . S
C5304 C5305 1.334 . S
C5305 H5282 0.950 . S
C5305 C5304 1.334 . S
C5305 C5306 1.287 . S
C5306 C5305 1.287 . S
C5306 C5307 1.524 1_655 S
C5306 H5325 0.916 . S
C5307 H5283 0.950 . S
C5307 C5306 1.524 1_455 S
C5307 C5308 1.415 1_455 S
C5308 H5284 0.950 . S
C5308 C5303 1.363 . S
C5308 C5307 1.415 1_655 S
C5309 H5285 0.951 . S
C5309 C5310 1.366 . S
C5309 C5311 1.388 . S
C5310 C5309 1.366 . S
C5310 C5314 1.385 . S
C5311 H5286 0.951 . S
C5311 C5309 1.388 . S
C5311 C5312 1.366 . S
C5312 C5311 1.366 . S
C5312 C5313 1.414 . S
C5312 C5315 1.499 . S
C5313 H5287 0.950 . S
C5313 C5312 1.414 . S
C5313 C5314 1.374 . S
C5314 H5288 0.950 1_655 S
C5314 C5310 1.385 . S
C5314 C5313 1.374 . S
C5315 C5312 1.499 . S
C5315 C5316 1.373 . S
C5315 C5317 1.389 . S
C5316 H5289 0.950 . S
C5316 C5302 1.377 . S
C5316 C5315 1.373 . S
C5317 C5301 1.377 . S
C5317 C5315 1.389 . S
C5317 C5318 1.524 . S
C5318 C5317 1.524 . S
C5318 C5319 1.397 . S
C5318 C5323 1.363 . S
C5319 H5290 0.950 . S
C5319 C5318 1.397 . S
C5319 C5320 1.334 . S
C5320 H5291 0.950 . S
C5320 C5319 1.334 . S
C5320 C5321 1.287 . S
C5321 C5320 1.287 . S
C5321 C5322 1.524 . S
C5321 H5324 0.999 . S
C5322 H5292 0.950 . S
C5322 C5321 1.524 . S
C5322 C5323 1.415 . S
C5323 H5293 0.950 . S
C5323 C5318 1.363 . S
C5323 C5322 1.415 . S
H5324 C5321 0.999 . S
H5325 C5306 0.916 . S
H5326 C5344 0.951 . S
H5327 C5346 0.951 . S
H5328 C5348 0.950 . S
H5329 C5349 0.950 . S
H5330 C5351 0.950 . S
H5331 C5354 0.950 . S
H5332 C5355 0.950 . S
H5333 C5357 0.950 . S
H5334 C5358 0.950 . S
H5335 C5359 0.951 . S
H5336 C5361 0.951 . S
H5337 C5363 0.950 . S
H5338 C5364 0.950 . S
H5339 C5366 0.950 . S
H5340 C5369 0.950 . S
H5341 C5370 0.950 . S
H5342 C5372 0.950 . S
H5343 C5373 0.950 . S
C5344 H5326 0.951 . S
C5344 C5345 1.366 . S
C5344 C5346 1.388 . S
C5345 C5344 1.366 . S
C5345 C5349 1.385 . S
C5346 H5327 0.951 . S
C5346 C5344 1.388 . S
C5346 C5347 1.366 . S
C5347 C5346 1.366 . S
C5347 C5348 1.414 . S
C5347 C5350 1.499 . S
C5348 H5328 0.950 . S
C5348 C5347 1.414 . S
C5348 C5349 1.374 . S
C5349 H5329 0.950 . S
C5349 C5345 1.385 . S
C5349 C5348 1.374 . S
C5350 C5347 1.499 . S
C5350 C5351 1.373 . S
C5350 C5352 1.389 . S
C5351 H5330 0.950 . S
C5351 C5350 1.373 . S
C5351 C5367 1.377 . S
C5352 C5350 1.389 . S
C5352 C5353 1.524 . S
C5352 C5366 1.377 . S
C5353 C5352 1.524 . S
C5353 C5354 1.397 . S
C5353 C5358 1.363 . S
C5354 H5331 0.950 . S
C5354 C5353 1.397 . S
C5354 C5355 1.334 . S
C5355 H5332 0.950 . S
C5355 C5354 1.334 . S
C5355 C5356 1.287 . S
C5356 C5355 1.287 . S
C5356 C5357 1.524 . S
C5356 H5375 0.913 . S
C5357 H5333 0.950 . S
C5357 C5356 1.524 . S
C5357 C5358 1.415 . S
C5358 H5334 0.950 . S
C5358 C5353 1.363 . S
C5358 C5357 1.415 . S
C5359 H5335 0.951 . S
C5359 C5360 1.366 . S
C5359 C5361 1.388 . S
C5360 C5359 1.366 . S
C5360 C5364 1.385 . S
C5361 H5336 0.951 . S
C5361 C5359 1.388 . S
C5361 C5362 1.366 . S
C5362 C5361 1.366 . S
C5362 C5363 1.414 . S
C5362 C5365 1.499 . S
C5363 H5337 0.950 . S
C5363 C5362 1.414 . S
C5363 C5364 1.374 . S
C5364 H5338 0.950 . S
C5364 C5360 1.385 . S
C5364 C5363 1.374 . S
C5365 C5362 1.499 . S
C5365 C5366 1.373 . S
C5365 C5367 1.389 . S
C5366 H5339 0.950 . S
C5366 C5352 1.377 . S
C5366 C5365 1.373 . S
C5367 C5351 1.377 . S
C5367 C5365 1.389 . S
C5367 C5368 1.524 . S
C5368 C5367 1.524 . S
C5368 C5369 1.397 . S
C5368 C5373 1.363 . S
C5369 H5340 0.950 . S
C5369 C5368 1.397 . S
C5369 C5370 1.334 . S
C5370 H5341 0.950 . S
C5370 C5369 1.334 . S
C5370 C5371 1.287 . S
C5371 C5370 1.287 . S
C5371 C5372 1.524 . S
C5371 H5374 0.999 . S
C5372 H5342 0.950 . S
C5372 C5371 1.524 . S
C5372 C5373 1.415 . S
C5373 H5343 0.950 . S
C5373 C5368 1.363 . S
C5373 C5372 1.415 . S
H5374 C5371 0.999 . S
H5375 C5356 0.913 . S
H5376 C5394 0.951 . S
H5377 C5396 0.951 . S
H5378 C5398 0.950 . S
H5379 C5399 0.950 . S
H5380 C5401 0.950 . S
H5381 C5404 0.950 . S
H5382 C5405 0.950 . S
H5383 C5407 0.950 . S
H5384 C5408 0.950 . S
H5385 C5409 0.951 . S
H5386 C5411 0.951 . S
H5387 C5413 0.950 . S
H5388 C5414 0.950 . S
H5389 C5416 0.950 . S
H5390 C5419 0.950 . S
H5391 C5420 0.950 . S
H5392 C5422 0.950 . S
H5393 C5423 0.950 . S
C5394 H5376 0.951 . S
C5394 C5395 1.366 . S
C5394 C5396 1.388 . S
C5395 C5394 1.366 . S
C5395 C5399 1.385 . S
C5396 H5377 0.951 . S
C5396 C5394 1.388 . S
C5396 C5397 1.366 . S
C5397 C5396 1.366 . S
C5397 C5398 1.414 . S
C5397 C5400 1.499 . S
C5398 H5378 0.950 . S
C5398 C5397 1.414 . S
C5398 C5399 1.374 . S
C5399 H5379 0.950 . S
C5399 C5395 1.385 . S
C5399 C5398 1.374 . S
C5400 C5397 1.499 . S
C5400 C5401 1.373 . S
C5400 C5402 1.389 . S
C5401 H5380 0.950 . S
C5401 C5400 1.373 . S
C5401 C5417 1.377 . S
C5402 C5400 1.389 . S
C5402 C5403 1.524 . S
C5402 C5416 1.377 . S
C5403 C5402 1.524 . S
C5403 C5404 1.397 . S
C5403 C5408 1.363 . S
C5404 H5381 0.950 . S
C5404 C5403 1.397 . S
C5404 C5405 1.334 . S
C5405 H5382 0.950 . S
C5405 C5404 1.334 . S
C5405 C5406 1.287 . S
C5406 C5405 1.287 . S
C5406 C5407 1.524 . S
C5406 H5425 0.913 . S
C5407 H5383 0.950 . S
C5407 C5406 1.524 . S
C5407 C5408 1.415 . S
C5408 H5384 0.950 . S
C5408 C5403 1.363 . S
C5408 C5407 1.415 . S
C5409 H5385 0.951 . S
C5409 C5410 1.366 . S
C5409 C5411 1.388 . S
C5410 C5409 1.366 . S
C5410 C5414 1.385 . S
C5411 H5386 0.951 . S
C5411 C5409 1.388 . S
C5411 C5412 1.366 . S
C5412 C5411 1.366 . S
C5412 C5413 1.414 . S
C5412 C5415 1.499 . S
C5413 H5387 0.950 . S
C5413 C5412 1.414 . S
C5413 C5414 1.374 . S
C5414 H5388 0.950 . S
C5414 C5410 1.385 . S
C5414 C5413 1.374 . S
C5415 C5412 1.499 . S
C5415 C5416 1.373 . S
C5415 C5417 1.389 . S
C5416 H5389 0.950 . S
C5416 C5402 1.377 . S
C5416 C5415 1.373 . S
C5417 C5401 1.377 . S
C5417 C5415 1.389 . S
C5417 C5418 1.524 . S
C5418 C5417 1.524 . S
C5418 C5419 1.397 . S
C5418 C5423 1.363 . S
C5419 H5390 0.950 . S
C5419 C5418 1.397 . S
C5419 C5420 1.334 . S
C5420 H5391 0.950 . S
C5420 C5419 1.334 . S
C5420 C5421 1.287 . S
C5421 C5420 1.287 . S
C5421 C5422 1.524 . S
C5421 H5424 0.999 . S
C5422 H5392 0.950 . S
C5422 C5421 1.524 . S
C5422 C5423 1.415 . S
C5423 H5393 0.950 . S
C5423 C5418 1.363 . S
C5423 C5422 1.415 . S
H5424 C5421 0.999 . S
H5425 C5406 0.913 . S
H5426 C5444 0.951 . S
H5427 C5446 0.951 . S
H5428 C5448 0.950 . S
H5429 C5449 0.950 . S
H5430 C5451 0.950 . S
H5431 C5454 0.950 . S
H5432 C5455 0.950 . S
H5433 C5457 0.950 . S
H5434 C5458 0.950 . S
H5435 C5459 0.991 . S
H5436 C5461 0.951 . S
H5437 C5463 0.950 . S
H5438 C5464 0.950 . S
H5439 C5466 0.950 . S
H5440 C5469 0.950 . S
H5441 C5470 0.950 . S
H5442 C5472 0.950 . S
H5443 C5473 0.950 . S
C5444 H5426 0.951 . S
C5444 C5445 1.366 . S
C5444 C5446 1.388 . S
C5445 C5444 1.366 . S
C5445 C5449 1.385 . S
C5446 H5427 0.951 . S
C5446 C5444 1.388 . S
C5446 C5447 1.366 . S
C5447 C5446 1.366 . S
C5447 C5448 1.414 . S
C5447 C5450 1.499 . S
C5448 H5428 0.950 . S
C5448 C5447 1.414 . S
C5448 C5449 1.374 . S
C5449 H5429 0.950 . S
C5449 C5445 1.385 . S
C5449 C5448 1.374 . S
C5450 C5447 1.499 . S
C5450 C5451 1.373 . S
C5450 C5452 1.389 . S
C5451 H5430 0.950 . S
C5451 C5450 1.373 . S
C5451 C5467 1.377 . S
C5452 C5450 1.389 . S
C5452 C5453 1.524 . S
C5452 C5466 1.377 . S
C5453 C5452 1.524 . S
C5453 C5454 1.397 . S
C5453 C5458 1.363 . S
C5454 H5431 0.950 . S
C5454 C5453 1.397 . S
C5454 C5455 1.334 . S
C5455 H5432 0.950 . S
C5455 C5454 1.334 . S
C5455 C5456 1.287 . S
C5456 C5455 1.287 . S
C5456 C5457 1.524 . S
C5456 H5475 0.913 . S
C5457 H5433 0.950 . S
C5457 C5456 1.524 . S
C5457 C5458 1.415 . S
C5458 H5434 0.950 . S
C5458 C5453 1.363 . S
C5458 C5457 1.415 . S
C5459 H5435 0.991 . S
C5459 C5460 1.350 1_545 S
C5459 C5461 1.366 1_545 S
C5460 C5459 1.350 1_565 S
C5460 C5464 1.385 . S
C5461 H5436 0.951 . S
C5461 C5459 1.366 1_565 S
C5461 C5462 1.366 . S
C5462 C5461 1.366 . S
C5462 C5463 1.414 . S
C5462 C5465 1.499 . S
C5463 H5437 0.950 . S
C5463 C5462 1.414 . S
C5463 C5464 1.374 . S
C5464 H5438 0.950 . S
C5464 C5460 1.385 . S
C5464 C5463 1.374 . S
C5465 C5462 1.499 . S
C5465 C5466 1.373 . S
C5465 C5467 1.389 . S
C5466 H5439 0.950 . S
C5466 C5452 1.377 . S
C5466 C5465 1.373 . S
C5467 C5451 1.377 . S
C5467 C5465 1.389 . S
C5467 C5468 1.524 . S
C5468 C5467 1.524 . S
C5468 C5469 1.397 . S
C5468 C5473 1.363 . S
C5469 H5440 0.950 . S
C5469 C5468 1.397 . S
C5469 C5470 1.334 . S
C5470 H5441 0.950 . S
C5470 C5469 1.334 . S
C5470 C5471 1.287 . S
C5471 C5470 1.287 . S
C5471 C5472 1.524 . S
C5471 H5474 0.999 . S
C5472 H5442 0.950 . S
C5472 C5471 1.524 . S
C5472 C5473 1.415 . S
C5473 H5443 0.950 . S
C5473 C5468 1.363 . S
C5473 C5472 1.415 . S
H5474 C5471 0.999 . S
H5475 C5456 0.913 . S
H5476 C5494 0.951 . S
H5477 C5496 0.951 . S
H5478 C5498 0.950 . S
H5479 C5499 0.950 . S
H5480 C5501 0.950 . S
H5481 C5504 0.950 . S
H5482 C5505 0.950 . S
H5483 C5507 0.950 . S
H5484 C5508 0.950 . S
H5485 C5509 0.951 . S
H5486 C5511 0.951 . S
H5487 C5513 0.950 . S
H5488 C5514 0.950 . S
H5489 C5516 0.950 . S
H5490 C5519 0.950 . S
H5491 C5520 0.950 . S
H5492 C5522 0.950 . S
H5493 C5523 0.950 . S
C5494 H5476 0.951 . S
C5494 C5495 1.366 . S
C5494 C5496 1.388 . S
C5495 C5494 1.366 . S
C5495 C5499 1.385 . S
C5496 H5477 0.951 . S
C5496 C5494 1.388 . S
C5496 C5497 1.366 . S
C5497 C5496 1.366 . S
C5497 C5498 1.414 . S
C5497 C5500 1.499 . S
C5498 H5478 0.950 . S
C5498 C5497 1.414 . S
C5498 C5499 1.374 . S
C5499 H5479 0.950 . S
C5499 C5495 1.385 . S
C5499 C5498 1.374 . S
C5500 C5497 1.499 . S
C5500 C5501 1.373 . S
C5500 C5502 1.389 . S
C5501 H5480 0.950 . S
C5501 C5500 1.373 . S
C5501 C5517 1.377 . S
C5502 C5500 1.389 . S
C5502 C5503 1.524 . S
C5502 C5516 1.377 . S
C5503 C5502 1.524 . S
C5503 C5504 1.397 . S
C5503 C5508 1.363 . S
C5504 H5481 0.950 . S
C5504 C5503 1.397 . S
C5504 C5505 1.334 . S
C5505 H5482 0.950 . S
C5505 C5504 1.334 . S
C5505 C5506 1.287 . S
C5506 C5505 1.287 . S
C5506 C5507 1.524 . S
C5506 H5525 0.913 . S
C5507 H5483 0.950 . S
C5507 C5506 1.524 . S
C5507 C5508 1.415 . S
C5508 H5484 0.950 . S
C5508 C5503 1.363 . S
C5508 C5507 1.415 . S
C5509 H5485 0.951 . S
C5509 C5510 1.366 . S
C5509 C5511 1.388 . S
C5510 C5509 1.366 . S
C5510 C5514 1.385 . S
C5511 H5486 0.951 . S
C5511 C5509 1.388 . S
C5511 C5512 1.366 . S
C5512 C5511 1.366 . S
C5512 C5513 1.414 . S
C5512 C5515 1.499 . S
C5513 H5487 0.950 . S
C5513 C5512 1.414 . S
C5513 C5514 1.374 . S
C5514 H5488 0.950 . S
C5514 C5510 1.385 . S
C5514 C5513 1.374 . S
C5515 C5512 1.499 . S
C5515 C5516 1.373 . S
C5515 C5517 1.389 . S
C5516 H5489 0.950 . S
C5516 C5502 1.377 . S
C5516 C5515 1.373 . S
C5517 C5501 1.377 . S
C5517 C5515 1.389 . S
C5517 C5518 1.524 . S
C5518 C5517 1.524 . S
C5518 C5519 1.397 . S
C5518 C5523 1.363 . S
C5519 H5490 0.950 . S
C5519 C5518 1.397 . S
C5519 C5520 1.334 . S
C5520 H5491 0.950 . S
C5520 C5519 1.334 . S
C5520 C5521 1.287 . S
C5521 C5520 1.287 . S
C5521 C5522 1.524 . S
C5521 H5524 0.999 . S
C5522 H5492 0.950 . S
C5522 C5521 1.524 . S
C5522 C5523 1.415 . S
C5523 H5493 0.950 . S
C5523 C5518 1.363 . S
C5523 C5522 1.415 . S
H5524 C5521 0.999 . S
H5525 C5506 0.913 . S
H5526 C5544 0.951 . S
H5527 C5546 0.951 . S
H5528 C5548 0.950 . S
H5529 C5549 0.950 . S
H5530 C5551 0.950 . S
H5531 C5554 0.950 . S
H5532 C5555 0.950 . S
H5533 C5557 0.950 . S
H5534 C5558 0.950 . S
H5535 C5559 0.951 . S
H5536 C5561 0.951 . S
H5537 C5563 0.950 . S
H5538 C5564 0.950 . S
H5539 C5566 0.950 . S
H5540 C5569 0.950 . S
H5541 C5570 0.950 . S
H5542 C5572 0.950 . S
H5543 C5573 0.950 . S
C5544 H5526 0.951 . S
C5544 C5545 1.366 1_556 S
C5544 C5546 1.388 . S
C5545 C5544 1.366 1_554 S
C5545 C5549 1.385 . S
C5546 H5527 0.951 . S
C5546 C5544 1.388 . S
C5546 C5547 1.366 1_556 S
C5547 C5546 1.366 1_554 S
C5547 C5548 1.414 . S
C5547 C5550 1.499 . S
C5548 H5528 0.950 . S
C5548 C5547 1.414 . S
C5548 C5549 1.374 . S
C5549 H5529 0.950 . S
C5549 C5545 1.385 . S
C5549 C5548 1.374 . S
C5550 C5547 1.499 . S
C5550 C5551 1.373 . S
C5550 C5552 1.389 1_554 S
C5551 H5530 0.950 . S
C5551 C5550 1.373 . S
C5551 C5567 1.377 . S
C5552 C5550 1.389 1_556 S
C5552 C5553 1.524 . S
C5552 C5566 1.377 . S
C5553 C5552 1.524 . S
C5553 C5554 1.397 . S
C5553 C5558 1.363 . S
C5554 H5531 0.950 . S
C5554 C5553 1.397 . S
C5554 C5555 1.334 . S
C5555 H5532 0.950 . S
C5555 C5554 1.334 . S
C5555 C5556 1.287 . S
C5556 C5555 1.287 . S
C5556 C5557 1.524 . S
C5556 H5575 0.913 . S
C5557 H5533 0.950 . S
C5557 C5556 1.524 . S
C5557 C5558 1.415 . S
C5558 H5534 0.950 . S
C5558 C5553 1.363 . S
C5558 C5557 1.415 . S
C5559 H5535 0.951 . S
C5559 C5560 1.366 . S
C5559 C5561 1.388 . S
C5560 C5559 1.366 . S
C5560 C5564 1.385 1_554 S
C5561 H5536 0.951 . S
C5561 C5559 1.388 . S
C5561 C5562 1.366 . S
C5562 C5561 1.366 . S
C5562 C5563 1.414 1_554 S
C5562 C5565 1.499 . S
C5563 H5537 0.950 . S
C5563 C5562 1.414 1_556 S
C5563 C5564 1.374 . S
C5564 H5538 0.950 . S
C5564 C5560 1.385 1_556 S
C5564 C5563 1.374 . S
C5565 C5562 1.499 . S
C5565 C5566 1.373 1_554 S
C5565 C5567 1.389 . S
C5566 H5539 0.950 . S
C5566 C5552 1.377 . S
C5566 C5565 1.373 1_556 S
C5567 C5551 1.377 . S
C5567 C5565 1.389 . S
C5567 C5568 1.524 . S
C5568 C5567 1.524 . S
C5568 C5569 1.397 . S
C5568 C5573 1.363 . S
C5569 H5540 0.950 . S
C5569 C5568 1.397 . S
C5569 C5570 1.334 . S
C5570 H5541 0.950 . S
C5570 C5569 1.334 . S
C5570 C5571 1.287 . S
C5571 C5570 1.287 . S
C5571 C5572 1.524 . S
C5571 H5574 0.999 . S
C5572 H5542 0.950 . S
C5572 C5571 1.524 . S
C5572 C5573 1.415 . S
C5573 H5543 0.950 . S
C5573 C5568 1.363 . S
C5573 C5572 1.415 . S
H5574 C5571 0.999 . S
H5575 C5556 0.913 . S
H5576 C5594 0.951 . S
H5577 C5596 0.951 . S
H5578 C5598 0.950 . S
H5579 C5599 0.950 . S
H5580 C5601 0.950 . S
H5581 C5604 0.950 . S
H5582 C5605 0.950 . S
H5583 C5607 0.950 . S
H5584 C5608 0.950 . S
H5585 C5609 0.951 . S
H5586 C5611 0.951 . S
H5587 C5613 0.950 . S
H5588 C5614 0.950 . S
H5589 C5616 0.950 . S
H5590 C5619 0.950 . S
H5591 C5620 0.950 . S
H5592 C5622 0.950 . S
H5593 C5623 0.950 . S
C5594 H5576 0.951 . S
C5594 C5595 1.366 . S
C5594 C5596 1.388 . S
C5595 C5594 1.366 . S
C5595 C5599 1.385 . S
C5596 H5577 0.951 . S
C5596 C5594 1.388 . S
C5596 C5597 1.366 . S
C5597 C5596 1.366 . S
C5597 C5598 1.414 . S
C5597 C5600 1.499 . S
C5598 H5578 0.950 . S
C5598 C5597 1.414 . S
C5598 C5599 1.374 . S
C5599 H5579 0.950 . S
C5599 C5595 1.385 . S
C5599 C5598 1.374 . S
C5600 C5597 1.499 . S
C5600 C5601 1.373 . S
C5600 C5602 1.389 . S
C5601 H5580 0.950 . S
C5601 C5600 1.373 . S
C5601 C5617 1.377 . S
C5602 C5600 1.389 . S
C5602 C5603 1.524 . S
C5602 C5616 1.377 . S
C5603 C5602 1.524 . S
C5603 C5604 1.397 . S
C5603 C5608 1.363 . S
C5604 H5581 0.950 . S
C5604 C5603 1.397 . S
C5604 C5605 1.334 . S
C5605 H5582 0.950 . S
C5605 C5604 1.334 . S
C5605 C5606 1.287 . S
C5606 C5605 1.287 . S
C5606 C5607 1.524 . S
C5606 H5625 0.913 . S
C5607 H5583 0.950 . S
C5607 C5606 1.524 . S
C5607 C5608 1.415 . S
C5608 H5584 0.950 . S
C5608 C5603 1.363 . S
C5608 C5607 1.415 . S
C5609 H5585 0.951 . S
C5609 C5610 1.366 . S
C5609 C5611 1.388 . S
C5610 C5609 1.366 . S
C5610 C5614 1.385 . S
C5611 H5586 0.951 . S
C5611 C5609 1.388 . S
C5611 C5612 1.366 . S
C5612 C5611 1.366 . S
C5612 C5613 1.414 . S
C5612 C5615 1.499 . S
C5613 H5587 0.950 . S
C5613 C5612 1.414 . S
C5613 C5614 1.374 . S
C5614 H5588 0.950 . S
C5614 C5610 1.385 . S
C5614 C5613 1.374 . S
C5615 C5612 1.499 . S
C5615 C5616 1.373 . S
C5615 C5617 1.389 . S
C5616 H5589 0.950 . S
C5616 C5602 1.377 . S
C5616 C5615 1.373 . S
C5617 C5601 1.377 . S
C5617 C5615 1.389 . S
C5617 C5618 1.524 . S
C5618 C5617 1.524 . S
C5618 C5619 1.397 . S
C5618 C5623 1.363 . S
C5619 H5590 0.950 . S
C5619 C5618 1.397 . S
C5619 C5620 1.334 . S
C5620 H5591 0.950 . S
C5620 C5619 1.334 . S
C5620 C5621 1.287 . S
C5621 C5620 1.287 . S
C5621 C5622 1.524 . S
C5621 H5624 0.999 . S
C5622 H5592 0.950 . S
C5622 C5621 1.524 . S
C5622 C5623 1.415 . S
C5623 H5593 0.950 . S
C5623 C5618 1.363 . S
C5623 C5622 1.415 . S
H5624 C5621 0.999 . S
H5625 C5606 0.913 . S
H5626 C5644 0.951 1_556 S
H5627 C5646 0.904 1_556 S
H5628 C5648 0.950 . S
H5629 C5649 0.950 . S
H5630 C5651 0.957 . S
H5631 C5654 0.950 . S
H5632 C5655 0.950 . S
H5633 C5657 0.950 . S
H5634 C5658 0.950 1_556 S
H5635 C5659 0.934 1_554 S
H5636 C5661 0.951 . S
H5637 C5663 0.950 . S
H5638 C5664 0.950 . S
H5639 C5666 0.950 . S
H5640 C5669 0.950 . S
H5641 C5670 0.950 . S
H5642 C5672 0.950 . S
H5643 C5673 0.950 1_554 S
C5644 H5626 0.951 1_554 S
C5644 C5645 1.366 . S
C5644 C5646 1.402 . S
C5645 C5644 1.366 . S
C5645 C5649 1.385 . S
C5646 H5627 0.904 1_554 S
C5646 C5644 1.402 . S
C5646 C5647 1.402 . S
C5647 C5646 1.402 . S
C5647 C5648 1.414 . S
C5647 C5650 1.499 . S
C5648 H5628 0.950 . S
C5648 C5647 1.414 . S
C5648 C5649 1.374 . S
C5649 H5629 0.950 . S
C5649 C5645 1.385 . S
C5649 C5648 1.374 . S
C5650 C5647 1.499 . S
C5650 C5651 1.381 . S
C5650 C5652 1.389 . S
C5651 H5630 0.957 . S
C5651 C5650 1.381 . S
C5651 C5667 1.363 1_554 S
C5652 C5650 1.389 . S
C5652 C5653 1.524 . S
C5652 C5666 1.377 . S
C5653 C5652 1.524 . S
C5653 C5654 1.397 . S
C5653 C5658 1.363 . S
C5654 H5631 0.950 . S
C5654 C5653 1.397 . S
C5654 C5655 1.334 . S
C5655 H5632 0.950 . S
C5655 C5654 1.334 . S
C5655 C5656 1.287 . S
C5656 C5655 1.287 . S
C5656 C5657 1.524 . S
C5656 H5675 0.913 . S
C5657 H5633 0.950 . S
C5657 C5656 1.524 . S
C5657 C5658 1.415 . S
C5658 H5634 0.950 1_554 S
C5658 C5653 1.363 . S
C5658 C5657 1.415 . S
C5659 H5635 0.934 1_556 S
C5659 C5660 1.389 . S
C5659 C5661 1.382 1_556 S
C5660 C5659 1.389 . S
C5660 C5664 1.385 . S
C5661 H5636 0.951 . S
C5661 C5659 1.382 1_554 S
C5661 C5662 1.366 1_554 S
C5662 C5661 1.366 1_556 S
C5662 C5663 1.414 . S
C5662 C5665 1.499 . S
C5663 H5637 0.950 . S
C5663 C5662 1.414 . S
C5663 C5664 1.374 . S
C5664 H5638 0.950 . S
C5664 C5660 1.385 . S
C5664 C5663 1.374 . S
C5665 C5662 1.499 . S
C5665 C5666 1.373 1_556 S
C5665 C5667 1.389 . S
C5666 H5639 0.950 . S
C5666 C5652 1.377 . S
C5666 C5665 1.373 1_554 S
C5667 C5651 1.363 1_556 S
C5667 C5665 1.389 . S
C5667 C5668 1.524 . S
C5668 C5667 1.524 . S
C5668 C5669 1.397 . S
C5668 C5673 1.363 . S
C5669 H5640 0.950 . S
C5669 C5668 1.397 . S
C5669 C5670 1.334 . S
C5670 H5641 0.950 . S
C5670 C5669 1.334 . S
C5670 C5671 1.287 . S
C5671 C5670 1.287 . S
C5671 C5672 1.524 . S
C5671 H5674 0.999 . S
C5672 H5642 0.950 . S
C5672 C5671 1.524 . S
C5672 C5673 1.415 . S
C5673 H5643 0.950 1_556 S
C5673 C5668 1.363 . S
C5673 C5672 1.415 . S
H5674 C5671 0.999 . S
H5675 C5656 0.913 . S
H5676 C5694 0.951 . S
H5677 C5696 0.951 . S
H5678 C5698 0.950 . S
H5679 C5699 0.950 . S
H5680 C5701 0.950 . S
H5681 C5704 0.950 . S
H5682 C5705 0.950 . S
H5683 C5707 0.950 . S
H5684 C5708 0.950 . S
H5685 C5709 0.951 . S
H5686 C5711 0.951 . S
H5687 C5713 0.950 . S
H5688 C5714 0.950 . S
H5689 C5716 0.950 . S
H5690 C5719 0.950 . S
H5691 C5720 0.950 . S
H5692 C5722 0.950 . S
H5693 C5723 0.950 . S
C5694 H5676 0.951 . S
C5694 C5695 1.366 . S
C5694 C5696 1.388 . S
C5695 C5694 1.366 . S
C5695 C5699 1.385 . S
C5696 H5677 0.951 . S
C5696 C5694 1.388 . S
C5696 C5697 1.366 . S
C5697 C5696 1.366 . S
C5697 C5698 1.414 . S
C5697 C5700 1.499 . S
C5698 H5678 0.950 . S
C5698 C5697 1.414 . S
C5698 C5699 1.374 . S
C5699 H5679 0.950 . S
C5699 C5695 1.385 . S
C5699 C5698 1.374 . S
C5700 C5697 1.499 . S
C5700 C5701 1.373 . S
C5700 C5702 1.389 . S
C5701 H5680 0.950 . S
C5701 C5700 1.373 . S
C5701 C5717 1.377 . S
C5702 C5700 1.389 . S
C5702 C5703 1.524 . S
C5702 C5716 1.377 . S
C5703 C5702 1.524 . S
C5703 C5704 1.397 . S
C5703 C5708 1.363 . S
C5704 H5681 0.950 . S
C5704 C5703 1.397 . S
C5704 C5705 1.334 . S
C5705 H5682 0.950 . S
C5705 C5704 1.334 . S
C5705 C5706 1.287 . S
C5706 C5705 1.287 . S
C5706 C5707 1.524 . S
C5706 H5725 0.913 . S
C5707 H5683 0.950 . S
C5707 C5706 1.524 . S
C5707 C5708 1.415 . S
C5708 H5684 0.950 . S
C5708 C5703 1.363 . S
C5708 C5707 1.415 . S
C5709 H5685 0.951 . S
C5709 C5710 1.366 . S
C5709 C5711 1.388 . S
C5710 C5709 1.366 . S
C5710 C5714 1.385 . S
C5711 H5686 0.951 . S
C5711 C5709 1.388 . S
C5711 C5712 1.366 . S
C5712 C5711 1.366 . S
C5712 C5713 1.414 . S
C5712 C5715 1.499 . S
C5713 H5687 0.950 . S
C5713 C5712 1.414 . S
C5713 C5714 1.374 . S
C5714 H5688 0.950 . S
C5714 C5710 1.385 . S
C5714 C5713 1.374 . S
C5715 C5712 1.499 . S
C5715 C5716 1.373 . S
C5715 C5717 1.389 . S
C5716 H5689 0.950 . S
C5716 C5702 1.377 . S
C5716 C5715 1.373 . S
C5717 C5701 1.377 . S
C5717 C5715 1.389 . S
C5717 C5718 1.524 . S
C5718 C5717 1.524 . S
C5718 C5719 1.397 . S
C5718 C5723 1.363 . S
C5719 H5690 0.950 . S
C5719 C5718 1.397 . S
C5719 C5720 1.334 . S
C5720 H5691 0.950 . S
C5720 C5719 1.334 . S
C5720 C5721 1.287 . S
C5721 C5720 1.287 . S
C5721 C5722 1.524 . S
C5721 H5724 0.999 . S
C5722 H5692 0.950 . S
C5722 C5721 1.524 . S
C5722 C5723 1.415 . S
C5723 H5693 0.950 . S
C5723 C5718 1.363 . S
C5723 C5722 1.415 . S
H5724 C5721 0.999 . S
H5725 C5706 0.913 . S
H5726 C5744 0.951 . S
H5727 C5746 0.951 . S
H5728 C5748 0.950 . S
H5729 C5749 0.950 . S
H5730 C5751 0.950 . S
H5731 C5754 0.950 . S
H5732 C5755 0.950 . S
H5733 C5757 0.950 . S
H5734 C5758 0.950 . S
H5735 C5759 0.951 . S
H5736 C5761 0.951 . S
H5737 C5763 0.950 . S
H5738 C5764 0.950 . S
H5739 C5766 0.950 . S
H5740 C5769 0.950 . S
H5741 C5770 0.950 . S
H5742 C5772 0.950 . S
H5743 C5773 0.950 . S
C5744 H5726 0.951 . S
C5744 C5745 1.366 . S
C5744 C5746 1.388 . S
C5745 C5744 1.366 . S
C5745 C5749 1.385 . S
C5746 H5727 0.951 . S
C5746 C5744 1.388 . S
C5746 C5747 1.366 . S
C5747 C5746 1.366 . S
C5747 C5748 1.414 . S
C5747 C5750 1.499 . S
C5748 H5728 0.950 . S
C5748 C5747 1.414 . S
C5748 C5749 1.374 . S
C5749 H5729 0.950 . S
C5749 C5745 1.385 . S
C5749 C5748 1.374 . S
C5750 C5747 1.499 . S
C5750 C5751 1.373 . S
C5750 C5752 1.389 . S
C5751 H5730 0.950 . S
C5751 C5750 1.373 . S
C5751 C5767 1.377 . S
C5752 C5750 1.389 . S
C5752 C5753 1.524 . S
C5752 C5766 1.377 . S
C5753 C5752 1.524 . S
C5753 C5754 1.397 . S
C5753 C5758 1.363 . S
C5754 H5731 0.950 . S
C5754 C5753 1.397 . S
C5754 C5755 1.334 . S
C5755 H5732 0.950 . S
C5755 C5754 1.334 . S
C5755 C5756 1.287 . S
C5756 C5755 1.287 . S
C5756 C5757 1.524 . S
C5756 H5775 0.913 . S
C5757 H5733 0.950 . S
C5757 C5756 1.524 . S
C5757 C5758 1.415 . S
C5758 H5734 0.950 . S
C5758 C5753 1.363 . S
C5758 C5757 1.415 . S
C5759 H5735 0.951 . S
C5759 C5760 1.366 . S
C5759 C5761 1.388 . S
C5760 C5759 1.366 . S
C5760 C5764 1.385 . S
C5761 H5736 0.951 . S
C5761 C5759 1.388 . S
C5761 C5762 1.366 . S
C5762 C5761 1.366 . S
C5762 C5763 1.414 . S
C5762 C5765 1.499 . S
C5763 H5737 0.950 . S
C5763 C5762 1.414 . S
C5763 C5764 1.374 . S
C5764 H5738 0.950 . S
C5764 C5760 1.385 . S
C5764 C5763 1.374 . S
C5765 C5762 1.499 . S
C5765 C5766 1.373 . S
C5765 C5767 1.389 . S
C5766 H5739 0.950 . S
C5766 C5752 1.377 . S
C5766 C5765 1.373 . S
C5767 C5751 1.377 . S
C5767 C5765 1.389 . S
C5767 C5768 1.524 . S
C5768 C5767 1.524 . S
C5768 C5769 1.397 . S
C5768 C5773 1.363 . S
C5769 H5740 0.950 . S
C5769 C5768 1.397 . S
C5769 C5770 1.334 . S
C5770 H5741 0.950 . S
C5770 C5769 1.334 . S
C5770 C5771 1.287 . S
C5771 C5770 1.287 . S
C5771 C5772 1.524 . S
C5771 H5774 0.999 . S
C5772 H5742 0.950 . S
C5772 C5771 1.524 . S
C5772 C5773 1.415 . S
C5773 H5743 0.950 . S
C5773 C5768 1.363 . S
C5773 C5772 1.415 . S
H5774 C5771 0.999 . S
H5775 C5756 0.913 . S
C995 C105 1.044 . S
C1010 C344 1.051 . S
C1045 C65 1.404 . S
C1060 C378 1.398 . S
C1095 C73 0.486 . S
C1110 C447 0.503 . S
C1160 C485 0.875 . S
C1145 C92 0.877 . S
C1195 C17 1.358 . S
C1210 C525 1.338 . S
C1260 C544 0.192 . S
C1245 C37 0.220 . S
C1310 C578 1.159 . S
C1295 C49 1.104 . S
C1345 C8 1.619 . S
C1360 C647 1.603 . S
C1410 C353 2.437 . S
C1395 C231 2.420 . S
C1445 C241 0.844 . S
C1460 C405 0.839 . S
C1510 C418 1.429 . S
C1495 C273 1.396 . S
C1560 C487 1.214 . S
C1545 C171 1.208 . S
C1595 C227 1.797 . S
C1610 C527 1.799 . S
C1660 C553 1.874 . S
C1645 C245 1.830 . S
C1710 C605 0.216 . S
C1695 C269 0.129 . S
C1760 C618 2.154 . S
C1745 C175 2.144 . S
C1810 C348 2.476 . S
C1795 C162 2.502 . S
C1845 C289 2.019 . S
C1860 C658 2.017 . S
C1910 C708 2.688 . S
C1895 C330 2.692 . S
C1960 C767 1.460 . S
C1945 C317 1.433 . S
C1995 C120 1.313 . S
C2010 C645 1.297 . S
C2045 C134 1.395 . S
C2060 C445 1.389 . S
C2095 C331 2.470 . S
C2110 C778 2.455 . S
C2160 C847 0.720 . S
C2145 C303 0.718 . S
C2210 C365 1.065 . S
C2195 C59 1.062 . S
C2260 C833 1.437 . S
C2245 C107 1.443 . S
C2295 C91 0.568 . S
C2310 C428 0.558 . S
C2345 C78 0.925 . S
C2360 C784 0.921 . S
C2410 C504 1.358 . S
C2395 C7 1.324 . S
C2445 C51 0.245 . S
C2460 C725 0.221 . S
C2510 C593 1.230 . S
C2495 C31 1.234 . S
C2560 C868 1.618 . S
C2545 C22 1.629 . S
C2610 C338 2.456 . S
C2595 C143 2.492 . S
C2660 C824 0.858 . S
C2645 C315 0.842 . S
C2695 C115 1.480 . S
C2710 C433 1.470 . S
C2745 C287 1.256 . S
C2760 C788 1.275 . S
C2795 C147 1.770 . S
C2810 C508 1.848 . S
C2860 C698 1.902 . S
C2845 C311 1.941 . S
C2895 C119 0.295 . S
C2910 C584 0.247 . S
C2945 C283 2.195 . S
C2960 C873 2.184 . S
C2995 C190 2.542 . S
C3010 C367 2.520 1_655 S
C3045 C177 2.062 . S
C3060 C673 2.065 . S
C3095 C260 2.738 . S
C3110 C567 2.732 . S
C3145 C247 1.507 . S
C3160 C748 1.535 . S
C3210 C864 1.302 . S
C3195 C274 1.303 . S
C3245 C218 1.401 . S
C3260 C424 1.405 . S
C3310 C473 2.517 . S
C3295 C261 2.529 . S
C3360 C388 0.771 . S
C3345 C205 0.773 . S
C3395 C77 1.044 . S
C3410 C904 1.051 . S
C3460 C818 1.398 . S
C3445 C93 1.403 . S
C3495 C101 0.486 . S
C3510 C967 0.502 . S
C3545 C64 0.877 . S
C3560 C805 0.875 . S
C3595 C45 1.358 . S
C3610 C685 1.337 . S
C3660 C704 0.192 . S
C3645 C9 0.220 . S
C3710 C738 1.159 . S
C3695 C21 1.103 . S
C3760 C887 1.604 . S
C3745 C36 1.619 . S
C3810 C913 2.437 . S
C3795 C259 2.419 . S
C3845 C185 0.844 . S
C3860 C845 0.840 . S
C3910 C938 1.429 . S
C3895 C203 1.396 . S
C3960 C807 1.215 . S
C3945 C213 1.208 . S
C4010 C687 1.799 . S
C3995 C255 1.797 . S
C4045 C189 1.830 . S
C4060 C713 1.874 . S
C4110 C765 0.218 . S
C4095 C199 0.130 . S
C4145 C217 2.144 . S
C4160 C858 2.154 . S
C4210 C908 2.476 . S
C4195 C316 2.502 . S
C4245 C135 2.019 . S
C4260 C498 2.017 . S
C4310 C548 2.688 . S
C4295 C148 2.691 . S
C4360 C607 1.459 . S
C4345 C163 1.433 . S
C4410 C885 1.298 . S
C4395 C302 1.313 . S
C4445 C288 1.395 . S
C4460 C965 1.389 . S
C4510 C458 2.455 . S
C4495 C149 2.470 . S
C4560 C407 0.719 . S
C4545 C121 0.718 . S
C4595 C87 1.062 . S
C4610 C925 1.064 . S
C4660 C393 1.437 . S
C4645 C79 1.443 . S
C4695 C63 0.570 . S
C4710 C948 0.559 . S
C4745 C106 0.925 . S
C4760 C464 0.921 . S
C4795 C35 1.322 . S
C4810 C664 1.357 . S
C4860 C565 0.220 . S
C4845 C23 0.243 . S
C4895 C3 1.234 . S
C4910 C753 1.231 . S
C4945 C50 1.622 . S
C4960 C628 1.618 . S
C5010 C898 2.456 . S
C4995 C325 2.492 . S
C5045 C161 0.843 . S
C5060 C384 0.858 . S
C5110 C953 1.470 . S
C5095 C297 1.480 . S
C5145 C133 1.256 . S
C5160 C468 1.275 . S
C5195 C329 1.769 . S
C5210 C668 1.848 . S
C5260 C538 1.902 . S
C5245 C157 1.941 . S
C5295 C301 0.293 . S
C5310 C744 0.244 . S
C5360 C633 2.184 . S
C5345 C129 2.195 . S
C5410 C927 2.520 . S
C5395 C246 2.542 . S
C5460 C513 2.065 1_665 S
C5445 C219 2.062 . S
C5495 C232 2.738 . S
C5510 C727 2.732 . S
C5560 C588 1.535 . S
C5545 C191 1.507 . S
C5595 C204 1.304 . S
C5610 C624 1.302 . S
C5645 C176 1.401 . S
C5660 C944 1.405 . S
C5710 C793 2.517 . S
C5695 C233 2.529 1_565 S
C5760 C828 0.770 . S
C5745 C275 0.772 . S
