# Generated by pormake.
# Topology gar, (4,6)-cn, num edge types: 1
# Building blocks:
#     Node 0, Type 0, BuildingBlock: NAHDIM_clean_sbu_0, # of connection points: 4
#     Node 1, Type 0, BuildingBlock: NAHDIM_clean_sbu_0, # of connection points: 4
#     Node 2, Type 0, BuildingBlock: NAHDIM_clean_sbu_0, # of connection points: 4
#     Node 3, Type 0, BuildingBlock: NAHDIM_clean_sbu_0, # of connection points: 4
#     Node 4, Type 0, BuildingBlock: NAHDIM_clean_sbu_0, # of connection points: 4
#     Node 5, Type 0, BuildingBlock: NAHDIM_clean_sbu_0, # of connection points: 4
#     Node 6, Type 0, BuildingBlock: NAHDIM_clean_sbu_0, # of connection points: 4
#     Node 7, Type 0, BuildingBlock: NAHDIM_clean_sbu_0, # of connection points: 4
#     Node 8, Type 0, BuildingBlock: NAHDIM_clean_sbu_0, # of connection points: 4
#     Node 9, Type 0, BuildingBlock: NAHDIM_clean_sbu_0, # of connection points: 4
#     Node 10, Type 0, BuildingBlock: NAHDIM_clean_sbu_0, # of connection points: 4
#     Node 11, Type 0, BuildingBlock: NAHDIM_clean_sbu_0, # of connection points: 4
#     Node 12, Type 0, BuildingBlock: NAHDIM_clean_sbu_0, # of connection points: 4
#     Node 13, Type 0, BuildingBlock: NAHDIM_clean_sbu_0, # of connection points: 4
#     Node 14, Type 0, BuildingBlock: NAHDIM_clean_sbu_0, # of connection points: 4
#     Node 15, Type 0, BuildingBlock: NAHDIM_clean_sbu_0, # of connection points: 4
#     Node 16, Type 0, BuildingBlock: NAHDIM_clean_sbu_0, # of connection points: 4
#     Node 17, Type 0, BuildingBlock: NAHDIM_clean_sbu_0, # of connection points: 4
#     Node 18, Type 0, BuildingBlock: NAHDIM_clean_sbu_0, # of connection points: 4
#     Node 19, Type 0, BuildingBlock: NAHDIM_clean_sbu_0, # of connection points: 4
#     Node 20, Type 0, BuildingBlock: NAHDIM_clean_sbu_0, # of connection points: 4
#     Node 21, Type 0, BuildingBlock: NAHDIM_clean_sbu_0, # of connection points: 4
#     Node 22, Type 0, BuildingBlock: NAHDIM_clean_sbu_0, # of connection points: 4
#     Node 23, Type 0, BuildingBlock: NAHDIM_clean_sbu_0, # of connection points: 4
#     Node 24, Type 1, BuildingBlock: PAMTOO_clean_sbu_0, # of connection points: 6
#     Node 25, Type 1, BuildingBlock: PAMTOO_clean_sbu_0, # of connection points: 6
#     Node 26, Type 1, BuildingBlock: PAMTOO_clean_sbu_0, # of connection points: 6
#     Node 27, Type 1, BuildingBlock: PAMTOO_clean_sbu_0, # of connection points: 6
#     Node 28, Type 1, BuildingBlock: PAMTOO_clean_sbu_0, # of connection points: 6
#     Node 29, Type 1, BuildingBlock: PAMTOO_clean_sbu_0, # of connection points: 6
#     Node 30, Type 1, BuildingBlock: PAMTOO_clean_sbu_0, # of connection points: 6
#     Node 31, Type 1, BuildingBlock: PAMTOO_clean_sbu_0, # of connection points: 6
#     Node 32, Type 1, BuildingBlock: PAMTOO_clean_sbu_0, # of connection points: 6
#     Node 33, Type 1, BuildingBlock: PAMTOO_clean_sbu_0, # of connection points: 6
#     Node 34, Type 1, BuildingBlock: PAMTOO_clean_sbu_0, # of connection points: 6
#     Node 35, Type 1, BuildingBlock: PAMTOO_clean_sbu_0, # of connection points: 6
#     Node 36, Type 1, BuildingBlock: PAMTOO_clean_sbu_0, # of connection points: 6
#     Node 37, Type 1, BuildingBlock: PAMTOO_clean_sbu_0, # of connection points: 6
#     Node 38, Type 1, BuildingBlock: PAMTOO_clean_sbu_0, # of connection points: 6
#     Node 39, Type 1, BuildingBlock: PAMTOO_clean_sbu_0, # of connection points: 6
#     Edge 40, Type (0, 1), BuildingBlock: KIFKEQ_clean_linker_1, # of connection points: 2
#     Edge 41, Type (0, 1), BuildingBlock: KIFKEQ_clean_linker_1, # of connection points: 2
#     Edge 42, Type (0, 1), BuildingBlock: KIFKEQ_clean_linker_1, # of connection points: 2
#     Edge 43, Type (0, 1), BuildingBlock: KIFKEQ_clean_linker_1, # of connection points: 2
#     Edge 44, Type (0, 1), BuildingBlock: KIFKEQ_clean_linker_1, # of connection points: 2
#     Edge 45, Type (0, 1), BuildingBlock: KIFKEQ_clean_linker_1, # of connection points: 2
#     Edge 46, Type (0, 1), BuildingBlock: KIFKEQ_clean_linker_1, # of connection points: 2
#     Edge 47, Type (0, 1), BuildingBlock: KIFKEQ_clean_linker_1, # of connection points: 2
#     Edge 48, Type (0, 1), BuildingBlock: KIFKEQ_clean_linker_1, # of connection points: 2
#     Edge 49, Type (0, 1), BuildingBlock: KIFKEQ_clean_linker_1, # of connection points: 2
#     Edge 50, Type (0, 1), BuildingBlock: KIFKEQ_clean_linker_1, # of connection points: 2
#     Edge 51, Type (0, 1), BuildingBlock: KIFKEQ_clean_linker_1, # of connection points: 2
#     Edge 52, Type (0, 1), BuildingBlock: KIFKEQ_clean_linker_1, # of connection points: 2
#     Edge 53, Type (0, 1), BuildingBlock: KIFKEQ_clean_linker_1, # of connection points: 2
#     Edge 54, Type (0, 1), BuildingBlock: KIFKEQ_clean_linker_1, # of connection points: 2
#     Edge 55, Type (0, 1), BuildingBlock: KIFKEQ_clean_linker_1, # of connection points: 2
#     Edge 56, Type (0, 1), BuildingBlock: KIFKEQ_clean_linker_1, # of connection points: 2
#     Edge 57, Type (0, 1), BuildingBlock: KIFKEQ_clean_linker_1, # of connection points: 2
#     Edge 58, Type (0, 1), BuildingBlock: KIFKEQ_clean_linker_1, # of connection points: 2
#     Edge 59, Type (0, 1), BuildingBlock: KIFKEQ_clean_linker_1, # of connection points: 2
#     Edge 60, Type (0, 1), BuildingBlock: KIFKEQ_clean_linker_1, # of connection points: 2
#     Edge 61, Type (0, 1), BuildingBlock: KIFKEQ_clean_linker_1, # of connection points: 2
#     Edge 62, Type (0, 1), BuildingBlock: KIFKEQ_clean_linker_1, # of connection points: 2
#     Edge 63, Type (0, 1), BuildingBlock: KIFKEQ_clean_linker_1, # of connection points: 2
#     Edge 64, Type (0, 1), BuildingBlock: KIFKEQ_clean_linker_1, # of connection points: 2
#     Edge 65, Type (0, 1), BuildingBlock: KIFKEQ_clean_linker_1, # of connection points: 2
#     Edge 66, Type (0, 1), BuildingBlock: KIFKEQ_clean_linker_1, # of connection points: 2
#     Edge 67, Type (0, 1), BuildingBlock: KIFKEQ_clean_linker_1, # of connection points: 2
#     Edge 68, Type (0, 1), BuildingBlock: KIFKEQ_clean_linker_1, # of connection points: 2
#     Edge 69, Type (0, 1), BuildingBlock: KIFKEQ_clean_linker_1, # of connection points: 2
#     Edge 70, Type (0, 1), BuildingBlock: KIFKEQ_clean_linker_1, # of connection points: 2
#     Edge 71, Type (0, 1), BuildingBlock: KIFKEQ_clean_linker_1, # of connection points: 2
#     Edge 72, Type (0, 1), BuildingBlock: KIFKEQ_clean_linker_1, # of connection points: 2
#     Edge 73, Type (0, 1), BuildingBlock: KIFKEQ_clean_linker_1, # of connection points: 2
#     Edge 74, Type (0, 1), BuildingBlock: KIFKEQ_clean_linker_1, # of connection points: 2
#     Edge 75, Type (0, 1), BuildingBlock: KIFKEQ_clean_linker_1, # of connection points: 2
#     Edge 76, Type (0, 1), BuildingBlock: KIFKEQ_clean_linker_1, # of connection points: 2
#     Edge 77, Type (0, 1), BuildingBlock: KIFKEQ_clean_linker_1, # of connection points: 2
#     Edge 78, Type (0, 1), BuildingBlock: KIFKEQ_clean_linker_1, # of connection points: 2
#     Edge 79, Type (0, 1), BuildingBlock: KIFKEQ_clean_linker_1, # of connection points: 2
#     Edge 80, Type (0, 1), BuildingBlock: KIFKEQ_clean_linker_1, # of connection points: 2
#     Edge 81, Type (0, 1), BuildingBlock: KIFKEQ_clean_linker_1, # of connection points: 2
#     Edge 82, Type (0, 1), BuildingBlock: KIFKEQ_clean_linker_1, # of connection points: 2
#     Edge 83, Type (0, 1), BuildingBlock: KIFKEQ_clean_linker_1, # of connection points: 2
#     Edge 84, Type (0, 1), BuildingBlock: KIFKEQ_clean_linker_1, # of connection points: 2
#     Edge 85, Type (0, 1), BuildingBlock: KIFKEQ_clean_linker_1, # of connection points: 2
#     Edge 86, Type (0, 1), BuildingBlock: KIFKEQ_clean_linker_1, # of connection points: 2
#     Edge 87, Type (0, 1), BuildingBlock: KIFKEQ_clean_linker_1, # of connection points: 2
#     Edge 88, Type (0, 1), BuildingBlock: KIFKEQ_clean_linker_1, # of connection points: 2
#     Edge 89, Type (0, 1), BuildingBlock: KIFKEQ_clean_linker_1, # of connection points: 2
#     Edge 90, Type (0, 1), BuildingBlock: KIFKEQ_clean_linker_1, # of connection points: 2
#     Edge 91, Type (0, 1), BuildingBlock: KIFKEQ_clean_linker_1, # of connection points: 2
#     Edge 92, Type (0, 1), BuildingBlock: KIFKEQ_clean_linker_1, # of connection points: 2
#     Edge 93, Type (0, 1), BuildingBlock: KIFKEQ_clean_linker_1, # of connection points: 2
#     Edge 94, Type (0, 1), BuildingBlock: KIFKEQ_clean_linker_1, # of connection points: 2
#     Edge 95, Type (0, 1), BuildingBlock: KIFKEQ_clean_linker_1, # of connection points: 2
#     Edge 96, Type (0, 1), BuildingBlock: KIFKEQ_clean_linker_1, # of connection points: 2
#     Edge 97, Type (0, 1), BuildingBlock: KIFKEQ_clean_linker_1, # of connection points: 2
#     Edge 98, Type (0, 1), BuildingBlock: KIFKEQ_clean_linker_1, # of connection points: 2
#     Edge 99, Type (0, 1), BuildingBlock: KIFKEQ_clean_linker_1, # of connection points: 2
#     Edge 100, Type (0, 1), BuildingBlock: KIFKEQ_clean_linker_1, # of connection points: 2
#     Edge 101, Type (0, 1), BuildingBlock: KIFKEQ_clean_linker_1, # of connection points: 2
#     Edge 102, Type (0, 1), BuildingBlock: KIFKEQ_clean_linker_1, # of connection points: 2
#     Edge 103, Type (0, 1), BuildingBlock: KIFKEQ_clean_linker_1, # of connection points: 2
#     Edge 104, Type (0, 1), BuildingBlock: KIFKEQ_clean_linker_1, # of connection points: 2
#     Edge 105, Type (0, 1), BuildingBlock: KIFKEQ_clean_linker_1, # of connection points: 2
#     Edge 106, Type (0, 1), BuildingBlock: KIFKEQ_clean_linker_1, # of connection points: 2
#     Edge 107, Type (0, 1), BuildingBlock: KIFKEQ_clean_linker_1, # of connection points: 2
#     Edge 108, Type (0, 1), BuildingBlock: KIFKEQ_clean_linker_1, # of connection points: 2
#     Edge 109, Type (0, 1), BuildingBlock: KIFKEQ_clean_linker_1, # of connection points: 2
#     Edge 110, Type (0, 1), BuildingBlock: KIFKEQ_clean_linker_1, # of connection points: 2
#     Edge 111, Type (0, 1), BuildingBlock: KIFKEQ_clean_linker_1, # of connection points: 2
#     Edge 112, Type (0, 1), BuildingBlock: KIFKEQ_clean_linker_1, # of connection points: 2
#     Edge 113, Type (0, 1), BuildingBlock: KIFKEQ_clean_linker_1, # of connection points: 2
#     Edge 114, Type (0, 1), BuildingBlock: KIFKEQ_clean_linker_1, # of connection points: 2
#     Edge 115, Type (0, 1), BuildingBlock: KIFKEQ_clean_linker_1, # of connection points: 2
#     Edge 116, Type (0, 1), BuildingBlock: KIFKEQ_clean_linker_1, # of connection points: 2
#     Edge 117, Type (0, 1), BuildingBlock: KIFKEQ_clean_linker_1, # of connection points: 2
#     Edge 118, Type (0, 1), BuildingBlock: KIFKEQ_clean_linker_1, # of connection points: 2
#     Edge 119, Type (0, 1), BuildingBlock: KIFKEQ_clean_linker_1, # of connection points: 2
#     Edge 120, Type (0, 1), BuildingBlock: KIFKEQ_clean_linker_1, # of connection points: 2
#     Edge 121, Type (0, 1), BuildingBlock: KIFKEQ_clean_linker_1, # of connection points: 2
#     Edge 122, Type (0, 1), BuildingBlock: KIFKEQ_clean_linker_1, # of connection points: 2
#     Edge 123, Type (0, 1), BuildingBlock: KIFKEQ_clean_linker_1, # of connection points: 2
#     Edge 124, Type (0, 1), BuildingBlock: KIFKEQ_clean_linker_1, # of connection points: 2
#     Edge 125, Type (0, 1), BuildingBlock: KIFKEQ_clean_linker_1, # of connection points: 2
#     Edge 126, Type (0, 1), BuildingBlock: KIFKEQ_clean_linker_1, # of connection points: 2
#     Edge 127, Type (0, 1), BuildingBlock: KIFKEQ_clean_linker_1, # of connection points: 2
#     Edge 128, Type (0, 1), BuildingBlock: KIFKEQ_clean_linker_1, # of connection points: 2
#     Edge 129, Type (0, 1), BuildingBlock: KIFKEQ_clean_linker_1, # of connection points: 2
#     Edge 130, Type (0, 1), BuildingBlock: KIFKEQ_clean_linker_1, # of connection points: 2
#     Edge 131, Type (0, 1), BuildingBlock: KIFKEQ_clean_linker_1, # of connection points: 2
#     Edge 132, Type (0, 1), BuildingBlock: KIFKEQ_clean_linker_1, # of connection points: 2
#     Edge 133, Type (0, 1), BuildingBlock: KIFKEQ_clean_linker_1, # of connection points: 2
#     Edge 134, Type (0, 1), BuildingBlock: KIFKEQ_clean_linker_1, # of connection points: 2
#     Edge 135, Type (0, 1), BuildingBlock: KIFKEQ_clean_linker_1, # of connection points: 2
# Relax obj value: 0.156
# Max RMSD: 0.262
# Mean RMSD: 0.181
data_MOF--net-gar--node1-NAHDIM_clean_sbu_0--node2-PAMTOO_clean_sbu_0--edge1-KIFKEQ_clean_linker_1
_symmetry_space_group_name_H-M    P1
_symmetry_Int_Tables_number       1
_symmetry_cell_setting            triclinic
loop_
_symmetry_equiv_pos_as_xyz
'x, y, z'
_cell_length_a     62.052672
_cell_length_b     61.346019
_cell_length_c     58.000107
_cell_angle_alpha  96.343497
_cell_angle_beta   96.348425
_cell_angle_gamma 103.24156
loop_
_atom_site_label
_atom_site_type_symbol
_atom_site_fract_x
_atom_site_fract_y
_atom_site_fract_z
_atom_type_partial_charge
C0 C 0.09412 0.32079 0.34909 0.0
O1 O 0.09783 0.33023 0.37108 0.0
O2 O 0.04059 0.28989 0.37758 0.0
Zn3 Zn 0.04466 0.3166 0.35782 0.0
O4 O 0.0506 0.34759 0.38053 0.0
C5 C 0.99397 0.3021 0.34391 0.0
O6 O 0.99616 0.2919 0.36248 0.0
O7 O 0.07352 0.31436 0.33919 0.0
C8 C 0.03727 0.35011 0.39544 0.0
O9 O 0.02074 0.33274 0.3967 0.0
C10 C 0.05135 0.29008 0.39771 0.0
O11 O 0.06638 0.30854 0.40736 0.0
O12 O 0.01204 0.31311 0.33727 0.0
C13 C 0.9733 0.74959 0.70814 0.0
O14 O 0.96906 0.73602 0.68814 0.0
O15 O 0.01696 0.72276 0.67695 0.0
Zn16 Zn 0.02215 0.75516 0.69699 0.0
O17 O 0.02246 0.77881 0.67389 0.0
C18 C 0.06695 0.74963 0.72328 0.0
O19 O 0.05595 0.7285 0.72267 0.0
O20 O 0.99407 0.75876 0.71626 0.0
C21 C 0.03988 0.78828 0.66553 0.0
O22 O 0.05858 0.78225 0.67102 0.0
C23 C 0.03302 0.71734 0.66736 0.0
O24 O 0.05221 0.73246 0.66995 0.0
O25 O 0.0561 0.7635 0.71551 0.0
C26 C 0.59924 0.82178 0.84894 0.0
O27 O 0.60281 0.83062 0.87112 0.0
O28 O 0.54537 0.79108 0.87712 0.0
Zn29 Zn 0.54983 0.81785 0.85739 0.0
O30 O 0.5554 0.84875 0.87997 0.0
C31 C 0.49953 0.8014 0.8409 0.0
O32 O 0.50159 0.78777 0.85649 0.0
O33 O 0.57871 0.81576 0.83883 0.0
C34 C 0.54043 0.85158 0.89277 0.0
O35 O 0.52292 0.83461 0.89195 0.0
C36 C 0.5564 0.79065 0.89694 0.0
O37 O 0.57222 0.80856 0.90643 0.0
O38 O 0.51749 0.81494 0.83687 0.0
C39 C 0.46756 0.25419 0.20123 0.0
O40 O 0.46519 0.2509 0.17822 0.0
O41 O 0.51046 0.22006 0.17291 0.0
Zn42 Zn 0.51575 0.25234 0.19316 0.0
O43 O 0.5177 0.27649 0.17035 0.0
C44 C 0.56577 0.25907 0.20116 0.0
O45 O 0.5614 0.25767 0.17829 0.0
O46 O 0.48716 0.2551 0.2122 0.0
C47 C 0.52823 0.29713 0.17676 0.0
O48 O 0.53814 0.30319 0.19849 0.0
C49 C 0.51459 0.21763 0.15172 0.0
O50 O 0.52085 0.23591 0.14187 0.0
O51 O 0.54907 0.25781 0.21281 0.0
C52 C 0.01574 0.78299 0.12417 0.0
O53 O 0.01064 0.77152 0.10298 0.0
O54 O 0.05364 0.76108 0.09162 0.0
Zn55 Zn 0.06002 0.79553 0.10849 0.0
O56 O 0.0568 0.8232 0.08832 0.0
C57 C 0.108 0.79486 0.12432 0.0
O58 O 0.10744 0.78722 0.10215 0.0
O59 O 0.03579 0.79468 0.13065 0.0
C60 C 0.06609 0.84427 0.09577 0.0
O61 O 0.0797 0.84903 0.11566 0.0
C62 C 0.06087 0.75154 0.07422 0.0
O63 O 0.07352 0.76444 0.06182 0.0
O64 O 0.09078 0.80077 0.13066 0.0
C65 C 0.53965 0.78029 0.41819 0.0
O66 O 0.54483 0.79267 0.43892 0.0
O67 O 0.4998 0.73888 0.45497 0.0
Zn68 Zn 0.49588 0.7665 0.43518 0.0
O69 O 0.50279 0.80085 0.45297 0.0
C70 C 0.44853 0.76878 0.41726 0.0
O71 O 0.45045 0.78164 0.4374 0.0
O72 O 0.51985 0.76769 0.41256 0.0
C73 C 0.4947 0.81015 0.46986 0.0
O74 O 0.48034 0.79708 0.48055 0.0
C75 C 0.48642 0.71901 0.45255 0.0
O76 O 0.46753 0.71527 0.43837 0.0
O77 O 0.46475 0.75993 0.41303 0.0
C78 C 0.51551 0.2866 0.62217 0.0
O79 O 0.50926 0.28074 0.59951 0.0
O80 O 0.55635 0.26363 0.58748 0.0
Zn81 Zn 0.56074 0.29652 0.60765 0.0
O82 O 0.55729 0.32504 0.58895 0.0
C83 C 0.60704 0.29274 0.62433 0.0
O84 O 0.60433 0.28079 0.60352 0.0
O85 O 0.53636 0.29372 0.62973 0.0
C86 C 0.56716 0.34595 0.59644 0.0
O87 O 0.5815 0.35027 0.61579 0.0
C88 C 0.549 0.24563 0.5966 0.0
O89 O 0.54323 0.24812 0.61767 0.0
O90 O 0.59148 0.30214 0.62968 0.0
C91 C 0.04192 0.28058 0.91926 0.0
O92 O 0.0462 0.29407 0.9393 0.0
O93 O 0.99494 0.23585 0.95147 0.0
Zn94 Zn 0.99705 0.2664 0.93445 0.0
O95 O 0.0047 0.29957 0.95513 0.0
C96 C 0.94742 0.25885 0.91502 0.0
O97 O 0.94358 0.25295 0.93557 0.0
O98 O 0.02247 0.26726 0.91358 0.0
C99 C 0.99069 0.31203 0.95706 0.0
O100 O 0.96972 0.30315 0.94812 0.0
C101 C 0.01187 0.22911 0.96037 0.0
O102 O 0.03185 0.24239 0.9609 0.0
O103 O 0.96771 0.2642 0.91097 0.0
C104 C 0.36615 0.06294 0.28576 0.0
O105 O 0.38689 0.06798 0.28137 0.0
O106 O 0.39984 0.02512 0.278 0.0
Zn107 Zn 0.37897 0.02486 0.30202 0.0
O108 O 0.39698 0.03215 0.33388 0.0
C109 C 0.35408 0.98265 0.27754 0.0
O110 O 0.3606 -0.00751 0.25964 0.0
O111 O 0.35939 0.04576 0.29576 0.0
C112 C 0.41211 0.0214 0.33652 0.0
O113 O 0.41392 0.00644 0.31926 0.0
C114 C 0.41976 0.03706 0.28002 0.0
O115 O 0.42811 0.05172 0.29896 0.0
O116 O 0.35965 -0.00646 0.29809 0.0
C117 C 0.31087 0.16824 0.5293 0.0
O118 O 0.31491 0.18752 0.54327 0.0
O119 O 0.27009 0.19968 0.54371 0.0
Zn120 Zn 0.26974 0.18116 0.51132 0.0
O121 O 0.27541 0.1989 0.48299 0.0
C122 C 0.22248 0.16392 0.51242 0.0
O123 O 0.22526 0.18438 0.52368 0.0
O124 O 0.29305 0.16236 0.51456 0.0
C125 C 0.26139 0.20762 0.47178 0.0
O126 O 0.24211 0.20707 0.47935 0.0
C127 C 0.28044 0.21969 0.55301 0.0
O128 O 0.29369 0.23243 0.54099 0.0
O129 O 0.23911 0.15855 0.50432 0.0
C130 C 0.14592 0.00201 0.79203 0.0
O131 O 0.12907 -0.0037 0.80381 0.0
O132 O 0.11092 0.04114 0.75539 0.0
Zn133 Zn 0.1299 0.04362 0.78776 0.0
O134 O 0.11311 0.03796 0.81657 0.0
C135 C 0.14696 0.09221 0.7874 0.0
O136 O 0.12622 0.09087 0.77849 0.0
O137 O 0.1491 0.02078 0.78393 0.0
C138 C 0.10511 0.05235 0.82829 0.0
O139 O 0.106 0.07206 0.82111 0.0
C140 C 0.09281 0.04674 0.74903 0.0
O141 O 0.08211 0.05465 0.76507 0.0
O142 O 0.15212 0.07454 0.79349 0.0
C143 C 0.24473 0.93169 0.03411 0.0
O144 O 0.23948 0.91058 0.03808 0.0
O145 O 0.2825 0.89553 0.03106 0.0
Zn146 Zn 0.27836 0.9178 0.00935 0.0
O147 O 0.26446 0.90038 0.97797 0.0
C148 C 0.32294 0.92976 -0.0027 0.0
O149 O 0.31705 0.90945 0.98509 0.0
O150 O 0.26014 0.93797 0.02187 0.0
C151 C 0.26415 0.90836 0.95872 0.0
O152 O 0.2719 0.93019 0.95885 0.0
C153 C 0.28469 0.87619 0.02286 0.0
O154 O 0.28344 0.8708 0.00012 0.0
O155 O 0.30879 0.93703 0.00821 0.0
C156 C 0.25234 0.3926 0.02347 0.0
O157 O 0.24719 0.37281 0.01024 0.0
O158 O 0.29569 0.36542 0.06509 0.0
Zn159 Zn 0.2957 0.38166 0.03555 0.0
O160 O 0.29146 0.3623 0.00302 0.0
C161 C 0.34366 0.40004 0.03625 0.0
O162 O 0.3437 0.37852 0.03291 0.0
O163 O 0.27157 0.39937 0.03571 0.0
C164 C 0.29828 0.34481 -0.00356 0.0
O165 O 0.30867 0.33553 0.01217 0.0
C166 C 0.28017 0.34948 0.06953 0.0
O167 O 0.26278 0.34069 0.05344 0.0
O168 O 0.32526 0.4054 0.03832 0.0
C169 C 0.80055 0.11281 0.01225 0.0
O170 O 0.78623 0.11928 -0.00225 0.0
O171 O 0.79331 0.15525 0.07724 0.0
Zn172 Zn 0.78187 0.13795 0.04516 0.0
O173 O 0.77912 0.1602 0.023 0.0
C174 C 0.73886 0.12231 0.05988 0.0
O175 O 0.7466 0.1396 0.07653 0.0
O176 O 0.80202 0.11901 0.03414 0.0
C177 C 0.76561 0.17279 0.02524 0.0
O178 O 0.75336 0.17109 0.04233 0.0
C179 C 0.80533 0.17541 0.08025 0.0
O180 O 0.81235 0.18442 0.06208 0.0
O181 O 0.75127 0.11796 0.04486 0.0
C182 C 0.16967 0.48626 0.28463 0.0
O183 O 0.1488 0.47965 0.28826 0.0
O184 O 0.14065 0.50912 0.22656 0.0
Zn185 Zn 0.15419 0.51983 0.26017 0.0
O186 O 0.12975 0.5196 0.2799 0.0
C187 C 0.18393 0.55944 0.24829 0.0
O188 O 0.18526 0.54571 0.22972 0.0
O189 O 0.17511 0.50211 0.27245 0.0
C190 C 0.11762 0.53341 0.27681 0.0
O191 O 0.12157 0.54699 0.26093 0.0
C192 C 0.12055 0.49752 0.22121 0.0
O193 O 0.10917 0.49055 0.23791 0.0
O194 O 0.17169 0.55196 0.26322 0.0
C195 C 0.75255 0.89593 0.53695 0.0
O196 O 0.74891 0.87982 0.55023 0.0
O197 O 0.79125 0.8647 0.56058 0.0
Zn198 Zn 0.79513 0.88263 0.53211 0.0
O199 O 0.79564 0.86327 0.50073 0.0
C200 C 0.84346 0.90374 0.5457 0.0
O201 O 0.84425 0.88417 0.5525 0.0
O202 O 0.77046 0.89957 0.52761 0.0
C203 C 0.77927 0.84864 0.48846 0.0
O204 O 0.76008 0.84377 0.49664 0.0
C205 C 0.79962 0.87439 0.58133 0.0
O206 O 0.81091 0.89564 0.5842 0.0
O207 O 0.82469 0.9068 0.5374 0.0
C208 C 0.90205 0.04975 0.25094 0.0
O209 O 0.89968 0.03823 0.22995 0.0
O210 O 0.94647 0.02054 0.23364 0.0
Zn211 Zn 0.93087 0.0196 0.26368 0.0
O212 O 0.95255 0.02225 0.29433 0.0
C213 C 0.9009 0.97433 0.24361 0.0
O214 O 0.90965 0.97734 0.22424 0.0
O215 O 0.91464 0.04503 0.26756 0.0
C216 C 0.94413 0.01406 0.31159 0.0
O217 O 0.9226 0.00455 0.30878 0.0
C218 C 0.95427 0.03866 0.22524 0.0
O219 O 0.95334 0.0581 0.23662 0.0
O220 O 0.9073 0.98965 0.26131 0.0
C221 C 0.31933 0.62661 0.52651 0.0
O222 O 0.32385 0.64784 0.52285 0.0
O223 O 0.30147 0.66185 0.58046 0.0
Zn224 Zn 0.28643 0.64039 0.55127 0.0
O225 O 0.27924 0.65783 0.52555 0.0
C226 C 0.24315 0.63209 0.5645 0.0
O227 O 0.24874 0.65428 0.56897 0.0
O228 O 0.30462 0.61982 0.53941 0.0
C229 C 0.26182 0.6511 0.51047 0.0
O230 O 0.24802 0.63146 0.51094 0.0
C231 C 0.30263 0.68287 0.58091 0.0
O232 O 0.29584 0.69033 0.56172 0.0
O233 O 0.25738 0.62184 0.55761 0.0
C234 C 0.41907 0.56582 0.76639 0.0
O235 O 0.43729 0.57188 0.75669 0.0
O236 O 0.44285 0.52283 0.73306 0.0
Zn237 Zn 0.42907 0.52036 0.76412 0.0
O238 O 0.45012 0.51873 0.79384 0.0
C239 C 0.40788 0.47222 0.75144 0.0
O240 O 0.4274 0.47176 0.74487 0.0
O241 O 0.41316 0.54564 0.77091 0.0
C242 C 0.46345 0.53548 0.8071 0.0
O243 O 0.46596 0.55573 0.80079 0.0
C244 C 0.46265 0.53263 0.73012 0.0
O245 O 0.47723 0.5425 0.74861 0.0
O246 O 0.4046 0.4911 0.75965 0.0
C247 C 0.68408 -0.00709 0.77963 0.0
O248 O 0.6629 0.98659 0.78229 0.0
O249 O 0.65102 0.01104 0.72361 0.0
Zn250 Zn 0.66873 0.02546 0.75481 0.0
O251 O 0.64838 0.02962 0.77823 0.0
C252 C 0.7011 0.06419 0.74159 0.0
O253 O 0.70896 0.04975 0.72855 0.0
O254 O 0.69028 0.00861 0.76749 0.0
C255 C 0.63615 0.04334 0.77512 0.0
O256 O 0.63606 0.0528 0.75587 0.0
C257 C 0.63056 0.00054 0.72167 0.0
O258 O 0.62126 -0.00281 0.74066 0.0
O259 O 0.68513 0.057 0.75283 0.0
C260 C 0.81328 0.6696 0.01321 0.0
O261 O 0.82098 0.6915 0.01386 0.0
O262 O 0.77344 0.70136 0.0403 0.0
Zn263 Zn 0.76875 0.68001 0.00896 0.0
O264 O 0.76945 0.69483 0.97836 0.0
C265 C 0.72044 0.65926 -0.00322 0.0
O266 O 0.72044 0.6769 0.98583 0.0
O267 O 0.79223 0.66144 0.01101 0.0
C268 C 0.78313 0.71286 0.97517 0.0
O269 O 0.79787 0.7243 0.99291 0.0
C270 C 0.75969 0.71238 0.04732 0.0
O271 O 0.74177 0.71233 0.03293 0.0
O272 O 0.7388 0.65723 0.00739 0.0
C273 C 0.85634 0.55493 0.80519 0.0
O274 O 0.85624 0.54897 0.82626 0.0
O275 O 0.908 0.52407 0.77731 0.0
Zn276 Zn 0.8901 0.53017 0.80261 0.0
O277 O 0.91049 0.54428 0.83222 0.0
C278 C 0.85442 0.49068 0.79297 0.0
O279 O 0.8479 0.50151 0.77624 0.0
O280 O 0.87 0.54934 0.79232 0.0
C281 C 0.93093 0.55403 0.83239 0.0
O282 O 0.93876 0.55646 0.81245 0.0
C283 C 0.91924 0.50927 0.77896 0.0
O284 O 0.91907 0.49871 0.79748 0.0
O285 O 0.87187 0.50019 0.80733 0.0
C286 C 0.75136 0.43666 0.53227 0.0
O287 O 0.75125 0.41884 0.54293 0.0
O288 O 0.78347 0.39692 0.52937 0.0
Zn289 Zn 0.78491 0.42142 0.50891 0.0
O290 O 0.77832 0.4065 0.4756 0.0
C291 C 0.82984 0.44091 0.53186 0.0
O292 O 0.82323 0.42839 0.54793 0.0
O293 O 0.764 0.44073 0.51666 0.0
C294 C 0.78922 0.39167 0.47135 0.0
O295 O 0.80363 0.3883 0.48813 0.0
C296 C 0.77028 0.37735 0.5244 0.0
O297 O 0.75551 0.37262 0.50537 0.0
O298 O 0.81614 0.44088 0.51388 0.0
C299 C 0.65882 0.51768 0.27248 0.0
O300 O 0.66213 0.53332 0.2586 0.0
O301 O 0.61025 0.54033 0.25427 0.0
Zn302 Zn 0.62798 0.54346 0.28747 0.0
O303 O 0.60899 0.54103 0.31494 0.0
C304 C 0.64668 0.5905 0.2836 0.0
O305 O 0.62635 0.58809 0.27282 0.0
O306 O 0.64477 0.51834 0.28683 0.0
C307 C 0.61919 0.54716 0.33587 0.0
O308 O 0.64097 0.55532 0.33879 0.0
C309 C 0.59174 0.54508 0.24768 0.0
O310 O 0.58043 0.55214 0.26359 0.0
O311 O 0.65148 0.57381 0.29243 0.0
Dy312 Dy 0.05267 0.04544 0.03838 0.0
Dy313 Dy 0.00396 0.01902 0.01204 0.0
C314 C 0.04508 0.03043 0.98319 0.0
O315 O 0.04097 0.07279 0.02112 0.0
O316 O 0.00336 0.05638 0.01238 0.0
O317 O 0.08672 0.06421 0.03827 0.0
O318 O 0.07467 0.05765 0.07101 0.0
O319 O 0.00304 0.01886 0.05054 0.0
O320 O 0.02829 0.05228 0.06254 0.0
O321 O 0.0207 0.9902 0.0181 0.0
O322 O 0.04913 0.00955 0.04676 0.0
O323 O 0.96888 0.00769 0.01381 0.0
O324 O 0.98177 -0.00104 0.98176 0.0
C325 C 0.02051 0.07419 0.01367 0.0
O326 O 0.05825 0.03076 0.0027 0.0
O327 O 0.02393 0.03 0.98372 0.0
C328 C 0.11146 0.0555 0.06729 0.0
C329 C 0.14801 0.03582 0.07333 0.0
C330 C 0.12642 0.02348 0.07537 0.0
C331 C 0.10829 0.0332 0.07229 0.0
C332 C 0.13309 0.06826 0.06637 0.0
C333 C 0.15128 0.05849 0.06937 0.0
C334 C 0.0921 0.06456 0.06069 0.0
C335 C 0.01179 0.03626 0.06671 0.0
C336 C 0.03673 0.99018 0.03517 0.0
C337 C 0.94569 0.00593 0.97908 0.0
C338 C 0.90778 0.02226 0.96724 0.0
C339 C 0.92929 0.03689 0.97051 0.0
C340 C 0.94812 0.02876 0.97639 0.0
C341 C 0.92458 0.99089 0.97362 0.0
C342 C 0.90572 -0.00103 0.96757 0.0
C343 C 0.96398 -0.0012 0.99185 0.0
H344 H 0.12329 0.00588 0.07801 0.0
H345 H 0.0917 0.02296 0.07286 0.0
H346 H 0.1358 0.08546 0.06245 0.0
H347 H 0.16779 0.0684 0.06784 0.0
H348 H 0.93151 0.05493 0.97058 0.0
H349 H 0.96435 0.0406 0.98065 0.0
H350 H 0.92246 0.97321 0.97565 0.0
H351 H 0.88941 0.98724 0.96473 0.0
Dy352 Dy 0.28862 0.76462 0.24604 0.0
Dy353 Dy 0.26278 0.77601 0.28976 0.0
C354 C 0.29222 0.81527 0.26718 0.0
O355 O 0.31477 0.77156 0.27797 0.0
O356 O 0.29152 0.76286 0.30536 0.0
O357 O 0.31673 0.77202 0.22687 0.0
O358 O 0.29002 0.74174 0.21559 0.0
O359 O 0.24804 0.73987 0.27507 0.0
O360 O 0.27885 0.73259 0.26112 0.0
O361 O 0.24432 0.78715 0.25939 0.0
O362 O 0.25344 0.76422 0.23005 0.0
O363 O 0.23198 0.77259 0.30462 0.0
O364 O 0.26314 0.79198 0.32493 0.0
C365 C 0.31169 0.76652 0.29905 0.0
O366 O 0.28969 0.80135 0.24769 0.0
O367 O 0.28696 0.80803 0.28672 0.0
C368 C 0.30674 0.76053 0.18652 0.0
C369 C 0.30587 0.77604 0.14277 0.0
C370 C 0.28648 0.77189 0.15364 0.0
C371 C 0.28694 0.76433 0.17542 0.0
C372 C 0.32589 0.7638 0.17536 0.0
C373 C 0.32549 0.77158 0.15361 0.0
C374 C 0.30799 0.75497 0.21045 0.0
C375 C 0.25936 0.72551 0.26789 0.0
C376 C 0.24056 0.77715 0.23755 0.0
C377 C 0.23874 0.76784 0.34388 0.0
C378 C 0.23802 0.74229 0.38107 0.0
C379 C 0.24375 0.73412 0.35961 0.0
C380 C 0.24412 0.7468 0.34118 0.0
C381 C 0.23208 0.77569 0.3649 0.0
C382 C 0.23159 0.76287 0.38344 0.0
C383 C 0.24228 0.78204 0.32537 0.0
H384 H 0.27125 0.7756 0.14589 0.0
H385 H 0.27204 0.76218 0.18392 0.0
H386 H 0.34132 0.76103 0.18379 0.0
H387 H 0.34064 0.77464 0.14554 0.0
H388 H 0.24854 0.71819 0.35732 0.0
H389 H 0.24939 0.74055 0.32506 0.0
H390 H 0.22802 0.79199 0.36722 0.0
H391 H 0.22724 0.76949 0.39992 0.0
Dy392 Dy 0.5061 0.02712 0.53807 0.0
Dy393 Dy 0.55575 0.03356 0.52082 0.0
C394 C 0.51362 0.03752 0.48726 0.0
O395 O 0.50612 -0.00757 0.51943 0.0
O396 O 0.54397 -0.00409 0.52139 0.0
O397 O 0.47025 0.01558 0.52933 0.0
O398 O 0.48472 0.03335 0.56393 0.0
O399 O 0.56014 0.03371 0.5594 0.0
O400 O 0.52579 0.013 0.56465 0.0
O401 O 0.55015 0.06919 0.52574 0.0
O402 O 0.52544 0.06293 0.55231 0.0
O403 O 0.5916 0.04727 0.5278 0.0
O404 O 0.57674 0.02618 0.49507 0.0
C405 C 0.52328 0.98324 0.5173 0.0
O406 O 0.50541 0.04381 0.50597 0.0
O407 O 0.5309 0.02865 0.48875 0.0
C408 C 0.45083 0.04034 0.54708 0.0
C409 C 0.42034 0.06825 0.54312 0.0
C410 C 0.43718 0.06932 0.52857 0.0
C411 C 0.4523 0.05558 0.53059 0.0
C412 C 0.43418 0.03929 0.56171 0.0
C413 C 0.41912 0.05312 0.55979 0.0
C414 C 0.46645 0.02547 0.54905 0.0
C415 C 0.54729 0.02091 0.57165 0.0
C416 C 0.53934 0.07706 0.54195 0.0
C417 C 0.61158 0.02203 0.51207 0.0
C418 C 0.64239 -0.00539 0.51718 0.0
C419 C 0.62277 0.99047 0.52781 0.0
C420 C 0.60754 0.00403 0.52528 0.0
C421 C 0.63109 0.02632 0.50151 0.0
C422 C 0.64636 0.01278 0.50404 0.0
C423 C 0.59526 0.03598 0.50886 0.0
H424 H 0.43885 0.08098 0.51578 0.0
H425 H 0.46513 0.05682 0.51922 0.0
H426 H 0.43275 0.02767 0.57455 0.0
H427 H 0.40626 0.05167 0.57113 0.0
H428 H 0.61926 0.97688 0.53831 0.0
H429 H 0.59255 0.00043 0.53359 0.0
H430 H 0.63445 0.04005 0.49115 0.0
H431 H 0.66109 0.01632 0.49535 0.0
Dy432 Dy 0.30454 0.27239 0.77512 0.0
Dy433 Dy 0.25662 0.28912 0.77096 0.0
C434 C 0.30321 0.32337 0.76709 0.0
O435 O 0.29797 0.27786 0.81259 0.0
O436 O 0.2736 0.30089 0.80782 0.0
O437 O 0.33978 0.27711 0.78759 0.0
O438 O 0.32241 0.24804 0.76241 0.0
O439 O 0.25133 0.25823 0.78846 0.0
O440 O 0.27648 0.24121 0.77269 0.0
O441 O 0.25841 0.27118 0.73514 0.0
O442 O 0.29649 0.27798 0.73812 0.0
O443 O 0.22089 0.28015 0.75995 0.0
O444 O 0.2369 0.3134 0.77872 0.0
C445 C 0.28681 0.29203 0.82133 0.0
O446 O 0.31362 0.30996 0.77754 0.0
O447 O 0.28153 0.31732 0.75959 0.0
C448 C 0.36032 0.26384 0.75874 0.0
C449 C 0.39508 0.26978 0.73007 0.0
C450 C 0.38553 0.28779 0.73706 0.0
C451 C 0.36829 0.28483 0.75112 0.0
C452 C 0.36992 0.24594 0.75196 0.0
C453 C 0.38701 0.24883 0.73781 0.0
C454 C 0.34176 0.25999 0.77318 0.0
C455 C 0.25813 0.24002 0.78239 0.0
C456 C 0.27673 0.27196 0.72535 0.0
C457 C 0.20012 0.29663 0.78611 0.0
C458 C 0.16521 0.29227 0.81464 0.0
C459 C 0.17947 0.27736 0.81461 0.0
C460 C 0.19674 0.27956 0.8006 0.0
C461 C 0.18602 0.31154 0.78612 0.0
C462 C 0.16883 0.30944 0.8002 0.0
C463 C 0.21793 0.29888 0.77067 0.0
H464 H 0.39106 0.30408 0.73126 0.0
H465 H 0.36107 0.29891 0.75586 0.0
H466 H 0.36409 0.22959 0.75756 0.0
H467 H 0.39406 0.23464 0.7331 0.0
H468 H 0.17749 0.26413 0.82568 0.0
H469 H 0.20745 0.2679 0.80106 0.0
H470 H 0.1882 0.3248 0.77508 0.0
H471 H 0.15813 0.32109 0.79946 0.0
Dy472 Dy 0.04027 0.01022 0.5243 0.0
Dy473 Dy 0.02355 0.05895 0.52784 0.0
C474 C 0.99138 0.01192 0.53557 0.0
O475 O 0.02134 0.01078 0.48899 0.0
O476 O 0.02642 0.04913 0.49019 0.0
O477 O 0.03207 0.97402 0.51377 0.0
O478 O 0.06475 0.99092 0.53256 0.0
O479 O 0.06038 0.06797 0.52772 0.0
O480 O 0.06734 0.03477 0.51107 0.0
O481 O 0.02917 0.05222 0.56537 0.0
O482 O 0.05254 0.02826 0.56061 0.0
O483 O 0.02858 0.09453 0.54108 0.0
O484 O 1.00033 0.07783 0.51498 0.0
C485 C 0.02072 0.02863 0.47844 0.0
O486 O 0.00925 0.00454 0.54111 0.0
O487 O 0.99262 0.03103 0.52684 0.0
C488 C 0.04906 0.95354 0.54006 0.0
C489 C 0.04598 0.9181 0.56832 0.0
C490 C 0.02887 0.92966 0.5657 0.0
C491 C 0.03044 0.94722 0.55185 0.0
C492 C 0.06618 0.94214 0.54273 0.0
C493 C 0.06472 0.9247 0.55669 0.0
C494 C 0.05074 0.97152 0.52461 0.0
C495 C 0.07318 0.05689 0.5172 0.0
C496 C 0.04345 0.04122 0.57414 0.0
C497 C 0.01658 0.11651 0.51313 0.0
C498 C 0.02424 0.15379 0.48724 0.0
C499 C 0.03265 0.13468 0.48139 0.0
C500 C 0.02889 0.11628 0.4942 0.0
C501 C 0.00816 0.13545 0.51901 0.0
C502 C 0.01193 0.15382 0.50628 0.0
C503 C 0.01198 0.0971 0.52662 0.0
H504 H 0.01434 0.92532 0.57459 0.0
H505 H 0.01705 0.95582 0.5503 0.0
H506 H 0.08069 0.94661 0.53382 0.0
H507 H 0.07812 0.91609 0.55801 0.0
H508 H 0.04242 0.13402 0.46709 0.0
H509 H 0.03559 0.10187 0.48931 0.0
H510 H 0.99851 0.13599 0.53343 0.0
H511 H 0.00485 0.16794 0.51118 0.0
Dy512 Dy 0.28967 0.81118 0.76796 0.0
Dy513 Dy 0.28204 0.76184 0.78745 0.0
C514 C 0.27961 0.80586 0.81919 0.0
O515 O 0.32494 0.80583 0.77315 0.0
O516 O 0.31861 0.7797 0.79872 0.0
O517 O 0.30319 0.84744 0.77472 0.0
O518 O 0.28145 0.83231 0.7425 0.0
O519 O 0.29588 0.75686 0.75405 0.0
O520 O 0.29053 0.7874 0.73642 0.0
O521 O 0.24773 0.76135 0.76886 0.0
O522 O 0.25221 0.79951 0.7688 0.0
O523 O 0.26962 0.72548 0.78192 0.0
O524 O 0.28825 0.74241 0.81534 0.0
C525 C 0.3326 0.79401 0.78856 0.0
O526 O 0.29397 0.81621 0.80673 0.0
O527 O 0.26931 0.78451 0.81277 0.0
C528 C 0.2771 0.86704 0.76047 0.0
C529 C 0.249 0.89694 0.76743 0.0
C530 C 0.24587 0.87682 0.77759 0.0
C531 C 0.25977 0.86206 0.77416 0.0
C532 C 0.28043 0.8871 0.75042 0.0
C533 C 0.26656 0.90194 0.75389 0.0
C534 C 0.29123 0.85106 0.75625 0.0
C535 C 0.29534 0.76762 0.73576 0.0
C536 C 0.23913 0.77885 0.76597 0.0
C537 C 0.29489 0.70743 0.80047 0.0
C538 C 0.3225 0.67673 0.79539 0.0
C539 C 0.32915 0.69879 0.78966 0.0
C540 C 0.31549 0.71394 0.79214 0.0
C541 C 0.28822 0.6856 0.80642 0.0
C542 C 0.30187 0.67039 0.80392 0.0
C543 C 0.28002 0.72306 0.80193 0.0
H544 H 0.23276 0.87255 0.78838 0.0
H545 H 0.25695 0.84668 0.78215 0.0
H546 H 0.29365 0.89119 0.73972 0.0
H547 H 0.26933 0.91712 0.7456 0.0
H548 H 0.34471 0.70422 0.78273 0.0
H549 H 0.32087 0.73068 0.78725 0.0
H550 H 0.27236 0.68023 0.81281 0.0
H551 H 0.2963 0.65369 0.80879 0.0
Dy552 Dy 0.52568 0.04628 0.00321 0.0
Dy553 Dy 0.53306 0.02104 0.04859 0.0
C554 C 0.53566 -0.00325 -0.00322 0.0
O555 O 0.49381 0.02098 0.00318 0.0
O556 O 0.49645 0.01916 0.04242 0.0
O557 O 0.51135 0.0462 0.96757 0.0
O558 O 0.53061 0.07746 0.98831 0.0
O559 O 0.53457 0.05728 0.06274 0.0
O560 O 0.51284 0.06529 0.03206 0.0
O561 O 0.56627 0.02956 0.0363 0.0
O562 O 0.56114 0.06024 0.01959 0.0
O563 O 0.55242 0.02053 0.08169 0.0
O564 O 0.52314 -0.00659 0.06826 0.0
C565 C 0.48458 0.01546 0.02159 0.0
O566 O 0.53913 0.01673 0.98941 0.0
O567 O 0.52968 -0.00575 0.01765 0.0
C568 C 0.53385 0.07216 0.94846 0.0
C569 C 0.55761 0.07803 0.91025 0.0
C570 C 0.56593 0.06874 0.92945 0.0
C571 C 0.55414 0.06584 0.9484 0.0
C572 C 0.52568 0.08194 0.92973 0.0
C573 C 0.5375 0.08487 0.91068 0.0
C574 C 0.52082 0.06747 0.96757 0.0
C575 C 0.52224 0.07009 0.05409 0.0
C576 C 0.57438 0.04874 0.0289 0.0
C577 C 0.52853 0.00724 0.10805 0.0
C578 C 0.50806 0.01425 0.14807 0.0
C579 C 0.50626 0.02734 0.1299 0.0
C580 C 0.51635 0.02382 0.11005 0.0
C581 C 0.53093 -0.00552 0.12633 0.0
C582 C 0.52078 -0.00199 0.14633 0.0
C583 C 0.53789 0.00318 0.08642 0.0
H584 H 0.58113 0.06288 0.92946 0.0
H585 H 0.56056 0.05812 0.96275 0.0
H586 H 0.50999 0.08688 0.92963 0.0
H587 H 0.53078 0.09217 0.89619 0.0
H588 H 0.49686 0.0402 0.13093 0.0
H589 H 0.51436 0.03382 0.09605 0.0
H590 H 0.54029 0.98161 0.12495 0.0
H591 H 0.52228 0.98763 0.16008 0.0
Dy592 Dy 0.26652 0.2617 0.2616 0.0
Dy593 Dy 0.29376 0.3105 0.28786 0.0
C594 C 0.28173 0.26876 0.31672 0.0
O595 O 0.2395 0.27454 0.27815 0.0
O596 O 0.25714 0.31216 0.28753 0.0
O597 O 0.24473 0.22863 0.26116 0.0
O598 O 0.25579 0.23904 0.22909 0.0
O599 O 0.29492 0.31065 0.24933 0.0
O600 O 0.26097 0.28679 0.23756 0.0
O601 O 0.32203 0.29351 0.28133 0.0
O602 O 0.3023 0.26365 0.25404 0.0
O603 O 0.30452 0.34611 0.28636 0.0
O604 O 0.31438 0.3327 0.31781 0.0
C605 C 0.23891 0.29544 0.2858 0.0
O606 O 0.28053 0.25525 0.29711 0.0
O607 O 0.283 0.29035 0.31632 0.0
C608 C 0.25281 0.20108 0.2346 0.0
C609 C 0.26834 0.16149 0.23343 0.0
C610 C 0.28214 0.1817 0.22891 0.0
C611 C 0.27449 0.20135 0.22961 0.0
C612 C 0.23853 0.18067 0.23775 0.0
C613 C 0.24626 0.16098 0.23722 0.0
C614 C 0.24598 0.2223 0.23926 0.0
C615 C 0.27767 0.30239 0.2331 0.0
C616 C 0.32169 0.27654 0.26493 0.0
C617 C 0.30523 0.36812 0.32163 0.0
C618 C 0.28323 0.40224 0.33293 0.0
C619 C 0.27272 0.37946 0.33355 0.0
C620 C 0.28367 0.36251 0.32792 0.0
C621 C 0.31664 0.39087 0.32343 0.0
C622 C 0.30576 0.40786 0.32923 0.0
C623 C 0.31348 0.35084 0.30828 0.0
H624 H 0.29935 0.18269 0.22633 0.0
H625 H 0.28592 0.21696 0.22738 0.0
H626 H 0.22178 0.1802 0.24169 0.0
H627 H 0.23529 0.14557 0.24067 0.0
H628 H 0.25536 0.3745 0.33618 0.0
H629 H 0.27459 0.34498 0.32651 0.0
H630 H 0.33327 0.39545 0.31854 0.0
H631 H 0.31441 0.4253 0.32905 0.0
Dy632 Dy 0.53871 0.51041 0.02265 0.0
Dy633 Dy 0.52339 0.55967 0.02735 0.0
C634 C 0.49035 0.5131 0.03377 0.0
O635 O 0.52119 0.51253 0.98685 0.0
O636 O 0.52782 0.55112 0.99008 0.0
O637 O 0.52894 0.47415 0.0122 0.0
O638 O 0.56216 0.48989 0.03028 0.0
O639 O 0.56044 0.56782 0.02863 0.0
O640 O 0.56661 0.53486 0.01047 0.0
O641 O 0.52841 0.55213 0.06459 0.0
O642 O 0.55152 0.52801 0.05912 0.0
O643 O 0.52907 0.59527 0.04067 0.0
O644 O 0.50048 0.57906 0.0148 0.0
C645 C 0.5216 0.53114 0.97728 0.0
O646 O 0.50814 0.50595 0.04015 0.0
O647 O 0.492 0.53185 0.02434 0.0
C648 C 0.54497 0.45324 0.03852 0.0
C649 C 0.53998 0.41872 0.06808 0.0
C650 C 0.52924 0.43658 0.07121 0.0
C651 C 0.53173 0.45361 0.05665 0.0
C652 C 0.55577 0.43559 0.03536 0.0
C653 C 0.55334 0.41858 0.04992 0.0
C654 C 0.54742 0.47086 0.02265 0.0
C655 C 0.57308 0.55682 0.0177 0.0
C656 C 0.54262 0.54088 0.073 0.0
C657 C 0.51758 0.61741 0.01249 0.0
C658 C 0.52601 0.65401 0.98573 0.0
C659 C 0.53979 0.63862 0.98631 0.0
C660 C 0.53559 0.62051 -0.00055 0.0
C661 C 0.50383 0.63265 0.01198 0.0
C662 C 0.50795 0.65068 -0.00119 0.0
C663 C 0.51261 0.5982 0.02625 0.0
H664 H 0.51859 0.43727 0.08471 0.0
H665 H 0.52319 0.46703 0.05946 0.0
H666 H 0.56614 0.43495 0.02157 0.0
H667 H 0.56222 0.40547 0.04708 0.0
H668 H 0.55367 0.64034 0.9763 0.0
H669 H 0.54634 0.60887 -0.00065 0.0
H670 H 0.48982 0.63062 0.02184 0.0
H671 H 0.49712 0.66223 -0.00084 0.0
Dy672 Dy 0.78434 0.30781 0.26294 0.0
Dy673 Dy 0.7768 0.25686 0.27918 0.0
C674 C 0.77464 0.29949 0.31376 0.0
O675 O 0.81883 0.30653 0.28061 0.0
O676 O 0.81408 0.26805 0.27864 0.0
O677 O 0.79631 0.34392 0.27295 0.0
O678 O 0.77924 0.33049 0.23788 0.0
O679 O 0.77993 0.25223 0.24138 0.0
O680 O 0.79702 0.28812 0.23497 0.0
O681 O 0.74165 0.26286 0.27346 0.0
O682 O 0.7483 0.28997 0.24907 0.0
O683 O 0.76132 0.22096 0.27282 0.0
O684 O 0.7846 0.23518 0.30431 0.0
C685 C 0.82726 0.2887 0.28254 0.0
O686 O 0.76828 0.30822 0.2954 0.0
O687 O 0.78282 0.28165 0.3116 0.0
C688 C 0.77305 0.36487 0.25533 0.0
C689 C 0.74647 0.39667 0.25928 0.0
C690 C 0.74358 0.37849 0.27243 0.0
C691 C 0.75668 0.36271 0.27042 0.0
C692 C 0.77595 0.38288 0.24215 0.0
C693 C 0.76281 0.3986 0.24407 0.0
C694 C 0.78721 0.34856 0.25328 0.0
C695 C 0.79136 0.26608 0.22895 0.0
C696 C 0.73412 0.27508 0.25839 0.0
C697 C 0.78617 0.19913 0.28631 0.0
C698 C 0.81182 0.16676 0.27884 0.0
C699 C 0.80244 0.17571 0.25989 0.0
C700 C 0.78986 0.19174 0.26358 0.0
C701 C 0.79532 0.19013 0.30522 0.0
C702 C 0.80802 0.1742 0.30157 0.0
C703 C 0.77362 0.21673 0.29073 0.0
H704 H 0.73101 0.37628 0.28408 0.0
H705 H 0.75405 0.34883 0.28066 0.0
H706 H 0.78849 0.38488 0.23043 0.0
H707 H 0.76571 0.4125 0.23388 0.0
H708 H 0.80464 0.17023 0.2421 0.0
H709 H 0.78312 0.1984 0.2486 0.0
H710 H 0.79288 0.19565 0.32293 0.0
H711 H 0.81521 0.16806 0.31668 0.0
Dy712 Dy 0.031 0.54505 0.5131 0.0
Dy713 Dy 0.0421 0.51947 0.55747 0.0
C714 C 0.03998 0.49523 0.5041 0.0
O715 O 1.00051 0.5183 0.51551 0.0
O716 O 0.00622 0.51971 0.55508 0.0
O717 O 0.00722 0.55317 0.48725 0.0
O718 O 0.0426 0.56809 0.48916 0.0
O719 O 0.04333 0.55527 0.5734 0.0
O720 O 0.02253 0.56614 0.54353 0.0
O721 O 0.07396 0.5303 0.54337 0.0
O722 O 0.06568 0.56159 0.53084 0.0
O723 O 0.061 0.51886 0.59091 0.0
O724 O 0.03557 0.48932 0.57399 0.0
C725 C 0.99274 0.5149 0.53526 0.0
O726 O 0.0421 0.51504 0.49658 0.0
O727 O 0.0364 0.49289 0.52578 0.0
C728 C 0.0216 0.5597 0.4521 0.0
C729 C 0.02716 0.55206 0.40472 0.0
C730 C 0.02793 0.53519 0.41917 0.0
C731 C 0.02514 0.53899 0.44268 0.0
C732 C 0.01949 0.57605 0.43754 0.0
C733 C 0.02215 0.57222 0.41396 0.0
C734 C 0.02279 0.56529 0.47744 0.0
C735 C 0.03203 0.56939 0.56551 0.0
C736 C 0.08044 0.55066 0.53796 0.0
C737 C 0.03775 0.49822 0.61422 0.0
C738 C 0.01246 0.49342 0.65134 0.0
C739 C 0.00935 0.50854 0.63551 0.0
C740 C 0.0219 0.51093 0.61712 0.0
C741 C 0.04142 0.48354 0.63028 0.0
C742 C 0.0289 0.48125 0.64892 0.0
C743 C 0.04875 0.49908 0.59323 0.0
H744 H 0.03206 0.5196 0.41277 0.0
H745 H 0.02689 0.52624 0.45378 0.0
H746 H 0.01675 0.59213 0.44464 0.0
H747 H 0.02116 0.5854 0.40319 0.0
H748 H 0.99706 0.51842 0.63725 0.0
H749 H 0.01886 0.52231 0.6048 0.0
H750 H 0.05352 0.47351 0.6281 0.0
H751 H 0.03156 0.46952 0.66096 0.0
Dy752 Dy 0.80046 0.7748 0.27125 0.0
Dy753 Dy 0.75179 0.79087 0.26678 0.0
C754 C 0.79814 0.82398 0.25983 0.0
O755 O 0.79843 0.79253 0.30701 0.0
O756 O 0.76034 0.78646 0.30405 0.0
O757 O 0.83616 0.78407 0.28252 0.0
O758 O 0.82045 0.75072 0.2638 0.0
O759 O 0.74293 0.75359 0.26648 0.0
O760 O 0.77585 0.74612 0.28241 0.0
O761 O 0.75812 0.7846 0.22927 0.0
O762 O 0.7844 0.76351 0.23409 0.0
O763 O 0.7165 0.78563 0.25416 0.0
O764 O 0.73352 0.81497 0.27909 0.0
C765 C 0.78015 0.79231 0.31672 0.0
O766 O 0.80576 0.80613 0.25431 0.0
O767 O 0.77943 0.82233 0.26894 0.0
C768 C 0.85728 0.76762 0.2567 0.0
C769 C 0.8924 0.77167 0.22848 0.0
C770 C 0.87955 0.78786 0.22993 0.0
C771 C 0.86217 0.78582 0.24378 0.0
C772 C 0.87 0.75144 0.25527 0.0
C773 C 0.88729 0.75339 0.24134 0.0
C774 C 0.83931 0.76538 0.27194 0.0
C775 C 0.75396 0.7403 0.2763 0.0
C776 C 0.77032 0.77144 0.22066 0.0
C777 C 0.69558 0.79898 0.28239 0.0
C778 C 0.66045 0.79322 0.31059 0.0
C779 C 0.6751 0.7787 0.31038 0.0
C780 C 0.69253 0.78162 0.29653 0.0
C781 C 0.68091 0.81331 0.28237 0.0
C782 C 0.6636 0.8105 0.29627 0.0
C783 C 0.71428 0.8029 0.26818 0.0
H784 H 0.88271 0.802 0.22008 0.0
H785 H 0.85255 0.7985 0.24441 0.0
H786 H 0.86664 0.73728 0.26508 0.0
H787 H 0.8969 0.74071 0.24095 0.0
H788 H 0.67344 0.76538 0.32133 0.0
H789 H 0.70378 0.77048 0.29705 0.0
H790 H 0.68291 0.82684 0.27166 0.0
H791 H 0.65256 0.82184 0.29566 0.0
Dy792 Dy 0.79218 0.27583 0.74799 0.0
Dy793 Dy 0.76361 0.2802 0.7913 0.0
C794 C 0.79312 0.32282 0.77573 0.0
O795 O 0.81327 0.26688 0.77795 0.0
O796 O 0.7986 0.28214 0.80879 0.0
O797 O 0.81297 0.2913 0.72399 0.0
O798 O 0.80444 0.25488 0.72256 0.0
O799 O 0.76564 0.24433 0.78483 0.0
O800 O 0.7663 0.2436 0.74569 0.0
O801 O 0.73825 0.27621 0.75918 0.0
O802 O 0.76192 0.28666 0.7324 0.0
O803 O 0.73547 0.26762 0.80905 0.0
O804 O 0.75898 0.29963 0.82281 0.0
C805 C 0.81435 0.27354 0.80055 0.0
O806 O 0.80601 0.30991 0.76896 0.0
O807 O 0.77279 0.31382 0.77935 0.0
C808 C 0.80624 0.26986 0.68704 0.0
C809 C 0.79567 0.27464 0.63976 0.0
C810 C 0.77995 0.27531 0.6554 0.0
C811 C 0.78516 0.2728 0.67878 0.0
C812 C 0.82131 0.26735 0.6713 0.0
C813 C 0.81599 0.2695 0.64773 0.0
C814 C 0.81322 0.27197 0.71229 0.0
C815 C 0.76257 0.23299 0.76376 0.0
C816 C 0.7417 0.28256 0.73864 0.0
C817 C 0.74434 0.27678 0.84976 0.0
C818 C 0.74868 0.26246 0.89398 0.0
C819 C 0.76455 0.26067 0.87881 0.0
C820 C 0.76237 0.26774 0.85686 0.0
C821 C 0.7285 0.27875 0.86477 0.0
C822 C 0.73061 0.27157 0.88678 0.0
C823 C 0.74213 0.28396 0.8266 0.0
H824 H 0.76425 0.27946 0.65014 0.0
H825 H 0.77326 0.27456 0.69073 0.0
H826 H 0.83759 0.26482 0.67742 0.0
H827 H 0.82827 0.26833 0.63606 0.0
H828 H 0.77839 0.25331 0.88367 0.0
H829 H 0.77466 0.26598 0.84534 0.0
H830 H 0.7145 0.28573 0.85945 0.0
H831 H 0.7182 0.27319 0.89818 0.0
Dy832 Dy 0.77199 0.76355 0.76106 0.0
Dy833 Dy 0.79913 0.81249 0.78883 0.0
C834 C 0.78641 0.76996 0.81632 0.0
O835 O 0.74466 0.7775 0.77599 0.0
O836 O 0.76285 0.81453 0.78912 0.0
O837 O 0.74439 0.73428 0.75814 0.0
O838 O 0.76743 0.73611 0.73269 0.0
O839 O 0.79816 0.81593 0.75063 0.0
O840 O 0.76819 0.78691 0.73454 0.0
O841 O 0.82722 0.79533 0.78202 0.0
O842 O 0.80784 0.76626 0.75373 0.0
O843 O 0.81207 0.84813 0.78883 0.0
O844 O 0.81871 0.8333 0.82018 0.0
C845 C 0.74433 0.79805 0.78532 0.0
O846 O 0.78549 0.75678 0.79657 0.0
O847 O 0.78736 0.79152 0.81626 0.0
C848 C 0.75423 0.7007 0.74466 0.0
C849 C 0.76576 0.65999 0.75186 0.0
C850 C 0.76235 0.67448 0.77086 0.0
C851 C 0.75676 0.69471 0.76733 0.0
C852 C 0.75653 0.68573 0.72552 0.0
C853 C 0.76234 0.66554 0.72909 0.0
C854 C 0.75128 0.72325 0.7411 0.0
C855 C 0.78292 0.80561 0.73285 0.0
C856 C 0.82707 0.77886 0.7652 0.0
C857 C 0.81187 0.86976 0.82408 0.0
C858 C 0.79161 0.90539 0.83472 0.0
C859 C 0.7798 0.88288 0.8346 0.0
C860 C 0.78988 0.86517 0.8293 0.0
C861 C 0.82445 0.89216 0.82665 0.0
C862 C 0.81442 0.90991 0.8321 0.0
C863 C 0.81973 0.85197 0.8111 0.0
H864 H 0.76521 0.67079 0.78863 0.0
H865 H 0.75529 0.70602 0.78247 0.0
H866 H 0.75467 0.69007 0.70792 0.0
H867 H 0.76478 0.65457 0.71414 0.0
H868 H 0.76219 0.87877 0.83638 0.0
H869 H 0.77991 0.84792 0.82729 0.0
H870 H 0.84143 0.89596 0.8226 0.0
H871 H 0.82403 0.92712 0.83249 0.0
Dy872 Dy 0.55176 0.54718 0.53909 0.0
Dy873 Dy 0.50384 0.51895 0.51199 0.0
C874 C 0.54544 0.53103 0.48428 0.0
O875 O 0.53813 0.57441 0.52333 0.0
O876 O 0.50146 0.55546 0.51119 0.0
O877 O 0.5828 0.57192 0.53947 0.0
O878 O 0.57705 0.55461 0.56957 0.0
O879 O 0.50219 0.51968 0.55071 0.0
O880 O 0.52778 0.5529 0.56393 0.0
O881 O 0.52168 0.49121 0.51853 0.0
O882 O 0.54885 0.51141 0.54798 0.0
O883 O 0.46885 0.50567 0.5131 0.0
O884 O 0.48275 0.49833 0.48136 0.0
C885 C 0.51761 0.57431 0.51428 0.0
O886 O 0.55792 0.53153 0.50424 0.0
O887 O 0.52418 0.53047 0.48398 0.0
C888 C 0.61227 0.55897 0.55756 0.0
C889 C 0.64703 0.53673 0.557 0.0
C890 C 0.63121 0.53404 0.53703 0.0
C891 C 0.61398 0.54503 0.53731 0.0
C892 C 0.62866 0.5626 0.57721 0.0
C893 C 0.6461 0.55162 0.57689 0.0
C894 C 0.59182 0.5669 0.55896 0.0
C895 C 0.51099 0.53677 0.56735 0.0
C896 C 0.53732 0.49176 0.53616 0.0
C897 C 0.4463 0.50425 0.47815 0.0
C898 C 0.40966 0.52291 0.46815 0.0
C899 C 0.43152 0.53572 0.46784 0.0
C900 C 0.44974 0.52642 0.47283 0.0
C901 C 0.42453 0.49065 0.47589 0.0
C902 C 0.40628 0.49988 0.47074 0.0
C903 C 0.46458 0.49722 0.49101 0.0
H904 H 0.63177 0.52284 0.52141 0.0
H905 H 0.60146 0.54182 0.52199 0.0
H906 H 0.62743 0.57312 0.59306 0.0
H907 H 0.65816 0.55385 0.59249 0.0
H908 H 0.43474 0.55352 0.46605 0.0
H909 H 0.46649 0.53714 0.47458 0.0
H910 H 0.42163 0.4735 0.48 0.0
H911 H 0.38959 0.48952 0.47067 0.0
Dy912 Dy 0.00707 0.52819 0.03126 0.0
Dy913 Dy 0.0577 0.53431 0.01646 0.0
C914 C 0.01821 0.54406 0.98266 0.0
O915 O 0.00722 0.4944 0.01072 0.0
O916 O 0.0448 0.49676 0.01703 0.0
O917 O 0.97135 0.51691 0.02072 0.0
O918 O 0.98456 0.5327 0.05633 0.0
O919 O 0.06084 0.53517 0.0551 0.0
O920 O 0.02606 0.51425 0.05866 0.0
O921 O 0.05384 0.57041 0.02286 0.0
O922 O 0.02502 0.56461 0.04509 0.0
O923 O 0.09359 0.54739 0.02423 0.0
O924 O 0.07906 0.52572 0.99169 0.0
C925 C 0.0241 0.48458 0.01068 0.0
O926 O 0.00794 0.54709 0.00081 0.0
O927 O 0.03521 0.53468 0.9837 0.0
C928 C 0.95142 0.5407 0.03886 0.0
C929 C 0.92141 0.5689 0.0335 0.0
C930 C 0.94442 0.57728 0.03283 0.0
C931 C 0.95925 0.5633 0.03539 0.0
C932 C 0.92857 0.5323 0.03969 0.0
C933 C 0.9137 0.54623 0.03703 0.0
C934 C 0.96678 0.5256 0.04062 0.0
C935 C 0.04732 0.52245 0.06679 0.0
C936 C 0.04109 0.57843 0.03684 0.0
C937 C 0.11366 0.52177 0.00946 0.0
C938 C 0.14411 0.49407 0.01504 0.0
C939 C 0.12484 0.49074 0.02629 0.0
C940 C 0.10977 0.50443 0.0235 0.0
C941 C 0.13285 0.52529 -0.00166 0.0
C942 C 0.14793 0.51161 0.0011 0.0
C943 C 0.09744 0.53568 0.00565 0.0
H944 H 0.95092 0.59453 0.02984 0.0
H945 H 0.97682 0.57006 0.03442 0.0
H946 H 0.92219 0.51489 0.04226 0.0
H947 H 0.89617 0.53927 0.03791 0.0
H948 H 0.12146 0.47762 0.03739 0.0
H949 H 0.09499 0.50141 0.0322 0.0
H950 H 0.13604 0.53848 0.98728 0.0
H951 H 0.16235 0.51449 0.99188 0.0
H952 H 0.97791 0.18851 0.95051 0.0
H953 H 0.04256 0.21756 0.99119 0.0
H954 H 0.97877 0.15155 0.96289 0.0
H955 H 0.04312 0.1816 0.00429 0.0
H956 H 0.05286 0.11168 0.00862 0.0
H957 H 0.0493 0.1471 -0.00397 0.0
H958 H 0.97739 0.12439 0.98888 0.0
H959 H 0.98115 0.08802 0.00072 0.0
C960 C 0.99217 0.18723 0.96238 0.0
C961 C 0.01022 0.20643 0.96958 0.0
C962 C 0.99272 0.16582 0.96959 0.0
C963 C 0.01127 0.16273 0.98447 0.0
C964 C 0.02877 0.18233 0.99226 0.0
C965 C 0.02834 0.20342 0.98487 0.0
C966 C 0.03617 0.11405 0.00451 0.0
C967 C 0.01737 0.09653 0.0061 0.0
C968 C 0.03406 0.13483 -0.00265 0.0
C969 C 0.01298 0.13958 0.99159 0.0
C970 C 0.99403 0.12193 0.99293 0.0
C971 C 0.99618 0.10087 -4e-05 0.0
H972 H 0.14866 0.78874 0.11496 0.0
H973 H 0.11274 0.79986 0.17295 0.0
H974 H 0.18026 0.78545 0.14187 0.0
H975 H 0.14424 0.79579 0.20012 0.0
H976 H 0.21207 0.80481 0.24575 0.0
H977 H 0.18102 0.81036 0.21927 0.0
H978 H 0.19369 0.76203 0.16563 0.0
H979 H 0.22516 0.75714 0.19188 0.0
C980 C 0.14744 0.79049 0.13352 0.0
C981 C 0.12793 0.79459 0.14161 0.0
C982 C 0.16565 0.78835 0.14909 0.0
C983 C 0.16508 0.79001 0.17346 0.0
C984 C 0.14568 0.79458 0.18162 0.0
C985 C 0.12745 0.79688 0.16597 0.0
C986 C 0.2083 0.79538 0.22828 0.0
C987 C 0.22137 0.78051 0.22112 0.0
C988 C 0.19025 0.79846 0.21302 0.0
C989 C 0.18448 0.78673 0.19 0.0
C990 C 0.19758 0.7718 0.18292 0.0
C991 C 0.2157 0.76882 0.19814 0.0
H992 H 0.47612 0.83436 0.50153 0.0
H993 H 0.52504 0.84443 0.45394 0.0
H994 H 0.48309 0.87506 0.51245 0.0
H995 H 0.53203 0.88555 0.46486 0.0
H996 H 0.55394 0.95843 0.50686 0.0
H997 H 0.54773 0.91766 0.49531 0.0
H998 H 0.47739 0.90923 0.49949 0.0
H999 H 0.48363 0.94995 0.51116 0.0
C1000 C 0.48845 0.8452 0.49331 0.0
C1001 C 0.49996 0.83566 0.47674 0.0
C1002 C 0.49235 0.86881 0.49952 0.0
C1003 C 0.50809 0.88412 0.48958 0.0
C1004 C 0.51988 0.87461 0.47318 0.0
C1005 C 0.5158 0.85086 0.46678 0.0
C1006 C 0.53709 0.94795 0.50535 0.0
C1007 C 0.51934 0.95789 0.51014 0.0
C1008 C 0.53349 0.92438 0.49851 0.0
C1009 C 0.512 0.90965 0.49637 0.0
C1010 C 0.49427 0.91963 0.50115 0.0
C1011 C 0.49784 0.94322 0.50779 0.0
H1012 H 0.47039 0.26879 0.61133 0.0
H1013 H 0.52134 0.2998 0.67003 0.0
H1014 H 0.44196 0.26526 0.63734 0.0
H1015 H 0.49273 0.29605 0.69625 0.0
H1016 H 0.43123 0.30604 0.73158 0.0
H1017 H 0.46039 0.31043 0.70607 0.0
H1018 H 0.42919 0.24406 0.66815 0.0
H1019 H 0.39988 0.23991 0.6932 0.0
C1020 C 0.4756 0.27484 0.62982 0.0
C1021 C 0.49828 0.28457 0.63849 0.0
C1022 C 0.45922 0.27268 0.64482 0.0
C1023 C 0.46493 0.28026 0.66902 0.0
C1024 C 0.48762 0.29018 0.67772 0.0
C1025 C 0.50408 0.29222 0.66268 0.0
C1026 C 0.43049 0.29244 0.71769 0.0
C1027 C 0.41309 0.27261 0.71454 0.0
C1028 C 0.44739 0.29487 0.70319 0.0
C1029 C 0.44725 0.27762 0.68495 0.0
C1030 C 0.42981 0.25783 0.68181 0.0
C1031 C 0.41306 0.25534 0.69639 0.0
H1032 H 0.07309 0.80839 0.64195 0.0
H1033 H 0.00632 0.80996 0.65514 0.0
H1034 H 0.07386 0.83904 0.61865 0.0
H1035 H 0.0073 0.84131 0.63229 0.0
H1036 H 0.00913 0.88409 0.57143 0.0
H1037 H 0.00693 0.85274 0.59431 0.0
H1038 H 0.07695 0.87818 0.62172 0.0
H1039 H 0.07916 0.90918 0.5986 0.0
C1040 C 0.05854 0.81533 0.63997 0.0
C1041 C 0.03966 0.80662 0.65056 0.0
C1042 C 0.05905 0.83314 0.62668 0.0
C1043 C 0.04075 0.84304 0.62363 0.0
C1044 C 0.02168 0.83411 0.63396 0.0
C1045 C 0.02113 0.81613 0.6472 0.0
C1046 C 0.02402 0.8831 0.58248 0.0
C1047 C 0.04436 0.89921 0.58297 0.0
C1048 C 0.02276 0.86506 0.59569 0.0
C1049 C 0.04179 0.86262 0.60989 0.0
C1050 C 0.06201 0.87901 0.61065 0.0
C1051 C 0.06329 0.89693 0.59736 0.0
H1052 H 0.48282 0.8347 0.82012 0.0
H1053 H 0.46217 0.76689 0.83657 0.0
H1054 H 0.44347 0.83396 0.80699 0.0
H1055 H 0.42359 0.76575 0.82297 0.0
H1056 H 0.35365 0.77473 0.82216 0.0
H1057 H 0.39309 0.77755 0.83307 0.0
H1058 H 0.40896 0.82122 0.78069 0.0
H1059 H 0.36893 0.81891 0.77021 0.0
C1060 C 0.47004 0.81948 0.82059 0.0
C1061 C 0.47603 0.80092 0.82966 0.0
C1062 C 0.44727 0.81901 0.81304 0.0
C1063 C 0.42967 0.79993 0.8142 0.0
C1064 C 0.43604 0.78116 0.82236 0.0
C1065 C 0.45853 0.78171 0.83002 0.0
C1066 C 0.36538 0.78503 0.81285 0.0
C1067 C 0.3576 0.79651 0.79513 0.0
C1068 C 0.38836 0.7865 0.81903 0.0
C1069 C 0.40488 0.79937 0.80768 0.0
C1070 C 0.39715 0.81118 0.79011 0.0
C1071 C 0.37399 0.80977 0.78396 0.0
H1072 H 0.51824 0.20813 0.10537 0.0
H1073 H 0.50928 0.1754 0.16695 0.0
H1074 H 0.51911 0.17258 0.08303 0.0
H1075 H 0.50985 0.13928 0.14425 0.0
H1076 H 0.53713 0.08452 0.10127 0.0
H1077 H 0.53393 0.11881 0.12515 0.0
H1078 H 0.49718 0.1364 0.06528 0.0
H1079 H 0.5007 0.10244 0.04143 0.0
C1080 C 0.51624 0.19329 0.11421 0.0
C1081 C 0.51363 0.1949 0.13814 0.0
C1082 C 0.51661 0.17267 0.10122 0.0
C1083 C 0.51447 0.1527 0.11157 0.0
C1084 C 0.51175 0.1542 0.13555 0.0
C1085 C 0.51123 0.17495 0.1486 0.0
C1086 C 0.52832 0.09566 0.09317 0.0
C1087 C 0.51934 0.09058 0.06921 0.0
C1088 C 0.52633 0.11536 0.10699 0.0
C1089 C 0.51542 0.13076 0.09732 0.0
C1090 C 0.50608 0.12536 0.07346 0.0
C1091 C 0.50798 0.10567 0.0597 0.0
H1092 H 0.13849 0.34052 0.36438 0.0
H1093 H 0.09672 0.29382 0.30708 0.0
H1094 H 0.17173 0.33495 0.34857 0.0
H1095 H 0.13047 0.28824 0.29087 0.0
H1096 H 0.19693 0.26584 0.28132 0.0
H1097 H 0.16245 0.2721 0.29447 0.0
H1098 H 0.19614 0.34156 0.32039 0.0
H1099 H 0.23066 0.33517 0.30736 0.0
C1100 C 0.13622 0.3291 0.34819 0.0
C1101 C 0.11438 0.31773 0.33722 0.0
C1102 C 0.15563 0.32597 0.33891 0.0
C1103 C 0.15445 0.31111 0.31814 0.0
C1104 C 0.13256 0.29973 0.30697 0.0
C1105 C 0.11297 0.30307 0.31621 0.0
C1106 C 0.1971 0.28255 0.28972 0.0
C1107 C 0.2171 0.29991 0.29312 0.0
C1108 C 0.17702 0.28622 0.29724 0.0
C1109 C 0.17589 0.3074 0.30881 0.0
C1110 C 0.19589 0.32483 0.31198 0.0
C1111 C 0.21593 0.32121 0.30428 0.0
H1112 H 0.97119 0.07447 0.20275 0.0
H1113 H 0.95822 0.00168 0.19571 0.0
H1114 H 0.98498 0.074 0.16507 0.0
H1115 H 0.97257 0.00121 0.15811 0.0
H1116 H 0.97722 0.00618 0.0804 0.0
H1117 H 0.96398 0.00666 0.11839 0.0
H1118 H 0.01469 0.06812 0.14445 0.0
H1119 H 0.02762 0.06787 0.10615 0.0
C1120 C 0.97143 0.05831 0.19327 0.0
C1121 C 0.96351 0.0381 0.20243 0.0
C1122 C 0.97952 0.05806 0.1716 0.0
C1123 C 0.97999 0.03758 0.15828 0.0
C1124 C 0.97223 0.01734 0.16755 0.0
C1125 C 0.96411 0.01759 0.18928 0.0
C1126 C 0.98556 0.01987 0.09418 0.0
C1127 C 0.00351 0.03703 0.09003 0.0
C1128 C 0.97805 0.02004 0.11615 0.0
C1129 C 0.98822 0.03737 0.13478 0.0
C1130 C 0.00616 0.0546 0.13058 0.0
C1131 C 0.01368 0.05444 0.10856 0.0
H1132 H 0.28878 0.69057 0.50284 0.0
H1133 H 0.2244 0.64427 0.4782 0.0
H1134 H 0.28189 0.71393 0.4729 0.0
H1135 H 0.21762 0.66779 0.44806 0.0
H1136 H 0.20785 0.72937 0.41103 0.0
H1137 H 0.21262 0.70798 0.44388 0.0
H1138 H 0.27902 0.70665 0.42894 0.0
H1139 H 0.27433 0.72795 0.39652 0.0
C1140 C 0.27313 0.6854 0.49109 0.0
C1141 C 0.25721 0.66546 0.49271 0.0
C1142 C 0.26922 0.69878 0.47396 0.0
C1143 C 0.24929 0.69256 0.45819 0.0
C1144 C 0.23306 0.67299 0.46017 0.0
C1145 C 0.23703 0.65947 0.47726 0.0
C1146 C 0.22345 0.72457 0.41498 0.0
C1147 C 0.24068 0.7301 0.40129 0.0
C1148 C 0.22612 0.71227 0.43357 0.0
C1149 C 0.24619 0.70576 0.43887 0.0
C1150 C 0.26347 0.71166 0.42534 0.0
C1151 C 0.26073 0.72366 0.40671 0.0
H1152 H 0.58527 -0.00553 0.71258 0.0
H1153 H 0.64434 -0.00208 0.67871 0.0
H1154 H 0.5637 -0.00381 0.67532 0.0
H1155 H 0.62263 -0.00121 0.64135 0.0
H1156 H 0.58986 0.03872 0.59307 0.0
H1157 H 0.60837 0.02904 0.62795 0.0
H1158 H 0.54794 0.98006 0.63479 0.0
H1159 H 0.52897 0.99021 0.59967 0.0
C1160 C 0.59349 -0.0051 0.69704 0.0
C1161 C 0.61658 -0.00352 0.6986 0.0
C1162 C 0.5811 -0.00416 0.67567 0.0
C1163 C 0.59157 -0.00186 0.65549 0.0
C1164 C 0.61422 -0.00233 0.65674 0.0
C1165 C 0.62664 -0.00298 0.67809 0.0
C1166 C 0.5804 0.02586 0.6019 0.0
C1167 C 0.5579 0.01523 0.59354 0.0
C1168 C 0.59115 0.02012 0.62184 0.0
C1169 C 0.57977 0.00348 0.63395 0.0
C1170 C 0.55715 -0.00704 0.62582 0.0
C1171 C 0.54629 -0.00121 0.60576 0.0
H1172 H 0.30861 0.3065 0.97599 0.0
H1173 H 0.28316 0.36344 0.95888 0.0
H1174 H 0.30581 0.29289 0.9343 0.0
H1175 H 0.28112 0.35041 0.91739 0.0
H1176 H 0.25895 0.31179 0.84487 0.0
H1177 H 0.26123 0.32315 0.88656 0.0
H1178 H 0.32097 0.2988 0.89891 0.0
H1179 H 0.31816 0.28659 0.85677 0.0
C1180 C 0.30244 0.31616 0.96336 0.0
C1181 C 0.29598 0.33604 0.97094 0.0
C1182 C 0.30101 0.30844 0.93935 0.0
C1183 C 0.29318 0.32042 0.92217 0.0
C1184 C 0.2868 0.34035 0.92987 0.0
C1185 C 0.28808 0.34796 0.95381 0.0
C1186 C 0.27265 0.30882 0.85637 0.0
C1187 C 0.28849 0.29839 0.84725 0.0
C1188 C 0.27404 0.31552 0.88046 0.0
C1189 C 0.29146 0.31228 0.8964 0.0
C1190 C 0.30717 0.30149 0.88735 0.0
C1191 C 0.30565 0.29455 0.8631 0.0
H1192 H 0.93208 0.99095 0.34748 0.0
H1193 H 0.98686 0.03993 0.32865 0.0
H1194 H 0.95253 -0.00615 0.38635 0.0
H1195 H 0.00756 0.0428 0.36794 0.0
H1196 H 0.02132 0.06163 0.44998 0.0
H1197 H 0.00502 0.05741 0.40901 0.0
H1198 H 0.98509 0.98503 0.40753 0.0
H1199 H 0.00127 0.98921 0.44861 0.0
C1200 C 0.9486 0.00227 0.35155 0.0
C1201 C 0.95775 0.01526 0.33483 0.0
C1202 C 0.96043 0.0038 0.3739 0.0
C1203 C 0.98177 0.01852 0.3804 0.0
C1204 C 0.9911 0.03139 0.36362 0.0
C1205 C 0.9793 0.02966 0.34104 0.0
C1206 C 0.01366 0.04476 0.44091 0.0
C1207 C 0.01255 0.02576 0.45279 0.0
C1208 C 0.00441 0.04235 0.41729 0.0
C1209 C 0.99359 0.0209 0.40488 0.0
C1210 C 0.99303 0.00185 0.41657 0.0
C1211 C 0.00244 0.00424 0.44015 0.0
H1212 H 0.32215 0.67555 0.62308 0.0
H1213 H 0.29371 0.72413 0.58974 0.0
H1214 H 0.32506 0.69813 0.66115 0.0
H1215 H 0.29543 0.74596 0.62761 0.0
H1216 H 0.30842 0.78768 0.69806 0.0
H1217 H 0.3157 0.76933 0.66124 0.0
H1218 H 0.29981 0.70463 0.68666 0.0
H1219 H 0.29371 0.72311 0.72366 0.0
C1220 C 0.3167 0.69114 0.62388 0.0
C1221 C 0.30751 0.69795 0.60348 0.0
C1222 C 0.31818 0.704 0.6457 0.0
C1223 C 0.31013 0.72371 0.64757 0.0
C1224 C 0.30204 0.73107 0.62694 0.0
C1225 C 0.30092 0.71843 0.60515 0.0
C1226 C 0.30665 0.76956 0.69576 0.0
C1227 C 0.30035 0.75681 0.71365 0.0
C1228 C 0.31076 0.75901 0.67465 0.0
C1229 C 0.30828 0.73544 0.67085 0.0
C1230 C 0.30236 0.72284 0.68902 0.0
C1231 C 0.29862 0.73342 0.71022 0.0
H1232 H 0.63987 0.03373 0.81982 0.0
H1233 H 0.6049 0.06836 0.77291 0.0
H1234 H 0.62114 0.04636 0.85157 0.0
H1235 H 0.586 0.08093 0.80496 0.0
H1236 H 0.53863 0.06655 0.86442 0.0
H1237 H 0.55778 0.06099 0.83048 0.0
H1238 H 0.62153 0.08457 0.87472 0.0
H1239 H 0.60249 0.0906 0.90862 0.0
C1240 C 0.62812 0.04397 0.81626 0.0
C1241 C 0.62384 0.05007 0.79388 0.0
C1242 C 0.61758 0.05138 0.8345 0.0
C1243 C 0.6024 0.06484 0.8307 0.0
C1244 C 0.59773 0.07062 0.80826 0.0
C1245 C 0.60851 0.06342 0.79 0.0
C1246 C 0.55674 0.07122 0.86679 0.0
C1247 C 0.56909 0.07869 0.88922 0.0
C1248 C 0.56766 0.06797 0.84737 0.0
C1249 C 0.59105 0.07202 0.85016 0.0
C1250 C 0.60343 0.08096 0.87227 0.0
C1251 C 0.59255 0.08436 0.89162 0.0
H1252 H 0.25428 0.31153 0.08264 0.0
H1253 H 0.30701 0.37075 0.11049 0.0
H1254 H 0.25391 0.30011 0.12151 0.0
H1255 H 0.30597 0.36006 0.14963 0.0
H1256 H 0.31328 0.32604 0.21484 0.0
H1257 H 0.31445 0.33651 0.17571 0.0
H1258 H 0.2435 0.30641 0.15827 0.0
H1259 H 0.24272 0.29496 0.19719 0.0
C1260 C 0.26578 0.32219 0.0971 0.0
C1261 C 0.28073 0.34205 0.09329 0.0
C1262 C 0.26542 0.31575 0.11959 0.0
C1263 C 0.2798 0.32912 0.13915 0.0
C1264 C 0.29485 0.34897 0.13521 0.0
C1265 C 0.29541 0.35523 0.11264 0.0
C1266 C 0.29789 0.32169 0.20268 0.0
C1267 C 0.27789 0.30964 0.2093 0.0
C1268 C 0.29851 0.32785 0.18011 0.0
C1269 C 0.27908 0.32245 0.16342 0.0
C1270 C 0.25899 0.31059 0.17022 0.0
C1271 C 0.25845 0.30414 0.19273 0.0
H1272 H 0.20602 0.92334 0.05365 0.0
H1273 H 0.25716 0.97749 0.03655 0.0
H1274 H 0.18554 0.95076 0.06698 0.0
H1275 H 0.23713 0.00489 0.05055 0.0
H1276 H 0.17779 0.03845 0.04214 0.0
H1277 H 0.20345 0.01458 0.03605 0.0
H1278 H 0.18496 0.98221 0.09595 0.0
H1279 H 0.15892 0.00611 0.10188 0.0
C1280 C 0.21303 0.94111 0.05305 0.0
C1281 C 0.233 0.94823 0.04374 0.0
C1282 C 0.20141 0.95685 0.06087 0.0
C1283 C 0.20967 0.98 0.0597 0.0
C1284 C 0.23013 0.98715 0.05129 0.0
C1285 C 0.24161 0.97143 0.04329 0.0
C1286 C 0.17965 0.0267 0.05442 0.0
C1287 C 0.1663 0.02408 0.07244 0.0
C1288 C 0.19436 0.01296 0.05092 0.0
C1289 C 0.19613 -0.00364 0.06542 0.0
C1290 C 0.18366 -0.00543 0.08423 0.0
C1291 C 0.16885 0.00829 0.08769 0.0
H1292 H 0.71433 0.61997 0.01658 0.0
H1293 H 0.67817 0.66045 0.9788 0.0
H1294 H 0.67893 0.59378 0.01989 0.0
H1295 H 0.64298 0.63424 0.98197 0.0
H1296 H 0.58669 0.60262 0.02144 0.0
H1297 H 0.62214 0.62559 0.01482 0.0
H1298 H 0.64505 0.56536 -0.00313 0.0
H1299 H 0.60911 0.54196 0.0037 0.0
C1300 C 0.69887 0.6232 0.00882 0.0
C1301 C 0.69912 0.64247 -0.00239 0.0
C1302 C 0.6786 0.60809 0.01059 0.0
C1303 C 0.65812 0.61199 0.00135 0.0
C1304 C 0.65844 0.6309 0.98958 0.0
C1305 C 0.67866 0.64591 0.98769 0.0
C1306 C 0.59919 0.5941 0.01611 0.0
C1307 C 0.59499 0.57034 0.01319 0.0
C1308 C 0.61953 0.60736 0.0121 0.0
C1309 C 0.63641 0.59735 0.00517 0.0
C1310 C 0.63238 0.57359 0.0023 0.0
C1311 C 0.61179 0.56019 0.00611 0.0
H1312 H 0.65559 0.48161 0.29739 0.0
H1313 H 0.69036 0.51273 0.24432 0.0
H1314 H 0.67583 0.4518 0.29425 0.0
H1315 H 0.71084 0.48341 0.24157 0.0
H1316 H 0.72757 0.41584 0.22424 0.0
H1317 H 0.70596 0.44425 0.22767 0.0
H1318 H 0.71236 0.44453 0.30263 0.0
H1319 H 0.73388 0.41591 0.29913 0.0
C1320 C 0.66759 0.48217 0.28513 0.0
C1321 C 0.67125 0.49958 0.27107 0.0
C1322 C 0.67931 0.46512 0.2834 0.0
C1323 C 0.69496 0.46505 0.26756 0.0
C1324 C 0.69866 0.48259 0.25366 0.0
C1325 C 0.68698 0.49956 0.25536 0.0
C1326 C 0.7245 0.42203 0.24149 0.0
C1327 C 0.73263 0.41362 0.26141 0.0
C1328 C 0.71208 0.43839 0.24347 0.0
C1329 C 0.70747 0.4469 0.26546 0.0
C1330 C 0.71531 0.43823 0.28537 0.0
C1331 C 0.72769 0.42179 0.28336 0.0
H1332 H 0.84772 0.47212 0.50476 0.0
H1333 H 0.8651 0.4384 0.56318 0.0
H1334 H 0.88688 0.49153 0.50642 0.0
H1335 H 0.90434 0.45725 0.56436 0.0
H1336 H 0.97065 0.50933 0.57316 0.0
H1337 H 0.93098 0.49327 0.57325 0.0
H1338 H 0.92086 0.48221 0.4975 0.0
H1339 H 0.9604 0.4989 0.4974 0.0
C1340 C 0.8599 0.46886 0.51797 0.0
C1341 C 0.85335 0.45367 0.53378 0.0
C1342 C 0.88236 0.47988 0.51882 0.0
C1343 C 0.89875 0.4758 0.5354 0.0
C1344 C 0.89211 0.46097 0.55155 0.0
C1345 C 0.86962 0.45008 0.5508 0.0
C1346 C 0.95994 0.50354 0.55652 0.0
C1347 C 0.96866 0.50535 0.53525 0.0
C1348 C 0.93722 0.49424 0.55658 0.0
C1349 C 0.92276 0.48644 0.53539 0.0
C1350 C 0.93148 0.48838 0.51414 0.0
C1351 C 0.95418 0.49781 0.51407 0.0
H1352 H 0.37509 0.1006 0.2641 0.0
H1353 H 0.32125 0.05398 0.28765 0.0
H1354 H 0.34866 0.12103 0.24875 0.0
H1355 H 0.29473 0.07415 0.27177 0.0
H1356 H 0.26409 0.13675 0.26945 0.0
H1357 H 0.28623 0.11064 0.2806 0.0
H1358 H 0.31741 0.11701 0.21781 0.0
H1359 H 0.29532 0.14342 0.20677 0.0
C1360 C 0.35761 0.09468 0.26594 0.0
C1361 C 0.35027 0.07576 0.27719 0.0
C1362 C 0.34242 0.10622 0.2569 0.0
C1363 C 0.31959 0.09905 0.25886 0.0
C1364 C 0.31225 0.08013 0.27012 0.0
C1365 C 0.32745 0.06861 0.27922 0.0
C1366 C 0.27517 0.13204 0.25767 0.0
C1367 C 0.27814 0.14221 0.23733 0.0
C1368 C 0.2879 0.11713 0.26409 0.0
C1369 C 0.30379 0.11207 0.25025 0.0
C1370 C 0.30563 0.12102 0.22907 0.0
C1371 C 0.29293 0.136 0.22269 0.0
H1372 H 0.34927 0.17517 0.56018 0.0
H1373 H 0.3088 0.12788 0.50224 0.0
H1374 H 0.37549 0.15117 0.56322 0.0
H1375 H 0.33496 0.10368 0.5055 0.0
H1376 H 0.39928 0.07838 0.50293 0.0
H1377 H 0.3731 0.10249 0.49938 0.0
H1378 H 0.37801 0.11479 0.57476 0.0
H1379 H 0.40464 0.09122 0.57832 0.0
C1380 C 0.3459 0.15962 0.5481 0.0
C1381 C 0.32685 0.1535 0.53096 0.0
C1382 C 0.36091 0.14577 0.54994 0.0
C1383 C 0.35736 0.12541 0.53466 0.0
C1384 C 0.33837 0.11934 0.51742 0.0
C1385 C 0.32329 0.13317 0.51563 0.0
C1386 C 0.39492 0.08638 0.51876 0.0
C1387 C 0.40415 0.08285 0.54092 0.0
C1388 C 0.3797 0.10002 0.51672 0.0
C1389 C 0.37339 0.11063 0.53678 0.0
C1390 C 0.38263 0.1071 0.55893 0.0
C1391 C 0.39775 0.09337 0.56097 0.0
H1392 H 0.64183 0.62661 0.2621 0.0
H1393 H 0.69032 0.6033 0.30598 0.0
H1394 H 0.66905 0.6618 0.26196 0.0
H1395 H 0.71776 0.6393 0.30641 0.0
H1396 H 0.76605 0.69977 0.27906 0.0
H1397 H 0.74118 0.66302 0.28225 0.0
H1398 H 0.68659 0.69524 0.28801 0.0
H1399 H 0.71088 0.73118 0.28408 0.0
C1400 C 0.65828 0.62905 0.27196 0.0
C1401 C 0.66375 0.61211 0.28423 0.0
C1402 C 0.67394 0.6494 0.27198 0.0
C1403 C 0.6956 0.65365 0.28447 0.0
C1404 C 0.70128 0.6366 0.29654 0.0
C1405 C 0.68551 0.61603 0.29643 0.0
C1406 C 0.74877 0.6989 0.2812 0.0
C1407 C 0.74035 0.71831 0.28086 0.0
C1408 C 0.73452 0.67789 0.28308 0.0
C1409 C 0.71169 0.67601 0.28487 0.0
C1410 C 0.70382 0.69578 0.28589 0.0
C1411 C 0.71784 0.71651 0.28374 0.0
H1412 H 0.81547 0.46578 0.76686 0.0
H1413 H 0.86888 0.46134 0.81938 0.0
H1414 H 0.79985 0.42508 0.76402 0.0
H1415 H 0.8532 0.42073 0.81648 0.0
H1416 H 0.8361 0.34731 0.77762 0.0
H1417 H 0.84973 0.38841 0.7838 0.0
H1418 H 0.7826 0.3954 0.78843 0.0
H1419 H 0.76887 0.35432 0.78225 0.0
C1420 C 0.8237 0.45618 0.77798 0.0
C1421 C 0.84347 0.46671 0.79321 0.0
C1422 C 0.81473 0.43294 0.77641 0.0
C1423 C 0.82549 0.41983 0.78987 0.0
C1424 C 0.84479 0.43046 0.80569 0.0
C1425 C 0.85364 0.45371 0.80744 0.0
C1426 C 0.82425 0.35761 0.77997 0.0
C1427 C 0.80143 0.34762 0.77943 0.0
C1428 C 0.83208 0.3811 0.78367 0.0
C1429 C 0.81719 0.39499 0.78667 0.0
C1430 C 0.79437 0.38503 0.78605 0.0
C1431 C 0.78657 0.36154 0.7826 0.0
H1432 H 0.02914 0.84735 0.0643 0.0
H1433 H 0.09303 0.88694 0.09977 0.0
H1434 H 0.0217 0.88126 0.04925 0.0
H1435 H 0.08637 0.92015 0.08419 0.0
H1436 H 0.0641 0.98388 0.07346 0.0
H1437 H 0.07019 0.94927 0.08632 0.0
H1438 H 0.02515 0.91031 0.02615 0.0
H1439 H 0.01835 0.94542 0.01383 0.0
C1440 C 0.04183 0.86312 0.0686 0.0
C1441 C 0.06173 0.86401 0.08351 0.0
C1442 C 0.03757 0.88285 0.05991 0.0
C1443 C 0.05312 0.9043 0.06557 0.0
C1444 C 0.07333 0.90469 0.07975 0.0
C1445 C 0.07738 0.88523 0.08861 0.0
C1446 C 0.05547 0.96802 0.06277 0.0
C1447 C 0.04076 0.96798 0.04236 0.0
C1448 C 0.05914 0.94777 0.07014 0.0
C1449 C 0.04854 0.92618 0.05738 0.0
C1450 C 0.0337 0.92613 0.0369 0.0
C1451 C 0.02986 0.94652 0.02962 0.0
H1452 H 0.94806 0.27186 0.87071 0.0
H1453 H 0.90281 0.24979 0.91957 0.0
H1454 H 0.91654 0.27564 0.84333 0.0
H1455 H 0.87144 0.25319 0.89226 0.0
H1456 H 0.82193 0.28287 0.84885 0.0
H1457 H 0.85387 0.27958 0.87564 0.0
H1458 H 0.88352 0.25572 0.81695 0.0
H1459 H 0.85174 0.25938 0.79015 0.0
C1460 C 0.93141 0.26766 0.87561 0.0
C1461 C 0.92819 0.26051 0.89752 0.0
C1462 C 0.91321 0.26975 0.85981 0.0
C1463 C 0.89117 0.26485 0.8654 0.0
C1464 C 0.88804 0.25755 0.88727 0.0
C1465 C 0.90616 0.25541 0.90298 0.0
C1466 C 0.83524 0.27694 0.84158 0.0
C1467 C 0.83402 0.27141 0.81715 0.0
C1468 C 0.85363 0.2749 0.85705 0.0
C1469 C 0.87155 0.26731 0.8487 0.0
C1470 C 0.87035 0.26189 0.82424 0.0
C1471 C 0.85192 0.26385 0.80877 0.0
H1472 H 0.5184 0.20748 0.60139 0.0
H1473 H 0.57516 0.22913 0.56567 0.0
H1474 H 0.51628 0.16836 0.58711 0.0
H1475 H 0.57393 0.18936 0.55206 0.0
H1476 H 0.55732 0.11325 0.51887 0.0
H1477 H 0.55933 0.15359 0.52963 0.0
H1478 H 0.5307 0.13847 0.59232 0.0
H1479 H 0.52778 0.09864 0.58098 0.0
C1480 C 0.53055 0.20389 0.59041 0.0
C1481 C 0.54694 0.22179 0.58481 0.0
C1482 C 0.52956 0.18113 0.58237 0.0
C1483 C 0.54528 0.17494 0.56871 0.0
C1484 C 0.56136 0.19295 0.56241 0.0
C1485 C 0.56211 0.21596 0.57022 0.0
C1486 C 0.55146 0.11858 0.53496 0.0
C1487 C 0.54221 0.10229 0.54887 0.0
C1488 C 0.55268 0.14193 0.54126 0.0
C1489 C 0.54486 0.14995 0.56183 0.0
C1490 C 0.53626 0.13353 0.57595 0.0
C1491 C 0.53479 0.11034 0.56952 0.0
H1492 H 0.53712 0.7547 0.37509 0.0
H1493 H 0.58147 0.80856 0.42425 0.0
H1494 H 0.56577 0.75729 0.34885 0.0
H1495 H 0.6099 0.811 0.39834 0.0
H1496 H 0.64702 0.82678 0.33635 0.0
H1497 H 0.61751 0.82315 0.36111 0.0
H1498 H 0.60317 0.75044 0.34518 0.0
H1499 H 0.6325 0.7541 0.31985 0.0
C1500 C 0.55293 0.76707 0.38034 0.0
C1501 C 0.55685 0.78144 0.40185 0.0
C1502 C 0.56944 0.76847 0.36534 0.0
C1503 C 0.59023 0.78444 0.37133 0.0
C1504 C 0.59406 0.79872 0.39286 0.0
C1505 C 0.5777 0.79721 0.40786 0.0
C1506 C 0.63748 0.80998 0.33789 0.0
C1507 C 0.64226 0.79076 0.32595 0.0
C1508 C 0.62063 0.80788 0.35235 0.0
C1509 C 0.60787 0.78648 0.35532 0.0
C1510 C 0.61247 0.76721 0.34323 0.0
C1511 C 0.6295 0.76932 0.32887 0.0
H1512 H 0.07142 0.28562 0.44086 0.0
H1513 H 0.02184 0.24837 0.38338 0.0
H1514 H 0.06511 0.25292 0.4617 0.0
H1515 H 0.01519 0.21559 0.40451 0.0
H1516 H 0.0247 0.15368 0.43961 0.0
H1517 H 0.03123 0.18597 0.4179 0.0
H1518 H 0.0386 0.23127 0.48232 0.0
H1519 H 0.03293 0.19917 0.50405 0.0
C1520 C 0.05907 0.27047 0.43264 0.0
C1521 C 0.04715 0.26979 0.41034 0.0
C1522 C 0.05534 0.25166 0.44473 0.0
C1523 C 0.03954 0.23144 0.43497 0.0
C1524 C 0.02767 0.23069 0.41258 0.0
C1525 C 0.03139 0.24959 0.40047 0.0
C1526 C 0.02794 0.17053 0.44922 0.0
C1527 C 0.02826 0.17362 0.47372 0.0
C1528 C 0.03143 0.18911 0.43667 0.0
C1529 C 0.03548 0.21142 0.44822 0.0
C1530 C 0.03582 0.21448 0.47272 0.0
C1531 C 0.03227 0.19593 0.48522 0.0
H1532 H 0.60286 0.26752 0.17914 0.0
H1533 H 0.58462 0.25666 0.24732 0.0
H1534 H 0.64165 0.27074 0.19359 0.0
H1535 H 0.62434 0.26027 0.2622 0.0
H1536 H 0.69745 0.24734 0.27373 0.0
H1537 H 0.65733 0.24387 0.26198 0.0
H1538 H 0.67369 0.29437 0.21635 0.0
H1539 H 0.71325 0.29753 0.22769 0.0
C1540 C 0.60703 0.26595 0.19741 0.0
C1541 C 0.59004 0.26188 0.21189 0.0
C1542 C 0.62968 0.26799 0.20585 0.0
C1543 C 0.6368 0.26605 0.22932 0.0
C1544 C 0.61986 0.26182 0.24399 0.0
C1545 C 0.59693 0.2599 0.23547 0.0
C1546 C 0.69251 0.25768 0.26113 0.0
C1547 C 0.70908 0.27258 0.25161 0.0
C1548 C 0.66931 0.2558 0.25446 0.0
C1549 C 0.66169 0.26863 0.23786 0.0
C1550 C 0.67837 0.28371 0.22872 0.0
C1551 C 0.70139 0.28564 0.23541 0.0
H1552 H 0.51249 0.85964 0.92409 0.0
H1553 H 0.57073 0.89362 0.89618 0.0
H1554 H 0.51249 0.89453 0.94814 0.0
H1555 H 0.57091 0.92903 0.92084 0.0
H1556 H 0.54807 -0.00661 0.95211 0.0
H1557 H 0.55075 0.95929 0.92721 0.0
H1558 H 0.53221 0.91951 0.98201 0.0
H1559 H 0.52926 0.95315 0.00651 0.0
C1560 C 0.52549 0.87454 0.92313 0.0
C1561 C 0.54168 0.87352 0.90807 0.0
C1562 C 0.52555 0.89472 0.93717 0.0
C1563 C 0.54179 0.91487 0.9368 0.0
C1564 C 0.55802 0.914 0.92163 0.0
C1565 C 0.55803 0.8936 0.90756 0.0
C1566 C 0.54461 0.97737 0.95887 0.0
C1567 C 0.53826 0.97624 0.98143 0.0
C1568 C 0.54628 0.95775 0.94458 0.0
C1569 C 0.54151 0.93634 0.95232 0.0
C1570 C 0.53561 0.93542 0.97505 0.0
C1571 C 0.53402 0.95492 0.98928 0.0
H1572 H 0.93084 0.72255 0.70243 0.0
H1573 H 0.96945 0.78657 0.73982 0.0
H1574 H 0.89749 0.72909 0.71694 0.0
H1575 H 0.93543 0.7939 0.75381 0.0
H1576 H 0.87106 0.79731 0.78712 0.0
H1577 H 0.90602 0.79053 0.77558 0.0
H1578 H 0.86845 0.74495 0.71496 0.0
H1579 H 0.83388 0.75101 0.72714 0.0
C1580 C 0.93232 0.73822 0.71379 0.0
C1581 C 0.95334 0.75391 0.71975 0.0
C1582 C 0.91276 0.7422 0.72205 0.0
C1583 C 0.91281 0.7624 0.73648 0.0
C1584 C 0.93405 0.77801 0.74294 0.0
C1585 C 0.95386 0.77382 0.73486 0.0
C1586 C 0.8702 0.78568 0.7714 0.0
C1587 C 0.84912 0.77463 0.75835 0.0
C1588 C 0.89054 0.78184 0.76455 0.0
C1589 C 0.89089 0.76689 0.74417 0.0
C1590 C 0.86968 0.75611 0.73108 0.0
C1591 C 0.84943 0.75976 0.73805 0.0
H1592 H 0.10938 0.0185 0.85495 0.0
H1593 H 0.08021 0.07581 0.85248 0.0
H1594 H 0.09544 0.01229 0.8923 0.0
H1595 H 0.06627 0.06954 0.88947 0.0
H1596 H 0.02374 0.03728 0.9418 0.0
H1597 H 0.03805 0.04136 0.90474 0.0
H1598 H 0.1011 0.03111 0.93483 0.0
H1599 H 0.08673 0.02708 0.97236 0.0
C1600 C 0.0999 0.02969 0.86224 0.0
C1601 C 0.09589 0.04763 0.85054 0.0
C1602 C 0.09205 0.02623 0.88377 0.0
C1603 C 0.07966 0.04037 0.89397 0.0
C1604 C 0.07552 0.05814 0.88211 0.0
C1605 C 0.08361 0.06179 0.86085 0.0
C1606 C 0.04065 0.03576 0.94065 0.0
C1607 C 0.05404 0.03186 0.96028 0.0
C1608 C 0.04891 0.03825 0.91931 0.0
C1609 C 0.0708 0.0367 0.9167 0.0
C1610 C 0.08412 0.03228 0.93613 0.0
C1611 C 0.07591 0.03006 0.9577 0.0
H1612 H 0.74927 0.33211 0.51631 0.0
H1613 H 0.79784 0.3827 0.56545 0.0
H1614 H 0.75597 0.3029 0.53984 0.0
H1615 H 0.80415 0.35387 0.58888 0.0
H1616 H 0.75653 0.2686 0.60953 0.0
H1617 H 0.75012 0.29138 0.57875 0.0
H1618 H 0.821 0.32184 0.58666 0.0
H1619 H 0.82731 0.30045 0.61829 0.0
C1620 C 0.76125 0.33701 0.53215 0.0
C1621 C 0.77309 0.35969 0.53899 0.0
C1622 C 0.76509 0.3203 0.54557 0.0
C1623 C 0.78088 0.32603 0.56595 0.0
C1624 C 0.79235 0.34878 0.5729 0.0
C1625 C 0.78855 0.36538 0.55958 0.0
C1626 C 0.77079 0.27998 0.60453 0.0
C1627 C 0.79236 0.28307 0.61688 0.0
C1628 C 0.76711 0.29285 0.58671 0.0
C1629 C 0.785 0.30884 0.58079 0.0
C1630 C 0.80681 0.31008 0.59133 0.0
C1631 C 0.81046 0.29747 0.60927 0.0
H1632 H 0.45498 0.0177 0.34065 0.0
H1633 H 0.40577 0.03663 0.38058 0.0
H1634 H 0.48191 0.02524 0.3761 0.0
H1635 H 0.43212 0.04276 0.41645 0.0
H1636 H 0.48721 0.06585 0.47652 0.0
H1637 H 0.46454 0.06493 0.43919 0.0
H1638 H 0.48947 0.00929 0.40937 0.0
H1639 H 0.51306 0.0113 0.44619 0.0
C1640 C 0.4499 0.02328 0.35714 0.0
C1641 C 0.42831 0.02642 0.35802 0.0
C1642 C 0.46529 0.02751 0.37749 0.0
C1643 C 0.45921 0.03441 0.39928 0.0
C1644 C 0.4376 0.03785 0.4 0.0
C1645 C 0.42238 0.03415 0.37951 0.0
C1646 C 0.48806 0.05371 0.46179 0.0
C1647 C 0.50183 0.03863 0.46417 0.0
C1648 C 0.47492 0.05301 0.44046 0.0
C1649 C 0.47491 0.03686 0.42124 0.0
C1650 C 0.48925 0.02223 0.42357 0.0
C1651 C 0.50275 0.02328 0.44473 0.0
H1652 H 0.73861 0.74344 0.06624 0.0
H1653 H 0.78668 0.70532 0.0851 0.0
H1654 H 0.74156 0.75941 0.10721 0.0
H1655 H 0.7888 0.72015 0.12611 0.0
H1656 H 0.80316 0.76196 0.19684 0.0
H1657 H 0.80152 0.75 0.15531 0.0
H1658 H 0.7324 0.75354 0.14409 0.0
H1659 H 0.73466 0.76687 0.18586 0.0
C1660 C 0.74983 0.73844 0.07915 0.0
C1661 C 0.76251 0.72317 0.07224 0.0
C1662 C 0.75137 0.74745 0.10281 0.0
C1663 C 0.76541 0.74121 0.12041 0.0
C1664 C 0.77814 0.72594 0.11333 0.0
C1665 C 0.77687 0.71725 0.08966 0.0
C1666 C 0.7876 0.76029 0.18551 0.0
C1667 C 0.76898 0.76526 0.1948 0.0
C1668 C 0.78657 0.75318 0.16154 0.0
C1669 C 0.76671 0.75028 0.14595 0.0
C1670 C 0.74814 0.75571 0.15524 0.0
C1671 C 0.74933 0.76329 0.1793 0.0
H1672 H 0.11377 0.03665 0.71149 0.0
H1673 H 0.0539 0.0554 0.72863 0.0
H1674 H 0.1017 0.03652 0.67017 0.0
H1675 H 0.04135 0.05455 0.68699 0.0
H1676 H 0.03546 0.07071 0.61035 0.0
H1677 H 0.04696 0.0725 0.65254 0.0
H1678 H 0.07594 0.01559 0.63853 0.0
H1679 H 0.06523 0.01428 0.59697 0.0
C1680 C 0.09787 0.04052 0.70646 0.0
C1681 C 0.0848 0.04589 0.72355 0.0
C1682 C 0.09084 0.04035 0.6826 0.0
C1683 C 0.07036 0.04535 0.67493 0.0
C1684 C 0.0573 0.05083 0.69206 0.0
C1685 C 0.06443 0.05112 0.71602 0.0
C1686 C 0.04433 0.05865 0.61633 0.0
C1687 C 0.0496 0.04256 0.60006 0.0
C1688 C 0.05085 0.05957 0.64058 0.0
C1689 C 0.0627 0.04436 0.64918 0.0
C1690 C 0.06745 0.02803 0.63281 0.0
C1691 C 0.06112 0.02721 0.60877 0.0
H1692 H 0.79281 0.34852 0.46277 0.0
H1693 H 0.77577 0.40258 0.42867 0.0
H1694 H 0.7864 0.32461 0.42519 0.0
H1695 H 0.77078 0.37928 0.39065 0.0
H1696 H 0.74804 0.3273 0.32623 0.0
H1697 H 0.74923 0.34832 0.36475 0.0
H1698 H 0.80305 0.32009 0.39202 0.0
H1699 H 0.80074 0.29813 0.35403 0.0
C1700 C 0.78792 0.35534 0.4471 0.0
C1701 C 0.78494 0.37739 0.44849 0.0
C1702 C 0.78436 0.34169 0.42551 0.0
C1703 C 0.77832 0.35003 0.40473 0.0
C1704 C 0.77508 0.37211 0.40625 0.0
C1705 C 0.7781 0.38557 0.42798 0.0
C1706 C 0.75988 0.32542 0.34062 0.0
C1707 C 0.77423 0.31104 0.33724 0.0
C1708 C 0.76073 0.33762 0.36265 0.0
C1709 C 0.7763 0.33604 0.38159 0.0
C1710 C 0.79048 0.32142 0.37809 0.0
C1711 C 0.78927 0.30887 0.35624 0.0
H1712 H 0.40714 0.00742 0.23972 0.0
H1713 H 0.46337 0.05849 0.2783 0.0
H1714 H 0.42934 0.00118 0.20886 0.0
H1715 H 0.48558 0.05239 0.24692 0.0
H1716 H 0.5232 0.01725 0.1948 0.0
H1717 H 0.5024 0.02253 0.22772 0.0
H1718 H 0.44465 0.02324 0.17905 0.0
H1719 H 0.46507 0.01738 0.14642 0.0
C1720 C 0.42423 0.0174 0.24159 0.0
C1721 C 0.43346 0.03359 0.26138 0.0
C1722 C 0.43692 0.01384 0.22386 0.0
C1723 C 0.45911 0.0264 0.22545 0.0
C1724 C 0.46853 0.04237 0.24537 0.0
C1725 C 0.45579 0.04597 0.2632 0.0
C1726 C 0.506 0.01836 0.19125 0.0
C1727 C 0.49574 0.017 0.16813 0.0
C1728 C 0.49421 0.02159 0.21002 0.0
C1729 C 0.47194 0.02327 0.20588 0.0
C1730 C 0.46172 0.02177 0.18274 0.0
C1731 C 0.47347 0.01864 0.16408 0.0
H1732 H 0.75706 0.69223 0.93324 0.0
H1733 H 0.80953 0.75106 0.9633 0.0
H1734 H 0.7578 0.70514 0.89477 0.0
H1735 H 0.81049 0.76371 0.92505 0.0
H1736 H 0.79023 0.79343 0.86007 0.0
H1737 H 0.78882 0.77918 0.89742 0.0
H1738 H 0.78013 0.71121 0.8625 0.0
H1739 H 0.78121 0.72556 0.8247 0.0
C1740 C 0.76876 0.7079 0.9317 0.0
C1741 C 0.78314 0.72062 0.95155 0.0
C1742 C 0.7693 0.71524 0.90954 0.0
C1743 C 0.78415 0.73558 0.90663 0.0
C1744 C 0.79856 0.74817 0.92652 0.0
C1745 C 0.79807 0.74082 0.94856 0.0
C1746 C 0.78806 0.77542 0.8602 0.0
C1747 C 0.78593 0.76072 0.83918 0.0
C1748 C 0.78737 0.76722 0.88179 0.0
C1749 C 0.7845 0.74399 0.88322 0.0
C1750 C 0.7822 0.72918 0.86218 0.0
C1751 C 0.78298 0.73744 0.84046 0.0
H1752 H 0.82708 0.09163 0.03757 0.0
H1753 H 0.80549 0.10085 0.96662 0.0
H1754 H 0.85005 0.06742 0.02293 0.0
H1755 H 0.82857 0.07643 0.95196 0.0
H1756 H 0.8983 0.05741 0.94568 0.0
H1757 H 0.87013 0.07806 0.95443 0.0
H1758 H 0.84443 0.02947 -0.00074 0.0
H1759 H 0.87277 0.00932 0.99122 0.0
C1760 C 0.82719 0.08845 0.01885 0.0
C1761 C 0.81447 0.09815 0.00326 0.0
C1762 C 0.84021 0.07443 0.01045 0.0
C1763 C 0.8409 0.06989 0.98629 0.0
C1764 C 0.82832 0.07968 0.97066 0.0
C1765 C 0.8151 0.09359 0.97907 0.0
C1766 C 0.88638 0.05095 0.95708 0.0
C1767 C 0.88792 0.03183 0.96789 0.0
C1768 C 0.87019 0.06269 0.96197 0.0
C1769 C 0.85538 0.05553 0.97782 0.0
C1770 C 0.85589 0.03554 0.98726 0.0
C1771 C 0.87197 0.02381 0.98236 0.0
H1772 H 0.34976 0.4463 0.04131 0.0
H1773 H 0.38538 0.3938 0.03261 0.0
H1774 H 0.38462 0.47499 0.04215 0.0
H1775 H 0.4199 0.42226 0.03302 0.0
H1776 H 0.48207 0.47715 0.058 0.0
H1777 H 0.44652 0.45125 0.05976 0.0
H1778 H 0.41249 0.49001 0.01718 0.0
H1779 H 0.44836 0.51643 0.01575 0.0
C1780 C 0.36499 0.44086 0.03957 0.0
C1781 C 0.36474 0.4177 0.037 0.0
C1782 C 0.38496 0.45731 0.03991 0.0
C1783 C 0.40515 0.451 0.03779 0.0
C1784 C 0.40479 0.42783 0.03514 0.0
C1785 C 0.38491 0.41144 0.03476 0.0
C1786 C 0.46705 0.48035 0.04912 0.0
C1787 C 0.46817 0.49885 0.03656 0.0
C1788 C 0.4466 0.46534 0.05001 0.0
C1789 C 0.4266 0.46827 0.03831 0.0
C1790 C 0.42755 0.48727 0.02648 0.0
C1791 C 0.44812 0.5024 0.02562 0.0
H1792 H 0.42694 0.61024 0.75922 0.0
H1793 H 0.37975 0.55856 0.78515 0.0
H1794 H 0.40381 0.63676 0.76667 0.0
H1795 H 0.35683 0.58522 0.79298 0.0
H1796 H 0.30923 0.63129 0.77888 0.0
H1797 H 0.33256 0.60478 0.7726 0.0
H1798 H 0.39165 0.65844 0.79792 0.0
H1799 H 0.36831 0.68497 0.80424 0.0
C1800 C 0.4117 0.60454 0.76663 0.0
C1801 C 0.40524 0.5822 0.77152 0.0
C1802 C 0.39847 0.61983 0.77104 0.0
C1803 C 0.37838 0.6132 0.78043 0.0
C1804 C 0.372 0.59088 0.78545 0.0
C1805 C 0.38525 0.5756 0.78108 0.0
C1806 C 0.32718 0.63742 0.78339 0.0
C1807 C 0.33681 0.66035 0.79207 0.0
C1808 C 0.3406 0.62218 0.77977 0.0
C1809 C 0.36405 0.62941 0.78471 0.0
C1810 C 0.37369 0.6523 0.79354 0.0
C1811 C 0.36027 0.66755 0.79718 0.0
H1812 H 0.22526 0.58688 0.55111 0.0
H1813 H 0.20795 0.64896 0.57566 0.0
H1814 H 0.18594 0.56703 0.54509 0.0
H1815 H 0.1686 0.62891 0.57013 0.0
H1816 H 0.10024 0.59272 0.52861 0.0
H1817 H 0.13977 0.61206 0.5368 0.0
H1818 H 0.15434 0.55407 0.56543 0.0
H1819 H 0.11494 0.53451 0.55677 0.0
C1820 C 0.2131 0.59622 0.55559 0.0
C1821 C 0.2197 0.61953 0.56373 0.0
C1822 C 0.19056 0.58481 0.5522 0.0
C1823 C 0.17416 0.59646 0.55694 0.0
C1824 C 0.18083 0.61959 0.5659 0.0
C1825 C 0.20339 0.63101 0.56926 0.0
C1826 C 0.11189 0.58406 0.53656 0.0
C1827 C 0.10446 0.56208 0.54201 0.0
C1828 C 0.1345 0.59522 0.54144 0.0
C1829 C 0.15014 0.58464 0.55191 0.0
C1830 C 0.14272 0.56259 0.55717 0.0
C1831 C 0.12013 0.55141 0.55224 0.0
H1832 H 0.72931 0.00915 0.78722 0.0
H1833 H 0.67652 0.95379 0.79915 0.0
H1834 H 0.75705 -0.00794 0.80601 0.0
H1835 H 0.70433 0.93614 0.81711 0.0
H1836 H 0.75783 0.91332 0.85895 0.0
H1837 H 0.73268 0.93746 0.84942 0.0
H1838 H 0.7715 0.96051 0.79543 0.0
H1839 H 0.79648 0.9369 0.80509 0.0
C1840 C 0.72364 -0.00675 0.79377 0.0
C1841 C 0.70076 0.98263 0.79144 0.0
C1842 C 0.73954 0.98345 0.80455 0.0
C1843 C 0.73295 0.96265 0.81294 0.0
C1844 C 0.71 0.95234 0.81117 0.0
C1845 C 0.69405 0.96231 0.80063 0.0
C1846 C 0.76118 0.92394 0.8454 0.0
C1847 C 0.77915 0.92319 0.8328 0.0
C1848 C 0.74673 0.93765 0.83984 0.0
C1849 C 0.74993 0.95076 0.8215 0.0
C1850 C 0.76867 0.95095 0.8099 0.0
C1851 C 0.7831 0.93739 0.81551 0.0
H1852 H 0.71288 0.89266 0.55447 0.0
H1853 H 0.75518 0.93138 0.51145 0.0
H1854 H 0.68655 0.91635 0.54957 0.0
H1855 H 0.72861 0.95484 0.50619 0.0
H1856 H 0.68835 0.00744 0.52342 0.0
H1857 H 0.71464 0.9836 0.52764 0.0
H1858 H 0.65946 0.92472 0.52084 0.0
H1859 H 0.63317 0.94853 0.51658 0.0
C1860 C 0.71653 0.90615 0.54384 0.0
C1861 C 0.73622 0.91008 0.53339 0.0
C1862 C 0.70133 0.91968 0.54092 0.0
C1863 C 0.70538 0.93757 0.52747 0.0
C1864 C 0.72504 0.94143 0.51692 0.0
C1865 C 0.74024 0.92786 0.51982 0.0
C1866 C 0.68178 0.98938 0.52259 0.0
C1867 C 0.65856 0.97999 0.51969 0.0
C1868 C 0.6969 0.97568 0.52501 0.0
C1869 C 0.68925 0.95217 0.52461 0.0
C1870 C 0.66602 0.94277 0.52163 0.0
C1871 C 0.65091 0.95647 0.5192 0.0
H1872 H 0.4102 0.42933 0.73555 0.0
H1873 H 0.36645 0.46641 0.766 0.0
H1874 H 0.38351 0.39389 0.73732 0.0
H1875 H 0.33976 0.43071 0.76806 0.0
H1876 H 0.28953 0.35951 0.75079 0.0
H1877 H 0.31341 0.3958 0.74487 0.0
H1878 H 0.37198 0.37363 0.76947 0.0
H1879 H 0.34858 0.33782 0.77511 0.0
C1880 C 0.39484 0.42997 0.74252 0.0
C1881 C 0.39063 0.45078 0.75085 0.0
C1882 C 0.37954 0.40959 0.74363 0.0
C1883 C 0.35959 0.40942 0.75309 0.0
C1884 C 0.35491 0.43024 0.76056 0.0
C1885 C 0.37028 0.45069 0.75949 0.0
C1886 C 0.3075 0.36242 0.75488 0.0
C1887 C 0.31704 0.34566 0.76344 0.0
C1888 C 0.32117 0.38324 0.75158 0.0
C1889 C 0.34464 0.38756 0.7565 0.0
C1890 C 0.35403 0.37078 0.76508 0.0
C1891 C 0.34049 0.35021 0.76851 0.0
H1892 H 0.20877 0.58232 0.21836 0.0
H1893 H 0.18708 0.59088 0.28637 0.0
H1894 H 0.22795 0.62238 0.22396 0.0
H1895 H 0.20663 0.63065 0.29215 0.0
H1896 H 0.21967 0.7049 0.28101 0.0
H1897 H 0.20239 0.66461 0.27655 0.0
H1898 H 0.25958 0.65021 0.24737 0.0
H1899 H 0.27672 0.69064 0.25131 0.0
C1900 C 0.20824 0.59269 0.23456 0.0
C1901 C 0.19629 0.58346 0.25185 0.0
C1902 C 0.21934 0.6156 0.23783 0.0
C1903 C 0.21873 0.62969 0.25847 0.0
C1904 C 0.20711 0.62032 0.2759 0.0
C1905 C 0.19598 0.59749 0.27261 0.0
C1906 C 0.22862 0.69317 0.27371 0.0
C1907 C 0.24954 0.70099 0.26643 0.0
C1908 C 0.21876 0.67005 0.27128 0.0
C1909 C 0.22961 0.65422 0.26158 0.0
C1910 C 0.25068 0.66201 0.25462 0.0
C1911 C 0.26056 0.68517 0.25704 0.0
H1912 H 0.52772 0.71178 0.4707 0.0
H1913 H 0.45712 0.68073 0.46066 0.0
H1914 H 0.53523 0.67792 0.4854 0.0
H1915 H 0.46421 0.64764 0.4763 0.0
H1916 H 0.48035 0.58037 0.48683 0.0
H1917 H 0.47373 0.61456 0.47295 0.0
H1918 H 0.53734 0.65282 0.51114 0.0
H1919 H 0.54427 0.6182 0.52392 0.0
C1920 C 0.5137 0.69794 0.47199 0.0
C1921 C 0.49174 0.69937 0.46428 0.0
C1922 C 0.51798 0.67823 0.48056 0.0
C1923 C 0.50047 0.65912 0.48212 0.0
C1924 C 0.47852 0.66111 0.47502 0.0
C1925 C 0.47432 0.68054 0.46617 0.0
C1926 C 0.49295 0.59605 0.49239 0.0
C1927 C 0.51289 0.59606 0.50671 0.0
C1928 C 0.48909 0.61608 0.48447 0.0
C1929 C 0.50482 0.63734 0.49073 0.0
C1930 C 0.5247 0.63726 0.50529 0.0
C1931 C 0.52867 0.61714 0.51294 0.0
H1932 H 0.61616 0.30878 0.67198 0.0
H1933 H 0.64427 0.2782 0.61571 0.0
H1934 H 0.64864 0.30753 0.69964 0.0
H1935 H 0.67631 0.2767 0.64312 0.0
H1936 H 0.74129 0.29414 0.69394 0.0
H1937 H 0.70973 0.29839 0.66726 0.0
H1938 H 0.66607 0.28151 0.71903 0.0
H1939 H 0.69771 0.27751 0.74583 0.0
C1940 C 0.62928 0.30194 0.66543 0.0
C1941 C 0.62742 0.29364 0.64146 0.0
C1942 C 0.6479 0.30103 0.68136 0.0
C1943 C 0.66534 0.29197 0.67381 0.0
C1944 C 0.66356 0.28408 0.64976 0.0
C1945 C 0.64497 0.28484 0.63395 0.0
C1946 C 0.725 0.29131 0.69972 0.0
C1947 C 0.72226 0.28534 0.72218 0.0
C1948 C 0.70675 0.29368 0.68429 0.0
C1949 C 0.68507 0.29027 0.69076 0.0
C1950 C 0.68241 0.28457 0.71335 0.0
C1951 C 0.70064 0.28209 0.72874 0.0
H1952 H 0.03232 0.34325 0.96335 0.0
H1953 H 0.96382 0.33767 0.97422 0.0
H1954 H 0.04071 0.38418 0.97597 0.0
H1955 H 0.97215 0.37789 0.98772 0.0
H1956 H 0.98476 0.45395 0.99027 0.0
H1957 H 0.97796 0.41343 0.97818 0.0
H1958 H 0.04686 0.41628 0.00335 0.0
H1959 H 0.05376 0.4571 0.01445 0.0
C1960 C 0.01911 0.35061 0.96885 0.0
C1961 C 0.99732 0.33681 0.9676 0.0
C1962 C 0.0239 0.3743 0.97617 0.0
C1963 C 0.00714 0.38512 0.98275 0.0
C1964 C 0.98559 0.37096 0.98224 0.0
C1965 C 0.9808 0.3475 0.97468 0.0
C1966 C 0.99852 0.44601 0.99328 0.0
C1967 C 0.01983 0.45921 0.0035 0.0
C1968 C 0.99458 0.42242 0.98645 0.0
C1969 C 0.01171 0.41079 0.9898 0.0
C1970 C 0.03309 0.42411 3e-05 0.0
C1971 C 0.03707 0.44777 0.00663 0.0
H1972 H 0.97276 0.75714 0.11581 0.0
H1973 H 0.01859 0.80635 0.16848 0.0
H1974 H 0.94372 0.75492 0.14098 0.0
H1975 H 0.98936 0.80392 0.19396 0.0
H1976 H 0.92343 0.81003 0.22248 0.0
H1977 H 0.95329 0.81316 0.19792 0.0
H1978 H 0.93372 0.74092 0.17661 0.0
H1979 H 0.90359 0.73788 0.20059 0.0
C1980 C 0.97672 0.76749 0.13282 0.0
C1981 C 0.99816 0.78192 0.14003 0.0
C1982 C 0.96001 0.76609 0.14738 0.0
C1983 C 0.96408 0.77913 0.16966 0.0
C1984 C 0.98549 0.79374 0.17687 0.0
C1985 C 0.00232 0.79505 0.16229 0.0
C1986 C 0.92537 0.79482 0.21242 0.0
C1987 C 0.91093 0.77369 0.21359 0.0
C1988 C 0.94271 0.79659 0.19851 0.0
C1989 C 0.94603 0.77732 0.18515 0.0
C1990 C 0.93162 0.75621 0.18638 0.0
C1991 C 0.91441 0.75442 0.20039 0.0
H1992 H 0.55071 0.34175 0.18543 0.0
H1993 H 0.5087 0.29191 0.13058 0.0
H1994 H 0.55314 0.37024 0.15925 0.0
H1995 H 0.51066 0.32073 0.10433 0.0
H1996 H 0.53729 0.37314 0.05645 0.0
H1997 H 0.53441 0.34392 0.08201 0.0
H1998 H 0.53279 0.39317 0.14063 0.0
H1999 H 0.53677 0.42256 0.11537 0.0
C2000 C 0.54184 0.33683 0.16778 0.0
C2001 C 0.52946 0.3144 0.16025 0.0
C2002 C 0.54311 0.35333 0.15272 0.0
C2003 C 0.53199 0.34805 0.12954 0.0
C2004 C 0.51967 0.32553 0.12192 0.0
C2005 C 0.51843 0.30896 0.13705 0.0
C2006 C 0.53657 0.37787 0.07484 0.0
C2007 C 0.53741 0.40046 0.08369 0.0
C2008 C 0.53459 0.36093 0.08952 0.0
C2009 C 0.53341 0.36598 0.11357 0.0
C2010 C 0.53399 0.38852 0.12235 0.0
C2011 C 0.53598 0.40543 0.1077 0.0
H2012 H 0.95542 0.27257 0.34971 0.0
H2013 H 0.97796 0.32826 0.3119 0.0
H2014 H 0.91697 0.27037 0.33445 0.0
H2015 H 0.93873 0.32587 0.2961 0.0
H2016 H 0.86209 0.32803 0.29215 0.0
H2017 H 0.90207 0.33174 0.30482 0.0
H2018 H 0.88952 0.25925 0.30125 0.0
H2019 H 0.84998 0.25563 0.28902 0.0
C2020 C 0.95229 0.28434 0.33789 0.0
C2021 C 0.97032 0.30056 0.33214 0.0
C2022 C 0.9299 0.28295 0.32891 0.0
C2023 C 0.92414 0.29779 0.31371 0.0
C2024 C 0.94213 0.31412 0.30781 0.0
C2025 C 0.96481 0.31539 0.31673 0.0
C2026 C 0.86783 0.31285 0.29401 0.0
C2027 C 0.8523 0.2915 0.28957 0.0
C2028 C 0.89098 0.31497 0.30121 0.0
C2029 C 0.89955 0.29586 0.30445 0.0
C2030 C 0.88397 0.27457 0.29956 0.0
C2031 C 0.861 0.27245 0.29231 0.0
H2032 H 0.99499 0.68426 0.64642 0.0
H2033 H 0.06702 0.69828 0.65715 0.0
H2034 H 0.99342 0.6479 0.62267 0.0
H2035 H 0.06546 0.66234 0.63388 0.0
H2036 H 0.05576 0.58701 0.60922 0.0
H2037 H 0.05452 0.62122 0.63447 0.0
H2038 H 0.00338 0.63272 0.58389 0.0
H2039 H 0.0047 0.59852 0.5585 0.0
C2040 C 0.01046 0.67958 0.64392 0.0
C2041 C 0.03112 0.6944 0.65379 0.0
C2042 C 0.00959 0.65876 0.63016 0.0
C2043 C 0.02934 0.65196 0.62628 0.0
C2044 C 0.04987 0.66667 0.63657 0.0
C2045 C 0.05074 0.68749 0.64989 0.0
C2046 C 0.04414 0.5967 0.60345 0.0
C2047 C 0.03044 0.58985 0.5816 0.0
C2048 C 0.04349 0.61648 0.61796 0.0
C2049 C 0.02889 0.62999 0.61133 0.0
C2050 C 0.01473 0.62279 0.58978 0.0
C2051 C 0.0156 0.60317 0.57509 0.0
H2052 H 0.64363 0.84006 0.86538 0.0
H2053 H 0.60192 0.7967 0.80577 0.0
H2054 H 0.67688 0.83482 0.84945 0.0
H2055 H 0.63571 0.79151 0.78939 0.0
H2056 H 0.70188 0.76887 0.77844 0.0
H2057 H 0.6673 0.77474 0.79171 0.0
H2058 H 0.70173 0.84288 0.82213 0.0
H2059 H 0.7363 0.83687 0.80906 0.0
C2060 C 0.64138 0.82946 0.84866 0.0
C2061 C 0.61955 0.81892 0.83708 0.0
C2062 C 0.6608 0.82654 0.83931 0.0
C2063 C 0.65965 0.81274 0.81782 0.0
C2064 C 0.63778 0.80217 0.80604 0.0
C2065 C 0.61817 0.80529 0.81539 0.0
C2066 C 0.70218 0.78521 0.78785 0.0
C2067 C 0.72241 0.80231 0.79252 0.0
C2068 C 0.68205 0.78866 0.79546 0.0
C2069 C 0.68111 0.80932 0.80834 0.0
C2070 C 0.70132 0.82652 0.81271 0.0
C2071 C 0.72141 0.82312 0.80497 0.0
H2072 H 0.43641 0.51625 0.6874 0.0
H2073 H 0.50391 0.55059 0.71803 0.0
H2074 H 0.44723 0.518 0.64829 0.0
H2075 H 0.5149 0.55179 0.67909 0.0
H2076 H 0.52447 0.56948 0.60608 0.0
H2077 H 0.51229 0.56886 0.64463 0.0
H2078 H 0.46751 0.5032 0.62073 0.0
H2079 H 0.47924 0.50416 0.58206 0.0
C2080 C 0.4536 0.52407 0.68584 0.0
C2081 C 0.46923 0.53328 0.70604 0.0
C2082 C 0.45989 0.52498 0.66332 0.0
C2083 C 0.48203 0.53508 0.66023 0.0
C2084 C 0.49762 0.54422 0.68051 0.0
C2085 C 0.49133 0.54337 0.70299 0.0
C2086 C 0.51192 0.55496 0.60897 0.0
C2087 C 0.50289 0.53689 0.59078 0.0
C2088 C 0.50502 0.5545 0.63124 0.0
C2089 C 0.48891 0.53591 0.63613 0.0
C2090 C 0.4797 0.51797 0.61778 0.0
C2091 C 0.48655 0.51847 0.5955 0.0
H2092 H 0.79209 0.18406 0.99187 0.0
H2093 H 0.73449 0.19778 0.02082 0.0
H2094 H 0.78783 0.20916 0.96298 0.0
H2095 H 0.73035 0.22315 0.99183 0.0
H2096 H 0.71555 0.23655 0.91354 0.0
H2097 H 0.71987 0.21778 0.94814 0.0
H2098 H 0.79057 0.24977 0.96008 0.0
H2099 H 0.78625 0.26861 0.92556 0.0
C2100 C 0.77862 0.19257 0.99218 0.0
C2101 C 0.76356 0.18887 0.00853 0.0
C2102 C 0.7763 0.2071 0.97575 0.0
C2103 C 0.75882 0.21816 0.97526 0.0
C2104 C 0.74391 0.21474 0.9918 0.0
C2105 C 0.74633 0.20029 0.0084 0.0
C2106 C 0.7319 0.24 0.92389 0.0
C2107 C 0.75062 0.25378 0.91672 0.0
C2108 C 0.73436 0.22926 0.94369 0.0
C2109 C 0.7556 0.23213 0.95658 0.0
C2110 C 0.77408 0.24696 0.95018 0.0
C2111 C 0.77161 0.2577 0.93045 0.0
H2112 H 0.13954 0.50329 0.18142 0.0
H2113 H 0.07561 0.48807 0.20676 0.0
H2114 H 0.12098 0.5063 0.14307 0.0
H2115 H 0.0571 0.49203 0.16872 0.0
H2116 H 0.08732 0.54355 0.09271 0.0
H2117 H 0.10422 0.53407 0.12869 0.0
H2118 H 0.0464 0.47882 0.12758 0.0
H2119 H 0.02903 0.48889 0.09161 0.0
C2120 C 0.12149 0.50038 0.17871 0.0
C2121 C 0.10906 0.49569 0.19714 0.0
C2122 C 0.11085 0.50229 0.15681 0.0
C2123 C 0.08758 0.49991 0.15295 0.0
C2124 C 0.07501 0.49388 0.17101 0.0
C2125 C 0.08565 0.49167 0.19286 0.0
C2126 C 0.07814 0.52938 0.1001 0.0
C2127 C 0.05682 0.51697 0.08929 0.0
C2128 C 0.08796 0.52378 0.12066 0.0
C2129 C 0.07685 0.50544 0.13088 0.0
C2130 C 0.05538 0.49312 0.12023 0.0
C2131 C 0.04542 0.49888 0.09964 0.0
H2132 H 0.81323 0.86084 0.462 0.0
H2133 H 0.74958 0.81346 0.46001 0.0
H2134 H 0.81447 0.84637 0.42131 0.0
H2135 H 0.75114 0.79845 0.41979 0.0
H2136 H 0.74562 0.79612 0.341 0.0
H2137 H 0.74671 0.80862 0.38221 0.0
H2138 H 0.81823 0.81641 0.39307 0.0
H2139 H 0.81721 0.80443 0.35113 0.0
C2140 C 0.79964 0.84711 0.45302 0.0
C2141 C 0.7812 0.83849 0.46433 0.0
C2142 C 0.80039 0.83869 0.42963 0.0
C2143 C 0.78279 0.82133 0.4169 0.0
C2144 C 0.76479 0.81219 0.42862 0.0
C2145 C 0.76395 0.82071 0.45187 0.0
C2146 C 0.76166 0.80035 0.35206 0.0
C2147 C 0.78134 0.79914 0.34252 0.0
C2148 C 0.76226 0.80742 0.37594 0.0
C2149 C 0.78253 0.81343 0.39133 0.0
C2150 C 0.80229 0.81215 0.38186 0.0
C2151 C 0.8017 0.80512 0.35777 0.0
H2152 H 0.49818 0.56529 0.83569 0.0
H2153 H 0.45318 0.49958 0.832 0.0
H2154 H 0.51383 0.56275 0.87534 0.0
H2155 H 0.46816 0.49736 0.87224 0.0
H2156 H 0.50984 0.49412 0.94221 0.0
H2157 H 0.49769 0.49373 0.90042 0.0
H2158 H 0.50428 0.56586 0.91289 0.0
H2159 H 0.517 0.56634 0.95384 0.0
C2160 C 0.49161 0.55025 0.84334 0.0
C2161 C 0.47429 0.53273 0.83059 0.0
C2162 C 0.50047 0.54884 0.86628 0.0
C2163 C 0.49208 0.53001 0.87747 0.0
C2164 C 0.47526 0.51209 0.86437 0.0
C2165 C 0.46656 0.51339 0.84123 0.0
C2166 C 0.50886 0.50989 0.93593 0.0
C2167 C 0.5146 0.53025 0.95156 0.0
C2168 C 0.50174 0.50967 0.91193 0.0
C2169 C 0.50009 0.52981 0.90293 0.0
C2170 C 0.5058 0.55005 0.91872 0.0
C2171 C 0.51301 0.55028 0.94249 0.0
H2172 H 0.79044 0.16243 0.12022 0.0
H2173 H 0.82647 0.22035 0.09226 0.0
H2174 H 0.79085 0.18624 0.15651 0.0
H2175 H 0.82746 0.24428 0.12918 0.0
H2176 H 0.79393 0.28083 0.18608 0.0
H2177 H 0.80138 0.25977 0.15054 0.0
H2178 H 0.81415 0.20748 0.19052 0.0
H2179 H 0.80584 0.22794 0.22537 0.0
C2180 C 0.79885 0.1802 0.12198 0.0
C2181 C 0.80835 0.18949 0.1033 0.0
C2182 C 0.79921 0.19388 0.1429 0.0
C2183 C 0.80923 0.21721 0.1458 0.0
C2184 C 0.8194 0.22643 0.1274 0.0
C2185 C 0.81899 0.21268 0.10634 0.0
C2186 C 0.79861 0.26497 0.18715 0.0
C2187 C 0.79883 0.25569 0.20818 0.0
C2188 C 0.80298 0.25296 0.16691 0.0
C2189 C 0.80794 0.23171 0.16761 0.0
C2190 C 0.80973 0.22342 0.18918 0.0
C2191 C 0.80502 0.23516 0.20916 0.0
H2192 H 0.09323 0.56522 0.27959 0.0
H2193 H 0.10217 0.50482 0.30736 0.0
H2194 H 0.06631 0.56927 0.30649 0.0
H2195 H 0.07546 0.50899 0.33425 0.0
H2196 H 0.01747 0.51416 0.37181 0.0
H2197 H 0.03549 0.50875 0.33694 0.0
H2198 H 0.07142 0.57907 0.34997 0.0
H2199 H 0.05385 0.58443 0.38484 0.0
C2200 C 0.08927 0.55268 0.29123 0.0
C2201 C 0.09997 0.53483 0.29155 0.0
C2202 C 0.0739 0.55503 0.30662 0.0
C2203 C 0.06882 0.53946 0.32244 0.0
C2204 C 0.07883 0.52109 0.32205 0.0
C2205 C 0.09429 0.51883 0.3068 0.0
C2206 C 0.029 0.52852 0.36703 0.0
C2207 C 0.03439 0.54966 0.38123 0.0
C2208 C 0.03926 0.52542 0.34709 0.0
C2209 C 0.05497 0.54344 0.3409 0.0
C2210 C 0.05919 0.56492 0.35416 0.0
C2211 C 0.04905 0.568 0.37415 0.0
H2212 H 0.7663 0.83767 0.58732 0.0
H2213 H 0.82666 0.88428 0.62318 0.0
H2214 H 0.76077 0.82091 0.62332 0.0
H2215 H 0.82207 0.86698 0.65846 0.0
H2216 H 0.80016 0.84917 0.7262 0.0
H2217 H 0.8029 0.86474 0.68967 0.0
H2218 H 0.77053 0.7988 0.65103 0.0
H2219 H 0.76668 0.78359 0.68801 0.0
C2220 C 0.77857 0.84411 0.60278 0.0
C2221 C 0.79682 0.86248 0.60235 0.0
C2222 C 0.77547 0.83445 0.62351 0.0
C2223 C 0.79074 0.84266 0.64431 0.0
C2224 C 0.80941 0.86051 0.64336 0.0
C2225 C 0.81223 0.87037 0.62289 0.0
C2226 C 0.79349 0.83799 0.70992 0.0
C2227 C 0.78327 0.81508 0.71016 0.0
C2228 C 0.79527 0.84689 0.68877 0.0
C2229 C 0.78738 0.8331 0.66695 0.0
C2230 C 0.77671 0.81018 0.66724 0.0
C2231 C 0.77455 0.80136 0.68853 0.0
H2232 H 0.71737 0.42933 0.55871 0.0
H2233 H 0.75356 0.47883 0.52032 0.0
H2234 H 0.69331 0.45445 0.5683 0.0
H2235 H 0.72946 0.50386 0.52996 0.0
H2236 H 0.6925 0.55035 0.56832 0.0
H2237 H 0.71925 0.52654 0.5652 0.0
H2238 H 0.66437 0.46766 0.54302 0.0
H2239 H 0.63789 0.4913 0.54619 0.0
C2240 C 0.72027 0.4456 0.55244 0.0
C2241 C 0.73721 0.45205 0.53861 0.0
C2242 C 0.70651 0.45994 0.55793 0.0
C2243 C 0.70961 0.48106 0.54989 0.0
C2244 C 0.72691 0.48776 0.53658 0.0
C2245 C 0.74053 0.47334 0.53088 0.0
C2246 C 0.68629 0.53228 0.56309 0.0
C2247 C 0.66328 0.52259 0.55727 0.0
C2248 C 0.7015 0.51873 0.56119 0.0
C2249 C 0.6938 0.49532 0.55384 0.0
C2250 C 0.67073 0.48561 0.54891 0.0
C2251 C 0.65562 0.49914 0.55054 0.0
H2252 H 0.18584 0.16991 0.53161 0.0
H2253 H 0.20956 0.11995 0.48978 0.0
H2254 H 0.15045 0.14291 0.5306 0.0
H2255 H 0.17343 0.09277 0.48813 0.0
H2256 H 0.11312 0.04462 0.51469 0.0
H2257 H 0.14947 0.06965 0.51161 0.0
H2258 H 0.11766 0.12478 0.50468 0.0
H2259 H 0.082 0.10024 0.5086 0.0
C2260 C 0.18343 0.1532 0.52192 0.0
C2261 C 0.20059 0.14721 0.51067 0.0
C2262 C 0.16297 0.13766 0.52121 0.0
C2263 C 0.15885 0.11563 0.50903 0.0
C2264 C 0.17602 0.10952 0.49778 0.0
C2265 C 0.19668 0.12515 0.49859 0.0
C2266 C 0.11398 0.06204 0.51227 0.0
C2267 C 0.09479 0.07056 0.51232 0.0
C2268 C 0.13477 0.07639 0.51044 0.0
C2269 C 0.13665 0.09943 0.5084 0.0
C2270 C 0.11709 0.10739 0.50701 0.0
C2271 C 0.09655 0.09324 0.50913 0.0
H2272 H 0.14449 0.96138 0.80798 0.0
H2273 H 0.18182 0.00794 0.7676 0.0
H2274 H 0.1694 0.93642 0.80218 0.0
H2275 H 0.20646 0.9827 0.76133 0.0
H2276 H 0.26019 0.9434 0.77547 0.0
H2277 H 0.23553 0.96871 0.78129 0.0
H2278 H 0.17886 0.91101 0.77266 0.0
H2279 H 0.20353 0.88576 0.76699 0.0
C2280 C 0.15794 0.96627 0.79776 0.0
C2281 C 0.1611 0.98672 0.78828 0.0
C2282 C 0.17219 0.95185 0.7943 0.0
C2283 C 0.18999 0.95745 0.78122 0.0
C2284 C 0.19314 0.97793 0.77175 0.0
C2285 C 0.1789 -0.00763 0.77523 0.0
C2286 C 0.24245 0.93611 0.77462 0.0
C2287 C 0.23391 0.9125 0.77081 0.0
C2288 C 0.22827 0.95065 0.77795 0.0
C2289 C 0.20514 0.94197 0.7775 0.0
C2290 C 0.1966 0.91835 0.77356 0.0
C2291 C 0.21078 0.90383 0.77029 0.0
H2292 H 0.34189 0.96892 0.02692 0.0
H2293 H 0.35681 0.92107 0.97425 0.0
H2294 H 0.38087 0.99027 0.03305 0.0
H2295 H 0.39582 0.94246 0.9805 0.0
H2296 H 0.45691 0.00062 0.98029 0.0
H2297 H 0.41768 0.98061 0.97429 0.0
H2298 H 0.41834 0.98416 0.04914 0.0
H2299 H 0.45784 0.00439 0.05532 0.0
C2300 C 0.35345 0.96302 0.01656 0.0
C2301 C 0.34627 0.9433 7e-05 0.0
C2302 C 0.37578 0.97516 0.02023 0.0
C2303 C 0.39133 0.96796 0.00732 0.0
C2304 C 0.38412 0.94847 0.99057 0.0
C2305 C 0.36181 0.9362 0.98705 0.0
C2306 C 0.44874 -0.00273 -0.00446 0.0
C2307 C 0.46052 0.00408 0.01832 0.0
C2308 C 0.42628 0.98566 0.99204 0.0
C2309 C 0.41503 0.98075 0.01123 0.0
C2310 C 0.42662 0.98788 0.03404 0.0
C2311 C 0.44922 -0.00064 0.03757 0.0
H2312 H 0.83141 0.57775 0.83 0.0
H2313 H 0.84527 0.56033 0.75985 0.0
H2314 H 0.80676 0.60027 0.81501 0.0
H2315 H 0.82002 0.58205 0.74473 0.0
H2316 H 0.8009 0.64873 0.73384 0.0
H2317 H 0.82059 0.62092 0.74556 0.0
H2318 H 0.77211 0.59984 0.79186 0.0
H2319 H 0.75268 0.62825 0.78042 0.0
C2320 C 0.82896 0.57851 0.81135 0.0
C2321 C 0.84048 0.56757 0.79615 0.0
C2322 C 0.81468 0.59124 0.80271 0.0
C2323 C 0.81148 0.59304 0.77866 0.0
C2324 C 0.82244 0.58138 0.76339 0.0
C2325 C 0.83688 0.5689 0.77206 0.0
C2326 C 0.79414 0.63778 0.74609 0.0
C2327 C 0.77531 0.64064 0.75626 0.0
C2328 C 0.80543 0.62181 0.75283 0.0
C2329 C 0.79801 0.60823 0.76978 0.0
C2330 C 0.7785 0.61034 0.77911 0.0
C2331 C 0.7673 0.62648 0.77248 0.0
H2332 H 0.8588 0.68102 0.01476 0.0
H2333 H 0.80346 0.62432 0.01714 0.0
H2334 H 0.88467 0.6568 0.01909 0.0
H2335 H 0.82939 0.60021 0.02218 0.0
H2336 H 0.87954 0.55788 0.0079 0.0
H2337 H 0.85362 0.58194 0.00256 0.0
H2338 H 0.90118 0.6374 0.04681 0.0
H2339 H 0.92719 0.61338 0.05186 0.0
C2340 C 0.85213 0.6634 0.0163 0.0
C2341 C 0.829 0.65467 0.01559 0.0
C2342 C 0.86703 0.6495 0.01895 0.0
C2343 C 0.85923 0.62647 0.02109 0.0
C2344 C 0.83605 0.61774 0.02027 0.0
C2345 C 0.82115 0.63163 0.01751 0.0
C2346 C 0.88441 0.57516 0.01664 0.0
C2347 C 0.90549 0.58365 0.03033 0.0
C2348 C 0.8695 0.589 0.0136 0.0
C2349 C 0.8752 0.6117 0.02424 0.0
C2350 C 0.89629 0.62016 0.03798 0.0
C2351 C 0.91124 0.60635 0.04092 0.0
H2352 H 0.19264 0.09965 0.79774 0.0
H2353 H 0.14051 0.1335 0.77986 0.0
H2354 H 0.2209 0.13494 0.79815 0.0
H2355 H 0.16859 0.16847 0.78012 0.0
H2356 H 0.22159 0.23267 0.80525 0.0
H2357 H 0.19605 0.19698 0.8081 0.0
H2358 H 0.23643 0.16103 0.77026 0.0
H2359 H 0.26236 0.19708 0.76744 0.0
C2360 C 0.18719 0.11461 0.79404 0.0
C2361 C 0.16427 0.11373 0.78884 0.0
C2362 C 0.20339 0.13478 0.7941 0.0
C2363 C 0.19703 0.15456 0.78923 0.0
C2364 C 0.1741 0.15366 0.78426 0.0
C2365 C 0.15797 0.13353 0.78401 0.0
C2366 C 0.2252 0.21723 0.79758 0.0
C2367 C 0.24398 0.21785 0.78586 0.0
C2368 C 0.21044 0.19671 0.79917 0.0
C2369 C 0.21399 0.17614 0.78914 0.0
C2370 C 0.23325 0.17659 0.77824 0.0
C2371 C 0.24808 0.19724 0.77657 0.0
H2372 H 0.35261 0.95089 0.24027 0.0
H2373 H 0.32903 0.96021 0.30715 0.0
H2374 H 0.33673 0.9103 0.23673 0.0
H2375 H 0.31216 0.91983 0.30315 0.0
H2376 H 0.31187 0.84649 0.30482 0.0
H2377 H 0.32519 0.887 0.30594 0.0
H2378 H 0.3041 0.88011 0.23131 0.0
H2379 H 0.29162 0.83917 0.2301 0.0
C2380 C 0.34363 0.94428 0.25399 0.0
C2381 C 0.34226 0.95859 0.27412 0.0
C2382 C 0.33443 0.92103 0.25192 0.0
C2383 C 0.32342 0.91174 0.2698 0.0
C2384 C 0.32108 0.92633 0.28935 0.0
C2385 C 0.33059 0.94948 0.29159 0.0
C2386 C 0.31008 0.85362 0.28864 0.0
C2387 C 0.3007 0.83973 0.26738 0.0
C2388 C 0.31754 0.87689 0.2893 0.0
C2389 C 0.31545 0.8869 0.26876 0.0
C2390 C 0.30615 0.87294 0.24741 0.0
C2391 C 0.29896 0.84952 0.2467 0.0
H2392 H 0.53044 0.34922 0.56485 0.0
H2393 H 0.59371 0.38898 0.60171 0.0
H2394 H 0.523 0.38321 0.55007 0.0
H2395 H 0.58701 0.42233 0.58644 0.0
H2396 H 0.5642 0.48588 0.57517 0.0
H2397 H 0.5704 0.4513 0.58824 0.0
H2398 H 0.52707 0.41219 0.52702 0.0
H2399 H 0.52015 0.44712 0.51452 0.0
C2400 C 0.54297 0.36506 0.56957 0.0
C2401 C 0.56271 0.36595 0.58474 0.0
C2402 C 0.53873 0.38483 0.56101 0.0
C2403 C 0.55412 0.40634 0.56708 0.0
C2404 C 0.57412 0.40678 0.58163 0.0
C2405 C 0.57818 0.38725 0.59033 0.0
C2406 C 0.55597 0.46998 0.56433 0.0
C2407 C 0.54168 0.46979 0.54357 0.0
C2408 C 0.55971 0.44977 0.57182 0.0
C2409 C 0.54957 0.42817 0.55882 0.0
C2410 C 0.53521 0.42802 0.53798 0.0
C2411 C 0.53131 0.44832 0.53059 0.0
H2412 H 0.41031 0.7823 0.42383 0.0
H2413 H 0.43996 0.74954 0.37038 0.0
H2414 H 0.37785 0.78064 0.39554 0.0
H2415 H 0.40701 0.74756 0.34183 0.0
H2416 H 0.35568 0.77151 0.29182 0.0
H2417 H 0.3879 0.77043 0.31956 0.0
H2418 H 0.34496 0.75686 0.37262 0.0
H2419 H 0.31281 0.75827 0.34498 0.0
C2420 C 0.40988 0.77451 0.40604 0.0
C2421 C 0.428 0.76605 0.39959 0.0
C2422 C 0.39102 0.77343 0.38971 0.0
C2423 C 0.38947 0.76393 0.36615 0.0
C2424 C 0.40751 0.75524 0.35967 0.0
C2425 C 0.42642 0.7562 0.37614 0.0
C2426 C 0.35302 0.76823 0.30938 0.0
C2427 C 0.33143 0.76508 0.316 0.0
C2428 C 0.37161 0.76745 0.32535 0.0
C2429 C 0.36934 0.76361 0.3486 0.0
C2430 C 0.34766 0.7602 0.3551 0.0
C2431 C 0.32907 0.76089 0.3391 0.0
H2432 H 0.04099 0.71795 0.09927 0.0
H2433 H 0.07148 0.72665 0.03658 0.0
H2434 H 0.03667 0.67705 0.09105 0.0
H2435 H 0.06659 0.686 0.02791 0.0
H2436 H 0.0741 0.61358 0.02676 0.0
H2437 H 0.07851 0.65427 0.03608 0.0
H2438 H 0.01875 0.64202 0.06927 0.0
H2439 H 0.01486 0.6014 0.0606 0.0
C2440 C 0.04657 0.7112 0.08357 0.0
C2441 C 0.05663 0.726 0.0687 0.0
C2442 C 0.04402 0.68751 0.07872 0.0
C2443 C 0.05136 0.67759 0.05874 0.0
C2444 C 0.06109 0.6925 0.04374 0.0
C2445 C 0.06372 0.7161 0.04865 0.0
C2446 C 0.06191 0.61949 0.03614 0.0
C2447 C 0.04415 0.60379 0.0429 0.0
C2448 C 0.06432 0.64308 0.04139 0.0
C2449 C 0.04898 0.65208 0.05349 0.0
C2450 C 0.03125 0.63627 0.0603 0.0
C2451 C 0.02892 0.6127 0.05515 0.0
H2452 H 0.08364 0.30916 0.92586 0.0
H2453 H 0.04066 0.2541 0.87701 0.0
H2454 H 0.11273 0.31138 0.90077 0.0
H2455 H 0.06992 0.25651 0.85157 0.0
H2456 H 0.13691 0.25341 0.82391 0.0
H2457 H 0.1072 0.25005 0.84867 0.0
H2458 H 0.12147 0.32282 0.86379 0.0
H2459 H 0.15147 0.32616 0.83966 0.0
C2460 C 0.08032 0.2975 0.90972 0.0
C2461 C 0.05964 0.28146 0.90355 0.0
C2462 C 0.09705 0.29889 0.89518 0.0
C2463 C 0.09379 0.28424 0.87395 0.0
C2464 C 0.07319 0.26799 0.86784 0.0
C2465 C 0.05632 0.26667 0.88239 0.0
C2466 C 0.13385 0.26871 0.83266 0.0
C2467 C 0.14677 0.29008 0.8297 0.0
C2468 C 0.11658 0.26678 0.84669 0.0
C2469 C 0.11181 0.28614 0.85838 0.0
C2470 C 0.12471 0.30748 0.85536 0.0
C2471 C 0.14185 0.30941 0.84124 0.0
H2472 H 0.57816 0.78415 0.93844 0.0
H2473 H 0.52397 0.75067 0.88373 0.0
H2474 H 0.57079 0.75129 0.95901 0.0
H2475 H 0.51677 0.71748 0.90421 0.0
H2476 H 0.49553 0.67146 0.95991 0.0
H2477 H 0.50264 0.70384 0.93849 0.0
H2478 H 0.57369 0.71287 0.95758 0.0
H2479 H 0.56656 0.68098 0.97967 0.0
C2480 C 0.56469 0.76974 0.93069 0.0
C2481 C 0.5517 0.77021 0.90932 0.0
C2482 C 0.56054 0.75073 0.94248 0.0
C2483 C 0.5432 0.73149 0.93336 0.0
C2484 C 0.53013 0.73197 0.91199 0.0
C2485 C 0.53434 0.75102 0.90013 0.0
C2486 C 0.5127 0.68042 0.95973 0.0
C2487 C 0.53043 0.67348 0.97176 0.0
C2488 C 0.5168 0.69892 0.94714 0.0
C2489 C 0.53878 0.71121 0.94622 0.0
C2490 C 0.55652 0.70413 0.95805 0.0
C2491 C 0.55242 0.68557 0.97056 0.0
H2492 H 0.09958 0.7878 0.71728 0.0
H2493 H 0.09209 0.72552 0.74683 0.0
H2494 H 0.14036 0.79517 0.72709 0.0
H2495 H 0.13228 0.73304 0.75728 0.0
H2496 H 0.20631 0.73873 0.75505 0.0
H2497 H 0.16607 0.73291 0.74506 0.0
H2498 H 0.17361 0.80519 0.75354 0.0
H2499 H 0.21409 0.8109 0.76276 0.0
C2500 C 0.10651 0.7758 0.72618 0.0
C2501 C 0.09212 0.75599 0.73112 0.0
C2502 C 0.13012 0.78003 0.73191 0.0
C2503 C 0.14034 0.76466 0.7429 0.0
C2504 C 0.12572 0.74519 0.74832 0.0
C2505 C 0.1023 0.74094 0.74248 0.0
C2506 C 0.1995 0.75346 0.75482 0.0
C2507 C 0.21392 0.77532 0.75987 0.0
C2508 C 0.17608 0.75013 0.7492 0.0
C2509 C 0.16583 0.7685 0.74853 0.0
C2510 C 0.18035 0.79041 0.75348 0.0
C2511 C 0.20383 0.79374 0.75899 0.0
H2512 H 0.01294 0.35776 0.43059 0.0
H2513 H 0.06597 0.3926 0.39598 0.0
H2514 H 0.01447 0.39258 0.4556 0.0
H2515 H 0.06774 0.42794 0.4216 0.0
H2516 H 0.04712 0.4917 0.45746 0.0
H2517 H 0.04782 0.45766 0.43128 0.0
H2518 H 0.03667 0.41808 0.48782 0.0
H2519 H 0.03566 0.45171 0.51365 0.0
C2520 C 0.02512 0.37284 0.42833 0.0
C2521 C 0.03939 0.37207 0.41111 0.0
C2522 C 0.02608 0.39299 0.44293 0.0
C2523 C 0.04135 0.41336 0.44099 0.0
C2524 C 0.05563 0.41274 0.42366 0.0
C2525 C 0.05474 0.39238 0.40902 0.0
C2526 C 0.04485 0.47574 0.46434 0.0
C2527 C 0.04118 0.47468 0.48783 0.0
C2528 C 0.04539 0.45615 0.44928 0.0
C2529 C 0.04213 0.4348 0.45717 0.0
C2530 C 0.03884 0.43394 0.48076 0.0
C2531 C 0.03837 0.45343 0.49575 0.0
H2532 H 0.46325 0.26792 0.24863 0.0
H2533 H 0.42422 0.2467 0.1803 0.0
H2534 H 0.42928 0.27277 0.265 0.0
H2535 H 0.39099 0.25171 0.19622 0.0
H2536 H 0.328 0.24407 0.23072 0.0
H2537 H 0.36248 0.23818 0.21763 0.0
H2538 H 0.40077 0.2938 0.26883 0.0
H2539 H 0.36601 0.29946 0.28219 0.0
C2540 C 0.44756 0.26415 0.23702 0.0
C2541 C 0.44701 0.25676 0.21292 0.0
C2542 C 0.42788 0.26711 0.24643 0.0
C2543 C 0.4067 0.26256 0.23222 0.0
C2544 C 0.40638 0.25508 0.20823 0.0
C2545 C 0.42587 0.25232 0.19891 0.0
C2546 C 0.34368 0.25509 0.23939 0.0
C2547 C 0.34366 0.27235 0.25767 0.0
C2548 C 0.36378 0.2518 0.23166 0.0
C2549 C 0.38509 0.26558 0.24176 0.0
C2550 C 0.38511 0.28256 0.26044 0.0
C2551 C 0.36491 0.28592 0.26813 0.0
H2552 H 0.63647 0.56275 0.38164 0.0
H2553 H 0.5751 0.52593 0.33822 0.0
H2554 H 0.61841 0.55832 0.41643 0.0
H2555 H 0.55699 0.52084 0.37338 0.0
H2556 H 0.52572 0.53503 0.4406 0.0
H2557 H 0.54268 0.53867 0.40479 0.0
H2558 H 0.60498 0.53224 0.44132 0.0
H2559 H 0.58818 0.52929 0.47723 0.0
C2560 C 0.61908 0.55358 0.37946 0.0
C2561 C 0.60733 0.54468 0.35695 0.0
C2562 C 0.6087 0.55085 0.39959 0.0
C2563 C 0.58618 0.53898 0.39804 0.0
C2564 C 0.57428 0.53026 0.37546 0.0
C2565 C 0.5847 0.5331 0.35521 0.0
C2566 C 0.54303 0.5343 0.441 0.0
C2567 C 0.55555 0.53195 0.46199 0.0
C2568 C 0.55278 0.53628 0.42032 0.0
C2569 C 0.57536 0.53591 0.41991 0.0
C2570 C 0.58771 0.5331 0.44085 0.0
C2571 C 0.578 0.53123 0.46154 0.0
H2572 H 0.28274 0.8313 0.01158 0.0
H2573 H 0.2974 0.88514 0.07004 0.0
H2574 H 0.2906 0.80495 0.03823 0.0
H2575 H 0.30528 0.85886 0.09648 0.0
H2576 H 0.33695 0.81253 0.13494 0.0
H2577 H 0.33392 0.83558 0.10361 0.0
H2578 H 0.27173 0.78888 0.07217 0.0
H2579 H 0.27488 0.7656 0.10341 0.0
C2580 C 0.28771 0.83751 0.03007 0.0
C2581 C 0.28939 0.86024 0.03878 0.0
C2582 C 0.29217 0.82244 0.04525 0.0
C2583 C 0.29871 0.82998 0.06929 0.0
C2584 C 0.3006 0.85274 0.07793 0.0
C2585 C 0.29588 0.8677 0.06284 0.0
C2586 C 0.32298 0.80683 0.12097 0.0
C2587 C 0.30606 0.78739 0.12162 0.0
C2588 C 0.32115 0.82013 0.10321 0.0
C2589 C 0.30247 0.81409 0.08573 0.0
C2590 C 0.28632 0.79384 0.08545 0.0
C2591 C 0.28805 0.78062 0.10334 0.0
H2592 H 0.97669 0.56399 0.8387 0.0
H2593 H 0.91967 0.55519 0.8764 0.0
H2594 H 0.00135 0.56659 0.87536 0.0
H2595 H 0.9441 0.55743 0.91269 0.0
H2596 H 0.99189 0.57345 0.97752 0.0
H2597 H 0.9739 0.58164 0.94121 0.0
H2598 H 0.00705 0.53858 0.90163 0.0
H2599 H 0.02559 0.53077 0.93814 0.0
C2600 C 0.96948 0.56302 0.85484 0.0
C2601 C 0.94623 0.55919 0.85468 0.0
C2602 C 0.98357 0.56435 0.87576 0.0
C2603 C 0.97465 0.56209 0.89685 0.0
C2604 C 0.95155 0.5595 0.89679 0.0
C2605 C 0.9375 0.55806 0.87594 0.0
C2606 C 0.99558 0.56593 0.96107 0.0
C2607 C 0.00981 0.55111 0.96062 0.0
C2608 C 0.98526 0.57064 0.94029 0.0
C2609 C 0.9888 0.56049 0.9186 0.0
C2610 C 0.00412 0.54677 0.9181 0.0
C2611 C 0.01462 0.54218 0.93898 0.0
H2612 H 0.30233 0.26033 0.5793 0.0
H2613 H 0.25353 0.19852 0.5828 0.0
H2614 H 0.29991 0.27381 0.61985 0.0
H2615 H 0.25132 0.21192 0.62358 0.0
H2616 H 0.2399 0.25159 0.6921 0.0
H2617 H 0.23949 0.23969 0.65019 0.0
H2618 H 0.31111 0.26571 0.65839 0.0
H2619 H 0.3115 0.2777 0.69974 0.0
C2620 C 0.29104 0.24959 0.58867 0.0
C2621 C 0.27824 0.22824 0.57765 0.0
C2622 C 0.28972 0.2573 0.61206 0.0
C2623 C 0.27551 0.24396 0.62523 0.0
C2624 C 0.26231 0.2228 0.61404 0.0
C2625 C 0.2637 0.21503 0.59063 0.0
C2626 C 0.25551 0.25494 0.68489 0.0
C2627 C 0.2757 0.26568 0.69947 0.0
C2628 C 0.25532 0.24796 0.66086 0.0
C2629 C 0.27527 0.25173 0.65072 0.0
C2630 C 0.29534 0.26276 0.66532 0.0
C2631 C 0.29556 0.26955 0.68922 0.0
H2632 H 0.55249 0.55273 0.2271 0.0
H2633 H 0.61338 0.53607 0.2103 0.0
H2634 H 0.54013 0.5521 0.18549 0.0
H2635 H 0.60142 0.5361 0.16893 0.0
H2636 H 0.56516 0.51414 0.09529 0.0
H2637 H 0.576 0.51506 0.13681 0.0
H2638 H 0.54579 0.57095 0.15166 0.0
H2639 H 0.53425 0.56958 0.10958 0.0
C2640 C 0.56329 0.54896 0.21456 0.0
C2641 C 0.5839 0.54428 0.22218 0.0
C2642 C 0.55626 0.54879 0.19063 0.0
C2643 C 0.56965 0.54398 0.17358 0.0
C2644 C 0.59034 0.53945 0.18131 0.0
C2645 C 0.59731 0.53952 0.20518 0.0
C2646 C 0.56082 0.52676 0.10727 0.0
C2647 C 0.54893 0.54195 0.09885 0.0
C2648 C 0.5672 0.52735 0.13128 0.0
C2649 C 0.56211 0.54326 0.14787 0.0
C2650 C 0.54994 0.55833 0.13953 0.0
C2651 C 0.54339 0.55764 0.11534 0.0
H2652 H 0.25209 0.86218 0.95329 0.0
H2653 H 0.26577 0.91863 0.91413 0.0
H2654 H 0.25236 0.83633 0.91844 0.0
H2655 H 0.26537 0.8926 0.87905 0.0
H2656 H 0.30224 0.84819 0.83882 0.0
H2657 H 0.29337 0.87207 0.87052 0.0
H2658 H 0.23655 0.81876 0.87789 0.0
H2659 H 0.24568 0.79434 0.84583 0.0
C2660 C 0.2546 0.86904 0.9371 0.0
C2661 C 0.25943 0.89254 0.9366 0.0
C2662 C 0.25461 0.85415 0.91708 0.0
C2663 C 0.25935 0.86247 0.89614 0.0
C2664 C 0.26221 0.88576 0.89513 0.0
C2665 C 0.26231 0.90067 0.91518 0.0
C2666 C 0.28782 0.84141 0.84712 0.0
C2667 C 0.27465 0.81931 0.83978 0.0
C2668 C 0.28259 0.85527 0.86516 0.0
C2669 C 0.26399 0.84749 0.87641 0.0
C2670 C 0.25096 0.82523 0.86946 0.0
C2671 C 0.25623 0.81123 0.85123 0.0
H2672 H 0.94779 0.48121 0.77825 0.0
H2673 H 0.9204 0.52596 0.73747 0.0
H2674 H 0.96974 0.47337 0.74715 0.0
H2675 H 0.94236 0.51833 0.70678 0.0
H2676 H 0.96732 0.486 0.64649 0.0
H2677 H 0.94394 0.48655 0.67754 0.0
H2678 H 0.00192 0.49488 0.72937 0.0
H2679 H 0.02537 0.49412 0.6981 0.0
C2680 C 0.94642 0.48932 0.76267 0.0
C2681 C 0.93238 0.5042 0.76029 0.0
C2682 C 0.95902 0.48488 0.74495 0.0
C2683 C 0.9576 0.4951 0.72452 0.0
C2684 C 0.94348 0.50988 0.72216 0.0
C2685 C 0.93103 0.51439 0.73984 0.0
C2686 C 0.97501 0.48772 0.66452 0.0
C2687 C 0.99815 0.49043 0.67001 0.0
C2688 C 0.96166 0.48805 0.68225 0.0
C2689 C 0.97121 0.49116 0.70584 0.0
C2690 C 0.99414 0.4924 0.71131 0.0
C2691 C 0.00754 0.492 0.69348 0.0
H2692 H 0.23888 0.23414 0.44876 0.0
H2693 H 0.29387 0.20245 0.44407 0.0
H2694 H 0.24473 0.24843 0.41178 0.0
H2695 H 0.29966 0.21673 0.40674 0.0
H2696 H 0.28396 0.22624 0.32716 0.0
H2697 H 0.28032 0.21172 0.36472 0.0
H2698 H 0.27262 0.27624 0.39571 0.0
H2699 H 0.27634 0.29072 0.35857 0.0
C2700 C 0.25231 0.23027 0.43991 0.0
C2701 C 0.26594 0.21717 0.4496 0.0
C2702 C 0.25572 0.23856 0.41865 0.0
C2703 C 0.27269 0.23379 0.40614 0.0
C2704 C 0.28632 0.22062 0.41575 0.0
C2705 C 0.28312 0.21258 0.43728 0.0
C2706 C 0.28161 0.23736 0.34202 0.0
C2707 C 0.28044 0.2597 0.33966 0.0
C2708 C 0.27962 0.22906 0.36362 0.0
C2709 C 0.27604 0.24274 0.38333 0.0
C2710 C 0.27508 0.26509 0.38093 0.0
C2711 C 0.27736 0.27345 0.35955 0.0
H2712 H 0.30543 0.58068 0.51978 0.0
H2713 H 0.35722 0.63592 0.50579 0.0
H2714 H 0.32313 0.55371 0.50032 0.0
H2715 H 0.37557 0.6089 0.4872 0.0
H2716 H 0.3994 0.55642 0.44431 0.0
H2717 H 0.37458 0.58053 0.45486 0.0
H2718 H 0.35541 0.54061 0.50956 0.0
H2719 H 0.37962 0.51661 0.49886 0.0
C2720 C 0.32071 0.58705 0.51268 0.0
C2721 C 0.33013 0.61039 0.51458 0.0
C2722 C 0.33085 0.57159 0.50151 0.0
C2723 C 0.35086 0.5791 0.49232 0.0
C2724 C 0.36 0.60251 0.49375 0.0
C2725 C 0.34964 0.618 0.50464 0.0
C2726 C 0.38946 0.55258 0.45823 0.0
C2727 C 0.39146 0.5346 0.47071 0.0
C2728 C 0.37538 0.56645 0.46438 0.0
C2729 C 0.36317 0.56265 0.48322 0.0
C2730 C 0.36425 0.54387 0.49473 0.0
C2731 C 0.37816 0.53 0.48852 0.0
H2732 H 0.88414 0.90719 0.5711 0.0
H2733 H 0.85028 0.94051 0.52202 0.0
H2734 H 0.91909 0.93485 0.57079 0.0
H2735 H 0.88551 0.96763 0.5207 0.0
H2736 H 0.95063 0.02308 0.53456 0.0
H2737 H 0.91463 -0.00137 0.53911 0.0
H2738 H 0.94637 0.94352 0.54677 0.0
H2739 H 0.98202 0.968 0.54328 0.0
C2740 C 0.88418 0.92041 0.56016 0.0
C2741 C 0.86443 0.92152 0.54648 0.0
C2742 C 0.90431 0.93625 0.55982 0.0
C2743 C 0.9054 0.95344 0.54543 0.0
C2744 C 0.88544 0.95487 0.5322 0.0
C2745 C 0.86519 0.9392 0.53284 0.0
C2746 C 0.94987 0.00579 0.53741 0.0
C2747 C 0.96932 -0.00238 0.53874 0.0
C2748 C 0.92918 -0.00832 0.53988 0.0
C2749 C 0.92741 0.96899 0.54347 0.0
C2750 C 0.94695 0.96096 0.54467 0.0
C2751 C 0.96753 0.97506 0.5425 0.0
H2752 H 0.89726 0.07196 0.29312 0.0
H2753 H 0.87863 0.0679 0.2185 0.0
H2754 H 0.87598 0.10044 0.30003 0.0
H2755 H 0.85737 0.09631 0.22543 0.0
H2756 H 0.84123 0.16481 0.24685 0.0
H2757 H 0.86324 0.13708 0.24026 0.0
H2758 H 0.83624 0.10288 0.29571 0.0
H2759 H 0.81377 0.13023 0.302 0.0
C2760 C 0.88871 0.07718 0.27818 0.0
C2761 C 0.88967 0.06759 0.25525 0.0
C2762 C 0.87638 0.09342 0.28215 0.0
C2763 C 0.86492 0.10066 0.26329 0.0
C2764 C 0.86615 0.09129 0.24036 0.0
C2765 C 0.87827 0.07489 0.23639 0.0
C2766 C 0.8397 0.15125 0.25748 0.0
C2767 C 0.82556 0.14986 0.27495 0.0
C2768 C 0.85243 0.13536 0.25373 0.0
C2769 C 0.85155 0.11774 0.26746 0.0
C2770 C 0.83758 0.11641 0.28503 0.0
C2771 C 0.8247 0.13218 0.28866 0.0
H2772 H 0.71905 0.08207 0.03226 0.0
H2773 H 0.70521 0.13427 0.08071 0.0
H2774 H 0.6792 0.06314 0.02483 0.0
H2775 H 0.66546 0.11541 0.07305 0.0
H2776 H 0.59646 0.09215 0.02688 0.0
H2777 H 0.63662 0.10875 0.03544 0.0
H2778 H 0.64771 0.04383 0.04784 0.0
H2779 H 0.60739 0.0271 0.03948 0.0
C2780 C 0.70754 0.08939 0.04145 0.0
C2781 C 0.71521 0.10971 0.05698 0.0
C2782 C 0.6848 0.07852 0.03725 0.0
C2783 C 0.66936 0.08797 0.04823 0.0
C2784 C 0.67707 0.10795 0.06419 0.0
C2785 C 0.69981 0.11864 0.06866 0.0
C2786 C 0.60743 0.08135 0.03129 0.0
C2787 C 0.59877 0.05833 0.03258 0.0
C2788 C 0.63038 0.0909 0.03635 0.0
C2789 C 0.64514 0.07757 0.04246 0.0
C2790 C 0.63661 0.05442 0.04314 0.0
C2791 C 0.61358 0.04491 0.03842 0.0
H2792 H 0.16397 0.44676 0.30361 0.0
H2793 H 0.21472 0.50336 0.29041 0.0
H2794 H 0.19307 0.42952 0.31959 0.0
H2795 H 0.24369 0.48669 0.30719 0.0
H2796 H 0.28493 0.43337 0.30295 0.0
H2797 H 0.25837 0.45572 0.29475 0.0
H2798 H 0.22305 0.4312 0.35058 0.0
H2799 H 0.24984 0.40836 0.35871 0.0
C2800 C 0.18132 0.45563 0.30439 0.0
C2801 C 0.18707 0.4762 0.2954 0.0
C2802 C 0.19801 0.44589 0.31377 0.0
C2803 C 0.22074 0.45667 0.31456 0.0
C2804 C 0.22638 0.4777 0.30642 0.0
C2805 C 0.20975 0.48727 0.2968 0.0
C2806 C 0.27199 0.43326 0.31406 0.0
C2807 C 0.26956 0.41909 0.33154 0.0
C2808 C 0.25663 0.44608 0.30928 0.0
C2809 C 0.23846 0.44518 0.3219 0.0
C2810 C 0.23666 0.43196 0.34026 0.0
C2811 C 0.25205 0.419 0.34501 0.0
H2812 H 0.25756 0.43463 0.04841 0.0
H2813 H 0.21052 0.38371 -0.00168 0.0
H2814 H 0.23137 0.45884 0.0475 0.0
H2815 H 0.18458 0.40808 -0.00297 0.0
H2816 H 0.13423 0.44821 0.01604 0.0
H2817 H 0.16003 0.42381 0.01952 0.0
H2818 H 0.21574 0.48148 0.02203 0.0
H2819 H 0.19 0.50603 0.01957 0.0
C2820 C 0.24164 0.42858 0.03719 0.0
C2821 C 0.2362 0.40719 0.02343 0.0
C2822 C 0.22666 0.44255 0.03655 0.0
C2823 C 0.20582 0.4355 0.02215 0.0
C2824 C 0.20031 0.414 0.00857 0.0
C2825 C 0.21529 0.40004 0.00921 0.0
C2826 C 0.15199 0.45577 0.01766 0.0
C2827 C 0.15996 0.47915 0.01751 0.0
C2828 C 0.16681 0.4417 0.01936 0.0
C2829 C 0.19003 0.4506 0.02097 0.0
C2830 C 0.19801 0.47402 0.02106 0.0
C2831 C 0.1832 0.48808 0.01935 0.0
H2832 H 0.87908 0.96267 0.28081 0.0
H2833 H 0.88499 0.9374 0.20985 0.0
H2834 H 0.85307 0.92695 0.28376 0.0
H2835 H 0.85878 0.90185 0.21272 0.0
H2836 H 0.83489 0.83274 0.2372 0.0
H2837 H 0.85834 0.86919 0.23284 0.0
H2838 H 0.81547 0.90297 0.26932 0.0
H2839 H 0.792 0.86625 0.27405 0.0
C2840 C 0.87473 0.94958 0.26577 0.0
C2841 C 0.88427 0.95293 0.24512 0.0
C2842 C 0.85968 0.92911 0.26742 0.0
C2843 C 0.85384 0.91142 0.24851 0.0
C2844 C 0.86311 0.91495 0.22775 0.0
C2845 C 0.87809 0.93542 0.22607 0.0
C2846 C 0.83032 0.84788 0.24424 0.0
C2847 C 0.81151 0.84646 0.25604 0.0
C2848 C 0.84375 0.86886 0.24158 0.0
C2849 C 0.83885 0.8891 0.2507 0.0
C2850 C 0.81989 0.88774 0.26228 0.0
C2851 C 0.80633 0.86667 0.26485 0.0
H2852 H 0.73559 0.08685 0.72066 0.0
H2853 H 0.6886 0.09729 0.76805 0.0
H2854 H 0.75176 0.12776 0.72598 0.0
H2855 H 0.70447 0.13773 0.77304 0.0
H2856 H 0.75292 0.20552 0.79707 0.0
H2857 H 0.73948 0.16451 0.7913 0.0
H2858 H 0.74106 0.16307 0.71688 0.0
H2859 H 0.75487 0.20414 0.72263 0.0
C2860 C 0.72868 0.09783 0.73214 0.0
C2861 C 0.71087 0.08881 0.744 0.0
C2862 C 0.73789 0.1212 0.7351 0.0
C2863 C 0.72948 0.13588 0.75008 0.0
C2864 C 0.71157 0.12682 0.76172 0.0
C2865 C 0.70237 0.1036 0.75873 0.0
C2866 C 0.75047 0.19649 0.77948 0.0
C2867 C 0.75479 0.2081 0.76029 0.0
C2868 C 0.74271 0.173 0.77617 0.0
C2869 C 0.73911 0.16063 0.75362 0.0
C2870 C 0.74387 0.17216 0.73448 0.0
C2871 C 0.7516 0.19569 0.73778 0.0
loop_
_geom_bond_atom_site_label_1
_geom_bond_atom_site_label_2
_geom_bond_distance
_geom_bond_site_symmetry_2
_ccdc_geom_bond_type
C0 O1 1.160 . S
C0 O7 1.185 . S
O1 C0 1.160 . S
O2 Zn3 1.899 . S
O2 C10 1.284 . S
Zn3 O2 1.899 . S
Zn3 O4 2.032 . S
Zn3 O7 2.086 . S
Zn3 O12 1.977 . S
O4 Zn3 2.032 . S
O4 C8 1.278 . S
C5 O6 1.203 . S
C5 O12 1.267 1_655 S
O6 C5 1.203 . S
O7 C0 1.185 . S
O7 Zn3 2.086 . S
C8 O4 1.278 . S
C8 O9 1.211 . S
O9 C8 1.211 . S
C10 O2 1.284 . S
C10 O11 1.273 . S
O11 C10 1.273 . S
O12 Zn3 1.977 . S
O12 C5 1.267 1_455 S
C13 O14 1.160 . S
C13 O20 1.173 1_655 S
O14 C13 1.160 . S
O15 Zn16 1.899 . S
O15 C23 1.284 . S
Zn16 O15 1.899 . S
Zn16 O17 2.032 . S
Zn16 O20 2.097 . S
Zn16 O25 1.977 . S
O17 Zn16 2.032 . S
O17 C21 1.278 . S
C18 O19 1.203 . S
C18 O25 1.267 . S
O19 C18 1.203 . S
O20 C13 1.173 1_455 S
O20 Zn16 2.097 . S
C21 O17 1.278 . S
C21 O22 1.211 . S
O22 C21 1.211 . S
C23 O15 1.284 . S
C23 O24 1.273 . S
O24 C23 1.273 . S
O25 Zn16 1.977 . S
O25 C18 1.267 . S
C26 O27 1.160 . S
C26 O33 1.185 . S
O27 C26 1.160 . S
O28 Zn29 1.899 . S
O28 C36 1.284 . S
Zn29 O28 1.899 . S
Zn29 O30 2.032 . S
Zn29 O33 2.086 . S
Zn29 O38 1.977 . S
O30 Zn29 2.032 . S
O30 C34 1.278 . S
C31 O32 1.203 . S
C31 O38 1.267 . S
O32 C31 1.203 . S
O33 C26 1.185 . S
O33 Zn29 2.086 . S
C34 O30 1.278 . S
C34 O35 1.211 . S
O35 C34 1.211 . S
C36 O28 1.284 . S
C36 O37 1.273 . S
O37 C36 1.273 . S
O38 Zn29 1.977 . S
O38 C31 1.267 . S
C39 O40 1.160 . S
C39 O46 1.185 . S
O40 C39 1.160 . S
O41 Zn42 1.899 . S
O41 C49 1.284 . S
Zn42 O41 1.899 . S
Zn42 O43 2.032 . S
Zn42 O46 2.086 . S
Zn42 O51 1.977 . S
O43 Zn42 2.032 . S
O43 C47 1.278 . S
C44 O45 1.203 . S
C44 O51 1.267 . S
O45 C44 1.203 . S
O46 C39 1.185 . S
O46 Zn42 2.086 . S
C47 O43 1.278 . S
C47 O48 1.211 . S
O48 C47 1.211 . S
C49 O41 1.284 . S
C49 O50 1.273 . S
O50 C49 1.273 . S
O51 Zn42 1.977 . S
O51 C44 1.267 . S
C52 O53 1.160 . S
C52 O59 1.185 . S
O53 C52 1.160 . S
O54 Zn55 1.899 . S
O54 C62 1.284 . S
Zn55 O54 1.899 . S
Zn55 O56 2.032 . S
Zn55 O59 2.086 . S
Zn55 O64 1.977 . S
O56 Zn55 2.032 . S
O56 C60 1.278 . S
C57 O58 1.203 . S
C57 O64 1.267 . S
O58 C57 1.203 . S
O59 C52 1.185 . S
O59 Zn55 2.086 . S
C60 O56 1.278 . S
C60 O61 1.211 . S
O61 C60 1.211 . S
C62 O54 1.284 . S
C62 O63 1.273 . S
O63 C62 1.273 . S
O64 Zn55 1.977 . S
O64 C57 1.267 . S
C65 O66 1.160 . S
C65 O72 1.185 . S
O66 C65 1.160 . S
O67 Zn68 1.899 . S
O67 C75 1.284 . S
Zn68 O67 1.899 . S
Zn68 O69 2.032 . S
Zn68 O72 2.086 . S
Zn68 O77 1.977 . S
O69 Zn68 2.032 . S
O69 C73 1.278 . S
C70 O71 1.203 . S
C70 O77 1.267 . S
O71 C70 1.203 . S
O72 C65 1.185 . S
O72 Zn68 2.086 . S
C73 O69 1.278 . S
C73 O74 1.211 . S
O74 C73 1.211 . S
C75 O67 1.284 . S
C75 O76 1.273 . S
O76 C75 1.273 . S
O77 Zn68 1.977 . S
O77 C70 1.267 . S
C78 O79 1.160 . S
C78 O85 1.185 . S
O79 C78 1.160 . S
O80 Zn81 1.899 . S
O80 C88 1.284 . S
Zn81 O80 1.899 . S
Zn81 O82 2.032 . S
Zn81 O85 2.086 . S
Zn81 O90 1.977 . S
O82 Zn81 2.032 . S
O82 C86 1.278 . S
C83 O84 1.203 . S
C83 O90 1.267 . S
O84 C83 1.203 . S
O85 C78 1.185 . S
O85 Zn81 2.086 . S
C86 O82 1.278 . S
C86 O87 1.211 . S
O87 C86 1.211 . S
C88 O80 1.284 . S
C88 O89 1.273 . S
O89 C88 1.273 . S
O90 Zn81 1.977 . S
O90 C83 1.267 . S
C91 O92 1.160 . S
C91 O98 1.185 . S
O92 C91 1.160 . S
O93 Zn94 1.899 1_655 S
O93 C101 1.284 . S
Zn94 O93 1.899 1_455 S
Zn94 O95 2.032 . S
Zn94 O98 2.086 . S
Zn94 O103 1.977 1_455 S
O95 Zn94 2.032 . S
O95 C99 1.278 . S
C96 O97 1.203 . S
C96 O103 1.267 . S
O97 C96 1.203 . S
O98 C91 1.185 . S
O98 Zn94 2.086 . S
C99 O95 1.278 . S
C99 O100 1.211 1_455 S
O100 C99 1.211 1_655 S
C101 O93 1.284 . S
C101 O102 1.273 1_556 S
O102 C101 1.273 1_554 S
O103 Zn94 1.977 1_655 S
O103 C96 1.267 . S
C104 O105 1.160 . S
C104 O111 1.185 . S
O105 C104 1.160 . S
O106 Zn107 1.902 . S
O106 C114 1.292 . S
Zn107 O106 1.902 . S
Zn107 O108 2.039 . S
Zn107 O111 2.122 . S
Zn107 O116 1.944 1_545 S
O108 Zn107 2.039 . S
O108 C112 1.278 . S
C109 O110 1.203 . S
C109 O116 1.267 . S
O110 C109 1.203 . S
O111 C104 1.185 . S
O111 Zn107 2.122 . S
C112 O108 1.278 . S
C112 O113 1.211 1_545 S
O113 C112 1.211 1_565 S
C114 O106 1.292 . S
C114 O115 1.263 1_545 S
O115 C114 1.263 1_565 S
O116 Zn107 1.944 1_565 S
O116 C109 1.267 . S
C117 O118 1.160 . S
C117 O124 1.185 . S
O118 C117 1.160 . S
O119 Zn120 1.899 . S
O119 C127 1.284 . S
Zn120 O119 1.899 . S
Zn120 O121 2.032 . S
Zn120 O124 2.086 . S
Zn120 O129 1.977 . S
O121 Zn120 2.032 . S
O121 C125 1.278 . S
C122 O123 1.203 . S
C122 O129 1.267 . S
O123 C122 1.203 . S
O124 C117 1.185 . S
O124 Zn120 2.086 . S
C125 O121 1.278 . S
C125 O126 1.211 . S
O126 C125 1.211 . S
C127 O119 1.284 . S
C127 O128 1.273 . S
O128 C127 1.273 . S
O129 Zn120 1.977 . S
O129 C122 1.267 . S
C130 O131 1.158 1_545 S
C130 O137 1.185 . S
O131 C130 1.158 1_565 S
O132 Zn133 1.899 . S
O132 C140 1.284 . S
Zn133 O132 1.899 . S
Zn133 O134 2.032 . S
Zn133 O137 2.086 . S
Zn133 O142 1.977 . S
O134 Zn133 2.032 . S
O134 C138 1.278 . S
C135 O136 1.203 . S
C135 O142 1.267 . S
O136 C135 1.203 . S
O137 C130 1.185 . S
O137 Zn133 2.086 . S
C138 O134 1.278 . S
C138 O139 1.211 . S
O139 C138 1.211 . S
C140 O132 1.284 . S
C140 O141 1.273 . S
O141 C140 1.273 . S
O142 Zn133 1.977 . S
O142 C135 1.267 . S
C143 O144 1.160 . S
C143 O150 1.185 1_554 S
O144 C143 1.160 . S
O145 Zn146 1.899 . S
O145 C153 1.284 . S
Zn146 O145 1.899 . S
Zn146 O147 2.032 1_554 S
Zn146 O150 2.086 1_554 S
Zn146 O155 1.977 . S
O147 Zn146 2.032 1_556 S
O147 C151 1.278 . S
C148 O149 1.203 . S
C148 O155 1.267 . S
O149 C148 1.203 . S
O150 C143 1.185 1_556 S
O150 Zn146 2.086 1_556 S
C151 O147 1.278 . S
C151 O152 1.211 . S
O152 C151 1.211 . S
C153 O145 1.284 . S
C153 O154 1.273 . S
O154 C153 1.273 . S
O155 Zn146 1.977 . S
O155 C148 1.267 . S
C156 O157 1.160 . S
C156 O163 1.185 . S
O157 C156 1.160 . S
O158 Zn159 1.899 . S
O158 C166 1.284 . S
Zn159 O158 1.899 . S
Zn159 O160 2.032 . S
Zn159 O163 2.086 . S
Zn159 O168 1.977 . S
O160 Zn159 2.032 . S
O160 C164 1.278 1_554 S
C161 O162 1.203 . S
C161 O168 1.267 . S
O162 C161 1.203 . S
O163 C156 1.185 . S
O163 Zn159 2.086 . S
C164 O160 1.278 1_556 S
C164 O165 1.209 1_556 S
O165 C164 1.209 1_554 S
C166 O158 1.284 . S
C166 O167 1.273 . S
O167 C166 1.273 . S
O168 Zn159 1.977 . S
O168 C161 1.267 . S
C169 O170 1.160 . S
C169 O176 1.185 . S
O170 C169 1.160 . S
O171 Zn172 1.899 . S
O171 C179 1.284 . S
Zn172 O171 1.899 . S
Zn172 O173 2.032 . S
Zn172 O176 2.086 . S
Zn172 O181 1.977 . S
O173 Zn172 2.032 . S
O173 C177 1.278 . S
C174 O175 1.203 . S
C174 O181 1.267 . S
O175 C174 1.203 . S
O176 C169 1.185 . S
O176 Zn172 2.086 . S
C177 O173 1.278 . S
C177 O178 1.211 . S
O178 C177 1.211 . S
C179 O171 1.284 . S
C179 O180 1.273 . S
O180 C179 1.273 . S
O181 Zn172 1.977 . S
O181 C174 1.267 . S
C182 O183 1.160 . S
C182 O189 1.185 . S
O183 C182 1.160 . S
O184 Zn185 1.899 . S
O184 C192 1.284 . S
Zn185 O184 1.899 . S
Zn185 O186 2.032 . S
Zn185 O189 2.086 . S
Zn185 O194 1.977 . S
O186 Zn185 2.032 . S
O186 C190 1.278 . S
C187 O188 1.203 . S
C187 O194 1.267 . S
O188 C187 1.203 . S
O189 C182 1.185 . S
O189 Zn185 2.086 . S
C190 O186 1.278 . S
C190 O191 1.211 . S
O191 C190 1.211 . S
C192 O184 1.284 . S
C192 O193 1.273 . S
O193 C192 1.273 . S
O194 Zn185 1.977 . S
O194 C187 1.267 . S
C195 O196 1.160 . S
C195 O202 1.185 . S
O196 C195 1.160 . S
O197 Zn198 1.899 . S
O197 C205 1.284 . S
Zn198 O197 1.899 . S
Zn198 O199 2.032 . S
Zn198 O202 2.086 . S
Zn198 O207 1.977 . S
O199 Zn198 2.032 . S
O199 C203 1.278 . S
C200 O201 1.203 . S
C200 O207 1.267 . S
O201 C200 1.203 . S
O202 C195 1.185 . S
O202 Zn198 2.086 . S
C203 O199 1.278 . S
C203 O204 1.211 . S
O204 C203 1.211 . S
C205 O197 1.284 . S
C205 O206 1.273 . S
O206 C205 1.273 . S
O207 Zn198 1.977 . S
O207 C200 1.267 . S
C208 O209 1.160 . S
C208 O215 1.185 . S
O209 C208 1.160 . S
O210 Zn211 1.899 . S
O210 C218 1.284 . S
Zn211 O210 1.899 . S
Zn211 O212 2.032 . S
Zn211 O215 2.086 . S
Zn211 O220 1.977 . S
O212 Zn211 2.032 . S
O212 C216 1.278 . S
C213 O214 1.203 . S
C213 O220 1.267 1_565 S
O214 C213 1.203 . S
O215 C208 1.185 . S
O215 Zn211 2.086 . S
C216 O212 1.278 . S
C216 O217 1.211 . S
O217 C216 1.211 . S
C218 O210 1.284 . S
C218 O219 1.273 . S
O219 C218 1.273 . S
O220 Zn211 1.977 . S
O220 C213 1.267 1_545 S
C221 O222 1.160 . S
C221 O228 1.185 . S
O222 C221 1.160 . S
O223 Zn224 1.899 . S
O223 C231 1.284 . S
Zn224 O223 1.899 . S
Zn224 O225 2.032 . S
Zn224 O228 2.086 . S
Zn224 O233 1.977 . S
O225 Zn224 2.032 . S
O225 C229 1.278 . S
C226 O227 1.203 . S
C226 O233 1.267 . S
O227 C226 1.203 . S
O228 C221 1.185 . S
O228 Zn224 2.086 . S
C229 O225 1.278 . S
C229 O230 1.211 . S
O230 C229 1.211 . S
C231 O223 1.284 . S
C231 O232 1.273 . S
O232 C231 1.273 . S
O233 Zn224 1.977 . S
O233 C226 1.267 . S
C234 O235 1.160 . S
C234 O241 1.185 . S
O235 C234 1.160 . S
O236 Zn237 1.899 . S
O236 C244 1.284 . S
Zn237 O236 1.899 . S
Zn237 O238 2.032 . S
Zn237 O241 2.086 . S
Zn237 O246 1.977 . S
O238 Zn237 2.032 . S
O238 C242 1.278 . S
C239 O240 1.203 . S
C239 O246 1.267 . S
O240 C239 1.203 . S
O241 C234 1.185 . S
O241 Zn237 2.086 . S
C242 O238 1.278 . S
C242 O243 1.211 . S
O243 C242 1.211 . S
C244 O236 1.284 . S
C244 O245 1.273 . S
O245 C244 1.273 . S
O246 Zn237 1.977 . S
O246 C239 1.267 . S
C247 O248 1.160 . S
C247 O254 1.185 . S
O248 C247 1.160 . S
O249 Zn250 1.899 . S
O249 C257 1.284 . S
Zn250 O249 1.899 . S
Zn250 O251 2.032 . S
Zn250 O254 2.086 . S
Zn250 O259 1.977 . S
O251 Zn250 2.032 . S
O251 C255 1.278 . S
C252 O253 1.203 . S
C252 O259 1.267 . S
O253 C252 1.203 . S
O254 C247 1.185 . S
O254 Zn250 2.086 . S
C255 O251 1.278 . S
C255 O256 1.211 . S
O256 C255 1.211 . S
C257 O249 1.284 . S
C257 O258 1.273 . S
O258 C257 1.273 . S
O259 Zn250 1.977 . S
O259 C252 1.267 . S
C260 O261 1.160 . S
C260 O267 1.185 . S
O261 C260 1.160 . S
O262 Zn263 1.899 . S
O262 C270 1.284 . S
Zn263 O262 1.899 . S
Zn263 O264 2.032 . S
Zn263 O267 2.086 . S
Zn263 O272 1.977 . S
O264 Zn263 2.032 . S
O264 C268 1.278 1_554 S
C265 O266 1.203 . S
C265 O272 1.267 . S
O266 C265 1.203 . S
O267 C260 1.185 . S
O267 Zn263 2.086 . S
C268 O264 1.278 1_556 S
C268 O269 1.211 . S
O269 C268 1.211 . S
C270 O262 1.284 . S
C270 O271 1.273 . S
O271 C270 1.273 . S
O272 Zn263 1.977 . S
O272 C265 1.267 . S
C273 O274 1.160 . S
C273 O280 1.185 . S
O274 C273 1.160 . S
O275 Zn276 1.899 . S
O275 C283 1.284 . S
Zn276 O275 1.899 . S
Zn276 O277 2.032 . S
Zn276 O280 2.086 . S
Zn276 O285 1.977 . S
O277 Zn276 2.032 . S
O277 C281 1.278 . S
C278 O279 1.203 . S
C278 O285 1.267 . S
O279 C278 1.203 . S
O280 C273 1.185 . S
O280 Zn276 2.086 . S
C281 O277 1.278 . S
C281 O282 1.211 . S
O282 C281 1.211 . S
C283 O275 1.284 . S
C283 O284 1.273 . S
O284 C283 1.273 . S
O285 Zn276 1.977 . S
O285 C278 1.267 . S
C286 O287 1.160 . S
C286 O293 1.185 . S
O287 C286 1.160 . S
O288 Zn289 1.899 . S
O288 C296 1.284 . S
Zn289 O288 1.899 . S
Zn289 O290 2.032 . S
Zn289 O293 2.086 . S
Zn289 O298 1.977 . S
O290 Zn289 2.032 . S
O290 C294 1.278 . S
C291 O292 1.203 . S
C291 O298 1.267 . S
O292 C291 1.203 . S
O293 C286 1.185 . S
O293 Zn289 2.086 . S
C294 O290 1.278 . S
C294 O295 1.211 . S
O295 C294 1.211 . S
C296 O288 1.284 . S
C296 O297 1.273 . S
O297 C296 1.273 . S
O298 Zn289 1.977 . S
O298 C291 1.267 . S
C299 O300 1.160 . S
C299 O306 1.185 . S
O300 C299 1.160 . S
O301 Zn302 1.899 . S
O301 C309 1.284 . S
Zn302 O301 1.899 . S
Zn302 O303 2.032 . S
Zn302 O306 2.086 . S
Zn302 O311 1.977 . S
O303 Zn302 2.032 . S
O303 C307 1.278 . S
C304 O305 1.203 . S
C304 O311 1.267 . S
O305 C304 1.203 . S
O306 C299 1.185 . S
O306 Zn302 2.086 . S
C307 O303 1.278 . S
C307 O308 1.211 . S
O308 C307 1.211 . S
C309 O301 1.284 . S
C309 O310 1.273 . S
O310 C309 1.273 . S
O311 Zn302 1.977 . S
O311 C304 1.267 . S
Dy312 O315 2.307 . S
Dy312 O317 2.395 . S
Dy312 O318 2.379 . S
Dy312 O320 2.339 . S
Dy312 O322 2.298 . S
Dy312 O326 2.275 . S
Dy312 C334 2.738 . S
Dy313 O316 2.298 1_655 S
Dy313 O319 2.275 1_655 S
Dy313 O321 2.307 1_645 S
Dy313 O323 2.395 . S
Dy313 O324 2.379 1_554 S
Dy313 O327 2.339 1_654 S
Dy313 C343 2.738 . S
C314 O326 1.254 1_556 S
C314 O327 1.257 . S
O315 Dy312 2.307 . S
O315 C325 1.266 . S
O316 Dy313 2.298 1_455 S
O316 C325 1.236 . S
O317 Dy312 2.395 . S
O317 C334 1.255 . S
O318 Dy312 2.379 . S
O318 C334 1.249 . S
O319 Dy313 2.275 1_455 S
O319 C335 1.254 . S
O320 Dy312 2.339 . S
O320 C335 1.257 . S
O321 Dy313 2.307 1_465 S
O321 C336 1.266 . S
O322 Dy312 2.298 . S
O322 C336 1.236 1_545 S
O323 Dy313 2.395 . S
O323 C343 1.255 . S
O324 Dy313 2.379 1_556 S
O324 C343 1.249 1_556 S
C325 O315 1.266 . S
C325 O316 1.236 . S
O326 Dy312 2.275 . S
O326 C314 1.254 1_554 S
O327 Dy313 2.339 1_456 S
O327 C314 1.257 . S
C328 C331 1.344 . S
C328 C332 1.328 . S
C328 C334 1.516 . S
C329 C330 1.304 . S
C329 C333 1.323 . S
C330 C329 1.304 . S
C330 C331 1.371 . S
C330 H344 0.930 1_545 S
C331 C328 1.344 . S
C331 C330 1.371 . S
C331 H345 0.931 . S
C332 C328 1.328 . S
C332 C333 1.433 . S
C332 H346 0.931 . S
C333 C329 1.323 . S
C333 C332 1.433 . S
C333 H347 0.933 . S
C334 Dy312 2.738 . S
C334 O317 1.255 . S
C334 O318 1.249 . S
C334 C328 1.516 . S
C335 O319 1.254 . S
C335 O320 1.257 . S
C336 O321 1.266 . S
C336 O322 1.236 1_565 S
C337 C340 1.344 . S
C337 C341 1.328 1_554 S
C337 C343 1.516 . S
C338 C339 1.304 . S
C338 C342 1.323 1_554 S
C339 C338 1.304 . S
C339 C340 1.371 . S
C339 H348 0.930 . S
C340 C337 1.344 . S
C340 C339 1.371 . S
C340 H349 0.931 . S
C341 C337 1.328 1_556 S
C341 C342 1.433 . S
C341 H350 0.931 . S
C342 C338 1.323 1_556 S
C342 C341 1.433 . S
C342 H351 0.933 . S
C343 Dy313 2.738 . S
C343 O323 1.255 . S
C343 O324 1.249 1_554 S
C343 C337 1.516 . S
H344 C330 0.930 1_565 S
H345 C331 0.931 . S
H346 C332 0.931 . S
H347 C333 0.933 . S
H348 C339 0.930 . S
H349 C340 0.931 . S
H350 C341 0.931 . S
H351 C342 0.933 . S
Dy352 O355 2.307 . S
Dy352 O357 2.395 . S
Dy352 O358 2.379 . S
Dy352 O360 2.339 . S
Dy352 O362 2.298 . S
Dy352 O366 2.275 . S
Dy352 C374 2.738 . S
Dy353 O356 2.298 . S
Dy353 O359 2.275 . S
Dy353 O361 2.307 . S
Dy353 O363 2.395 . S
Dy353 O364 2.379 . S
Dy353 O367 2.339 . S
Dy353 C383 2.738 . S
C354 O366 1.254 . S
C354 O367 1.257 . S
O355 Dy352 2.307 . S
O355 C365 1.266 . S
O356 Dy353 2.298 . S
O356 C365 1.236 . S
O357 Dy352 2.395 . S
O357 C374 1.255 . S
O358 Dy352 2.379 . S
O358 C374 1.249 . S
O359 Dy353 2.275 . S
O359 C375 1.254 . S
O360 Dy352 2.339 . S
O360 C375 1.257 . S
O361 Dy353 2.307 . S
O361 C376 1.266 . S
O362 Dy352 2.298 . S
O362 C376 1.236 . S
O363 Dy353 2.395 . S
O363 C383 1.255 . S
O364 Dy353 2.379 . S
O364 C383 1.249 . S
C365 O355 1.266 . S
C365 O356 1.236 . S
O366 Dy352 2.275 . S
O366 C354 1.254 . S
O367 Dy353 2.339 . S
O367 C354 1.257 . S
C368 C371 1.344 . S
C368 C372 1.328 . S
C368 C374 1.516 . S
C369 C370 1.304 . S
C369 C373 1.323 . S
C370 C369 1.304 . S
C370 C371 1.371 . S
C370 H384 0.930 . S
C371 C368 1.344 . S
C371 C370 1.371 . S
C371 H385 0.931 . S
C372 C368 1.328 . S
C372 C373 1.433 . S
C372 H386 0.931 . S
C373 C369 1.323 . S
C373 C372 1.433 . S
C373 H387 0.933 . S
C374 Dy352 2.738 . S
C374 O357 1.255 . S
C374 O358 1.249 . S
C374 C368 1.516 . S
C375 O359 1.254 . S
C375 O360 1.257 . S
C376 O361 1.266 . S
C376 O362 1.236 . S
C377 C380 1.344 . S
C377 C381 1.328 . S
C377 C383 1.516 . S
C378 C379 1.304 . S
C378 C382 1.323 . S
C379 C378 1.304 . S
C379 C380 1.371 . S
C379 H388 0.930 . S
C380 C377 1.344 . S
C380 C379 1.371 . S
C380 H389 0.931 . S
C381 C377 1.328 . S
C381 C382 1.433 . S
C381 H390 0.931 . S
C382 C378 1.323 . S
C382 C381 1.433 . S
C382 H391 0.933 . S
C383 Dy353 2.738 . S
C383 O363 1.255 . S
C383 O364 1.249 . S
C383 C377 1.516 . S
H384 C370 0.930 . S
H385 C371 0.931 . S
H386 C372 0.931 . S
H387 C373 0.933 . S
H388 C379 0.930 . S
H389 C380 0.931 . S
H390 C381 0.931 . S
H391 C382 0.933 . S
Dy392 O395 2.307 . S
Dy392 O397 2.395 . S
Dy392 O398 2.379 . S
Dy392 O400 2.339 . S
Dy392 O402 2.298 . S
Dy392 O406 2.275 . S
Dy392 C414 2.738 . S
Dy393 O396 2.298 . S
Dy393 O399 2.275 . S
Dy393 O401 2.307 . S
Dy393 O403 2.395 . S
Dy393 O404 2.379 . S
Dy393 O407 2.339 . S
Dy393 C423 2.738 . S
C394 O406 1.254 . S
C394 O407 1.257 . S
O395 Dy392 2.307 . S
O395 C405 1.266 1_545 S
O396 Dy393 2.298 . S
O396 C405 1.236 1_545 S
O397 Dy392 2.395 . S
O397 C414 1.255 . S
O398 Dy392 2.379 . S
O398 C414 1.249 . S
O399 Dy393 2.275 . S
O399 C415 1.254 . S
O400 Dy392 2.339 . S
O400 C415 1.257 . S
O401 Dy393 2.307 . S
O401 C416 1.266 . S
O402 Dy392 2.298 . S
O402 C416 1.236 . S
O403 Dy393 2.395 . S
O403 C423 1.255 . S
O404 Dy393 2.379 . S
O404 C423 1.249 . S
C405 O395 1.266 1_565 S
C405 O396 1.236 1_565 S
O406 Dy392 2.275 . S
O406 C394 1.254 . S
O407 Dy393 2.339 . S
O407 C394 1.257 . S
C408 C411 1.344 . S
C408 C412 1.328 . S
C408 C414 1.516 . S
C409 C410 1.304 . S
C409 C413 1.323 . S
C410 C409 1.304 . S
C410 C411 1.371 . S
C410 H424 0.930 . S
C411 C408 1.344 . S
C411 C410 1.371 . S
C411 H425 0.931 . S
C412 C408 1.328 . S
C412 C413 1.433 . S
C412 H426 0.931 . S
C413 C409 1.323 . S
C413 C412 1.433 . S
C413 H427 0.933 . S
C414 Dy392 2.738 . S
C414 O397 1.255 . S
C414 O398 1.249 . S
C414 C408 1.516 . S
C415 O399 1.254 . S
C415 O400 1.257 . S
C416 O401 1.266 . S
C416 O402 1.236 . S
C417 C420 1.318 1_545 S
C417 C421 1.328 . S
C417 C423 1.516 . S
C418 C419 1.304 . S
C418 C422 1.323 . S
C419 C418 1.304 . S
C419 C420 1.398 . S
C419 H428 0.930 . S
C420 C417 1.318 1_565 S
C420 C419 1.398 . S
C420 H429 0.931 . S
C421 C417 1.328 . S
C421 C422 1.433 1_545 S
C421 H430 0.931 . S
C422 C418 1.323 . S
C422 C421 1.433 1_565 S
C422 H431 0.933 . S
C423 Dy393 2.738 . S
C423 O403 1.255 . S
C423 O404 1.249 . S
C423 C417 1.516 . S
H424 C410 0.930 . S
H425 C411 0.931 . S
H426 C412 0.931 . S
H427 C413 0.933 . S
H428 C419 0.930 . S
H429 C420 0.931 . S
H430 C421 0.931 . S
H431 C422 0.933 . S
Dy432 O435 2.307 . S
Dy432 O437 2.395 . S
Dy432 O438 2.379 . S
Dy432 O440 2.339 . S
Dy432 O442 2.298 . S
Dy432 O446 2.275 . S
Dy432 C454 2.738 . S
Dy433 O436 2.298 . S
Dy433 O439 2.275 . S
Dy433 O441 2.307 . S
Dy433 O443 2.395 . S
Dy433 O444 2.379 . S
Dy433 O447 2.339 . S
Dy433 C463 2.738 . S
C434 O446 1.254 . S
C434 O447 1.257 . S
O435 Dy432 2.307 . S
O435 C445 1.266 . S
O436 Dy433 2.298 . S
O436 C445 1.236 . S
O437 Dy432 2.395 . S
O437 C454 1.255 . S
O438 Dy432 2.379 . S
O438 C454 1.249 . S
O439 Dy433 2.275 . S
O439 C455 1.254 . S
O440 Dy432 2.339 . S
O440 C455 1.257 . S
O441 Dy433 2.307 . S
O441 C456 1.266 . S
O442 Dy432 2.298 . S
O442 C456 1.236 . S
O443 Dy433 2.395 . S
O443 C463 1.255 . S
O444 Dy433 2.379 . S
O444 C463 1.249 . S
C445 O435 1.266 . S
C445 O436 1.236 . S
O446 Dy432 2.275 . S
O446 C434 1.254 . S
O447 Dy433 2.339 . S
O447 C434 1.257 . S
C448 C451 1.344 . S
C448 C452 1.328 . S
C448 C454 1.516 . S
C449 C450 1.304 . S
C449 C453 1.323 . S
C450 C449 1.304 . S
C450 C451 1.371 . S
C450 H464 0.930 . S
C451 C448 1.344 . S
C451 C450 1.371 . S
C451 H465 0.931 . S
C452 C448 1.328 . S
C452 C453 1.433 . S
C452 H466 0.931 . S
C453 C449 1.323 . S
C453 C452 1.433 . S
C453 H467 0.933 . S
C454 Dy432 2.738 . S
C454 O437 1.255 . S
C454 O438 1.249 . S
C454 C448 1.516 . S
C455 O439 1.254 . S
C455 O440 1.257 . S
C456 O441 1.266 . S
C456 O442 1.236 . S
C457 C460 1.344 . S
C457 C461 1.328 . S
C457 C463 1.516 . S
C458 C459 1.304 . S
C458 C462 1.323 . S
C459 C458 1.304 . S
C459 C460 1.371 . S
C459 H468 0.930 . S
C460 C457 1.344 . S
C460 C459 1.371 . S
C460 H469 0.931 . S
C461 C457 1.328 . S
C461 C462 1.433 . S
C461 H470 0.931 . S
C462 C458 1.323 . S
C462 C461 1.433 . S
C462 H471 0.933 . S
C463 Dy433 2.738 . S
C463 O443 1.255 . S
C463 O444 1.249 . S
C463 C457 1.516 . S
H464 C450 0.930 . S
H465 C451 0.931 . S
H466 C452 0.931 . S
H467 C453 0.933 . S
H468 C459 0.930 . S
H469 C460 0.931 . S
H470 C461 0.931 . S
H471 C462 0.933 . S
Dy472 O475 2.307 . S
Dy472 O477 2.395 1_545 S
Dy472 O478 2.379 1_545 S
Dy472 O480 2.339 . S
Dy472 O482 2.298 . S
Dy472 O486 2.275 . S
Dy472 C494 2.738 1_545 S
Dy473 O476 2.298 . S
Dy473 O479 2.275 . S
Dy473 O481 2.307 . S
Dy473 O483 2.395 . S
Dy473 O484 2.379 1_455 S
Dy473 O487 2.339 1_455 S
Dy473 C503 2.738 . S
C474 O486 1.254 1_655 S
C474 O487 1.257 . S
O475 Dy472 2.307 . S
O475 C485 1.266 . S
O476 Dy473 2.298 . S
O476 C485 1.236 . S
O477 Dy472 2.395 1_565 S
O477 C494 1.255 . S
O478 Dy472 2.379 1_565 S
O478 C494 1.249 . S
O479 Dy473 2.275 . S
O479 C495 1.254 . S
O480 Dy472 2.339 . S
O480 C495 1.257 . S
O481 Dy473 2.307 . S
O481 C496 1.266 . S
O482 Dy472 2.298 . S
O482 C496 1.236 . S
O483 Dy473 2.395 . S
O483 C503 1.255 . S
O484 Dy473 2.379 1_655 S
O484 C503 1.249 1_655 S
C485 O475 1.266 . S
C485 O476 1.236 . S
O486 Dy472 2.275 . S
O486 C474 1.254 1_455 S
O487 Dy473 2.339 1_655 S
O487 C474 1.257 . S
C488 C491 1.344 . S
C488 C492 1.328 . S
C488 C494 1.516 . S
C489 C490 1.304 . S
C489 C493 1.323 . S
C490 C489 1.304 . S
C490 C491 1.371 . S
C490 H504 0.930 . S
C491 C488 1.344 . S
C491 C490 1.371 . S
C491 H505 0.931 . S
C492 C488 1.328 . S
C492 C493 1.433 . S
C492 H506 0.931 . S
C493 C489 1.323 . S
C493 C492 1.433 . S
C493 H507 0.933 . S
C494 Dy472 2.738 1_565 S
C494 O477 1.255 . S
C494 O478 1.249 . S
C494 C488 1.516 . S
C495 O479 1.254 . S
C495 O480 1.257 . S
C496 O481 1.266 . S
C496 O482 1.236 . S
C497 C500 1.344 . S
C497 C501 1.328 1_455 S
C497 C503 1.516 . S
C498 C499 1.304 . S
C498 C502 1.323 1_455 S
C499 C498 1.304 . S
C499 C500 1.371 . S
C499 H508 0.930 . S
C500 C497 1.344 . S
C500 C499 1.371 . S
C500 H509 0.931 . S
C501 C497 1.328 1_655 S
C501 C502 1.433 . S
C501 H510 0.931 . S
C502 C498 1.323 1_655 S
C502 C501 1.433 . S
C502 H511 0.933 . S
C503 Dy473 2.738 . S
C503 O483 1.255 . S
C503 O484 1.249 1_455 S
C503 C497 1.516 . S
H504 C490 0.930 . S
H505 C491 0.931 . S
H506 C492 0.931 . S
H507 C493 0.933 . S
H508 C499 0.930 . S
H509 C500 0.931 . S
H510 C501 0.931 . S
H511 C502 0.933 . S
Dy512 O515 2.307 . S
Dy512 O517 2.395 . S
Dy512 O518 2.379 . S
Dy512 O520 2.339 . S
Dy512 O522 2.298 . S
Dy512 O526 2.275 . S
Dy512 C534 2.738 . S
Dy513 O516 2.298 . S
Dy513 O519 2.275 . S
Dy513 O521 2.307 . S
Dy513 O523 2.395 . S
Dy513 O524 2.379 . S
Dy513 O527 2.339 . S
Dy513 C543 2.738 . S
C514 O526 1.254 . S
C514 O527 1.257 . S
O515 Dy512 2.307 . S
O515 C525 1.266 . S
O516 Dy513 2.298 . S
O516 C525 1.236 . S
O517 Dy512 2.395 . S
O517 C534 1.255 . S
O518 Dy512 2.379 . S
O518 C534 1.249 . S
O519 Dy513 2.275 . S
O519 C535 1.254 . S
O520 Dy512 2.339 . S
O520 C535 1.257 . S
O521 Dy513 2.307 . S
O521 C536 1.266 . S
O522 Dy512 2.298 . S
O522 C536 1.236 . S
O523 Dy513 2.395 . S
O523 C543 1.255 . S
O524 Dy513 2.379 . S
O524 C543 1.249 . S
C525 O515 1.266 . S
C525 O516 1.236 . S
O526 Dy512 2.275 . S
O526 C514 1.254 . S
O527 Dy513 2.339 . S
O527 C514 1.257 . S
C528 C531 1.344 . S
C528 C532 1.328 . S
C528 C534 1.516 . S
C529 C530 1.304 . S
C529 C533 1.323 . S
C530 C529 1.304 . S
C530 C531 1.371 . S
C530 H544 0.930 . S
C531 C528 1.344 . S
C531 C530 1.371 . S
C531 H545 0.931 . S
C532 C528 1.328 . S
C532 C533 1.433 . S
C532 H546 0.931 . S
C533 C529 1.323 . S
C533 C532 1.433 . S
C533 H547 0.933 . S
C534 Dy512 2.738 . S
C534 O517 1.255 . S
C534 O518 1.249 . S
C534 C528 1.516 . S
C535 O519 1.254 . S
C535 O520 1.257 . S
C536 O521 1.266 . S
C536 O522 1.236 . S
C537 C540 1.344 . S
C537 C541 1.328 . S
C537 C543 1.516 . S
C538 C539 1.304 . S
C538 C542 1.323 . S
C539 C538 1.304 . S
C539 C540 1.371 . S
C539 H548 0.930 . S
C540 C537 1.344 . S
C540 C539 1.371 . S
C540 H549 0.931 . S
C541 C537 1.328 . S
C541 C542 1.433 . S
C541 H550 0.931 . S
C542 C538 1.323 . S
C542 C541 1.433 . S
C542 H551 0.933 . S
C543 Dy513 2.738 . S
C543 O523 1.255 . S
C543 O524 1.249 . S
C543 C537 1.516 . S
H544 C530 0.930 . S
H545 C531 0.931 . S
H546 C532 0.931 . S
H547 C533 0.933 . S
H548 C539 0.930 . S
H549 C540 0.931 . S
H550 C541 0.931 . S
H551 C542 0.933 . S
Dy552 O555 2.307 . S
Dy552 O557 2.395 1_554 S
Dy552 O558 2.379 1_554 S
Dy552 O560 2.339 . S
Dy552 O562 2.298 . S
Dy552 O566 2.275 . S
Dy552 C574 2.738 1_554 S
Dy553 O556 2.298 . S
Dy553 O559 2.275 . S
Dy553 O561 2.307 . S
Dy553 O563 2.395 . S
Dy553 O564 2.379 1_545 S
Dy553 O567 2.339 1_545 S
Dy553 C583 2.738 . S
C554 O566 1.254 1_565 S
C554 O567 1.257 . S
O555 Dy552 2.307 . S
O555 C565 1.266 . S
O556 Dy553 2.298 . S
O556 C565 1.236 . S
O557 Dy552 2.395 1_556 S
O557 C574 1.255 . S
O558 Dy552 2.379 1_556 S
O558 C574 1.249 . S
O559 Dy553 2.275 . S
O559 C575 1.254 . S
O560 Dy552 2.339 . S
O560 C575 1.257 . S
O561 Dy553 2.307 . S
O561 C576 1.266 . S
O562 Dy552 2.298 . S
O562 C576 1.236 . S
O563 Dy553 2.395 . S
O563 C583 1.255 . S
O564 Dy553 2.379 1_565 S
O564 C583 1.249 1_565 S
C565 O555 1.266 . S
C565 O556 1.236 . S
O566 Dy552 2.275 . S
O566 C554 1.254 1_545 S
O567 Dy553 2.339 1_565 S
O567 C554 1.257 . S
C568 C571 1.344 . S
C568 C572 1.328 . S
C568 C574 1.516 . S
C569 C570 1.304 . S
C569 C573 1.323 . S
C570 C569 1.304 . S
C570 C571 1.371 . S
C570 H584 0.930 . S
C571 C568 1.344 . S
C571 C570 1.371 . S
C571 H585 0.931 . S
C572 C568 1.328 . S
C572 C573 1.433 . S
C572 H586 0.931 . S
C573 C569 1.323 . S
C573 C572 1.433 . S
C573 H587 0.933 . S
C574 Dy552 2.738 1_556 S
C574 O557 1.255 . S
C574 O558 1.249 . S
C574 C568 1.516 . S
C575 O559 1.254 . S
C575 O560 1.257 . S
C576 O561 1.266 . S
C576 O562 1.236 . S
C577 C580 1.344 . S
C577 C581 1.328 1_545 S
C577 C583 1.516 . S
C578 C579 1.304 1_565 S
C578 C582 1.323 . S
C579 C578 1.304 1_545 S
C579 C580 1.371 . S
C579 H588 0.930 . S
C580 C577 1.344 . S
C580 C579 1.371 . S
C580 H589 0.931 . S
C581 C577 1.328 1_565 S
C581 C582 1.433 . S
C581 H590 0.931 . S
C582 C578 1.323 . S
C582 C581 1.433 . S
C582 H591 0.933 . S
C583 Dy553 2.738 . S
C583 O563 1.255 . S
C583 O564 1.249 1_545 S
C583 C577 1.516 . S
H584 C570 0.930 . S
H585 C571 0.931 . S
H586 C572 0.931 . S
H587 C573 0.933 . S
H588 C579 0.930 . S
H589 C580 0.931 . S
H590 C581 0.931 . S
H591 C582 0.933 . S
Dy592 O595 2.307 . S
Dy592 O597 2.395 . S
Dy592 O598 2.379 . S
Dy592 O600 2.339 . S
Dy592 O602 2.298 . S
Dy592 O606 2.275 . S
Dy592 C614 2.738 . S
Dy593 O596 2.298 . S
Dy593 O599 2.275 . S
Dy593 O601 2.307 . S
Dy593 O603 2.395 . S
Dy593 O604 2.379 . S
Dy593 O607 2.339 . S
Dy593 C623 2.738 . S
C594 O606 1.254 . S
C594 O607 1.257 . S
O595 Dy592 2.307 . S
O595 C605 1.266 . S
O596 Dy593 2.298 . S
O596 C605 1.236 . S
O597 Dy592 2.395 . S
O597 C614 1.255 . S
O598 Dy592 2.379 . S
O598 C614 1.249 . S
O599 Dy593 2.275 . S
O599 C615 1.254 . S
O600 Dy592 2.339 . S
O600 C615 1.257 . S
O601 Dy593 2.307 . S
O601 C616 1.266 . S
O602 Dy592 2.298 . S
O602 C616 1.236 . S
O603 Dy593 2.395 . S
O603 C623 1.255 . S
O604 Dy593 2.379 . S
O604 C623 1.249 . S
C605 O595 1.266 . S
C605 O596 1.236 . S
O606 Dy592 2.275 . S
O606 C594 1.254 . S
O607 Dy593 2.339 . S
O607 C594 1.257 . S
C608 C611 1.344 . S
C608 C612 1.328 . S
C608 C614 1.516 . S
C609 C610 1.304 . S
C609 C613 1.323 . S
C610 C609 1.304 . S
C610 C611 1.371 . S
C610 H624 0.930 . S
C611 C608 1.344 . S
C611 C610 1.371 . S
C611 H625 0.931 . S
C612 C608 1.328 . S
C612 C613 1.433 . S
C612 H626 0.931 . S
C613 C609 1.323 . S
C613 C612 1.433 . S
C613 H627 0.933 . S
C614 Dy592 2.738 . S
C614 O597 1.255 . S
C614 O598 1.249 . S
C614 C608 1.516 . S
C615 O599 1.254 . S
C615 O600 1.257 . S
C616 O601 1.266 . S
C616 O602 1.236 . S
C617 C620 1.344 . S
C617 C621 1.328 . S
C617 C623 1.516 . S
C618 C619 1.304 . S
C618 C622 1.323 . S
C619 C618 1.304 . S
C619 C620 1.371 . S
C619 H628 0.930 . S
C620 C617 1.344 . S
C620 C619 1.371 . S
C620 H629 0.931 . S
C621 C617 1.328 . S
C621 C622 1.433 . S
C621 H630 0.931 . S
C622 C618 1.323 . S
C622 C621 1.433 . S
C622 H631 0.933 . S
C623 Dy593 2.738 . S
C623 O603 1.255 . S
C623 O604 1.249 . S
C623 C617 1.516 . S
H624 C610 0.930 . S
H625 C611 0.931 . S
H626 C612 0.931 . S
H627 C613 0.933 . S
H628 C619 0.930 . S
H629 C620 0.931 . S
H630 C621 0.931 . S
H631 C622 0.933 . S
Dy632 O635 2.307 1_554 S
Dy632 O637 2.395 . S
Dy632 O638 2.379 . S
Dy632 O640 2.339 . S
Dy632 O642 2.298 . S
Dy632 O646 2.275 . S
Dy632 C654 2.738 . S
Dy633 O636 2.298 1_554 S
Dy633 O639 2.275 . S
Dy633 O641 2.307 . S
Dy633 O643 2.395 . S
Dy633 O644 2.379 . S
Dy633 O647 2.339 . S
Dy633 C663 2.738 . S
C634 O646 1.254 . S
C634 O647 1.257 . S
O635 Dy632 2.307 1_556 S
O635 C645 1.266 . S
O636 Dy633 2.298 1_556 S
O636 C645 1.236 . S
O637 Dy632 2.395 . S
O637 C654 1.255 . S
O638 Dy632 2.379 . S
O638 C654 1.249 . S
O639 Dy633 2.275 . S
O639 C655 1.254 . S
O640 Dy632 2.339 . S
O640 C655 1.257 . S
O641 Dy633 2.307 . S
O641 C656 1.266 . S
O642 Dy632 2.298 . S
O642 C656 1.236 . S
O643 Dy633 2.395 . S
O643 C663 1.255 . S
O644 Dy633 2.379 . S
O644 C663 1.249 . S
C645 O635 1.266 . S
C645 O636 1.236 . S
O646 Dy632 2.275 . S
O646 C634 1.254 . S
O647 Dy633 2.339 . S
O647 C634 1.257 . S
C648 C651 1.344 . S
C648 C652 1.328 . S
C648 C654 1.516 . S
C649 C650 1.304 . S
C649 C653 1.323 . S
C650 C649 1.304 . S
C650 C651 1.371 . S
C650 H664 0.930 . S
C651 C648 1.344 . S
C651 C650 1.371 . S
C651 H665 0.931 . S
C652 C648 1.328 . S
C652 C653 1.433 . S
C652 H666 0.931 . S
C653 C649 1.323 . S
C653 C652 1.433 . S
C653 H667 0.933 . S
C654 Dy632 2.738 . S
C654 O637 1.255 . S
C654 O638 1.249 . S
C654 C648 1.516 . S
C655 O639 1.254 . S
C655 O640 1.257 . S
C656 O641 1.266 . S
C656 O642 1.236 . S
C657 C660 1.366 . S
C657 C661 1.326 . S
C657 C663 1.497 1_556 S
C658 C659 1.304 . S
C658 C662 1.323 . S
C659 C658 1.304 . S
C659 C660 1.371 . S
C659 H668 0.930 . S
C660 C657 1.366 . S
C660 C659 1.371 . S
C660 H669 0.931 . S
C661 C657 1.326 . S
C661 C662 1.436 . S
C661 H670 0.927 1_556 S
C662 C658 1.323 . S
C662 C661 1.436 . S
C662 H671 0.933 . S
C663 Dy633 2.738 . S
C663 O643 1.255 . S
C663 O644 1.249 . S
C663 C657 1.497 1_554 S
H664 C650 0.930 . S
H665 C651 0.931 . S
H666 C652 0.931 . S
H667 C653 0.933 . S
H668 C659 0.930 . S
H669 C660 0.931 . S
H670 C661 0.927 1_554 S
H671 C662 0.933 . S
Dy672 O675 2.307 . S
Dy672 O677 2.395 . S
Dy672 O678 2.379 . S
Dy672 O680 2.339 . S
Dy672 O682 2.298 . S
Dy672 O686 2.275 . S
Dy672 C694 2.738 . S
Dy673 O676 2.298 . S
Dy673 O679 2.275 . S
Dy673 O681 2.307 . S
Dy673 O683 2.395 . S
Dy673 O684 2.379 . S
Dy673 O687 2.339 . S
Dy673 C703 2.738 . S
C674 O686 1.254 . S
C674 O687 1.257 . S
O675 Dy672 2.307 . S
O675 C685 1.266 . S
O676 Dy673 2.298 . S
O676 C685 1.236 . S
O677 Dy672 2.395 . S
O677 C694 1.255 . S
O678 Dy672 2.379 . S
O678 C694 1.249 . S
O679 Dy673 2.275 . S
O679 C695 1.254 . S
O680 Dy672 2.339 . S
O680 C695 1.257 . S
O681 Dy673 2.307 . S
O681 C696 1.266 . S
O682 Dy672 2.298 . S
O682 C696 1.236 . S
O683 Dy673 2.395 . S
O683 C703 1.255 . S
O684 Dy673 2.379 . S
O684 C703 1.249 . S
C685 O675 1.266 . S
C685 O676 1.236 . S
O686 Dy672 2.275 . S
O686 C674 1.254 . S
O687 Dy673 2.339 . S
O687 C674 1.257 . S
C688 C691 1.344 . S
C688 C692 1.328 . S
C688 C694 1.516 . S
C689 C690 1.304 . S
C689 C693 1.323 . S
C690 C689 1.304 . S
C690 C691 1.371 . S
C690 H704 0.930 . S
C691 C688 1.344 . S
C691 C690 1.371 . S
C691 H705 0.931 . S
C692 C688 1.328 . S
C692 C693 1.433 . S
C692 H706 0.931 . S
C693 C689 1.323 . S
C693 C692 1.433 . S
C693 H707 0.933 . S
C694 Dy672 2.738 . S
C694 O677 1.255 . S
C694 O678 1.249 . S
C694 C688 1.516 . S
C695 O679 1.254 . S
C695 O680 1.257 . S
C696 O681 1.266 . S
C696 O682 1.236 . S
C697 C700 1.344 . S
C697 C701 1.328 . S
C697 C703 1.516 . S
C698 C699 1.304 . S
C698 C702 1.323 . S
C699 C698 1.304 . S
C699 C700 1.371 . S
C699 H708 0.930 . S
C700 C697 1.344 . S
C700 C699 1.371 . S
C700 H709 0.931 . S
C701 C697 1.328 . S
C701 C702 1.433 . S
C701 H710 0.931 . S
C702 C698 1.323 . S
C702 C701 1.433 . S
C702 H711 0.933 . S
C703 Dy673 2.738 . S
C703 O683 1.255 . S
C703 O684 1.249 . S
C703 C697 1.516 . S
H704 C690 0.930 . S
H705 C691 0.931 . S
H706 C692 0.931 . S
H707 C693 0.933 . S
H708 C699 0.930 . S
H709 C700 0.931 . S
H710 C701 0.931 . S
H711 C702 0.933 . S
Dy712 O715 2.307 1_455 S
Dy712 O717 2.395 . S
Dy712 O718 2.379 . S
Dy712 O720 2.339 . S
Dy712 O722 2.298 . S
Dy712 O726 2.275 . S
Dy712 C734 2.738 . S
Dy713 O716 2.298 1_455 S
Dy713 O719 2.275 . S
Dy713 O721 2.307 . S
Dy713 O723 2.395 . S
Dy713 O724 2.379 . S
Dy713 O727 2.339 . S
Dy713 C743 2.738 . S
C714 O726 1.254 . S
C714 O727 1.257 . S
O715 Dy712 2.307 1_655 S
O715 C725 1.266 . S
O716 Dy713 2.298 1_655 S
O716 C725 1.236 . S
O717 Dy712 2.395 . S
O717 C734 1.255 . S
O718 Dy712 2.379 . S
O718 C734 1.249 . S
O719 Dy713 2.275 . S
O719 C735 1.254 . S
O720 Dy712 2.339 . S
O720 C735 1.257 . S
O721 Dy713 2.307 . S
O721 C736 1.266 . S
O722 Dy712 2.298 . S
O722 C736 1.236 . S
O723 Dy713 2.395 . S
O723 C743 1.255 . S
O724 Dy713 2.379 . S
O724 C743 1.249 . S
C725 O715 1.266 . S
C725 O716 1.236 . S
O726 Dy712 2.275 . S
O726 C714 1.254 . S
O727 Dy713 2.339 . S
O727 C714 1.257 . S
C728 C731 1.344 . S
C728 C732 1.328 . S
C728 C734 1.516 . S
C729 C730 1.304 . S
C729 C733 1.323 . S
C730 C729 1.304 . S
C730 C731 1.371 . S
C730 H744 0.930 . S
C731 C728 1.344 . S
C731 C730 1.371 . S
C731 H745 0.931 . S
C732 C728 1.328 . S
C732 C733 1.433 . S
C732 H746 0.931 . S
C733 C729 1.323 . S
C733 C732 1.433 . S
C733 H747 0.933 . S
C734 Dy712 2.738 . S
C734 O717 1.255 . S
C734 O718 1.249 . S
C734 C728 1.516 . S
C735 O719 1.254 . S
C735 O720 1.257 . S
C736 O721 1.266 . S
C736 O722 1.236 . S
C737 C740 1.344 . S
C737 C741 1.328 . S
C737 C743 1.516 1_655 S
C738 C739 1.304 . S
C738 C742 1.323 . S
C739 C738 1.304 . S
C739 C740 1.371 . S
C739 H748 0.930 . S
C740 C737 1.344 . S
C740 C739 1.371 . S
C740 H749 0.931 . S
C741 C737 1.328 . S
C741 C742 1.433 . S
C741 H750 0.943 . S
C742 C738 1.323 . S
C742 C741 1.433 . S
C742 H751 0.933 . S
C743 Dy713 2.738 . S
C743 O723 1.255 . S
C743 O724 1.249 . S
C743 C737 1.516 1_455 S
H744 C730 0.930 . S
H745 C731 0.931 . S
H746 C732 0.931 . S
H747 C733 0.933 . S
H748 C739 0.930 . S
H749 C740 0.931 . S
H750 C741 0.943 . S
H751 C742 0.933 . S
Dy752 O755 2.307 . S
Dy752 O757 2.395 . S
Dy752 O758 2.379 . S
Dy752 O760 2.339 . S
Dy752 O762 2.298 . S
Dy752 O766 2.275 . S
Dy752 C774 2.738 . S
Dy753 O756 2.298 . S
Dy753 O759 2.275 . S
Dy753 O761 2.307 . S
Dy753 O763 2.395 . S
Dy753 O764 2.379 . S
Dy753 O767 2.339 . S
Dy753 C783 2.738 . S
C754 O766 1.254 . S
C754 O767 1.257 . S
O755 Dy752 2.307 . S
O755 C765 1.266 . S
O756 Dy753 2.298 . S
O756 C765 1.236 . S
O757 Dy752 2.395 . S
O757 C774 1.255 . S
O758 Dy752 2.379 . S
O758 C774 1.249 . S
O759 Dy753 2.275 . S
O759 C775 1.254 . S
O760 Dy752 2.339 . S
O760 C775 1.257 . S
O761 Dy753 2.307 . S
O761 C776 1.266 . S
O762 Dy752 2.298 . S
O762 C776 1.236 . S
O763 Dy753 2.395 . S
O763 C783 1.255 . S
O764 Dy753 2.379 . S
O764 C783 1.249 . S
C765 O755 1.266 . S
C765 O756 1.236 . S
O766 Dy752 2.275 . S
O766 C754 1.254 . S
O767 Dy753 2.339 . S
O767 C754 1.257 . S
C768 C771 1.344 . S
C768 C772 1.328 . S
C768 C774 1.516 . S
C769 C770 1.304 . S
C769 C773 1.323 . S
C770 C769 1.304 . S
C770 C771 1.371 . S
C770 H784 0.930 . S
C771 C768 1.344 . S
C771 C770 1.371 . S
C771 H785 0.931 . S
C772 C768 1.328 . S
C772 C773 1.433 . S
C772 H786 0.931 . S
C773 C769 1.323 . S
C773 C772 1.433 . S
C773 H787 0.933 . S
C774 Dy752 2.738 . S
C774 O757 1.255 . S
C774 O758 1.249 . S
C774 C768 1.516 . S
C775 O759 1.254 . S
C775 O760 1.257 . S
C776 O761 1.266 . S
C776 O762 1.236 . S
C777 C780 1.344 . S
C777 C781 1.328 . S
C777 C783 1.516 . S
C778 C779 1.304 . S
C778 C782 1.323 . S
C779 C778 1.304 . S
C779 C780 1.371 . S
C779 H788 0.930 . S
C780 C777 1.344 . S
C780 C779 1.371 . S
C780 H789 0.931 . S
C781 C777 1.328 . S
C781 C782 1.433 . S
C781 H790 0.931 . S
C782 C778 1.323 . S
C782 C781 1.433 . S
C782 H791 0.933 . S
C783 Dy753 2.738 . S
C783 O763 1.255 . S
C783 O764 1.249 . S
C783 C777 1.516 . S
H784 C770 0.930 . S
H785 C771 0.931 . S
H786 C772 0.931 . S
H787 C773 0.933 . S
H788 C779 0.930 . S
H789 C780 0.931 . S
H790 C781 0.931 . S
H791 C782 0.933 . S
Dy792 O795 2.307 . S
Dy792 O797 2.395 . S
Dy792 O798 2.379 . S
Dy792 O800 2.339 . S
Dy792 O802 2.298 . S
Dy792 O806 2.275 . S
Dy792 C814 2.738 . S
Dy793 O796 2.298 . S
Dy793 O799 2.275 . S
Dy793 O801 2.307 . S
Dy793 O803 2.395 . S
Dy793 O804 2.379 . S
Dy793 O807 2.339 . S
Dy793 C823 2.738 . S
C794 O806 1.254 . S
C794 O807 1.257 . S
O795 Dy792 2.307 . S
O795 C805 1.266 . S
O796 Dy793 2.298 . S
O796 C805 1.236 . S
O797 Dy792 2.395 . S
O797 C814 1.255 . S
O798 Dy792 2.379 . S
O798 C814 1.249 . S
O799 Dy793 2.275 . S
O799 C815 1.254 . S
O800 Dy792 2.339 . S
O800 C815 1.257 . S
O801 Dy793 2.307 . S
O801 C816 1.266 . S
O802 Dy792 2.298 . S
O802 C816 1.236 . S
O803 Dy793 2.395 . S
O803 C823 1.255 . S
O804 Dy793 2.379 . S
O804 C823 1.249 . S
C805 O795 1.266 . S
C805 O796 1.236 . S
O806 Dy792 2.275 . S
O806 C794 1.254 . S
O807 Dy793 2.339 . S
O807 C794 1.257 . S
C808 C811 1.344 . S
C808 C812 1.328 . S
C808 C814 1.516 . S
C809 C810 1.304 . S
C809 C813 1.323 . S
C810 C809 1.304 . S
C810 C811 1.371 . S
C810 H824 0.930 . S
C811 C808 1.344 . S
C811 C810 1.371 . S
C811 H825 0.931 . S
C812 C808 1.328 . S
C812 C813 1.433 . S
C812 H826 0.931 . S
C813 C809 1.323 . S
C813 C812 1.433 . S
C813 H827 0.933 . S
C814 Dy792 2.738 . S
C814 O797 1.255 . S
C814 O798 1.249 . S
C814 C808 1.516 . S
C815 O799 1.254 . S
C815 O800 1.257 . S
C816 O801 1.266 . S
C816 O802 1.236 . S
C817 C820 1.344 . S
C817 C821 1.328 . S
C817 C823 1.516 . S
C818 C819 1.304 . S
C818 C822 1.323 . S
C819 C818 1.304 . S
C819 C820 1.371 . S
C819 H828 0.930 . S
C820 C817 1.344 . S
C820 C819 1.371 . S
C820 H829 0.931 . S
C821 C817 1.328 . S
C821 C822 1.433 . S
C821 H830 0.931 . S
C822 C818 1.323 . S
C822 C821 1.433 . S
C822 H831 0.933 . S
C823 Dy793 2.738 . S
C823 O803 1.255 . S
C823 O804 1.249 . S
C823 C817 1.516 . S
H824 C810 0.930 . S
H825 C811 0.931 . S
H826 C812 0.931 . S
H827 C813 0.933 . S
H828 C819 0.930 . S
H829 C820 0.931 . S
H830 C821 0.931 . S
H831 C822 0.933 . S
Dy832 O835 2.307 . S
Dy832 O837 2.395 . S
Dy832 O838 2.379 . S
Dy832 O840 2.339 . S
Dy832 O842 2.298 . S
Dy832 O846 2.275 . S
Dy832 C854 2.738 . S
Dy833 O836 2.298 . S
Dy833 O839 2.275 . S
Dy833 O841 2.307 . S
Dy833 O843 2.395 . S
Dy833 O844 2.379 . S
Dy833 O847 2.339 . S
Dy833 C863 2.738 . S
C834 O846 1.254 . S
C834 O847 1.257 . S
O835 Dy832 2.307 . S
O835 C845 1.266 . S
O836 Dy833 2.298 . S
O836 C845 1.236 . S
O837 Dy832 2.395 . S
O837 C854 1.255 . S
O838 Dy832 2.379 . S
O838 C854 1.249 . S
O839 Dy833 2.275 . S
O839 C855 1.254 . S
O840 Dy832 2.339 . S
O840 C855 1.257 . S
O841 Dy833 2.307 . S
O841 C856 1.266 . S
O842 Dy832 2.298 . S
O842 C856 1.236 . S
O843 Dy833 2.395 . S
O843 C863 1.255 . S
O844 Dy833 2.379 . S
O844 C863 1.249 . S
C845 O835 1.266 . S
C845 O836 1.236 . S
O846 Dy832 2.275 . S
O846 C834 1.254 . S
O847 Dy833 2.339 . S
O847 C834 1.257 . S
C848 C851 1.344 . S
C848 C852 1.328 . S
C848 C854 1.516 . S
C849 C850 1.304 . S
C849 C853 1.323 . S
C850 C849 1.304 . S
C850 C851 1.371 . S
C850 H864 0.930 . S
C851 C848 1.344 . S
C851 C850 1.371 . S
C851 H865 0.931 . S
C852 C848 1.328 . S
C852 C853 1.433 . S
C852 H866 0.931 . S
C853 C849 1.323 . S
C853 C852 1.433 . S
C853 H867 0.933 . S
C854 Dy832 2.738 . S
C854 O837 1.255 . S
C854 O838 1.249 . S
C854 C848 1.516 . S
C855 O839 1.254 . S
C855 O840 1.257 . S
C856 O841 1.266 . S
C856 O842 1.236 . S
C857 C860 1.344 . S
C857 C861 1.328 . S
C857 C863 1.516 . S
C858 C859 1.304 . S
C858 C862 1.323 . S
C859 C858 1.304 . S
C859 C860 1.371 . S
C859 H868 0.930 . S
C860 C857 1.344 . S
C860 C859 1.371 . S
C860 H869 0.931 . S
C861 C857 1.328 . S
C861 C862 1.433 . S
C861 H870 0.931 . S
C862 C858 1.323 . S
C862 C861 1.433 . S
C862 H871 0.933 . S
C863 Dy833 2.738 . S
C863 O843 1.255 . S
C863 O844 1.249 . S
C863 C857 1.516 . S
H864 C850 0.930 . S
H865 C851 0.931 . S
H866 C852 0.931 . S
H867 C853 0.933 . S
H868 C859 0.930 . S
H869 C860 0.931 . S
H870 C861 0.931 . S
H871 C862 0.933 . S
Dy872 O875 2.307 . S
Dy872 O877 2.395 . S
Dy872 O878 2.379 . S
Dy872 O880 2.339 . S
Dy872 O882 2.298 . S
Dy872 O886 2.275 . S
Dy872 C894 2.738 . S
Dy873 O876 2.298 . S
Dy873 O879 2.275 . S
Dy873 O881 2.307 . S
Dy873 O883 2.395 . S
Dy873 O884 2.379 . S
Dy873 O887 2.339 . S
Dy873 C903 2.738 . S
C874 O886 1.254 . S
C874 O887 1.257 . S
O875 Dy872 2.307 . S
O875 C885 1.266 . S
O876 Dy873 2.298 . S
O876 C885 1.236 . S
O877 Dy872 2.395 . S
O877 C894 1.255 . S
O878 Dy872 2.379 . S
O878 C894 1.249 . S
O879 Dy873 2.275 . S
O879 C895 1.254 . S
O880 Dy872 2.339 . S
O880 C895 1.257 . S
O881 Dy873 2.307 . S
O881 C896 1.266 . S
O882 Dy872 2.298 . S
O882 C896 1.236 . S
O883 Dy873 2.395 . S
O883 C903 1.255 . S
O884 Dy873 2.379 . S
O884 C903 1.249 . S
C885 O875 1.266 . S
C885 O876 1.236 . S
O886 Dy872 2.275 . S
O886 C874 1.254 . S
O887 Dy873 2.339 . S
O887 C874 1.257 . S
C888 C891 1.344 . S
C888 C892 1.328 . S
C888 C894 1.516 . S
C889 C890 1.304 . S
C889 C893 1.323 . S
C890 C889 1.304 . S
C890 C891 1.371 . S
C890 H904 0.930 . S
C891 C888 1.344 . S
C891 C890 1.371 . S
C891 H905 0.931 . S
C892 C888 1.328 . S
C892 C893 1.433 . S
C892 H906 0.931 . S
C893 C889 1.323 . S
C893 C892 1.433 . S
C893 H907 0.933 . S
C894 Dy872 2.738 . S
C894 O877 1.255 . S
C894 O878 1.249 . S
C894 C888 1.516 . S
C895 O879 1.254 . S
C895 O880 1.257 . S
C896 O881 1.266 . S
C896 O882 1.236 . S
C897 C900 1.344 . S
C897 C901 1.328 . S
C897 C903 1.516 . S
C898 C899 1.304 . S
C898 C902 1.323 . S
C899 C898 1.304 . S
C899 C900 1.371 . S
C899 H908 0.930 . S
C900 C897 1.344 . S
C900 C899 1.371 . S
C900 H909 0.931 . S
C901 C897 1.328 . S
C901 C902 1.433 . S
C901 H910 0.931 . S
C902 C898 1.323 . S
C902 C901 1.433 . S
C902 H911 0.933 . S
C903 Dy873 2.738 . S
C903 O883 1.255 . S
C903 O884 1.249 . S
C903 C897 1.516 . S
H904 C890 0.930 . S
H905 C891 0.931 . S
H906 C892 0.931 . S
H907 C893 0.933 . S
H908 C899 0.930 . S
H909 C900 0.931 . S
H910 C901 0.931 . S
H911 C902 0.933 . S
Dy912 O915 2.307 . S
Dy912 O917 2.395 1_455 S
Dy912 O918 2.379 1_455 S
Dy912 O920 2.339 . S
Dy912 O922 2.298 . S
Dy912 O926 2.275 . S
Dy912 C934 2.738 1_455 S
Dy913 O916 2.298 . S
Dy913 O919 2.275 . S
Dy913 O921 2.307 . S
Dy913 O923 2.395 . S
Dy913 O924 2.379 1_554 S
Dy913 O927 2.339 1_554 S
Dy913 C943 2.738 . S
C914 O926 1.254 1_556 S
C914 O927 1.257 . S
O915 Dy912 2.307 . S
O915 C925 1.266 . S
O916 Dy913 2.298 . S
O916 C925 1.236 . S
O917 Dy912 2.395 1_655 S
O917 C934 1.255 . S
O918 Dy912 2.379 1_655 S
O918 C934 1.249 . S
O919 Dy913 2.275 . S
O919 C935 1.254 . S
O920 Dy912 2.339 . S
O920 C935 1.257 . S
O921 Dy913 2.307 . S
O921 C936 1.266 . S
O922 Dy912 2.298 . S
O922 C936 1.236 . S
O923 Dy913 2.395 . S
O923 C943 1.255 . S
O924 Dy913 2.379 1_556 S
O924 C943 1.249 1_556 S
C925 O915 1.266 . S
C925 O916 1.236 . S
O926 Dy912 2.275 . S
O926 C914 1.254 1_554 S
O927 Dy913 2.339 1_556 S
O927 C914 1.257 . S
C928 C931 1.344 . S
C928 C932 1.328 . S
C928 C934 1.516 . S
C929 C930 1.304 . S
C929 C933 1.323 . S
C930 C929 1.304 . S
C930 C931 1.371 . S
C930 H944 0.930 . S
C931 C928 1.344 . S
C931 C930 1.371 . S
C931 H945 0.931 . S
C932 C928 1.328 . S
C932 C933 1.433 . S
C932 H946 0.931 . S
C933 C929 1.323 . S
C933 C932 1.433 . S
C933 H947 0.933 . S
C934 Dy912 2.738 1_655 S
C934 O917 1.255 . S
C934 O918 1.249 . S
C934 C928 1.516 . S
C935 O919 1.254 . S
C935 O920 1.257 . S
C936 O921 1.266 . S
C936 O922 1.236 . S
C937 C940 1.344 . S
C937 C941 1.328 1_554 S
C937 C943 1.516 . S
C938 C939 1.304 1_556 S
C938 C942 1.323 . S
C939 C938 1.304 1_554 S
C939 C940 1.371 . S
C939 H948 0.930 . S
C940 C937 1.344 . S
C940 C939 1.371 . S
C940 H949 0.931 . S
C941 C937 1.328 1_556 S
C941 C942 1.433 . S
C941 H950 0.931 . S
C942 C938 1.323 . S
C942 C941 1.433 . S
C942 H951 0.933 . S
C943 Dy913 2.738 . S
C943 O923 1.255 . S
C943 O924 1.249 1_554 S
C943 C937 1.516 . S
H944 C930 0.930 . S
H945 C931 0.931 . S
H946 C932 0.931 . S
H947 C933 0.933 . S
H948 C939 0.930 . S
H949 C940 0.931 . S
H950 C941 0.931 . S
H951 C942 0.933 . S
H952 C960 0.950 . S
H953 C965 0.950 . S
H954 C962 0.950 . S
H955 C964 0.950 . S
H956 C966 0.950 . S
H957 C968 0.950 . S
H958 C970 0.950 1_556 S
H959 C971 0.939 1_655 S
C960 H952 0.950 . S
C960 C961 1.405 . S
C960 C962 1.391 . S
C961 C960 1.405 . S
C961 C965 1.351 1_656 S
C962 H954 0.950 . S
C962 C960 1.391 . S
C962 C963 1.400 1_656 S
C963 C962 1.400 1_454 S
C963 C964 1.398 . S
C963 C969 1.491 . S
C964 H955 0.950 . S
C964 C963 1.398 . S
C964 C965 1.391 . S
C965 H953 0.950 . S
C965 C961 1.351 1_454 S
C965 C964 1.391 . S
C966 H956 0.950 . S
C966 C967 1.386 . S
C966 C968 1.391 . S
C967 C966 1.386 . S
C967 C971 1.416 . S
C968 H957 0.950 . S
C968 C966 1.391 . S
C968 C969 1.400 . S
C969 C963 1.491 . S
C969 C968 1.400 . S
C969 C970 1.398 1_455 S
C970 H958 0.950 1_554 S
C970 C969 1.398 1_655 S
C970 C971 1.378 1_655 S
C971 H959 0.939 1_455 S
C971 C967 1.416 . S
C971 C970 1.378 1_455 S
H972 C980 0.950 . S
H973 C985 0.950 . S
H974 C982 0.950 . S
H975 C984 0.950 . S
H976 C986 0.950 . S
H977 C988 0.950 . S
H978 C990 0.950 . S
H979 C991 0.950 . S
C980 H972 0.950 . S
C980 C981 1.386 . S
C980 C982 1.391 . S
C981 C980 1.386 . S
C981 C985 1.393 . S
C982 H974 0.950 . S
C982 C980 1.391 . S
C982 C983 1.400 . S
C983 C982 1.400 . S
C983 C984 1.398 . S
C983 C989 1.491 . S
C984 H975 0.950 . S
C984 C983 1.398 . S
C984 C985 1.391 . S
C985 H973 0.950 . S
C985 C981 1.393 . S
C985 C984 1.391 . S
C986 H976 0.950 . S
C986 C987 1.386 . S
C986 C988 1.391 . S
C987 C986 1.386 . S
C987 C991 1.393 . S
C988 H977 0.950 . S
C988 C986 1.391 . S
C988 C989 1.400 . S
C989 C983 1.491 . S
C989 C988 1.400 . S
C989 C990 1.398 . S
C990 H978 0.950 . S
C990 C989 1.398 . S
C990 C991 1.391 . S
C991 H979 0.950 . S
C991 C987 1.393 . S
C991 C990 1.391 . S
H992 C1000 0.950 . S
H993 C1005 0.950 . S
H994 C1002 0.950 . S
H995 C1004 0.950 . S
H996 C1006 0.950 . S
H997 C1008 0.950 . S
H998 C1010 0.950 . S
H999 C1011 0.950 . S
C1000 H992 0.950 . S
C1000 C1001 1.386 . S
C1000 C1002 1.391 . S
C1001 C1000 1.386 . S
C1001 C1005 1.393 . S
C1002 H994 0.950 . S
C1002 C1000 1.391 . S
C1002 C1003 1.400 . S
C1003 C1002 1.400 . S
C1003 C1004 1.398 . S
C1003 C1009 1.491 . S
C1004 H995 0.950 . S
C1004 C1003 1.398 . S
C1004 C1005 1.391 . S
C1005 H993 0.950 . S
C1005 C1001 1.393 . S
C1005 C1004 1.391 . S
C1006 H996 0.950 . S
C1006 C1007 1.386 . S
C1006 C1008 1.391 . S
C1007 C1006 1.386 . S
C1007 C1011 1.393 . S
C1008 H997 0.950 . S
C1008 C1006 1.391 . S
C1008 C1009 1.400 . S
C1009 C1003 1.491 . S
C1009 C1008 1.400 . S
C1009 C1010 1.398 . S
C1010 H998 0.950 . S
C1010 C1009 1.398 . S
C1010 C1011 1.391 . S
C1011 H999 0.950 . S
C1011 C1007 1.393 . S
C1011 C1010 1.391 . S
H1012 C1020 0.950 . S
H1013 C1025 0.950 . S
H1014 C1022 0.950 . S
H1015 C1024 0.950 . S
H1016 C1026 0.950 . S
H1017 C1028 0.950 . S
H1018 C1030 0.950 . S
H1019 C1031 0.950 . S
C1020 H1012 0.950 . S
C1020 C1021 1.386 . S
C1020 C1022 1.391 . S
C1021 C1020 1.386 . S
C1021 C1025 1.393 . S
C1022 H1014 0.950 . S
C1022 C1020 1.391 . S
C1022 C1023 1.400 . S
C1023 C1022 1.400 . S
C1023 C1024 1.398 . S
C1023 C1029 1.491 . S
C1024 H1015 0.950 . S
C1024 C1023 1.398 . S
C1024 C1025 1.391 . S
C1025 H1013 0.950 . S
C1025 C1021 1.393 . S
C1025 C1024 1.391 . S
C1026 H1016 0.950 . S
C1026 C1027 1.386 . S
C1026 C1028 1.391 . S
C1027 C1026 1.386 . S
C1027 C1031 1.393 . S
C1028 H1017 0.950 . S
C1028 C1026 1.391 . S
C1028 C1029 1.400 . S
C1029 C1023 1.491 . S
C1029 C1028 1.400 . S
C1029 C1030 1.398 . S
C1030 H1018 0.950 . S
C1030 C1029 1.398 . S
C1030 C1031 1.391 . S
C1031 H1019 0.950 . S
C1031 C1027 1.393 . S
C1031 C1030 1.391 . S
H1032 C1040 0.950 . S
H1033 C1045 0.950 1_655 S
H1034 C1042 0.950 . S
H1035 C1044 0.950 . S
H1036 C1046 0.950 . S
H1037 C1048 0.950 . S
H1038 C1050 0.950 . S
H1039 C1051 0.950 . S
C1040 H1032 0.950 . S
C1040 C1041 1.386 . S
C1040 C1042 1.391 . S
C1041 C1040 1.386 . S
C1041 C1045 1.393 . S
C1042 H1034 0.950 . S
C1042 C1040 1.391 . S
C1042 C1043 1.400 . S
C1043 C1042 1.400 . S
C1043 C1044 1.398 . S
C1043 C1049 1.491 . S
C1044 H1035 0.950 . S
C1044 C1043 1.398 . S
C1044 C1045 1.391 . S
C1045 H1033 0.950 1_455 S
C1045 C1041 1.393 . S
C1045 C1044 1.391 . S
C1046 H1036 0.950 . S
C1046 C1047 1.386 . S
C1046 C1048 1.391 . S
C1047 C1046 1.386 . S
C1047 C1051 1.393 . S
C1048 H1037 0.950 . S
C1048 C1046 1.391 . S
C1048 C1049 1.400 . S
C1049 C1043 1.491 . S
C1049 C1048 1.400 . S
C1049 C1050 1.398 . S
C1050 H1038 0.950 . S
C1050 C1049 1.398 . S
C1050 C1051 1.391 . S
C1051 H1039 0.950 . S
C1051 C1047 1.393 . S
C1051 C1050 1.391 . S
H1052 C1060 0.950 . S
H1053 C1065 0.950 . S
H1054 C1062 0.950 . S
H1055 C1064 0.950 . S
H1056 C1066 0.950 . S
H1057 C1068 0.950 . S
H1058 C1070 0.950 . S
H1059 C1071 0.950 . S
C1060 H1052 0.950 . S
C1060 C1061 1.386 . S
C1060 C1062 1.391 . S
C1061 C1060 1.386 . S
C1061 C1065 1.393 . S
C1062 H1054 0.950 . S
C1062 C1060 1.391 . S
C1062 C1063 1.400 . S
C1063 C1062 1.400 . S
C1063 C1064 1.398 . S
C1063 C1069 1.491 . S
C1064 H1055 0.950 . S
C1064 C1063 1.398 . S
C1064 C1065 1.391 . S
C1065 H1053 0.950 . S
C1065 C1061 1.393 . S
C1065 C1064 1.391 . S
C1066 H1056 0.950 . S
C1066 C1067 1.386 . S
C1066 C1068 1.391 . S
C1067 C1066 1.386 . S
C1067 C1071 1.393 . S
C1068 H1057 0.950 . S
C1068 C1066 1.391 . S
C1068 C1069 1.400 . S
C1069 C1063 1.491 . S
C1069 C1068 1.400 . S
C1069 C1070 1.398 . S
C1070 H1058 0.950 . S
C1070 C1069 1.398 . S
C1070 C1071 1.391 . S
C1071 H1059 0.950 . S
C1071 C1067 1.393 . S
C1071 C1070 1.391 . S
H1072 C1080 0.950 . S
H1073 C1085 0.950 . S
H1074 C1082 0.950 . S
H1075 C1084 0.950 . S
H1076 C1086 0.950 . S
H1077 C1088 0.950 . S
H1078 C1090 0.950 . S
H1079 C1091 0.950 . S
C1080 H1072 0.950 . S
C1080 C1081 1.386 . S
C1080 C1082 1.391 . S
C1081 C1080 1.386 . S
C1081 C1085 1.393 . S
C1082 H1074 0.950 . S
C1082 C1080 1.391 . S
C1082 C1083 1.400 . S
C1083 C1082 1.400 . S
C1083 C1084 1.398 . S
C1083 C1089 1.491 . S
C1084 H1075 0.950 . S
C1084 C1083 1.398 . S
C1084 C1085 1.391 . S
C1085 H1073 0.950 . S
C1085 C1081 1.393 . S
C1085 C1084 1.391 . S
C1086 H1076 0.950 . S
C1086 C1087 1.386 . S
C1086 C1088 1.391 . S
C1087 C1086 1.386 . S
C1087 C1091 1.393 . S
C1088 H1077 0.950 . S
C1088 C1086 1.391 . S
C1088 C1089 1.400 . S
C1089 C1083 1.491 . S
C1089 C1088 1.400 . S
C1089 C1090 1.398 . S
C1090 H1078 0.950 . S
C1090 C1089 1.398 . S
C1090 C1091 1.391 . S
C1091 H1079 0.950 . S
C1091 C1087 1.393 . S
C1091 C1090 1.391 . S
H1092 C1100 0.950 . S
H1093 C1105 0.950 . S
H1094 C1102 0.950 . S
H1095 C1104 0.950 . S
H1096 C1106 0.950 . S
H1097 C1108 0.950 . S
H1098 C1110 0.950 . S
H1099 C1111 0.950 . S
C1100 H1092 0.950 . S
C1100 C1101 1.386 . S
C1100 C1102 1.391 . S
C1101 C1100 1.386 . S
C1101 C1105 1.393 . S
C1102 H1094 0.950 . S
C1102 C1100 1.391 . S
C1102 C1103 1.400 . S
C1103 C1102 1.400 . S
C1103 C1104 1.398 . S
C1103 C1109 1.491 . S
C1104 H1095 0.950 . S
C1104 C1103 1.398 . S
C1104 C1105 1.391 . S
C1105 H1093 0.950 . S
C1105 C1101 1.393 . S
C1105 C1104 1.391 . S
C1106 H1096 0.950 . S
C1106 C1107 1.386 . S
C1106 C1108 1.391 . S
C1107 C1106 1.386 . S
C1107 C1111 1.393 . S
C1108 H1097 0.950 . S
C1108 C1106 1.391 . S
C1108 C1109 1.400 . S
C1109 C1103 1.491 . S
C1109 C1108 1.400 . S
C1109 C1110 1.398 . S
C1110 H1098 0.950 . S
C1110 C1109 1.398 . S
C1110 C1111 1.391 . S
C1111 H1099 0.950 . S
C1111 C1107 1.393 . S
C1111 C1110 1.391 . S
H1112 C1120 0.950 . S
H1113 C1125 0.952 1_565 S
H1114 C1122 0.950 1_455 S
H1115 C1124 0.950 . S
H1116 C1126 0.950 . S
H1117 C1128 0.950 . S
H1118 C1130 0.950 . S
H1119 C1131 0.950 . S
C1120 H1112 0.950 . S
C1120 C1121 1.386 . S
C1120 C1122 1.391 . S
C1121 C1120 1.386 . S
C1121 C1125 1.393 . S
C1122 H1114 0.950 1_655 S
C1122 C1120 1.391 . S
C1122 C1123 1.400 . S
C1123 C1122 1.400 . S
C1123 C1124 1.398 . S
C1123 C1129 1.491 . S
C1124 H1115 0.950 . S
C1124 C1123 1.398 . S
C1124 C1125 1.391 . S
C1125 H1113 0.952 1_545 S
C1125 C1121 1.393 . S
C1125 C1124 1.391 . S
C1126 H1116 0.950 . S
C1126 C1127 1.386 1_655 S
C1126 C1128 1.391 . S
C1127 C1126 1.386 1_455 S
C1127 C1131 1.393 . S
C1128 H1117 0.950 . S
C1128 C1126 1.391 . S
C1128 C1129 1.400 . S
C1129 C1123 1.491 . S
C1129 C1128 1.400 . S
C1129 C1130 1.398 1_655 S
C1130 H1118 0.950 . S
C1130 C1129 1.398 1_455 S
C1130 C1131 1.391 . S
C1131 H1119 0.950 . S
C1131 C1127 1.393 . S
C1131 C1130 1.391 . S
H1132 C1140 0.950 . S
H1133 C1145 0.950 . S
H1134 C1142 0.950 . S
H1135 C1144 0.950 . S
H1136 C1146 0.950 . S
H1137 C1148 0.950 . S
H1138 C1150 0.950 . S
H1139 C1151 0.950 . S
C1140 H1132 0.950 . S
C1140 C1141 1.386 . S
C1140 C1142 1.391 . S
C1141 C1140 1.386 . S
C1141 C1145 1.393 . S
C1142 H1134 0.950 . S
C1142 C1140 1.391 . S
C1142 C1143 1.400 . S
C1143 C1142 1.400 . S
C1143 C1144 1.398 . S
C1143 C1149 1.491 . S
C1144 H1135 0.950 . S
C1144 C1143 1.398 . S
C1144 C1145 1.391 . S
C1145 H1133 0.950 . S
C1145 C1141 1.393 . S
C1145 C1144 1.391 . S
C1146 H1136 0.950 . S
C1146 C1147 1.386 . S
C1146 C1148 1.391 . S
C1147 C1146 1.386 . S
C1147 C1151 1.393 . S
C1148 H1137 0.950 . S
C1148 C1146 1.391 . S
C1148 C1149 1.400 . S
C1149 C1143 1.491 . S
C1149 C1148 1.400 . S
C1149 C1150 1.398 . S
C1150 H1138 0.950 . S
C1150 C1149 1.398 . S
C1150 C1151 1.391 . S
C1151 H1139 0.950 . S
C1151 C1147 1.393 . S
C1151 C1150 1.391 . S
H1152 C1160 0.950 . S
H1153 C1165 0.950 . S
H1154 C1162 0.950 . S
H1155 C1164 0.950 . S
H1156 C1166 0.950 . S
H1157 C1168 0.950 . S
H1158 C1170 0.950 . S
H1159 C1171 0.950 . S
C1160 H1152 0.950 . S
C1160 C1161 1.386 . S
C1160 C1162 1.391 . S
C1161 C1160 1.386 . S
C1161 C1165 1.393 . S
C1162 H1154 0.950 . S
C1162 C1160 1.391 . S
C1162 C1163 1.400 . S
C1163 C1162 1.400 . S
C1163 C1164 1.398 . S
C1163 C1169 1.491 . S
C1164 H1155 0.950 . S
C1164 C1163 1.398 . S
C1164 C1165 1.391 . S
C1165 H1153 0.950 . S
C1165 C1161 1.393 . S
C1165 C1164 1.391 . S
C1166 H1156 0.950 . S
C1166 C1167 1.386 . S
C1166 C1168 1.391 . S
C1167 C1166 1.386 . S
C1167 C1171 1.393 . S
C1168 H1157 0.950 . S
C1168 C1166 1.391 . S
C1168 C1169 1.400 . S
C1169 C1163 1.491 . S
C1169 C1168 1.400 . S
C1169 C1170 1.398 . S
C1170 H1158 0.950 . S
C1170 C1169 1.398 . S
C1170 C1171 1.391 . S
C1171 H1159 0.950 . S
C1171 C1167 1.393 . S
C1171 C1170 1.391 . S
H1172 C1180 0.950 . S
H1173 C1185 0.950 . S
H1174 C1182 0.950 . S
H1175 C1184 0.950 . S
H1176 C1186 0.950 . S
H1177 C1188 0.950 . S
H1178 C1190 0.950 . S
H1179 C1191 0.950 . S
C1180 H1172 0.950 . S
C1180 C1181 1.386 . S
C1180 C1182 1.391 . S
C1181 C1180 1.386 . S
C1181 C1185 1.393 . S
C1182 H1174 0.950 . S
C1182 C1180 1.391 . S
C1182 C1183 1.400 . S
C1183 C1182 1.400 . S
C1183 C1184 1.398 . S
C1183 C1189 1.491 . S
C1184 H1175 0.950 . S
C1184 C1183 1.398 . S
C1184 C1185 1.391 . S
C1185 H1173 0.950 . S
C1185 C1181 1.393 . S
C1185 C1184 1.391 . S
C1186 H1176 0.950 . S
C1186 C1187 1.386 . S
C1186 C1188 1.391 . S
C1187 C1186 1.386 . S
C1187 C1191 1.393 . S
C1188 H1177 0.950 . S
C1188 C1186 1.391 . S
C1188 C1189 1.400 . S
C1189 C1183 1.491 . S
C1189 C1188 1.400 . S
C1189 C1190 1.398 . S
C1190 H1178 0.950 . S
C1190 C1189 1.398 . S
C1190 C1191 1.391 . S
C1191 H1179 0.950 . S
C1191 C1187 1.393 . S
C1191 C1190 1.391 . S
H1192 C1200 0.950 . S
H1193 C1205 0.950 1_455 S
H1194 C1202 0.950 . S
H1195 C1204 0.950 . S
H1196 C1206 0.950 . S
H1197 C1208 0.950 . S
H1198 C1210 0.950 . S
H1199 C1211 0.950 . S
C1200 H1192 0.950 . S
C1200 C1201 1.386 . S
C1200 C1202 1.391 . S
C1201 C1200 1.386 . S
C1201 C1205 1.393 . S
C1202 H1194 0.950 . S
C1202 C1200 1.391 . S
C1202 C1203 1.400 . S
C1203 C1202 1.400 . S
C1203 C1204 1.398 1_655 S
C1203 C1209 1.491 . S
C1204 H1195 0.950 . S
C1204 C1203 1.398 1_455 S
C1204 C1205 1.391 1_455 S
C1205 H1193 0.950 1_655 S
C1205 C1201 1.393 . S
C1205 C1204 1.391 1_655 S
C1206 H1196 0.950 . S
C1206 C1207 1.386 . S
C1206 C1208 1.391 . S
C1207 C1206 1.386 . S
C1207 C1211 1.393 1_455 S
C1208 H1197 0.950 . S
C1208 C1206 1.391 . S
C1208 C1209 1.400 1_455 S
C1209 C1203 1.491 . S
C1209 C1208 1.400 1_655 S
C1209 C1210 1.398 . S
C1210 H1198 0.950 . S
C1210 C1209 1.398 . S
C1210 C1211 1.391 . S
C1211 H1199 0.950 . S
C1211 C1207 1.393 1_655 S
C1211 C1210 1.391 . S
H1212 C1220 0.950 . S
H1213 C1225 0.950 . S
H1214 C1222 0.950 . S
H1215 C1224 0.950 . S
H1216 C1226 0.950 . S
H1217 C1228 0.950 . S
H1218 C1230 0.950 . S
H1219 C1231 0.950 . S
C1220 H1212 0.950 . S
C1220 C1221 1.386 . S
C1220 C1222 1.391 . S
C1221 C1220 1.386 . S
C1221 C1225 1.393 . S
C1222 H1214 0.950 . S
C1222 C1220 1.391 . S
C1222 C1223 1.400 . S
C1223 C1222 1.400 . S
C1223 C1224 1.398 . S
C1223 C1229 1.491 . S
C1224 H1215 0.950 . S
C1224 C1223 1.398 . S
C1224 C1225 1.391 . S
C1225 H1213 0.950 . S
C1225 C1221 1.393 . S
C1225 C1224 1.391 . S
C1226 H1216 0.950 . S
C1226 C1227 1.386 . S
C1226 C1228 1.391 . S
C1227 C1226 1.386 . S
C1227 C1231 1.393 . S
C1228 H1217 0.950 . S
C1228 C1226 1.391 . S
C1228 C1229 1.400 . S
C1229 C1223 1.491 . S
C1229 C1228 1.400 . S
C1229 C1230 1.398 . S
C1230 H1218 0.950 . S
C1230 C1229 1.398 . S
C1230 C1231 1.391 . S
C1231 H1219 0.950 . S
C1231 C1227 1.393 . S
C1231 C1230 1.391 . S
H1232 C1240 0.950 . S
H1233 C1245 0.950 . S
H1234 C1242 0.950 . S
H1235 C1244 0.950 . S
H1236 C1246 0.950 . S
H1237 C1248 0.950 . S
H1238 C1250 0.950 . S
H1239 C1251 0.950 . S
C1240 H1232 0.950 . S
C1240 C1241 1.386 . S
C1240 C1242 1.391 . S
C1241 C1240 1.386 . S
C1241 C1245 1.393 . S
C1242 H1234 0.950 . S
C1242 C1240 1.391 . S
C1242 C1243 1.400 . S
C1243 C1242 1.400 . S
C1243 C1244 1.398 . S
C1243 C1249 1.491 . S
C1244 H1235 0.950 . S
C1244 C1243 1.398 . S
C1244 C1245 1.391 . S
C1245 H1233 0.950 . S
C1245 C1241 1.393 . S
C1245 C1244 1.391 . S
C1246 H1236 0.950 . S
C1246 C1247 1.386 . S
C1246 C1248 1.391 . S
C1247 C1246 1.386 . S
C1247 C1251 1.393 . S
C1248 H1237 0.950 . S
C1248 C1246 1.391 . S
C1248 C1249 1.400 . S
C1249 C1243 1.491 . S
C1249 C1248 1.400 . S
C1249 C1250 1.398 . S
C1250 H1238 0.950 . S
C1250 C1249 1.398 . S
C1250 C1251 1.391 . S
C1251 H1239 0.950 . S
C1251 C1247 1.393 . S
C1251 C1250 1.391 . S
H1252 C1260 0.950 . S
H1253 C1265 0.950 . S
H1254 C1262 0.950 . S
H1255 C1264 0.950 . S
H1256 C1266 0.950 . S
H1257 C1268 0.950 . S
H1258 C1270 0.950 . S
H1259 C1271 0.950 . S
C1260 H1252 0.950 . S
C1260 C1261 1.386 . S
C1260 C1262 1.391 . S
C1261 C1260 1.386 . S
C1261 C1265 1.393 . S
C1262 H1254 0.950 . S
C1262 C1260 1.391 . S
C1262 C1263 1.400 . S
C1263 C1262 1.400 . S
C1263 C1264 1.398 . S
C1263 C1269 1.491 . S
C1264 H1255 0.950 . S
C1264 C1263 1.398 . S
C1264 C1265 1.391 . S
C1265 H1253 0.950 . S
C1265 C1261 1.393 . S
C1265 C1264 1.391 . S
C1266 H1256 0.950 . S
C1266 C1267 1.386 . S
C1266 C1268 1.391 . S
C1267 C1266 1.386 . S
C1267 C1271 1.393 . S
C1268 H1257 0.950 . S
C1268 C1266 1.391 . S
C1268 C1269 1.400 . S
C1269 C1263 1.491 . S
C1269 C1268 1.400 . S
C1269 C1270 1.398 . S
C1270 H1258 0.950 . S
C1270 C1269 1.398 . S
C1270 C1271 1.391 . S
C1271 H1259 0.950 . S
C1271 C1267 1.393 . S
C1271 C1270 1.391 . S
H1272 C1280 0.950 . S
H1273 C1285 0.950 . S
H1274 C1282 0.950 1_556 S
H1275 C1284 0.950 . S
H1276 C1286 0.950 . S
H1277 C1288 0.950 . S
H1278 C1290 0.950 . S
H1279 C1291 0.950 . S
C1280 H1272 0.950 . S
C1280 C1281 1.377 1_556 S
C1280 C1282 1.391 1_556 S
C1281 C1280 1.377 1_554 S
C1281 C1285 1.420 . S
C1282 H1274 0.950 1_554 S
C1282 C1280 1.391 1_554 S
C1282 C1283 1.400 . S
C1283 C1282 1.400 . S
C1283 C1284 1.398 . S
C1283 C1289 1.491 . S
C1284 H1275 0.950 . S
C1284 C1283 1.398 . S
C1284 C1285 1.391 . S
C1285 H1273 0.950 . S
C1285 C1281 1.420 . S
C1285 C1284 1.391 . S
C1286 H1276 0.950 . S
C1286 C1287 1.386 . S
C1286 C1288 1.391 . S
C1287 C1286 1.386 . S
C1287 C1291 1.393 1_545 S
C1288 H1277 0.950 . S
C1288 C1286 1.391 . S
C1288 C1289 1.400 1_545 S
C1289 C1283 1.491 . S
C1289 C1288 1.400 1_565 S
C1289 C1290 1.398 . S
C1290 H1278 0.950 . S
C1290 C1289 1.398 . S
C1290 C1291 1.391 . S
C1291 H1279 0.950 . S
C1291 C1287 1.393 1_565 S
C1291 C1290 1.391 . S
H1292 C1300 0.950 1_556 S
H1293 C1305 0.950 . S
H1294 C1302 0.950 1_556 S
H1295 C1304 0.950 . S
H1296 C1306 0.950 . S
H1297 C1308 0.950 . S
H1298 C1310 0.950 1_556 S
H1299 C1311 0.950 1_556 S
C1300 H1292 0.950 1_554 S
C1300 C1301 1.386 . S
C1300 C1302 1.391 . S
C1301 C1300 1.386 . S
C1301 C1305 1.393 . S
C1302 H1294 0.950 1_554 S
C1302 C1300 1.391 . S
C1302 C1303 1.400 . S
C1303 C1302 1.400 . S
C1303 C1304 1.398 . S
C1303 C1309 1.491 . S
C1304 H1295 0.950 . S
C1304 C1303 1.398 . S
C1304 C1305 1.391 . S
C1305 H1293 0.950 . S
C1305 C1301 1.393 . S
C1305 C1304 1.391 . S
C1306 H1296 0.950 . S
C1306 C1307 1.386 . S
C1306 C1308 1.391 . S
C1307 C1306 1.386 . S
C1307 C1311 1.393 . S
C1308 H1297 0.950 . S
C1308 C1306 1.391 . S
C1308 C1309 1.400 . S
C1309 C1303 1.491 . S
C1309 C1308 1.400 . S
C1309 C1310 1.398 . S
C1310 H1298 0.950 1_554 S
C1310 C1309 1.398 . S
C1310 C1311 1.391 . S
C1311 H1299 0.950 1_554 S
C1311 C1307 1.393 . S
C1311 C1310 1.391 . S
H1312 C1320 0.950 . S
H1313 C1325 0.950 . S
H1314 C1322 0.950 . S
H1315 C1324 0.950 . S
H1316 C1326 0.950 . S
H1317 C1328 0.950 . S
H1318 C1330 0.950 . S
H1319 C1331 0.950 . S
C1320 H1312 0.950 . S
C1320 C1321 1.386 . S
C1320 C1322 1.391 . S
C1321 C1320 1.386 . S
C1321 C1325 1.393 . S
C1322 H1314 0.950 . S
C1322 C1320 1.391 . S
C1322 C1323 1.400 . S
C1323 C1322 1.400 . S
C1323 C1324 1.398 . S
C1323 C1329 1.491 . S
C1324 H1315 0.950 . S
C1324 C1323 1.398 . S
C1324 C1325 1.391 . S
C1325 H1313 0.950 . S
C1325 C1321 1.393 . S
C1325 C1324 1.391 . S
C1326 H1316 0.950 . S
C1326 C1327 1.386 . S
C1326 C1328 1.391 . S
C1327 C1326 1.386 . S
C1327 C1331 1.393 . S
C1328 H1317 0.950 . S
C1328 C1326 1.391 . S
C1328 C1329 1.400 . S
C1329 C1323 1.491 . S
C1329 C1328 1.400 . S
C1329 C1330 1.398 . S
C1330 H1318 0.950 . S
C1330 C1329 1.398 . S
C1330 C1331 1.391 . S
C1331 H1319 0.950 . S
C1331 C1327 1.393 . S
C1331 C1330 1.391 . S
H1332 C1340 0.950 . S
H1333 C1345 0.950 . S
H1334 C1342 0.950 . S
H1335 C1344 0.950 . S
H1336 C1346 0.950 . S
H1337 C1348 0.950 . S
H1338 C1350 0.950 . S
H1339 C1351 0.950 . S
C1340 H1332 0.950 . S
C1340 C1341 1.386 . S
C1340 C1342 1.391 . S
C1341 C1340 1.386 . S
C1341 C1345 1.393 . S
C1342 H1334 0.950 . S
C1342 C1340 1.391 . S
C1342 C1343 1.400 . S
C1343 C1342 1.400 . S
C1343 C1344 1.398 . S
C1343 C1349 1.491 . S
C1344 H1335 0.950 . S
C1344 C1343 1.398 . S
C1344 C1345 1.391 . S
C1345 H1333 0.950 . S
C1345 C1341 1.393 . S
C1345 C1344 1.391 . S
C1346 H1336 0.950 . S
C1346 C1347 1.386 . S
C1346 C1348 1.391 . S
C1347 C1346 1.386 . S
C1347 C1351 1.393 . S
C1348 H1337 0.950 . S
C1348 C1346 1.391 . S
C1348 C1349 1.400 . S
C1349 C1343 1.491 . S
C1349 C1348 1.400 . S
C1349 C1350 1.398 . S
C1350 H1338 0.950 . S
C1350 C1349 1.398 . S
C1350 C1351 1.391 . S
C1351 H1339 0.950 . S
C1351 C1347 1.393 . S
C1351 C1350 1.391 . S
H1352 C1360 0.950 . S
H1353 C1365 0.950 . S
H1354 C1362 0.950 . S
H1355 C1364 0.950 . S
H1356 C1366 0.950 . S
H1357 C1368 0.950 . S
H1358 C1370 0.950 . S
H1359 C1371 0.950 . S
C1360 H1352 0.950 . S
C1360 C1361 1.386 . S
C1360 C1362 1.391 . S
C1361 C1360 1.386 . S
C1361 C1365 1.393 . S
C1362 H1354 0.950 . S
C1362 C1360 1.391 . S
C1362 C1363 1.400 . S
C1363 C1362 1.400 . S
C1363 C1364 1.398 . S
C1363 C1369 1.491 . S
C1364 H1355 0.950 . S
C1364 C1363 1.398 . S
C1364 C1365 1.391 . S
C1365 H1353 0.950 . S
C1365 C1361 1.393 . S
C1365 C1364 1.391 . S
C1366 H1356 0.950 . S
C1366 C1367 1.386 . S
C1366 C1368 1.391 . S
C1367 C1366 1.386 . S
C1367 C1371 1.393 . S
C1368 H1357 0.950 . S
C1368 C1366 1.391 . S
C1368 C1369 1.400 . S
C1369 C1363 1.491 . S
C1369 C1368 1.400 . S
C1369 C1370 1.398 . S
C1370 H1358 0.950 . S
C1370 C1369 1.398 . S
C1370 C1371 1.391 . S
C1371 H1359 0.950 . S
C1371 C1367 1.393 . S
C1371 C1370 1.391 . S
H1372 C1380 0.950 . S
H1373 C1385 0.950 . S
H1374 C1382 0.950 . S
H1375 C1384 0.950 . S
H1376 C1386 0.950 . S
H1377 C1388 0.950 . S
H1378 C1390 0.950 . S
H1379 C1391 0.950 . S
C1380 H1372 0.950 . S
C1380 C1381 1.386 . S
C1380 C1382 1.391 . S
C1381 C1380 1.386 . S
C1381 C1385 1.393 . S
C1382 H1374 0.950 . S
C1382 C1380 1.391 . S
C1382 C1383 1.400 . S
C1383 C1382 1.400 . S
C1383 C1384 1.398 . S
C1383 C1389 1.491 . S
C1384 H1375 0.950 . S
C1384 C1383 1.398 . S
C1384 C1385 1.391 . S
C1385 H1373 0.950 . S
C1385 C1381 1.393 . S
C1385 C1384 1.391 . S
C1386 H1376 0.950 . S
C1386 C1387 1.386 . S
C1386 C1388 1.391 . S
C1387 C1386 1.386 . S
C1387 C1391 1.393 . S
C1388 H1377 0.950 . S
C1388 C1386 1.391 . S
C1388 C1389 1.400 . S
C1389 C1383 1.491 . S
C1389 C1388 1.400 . S
C1389 C1390 1.398 . S
C1390 H1378 0.950 . S
C1390 C1389 1.398 . S
C1390 C1391 1.391 . S
C1391 H1379 0.950 . S
C1391 C1387 1.393 . S
C1391 C1390 1.391 . S
H1392 C1400 0.950 . S
H1393 C1405 0.950 . S
H1394 C1402 0.950 . S
H1395 C1404 0.950 . S
H1396 C1406 0.950 . S
H1397 C1408 0.950 . S
H1398 C1410 0.950 . S
H1399 C1411 0.950 . S
C1400 H1392 0.950 . S
C1400 C1401 1.386 . S
C1400 C1402 1.391 . S
C1401 C1400 1.386 . S
C1401 C1405 1.393 . S
C1402 H1394 0.950 . S
C1402 C1400 1.391 . S
C1402 C1403 1.400 . S
C1403 C1402 1.400 . S
C1403 C1404 1.398 . S
C1403 C1409 1.491 . S
C1404 H1395 0.950 . S
C1404 C1403 1.398 . S
C1404 C1405 1.391 . S
C1405 H1393 0.950 . S
C1405 C1401 1.393 . S
C1405 C1404 1.391 . S
C1406 H1396 0.950 . S
C1406 C1407 1.386 . S
C1406 C1408 1.391 . S
C1407 C1406 1.386 . S
C1407 C1411 1.393 . S
C1408 H1397 0.950 . S
C1408 C1406 1.391 . S
C1408 C1409 1.400 . S
C1409 C1403 1.491 . S
C1409 C1408 1.400 . S
C1409 C1410 1.398 . S
C1410 H1398 0.950 . S
C1410 C1409 1.398 . S
C1410 C1411 1.391 . S
C1411 H1399 0.950 . S
C1411 C1407 1.393 . S
C1411 C1410 1.391 . S
H1412 C1420 0.950 . S
H1413 C1425 0.950 . S
H1414 C1422 0.950 . S
H1415 C1424 0.950 . S
H1416 C1426 0.950 . S
H1417 C1428 0.950 . S
H1418 C1430 0.950 . S
H1419 C1431 0.950 . S
C1420 H1412 0.950 . S
C1420 C1421 1.386 . S
C1420 C1422 1.391 . S
C1421 C1420 1.386 . S
C1421 C1425 1.393 . S
C1422 H1414 0.950 . S
C1422 C1420 1.391 . S
C1422 C1423 1.400 . S
C1423 C1422 1.400 . S
C1423 C1424 1.398 . S
C1423 C1429 1.491 . S
C1424 H1415 0.950 . S
C1424 C1423 1.398 . S
C1424 C1425 1.391 . S
C1425 H1413 0.950 . S
C1425 C1421 1.393 . S
C1425 C1424 1.391 . S
C1426 H1416 0.950 . S
C1426 C1427 1.386 . S
C1426 C1428 1.391 . S
C1427 C1426 1.386 . S
C1427 C1431 1.393 . S
C1428 H1417 0.950 . S
C1428 C1426 1.391 . S
C1428 C1429 1.400 . S
C1429 C1423 1.491 . S
C1429 C1428 1.400 . S
C1429 C1430 1.398 . S
C1430 H1418 0.950 . S
C1430 C1429 1.398 . S
C1430 C1431 1.391 . S
C1431 H1419 0.950 . S
C1431 C1427 1.393 . S
C1431 C1430 1.391 . S
H1432 C1440 0.950 . S
H1433 C1445 0.950 . S
H1434 C1442 0.950 . S
H1435 C1444 0.950 . S
H1436 C1446 0.950 . S
H1437 C1448 0.950 . S
H1438 C1450 0.950 . S
H1439 C1451 0.946 1_655 S
C1440 H1432 0.950 . S
C1440 C1441 1.386 . S
C1440 C1442 1.391 . S
C1441 C1440 1.386 . S
C1441 C1445 1.393 . S
C1442 H1434 0.950 . S
C1442 C1440 1.391 . S
C1442 C1443 1.400 . S
C1443 C1442 1.400 . S
C1443 C1444 1.398 . S
C1443 C1449 1.491 . S
C1444 H1435 0.950 . S
C1444 C1443 1.398 . S
C1444 C1445 1.391 . S
C1445 H1433 0.950 . S
C1445 C1441 1.393 . S
C1445 C1444 1.391 . S
C1446 H1436 0.950 . S
C1446 C1447 1.386 . S
C1446 C1448 1.391 . S
C1447 C1446 1.386 . S
C1447 C1451 1.393 . S
C1448 H1437 0.950 . S
C1448 C1446 1.391 . S
C1448 C1449 1.400 . S
C1449 C1443 1.491 . S
C1449 C1448 1.400 . S
C1449 C1450 1.398 . S
C1450 H1438 0.950 . S
C1450 C1449 1.398 . S
C1450 C1451 1.391 . S
C1451 H1439 0.946 1_455 S
C1451 C1447 1.393 . S
C1451 C1450 1.391 . S
H1452 C1460 0.950 . S
H1453 C1465 0.950 . S
H1454 C1462 0.950 . S
H1455 C1464 0.950 . S
H1456 C1466 0.950 . S
H1457 C1468 0.950 . S
H1458 C1470 0.950 . S
H1459 C1471 0.950 . S
C1460 H1452 0.950 . S
C1460 C1461 1.386 . S
C1460 C1462 1.391 . S
C1461 C1460 1.386 . S
C1461 C1465 1.393 . S
C1462 H1454 0.950 . S
C1462 C1460 1.391 . S
C1462 C1463 1.400 . S
C1463 C1462 1.400 . S
C1463 C1464 1.398 . S
C1463 C1469 1.491 . S
C1464 H1455 0.950 . S
C1464 C1463 1.398 . S
C1464 C1465 1.391 . S
C1465 H1453 0.950 . S
C1465 C1461 1.393 . S
C1465 C1464 1.391 . S
C1466 H1456 0.950 . S
C1466 C1467 1.386 . S
C1466 C1468 1.391 . S
C1467 C1466 1.386 . S
C1467 C1471 1.393 . S
C1468 H1457 0.950 . S
C1468 C1466 1.391 . S
C1468 C1469 1.400 . S
C1469 C1463 1.491 . S
C1469 C1468 1.400 . S
C1469 C1470 1.398 . S
C1470 H1458 0.950 . S
C1470 C1469 1.398 . S
C1470 C1471 1.391 . S
C1471 H1459 0.950 . S
C1471 C1467 1.393 . S
C1471 C1470 1.391 . S
H1472 C1480 0.950 . S
H1473 C1485 0.950 . S
H1474 C1482 0.950 . S
H1475 C1484 0.950 . S
H1476 C1486 0.950 . S
H1477 C1488 0.950 . S
H1478 C1490 0.950 . S
H1479 C1491 0.950 . S
C1480 H1472 0.950 . S
C1480 C1481 1.386 . S
C1480 C1482 1.391 . S
C1481 C1480 1.386 . S
C1481 C1485 1.393 . S
C1482 H1474 0.950 . S
C1482 C1480 1.391 . S
C1482 C1483 1.400 . S
C1483 C1482 1.400 . S
C1483 C1484 1.398 . S
C1483 C1489 1.491 . S
C1484 H1475 0.950 . S
C1484 C1483 1.398 . S
C1484 C1485 1.391 . S
C1485 H1473 0.950 . S
C1485 C1481 1.393 . S
C1485 C1484 1.391 . S
C1486 H1476 0.950 . S
C1486 C1487 1.386 . S
C1486 C1488 1.391 . S
C1487 C1486 1.386 . S
C1487 C1491 1.393 . S
C1488 H1477 0.950 . S
C1488 C1486 1.391 . S
C1488 C1489 1.400 . S
C1489 C1483 1.491 . S
C1489 C1488 1.400 . S
C1489 C1490 1.398 . S
C1490 H1478 0.950 . S
C1490 C1489 1.398 . S
C1490 C1491 1.391 . S
C1491 H1479 0.950 . S
C1491 C1487 1.393 . S
C1491 C1490 1.391 . S
H1492 C1500 0.950 . S
H1493 C1505 0.950 . S
H1494 C1502 0.950 . S
H1495 C1504 0.950 . S
H1496 C1506 0.950 . S
H1497 C1508 0.950 . S
H1498 C1510 0.950 . S
H1499 C1511 0.950 . S
C1500 H1492 0.950 . S
C1500 C1501 1.386 . S
C1500 C1502 1.391 . S
C1501 C1500 1.386 . S
C1501 C1505 1.393 . S
C1502 H1494 0.950 . S
C1502 C1500 1.391 . S
C1502 C1503 1.400 . S
C1503 C1502 1.400 . S
C1503 C1504 1.398 . S
C1503 C1509 1.491 . S
C1504 H1495 0.950 . S
C1504 C1503 1.398 . S
C1504 C1505 1.391 . S
C1505 H1493 0.950 . S
C1505 C1501 1.393 . S
C1505 C1504 1.391 . S
C1506 H1496 0.950 . S
C1506 C1507 1.386 . S
C1506 C1508 1.391 . S
C1507 C1506 1.386 . S
C1507 C1511 1.393 . S
C1508 H1497 0.950 . S
C1508 C1506 1.391 . S
C1508 C1509 1.400 . S
C1509 C1503 1.491 . S
C1509 C1508 1.400 . S
C1509 C1510 1.398 . S
C1510 H1498 0.950 . S
C1510 C1509 1.398 . S
C1510 C1511 1.391 . S
C1511 H1499 0.950 . S
C1511 C1507 1.393 . S
C1511 C1510 1.391 . S
H1512 C1520 0.950 . S
H1513 C1525 0.950 . S
H1514 C1522 0.950 . S
H1515 C1524 0.950 . S
H1516 C1526 0.950 1_655 S
H1517 C1528 0.950 . S
H1518 C1530 0.950 . S
H1519 C1531 0.950 . S
C1520 H1512 0.950 . S
C1520 C1521 1.386 . S
C1520 C1522 1.391 . S
C1521 C1520 1.386 . S
C1521 C1525 1.393 . S
C1522 H1514 0.950 . S
C1522 C1520 1.391 . S
C1522 C1523 1.400 . S
C1523 C1522 1.400 . S
C1523 C1524 1.398 . S
C1523 C1529 1.491 . S
C1524 H1515 0.950 . S
C1524 C1523 1.398 . S
C1524 C1525 1.391 . S
C1525 H1513 0.950 . S
C1525 C1521 1.393 . S
C1525 C1524 1.391 . S
C1526 H1516 0.950 1_455 S
C1526 C1527 1.386 . S
C1526 C1528 1.391 . S
C1527 C1526 1.386 . S
C1527 C1531 1.393 . S
C1528 H1517 0.950 . S
C1528 C1526 1.391 . S
C1528 C1529 1.400 . S
C1529 C1523 1.491 . S
C1529 C1528 1.400 . S
C1529 C1530 1.398 . S
C1530 H1518 0.950 . S
C1530 C1529 1.398 . S
C1530 C1531 1.391 . S
C1531 H1519 0.950 . S
C1531 C1527 1.393 . S
C1531 C1530 1.391 . S
H1532 C1540 0.950 . S
H1533 C1545 0.950 . S
H1534 C1542 0.950 . S
H1535 C1544 0.950 . S
H1536 C1546 0.950 . S
H1537 C1548 0.950 . S
H1538 C1550 0.950 . S
H1539 C1551 0.950 . S
C1540 H1532 0.950 . S
C1540 C1541 1.386 . S
C1540 C1542 1.391 . S
C1541 C1540 1.386 . S
C1541 C1545 1.393 . S
C1542 H1534 0.950 . S
C1542 C1540 1.391 . S
C1542 C1543 1.400 . S
C1543 C1542 1.400 . S
C1543 C1544 1.398 . S
C1543 C1549 1.491 . S
C1544 H1535 0.950 . S
C1544 C1543 1.398 . S
C1544 C1545 1.391 . S
C1545 H1533 0.950 . S
C1545 C1541 1.393 . S
C1545 C1544 1.391 . S
C1546 H1536 0.950 . S
C1546 C1547 1.386 . S
C1546 C1548 1.391 . S
C1547 C1546 1.386 . S
C1547 C1551 1.393 . S
C1548 H1537 0.950 . S
C1548 C1546 1.391 . S
C1548 C1549 1.400 . S
C1549 C1543 1.491 . S
C1549 C1548 1.400 . S
C1549 C1550 1.398 . S
C1550 H1538 0.950 . S
C1550 C1549 1.398 . S
C1550 C1551 1.391 . S
C1551 H1539 0.950 . S
C1551 C1547 1.393 . S
C1551 C1550 1.391 . S
H1552 C1560 0.950 . S
H1553 C1565 0.950 . S
H1554 C1562 0.950 . S
H1555 C1564 0.950 . S
H1556 C1566 0.950 . S
H1557 C1568 0.950 . S
H1558 C1570 0.950 . S
H1559 C1571 0.950 . S
C1560 H1552 0.950 . S
C1560 C1561 1.386 . S
C1560 C1562 1.391 . S
C1561 C1560 1.386 . S
C1561 C1565 1.393 . S
C1562 H1554 0.950 . S
C1562 C1560 1.391 . S
C1562 C1563 1.400 . S
C1563 C1562 1.400 . S
C1563 C1564 1.398 . S
C1563 C1569 1.491 . S
C1564 H1555 0.950 . S
C1564 C1563 1.398 . S
C1564 C1565 1.391 . S
C1565 H1553 0.950 . S
C1565 C1561 1.393 . S
C1565 C1564 1.391 . S
C1566 H1556 0.950 . S
C1566 C1567 1.386 . S
C1566 C1568 1.391 . S
C1567 C1566 1.386 . S
C1567 C1571 1.393 1_556 S
C1568 H1557 0.950 . S
C1568 C1566 1.391 . S
C1568 C1569 1.400 . S
C1569 C1563 1.491 . S
C1569 C1568 1.400 . S
C1569 C1570 1.398 . S
C1570 H1558 0.950 . S
C1570 C1569 1.398 . S
C1570 C1571 1.391 1_556 S
C1571 H1559 0.950 . S
C1571 C1567 1.393 1_554 S
C1571 C1570 1.391 1_554 S
H1572 C1580 0.950 . S
H1573 C1585 0.950 . S
H1574 C1582 0.950 . S
H1575 C1584 0.950 . S
H1576 C1586 0.950 . S
H1577 C1588 0.950 . S
H1578 C1590 0.950 . S
H1579 C1591 0.950 . S
C1580 H1572 0.950 . S
C1580 C1581 1.386 . S
C1580 C1582 1.391 . S
C1581 C1580 1.386 . S
C1581 C1585 1.393 . S
C1582 H1574 0.950 . S
C1582 C1580 1.391 . S
C1582 C1583 1.400 . S
C1583 C1582 1.400 . S
C1583 C1584 1.398 . S
C1583 C1589 1.491 . S
C1584 H1575 0.950 . S
C1584 C1583 1.398 . S
C1584 C1585 1.391 . S
C1585 H1573 0.950 . S
C1585 C1581 1.393 . S
C1585 C1584 1.391 . S
C1586 H1576 0.950 . S
C1586 C1587 1.386 . S
C1586 C1588 1.391 . S
C1587 C1586 1.386 . S
C1587 C1591 1.393 . S
C1588 H1577 0.950 . S
C1588 C1586 1.391 . S
C1588 C1589 1.400 . S
C1589 C1583 1.491 . S
C1589 C1588 1.400 . S
C1589 C1590 1.398 . S
C1590 H1578 0.950 . S
C1590 C1589 1.398 . S
C1590 C1591 1.391 . S
C1591 H1579 0.950 . S
C1591 C1587 1.393 . S
C1591 C1590 1.391 . S
H1592 C1600 0.950 . S
H1593 C1605 0.950 . S
H1594 C1602 0.950 . S
H1595 C1604 0.950 . S
H1596 C1606 0.950 . S
H1597 C1608 0.950 . S
H1598 C1610 0.950 . S
H1599 C1611 0.950 . S
C1600 H1592 0.950 . S
C1600 C1601 1.386 . S
C1600 C1602 1.391 . S
C1601 C1600 1.386 . S
C1601 C1605 1.393 . S
C1602 H1594 0.950 . S
C1602 C1600 1.391 . S
C1602 C1603 1.400 . S
C1603 C1602 1.400 . S
C1603 C1604 1.398 . S
C1603 C1609 1.491 . S
C1604 H1595 0.950 . S
C1604 C1603 1.398 . S
C1604 C1605 1.391 . S
C1605 H1593 0.950 . S
C1605 C1601 1.393 . S
C1605 C1604 1.391 . S
C1606 H1596 0.950 . S
C1606 C1607 1.386 . S
C1606 C1608 1.391 . S
C1607 C1606 1.386 . S
C1607 C1611 1.393 . S
C1608 H1597 0.950 . S
C1608 C1606 1.391 . S
C1608 C1609 1.400 . S
C1609 C1603 1.491 . S
C1609 C1608 1.400 . S
C1609 C1610 1.398 . S
C1610 H1598 0.950 . S
C1610 C1609 1.398 . S
C1610 C1611 1.391 . S
C1611 H1599 0.950 . S
C1611 C1607 1.393 . S
C1611 C1610 1.391 . S
H1612 C1620 0.950 . S
H1613 C1625 0.950 . S
H1614 C1622 0.950 . S
H1615 C1624 0.950 . S
H1616 C1626 0.950 . S
H1617 C1628 0.950 . S
H1618 C1630 0.950 . S
H1619 C1631 0.950 . S
C1620 H1612 0.950 . S
C1620 C1621 1.386 . S
C1620 C1622 1.391 . S
C1621 C1620 1.386 . S
C1621 C1625 1.393 . S
C1622 H1614 0.950 . S
C1622 C1620 1.391 . S
C1622 C1623 1.400 . S
C1623 C1622 1.400 . S
C1623 C1624 1.398 . S
C1623 C1629 1.491 . S
C1624 H1615 0.950 . S
C1624 C1623 1.398 . S
C1624 C1625 1.391 . S
C1625 H1613 0.950 . S
C1625 C1621 1.393 . S
C1625 C1624 1.391 . S
C1626 H1616 0.950 . S
C1626 C1627 1.386 . S
C1626 C1628 1.391 . S
C1627 C1626 1.386 . S
C1627 C1631 1.393 . S
C1628 H1617 0.950 . S
C1628 C1626 1.391 . S
C1628 C1629 1.400 . S
C1629 C1623 1.491 . S
C1629 C1628 1.400 . S
C1629 C1630 1.398 . S
C1630 H1618 0.950 . S
C1630 C1629 1.398 . S
C1630 C1631 1.391 . S
C1631 H1619 0.950 . S
C1631 C1627 1.393 . S
C1631 C1630 1.391 . S
H1632 C1640 0.950 1_565 S
H1633 C1645 0.950 . S
H1634 C1642 0.950 . S
H1635 C1644 0.950 . S
H1636 C1646 0.950 . S
H1637 C1648 0.950 . S
H1638 C1650 0.950 . S
H1639 C1651 0.950 . S
C1640 H1632 0.950 1_545 S
C1640 C1641 1.386 . S
C1640 C1642 1.391 . S
C1641 C1640 1.386 . S
C1641 C1645 1.393 . S
C1642 H1634 0.950 . S
C1642 C1640 1.391 . S
C1642 C1643 1.400 . S
C1643 C1642 1.400 . S
C1643 C1644 1.398 . S
C1643 C1649 1.491 . S
C1644 H1635 0.950 . S
C1644 C1643 1.398 . S
C1644 C1645 1.391 . S
C1645 H1633 0.950 . S
C1645 C1641 1.393 . S
C1645 C1644 1.391 . S
C1646 H1636 0.950 . S
C1646 C1647 1.386 . S
C1646 C1648 1.391 . S
C1647 C1646 1.386 . S
C1647 C1651 1.393 . S
C1648 H1637 0.950 . S
C1648 C1646 1.391 . S
C1648 C1649 1.400 . S
C1649 C1643 1.491 . S
C1649 C1648 1.400 . S
C1649 C1650 1.398 . S
C1650 H1638 0.950 . S
C1650 C1649 1.398 . S
C1650 C1651 1.391 . S
C1651 H1639 0.950 . S
C1651 C1647 1.393 . S
C1651 C1650 1.391 . S
H1652 C1660 0.950 . S
H1653 C1665 0.950 . S
H1654 C1662 0.950 . S
H1655 C1664 0.950 . S
H1656 C1666 0.950 . S
H1657 C1668 0.950 . S
H1658 C1670 0.950 . S
H1659 C1671 0.950 . S
C1660 H1652 0.950 . S
C1660 C1661 1.386 . S
C1660 C1662 1.391 . S
C1661 C1660 1.386 . S
C1661 C1665 1.393 . S
C1662 H1654 0.950 . S
C1662 C1660 1.391 . S
C1662 C1663 1.400 . S
C1663 C1662 1.400 . S
C1663 C1664 1.398 . S
C1663 C1669 1.491 . S
C1664 H1655 0.950 . S
C1664 C1663 1.398 . S
C1664 C1665 1.391 . S
C1665 H1653 0.950 . S
C1665 C1661 1.393 . S
C1665 C1664 1.391 . S
C1666 H1656 0.950 . S
C1666 C1667 1.386 . S
C1666 C1668 1.391 . S
C1667 C1666 1.386 . S
C1667 C1671 1.393 . S
C1668 H1657 0.950 . S
C1668 C1666 1.391 . S
C1668 C1669 1.400 . S
C1669 C1663 1.491 . S
C1669 C1668 1.400 . S
C1669 C1670 1.398 . S
C1670 H1658 0.950 . S
C1670 C1669 1.398 . S
C1670 C1671 1.391 . S
C1671 H1659 0.950 . S
C1671 C1667 1.393 . S
C1671 C1670 1.391 . S
H1672 C1680 0.950 . S
H1673 C1685 0.950 . S
H1674 C1682 0.950 . S
H1675 C1684 0.950 . S
H1676 C1686 0.950 . S
H1677 C1688 0.950 . S
H1678 C1690 0.950 . S
H1679 C1691 0.950 . S
C1680 H1672 0.950 . S
C1680 C1681 1.386 . S
C1680 C1682 1.391 . S
C1681 C1680 1.386 . S
C1681 C1685 1.393 . S
C1682 H1674 0.950 . S
C1682 C1680 1.391 . S
C1682 C1683 1.400 . S
C1683 C1682 1.400 . S
C1683 C1684 1.398 . S
C1683 C1689 1.491 . S
C1684 H1675 0.950 . S
C1684 C1683 1.398 . S
C1684 C1685 1.391 . S
C1685 H1673 0.950 . S
C1685 C1681 1.393 . S
C1685 C1684 1.391 . S
C1686 H1676 0.950 . S
C1686 C1687 1.386 . S
C1686 C1688 1.391 . S
C1687 C1686 1.386 . S
C1687 C1691 1.393 . S
C1688 H1677 0.950 . S
C1688 C1686 1.391 . S
C1688 C1689 1.400 . S
C1689 C1683 1.491 . S
C1689 C1688 1.400 . S
C1689 C1690 1.398 . S
C1690 H1678 0.950 . S
C1690 C1689 1.398 . S
C1690 C1691 1.391 . S
C1691 H1679 0.950 . S
C1691 C1687 1.393 . S
C1691 C1690 1.391 . S
H1692 C1700 0.950 . S
H1693 C1705 0.950 . S
H1694 C1702 0.950 . S
H1695 C1704 0.950 . S
H1696 C1706 0.950 . S
H1697 C1708 0.950 . S
H1698 C1710 0.950 . S
H1699 C1711 0.950 . S
C1700 H1692 0.950 . S
C1700 C1701 1.386 . S
C1700 C1702 1.391 . S
C1701 C1700 1.386 . S
C1701 C1705 1.393 . S
C1702 H1694 0.950 . S
C1702 C1700 1.391 . S
C1702 C1703 1.400 . S
C1703 C1702 1.400 . S
C1703 C1704 1.398 . S
C1703 C1709 1.491 . S
C1704 H1695 0.950 . S
C1704 C1703 1.398 . S
C1704 C1705 1.391 . S
C1705 H1693 0.950 . S
C1705 C1701 1.393 . S
C1705 C1704 1.391 . S
C1706 H1696 0.950 . S
C1706 C1707 1.386 . S
C1706 C1708 1.391 . S
C1707 C1706 1.386 . S
C1707 C1711 1.393 . S
C1708 H1697 0.950 . S
C1708 C1706 1.391 . S
C1708 C1709 1.400 . S
C1709 C1703 1.491 . S
C1709 C1708 1.400 . S
C1709 C1710 1.398 . S
C1710 H1698 0.950 . S
C1710 C1709 1.398 . S
C1710 C1711 1.391 . S
C1711 H1699 0.950 . S
C1711 C1707 1.393 . S
C1711 C1710 1.391 . S
H1712 C1720 0.950 . S
H1713 C1725 0.950 . S
H1714 C1722 0.950 . S
H1715 C1724 0.950 . S
H1716 C1726 0.950 . S
H1717 C1728 0.950 1_545 S
H1718 C1730 0.950 . S
H1719 C1731 0.950 . S
C1720 H1712 0.950 . S
C1720 C1721 1.379 1_565 S
C1720 C1722 1.391 . S
C1721 C1720 1.379 1_545 S
C1721 C1725 1.394 . S
C1722 H1714 0.950 . S
C1722 C1720 1.391 . S
C1722 C1723 1.400 . S
C1723 C1722 1.400 . S
C1723 C1724 1.398 1_565 S
C1723 C1729 1.491 . S
C1724 H1715 0.950 . S
C1724 C1723 1.398 1_545 S
C1724 C1725 1.391 . S
C1725 H1713 0.950 . S
C1725 C1721 1.394 . S
C1725 C1724 1.391 . S
C1726 H1716 0.950 . S
C1726 C1727 1.386 . S
C1726 C1728 1.391 . S
C1727 C1726 1.386 . S
C1727 C1731 1.393 . S
C1728 H1717 0.950 1_565 S
C1728 C1726 1.391 . S
C1728 C1729 1.400 . S
C1729 C1723 1.491 . S
C1729 C1728 1.400 . S
C1729 C1730 1.398 . S
C1730 H1718 0.950 . S
C1730 C1729 1.398 . S
C1730 C1731 1.391 . S
C1731 H1719 0.950 . S
C1731 C1727 1.393 . S
C1731 C1730 1.391 . S
H1732 C1740 0.950 . S
H1733 C1745 0.950 . S
H1734 C1742 0.950 . S
H1735 C1744 0.950 . S
H1736 C1746 0.950 . S
H1737 C1748 0.950 . S
H1738 C1750 0.950 . S
H1739 C1751 0.950 . S
C1740 H1732 0.950 . S
C1740 C1741 1.386 . S
C1740 C1742 1.391 . S
C1741 C1740 1.386 . S
C1741 C1745 1.393 . S
C1742 H1734 0.950 . S
C1742 C1740 1.391 . S
C1742 C1743 1.400 . S
C1743 C1742 1.400 . S
C1743 C1744 1.398 . S
C1743 C1749 1.491 . S
C1744 H1735 0.950 . S
C1744 C1743 1.398 . S
C1744 C1745 1.391 . S
C1745 H1733 0.950 . S
C1745 C1741 1.393 . S
C1745 C1744 1.391 . S
C1746 H1736 0.950 . S
C1746 C1747 1.386 . S
C1746 C1748 1.391 . S
C1747 C1746 1.386 . S
C1747 C1751 1.393 . S
C1748 H1737 0.950 . S
C1748 C1746 1.391 . S
C1748 C1749 1.400 . S
C1749 C1743 1.491 . S
C1749 C1748 1.400 . S
C1749 C1750 1.398 . S
C1750 H1738 0.950 . S
C1750 C1749 1.398 . S
C1750 C1751 1.391 . S
C1751 H1739 0.950 . S
C1751 C1747 1.393 . S
C1751 C1750 1.391 . S
H1752 C1760 0.950 . S
H1753 C1765 0.950 . S
H1754 C1762 0.950 . S
H1755 C1764 0.950 . S
H1756 C1766 0.950 1_556 S
H1757 C1768 0.950 . S
H1758 C1770 0.950 . S
H1759 C1771 0.950 . S
C1760 H1752 0.950 . S
C1760 C1761 1.386 . S
C1760 C1762 1.391 . S
C1761 C1760 1.386 . S
C1761 C1765 1.393 . S
C1762 H1754 0.950 . S
C1762 C1760 1.391 . S
C1762 C1763 1.400 . S
C1763 C1762 1.400 . S
C1763 C1764 1.398 . S
C1763 C1769 1.491 . S
C1764 H1755 0.950 . S
C1764 C1763 1.398 . S
C1764 C1765 1.391 . S
C1765 H1753 0.950 . S
C1765 C1761 1.393 . S
C1765 C1764 1.391 . S
C1766 H1756 0.950 1_554 S
C1766 C1767 1.386 . S
C1766 C1768 1.391 . S
C1767 C1766 1.386 . S
C1767 C1771 1.393 . S
C1768 H1757 0.950 . S
C1768 C1766 1.391 . S
C1768 C1769 1.400 . S
C1769 C1763 1.491 . S
C1769 C1768 1.400 . S
C1769 C1770 1.398 . S
C1770 H1758 0.950 . S
C1770 C1769 1.398 . S
C1770 C1771 1.391 . S
C1771 H1759 0.950 . S
C1771 C1767 1.393 . S
C1771 C1770 1.391 . S
H1772 C1780 0.950 . S
H1773 C1785 0.950 . S
H1774 C1782 0.950 . S
H1775 C1784 0.950 . S
H1776 C1786 0.950 . S
H1777 C1788 0.950 . S
H1778 C1790 0.950 . S
H1779 C1791 0.950 . S
C1780 H1772 0.950 . S
C1780 C1781 1.386 . S
C1780 C1782 1.391 . S
C1781 C1780 1.386 . S
C1781 C1785 1.393 . S
C1782 H1774 0.950 . S
C1782 C1780 1.391 . S
C1782 C1783 1.400 . S
C1783 C1782 1.400 . S
C1783 C1784 1.398 . S
C1783 C1789 1.491 . S
C1784 H1775 0.950 . S
C1784 C1783 1.398 . S
C1784 C1785 1.391 . S
C1785 H1773 0.950 . S
C1785 C1781 1.393 . S
C1785 C1784 1.391 . S
C1786 H1776 0.950 . S
C1786 C1787 1.386 . S
C1786 C1788 1.391 . S
C1787 C1786 1.386 . S
C1787 C1791 1.393 . S
C1788 H1777 0.950 . S
C1788 C1786 1.391 . S
C1788 C1789 1.400 . S
C1789 C1783 1.491 . S
C1789 C1788 1.400 . S
C1789 C1790 1.398 . S
C1790 H1778 0.950 . S
C1790 C1789 1.398 . S
C1790 C1791 1.391 . S
C1791 H1779 0.950 . S
C1791 C1787 1.393 . S
C1791 C1790 1.391 . S
H1792 C1800 0.950 . S
H1793 C1805 0.950 . S
H1794 C1802 0.950 . S
H1795 C1804 0.950 . S
H1796 C1806 0.950 . S
H1797 C1808 0.950 . S
H1798 C1810 0.950 . S
H1799 C1811 0.950 . S
C1800 H1792 0.950 . S
C1800 C1801 1.386 . S
C1800 C1802 1.391 . S
C1801 C1800 1.386 . S
C1801 C1805 1.393 . S
C1802 H1794 0.950 . S
C1802 C1800 1.391 . S
C1802 C1803 1.400 . S
C1803 C1802 1.400 . S
C1803 C1804 1.398 . S
C1803 C1809 1.491 . S
C1804 H1795 0.950 . S
C1804 C1803 1.398 . S
C1804 C1805 1.391 . S
C1805 H1793 0.950 . S
C1805 C1801 1.393 . S
C1805 C1804 1.391 . S
C1806 H1796 0.950 . S
C1806 C1807 1.386 . S
C1806 C1808 1.391 . S
C1807 C1806 1.386 . S
C1807 C1811 1.393 . S
C1808 H1797 0.950 . S
C1808 C1806 1.391 . S
C1808 C1809 1.400 . S
C1809 C1803 1.491 . S
C1809 C1808 1.400 . S
C1809 C1810 1.398 . S
C1810 H1798 0.950 . S
C1810 C1809 1.398 . S
C1810 C1811 1.391 . S
C1811 H1799 0.950 . S
C1811 C1807 1.393 . S
C1811 C1810 1.391 . S
H1812 C1820 0.950 . S
H1813 C1825 0.950 . S
H1814 C1822 0.950 . S
H1815 C1824 0.950 . S
H1816 C1826 0.950 . S
H1817 C1828 0.950 . S
H1818 C1830 0.950 . S
H1819 C1831 0.950 . S
C1820 H1812 0.950 . S
C1820 C1821 1.386 . S
C1820 C1822 1.391 . S
C1821 C1820 1.386 . S
C1821 C1825 1.393 . S
C1822 H1814 0.950 . S
C1822 C1820 1.391 . S
C1822 C1823 1.400 . S
C1823 C1822 1.400 . S
C1823 C1824 1.398 . S
C1823 C1829 1.491 . S
C1824 H1815 0.950 . S
C1824 C1823 1.398 . S
C1824 C1825 1.391 . S
C1825 H1813 0.950 . S
C1825 C1821 1.393 . S
C1825 C1824 1.391 . S
C1826 H1816 0.950 . S
C1826 C1827 1.386 . S
C1826 C1828 1.391 . S
C1827 C1826 1.386 . S
C1827 C1831 1.393 . S
C1828 H1817 0.950 . S
C1828 C1826 1.391 . S
C1828 C1829 1.400 . S
C1829 C1823 1.491 . S
C1829 C1828 1.400 . S
C1829 C1830 1.398 . S
C1830 H1818 0.950 . S
C1830 C1829 1.398 . S
C1830 C1831 1.391 . S
C1831 H1819 0.950 . S
C1831 C1827 1.393 . S
C1831 C1830 1.391 . S
H1832 C1840 0.950 . S
H1833 C1845 0.950 . S
H1834 C1842 0.950 . S
H1835 C1844 0.950 . S
H1836 C1846 0.950 . S
H1837 C1848 0.950 . S
H1838 C1850 0.950 . S
H1839 C1851 0.950 . S
C1840 H1832 0.950 . S
C1840 C1841 1.386 . S
C1840 C1842 1.391 . S
C1841 C1840 1.386 . S
C1841 C1845 1.393 . S
C1842 H1834 0.950 . S
C1842 C1840 1.391 . S
C1842 C1843 1.400 1_545 S
C1843 C1842 1.400 1_565 S
C1843 C1844 1.398 . S
C1843 C1849 1.491 . S
C1844 H1835 0.950 . S
C1844 C1843 1.398 . S
C1844 C1845 1.391 1_565 S
C1845 H1833 0.950 . S
C1845 C1841 1.393 . S
C1845 C1844 1.391 1_545 S
C1846 H1836 0.950 . S
C1846 C1847 1.386 . S
C1846 C1848 1.391 . S
C1847 C1846 1.386 . S
C1847 C1851 1.393 . S
C1848 H1837 0.950 . S
C1848 C1846 1.391 . S
C1848 C1849 1.400 . S
C1849 C1843 1.491 . S
C1849 C1848 1.400 . S
C1849 C1850 1.398 . S
C1850 H1838 0.950 . S
C1850 C1849 1.398 . S
C1850 C1851 1.391 . S
C1851 H1839 0.950 . S
C1851 C1847 1.393 . S
C1851 C1850 1.391 . S
H1852 C1860 0.950 . S
H1853 C1865 0.950 . S
H1854 C1862 0.950 . S
H1855 C1864 0.950 . S
H1856 C1866 0.950 . S
H1857 C1868 0.950 . S
H1858 C1870 0.950 . S
H1859 C1871 0.950 . S
C1860 H1852 0.950 . S
C1860 C1861 1.386 . S
C1860 C1862 1.391 . S
C1861 C1860 1.386 . S
C1861 C1865 1.393 . S
C1862 H1854 0.950 . S
C1862 C1860 1.391 . S
C1862 C1863 1.400 . S
C1863 C1862 1.400 . S
C1863 C1864 1.398 . S
C1863 C1869 1.491 . S
C1864 H1855 0.950 . S
C1864 C1863 1.398 . S
C1864 C1865 1.391 . S
C1865 H1853 0.950 . S
C1865 C1861 1.393 . S
C1865 C1864 1.391 . S
C1866 H1856 0.950 . S
C1866 C1867 1.386 . S
C1866 C1868 1.391 . S
C1867 C1866 1.386 . S
C1867 C1871 1.393 . S
C1868 H1857 0.950 . S
C1868 C1866 1.391 . S
C1868 C1869 1.400 . S
C1869 C1863 1.491 . S
C1869 C1868 1.400 . S
C1869 C1870 1.398 . S
C1870 H1858 0.950 . S
C1870 C1869 1.398 . S
C1870 C1871 1.391 . S
C1871 H1859 0.950 . S
C1871 C1867 1.393 . S
C1871 C1870 1.391 . S
H1872 C1880 0.950 . S
H1873 C1885 0.950 . S
H1874 C1882 0.950 . S
H1875 C1884 0.950 . S
H1876 C1886 0.950 . S
H1877 C1888 0.950 . S
H1878 C1890 0.950 . S
H1879 C1891 0.950 . S
C1880 H1872 0.950 . S
C1880 C1881 1.386 . S
C1880 C1882 1.391 . S
C1881 C1880 1.386 . S
C1881 C1885 1.393 . S
C1882 H1874 0.950 . S
C1882 C1880 1.391 . S
C1882 C1883 1.400 . S
C1883 C1882 1.400 . S
C1883 C1884 1.398 . S
C1883 C1889 1.491 . S
C1884 H1875 0.950 . S
C1884 C1883 1.398 . S
C1884 C1885 1.391 . S
C1885 H1873 0.950 . S
C1885 C1881 1.393 . S
C1885 C1884 1.391 . S
C1886 H1876 0.950 . S
C1886 C1887 1.386 . S
C1886 C1888 1.391 . S
C1887 C1886 1.386 . S
C1887 C1891 1.393 . S
C1888 H1877 0.950 . S
C1888 C1886 1.391 . S
C1888 C1889 1.400 . S
C1889 C1883 1.491 . S
C1889 C1888 1.400 . S
C1889 C1890 1.398 . S
C1890 H1878 0.950 . S
C1890 C1889 1.398 . S
C1890 C1891 1.391 . S
C1891 H1879 0.950 . S
C1891 C1887 1.393 . S
C1891 C1890 1.391 . S
H1892 C1900 0.950 . S
H1893 C1905 0.950 . S
H1894 C1902 0.950 . S
H1895 C1904 0.950 . S
H1896 C1906 0.950 . S
H1897 C1908 0.950 . S
H1898 C1910 0.950 . S
H1899 C1911 0.950 . S
C1900 H1892 0.950 . S
C1900 C1901 1.386 . S
C1900 C1902 1.391 . S
C1901 C1900 1.386 . S
C1901 C1905 1.393 . S
C1902 H1894 0.950 . S
C1902 C1900 1.391 . S
C1902 C1903 1.400 . S
C1903 C1902 1.400 . S
C1903 C1904 1.398 . S
C1903 C1909 1.491 . S
C1904 H1895 0.950 . S
C1904 C1903 1.398 . S
C1904 C1905 1.391 . S
C1905 H1893 0.950 . S
C1905 C1901 1.393 . S
C1905 C1904 1.391 . S
C1906 H1896 0.950 . S
C1906 C1907 1.386 . S
C1906 C1908 1.391 . S
C1907 C1906 1.386 . S
C1907 C1911 1.393 . S
C1908 H1897 0.950 . S
C1908 C1906 1.391 . S
C1908 C1909 1.400 . S
C1909 C1903 1.491 . S
C1909 C1908 1.400 . S
C1909 C1910 1.398 . S
C1910 H1898 0.950 . S
C1910 C1909 1.398 . S
C1910 C1911 1.391 . S
C1911 H1899 0.950 . S
C1911 C1907 1.393 . S
C1911 C1910 1.391 . S
H1912 C1920 0.950 . S
H1913 C1925 0.950 . S
H1914 C1922 0.950 . S
H1915 C1924 0.950 . S
H1916 C1926 0.950 . S
H1917 C1928 0.950 . S
H1918 C1930 0.950 . S
H1919 C1931 0.950 . S
C1920 H1912 0.950 . S
C1920 C1921 1.386 . S
C1920 C1922 1.391 . S
C1921 C1920 1.386 . S
C1921 C1925 1.393 . S
C1922 H1914 0.950 . S
C1922 C1920 1.391 . S
C1922 C1923 1.400 . S
C1923 C1922 1.400 . S
C1923 C1924 1.398 . S
C1923 C1929 1.491 . S
C1924 H1915 0.950 . S
C1924 C1923 1.398 . S
C1924 C1925 1.391 . S
C1925 H1913 0.950 . S
C1925 C1921 1.393 . S
C1925 C1924 1.391 . S
C1926 H1916 0.950 . S
C1926 C1927 1.386 . S
C1926 C1928 1.391 . S
C1927 C1926 1.386 . S
C1927 C1931 1.393 . S
C1928 H1917 0.950 . S
C1928 C1926 1.391 . S
C1928 C1929 1.400 . S
C1929 C1923 1.491 . S
C1929 C1928 1.400 . S
C1929 C1930 1.398 . S
C1930 H1918 0.950 . S
C1930 C1929 1.398 . S
C1930 C1931 1.391 . S
C1931 H1919 0.950 . S
C1931 C1927 1.393 . S
C1931 C1930 1.391 . S
H1932 C1940 0.950 . S
H1933 C1945 0.950 . S
H1934 C1942 0.950 . S
H1935 C1944 0.950 . S
H1936 C1946 0.950 . S
H1937 C1948 0.950 . S
H1938 C1950 0.950 . S
H1939 C1951 0.950 . S
C1940 H1932 0.950 . S
C1940 C1941 1.386 . S
C1940 C1942 1.391 . S
C1941 C1940 1.386 . S
C1941 C1945 1.393 . S
C1942 H1934 0.950 . S
C1942 C1940 1.391 . S
C1942 C1943 1.400 . S
C1943 C1942 1.400 . S
C1943 C1944 1.398 . S
C1943 C1949 1.491 . S
C1944 H1935 0.950 . S
C1944 C1943 1.398 . S
C1944 C1945 1.391 . S
C1945 H1933 0.950 . S
C1945 C1941 1.393 . S
C1945 C1944 1.391 . S
C1946 H1936 0.950 . S
C1946 C1947 1.386 . S
C1946 C1948 1.391 . S
C1947 C1946 1.386 . S
C1947 C1951 1.393 . S
C1948 H1937 0.950 . S
C1948 C1946 1.391 . S
C1948 C1949 1.400 . S
C1949 C1943 1.491 . S
C1949 C1948 1.400 . S
C1949 C1950 1.398 . S
C1950 H1938 0.950 . S
C1950 C1949 1.398 . S
C1950 C1951 1.391 . S
C1951 H1939 0.950 . S
C1951 C1947 1.393 . S
C1951 C1950 1.391 . S
H1952 C1960 0.950 . S
H1953 C1965 0.939 1_655 S
H1954 C1962 0.950 . S
H1955 C1964 0.950 1_655 S
H1956 C1966 0.950 . S
H1957 C1968 0.941 1_655 S
H1958 C1970 0.931 1_556 S
H1959 C1971 0.950 1_556 S
C1960 H1952 0.950 . S
C1960 C1961 1.417 . S
C1960 C1962 1.391 . S
C1961 C1960 1.417 . S
C1961 C1965 1.378 1_556 S
C1962 H1954 0.950 . S
C1962 C1960 1.391 . S
C1962 C1963 1.400 1_556 S
C1963 C1962 1.400 1_554 S
C1963 C1964 1.398 . S
C1963 C1969 1.491 . S
C1964 H1955 0.950 1_455 S
C1964 C1963 1.398 . S
C1964 C1965 1.385 . S
C1965 H1953 0.939 1_455 S
C1965 C1961 1.378 1_554 S
C1965 C1964 1.385 . S
C1966 H1956 0.950 . S
C1966 C1967 1.386 . S
C1966 C1968 1.391 . S
C1967 C1966 1.386 . S
C1967 C1971 1.393 . S
C1968 H1957 0.941 1_455 S
C1968 C1966 1.391 . S
C1968 C1969 1.400 . S
C1969 C1963 1.491 . S
C1969 C1968 1.400 . S
C1969 C1970 1.417 . S
C1970 H1958 0.931 1_554 S
C1970 C1969 1.417 . S
C1970 C1971 1.392 . S
C1971 H1959 0.950 1_554 S
C1971 C1967 1.393 . S
C1971 C1970 1.392 . S
H1972 C1980 0.950 . S
H1973 C1985 0.950 . S
H1974 C1982 0.950 . S
H1975 C1984 0.950 . S
H1976 C1986 0.950 . S
H1977 C1988 0.950 . S
H1978 C1990 0.950 . S
H1979 C1991 0.950 . S
C1980 H1972 0.950 . S
C1980 C1981 1.422 . S
C1980 C1982 1.391 . S
C1981 C1980 1.422 . S
C1981 C1985 1.395 1_655 S
C1982 H1974 0.950 . S
C1982 C1980 1.391 . S
C1982 C1983 1.400 . S
C1983 C1982 1.400 . S
C1983 C1984 1.398 . S
C1983 C1989 1.491 . S
C1984 H1975 0.950 . S
C1984 C1983 1.398 . S
C1984 C1985 1.391 1_655 S
C1985 H1973 0.950 . S
C1985 C1981 1.395 1_455 S
C1985 C1984 1.391 1_455 S
C1986 H1976 0.950 . S
C1986 C1987 1.386 . S
C1986 C1988 1.391 . S
C1987 C1986 1.386 . S
C1987 C1991 1.393 . S
C1988 H1977 0.950 . S
C1988 C1986 1.391 . S
C1988 C1989 1.400 . S
C1989 C1983 1.491 . S
C1989 C1988 1.400 . S
C1989 C1990 1.398 . S
C1990 H1978 0.950 . S
C1990 C1989 1.398 . S
C1990 C1991 1.391 . S
C1991 H1979 0.950 . S
C1991 C1987 1.393 . S
C1991 C1990 1.391 . S
H1992 C2000 0.950 . S
H1993 C2005 0.950 . S
H1994 C2002 0.950 . S
H1995 C2004 0.950 . S
H1996 C2006 0.950 . S
H1997 C2008 0.950 . S
H1998 C2010 0.950 . S
H1999 C2011 0.950 . S
C2000 H1992 0.950 . S
C2000 C2001 1.386 . S
C2000 C2002 1.391 . S
C2001 C2000 1.386 . S
C2001 C2005 1.393 . S
C2002 H1994 0.950 . S
C2002 C2000 1.391 . S
C2002 C2003 1.400 . S
C2003 C2002 1.400 . S
C2003 C2004 1.398 . S
C2003 C2009 1.491 . S
C2004 H1995 0.950 . S
C2004 C2003 1.398 . S
C2004 C2005 1.391 . S
C2005 H1993 0.950 . S
C2005 C2001 1.393 . S
C2005 C2004 1.391 . S
C2006 H1996 0.950 . S
C2006 C2007 1.386 . S
C2006 C2008 1.391 . S
C2007 C2006 1.386 . S
C2007 C2011 1.393 . S
C2008 H1997 0.950 . S
C2008 C2006 1.391 . S
C2008 C2009 1.400 . S
C2009 C2003 1.491 . S
C2009 C2008 1.400 . S
C2009 C2010 1.398 . S
C2010 H1998 0.950 . S
C2010 C2009 1.398 . S
C2010 C2011 1.391 . S
C2011 H1999 0.950 . S
C2011 C2007 1.393 . S
C2011 C2010 1.391 . S
H2012 C2020 0.950 . S
H2013 C2025 0.950 . S
H2014 C2022 0.950 . S
H2015 C2024 0.950 . S
H2016 C2026 0.950 . S
H2017 C2028 0.950 . S
H2018 C2030 0.950 . S
H2019 C2031 0.950 . S
C2020 H2012 0.950 . S
C2020 C2021 1.386 . S
C2020 C2022 1.391 . S
C2021 C2020 1.386 . S
C2021 C2025 1.393 . S
C2022 H2014 0.950 . S
C2022 C2020 1.391 . S
C2022 C2023 1.400 . S
C2023 C2022 1.400 . S
C2023 C2024 1.398 . S
C2023 C2029 1.491 . S
C2024 H2015 0.950 . S
C2024 C2023 1.398 . S
C2024 C2025 1.391 . S
C2025 H2013 0.950 . S
C2025 C2021 1.393 . S
C2025 C2024 1.391 . S
C2026 H2016 0.950 . S
C2026 C2027 1.386 . S
C2026 C2028 1.391 . S
C2027 C2026 1.386 . S
C2027 C2031 1.393 . S
C2028 H2017 0.950 . S
C2028 C2026 1.391 . S
C2028 C2029 1.400 . S
C2029 C2023 1.491 . S
C2029 C2028 1.400 . S
C2029 C2030 1.398 . S
C2030 H2018 0.950 . S
C2030 C2029 1.398 . S
C2030 C2031 1.391 . S
C2031 H2019 0.950 . S
C2031 C2027 1.393 . S
C2031 C2030 1.391 . S
H2032 C2040 0.950 . S
H2033 C2045 0.950 . S
H2034 C2042 0.978 . S
H2035 C2044 0.950 . S
H2036 C2046 0.950 . S
H2037 C2048 0.950 . S
H2038 C2050 0.950 1_655 S
H2039 C2051 0.950 1_655 S
C2040 H2032 0.950 . S
C2040 C2041 1.386 1_655 S
C2040 C2042 1.407 . S
C2041 C2040 1.386 1_455 S
C2041 C2045 1.393 . S
C2042 H2034 0.978 . S
C2042 C2040 1.407 . S
C2042 C2043 1.358 1_655 S
C2043 C2042 1.358 1_455 S
C2043 C2044 1.398 . S
C2043 C2049 1.491 . S
C2044 H2035 0.950 . S
C2044 C2043 1.398 . S
C2044 C2045 1.391 . S
C2045 H2033 0.950 . S
C2045 C2041 1.393 . S
C2045 C2044 1.391 . S
C2046 H2036 0.950 . S
C2046 C2047 1.386 . S
C2046 C2048 1.391 . S
C2047 C2046 1.386 . S
C2047 C2051 1.393 . S
C2048 H2037 0.950 . S
C2048 C2046 1.391 . S
C2048 C2049 1.400 . S
C2049 C2043 1.491 . S
C2049 C2048 1.400 . S
C2049 C2050 1.398 . S
C2050 H2038 0.950 1_455 S
C2050 C2049 1.398 . S
C2050 C2051 1.391 . S
C2051 H2039 0.950 1_455 S
C2051 C2047 1.393 . S
C2051 C2050 1.391 . S
H2052 C2060 0.950 . S
H2053 C2065 0.950 . S
H2054 C2062 0.950 . S
H2055 C2064 0.950 . S
H2056 C2066 0.950 . S
H2057 C2068 0.950 . S
H2058 C2070 0.950 . S
H2059 C2071 0.950 . S
C2060 H2052 0.950 . S
C2060 C2061 1.386 . S
C2060 C2062 1.391 . S
C2061 C2060 1.386 . S
C2061 C2065 1.393 . S
C2062 H2054 0.950 . S
C2062 C2060 1.391 . S
C2062 C2063 1.400 . S
C2063 C2062 1.400 . S
C2063 C2064 1.398 . S
C2063 C2069 1.491 . S
C2064 H2055 0.950 . S
C2064 C2063 1.398 . S
C2064 C2065 1.391 . S
C2065 H2053 0.950 . S
C2065 C2061 1.393 . S
C2065 C2064 1.391 . S
C2066 H2056 0.950 . S
C2066 C2067 1.386 . S
C2066 C2068 1.391 . S
C2067 C2066 1.386 . S
C2067 C2071 1.393 . S
C2068 H2057 0.950 . S
C2068 C2066 1.391 . S
C2068 C2069 1.400 . S
C2069 C2063 1.491 . S
C2069 C2068 1.400 . S
C2069 C2070 1.398 . S
C2070 H2058 0.950 . S
C2070 C2069 1.398 . S
C2070 C2071 1.391 . S
C2071 H2059 0.950 . S
C2071 C2067 1.393 . S
C2071 C2070 1.391 . S
H2072 C2080 0.950 . S
H2073 C2085 0.950 . S
H2074 C2082 0.950 . S
H2075 C2084 0.950 . S
H2076 C2086 0.950 . S
H2077 C2088 0.950 . S
H2078 C2090 0.950 . S
H2079 C2091 0.950 . S
C2080 H2072 0.950 . S
C2080 C2081 1.386 . S
C2080 C2082 1.391 . S
C2081 C2080 1.386 . S
C2081 C2085 1.393 . S
C2082 H2074 0.950 . S
C2082 C2080 1.391 . S
C2082 C2083 1.400 . S
C2083 C2082 1.400 . S
C2083 C2084 1.398 . S
C2083 C2089 1.491 . S
C2084 H2075 0.950 . S
C2084 C2083 1.398 . S
C2084 C2085 1.391 . S
C2085 H2073 0.950 . S
C2085 C2081 1.393 . S
C2085 C2084 1.391 . S
C2086 H2076 0.950 . S
C2086 C2087 1.386 . S
C2086 C2088 1.391 . S
C2087 C2086 1.386 . S
C2087 C2091 1.393 . S
C2088 H2077 0.950 . S
C2088 C2086 1.391 . S
C2088 C2089 1.400 . S
C2089 C2083 1.491 . S
C2089 C2088 1.400 . S
C2089 C2090 1.398 . S
C2090 H2078 0.950 . S
C2090 C2089 1.398 . S
C2090 C2091 1.391 . S
C2091 H2079 0.950 . S
C2091 C2087 1.393 . S
C2091 C2090 1.391 . S
H2092 C2100 0.950 . S
H2093 C2105 0.950 . S
H2094 C2102 0.950 . S
H2095 C2104 0.952 . S
H2096 C2106 0.950 . S
H2097 C2108 0.950 . S
H2098 C2110 0.950 . S
H2099 C2111 0.950 . S
C2100 H2092 0.950 . S
C2100 C2101 1.386 . S
C2100 C2102 1.391 1_554 S
C2101 C2100 1.386 . S
C2101 C2105 1.393 . S
C2102 H2094 0.950 . S
C2102 C2100 1.391 1_556 S
C2102 C2103 1.400 . S
C2103 C2102 1.400 . S
C2103 C2104 1.406 . S
C2103 C2109 1.491 . S
C2104 H2095 0.952 . S
C2104 C2103 1.406 . S
C2104 C2105 1.381 1_556 S
C2105 H2093 0.950 . S
C2105 C2101 1.393 . S
C2105 C2104 1.381 1_554 S
C2106 H2096 0.950 . S
C2106 C2107 1.386 . S
C2106 C2108 1.391 . S
C2107 C2106 1.386 . S
C2107 C2111 1.393 . S
C2108 H2097 0.950 . S
C2108 C2106 1.391 . S
C2108 C2109 1.400 . S
C2109 C2103 1.491 . S
C2109 C2108 1.400 . S
C2109 C2110 1.398 . S
C2110 H2098 0.950 . S
C2110 C2109 1.398 . S
C2110 C2111 1.391 . S
C2111 H2099 0.950 . S
C2111 C2107 1.393 . S
C2111 C2110 1.391 . S
H2112 C2120 0.950 . S
H2113 C2125 0.950 . S
H2114 C2122 0.950 . S
H2115 C2124 0.950 . S
H2116 C2126 0.950 . S
H2117 C2128 0.950 . S
H2118 C2130 0.950 . S
H2119 C2131 0.950 . S
C2120 H2112 0.950 . S
C2120 C2121 1.386 . S
C2120 C2122 1.391 . S
C2121 C2120 1.386 . S
C2121 C2125 1.393 . S
C2122 H2114 0.950 . S
C2122 C2120 1.391 . S
C2122 C2123 1.400 . S
C2123 C2122 1.400 . S
C2123 C2124 1.398 . S
C2123 C2129 1.491 . S
C2124 H2115 0.950 . S
C2124 C2123 1.398 . S
C2124 C2125 1.391 . S
C2125 H2113 0.950 . S
C2125 C2121 1.393 . S
C2125 C2124 1.391 . S
C2126 H2116 0.950 . S
C2126 C2127 1.386 . S
C2126 C2128 1.391 . S
C2127 C2126 1.386 . S
C2127 C2131 1.393 . S
C2128 H2117 0.950 . S
C2128 C2126 1.391 . S
C2128 C2129 1.400 . S
C2129 C2123 1.491 . S
C2129 C2128 1.400 . S
C2129 C2130 1.398 . S
C2130 H2118 0.950 . S
C2130 C2129 1.398 . S
C2130 C2131 1.391 . S
C2131 H2119 0.950 . S
C2131 C2127 1.393 . S
C2131 C2130 1.391 . S
H2132 C2140 0.950 . S
H2133 C2145 0.950 . S
H2134 C2142 0.950 . S
H2135 C2144 0.950 . S
H2136 C2146 0.950 . S
H2137 C2148 0.950 . S
H2138 C2150 0.950 . S
H2139 C2151 0.950 . S
C2140 H2132 0.950 . S
C2140 C2141 1.386 . S
C2140 C2142 1.391 . S
C2141 C2140 1.386 . S
C2141 C2145 1.393 . S
C2142 H2134 0.950 . S
C2142 C2140 1.391 . S
C2142 C2143 1.400 . S
C2143 C2142 1.400 . S
C2143 C2144 1.398 . S
C2143 C2149 1.491 . S
C2144 H2135 0.950 . S
C2144 C2143 1.398 . S
C2144 C2145 1.391 . S
C2145 H2133 0.950 . S
C2145 C2141 1.393 . S
C2145 C2144 1.391 . S
C2146 H2136 0.950 . S
C2146 C2147 1.386 . S
C2146 C2148 1.391 . S
C2147 C2146 1.386 . S
C2147 C2151 1.393 . S
C2148 H2137 0.950 . S
C2148 C2146 1.391 . S
C2148 C2149 1.400 . S
C2149 C2143 1.491 . S
C2149 C2148 1.400 . S
C2149 C2150 1.398 . S
C2150 H2138 0.950 . S
C2150 C2149 1.398 . S
C2150 C2151 1.391 . S
C2151 H2139 0.950 . S
C2151 C2147 1.393 . S
C2151 C2150 1.391 . S
H2152 C2160 0.950 . S
H2153 C2165 0.950 . S
H2154 C2162 0.950 . S
H2155 C2164 0.950 . S
H2156 C2166 0.950 . S
H2157 C2168 0.950 . S
H2158 C2170 0.950 . S
H2159 C2171 0.950 . S
C2160 H2152 0.950 . S
C2160 C2161 1.386 . S
C2160 C2162 1.391 . S
C2161 C2160 1.386 . S
C2161 C2165 1.393 . S
C2162 H2154 0.950 . S
C2162 C2160 1.391 . S
C2162 C2163 1.400 . S
C2163 C2162 1.400 . S
C2163 C2164 1.398 . S
C2163 C2169 1.491 . S
C2164 H2155 0.950 . S
C2164 C2163 1.398 . S
C2164 C2165 1.391 . S
C2165 H2153 0.950 . S
C2165 C2161 1.393 . S
C2165 C2164 1.391 . S
C2166 H2156 0.950 . S
C2166 C2167 1.386 . S
C2166 C2168 1.391 . S
C2167 C2166 1.386 . S
C2167 C2171 1.393 . S
C2168 H2157 0.950 . S
C2168 C2166 1.391 . S
C2168 C2169 1.400 . S
C2169 C2163 1.491 . S
C2169 C2168 1.400 . S
C2169 C2170 1.398 . S
C2170 H2158 0.950 . S
C2170 C2169 1.398 . S
C2170 C2171 1.391 . S
C2171 H2159 0.950 . S
C2171 C2167 1.393 . S
C2171 C2170 1.391 . S
H2172 C2180 0.950 . S
H2173 C2185 0.950 . S
H2174 C2182 0.950 . S
H2175 C2184 0.950 . S
H2176 C2186 0.950 . S
H2177 C2188 0.950 . S
H2178 C2190 0.950 . S
H2179 C2191 0.950 . S
C2180 H2172 0.950 . S
C2180 C2181 1.386 . S
C2180 C2182 1.391 . S
C2181 C2180 1.386 . S
C2181 C2185 1.393 . S
C2182 H2174 0.950 . S
C2182 C2180 1.391 . S
C2182 C2183 1.400 . S
C2183 C2182 1.400 . S
C2183 C2184 1.398 . S
C2183 C2189 1.491 . S
C2184 H2175 0.950 . S
C2184 C2183 1.398 . S
C2184 C2185 1.391 . S
C2185 H2173 0.950 . S
C2185 C2181 1.393 . S
C2185 C2184 1.391 . S
C2186 H2176 0.950 . S
C2186 C2187 1.386 . S
C2186 C2188 1.391 . S
C2187 C2186 1.386 . S
C2187 C2191 1.393 . S
C2188 H2177 0.950 . S
C2188 C2186 1.391 . S
C2188 C2189 1.400 . S
C2189 C2183 1.491 . S
C2189 C2188 1.400 . S
C2189 C2190 1.398 . S
C2190 H2178 0.950 . S
C2190 C2189 1.398 . S
C2190 C2191 1.391 . S
C2191 H2179 0.950 . S
C2191 C2187 1.393 . S
C2191 C2190 1.391 . S
H2192 C2200 0.950 . S
H2193 C2205 0.950 . S
H2194 C2202 0.950 . S
H2195 C2204 0.950 . S
H2196 C2206 0.950 . S
H2197 C2208 0.950 . S
H2198 C2210 0.950 . S
H2199 C2211 0.950 . S
C2200 H2192 0.950 . S
C2200 C2201 1.386 . S
C2200 C2202 1.391 . S
C2201 C2200 1.386 . S
C2201 C2205 1.393 . S
C2202 H2194 0.950 . S
C2202 C2200 1.391 . S
C2202 C2203 1.400 . S
C2203 C2202 1.400 . S
C2203 C2204 1.398 . S
C2203 C2209 1.491 . S
C2204 H2195 0.950 . S
C2204 C2203 1.398 . S
C2204 C2205 1.391 . S
C2205 H2193 0.950 . S
C2205 C2201 1.393 . S
C2205 C2204 1.391 . S
C2206 H2196 0.950 . S
C2206 C2207 1.386 . S
C2206 C2208 1.391 . S
C2207 C2206 1.386 . S
C2207 C2211 1.393 . S
C2208 H2197 0.950 . S
C2208 C2206 1.391 . S
C2208 C2209 1.400 . S
C2209 C2203 1.491 . S
C2209 C2208 1.400 . S
C2209 C2210 1.398 . S
C2210 H2198 0.950 . S
C2210 C2209 1.398 . S
C2210 C2211 1.391 . S
C2211 H2199 0.950 . S
C2211 C2207 1.393 . S
C2211 C2210 1.391 . S
H2212 C2220 0.950 . S
H2213 C2225 0.950 . S
H2214 C2222 0.950 . S
H2215 C2224 0.950 . S
H2216 C2226 0.950 . S
H2217 C2228 0.950 . S
H2218 C2230 0.950 . S
H2219 C2231 0.950 . S
C2220 H2212 0.950 . S
C2220 C2221 1.386 . S
C2220 C2222 1.391 . S
C2221 C2220 1.386 . S
C2221 C2225 1.393 . S
C2222 H2214 0.950 . S
C2222 C2220 1.391 . S
C2222 C2223 1.400 . S
C2223 C2222 1.400 . S
C2223 C2224 1.398 . S
C2223 C2229 1.491 . S
C2224 H2215 0.950 . S
C2224 C2223 1.398 . S
C2224 C2225 1.391 . S
C2225 H2213 0.950 . S
C2225 C2221 1.393 . S
C2225 C2224 1.391 . S
C2226 H2216 0.950 . S
C2226 C2227 1.386 . S
C2226 C2228 1.391 . S
C2227 C2226 1.386 . S
C2227 C2231 1.393 . S
C2228 H2217 0.950 . S
C2228 C2226 1.391 . S
C2228 C2229 1.400 . S
C2229 C2223 1.491 . S
C2229 C2228 1.400 . S
C2229 C2230 1.398 . S
C2230 H2218 0.950 . S
C2230 C2229 1.398 . S
C2230 C2231 1.391 . S
C2231 H2219 0.950 . S
C2231 C2227 1.393 . S
C2231 C2230 1.391 . S
H2232 C2240 0.950 . S
H2233 C2245 0.950 . S
H2234 C2242 0.950 . S
H2235 C2244 0.950 . S
H2236 C2246 0.950 . S
H2237 C2248 0.950 . S
H2238 C2250 0.950 . S
H2239 C2251 0.950 . S
C2240 H2232 0.950 . S
C2240 C2241 1.386 . S
C2240 C2242 1.391 . S
C2241 C2240 1.386 . S
C2241 C2245 1.393 . S
C2242 H2234 0.950 . S
C2242 C2240 1.391 . S
C2242 C2243 1.400 . S
C2243 C2242 1.400 . S
C2243 C2244 1.398 . S
C2243 C2249 1.491 . S
C2244 H2235 0.950 . S
C2244 C2243 1.398 . S
C2244 C2245 1.391 . S
C2245 H2233 0.950 . S
C2245 C2241 1.393 . S
C2245 C2244 1.391 . S
C2246 H2236 0.950 . S
C2246 C2247 1.386 . S
C2246 C2248 1.391 . S
C2247 C2246 1.386 . S
C2247 C2251 1.393 . S
C2248 H2237 0.950 . S
C2248 C2246 1.391 . S
C2248 C2249 1.400 . S
C2249 C2243 1.491 . S
C2249 C2248 1.400 . S
C2249 C2250 1.398 . S
C2250 H2238 0.950 . S
C2250 C2249 1.398 . S
C2250 C2251 1.391 . S
C2251 H2239 0.950 . S
C2251 C2247 1.393 . S
C2251 C2250 1.391 . S
H2252 C2260 0.950 . S
H2253 C2265 0.950 . S
H2254 C2262 0.950 . S
H2255 C2264 0.950 . S
H2256 C2266 0.950 . S
H2257 C2268 0.950 . S
H2258 C2270 0.950 . S
H2259 C2271 0.950 . S
C2260 H2252 0.950 . S
C2260 C2261 1.386 . S
C2260 C2262 1.391 . S
C2261 C2260 1.386 . S
C2261 C2265 1.393 . S
C2262 H2254 0.950 . S
C2262 C2260 1.391 . S
C2262 C2263 1.400 . S
C2263 C2262 1.400 . S
C2263 C2264 1.398 . S
C2263 C2269 1.491 . S
C2264 H2255 0.950 . S
C2264 C2263 1.398 . S
C2264 C2265 1.391 . S
C2265 H2253 0.950 . S
C2265 C2261 1.393 . S
C2265 C2264 1.391 . S
C2266 H2256 0.950 . S
C2266 C2267 1.386 . S
C2266 C2268 1.391 . S
C2267 C2266 1.386 . S
C2267 C2271 1.393 . S
C2268 H2257 0.950 . S
C2268 C2266 1.391 . S
C2268 C2269 1.400 . S
C2269 C2263 1.491 . S
C2269 C2268 1.400 . S
C2269 C2270 1.398 . S
C2270 H2258 0.950 . S
C2270 C2269 1.398 . S
C2270 C2271 1.391 . S
C2271 H2259 0.950 . S
C2271 C2267 1.393 . S
C2271 C2270 1.391 . S
H2272 C2280 0.950 . S
H2273 C2285 0.950 1_545 S
H2274 C2282 0.950 . S
H2275 C2284 0.950 . S
H2276 C2286 0.950 . S
H2277 C2288 0.950 . S
H2278 C2290 0.950 . S
H2279 C2291 0.950 . S
C2280 H2272 0.950 . S
C2280 C2281 1.386 . S
C2280 C2282 1.391 . S
C2281 C2280 1.386 . S
C2281 C2285 1.393 . S
C2282 H2274 0.950 . S
C2282 C2280 1.391 . S
C2282 C2283 1.400 . S
C2283 C2282 1.400 . S
C2283 C2284 1.398 . S
C2283 C2289 1.491 . S
C2284 H2275 0.950 . S
C2284 C2283 1.398 . S
C2284 C2285 1.391 . S
C2285 H2273 0.950 1_565 S
C2285 C2281 1.393 . S
C2285 C2284 1.391 . S
C2286 H2276 0.950 . S
C2286 C2287 1.386 . S
C2286 C2288 1.391 . S
C2287 C2286 1.386 . S
C2287 C2291 1.393 . S
C2288 H2277 0.950 . S
C2288 C2286 1.391 . S
C2288 C2289 1.400 . S
C2289 C2283 1.491 . S
C2289 C2288 1.400 . S
C2289 C2290 1.398 . S
C2290 H2278 0.950 . S
C2290 C2289 1.398 . S
C2290 C2291 1.391 . S
C2291 H2279 0.950 . S
C2291 C2287 1.393 . S
C2291 C2290 1.391 . S
H2292 C2300 0.950 . S
H2293 C2305 0.950 . S
H2294 C2302 0.950 1_545 S
H2295 C2304 0.956 . S
H2296 C2306 0.968 . S
H2297 C2308 0.950 1_556 S
H2298 C2310 0.950 . S
H2299 C2311 0.950 . S
C2300 H2292 0.950 . S
C2300 C2301 1.386 . S
C2300 C2302 1.391 . S
C2301 C2300 1.386 . S
C2301 C2305 1.393 1_554 S
C2302 H2294 0.950 1_565 S
C2302 C2300 1.391 . S
C2302 C2303 1.400 . S
C2303 C2302 1.400 . S
C2303 C2304 1.393 1_554 S
C2303 C2309 1.491 . S
C2304 H2295 0.956 . S
C2304 C2303 1.393 1_556 S
C2304 C2305 1.391 . S
C2305 H2293 0.950 . S
C2305 C2301 1.393 1_556 S
C2305 C2304 1.391 . S
C2306 H2296 0.968 . S
C2306 C2307 1.360 1_565 S
C2306 C2308 1.400 . S
C2307 C2306 1.360 1_545 S
C2307 C2311 1.393 . S
C2308 H2297 0.950 1_554 S
C2308 C2306 1.400 . S
C2308 C2309 1.400 . S
C2309 C2303 1.491 . S
C2309 C2308 1.400 . S
C2309 C2310 1.398 1_565 S
C2310 H2298 0.950 . S
C2310 C2309 1.398 1_545 S
C2310 C2311 1.391 . S
C2311 H2299 0.950 . S
C2311 C2307 1.393 . S
C2311 C2310 1.391 . S
H2312 C2320 0.950 . S
H2313 C2325 0.950 . S
H2314 C2322 0.950 . S
H2315 C2324 0.950 . S
H2316 C2326 0.950 . S
H2317 C2328 0.950 . S
H2318 C2330 0.950 . S
H2319 C2331 0.950 . S
C2320 H2312 0.950 . S
C2320 C2321 1.386 . S
C2320 C2322 1.391 . S
C2321 C2320 1.386 . S
C2321 C2325 1.393 . S
C2322 H2314 0.950 . S
C2322 C2320 1.391 . S
C2322 C2323 1.400 . S
C2323 C2322 1.400 . S
C2323 C2324 1.398 . S
C2323 C2329 1.491 . S
C2324 H2315 0.950 . S
C2324 C2323 1.398 . S
C2324 C2325 1.391 . S
C2325 H2313 0.950 . S
C2325 C2321 1.393 . S
C2325 C2324 1.391 . S
C2326 H2316 0.950 . S
C2326 C2327 1.386 . S
C2326 C2328 1.391 . S
C2327 C2326 1.386 . S
C2327 C2331 1.393 . S
C2328 H2317 0.950 . S
C2328 C2326 1.391 . S
C2328 C2329 1.400 . S
C2329 C2323 1.491 . S
C2329 C2328 1.400 . S
C2329 C2330 1.398 . S
C2330 H2318 0.950 . S
C2330 C2329 1.398 . S
C2330 C2331 1.391 . S
C2331 H2319 0.950 . S
C2331 C2327 1.393 . S
C2331 C2330 1.391 . S
H2332 C2340 0.950 . S
H2333 C2345 0.950 . S
H2334 C2342 0.950 . S
H2335 C2344 0.950 . S
H2336 C2346 0.950 . S
H2337 C2348 0.950 . S
H2338 C2350 0.950 . S
H2339 C2351 0.950 . S
C2340 H2332 0.950 . S
C2340 C2341 1.386 . S
C2340 C2342 1.391 . S
C2341 C2340 1.386 . S
C2341 C2345 1.393 . S
C2342 H2334 0.950 . S
C2342 C2340 1.391 . S
C2342 C2343 1.400 . S
C2343 C2342 1.400 . S
C2343 C2344 1.398 . S
C2343 C2349 1.491 . S
C2344 H2335 0.950 . S
C2344 C2343 1.398 . S
C2344 C2345 1.391 . S
C2345 H2333 0.950 . S
C2345 C2341 1.393 . S
C2345 C2344 1.391 . S
C2346 H2336 0.950 . S
C2346 C2347 1.386 . S
C2346 C2348 1.391 . S
C2347 C2346 1.386 . S
C2347 C2351 1.393 . S
C2348 H2337 0.950 . S
C2348 C2346 1.391 . S
C2348 C2349 1.400 . S
C2349 C2343 1.491 . S
C2349 C2348 1.400 . S
C2349 C2350 1.398 . S
C2350 H2338 0.950 . S
C2350 C2349 1.398 . S
C2350 C2351 1.391 . S
C2351 H2339 0.950 . S
C2351 C2347 1.393 . S
C2351 C2350 1.391 . S
H2352 C2360 0.950 . S
H2353 C2365 0.950 . S
H2354 C2362 0.950 . S
H2355 C2364 0.950 . S
H2356 C2366 0.950 . S
H2357 C2368 0.950 . S
H2358 C2370 0.950 . S
H2359 C2371 0.950 . S
C2360 H2352 0.950 . S
C2360 C2361 1.386 . S
C2360 C2362 1.391 . S
C2361 C2360 1.386 . S
C2361 C2365 1.393 . S
C2362 H2354 0.950 . S
C2362 C2360 1.391 . S
C2362 C2363 1.400 . S
C2363 C2362 1.400 . S
C2363 C2364 1.398 . S
C2363 C2369 1.491 . S
C2364 H2355 0.950 . S
C2364 C2363 1.398 . S
C2364 C2365 1.391 . S
C2365 H2353 0.950 . S
C2365 C2361 1.393 . S
C2365 C2364 1.391 . S
C2366 H2356 0.950 . S
C2366 C2367 1.386 . S
C2366 C2368 1.391 . S
C2367 C2366 1.386 . S
C2367 C2371 1.393 . S
C2368 H2357 0.950 . S
C2368 C2366 1.391 . S
C2368 C2369 1.400 . S
C2369 C2363 1.491 . S
C2369 C2368 1.400 . S
C2369 C2370 1.398 . S
C2370 H2358 0.950 . S
C2370 C2369 1.398 . S
C2370 C2371 1.391 . S
C2371 H2359 0.950 . S
C2371 C2367 1.393 . S
C2371 C2370 1.391 . S
H2372 C2380 0.950 . S
H2373 C2385 0.950 . S
H2374 C2382 0.950 . S
H2375 C2384 0.950 . S
H2376 C2386 0.950 . S
H2377 C2388 0.950 . S
H2378 C2390 0.950 . S
H2379 C2391 0.950 . S
C2380 H2372 0.950 . S
C2380 C2381 1.386 . S
C2380 C2382 1.391 . S
C2381 C2380 1.386 . S
C2381 C2385 1.393 . S
C2382 H2374 0.950 . S
C2382 C2380 1.391 . S
C2382 C2383 1.400 . S
C2383 C2382 1.400 . S
C2383 C2384 1.398 . S
C2383 C2389 1.491 . S
C2384 H2375 0.950 . S
C2384 C2383 1.398 . S
C2384 C2385 1.391 . S
C2385 H2373 0.950 . S
C2385 C2381 1.393 . S
C2385 C2384 1.391 . S
C2386 H2376 0.950 . S
C2386 C2387 1.386 . S
C2386 C2388 1.391 . S
C2387 C2386 1.386 . S
C2387 C2391 1.393 . S
C2388 H2377 0.950 . S
C2388 C2386 1.391 . S
C2388 C2389 1.400 . S
C2389 C2383 1.491 . S
C2389 C2388 1.400 . S
C2389 C2390 1.398 . S
C2390 H2378 0.950 . S
C2390 C2389 1.398 . S
C2390 C2391 1.391 . S
C2391 H2379 0.950 . S
C2391 C2387 1.393 . S
C2391 C2390 1.391 . S
H2392 C2400 0.950 . S
H2393 C2405 0.950 . S
H2394 C2402 0.950 . S
H2395 C2404 0.950 . S
H2396 C2406 0.950 . S
H2397 C2408 0.950 . S
H2398 C2410 0.950 . S
H2399 C2411 0.950 . S
C2400 H2392 0.950 . S
C2400 C2401 1.386 . S
C2400 C2402 1.391 . S
C2401 C2400 1.386 . S
C2401 C2405 1.393 . S
C2402 H2394 0.950 . S
C2402 C2400 1.391 . S
C2402 C2403 1.400 . S
C2403 C2402 1.400 . S
C2403 C2404 1.398 . S
C2403 C2409 1.491 . S
C2404 H2395 0.950 . S
C2404 C2403 1.398 . S
C2404 C2405 1.391 . S
C2405 H2393 0.950 . S
C2405 C2401 1.393 . S
C2405 C2404 1.391 . S
C2406 H2396 0.950 . S
C2406 C2407 1.386 . S
C2406 C2408 1.391 . S
C2407 C2406 1.386 . S
C2407 C2411 1.393 . S
C2408 H2397 0.950 . S
C2408 C2406 1.391 . S
C2408 C2409 1.400 . S
C2409 C2403 1.491 . S
C2409 C2408 1.400 . S
C2409 C2410 1.398 . S
C2410 H2398 0.950 . S
C2410 C2409 1.398 . S
C2410 C2411 1.391 . S
C2411 H2399 0.950 . S
C2411 C2407 1.393 . S
C2411 C2410 1.391 . S
H2412 C2420 0.950 . S
H2413 C2425 0.950 . S
H2414 C2422 0.950 . S
H2415 C2424 0.950 . S
H2416 C2426 0.950 . S
H2417 C2428 0.950 . S
H2418 C2430 0.950 . S
H2419 C2431 0.950 . S
C2420 H2412 0.950 . S
C2420 C2421 1.386 . S
C2420 C2422 1.391 . S
C2421 C2420 1.386 . S
C2421 C2425 1.393 . S
C2422 H2414 0.950 . S
C2422 C2420 1.391 . S
C2422 C2423 1.400 . S
C2423 C2422 1.400 . S
C2423 C2424 1.398 . S
C2423 C2429 1.491 . S
C2424 H2415 0.950 . S
C2424 C2423 1.398 . S
C2424 C2425 1.391 . S
C2425 H2413 0.950 . S
C2425 C2421 1.393 . S
C2425 C2424 1.391 . S
C2426 H2416 0.950 . S
C2426 C2427 1.386 . S
C2426 C2428 1.391 . S
C2427 C2426 1.386 . S
C2427 C2431 1.393 . S
C2428 H2417 0.950 . S
C2428 C2426 1.391 . S
C2428 C2429 1.400 . S
C2429 C2423 1.491 . S
C2429 C2428 1.400 . S
C2429 C2430 1.398 . S
C2430 H2418 0.950 . S
C2430 C2429 1.398 . S
C2430 C2431 1.391 . S
C2431 H2419 0.950 . S
C2431 C2427 1.393 . S
C2431 C2430 1.391 . S
H2432 C2440 0.950 . S
H2433 C2445 0.950 . S
H2434 C2442 0.950 . S
H2435 C2444 0.950 . S
H2436 C2446 0.950 1_556 S
H2437 C2448 0.950 . S
H2438 C2450 0.950 . S
H2439 C2451 0.950 . S
C2440 H2432 0.950 . S
C2440 C2441 1.386 . S
C2440 C2442 1.391 . S
C2441 C2440 1.386 . S
C2441 C2445 1.393 . S
C2442 H2434 0.950 . S
C2442 C2440 1.391 . S
C2442 C2443 1.400 . S
C2443 C2442 1.400 . S
C2443 C2444 1.398 . S
C2443 C2449 1.491 . S
C2444 H2435 0.950 . S
C2444 C2443 1.398 . S
C2444 C2445 1.391 . S
C2445 H2433 0.950 . S
C2445 C2441 1.393 . S
C2445 C2444 1.391 . S
C2446 H2436 0.950 1_554 S
C2446 C2447 1.386 . S
C2446 C2448 1.391 . S
C2447 C2446 1.386 . S
C2447 C2451 1.393 . S
C2448 H2437 0.950 . S
C2448 C2446 1.391 . S
C2448 C2449 1.400 . S
C2449 C2443 1.491 . S
C2449 C2448 1.400 . S
C2449 C2450 1.398 . S
C2450 H2438 0.950 . S
C2450 C2449 1.398 . S
C2450 C2451 1.391 . S
C2451 H2439 0.950 . S
C2451 C2447 1.393 . S
C2451 C2450 1.391 . S
H2452 C2460 0.950 . S
H2453 C2465 0.950 . S
H2454 C2462 0.950 . S
H2455 C2464 0.950 . S
H2456 C2466 0.950 . S
H2457 C2468 0.950 . S
H2458 C2470 0.950 . S
H2459 C2471 0.950 . S
C2460 H2452 0.950 . S
C2460 C2461 1.386 . S
C2460 C2462 1.391 . S
C2461 C2460 1.386 . S
C2461 C2465 1.393 . S
C2462 H2454 0.950 . S
C2462 C2460 1.391 . S
C2462 C2463 1.400 . S
C2463 C2462 1.400 . S
C2463 C2464 1.398 . S
C2463 C2469 1.491 . S
C2464 H2455 0.950 . S
C2464 C2463 1.398 . S
C2464 C2465 1.391 . S
C2465 H2453 0.950 . S
C2465 C2461 1.393 . S
C2465 C2464 1.391 . S
C2466 H2456 0.950 . S
C2466 C2467 1.386 . S
C2466 C2468 1.391 . S
C2467 C2466 1.386 . S
C2467 C2471 1.393 . S
C2468 H2457 0.950 . S
C2468 C2466 1.391 . S
C2468 C2469 1.400 . S
C2469 C2463 1.491 . S
C2469 C2468 1.400 . S
C2469 C2470 1.398 . S
C2470 H2458 0.950 . S
C2470 C2469 1.398 . S
C2470 C2471 1.391 . S
C2471 H2459 0.950 . S
C2471 C2467 1.393 . S
C2471 C2470 1.391 . S
H2472 C2480 0.950 . S
H2473 C2485 0.950 . S
H2474 C2482 0.950 . S
H2475 C2484 0.950 . S
H2476 C2486 0.950 . S
H2477 C2488 0.950 . S
H2478 C2490 0.950 . S
H2479 C2491 0.950 . S
C2480 H2472 0.950 . S
C2480 C2481 1.386 . S
C2480 C2482 1.391 . S
C2481 C2480 1.386 . S
C2481 C2485 1.393 . S
C2482 H2474 0.950 . S
C2482 C2480 1.391 . S
C2482 C2483 1.400 . S
C2483 C2482 1.400 . S
C2483 C2484 1.398 . S
C2483 C2489 1.491 . S
C2484 H2475 0.950 . S
C2484 C2483 1.398 . S
C2484 C2485 1.391 . S
C2485 H2473 0.950 . S
C2485 C2481 1.393 . S
C2485 C2484 1.391 . S
C2486 H2476 0.950 . S
C2486 C2487 1.386 . S
C2486 C2488 1.391 . S
C2487 C2486 1.386 . S
C2487 C2491 1.393 . S
C2488 H2477 0.950 . S
C2488 C2486 1.391 . S
C2488 C2489 1.400 . S
C2489 C2483 1.491 . S
C2489 C2488 1.400 . S
C2489 C2490 1.398 . S
C2490 H2478 0.950 . S
C2490 C2489 1.398 . S
C2490 C2491 1.391 . S
C2491 H2479 0.950 . S
C2491 C2487 1.393 . S
C2491 C2490 1.391 . S
H2492 C2500 0.950 . S
H2493 C2505 0.950 . S
H2494 C2502 0.950 . S
H2495 C2504 0.950 . S
H2496 C2506 0.950 . S
H2497 C2508 0.950 . S
H2498 C2510 0.950 . S
H2499 C2511 0.950 . S
C2500 H2492 0.950 . S
C2500 C2501 1.386 . S
C2500 C2502 1.391 . S
C2501 C2500 1.386 . S
C2501 C2505 1.393 . S
C2502 H2494 0.950 . S
C2502 C2500 1.391 . S
C2502 C2503 1.400 . S
C2503 C2502 1.400 . S
C2503 C2504 1.398 . S
C2503 C2509 1.491 . S
C2504 H2495 0.950 . S
C2504 C2503 1.398 . S
C2504 C2505 1.391 . S
C2505 H2493 0.950 . S
C2505 C2501 1.393 . S
C2505 C2504 1.391 . S
C2506 H2496 0.950 . S
C2506 C2507 1.386 . S
C2506 C2508 1.391 . S
C2507 C2506 1.386 . S
C2507 C2511 1.393 . S
C2508 H2497 0.950 . S
C2508 C2506 1.391 . S
C2508 C2509 1.400 . S
C2509 C2503 1.491 . S
C2509 C2508 1.400 . S
C2509 C2510 1.398 . S
C2510 H2498 0.950 . S
C2510 C2509 1.398 . S
C2510 C2511 1.391 . S
C2511 H2499 0.950 . S
C2511 C2507 1.393 . S
C2511 C2510 1.391 . S
H2512 C2520 0.950 . S
H2513 C2525 0.950 . S
H2514 C2522 0.950 . S
H2515 C2524 0.950 . S
H2516 C2526 0.950 . S
H2517 C2528 0.950 . S
H2518 C2530 0.950 . S
H2519 C2531 0.950 . S
C2520 H2512 0.950 . S
C2520 C2521 1.386 . S
C2520 C2522 1.391 . S
C2521 C2520 1.386 . S
C2521 C2525 1.393 . S
C2522 H2514 0.950 . S
C2522 C2520 1.391 . S
C2522 C2523 1.400 . S
C2523 C2522 1.400 . S
C2523 C2524 1.398 . S
C2523 C2529 1.491 . S
C2524 H2515 0.950 . S
C2524 C2523 1.398 . S
C2524 C2525 1.391 . S
C2525 H2513 0.950 . S
C2525 C2521 1.393 . S
C2525 C2524 1.391 . S
C2526 H2516 0.950 . S
C2526 C2527 1.386 . S
C2526 C2528 1.391 . S
C2527 C2526 1.386 . S
C2527 C2531 1.393 . S
C2528 H2517 0.950 . S
C2528 C2526 1.391 . S
C2528 C2529 1.400 . S
C2529 C2523 1.491 . S
C2529 C2528 1.400 . S
C2529 C2530 1.398 . S
C2530 H2518 0.950 . S
C2530 C2529 1.398 . S
C2530 C2531 1.391 . S
C2531 H2519 0.950 . S
C2531 C2527 1.393 . S
C2531 C2530 1.391 . S
H2532 C2540 0.950 . S
H2533 C2545 0.950 . S
H2534 C2542 0.950 . S
H2535 C2544 0.950 . S
H2536 C2546 0.950 . S
H2537 C2548 0.950 . S
H2538 C2550 0.950 . S
H2539 C2551 0.950 . S
C2540 H2532 0.950 . S
C2540 C2541 1.386 . S
C2540 C2542 1.391 . S
C2541 C2540 1.386 . S
C2541 C2545 1.393 . S
C2542 H2534 0.950 . S
C2542 C2540 1.391 . S
C2542 C2543 1.400 . S
C2543 C2542 1.400 . S
C2543 C2544 1.398 . S
C2543 C2549 1.491 . S
C2544 H2535 0.950 . S
C2544 C2543 1.398 . S
C2544 C2545 1.391 . S
C2545 H2533 0.950 . S
C2545 C2541 1.393 . S
C2545 C2544 1.391 . S
C2546 H2536 0.950 . S
C2546 C2547 1.386 . S
C2546 C2548 1.391 . S
C2547 C2546 1.386 . S
C2547 C2551 1.393 . S
C2548 H2537 0.950 . S
C2548 C2546 1.391 . S
C2548 C2549 1.400 . S
C2549 C2543 1.491 . S
C2549 C2548 1.400 . S
C2549 C2550 1.398 . S
C2550 H2538 0.950 . S
C2550 C2549 1.398 . S
C2550 C2551 1.391 . S
C2551 H2539 0.950 . S
C2551 C2547 1.393 . S
C2551 C2550 1.391 . S
H2552 C2560 0.950 . S
H2553 C2565 0.950 . S
H2554 C2562 0.950 . S
H2555 C2564 0.950 . S
H2556 C2566 0.950 . S
H2557 C2568 0.950 . S
H2558 C2570 0.950 . S
H2559 C2571 0.950 . S
C2560 H2552 0.950 . S
C2560 C2561 1.386 . S
C2560 C2562 1.391 . S
C2561 C2560 1.386 . S
C2561 C2565 1.393 . S
C2562 H2554 0.950 . S
C2562 C2560 1.391 . S
C2562 C2563 1.400 . S
C2563 C2562 1.400 . S
C2563 C2564 1.398 . S
C2563 C2569 1.491 . S
C2564 H2555 0.950 . S
C2564 C2563 1.398 . S
C2564 C2565 1.391 . S
C2565 H2553 0.950 . S
C2565 C2561 1.393 . S
C2565 C2564 1.391 . S
C2566 H2556 0.950 . S
C2566 C2567 1.386 . S
C2566 C2568 1.391 . S
C2567 C2566 1.386 . S
C2567 C2571 1.393 . S
C2568 H2557 0.950 . S
C2568 C2566 1.391 . S
C2568 C2569 1.400 . S
C2569 C2563 1.491 . S
C2569 C2568 1.400 . S
C2569 C2570 1.398 . S
C2570 H2558 0.950 . S
C2570 C2569 1.398 . S
C2570 C2571 1.391 . S
C2571 H2559 0.950 . S
C2571 C2567 1.393 . S
C2571 C2570 1.391 . S
H2572 C2580 0.950 . S
H2573 C2585 0.950 . S
H2574 C2582 0.950 . S
H2575 C2584 0.950 . S
H2576 C2586 0.950 . S
H2577 C2588 0.950 . S
H2578 C2590 0.950 . S
H2579 C2591 0.950 . S
C2580 H2572 0.950 . S
C2580 C2581 1.386 . S
C2580 C2582 1.391 . S
C2581 C2580 1.386 . S
C2581 C2585 1.393 . S
C2582 H2574 0.950 . S
C2582 C2580 1.391 . S
C2582 C2583 1.400 . S
C2583 C2582 1.400 . S
C2583 C2584 1.398 . S
C2583 C2589 1.491 . S
C2584 H2575 0.950 . S
C2584 C2583 1.398 . S
C2584 C2585 1.391 . S
C2585 H2573 0.950 . S
C2585 C2581 1.393 . S
C2585 C2584 1.391 . S
C2586 H2576 0.950 . S
C2586 C2587 1.386 . S
C2586 C2588 1.391 . S
C2587 C2586 1.386 . S
C2587 C2591 1.393 . S
C2588 H2577 0.950 . S
C2588 C2586 1.391 . S
C2588 C2589 1.400 . S
C2589 C2583 1.491 . S
C2589 C2588 1.400 . S
C2589 C2590 1.398 . S
C2590 H2578 0.950 . S
C2590 C2589 1.398 . S
C2590 C2591 1.391 . S
C2591 H2579 0.950 . S
C2591 C2587 1.393 . S
C2591 C2590 1.391 . S
H2592 C2600 0.950 . S
H2593 C2605 0.950 . S
H2594 C2602 0.950 . S
H2595 C2604 0.950 . S
H2596 C2606 0.950 . S
H2597 C2608 0.950 . S
H2598 C2610 0.950 . S
H2599 C2611 0.963 . S
C2600 H2592 0.950 . S
C2600 C2601 1.386 . S
C2600 C2602 1.391 . S
C2601 C2600 1.386 . S
C2601 C2605 1.393 . S
C2602 H2594 0.950 . S
C2602 C2600 1.391 . S
C2602 C2603 1.400 . S
C2603 C2602 1.400 . S
C2603 C2604 1.398 . S
C2603 C2609 1.491 . S
C2604 H2595 0.950 . S
C2604 C2603 1.398 . S
C2604 C2605 1.391 . S
C2605 H2593 0.950 . S
C2605 C2601 1.393 . S
C2605 C2604 1.391 . S
C2606 H2596 0.950 . S
C2606 C2607 1.386 1_655 S
C2606 C2608 1.391 . S
C2607 C2606 1.386 1_455 S
C2607 C2611 1.389 . S
C2608 H2597 0.950 . S
C2608 C2606 1.391 . S
C2608 C2609 1.400 . S
C2609 C2603 1.491 . S
C2609 C2608 1.400 . S
C2609 C2610 1.398 . S
C2610 H2598 0.950 . S
C2610 C2609 1.398 . S
C2610 C2611 1.382 1_655 S
C2611 H2599 0.963 . S
C2611 C2607 1.389 . S
C2611 C2610 1.382 1_455 S
H2612 C2620 0.950 . S
H2613 C2625 0.950 . S
H2614 C2622 0.950 . S
H2615 C2624 0.950 . S
H2616 C2626 0.950 . S
H2617 C2628 0.950 . S
H2618 C2630 0.950 . S
H2619 C2631 0.950 . S
C2620 H2612 0.950 . S
C2620 C2621 1.386 . S
C2620 C2622 1.391 . S
C2621 C2620 1.386 . S
C2621 C2625 1.393 . S
C2622 H2614 0.950 . S
C2622 C2620 1.391 . S
C2622 C2623 1.400 . S
C2623 C2622 1.400 . S
C2623 C2624 1.398 . S
C2623 C2629 1.491 . S
C2624 H2615 0.950 . S
C2624 C2623 1.398 . S
C2624 C2625 1.391 . S
C2625 H2613 0.950 . S
C2625 C2621 1.393 . S
C2625 C2624 1.391 . S
C2626 H2616 0.950 . S
C2626 C2627 1.386 . S
C2626 C2628 1.391 . S
C2627 C2626 1.386 . S
C2627 C2631 1.393 . S
C2628 H2617 0.950 . S
C2628 C2626 1.391 . S
C2628 C2629 1.400 . S
C2629 C2623 1.491 . S
C2629 C2628 1.400 . S
C2629 C2630 1.398 . S
C2630 H2618 0.950 . S
C2630 C2629 1.398 . S
C2630 C2631 1.391 . S
C2631 H2619 0.950 . S
C2631 C2627 1.393 . S
C2631 C2630 1.391 . S
H2632 C2640 0.950 . S
H2633 C2645 0.950 . S
H2634 C2642 0.950 . S
H2635 C2644 0.950 . S
H2636 C2646 0.950 . S
H2637 C2648 0.950 . S
H2638 C2650 0.950 . S
H2639 C2651 0.950 . S
C2640 H2632 0.950 . S
C2640 C2641 1.386 . S
C2640 C2642 1.391 . S
C2641 C2640 1.386 . S
C2641 C2645 1.393 . S
C2642 H2634 0.950 . S
C2642 C2640 1.391 . S
C2642 C2643 1.400 . S
C2643 C2642 1.400 . S
C2643 C2644 1.398 . S
C2643 C2649 1.491 . S
C2644 H2635 0.950 . S
C2644 C2643 1.398 . S
C2644 C2645 1.391 . S
C2645 H2633 0.950 . S
C2645 C2641 1.393 . S
C2645 C2644 1.391 . S
C2646 H2636 0.950 . S
C2646 C2647 1.386 . S
C2646 C2648 1.391 . S
C2647 C2646 1.386 . S
C2647 C2651 1.393 . S
C2648 H2637 0.950 . S
C2648 C2646 1.391 . S
C2648 C2649 1.400 . S
C2649 C2643 1.491 . S
C2649 C2648 1.400 . S
C2649 C2650 1.398 . S
C2650 H2638 0.950 . S
C2650 C2649 1.398 . S
C2650 C2651 1.391 . S
C2651 H2639 0.950 . S
C2651 C2647 1.393 . S
C2651 C2650 1.391 . S
H2652 C2660 0.950 . S
H2653 C2665 0.950 . S
H2654 C2662 0.950 . S
H2655 C2664 0.950 . S
H2656 C2666 0.950 . S
H2657 C2668 0.950 . S
H2658 C2670 0.950 . S
H2659 C2671 0.950 . S
C2660 H2652 0.950 . S
C2660 C2661 1.386 . S
C2660 C2662 1.391 . S
C2661 C2660 1.386 . S
C2661 C2665 1.393 . S
C2662 H2654 0.950 . S
C2662 C2660 1.391 . S
C2662 C2663 1.400 . S
C2663 C2662 1.400 . S
C2663 C2664 1.398 . S
C2663 C2669 1.491 . S
C2664 H2655 0.950 . S
C2664 C2663 1.398 . S
C2664 C2665 1.391 . S
C2665 H2653 0.950 . S
C2665 C2661 1.393 . S
C2665 C2664 1.391 . S
C2666 H2656 0.950 . S
C2666 C2667 1.386 . S
C2666 C2668 1.391 . S
C2667 C2666 1.386 . S
C2667 C2671 1.393 . S
C2668 H2657 0.950 . S
C2668 C2666 1.391 . S
C2668 C2669 1.400 . S
C2669 C2663 1.491 . S
C2669 C2668 1.400 . S
C2669 C2670 1.398 . S
C2670 H2658 0.950 . S
C2670 C2669 1.398 . S
C2670 C2671 1.391 . S
C2671 H2659 0.950 . S
C2671 C2667 1.393 . S
C2671 C2670 1.391 . S
H2672 C2680 0.950 . S
H2673 C2685 0.950 . S
H2674 C2682 0.950 . S
H2675 C2684 0.950 . S
H2676 C2686 0.950 . S
H2677 C2688 0.950 . S
H2678 C2690 0.950 . S
H2679 C2691 0.950 . S
C2680 H2672 0.950 . S
C2680 C2681 1.386 . S
C2680 C2682 1.391 . S
C2681 C2680 1.386 . S
C2681 C2685 1.393 . S
C2682 H2674 0.950 . S
C2682 C2680 1.391 . S
C2682 C2683 1.400 . S
C2683 C2682 1.400 . S
C2683 C2684 1.398 . S
C2683 C2689 1.491 . S
C2684 H2675 0.950 . S
C2684 C2683 1.398 . S
C2684 C2685 1.391 . S
C2685 H2673 0.950 . S
C2685 C2681 1.393 . S
C2685 C2684 1.391 . S
C2686 H2676 0.950 . S
C2686 C2687 1.386 . S
C2686 C2688 1.391 . S
C2687 C2686 1.386 . S
C2687 C2691 1.393 . S
C2688 H2677 0.950 . S
C2688 C2686 1.391 . S
C2688 C2689 1.400 . S
C2689 C2683 1.491 . S
C2689 C2688 1.400 . S
C2689 C2690 1.398 . S
C2690 H2678 0.950 . S
C2690 C2689 1.398 . S
C2690 C2691 1.391 . S
C2691 H2679 0.950 . S
C2691 C2687 1.393 . S
C2691 C2690 1.391 . S
H2692 C2700 0.950 . S
H2693 C2705 0.950 . S
H2694 C2702 0.950 . S
H2695 C2704 0.950 . S
H2696 C2706 0.950 . S
H2697 C2708 0.950 . S
H2698 C2710 0.950 . S
H2699 C2711 0.950 . S
C2700 H2692 0.950 . S
C2700 C2701 1.386 . S
C2700 C2702 1.391 . S
C2701 C2700 1.386 . S
C2701 C2705 1.393 . S
C2702 H2694 0.950 . S
C2702 C2700 1.391 . S
C2702 C2703 1.400 . S
C2703 C2702 1.400 . S
C2703 C2704 1.398 . S
C2703 C2709 1.491 . S
C2704 H2695 0.950 . S
C2704 C2703 1.398 . S
C2704 C2705 1.391 . S
C2705 H2693 0.950 . S
C2705 C2701 1.393 . S
C2705 C2704 1.391 . S
C2706 H2696 0.950 . S
C2706 C2707 1.386 . S
C2706 C2708 1.391 . S
C2707 C2706 1.386 . S
C2707 C2711 1.393 . S
C2708 H2697 0.950 . S
C2708 C2706 1.391 . S
C2708 C2709 1.400 . S
C2709 C2703 1.491 . S
C2709 C2708 1.400 . S
C2709 C2710 1.398 . S
C2710 H2698 0.950 . S
C2710 C2709 1.398 . S
C2710 C2711 1.391 . S
C2711 H2699 0.950 . S
C2711 C2707 1.393 . S
C2711 C2710 1.391 . S
H2712 C2720 0.950 . S
H2713 C2725 0.950 . S
H2714 C2722 0.950 . S
H2715 C2724 0.950 . S
H2716 C2726 0.950 . S
H2717 C2728 0.950 . S
H2718 C2730 0.950 . S
H2719 C2731 0.950 . S
C2720 H2712 0.950 . S
C2720 C2721 1.386 . S
C2720 C2722 1.391 . S
C2721 C2720 1.386 . S
C2721 C2725 1.393 . S
C2722 H2714 0.950 . S
C2722 C2720 1.391 . S
C2722 C2723 1.400 . S
C2723 C2722 1.400 . S
C2723 C2724 1.398 . S
C2723 C2729 1.491 . S
C2724 H2715 0.950 . S
C2724 C2723 1.398 . S
C2724 C2725 1.391 . S
C2725 H2713 0.950 . S
C2725 C2721 1.393 . S
C2725 C2724 1.391 . S
C2726 H2716 0.950 . S
C2726 C2727 1.386 . S
C2726 C2728 1.391 . S
C2727 C2726 1.386 . S
C2727 C2731 1.393 . S
C2728 H2717 0.950 . S
C2728 C2726 1.391 . S
C2728 C2729 1.400 . S
C2729 C2723 1.491 . S
C2729 C2728 1.400 . S
C2729 C2730 1.398 . S
C2730 H2718 0.950 . S
C2730 C2729 1.398 . S
C2730 C2731 1.391 . S
C2731 H2719 0.950 . S
C2731 C2727 1.393 . S
C2731 C2730 1.391 . S
H2732 C2740 0.950 . S
H2733 C2745 0.950 . S
H2734 C2742 0.950 . S
H2735 C2744 0.950 . S
H2736 C2746 0.950 . S
H2737 C2748 0.950 1_545 S
H2738 C2750 0.950 . S
H2739 C2751 0.950 . S
C2740 H2732 0.950 . S
C2740 C2741 1.386 . S
C2740 C2742 1.391 . S
C2741 C2740 1.386 . S
C2741 C2745 1.393 . S
C2742 H2734 0.950 . S
C2742 C2740 1.391 . S
C2742 C2743 1.400 . S
C2743 C2742 1.400 . S
C2743 C2744 1.398 . S
C2743 C2749 1.491 . S
C2744 H2735 0.950 . S
C2744 C2743 1.398 . S
C2744 C2745 1.391 . S
C2745 H2733 0.950 . S
C2745 C2741 1.393 . S
C2745 C2744 1.391 . S
C2746 H2736 0.950 . S
C2746 C2747 1.386 . S
C2746 C2748 1.391 1_545 S
C2747 C2746 1.386 . S
C2747 C2751 1.393 1_545 S
C2748 H2737 0.950 1_565 S
C2748 C2746 1.391 1_565 S
C2748 C2749 1.400 . S
C2749 C2743 1.491 . S
C2749 C2748 1.400 . S
C2749 C2750 1.398 . S
C2750 H2738 0.950 . S
C2750 C2749 1.398 . S
C2750 C2751 1.391 . S
C2751 H2739 0.950 . S
C2751 C2747 1.393 1_565 S
C2751 C2750 1.391 . S
H2752 C2760 0.950 . S
H2753 C2765 0.950 . S
H2754 C2762 0.950 . S
H2755 C2764 0.950 . S
H2756 C2766 0.950 . S
H2757 C2768 0.950 . S
H2758 C2770 0.950 . S
H2759 C2771 0.950 . S
C2760 H2752 0.950 . S
C2760 C2761 1.386 . S
C2760 C2762 1.391 . S
C2761 C2760 1.386 . S
C2761 C2765 1.393 . S
C2762 H2754 0.950 . S
C2762 C2760 1.391 . S
C2762 C2763 1.400 . S
C2763 C2762 1.400 . S
C2763 C2764 1.398 . S
C2763 C2769 1.491 . S
C2764 H2755 0.950 . S
C2764 C2763 1.398 . S
C2764 C2765 1.391 . S
C2765 H2753 0.950 . S
C2765 C2761 1.393 . S
C2765 C2764 1.391 . S
C2766 H2756 0.950 . S
C2766 C2767 1.386 . S
C2766 C2768 1.391 . S
C2767 C2766 1.386 . S
C2767 C2771 1.393 . S
C2768 H2757 0.950 . S
C2768 C2766 1.391 . S
C2768 C2769 1.400 . S
C2769 C2763 1.491 . S
C2769 C2768 1.400 . S
C2769 C2770 1.398 . S
C2770 H2758 0.950 . S
C2770 C2769 1.398 . S
C2770 C2771 1.391 . S
C2771 H2759 0.950 . S
C2771 C2767 1.393 . S
C2771 C2770 1.391 . S
H2772 C2780 0.950 . S
H2773 C2785 0.950 . S
H2774 C2782 0.950 . S
H2775 C2784 0.950 . S
H2776 C2786 0.950 . S
H2777 C2788 0.950 . S
H2778 C2790 0.950 . S
H2779 C2791 0.950 . S
C2780 H2772 0.950 . S
C2780 C2781 1.386 . S
C2780 C2782 1.391 . S
C2781 C2780 1.386 . S
C2781 C2785 1.393 . S
C2782 H2774 0.950 . S
C2782 C2780 1.391 . S
C2782 C2783 1.400 . S
C2783 C2782 1.400 . S
C2783 C2784 1.398 . S
C2783 C2789 1.491 . S
C2784 H2775 0.950 . S
C2784 C2783 1.398 . S
C2784 C2785 1.391 . S
C2785 H2773 0.950 . S
C2785 C2781 1.393 . S
C2785 C2784 1.391 . S
C2786 H2776 0.950 . S
C2786 C2787 1.386 . S
C2786 C2788 1.391 . S
C2787 C2786 1.386 . S
C2787 C2791 1.393 . S
C2788 H2777 0.950 . S
C2788 C2786 1.391 . S
C2788 C2789 1.400 . S
C2789 C2783 1.491 . S
C2789 C2788 1.400 . S
C2789 C2790 1.398 . S
C2790 H2778 0.950 . S
C2790 C2789 1.398 . S
C2790 C2791 1.391 . S
C2791 H2779 0.950 . S
C2791 C2787 1.393 . S
C2791 C2790 1.391 . S
H2792 C2800 0.950 . S
H2793 C2805 0.950 . S
H2794 C2802 0.950 . S
H2795 C2804 0.950 . S
H2796 C2806 0.950 . S
H2797 C2808 0.950 . S
H2798 C2810 0.950 . S
H2799 C2811 0.950 . S
C2800 H2792 0.950 . S
C2800 C2801 1.386 . S
C2800 C2802 1.391 . S
C2801 C2800 1.386 . S
C2801 C2805 1.393 . S
C2802 H2794 0.950 . S
C2802 C2800 1.391 . S
C2802 C2803 1.400 . S
C2803 C2802 1.400 . S
C2803 C2804 1.398 . S
C2803 C2809 1.491 . S
C2804 H2795 0.950 . S
C2804 C2803 1.398 . S
C2804 C2805 1.391 . S
C2805 H2793 0.950 . S
C2805 C2801 1.393 . S
C2805 C2804 1.391 . S
C2806 H2796 0.950 . S
C2806 C2807 1.386 . S
C2806 C2808 1.391 . S
C2807 C2806 1.386 . S
C2807 C2811 1.393 . S
C2808 H2797 0.950 . S
C2808 C2806 1.391 . S
C2808 C2809 1.400 . S
C2809 C2803 1.491 . S
C2809 C2808 1.400 . S
C2809 C2810 1.398 . S
C2810 H2798 0.950 . S
C2810 C2809 1.398 . S
C2810 C2811 1.391 . S
C2811 H2799 0.950 . S
C2811 C2807 1.393 . S
C2811 C2810 1.391 . S
H2812 C2820 0.950 1_556 S
H2813 C2825 0.950 . S
H2814 C2822 0.950 1_556 S
H2815 C2824 0.950 . S
H2816 C2826 0.950 . S
H2817 C2828 0.950 . S
H2818 C2830 0.950 . S
H2819 C2831 0.950 . S
C2820 H2812 0.950 1_554 S
C2820 C2821 1.386 . S
C2820 C2822 1.391 . S
C2821 C2820 1.386 . S
C2821 C2825 1.393 . S
C2822 H2814 0.950 1_554 S
C2822 C2820 1.391 . S
C2822 C2823 1.400 . S
C2823 C2822 1.400 . S
C2823 C2824 1.398 . S
C2823 C2829 1.491 . S
C2824 H2815 0.950 . S
C2824 C2823 1.398 . S
C2824 C2825 1.391 . S
C2825 H2813 0.950 . S
C2825 C2821 1.393 . S
C2825 C2824 1.391 . S
C2826 H2816 0.950 . S
C2826 C2827 1.386 1_554 S
C2826 C2828 1.391 . S
C2827 C2826 1.386 1_556 S
C2827 C2831 1.393 . S
C2828 H2817 0.950 . S
C2828 C2826 1.391 . S
C2828 C2829 1.400 . S
C2829 C2823 1.491 . S
C2829 C2828 1.400 . S
C2829 C2830 1.398 1_554 S
C2830 H2818 0.950 . S
C2830 C2829 1.398 1_556 S
C2830 C2831 1.391 . S
C2831 H2819 0.950 . S
C2831 C2827 1.393 . S
C2831 C2830 1.391 . S
H2832 C2840 0.950 . S
H2833 C2845 0.950 . S
H2834 C2842 0.950 . S
H2835 C2844 0.950 . S
H2836 C2846 0.950 . S
H2837 C2848 0.950 . S
H2838 C2850 0.950 . S
H2839 C2851 0.950 . S
C2840 H2832 0.950 . S
C2840 C2841 1.386 . S
C2840 C2842 1.391 . S
C2841 C2840 1.386 . S
C2841 C2845 1.393 . S
C2842 H2834 0.950 . S
C2842 C2840 1.391 . S
C2842 C2843 1.400 . S
C2843 C2842 1.400 . S
C2843 C2844 1.398 . S
C2843 C2849 1.491 . S
C2844 H2835 0.950 . S
C2844 C2843 1.398 . S
C2844 C2845 1.391 . S
C2845 H2833 0.950 . S
C2845 C2841 1.393 . S
C2845 C2844 1.391 . S
C2846 H2836 0.950 . S
C2846 C2847 1.386 . S
C2846 C2848 1.391 . S
C2847 C2846 1.386 . S
C2847 C2851 1.393 . S
C2848 H2837 0.950 . S
C2848 C2846 1.391 . S
C2848 C2849 1.400 . S
C2849 C2843 1.491 . S
C2849 C2848 1.400 . S
C2849 C2850 1.398 . S
C2850 H2838 0.950 . S
C2850 C2849 1.398 . S
C2850 C2851 1.391 . S
C2851 H2839 0.950 . S
C2851 C2847 1.393 . S
C2851 C2850 1.391 . S
H2852 C2860 0.950 . S
H2853 C2865 0.950 . S
H2854 C2862 0.950 . S
H2855 C2864 0.950 . S
H2856 C2866 0.950 . S
H2857 C2868 0.950 . S
H2858 C2870 0.950 . S
H2859 C2871 0.950 . S
C2860 H2852 0.950 . S
C2860 C2861 1.386 . S
C2860 C2862 1.391 . S
C2861 C2860 1.386 . S
C2861 C2865 1.393 . S
C2862 H2854 0.950 . S
C2862 C2860 1.391 . S
C2862 C2863 1.400 . S
C2863 C2862 1.400 . S
C2863 C2864 1.398 . S
C2863 C2869 1.491 . S
C2864 H2855 0.950 . S
C2864 C2863 1.398 . S
C2864 C2865 1.391 . S
C2865 H2853 0.950 . S
C2865 C2861 1.393 . S
C2865 C2864 1.391 . S
C2866 H2856 0.950 . S
C2866 C2867 1.386 . S
C2866 C2868 1.391 . S
C2867 C2866 1.386 . S
C2867 C2871 1.393 . S
C2868 H2857 0.950 . S
C2868 C2866 1.391 . S
C2868 C2869 1.400 . S
C2869 C2863 1.491 . S
C2869 C2868 1.400 . S
C2869 C2870 1.398 . S
C2870 H2858 0.950 . S
C2870 C2869 1.398 . S
C2870 C2871 1.391 . S
C2871 H2859 0.950 . S
C2871 C2867 1.393 . S
C2871 C2870 1.391 . S
C961 C101 2.272 . S
C967 C325 2.259 . S
C981 C57 2.060 . S
C987 C376 2.079 . S
C1001 C73 1.635 . S
C1007 C405 1.720 . S
C1027 C449 1.385 . S
C1021 C78 1.399 . S
C1041 C21 1.369 . S
C1047 C489 1.360 . S
C1067 C525 1.666 . S
C1061 C31 1.604 . S
C1087 C575 1.877 . S
C1081 C49 1.853 . S
C1101 C0 2.156 . S
C1107 C605 2.282 . S
C1127 C335 1.928 . S
C1121 C218 1.954 . S
C1141 C229 0.587 . S
C1147 C378 0.609 . S
C1167 C415 1.230 . S
C1161 C257 1.226 . S
C1187 C445 1.421 . S
C1181 C164 1.367 . S
C1201 C216 1.384 . S
C1207 C485 1.451 . S
C1227 C535 0.899 . S
C1221 C231 0.887 . S
C1247 C569 0.790 . S
C1241 C255 0.794 . S
C1267 C615 1.897 . S
C1261 C166 1.924 . S
C1287 C329 1.062 . S
C1281 C143 1.032 . S
C1301 C265 1.694 . S
C1307 C655 1.711 . S
C1327 C689 1.365 . S
C1321 C299 1.356 . S
C1347 C725 0.839 . S
C1341 C291 0.823 . S
C1361 C104 1.210 . S
C1367 C609 1.252 . S
C1381 C117 1.419 . S
C1387 C409 1.421 . S
C1401 C304 1.564 . S
C1407 C775 1.570 . S
C1427 C794 0.233 . S
C1421 C278 0.335 . S
C1447 C336 2.202 . S
C1441 C60 2.195 . S
C1467 C805 1.974 . S
C1461 C96 1.996 . S
C1481 C88 1.609 . S
C1487 C416 1.588 . S
C1501 C65 1.401 . S
C1507 C778 1.335 . S
C1527 C498 1.293 . S
C1521 C10 1.332 . S
C1541 C44 1.518 . S
C1547 C696 1.565 . S
C1567 C554 1.789 1_556 S
C1561 C34 1.737 . S
C1587 C856 2.220 . S
C1581 C13 2.227 . S
C1607 C314 1.852 . S
C1601 C138 1.840 . S
C1627 C809 0.604 . S
C1621 C296 0.565 . S
C1641 C112 1.153 . S
C1647 C394 1.143 . S
C1661 C270 1.326 . S
C1667 C776 1.325 . S
C1681 C140 1.355 . S
C1687 C496 1.335 . S
C1707 C674 0.801 . S
C1701 C294 0.819 . S
C1721 C114 0.782 . S
C1727 C578 0.797 . S
C1741 C268 1.812 . S
C1747 C834 1.825 . S
C1761 C169 1.153 . S
C1767 C338 1.063 . S
C1781 C161 1.637 . S
C1787 C634 1.633 . S
C1801 C234 1.425 . S
C1807 C538 1.368 . S
C1821 C226 0.754 . S
C1827 C736 0.784 . S
C1847 C858 1.243 . S
C1841 C247 1.327 . S
C1861 C195 1.513 . S
C1867 C418 1.429 . S
C1887 C434 1.492 . S
C1881 C239 1.492 . S
C1907 C375 0.161 . S
C1901 C187 0.357 . S
C1921 C75 2.262 . S
C1927 C885 2.252 . S
C1947 C816 2.085 . S
C1941 C83 2.052 . S
C1961 C99 1.620 . S
C1967 C925 1.724 . S
C1981 C52 1.356 1_655 S
C1987 C769 1.383 . S
C2001 C47 1.357 . S
C2007 C649 1.353 . S
C2027 C685 1.676 . S
C2021 C5 1.579 . S
C2047 C735 1.880 . S
C2041 C23 1.846 . S
C2067 C845 2.283 . S
C2061 C26 2.154 . S
C2087 C895 1.914 . S
C2081 C244 1.952 . S
C2101 C177 0.556 . S
C2107 C818 0.604 . S
C2127 C935 1.230 . S
C2121 C192 1.215 . S
C2147 C765 1.420 . S
C2141 C203 1.345 . S
C2167 C645 1.456 . S
C2161 C242 1.399 . S
C2181 C179 0.895 . S
C2187 C695 0.886 . S
C2207 C729 0.813 . S
C2201 C190 0.825 . S
C2221 C205 1.923 . S
C2227 C855 1.896 . S
C2247 C889 1.053 . S
C2241 C286 1.043 . S
C2261 C122 1.698 . S
C2267 C495 1.707 . S
C2287 C529 1.352 . S
C2281 C130 1.343 1_565 S
C2307 C565 0.847 . S
C2301 C148 0.814 . S
C2327 C849 1.277 . S
C2321 C273 1.222 . S
C2341 C260 1.418 . S
C2347 C929 1.425 . S
C2367 C455 1.571 . S
C2361 C135 1.546 . S
C2387 C354 0.228 . S
C2381 C109 0.330 . S
C2401 C86 2.194 . S
C2407 C896 2.203 . S
C2427 C365 1.978 . S
C2421 C70 1.997 . S
C2441 C62 1.608 . S
C2447 C936 1.595 . S
C2461 C91 1.393 . S
C2467 C458 1.362 . S
C2481 C36 1.330 . S
C2487 C658 1.291 . S
C2507 C536 1.564 . S
C2501 C18 1.516 . S
C2521 C8 1.736 . S
C2527 C714 1.790 . S
C2541 C39 2.228 . S
C2547 C616 2.220 . S
C2567 C874 1.852 . S
C2561 C307 1.846 . S
C2581 C153 0.530 . S
C2587 C369 0.542 . S
C2607 C914 1.145 . S
C2601 C281 1.152 . S
C2621 C127 1.327 . S
C2627 C456 1.313 . S
C2641 C309 1.349 . S
C2647 C656 1.345 . S
C2667 C514 0.796 . S
C2661 C151 0.813 . S
C2681 C283 0.774 . S
C2687 C738 0.751 . S
C2707 C594 1.812 . S
C2701 C125 1.820 . S
C2727 C898 1.070 . S
C2721 C221 1.152 . S
C2747 C474 1.635 . S
C2741 C200 1.635 . S
C2761 C208 1.428 . S
C2767 C698 1.361 . S
C2787 C576 0.782 . S
C2781 C174 0.756 . S
C2801 C182 1.330 . S
C2807 C618 1.277 . S
C2821 C156 1.512 . S
C2827 C938 1.436 . S
C2847 C754 1.483 . S
C2841 C213 1.488 . S
C2867 C815 0.221 . S
C2861 C252 0.296 . S
