# Generated by pormake.
# Topology ocu, (6,8)-cn, num edge types: 1
# Building blocks:
#     Node 0, Type 0, BuildingBlock: KUMJIN_clean_sbu_0, # of connection points: 6
#     Node 1, Type 0, BuildingBlock: KUMJIN_clean_sbu_0, # of connection points: 6
#     Node 2, Type 0, BuildingBlock: KUMJIN_clean_sbu_0, # of connection points: 6
#     Node 3, Type 0, BuildingBlock: KUMJIN_clean_sbu_0, # of connection points: 6
#     Node 4, Type 0, BuildingBlock: KUMJIN_clean_sbu_0, # of connection points: 6
#     Node 5, Type 0, BuildingBlock: KUMJIN_clean_sbu_0, # of connection points: 6
#     Node 6, Type 0, BuildingBlock: KUMJIN_clean_sbu_0, # of connection points: 6
#     Node 7, Type 0, BuildingBlock: KUMJIN_clean_sbu_0, # of connection points: 6
#     Node 8, Type 1, BuildingBlock: TAGTUT_clean_sbu_1, # of connection points: 8
#     Node 9, Type 1, BuildingBlock: TAGTUT_clean_sbu_1, # of connection points: 8
#     Node 10, Type 1, BuildingBlock: TAGTUT_clean_sbu_1, # of connection points: 8
#     Node 11, Type 1, BuildingBlock: TAGTUT_clean_sbu_1, # of connection points: 8
#     Node 12, Type 1, BuildingBlock: TAGTUT_clean_sbu_1, # of connection points: 8
#     Node 13, Type 1, BuildingBlock: TAGTUT_clean_sbu_1, # of connection points: 8
#     Edge 14, Type (0, 1), BuildingBlock: KIFKEQ_clean_linker_1, # of connection points: 2
#     Edge 15, Type (0, 1), BuildingBlock: KIFKEQ_clean_linker_1, # of connection points: 2
#     Edge 16, Type (0, 1), BuildingBlock: KIFKEQ_clean_linker_1, # of connection points: 2
#     Edge 17, Type (0, 1), BuildingBlock: KIFKEQ_clean_linker_1, # of connection points: 2
#     Edge 18, Type (0, 1), BuildingBlock: KIFKEQ_clean_linker_1, # of connection points: 2
#     Edge 19, Type (0, 1), BuildingBlock: KIFKEQ_clean_linker_1, # of connection points: 2
#     Edge 20, Type (0, 1), BuildingBlock: KIFKEQ_clean_linker_1, # of connection points: 2
#     Edge 21, Type (0, 1), BuildingBlock: KIFKEQ_clean_linker_1, # of connection points: 2
#     Edge 22, Type (0, 1), BuildingBlock: KIFKEQ_clean_linker_1, # of connection points: 2
#     Edge 23, Type (0, 1), BuildingBlock: KIFKEQ_clean_linker_1, # of connection points: 2
#     Edge 24, Type (0, 1), BuildingBlock: KIFKEQ_clean_linker_1, # of connection points: 2
#     Edge 25, Type (0, 1), BuildingBlock: KIFKEQ_clean_linker_1, # of connection points: 2
#     Edge 26, Type (0, 1), BuildingBlock: KIFKEQ_clean_linker_1, # of connection points: 2
#     Edge 27, Type (0, 1), BuildingBlock: KIFKEQ_clean_linker_1, # of connection points: 2
#     Edge 28, Type (0, 1), BuildingBlock: KIFKEQ_clean_linker_1, # of connection points: 2
#     Edge 29, Type (0, 1), BuildingBlock: KIFKEQ_clean_linker_1, # of connection points: 2
#     Edge 30, Type (0, 1), BuildingBlock: KIFKEQ_clean_linker_1, # of connection points: 2
#     Edge 31, Type (0, 1), BuildingBlock: KIFKEQ_clean_linker_1, # of connection points: 2
#     Edge 32, Type (0, 1), BuildingBlock: KIFKEQ_clean_linker_1, # of connection points: 2
#     Edge 33, Type (0, 1), BuildingBlock: KIFKEQ_clean_linker_1, # of connection points: 2
#     Edge 34, Type (0, 1), BuildingBlock: KIFKEQ_clean_linker_1, # of connection points: 2
#     Edge 35, Type (0, 1), BuildingBlock: KIFKEQ_clean_linker_1, # of connection points: 2
#     Edge 36, Type (0, 1), BuildingBlock: KIFKEQ_clean_linker_1, # of connection points: 2
#     Edge 37, Type (0, 1), BuildingBlock: KIFKEQ_clean_linker_1, # of connection points: 2
#     Edge 38, Type (0, 1), BuildingBlock: KIFKEQ_clean_linker_1, # of connection points: 2
#     Edge 39, Type (0, 1), BuildingBlock: KIFKEQ_clean_linker_1, # of connection points: 2
#     Edge 40, Type (0, 1), BuildingBlock: KIFKEQ_clean_linker_1, # of connection points: 2
#     Edge 41, Type (0, 1), BuildingBlock: KIFKEQ_clean_linker_1, # of connection points: 2
#     Edge 42, Type (0, 1), BuildingBlock: KIFKEQ_clean_linker_1, # of connection points: 2
#     Edge 43, Type (0, 1), BuildingBlock: KIFKEQ_clean_linker_1, # of connection points: 2
#     Edge 44, Type (0, 1), BuildingBlock: KIFKEQ_clean_linker_1, # of connection points: 2
#     Edge 45, Type (0, 1), BuildingBlock: KIFKEQ_clean_linker_1, # of connection points: 2
#     Edge 46, Type (0, 1), BuildingBlock: KIFKEQ_clean_linker_1, # of connection points: 2
#     Edge 47, Type (0, 1), BuildingBlock: KIFKEQ_clean_linker_1, # of connection points: 2
#     Edge 48, Type (0, 1), BuildingBlock: KIFKEQ_clean_linker_1, # of connection points: 2
#     Edge 49, Type (0, 1), BuildingBlock: KIFKEQ_clean_linker_1, # of connection points: 2
#     Edge 50, Type (0, 1), BuildingBlock: KIFKEQ_clean_linker_1, # of connection points: 2
#     Edge 51, Type (0, 1), BuildingBlock: KIFKEQ_clean_linker_1, # of connection points: 2
#     Edge 52, Type (0, 1), BuildingBlock: KIFKEQ_clean_linker_1, # of connection points: 2
#     Edge 53, Type (0, 1), BuildingBlock: KIFKEQ_clean_linker_1, # of connection points: 2
#     Edge 54, Type (0, 1), BuildingBlock: KIFKEQ_clean_linker_1, # of connection points: 2
#     Edge 55, Type (0, 1), BuildingBlock: KIFKEQ_clean_linker_1, # of connection points: 2
#     Edge 56, Type (0, 1), BuildingBlock: KIFKEQ_clean_linker_1, # of connection points: 2
#     Edge 57, Type (0, 1), BuildingBlock: KIFKEQ_clean_linker_1, # of connection points: 2
#     Edge 58, Type (0, 1), BuildingBlock: KIFKEQ_clean_linker_1, # of connection points: 2
#     Edge 59, Type (0, 1), BuildingBlock: KIFKEQ_clean_linker_1, # of connection points: 2
#     Edge 60, Type (0, 1), BuildingBlock: KIFKEQ_clean_linker_1, # of connection points: 2
#     Edge 61, Type (0, 1), BuildingBlock: KIFKEQ_clean_linker_1, # of connection points: 2
# Relax obj value: 0.098
# Max RMSD: 0.265
# Mean RMSD: 0.150
data_MOF--net-ocu--node1-KUMJIN_clean_sbu_0--node2-TAGTUT_clean_sbu_1--edge1-KIFKEQ_clean_linker_1
_symmetry_space_group_name_H-M    P1
_symmetry_Int_Tables_number       1
_symmetry_cell_setting            triclinic
loop_
_symmetry_equiv_pos_as_xyz
'x, y, z'
_cell_length_a     40.122806
_cell_length_b     38.001509
_cell_length_c     43.893299
_cell_angle_alpha  79.06091
_cell_angle_beta   101.60392
_cell_angle_gamma 113.93544
loop_
_atom_site_label
_atom_site_type_symbol
_atom_site_fract_x
_atom_site_fract_y
_atom_site_fract_z
_atom_type_partial_charge
Eu0 Eu 0.25688 0.21885 0.23124 0.0
C1 C 0.39811 0.3398 0.29947 0.0
C2 C 0.41513 0.30282 0.34677 0.0
C3 C 0.46215 0.35956 0.32335 0.0
C4 C 0.38832 0.30859 0.32241 0.0
C5 C 0.435 0.36623 0.30008 0.0
C6 C 0.45222 0.32786 0.34665 0.0
C7 C 0.41493 0.40577 0.25653 0.0
N8 N 0.37114 0.3456 0.27761 0.0
C9 C 0.37874 0.37873 0.25692 0.0
C10 C 0.44329 0.39922 0.27792 0.0
Eu11 Eu 0.31068 0.29817 0.27929 0.0
N12 N 0.35222 0.28532 0.32206 0.0
C13 C 0.34064 0.25789 0.34683 0.0
C14 C 0.40366 0.27291 0.37111 0.0
C15 C 0.36617 0.25078 0.3714 0.0
H16 H 0.35706 0.38398 0.2402 0.0
H17 H 0.35689 0.22818 0.39048 0.0
H18 H 0.47327 0.32363 0.36498 0.0
H19 H 0.42094 0.43156 0.23967 0.0
H20 H 0.31174 0.24058 0.34736 0.0
H21 H 0.21034 0.28704 0.11917 0.0
H22 H 0.4234 0.26742 0.3902 0.0
H23 H 0.21054 0.1339 0.27152 0.0
H24 H 0.2555 0.27566 0.16264 0.0
H25 H 0.1468 0.08617 0.27224 0.0
H26 H 0.49071 0.37931 0.32402 0.0
H27 H 0.14392 0.24732 0.11939 0.0
H28 H 0.09423 0.19125 0.14487 0.0
H29 H 0.47129 0.42023 0.27762 0.0
H30 H 0.07694 0.13627 0.18642 0.0
N31 N 0.21523 0.23086 0.1881 0.0
C32 C 0.2267 0.25805 0.16317 0.0
C33 C 0.16369 0.24224 0.13864 0.0
C34 C 0.15233 0.21263 0.1632 0.0
C35 C 0.20113 0.26462 0.13838 0.0
C36 C 0.17919 0.20739 0.18777 0.0
H37 H 0.09645 0.09643 0.23359 0.0
N38 N 0.19648 0.1713 0.23317 0.0
C39 C 0.15277 0.11157 0.25497 0.0
C40 C 0.16948 0.17656 0.21103 0.0
C41 C 0.1889 0.13871 0.25446 0.0
C42 C 0.12441 0.11751 0.23318 0.0
C43 C 0.13264 0.15001 0.21055 0.0
O44 O 0.26414 0.16619 0.22656 0.0
O45 O 0.30625 0.24085 0.26803 0.0
O46 O 0.34706 0.30089 0.24506 0.0
O47 O 0.30065 0.26911 0.20697 0.0
O48 O 0.27345 0.18265 0.27413 0.0
O49 O 0.2758 0.21392 0.18942 0.0
O50 O 0.30146 0.35002 0.2831 0.0
O51 O 0.26162 0.27619 0.24242 0.0
O52 O 0.2199 0.21799 0.26434 0.0
O53 O 0.26616 0.2481 0.30313 0.0
O54 O 0.29372 0.33463 0.23669 0.0
O55 O 0.29487 0.30474 0.32209 0.0
C56 C 0.30301 0.20914 0.28554 0.0
C57 C 0.25774 0.15117 0.17515 0.0
C58 C 0.2663 0.11681 0.13727 0.0
C59 C 0.28102 0.1434 0.15964 0.0
C60 C 0.22779 0.09822 0.13078 0.0
C61 C 0.21949 0.13257 0.16805 0.0
C62 C 0.20467 0.1062 0.14597 0.0
C63 C 0.3351 0.29142 0.21624 0.0
C64 C 0.27399 0.17864 0.19869 0.0
C65 C 0.10546 0.15613 0.18701 0.0
C66 C 0.1153 0.18743 0.16337 0.0
C67 C 0.26449 0.30792 0.22505 0.0
C68 C 0.31058 0.36827 0.33373 0.0
C69 C 0.28741 0.37654 0.34894 0.0
C70 C 0.30216 0.40513 0.36958 0.0
C71 C 0.34055 0.42519 0.37481 0.0
C72 C 0.34879 0.38845 0.3394 0.0
C73 C 0.36362 0.4168 0.35985 0.0
C74 C 0.23129 0.22805 0.29304 0.0
C75 C 0.29414 0.33889 0.31178 0.0
H76 H 0.31057 0.15843 0.16486 0.0
H77 H 0.21542 0.07703 0.11426 0.0
H78 H 0.20113 0.13826 0.17964 0.0
H79 H 0.17511 0.09169 0.14072 0.0
H80 H 0.25785 0.3611 0.34427 0.0
H81 H 0.35281 0.44698 0.39083 0.0
H82 H 0.36707 0.38242 0.32798 0.0
H83 H 0.39313 0.43234 0.36417 0.0
Eu84 Eu 0.8118 0.23178 0.25054 0.0
C85 C 0.67928 0.25194 0.28102 0.0
C86 C 0.63091 0.20128 0.25349 0.0
C87 C 0.61827 0.22197 0.29735 0.0
C88 C 0.6674 0.22927 0.25693 0.0
C89 C 0.65488 0.2484 0.30164 0.0
C90 C 0.60629 0.19845 0.2733 0.0
C91 C 0.70454 0.29708 0.32968 0.0
N92 N 0.71513 0.27622 0.28529 0.0
C93 C 0.72753 0.29964 0.30866 0.0
C94 C 0.66803 0.27122 0.32624 0.0
Eu95 Eu 0.75259 0.2835 0.24694 0.0
N96 N 0.69239 0.23177 0.23898 0.0
C97 C 0.6832 0.20309 0.22028 0.0
C98 C 0.62072 0.17536 0.23149 0.0
C99 C 0.6473 0.17568 0.21538 0.0
H100 H 0.75519 0.32107 0.31116 0.0
H101 H 0.64052 0.15392 0.19995 0.0
H102 H 0.57824 0.17731 0.27083 0.0
H103 H 0.71495 0.31546 0.34828 0.0
H104 H 0.70341 0.19921 0.21017 0.0
H105 H 0.93417 0.35671 0.29298 0.0
H106 H 0.59308 0.15348 0.22822 0.0
H107 H 0.80052 0.18737 0.18789 0.0
H108 H 0.86985 0.3147 0.28684 0.0
H109 H 0.83623 0.18659 0.14917 0.0
H110 H 0.5992 0.21898 0.31289 0.0
H111 H 0.97584 0.35311 0.26044 0.0
H112 H 0.98346 0.32591 0.21621 0.0
H113 H 0.65019 0.26927 0.34255 0.0
H114 H 0.95632 0.28183 0.1757 0.0
N115 N 0.87409 0.27999 0.25568 0.0
C116 C 0.88737 0.30895 0.27474 0.0
C117 C 0.9475 0.33264 0.25885 0.0
C118 C 0.93331 0.3061 0.23697 0.0
C119 C 0.92418 0.33455 0.27739 0.0
C120 C 0.89605 0.28 0.23574 0.0
H121 H 0.90158 0.23071 0.15018 0.0
N122 N 0.84434 0.23309 0.21044 0.0
C123 C 0.84909 0.20651 0.16664 0.0
C124 C 0.88063 0.25602 0.21238 0.0
C125 C 0.82888 0.20732 0.18873 0.0
C126 C 0.88591 0.23133 0.16736 0.0
C127 C 0.90224 0.25625 0.1905 0.0
O128 O 0.78205 0.17272 0.23929 0.0
O129 O 0.75642 0.22655 0.2575 0.0
O130 O 0.78717 0.28302 0.29533 0.0
O131 O 0.82771 0.25132 0.29886 0.0
O132 O 0.78193 0.19711 0.29236 0.0
O133 O 0.83659 0.18932 0.26723 0.0
O134 O 0.77845 0.34028 0.26241 0.0
O135 O 0.80837 0.28898 0.24143 0.0
O136 O 0.77951 0.23589 0.20129 0.0
O137 O 0.73945 0.26822 0.19745 0.0
O138 O 0.78516 0.32152 0.20741 0.0
O139 O 0.72655 0.32531 0.23019 0.0
C140 C 0.75211 0.20358 0.28274 0.0
C141 C 0.79294 0.12628 0.27959 0.0
C142 C 0.8077 0.08636 0.32592 0.0
C143 C 0.81868 0.11575 0.30127 0.0
C144 C 0.77016 0.06615 0.32836 0.0
C145 C 0.75518 0.10558 0.28163 0.0
C146 C 0.74394 0.07544 0.30588 0.0
C147 C 0.81359 0.27112 0.31075 0.0
C148 C 0.80675 0.16079 0.2569 0.0
C149 C 0.93941 0.28125 0.19232 0.0
C150 C 0.9549 0.30615 0.21548 0.0
C151 C 0.81418 0.31354 0.21719 0.0
C152 C 0.76621 0.39178 0.23015 0.0
C153 C 0.74059 0.40895 0.22181 0.0
C154 C 0.75047 0.44713 0.20738 0.0
C155 C 0.78696 0.46862 0.20176 0.0
C156 C 0.80291 0.41328 0.22497 0.0
C157 C 0.8132 0.45176 0.2109 0.0
C158 C 0.75448 0.24958 0.18529 0.0
C159 C 0.75335 0.35206 0.24557 0.0
H160 H 0.84779 0.1322 0.29998 0.0
H161 H 0.7613 0.04359 0.3476 0.0
H162 H 0.73448 0.11315 0.26507 0.0
H163 H 0.71493 0.05988 0.30766 0.0
H164 H 0.71218 0.39163 0.22534 0.0
H165 H 0.79482 0.49788 0.18978 0.0
H166 H 0.82341 0.40048 0.23165 0.0
H167 H 0.84135 0.46829 0.20659 0.0
Eu168 Eu 0.75141 0.73181 0.27926 0.0
C169 C 0.84545 0.8727 0.19117 0.0
C170 C 0.80223 0.87894 0.14535 0.0
C171 C 0.85647 0.93533 0.15976 0.0
C172 C 0.81307 0.85627 0.17164 0.0
C173 C 0.868 0.91221 0.18503 0.0
C174 C 0.82362 0.91872 0.13996 0.0
C175 C 0.91332 0.90217 0.22733 0.0
N176 N 0.85602 0.84948 0.21511 0.0
C177 C 0.89005 0.86314 0.2324 0.0
C178 C 0.90202 0.92698 0.20382 0.0
Eu179 Eu 0.81516 0.78399 0.22254 0.0
N180 N 0.79322 0.8177 0.17733 0.0
C181 C 0.76388 0.79942 0.15621 0.0
C182 C 0.77084 0.86072 0.12471 0.0
C183 C 0.7519 0.82067 0.12993 0.0
H184 H 0.89895 0.84415 0.25067 0.0
H185 H 0.728 0.80614 0.1138 0.0
H186 H 0.81552 0.93667 0.12006 0.0
H187 H 0.9399 0.91308 0.24157 0.0
H188 H 0.74878 0.76853 0.15977 0.0
H189 H 0.8429 0.72001 0.38788 0.0
H190 H 0.76153 0.87713 0.1043 0.0
H191 H 0.66912 0.66682 0.25428 0.0
H192 H 0.81879 0.75365 0.34106 0.0
H193 H 0.63194 0.59678 0.26529 0.0
H194 H 0.87324 0.96583 0.15482 0.0
H195 H 0.81352 0.64873 0.3996 0.0
H196 H 0.76225 0.58632 0.38587 0.0
H197 H 0.92014 0.95718 0.19983 0.0
H198 H 0.70486 0.55266 0.35241 0.0
N199 N 0.77663 0.70198 0.32514 0.0
C200 C 0.80547 0.7226 0.34556 0.0
C201 C 0.80274 0.66339 0.37882 0.0
C202 C 0.77171 0.64272 0.35895 0.0
C203 C 0.81934 0.7036 0.37233 0.0
C204 C 0.7589 0.66317 0.33212 0.0
H205 H 0.65575 0.55638 0.3077 0.0
N206 N 0.71396 0.66541 0.28911 0.0
C207 C 0.65864 0.60968 0.27888 0.0
C208 C 0.72668 0.64425 0.31337 0.0
C209 C 0.67972 0.64924 0.27271 0.0
C210 C 0.67223 0.58697 0.30277 0.0
C211 C 0.7063 0.60434 0.32078 0.0
O212 O 0.69941 0.72826 0.29088 0.0
O213 O 0.76305 0.77805 0.23813 0.0
O214 O 0.82028 0.82915 0.25215 0.0
O215 O 0.79713 0.7871 0.29573 0.0
O216 O 0.70905 0.74015 0.23886 0.0
O217 O 0.75143 0.76411 0.31494 0.0
O218 O 0.86551 0.77962 0.21517 0.0
O219 O 0.80286 0.73668 0.26333 0.0
O220 O 0.74333 0.68823 0.24647 0.0
O221 O 0.76827 0.73148 0.20412 0.0
O222 O 0.85656 0.77575 0.26384 0.0
O223 O 0.81557 0.75811 0.18257 0.0
C224 C 0.73065 0.77051 0.2236 0.0
C225 C 0.70123 0.74003 0.34255 0.0
C226 C 0.68517 0.76038 0.38506 0.0
C227 C 0.69712 0.7686 0.35563 0.0
C228 C 0.67765 0.72298 0.4014 0.0
C229 C 0.69379 0.70289 0.35906 0.0
C230 C 0.68197 0.69446 0.38841 0.0
C231 C 0.81427 0.82229 0.28164 0.0
C232 C 0.7158 0.75105 0.3127 0.0
C233 C 0.71992 0.58342 0.34652 0.0
C234 C 0.75258 0.60259 0.36558 0.0
C235 C 0.83504 0.74469 0.27841 0.0
C236 C 0.87145 0.7786 0.16289 0.0
C237 C 0.87431 0.7517 0.14683 0.0
C238 C 0.89448 0.76419 0.12144 0.0
C239 C 0.91143 0.80427 0.1122 0.0
C240 C 0.88818 0.81839 0.1533 0.0
C241 C 0.90812 0.83111 0.12799 0.0
C242 C 0.7493 0.69629 0.21688 0.0
C243 C 0.85037 0.76402 0.18927 0.0
H244 H 0.70388 0.79754 0.343 0.0
H245 H 0.6679 0.71561 0.42395 0.0
H246 H 0.69735 0.68066 0.34942 0.0
H247 H 0.67612 0.66575 0.40114 0.0
H248 H 0.86052 0.72096 0.15406 0.0
H249 H 0.92776 0.81498 0.09311 0.0
H250 H 0.88597 0.8395 0.16536 0.0
H251 H 0.92126 0.86185 0.12071 0.0
Eu252 Eu 0.30303 0.71553 0.2683 0.0
C253 C 0.25403 0.83312 0.1692 0.0
C254 C 0.30993 0.88861 0.15941 0.0
C255 C 0.25762 0.87183 0.1182 0.0
C256 C 0.28978 0.85661 0.17944 0.0
C257 C 0.23735 0.84068 0.13858 0.0
C258 C 0.29385 0.89575 0.12859 0.0
C259 C 0.18135 0.78715 0.15103 0.0
N260 N 0.23524 0.80333 0.18946 0.0
C261 C 0.19906 0.7809 0.18119 0.0
C262 C 0.20064 0.81701 0.12953 0.0
Eu263 Eu 0.26774 0.79297 0.2392 0.0
N264 N 0.30452 0.84881 0.20928 0.0
C265 C 0.33846 0.87326 0.22128 0.0
C266 C 0.34542 0.91279 0.17112 0.0
C267 C 0.35958 0.9053 0.20231 0.0
H268 H 0.18415 0.75751 0.19759 0.0
H269 H 0.38682 0.92406 0.21173 0.0
H270 H 0.30899 0.92001 0.11277 0.0
H271 H 0.15287 0.76891 0.14436 0.0
H272 H 0.34987 0.86767 0.24526 0.0
H273 H 0.18363 0.58411 0.29447 0.0
H274 H 0.36186 0.93758 0.15645 0.0
H275 H 0.38658 0.75035 0.31003 0.0
H276 H 0.22012 0.64185 0.26191 0.0
H277 H 0.4185 0.7367 0.36234 0.0
H278 H 0.24535 0.87801 0.09451 0.0
H279 H 0.20974 0.56757 0.34869 0.0
H280 H 0.2635 0.58272 0.39173 0.0
H281 H 0.18683 0.82185 0.10619 0.0
H282 H 0.3273 0.62409 0.41014 0.0
N283 N 0.26644 0.65863 0.2974 0.0
C284 C 0.23204 0.63507 0.28543 0.0
C285 C 0.22596 0.59304 0.33445 0.0
C286 C 0.26176 0.61648 0.34614 0.0
C287 C 0.21115 0.60223 0.30386 0.0
C288 C 0.28164 0.64939 0.3267 0.0
H289 H 0.38535 0.68139 0.39932 0.0
N290 N 0.33586 0.70345 0.31741 0.0
C291 C 0.39006 0.71844 0.35555 0.0
C292 C 0.31745 0.67257 0.33704 0.0
C293 C 0.37195 0.72598 0.32587 0.0
C294 C 0.37123 0.68725 0.37636 0.0
C295 C 0.33455 0.66367 0.36715 0.0
O296 O 0.34627 0.70659 0.25169 0.0
O297 O 0.30897 0.76945 0.23587 0.0
O298 O 0.25834 0.75826 0.19959 0.0
O299 O 0.25367 0.69993 0.22987 0.0
O300 O 0.35745 0.76379 0.25643 0.0
O301 O 0.28905 0.66795 0.24098 0.0
O302 O 0.22471 0.80532 0.2529 0.0
O303 O 0.262 0.7393 0.27213 0.0
O304 O 0.3132 0.75051 0.30807 0.0
O305 O 0.31667 0.80879 0.27789 0.0
O306 O 0.21359 0.74526 0.25213 0.0
O307 O 0.2824 0.84102 0.26595 0.0
C308 C 0.34347 0.78545 0.2365 0.0
C309 C 0.335 0.64592 0.23694 0.0
C310 C 0.35772 0.61429 0.20745 0.0
C311 C 0.3442 0.64254 0.20885 0.0
C312 C 0.36157 0.58909 0.23466 0.0
C313 C 0.33855 0.6206 0.2639 0.0
C314 C 0.35175 0.59212 0.26265 0.0
C315 C 0.24962 0.72043 0.20248 0.0
C316 C 0.32314 0.67727 0.23721 0.0
C317 C 0.31469 0.63136 0.38688 0.0
C318 C 0.27836 0.60781 0.3764 0.0
C319 C 0.22755 0.72356 0.27201 0.0
C320 C 0.23907 0.86885 0.26314 0.0
C321 C 0.22643 0.87531 0.28812 0.0
C322 C 0.21668 0.90732 0.28581 0.0
C323 C 0.22071 0.93343 0.25808 0.0
C324 C 0.24289 0.89479 0.23558 0.0
C325 C 0.23382 0.92714 0.23317 0.0
C326 C 0.32163 0.78835 0.30512 0.0
C327 C 0.24822 0.8348 0.26706 0.0
H328 H 0.34185 0.66276 0.18824 0.0
H329 H 0.37199 0.56703 0.23423 0.0
H330 H 0.33149 0.62313 0.28573 0.0
H331 H 0.35467 0.57256 0.28347 0.0
H332 H 0.22439 0.85528 0.30952 0.0
H333 H 0.21309 0.95822 0.2554 0.0
H334 H 0.25281 0.89003 0.21613 0.0
H335 H 0.23667 0.94722 0.21187 0.0
Eu336 Eu 0.31201 0.71823 0.75442 0.0
C337 C 0.22533 0.76057 0.81793 0.0
C338 C 0.16145 0.73991 0.79396 0.0
C339 C 0.17609 0.73493 0.85056 0.0
C340 C 0.19938 0.75492 0.79115 0.0
C341 C 0.21373 0.7519 0.84783 0.0
C342 C 0.15002 0.72879 0.82371 0.0
C343 C 0.27694 0.78276 0.87005 0.0
N344 N 0.26175 0.77688 0.81484 0.0
C345 C 0.287 0.79122 0.84003 0.0
C346 C 0.24023 0.76194 0.87411 0.0
Eu347 Eu 0.27608 0.78854 0.76278 0.0
N348 N 0.21105 0.76673 0.7625 0.0
C349 C 0.18618 0.76855 0.73632 0.0
C350 C 0.13598 0.73806 0.76684 0.0
C351 C 0.14849 0.75329 0.73798 0.0
H352 H 0.31477 0.81077 0.83734 0.0
H353 H 0.12914 0.75386 0.71698 0.0
H354 H 0.12104 0.71673 0.82618 0.0
H355 H 0.29735 0.79335 0.88991 0.0
H356 H 0.19483 0.78162 0.71371 0.0
H357 H 0.46235 0.77833 0.79061 0.0
H358 H 0.10672 0.72671 0.76809 0.0
H359 H 0.26802 0.6955 0.68142 0.0
H360 H 0.39862 0.74239 0.79843 0.0
H361 H 0.2804 0.71183 0.62735 0.0
H362 H 0.16685 0.72757 0.87333 0.0
H363 H 0.47907 0.8009 0.73722 0.0
H364 H 0.4595 0.80207 0.67962 0.0
H365 H 0.2324 0.75576 0.89737 0.0
H366 H 0.41029 0.78359 0.63533 0.0
N367 N 0.37649 0.74923 0.74983 0.0
C368 C 0.40407 0.75426 0.77484 0.0
C369 C 0.45033 0.78623 0.74044 0.0
C370 C 0.42264 0.77781 0.71482 0.0
C371 C 0.44101 0.77378 0.77057 0.0
C372 C 0.38549 0.7588 0.72025 0.0
H373 H 0.34375 0.75061 0.6156 0.0
N374 N 0.32233 0.72992 0.70096 0.0
C375 C 0.30237 0.72307 0.64609 0.0
C376 C 0.35776 0.74847 0.69522 0.0
C377 C 0.29518 0.71504 0.67704 0.0
C378 C 0.33814 0.7446 0.63959 0.0
C379 C 0.36651 0.75677 0.66429 0.0
O380 O 0.2809 0.6609 0.73912 0.0
O381 O 0.26848 0.7264 0.77373 0.0
O382 O 0.32916 0.79528 0.79483 0.0
O383 O 0.34184 0.73967 0.8005 0.0
O384 O 0.29386 0.69169 0.80234 0.0
O385 O 0.33502 0.6736 0.7682 0.0
O386 O 0.31504 0.84917 0.75855 0.0
O387 O 0.31938 0.78104 0.74228 0.0
O388 O 0.25416 0.70367 0.7284 0.0
O389 O 0.24193 0.75987 0.7198 0.0
O390 O 0.2858 0.80768 0.71245 0.0
O391 O 0.26077 0.83508 0.76915 0.0
C392 C 0.2686 0.70544 0.79983 0.0
C393 C 0.30317 0.60885 0.75274 0.0
C394 C 0.33354 0.56352 0.76059 0.0
C395 C 0.33518 0.6015 0.75752 0.0
C396 C 0.29908 0.53262 0.75826 0.0
C397 C 0.26875 0.57814 0.74942 0.0
C398 C 0.26678 0.54008 0.75217 0.0
C399 C 0.34738 0.77326 0.80875 0.0
C400 C 0.3064 0.64837 0.75335 0.0
C401 C 0.40322 0.77661 0.6589 0.0
C402 C 0.43121 0.78717 0.6841 0.0
C403 C 0.3141 0.79831 0.71489 0.0
C404 C 0.28398 0.88902 0.73299 0.0
C405 C 0.25263 0.87457 0.71142 0.0
C406 C 0.24326 0.89861 0.6863 0.0
C407 C 0.26748 0.93741 0.68094 0.0
C408 C 0.30822 0.9277 0.72798 0.0
C409 C 0.30011 0.95176 0.70168 0.0
C410 C 0.23509 0.72471 0.71378 0.0
C411 C 0.29044 0.86249 0.76001 0.0
H412 H 0.36163 0.6254 0.76082 0.0
H413 H 0.29721 0.50293 0.76183 0.0
H414 H 0.24356 0.58341 0.74576 0.0
H415 H 0.24022 0.51628 0.75051 0.0
H416 H 0.23459 0.84438 0.71465 0.0
H417 H 0.26074 0.95669 0.66143 0.0
H418 H 0.33308 0.93912 0.74426 0.0
H419 H 0.3187 0.98172 0.69774 0.0
Eu420 Eu 0.24928 0.22905 0.7808 0.0
C421 C 0.3338 0.36438 0.68485 0.0
C422 C 0.28756 0.3654 0.64012 0.0
C423 C 0.34037 0.42461 0.65088 0.0
C424 C 0.30088 0.34532 0.66689 0.0
C425 C 0.35434 0.40406 0.67668 0.0
C426 C 0.30705 0.40531 0.63263 0.0
C427 C 0.40251 0.39927 0.71827 0.0
N428 N 0.34678 0.34358 0.70928 0.0
C429 C 0.38126 0.3599 0.72525 0.0
C430 C 0.3888 0.42159 0.6941 0.0
Eu431 Eu 0.3089 0.27757 0.72029 0.0
N432 N 0.28277 0.30674 0.6747 0.0
C433 C 0.25274 0.28592 0.65536 0.0
C434 C 0.25555 0.34459 0.62123 0.0
C435 C 0.23836 0.30457 0.62868 0.0
H436 H 0.39196 0.34269 0.74393 0.0
H437 H 0.21396 0.28806 0.61394 0.0
H438 H 0.29703 0.42132 0.61235 0.0
H439 H 0.42944 0.41232 0.73147 0.0
H440 H 0.23901 0.25501 0.66072 0.0
H441 H 0.343 0.21677 0.88765 0.0
H442 H 0.24435 0.35898 0.60053 0.0
H443 H 0.16536 0.1654 0.75757 0.0
H444 H 0.31862 0.25053 0.84099 0.0
H445 H 0.12671 0.09616 0.77011 0.0
H446 H 0.35558 0.4552 0.64438 0.0
H447 H 0.31206 0.14583 0.90051 0.0
H448 H 0.25892 0.084 0.88829 0.0
H449 H 0.4054 0.45203 0.68857 0.0
H450 H 0.20002 0.05108 0.85626 0.0
N451 N 0.27477 0.19916 0.82638 0.0
C452 C 0.30467 0.21961 0.84604 0.0
C453 C 0.30118 0.16053 0.87982 0.0
C454 C 0.26921 0.14013 0.86069 0.0
C455 C 0.31867 0.20056 0.87269 0.0
C456 C 0.25631 0.16061 0.83395 0.0
H457 H 0.15019 0.05548 0.81249 0.0
N458 N 0.21053 0.16338 0.79177 0.0
C459 C 0.15388 0.10864 0.7831 0.0
C460 C 0.22321 0.1421 0.816 0.0
C461 C 0.17579 0.14781 0.77609 0.0
C462 C 0.16728 0.08576 0.80696 0.0
C463 C 0.20206 0.10259 0.82415 0.0
O464 O 0.19932 0.23012 0.7928 0.0
O465 O 0.2587 0.27306 0.73804 0.0
O466 O 0.3155 0.32407 0.7493 0.0
O467 O 0.29708 0.28379 0.79489 0.0
O468 O 0.20512 0.23585 0.74127 0.0
O469 O 0.25265 0.26114 0.818 0.0
O470 O 0.35948 0.27796 0.70847 0.0
O471 O 0.29971 0.23366 0.76315 0.0
O472 O 0.24224 0.1823 0.75189 0.0
O473 O 0.26208 0.22182 0.70629 0.0
O474 O 0.35323 0.2714 0.75974 0.0
O475 O 0.30648 0.24584 0.68319 0.0
C476 C 0.22591 0.26522 0.72459 0.0
C477 C 0.20224 0.23975 0.84521 0.0
C478 C 0.18394 0.25863 0.88718 0.0
C479 C 0.19608 0.2674 0.85779 0.0
C480 C 0.17813 0.22169 0.90391 0.0
C481 C 0.19631 0.20298 0.86205 0.0
C482 C 0.18423 0.19404 0.89132 0.0
C483 C 0.3123 0.31846 0.7794 0.0
C484 C 0.21724 0.25116 0.81554 0.0
C485 C 0.21569 0.08156 0.84979 0.0
C486 C 0.24922 0.10031 0.86804 0.0
C487 C 0.33264 0.24198 0.77653 0.0
C488 C 0.35722 0.26837 0.6562 0.0
C489 C 0.36346 0.24076 0.6437 0.0
C490 C 0.37641 0.24976 0.61466 0.0
C491 C 0.38272 0.28686 0.59808 0.0
C492 C 0.3636 0.3053 0.63954 0.0
C493 C 0.37634 0.31444 0.61054 0.0
C494 C 0.24609 0.18737 0.72194 0.0
C495 C 0.34202 0.25673 0.68575 0.0
H496 H 0.20142 0.29605 0.84489 0.0
H497 H 0.16834 0.21402 0.92646 0.0
H498 H 0.20126 0.18143 0.85276 0.0
H499 H 0.17963 0.16564 0.9043 0.0
H500 H 0.3577 0.21199 0.65648 0.0
H501 H 0.39315 0.29473 0.5758 0.0
H502 H 0.35857 0.32682 0.6488 0.0
H503 H 0.38133 0.34298 0.59769 0.0
Eu504 Eu 0.79775 0.22501 0.76741 0.0
C505 C 0.74542 0.34317 0.67048 0.0
C506 C 0.80068 0.39977 0.66124 0.0
C507 C 0.74772 0.38416 0.62056 0.0
C508 C 0.78112 0.36676 0.68077 0.0
C509 C 0.72814 0.35178 0.64038 0.0
C510 C 0.78393 0.40809 0.63096 0.0
C511 C 0.67295 0.29665 0.6522 0.0
N512 N 0.72728 0.3122 0.69018 0.0
C513 C 0.69124 0.2894 0.68186 0.0
C514 C 0.69154 0.32786 0.63127 0.0
Eu515 Eu 0.7604 0.3007 0.73925 0.0
N516 N 0.79648 0.35786 0.7101 0.0
C517 C 0.8307 0.38187 0.72201 0.0
C518 C 0.83632 0.42366 0.67287 0.0
C519 C 0.85127 0.41482 0.7035 0.0
H520 H 0.67682 0.26504 0.69783 0.0
H521 H 0.87866 0.4333 0.71285 0.0
H522 H 0.79857 0.43323 0.61556 0.0
H523 H 0.64457 0.27817 0.6455 0.0
H524 H 0.84273 0.3754 0.74556 0.0
H525 H 0.68084 0.09167 0.79509 0.0
H526 H 0.85231 0.44922 0.65857 0.0
H527 H 0.88146 0.26215 0.80854 0.0
H528 H 0.71622 0.14934 0.76178 0.0
H529 H 0.91392 0.25046 0.86112 0.0
H530 H 0.73497 0.39119 0.59729 0.0
H531 H 0.70734 0.07732 0.84969 0.0
H532 H 0.76097 0.09489 0.89269 0.0
H533 H 0.67728 0.33349 0.60833 0.0
H534 H 0.8243 0.13795 0.91061 0.0
N535 N 0.76221 0.16823 0.79724 0.0
C536 C 0.72829 0.1435 0.78548 0.0
C537 C 0.72307 0.10274 0.83513 0.0
C538 C 0.7585 0.12732 0.84659 0.0
C539 C 0.70804 0.1107 0.80432 0.0
C540 C 0.77773 0.16012 0.82672 0.0
H541 H 0.8816 0.19582 0.89896 0.0
N542 N 0.83123 0.21488 0.8167 0.0
C543 C 0.88561 0.23165 0.8546 0.0
C544 C 0.81331 0.18424 0.83679 0.0
C545 C 0.86721 0.23807 0.82479 0.0
C546 C 0.86724 0.20083 0.8759 0.0
C547 C 0.83074 0.17644 0.86703 0.0
O548 O 0.84118 0.21382 0.75327 0.0
O549 O 0.80224 0.27846 0.73438 0.0
O550 O 0.75058 0.26617 0.69921 0.0
O551 O 0.74828 0.20823 0.72926 0.0
O552 O 0.85119 0.27392 0.75467 0.0
O553 O 0.78379 0.17776 0.73986 0.0
O554 O 0.71609 0.30865 0.75507 0.0
O555 O 0.75601 0.24723 0.77201 0.0
O556 O 0.80689 0.25918 0.80739 0.0
O557 O 0.80972 0.31738 0.77765 0.0
O558 O 0.70689 0.25124 0.75142 0.0
O559 O 0.77277 0.34805 0.76635 0.0
C560 C 0.83669 0.29508 0.7347 0.0
C561 C 0.8274 0.15014 0.74386 0.0
C562 C 0.84297 0.10588 0.72131 0.0
C563 C 0.8326 0.13773 0.7178 0.0
C564 C 0.84714 0.08614 0.75156 0.0
C565 C 0.83141 0.13019 0.77374 0.0
C566 C 0.84115 0.09815 0.7775 0.0
C567 C 0.74273 0.22845 0.70207 0.0
C568 C 0.81808 0.18422 0.73902 0.0
C569 C 0.81143 0.14435 0.88722 0.0
C570 C 0.77538 0.11984 0.87702 0.0
C571 C 0.72159 0.23037 0.77154 0.0
C572 C 0.7259 0.37022 0.76695 0.0
C573 C 0.71297 0.37404 0.793 0.0
C574 C 0.70024 0.4037 0.79202 0.0
C575 C 0.70101 0.4297 0.76438 0.0
C576 C 0.72647 0.39616 0.7396 0.0
C577 C 0.71408 0.42589 0.73841 0.0
C578 C 0.815 0.29689 0.80477 0.0
C579 C 0.73836 0.33863 0.76919 0.0
H580 H 0.82852 0.15307 0.69477 0.0
H581 H 0.85578 0.06194 0.75538 0.0
H582 H 0.82725 0.13951 0.79401 0.0
H583 H 0.84454 0.08287 0.80063 0.0
H584 H 0.71322 0.35402 0.81418 0.0
H585 H 0.691 0.45262 0.76263 0.0
H586 H 0.7364 0.39334 0.71933 0.0
H587 H 0.7144 0.44593 0.71725 0.0
Eu588 Eu 0.76047 0.72004 0.72718 0.0
C589 C 0.89622 0.83455 0.80584 0.0
C590 C 0.90805 0.79368 0.85263 0.0
C591 C 0.95818 0.85139 0.83429 0.0
C592 C 0.88373 0.80179 0.82694 0.0
C593 C 0.93337 0.86038 0.80977 0.0
C594 C 0.94554 0.81802 0.85567 0.0
C595 C 0.91779 0.90397 0.76711 0.0
N596 N 0.87141 0.84259 0.78274 0.0
C597 C 0.88125 0.87738 0.76416 0.0
C598 C 0.94412 0.89514 0.78966 0.0
Eu599 Eu 0.81022 0.79614 0.77884 0.0
N600 N 0.84728 0.77934 0.82361 0.0
C601 C 0.83278 0.75041 0.84663 0.0
C602 C 0.8937 0.76223 0.87512 0.0
C603 C 0.85578 0.74094 0.87238 0.0
H604 H 0.8611 0.88434 0.74657 0.0
H605 H 0.84424 0.71716 0.89004 0.0
H606 H 0.96472 0.81201 0.87505 0.0
H607 H 0.92563 0.93116 0.7519 0.0
H608 H 0.80354 0.73369 0.84481 0.0
H609 H 0.72506 0.79547 0.61463 0.0
H610 H 0.91147 0.75492 0.89514 0.0
H611 H 0.70865 0.63556 0.76476 0.0
H612 H 0.76635 0.78066 0.66027 0.0
H613 H 0.64369 0.59003 0.76148 0.0
H614 H 0.98692 0.87062 0.83748 0.0
H615 H 0.65792 0.7574 0.61037 0.0
H616 H 0.60496 0.70158 0.63206 0.0
H617 H 0.97239 0.91579 0.79195 0.0
H618 H 0.58285 0.6455 0.67187 0.0
N619 N 0.723 0.73556 0.68229 0.0
C620 C 0.73714 0.76382 0.65876 0.0
C621 C 0.67594 0.7508 0.63052 0.0
C622 C 0.6619 0.7203 0.6538 0.0
C623 C 0.71381 0.77229 0.6328 0.0
C624 C 0.68652 0.71309 0.67964 0.0
H625 H 0.59717 0.60333 0.71985 0.0
N626 N 0.69889 0.67465 0.72576 0.0
C627 C 0.65184 0.61577 0.74468 0.0
C628 C 0.67407 0.68163 0.70202 0.0
C629 C 0.68864 0.64163 0.74645 0.0
C630 C 0.62565 0.62342 0.72119 0.0
C631 C 0.63668 0.6564 0.69923 0.0
O632 O 0.76696 0.66671 0.72331 0.0
O633 O 0.8072 0.73984 0.76651 0.0
O634 O 0.85056 0.8009 0.74737 0.0
O635 O 0.80826 0.76933 0.70669 0.0
O636 O 0.77345 0.68185 0.77045 0.0
O637 O 0.77887 0.71384 0.68561 0.0
O638 O 0.80153 0.84808 0.78329 0.0
O639 O 0.76469 0.77676 0.73895 0.0
O640 O 0.72009 0.72032 0.75589 0.0
O641 O 0.7624 0.74544 0.79848 0.0
O642 O 0.7974 0.83487 0.73574 0.0
O643 O 0.78903 0.79983 0.81987 0.0
C644 C 0.80256 0.70751 0.78341 0.0
C645 C 0.75938 0.65043 0.67218 0.0
C646 C 0.76634 0.61427 0.63488 0.0
C647 C 0.78191 0.64151 0.65672 0.0
C648 C 0.72775 0.59625 0.62878 0.0
C649 C 0.72101 0.63231 0.66552 0.0
C650 C 0.70536 0.60537 0.64392 0.0
C651 C 0.84196 0.79073 0.7187 0.0
C652 C 0.7765 0.67842 0.69529 0.0
C653 C 0.61175 0.66434 0.67425 0.0
C654 C 0.62434 0.69627 0.65159 0.0
C655 C 0.76907 0.80901 0.72211 0.0
C656 C 0.80625 0.86224 0.83463 0.0
C657 C 0.78251 0.87049 0.84925 0.0
C658 C 0.79677 0.89689 0.8718 0.0
C659 C 0.83523 0.91486 0.87927 0.0
C660 C 0.84442 0.88019 0.84282 0.0
C661 C 0.85875 0.90639 0.86499 0.0
C662 C 0.72825 0.72756 0.7853 0.0
C663 C 0.79074 0.8351 0.81078 0.0
H664 H 0.81156 0.65611 0.66158 0.0
H665 H 0.71479 0.57464 0.61264 0.0
H666 H 0.70317 0.63874 0.67712 0.0
H667 H 0.67572 0.59126 0.63902 0.0
H668 H 0.753 0.85603 0.84322 0.0
H669 H 0.84729 0.93594 0.89588 0.0
H670 H 0.86314 0.87416 0.83198 0.0
H671 H 0.88826 0.92041 0.87102 0.0
C672 C 0.94757 0.05221 0.5568 0.0
C673 C 1.01797 0.09806 0.48971 0.0
C674 C 0.96085 0.95712 0.45109 0.0
Mg675 Mg 1.0309 0.07639 0.54837 0.0
O676 O 1.00587 0.03329 0.52147 0.0
Mg677 Mg 0.95286 0.0141 0.49381 0.0
Mg678 Mg 1.02997 1.00631 0.50243 0.0
O679 O 0.0522 0.97991 0.48286 0.0
Mg680 Mg 1.02567 0.92774 0.47621 0.0
Mg681 Mg 0.1009 0.9936 0.50998 0.0
C682 C 0.09261 0.04111 0.56439 0.0
C683 C 0.09583 0.07003 0.46559 0.0
O684 O 0.93397 0.03809 0.53041 0.0
O685 O 0.98194 0.06458 0.56779 0.0
O686 O 1.00909 0.06207 0.50053 0.0
O687 O 0.03822 0.12244 0.50862 0.0
O688 O 0.07688 0.06129 0.5714 0.0
O689 O 0.08052 0.02256 0.54026 0.0
C690 C 0.96984 0.9436 0.54246 0.0
O691 O 1.00161 0.95332 0.53478 0.0
O692 O 0.94933 0.9624 0.53061 0.0
O693 O 0.11647 0.96503 0.47486 0.0
O694 O 0.06371 0.9239 0.45094 0.0
O695 O 0.07977 0.93578 0.54095 0.0
C696 C 0.09882 0.94104 0.45452 0.0
O697 O 1.0263 0.89307 0.52015 0.0
O698 O 0.97441 0.93147 0.45254 0.0
C699 C 0.05251 0.90315 0.54248 0.0
O700 O 0.97773 0.98759 0.46525 0.0
O701 O 0.06248 0.05973 0.47043 0.0
O702 O 0.11552 0.05033 0.47841 0.0
C703 C 0.43394 0.06159 0.025 0.0
C704 C 0.46235 0.0846 0.93413 0.0
C705 C 0.47543 0.93315 0.97339 0.0
Mg706 Mg 0.50847 0.08771 1.0015 0.0
O707 O 0.49757 0.03522 0.00558 0.0
Mg708 Mg 0.44851 1.00142 0.9854 0.0
Mg709 Mg 0.53219 0.00963 0.00395 0.0
O710 O 0.567 0.98459 1.00188 0.0
Mg711 Mg 0.55627 0.93228 0.00517 0.0
Mg712 Mg 0.61662 0.01891 0.02088 0.0
C713 C 0.5897 0.08672 0.03306 0.0
C714 C 0.59258 0.06825 0.95665 0.0
O715 O 0.42161 0.03297 0.00858 0.0
O716 O 0.46786 0.08467 0.02792 0.0
O717 O 0.44774 0.0473 0.93972 0.0
O718 O 0.48797 0.10478 0.95376 0.0
O719 O 0.56646 0.10296 0.02156 0.0
O720 O 0.58104 0.04973 0.03534 0.0
C721 C 0.47063 0.953 0.05108 0.0
O722 O 0.50507 0.96648 0.0478 0.0
O723 O 0.44734 0.96168 0.03001 0.0
O724 O 0.64295 0.98783 0.9965 0.0
O725 O 0.59652 0.93555 0.97819 0.0
O726 O 0.61837 0.97198 0.06604 0.0
C727 C 0.63034 0.9589 0.98037 0.0
O728 O 0.5769 0.91477 0.05243 0.0
O729 O 0.49854 0.91675 0.98478 0.0
C730 C 0.60337 0.93467 0.07163 0.0
O731 O 0.4841 0.97 0.97209 0.0
O732 O 0.55835 0.0524 0.96047 0.0
O733 O 0.61739 0.06069 0.97664 0.0
C734 C 0.96512 0.59458 0.02027 0.0
C735 C 0.97152 0.58618 0.93046 0.0
C736 C 0.96389 0.433 0.98191 0.0
Mg737 Mg 1.02937 0.59564 0.99086 0.0
O738 O 1.00978 0.54357 0.0071 0.0
Mg739 Mg 0.9566 0.5137 0.99292 0.0
Mg740 Mg 0.03446 0.50806 0.0041 0.0
O741 O 0.05918 0.47286 1.00094 0.0
Mg742 Mg 0.03963 0.41994 0.01447 0.0
Mg743 Mg 0.11232 0.50247 0.01548 0.0
C744 C 0.10484 0.58293 0.02559 0.0
C745 C 0.09067 0.55226 0.95074 0.0
O746 O 0.94505 0.56017 0.01292 0.0
O747 O 0.99883 0.61218 0.01569 0.0
O748 O 0.95371 0.55226 0.94391 0.0
O749 O 1.0038 0.60696 0.94278 0.0
O750 O 0.08692 0.60421 0.01089 0.0
O751 O 0.08973 0.54554 0.02993 0.0
C752 C 0.97969 0.46607 0.05869 0.0
O753 O 1.01092 0.47216 0.05068 0.0
O754 O 0.95683 0.47908 0.04094 0.0
O755 O 0.12429 0.45754 0.99374 0.0
O756 O 0.06994 0.40695 0.98675 0.0
O757 O 0.11404 0.46213 0.06364 0.0
C758 C 0.10394 0.4249 0.98319 0.0
O759 O 0.065 0.40641 0.06213 0.0
O760 O 0.98193 0.41144 0.99543 0.0
C761 C 0.09644 0.42735 0.07574 0.0
O762 O 0.97907 0.47039 0.97859 0.0
O763 O 0.0585 0.54441 0.9577 0.0
O764 O 0.1136 0.53965 0.96879 0.0
C765 C 0.45398 0.60087 0.01845 0.0
C766 C 0.49503 0.60286 0.92931 0.0
C767 C 0.45287 0.45511 0.95471 0.0
Mg768 Mg 0.52616 0.60637 0.99839 0.0
O769 O 0.50028 0.55208 0.00578 0.0
Mg770 Mg 0.45037 0.52937 0.98079 0.0
Mg771 Mg 0.52176 0.51841 0.99461 0.0
O772 O 0.54357 0.48517 0.98305 0.0
Mg773 Mg 0.51958 0.43075 0.98962 0.0
Mg774 Mg 0.59465 0.50964 0.00515 0.0
C775 C 0.59172 0.58148 0.03472 0.0
C776 C 0.58131 0.57032 0.94778 0.0
O777 O 0.43604 0.57006 0.0048 0.0
O778 O 0.48864 0.6199 0.01821 0.0
O779 O 0.46744 0.57364 0.93832 0.0
O780 O 0.52306 0.62016 0.94827 0.0
O781 O 0.5786 0.60811 0.02591 0.0
O782 O 0.57413 0.54701 0.02701 0.0
C783 C 0.45907 0.46661 0.03911 0.0
O784 O 0.49169 0.47404 0.03356 0.0
O785 O 0.43885 0.48399 0.02254 0.0
O786 O 0.60888 0.4701 0.9798 0.0
O787 O 0.55673 0.41947 0.96704 0.0
O788 O 0.58094 0.46533 0.04718 0.0
C789 C 0.59121 0.43924 0.9662 0.0
O790 O 0.5269 0.4155 0.03979 0.0
O791 O 0.46617 0.42861 0.96383 0.0
C792 C 0.55559 0.4346 0.05739 0.0
O793 O 0.47049 0.48996 0.96156 0.0
O794 O 0.54989 0.56244 0.95568 0.0
O795 O 0.60321 0.55415 0.96259 0.0
C796 C 0.93175 0.55589 0.52296 0.0
C797 C 0.96193 0.58154 0.43282 0.0
C798 C 0.97625 0.43029 0.47045 0.0
Mg799 Mg 1.00718 0.5834 0.50014 0.0
O800 O 0.99626 0.53099 0.50378 0.0
Mg801 Mg 0.94743 0.49677 0.48328 0.0
Mg802 Mg 1.03173 0.50661 0.5024 0.0
O803 O 0.0673 0.48236 0.50088 0.0
Mg804 Mg 0.05717 0.43029 0.50315 0.0
Mg805 Mg 0.1161 0.51654 0.52137 0.0
C806 C 0.08692 0.58231 0.53579 0.0
C807 C 0.09382 0.56661 0.45672 0.0
O808 O 0.9197 0.52702 0.50685 0.0
O809 O 0.96547 0.57951 0.52555 0.0
O810 O 0.94688 0.54422 0.43828 0.0
O811 O 0.98796 0.60137 0.45238 0.0
O812 O 0.06403 0.59878 0.52349 0.0
O813 O 0.07894 0.54582 0.53552 0.0
C814 C 0.96958 0.4472 0.54833 0.0
O815 O 1.00412 0.46306 0.54538 0.0
O816 O 0.94537 0.45468 0.5275 0.0
O817 O 0.14428 0.48718 0.49721 0.0
O818 O 0.09885 0.43544 0.47719 0.0
O819 O 0.11664 0.46845 0.56593 0.0
C820 C 0.13257 0.459 0.48039 0.0
O821 O 0.07642 0.4116 0.55059 0.0
O822 O 0.99968 0.41428 0.48179 0.0
C823 C 0.10186 0.43104 0.5707 0.0
O824 O 0.98434 0.46698 0.46969 0.0
O825 O 0.05925 0.55033 0.45951 0.0
O826 O 0.11807 0.5592 0.47753 0.0
C827 C 0.4614 0.08528 0.52244 0.0
C828 C 0.47252 0.08772 0.4303 0.0
C829 C 0.46832 0.93269 0.47794 0.0
Mg830 Mg 0.52793 0.09429 0.49236 0.0
O831 O 0.50948 0.04119 0.5046 0.0
Mg832 Mg 0.45699 0.01047 0.48885 0.0
Mg833 Mg 0.53654 0.00817 0.50177 0.0
O834 O 0.56334 0.97484 0.49916 0.0
Mg835 Mg 0.54459 0.92177 0.51197 0.0
Mg836 Mg 0.61566 1.00515 0.51544 0.0
C837 C 0.6043 0.08347 0.52662 0.0
C838 C 0.59517 0.05601 0.45064 0.0
O839 O 0.44216 0.05299 0.511 0.0
O840 O 0.49552 0.10431 0.51979 0.0
O841 O 0.45545 0.05228 0.44138 0.0
O842 O 0.50334 0.10878 0.44471 0.0
O843 O 0.58547 0.10405 0.51261 0.0
O844 O 0.59034 0.04599 0.52985 0.0
C845 C 0.47861 0.96031 0.55352 0.0
O846 O 0.51141 0.96994 0.54725 0.0
O847 O 0.45523 0.97194 0.53509 0.0
O848 O 0.63024 0.9622 0.49319 0.0
O849 O 0.57655 0.91119 0.48454 0.0
O850 O 0.61701 0.96378 0.56294 0.0
C851 C 0.61066 0.92995 0.48172 0.0
O852 O 0.56919 0.90729 0.55966 0.0
O853 O 0.48697 0.91196 0.49205 0.0
C854 C 0.59993 0.92843 0.57411 0.0
O855 O 0.4826 0.97013 0.47423 0.0
O856 O 0.56199 0.04661 0.45599 0.0
O857 O 0.61754 0.04345 0.46966 0.0
H858 H 0.16033 0.17332 0.28837 0.0
H859 H 0.2431 0.25152 0.35036 0.0
H860 H 0.12333 0.14238 0.33106 0.0
H861 H 0.20539 0.22265 0.39187 0.0
H862 H 0.16777 0.1153 0.46491 0.0
H863 H 0.19578 0.16063 0.42186 0.0
H864 H 0.08794 0.14497 0.37011 0.0
H865 H 0.05971 0.09845 0.41349 0.0
C866 C 0.17042 0.18423 0.31085 0.0
C867 C 0.20541 0.21364 0.31632 0.0
C868 C 0.14895 0.16699 0.33516 0.0
C869 C 0.16192 0.1796 0.36502 0.0
C870 C 0.19516 0.21161 0.36937 0.0
C871 C 0.21679 0.22817 0.34544 0.0
C872 C 0.14999 0.12217 0.44466 0.0
C873 C 0.11162 0.10333 0.44244 0.0
C874 C 0.16602 0.14837 0.42001 0.0
C875 C 0.14402 0.15635 0.39254 0.0
C876 C 0.10551 0.13914 0.39095 0.0
C877 C 0.08938 0.11292 0.41588 0.0
H878 H 0.81355 0.08715 0.38857 0.0
H879 H 0.868 0.07676 0.31726 0.0
H880 H 0.86951 0.0964 0.42614 0.0
H881 H 0.92448 0.08923 0.35349 0.0
H882 H 0.98197 0.14769 0.47927 0.0
H883 H 0.93008 0.14455 0.43777 0.0
H884 H 0.95136 0.06196 0.397 0.0
H885 H 1.00263 0.06583 0.43738 0.0
C886 C 0.83726 0.08595 0.38125 0.0
C887 C 0.8367 0.08108 0.35028 0.0
C888 C 0.86955 0.09241 0.40237 0.0
C889 C 0.90169 0.09458 0.39256 0.0
C890 C 0.90027 0.08764 0.36192 0.0
C891 C 0.86791 0.08029 0.34118 0.0
C892 C 0.97635 0.13043 0.46046 0.0
C893 C 0.99633 0.10744 0.46101 0.0
C894 C 0.94628 0.12786 0.4372 0.0
C895 C 0.93622 0.1023 0.4145 0.0
C896 C 0.95836 0.08196 0.41395 0.0
C897 C 0.98805 0.08448 0.43696 0.0
H898 H 0.77838 0.83476 0.32228 0.0
H899 H 0.88144 0.88274 0.28498 0.0
H900 H 0.80472 0.87929 0.36187 0.0
H901 H 0.90792 0.92747 0.3243 0.0
H902 H 0.9554 1.00239 0.39687 0.0
H903 H 0.91107 0.98048 0.35058 0.0
H904 H 0.85024 0.87629 0.40725 0.0
H905 H 0.89413 0.89896 0.45322 0.0
C906 C 0.80657 0.85513 0.32226 0.0
C907 C 0.82816 0.85459 0.30093 0.0
C908 C 0.82155 0.8809 0.34481 0.0
C909 C 0.85856 0.90666 0.34656 0.0
C910 C 0.87918 0.90835 0.32347 0.0
C911 C 0.86407 0.88256 0.30086 0.0
C912 C 0.93101 0.97626 0.39969 0.0
C913 C 0.92753 0.95277 0.42858 0.0
C914 C 0.90609 0.96321 0.37308 0.0
C915 C 0.87748 0.92631 0.37507 0.0
C916 C 0.87173 0.90496 0.40481 0.0
C917 C 0.89676 0.91796 0.43128 0.0
H918 H 0.1689 0.85103 0.32248 0.0
H919 H 0.22998 0.97493 0.3087 0.0
H920 H 0.14461 0.85841 0.36606 0.0
H921 H 0.20361 0.98259 0.35139 0.0
H922 H 0.07053 0.88942 0.41174 0.0
H923 H 0.10072 0.88228 0.37231 0.0
H924 H 0.20293 0.97005 0.40792 0.0
H925 H 0.17209 0.97829 0.44725 0.0
C926 C 0.1773 0.87991 0.32881 0.0
C927 C 0.20149 0.91242 0.31209 0.0
C928 C 0.16297 0.88417 0.35362 0.0
C929 C 0.17198 0.92112 0.36211 0.0
C930 C 0.19642 0.95369 0.34563 0.0
C931 C 0.21107 0.94937 0.32087 0.0
C932 C 0.09952 0.90713 0.41146 0.0
C933 C 0.11888 0.93448 0.43273 0.0
C934 C 0.11693 0.90281 0.38887 0.0
C935 C 0.15429 0.92548 0.387 0.0
C936 C 0.17399 0.95241 0.40858 0.0
C937 C 0.15644 0.95686 0.43129 0.0
H938 H 0.17836 0.8582 0.70887 0.0
H939 H 0.22607 0.90219 0.6227 0.0
H940 H 0.11705 0.83312 0.67912 0.0
H941 H 0.16446 0.87726 0.5929 0.0
H942 H 0.05518 0.90933 0.60287 0.0
H943 H 0.09222 0.88483 0.64467 0.0
H944 H 0.10121 0.81458 0.58248 0.0
H945 H 0.06131 0.83726 0.54102 0.0
C946 C 0.1757 0.86184 0.68352 0.0
C947 C 0.20669 0.8827 0.66785 0.0
C948 C 0.14077 0.84699 0.66668 0.0
C949 C 0.13631 0.85263 0.63394 0.0
C950 C 0.16744 0.87169 0.61825 0.0
C951 C 0.20247 0.88681 0.63513 0.0
C952 C 0.06201 0.88593 0.59904 0.0
C953 C 0.0555 0.87496 0.56907 0.0
C954 C 0.08361 0.87206 0.6229 0.0
C955 C 0.1001 0.84861 0.61634 0.0
C956 C 0.08871 0.83275 0.58786 0.0
C957 C 0.06584 0.84559 0.56426 0.0
H958 H 0.17927 0.12665 0.72208 0.0
H959 H 0.27973 0.17221 0.68103 0.0
H960 H 0.15154 0.07816 0.68592 0.0
H961 H 0.25236 0.12344 0.64479 0.0
H962 H 0.16091 0.09232 0.5563 0.0
H963 H 0.20699 0.11886 0.59988 0.0
H964 H 0.14597 0.02306 0.66346 0.0
H965 H 0.09937 0.99734 0.61946 0.0
C966 C 0.19586 0.12549 0.70607 0.0
C967 C 0.23139 0.15365 0.70411 0.0
C968 C 0.18004 0.0975 0.68524 0.0
C969 C 0.19956 0.09697 0.66207 0.0
C970 C 0.23623 0.12337 0.66186 0.0
C971 C 0.25187 0.15148 0.68255 0.0
C972 C 0.1587 0.07565 0.57929 0.0
C973 C 0.12684 0.0428 0.58461 0.0
C974 C 0.18496 0.09105 0.6045 0.0
C975 C 0.17964 0.07376 0.63544 0.0
C976 C 0.15043 0.03767 0.64005 0.0
C977 C 0.1241 0.02242 0.61479 0.0
H978 H 0.82907 0.03248 0.70917 0.0
H979 H 0.87469 0.15317 0.6707 0.0
H980 H 0.84685 0.01452 0.6662 0.0
H981 H 0.89072 0.13473 0.62725 0.0
H982 H 0.89555 0.08418 0.54227 0.0
H983 H 0.86272 0.09396 0.57967 0.0
H984 H 0.9124 0.0311 0.65421 0.0
H985 H 0.94549 0.02226 0.61724 0.0
C986 C 0.8426 0.05516 0.69155 0.0
C987 C 0.85069 0.09434 0.69371 0.0
C988 C 0.85238 0.04477 0.66678 0.0
C989 C 0.86988 0.07324 0.64337 0.0
C990 C 0.87661 0.11215 0.6447 0.0
C991 C 0.86737 0.12264 0.66968 0.0
C992 C 0.89857 0.07177 0.56652 0.0
C993 C 0.9228 0.05249 0.57707 0.0
C994 C 0.88008 0.0775 0.58786 0.0
C995 C 0.88503 0.06316 0.61974 0.0
C996 C 0.90775 0.04203 0.62974 0.0
C997 C 0.92675 0.03711 0.60866 0.0
H998 H 0.8419 0.75855 0.66867 0.0
H999 H 0.90593 0.85601 0.72058 0.0
H1000 H 0.87986 0.78851 0.62717 0.0
H1001 H 0.94345 0.88687 0.67834 0.0
H1002 H 1.00951 0.93212 0.59815 0.0
H1003 H 0.98608 0.88738 0.64414 0.0
H1004 H 0.87782 0.84457 0.59023 0.0
H1005 H 0.90172 0.88816 0.54451 0.0
C1006 C 0.86426 0.78631 0.6714 0.0
C1007 C 0.86997 0.80575 0.69736 0.0
C1008 C 0.88609 0.80336 0.64762 0.0
C1009 C 0.91393 0.84038 0.64917 0.0
C1010 C 0.92205 0.85827 0.67649 0.0
C1011 C 0.90032 0.84084 0.70058 0.0
C1012 C 0.98123 0.91163 0.59599 0.0
C1013 C 0.95753 0.91255 0.56789 0.0
C1014 C 0.96768 0.88667 0.62231 0.0
C1015 C 0.93022 0.86242 0.62071 0.0
C1016 C 0.90698 0.86234 0.59205 0.0
C1017 C 0.92051 0.88736 0.56592 0.0
H1018 H 0.33266 0.11047 0.16124 0.0
H1019 H 0.25549 0.10323 0.07602 0.0
H1020 H 0.3723 0.09588 0.13447 0.0
H1021 H 0.29488 0.08795 0.04954 0.0
H1022 H 0.35855 0.02483 0.02131 0.0
H1023 H 0.3177 0.03703 0.04881 0.0
H1024 H 0.41135 0.12623 0.09334 0.0
H1025 H 0.45202 0.11392 0.0664 0.0
C1026 C 0.32422 0.1061 0.13676 0.0
C1027 C 0.29079 0.10815 0.12087 0.0
C1028 C 0.34691 0.09756 0.12143 0.0
C1029 C 0.3367 0.09064 0.08987 0.0
C1030 C 0.30326 0.09249 0.074 0.0
C1031 C 0.28067 0.10127 0.08925 0.0
C1032 C 0.37041 0.04697 0.03702 0.0
C1033 C 0.40861 0.06838 0.04155 0.0
C1034 C 0.34698 0.05409 0.05267 0.0
C1035 C 0.3613 0.08254 0.07336 0.0
C1036 C 0.39946 0.10374 0.07794 0.0
C1037 C 0.42277 0.09682 0.06224 0.0
H1038 H 0.87759 0.37488 0.23052 0.0
H1039 H 0.82244 0.29263 0.16379 0.0
H1040 H 0.92639 0.41033 0.19752 0.0
H1041 H 0.87094 0.32736 0.13091 0.0
H1042 H 0.97196 0.39095 0.08118 0.0
H1043 H 0.93793 0.3503 0.12442 0.0
H1044 H 0.92495 0.44994 0.14585 0.0
H1045 H 0.95824 0.48985 0.1028 0.0
C1046 C 0.87659 0.36354 0.20935 0.0
C1047 C 0.84684 0.33 0.20038 0.0
C1048 C 0.90434 0.38403 0.19027 0.0
C1049 C 0.9028 0.37167 0.16153 0.0
C1050 C 0.87353 0.3374 0.15309 0.0
C1051 C 0.8456 0.31732 0.172 0.0
C1052 C 0.96292 0.40426 0.09592 0.0
C1053 C 0.96823 0.44366 0.08897 0.0
C1054 C 0.94305 0.38096 0.12041 0.0
C1055 C 0.92862 0.3968 0.13866 0.0
C1056 C 0.936 0.43677 0.13269 0.0
C1057 C 0.95515 0.45973 0.108 0.0
H1058 H 0.76005 0.85167 0.21017 0.0
H1059 H 0.66422 0.7497 0.18866 0.0
H1060 H 0.73067 0.89231 0.17467 0.0
H1061 H 0.63339 0.78912 0.1567 0.0
H1062 H 0.58967 0.85753 0.07864 0.0
H1063 H 0.62241 0.8218 0.11263 0.0
H1064 H 0.69119 0.92367 0.15855 0.0
H1065 H 0.65959 0.961 0.12152 0.0
C1066 C 0.73285 0.8379 0.19764 0.0
C1067 C 0.71516 0.79716 0.20136 0.0
C1068 C 0.71545 0.86129 0.17761 0.0
C1069 C 0.67927 0.84472 0.16159 0.0
C1070 C 0.66156 0.80393 0.16675 0.0
C1071 C 0.67924 0.78084 0.18574 0.0
C1072 C 0.61138 0.87263 0.09617 0.0
C1073 C 0.62115 0.91247 0.09725 0.0
C1074 C 0.63045 0.85162 0.11632 0.0
C1075 C 0.65967 0.86882 0.13959 0.0
C1076 C 0.66926 0.90876 0.14113 0.0
C1077 C 0.65063 0.93031 0.12008 0.0
H1078 H 0.26194 0.75186 0.14265 0.0
H1079 H 0.20869 0.64376 0.19864 0.0
H1080 H 0.24189 0.71861 0.0961 0.0
H1081 H 0.18609 0.61089 0.15201 0.0
H1082 H 0.1451 0.66071 0.0214 0.0
H1083 H 0.18906 0.6944 0.06259 0.0
H1084 H 0.19354 0.5857 0.11101 0.0
H1085 H 0.14697 0.55142 0.07039 0.0
C1086 C 0.24562 0.721 0.14492 0.0
C1087 C 0.23644 0.70046 0.17416 0.0
C1088 C 0.23406 0.70185 0.1182 0.0
C1089 C 0.21206 0.66191 0.11997 0.0
C1090 C 0.20362 0.64138 0.14954 0.0
C1091 C 0.21602 0.66036 0.17633 0.0
C1092 C 0.156 0.64393 0.04045 0.0
C1093 C 0.1412 0.60317 0.04336 0.0
C1094 C 0.18168 0.66345 0.06418 0.0
C1095 C 0.19386 0.64271 0.09103 0.0
C1096 C 0.18343 0.60247 0.09141 0.0
C1097 C 0.1571 0.58279 0.06786 0.0
H1098 H 0.40817 0.83829 0.8116 0.0
H1099 H 0.33923 0.7407 0.86836 0.0
H1100 H 0.43063 0.87575 0.85582 0.0
H1101 H 0.35973 0.77867 0.91244 0.0
H1102 H 0.43827 0.95297 0.91812 0.0
H1103 H 0.4046 0.90755 0.87972 0.0
H1104 H 0.4053 0.81191 0.95088 0.0
H1105 H 0.43644 0.85706 0.98938 0.0
C1106 C 0.39901 0.82447 0.83406 0.0
C1107 C 0.37223 0.78683 0.83689 0.0
C1108 C 0.4108 0.84623 0.85908 0.0
C1109 C 0.39541 0.83093 0.88714 0.0
C1110 C 0.37174 0.7916 0.89103 0.0
C1111 C 0.3605 0.76952 0.86603 0.0
C1112 C 0.42926 0.92213 0.92587 0.0
C1113 C 0.44095 0.90847 0.95632 0.0
C1114 C 0.41089 0.8961 0.90375 0.0
C1115 C 0.40443 0.85636 0.91188 0.0
C1116 C 0.41059 0.84233 0.94357 0.0
C1117 C 0.42825 0.86825 0.96573 0.0
H1118 H 0.20346 0.27805 0.947 0.0
H1119 H 0.14779 0.30478 0.85605 0.0
H1120 H 0.18802 0.32364 0.96839 0.0
H1121 H 0.13306 0.35073 0.87725 0.0
H1122 H 0.06704 0.37537 0.93985 0.0
H1123 H 0.09037 0.33943 0.91545 0.0
H1124 H 0.19929 0.39564 0.96436 0.0
H1125 H 0.17573 0.43207 0.98909 0.0
C1126 C 0.18817 0.29386 0.93158 0.0
C1127 C 0.17663 0.28775 0.89993 0.0
C1128 C 0.17978 0.32025 0.94371 0.0
C1129 C 0.15946 0.34068 0.92442 0.0
C1130 C 0.14869 0.33523 0.89262 0.0
C1131 C 0.15727 0.3091 0.88048 0.0
C1132 C 0.09607 0.38043 0.94522 0.0
C1133 C 0.11961 0.40644 0.96644 0.0
C1134 C 0.10945 0.36002 0.93105 0.0
C1135 C 0.14661 0.3649 0.93794 0.0
C1136 C 0.17046 0.39139 0.95874 0.0
C1137 C 0.15709 0.41234 0.97268 0.0
H1138 H 0.7498 0.21743 0.83328 0.0
H1139 H 0.64852 0.18616 0.76941 0.0
H1140 H 0.71669 0.17822 0.87626 0.0
H1141 H 0.61439 0.14918 0.8128 0.0
H1142 H 0.56631 0.05787 0.8948 0.0
H1143 H 0.59719 0.09515 0.8495 0.0
H1144 H 0.67933 0.17628 0.90982 0.0
H1145 H 0.6496 0.13762 0.95477 0.0
C1146 C 0.72044 0.20186 0.82834 0.0
C1147 C 0.70204 0.20417 0.7977 0.0
C1148 C 0.70106 0.17986 0.85324 0.0
C1149 C 0.66237 0.16052 0.84851 0.0
C1150 C 0.64405 0.16292 0.81768 0.0
C1151 C 0.66362 0.18438 0.79269 0.0
C1152 C 0.59047 0.0842 0.89806 0.0
C1153 C 0.60532 0.09504 0.92826 0.0
C1154 C 0.60845 0.10563 0.8721 0.0
C1155 C 0.64147 0.13871 0.87567 0.0
C1156 C 0.65487 0.15046 0.90586 0.0
C1157 C 0.63738 0.12869 0.93172 0.0
H1158 H 0.78858 0.64569 0.82765 0.0
H1159 H 0.87967 0.73891 0.78867 0.0
H1160 H 0.83033 0.61805 0.86058 0.0
H1161 H 0.92229 0.71061 0.82141 0.0
H1162 H 0.99162 0.66342 0.90542 0.0
H1163 H 0.95331 0.69485 0.87068 0.0
H1164 H 0.86532 0.58284 0.86126 0.0
H1165 H 0.90302 0.55182 0.89676 0.0
C1166 C 0.81778 0.66047 0.82623 0.0
C1167 C 0.83056 0.69481 0.80564 0.0
C1168 C 0.84195 0.64422 0.84496 0.0
C1169 C 0.88018 0.66123 0.84365 0.0
C1170 C 0.89325 0.69634 0.82345 0.0
C1171 C 0.86879 0.71279 0.80461 0.0
C1172 C 0.96433 0.64532 0.89549 0.0
C1173 C 0.95086 0.60472 0.90412 0.0
C1174 C 0.94212 0.66354 0.87545 0.0
C1175 C 0.9055 0.64189 0.86316 0.0
C1176 C 0.89276 0.60112 0.87067 0.0
C1177 C 0.91481 0.583 0.89084 0.0
H1178 H 0.27751 0.36584 0.17776 0.0
H1179 H 0.18748 0.27699 0.22142 0.0
H1180 H 0.2355 0.39283 0.14434 0.0
H1181 H 0.14457 0.30453 0.18783 0.0
H1182 H 0.07548 0.35002 0.10099 0.0
H1183 H 0.11324 0.31831 0.13645 0.0
H1184 H 0.20182 0.42991 0.14569 0.0
H1185 H 0.16465 0.46127 0.10984 0.0
C1186 C 0.24846 0.35176 0.18 0.0
C1187 C 0.23603 0.31892 0.20212 0.0
C1188 C 0.22421 0.36765 0.16099 0.0
C1189 C 0.1863 0.35171 0.16346 0.0
C1190 C 0.17344 0.31789 0.18501 0.0
C1191 C 0.19802 0.30186 0.20426 0.0
C1192 C 0.10276 0.36798 0.11103 0.0
C1193 C 0.11661 0.40856 0.10228 0.0
C1194 C 0.12461 0.34961 0.13146 0.0
C1195 C 0.16119 0.37111 0.14384 0.0
C1196 C 0.1743 0.41184 0.13621 0.0
C1197 C 0.15259 0.43012 0.11582 0.0
H1198 H 0.2751 0.69275 0.86281 0.0
H1199 H 0.19402 0.67389 0.78032 0.0
H1200 H 0.22659 0.65878 0.89591 0.0
H1201 H 0.14486 0.63921 0.81354 0.0
H1202 H 0.08262 0.53705 0.89058 0.0
H1203 H 0.12284 0.57696 0.85115 0.0
H1204 H 0.17486 0.66754 0.91152 0.0
H1205 H 0.13472 0.6277 0.95055 0.0
C1206 C 0.24674 0.68163 0.85183 0.0
C1207 C 0.23823 0.687 0.81916 0.0
C1208 C 0.21886 0.66221 0.87075 0.0
C1209 C 0.18165 0.64664 0.85747 0.0
C1210 C 0.17317 0.65094 0.82456 0.0
C1211 C 0.20121 0.67105 0.80557 0.0
C1212 C 0.10147 0.56623 0.89465 0.0
C1213 C 0.10485 0.57974 0.92322 0.0
C1214 C 0.12478 0.58898 0.87222 0.0
C1215 C 0.15244 0.62532 0.87829 0.0
C1216 C 0.15419 0.63957 0.90617 0.0
C1217 C 0.13079 0.61703 0.92834 0.0
H1218 H 0.30441 0.16136 0.79262 0.0
H1219 H 0.39986 0.26509 0.81038 0.0
H1220 H 0.33475 0.12258 0.82939 0.0
H1221 H 0.43155 0.22725 0.84393 0.0
H1222 H 0.47574 0.1619 0.92507 0.0
H1223 H 0.44276 0.19646 0.88941 0.0
H1224 H 0.37522 0.09242 0.8459 0.0
H1225 H 0.40707 0.05656 0.88428 0.0
C1226 C 0.33176 0.17592 0.8046 0.0
C1227 C 0.34905 0.21662 0.79945 0.0
C1228 C 0.3497 0.15358 0.82536 0.0
C1229 C 0.386 0.17116 0.84081 0.0
C1230 C 0.40334 0.21185 0.83426 0.0
C1231 C 0.38516 0.23396 0.8144 0.0
C1232 C 0.45425 0.14612 0.90771 0.0
C1233 C 0.44485 0.10615 0.90768 0.0
C1234 C 0.43506 0.16639 0.88665 0.0
C1235 C 0.40603 0.14812 0.86363 0.0
C1236 C 0.39692 0.10808 0.86312 0.0
C1237 C 0.41572 0.08738 0.88496 0.0
H1238 H 0.8573 0.37325 0.80854 0.0
H1239 H 0.80323 0.26566 0.86471 0.0
H1240 H 0.88144 0.40604 0.85522 0.0
H1241 H 0.82496 0.29886 0.91141 0.0
H1242 H 0.92276 0.35547 0.98578 0.0
H1243 H 0.87831 0.32233 0.94456 0.0
H1244 H 0.87542 0.43181 0.89653 0.0
H1245 H 0.92243 0.46548 0.93721 0.0
C1246 C 0.85015 0.35676 0.83092 0.0
C1247 C 0.82905 0.3168 0.83312 0.0
C1248 C 0.86346 0.3757 0.85776 0.0
C1249 C 0.85528 0.3553 0.88741 0.0
C1250 C 0.83264 0.31552 0.88923 0.0
C1251 C 0.82014 0.29639 0.86245 0.0
C1252 C 0.91209 0.37255 0.96682 0.0
C1253 C 0.92737 0.4133 0.9641 0.0
C1254 C 0.88615 0.35335 0.94306 0.0
C1255 C 0.87418 0.37441 0.91632 0.0
C1256 C 0.88527 0.41475 0.91605 0.0
C1257 C 0.91185 0.43409 0.93966 0.0
H1258 H 0.73129 0.90472 0.84629 0.0
H1259 H 0.80601 0.91019 0.9329 0.0
H1260 H 0.69179 0.92125 0.87174 0.0
H1261 H 0.76687 0.92741 0.95801 0.0
H1262 H 0.70586 0.99406 0.98442 0.0
H1263 H 0.74616 0.98014 0.95754 0.0
H1264 H 0.65137 0.89299 0.91206 0.0
H1265 H 0.61126 0.90703 0.93837 0.0
C1266 C 0.73921 0.9091 0.87078 0.0
C1267 C 0.77198 0.90612 0.88743 0.0
C1268 C 0.71661 0.91878 0.88535 0.0
C1269 C 0.72629 0.9259 0.91688 0.0
C1270 C 0.75896 0.92286 0.93354 0.0
C1271 C 0.78141 0.91294 0.91907 0.0
C1272 C 0.69363 0.97209 0.96856 0.0
C1273 C 0.65529 0.95167 0.96367 0.0
C1274 C 0.71673 0.96395 0.95329 0.0
C1275 C 0.70196 0.93546 0.93261 0.0
C1276 C 0.66364 0.91544 0.92748 0.0
C1277 C 0.64064 0.92337 0.94283 0.0
H1278 H 0.89432 0.76681 0.05865 0.0
H1279 H 0.90363 0.69653 0.14737 0.0
H1280 H 0.90584 0.72246 0.03258 0.0
H1281 H 0.91415 0.65176 0.12097 0.0
H1282 H 0.90791 0.56609 0.05529 0.0
H1283 H 0.88499 0.60437 0.07873 0.0
H1284 H 0.96377 0.70995 0.03724 0.0
H1285 H 0.98649 0.67235 0.01422 0.0
C1286 C 0.89868 0.74189 0.07259 0.0
C1287 C 0.89848 0.73554 0.10516 0.0
C1288 C 0.90497 0.71638 0.05761 0.0
C1289 C 0.91091 0.68382 0.07483 0.0
C1290 C 0.90917 0.67641 0.10713 0.0
C1291 C 0.90317 0.70213 0.12219 0.0
C1292 C 0.91995 0.59746 0.05105 0.0
C1293 C 0.9491 0.61628 0.03318 0.0
C1294 C 0.90701 0.61926 0.0645 0.0
C1295 C 0.92258 0.66003 0.05963 0.0
C1296 C 0.95099 0.67859 0.04107 0.0
C1297 C 0.9642 0.657 0.02813 0.0
H1298 H 0.4161 0.83315 0.23933 0.0
H1299 H 0.31637 0.79402 0.17433 0.0
H1300 H 0.4498 0.87323 0.19594 0.0
H1301 H 0.34943 0.83325 0.13125 0.0
H1302 H 0.40452 0.93913 0.06762 0.0
H1303 H 0.37661 0.90025 0.11247 0.0
H1304 H 0.47285 0.8727 0.14715 0.0
H1305 H 0.50202 0.91326 0.10129 0.0
C1306 C 0.40133 0.83333 0.21578 0.0
C1307 C 0.36326 0.81135 0.21041 0.0
C1308 C 0.4207 0.85596 0.1909 0.0
C1309 C 0.40243 0.85688 0.15999 0.0
C1310 C 0.36446 0.83404 0.15472 0.0
C1311 C 0.34526 0.81155 0.17952 0.0
C1312 C 0.42013 0.92479 0.08445 0.0
C1313 C 0.45562 0.92905 0.08021 0.0
C1314 C 0.40376 0.90216 0.11038 0.0
C1315 C 0.42194 0.8825 0.13329 0.0
C1316 C 0.45795 0.88739 0.12988 0.0
C1317 C 0.47466 0.91049 0.10358 0.0
H1318 H 0.7879 0.23286 0.14439 0.0
H1319 H 0.68622 0.24101 0.15344 0.0
H1320 H 0.75682 0.19468 0.10084 0.0
H1321 H 0.65586 0.20531 0.10823 0.0
H1322 H 0.62409 0.16243 0.01212 0.0
H1323 H 0.67267 0.21067 0.04265 0.0
H1324 H 0.68803 0.11939 0.11169 0.0
H1325 H 0.63824 0.07063 0.08167 0.0
C1326 C 0.75908 0.22676 0.13705 0.0
C1327 C 0.73912 0.23812 0.15349 0.0
C1328 C 0.74153 0.20547 0.1118 0.0
C1329 C 0.70404 0.19672 0.10182 0.0
C1330 C 0.68492 0.21175 0.11585 0.0
C1331 C 0.70233 0.2323 0.14159 0.0
C1332 C 0.63858 0.15251 0.03334 0.0
C1333 C 0.6268 0.11287 0.0451 0.0
C1334 C 0.66637 0.18017 0.05064 0.0
C1335 C 0.6834 0.16847 0.07946 0.0
C1336 C 0.67504 0.12877 0.08933 0.0
C1337 C 0.64675 0.10095 0.07217 0.0
H1338 H 0.73454 0.73659 0.84652 0.0
H1339 H 0.65511 0.68427 0.76909 0.0
H1340 H 0.68848 0.70362 0.88149 0.0
H1341 H 0.60934 0.64986 0.80476 0.0
H1342 H 0.59054 0.55156 0.89513 0.0
H1343 H 0.61674 0.59618 0.85034 0.0
H1344 H 0.62301 0.69262 0.89304 0.0
H1345 H 0.59598 0.64747 0.93775 0.0
C1346 C 0.70716 0.71846 0.83682 0.0
C1347 C 0.69884 0.71188 0.80523 0.0
C1348 C 0.68068 0.69993 0.85683 0.0
C1349 C 0.6456 0.67421 0.84569 0.0
C1350 C 0.63639 0.66956 0.81375 0.0
C1351 C 0.66272 0.68877 0.79353 0.0
C1352 C 0.59669 0.58222 0.89439 0.0
C1353 C 0.59175 0.59657 0.91952 0.0
C1354 C 0.6112 0.6076 0.86876 0.0
C1355 C 0.62166 0.64765 0.8684 0.0
C1356 C 0.61485 0.66175 0.89289 0.0
C1357 C 0.59959 0.63616 0.91831 0.0
H1358 H 0.34596 0.51708 0.81235 0.0
H1359 H 0.39899 0.59938 0.7374 0.0
H1360 H 0.40494 0.53302 0.84557 0.0
H1361 H 0.45845 0.6154 0.77116 0.0
H1362 H 0.47697 0.65555 0.88564 0.0
H1363 H 0.45078 0.64273 0.83161 0.0
H1364 H 0.48563 0.54681 0.84488 0.0
H1365 H 0.51244 0.56015 0.89827 0.0
C1366 C 0.37054 0.53637 0.80219 0.0
C1367 C 0.36801 0.55744 0.77256 0.0
C1368 C 0.40436 0.54551 0.82125 0.0
C1369 C 0.43594 0.57516 0.81066 0.0
C1370 C 0.43436 0.59227 0.77955 0.0
C1371 C 0.40048 0.58289 0.76031 0.0
C1372 C 0.48151 0.63378 0.87616 0.0
C1373 C 0.4969 0.60908 0.89578 0.0
C1374 C 0.46656 0.62636 0.84533 0.0
C1375 C 0.46636 0.59377 0.83442 0.0
C1376 C 0.48615 0.57243 0.85271 0.0
C1377 C 0.50157 0.58024 0.88325 0.0
H1378 H 0.38157 0.37524 0.78453 0.0
H1379 H 0.27609 0.33496 0.81679 0.0
H1380 H 0.40885 0.41864 0.82512 0.0
H1381 H 0.30334 0.37757 0.85785 0.0
H1382 H 0.38841 0.39225 0.95261 0.0
H1383 H 0.34814 0.3688 0.90494 0.0
H1384 H 0.41134 0.47349 0.85051 0.0
H1385 H 0.45008 0.49802 0.89852 0.0
C1386 C 0.36396 0.37672 0.79948 0.0
C1387 C 0.32691 0.35141 0.79783 0.0
C1388 C 0.37954 0.40148 0.82285 0.0
C1389 C 0.35828 0.40103 0.84496 0.0
C1390 C 0.32049 0.37807 0.84147 0.0
C1391 C 0.30497 0.35358 0.81807 0.0
C1392 C 0.39225 0.41113 0.93066 0.0
C1393 C 0.42188 0.4471 0.92919 0.0
C1394 C 0.36938 0.39772 0.90333 0.0
C1395 C 0.37655 0.41953 0.87397 0.0
C1396 C 0.40482 0.45655 0.87282 0.0
C1397 C 0.42683 0.47059 0.90031 0.0
H1398 H 0.71091 0.47005 0.81525 0.0
H1399 H 0.65748 0.34527 0.83155 0.0
H1400 H 0.68632 0.4759 0.85959 0.0
H1401 H 0.63444 0.35104 0.87685 0.0
H1402 H 0.66311 0.47568 0.95553 0.0
H1403 H 0.69128 0.46527 0.91562 0.0
H1404 H 0.58967 0.37114 0.88841 0.0
H1405 H 0.5618 0.3808 0.92875 0.0
C1406 C 0.69398 0.44385 0.82832 0.0
C1407 C 0.68607 0.40723 0.81968 0.0
C1408 C 0.68033 0.44717 0.85408 0.0
C1409 C 0.6585 0.41393 0.87194 0.0
C1410 C 0.65089 0.37727 0.86349 0.0
C1411 C 0.66446 0.37396 0.83768 0.0
C1412 C 0.64695 0.45228 0.94144 0.0
C1413 C 0.6101 0.42917 0.94538 0.0
C1414 C 0.66302 0.44657 0.91831 0.0
C1415 C 0.64265 0.41767 0.8985 0.0
C1416 C 0.60633 0.39346 0.90337 0.0
C1417 C 0.59028 0.39909 0.92654 0.0
H1418 H 0.73716 0.4747 0.147 0.0
H1419 H 0.69476 0.44499 0.23545 0.0
H1420 H 0.67564 0.46507 0.11942 0.0
H1421 H 0.63266 0.43433 0.20747 0.0
H1422 H 0.57382 0.37454 0.08635 0.0
H1423 H 0.61918 0.38231 0.13349 0.0
H1424 H 0.59959 0.48034 0.14957 0.0
H1425 H 0.55452 0.47274 0.10251 0.0
C1426 C 0.71512 0.4682 0.16055 0.0
C1427 C 0.72037 0.46002 0.1932 0.0
C1428 C 0.6799 0.46187 0.14482 0.0
C1429 C 0.64986 0.44751 0.16165 0.0
C1430 C 0.65567 0.44467 0.19432 0.0
C1431 C 0.69107 0.4513 0.21014 0.0
C1432 C 0.57706 0.39567 0.10132 0.0
C1433 C 0.56111 0.42315 0.09095 0.0
C1434 C 0.60323 0.40044 0.12802 0.0
C1435 C 0.61289 0.43236 0.14438 0.0
C1436 C 0.59225 0.45556 0.13718 0.0
C1437 C 0.56626 0.45089 0.11044 0.0
H1438 H 0.6807 0.63677 0.2138 0.0
H1439 H 0.77978 0.68826 0.17025 0.0
H1440 H 0.64899 0.59952 0.16954 0.0
H1441 H 0.74791 0.65212 0.1258 0.0
H1442 H 0.65016 0.64976 0.041 0.0
H1443 H 0.69416 0.66748 0.08814 0.0
H1444 H 0.64845 0.54971 0.13232 0.0
H1445 H 0.60502 0.53166 0.08446 0.0
C1446 C 0.6961 0.63918 0.19547 0.0
C1447 C 0.73251 0.66615 0.19528 0.0
C1448 C 0.67794 0.61787 0.17005 0.0
C1449 C 0.69594 0.62343 0.14409 0.0
C1450 C 0.7333 0.64763 0.14534 0.0
C1451 C 0.75141 0.66853 0.17074 0.0
C1452 C 0.65043 0.62734 0.06032 0.0
C1453 C 0.62419 0.58936 0.05913 0.0
C1454 C 0.67556 0.63745 0.08732 0.0
C1455 C 0.67443 0.60999 0.11394 0.0
C1456 C 0.64974 0.5714 0.11214 0.0
C1457 C 0.62516 0.56104 0.08472 0.0
H1458 H 0.31979 0.61488 0.14823 0.0
H1459 H 0.42208 0.61105 0.20007 0.0
H1460 H 0.34078 0.61609 0.09918 0.0
H1461 H 0.44298 0.6122 0.15119 0.0
H1462 H 0.48545 0.65617 0.05861 0.0
H1463 H 0.46016 0.66081 0.10291 0.0
H1464 H 0.35663 0.57079 0.07338 0.0
H1465 H 0.3818 0.56579 0.02888 0.0
C1466 C 0.34669 0.61418 0.14909 0.0
C1467 C 0.36931 0.6127 0.17792 0.0
C1468 C 0.35861 0.61478 0.12109 0.0
C1469 C 0.39359 0.61459 0.12139 0.0
C1470 C 0.41606 0.61289 0.15024 0.0
C1471 C 0.40397 0.61175 0.17823 0.0
C1472 C 0.457 0.63793 0.06099 0.0
C1473 C 0.4358 0.61029 0.04026 0.0
C1474 C 0.44267 0.64038 0.08661 0.0
C1475 C 0.40674 0.61561 0.0919 0.0
C1476 C 0.38449 0.59015 0.06989 0.0
C1477 C 0.39893 0.58739 0.04436 0.0
H1478 H 0.31785 0.28101 0.1546 0.0
H1479 H 0.4069 0.34434 0.22177 0.0
H1480 H 0.3516 0.3201 0.11225 0.0
H1481 H 0.44047 0.38459 0.17857 0.0
H1482 H 0.49424 0.42937 0.08507 0.0
H1483 H 0.46896 0.38287 0.12957 0.0
H1484 H 0.36355 0.39189 0.09611 0.0
H1485 H 0.38883 0.43819 0.05234 0.0
C1486 C 0.34474 0.30311 0.16049 0.0
C1487 C 0.35901 0.31072 0.19161 0.0
C1488 C 0.36404 0.32545 0.1361 0.0
C1489 C 0.39806 0.3558 0.14224 0.0
C1490 C 0.41402 0.36143 0.17337 0.0
C1491 C 0.39463 0.3388 0.198 0.0
C1492 C 0.46589 0.4214 0.0874 0.0
C1493 C 0.44385 0.43759 0.06537 0.0
C1494 C 0.45142 0.39493 0.11277 0.0
C1495 C 0.41434 0.38379 0.11599 0.0
C1496 C 0.39217 0.39972 0.09386 0.0
C1497 C 0.40676 0.42638 0.06887 0.0
H1498 H 0.75457 0.59941 0.57392 0.0
H1499 H 0.83182 0.60623 0.65906 0.0
H1500 H 0.79314 0.58265 0.54761 0.0
H1501 H 0.8706 0.59013 0.63251 0.0
H1502 H 0.94988 0.60826 0.56421 0.0
H1503 H 0.90937 0.62065 0.59116 0.0
H1504 H 0.8156 0.53103 0.54719 0.0
H1505 H 0.85636 0.51872 0.51959 0.0
C1506 C 0.77958 0.59702 0.58716 0.0
C1507 C 0.79007 0.60432 0.61867 0.0
C1508 C 0.80167 0.58737 0.57203 0.0
C1509 C 0.83491 0.58507 0.58795 0.0
C1510 C 0.84536 0.59217 0.61946 0.0
C1511 C 0.82319 0.6016 0.63465 0.0
C1512 C 0.92064 0.59105 0.56017 0.0
C1513 C 0.90642 0.56249 0.53959 0.0
C1514 C 0.89743 0.59802 0.57589 0.0
C1515 C 0.85931 0.57672 0.57147 0.0
C1516 C 0.84489 0.54811 0.55092 0.0
C1517 C 0.86824 0.54094 0.53522 0.0
H1518 H 0.3021 0.80948 0.6518 0.0
H1519 H 0.38874 0.8383 0.72983 0.0
H1520 H 0.3463 0.84689 0.61545 0.0
H1521 H 0.43365 0.8758 0.69336 0.0
H1522 H 0.48962 0.97506 0.61427 0.0
H1523 H 0.45225 0.9347 0.65543 0.0
H1524 H 0.39637 0.84443 0.59497 0.0
H1525 H 0.43316 0.88513 0.55402 0.0
C1526 C 0.33081 0.82358 0.66111 0.0
C1527 C 0.34219 0.81982 0.69352 0.0
C1528 C 0.35628 0.84493 0.64028 0.0
C1529 C 0.39389 0.86393 0.65128 0.0
C1530 C 0.40504 0.8615 0.68395 0.0
C1531 C 0.37943 0.8397 0.70485 0.0
C1532 C 0.47031 0.94599 0.61037 0.0
C1533 C 0.46489 0.93282 0.58125 0.0
C1534 C 0.44864 0.92292 0.63384 0.0
C1535 C 0.42075 0.88641 0.62846 0.0
C1536 C 0.41697 0.87261 0.59984 0.0
C1537 C 0.43851 0.89562 0.57652 0.0
H1538 H 0.15833 0.24464 0.69106 0.0
H1539 H 0.25597 0.34594 0.70996 0.0
H1540 H 0.12806 0.28453 0.65851 0.0
H1541 H 0.2271 0.38675 0.67419 0.0
H1542 H 0.15782 0.45688 0.62078 0.0
H1543 H 0.18825 0.41897 0.65844 0.0
H1544 H 0.11773 0.31678 0.61356 0.0
H1545 H 0.0862 0.3533 0.57869 0.0
C1546 C 0.1738 0.27565 0.6875 0.0
C1547 C 0.21011 0.2917 0.70243 0.0
C1548 C 0.15646 0.29896 0.66822 0.0
C1549 C 0.17487 0.33961 0.66227 0.0
C1550 C 0.21135 0.35587 0.67775 0.0
C1551 C 0.22844 0.33233 0.69793 0.0
C1552 C 0.14822 0.42604 0.61965 0.0
C1553 C 0.11871 0.40841 0.59677 0.0
C1554 C 0.16619 0.40414 0.64107 0.0
C1555 C 0.15579 0.36397 0.63996 0.0
C1556 C 0.1264 0.34687 0.61679 0.0
C1557 C 0.10807 0.36832 0.59616 0.0
H1558 H 0.75618 0.25821 0.64215 0.0
H1559 H 0.70012 0.15223 0.69912 0.0
H1560 H 0.73723 0.22312 0.59653 0.0
H1561 H 0.6789 0.11758 0.65353 0.0
H1562 H 0.6446 0.16114 0.52032 0.0
H1563 H 0.6862 0.19706 0.56153 0.0
H1564 H 0.68914 0.09022 0.61543 0.0
H1565 H 0.64482 0.05379 0.57468 0.0
C1566 C 0.73932 0.22748 0.64475 0.0
C1567 C 0.7292 0.208 0.67401 0.0
C1568 C 0.72848 0.20725 0.61864 0.0
C1569 C 0.70643 0.16726 0.62106 0.0
C1570 C 0.69663 0.14798 0.65061 0.0
C1571 C 0.70822 0.168 0.67678 0.0
C1572 C 0.65473 0.14525 0.54064 0.0
C1573 C 0.64007 0.10445 0.54487 0.0
C1574 C 0.67901 0.16604 0.5644 0.0
C1575 C 0.68992 0.14654 0.59266 0.0
C1576 C 0.67989 0.10611 0.59464 0.0
C1577 C 0.65493 0.08517 0.57102 0.0
H1578 H 0.88189 0.27849 0.34271 0.0
H1579 H 0.78246 0.29213 0.35082 0.0
H1580 H 0.9131 0.31376 0.38818 0.0
H1581 H 0.81422 0.32931 0.39453 0.0
H1582 H 0.92953 0.44874 0.42127 0.0
H1583 H 0.88222 0.40222 0.38777 0.0
H1584 H 0.89661 0.30728 0.45267 0.0
H1585 H 0.94257 0.35315 0.48666 0.0
C1586 C 0.86648 0.28851 0.35423 0.0
C1587 C 0.83004 0.28407 0.34206 0.0
C1588 C 0.88436 0.30875 0.38014 0.0
C1589 C 0.86604 0.32482 0.39407 0.0
C1590 C 0.82897 0.31782 0.3836 0.0
C1591 C 0.811 0.29701 0.3582 0.0
C1592 C 0.92134 0.41797 0.42905 0.0
C1593 C 0.9402 0.40453 0.45611 0.0
C1594 C 0.89457 0.39144 0.40986 0.0
C1595 C 0.88672 0.35151 0.41762 0.0
C1596 C 0.90273 0.33801 0.44621 0.0
C1597 C 0.9289 0.36432 0.46555 0.0
H1598 H 0.65461 0.81157 0.3537 0.0
H1599 H 0.70316 0.77743 0.44572 0.0
H1600 H 0.64308 0.85954 0.37492 0.0
H1601 H 0.69029 0.82476 0.46721 0.0
H1602 H 0.6816 0.93324 0.49115 0.0
H1603 H 0.70493 0.89654 0.46634 0.0
H1604 H 0.5989 0.85058 0.40981 0.0
H1605 H 0.57602 0.88687 0.43413 0.0
C1606 C 0.66326 0.81464 0.3784 0.0
C1607 C 0.67967 0.79059 0.39806 0.0
C1608 C 0.65645 0.84197 0.39057 0.0
C1609 C 0.66577 0.84581 0.42271 0.0
C1610 C 0.68322 0.82268 0.44228 0.0
C1611 C 0.69005 0.79523 0.43007 0.0
C1612 C 0.66373 0.91587 0.47295 0.0
C1613 C 0.62708 0.91276 0.46456 0.0
C1614 C 0.6769 0.8947 0.45899 0.0
C1615 C 0.65371 0.87085 0.4361 0.0
C1616 C 0.61757 0.86912 0.42702 0.0
C1617 C 0.6044 0.88972 0.44112 0.0
H1618 H 0.15404 0.6821 0.26976 0.0
H1619 H 0.25524 0.70807 0.33367 0.0
H1620 H 0.11917 0.64638 0.31293 0.0
H1621 H 0.22113 0.67002 0.37653 0.0
H1622 H 0.15375 0.63374 0.45493 0.0
H1623 H 0.18488 0.67051 0.41022 0.0
H1624 H 0.09931 0.5927 0.34949 0.0
H1625 H 0.06719 0.55727 0.39457 0.0
C1626 C 0.16894 0.67935 0.293 0.0
C1627 C 0.20756 0.69742 0.29804 0.0
C1628 C 0.1489 0.6586 0.31789 0.0
C1629 C 0.16689 0.65514 0.34874 0.0
C1630 C 0.20578 0.67254 0.35351 0.0
C1631 C 0.22569 0.69385 0.32867 0.0
C1632 C 0.14109 0.62513 0.43185 0.0
C1633 C 0.10768 0.59291 0.42829 0.0
C1634 C 0.15939 0.64581 0.40611 0.0
C1635 C 0.14542 0.63443 0.37585 0.0
C1636 C 0.11112 0.60288 0.37214 0.0
C1637 C 0.09241 0.58254 0.398 0.0
H1638 H 0.38001 0.24011 0.2883 0.0
H1639 H 0.29063 0.14986 0.33178 0.0
H1640 H 0.42326 0.21216 0.32067 0.0
H1641 H 0.33295 0.12237 0.3639 0.0
H1642 H 0.40439 0.05417 0.39588 0.0
H1643 H 0.36686 0.0859 0.36099 0.0
H1644 H 0.4549 0.19748 0.37185 0.0
H1645 H 0.49298 0.16546 0.40638 0.0
C1646 C 0.36967 0.2148 0.30513 0.0
C1647 C 0.33173 0.19752 0.30759 0.0
C1648 C 0.39445 0.19854 0.32368 0.0
C1649 C 0.38187 0.16423 0.34479 0.0
C1650 C 0.34403 0.14797 0.34756 0.0
C1651 C 0.3196 0.16413 0.32928 0.0
C1652 C 0.41626 0.08541 0.39045 0.0
C1653 C 0.45218 0.10687 0.40418 0.0
C1654 C 0.39434 0.10389 0.37061 0.0
C1655 C 0.4072 0.14469 0.36373 0.0
C1656 C 0.44373 0.16613 0.37627 0.0
C1657 C 0.46575 0.14758 0.39617 0.0
H1658 H 0.69205 0.77663 0.71634 0.0
H1659 H 0.78292 0.87057 0.67764 0.0
H1660 H 0.64909 0.80409 0.68308 0.0
H1661 H 0.74078 0.89764 0.64444 0.0
H1662 H 0.6668 0.96285 0.60993 0.0
H1663 H 0.70458 0.93193 0.64545 0.0
H1664 H 0.61913 0.8194 0.63213 0.0
H1665 H 0.58073 0.8506 0.59709 0.0
C1666 C 0.70282 0.80268 0.70032 0.0
C1667 C 0.74106 0.82108 0.69944 0.0
C1668 C 0.67817 0.81866 0.68124 0.0
C1669 C 0.69111 0.85379 0.6611 0.0
C1670 C 0.72934 0.87131 0.65997 0.0
C1671 C 0.7537 0.85543 0.67885 0.0
C1672 C 0.65554 0.93153 0.61495 0.0
C1673 C 0.62024 0.90957 0.60044 0.0
C1674 C 0.67764 0.91355 0.63515 0.0
C1675 C 0.66561 0.87275 0.64156 0.0
C1676 C 0.62966 0.85077 0.62813 0.0
C1677 C 0.60743 0.86883 0.60794 0.0
H1678 H 0.68633 0.14203 0.27525 0.0
H1679 H 0.75047 0.23017 0.33554 0.0
H1680 H 0.64248 0.11038 0.31327 0.0
H1681 H 0.70612 0.20142 0.37187 0.0
H1682 H 0.66386 0.10955 0.45165 0.0
H1683 H 0.69603 0.14787 0.4086 0.0
H1684 H 0.59583 0.10557 0.34399 0.0
H1685 H 0.56329 0.06506 0.3883 0.0
C1686 C 0.69023 0.15566 0.29593 0.0
C1687 C 0.72142 0.18957 0.30179 0.0
C1688 C 0.66505 0.13754 0.31778 0.0
C1689 C 0.67074 0.15284 0.34612 0.0
C1690 C 0.70097 0.18793 0.35086 0.0
C1691 C 0.72636 0.20518 0.32957 0.0
C1692 C 0.6483 0.10863 0.42836 0.0
C1693 C 0.61091 0.08408 0.42354 0.0
C1694 C 0.66684 0.13113 0.40343 0.0
C1695 C 0.64875 0.13042 0.37245 0.0
C1696 C 0.61081 0.10681 0.36747 0.0
C1697 C 0.59199 0.08396 0.39284 0.0
H1698 H 0.80655 0.66342 0.29137 0.0
H1699 H 0.90135 0.76588 0.31375 0.0
H1700 H 0.83593 0.62314 0.32738 0.0
H1701 H 0.93224 0.72684 0.3463 0.0
H1702 H 0.97539 0.65873 0.42537 0.0
H1703 H 0.94296 0.69428 0.39055 0.0
H1704 H 0.8755 0.59213 0.34456 0.0
H1705 H 0.90675 0.55508 0.38231 0.0
C1706 C 0.83354 0.67738 0.30417 0.0
C1707 C 0.85088 0.71814 0.30053 0.0
C1708 C 0.85095 0.65419 0.32452 0.0
C1709 C 0.88684 0.671 0.34102 0.0
C1710 C 0.90428 0.71183 0.33588 0.0
C1711 C 0.88657 0.73471 0.31653 0.0
C1712 C 0.95405 0.64355 0.40765 0.0
C1713 C 0.94454 0.60372 0.40677 0.0
C1714 C 0.93516 0.66445 0.38702 0.0
C1715 C 0.90637 0.64711 0.36348 0.0
C1716 C 0.89707 0.60717 0.36215 0.0
C1717 C 0.91553 0.58578 0.38364 0.0
H1718 H 0.30948 0.75868 0.36535 0.0
H1719 H 0.36437 0.86458 0.30771 0.0
H1720 H 0.33038 0.79374 0.41114 0.0
H1721 H 0.38731 0.89914 0.35334 0.0
H1722 H 0.42583 0.96261 0.43217 0.0
H1723 H 0.37885 0.92638 0.39267 0.0
H1724 H 0.3836 0.81928 0.44454 0.0
H1725 H 0.42803 0.85499 0.48463 0.0
C1726 C 0.32641 0.78938 0.36261 0.0
C1727 C 0.33576 0.80885 0.33314 0.0
C1728 C 0.33833 0.80958 0.38881 0.0
C1729 C 0.36063 0.84948 0.38619 0.0
C1730 C 0.36945 0.86879 0.35641 0.0
C1731 C 0.35685 0.84881 0.33021 0.0
C1732 C 0.41565 0.93122 0.43571 0.0
C1733 C 0.43177 0.91179 0.4608 0.0
C1734 C 0.38909 0.9104 0.41282 0.0
C1735 C 0.37871 0.86998 0.41449 0.0
C1736 C 0.39103 0.85032 0.44197 0.0
C1737 C 0.41696 0.871 0.46503 0.0
H1738 H 0.24198 0.35379 0.3965 0.0
H1739 H 0.30721 0.47631 0.37962 0.0
H1740 H 0.20245 0.36786 0.42366 0.0
H1741 H 0.26731 0.49054 0.40648 0.0
H1742 H 0.20778 0.49813 0.48313 0.0
H1743 H 0.24944 0.48572 0.45675 0.0
H1744 H 0.15682 0.39446 0.41328 0.0
H1745 H 0.11573 0.40595 0.44002 0.0
C1746 C 0.24765 0.38378 0.39829 0.0
C1747 C 0.27771 0.4139 0.3858 0.0
C1748 C 0.22496 0.39191 0.41387 0.0
C1749 C 0.23156 0.4304 0.4172 0.0
C1750 C 0.26171 0.46055 0.40479 0.0
C1751 C 0.28453 0.45238 0.3893 0.0
C1752 C 0.19638 0.47541 0.46796 0.0
C1753 C 0.15839 0.4529 0.46395 0.0
C1754 C 0.22023 0.46842 0.45269 0.0
C1755 C 0.20656 0.43883 0.43306 0.0
C1756 C 0.16851 0.41688 0.42873 0.0
C1757 C 0.14483 0.42372 0.44399 0.0
H1758 H 0.41052 0.20228 0.64708 0.0
H1759 H 0.35997 0.2317 0.55447 0.0
H1760 H 0.42546 0.15587 0.62692 0.0
H1761 H 0.37606 0.18588 0.53407 0.0
H1762 H 0.38951 0.07856 0.51329 0.0
H1763 H 0.36424 0.11429 0.53705 0.0
H1764 H 0.47035 0.1667 0.5917 0.0
H1765 H 0.49525 0.13135 0.56838 0.0
C1766 C 0.40221 0.19848 0.62248 0.0
C1767 C 0.38418 0.22068 0.60231 0.0
C1768 C 0.41094 0.17207 0.61093 0.0
C1769 C 0.40187 0.16734 0.57897 0.0
C1770 C 0.38294 0.18869 0.55889 0.0
C1771 C 0.37424 0.21525 0.57046 0.0
C1772 C 0.40706 0.09718 0.53083 0.0
C1773 C 0.44427 0.10233 0.53898 0.0
C1774 C 0.39276 0.11777 0.54418 0.0
C1775 C 0.41538 0.14311 0.56623 0.0
C1776 C 0.45216 0.14699 0.5751 0.0
C1777 C 0.46646 0.12693 0.56157 0.0
H1778 H 0.91011 0.33663 0.73639 0.0
H1779 H 0.80851 0.30967 0.67296 0.0
H1780 H 0.94464 0.37117 0.69286 0.0
H1781 H 0.84234 0.34663 0.62965 0.0
H1782 H 0.90922 0.38048 0.55097 0.0
H1783 H 0.87814 0.34511 0.59602 0.0
H1784 H 0.96462 0.42375 0.6556 0.0
H1785 H 0.99663 0.45771 0.61022 0.0
C1786 C 0.89504 0.33894 0.71316 0.0
C1787 C 0.85641 0.32084 0.70837 0.0
C1788 C 0.9149 0.35901 0.68804 0.0
C1789 C 0.89674 0.36183 0.65719 0.0
C1790 C 0.85783 0.34456 0.65267 0.0
C1791 C 0.83809 0.32389 0.67775 0.0
C1792 C 0.92208 0.38954 0.57388 0.0
C1793 C 0.95573 0.42156 0.57703 0.0
C1794 C 0.90382 0.36969 0.59982 0.0
C1795 C 0.91807 0.38171 0.62985 0.0
C1796 C 0.95258 0.41306 0.63315 0.0
C1797 C 0.97125 0.43256 0.60711 0.0
H1798 H 0.2324 0.76022 0.65455 0.0
H1799 H 0.18185 0.65297 0.7122 0.0
H1800 H 0.20561 0.72732 0.60775 0.0
H1801 H 0.15246 0.62031 0.66558 0.0
H1802 H 0.12878 0.55733 0.58567 0.0
H1803 H 0.16716 0.59558 0.62774 0.0
H1804 H 0.15457 0.69815 0.57336 0.0
H1805 H 0.11909 0.66075 0.53087 0.0
C1806 C 0.2139 0.73001 0.65696 0.0
C1807 C 0.20873 0.70908 0.6867 0.0
C1808 C 0.1989 0.71091 0.63021 0.0
C1809 C 0.1776 0.67074 0.63279 0.0
C1810 C 0.16996 0.6508 0.66265 0.0
C1811 C 0.18582 0.66966 0.68935 0.0
C1812 C 0.13563 0.58834 0.58227 0.0
C1813 C 0.12003 0.60582 0.55543 0.0
C1814 C 0.15691 0.6102 0.60664 0.0
C1815 C 0.16247 0.64966 0.60464 0.0
C1816 C 0.15064 0.66787 0.57613 0.0
C1817 C 0.13009 0.64627 0.55165 0.0
loop_
_geom_bond_atom_site_label_1
_geom_bond_atom_site_label_2
_geom_bond_distance
_geom_bond_site_symmetry_2
_ccdc_geom_bond_type
Eu0 N31 2.657 . S
Eu0 N38 2.609 . S
Eu0 O44 2.558 . S
Eu0 O45 2.612 . S
Eu0 O47 2.339 . S
Eu0 O48 2.563 . S
Eu0 O49 2.419 . S
Eu0 O51 2.380 . S
Eu0 O52 2.432 . S
Eu0 C64 2.848 . S
C1 C4 1.429 . S
C1 C5 1.411 . S
C1 N8 1.377 . S
C2 C4 1.420 . S
C2 C6 1.423 . S
C2 C14 1.392 . S
C3 C5 1.420 . S
C3 C6 1.351 . S
C3 H26 0.931 . S
C4 C1 1.429 . S
C4 C2 1.420 . S
C4 N12 1.362 . S
C5 C1 1.411 . S
C5 C3 1.420 . S
C5 C10 1.395 . S
C6 C2 1.423 . S
C6 C3 1.351 . S
C6 H18 0.930 . S
C7 C9 1.400 . S
C7 C10 1.386 . S
C7 H19 0.930 . S
N8 C1 1.377 . S
N8 C9 1.321 . S
N8 Eu11 2.609 . S
C9 C7 1.400 . S
C9 N8 1.321 . S
C9 H16 0.930 . S
C10 C5 1.395 . S
C10 C7 1.386 . S
C10 H29 0.930 . S
Eu11 N8 2.609 . S
Eu11 N12 2.657 . S
Eu11 O45 2.380 . S
Eu11 O46 2.432 . S
Eu11 O50 2.558 . S
Eu11 O51 2.612 . S
Eu11 O53 2.339 . S
Eu11 O54 2.563 . S
Eu11 O55 2.419 . S
Eu11 C75 2.848 . S
N12 C4 1.362 . S
N12 Eu11 2.657 . S
N12 C13 1.334 . S
C13 N12 1.334 . S
C13 C15 1.413 . S
C13 H20 0.929 . S
C14 C2 1.392 . S
C14 C15 1.367 . S
C14 H22 0.930 . S
C15 C13 1.413 . S
C15 C14 1.367 . S
C15 H17 0.930 . S
H16 C9 0.930 . S
H17 C15 0.930 . S
H18 C6 0.930 . S
H19 C7 0.930 . S
H20 C13 0.929 . S
H21 C35 0.930 . S
H22 C14 0.930 . S
H23 C41 0.930 . S
H24 C32 0.929 . S
H25 C39 0.930 . S
H26 C3 0.931 . S
H27 C33 0.930 . S
H28 C66 0.930 . S
H29 C10 0.930 . S
H30 C65 0.931 . S
N31 Eu0 2.657 . S
N31 C32 1.334 . S
N31 C36 1.362 . S
C32 H24 0.929 . S
C32 N31 1.334 . S
C32 C35 1.413 . S
C33 H27 0.930 . S
C33 C34 1.392 . S
C33 C35 1.367 . S
C34 C33 1.392 . S
C34 C36 1.420 . S
C34 C66 1.423 . S
C35 H21 0.930 . S
C35 C32 1.413 . S
C35 C33 1.367 . S
C36 N31 1.362 . S
C36 C34 1.420 . S
C36 C40 1.429 . S
H37 C42 0.930 . S
N38 Eu0 2.609 . S
N38 C40 1.377 . S
N38 C41 1.321 . S
C39 H25 0.930 . S
C39 C41 1.400 . S
C39 C42 1.386 . S
C40 C36 1.429 . S
C40 N38 1.377 . S
C40 C43 1.411 . S
C41 H23 0.930 . S
C41 N38 1.321 . S
C41 C39 1.400 . S
C42 H37 0.930 . S
C42 C39 1.386 . S
C42 C43 1.395 . S
C43 C40 1.411 . S
C43 C42 1.395 . S
C43 C65 1.420 . S
O44 Eu0 2.558 . S
O44 C64 1.257 . S
O45 Eu0 2.612 . S
O45 Eu11 2.380 . S
O45 C56 1.276 . S
O46 Eu11 2.432 . S
O46 C63 1.264 . S
O47 Eu0 2.339 . S
O47 C63 1.254 . S
O48 Eu0 2.563 . S
O48 C56 1.235 . S
O49 Eu0 2.419 . S
O49 C64 1.249 . S
O50 Eu11 2.558 . S
O50 C75 1.257 . S
O51 Eu0 2.380 . S
O51 Eu11 2.612 . S
O51 C67 1.276 . S
O52 Eu0 2.432 . S
O52 C74 1.264 . S
O53 Eu11 2.339 . S
O53 C74 1.254 . S
O54 Eu11 2.563 . S
O54 C67 1.235 . S
O55 Eu11 2.419 . S
O55 C75 1.249 . S
C56 O45 1.276 . S
C56 O48 1.235 . S
C57 C59 1.393 . S
C57 C61 1.395 . S
C57 C64 1.492 . S
C58 C59 1.392 . S
C58 C60 1.386 . S
C59 C57 1.393 . S
C59 C58 1.392 . S
C59 H76 0.930 . S
C60 C58 1.386 . S
C60 C62 1.395 . S
C60 H77 0.930 . S
C61 C57 1.395 . S
C61 C62 1.379 . S
C61 H78 0.930 . S
C62 C60 1.395 . S
C62 C61 1.379 . S
C62 H79 0.930 . S
C63 O46 1.264 . S
C63 O47 1.254 . S
C64 Eu0 2.848 . S
C64 O44 1.257 . S
C64 O49 1.249 . S
C64 C57 1.492 . S
C65 H30 0.931 . S
C65 C43 1.420 . S
C65 C66 1.351 . S
C66 H28 0.930 . S
C66 C34 1.423 . S
C66 C65 1.351 . S
C67 O51 1.276 . S
C67 O54 1.235 . S
C68 C69 1.393 . S
C68 C72 1.395 . S
C68 C75 1.492 . S
C69 C68 1.393 . S
C69 C70 1.392 . S
C69 H80 0.930 . S
C70 C69 1.392 . S
C70 C71 1.386 . S
C71 C70 1.386 . S
C71 C73 1.395 . S
C71 H81 0.930 . S
C72 C68 1.395 . S
C72 C73 1.379 . S
C72 H82 0.930 . S
C73 C71 1.395 . S
C73 C72 1.379 . S
C73 H83 0.930 . S
C74 O52 1.264 . S
C74 O53 1.254 . S
C75 Eu11 2.848 . S
C75 O50 1.257 . S
C75 O55 1.249 . S
C75 C68 1.492 . S
H76 C59 0.930 . S
H77 C60 0.930 . S
H78 C61 0.930 . S
H79 C62 0.930 . S
H80 C69 0.930 . S
H81 C71 0.930 . S
H82 C72 0.930 . S
H83 C73 0.930 . S
Eu84 N115 2.657 . S
Eu84 N122 2.609 . S
Eu84 O128 2.558 . S
Eu84 O129 2.612 . S
Eu84 O131 2.339 . S
Eu84 O132 2.563 . S
Eu84 O133 2.419 . S
Eu84 O135 2.380 . S
Eu84 O136 2.432 . S
Eu84 C148 2.848 . S
C85 C88 1.429 . S
C85 C89 1.411 . S
C85 N92 1.377 . S
C86 C88 1.420 . S
C86 C90 1.423 . S
C86 C98 1.392 . S
C87 C89 1.420 . S
C87 C90 1.351 . S
C87 H110 0.931 . S
C88 C85 1.429 . S
C88 C86 1.420 . S
C88 N96 1.362 . S
C89 C85 1.411 . S
C89 C87 1.420 . S
C89 C94 1.395 . S
C90 C86 1.423 . S
C90 C87 1.351 . S
C90 H102 0.930 . S
C91 C93 1.400 . S
C91 C94 1.386 . S
C91 H103 0.930 . S
N92 C85 1.377 . S
N92 C93 1.321 . S
N92 Eu95 2.609 . S
C93 C91 1.400 . S
C93 N92 1.321 . S
C93 H100 0.930 . S
C94 C89 1.395 . S
C94 C91 1.386 . S
C94 H113 0.930 . S
Eu95 N92 2.609 . S
Eu95 N96 2.657 . S
Eu95 O129 2.380 . S
Eu95 O130 2.432 . S
Eu95 O134 2.558 . S
Eu95 O135 2.612 . S
Eu95 O137 2.339 . S
Eu95 O138 2.563 . S
Eu95 O139 2.419 . S
Eu95 C159 2.848 . S
N96 C88 1.362 . S
N96 Eu95 2.657 . S
N96 C97 1.334 . S
C97 N96 1.334 . S
C97 C99 1.413 . S
C97 H104 0.929 . S
C98 C86 1.392 . S
C98 C99 1.367 . S
C98 H106 0.930 . S
C99 C97 1.413 . S
C99 C98 1.367 . S
C99 H101 0.930 . S
H100 C93 0.930 . S
H101 C99 0.930 . S
H102 C90 0.930 . S
H103 C91 0.930 . S
H104 C97 0.929 . S
H105 C119 0.930 . S
H106 C98 0.930 . S
H107 C125 0.930 . S
H108 C116 0.929 . S
H109 C123 0.930 . S
H110 C87 0.931 . S
H111 C117 0.930 . S
H112 C150 0.930 . S
H113 C94 0.930 . S
H114 C149 0.931 . S
N115 Eu84 2.657 . S
N115 C116 1.334 . S
N115 C120 1.362 . S
C116 H108 0.929 . S
C116 N115 1.334 . S
C116 C119 1.413 . S
C117 H111 0.930 . S
C117 C118 1.392 . S
C117 C119 1.367 . S
C118 C117 1.392 . S
C118 C120 1.420 . S
C118 C150 1.423 . S
C119 H105 0.930 . S
C119 C116 1.413 . S
C119 C117 1.367 . S
C120 N115 1.362 . S
C120 C118 1.420 . S
C120 C124 1.429 . S
H121 C126 0.930 . S
N122 Eu84 2.609 . S
N122 C124 1.377 . S
N122 C125 1.321 . S
C123 H109 0.930 . S
C123 C125 1.400 . S
C123 C126 1.386 . S
C124 C120 1.429 . S
C124 N122 1.377 . S
C124 C127 1.411 . S
C125 H107 0.930 . S
C125 N122 1.321 . S
C125 C123 1.400 . S
C126 H121 0.930 . S
C126 C123 1.386 . S
C126 C127 1.395 . S
C127 C124 1.411 . S
C127 C126 1.395 . S
C127 C149 1.420 . S
O128 Eu84 2.558 . S
O128 C148 1.257 . S
O129 Eu84 2.612 . S
O129 Eu95 2.380 . S
O129 C140 1.276 . S
O130 Eu95 2.432 . S
O130 C147 1.264 . S
O131 Eu84 2.339 . S
O131 C147 1.254 . S
O132 Eu84 2.563 . S
O132 C140 1.235 . S
O133 Eu84 2.419 . S
O133 C148 1.249 . S
O134 Eu95 2.558 . S
O134 C159 1.257 . S
O135 Eu84 2.380 . S
O135 Eu95 2.612 . S
O135 C151 1.276 . S
O136 Eu84 2.432 . S
O136 C158 1.264 . S
O137 Eu95 2.339 . S
O137 C158 1.254 . S
O138 Eu95 2.563 . S
O138 C151 1.235 . S
O139 Eu95 2.419 . S
O139 C159 1.249 . S
C140 O129 1.276 . S
C140 O132 1.235 . S
C141 C143 1.393 . S
C141 C145 1.395 . S
C141 C148 1.492 . S
C142 C143 1.392 . S
C142 C144 1.386 . S
C143 C141 1.393 . S
C143 C142 1.392 . S
C143 H160 0.930 . S
C144 C142 1.386 . S
C144 C146 1.395 . S
C144 H161 0.930 . S
C145 C141 1.395 . S
C145 C146 1.379 . S
C145 H162 0.930 . S
C146 C144 1.395 . S
C146 C145 1.379 . S
C146 H163 0.930 . S
C147 O130 1.264 . S
C147 O131 1.254 . S
C148 Eu84 2.848 . S
C148 O128 1.257 . S
C148 O133 1.249 . S
C148 C141 1.492 . S
C149 H114 0.931 . S
C149 C127 1.420 . S
C149 C150 1.351 . S
C150 H112 0.930 . S
C150 C118 1.423 . S
C150 C149 1.351 . S
C151 O135 1.276 . S
C151 O138 1.235 . S
C152 C153 1.393 . S
C152 C156 1.395 . S
C152 C159 1.492 . S
C153 C152 1.393 . S
C153 C154 1.392 . S
C153 H164 0.930 . S
C154 C153 1.392 . S
C154 C155 1.386 . S
C155 C154 1.386 . S
C155 C157 1.395 . S
C155 H165 0.930 . S
C156 C152 1.395 . S
C156 C157 1.379 . S
C156 H166 0.930 . S
C157 C155 1.395 . S
C157 C156 1.379 . S
C157 H167 0.930 . S
C158 O136 1.264 . S
C158 O137 1.254 . S
C159 Eu95 2.848 . S
C159 O134 1.257 . S
C159 O139 1.249 . S
C159 C152 1.492 . S
H160 C143 0.930 . S
H161 C144 0.930 . S
H162 C145 0.930 . S
H163 C146 0.930 . S
H164 C153 0.930 . S
H165 C155 0.930 . S
H166 C156 0.930 . S
H167 C157 0.930 . S
Eu168 N199 2.657 . S
Eu168 N206 2.609 . S
Eu168 O212 2.558 . S
Eu168 O213 2.612 . S
Eu168 O215 2.339 . S
Eu168 O216 2.563 . S
Eu168 O217 2.419 . S
Eu168 O219 2.380 . S
Eu168 O220 2.432 . S
Eu168 C232 2.848 . S
C169 C172 1.429 . S
C169 C173 1.411 . S
C169 N176 1.377 . S
C170 C172 1.420 . S
C170 C174 1.423 . S
C170 C182 1.392 . S
C171 C173 1.420 . S
C171 C174 1.351 . S
C171 H194 0.931 . S
C172 C169 1.429 . S
C172 C170 1.420 . S
C172 N180 1.362 . S
C173 C169 1.411 . S
C173 C171 1.420 . S
C173 C178 1.395 . S
C174 C170 1.423 . S
C174 C171 1.351 . S
C174 H186 0.930 . S
C175 C177 1.400 . S
C175 C178 1.386 . S
C175 H187 0.930 . S
N176 C169 1.377 . S
N176 C177 1.321 . S
N176 Eu179 2.609 . S
C177 C175 1.400 . S
C177 N176 1.321 . S
C177 H184 0.930 . S
C178 C173 1.395 . S
C178 C175 1.386 . S
C178 H197 0.930 . S
Eu179 N176 2.609 . S
Eu179 N180 2.657 . S
Eu179 O213 2.380 . S
Eu179 O214 2.432 . S
Eu179 O218 2.558 . S
Eu179 O219 2.612 . S
Eu179 O221 2.339 . S
Eu179 O222 2.563 . S
Eu179 O223 2.419 . S
Eu179 C243 2.848 . S
N180 C172 1.362 . S
N180 Eu179 2.657 . S
N180 C181 1.334 . S
C181 N180 1.334 . S
C181 C183 1.413 . S
C181 H188 0.929 . S
C182 C170 1.392 . S
C182 C183 1.367 . S
C182 H190 0.930 . S
C183 C181 1.413 . S
C183 C182 1.367 . S
C183 H185 0.930 . S
H184 C177 0.930 . S
H185 C183 0.930 . S
H186 C174 0.930 . S
H187 C175 0.930 . S
H188 C181 0.929 . S
H189 C203 0.930 . S
H190 C182 0.930 . S
H191 C209 0.930 . S
H192 C200 0.929 . S
H193 C207 0.930 . S
H194 C171 0.931 . S
H195 C201 0.930 . S
H196 C234 0.930 . S
H197 C178 0.930 . S
H198 C233 0.931 . S
N199 Eu168 2.657 . S
N199 C200 1.334 . S
N199 C204 1.362 . S
C200 H192 0.929 . S
C200 N199 1.334 . S
C200 C203 1.413 . S
C201 H195 0.930 . S
C201 C202 1.392 . S
C201 C203 1.367 . S
C202 C201 1.392 . S
C202 C204 1.420 . S
C202 C234 1.423 . S
C203 H189 0.930 . S
C203 C200 1.413 . S
C203 C201 1.367 . S
C204 N199 1.362 . S
C204 C202 1.420 . S
C204 C208 1.429 . S
H205 C210 0.930 . S
N206 Eu168 2.609 . S
N206 C208 1.377 . S
N206 C209 1.321 . S
C207 H193 0.930 . S
C207 C209 1.400 . S
C207 C210 1.386 . S
C208 C204 1.429 . S
C208 N206 1.377 . S
C208 C211 1.411 . S
C209 H191 0.930 . S
C209 N206 1.321 . S
C209 C207 1.400 . S
C210 H205 0.930 . S
C210 C207 1.386 . S
C210 C211 1.395 . S
C211 C208 1.411 . S
C211 C210 1.395 . S
C211 C233 1.420 . S
O212 Eu168 2.558 . S
O212 C232 1.257 . S
O213 Eu168 2.612 . S
O213 Eu179 2.380 . S
O213 C224 1.276 . S
O214 Eu179 2.432 . S
O214 C231 1.264 . S
O215 Eu168 2.339 . S
O215 C231 1.254 . S
O216 Eu168 2.563 . S
O216 C224 1.235 . S
O217 Eu168 2.419 . S
O217 C232 1.249 . S
O218 Eu179 2.558 . S
O218 C243 1.257 . S
O219 Eu168 2.380 . S
O219 Eu179 2.612 . S
O219 C235 1.276 . S
O220 Eu168 2.432 . S
O220 C242 1.264 . S
O221 Eu179 2.339 . S
O221 C242 1.254 . S
O222 Eu179 2.563 . S
O222 C235 1.235 . S
O223 Eu179 2.419 . S
O223 C243 1.249 . S
C224 O213 1.276 . S
C224 O216 1.235 . S
C225 C227 1.393 . S
C225 C229 1.395 . S
C225 C232 1.492 . S
C226 C227 1.392 . S
C226 C228 1.386 . S
C227 C225 1.393 . S
C227 C226 1.392 . S
C227 H244 0.930 . S
C228 C226 1.386 . S
C228 C230 1.395 . S
C228 H245 0.930 . S
C229 C225 1.395 . S
C229 C230 1.379 . S
C229 H246 0.930 . S
C230 C228 1.395 . S
C230 C229 1.379 . S
C230 H247 0.930 . S
C231 O214 1.264 . S
C231 O215 1.254 . S
C232 Eu168 2.848 . S
C232 O212 1.257 . S
C232 O217 1.249 . S
C232 C225 1.492 . S
C233 H198 0.931 . S
C233 C211 1.420 . S
C233 C234 1.351 . S
C234 H196 0.930 . S
C234 C202 1.423 . S
C234 C233 1.351 . S
C235 O219 1.276 . S
C235 O222 1.235 . S
C236 C237 1.393 . S
C236 C240 1.395 . S
C236 C243 1.492 . S
C237 C236 1.393 . S
C237 C238 1.392 . S
C237 H248 0.930 . S
C238 C237 1.392 . S
C238 C239 1.386 . S
C239 C238 1.386 . S
C239 C241 1.395 . S
C239 H249 0.930 . S
C240 C236 1.395 . S
C240 C241 1.379 . S
C240 H250 0.930 . S
C241 C239 1.395 . S
C241 C240 1.379 . S
C241 H251 0.930 . S
C242 O220 1.264 . S
C242 O221 1.254 . S
C243 Eu179 2.848 . S
C243 O218 1.257 . S
C243 O223 1.249 . S
C243 C236 1.492 . S
H244 C227 0.930 . S
H245 C228 0.930 . S
H246 C229 0.930 . S
H247 C230 0.930 . S
H248 C237 0.930 . S
H249 C239 0.930 . S
H250 C240 0.930 . S
H251 C241 0.930 . S
Eu252 N283 2.657 . S
Eu252 N290 2.609 . S
Eu252 O296 2.558 . S
Eu252 O297 2.612 . S
Eu252 O299 2.339 . S
Eu252 O300 2.563 . S
Eu252 O301 2.419 . S
Eu252 O303 2.380 . S
Eu252 O304 2.432 . S
Eu252 C316 2.848 . S
C253 C256 1.429 . S
C253 C257 1.411 . S
C253 N260 1.377 . S
C254 C256 1.420 . S
C254 C258 1.423 . S
C254 C266 1.392 . S
C255 C257 1.420 . S
C255 C258 1.351 . S
C255 H278 0.931 . S
C256 C253 1.429 . S
C256 C254 1.420 . S
C256 N264 1.362 . S
C257 C253 1.411 . S
C257 C255 1.420 . S
C257 C262 1.395 . S
C258 C254 1.423 . S
C258 C255 1.351 . S
C258 H270 0.930 . S
C259 C261 1.400 . S
C259 C262 1.386 . S
C259 H271 0.930 . S
N260 C253 1.377 . S
N260 C261 1.321 . S
N260 Eu263 2.609 . S
C261 C259 1.400 . S
C261 N260 1.321 . S
C261 H268 0.930 . S
C262 C257 1.395 . S
C262 C259 1.386 . S
C262 H281 0.930 . S
Eu263 N260 2.609 . S
Eu263 N264 2.657 . S
Eu263 O297 2.380 . S
Eu263 O298 2.432 . S
Eu263 O302 2.558 . S
Eu263 O303 2.612 . S
Eu263 O305 2.339 . S
Eu263 O306 2.563 . S
Eu263 O307 2.419 . S
Eu263 C327 2.848 . S
N264 C256 1.362 . S
N264 Eu263 2.657 . S
N264 C265 1.334 . S
C265 N264 1.334 . S
C265 C267 1.413 . S
C265 H272 0.929 . S
C266 C254 1.392 . S
C266 C267 1.367 . S
C266 H274 0.930 . S
C267 C265 1.413 . S
C267 C266 1.367 . S
C267 H269 0.930 . S
H268 C261 0.930 . S
H269 C267 0.930 . S
H270 C258 0.930 . S
H271 C259 0.930 . S
H272 C265 0.929 . S
H273 C287 0.930 . S
H274 C266 0.930 . S
H275 C293 0.930 . S
H276 C284 0.929 . S
H277 C291 0.930 . S
H278 C255 0.931 . S
H279 C285 0.930 . S
H280 C318 0.930 . S
H281 C262 0.930 . S
H282 C317 0.931 . S
N283 Eu252 2.657 . S
N283 C284 1.334 . S
N283 C288 1.362 . S
C284 H276 0.929 . S
C284 N283 1.334 . S
C284 C287 1.413 . S
C285 H279 0.930 . S
C285 C286 1.392 . S
C285 C287 1.367 . S
C286 C285 1.392 . S
C286 C288 1.420 . S
C286 C318 1.423 . S
C287 H273 0.930 . S
C287 C284 1.413 . S
C287 C285 1.367 . S
C288 N283 1.362 . S
C288 C286 1.420 . S
C288 C292 1.429 . S
H289 C294 0.930 . S
N290 Eu252 2.609 . S
N290 C292 1.377 . S
N290 C293 1.321 . S
C291 H277 0.930 . S
C291 C293 1.400 . S
C291 C294 1.386 . S
C292 C288 1.429 . S
C292 N290 1.377 . S
C292 C295 1.411 . S
C293 H275 0.930 . S
C293 N290 1.321 . S
C293 C291 1.400 . S
C294 H289 0.930 . S
C294 C291 1.386 . S
C294 C295 1.395 . S
C295 C292 1.411 . S
C295 C294 1.395 . S
C295 C317 1.420 . S
O296 Eu252 2.558 . S
O296 C316 1.257 . S
O297 Eu252 2.612 . S
O297 Eu263 2.380 . S
O297 C308 1.276 . S
O298 Eu263 2.432 . S
O298 C315 1.264 . S
O299 Eu252 2.339 . S
O299 C315 1.254 . S
O300 Eu252 2.563 . S
O300 C308 1.235 . S
O301 Eu252 2.419 . S
O301 C316 1.249 . S
O302 Eu263 2.558 . S
O302 C327 1.257 . S
O303 Eu252 2.380 . S
O303 Eu263 2.612 . S
O303 C319 1.276 . S
O304 Eu252 2.432 . S
O304 C326 1.264 . S
O305 Eu263 2.339 . S
O305 C326 1.254 . S
O306 Eu263 2.563 . S
O306 C319 1.235 . S
O307 Eu263 2.419 . S
O307 C327 1.249 . S
C308 O297 1.276 . S
C308 O300 1.235 . S
C309 C311 1.393 . S
C309 C313 1.395 . S
C309 C316 1.492 . S
C310 C311 1.392 . S
C310 C312 1.386 . S
C311 C309 1.393 . S
C311 C310 1.392 . S
C311 H328 0.930 . S
C312 C310 1.386 . S
C312 C314 1.395 . S
C312 H329 0.930 . S
C313 C309 1.395 . S
C313 C314 1.379 . S
C313 H330 0.930 . S
C314 C312 1.395 . S
C314 C313 1.379 . S
C314 H331 0.930 . S
C315 O298 1.264 . S
C315 O299 1.254 . S
C316 Eu252 2.848 . S
C316 O296 1.257 . S
C316 O301 1.249 . S
C316 C309 1.492 . S
C317 H282 0.931 . S
C317 C295 1.420 . S
C317 C318 1.351 . S
C318 H280 0.930 . S
C318 C286 1.423 . S
C318 C317 1.351 . S
C319 O303 1.276 . S
C319 O306 1.235 . S
C320 C321 1.393 . S
C320 C324 1.395 . S
C320 C327 1.492 . S
C321 C320 1.393 . S
C321 C322 1.392 . S
C321 H332 0.930 . S
C322 C321 1.392 . S
C322 C323 1.386 . S
C323 C322 1.386 . S
C323 C325 1.395 . S
C323 H333 0.930 . S
C324 C320 1.395 . S
C324 C325 1.379 . S
C324 H334 0.930 . S
C325 C323 1.395 . S
C325 C324 1.379 . S
C325 H335 0.930 . S
C326 O304 1.264 . S
C326 O305 1.254 . S
C327 Eu263 2.848 . S
C327 O302 1.257 . S
C327 O307 1.249 . S
C327 C320 1.492 . S
H328 C311 0.930 . S
H329 C312 0.930 . S
H330 C313 0.930 . S
H331 C314 0.930 . S
H332 C321 0.930 . S
H333 C323 0.930 . S
H334 C324 0.930 . S
H335 C325 0.930 . S
Eu336 N367 2.657 . S
Eu336 N374 2.609 . S
Eu336 O380 2.558 . S
Eu336 O381 2.612 . S
Eu336 O383 2.339 . S
Eu336 O384 2.563 . S
Eu336 O385 2.419 . S
Eu336 O387 2.380 . S
Eu336 O388 2.432 . S
Eu336 C400 2.848 . S
C337 C340 1.429 . S
C337 C341 1.411 . S
C337 N344 1.377 . S
C338 C340 1.420 . S
C338 C342 1.423 . S
C338 C350 1.392 . S
C339 C341 1.420 . S
C339 C342 1.351 . S
C339 H362 0.931 . S
C340 C337 1.429 . S
C340 C338 1.420 . S
C340 N348 1.362 . S
C341 C337 1.411 . S
C341 C339 1.420 . S
C341 C346 1.395 . S
C342 C338 1.423 . S
C342 C339 1.351 . S
C342 H354 0.930 . S
C343 C345 1.400 . S
C343 C346 1.386 . S
C343 H355 0.930 . S
N344 C337 1.377 . S
N344 C345 1.321 . S
N344 Eu347 2.609 . S
C345 C343 1.400 . S
C345 N344 1.321 . S
C345 H352 0.930 . S
C346 C341 1.395 . S
C346 C343 1.386 . S
C346 H365 0.930 . S
Eu347 N344 2.609 . S
Eu347 N348 2.657 . S
Eu347 O381 2.380 . S
Eu347 O382 2.432 . S
Eu347 O386 2.558 . S
Eu347 O387 2.612 . S
Eu347 O389 2.339 . S
Eu347 O390 2.563 . S
Eu347 O391 2.419 . S
Eu347 C411 2.848 . S
N348 C340 1.362 . S
N348 Eu347 2.657 . S
N348 C349 1.334 . S
C349 N348 1.334 . S
C349 C351 1.413 . S
C349 H356 0.929 . S
C350 C338 1.392 . S
C350 C351 1.367 . S
C350 H358 0.930 . S
C351 C349 1.413 . S
C351 C350 1.367 . S
C351 H353 0.930 . S
H352 C345 0.930 . S
H353 C351 0.930 . S
H354 C342 0.930 . S
H355 C343 0.930 . S
H356 C349 0.929 . S
H357 C371 0.930 . S
H358 C350 0.930 . S
H359 C377 0.930 . S
H360 C368 0.929 . S
H361 C375 0.930 . S
H362 C339 0.931 . S
H363 C369 0.930 . S
H364 C402 0.930 . S
H365 C346 0.930 . S
H366 C401 0.931 . S
N367 Eu336 2.657 . S
N367 C368 1.334 . S
N367 C372 1.362 . S
C368 H360 0.929 . S
C368 N367 1.334 . S
C368 C371 1.413 . S
C369 H363 0.930 . S
C369 C370 1.392 . S
C369 C371 1.367 . S
C370 C369 1.392 . S
C370 C372 1.420 . S
C370 C402 1.423 . S
C371 H357 0.930 . S
C371 C368 1.413 . S
C371 C369 1.367 . S
C372 N367 1.362 . S
C372 C370 1.420 . S
C372 C376 1.429 . S
H373 C378 0.930 . S
N374 Eu336 2.609 . S
N374 C376 1.377 . S
N374 C377 1.321 . S
C375 H361 0.930 . S
C375 C377 1.400 . S
C375 C378 1.386 . S
C376 C372 1.429 . S
C376 N374 1.377 . S
C376 C379 1.411 . S
C377 H359 0.930 . S
C377 N374 1.321 . S
C377 C375 1.400 . S
C378 H373 0.930 . S
C378 C375 1.386 . S
C378 C379 1.395 . S
C379 C376 1.411 . S
C379 C378 1.395 . S
C379 C401 1.420 . S
O380 Eu336 2.558 . S
O380 C400 1.257 . S
O381 Eu336 2.612 . S
O381 Eu347 2.380 . S
O381 C392 1.276 . S
O382 Eu347 2.432 . S
O382 C399 1.264 . S
O383 Eu336 2.339 . S
O383 C399 1.254 . S
O384 Eu336 2.563 . S
O384 C392 1.235 . S
O385 Eu336 2.419 . S
O385 C400 1.249 . S
O386 Eu347 2.558 . S
O386 C411 1.257 . S
O387 Eu336 2.380 . S
O387 Eu347 2.612 . S
O387 C403 1.276 . S
O388 Eu336 2.432 . S
O388 C410 1.264 . S
O389 Eu347 2.339 . S
O389 C410 1.254 . S
O390 Eu347 2.563 . S
O390 C403 1.235 . S
O391 Eu347 2.419 . S
O391 C411 1.249 . S
C392 O381 1.276 . S
C392 O384 1.235 . S
C393 C395 1.393 . S
C393 C397 1.395 . S
C393 C400 1.492 . S
C394 C395 1.392 . S
C394 C396 1.386 . S
C395 C393 1.393 . S
C395 C394 1.392 . S
C395 H412 0.930 . S
C396 C394 1.386 . S
C396 C398 1.395 . S
C396 H413 0.930 . S
C397 C393 1.395 . S
C397 C398 1.379 . S
C397 H414 0.930 . S
C398 C396 1.395 . S
C398 C397 1.379 . S
C398 H415 0.930 . S
C399 O382 1.264 . S
C399 O383 1.254 . S
C400 Eu336 2.848 . S
C400 O380 1.257 . S
C400 O385 1.249 . S
C400 C393 1.492 . S
C401 H366 0.931 . S
C401 C379 1.420 . S
C401 C402 1.351 . S
C402 H364 0.930 . S
C402 C370 1.423 . S
C402 C401 1.351 . S
C403 O387 1.276 . S
C403 O390 1.235 . S
C404 C405 1.393 . S
C404 C408 1.395 . S
C404 C411 1.492 . S
C405 C404 1.393 . S
C405 C406 1.392 . S
C405 H416 0.930 . S
C406 C405 1.392 . S
C406 C407 1.386 . S
C407 C406 1.386 . S
C407 C409 1.395 . S
C407 H417 0.930 . S
C408 C404 1.395 . S
C408 C409 1.379 . S
C408 H418 0.930 . S
C409 C407 1.395 . S
C409 C408 1.379 . S
C409 H419 0.930 . S
C410 O388 1.264 . S
C410 O389 1.254 . S
C411 Eu347 2.848 . S
C411 O386 1.257 . S
C411 O391 1.249 . S
C411 C404 1.492 . S
H412 C395 0.930 . S
H413 C396 0.930 . S
H414 C397 0.930 . S
H415 C398 0.930 . S
H416 C405 0.930 . S
H417 C407 0.930 . S
H418 C408 0.930 . S
H419 C409 0.930 . S
Eu420 N451 2.657 . S
Eu420 N458 2.609 . S
Eu420 O464 2.558 . S
Eu420 O465 2.612 . S
Eu420 O467 2.339 . S
Eu420 O468 2.563 . S
Eu420 O469 2.419 . S
Eu420 O471 2.380 . S
Eu420 O472 2.432 . S
Eu420 C484 2.848 . S
C421 C424 1.429 . S
C421 C425 1.411 . S
C421 N428 1.377 . S
C422 C424 1.420 . S
C422 C426 1.423 . S
C422 C434 1.392 . S
C423 C425 1.420 . S
C423 C426 1.351 . S
C423 H446 0.931 . S
C424 C421 1.429 . S
C424 C422 1.420 . S
C424 N432 1.362 . S
C425 C421 1.411 . S
C425 C423 1.420 . S
C425 C430 1.395 . S
C426 C422 1.423 . S
C426 C423 1.351 . S
C426 H438 0.930 . S
C427 C429 1.400 . S
C427 C430 1.386 . S
C427 H439 0.930 . S
N428 C421 1.377 . S
N428 C429 1.321 . S
N428 Eu431 2.609 . S
C429 C427 1.400 . S
C429 N428 1.321 . S
C429 H436 0.930 . S
C430 C425 1.395 . S
C430 C427 1.386 . S
C430 H449 0.930 . S
Eu431 N428 2.609 . S
Eu431 N432 2.657 . S
Eu431 O465 2.380 . S
Eu431 O466 2.432 . S
Eu431 O470 2.558 . S
Eu431 O471 2.612 . S
Eu431 O473 2.339 . S
Eu431 O474 2.563 . S
Eu431 O475 2.419 . S
Eu431 C495 2.848 . S
N432 C424 1.362 . S
N432 Eu431 2.657 . S
N432 C433 1.334 . S
C433 N432 1.334 . S
C433 C435 1.413 . S
C433 H440 0.929 . S
C434 C422 1.392 . S
C434 C435 1.367 . S
C434 H442 0.930 . S
C435 C433 1.413 . S
C435 C434 1.367 . S
C435 H437 0.930 . S
H436 C429 0.930 . S
H437 C435 0.930 . S
H438 C426 0.930 . S
H439 C427 0.930 . S
H440 C433 0.929 . S
H441 C455 0.930 . S
H442 C434 0.930 . S
H443 C461 0.930 . S
H444 C452 0.929 . S
H445 C459 0.930 . S
H446 C423 0.931 . S
H447 C453 0.930 . S
H448 C486 0.930 . S
H449 C430 0.930 . S
H450 C485 0.931 . S
N451 Eu420 2.657 . S
N451 C452 1.334 . S
N451 C456 1.362 . S
C452 H444 0.929 . S
C452 N451 1.334 . S
C452 C455 1.413 . S
C453 H447 0.930 . S
C453 C454 1.392 . S
C453 C455 1.367 . S
C454 C453 1.392 . S
C454 C456 1.420 . S
C454 C486 1.423 . S
C455 H441 0.930 . S
C455 C452 1.413 . S
C455 C453 1.367 . S
C456 N451 1.362 . S
C456 C454 1.420 . S
C456 C460 1.429 . S
H457 C462 0.930 . S
N458 Eu420 2.609 . S
N458 C460 1.377 . S
N458 C461 1.321 . S
C459 H445 0.930 . S
C459 C461 1.400 . S
C459 C462 1.386 . S
C460 C456 1.429 . S
C460 N458 1.377 . S
C460 C463 1.411 . S
C461 H443 0.930 . S
C461 N458 1.321 . S
C461 C459 1.400 . S
C462 H457 0.930 . S
C462 C459 1.386 . S
C462 C463 1.395 . S
C463 C460 1.411 . S
C463 C462 1.395 . S
C463 C485 1.420 . S
O464 Eu420 2.558 . S
O464 C484 1.257 . S
O465 Eu420 2.612 . S
O465 Eu431 2.380 . S
O465 C476 1.276 . S
O466 Eu431 2.432 . S
O466 C483 1.264 . S
O467 Eu420 2.339 . S
O467 C483 1.254 . S
O468 Eu420 2.563 . S
O468 C476 1.235 . S
O469 Eu420 2.419 . S
O469 C484 1.249 . S
O470 Eu431 2.558 . S
O470 C495 1.257 . S
O471 Eu420 2.380 . S
O471 Eu431 2.612 . S
O471 C487 1.276 . S
O472 Eu420 2.432 . S
O472 C494 1.264 . S
O473 Eu431 2.339 . S
O473 C494 1.254 . S
O474 Eu431 2.563 . S
O474 C487 1.235 . S
O475 Eu431 2.419 . S
O475 C495 1.249 . S
C476 O465 1.276 . S
C476 O468 1.235 . S
C477 C479 1.393 . S
C477 C481 1.395 . S
C477 C484 1.492 . S
C478 C479 1.392 . S
C478 C480 1.386 . S
C479 C477 1.393 . S
C479 C478 1.392 . S
C479 H496 0.930 . S
C480 C478 1.386 . S
C480 C482 1.395 . S
C480 H497 0.930 . S
C481 C477 1.395 . S
C481 C482 1.379 . S
C481 H498 0.930 . S
C482 C480 1.395 . S
C482 C481 1.379 . S
C482 H499 0.930 . S
C483 O466 1.264 . S
C483 O467 1.254 . S
C484 Eu420 2.848 . S
C484 O464 1.257 . S
C484 O469 1.249 . S
C484 C477 1.492 . S
C485 H450 0.931 . S
C485 C463 1.420 . S
C485 C486 1.351 . S
C486 H448 0.930 . S
C486 C454 1.423 . S
C486 C485 1.351 . S
C487 O471 1.276 . S
C487 O474 1.235 . S
C488 C489 1.393 . S
C488 C492 1.395 . S
C488 C495 1.492 . S
C489 C488 1.393 . S
C489 C490 1.392 . S
C489 H500 0.930 . S
C490 C489 1.392 . S
C490 C491 1.386 . S
C491 C490 1.386 . S
C491 C493 1.395 . S
C491 H501 0.930 . S
C492 C488 1.395 . S
C492 C493 1.379 . S
C492 H502 0.930 . S
C493 C491 1.395 . S
C493 C492 1.379 . S
C493 H503 0.930 . S
C494 O472 1.264 . S
C494 O473 1.254 . S
C495 Eu431 2.848 . S
C495 O470 1.257 . S
C495 O475 1.249 . S
C495 C488 1.492 . S
H496 C479 0.930 . S
H497 C480 0.930 . S
H498 C481 0.930 . S
H499 C482 0.930 . S
H500 C489 0.930 . S
H501 C491 0.930 . S
H502 C492 0.930 . S
H503 C493 0.930 . S
Eu504 N535 2.657 . S
Eu504 N542 2.609 . S
Eu504 O548 2.558 . S
Eu504 O549 2.612 . S
Eu504 O551 2.339 . S
Eu504 O552 2.563 . S
Eu504 O553 2.419 . S
Eu504 O555 2.380 . S
Eu504 O556 2.432 . S
Eu504 C568 2.848 . S
C505 C508 1.429 . S
C505 C509 1.411 . S
C505 N512 1.377 . S
C506 C508 1.420 . S
C506 C510 1.423 . S
C506 C518 1.392 . S
C507 C509 1.420 . S
C507 C510 1.351 . S
C507 H530 0.931 . S
C508 C505 1.429 . S
C508 C506 1.420 . S
C508 N516 1.362 . S
C509 C505 1.411 . S
C509 C507 1.420 . S
C509 C514 1.395 . S
C510 C506 1.423 . S
C510 C507 1.351 . S
C510 H522 0.930 . S
C511 C513 1.400 . S
C511 C514 1.386 . S
C511 H523 0.930 . S
N512 C505 1.377 . S
N512 C513 1.321 . S
N512 Eu515 2.609 . S
C513 C511 1.400 . S
C513 N512 1.321 . S
C513 H520 0.930 . S
C514 C509 1.395 . S
C514 C511 1.386 . S
C514 H533 0.930 . S
Eu515 N512 2.609 . S
Eu515 N516 2.657 . S
Eu515 O549 2.380 . S
Eu515 O550 2.432 . S
Eu515 O554 2.558 . S
Eu515 O555 2.612 . S
Eu515 O557 2.339 . S
Eu515 O558 2.563 . S
Eu515 O559 2.419 . S
Eu515 C579 2.848 . S
N516 C508 1.362 . S
N516 Eu515 2.657 . S
N516 C517 1.334 . S
C517 N516 1.334 . S
C517 C519 1.413 . S
C517 H524 0.929 . S
C518 C506 1.392 . S
C518 C519 1.367 . S
C518 H526 0.930 . S
C519 C517 1.413 . S
C519 C518 1.367 . S
C519 H521 0.930 . S
H520 C513 0.930 . S
H521 C519 0.930 . S
H522 C510 0.930 . S
H523 C511 0.930 . S
H524 C517 0.929 . S
H525 C539 0.930 . S
H526 C518 0.930 . S
H527 C545 0.930 . S
H528 C536 0.929 . S
H529 C543 0.930 . S
H530 C507 0.931 . S
H531 C537 0.930 . S
H532 C570 0.930 . S
H533 C514 0.930 . S
H534 C569 0.931 . S
N535 Eu504 2.657 . S
N535 C536 1.334 . S
N535 C540 1.362 . S
C536 H528 0.929 . S
C536 N535 1.334 . S
C536 C539 1.413 . S
C537 H531 0.930 . S
C537 C538 1.392 . S
C537 C539 1.367 . S
C538 C537 1.392 . S
C538 C540 1.420 . S
C538 C570 1.423 . S
C539 H525 0.930 . S
C539 C536 1.413 . S
C539 C537 1.367 . S
C540 N535 1.362 . S
C540 C538 1.420 . S
C540 C544 1.429 . S
H541 C546 0.930 . S
N542 Eu504 2.609 . S
N542 C544 1.377 . S
N542 C545 1.321 . S
C543 H529 0.930 . S
C543 C545 1.400 . S
C543 C546 1.386 . S
C544 C540 1.429 . S
C544 N542 1.377 . S
C544 C547 1.411 . S
C545 H527 0.930 . S
C545 N542 1.321 . S
C545 C543 1.400 . S
C546 H541 0.930 . S
C546 C543 1.386 . S
C546 C547 1.395 . S
C547 C544 1.411 . S
C547 C546 1.395 . S
C547 C569 1.420 . S
O548 Eu504 2.558 . S
O548 C568 1.257 . S
O549 Eu504 2.612 . S
O549 Eu515 2.380 . S
O549 C560 1.276 . S
O550 Eu515 2.432 . S
O550 C567 1.264 . S
O551 Eu504 2.339 . S
O551 C567 1.254 . S
O552 Eu504 2.563 . S
O552 C560 1.235 . S
O553 Eu504 2.419 . S
O553 C568 1.249 . S
O554 Eu515 2.558 . S
O554 C579 1.257 . S
O555 Eu504 2.380 . S
O555 Eu515 2.612 . S
O555 C571 1.276 . S
O556 Eu504 2.432 . S
O556 C578 1.264 . S
O557 Eu515 2.339 . S
O557 C578 1.254 . S
O558 Eu515 2.563 . S
O558 C571 1.235 . S
O559 Eu515 2.419 . S
O559 C579 1.249 . S
C560 O549 1.276 . S
C560 O552 1.235 . S
C561 C563 1.393 . S
C561 C565 1.395 . S
C561 C568 1.492 . S
C562 C563 1.392 . S
C562 C564 1.386 . S
C563 C561 1.393 . S
C563 C562 1.392 . S
C563 H580 0.930 . S
C564 C562 1.386 . S
C564 C566 1.395 . S
C564 H581 0.930 . S
C565 C561 1.395 . S
C565 C566 1.379 . S
C565 H582 0.930 . S
C566 C564 1.395 . S
C566 C565 1.379 . S
C566 H583 0.930 . S
C567 O550 1.264 . S
C567 O551 1.254 . S
C568 Eu504 2.848 . S
C568 O548 1.257 . S
C568 O553 1.249 . S
C568 C561 1.492 . S
C569 H534 0.931 . S
C569 C547 1.420 . S
C569 C570 1.351 . S
C570 H532 0.930 . S
C570 C538 1.423 . S
C570 C569 1.351 . S
C571 O555 1.276 . S
C571 O558 1.235 . S
C572 C573 1.393 . S
C572 C576 1.395 . S
C572 C579 1.492 . S
C573 C572 1.393 . S
C573 C574 1.392 . S
C573 H584 0.930 . S
C574 C573 1.392 . S
C574 C575 1.386 . S
C575 C574 1.386 . S
C575 C577 1.395 . S
C575 H585 0.930 . S
C576 C572 1.395 . S
C576 C577 1.379 . S
C576 H586 0.930 . S
C577 C575 1.395 . S
C577 C576 1.379 . S
C577 H587 0.930 . S
C578 O556 1.264 . S
C578 O557 1.254 . S
C579 Eu515 2.848 . S
C579 O554 1.257 . S
C579 O559 1.249 . S
C579 C572 1.492 . S
H580 C563 0.930 . S
H581 C564 0.930 . S
H582 C565 0.930 . S
H583 C566 0.930 . S
H584 C573 0.930 . S
H585 C575 0.930 . S
H586 C576 0.930 . S
H587 C577 0.930 . S
Eu588 N619 2.657 . S
Eu588 N626 2.609 . S
Eu588 O632 2.558 . S
Eu588 O633 2.612 . S
Eu588 O635 2.339 . S
Eu588 O636 2.563 . S
Eu588 O637 2.419 . S
Eu588 O639 2.380 . S
Eu588 O640 2.432 . S
Eu588 C652 2.848 . S
C589 C592 1.429 . S
C589 C593 1.411 . S
C589 N596 1.377 . S
C590 C592 1.420 . S
C590 C594 1.423 . S
C590 C602 1.392 . S
C591 C593 1.420 . S
C591 C594 1.351 . S
C591 H614 0.931 . S
C592 C589 1.429 . S
C592 C590 1.420 . S
C592 N600 1.362 . S
C593 C589 1.411 . S
C593 C591 1.420 . S
C593 C598 1.395 . S
C594 C590 1.423 . S
C594 C591 1.351 . S
C594 H606 0.930 . S
C595 C597 1.400 . S
C595 C598 1.386 . S
C595 H607 0.930 . S
N596 C589 1.377 . S
N596 C597 1.321 . S
N596 Eu599 2.609 . S
C597 C595 1.400 . S
C597 N596 1.321 . S
C597 H604 0.930 . S
C598 C593 1.395 . S
C598 C595 1.386 . S
C598 H617 0.930 . S
Eu599 N596 2.609 . S
Eu599 N600 2.657 . S
Eu599 O633 2.380 . S
Eu599 O634 2.432 . S
Eu599 O638 2.558 . S
Eu599 O639 2.612 . S
Eu599 O641 2.339 . S
Eu599 O642 2.563 . S
Eu599 O643 2.419 . S
Eu599 C663 2.848 . S
N600 C592 1.362 . S
N600 Eu599 2.657 . S
N600 C601 1.334 . S
C601 N600 1.334 . S
C601 C603 1.413 . S
C601 H608 0.929 . S
C602 C590 1.392 . S
C602 C603 1.367 . S
C602 H610 0.930 . S
C603 C601 1.413 . S
C603 C602 1.367 . S
C603 H605 0.930 . S
H604 C597 0.930 . S
H605 C603 0.930 . S
H606 C594 0.930 . S
H607 C595 0.930 . S
H608 C601 0.929 . S
H609 C623 0.930 . S
H610 C602 0.930 . S
H611 C629 0.930 . S
H612 C620 0.929 . S
H613 C627 0.930 . S
H614 C591 0.931 . S
H615 C621 0.930 . S
H616 C654 0.930 . S
H617 C598 0.930 . S
H618 C653 0.931 . S
N619 Eu588 2.657 . S
N619 C620 1.334 . S
N619 C624 1.362 . S
C620 H612 0.929 . S
C620 N619 1.334 . S
C620 C623 1.413 . S
C621 H615 0.930 . S
C621 C622 1.392 . S
C621 C623 1.367 . S
C622 C621 1.392 . S
C622 C624 1.420 . S
C622 C654 1.423 . S
C623 H609 0.930 . S
C623 C620 1.413 . S
C623 C621 1.367 . S
C624 N619 1.362 . S
C624 C622 1.420 . S
C624 C628 1.429 . S
H625 C630 0.930 . S
N626 Eu588 2.609 . S
N626 C628 1.377 . S
N626 C629 1.321 . S
C627 H613 0.930 . S
C627 C629 1.400 . S
C627 C630 1.386 . S
C628 C624 1.429 . S
C628 N626 1.377 . S
C628 C631 1.411 . S
C629 H611 0.930 . S
C629 N626 1.321 . S
C629 C627 1.400 . S
C630 H625 0.930 . S
C630 C627 1.386 . S
C630 C631 1.395 . S
C631 C628 1.411 . S
C631 C630 1.395 . S
C631 C653 1.420 . S
O632 Eu588 2.558 . S
O632 C652 1.257 . S
O633 Eu588 2.612 . S
O633 Eu599 2.380 . S
O633 C644 1.276 . S
O634 Eu599 2.432 . S
O634 C651 1.264 . S
O635 Eu588 2.339 . S
O635 C651 1.254 . S
O636 Eu588 2.563 . S
O636 C644 1.235 . S
O637 Eu588 2.419 . S
O637 C652 1.249 . S
O638 Eu599 2.558 . S
O638 C663 1.257 . S
O639 Eu588 2.380 . S
O639 Eu599 2.612 . S
O639 C655 1.276 . S
O640 Eu588 2.432 . S
O640 C662 1.264 . S
O641 Eu599 2.339 . S
O641 C662 1.254 . S
O642 Eu599 2.563 . S
O642 C655 1.235 . S
O643 Eu599 2.419 . S
O643 C663 1.249 . S
C644 O633 1.276 . S
C644 O636 1.235 . S
C645 C647 1.393 . S
C645 C649 1.395 . S
C645 C652 1.492 . S
C646 C647 1.392 . S
C646 C648 1.386 . S
C647 C645 1.393 . S
C647 C646 1.392 . S
C647 H664 0.930 . S
C648 C646 1.386 . S
C648 C650 1.395 . S
C648 H665 0.930 . S
C649 C645 1.395 . S
C649 C650 1.379 . S
C649 H666 0.930 . S
C650 C648 1.395 . S
C650 C649 1.379 . S
C650 H667 0.930 . S
C651 O634 1.264 . S
C651 O635 1.254 . S
C652 Eu588 2.848 . S
C652 O632 1.257 . S
C652 O637 1.249 . S
C652 C645 1.492 . S
C653 H618 0.931 . S
C653 C631 1.420 . S
C653 C654 1.351 . S
C654 H616 0.930 . S
C654 C622 1.423 . S
C654 C653 1.351 . S
C655 O639 1.276 . S
C655 O642 1.235 . S
C656 C657 1.393 . S
C656 C660 1.395 . S
C656 C663 1.492 . S
C657 C656 1.393 . S
C657 C658 1.392 . S
C657 H668 0.930 . S
C658 C657 1.392 . S
C658 C659 1.386 . S
C659 C658 1.386 . S
C659 C661 1.395 . S
C659 H669 0.930 . S
C660 C656 1.395 . S
C660 C661 1.379 . S
C660 H670 0.930 . S
C661 C659 1.395 . S
C661 C660 1.379 . S
C661 H671 0.930 . S
C662 O640 1.264 . S
C662 O641 1.254 . S
C663 Eu599 2.848 . S
C663 O638 1.257 . S
C663 O643 1.249 . S
C663 C656 1.492 . S
H664 C647 0.930 . S
H665 C648 0.930 . S
H666 C649 0.930 . S
H667 C650 0.930 . S
H668 C657 0.930 . S
H669 C659 0.930 . S
H670 C660 0.930 . S
H671 C661 0.930 . S
C672 O684 1.241 . S
C672 O685 1.280 . S
C673 O686 1.277 . S
C673 O687 1.245 . S
C674 O698 1.247 . S
C674 O700 1.289 . S
Mg675 O676 1.926 . S
Mg675 O685 1.984 . S
Mg675 O687 1.988 . S
Mg675 O688 2.061 1_655 S
O676 Mg675 1.926 . S
O676 Mg677 1.986 1_545 S
O676 Mg678 1.900 1_655 S
Mg677 O676 1.986 1_565 S
Mg677 O684 2.042 1_565 S
Mg677 O686 2.041 1_565 S
Mg677 O692 2.038 . S
Mg677 O700 2.238 . S
Mg678 O676 1.900 1_455 S
Mg678 O679 1.934 1_545 S
Mg678 O689 2.125 . S
Mg678 O691 2.070 1_445 S
Mg678 O700 2.088 1_445 S
Mg678 O701 2.088 . S
O679 Mg678 1.934 1_565 S
O679 Mg680 1.926 . S
O679 Mg681 1.986 1_565 S
Mg680 O679 1.926 . S
Mg680 O694 1.984 . S
Mg680 O697 1.988 . S
Mg680 O698 2.061 1_455 S
Mg681 O679 1.986 1_545 S
Mg681 O689 2.238 . S
Mg681 O693 2.042 1_545 S
Mg681 O695 2.041 1_545 S
Mg681 O702 2.038 . S
C682 O688 1.247 . S
C682 O689 1.289 . S
C683 O701 1.245 . S
C683 O702 1.274 . S
O684 C672 1.241 . S
O684 Mg677 2.042 1_545 S
O685 C672 1.280 . S
O685 Mg675 1.984 . S
O686 C673 1.277 . S
O686 Mg677 2.041 1_545 S
O687 C673 1.245 . S
O687 Mg675 1.988 . S
O688 Mg675 2.061 1_455 S
O688 C682 1.247 . S
O689 Mg678 2.125 . S
O689 Mg681 2.238 . S
O689 C682 1.289 . S
C690 O691 1.245 . S
C690 O692 1.274 . S
O691 Mg678 2.070 1_665 S
O691 C690 1.245 . S
O692 Mg677 2.038 . S
O692 C690 1.274 . S
O693 Mg681 2.042 1_565 S
O693 C696 1.241 . S
O694 Mg680 1.984 . S
O694 C696 1.280 . S
O695 Mg681 2.041 1_565 S
O695 C699 1.277 . S
C696 O693 1.241 . S
C696 O694 1.280 . S
O697 Mg680 1.988 . S
O697 C699 1.245 . S
O698 C674 1.247 . S
O698 Mg680 2.061 1_655 S
C699 O695 1.277 . S
C699 O697 1.245 . S
O700 C674 1.289 . S
O700 Mg677 2.238 . S
O700 Mg678 2.088 1_665 S
O701 Mg678 2.088 . S
O701 C683 1.245 . S
O702 Mg681 2.038 . S
O702 C683 1.274 . S
C703 O715 1.241 . S
C703 O716 1.280 . S
C704 O717 1.277 . S
C704 O718 1.245 . S
C705 O729 1.247 . S
C705 O731 1.289 . S
Mg706 O707 1.926 . S
Mg706 O716 1.984 . S
Mg706 O718 1.988 1_554 S
Mg706 O719 2.061 . S
O707 Mg706 1.926 . S
O707 Mg708 1.986 1_544 S
O707 Mg709 1.923 . S
Mg708 O707 1.986 1_566 S
Mg708 O715 2.042 1_566 S
Mg708 O717 2.041 1_565 S
Mg708 O723 2.038 1_556 S
Mg708 O731 2.238 . S
Mg709 O707 1.923 . S
Mg709 O710 1.911 1_544 S
Mg709 O720 2.109 . S
Mg709 O722 2.079 1_545 S
Mg709 O731 2.104 1_544 S
Mg709 O732 2.079 1_554 S
O710 Mg709 1.911 1_566 S
O710 Mg711 1.926 . S
O710 Mg712 1.986 1_566 S
Mg711 O710 1.926 . S
Mg711 O725 1.984 . S
Mg711 O728 1.988 1_556 S
Mg711 O729 2.061 . S
Mg712 O710 1.986 1_544 S
Mg712 O720 2.238 . S
Mg712 O724 2.042 1_544 S
Mg712 O726 2.041 1_545 S
Mg712 O733 2.038 1_554 S
C713 O719 1.247 . S
C713 O720 1.289 . S
C714 O732 1.245 . S
C714 O733 1.274 . S
O715 C703 1.241 . S
O715 Mg708 2.042 1_544 S
O716 C703 1.280 . S
O716 Mg706 1.984 . S
O717 C704 1.277 . S
O717 Mg708 2.041 1_545 S
O718 C704 1.245 . S
O718 Mg706 1.988 1_556 S
O719 Mg706 2.061 . S
O719 C713 1.247 . S
O720 Mg709 2.109 . S
O720 Mg712 2.238 . S
O720 C713 1.289 . S
C721 O722 1.245 . S
C721 O723 1.274 . S
O722 Mg709 2.079 1_565 S
O722 C721 1.245 . S
O723 Mg708 2.038 1_554 S
O723 C721 1.274 . S
O724 Mg712 2.042 1_566 S
O724 C727 1.241 . S
O725 Mg711 1.984 . S
O725 C727 1.280 . S
O726 Mg712 2.041 1_565 S
O726 C730 1.277 . S
C727 O724 1.241 . S
C727 O725 1.280 . S
O728 Mg711 1.988 1_554 S
O728 C730 1.245 . S
O729 C705 1.247 . S
O729 Mg711 2.061 . S
C730 O726 1.277 . S
C730 O728 1.245 . S
O731 C705 1.289 . S
O731 Mg708 2.238 . S
O731 Mg709 2.104 1_566 S
O732 Mg709 2.079 1_556 S
O732 C714 1.245 . S
O733 Mg712 2.038 1_556 S
O733 C714 1.274 . S
C734 O746 1.241 . S
C734 O747 1.280 . S
C735 O748 1.277 . S
C735 O749 1.245 . S
C736 O760 1.247 . S
C736 O762 1.289 . S
Mg737 O738 1.926 . S
Mg737 O747 1.984 . S
Mg737 O749 1.988 1_554 S
Mg737 O750 2.061 1_655 S
O738 Mg737 1.926 . S
O738 Mg739 1.986 1_554 S
O738 Mg740 1.896 1_655 S
Mg739 O738 1.986 1_556 S
Mg739 O746 2.042 1_556 S
Mg739 O748 2.041 . S
Mg739 O754 2.038 1_556 S
Mg739 O762 2.238 . S
Mg740 O738 1.896 1_455 S
Mg740 O741 1.938 1_554 S
Mg740 O751 2.125 . S
Mg740 O753 2.075 1_455 S
Mg740 O762 2.088 1_454 S
Mg740 O763 2.082 1_554 S
O741 Mg740 1.938 1_556 S
O741 Mg742 1.926 . S
O741 Mg743 1.986 1_556 S
Mg742 O741 1.926 . S
Mg742 O756 1.984 . S
Mg742 O759 1.988 1_556 S
Mg742 O760 2.061 1_455 S
Mg743 O741 1.986 1_554 S
Mg743 O751 2.238 . S
Mg743 O755 2.042 1_554 S
Mg743 O757 2.041 . S
Mg743 O764 2.038 1_554 S
C744 O750 1.247 . S
C744 O751 1.289 . S
C745 O763 1.245 . S
C745 O764 1.274 . S
O746 C734 1.241 . S
O746 Mg739 2.042 1_554 S
O747 C734 1.280 . S
O747 Mg737 1.984 . S
O748 C735 1.277 . S
O748 Mg739 2.041 . S
O749 C735 1.245 . S
O749 Mg737 1.988 1_556 S
O750 Mg737 2.061 1_455 S
O750 C744 1.247 . S
O751 Mg740 2.125 . S
O751 Mg743 2.238 . S
O751 C744 1.289 . S
C752 O753 1.245 . S
C752 O754 1.274 . S
O753 Mg740 2.075 1_655 S
O753 C752 1.245 . S
O754 Mg739 2.038 1_554 S
O754 C752 1.274 . S
O755 Mg743 2.042 1_556 S
O755 C758 1.241 . S
O756 Mg742 1.984 . S
O756 C758 1.280 . S
O757 Mg743 2.041 . S
O757 C761 1.277 . S
C758 O755 1.241 . S
C758 O756 1.280 . S
O759 Mg742 1.988 1_554 S
O759 C761 1.245 . S
O760 C736 1.247 . S
O760 Mg742 2.061 1_655 S
C761 O757 1.277 . S
C761 O759 1.245 . S
O762 C736 1.289 . S
O762 Mg739 2.238 . S
O762 Mg740 2.088 1_656 S
O763 Mg740 2.082 1_556 S
O763 C745 1.245 . S
O764 Mg743 2.038 1_556 S
O764 C745 1.274 . S
C765 O777 1.241 . S
C765 O778 1.280 . S
C766 O779 1.277 . S
C766 O780 1.245 . S
C767 O791 1.247 . S
C767 O793 1.289 . S
Mg768 O769 1.926 . S
Mg768 O778 1.984 . S
Mg768 O780 1.988 1_554 S
Mg768 O781 2.061 . S
O769 Mg768 1.926 . S
O769 Mg770 1.986 1_554 S
O769 Mg771 1.918 . S
Mg770 O769 1.986 1_556 S
Mg770 O777 2.042 1_556 S
Mg770 O779 2.041 . S
Mg770 O785 2.038 1_556 S
Mg770 O793 2.238 . S
Mg771 O769 1.918 . S
Mg771 O772 1.916 1_554 S
Mg771 O782 2.108 . S
Mg771 O784 2.081 . S
Mg771 O793 2.105 1_554 S
Mg771 O794 2.076 1_554 S
O772 Mg771 1.916 1_556 S
O772 Mg773 1.926 . S
O772 Mg774 1.986 1_556 S
Mg773 O772 1.926 . S
Mg773 O787 1.984 . S
Mg773 O790 1.988 1_556 S
Mg773 O791 2.061 . S
Mg774 O772 1.986 1_554 S
Mg774 O782 2.238 . S
Mg774 O786 2.042 1_554 S
Mg774 O788 2.041 . S
Mg774 O795 2.038 1_554 S
C775 O781 1.247 . S
C775 O782 1.289 . S
C776 O794 1.245 . S
C776 O795 1.274 . S
O777 C765 1.241 . S
O777 Mg770 2.042 1_554 S
O778 C765 1.280 . S
O778 Mg768 1.984 . S
O779 C766 1.277 . S
O779 Mg770 2.041 . S
O780 C766 1.245 . S
O780 Mg768 1.988 1_556 S
O781 Mg768 2.061 . S
O781 C775 1.247 . S
O782 Mg771 2.108 . S
O782 Mg774 2.238 . S
O782 C775 1.289 . S
C783 O784 1.245 . S
C783 O785 1.274 . S
O784 Mg771 2.081 . S
O784 C783 1.245 . S
O785 Mg770 2.038 1_554 S
O785 C783 1.274 . S
O786 Mg774 2.042 1_556 S
O786 C789 1.241 . S
O787 Mg773 1.984 . S
O787 C789 1.280 . S
O788 Mg774 2.041 . S
O788 C792 1.277 . S
C789 O786 1.241 . S
C789 O787 1.280 . S
O790 Mg773 1.988 1_554 S
O790 C792 1.245 . S
O791 C767 1.247 . S
O791 Mg773 2.061 . S
C792 O788 1.277 . S
C792 O790 1.245 . S
O793 C767 1.289 . S
O793 Mg770 2.238 . S
O793 Mg771 2.105 1_556 S
O794 Mg771 2.076 1_556 S
O794 C776 1.245 . S
O795 Mg774 2.038 1_556 S
O795 C776 1.274 . S
C796 O808 1.241 . S
C796 O809 1.280 . S
C797 O810 1.277 . S
C797 O811 1.245 . S
C798 O822 1.247 . S
C798 O824 1.289 . S
Mg799 O800 1.926 . S
Mg799 O809 1.984 . S
Mg799 O811 1.988 . S
Mg799 O812 2.061 1_655 S
O800 Mg799 1.926 . S
O800 Mg801 1.986 . S
O800 Mg802 1.894 1_655 S
Mg801 O800 1.986 . S
Mg801 O808 2.042 . S
Mg801 O810 2.041 . S
Mg801 O816 2.038 . S
Mg801 O824 2.238 . S
Mg802 O800 1.894 1_455 S
Mg802 O803 1.940 . S
Mg802 O813 2.123 . S
Mg802 O815 2.073 1_455 S
Mg802 O824 2.090 1_455 S
Mg802 O825 2.085 . S
O803 Mg802 1.940 . S
O803 Mg804 1.926 . S
O803 Mg805 1.986 . S
Mg804 O803 1.926 . S
Mg804 O818 1.984 . S
Mg804 O821 1.988 . S
Mg804 O822 2.061 1_455 S
Mg805 O803 1.986 . S
Mg805 O813 2.238 . S
Mg805 O817 2.042 . S
Mg805 O819 2.041 . S
Mg805 O826 2.038 . S
C806 O812 1.247 . S
C806 O813 1.289 . S
C807 O825 1.245 . S
C807 O826 1.274 . S
O808 C796 1.241 . S
O808 Mg801 2.042 . S
O809 C796 1.280 . S
O809 Mg799 1.984 . S
O810 C797 1.277 . S
O810 Mg801 2.041 . S
O811 C797 1.245 . S
O811 Mg799 1.988 . S
O812 Mg799 2.061 1_455 S
O812 C806 1.247 . S
O813 Mg802 2.123 . S
O813 Mg805 2.238 . S
O813 C806 1.289 . S
C814 O815 1.245 . S
C814 O816 1.274 . S
O815 Mg802 2.073 1_655 S
O815 C814 1.245 . S
O816 Mg801 2.038 . S
O816 C814 1.274 . S
O817 Mg805 2.042 . S
O817 C820 1.241 . S
O818 Mg804 1.984 . S
O818 C820 1.280 . S
O819 Mg805 2.041 . S
O819 C823 1.277 . S
C820 O817 1.241 . S
C820 O818 1.280 . S
O821 Mg804 1.988 . S
O821 C823 1.245 . S
O822 C798 1.247 . S
O822 Mg804 2.061 1_655 S
C823 O819 1.277 . S
C823 O821 1.245 . S
O824 C798 1.289 . S
O824 Mg801 2.238 . S
O824 Mg802 2.090 1_655 S
O825 Mg802 2.085 . S
O825 C807 1.245 . S
O826 Mg805 2.038 . S
O826 C807 1.274 . S
C827 O839 1.241 . S
C827 O840 1.280 . S
C828 O841 1.277 . S
C828 O842 1.245 . S
C829 O853 1.247 . S
C829 O855 1.289 . S
Mg830 O831 1.926 . S
Mg830 O840 1.984 . S
Mg830 O842 1.988 . S
Mg830 O843 2.061 . S
O831 Mg830 1.926 . S
O831 Mg832 1.986 1_545 S
O831 Mg833 1.922 . S
Mg832 O831 1.986 1_565 S
Mg832 O839 2.042 1_565 S
Mg832 O841 2.041 1_565 S
Mg832 O847 2.038 . S
Mg832 O855 2.238 . S
Mg833 O831 1.922 . S
Mg833 O834 1.912 1_545 S
Mg833 O844 2.107 . S
Mg833 O846 2.076 1_545 S
Mg833 O855 2.105 1_545 S
Mg833 O856 2.081 . S
O834 Mg833 1.912 1_565 S
O834 Mg835 1.926 . S
O834 Mg836 1.986 1_565 S
Mg835 O834 1.926 . S
Mg835 O849 1.984 . S
Mg835 O852 1.988 . S
Mg835 O853 2.061 . S
Mg836 O834 1.986 1_545 S
Mg836 O844 2.238 . S
Mg836 O848 2.042 1_545 S
Mg836 O850 2.041 1_545 S
Mg836 O857 2.038 . S
C837 O843 1.247 . S
C837 O844 1.289 . S
C838 O856 1.245 . S
C838 O857 1.274 . S
O839 C827 1.241 . S
O839 Mg832 2.042 1_545 S
O840 C827 1.280 . S
O840 Mg830 1.984 . S
O841 C828 1.277 . S
O841 Mg832 2.041 1_545 S
O842 C828 1.245 . S
O842 Mg830 1.988 . S
O843 Mg830 2.061 . S
O843 C837 1.247 . S
O844 Mg833 2.107 . S
O844 Mg836 2.238 . S
O844 C837 1.289 . S
C845 O846 1.245 . S
C845 O847 1.274 . S
O846 Mg833 2.076 1_565 S
O846 C845 1.245 . S
O847 Mg832 2.038 . S
O847 C845 1.274 . S
O848 Mg836 2.042 1_565 S
O848 C851 1.241 . S
O849 Mg835 1.984 . S
O849 C851 1.280 . S
O850 Mg836 2.041 1_565 S
O850 C854 1.277 . S
C851 O848 1.241 . S
C851 O849 1.280 . S
O852 Mg835 1.988 . S
O852 C854 1.245 . S
O853 C829 1.247 . S
O853 Mg835 2.061 . S
C854 O850 1.277 . S
C854 O852 1.245 . S
O855 C829 1.289 . S
O855 Mg832 2.238 . S
O855 Mg833 2.105 1_565 S
O856 Mg833 2.081 . S
O856 C838 1.245 . S
O857 Mg836 2.038 . S
O857 C838 1.274 . S
H858 C866 0.950 . S
H859 C871 0.950 . S
H860 C868 0.950 . S
H861 C870 0.950 . S
H862 C872 0.950 . S
H863 C874 0.950 . S
H864 C876 0.950 . S
H865 C877 0.950 . S
C866 H858 0.950 . S
C866 C867 1.386 . S
C866 C868 1.391 . S
C867 C866 1.386 . S
C867 C871 1.393 . S
C868 H860 0.950 . S
C868 C866 1.391 . S
C868 C869 1.400 . S
C869 C868 1.400 . S
C869 C870 1.398 . S
C869 C875 1.491 . S
C870 H861 0.950 . S
C870 C869 1.398 . S
C870 C871 1.391 . S
C871 H859 0.950 . S
C871 C867 1.393 . S
C871 C870 1.391 . S
C872 H862 0.950 . S
C872 C873 1.386 . S
C872 C874 1.391 . S
C873 C872 1.386 . S
C873 C877 1.393 . S
C874 H863 0.950 . S
C874 C872 1.391 . S
C874 C875 1.400 . S
C875 C869 1.491 . S
C875 C874 1.400 . S
C875 C876 1.398 . S
C876 H864 0.950 . S
C876 C875 1.398 . S
C876 C877 1.391 . S
C877 H865 0.950 . S
C877 C873 1.393 . S
C877 C876 1.391 . S
H878 C886 0.950 . S
H879 C891 0.950 . S
H880 C888 0.950 . S
H881 C890 0.950 . S
H882 C892 0.950 . S
H883 C894 0.950 . S
H884 C896 0.950 . S
H885 C897 0.950 . S
C886 H878 0.950 . S
C886 C887 1.386 . S
C886 C888 1.391 . S
C887 C886 1.386 . S
C887 C891 1.393 . S
C888 H880 0.950 . S
C888 C886 1.391 . S
C888 C889 1.400 . S
C889 C888 1.400 . S
C889 C890 1.398 . S
C889 C895 1.491 . S
C890 H881 0.950 . S
C890 C889 1.398 . S
C890 C891 1.391 . S
C891 H879 0.950 . S
C891 C887 1.393 . S
C891 C890 1.391 . S
C892 H882 0.950 . S
C892 C893 1.386 . S
C892 C894 1.391 . S
C893 C892 1.386 . S
C893 C897 1.393 . S
C894 H883 0.950 . S
C894 C892 1.391 . S
C894 C895 1.400 . S
C895 C889 1.491 . S
C895 C894 1.400 . S
C895 C896 1.398 . S
C896 H884 0.950 . S
C896 C895 1.398 . S
C896 C897 1.391 . S
C897 H885 0.950 . S
C897 C893 1.393 . S
C897 C896 1.391 . S
H898 C906 0.950 . S
H899 C911 0.950 . S
H900 C908 0.950 . S
H901 C910 0.950 . S
H902 C912 0.950 . S
H903 C914 0.950 . S
H904 C916 0.950 . S
H905 C917 0.950 . S
C906 H898 0.950 . S
C906 C907 1.386 . S
C906 C908 1.391 . S
C907 C906 1.386 . S
C907 C911 1.393 . S
C908 H900 0.950 . S
C908 C906 1.391 . S
C908 C909 1.400 . S
C909 C908 1.400 . S
C909 C910 1.398 . S
C909 C915 1.491 . S
C910 H901 0.950 . S
C910 C909 1.398 . S
C910 C911 1.391 . S
C911 H899 0.950 . S
C911 C907 1.393 . S
C911 C910 1.391 . S
C912 H902 0.950 . S
C912 C913 1.386 . S
C912 C914 1.391 . S
C913 C912 1.386 . S
C913 C917 1.393 . S
C914 H903 0.950 . S
C914 C912 1.391 . S
C914 C915 1.400 . S
C915 C909 1.491 . S
C915 C914 1.400 . S
C915 C916 1.398 . S
C916 H904 0.950 . S
C916 C915 1.398 . S
C916 C917 1.391 . S
C917 H905 0.950 . S
C917 C913 1.393 . S
C917 C916 1.391 . S
H918 C926 0.950 . S
H919 C931 0.950 . S
H920 C928 0.950 . S
H921 C930 0.950 . S
H922 C932 0.950 . S
H923 C934 0.950 . S
H924 C936 0.950 . S
H925 C937 0.950 . S
C926 H918 0.950 . S
C926 C927 1.386 . S
C926 C928 1.391 . S
C927 C926 1.386 . S
C927 C931 1.393 . S
C928 H920 0.950 . S
C928 C926 1.391 . S
C928 C929 1.400 . S
C929 C928 1.400 . S
C929 C930 1.398 . S
C929 C935 1.491 . S
C930 H921 0.950 . S
C930 C929 1.398 . S
C930 C931 1.391 . S
C931 H919 0.950 . S
C931 C927 1.393 . S
C931 C930 1.391 . S
C932 H922 0.950 . S
C932 C933 1.386 . S
C932 C934 1.391 . S
C933 C932 1.386 . S
C933 C937 1.393 . S
C934 H923 0.950 . S
C934 C932 1.391 . S
C934 C935 1.400 . S
C935 C929 1.491 . S
C935 C934 1.400 . S
C935 C936 1.398 . S
C936 H924 0.950 . S
C936 C935 1.398 . S
C936 C937 1.391 . S
C937 H925 0.950 . S
C937 C933 1.393 . S
C937 C936 1.391 . S
H938 C946 0.950 . S
H939 C951 0.950 . S
H940 C948 0.950 . S
H941 C950 0.950 . S
H942 C952 0.950 . S
H943 C954 0.950 . S
H944 C956 0.950 . S
H945 C957 0.950 . S
C946 H938 0.950 . S
C946 C947 1.386 . S
C946 C948 1.391 . S
C947 C946 1.386 . S
C947 C951 1.393 . S
C948 H940 0.950 . S
C948 C946 1.391 . S
C948 C949 1.400 . S
C949 C948 1.400 . S
C949 C950 1.398 . S
C949 C955 1.491 . S
C950 H941 0.950 . S
C950 C949 1.398 . S
C950 C951 1.391 . S
C951 H939 0.950 . S
C951 C947 1.393 . S
C951 C950 1.391 . S
C952 H942 0.950 . S
C952 C953 1.386 . S
C952 C954 1.391 . S
C953 C952 1.386 . S
C953 C957 1.393 . S
C954 H943 0.950 . S
C954 C952 1.391 . S
C954 C955 1.400 . S
C955 C949 1.491 . S
C955 C954 1.400 . S
C955 C956 1.398 . S
C956 H944 0.950 . S
C956 C955 1.398 . S
C956 C957 1.391 . S
C957 H945 0.950 . S
C957 C953 1.393 . S
C957 C956 1.391 . S
H958 C966 0.950 . S
H959 C971 0.950 . S
H960 C968 0.950 . S
H961 C970 0.950 . S
H962 C972 0.950 . S
H963 C974 0.950 . S
H964 C976 0.950 . S
H965 C977 0.950 . S
C966 H958 0.950 . S
C966 C967 1.386 . S
C966 C968 1.391 . S
C967 C966 1.386 . S
C967 C971 1.393 . S
C968 H960 0.950 . S
C968 C966 1.391 . S
C968 C969 1.400 . S
C969 C968 1.400 . S
C969 C970 1.398 . S
C969 C975 1.491 . S
C970 H961 0.950 . S
C970 C969 1.398 . S
C970 C971 1.391 . S
C971 H959 0.950 . S
C971 C967 1.393 . S
C971 C970 1.391 . S
C972 H962 0.950 . S
C972 C973 1.386 . S
C972 C974 1.391 . S
C973 C972 1.386 . S
C973 C977 1.393 . S
C974 H963 0.950 . S
C974 C972 1.391 . S
C974 C975 1.400 . S
C975 C969 1.491 . S
C975 C974 1.400 . S
C975 C976 1.398 . S
C976 H964 0.950 . S
C976 C975 1.398 . S
C976 C977 1.391 . S
C977 H965 0.950 . S
C977 C973 1.393 . S
C977 C976 1.391 . S
H978 C986 0.950 . S
H979 C991 0.950 . S
H980 C988 0.950 . S
H981 C990 0.950 . S
H982 C992 0.950 . S
H983 C994 0.950 . S
H984 C996 0.950 . S
H985 C997 0.950 . S
C986 H978 0.950 . S
C986 C987 1.386 . S
C986 C988 1.391 . S
C987 C986 1.386 . S
C987 C991 1.393 . S
C988 H980 0.950 . S
C988 C986 1.391 . S
C988 C989 1.400 . S
C989 C988 1.400 . S
C989 C990 1.398 . S
C989 C995 1.491 . S
C990 H981 0.950 . S
C990 C989 1.398 . S
C990 C991 1.391 . S
C991 H979 0.950 . S
C991 C987 1.393 . S
C991 C990 1.391 . S
C992 H982 0.950 . S
C992 C993 1.386 . S
C992 C994 1.391 . S
C993 C992 1.386 . S
C993 C997 1.393 . S
C994 H983 0.950 . S
C994 C992 1.391 . S
C994 C995 1.400 . S
C995 C989 1.491 . S
C995 C994 1.400 . S
C995 C996 1.398 . S
C996 H984 0.950 . S
C996 C995 1.398 . S
C996 C997 1.391 . S
C997 H985 0.950 . S
C997 C993 1.393 . S
C997 C996 1.391 . S
H998 C1006 0.950 . S
H999 C1011 0.950 . S
H1000 C1008 0.950 . S
H1001 C1010 0.950 . S
H1002 C1012 0.950 . S
H1003 C1014 0.950 . S
H1004 C1016 0.950 . S
H1005 C1017 0.950 . S
C1006 H998 0.950 . S
C1006 C1007 1.386 . S
C1006 C1008 1.391 . S
C1007 C1006 1.386 . S
C1007 C1011 1.393 . S
C1008 H1000 0.950 . S
C1008 C1006 1.391 . S
C1008 C1009 1.400 . S
C1009 C1008 1.400 . S
C1009 C1010 1.398 . S
C1009 C1015 1.491 . S
C1010 H1001 0.950 . S
C1010 C1009 1.398 . S
C1010 C1011 1.391 . S
C1011 H999 0.950 . S
C1011 C1007 1.393 . S
C1011 C1010 1.391 . S
C1012 H1002 0.950 . S
C1012 C1013 1.386 . S
C1012 C1014 1.391 . S
C1013 C1012 1.386 . S
C1013 C1017 1.393 . S
C1014 H1003 0.950 . S
C1014 C1012 1.391 . S
C1014 C1015 1.400 . S
C1015 C1009 1.491 . S
C1015 C1014 1.400 . S
C1015 C1016 1.398 . S
C1016 H1004 0.950 . S
C1016 C1015 1.398 . S
C1016 C1017 1.391 . S
C1017 H1005 0.950 . S
C1017 C1013 1.393 . S
C1017 C1016 1.391 . S
H1018 C1026 0.950 . S
H1019 C1031 0.950 . S
H1020 C1028 0.950 . S
H1021 C1030 0.950 . S
H1022 C1032 0.950 . S
H1023 C1034 0.950 . S
H1024 C1036 0.950 . S
H1025 C1037 0.950 . S
C1026 H1018 0.950 . S
C1026 C1027 1.386 . S
C1026 C1028 1.391 . S
C1027 C1026 1.386 . S
C1027 C1031 1.393 . S
C1028 H1020 0.950 . S
C1028 C1026 1.391 . S
C1028 C1029 1.400 . S
C1029 C1028 1.400 . S
C1029 C1030 1.398 . S
C1029 C1035 1.491 . S
C1030 H1021 0.950 . S
C1030 C1029 1.398 . S
C1030 C1031 1.391 . S
C1031 H1019 0.950 . S
C1031 C1027 1.393 . S
C1031 C1030 1.391 . S
C1032 H1022 0.950 . S
C1032 C1033 1.386 . S
C1032 C1034 1.391 . S
C1033 C1032 1.386 . S
C1033 C1037 1.393 . S
C1034 H1023 0.950 . S
C1034 C1032 1.391 . S
C1034 C1035 1.400 . S
C1035 C1029 1.491 . S
C1035 C1034 1.400 . S
C1035 C1036 1.398 . S
C1036 H1024 0.950 . S
C1036 C1035 1.398 . S
C1036 C1037 1.391 . S
C1037 H1025 0.950 . S
C1037 C1033 1.393 . S
C1037 C1036 1.391 . S
H1038 C1046 0.950 . S
H1039 C1051 0.950 . S
H1040 C1048 0.950 . S
H1041 C1050 0.950 . S
H1042 C1052 0.950 . S
H1043 C1054 0.950 . S
H1044 C1056 0.950 . S
H1045 C1057 0.950 . S
C1046 H1038 0.950 . S
C1046 C1047 1.386 . S
C1046 C1048 1.391 . S
C1047 C1046 1.386 . S
C1047 C1051 1.393 . S
C1048 H1040 0.950 . S
C1048 C1046 1.391 . S
C1048 C1049 1.400 . S
C1049 C1048 1.400 . S
C1049 C1050 1.398 . S
C1049 C1055 1.491 . S
C1050 H1041 0.950 . S
C1050 C1049 1.398 . S
C1050 C1051 1.391 . S
C1051 H1039 0.950 . S
C1051 C1047 1.393 . S
C1051 C1050 1.391 . S
C1052 H1042 0.950 . S
C1052 C1053 1.386 . S
C1052 C1054 1.391 . S
C1053 C1052 1.386 . S
C1053 C1057 1.393 . S
C1054 H1043 0.950 . S
C1054 C1052 1.391 . S
C1054 C1055 1.400 . S
C1055 C1049 1.491 . S
C1055 C1054 1.400 . S
C1055 C1056 1.398 . S
C1056 H1044 0.950 . S
C1056 C1055 1.398 . S
C1056 C1057 1.391 . S
C1057 H1045 0.950 . S
C1057 C1053 1.393 . S
C1057 C1056 1.391 . S
H1058 C1066 0.950 . S
H1059 C1071 0.950 . S
H1060 C1068 0.950 . S
H1061 C1070 0.950 . S
H1062 C1072 0.950 . S
H1063 C1074 0.950 . S
H1064 C1076 0.950 . S
H1065 C1077 0.950 . S
C1066 H1058 0.950 . S
C1066 C1067 1.386 . S
C1066 C1068 1.391 . S
C1067 C1066 1.386 . S
C1067 C1071 1.393 . S
C1068 H1060 0.950 . S
C1068 C1066 1.391 . S
C1068 C1069 1.400 . S
C1069 C1068 1.400 . S
C1069 C1070 1.398 . S
C1069 C1075 1.491 . S
C1070 H1061 0.950 . S
C1070 C1069 1.398 . S
C1070 C1071 1.391 . S
C1071 H1059 0.950 . S
C1071 C1067 1.393 . S
C1071 C1070 1.391 . S
C1072 H1062 0.950 . S
C1072 C1073 1.386 . S
C1072 C1074 1.391 . S
C1073 C1072 1.386 . S
C1073 C1077 1.393 . S
C1074 H1063 0.950 . S
C1074 C1072 1.391 . S
C1074 C1075 1.400 . S
C1075 C1069 1.491 . S
C1075 C1074 1.400 . S
C1075 C1076 1.398 . S
C1076 H1064 0.950 . S
C1076 C1075 1.398 . S
C1076 C1077 1.391 . S
C1077 H1065 0.950 . S
C1077 C1073 1.393 . S
C1077 C1076 1.391 . S
H1078 C1086 0.950 . S
H1079 C1091 0.950 . S
H1080 C1088 0.950 . S
H1081 C1090 0.950 . S
H1082 C1092 0.950 . S
H1083 C1094 0.950 . S
H1084 C1096 0.950 . S
H1085 C1097 0.950 . S
C1086 H1078 0.950 . S
C1086 C1087 1.386 . S
C1086 C1088 1.391 . S
C1087 C1086 1.386 . S
C1087 C1091 1.393 . S
C1088 H1080 0.950 . S
C1088 C1086 1.391 . S
C1088 C1089 1.400 . S
C1089 C1088 1.400 . S
C1089 C1090 1.398 . S
C1089 C1095 1.491 . S
C1090 H1081 0.950 . S
C1090 C1089 1.398 . S
C1090 C1091 1.391 . S
C1091 H1079 0.950 . S
C1091 C1087 1.393 . S
C1091 C1090 1.391 . S
C1092 H1082 0.950 . S
C1092 C1093 1.386 . S
C1092 C1094 1.391 . S
C1093 C1092 1.386 . S
C1093 C1097 1.393 . S
C1094 H1083 0.950 . S
C1094 C1092 1.391 . S
C1094 C1095 1.400 . S
C1095 C1089 1.491 . S
C1095 C1094 1.400 . S
C1095 C1096 1.398 . S
C1096 H1084 0.950 . S
C1096 C1095 1.398 . S
C1096 C1097 1.391 . S
C1097 H1085 0.950 . S
C1097 C1093 1.393 . S
C1097 C1096 1.391 . S
H1098 C1106 0.950 . S
H1099 C1111 0.950 . S
H1100 C1108 0.950 . S
H1101 C1110 0.950 . S
H1102 C1112 0.950 . S
H1103 C1114 0.950 . S
H1104 C1116 0.950 . S
H1105 C1117 0.950 . S
C1106 H1098 0.950 . S
C1106 C1107 1.386 . S
C1106 C1108 1.391 . S
C1107 C1106 1.386 . S
C1107 C1111 1.393 . S
C1108 H1100 0.950 . S
C1108 C1106 1.391 . S
C1108 C1109 1.400 . S
C1109 C1108 1.400 . S
C1109 C1110 1.398 . S
C1109 C1115 1.491 . S
C1110 H1101 0.950 . S
C1110 C1109 1.398 . S
C1110 C1111 1.391 . S
C1111 H1099 0.950 . S
C1111 C1107 1.393 . S
C1111 C1110 1.391 . S
C1112 H1102 0.950 . S
C1112 C1113 1.386 . S
C1112 C1114 1.391 . S
C1113 C1112 1.386 . S
C1113 C1117 1.393 . S
C1114 H1103 0.950 . S
C1114 C1112 1.391 . S
C1114 C1115 1.400 . S
C1115 C1109 1.491 . S
C1115 C1114 1.400 . S
C1115 C1116 1.398 . S
C1116 H1104 0.950 . S
C1116 C1115 1.398 . S
C1116 C1117 1.391 . S
C1117 H1105 0.950 . S
C1117 C1113 1.393 . S
C1117 C1116 1.391 . S
H1118 C1126 0.950 . S
H1119 C1131 0.950 . S
H1120 C1128 0.950 . S
H1121 C1130 0.950 . S
H1122 C1132 0.950 . S
H1123 C1134 0.950 . S
H1124 C1136 0.950 . S
H1125 C1137 0.950 . S
C1126 H1118 0.950 . S
C1126 C1127 1.386 . S
C1126 C1128 1.391 . S
C1127 C1126 1.386 . S
C1127 C1131 1.393 . S
C1128 H1120 0.950 . S
C1128 C1126 1.391 . S
C1128 C1129 1.400 . S
C1129 C1128 1.400 . S
C1129 C1130 1.398 . S
C1129 C1135 1.491 . S
C1130 H1121 0.950 . S
C1130 C1129 1.398 . S
C1130 C1131 1.391 . S
C1131 H1119 0.950 . S
C1131 C1127 1.393 . S
C1131 C1130 1.391 . S
C1132 H1122 0.950 . S
C1132 C1133 1.386 . S
C1132 C1134 1.391 . S
C1133 C1132 1.386 . S
C1133 C1137 1.393 . S
C1134 H1123 0.950 . S
C1134 C1132 1.391 . S
C1134 C1135 1.400 . S
C1135 C1129 1.491 . S
C1135 C1134 1.400 . S
C1135 C1136 1.398 . S
C1136 H1124 0.950 . S
C1136 C1135 1.398 . S
C1136 C1137 1.391 . S
C1137 H1125 0.950 . S
C1137 C1133 1.393 . S
C1137 C1136 1.391 . S
H1138 C1146 0.950 . S
H1139 C1151 0.950 . S
H1140 C1148 0.950 . S
H1141 C1150 0.950 . S
H1142 C1152 0.950 . S
H1143 C1154 0.950 . S
H1144 C1156 0.950 . S
H1145 C1157 0.950 . S
C1146 H1138 0.950 . S
C1146 C1147 1.386 . S
C1146 C1148 1.391 . S
C1147 C1146 1.386 . S
C1147 C1151 1.393 . S
C1148 H1140 0.950 . S
C1148 C1146 1.391 . S
C1148 C1149 1.400 . S
C1149 C1148 1.400 . S
C1149 C1150 1.398 . S
C1149 C1155 1.491 . S
C1150 H1141 0.950 . S
C1150 C1149 1.398 . S
C1150 C1151 1.391 . S
C1151 H1139 0.950 . S
C1151 C1147 1.393 . S
C1151 C1150 1.391 . S
C1152 H1142 0.950 . S
C1152 C1153 1.386 . S
C1152 C1154 1.391 . S
C1153 C1152 1.386 . S
C1153 C1157 1.393 . S
C1154 H1143 0.950 . S
C1154 C1152 1.391 . S
C1154 C1155 1.400 . S
C1155 C1149 1.491 . S
C1155 C1154 1.400 . S
C1155 C1156 1.398 . S
C1156 H1144 0.950 . S
C1156 C1155 1.398 . S
C1156 C1157 1.391 . S
C1157 H1145 0.950 . S
C1157 C1153 1.393 . S
C1157 C1156 1.391 . S
H1158 C1166 0.950 . S
H1159 C1171 0.950 . S
H1160 C1168 0.950 . S
H1161 C1170 0.950 . S
H1162 C1172 0.950 . S
H1163 C1174 0.950 . S
H1164 C1176 0.950 . S
H1165 C1177 0.950 . S
C1166 H1158 0.950 . S
C1166 C1167 1.386 . S
C1166 C1168 1.391 . S
C1167 C1166 1.386 . S
C1167 C1171 1.393 . S
C1168 H1160 0.950 . S
C1168 C1166 1.391 . S
C1168 C1169 1.400 . S
C1169 C1168 1.400 . S
C1169 C1170 1.398 . S
C1169 C1175 1.491 . S
C1170 H1161 0.950 . S
C1170 C1169 1.398 . S
C1170 C1171 1.391 . S
C1171 H1159 0.950 . S
C1171 C1167 1.393 . S
C1171 C1170 1.391 . S
C1172 H1162 0.950 . S
C1172 C1173 1.386 . S
C1172 C1174 1.391 . S
C1173 C1172 1.386 . S
C1173 C1177 1.393 . S
C1174 H1163 0.950 . S
C1174 C1172 1.391 . S
C1174 C1175 1.400 . S
C1175 C1169 1.491 . S
C1175 C1174 1.400 . S
C1175 C1176 1.398 . S
C1176 H1164 0.950 . S
C1176 C1175 1.398 . S
C1176 C1177 1.391 . S
C1177 H1165 0.950 . S
C1177 C1173 1.393 . S
C1177 C1176 1.391 . S
H1178 C1186 0.950 . S
H1179 C1191 0.950 . S
H1180 C1188 0.950 . S
H1181 C1190 0.950 . S
H1182 C1192 0.950 . S
H1183 C1194 0.950 . S
H1184 C1196 0.950 . S
H1185 C1197 0.950 . S
C1186 H1178 0.950 . S
C1186 C1187 1.386 . S
C1186 C1188 1.391 . S
C1187 C1186 1.386 . S
C1187 C1191 1.393 . S
C1188 H1180 0.950 . S
C1188 C1186 1.391 . S
C1188 C1189 1.400 . S
C1189 C1188 1.400 . S
C1189 C1190 1.398 . S
C1189 C1195 1.491 . S
C1190 H1181 0.950 . S
C1190 C1189 1.398 . S
C1190 C1191 1.391 . S
C1191 H1179 0.950 . S
C1191 C1187 1.393 . S
C1191 C1190 1.391 . S
C1192 H1182 0.950 . S
C1192 C1193 1.386 . S
C1192 C1194 1.391 . S
C1193 C1192 1.386 . S
C1193 C1197 1.393 . S
C1194 H1183 0.950 . S
C1194 C1192 1.391 . S
C1194 C1195 1.400 . S
C1195 C1189 1.491 . S
C1195 C1194 1.400 . S
C1195 C1196 1.398 . S
C1196 H1184 0.950 . S
C1196 C1195 1.398 . S
C1196 C1197 1.391 . S
C1197 H1185 0.950 . S
C1197 C1193 1.393 . S
C1197 C1196 1.391 . S
H1198 C1206 0.950 . S
H1199 C1211 0.950 . S
H1200 C1208 0.950 . S
H1201 C1210 0.950 . S
H1202 C1212 0.950 . S
H1203 C1214 0.950 . S
H1204 C1216 0.950 . S
H1205 C1217 0.950 . S
C1206 H1198 0.950 . S
C1206 C1207 1.386 . S
C1206 C1208 1.391 . S
C1207 C1206 1.386 . S
C1207 C1211 1.393 . S
C1208 H1200 0.950 . S
C1208 C1206 1.391 . S
C1208 C1209 1.400 . S
C1209 C1208 1.400 . S
C1209 C1210 1.398 . S
C1209 C1215 1.491 . S
C1210 H1201 0.950 . S
C1210 C1209 1.398 . S
C1210 C1211 1.391 . S
C1211 H1199 0.950 . S
C1211 C1207 1.393 . S
C1211 C1210 1.391 . S
C1212 H1202 0.950 . S
C1212 C1213 1.386 . S
C1212 C1214 1.391 . S
C1213 C1212 1.386 . S
C1213 C1217 1.393 . S
C1214 H1203 0.950 . S
C1214 C1212 1.391 . S
C1214 C1215 1.400 . S
C1215 C1209 1.491 . S
C1215 C1214 1.400 . S
C1215 C1216 1.398 . S
C1216 H1204 0.950 . S
C1216 C1215 1.398 . S
C1216 C1217 1.391 . S
C1217 H1205 0.950 . S
C1217 C1213 1.393 . S
C1217 C1216 1.391 . S
H1218 C1226 0.950 . S
H1219 C1231 0.950 . S
H1220 C1228 0.950 . S
H1221 C1230 0.950 . S
H1222 C1232 0.950 . S
H1223 C1234 0.950 . S
H1224 C1236 0.950 . S
H1225 C1237 0.950 . S
C1226 H1218 0.950 . S
C1226 C1227 1.386 . S
C1226 C1228 1.391 . S
C1227 C1226 1.386 . S
C1227 C1231 1.393 . S
C1228 H1220 0.950 . S
C1228 C1226 1.391 . S
C1228 C1229 1.400 . S
C1229 C1228 1.400 . S
C1229 C1230 1.398 . S
C1229 C1235 1.491 . S
C1230 H1221 0.950 . S
C1230 C1229 1.398 . S
C1230 C1231 1.391 . S
C1231 H1219 0.950 . S
C1231 C1227 1.393 . S
C1231 C1230 1.391 . S
C1232 H1222 0.950 . S
C1232 C1233 1.386 . S
C1232 C1234 1.391 . S
C1233 C1232 1.386 . S
C1233 C1237 1.393 . S
C1234 H1223 0.950 . S
C1234 C1232 1.391 . S
C1234 C1235 1.400 . S
C1235 C1229 1.491 . S
C1235 C1234 1.400 . S
C1235 C1236 1.398 . S
C1236 H1224 0.950 . S
C1236 C1235 1.398 . S
C1236 C1237 1.391 . S
C1237 H1225 0.950 . S
C1237 C1233 1.393 . S
C1237 C1236 1.391 . S
H1238 C1246 0.950 . S
H1239 C1251 0.950 . S
H1240 C1248 0.950 . S
H1241 C1250 0.950 . S
H1242 C1252 0.950 . S
H1243 C1254 0.950 . S
H1244 C1256 0.950 . S
H1245 C1257 0.950 . S
C1246 H1238 0.950 . S
C1246 C1247 1.386 . S
C1246 C1248 1.391 . S
C1247 C1246 1.386 . S
C1247 C1251 1.393 . S
C1248 H1240 0.950 . S
C1248 C1246 1.391 . S
C1248 C1249 1.400 . S
C1249 C1248 1.400 . S
C1249 C1250 1.398 . S
C1249 C1255 1.491 . S
C1250 H1241 0.950 . S
C1250 C1249 1.398 . S
C1250 C1251 1.391 . S
C1251 H1239 0.950 . S
C1251 C1247 1.393 . S
C1251 C1250 1.391 . S
C1252 H1242 0.950 . S
C1252 C1253 1.386 . S
C1252 C1254 1.391 . S
C1253 C1252 1.386 . S
C1253 C1257 1.393 . S
C1254 H1243 0.950 . S
C1254 C1252 1.391 . S
C1254 C1255 1.400 . S
C1255 C1249 1.491 . S
C1255 C1254 1.400 . S
C1255 C1256 1.398 . S
C1256 H1244 0.950 . S
C1256 C1255 1.398 . S
C1256 C1257 1.391 . S
C1257 H1245 0.950 . S
C1257 C1253 1.393 . S
C1257 C1256 1.391 . S
H1258 C1266 0.950 . S
H1259 C1271 0.950 . S
H1260 C1268 0.950 . S
H1261 C1270 0.950 . S
H1262 C1272 0.950 . S
H1263 C1274 0.950 . S
H1264 C1276 0.950 . S
H1265 C1277 0.950 . S
C1266 H1258 0.950 . S
C1266 C1267 1.386 . S
C1266 C1268 1.391 . S
C1267 C1266 1.386 . S
C1267 C1271 1.393 . S
C1268 H1260 0.950 . S
C1268 C1266 1.391 . S
C1268 C1269 1.400 . S
C1269 C1268 1.400 . S
C1269 C1270 1.398 . S
C1269 C1275 1.491 . S
C1270 H1261 0.950 . S
C1270 C1269 1.398 . S
C1270 C1271 1.391 . S
C1271 H1259 0.950 . S
C1271 C1267 1.393 . S
C1271 C1270 1.391 . S
C1272 H1262 0.950 . S
C1272 C1273 1.386 . S
C1272 C1274 1.391 . S
C1273 C1272 1.386 . S
C1273 C1277 1.393 . S
C1274 H1263 0.950 . S
C1274 C1272 1.391 . S
C1274 C1275 1.400 . S
C1275 C1269 1.491 . S
C1275 C1274 1.400 . S
C1275 C1276 1.398 . S
C1276 H1264 0.950 . S
C1276 C1275 1.398 . S
C1276 C1277 1.391 . S
C1277 H1265 0.950 . S
C1277 C1273 1.393 . S
C1277 C1276 1.391 . S
H1278 C1286 0.950 . S
H1279 C1291 0.950 . S
H1280 C1288 0.950 . S
H1281 C1290 0.950 . S
H1282 C1292 0.950 . S
H1283 C1294 0.950 . S
H1284 C1296 0.950 . S
H1285 C1297 0.950 . S
C1286 H1278 0.950 . S
C1286 C1287 1.386 . S
C1286 C1288 1.391 . S
C1287 C1286 1.386 . S
C1287 C1291 1.393 . S
C1288 H1280 0.950 . S
C1288 C1286 1.391 . S
C1288 C1289 1.400 . S
C1289 C1288 1.400 . S
C1289 C1290 1.398 . S
C1289 C1295 1.491 . S
C1290 H1281 0.950 . S
C1290 C1289 1.398 . S
C1290 C1291 1.391 . S
C1291 H1279 0.950 . S
C1291 C1287 1.393 . S
C1291 C1290 1.391 . S
C1292 H1282 0.950 . S
C1292 C1293 1.386 . S
C1292 C1294 1.391 . S
C1293 C1292 1.386 . S
C1293 C1297 1.393 . S
C1294 H1283 0.950 . S
C1294 C1292 1.391 . S
C1294 C1295 1.400 . S
C1295 C1289 1.491 . S
C1295 C1294 1.400 . S
C1295 C1296 1.398 . S
C1296 H1284 0.950 . S
C1296 C1295 1.398 . S
C1296 C1297 1.391 . S
C1297 H1285 0.950 . S
C1297 C1293 1.393 . S
C1297 C1296 1.391 . S
H1298 C1306 0.950 . S
H1299 C1311 0.950 . S
H1300 C1308 0.950 . S
H1301 C1310 0.950 . S
H1302 C1312 0.950 . S
H1303 C1314 0.950 . S
H1304 C1316 0.950 . S
H1305 C1317 0.950 . S
C1306 H1298 0.950 . S
C1306 C1307 1.386 . S
C1306 C1308 1.391 . S
C1307 C1306 1.386 . S
C1307 C1311 1.393 . S
C1308 H1300 0.950 . S
C1308 C1306 1.391 . S
C1308 C1309 1.400 . S
C1309 C1308 1.400 . S
C1309 C1310 1.398 . S
C1309 C1315 1.491 . S
C1310 H1301 0.950 . S
C1310 C1309 1.398 . S
C1310 C1311 1.391 . S
C1311 H1299 0.950 . S
C1311 C1307 1.393 . S
C1311 C1310 1.391 . S
C1312 H1302 0.950 . S
C1312 C1313 1.386 . S
C1312 C1314 1.391 . S
C1313 C1312 1.386 . S
C1313 C1317 1.393 . S
C1314 H1303 0.950 . S
C1314 C1312 1.391 . S
C1314 C1315 1.400 . S
C1315 C1309 1.491 . S
C1315 C1314 1.400 . S
C1315 C1316 1.398 . S
C1316 H1304 0.950 . S
C1316 C1315 1.398 . S
C1316 C1317 1.391 . S
C1317 H1305 0.950 . S
C1317 C1313 1.393 . S
C1317 C1316 1.391 . S
H1318 C1326 0.950 . S
H1319 C1331 0.950 . S
H1320 C1328 0.950 . S
H1321 C1330 0.950 . S
H1322 C1332 0.950 . S
H1323 C1334 0.950 . S
H1324 C1336 0.950 . S
H1325 C1337 0.950 . S
C1326 H1318 0.950 . S
C1326 C1327 1.386 . S
C1326 C1328 1.391 . S
C1327 C1326 1.386 . S
C1327 C1331 1.393 . S
C1328 H1320 0.950 . S
C1328 C1326 1.391 . S
C1328 C1329 1.400 . S
C1329 C1328 1.400 . S
C1329 C1330 1.398 . S
C1329 C1335 1.491 . S
C1330 H1321 0.950 . S
C1330 C1329 1.398 . S
C1330 C1331 1.391 . S
C1331 H1319 0.950 . S
C1331 C1327 1.393 . S
C1331 C1330 1.391 . S
C1332 H1322 0.950 . S
C1332 C1333 1.386 . S
C1332 C1334 1.391 . S
C1333 C1332 1.386 . S
C1333 C1337 1.393 . S
C1334 H1323 0.950 . S
C1334 C1332 1.391 . S
C1334 C1335 1.400 . S
C1335 C1329 1.491 . S
C1335 C1334 1.400 . S
C1335 C1336 1.398 . S
C1336 H1324 0.950 . S
C1336 C1335 1.398 . S
C1336 C1337 1.391 . S
C1337 H1325 0.950 . S
C1337 C1333 1.393 . S
C1337 C1336 1.391 . S
H1338 C1346 0.950 . S
H1339 C1351 0.950 . S
H1340 C1348 0.950 . S
H1341 C1350 0.950 . S
H1342 C1352 0.950 . S
H1343 C1354 0.950 . S
H1344 C1356 0.950 . S
H1345 C1357 0.950 . S
C1346 H1338 0.950 . S
C1346 C1347 1.386 . S
C1346 C1348 1.391 . S
C1347 C1346 1.386 . S
C1347 C1351 1.393 . S
C1348 H1340 0.950 . S
C1348 C1346 1.391 . S
C1348 C1349 1.400 . S
C1349 C1348 1.400 . S
C1349 C1350 1.398 . S
C1349 C1355 1.491 . S
C1350 H1341 0.950 . S
C1350 C1349 1.398 . S
C1350 C1351 1.391 . S
C1351 H1339 0.950 . S
C1351 C1347 1.393 . S
C1351 C1350 1.391 . S
C1352 H1342 0.950 . S
C1352 C1353 1.386 . S
C1352 C1354 1.391 . S
C1353 C1352 1.386 . S
C1353 C1357 1.393 . S
C1354 H1343 0.950 . S
C1354 C1352 1.391 . S
C1354 C1355 1.400 . S
C1355 C1349 1.491 . S
C1355 C1354 1.400 . S
C1355 C1356 1.398 . S
C1356 H1344 0.950 . S
C1356 C1355 1.398 . S
C1356 C1357 1.391 . S
C1357 H1345 0.950 . S
C1357 C1353 1.393 . S
C1357 C1356 1.391 . S
H1358 C1366 0.950 . S
H1359 C1371 0.950 . S
H1360 C1368 0.950 . S
H1361 C1370 0.950 . S
H1362 C1372 0.950 . S
H1363 C1374 0.950 . S
H1364 C1376 0.950 . S
H1365 C1377 0.950 . S
C1366 H1358 0.950 . S
C1366 C1367 1.386 . S
C1366 C1368 1.391 . S
C1367 C1366 1.386 . S
C1367 C1371 1.393 . S
C1368 H1360 0.950 . S
C1368 C1366 1.391 . S
C1368 C1369 1.400 . S
C1369 C1368 1.400 . S
C1369 C1370 1.398 . S
C1369 C1375 1.491 . S
C1370 H1361 0.950 . S
C1370 C1369 1.398 . S
C1370 C1371 1.391 . S
C1371 H1359 0.950 . S
C1371 C1367 1.393 . S
C1371 C1370 1.391 . S
C1372 H1362 0.950 . S
C1372 C1373 1.386 . S
C1372 C1374 1.391 . S
C1373 C1372 1.386 . S
C1373 C1377 1.393 . S
C1374 H1363 0.950 . S
C1374 C1372 1.391 . S
C1374 C1375 1.400 . S
C1375 C1369 1.491 . S
C1375 C1374 1.400 . S
C1375 C1376 1.398 . S
C1376 H1364 0.950 . S
C1376 C1375 1.398 . S
C1376 C1377 1.391 . S
C1377 H1365 0.950 . S
C1377 C1373 1.393 . S
C1377 C1376 1.391 . S
H1378 C1386 0.950 . S
H1379 C1391 0.950 . S
H1380 C1388 0.950 . S
H1381 C1390 0.950 . S
H1382 C1392 0.950 . S
H1383 C1394 0.950 . S
H1384 C1396 0.950 . S
H1385 C1397 0.950 . S
C1386 H1378 0.950 . S
C1386 C1387 1.386 . S
C1386 C1388 1.391 . S
C1387 C1386 1.386 . S
C1387 C1391 1.393 . S
C1388 H1380 0.950 . S
C1388 C1386 1.391 . S
C1388 C1389 1.400 . S
C1389 C1388 1.400 . S
C1389 C1390 1.398 . S
C1389 C1395 1.491 . S
C1390 H1381 0.950 . S
C1390 C1389 1.398 . S
C1390 C1391 1.391 . S
C1391 H1379 0.950 . S
C1391 C1387 1.393 . S
C1391 C1390 1.391 . S
C1392 H1382 0.950 . S
C1392 C1393 1.386 . S
C1392 C1394 1.391 . S
C1393 C1392 1.386 . S
C1393 C1397 1.393 . S
C1394 H1383 0.950 . S
C1394 C1392 1.391 . S
C1394 C1395 1.400 . S
C1395 C1389 1.491 . S
C1395 C1394 1.400 . S
C1395 C1396 1.398 . S
C1396 H1384 0.950 . S
C1396 C1395 1.398 . S
C1396 C1397 1.391 . S
C1397 H1385 0.950 . S
C1397 C1393 1.393 . S
C1397 C1396 1.391 . S
H1398 C1406 0.950 . S
H1399 C1411 0.950 . S
H1400 C1408 0.950 . S
H1401 C1410 0.950 . S
H1402 C1412 0.950 . S
H1403 C1414 0.950 . S
H1404 C1416 0.950 . S
H1405 C1417 0.950 . S
C1406 H1398 0.950 . S
C1406 C1407 1.386 . S
C1406 C1408 1.391 . S
C1407 C1406 1.386 . S
C1407 C1411 1.393 . S
C1408 H1400 0.950 . S
C1408 C1406 1.391 . S
C1408 C1409 1.400 . S
C1409 C1408 1.400 . S
C1409 C1410 1.398 . S
C1409 C1415 1.491 . S
C1410 H1401 0.950 . S
C1410 C1409 1.398 . S
C1410 C1411 1.391 . S
C1411 H1399 0.950 . S
C1411 C1407 1.393 . S
C1411 C1410 1.391 . S
C1412 H1402 0.950 . S
C1412 C1413 1.386 . S
C1412 C1414 1.391 . S
C1413 C1412 1.386 . S
C1413 C1417 1.393 . S
C1414 H1403 0.950 . S
C1414 C1412 1.391 . S
C1414 C1415 1.400 . S
C1415 C1409 1.491 . S
C1415 C1414 1.400 . S
C1415 C1416 1.398 . S
C1416 H1404 0.950 . S
C1416 C1415 1.398 . S
C1416 C1417 1.391 . S
C1417 H1405 0.950 . S
C1417 C1413 1.393 . S
C1417 C1416 1.391 . S
H1418 C1426 0.950 . S
H1419 C1431 0.950 . S
H1420 C1428 0.950 . S
H1421 C1430 0.950 . S
H1422 C1432 0.950 . S
H1423 C1434 0.950 . S
H1424 C1436 0.950 . S
H1425 C1437 0.950 . S
C1426 H1418 0.950 . S
C1426 C1427 1.386 . S
C1426 C1428 1.391 . S
C1427 C1426 1.386 . S
C1427 C1431 1.393 . S
C1428 H1420 0.950 . S
C1428 C1426 1.391 . S
C1428 C1429 1.400 . S
C1429 C1428 1.400 . S
C1429 C1430 1.398 . S
C1429 C1435 1.491 . S
C1430 H1421 0.950 . S
C1430 C1429 1.398 . S
C1430 C1431 1.391 . S
C1431 H1419 0.950 . S
C1431 C1427 1.393 . S
C1431 C1430 1.391 . S
C1432 H1422 0.950 . S
C1432 C1433 1.386 . S
C1432 C1434 1.391 . S
C1433 C1432 1.386 . S
C1433 C1437 1.393 . S
C1434 H1423 0.950 . S
C1434 C1432 1.391 . S
C1434 C1435 1.400 . S
C1435 C1429 1.491 . S
C1435 C1434 1.400 . S
C1435 C1436 1.398 . S
C1436 H1424 0.950 . S
C1436 C1435 1.398 . S
C1436 C1437 1.391 . S
C1437 H1425 0.950 . S
C1437 C1433 1.393 . S
C1437 C1436 1.391 . S
H1438 C1446 0.950 . S
H1439 C1451 0.950 . S
H1440 C1448 0.950 . S
H1441 C1450 0.950 . S
H1442 C1452 0.950 . S
H1443 C1454 0.950 . S
H1444 C1456 0.950 . S
H1445 C1457 0.950 . S
C1446 H1438 0.950 . S
C1446 C1447 1.386 . S
C1446 C1448 1.391 . S
C1447 C1446 1.386 . S
C1447 C1451 1.393 . S
C1448 H1440 0.950 . S
C1448 C1446 1.391 . S
C1448 C1449 1.400 . S
C1449 C1448 1.400 . S
C1449 C1450 1.398 . S
C1449 C1455 1.491 . S
C1450 H1441 0.950 . S
C1450 C1449 1.398 . S
C1450 C1451 1.391 . S
C1451 H1439 0.950 . S
C1451 C1447 1.393 . S
C1451 C1450 1.391 . S
C1452 H1442 0.950 . S
C1452 C1453 1.386 . S
C1452 C1454 1.391 . S
C1453 C1452 1.386 . S
C1453 C1457 1.393 . S
C1454 H1443 0.950 . S
C1454 C1452 1.391 . S
C1454 C1455 1.400 . S
C1455 C1449 1.491 . S
C1455 C1454 1.400 . S
C1455 C1456 1.398 . S
C1456 H1444 0.950 . S
C1456 C1455 1.398 . S
C1456 C1457 1.391 . S
C1457 H1445 0.950 . S
C1457 C1453 1.393 . S
C1457 C1456 1.391 . S
H1458 C1466 0.950 . S
H1459 C1471 0.950 . S
H1460 C1468 0.950 . S
H1461 C1470 0.950 . S
H1462 C1472 0.950 . S
H1463 C1474 0.950 . S
H1464 C1476 0.950 . S
H1465 C1477 0.950 . S
C1466 H1458 0.950 . S
C1466 C1467 1.386 . S
C1466 C1468 1.391 . S
C1467 C1466 1.386 . S
C1467 C1471 1.393 . S
C1468 H1460 0.950 . S
C1468 C1466 1.391 . S
C1468 C1469 1.400 . S
C1469 C1468 1.400 . S
C1469 C1470 1.398 . S
C1469 C1475 1.491 . S
C1470 H1461 0.950 . S
C1470 C1469 1.398 . S
C1470 C1471 1.391 . S
C1471 H1459 0.950 . S
C1471 C1467 1.393 . S
C1471 C1470 1.391 . S
C1472 H1462 0.950 . S
C1472 C1473 1.386 . S
C1472 C1474 1.391 . S
C1473 C1472 1.386 . S
C1473 C1477 1.393 . S
C1474 H1463 0.950 . S
C1474 C1472 1.391 . S
C1474 C1475 1.400 . S
C1475 C1469 1.491 . S
C1475 C1474 1.400 . S
C1475 C1476 1.398 . S
C1476 H1464 0.950 . S
C1476 C1475 1.398 . S
C1476 C1477 1.391 . S
C1477 H1465 0.950 . S
C1477 C1473 1.393 . S
C1477 C1476 1.391 . S
H1478 C1486 0.950 . S
H1479 C1491 0.950 . S
H1480 C1488 0.950 . S
H1481 C1490 0.950 . S
H1482 C1492 0.950 . S
H1483 C1494 0.950 . S
H1484 C1496 0.950 . S
H1485 C1497 0.950 . S
C1486 H1478 0.950 . S
C1486 C1487 1.386 . S
C1486 C1488 1.391 . S
C1487 C1486 1.386 . S
C1487 C1491 1.393 . S
C1488 H1480 0.950 . S
C1488 C1486 1.391 . S
C1488 C1489 1.400 . S
C1489 C1488 1.400 . S
C1489 C1490 1.398 . S
C1489 C1495 1.491 . S
C1490 H1481 0.950 . S
C1490 C1489 1.398 . S
C1490 C1491 1.391 . S
C1491 H1479 0.950 . S
C1491 C1487 1.393 . S
C1491 C1490 1.391 . S
C1492 H1482 0.950 . S
C1492 C1493 1.386 . S
C1492 C1494 1.391 . S
C1493 C1492 1.386 . S
C1493 C1497 1.393 . S
C1494 H1483 0.950 . S
C1494 C1492 1.391 . S
C1494 C1495 1.400 . S
C1495 C1489 1.491 . S
C1495 C1494 1.400 . S
C1495 C1496 1.398 . S
C1496 H1484 0.950 . S
C1496 C1495 1.398 . S
C1496 C1497 1.391 . S
C1497 H1485 0.950 . S
C1497 C1493 1.393 . S
C1497 C1496 1.391 . S
H1498 C1506 0.950 . S
H1499 C1511 0.950 . S
H1500 C1508 0.950 . S
H1501 C1510 0.950 . S
H1502 C1512 0.950 . S
H1503 C1514 0.950 . S
H1504 C1516 0.950 . S
H1505 C1517 0.950 . S
C1506 H1498 0.950 . S
C1506 C1507 1.386 . S
C1506 C1508 1.391 . S
C1507 C1506 1.386 . S
C1507 C1511 1.393 . S
C1508 H1500 0.950 . S
C1508 C1506 1.391 . S
C1508 C1509 1.400 . S
C1509 C1508 1.400 . S
C1509 C1510 1.398 . S
C1509 C1515 1.491 . S
C1510 H1501 0.950 . S
C1510 C1509 1.398 . S
C1510 C1511 1.391 . S
C1511 H1499 0.950 . S
C1511 C1507 1.393 . S
C1511 C1510 1.391 . S
C1512 H1502 0.950 . S
C1512 C1513 1.386 . S
C1512 C1514 1.391 . S
C1513 C1512 1.386 . S
C1513 C1517 1.393 . S
C1514 H1503 0.950 . S
C1514 C1512 1.391 . S
C1514 C1515 1.400 . S
C1515 C1509 1.491 . S
C1515 C1514 1.400 . S
C1515 C1516 1.398 . S
C1516 H1504 0.950 . S
C1516 C1515 1.398 . S
C1516 C1517 1.391 . S
C1517 H1505 0.950 . S
C1517 C1513 1.393 . S
C1517 C1516 1.391 . S
H1518 C1526 0.950 . S
H1519 C1531 0.950 . S
H1520 C1528 0.950 . S
H1521 C1530 0.950 . S
H1522 C1532 0.950 . S
H1523 C1534 0.950 . S
H1524 C1536 0.950 . S
H1525 C1537 0.950 . S
C1526 H1518 0.950 . S
C1526 C1527 1.386 . S
C1526 C1528 1.391 . S
C1527 C1526 1.386 . S
C1527 C1531 1.393 . S
C1528 H1520 0.950 . S
C1528 C1526 1.391 . S
C1528 C1529 1.400 . S
C1529 C1528 1.400 . S
C1529 C1530 1.398 . S
C1529 C1535 1.491 . S
C1530 H1521 0.950 . S
C1530 C1529 1.398 . S
C1530 C1531 1.391 . S
C1531 H1519 0.950 . S
C1531 C1527 1.393 . S
C1531 C1530 1.391 . S
C1532 H1522 0.950 . S
C1532 C1533 1.386 . S
C1532 C1534 1.391 . S
C1533 C1532 1.386 . S
C1533 C1537 1.393 . S
C1534 H1523 0.950 . S
C1534 C1532 1.391 . S
C1534 C1535 1.400 . S
C1535 C1529 1.491 . S
C1535 C1534 1.400 . S
C1535 C1536 1.398 . S
C1536 H1524 0.950 . S
C1536 C1535 1.398 . S
C1536 C1537 1.391 . S
C1537 H1525 0.950 . S
C1537 C1533 1.393 . S
C1537 C1536 1.391 . S
H1538 C1546 0.950 . S
H1539 C1551 0.950 . S
H1540 C1548 0.950 . S
H1541 C1550 0.950 . S
H1542 C1552 0.950 . S
H1543 C1554 0.950 . S
H1544 C1556 0.950 . S
H1545 C1557 0.950 . S
C1546 H1538 0.950 . S
C1546 C1547 1.386 . S
C1546 C1548 1.391 . S
C1547 C1546 1.386 . S
C1547 C1551 1.393 . S
C1548 H1540 0.950 . S
C1548 C1546 1.391 . S
C1548 C1549 1.400 . S
C1549 C1548 1.400 . S
C1549 C1550 1.398 . S
C1549 C1555 1.491 . S
C1550 H1541 0.950 . S
C1550 C1549 1.398 . S
C1550 C1551 1.391 . S
C1551 H1539 0.950 . S
C1551 C1547 1.393 . S
C1551 C1550 1.391 . S
C1552 H1542 0.950 . S
C1552 C1553 1.386 . S
C1552 C1554 1.391 . S
C1553 C1552 1.386 . S
C1553 C1557 1.393 . S
C1554 H1543 0.950 . S
C1554 C1552 1.391 . S
C1554 C1555 1.400 . S
C1555 C1549 1.491 . S
C1555 C1554 1.400 . S
C1555 C1556 1.398 . S
C1556 H1544 0.950 . S
C1556 C1555 1.398 . S
C1556 C1557 1.391 . S
C1557 H1545 0.950 . S
C1557 C1553 1.393 . S
C1557 C1556 1.391 . S
H1558 C1566 0.950 . S
H1559 C1571 0.950 . S
H1560 C1568 0.950 . S
H1561 C1570 0.950 . S
H1562 C1572 0.950 . S
H1563 C1574 0.950 . S
H1564 C1576 0.950 . S
H1565 C1577 0.950 . S
C1566 H1558 0.950 . S
C1566 C1567 1.386 . S
C1566 C1568 1.391 . S
C1567 C1566 1.386 . S
C1567 C1571 1.393 . S
C1568 H1560 0.950 . S
C1568 C1566 1.391 . S
C1568 C1569 1.400 . S
C1569 C1568 1.400 . S
C1569 C1570 1.398 . S
C1569 C1575 1.491 . S
C1570 H1561 0.950 . S
C1570 C1569 1.398 . S
C1570 C1571 1.391 . S
C1571 H1559 0.950 . S
C1571 C1567 1.393 . S
C1571 C1570 1.391 . S
C1572 H1562 0.950 . S
C1572 C1573 1.386 . S
C1572 C1574 1.391 . S
C1573 C1572 1.386 . S
C1573 C1577 1.393 . S
C1574 H1563 0.950 . S
C1574 C1572 1.391 . S
C1574 C1575 1.400 . S
C1575 C1569 1.491 . S
C1575 C1574 1.400 . S
C1575 C1576 1.398 . S
C1576 H1564 0.950 . S
C1576 C1575 1.398 . S
C1576 C1577 1.391 . S
C1577 H1565 0.950 . S
C1577 C1573 1.393 . S
C1577 C1576 1.391 . S
H1578 C1586 0.950 . S
H1579 C1591 0.950 . S
H1580 C1588 0.950 . S
H1581 C1590 0.950 . S
H1582 C1592 0.950 . S
H1583 C1594 0.950 . S
H1584 C1596 0.950 . S
H1585 C1597 0.950 . S
C1586 H1578 0.950 . S
C1586 C1587 1.386 . S
C1586 C1588 1.391 . S
C1587 C1586 1.386 . S
C1587 C1591 1.393 . S
C1588 H1580 0.950 . S
C1588 C1586 1.391 . S
C1588 C1589 1.400 . S
C1589 C1588 1.400 . S
C1589 C1590 1.398 . S
C1589 C1595 1.491 . S
C1590 H1581 0.950 . S
C1590 C1589 1.398 . S
C1590 C1591 1.391 . S
C1591 H1579 0.950 . S
C1591 C1587 1.393 . S
C1591 C1590 1.391 . S
C1592 H1582 0.950 . S
C1592 C1593 1.386 . S
C1592 C1594 1.391 . S
C1593 C1592 1.386 . S
C1593 C1597 1.393 . S
C1594 H1583 0.950 . S
C1594 C1592 1.391 . S
C1594 C1595 1.400 . S
C1595 C1589 1.491 . S
C1595 C1594 1.400 . S
C1595 C1596 1.398 . S
C1596 H1584 0.950 . S
C1596 C1595 1.398 . S
C1596 C1597 1.391 . S
C1597 H1585 0.950 . S
C1597 C1593 1.393 . S
C1597 C1596 1.391 . S
H1598 C1606 0.950 . S
H1599 C1611 0.950 . S
H1600 C1608 0.950 . S
H1601 C1610 0.950 . S
H1602 C1612 0.950 . S
H1603 C1614 0.950 . S
H1604 C1616 0.950 . S
H1605 C1617 0.950 . S
C1606 H1598 0.950 . S
C1606 C1607 1.386 . S
C1606 C1608 1.391 . S
C1607 C1606 1.386 . S
C1607 C1611 1.393 . S
C1608 H1600 0.950 . S
C1608 C1606 1.391 . S
C1608 C1609 1.400 . S
C1609 C1608 1.400 . S
C1609 C1610 1.398 . S
C1609 C1615 1.491 . S
C1610 H1601 0.950 . S
C1610 C1609 1.398 . S
C1610 C1611 1.391 . S
C1611 H1599 0.950 . S
C1611 C1607 1.393 . S
C1611 C1610 1.391 . S
C1612 H1602 0.950 . S
C1612 C1613 1.386 . S
C1612 C1614 1.391 . S
C1613 C1612 1.386 . S
C1613 C1617 1.393 . S
C1614 H1603 0.950 . S
C1614 C1612 1.391 . S
C1614 C1615 1.400 . S
C1615 C1609 1.491 . S
C1615 C1614 1.400 . S
C1615 C1616 1.398 . S
C1616 H1604 0.950 . S
C1616 C1615 1.398 . S
C1616 C1617 1.391 . S
C1617 H1605 0.950 . S
C1617 C1613 1.393 . S
C1617 C1616 1.391 . S
H1618 C1626 0.950 . S
H1619 C1631 0.950 . S
H1620 C1628 0.950 . S
H1621 C1630 0.950 . S
H1622 C1632 0.950 . S
H1623 C1634 0.950 . S
H1624 C1636 0.950 . S
H1625 C1637 0.950 . S
C1626 H1618 0.950 . S
C1626 C1627 1.386 . S
C1626 C1628 1.391 . S
C1627 C1626 1.386 . S
C1627 C1631 1.393 . S
C1628 H1620 0.950 . S
C1628 C1626 1.391 . S
C1628 C1629 1.400 . S
C1629 C1628 1.400 . S
C1629 C1630 1.398 . S
C1629 C1635 1.491 . S
C1630 H1621 0.950 . S
C1630 C1629 1.398 . S
C1630 C1631 1.391 . S
C1631 H1619 0.950 . S
C1631 C1627 1.393 . S
C1631 C1630 1.391 . S
C1632 H1622 0.950 . S
C1632 C1633 1.386 . S
C1632 C1634 1.391 . S
C1633 C1632 1.386 . S
C1633 C1637 1.393 . S
C1634 H1623 0.950 . S
C1634 C1632 1.391 . S
C1634 C1635 1.400 . S
C1635 C1629 1.491 . S
C1635 C1634 1.400 . S
C1635 C1636 1.398 . S
C1636 H1624 0.950 . S
C1636 C1635 1.398 . S
C1636 C1637 1.391 . S
C1637 H1625 0.950 . S
C1637 C1633 1.393 . S
C1637 C1636 1.391 . S
H1638 C1646 0.950 . S
H1639 C1651 0.950 . S
H1640 C1648 0.950 . S
H1641 C1650 0.950 . S
H1642 C1652 0.950 . S
H1643 C1654 0.950 . S
H1644 C1656 0.950 . S
H1645 C1657 0.950 . S
C1646 H1638 0.950 . S
C1646 C1647 1.386 . S
C1646 C1648 1.391 . S
C1647 C1646 1.386 . S
C1647 C1651 1.393 . S
C1648 H1640 0.950 . S
C1648 C1646 1.391 . S
C1648 C1649 1.400 . S
C1649 C1648 1.400 . S
C1649 C1650 1.398 . S
C1649 C1655 1.491 . S
C1650 H1641 0.950 . S
C1650 C1649 1.398 . S
C1650 C1651 1.391 . S
C1651 H1639 0.950 . S
C1651 C1647 1.393 . S
C1651 C1650 1.391 . S
C1652 H1642 0.950 . S
C1652 C1653 1.386 . S
C1652 C1654 1.391 . S
C1653 C1652 1.386 . S
C1653 C1657 1.393 . S
C1654 H1643 0.950 . S
C1654 C1652 1.391 . S
C1654 C1655 1.400 . S
C1655 C1649 1.491 . S
C1655 C1654 1.400 . S
C1655 C1656 1.398 . S
C1656 H1644 0.950 . S
C1656 C1655 1.398 . S
C1656 C1657 1.391 . S
C1657 H1645 0.950 . S
C1657 C1653 1.393 . S
C1657 C1656 1.391 . S
H1658 C1666 0.950 . S
H1659 C1671 0.950 . S
H1660 C1668 0.950 . S
H1661 C1670 0.950 . S
H1662 C1672 0.950 . S
H1663 C1674 0.950 . S
H1664 C1676 0.950 . S
H1665 C1677 0.950 . S
C1666 H1658 0.950 . S
C1666 C1667 1.386 . S
C1666 C1668 1.391 . S
C1667 C1666 1.386 . S
C1667 C1671 1.393 . S
C1668 H1660 0.950 . S
C1668 C1666 1.391 . S
C1668 C1669 1.400 . S
C1669 C1668 1.400 . S
C1669 C1670 1.398 . S
C1669 C1675 1.491 . S
C1670 H1661 0.950 . S
C1670 C1669 1.398 . S
C1670 C1671 1.391 . S
C1671 H1659 0.950 . S
C1671 C1667 1.393 . S
C1671 C1670 1.391 . S
C1672 H1662 0.950 . S
C1672 C1673 1.386 . S
C1672 C1674 1.391 . S
C1673 C1672 1.386 . S
C1673 C1677 1.393 . S
C1674 H1663 0.950 . S
C1674 C1672 1.391 . S
C1674 C1675 1.400 . S
C1675 C1669 1.491 . S
C1675 C1674 1.400 . S
C1675 C1676 1.398 . S
C1676 H1664 0.950 . S
C1676 C1675 1.398 . S
C1676 C1677 1.391 . S
C1677 H1665 0.950 . S
C1677 C1673 1.393 . S
C1677 C1676 1.391 . S
H1678 C1686 0.950 . S
H1679 C1691 0.950 . S
H1680 C1688 0.950 . S
H1681 C1690 0.950 . S
H1682 C1692 0.950 . S
H1683 C1694 0.950 . S
H1684 C1696 0.950 . S
H1685 C1697 0.950 . S
C1686 H1678 0.950 . S
C1686 C1687 1.386 . S
C1686 C1688 1.391 . S
C1687 C1686 1.386 . S
C1687 C1691 1.393 . S
C1688 H1680 0.950 . S
C1688 C1686 1.391 . S
C1688 C1689 1.400 . S
C1689 C1688 1.400 . S
C1689 C1690 1.398 . S
C1689 C1695 1.491 . S
C1690 H1681 0.950 . S
C1690 C1689 1.398 . S
C1690 C1691 1.391 . S
C1691 H1679 0.950 . S
C1691 C1687 1.393 . S
C1691 C1690 1.391 . S
C1692 H1682 0.950 . S
C1692 C1693 1.386 . S
C1692 C1694 1.391 . S
C1693 C1692 1.386 . S
C1693 C1697 1.393 . S
C1694 H1683 0.950 . S
C1694 C1692 1.391 . S
C1694 C1695 1.400 . S
C1695 C1689 1.491 . S
C1695 C1694 1.400 . S
C1695 C1696 1.398 . S
C1696 H1684 0.950 . S
C1696 C1695 1.398 . S
C1696 C1697 1.391 . S
C1697 H1685 0.950 . S
C1697 C1693 1.393 . S
C1697 C1696 1.391 . S
H1698 C1706 0.950 . S
H1699 C1711 0.950 . S
H1700 C1708 0.950 . S
H1701 C1710 0.950 . S
H1702 C1712 0.950 . S
H1703 C1714 0.950 . S
H1704 C1716 0.950 . S
H1705 C1717 0.950 . S
C1706 H1698 0.950 . S
C1706 C1707 1.386 . S
C1706 C1708 1.391 . S
C1707 C1706 1.386 . S
C1707 C1711 1.393 . S
C1708 H1700 0.950 . S
C1708 C1706 1.391 . S
C1708 C1709 1.400 . S
C1709 C1708 1.400 . S
C1709 C1710 1.398 . S
C1709 C1715 1.491 . S
C1710 H1701 0.950 . S
C1710 C1709 1.398 . S
C1710 C1711 1.391 . S
C1711 H1699 0.950 . S
C1711 C1707 1.393 . S
C1711 C1710 1.391 . S
C1712 H1702 0.950 . S
C1712 C1713 1.386 . S
C1712 C1714 1.391 . S
C1713 C1712 1.386 . S
C1713 C1717 1.393 . S
C1714 H1703 0.950 . S
C1714 C1712 1.391 . S
C1714 C1715 1.400 . S
C1715 C1709 1.491 . S
C1715 C1714 1.400 . S
C1715 C1716 1.398 . S
C1716 H1704 0.950 . S
C1716 C1715 1.398 . S
C1716 C1717 1.391 . S
C1717 H1705 0.950 . S
C1717 C1713 1.393 . S
C1717 C1716 1.391 . S
H1718 C1726 0.950 . S
H1719 C1731 0.950 . S
H1720 C1728 0.950 . S
H1721 C1730 0.950 . S
H1722 C1732 0.950 . S
H1723 C1734 0.950 . S
H1724 C1736 0.950 . S
H1725 C1737 0.950 . S
C1726 H1718 0.950 . S
C1726 C1727 1.386 . S
C1726 C1728 1.391 . S
C1727 C1726 1.386 . S
C1727 C1731 1.393 . S
C1728 H1720 0.950 . S
C1728 C1726 1.391 . S
C1728 C1729 1.400 . S
C1729 C1728 1.400 . S
C1729 C1730 1.398 . S
C1729 C1735 1.491 . S
C1730 H1721 0.950 . S
C1730 C1729 1.398 . S
C1730 C1731 1.391 . S
C1731 H1719 0.950 . S
C1731 C1727 1.393 . S
C1731 C1730 1.391 . S
C1732 H1722 0.950 . S
C1732 C1733 1.386 . S
C1732 C1734 1.391 . S
C1733 C1732 1.386 . S
C1733 C1737 1.393 . S
C1734 H1723 0.950 . S
C1734 C1732 1.391 . S
C1734 C1735 1.400 . S
C1735 C1729 1.491 . S
C1735 C1734 1.400 . S
C1735 C1736 1.398 . S
C1736 H1724 0.950 . S
C1736 C1735 1.398 . S
C1736 C1737 1.391 . S
C1737 H1725 0.950 . S
C1737 C1733 1.393 . S
C1737 C1736 1.391 . S
H1738 C1746 0.950 . S
H1739 C1751 0.950 . S
H1740 C1748 0.950 . S
H1741 C1750 0.950 . S
H1742 C1752 0.950 . S
H1743 C1754 0.950 . S
H1744 C1756 0.950 . S
H1745 C1757 0.950 . S
C1746 H1738 0.950 . S
C1746 C1747 1.386 . S
C1746 C1748 1.391 . S
C1747 C1746 1.386 . S
C1747 C1751 1.393 . S
C1748 H1740 0.950 . S
C1748 C1746 1.391 . S
C1748 C1749 1.400 . S
C1749 C1748 1.400 . S
C1749 C1750 1.398 . S
C1749 C1755 1.491 . S
C1750 H1741 0.950 . S
C1750 C1749 1.398 . S
C1750 C1751 1.391 . S
C1751 H1739 0.950 . S
C1751 C1747 1.393 . S
C1751 C1750 1.391 . S
C1752 H1742 0.950 . S
C1752 C1753 1.386 . S
C1752 C1754 1.391 . S
C1753 C1752 1.386 . S
C1753 C1757 1.393 . S
C1754 H1743 0.950 . S
C1754 C1752 1.391 . S
C1754 C1755 1.400 . S
C1755 C1749 1.491 . S
C1755 C1754 1.400 . S
C1755 C1756 1.398 . S
C1756 H1744 0.950 . S
C1756 C1755 1.398 . S
C1756 C1757 1.391 . S
C1757 H1745 0.950 . S
C1757 C1753 1.393 . S
C1757 C1756 1.391 . S
H1758 C1766 0.950 . S
H1759 C1771 0.950 . S
H1760 C1768 0.950 . S
H1761 C1770 0.950 . S
H1762 C1772 0.950 . S
H1763 C1774 0.950 . S
H1764 C1776 0.950 . S
H1765 C1777 0.950 . S
C1766 H1758 0.950 . S
C1766 C1767 1.386 . S
C1766 C1768 1.391 . S
C1767 C1766 1.386 . S
C1767 C1771 1.393 . S
C1768 H1760 0.950 . S
C1768 C1766 1.391 . S
C1768 C1769 1.400 . S
C1769 C1768 1.400 . S
C1769 C1770 1.398 . S
C1769 C1775 1.491 . S
C1770 H1761 0.950 . S
C1770 C1769 1.398 . S
C1770 C1771 1.391 . S
C1771 H1759 0.950 . S
C1771 C1767 1.393 . S
C1771 C1770 1.391 . S
C1772 H1762 0.950 . S
C1772 C1773 1.386 . S
C1772 C1774 1.391 . S
C1773 C1772 1.386 . S
C1773 C1777 1.393 . S
C1774 H1763 0.950 . S
C1774 C1772 1.391 . S
C1774 C1775 1.400 . S
C1775 C1769 1.491 . S
C1775 C1774 1.400 . S
C1775 C1776 1.398 . S
C1776 H1764 0.950 . S
C1776 C1775 1.398 . S
C1776 C1777 1.391 . S
C1777 H1765 0.950 . S
C1777 C1773 1.393 . S
C1777 C1776 1.391 . S
H1778 C1786 0.950 . S
H1779 C1791 0.950 . S
H1780 C1788 0.950 . S
H1781 C1790 0.950 . S
H1782 C1792 0.950 . S
H1783 C1794 0.950 . S
H1784 C1796 0.950 . S
H1785 C1797 0.950 . S
C1786 H1778 0.950 . S
C1786 C1787 1.386 . S
C1786 C1788 1.391 . S
C1787 C1786 1.386 . S
C1787 C1791 1.393 . S
C1788 H1780 0.950 . S
C1788 C1786 1.391 . S
C1788 C1789 1.400 . S
C1789 C1788 1.400 . S
C1789 C1790 1.398 . S
C1789 C1795 1.491 . S
C1790 H1781 0.950 . S
C1790 C1789 1.398 . S
C1790 C1791 1.391 . S
C1791 H1779 0.950 . S
C1791 C1787 1.393 . S
C1791 C1790 1.391 . S
C1792 H1782 0.950 . S
C1792 C1793 1.386 . S
C1792 C1794 1.391 . S
C1793 C1792 1.386 . S
C1793 C1797 1.393 . S
C1794 H1783 0.950 . S
C1794 C1792 1.391 . S
C1794 C1795 1.400 . S
C1795 C1789 1.491 . S
C1795 C1794 1.400 . S
C1795 C1796 1.398 . S
C1796 H1784 0.950 . S
C1796 C1795 1.398 . S
C1796 C1797 1.391 . S
C1797 H1785 0.950 . S
C1797 C1793 1.393 . S
C1797 C1796 1.391 . S
H1798 C1806 0.950 . S
H1799 C1811 0.950 . S
H1800 C1808 0.950 . S
H1801 C1810 0.950 . S
H1802 C1812 0.950 . S
H1803 C1814 0.950 . S
H1804 C1816 0.950 . S
H1805 C1817 0.950 . S
C1806 H1798 0.950 . S
C1806 C1807 1.386 . S
C1806 C1808 1.391 . S
C1807 C1806 1.386 . S
C1807 C1811 1.393 . S
C1808 H1800 0.950 . S
C1808 C1806 1.391 . S
C1808 C1809 1.400 . S
C1809 C1808 1.400 . S
C1809 C1810 1.398 . S
C1809 C1815 1.491 . S
C1810 H1801 0.950 . S
C1810 C1809 1.398 . S
C1810 C1811 1.391 . S
C1811 H1799 0.950 . S
C1811 C1807 1.393 . S
C1811 C1810 1.391 . S
C1812 H1802 0.950 . S
C1812 C1813 1.386 . S
C1812 C1814 1.391 . S
C1813 C1812 1.386 . S
C1813 C1817 1.393 . S
C1814 H1803 0.950 . S
C1814 C1812 1.391 . S
C1814 C1815 1.400 . S
C1815 C1809 1.491 . S
C1815 C1814 1.400 . S
C1815 C1816 1.398 . S
C1816 H1804 0.950 . S
C1816 C1815 1.398 . S
C1816 C1817 1.391 . S
C1817 H1805 0.950 . S
C1817 C1813 1.393 . S
C1817 C1816 1.391 . S
C873 C683 1.521 . S
C867 C74 1.431 . S
C893 C673 0.520 . S
C887 C142 0.798 . S
C913 C674 1.160 . S
C907 C231 1.064 . S
C927 C322 1.348 . S
C933 C696 1.421 . S
C947 C406 0.805 . S
C953 C699 0.538 . S
C973 C682 1.160 . S
C967 C494 1.063 . S
C987 C562 1.338 . S
C993 C672 1.416 . S
C1007 C651 1.432 . S
C1013 C690 1.521 . S
C1033 C703 1.456 . S
C1027 C58 1.378 . S
C1047 C151 1.555 . S
C1053 C752 1.515 . S
C1073 C730 2.634 . S
C1067 C224 2.518 . S
C1093 C744 1.023 . S
C1087 C315 1.032 . S
C1107 C399 1.025 . S
C1113 C705 1.022 . S
C1133 C758 1.449 . S
C1127 C478 1.437 . S
C1147 C571 1.475 . S
C1153 C714 1.506 . S
C1167 C644 2.517 . S
C1173 C735 2.596 . S
C1187 C67 2.530 . S
C1193 C761 2.609 . S
C1207 C392 1.549 . S
C1213 C745 1.515 . S
C1233 C704 2.629 . S
C1227 C487 2.529 . S
C1253 C736 1.056 . S
C1247 C578 1.061 . S
C1267 C658 1.390 . S
C1273 C727 1.470 . S
C1287 C238 1.425 . S
C1293 C734 1.457 . S
C1313 C721 1.525 . S
C1307 C308 1.496 . S
C1327 C158 1.025 . S
C1333 C713 1.030 . S
C1347 C662 1.445 . S
C1353 C776 1.512 . S
C1367 C394 0.804 . S
C1373 C766 0.512 . S
C1393 C767 1.140 . S
C1387 C483 1.102 . S
C1413 C789 1.429 . S
C1407 C574 1.327 . S
C1427 C154 0.879 . S
C1433 C792 0.594 . S
C1453 C775 1.160 . S
C1447 C242 1.065 . S
C1467 C310 1.355 . S
C1473 C765 1.426 . S
C1487 C63 1.439 . S
C1493 C783 1.515 . S
C1507 C646 1.409 . S
C1513 C796 1.469 . S
C1533 C845 1.540 . S
C1527 C403 1.553 . S
C1547 C476 2.517 . S
C1553 C823 2.631 . S
C1567 C567 1.031 . S
C1573 C837 1.023 . S
C1593 C798 1.025 . S
C1587 C147 1.025 . S
C1607 C226 1.427 . S
C1613 C851 1.474 . S
C1633 C807 1.528 . S
C1627 C319 1.505 . S
C1653 C828 2.608 . S
C1647 C56 2.515 . S
C1673 C854 2.598 . S
C1667 C655 2.525 . S
C1687 C140 1.540 . S
C1693 C838 1.538 . S
C1707 C235 2.518 . S
C1713 C797 2.629 . S
C1733 C829 1.054 . S
C1727 C326 1.038 . S
C1747 C70 1.378 . S
C1753 C820 1.458 . S
C1767 C490 1.440 . S
C1773 C827 1.448 . S
C1793 C814 1.504 . S
C1787 C560 1.475 . S
C1813 C806 1.029 . S
C1807 C410 1.044 . S
