# Generated by pormake.
# Topology pyr, (3,6)-cn, num edge types: 1
# Building blocks:
#     Node 0, Type 0, BuildingBlock: WUSLED_clean_sbu_0, # of connection points: 3
#     Node 1, Type 0, BuildingBlock: WUSLED_clean_sbu_0, # of connection points: 3
#     Node 2, Type 0, BuildingBlock: WUSLED_clean_sbu_0, # of connection points: 3
#     Node 3, Type 0, BuildingBlock: WUSLED_clean_sbu_0, # of connection points: 3
#     Node 4, Type 0, BuildingBlock: WUSLED_clean_sbu_0, # of connection points: 3
#     Node 5, Type 0, BuildingBlock: WUSLED_clean_sbu_0, # of connection points: 3
#     Node 6, Type 0, BuildingBlock: WUSLED_clean_sbu_0, # of connection points: 3
#     Node 7, Type 0, BuildingBlock: WUSLED_clean_sbu_0, # of connection points: 3
#     Node 8, Type 1, BuildingBlock: FUNLAD_clean_sbu_0, # of connection points: 6
#     Node 9, Type 1, BuildingBlock: FUNLAD_clean_sbu_0, # of connection points: 6
#     Node 10, Type 1, BuildingBlock: FUNLAD_clean_sbu_0, # of connection points: 6
#     Node 11, Type 1, BuildingBlock: FUNLAD_clean_sbu_0, # of connection points: 6
#     Edge 12, Type (0, 1), BuildingBlock: XIVTED_clean_linker_0, # of connection points: 2
#     Edge 13, Type (0, 1), BuildingBlock: XIVTED_clean_linker_0, # of connection points: 2
#     Edge 14, Type (0, 1), BuildingBlock: XIVTED_clean_linker_0, # of connection points: 2
#     Edge 15, Type (0, 1), BuildingBlock: XIVTED_clean_linker_0, # of connection points: 2
#     Edge 16, Type (0, 1), BuildingBlock: XIVTED_clean_linker_0, # of connection points: 2
#     Edge 17, Type (0, 1), BuildingBlock: XIVTED_clean_linker_0, # of connection points: 2
#     Edge 18, Type (0, 1), BuildingBlock: XIVTED_clean_linker_0, # of connection points: 2
#     Edge 19, Type (0, 1), BuildingBlock: XIVTED_clean_linker_0, # of connection points: 2
#     Edge 20, Type (0, 1), BuildingBlock: XIVTED_clean_linker_0, # of connection points: 2
#     Edge 21, Type (0, 1), BuildingBlock: XIVTED_clean_linker_0, # of connection points: 2
#     Edge 22, Type (0, 1), BuildingBlock: XIVTED_clean_linker_0, # of connection points: 2
#     Edge 23, Type (0, 1), BuildingBlock: XIVTED_clean_linker_0, # of connection points: 2
#     Edge 24, Type (0, 1), BuildingBlock: XIVTED_clean_linker_0, # of connection points: 2
#     Edge 25, Type (0, 1), BuildingBlock: XIVTED_clean_linker_0, # of connection points: 2
#     Edge 26, Type (0, 1), BuildingBlock: XIVTED_clean_linker_0, # of connection points: 2
#     Edge 27, Type (0, 1), BuildingBlock: XIVTED_clean_linker_0, # of connection points: 2
#     Edge 28, Type (0, 1), BuildingBlock: XIVTED_clean_linker_0, # of connection points: 2
#     Edge 29, Type (0, 1), BuildingBlock: XIVTED_clean_linker_0, # of connection points: 2
#     Edge 30, Type (0, 1), BuildingBlock: XIVTED_clean_linker_0, # of connection points: 2
#     Edge 31, Type (0, 1), BuildingBlock: XIVTED_clean_linker_0, # of connection points: 2
#     Edge 32, Type (0, 1), BuildingBlock: XIVTED_clean_linker_0, # of connection points: 2
#     Edge 33, Type (0, 1), BuildingBlock: XIVTED_clean_linker_0, # of connection points: 2
#     Edge 34, Type (0, 1), BuildingBlock: XIVTED_clean_linker_0, # of connection points: 2
#     Edge 35, Type (0, 1), BuildingBlock: XIVTED_clean_linker_0, # of connection points: 2
# Relax obj value: 0.052
# Max RMSD: 0.061
# Mean RMSD: 0.028
data_MOF--net-pry--node1-WUSLED_clean_sbu_0--node2-FUNLAD_clean_sbu_0--edge1-XIVTED_clean_linker_0
_symmetry_space_group_name_H-M    P1
_symmetry_Int_Tables_number       1
_symmetry_cell_setting            triclinic
loop_
_symmetry_equiv_pos_as_xyz
'x, y, z'
_cell_length_a     47.135327
_cell_length_b     49.498899
_cell_length_c     49.887153
_cell_angle_alpha  90.031231
_cell_angle_beta   90.01405
_cell_angle_gamma 85.725422
loop_
_atom_site_label
_atom_site_type_symbol
_atom_site_fract_x
_atom_site_fract_y
_atom_site_fract_z
_atom_type_partial_charge
C0 C 0.09449 0.22413 0.12207 0.0
C1 C 0.0737 0.24195 0.13405 0.0
C2 C 0.07755 0.27541 0.09836 0.0
C3 C 0.06536 0.26708 0.12247 0.0
C4 C 0.09781 0.25709 0.08571 0.0
C5 C 0.10632 0.23175 0.09751 0.0
U6 U 0.1288 0.15289 0.15483 0.0
O7 O 0.14898 0.12478 0.12419 0.0
O8 O 0.1756 0.14848 0.15068 0.0
C9 C 0.17466 0.13116 0.13081 0.0
C10 C 0.10357 0.19864 0.13674 0.0
C11 C 0.20114 0.11739 0.11941 0.0
C12 C 0.23619 0.11303 0.08324 0.0
C13 C 0.20986 0.12371 0.09339 0.0
C14 C 0.24499 0.08828 0.1245 0.0
C15 C 0.25453 0.09543 0.09876 0.0
C16 C 0.21881 0.0993 0.13475 0.0
C17 C 0.09783 0.1192 0.22393 0.0
C18 C 0.09986 0.08302 0.25766 0.0
C19 C 0.06799 0.12282 0.26428 0.0
C20 C 0.07698 0.1334 0.23967 0.0
C21 C 0.07939 0.09741 0.27422 0.0
C22 C 0.10896 0.09379 0.23316 0.0
C23 C 0.10904 0.13142 0.19889 0.0
O24 O 0.12455 0.1978 0.15411 0.0
O25 O 0.09698 0.17476 0.1282 0.0
O26 O 0.10075 0.12473 0.17475 0.0
O27 O 0.12808 0.14949 0.19931 0.0
H28 H 0.06408 0.23655 0.15284 0.0
H29 H 0.04931 0.28012 0.13262 0.0
H30 H 0.10774 0.26269 0.06716 0.0
H31 H 0.1224 0.21842 0.08774 0.0
H32 H 0.24252 0.11944 0.06353 0.0
H33 H 0.19669 0.13771 0.08116 0.0
H34 H 0.25783 0.07428 0.13696 0.0
H35 H 0.21252 0.09391 0.15482 0.0
H36 H 0.10914 0.06325 0.26331 0.0
H37 H 0.05254 0.13527 0.27565 0.0
H38 H 0.0679 0.15305 0.23314 0.0
H39 H 0.12509 0.0823 0.22153 0.0
C40 C 0.3153 0.91498 0.61975 0.0
C41 C 0.29674 0.93072 0.63667 0.0
C42 C 0.26259 0.93957 0.59967 0.0
C43 C 0.27077 0.94304 0.62669 0.0
C44 C 0.28195 0.92465 0.5828 0.0
C45 C 0.30773 0.9126 0.59268 0.0
U46 U 0.38444 0.88445 0.66162 0.0
O47 O 0.39419 0.84024 0.66543 0.0
O48 O 0.4223 0.86408 0.64159 0.0
C49 C 0.41699 0.83989 0.65023 0.0
C50 C 0.34113 0.89835 0.62939 0.0
C51 C 0.42378 0.81586 0.63241 0.0
C52 C 0.41071 0.77847 0.60365 0.0
C53 C 0.40332 0.8031 0.6173 0.0
C54 C 0.45907 0.7794 0.61935 0.0
C55 C 0.43869 0.76594 0.60484 0.0
C56 C 0.45173 0.80385 0.63279 0.0
C57 C 0.40823 0.92283 0.73002 0.0
C58 C 0.44401 0.91892 0.7661 0.0
C59 C 0.40636 0.95456 0.76794 0.0
C60 C 0.39549 0.94546 0.74357 0.0
C61 C 0.43092 0.94165 0.77998 0.0
C62 C 0.43281 0.90961 0.74155 0.0
C63 C 0.39429 0.91412 0.70455 0.0
O64 O 0.3666 0.90704 0.62613 0.0
O65 O 0.33916 0.88291 0.65062 0.0
O66 O 0.37791 0.89376 0.70482 0.0
O67 O 0.40608 0.91779 0.68106 0.0
H68 H 0.30191 0.93292 0.65767 0.0
H69 H 0.25664 0.95437 0.64043 0.0
H70 H 0.2771 0.92193 0.5618 0.0
H71 H 0.32151 0.90059 0.57913 0.0
H72 H 0.39442 0.76912 0.59239 0.0
H73 H 0.38157 0.8118 0.61649 0.0
H74 H 0.48067 0.77054 0.6213 0.0
H75 H 0.46792 0.81299 0.64441 0.0
H76 H 0.46309 0.90829 0.77399 0.0
H77 H 0.39475 0.97155 0.77755 0.0
H78 H 0.37652 0.95611 0.73537 0.0
H79 H 0.44332 0.89212 0.73169 0.0
C80 C 0.59839 0.43939 0.86672 0.0
C81 C 0.61857 0.45774 0.8599 0.0
C82 C 0.59371 0.46742 0.81843 0.0
C83 C 0.61639 0.47155 0.83563 0.0
C84 C 0.57288 0.45 0.82583 0.0
C85 C 0.57531 0.43588 0.8499 0.0
U86 U 0.64195 0.4238 0.92703 0.0
O87 O 0.63188 0.40862 0.96705 0.0
O88 O 0.66305 0.38563 0.94139 0.0
C89 C 0.64706 0.38559 0.96296 0.0
C90 C 0.60306 0.42228 0.89016 0.0
C91 C 0.6315 0.36136 0.96568 0.0
C92 C 0.59854 0.33087 0.94728 0.0
C93 C 0.61181 0.35507 0.94591 0.0
C94 C 0.62382 0.31959 0.98866 0.0
C95 C 0.60462 0.3129 0.96859 0.0
C96 C 0.6373 0.34368 0.98712 0.0
C97 C 0.70229 0.46776 0.94019 0.0
C98 C 0.73937 0.45321 0.97176 0.0
C99 C 0.74243 0.49468 0.94628 0.0
C100 C 0.71663 0.49063 0.9339 0.0
C101 C 0.75422 0.47577 0.96494 0.0
C102 C 0.71341 0.44928 0.95949 0.0
C103 C 0.67704 0.46217 0.92498 0.0
O104 O 0.62716 0.40718 0.88933 0.0
O105 O 0.59826 0.4346 0.91325 0.0
O106 O 0.65294 0.46468 0.93834 0.0
O107 O 0.68012 0.44005 0.91037 0.0
H108 H 0.63656 0.46053 0.87287 0.0
H109 H 0.63264 0.48485 0.82999 0.0
H110 H 0.55548 0.44636 0.8124 0.0
H111 H 0.5598 0.4216 0.85492 0.0
H112 H 0.58363 0.32616 0.93173 0.0
H113 H 0.60715 0.36865 0.92918 0.0
H114 H 0.62898 0.30584 1.00513 0.0
H115 H 0.65259 0.34827 1.00237 0.0
H116 H 0.74808 0.43846 0.98616 0.0
H117 H 0.75376 0.512 0.94042 0.0
H118 H 0.70832 0.50487 0.91884 0.0
H119 H 0.70244 0.43146 0.96442 0.0
C120 C 0.81945 0.57045 0.44453 0.0
C121 C 0.81059 0.58843 0.46519 0.0
C122 C 0.76742 0.56537 0.47014 0.0
C123 C 0.78454 0.58595 0.47793 0.0
C124 C 0.7769 0.54669 0.45038 0.0
C125 C 0.80283 0.54926 0.43757 0.0
U126 U 0.87999 0.61339 0.4287 0.0
O127 O 0.92271 0.60297 0.41239 0.0
O128 O 0.89226 0.63073 0.39048 0.0
C129 C 0.91697 0.61662 0.3902 0.0
C130 C 0.84406 0.57563 0.42808 0.0
C131 C 0.92286 0.60177 0.36549 0.0
C132 C 0.90983 0.56937 0.33213 0.0
C133 C 0.90533 0.58167 0.35708 0.0
C134 C 0.94971 0.59682 0.32454 0.0
C135 C 0.93201 0.57702 0.31572 0.0
C136 C 0.94512 0.60914 0.3493 0.0
C137 C 0.8942 0.67469 0.46828 0.0
C138 C 0.92961 0.70344 0.45112 0.0
C139 C 0.90022 0.71793 0.48916 0.0
C140 C 0.88657 0.69393 0.48794 0.0
C141 C 0.92174 0.72302 0.47067 0.0
C142 C 0.91592 0.67939 0.44994 0.0
C143 C 0.87804 0.65075 0.46564 0.0
O144 O 0.84062 0.59793 0.41381 0.0
O145 O 0.86895 0.5725 0.44007 0.0
O146 O 0.89293 0.62736 0.46838 0.0
O147 O 0.86071 0.65159 0.44499 0.0
H148 H 0.82321 0.60505 0.47058 0.0
H149 H 0.77726 0.60062 0.49301 0.0
H150 H 0.76364 0.5309 0.44405 0.0
H151 H 0.80932 0.53544 0.42148 0.0
H152 H 0.89593 0.5542 0.32555 0.0
H153 H 0.88788 0.57601 0.36951 0.0
H154 H 0.96653 0.60346 0.31188 0.0
H155 H 0.95849 0.6249 0.35552 0.0
H156 H 0.94623 0.70675 0.43675 0.0
H157 H 0.89333 0.73284 0.50414 0.0
H158 H 0.86963 0.69068 0.50198 0.0
H159 H 0.92189 0.66468 0.43446 0.0
C160 C 0.91155 0.81688 0.91126 0.0
C161 C 0.93113 0.80053 0.89591 0.0
C162 C 0.93418 0.76524 0.93101 0.0
C163 C 0.94239 0.77508 0.90571 0.0
C164 C 0.91525 0.78231 0.94644 0.0
C165 C 0.90416 0.80752 0.9367 0.0
U166 U 0.88379 0.88645 0.87188 0.0
O167 O 0.83773 0.89847 0.86946 0.0
O168 O 0.865 0.92186 0.89481 0.0
C169 C 0.83914 0.91911 0.88585 0.0
C170 C 0.89683 0.84291 0.90151 0.0
C171 C 0.81406 0.92698 0.90333 0.0
C172 C 0.77948 0.91949 0.9389 0.0
C173 C 0.8049 0.91138 0.92488 0.0
C174 C 0.77276 0.959 0.91058 0.0
C175 C 0.7626 0.94316 0.93144 0.0
C176 C 0.79789 0.95101 0.89683 0.0
C177 C 0.92037 0.91384 0.80411 0.0
C178 C 0.9073 0.94414 0.76617 0.0
C179 C 0.95475 0.92253 0.76859 0.0
C180 C 0.94771 0.90997 0.7928 0.0
C181 C 0.93472 0.93974 0.75447 0.0
C182 C 0.90021 0.93136 0.79055 0.0
C183 C 0.91382 0.8973 0.8285 0.0
O184 O 0.90779 0.86622 0.90567 0.0
O185 O 0.88001 0.84297 0.8805 0.0
O186 O 0.89157 0.88279 0.82817 0.0
O187 O 0.91959 0.90612 0.85263 0.0
H188 H 0.93732 0.80715 0.87622 0.0
H189 H 0.95684 0.7628 0.89304 0.0
H190 H 0.9088 0.77625 0.96622 0.0
H191 H 0.8892 0.81965 0.94907 0.0
H192 H 0.77256 0.90674 0.95489 0.0
H193 H 0.81697 0.89278 0.93052 0.0
H194 H 0.76111 0.97768 0.90456 0.0
H195 H 0.80446 0.96355 0.88051 0.0
H196 H 0.89118 0.95745 0.75648 0.0
H197 H 0.97587 0.91792 0.76054 0.0
H198 H 0.96371 0.89641 0.80243 0.0
H199 H 0.8789 0.9349 0.79854 0.0
C200 C 0.59814 0.12864 0.30612 0.0
C201 C 0.61527 0.10645 0.29575 0.0
C202 C 0.5836 0.10342 0.25644 0.0
C203 C 0.60796 0.09387 0.2713 0.0
C204 C 0.5663 0.125 0.26761 0.0
C205 C 0.57342 0.13726 0.29185 0.0
U206 U 0.63478 0.15634 0.37383 0.0
O207 O 0.63749 0.20007 0.38198 0.0
O208 O 0.61017 0.17646 0.40738 0.0
C209 C 0.62058 0.19996 0.4029 0.0
C210 C 0.60508 0.14466 0.33063 0.0
C211 C 0.60653 0.22591 0.41361 0.0
C212 C 0.57566 0.2679 0.40991 0.0
C213 C 0.58634 0.24258 0.39933 0.0
C214 C 0.60428 0.25968 0.44953 0.0
C215 C 0.58476 0.27735 0.43518 0.0
C216 C 0.61505 0.23476 0.43884 0.0
C217 C 0.70499 0.11716 0.40559 0.0
C218 C 0.74366 0.128 0.43569 0.0
C219 C 0.7429 0.08279 0.41756 0.0
C220 C 0.71761 0.09059 0.40388 0.0
C221 C 0.75661 0.10142 0.43333 0.0
C222 C 0.71803 0.1358 0.42203 0.0
C223 C 0.68 0.1245 0.38786 0.0
O224 O 0.59972 0.13554 0.35472 0.0
O225 O 0.6269 0.15971 0.33012 0.0
O226 O 0.68102 0.14533 0.37166 0.0
O227 O 0.6542 0.12116 0.39665 0.0
H228 H 0.63446 0.09915 0.30623 0.0
H229 H 0.6219 0.07728 0.26359 0.0
H230 H 0.54707 0.13271 0.25746 0.0
H231 H 0.55963 0.15411 0.29927 0.0
H232 H 0.56081 0.28016 0.39769 0.0
H233 H 0.57918 0.23629 0.37982 0.0
H234 H 0.61159 0.26467 0.46929 0.0
H235 H 0.63053 0.22236 0.4504 0.0
H236 H 0.75351 0.14279 0.44791 0.0
H237 H 0.7523 0.06231 0.41499 0.0
H238 H 0.70825 0.07588 0.39117 0.0
H239 H 0.70883 0.15643 0.42385 0.0
C240 C 0.30645 0.5821 0.10839 0.0
C241 C 0.28937 0.60277 0.09571 0.0
C242 C 0.25979 0.56921 0.07756 0.0
C243 C 0.26603 0.59635 0.08045 0.0
C244 C 0.2783 0.54856 0.08858 0.0
C245 C 0.30136 0.555 0.10409 0.0
U246 U 0.36433 0.62739 0.12342 0.0
O247 O 0.38166 0.64292 0.16065 0.0
O248 O 0.40907 0.61713 0.13373 0.0
C249 C 0.40596 0.62838 0.15748 0.0
C250 C 0.33025 0.58844 0.12533 0.0
C251 C 0.41334 0.61017 0.17953 0.0
C252 C 0.39874 0.5781 0.21232 0.0
C253 C 0.393 0.59335 0.18936 0.0
C254 C 0.44611 0.5944 0.21411 0.0
C255 C 0.42501 0.57924 0.2251 0.0
C256 C 0.4402 0.61 0.19134 0.0
C257 C 0.37684 0.68666 0.08194 0.0
C258 C 0.41048 0.7174 0.09858 0.0
C259 C 0.39523 0.71936 0.05209 0.0
C260 C 0.3782 0.69801 0.05645 0.0
C261 C 0.41081 0.72976 0.0733 0.0
C262 C 0.39365 0.69585 0.10285 0.0
C263 C 0.35913 0.66427 0.08645 0.0
O264 O 0.35506 0.58587 0.11327 0.0
O265 O 0.3262 0.61061 0.13985 0.0
O266 O 0.34419 0.66593 0.10876 0.0
O267 O 0.37234 0.64033 0.08229 0.0
H268 H 0.29357 0.62384 0.09826 0.0
H269 H 0.25206 0.61266 0.07225 0.0
H270 H 0.27422 0.52745 0.08615 0.0
H271 H 0.31488 0.53886 0.11318 0.0
H272 H 0.38224 0.5667 0.22096 0.0
H273 H 0.37225 0.59307 0.18003 0.0
H274 H 0.46631 0.5957 0.22424 0.0
H275 H 0.45606 0.62275 0.18367 0.0
H276 H 0.4222 0.72508 0.11527 0.0
H277 H 0.39563 0.72821 0.03225 0.0
H278 H 0.3659 0.69056 0.04004 0.0
H279 H 0.39332 0.68671 0.12257 0.0
C280 C 0.09929 0.36933 0.59695 0.0
C281 C 0.1141 0.36012 0.57388 0.0
C282 C 0.08718 0.32016 0.57325 0.0
C283 C 0.10814 0.33549 0.5621 0.0
C284 C 0.07242 0.32969 0.59624 0.0
C285 C 0.07847 0.35406 0.60799 0.0
U286 U 0.1426 0.43098 0.60601 0.0
O287 O 0.12898 0.47142 0.62151 0.0
O288 O 0.16151 0.44553 0.64291 0.0
C289 C 0.14412 0.46753 0.64349 0.0
C290 C 0.10616 0.39393 0.61087 0.0
C291 C 0.12809 0.47097 0.66826 0.0
C292 C 0.09515 0.45398 0.70024 0.0
C293 C 0.10869 0.45203 0.67545 0.0
C294 C 0.11963 0.4943 0.71022 0.0
C295 C 0.10075 0.47503 0.71778 0.0
C296 C 0.13333 0.49221 0.68555 0.0
C297 C 0.20327 0.44688 0.56173 0.0
C298 C 0.23855 0.47591 0.57875 0.0
C299 C 0.24575 0.4529 0.53606 0.0
C300 C 0.21959 0.44182 0.53868 0.0
C301 C 0.25593 0.46912 0.55655 0.0
C302 C 0.2123 0.46473 0.58139 0.0
C303 C 0.17913 0.43069 0.56676 0.0
O304 O 0.13108 0.39238 0.62276 0.0
O305 O 0.10026 0.41685 0.598 0.0
O306 O 0.15378 0.44365 0.5653 0.0
O307 O 0.18249 0.41478 0.58777 0.0
H308 H 0.13045 0.37173 0.5653 0.0
H309 H 0.11982 0.32843 0.54443 0.0
H310 H 0.05666 0.31791 0.60558 0.0
H311 H 0.0672 0.36076 0.62602 0.0
H312 H 0.08058 0.439 0.70582 0.0
H313 H 0.10457 0.43546 0.66214 0.0
H314 H 0.12448 0.51045 0.72376 0.0
H315 H 0.14845 0.50676 0.68022 0.0
H316 H 0.24604 0.4883 0.59481 0.0
H317 H 0.25873 0.4477 0.51862 0.0
H318 H 0.21284 0.42813 0.52339 0.0
H319 H 0.19984 0.46876 0.5994 0.0
C320 C 0.02519 0.03377 0.46214 0.0
N321 N 0.0241 0.07857 0.53388 0.0
C322 C 0.04772 0.087 0.52175 0.0
C323 C 0.05676 0.11248 0.52707 0.0
C324 C 0.04176 0.12939 0.54554 0.0
C325 C 0.01806 0.11979 0.55869 0.0
C326 C 0.00942 0.09416 0.55237 0.0
Zn327 Zn 0.01316 0.04144 0.52303 0.0
C328 C 0.95339 0.04047 0.50316 0.0
N329 N 0.9958 0.96334 0.49754 0.0
C330 C 0.01304 0.9472 0.48139 0.0
C331 C 0.97105 0.95493 0.5074 0.0
C332 C 0.96334 0.92895 0.50211 0.0
C333 C 0.98117 0.9115 0.48635 0.0
C334 C 1.00596 0.92097 0.47535 0.0
Zn335 Zn 1.00582 1.00061 0.50882 0.0
O336 O 0.02404 0.05094 0.4812 0.0
C337 C 0.06581 1.00215 0.52897 0.0
O338 O 0.01947 1.0096 0.46758 0.0
H339 H 0.95746 0.96822 0.51989 0.0
H340 H 0.05954 0.07405 0.50759 0.0
H341 H 0.03253 0.95447 0.47372 0.0
O342 O 0.05622 0.02661 0.53204 0.0
O343 O 0.04929 0.98547 0.51903 0.0
H344 H 0.99097 0.0868 0.56204 0.0
O345 O 0.99209 0.99165 0.55001 0.0
O346 O 1.00156 0.03156 0.56479 0.0
O347 O 0.96274 0.01606 0.49889 0.0
O348 O 0.96992 0.05657 0.51398 0.0
C349 C 0.99298 1.00816 0.56956 0.0
H350 H 0.07484 0.11907 0.51612 0.0
H351 H 1.00617 0.13202 0.57345 0.0
H352 H 0.94386 0.92239 0.51063 0.0
H353 H 0.02022 0.90792 0.46317 0.0
C354 C 0.56605 1.00165 1.00429 0.0
N355 N 0.52174 0.0776 0.99791 0.0
C356 C 0.54768 0.08548 1.00525 0.0
C357 C 0.55567 0.11096 0.99831 0.0
C358 C 0.5366 0.12843 0.98402 0.0
C359 C 0.51006 0.12001 0.97648 0.0
C360 C 0.50302 0.09409 0.98358 0.0
Zn361 Zn 0.51217 0.04074 1.01019 0.0
C362 C 0.49219 1.006 0.96586 0.0
N363 N 0.49851 0.96346 0.03901 0.0
C364 C 0.51806 0.94535 0.05034 0.0
C365 C 0.47143 0.95712 0.0342 0.0
C366 C 0.463 0.93185 0.04081 0.0
C367 C 0.48304 0.91207 0.05086 0.0
C368 C 0.51081 0.91916 0.05619 0.0
Zn369 Zn 0.50805 1.00036 0.0268 0.0
O370 O 0.555 0.02529 0.99909 0.0
C371 C 0.5281 0.03457 0.07114 0.0
O372 O 0.55114 0.98537 0.01679 0.0
H373 H 0.45633 0.97135 0.02446 0.0
H374 H 0.56205 0.07215 0.01696 0.0
H375 H 0.53946 0.95091 0.05402 0.0
O376 O 0.52621 0.05106 0.05139 0.0
O377 O 0.52186 1.01034 0.06693 0.0
H378 H 0.48252 0.08729 0.97809 0.0
O379 O 0.4651 0.0161 0.03778 0.0
O380 O 0.4692 0.05601 0.02019 0.0
O381 O 0.49443 0.98965 0.98568 0.0
O382 O 0.49787 0.03045 0.96994 0.0
C383 C 0.45416 0.03971 0.03246 0.0
H384 H 0.57616 0.11727 1.00464 0.0
H385 H 0.49489 0.13345 0.96568 0.0
H386 H 0.4411 0.92765 0.03717 0.0
H387 H 0.52698 0.90448 0.06381 0.0
C388 C 0.52625 0.46793 0.50433 0.0
N389 N 0.53227 0.50583 0.57794 0.0
C390 C 0.5272 0.48169 0.58926 0.0
C391 C 0.53749 0.47546 0.61478 0.0
C392 C 0.55306 0.49433 0.62805 0.0
C393 C 0.55851 0.51873 0.61581 0.0
C394 C 0.54776 0.52416 0.59047 0.0
Zn395 Zn 0.51818 0.51519 0.54169 0.0
C396 C 0.56592 0.53515 0.50935 0.0
N397 N 0.49218 0.53756 0.46567 0.0
C398 C 0.47606 0.51953 0.45347 0.0
C399 C 0.49944 0.56053 0.45336 0.0
C400 C 0.49083 0.56578 0.42716 0.0
C401 C 0.47522 0.54685 0.41396 0.0
C402 C 0.46746 0.52371 0.42725 0.0
Zn403 Zn 0.50598 0.5284 0.50196 0.0
O404 O 0.53136 0.47444 0.5284 0.0
C405 C 0.45825 0.50937 0.53497 0.0
O406 O 0.51495 0.48619 0.48896 0.0
H407 H 0.51233 0.57442 0.46369 0.0
H408 H 0.51486 0.46753 0.57866 0.0
H409 H 0.47029 0.50164 0.46393 0.0
O410 O 0.47792 0.50289 0.55153 0.0
O411 O 0.46398 0.52073 0.51308 0.0
H412 H 0.5515 0.54316 0.5809 0.0
O413 O 0.49725 0.56998 0.51419 0.0
O414 O 0.50444 0.55643 0.55547 0.0
O415 O 0.54749 0.53704 0.49083 0.0
O416 O 0.55885 0.52713 0.53231 0.0
C417 C 0.49747 0.57547 0.53904 0.0
H418 H 0.53272 0.45667 0.62432 0.0
H419 H 0.57012 0.53372 0.62613 0.0
H420 H 0.49697 0.58382 0.41707 0.0
H421 H 0.4551 0.50901 0.41736 0.0
C422 C 0.99318 0.57491 0.99856 0.0
N423 N 0.98807 0.53696 0.0726 0.0
C424 C 0.99514 0.56047 0.08401 0.0
C425 C 0.98569 0.56721 0.10966 0.0
C426 C 0.96864 0.54965 0.12313 0.0
C427 C 0.96109 0.5259 0.11072 0.0
C428 C 0.9713 0.51979 0.08524 0.0
Zn429 Zn 1.00206 0.52722 0.03624 0.0
C430 C 0.95541 0.50694 1.00383 0.0
N431 N 0.02934 0.50602 0.95972 0.0
C432 C 0.04492 0.52417 0.94704 0.0
C433 C 0.02389 0.48198 0.94844 0.0
C434 C 0.03372 0.47569 0.92281 0.0
C435 C 0.04895 0.49454 0.90902 0.0
C436 C 0.05504 0.51878 0.92145 0.0
Zn437 Zn 0.01508 0.51551 0.99595 0.0
O438 O 0.99006 0.5683 0.02295 0.0
C439 C 0.06144 0.53635 0.02849 0.0
O440 O 1.00313 0.55679 0.98231 0.0
H441 H 0.01151 0.46794 0.95915 0.0
H442 H 0.00843 0.57375 0.07334 0.0
H443 H 0.0492 0.54301 0.95665 0.0
O444 O 0.04251 0.53815 0.04652 0.0
O445 O 0.05563 0.52727 1.0056 0.0
H446 H 0.96613 0.50118 0.07567 0.0
O447 O 0.02708 0.47438 1.00929 0.0
O448 O 0.01392 0.48595 0.04987 0.0
O449 O 0.97433 0.50357 0.98585 0.0
O450 O 0.96161 0.51668 0.02633 0.0
C451 C 0.0239 0.46776 0.03367 0.0
H452 H 0.99192 0.58561 0.11904 0.0
H453 H 0.94839 0.51177 0.12102 0.0
H454 H 0.02853 0.45692 0.91348 0.0
H455 H 0.06696 0.53359 0.91124 0.0
H456 H 0.10624 0.0561 0.30628 0.0
H457 H 0.00844 0.0814 0.43637 0.0
H458 H 0.03185 0.1129 0.30666 0.0
H459 H 0.05806 1.00594 0.42337 0.0
H460 H 0.02015 0.09567 0.39072 0.0
H461 H 0.09216 0.03975 0.34986 0.0
C462 C 0.08686 0.06528 0.31494 0.0
C463 C 0.07058 0.08644 0.30161 0.0
C464 C 0.02855 0.07599 0.39779 0.0
C465 C 0.05479 0.06773 0.35346 0.0
C466 C 0.02194 0.06783 0.42398 0.0
C467 C 0.03222 0.04235 0.43398 0.0
C468 C 0.04639 0.05899 0.38133 0.0
C469 C 0.04946 0.02567 0.41665 0.0
C470 C 0.07896 0.05582 0.34033 0.0
C471 C 0.04599 0.0972 0.31547 0.0
N472 N 0.05624 0.03437 0.39148 0.0
N473 N 0.03916 0.08799 0.34038 0.0
H474 H 0.42432 0.99351 0.80271 0.0
H475 H 0.49964 0.95457 0.94419 0.0
H476 H 0.46356 0.91374 0.81985 0.0
H477 H 0.466 0.03529 0.92408 0.0
H478 H 0.48672 0.93927 0.8992 0.0
H479 H 0.43876 1.00853 0.84674 0.0
C480 C 0.43574 0.97884 0.81553 0.0
C481 C 0.44194 0.95179 0.80687 0.0
C482 C 0.48201 0.96031 0.90458 0.0
C483 C 0.4597 0.96982 0.85837 0.0
C484 C 0.48933 0.9691 0.93044 0.0
C485 C 0.4839 0.99636 0.9383 0.0
C486 C 0.46859 0.97869 0.88616 0.0
C487 C 0.47078 1.01415 0.91914 0.0
C488 C 0.44433 0.98774 0.8409 0.0
C489 C 0.45801 0.9347 0.82492 0.0
N490 N 0.46347 1.00502 0.89428 0.0
N491 N 0.4661 0.9439 0.84954 0.0
H492 H 0.63315 0.4586 0.77932 0.0
H493 H 0.52057 0.51159 0.66915 0.0
H494 H 0.55184 0.50065 0.79675 0.0
H495 H 0.6018 0.47079 0.64935 0.0
H496 H 0.53391 0.51098 0.71631 0.0
H497 H 0.62547 0.46787 0.73155 0.0
C498 C 0.61411 0.47054 0.77302 0.0
C499 C 0.5929 0.47881 0.79153 0.0
C500 C 0.5489 0.50206 0.70179 0.0
C501 C 0.58373 0.48884 0.73764 0.0
C502 C 0.54112 0.50217 0.67508 0.0
C503 C 0.5601 0.49084 0.65605 0.0
C504 C 0.57582 0.49047 0.70928 0.0
C505 C 0.58668 0.47931 0.66397 0.0
C506 C 0.60961 0.47557 0.74588 0.0
C507 C 0.56847 0.49387 0.78279 0.0
N508 N 0.59384 0.47929 0.69028 0.0
N509 N 0.56437 0.49817 0.7563 0.0
H510 H 0.98136 0.55732 0.29282 0.0
H511 H 0.91603 0.55231 0.14575 0.0
H512 H 0.89157 0.5728 0.27712 0.0
H513 H 1.00517 0.55621 0.1636 0.0
H514 H 0.90551 0.55461 0.19393 0.0
H515 H 0.98944 0.54898 0.24527 0.0
C516 C 0.96332 0.5585 0.2793 0.0
C517 C 0.93589 0.56612 0.28858 0.0
C518 C 0.92732 0.55504 0.18724 0.0
C519 C 0.94488 0.55706 0.23442 0.0
C520 C 0.93323 0.55389 0.15995 0.0
C521 C 0.96138 0.55428 0.15116 0.0
C522 C 0.94987 0.55608 0.20548 0.0
C523 C 0.98316 0.55624 0.16985 0.0
C524 C 0.96791 0.55392 0.25222 0.0
C525 C 0.91306 0.56701 0.27054 0.0
N526 N 0.97695 0.55691 0.19627 0.0
N527 N 0.91811 0.56288 0.24405 0.0
H528 H 0.30389 0.08417 0.12798 0.0
H529 H 0.40712 0.05361 1.00142 0.0
H530 H 0.27299 0.08457 0.04646 0.0
H531 H 0.43384 0.04393 0.08358 0.0
H532 H 0.3581 0.06567 0.01689 0.0
H533 H 0.35131 0.06988 0.1117 0.0
C534 C 0.30678 0.08101 0.10666 0.0
C535 C 0.28383 0.08568 0.08876 0.0
C536 C 0.3747 0.06109 0.03156 0.0
C537 C 0.33921 0.06975 0.0697 0.0
C538 C 0.40268 0.05434 0.02272 0.0
C539 C 0.42459 0.04802 0.04128 0.0
C540 C 0.36862 0.06197 0.05922 0.0
C541 C 0.4176 0.04873 0.06863 0.0
C542 C 0.33417 0.07302 0.09732 0.0
C543 C 0.28976 0.08174 0.06121 0.0
N544 N 0.39039 0.05575 0.07674 0.0
N545 N 0.31672 0.07414 0.0526 0.0
H546 H 0.23027 0.98745 0.61209 0.0
H547 H 0.09855 0.9551 0.51687 0.0
H548 H 0.22837 0.91585 0.56294 0.0
H549 H 0.10098 0.02925 0.56192 0.0
H550 H 0.14647 0.94097 0.53322 0.0
H551 H 0.18334 1.00337 0.59429 0.0
C552 C 0.22011 0.97498 0.59767 0.0
C553 C 0.23377 0.95017 0.58909 0.0
C554 C 0.13655 0.96034 0.53958 0.0
C555 C 0.17964 0.96852 0.56837 0.0
C556 C 0.10909 0.96841 0.53022 0.0
C557 C 0.09545 0.99338 0.53802 0.0
C558 C 0.15064 0.97713 0.55723 0.0
C559 C 0.11051 1.00983 0.55526 0.0
C560 C 0.19328 0.98421 0.58735 0.0
C561 C 0.21928 0.93527 0.56999 0.0
N562 N 0.13706 1.00138 0.56436 0.0
N563 N 0.19325 0.94459 0.56045 0.0
H564 H 0.77474 0.52104 0.98611 0.0
H565 H 0.93627 0.46408 0.97634 0.0
H566 H 0.79885 0.43748 0.96685 0.0
H567 H 0.90837 0.53614 0.02054 0.0
H568 H 0.88624 0.45434 0.97025 0.0
H569 H 0.82418 0.52754 0.99721 0.0
C570 C 0.79048 0.50401 0.98457 0.0
C571 C 0.78293 0.47877 0.97549 0.0
C572 C 0.89117 0.47223 0.98131 0.0
C573 C 0.83933 0.48601 0.98779 0.0
C574 C 0.91954 0.47787 0.98452 0.0
C575 C 0.92607 0.50093 0.99882 0.0
C576 C 0.86956 0.49018 0.99201 0.0
C577 C 0.90397 0.51809 1.00946 0.0
C578 C 0.81862 0.50767 0.99091 0.0
C579 C 0.80394 0.45722 0.97394 0.0
N580 N 0.87663 0.51249 1.00565 0.0
N581 N 0.8314 0.46141 0.97972 0.0
H582 H 0.74837 0.53652 0.51199 0.0
H583 H 0.58635 0.56387 0.46762 0.0
H584 H 0.72084 0.59262 0.4496 0.0
H585 H 0.61221 0.52212 0.54062 0.0
H586 H 0.63561 0.57468 0.46057 0.0
H587 H 0.69841 0.53145 0.52355 0.0
C588 C 0.73166 0.54808 0.50113 0.0
C589 C 0.73825 0.56504 0.48001 0.0
C590 C 0.63044 0.56326 0.47819 0.0
C591 C 0.68163 0.55902 0.49241 0.0
C592 C 0.60241 0.55696 0.48211 0.0
C593 C 0.5953 0.542 0.50464 0.0
C594 C 0.65146 0.55422 0.49678 0.0
C595 C 0.61681 0.53373 0.52296 0.0
C596 C 0.70327 0.54517 0.50757 0.0
C597 C 0.71624 0.57946 0.46614 0.0
N598 N 0.64398 0.53979 0.51853 0.0
N599 N 0.68878 0.57594 0.47241 0.0
H600 H 0.06839 0.29229 0.04558 0.0
H601 H 0.03176 0.44914 0.08535 0.0
H602 H 0.0688 0.32314 0.12642 0.0
H603 H 0.03363 0.42109 1.0035 0.0
H604 H 0.04455 0.40273 0.10033 0.0
H605 H 0.05501 0.3385 0.0294 0.0
C606 C 0.06586 0.30869 0.05995 0.0
C607 C 0.06975 0.3035 0.08753 0.0
C608 C 0.04212 0.40662 0.07907 0.0
C609 C 0.05429 0.35677 0.06903 0.0
C610 C 0.03474 0.43324 0.07047 0.0
C611 C 0.03163 0.43929 0.04305 0.0
C612 C 0.04625 0.38548 0.06023 0.0
C613 C 0.03597 0.41757 0.02483 0.0
C614 C 0.05806 0.33513 0.05068 0.0
C615 C 0.06571 0.32579 0.10507 0.0
N616 N 0.04295 0.39177 0.0337 0.0
N617 N 0.05832 0.35118 0.09558 0.0
H618 H 0.57778 0.29144 1.01088 0.0
H619 H 0.56665 0.14719 0.94238 0.0
H620 H 0.60239 0.27525 0.92882 0.0
H621 H 0.52376 0.17157 0.01569 0.0
H622 H 0.58163 0.19343 0.93716 0.0
H623 H 0.55922 0.24677 1.01343 0.0
C624 C 0.57914 0.27842 0.99339 0.0
C625 C 0.59163 0.28681 0.96967 0.0
C626 C 0.56863 0.18875 0.95419 0.0
C627 C 0.57066 0.23584 0.97237 0.0
C628 C 0.56012 0.16254 0.95708 0.0
C629 C 0.54373 0.15617 0.97922 0.0
C630 C 0.56089 0.2083 0.97384 0.0
C631 C 0.5361 0.17616 0.99818 0.0
C632 C 0.56849 0.25302 0.99479 0.0
C633 C 0.59272 0.26943 0.94742 0.0
N634 N 0.54487 0.20141 0.99512 0.0
N635 N 0.58256 0.24456 0.94937 0.0
H636 H 0.9349 0.75566 0.42853 0.0
H637 H 0.96738 0.8773 0.52573 0.0
H638 H 0.93883 0.74987 0.51482 0.0
H639 H 0.98049 0.88115 0.44028 0.0
H640 H 0.95588 0.83047 0.52122 0.0
H641 H 0.95202 0.80115 0.43138 0.0
C642 C 0.93972 0.7638 0.44803 0.0
C643 C 0.93506 0.74915 0.47154 0.0
C644 C 0.96139 0.8414 0.50339 0.0
C645 C 0.95415 0.80106 0.4749 0.0
C646 C 0.96775 0.86819 0.50596 0.0
C647 C 0.97474 0.883 0.48331 0.0
C648 C 0.96185 0.82928 0.47794 0.0
C649 C 0.97532 0.87022 0.4582 0.0
C650 C 0.94932 0.78978 0.44963 0.0
C651 C 0.94149 0.76069 0.49624 0.0
N652 N 0.96874 0.84401 0.45612 0.0
N653 N 0.95047 0.78601 0.49727 0.0
H654 H 0.48935 0.7473 0.58051 0.0
H655 H 0.45181 0.5921 0.57037 0.0
H656 H 0.40659 0.72132 0.6005 0.0
H657 H 0.52279 0.6226 0.52885 0.0
H658 H 0.43643 0.63861 0.58436 0.0
H659 H 0.50342 0.70159 0.5643 0.0
C660 C 0.47402 0.7321 0.58155 0.0
C661 C 0.44667 0.73853 0.59231 0.0
C662 C 0.45544 0.63518 0.57229 0.0
C663 C 0.46293 0.68553 0.57344 0.0
C664 C 0.46432 0.60859 0.56445 0.0
C665 C 0.48872 0.60345 0.54858 0.0
C666 C 0.47141 0.65689 0.56474 0.0
C667 C 0.50388 0.62567 0.54112 0.0
C668 C 0.48211 0.70591 0.57207 0.0
C669 C 0.42782 0.7177 0.59239 0.0
N670 N 0.49518 0.65128 0.54945 0.0
N671 N 0.43635 0.69226 0.58341 0.0
H672 H 0.90051 0.95145 0.70965 0.0
H673 H 0.0202 0.01482 0.61809 0.0
H674 H 0.98687 0.95644 0.73677 0.0
H675 H 0.94594 0.9819 0.58472 0.0
H676 H 1.00632 0.99915 0.66286 0.0
H677 H 0.91417 0.9688 0.66578 0.0
C678 C 0.92229 0.95631 0.70668 0.0
C679 C 0.94241 0.95203 0.72751 0.0
C680 C 0.9929 0.99552 0.6458 0.0
C681 C 0.95841 0.97215 0.67636 0.0
C682 C 1.00077 1.00462 0.62018 0.0
C683 C 0.98421 0.99987 0.59739 0.0
C684 C 0.96773 0.98213 0.64911 0.0
C685 C 0.95946 0.98606 0.60154 0.0
C686 C 0.93016 0.96606 0.68133 0.0
C687 C 0.97043 0.95875 0.72163 0.0
N688 N 0.9519 0.97802 0.62669 0.0
N689 N 0.97746 0.96842 0.69692 0.0
H690 H 0.56331 0.13167 0.21206 0.0
H691 H 0.54042 1.00364 0.11672 0.0
H692 H 0.58727 0.04987 0.23734 0.0
H693 H 0.53589 0.08635 0.08918 0.0
H694 H 0.55438 0.01913 0.16143 0.0
H695 H 0.54997 0.11461 0.16833 0.0
C696 C 0.56569 0.11003 0.20859 0.0
C697 C 0.57642 0.09236 0.22896 0.0
C698 C 0.55041 0.03389 0.1456 0.0
C699 C 0.56104 0.07235 0.17777 0.0
C700 C 0.54236 0.02506 0.11995 0.0
C701 C 0.53697 0.04361 0.09873 0.0
C702 C 0.55288 0.06165 0.15051 0.0
C703 C 0.53987 0.07113 0.10456 0.0
C704 C 0.55816 0.10027 0.18332 0.0
C705 C 0.57933 0.06448 0.2225 0.0
N706 N 0.54742 0.07919 0.12966 0.0
N707 N 0.57157 0.05539 0.19769 0.0
H708 H 0.39764 0.60144 0.26743 0.0
H709 H 0.49 0.51288 0.3733 0.0
H710 H 0.4605 0.53791 0.24446 0.0
H711 H 0.44328 0.58878 0.39205 0.0
H712 H 0.47509 0.51793 0.32651 0.0
H713 H 0.40874 0.5924 0.31445 0.0
C714 C 0.41328 0.58507 0.27254 0.0
C715 C 0.42815 0.57013 0.25259 0.0
C716 C 0.46812 0.53346 0.34085 0.0
C717 C 0.44127 0.56008 0.30566 0.0
C718 C 0.47659 0.5306 0.36733 0.0
C719 C 0.46768 0.55051 0.386 0.0
C720 C 0.45044 0.55623 0.3334 0.0
C721 C 0.45055 0.5732 0.37786 0.0
C722 C 0.41982 0.58014 0.2992 0.0
C723 C 0.44866 0.5496 0.25966 0.0
N724 N 0.4423 0.57543 0.35196 0.0
N725 N 0.45476 0.54514 0.28587 0.0
H726 H 0.0727 0.51837 0.74147 0.0
H727 H 0.07527 0.44952 0.88578 0.0
H728 H 0.10152 0.43467 0.75482 0.0
H729 H 0.0379 0.52993 0.86869 0.0
H730 H 0.08502 0.44296 0.83785 0.0
H731 H 0.05838 0.52222 0.78827 0.0
C732 C 0.07567 0.50075 0.75433 0.0
C733 C 0.08837 0.47628 0.74464 0.0
C734 C 0.07459 0.46197 0.84464 0.0
C735 C 0.07252 0.48044 0.79796 0.0
C736 C 0.06914 0.46568 0.87183 0.0
C737 C 0.056 0.49029 0.88083 0.0
C738 C 0.06661 0.48303 0.82669 0.0
C739 C 0.04848 0.51081 0.86237 0.0
C740 C 0.06756 0.5029 0.78097 0.0
C741 C 0.09165 0.45386 0.76177 0.0
N742 N 0.05391 0.5067 0.83608 0.0
N743 N 0.08403 0.45655 0.78786 0.0
H744 H 0.74484 0.93923 0.98473 0.0
H745 H 0.59014 1.01409 0.95667 0.0
H746 H 0.71415 0.96519 0.90671 0.0
H747 H 0.60879 0.96993 0.02972 0.0
H748 H 0.63778 0.99986 0.94007 0.0
H749 H 0.69767 0.95347 1.00356 0.0
C750 C 0.72832 0.94775 0.97148 0.0
C751 C 0.73392 0.95107 0.94395 0.0
C752 C 0.63163 0.9933 0.95979 0.0
C753 C 0.67972 0.96767 0.96556 0.0
C754 C 0.60438 1.00152 0.96932 0.0
C755 C 0.59535 0.9931 0.99457 0.0
C756 C 0.65055 0.97692 0.97579 0.0
C757 C 0.61476 0.97663 1.00999 0.0
C758 C 0.70137 0.95597 0.98231 0.0
C759 C 0.71144 0.96262 0.92806 0.0
N760 N 0.64147 0.96924 1.00047 0.0
N761 N 0.68567 0.97046 0.93903 0.0
H762 H 0.77186 0.05612 0.46373 0.0
H763 H 0.93577 0.0893 0.48063 0.0
H764 H 0.80623 0.12737 0.4312 0.0
H765 H 0.90436 1.01353 0.50483 0.0
H766 H 0.88805 0.10437 0.46434 0.0
H767 H 0.81914 0.04139 0.48147 0.0
C768 C 0.78934 0.06872 0.46035 0.0
C769 C 0.7849 0.09315 0.446 0.0
C770 C 0.89144 0.08454 0.47344 0.0
C771 C 0.83951 0.07614 0.46604 0.0
C772 C 0.91871 0.07598 0.48288 0.0
C773 C 0.92408 0.05021 0.49434 0.0
C774 C 0.86899 0.06746 0.47588 0.0
C775 C 0.90121 0.03357 0.49614 0.0
C776 C 0.8164 0.06025 0.47046 0.0
C777 C 0.80845 0.10863 0.44243 0.0
N778 N 0.87473 0.04252 0.48722 0.0
N779 N 0.8346 0.09985 0.45221 0.0
H780 H 0.22484 0.53425 0.09908 0.0
H781 H 0.09931 0.55681 0.9941 0.0
H782 H 0.23095 0.59003 0.0331 0.0
H783 H 0.08874 0.53154 0.07605 0.0
H784 H 0.14901 0.56513 1.00406 0.0
H785 H 0.17673 0.52683 0.08563 0.0
C786 C 0.21622 0.54458 0.0814 0.0
C787 C 0.23192 0.56268 0.06708 0.0
C788 C 0.13568 0.55788 0.01978 0.0
C789 C 0.17639 0.55493 0.05214 0.0
C790 C 0.10753 0.5531 0.01415 0.0
C791 C 0.09027 0.54338 0.03434 0.0
C792 C 0.14645 0.55218 0.04551 0.0
C793 C 0.10146 0.53912 0.06003 0.0
C794 C 0.18858 0.54064 0.074 0.0
C795 C 0.21938 0.57602 0.04473 0.0
N796 N 0.12903 0.54326 0.06481 0.0
N797 N 0.19212 0.5719 0.03788 0.0
H798 H 0.30189 0.4341 0.54913 0.0
H799 H 0.41328 0.54651 0.53859 0.0
H800 H 0.27798 0.51862 0.56378 0.0
H801 H 0.43715 0.46106 0.54531 0.0
H802 H 0.36353 0.53758 0.54729 0.0
H803 H 0.35154 0.44419 0.54677 0.0
C804 C 0.30721 0.45486 0.55173 0.0
C805 C 0.28592 0.47566 0.55614 0.0
C806 C 0.37965 0.52081 0.54698 0.0
C807 C 0.34274 0.48739 0.55368 0.0
C808 C 0.40786 0.52588 0.54192 0.0
C809 C 0.42889 0.50439 0.5412 0.0
C810 C 0.37261 0.49399 0.55065 0.0
C811 C 0.42131 0.47807 0.54585 0.0
C812 C 0.33555 0.46059 0.55059 0.0
C813 C 0.29388 0.50211 0.56009 0.0
N814 N 0.39364 0.47354 0.55008 0.0
N815 N 0.32178 0.50732 0.55847 0.0
H816 H 0.98608 0.73537 0.92264 0.0
H817 H 0.95104 0.61101 0.01791 0.0
H818 H 0.90557 0.73031 0.96288 0.0
H819 H 0.01701 0.60367 0.95803 0.0
H820 H 0.93752 0.65713 1.00203 0.0
H821 H 1.00107 0.68978 0.93917 0.0
C822 C 0.97141 0.72484 0.93478 0.0
C823 C 0.94433 0.73724 0.94117 0.0
C824 C 0.95503 0.64552 0.99238 0.0
C825 C 0.96183 0.68468 0.96069 0.0
C826 C 0.96282 0.61915 1.00152 0.0
C827 C 0.98512 0.60326 0.98924 0.0
C828 C 0.97001 0.65659 0.97111 0.0
C829 C 0.9995 0.615 0.96795 0.0
C830 C 0.98013 0.69873 0.94435 0.0
C831 C 0.92679 0.72227 0.95761 0.0
N832 N 0.99186 0.6409 0.95972 0.0
N833 N 0.93582 0.69708 0.96673 0.0
H834 H 0.46304 0.74342 0.09185 0.0
H835 H 0.44789 0.88561 0.0184 0.0
H836 H 0.38885 0.7745 0.0476 0.0
H837 H 0.50073 0.87394 0.08897 0.0
H838 H 0.43225 0.84071 0.02409 0.0
H839 H 0.48322 0.78761 0.08659 0.0
C840 C 0.45111 0.75945 0.08098 0.0
C841 C 0.42446 0.75527 0.06973 0.0
C842 C 0.44728 0.84793 0.03836 0.0
C843 C 0.44721 0.80509 0.06372 0.0
C844 C 0.45606 0.87374 0.03532 0.0
C845 C 0.47509 0.88394 0.0537 0.0
C846 C 0.45796 0.83179 0.05962 0.0
C847 C 0.48593 0.86692 0.0744 0.0
C848 C 0.46258 0.7845 0.07805 0.0
C849 C 0.4098 0.77657 0.0559 0.0
N850 N 0.47712 0.84151 0.07689 0.0
N851 N 0.42141 0.80051 0.05325 0.0
H852 H 0.03547 0.30226 0.56211 0.0
H853 H 0.09538 0.14802 0.5465 0.0
H854 H 0.12516 0.27761 0.5601 0.0
H855 H 1.00629 0.17502 0.55265 0.0
H856 H 0.10724 0.1952 0.54788 0.0
H857 H 0.0249 0.2557 0.55337 0.0
C858 C 0.05294 0.287 0.55941 0.0
C859 C 0.08117 0.29356 0.56224 0.0
C860 C 0.08513 0.19073 0.54899 0.0
C861 C 0.06933 0.24019 0.55265 0.0
C862 C 0.0783 0.16382 0.54819 0.0
C863 C 0.04973 0.1575 0.54937 0.0
C864 C 0.06324 0.21141 0.55113 0.0
C865 C 0.0286 0.17879 0.55204 0.0
C866 C 0.04693 0.26041 0.55455 0.0
C867 C 0.10309 0.27323 0.55816 0.0
N868 N 0.03581 0.20475 0.55279 0.0
N869 N 0.0967 0.24724 0.55392 0.0
H870 H 0.60843 0.3074 0.47635 0.0
H871 H 0.50731 0.44337 0.45862 0.0
H872 H 0.53814 0.3133 0.4202 0.0
H873 H 0.56177 0.4275 0.52712 0.0
H874 H 0.51986 0.39704 0.44259 0.0
H875 H 0.59271 0.35146 0.49366 0.0
C876 C 0.58953 0.31732 0.46753 0.0
C877 C 0.57484 0.30533 0.44636 0.0
C878 C 0.52904 0.40366 0.46115 0.0
C879 C 0.55727 0.358 0.46617 0.0
C880 C 0.52195 0.43022 0.4703 0.0
C881 C 0.53349 0.43959 0.49432 0.0
C882 C 0.54824 0.38624 0.4758 0.0
C883 C 0.55224 0.42134 0.50857 0.0
C884 C 0.58072 0.34309 0.47753 0.0
C885 C 0.55093 0.321 0.43602 0.0
N886 N 0.55913 0.3958 0.49903 0.0
N887 N 0.54316 0.34634 0.44581 0.0
loop_
_geom_bond_atom_site_label_1
_geom_bond_atom_site_label_2
_geom_bond_distance
_geom_bond_site_symmetry_2
_ccdc_geom_bond_type
C0 C1 1.264 . S
C0 C5 1.479 . S
C0 C10 1.465 . S
C1 C0 1.264 . S
C1 C3 1.339 . S
C1 H28 0.931 . S
C2 C3 1.395 . S
C2 C4 1.320 . S
C3 C1 1.339 . S
C3 C2 1.395 . S
C3 H29 0.929 . S
C4 C2 1.320 . S
C4 C5 1.405 . S
C4 H30 0.930 . S
C5 C0 1.479 . S
C5 C4 1.405 . S
C5 H31 0.931 . S
U6 O7 2.454 . S
U6 O8 2.458 . S
U6 C9 2.984 . S
U6 C10 2.847 . S
U6 C23 2.882 . S
U6 O24 2.441 . S
U6 O25 2.420 . S
U6 O26 2.455 . S
U6 O27 2.449 . S
O7 U6 2.454 . S
O7 C9 1.353 . S
O8 U6 2.458 . S
O8 C9 1.286 . S
C9 U6 2.984 . S
C9 O7 1.353 . S
C9 O8 1.286 . S
C9 C11 1.363 . S
C10 C0 1.465 . S
C10 U6 2.847 . S
C10 O24 1.249 . S
C10 O25 1.202 . S
C11 C9 1.363 . S
C11 C13 1.408 . S
C11 C16 1.342 . S
C12 C13 1.310 . S
C12 C15 1.461 . S
C12 H32 0.932 . S
C13 C11 1.408 . S
C13 C12 1.310 . S
C13 H33 0.930 . S
C14 C15 1.474 . S
C14 C16 1.285 . S
C14 H34 0.929 . S
C15 C12 1.461 . S
C15 C14 1.474 . S
C16 C11 1.342 . S
C16 C14 1.285 . S
C16 H35 0.930 . S
C17 C20 1.424 . S
C17 C22 1.245 . S
C17 C23 1.428 . S
C18 C21 1.260 . S
C18 C22 1.477 . S
C18 H36 0.932 . S
C19 C20 1.384 . S
C19 C21 1.479 . S
C19 H37 0.929 . S
C20 C17 1.424 . S
C20 C19 1.384 . S
C20 H38 0.928 . S
C21 C18 1.260 . S
C21 C19 1.479 . S
C22 C17 1.245 . S
C22 C18 1.477 . S
C22 H39 0.932 . S
C23 U6 2.882 . S
C23 C17 1.428 . S
C23 O26 1.301 . S
C23 O27 1.282 . S
O24 U6 2.441 . S
O24 C10 1.249 . S
O25 U6 2.420 . S
O25 C10 1.202 . S
O26 U6 2.455 . S
O26 C23 1.301 . S
O27 U6 2.449 . S
O27 C23 1.282 . S
H28 C1 0.931 . S
H29 C3 0.929 . S
H30 C4 0.930 . S
H31 C5 0.931 . S
H32 C12 0.932 . S
H33 C13 0.930 . S
H34 C14 0.929 . S
H35 C16 0.930 . S
H36 C18 0.932 . S
H37 C19 0.929 . S
H38 C20 0.928 . S
H39 C22 0.932 . S
C40 C41 1.264 . S
C40 C45 1.479 . S
C40 C50 1.465 . S
C41 C40 1.264 . S
C41 C43 1.339 . S
C41 H68 0.931 . S
C42 C43 1.395 . S
C42 C44 1.320 . S
C43 C41 1.339 . S
C43 C42 1.395 . S
C43 H69 0.929 . S
C44 C42 1.320 . S
C44 C45 1.405 . S
C44 H70 0.930 . S
C45 C40 1.479 . S
C45 C44 1.405 . S
C45 H71 0.931 . S
U46 O47 2.454 . S
U46 O48 2.458 . S
U46 C49 2.984 . S
U46 C50 2.847 . S
U46 C63 2.882 . S
U46 O64 2.441 . S
U46 O65 2.420 . S
U46 O66 2.455 . S
U46 O67 2.449 . S
O47 U46 2.454 . S
O47 C49 1.353 . S
O48 U46 2.458 . S
O48 C49 1.286 . S
C49 U46 2.984 . S
C49 O47 1.353 . S
C49 O48 1.286 . S
C49 C51 1.363 . S
C50 C40 1.465 . S
C50 U46 2.847 . S
C50 O64 1.249 . S
C50 O65 1.202 . S
C51 C49 1.363 . S
C51 C53 1.408 . S
C51 C56 1.342 . S
C52 C53 1.310 . S
C52 C55 1.461 . S
C52 H72 0.932 . S
C53 C51 1.408 . S
C53 C52 1.310 . S
C53 H73 0.930 . S
C54 C55 1.474 . S
C54 C56 1.285 . S
C54 H74 0.929 . S
C55 C52 1.461 . S
C55 C54 1.474 . S
C56 C51 1.342 . S
C56 C54 1.285 . S
C56 H75 0.930 . S
C57 C60 1.424 . S
C57 C62 1.245 . S
C57 C63 1.428 . S
C58 C61 1.260 . S
C58 C62 1.477 . S
C58 H76 0.932 . S
C59 C60 1.384 . S
C59 C61 1.479 . S
C59 H77 0.929 . S
C60 C57 1.424 . S
C60 C59 1.384 . S
C60 H78 0.928 . S
C61 C58 1.260 . S
C61 C59 1.479 . S
C62 C57 1.245 . S
C62 C58 1.477 . S
C62 H79 0.932 . S
C63 U46 2.882 . S
C63 C57 1.428 . S
C63 O66 1.301 . S
C63 O67 1.282 . S
O64 U46 2.441 . S
O64 C50 1.249 . S
O65 U46 2.420 . S
O65 C50 1.202 . S
O66 U46 2.455 . S
O66 C63 1.301 . S
O67 U46 2.449 . S
O67 C63 1.282 . S
H68 C41 0.931 . S
H69 C43 0.929 . S
H70 C44 0.930 . S
H71 C45 0.931 . S
H72 C52 0.932 . S
H73 C53 0.930 . S
H74 C54 0.929 . S
H75 C56 0.930 . S
H76 C58 0.932 . S
H77 C59 0.929 . S
H78 C60 0.928 . S
H79 C62 0.932 . S
C80 C81 1.264 . S
C80 C85 1.479 . S
C80 C90 1.465 . S
C81 C80 1.264 . S
C81 C83 1.339 . S
C81 H108 0.931 . S
C82 C83 1.395 . S
C82 C84 1.320 . S
C83 C81 1.339 . S
C83 C82 1.395 . S
C83 H109 0.929 . S
C84 C82 1.320 . S
C84 C85 1.405 . S
C84 H110 0.930 . S
C85 C80 1.479 . S
C85 C84 1.405 . S
C85 H111 0.931 . S
U86 O87 2.454 . S
U86 O88 2.458 . S
U86 C89 2.984 . S
U86 C90 2.847 . S
U86 C103 2.882 . S
U86 O104 2.441 . S
U86 O105 2.420 . S
U86 O106 2.455 . S
U86 O107 2.449 . S
O87 U86 2.454 . S
O87 C89 1.353 . S
O88 U86 2.458 . S
O88 C89 1.286 . S
C89 U86 2.984 . S
C89 O87 1.353 . S
C89 O88 1.286 . S
C89 C91 1.363 . S
C90 C80 1.465 . S
C90 U86 2.847 . S
C90 O104 1.249 . S
C90 O105 1.202 . S
C91 C89 1.363 . S
C91 C93 1.408 . S
C91 C96 1.342 . S
C92 C93 1.310 . S
C92 C95 1.461 . S
C92 H112 0.932 . S
C93 C91 1.408 . S
C93 C92 1.310 . S
C93 H113 0.930 . S
C94 C95 1.474 . S
C94 C96 1.285 . S
C94 H114 0.929 . S
C95 C92 1.461 . S
C95 C94 1.474 . S
C96 C91 1.342 . S
C96 C94 1.285 . S
C96 H115 0.930 . S
C97 C100 1.424 . S
C97 C102 1.245 . S
C97 C103 1.428 . S
C98 C101 1.260 . S
C98 C102 1.477 . S
C98 H116 0.932 . S
C99 C100 1.384 . S
C99 C101 1.479 . S
C99 H117 0.929 . S
C100 C97 1.424 . S
C100 C99 1.384 . S
C100 H118 0.928 . S
C101 C98 1.260 . S
C101 C99 1.479 . S
C102 C97 1.245 . S
C102 C98 1.477 . S
C102 H119 0.932 . S
C103 U86 2.882 . S
C103 C97 1.428 . S
C103 O106 1.301 . S
C103 O107 1.282 . S
O104 U86 2.441 . S
O104 C90 1.249 . S
O105 U86 2.420 . S
O105 C90 1.202 . S
O106 U86 2.455 . S
O106 C103 1.301 . S
O107 U86 2.449 . S
O107 C103 1.282 . S
H108 C81 0.931 . S
H109 C83 0.929 . S
H110 C84 0.930 . S
H111 C85 0.931 . S
H112 C92 0.932 . S
H113 C93 0.930 . S
H114 C94 0.929 . S
H115 C96 0.930 . S
H116 C98 0.932 . S
H117 C99 0.929 . S
H118 C100 0.928 . S
H119 C102 0.932 . S
C120 C121 1.264 . S
C120 C125 1.479 . S
C120 C130 1.465 . S
C121 C120 1.264 . S
C121 C123 1.339 . S
C121 H148 0.931 . S
C122 C123 1.395 . S
C122 C124 1.320 . S
C123 C121 1.339 . S
C123 C122 1.395 . S
C123 H149 0.929 . S
C124 C122 1.320 . S
C124 C125 1.405 . S
C124 H150 0.930 . S
C125 C120 1.479 . S
C125 C124 1.405 . S
C125 H151 0.931 . S
U126 O127 2.454 . S
U126 O128 2.458 . S
U126 C129 2.984 . S
U126 C130 2.847 . S
U126 C143 2.882 . S
U126 O144 2.441 . S
U126 O145 2.420 . S
U126 O146 2.455 . S
U126 O147 2.449 . S
O127 U126 2.454 . S
O127 C129 1.353 . S
O128 U126 2.458 . S
O128 C129 1.286 . S
C129 U126 2.984 . S
C129 O127 1.353 . S
C129 O128 1.286 . S
C129 C131 1.363 . S
C130 C120 1.465 . S
C130 U126 2.847 . S
C130 O144 1.249 . S
C130 O145 1.202 . S
C131 C129 1.363 . S
C131 C133 1.408 . S
C131 C136 1.342 . S
C132 C133 1.310 . S
C132 C135 1.461 . S
C132 H152 0.932 . S
C133 C131 1.408 . S
C133 C132 1.310 . S
C133 H153 0.930 . S
C134 C135 1.474 . S
C134 C136 1.285 . S
C134 H154 0.929 . S
C135 C132 1.461 . S
C135 C134 1.474 . S
C136 C131 1.342 . S
C136 C134 1.285 . S
C136 H155 0.930 . S
C137 C140 1.424 . S
C137 C142 1.245 . S
C137 C143 1.428 . S
C138 C141 1.260 . S
C138 C142 1.477 . S
C138 H156 0.932 . S
C139 C140 1.384 . S
C139 C141 1.479 . S
C139 H157 0.929 . S
C140 C137 1.424 . S
C140 C139 1.384 . S
C140 H158 0.928 . S
C141 C138 1.260 . S
C141 C139 1.479 . S
C142 C137 1.245 . S
C142 C138 1.477 . S
C142 H159 0.932 . S
C143 U126 2.882 . S
C143 C137 1.428 . S
C143 O146 1.301 . S
C143 O147 1.282 . S
O144 U126 2.441 . S
O144 C130 1.249 . S
O145 U126 2.420 . S
O145 C130 1.202 . S
O146 U126 2.455 . S
O146 C143 1.301 . S
O147 U126 2.449 . S
O147 C143 1.282 . S
H148 C121 0.931 . S
H149 C123 0.929 . S
H150 C124 0.930 . S
H151 C125 0.931 . S
H152 C132 0.932 . S
H153 C133 0.930 . S
H154 C134 0.929 . S
H155 C136 0.930 . S
H156 C138 0.932 . S
H157 C139 0.929 . S
H158 C140 0.928 . S
H159 C142 0.932 . S
C160 C161 1.264 . S
C160 C165 1.479 . S
C160 C170 1.465 . S
C161 C160 1.264 . S
C161 C163 1.339 . S
C161 H188 0.931 . S
C162 C163 1.395 . S
C162 C164 1.320 . S
C163 C161 1.339 . S
C163 C162 1.395 . S
C163 H189 0.929 . S
C164 C162 1.320 . S
C164 C165 1.405 . S
C164 H190 0.930 . S
C165 C160 1.479 . S
C165 C164 1.405 . S
C165 H191 0.931 . S
U166 O167 2.454 . S
U166 O168 2.458 . S
U166 C169 2.984 . S
U166 C170 2.847 . S
U166 C183 2.882 . S
U166 O184 2.441 . S
U166 O185 2.420 . S
U166 O186 2.455 . S
U166 O187 2.449 . S
O167 U166 2.454 . S
O167 C169 1.353 . S
O168 U166 2.458 . S
O168 C169 1.286 . S
C169 U166 2.984 . S
C169 O167 1.353 . S
C169 O168 1.286 . S
C169 C171 1.363 . S
C170 C160 1.465 . S
C170 U166 2.847 . S
C170 O184 1.249 . S
C170 O185 1.202 . S
C171 C169 1.363 . S
C171 C173 1.408 . S
C171 C176 1.342 . S
C172 C173 1.310 . S
C172 C175 1.461 . S
C172 H192 0.932 . S
C173 C171 1.408 . S
C173 C172 1.310 . S
C173 H193 0.930 . S
C174 C175 1.474 . S
C174 C176 1.285 . S
C174 H194 0.929 . S
C175 C172 1.461 . S
C175 C174 1.474 . S
C176 C171 1.342 . S
C176 C174 1.285 . S
C176 H195 0.930 . S
C177 C180 1.424 . S
C177 C182 1.245 . S
C177 C183 1.428 . S
C178 C181 1.260 . S
C178 C182 1.477 . S
C178 H196 0.932 . S
C179 C180 1.384 . S
C179 C181 1.479 . S
C179 H197 0.929 . S
C180 C177 1.424 . S
C180 C179 1.384 . S
C180 H198 0.928 . S
C181 C178 1.260 . S
C181 C179 1.479 . S
C182 C177 1.245 . S
C182 C178 1.477 . S
C182 H199 0.932 . S
C183 U166 2.882 . S
C183 C177 1.428 . S
C183 O186 1.301 . S
C183 O187 1.282 . S
O184 U166 2.441 . S
O184 C170 1.249 . S
O185 U166 2.420 . S
O185 C170 1.202 . S
O186 U166 2.455 . S
O186 C183 1.301 . S
O187 U166 2.449 . S
O187 C183 1.282 . S
H188 C161 0.931 . S
H189 C163 0.929 . S
H190 C164 0.930 . S
H191 C165 0.931 . S
H192 C172 0.932 . S
H193 C173 0.930 . S
H194 C174 0.929 . S
H195 C176 0.930 . S
H196 C178 0.932 . S
H197 C179 0.929 . S
H198 C180 0.928 . S
H199 C182 0.932 . S
C200 C201 1.264 . S
C200 C205 1.479 . S
C200 C210 1.465 . S
C201 C200 1.264 . S
C201 C203 1.339 . S
C201 H228 0.931 . S
C202 C203 1.395 . S
C202 C204 1.320 . S
C203 C201 1.339 . S
C203 C202 1.395 . S
C203 H229 0.929 . S
C204 C202 1.320 . S
C204 C205 1.405 . S
C204 H230 0.930 . S
C205 C200 1.479 . S
C205 C204 1.405 . S
C205 H231 0.931 . S
U206 O207 2.454 . S
U206 O208 2.458 . S
U206 C209 2.984 . S
U206 C210 2.847 . S
U206 C223 2.882 . S
U206 O224 2.441 . S
U206 O225 2.420 . S
U206 O226 2.455 . S
U206 O227 2.449 . S
O207 U206 2.454 . S
O207 C209 1.353 . S
O208 U206 2.458 . S
O208 C209 1.286 . S
C209 U206 2.984 . S
C209 O207 1.353 . S
C209 O208 1.286 . S
C209 C211 1.363 . S
C210 C200 1.465 . S
C210 U206 2.847 . S
C210 O224 1.249 . S
C210 O225 1.202 . S
C211 C209 1.363 . S
C211 C213 1.408 . S
C211 C216 1.342 . S
C212 C213 1.310 . S
C212 C215 1.461 . S
C212 H232 0.932 . S
C213 C211 1.408 . S
C213 C212 1.310 . S
C213 H233 0.930 . S
C214 C215 1.474 . S
C214 C216 1.285 . S
C214 H234 0.929 . S
C215 C212 1.461 . S
C215 C214 1.474 . S
C216 C211 1.342 . S
C216 C214 1.285 . S
C216 H235 0.930 . S
C217 C220 1.424 . S
C217 C222 1.245 . S
C217 C223 1.428 . S
C218 C221 1.260 . S
C218 C222 1.477 . S
C218 H236 0.932 . S
C219 C220 1.384 . S
C219 C221 1.479 . S
C219 H237 0.929 . S
C220 C217 1.424 . S
C220 C219 1.384 . S
C220 H238 0.928 . S
C221 C218 1.260 . S
C221 C219 1.479 . S
C222 C217 1.245 . S
C222 C218 1.477 . S
C222 H239 0.932 . S
C223 U206 2.882 . S
C223 C217 1.428 . S
C223 O226 1.301 . S
C223 O227 1.282 . S
O224 U206 2.441 . S
O224 C210 1.249 . S
O225 U206 2.420 . S
O225 C210 1.202 . S
O226 U206 2.455 . S
O226 C223 1.301 . S
O227 U206 2.449 . S
O227 C223 1.282 . S
H228 C201 0.931 . S
H229 C203 0.929 . S
H230 C204 0.930 . S
H231 C205 0.931 . S
H232 C212 0.932 . S
H233 C213 0.930 . S
H234 C214 0.929 . S
H235 C216 0.930 . S
H236 C218 0.932 . S
H237 C219 0.929 . S
H238 C220 0.928 . S
H239 C222 0.932 . S
C240 C241 1.264 . S
C240 C245 1.479 . S
C240 C250 1.465 . S
C241 C240 1.264 . S
C241 C243 1.339 . S
C241 H268 0.931 . S
C242 C243 1.395 . S
C242 C244 1.320 . S
C243 C241 1.339 . S
C243 C242 1.395 . S
C243 H269 0.929 . S
C244 C242 1.320 . S
C244 C245 1.405 . S
C244 H270 0.930 . S
C245 C240 1.479 . S
C245 C244 1.405 . S
C245 H271 0.931 . S
U246 O247 2.454 . S
U246 O248 2.458 . S
U246 C249 2.984 . S
U246 C250 2.847 . S
U246 C263 2.882 . S
U246 O264 2.441 . S
U246 O265 2.420 . S
U246 O266 2.455 . S
U246 O267 2.449 . S
O247 U246 2.454 . S
O247 C249 1.353 . S
O248 U246 2.458 . S
O248 C249 1.286 . S
C249 U246 2.984 . S
C249 O247 1.353 . S
C249 O248 1.286 . S
C249 C251 1.363 . S
C250 C240 1.465 . S
C250 U246 2.847 . S
C250 O264 1.249 . S
C250 O265 1.202 . S
C251 C249 1.363 . S
C251 C253 1.408 . S
C251 C256 1.342 . S
C252 C253 1.310 . S
C252 C255 1.461 . S
C252 H272 0.932 . S
C253 C251 1.408 . S
C253 C252 1.310 . S
C253 H273 0.930 . S
C254 C255 1.474 . S
C254 C256 1.285 . S
C254 H274 0.929 . S
C255 C252 1.461 . S
C255 C254 1.474 . S
C256 C251 1.342 . S
C256 C254 1.285 . S
C256 H275 0.930 . S
C257 C260 1.424 . S
C257 C262 1.245 . S
C257 C263 1.428 . S
C258 C261 1.260 . S
C258 C262 1.477 . S
C258 H276 0.932 . S
C259 C260 1.384 . S
C259 C261 1.479 . S
C259 H277 0.929 . S
C260 C257 1.424 . S
C260 C259 1.384 . S
C260 H278 0.928 . S
C261 C258 1.260 . S
C261 C259 1.479 . S
C262 C257 1.245 . S
C262 C258 1.477 . S
C262 H279 0.932 . S
C263 U246 2.882 . S
C263 C257 1.428 . S
C263 O266 1.301 . S
C263 O267 1.282 . S
O264 U246 2.441 . S
O264 C250 1.249 . S
O265 U246 2.420 . S
O265 C250 1.202 . S
O266 U246 2.455 . S
O266 C263 1.301 . S
O267 U246 2.449 . S
O267 C263 1.282 . S
H268 C241 0.931 . S
H269 C243 0.929 . S
H270 C244 0.930 . S
H271 C245 0.931 . S
H272 C252 0.932 . S
H273 C253 0.930 . S
H274 C254 0.929 . S
H275 C256 0.930 . S
H276 C258 0.932 . S
H277 C259 0.929 . S
H278 C260 0.928 . S
H279 C262 0.932 . S
C280 C281 1.264 . S
C280 C285 1.479 . S
C280 C290 1.465 . S
C281 C280 1.264 . S
C281 C283 1.339 . S
C281 H308 0.931 . S
C282 C283 1.395 . S
C282 C284 1.320 . S
C283 C281 1.339 . S
C283 C282 1.395 . S
C283 H309 0.929 . S
C284 C282 1.320 . S
C284 C285 1.405 . S
C284 H310 0.930 . S
C285 C280 1.479 . S
C285 C284 1.405 . S
C285 H311 0.931 . S
U286 O287 2.454 . S
U286 O288 2.458 . S
U286 C289 2.984 . S
U286 C290 2.847 . S
U286 C303 2.882 . S
U286 O304 2.441 . S
U286 O305 2.420 . S
U286 O306 2.455 . S
U286 O307 2.449 . S
O287 U286 2.454 . S
O287 C289 1.353 . S
O288 U286 2.458 . S
O288 C289 1.286 . S
C289 U286 2.984 . S
C289 O287 1.353 . S
C289 O288 1.286 . S
C289 C291 1.363 . S
C290 C280 1.465 . S
C290 U286 2.847 . S
C290 O304 1.249 . S
C290 O305 1.202 . S
C291 C289 1.363 . S
C291 C293 1.408 . S
C291 C296 1.342 . S
C292 C293 1.310 . S
C292 C295 1.461 . S
C292 H312 0.932 . S
C293 C291 1.408 . S
C293 C292 1.310 . S
C293 H313 0.930 . S
C294 C295 1.474 . S
C294 C296 1.285 . S
C294 H314 0.929 . S
C295 C292 1.461 . S
C295 C294 1.474 . S
C296 C291 1.342 . S
C296 C294 1.285 . S
C296 H315 0.930 . S
C297 C300 1.424 . S
C297 C302 1.245 . S
C297 C303 1.428 . S
C298 C301 1.260 . S
C298 C302 1.477 . S
C298 H316 0.932 . S
C299 C300 1.384 . S
C299 C301 1.479 . S
C299 H317 0.929 . S
C300 C297 1.424 . S
C300 C299 1.384 . S
C300 H318 0.928 . S
C301 C298 1.260 . S
C301 C299 1.479 . S
C302 C297 1.245 . S
C302 C298 1.477 . S
C302 H319 0.932 . S
C303 U286 2.882 . S
C303 C297 1.428 . S
C303 O306 1.301 . S
C303 O307 1.282 . S
O304 U286 2.441 . S
O304 C290 1.249 . S
O305 U286 2.420 . S
O305 C290 1.202 . S
O306 U286 2.455 . S
O306 C303 1.301 . S
O307 U286 2.449 . S
O307 C303 1.282 . S
H308 C281 0.931 . S
H309 C283 0.929 . S
H310 C284 0.930 . S
H311 C285 0.931 . S
H312 C292 0.932 . S
H313 C293 0.930 . S
H314 C294 0.929 . S
H315 C296 0.930 . S
H316 C298 0.932 . S
H317 C299 0.929 . S
H318 C300 0.928 . S
H319 C302 0.932 . S
C320 O336 1.251 . S
C320 O338 1.254 1_545 S
N321 C322 1.333 . S
N321 C326 1.307 . S
N321 Zn327 2.020 . S
C322 N321 1.333 . S
C322 C323 1.379 . S
C322 H340 0.952 . S
C323 C322 1.379 . S
C323 C324 1.390 . S
C323 H350 0.949 . S
C324 C323 1.390 . S
C324 C325 1.357 . S
C325 C324 1.357 . S
C325 C326 1.370 . S
C325 H351 0.950 . S
C326 N321 1.307 . S
C326 C325 1.370 . S
C326 H344 0.948 1_455 S
Zn327 N321 2.020 . S
Zn327 O336 2.039 . S
Zn327 O342 2.034 . S
Zn327 O346 2.025 1_455 S
Zn327 O348 2.024 1_455 S
C328 O347 1.264 . S
C328 O348 1.249 . S
N329 C330 1.307 . S
N329 C331 1.333 . S
N329 Zn335 2.020 . S
C330 N329 1.307 . S
C330 C334 1.370 . S
C330 H341 0.948 1_655 S
C331 N329 1.333 . S
C331 C332 1.379 . S
C331 H339 0.952 . S
C332 C331 1.379 . S
C332 C333 1.390 . S
C332 H352 0.949 . S
C333 C332 1.390 . S
C333 C334 1.357 . S
C334 C330 1.370 . S
C334 C333 1.357 . S
C334 H353 0.956 . S
Zn335 N329 2.020 . S
Zn335 O338 2.025 1_655 S
Zn335 O343 2.024 1_655 S
Zn335 O345 2.039 . S
Zn335 O347 2.025 1_565 S
O336 C320 1.251 . S
O336 Zn327 2.039 . S
C337 O342 1.246 1_565 S
C337 O343 1.249 . S
O338 C320 1.254 1_565 S
O338 Zn335 2.025 1_455 S
H339 C331 0.952 . S
H340 C322 0.952 . S
H341 C330 0.948 1_455 S
O342 Zn327 2.034 . S
O342 C337 1.246 1_545 S
O343 Zn335 2.024 1_455 S
O343 C337 1.249 . S
H344 C326 0.948 1_655 S
O345 Zn335 2.039 . S
O345 C349 1.251 . S
O346 Zn327 2.025 1_655 S
O346 C349 1.254 1_545 S
O347 C328 1.264 . S
O347 Zn335 2.025 1_545 S
O348 Zn327 2.024 1_655 S
O348 C328 1.249 . S
C349 O345 1.251 . S
C349 O346 1.254 1_565 S
H350 C323 0.949 . S
H351 C325 0.950 . S
H352 C332 0.949 . S
H353 C334 0.956 . S
C354 O370 1.251 1_565 S
C354 O372 1.236 1_556 S
N355 C356 1.333 . S
N355 C360 1.307 . S
N355 Zn361 2.020 . S
C356 N355 1.333 . S
C356 C357 1.379 . S
C356 H374 0.952 . S
C357 C356 1.379 . S
C357 C358 1.390 . S
C357 H384 0.949 . S
C358 C357 1.390 . S
C358 C359 1.357 . S
C359 C358 1.357 . S
C359 C360 1.370 . S
C359 H385 0.950 . S
C360 N355 1.307 . S
C360 C359 1.370 . S
C360 H378 0.948 . S
Zn361 N355 2.020 . S
Zn361 O370 2.039 . S
Zn361 O376 2.034 1_556 S
Zn361 O380 2.025 1_556 S
Zn361 O382 2.024 . S
C362 O381 1.246 . S
C362 O382 1.249 1_565 S
N363 C364 1.307 . S
N363 C365 1.333 . S
N363 Zn369 2.020 . S
C364 N363 1.307 . S
C364 C368 1.370 . S
C364 H375 0.948 . S
C365 N363 1.333 . S
C365 C366 1.379 . S
C365 H373 0.952 . S
C366 C365 1.379 . S
C366 C367 1.390 . S
C366 H386 0.949 . S
C367 C366 1.390 . S
C367 C368 1.357 . S
C368 C364 1.370 . S
C368 C367 1.357 . S
C368 H387 0.950 . S
Zn369 N363 2.020 . S
Zn369 O372 2.039 . S
Zn369 O377 2.024 . S
Zn369 O379 2.039 . S
Zn369 O381 2.034 1_554 S
O370 C354 1.251 1_545 S
O370 Zn361 2.039 . S
C371 O376 1.246 . S
C371 O377 1.249 1_545 S
O372 C354 1.236 1_554 S
O372 Zn369 2.039 . S
H373 C365 0.952 . S
H374 C356 0.952 . S
H375 C364 0.948 . S
O376 Zn361 2.034 1_554 S
O376 C371 1.246 . S
O377 Zn369 2.024 . S
O377 C371 1.249 1_565 S
H378 C360 0.948 . S
O379 Zn369 2.039 . S
O379 C383 1.251 1_565 S
O380 Zn361 2.025 1_554 S
O380 C383 1.254 . S
O381 C362 1.246 . S
O381 Zn369 2.034 1_556 S
O382 Zn361 2.024 . S
O382 C362 1.249 1_545 S
C383 O379 1.251 1_545 S
C383 O380 1.254 . S
H384 C357 0.949 . S
H385 C359 0.950 . S
H386 C366 0.949 . S
H387 C368 0.950 . S
C388 O404 1.251 . S
C388 O406 1.254 . S
N389 C390 1.333 . S
N389 C394 1.307 . S
N389 Zn395 2.020 . S
C390 N389 1.333 . S
C390 C391 1.379 . S
C390 H408 0.952 . S
C391 C390 1.379 . S
C391 C392 1.390 . S
C391 H418 0.949 . S
C392 C391 1.390 . S
C392 C393 1.357 . S
C393 C392 1.357 . S
C393 C394 1.370 . S
C393 H419 0.950 . S
C394 N389 1.307 . S
C394 C393 1.370 . S
C394 H412 0.948 . S
Zn395 N389 2.020 . S
Zn395 O404 2.039 . S
Zn395 O410 2.034 . S
Zn395 O414 2.025 . S
Zn395 O416 2.024 . S
C396 O415 1.246 . S
C396 O416 1.249 . S
N397 C398 1.307 . S
N397 C399 1.333 . S
N397 Zn403 2.020 . S
C398 N397 1.307 . S
C398 C402 1.370 . S
C398 H409 0.948 . S
C399 N397 1.333 . S
C399 C400 1.379 . S
C399 H407 0.952 . S
C400 C399 1.379 . S
C400 C401 1.390 . S
C400 H420 0.949 . S
C401 C400 1.390 . S
C401 C402 1.357 . S
C402 C398 1.370 . S
C402 C401 1.357 . S
C402 H421 0.950 . S
Zn403 N397 2.020 . S
Zn403 O406 2.025 . S
Zn403 O411 2.024 . S
Zn403 O413 2.039 . S
Zn403 O415 2.034 . S
O404 C388 1.251 . S
O404 Zn395 2.039 . S
C405 O410 1.246 . S
C405 O411 1.249 . S
O406 C388 1.254 . S
O406 Zn403 2.025 . S
H407 C399 0.952 . S
H408 C390 0.952 . S
H409 C398 0.948 . S
O410 Zn395 2.034 . S
O410 C405 1.246 . S
O411 Zn403 2.024 . S
O411 C405 1.249 . S
H412 C394 0.948 . S
O413 Zn403 2.039 . S
O413 C417 1.251 . S
O414 Zn395 2.025 . S
O414 C417 1.254 . S
O415 C396 1.246 . S
O415 Zn403 2.034 . S
O416 Zn395 2.024 . S
O416 C396 1.249 . S
C417 O413 1.251 . S
C417 O414 1.254 . S
H418 C391 0.949 . S
H419 C393 0.950 . S
H420 C400 0.949 . S
H421 C402 0.950 . S
C422 O438 1.251 1_556 S
C422 O440 1.268 . S
N423 C424 1.333 . S
N423 C428 1.307 . S
N423 Zn429 2.020 . S
C424 N423 1.333 . S
C424 C425 1.379 . S
C424 H442 0.952 . S
C425 C424 1.379 . S
C425 C426 1.390 . S
C425 H452 0.949 . S
C426 C425 1.390 . S
C426 C427 1.357 . S
C427 C426 1.357 . S
C427 C428 1.370 . S
C427 H453 0.950 . S
C428 N423 1.307 . S
C428 C427 1.370 . S
C428 H446 0.948 . S
Zn429 N423 2.020 . S
Zn429 O438 2.039 . S
Zn429 O444 2.034 1_655 S
Zn429 O448 2.025 1_655 S
Zn429 O450 2.024 . S
C430 O449 1.246 . S
C430 O450 1.249 1_556 S
N431 C432 1.307 . S
N431 C433 1.333 . S
N431 Zn437 2.020 . S
C432 N431 1.307 . S
C432 C436 1.370 . S
C432 H443 0.948 . S
C433 N431 1.333 . S
C433 C434 1.379 . S
C433 H441 0.952 . S
C434 C433 1.379 . S
C434 C435 1.390 . S
C434 H454 0.949 . S
C435 C434 1.390 . S
C435 C436 1.357 . S
C436 C432 1.370 . S
C436 C435 1.357 . S
C436 H455 0.950 . S
Zn437 N431 2.020 . S
Zn437 O440 2.017 1_455 S
Zn437 O445 2.024 . S
Zn437 O447 2.039 . S
Zn437 O449 2.034 1_455 S
O438 C422 1.251 1_554 S
O438 Zn429 2.039 . S
C439 O444 1.246 . S
C439 O445 1.249 1_554 S
O440 C422 1.268 . S
O440 Zn437 2.017 1_655 S
H441 C433 0.952 . S
H442 C424 0.952 . S
H443 C432 0.948 . S
O444 Zn429 2.034 1_455 S
O444 C439 1.246 . S
O445 Zn437 2.024 . S
O445 C439 1.249 1_556 S
H446 C428 0.948 . S
O447 Zn437 2.039 . S
O447 C451 1.251 1_556 S
O448 Zn429 2.025 1_455 S
O448 C451 1.254 . S
O449 C430 1.246 . S
O449 Zn437 2.034 1_655 S
O450 Zn429 2.024 . S
O450 C430 1.249 1_554 S
C451 O447 1.251 1_554 S
C451 O448 1.254 . S
H452 C425 0.949 . S
H453 C427 0.950 . S
H454 C434 0.949 . S
H455 C436 0.950 . S
H456 C462 0.930 . S
H457 C466 0.930 1_655 S
H458 C471 0.929 . S
H459 C469 0.929 . S
H460 C464 0.929 . S
H461 C470 0.929 . S
C462 H456 0.930 . S
C462 C463 1.367 . S
C462 C470 1.378 . S
C463 C462 1.367 . S
C463 C471 1.433 . S
C464 H460 0.929 . S
C464 C466 1.378 . S
C464 C468 1.350 . S
C465 C468 1.463 . S
C465 C470 1.350 . S
C465 N473 1.427 . S
C466 H457 0.930 1_455 S
C466 C464 1.378 . S
C466 C467 1.367 . S
C467 C466 1.367 . S
C467 C469 1.433 . S
C468 C464 1.350 . S
C468 C465 1.463 . S
C468 N472 1.427 . S
C469 H459 0.929 . S
C469 C467 1.433 . S
C469 N472 1.384 . S
C470 H461 0.929 . S
C470 C462 1.378 . S
C470 C465 1.350 . S
C471 H458 0.929 . S
C471 C463 1.433 . S
C471 N473 1.384 . S
N472 C468 1.427 . S
N472 C469 1.384 . S
N473 C465 1.427 . S
N473 C471 1.384 . S
H474 C480 0.930 . S
H475 C484 0.930 . S
H476 C489 0.929 . S
H477 C487 0.929 1_545 S
H478 C482 0.929 . S
H479 C488 0.929 . S
C480 H474 0.930 . S
C480 C481 1.367 . S
C480 C488 1.378 . S
C481 C480 1.367 . S
C481 C489 1.433 . S
C482 H478 0.929 . S
C482 C484 1.378 . S
C482 C486 1.350 . S
C483 C486 1.463 . S
C483 C488 1.350 . S
C483 N491 1.427 . S
C484 H475 0.930 . S
C484 C482 1.378 . S
C484 C485 1.367 . S
C485 C484 1.367 . S
C485 C487 1.433 . S
C486 C482 1.350 . S
C486 C483 1.463 . S
C486 N490 1.427 . S
C487 H477 0.929 1_565 S
C487 C485 1.433 . S
C487 N490 1.384 . S
C488 H479 0.929 . S
C488 C480 1.378 . S
C488 C483 1.350 . S
C489 H476 0.929 . S
C489 C481 1.433 . S
C489 N491 1.384 . S
N490 C486 1.427 . S
N490 C487 1.384 . S
N491 C483 1.427 . S
N491 C489 1.384 . S
H492 C498 0.930 . S
H493 C502 0.930 . S
H494 C507 0.929 . S
H495 C505 0.929 . S
H496 C500 0.929 . S
H497 C506 0.929 . S
C498 H492 0.930 . S
C498 C499 1.367 . S
C498 C506 1.378 . S
C499 C498 1.367 . S
C499 C507 1.433 . S
C500 H496 0.929 . S
C500 C502 1.378 . S
C500 C504 1.350 . S
C501 C504 1.463 . S
C501 C506 1.350 . S
C501 N509 1.427 . S
C502 H493 0.930 . S
C502 C500 1.378 . S
C502 C503 1.367 . S
C503 C502 1.367 . S
C503 C505 1.433 . S
C504 C500 1.350 . S
C504 C501 1.463 . S
C504 N508 1.427 . S
C505 H495 0.929 . S
C505 C503 1.433 . S
C505 N508 1.384 . S
C506 H497 0.929 . S
C506 C498 1.378 . S
C506 C501 1.350 . S
C507 H494 0.929 . S
C507 C499 1.433 . S
C507 N509 1.384 . S
N508 C504 1.427 . S
N508 C505 1.384 . S
N509 C501 1.427 . S
N509 C507 1.384 . S
H510 C516 0.930 . S
H511 C520 0.930 . S
H512 C525 0.929 . S
H513 C523 0.929 . S
H514 C518 0.929 . S
H515 C524 0.929 . S
C516 H510 0.930 . S
C516 C517 1.367 . S
C516 C524 1.378 . S
C517 C516 1.367 . S
C517 C525 1.433 . S
C518 H514 0.929 . S
C518 C520 1.378 . S
C518 C522 1.350 . S
C519 C522 1.463 . S
C519 C524 1.350 . S
C519 N527 1.427 . S
C520 H511 0.930 . S
C520 C518 1.378 . S
C520 C521 1.367 . S
C521 C520 1.367 . S
C521 C523 1.433 . S
C522 C518 1.350 . S
C522 C519 1.463 . S
C522 N526 1.427 . S
C523 H513 0.929 . S
C523 C521 1.433 . S
C523 N526 1.384 . S
C524 H515 0.929 . S
C524 C516 1.378 . S
C524 C519 1.350 . S
C525 H512 0.929 . S
C525 C517 1.433 . S
C525 N527 1.384 . S
N526 C522 1.427 . S
N526 C523 1.384 . S
N527 C519 1.427 . S
N527 C525 1.384 . S
H528 C534 0.930 . S
H529 C538 0.930 1_556 S
H530 C543 0.929 . S
H531 C541 0.929 . S
H532 C536 0.929 . S
H533 C542 0.929 . S
C534 H528 0.930 . S
C534 C535 1.367 . S
C534 C542 1.378 . S
C535 C534 1.367 . S
C535 C543 1.433 . S
C536 H532 0.929 . S
C536 C538 1.378 . S
C536 C540 1.350 . S
C537 C540 1.463 . S
C537 C542 1.350 . S
C537 N545 1.427 . S
C538 H529 0.930 1_554 S
C538 C536 1.378 . S
C538 C539 1.367 . S
C539 C538 1.367 . S
C539 C541 1.433 . S
C540 C536 1.350 . S
C540 C537 1.463 . S
C540 N544 1.427 . S
C541 H531 0.929 . S
C541 C539 1.433 . S
C541 N544 1.384 . S
C542 H533 0.929 . S
C542 C534 1.378 . S
C542 C537 1.350 . S
C543 H530 0.929 . S
C543 C535 1.433 . S
C543 N545 1.384 . S
N544 C540 1.427 . S
N544 C541 1.384 . S
N545 C537 1.427 . S
N545 C543 1.384 . S
H546 C552 0.930 . S
H547 C556 0.930 . S
H548 C561 0.929 . S
H549 C559 0.929 1_545 S
H550 C554 0.929 . S
H551 C560 0.929 . S
C552 H546 0.930 . S
C552 C553 1.367 . S
C552 C560 1.378 . S
C553 C552 1.367 . S
C553 C561 1.433 . S
C554 H550 0.929 . S
C554 C556 1.378 . S
C554 C558 1.350 . S
C555 C558 1.463 . S
C555 C560 1.350 . S
C555 N563 1.427 . S
C556 H547 0.930 . S
C556 C554 1.378 . S
C556 C557 1.367 . S
C557 C556 1.367 . S
C557 C559 1.433 . S
C558 C554 1.350 . S
C558 C555 1.463 . S
C558 N562 1.427 . S
C559 H549 0.929 1_565 S
C559 C557 1.433 . S
C559 N562 1.384 . S
C560 H551 0.929 . S
C560 C552 1.378 . S
C560 C555 1.350 . S
C561 H548 0.929 . S
C561 C553 1.433 . S
C561 N563 1.384 . S
N562 C558 1.427 . S
N562 C559 1.384 . S
N563 C555 1.427 . S
N563 C561 1.384 . S
H564 C570 0.930 . S
H565 C574 0.930 . S
H566 C579 0.929 . S
H567 C577 0.929 . S
H568 C572 0.929 . S
H569 C578 0.929 . S
C570 H564 0.930 . S
C570 C571 1.367 . S
C570 C578 1.378 . S
C571 C570 1.367 . S
C571 C579 1.433 . S
C572 H568 0.929 . S
C572 C574 1.378 . S
C572 C576 1.350 . S
C573 C576 1.463 . S
C573 C578 1.350 . S
C573 N581 1.427 . S
C574 H565 0.930 . S
C574 C572 1.378 . S
C574 C575 1.367 . S
C575 C574 1.367 . S
C575 C577 1.433 . S
C576 C572 1.350 . S
C576 C573 1.463 . S
C576 N580 1.427 . S
C577 H567 0.929 . S
C577 C575 1.433 . S
C577 N580 1.384 . S
C578 H569 0.929 . S
C578 C570 1.378 . S
C578 C573 1.350 . S
C579 H566 0.929 . S
C579 C571 1.433 . S
C579 N581 1.384 . S
N580 C576 1.427 . S
N580 C577 1.384 . S
N581 C573 1.427 . S
N581 C579 1.384 . S
H582 C588 0.930 . S
H583 C592 0.930 . S
H584 C597 0.929 . S
H585 C595 0.929 . S
H586 C590 0.929 . S
H587 C596 0.929 . S
C588 H582 0.930 . S
C588 C589 1.367 . S
C588 C596 1.378 . S
C589 C588 1.367 . S
C589 C597 1.433 . S
C590 H586 0.929 . S
C590 C592 1.378 . S
C590 C594 1.350 . S
C591 C594 1.463 . S
C591 C596 1.350 . S
C591 N599 1.427 . S
C592 H583 0.930 . S
C592 C590 1.378 . S
C592 C593 1.367 . S
C593 C592 1.367 . S
C593 C595 1.433 . S
C594 C590 1.350 . S
C594 C591 1.463 . S
C594 N598 1.427 . S
C595 H585 0.929 . S
C595 C593 1.433 . S
C595 N598 1.384 . S
C596 H587 0.929 . S
C596 C588 1.378 . S
C596 C591 1.350 . S
C597 H584 0.929 . S
C597 C589 1.433 . S
C597 N599 1.384 . S
N598 C594 1.427 . S
N598 C595 1.384 . S
N599 C591 1.427 . S
N599 C597 1.384 . S
H600 C606 0.930 . S
H601 C610 0.930 . S
H602 C615 0.929 . S
H603 C613 0.929 1_556 S
H604 C608 0.929 . S
H605 C614 0.929 . S
C606 H600 0.930 . S
C606 C607 1.367 . S
C606 C614 1.378 . S
C607 C606 1.367 . S
C607 C615 1.433 . S
C608 H604 0.929 . S
C608 C610 1.378 . S
C608 C612 1.350 . S
C609 C612 1.463 . S
C609 C614 1.350 . S
C609 N617 1.427 . S
C610 H601 0.930 . S
C610 C608 1.378 . S
C610 C611 1.367 . S
C611 C610 1.367 . S
C611 C613 1.433 . S
C612 C608 1.350 . S
C612 C609 1.463 . S
C612 N616 1.427 . S
C613 H603 0.929 1_554 S
C613 C611 1.433 . S
C613 N616 1.384 . S
C614 H605 0.929 . S
C614 C606 1.378 . S
C614 C609 1.350 . S
C615 H602 0.929 . S
C615 C607 1.433 . S
C615 N617 1.384 . S
N616 C612 1.427 . S
N616 C613 1.384 . S
N617 C609 1.427 . S
N617 C615 1.384 . S
H618 C624 0.930 . S
H619 C628 0.930 . S
H620 C633 0.929 . S
H621 C631 0.929 . S
H622 C626 0.929 . S
H623 C632 0.929 . S
C624 H618 0.930 . S
C624 C625 1.367 . S
C624 C632 1.378 . S
C625 C624 1.367 . S
C625 C633 1.433 . S
C626 H622 0.929 . S
C626 C628 1.378 . S
C626 C630 1.350 . S
C627 C630 1.463 . S
C627 C632 1.350 . S
C627 N635 1.427 . S
C628 H619 0.930 . S
C628 C626 1.378 . S
C628 C629 1.367 . S
C629 C628 1.367 . S
C629 C631 1.433 . S
C630 C626 1.350 . S
C630 C627 1.463 . S
C630 N634 1.427 . S
C631 H621 0.929 . S
C631 C629 1.433 . S
C631 N634 1.384 . S
C632 H623 0.929 . S
C632 C624 1.378 . S
C632 C627 1.350 . S
C633 H620 0.929 . S
C633 C625 1.433 . S
C633 N635 1.384 . S
N634 C630 1.427 . S
N634 C631 1.384 . S
N635 C627 1.427 . S
N635 C633 1.384 . S
H636 C642 0.930 . S
H637 C646 0.930 . S
H638 C651 0.929 . S
H639 C649 0.929 . S
H640 C644 0.929 . S
H641 C650 0.929 . S
C642 H636 0.930 . S
C642 C643 1.367 . S
C642 C650 1.378 . S
C643 C642 1.367 . S
C643 C651 1.433 . S
C644 H640 0.929 . S
C644 C646 1.378 . S
C644 C648 1.350 . S
C645 C648 1.463 . S
C645 C650 1.350 . S
C645 N653 1.427 . S
C646 H637 0.930 . S
C646 C644 1.378 . S
C646 C647 1.367 . S
C647 C646 1.367 . S
C647 C649 1.433 . S
C648 C644 1.350 . S
C648 C645 1.463 . S
C648 N652 1.427 . S
C649 H639 0.929 . S
C649 C647 1.433 . S
C649 N652 1.384 . S
C650 H641 0.929 . S
C650 C642 1.378 . S
C650 C645 1.350 . S
C651 H638 0.929 . S
C651 C643 1.433 . S
C651 N653 1.384 . S
N652 C648 1.427 . S
N652 C649 1.384 . S
N653 C645 1.427 . S
N653 C651 1.384 . S
H654 C660 0.930 . S
H655 C664 0.930 . S
H656 C669 0.929 . S
H657 C667 0.929 . S
H658 C662 0.929 . S
H659 C668 0.929 . S
C660 H654 0.930 . S
C660 C661 1.367 . S
C660 C668 1.378 . S
C661 C660 1.367 . S
C661 C669 1.433 . S
C662 H658 0.929 . S
C662 C664 1.378 . S
C662 C666 1.350 . S
C663 C666 1.463 . S
C663 C668 1.350 . S
C663 N671 1.427 . S
C664 H655 0.930 . S
C664 C662 1.378 . S
C664 C665 1.367 . S
C665 C664 1.367 . S
C665 C667 1.433 . S
C666 C662 1.350 . S
C666 C663 1.463 . S
C666 N670 1.427 . S
C667 H657 0.929 . S
C667 C665 1.433 . S
C667 N670 1.384 . S
C668 H659 0.929 . S
C668 C660 1.378 . S
C668 C663 1.350 . S
C669 H656 0.929 . S
C669 C661 1.433 . S
C669 N671 1.384 . S
N670 C666 1.427 . S
N670 C667 1.384 . S
N671 C663 1.427 . S
N671 C669 1.384 . S
H672 C678 0.930 . S
H673 C682 0.930 1_455 S
H674 C687 0.929 . S
H675 C685 0.929 . S
H676 C680 0.929 1_455 S
H677 C686 0.929 . S
C678 H672 0.930 . S
C678 C679 1.367 . S
C678 C686 1.378 . S
C679 C678 1.367 . S
C679 C687 1.433 . S
C680 H676 0.929 1_655 S
C680 C682 1.378 . S
C680 C684 1.350 . S
C681 C684 1.463 . S
C681 C686 1.350 . S
C681 N689 1.427 . S
C682 H673 0.930 1_655 S
C682 C680 1.378 . S
C682 C683 1.367 . S
C683 C682 1.367 . S
C683 C685 1.433 . S
C684 C680 1.350 . S
C684 C681 1.463 . S
C684 N688 1.427 . S
C685 H675 0.929 . S
C685 C683 1.433 . S
C685 N688 1.384 . S
C686 H677 0.929 . S
C686 C678 1.378 . S
C686 C681 1.350 . S
C687 H674 0.929 . S
C687 C679 1.433 . S
C687 N689 1.384 . S
N688 C684 1.427 . S
N688 C685 1.384 . S
N689 C681 1.427 . S
N689 C687 1.384 . S
H690 C696 0.930 . S
H691 C700 0.930 1_565 S
H692 C705 0.929 . S
H693 C703 0.929 . S
H694 C698 0.929 . S
H695 C704 0.929 . S
C696 H690 0.930 . S
C696 C697 1.367 . S
C696 C704 1.378 . S
C697 C696 1.367 . S
C697 C705 1.433 . S
C698 H694 0.929 . S
C698 C700 1.378 . S
C698 C702 1.350 . S
C699 C702 1.463 . S
C699 C704 1.350 . S
C699 N707 1.427 . S
C700 H691 0.930 1_545 S
C700 C698 1.378 . S
C700 C701 1.367 . S
C701 C700 1.367 . S
C701 C703 1.433 . S
C702 C698 1.350 . S
C702 C699 1.463 . S
C702 N706 1.427 . S
C703 H693 0.929 . S
C703 C701 1.433 . S
C703 N706 1.384 . S
C704 H695 0.929 . S
C704 C696 1.378 . S
C704 C699 1.350 . S
C705 H692 0.929 . S
C705 C697 1.433 . S
C705 N707 1.384 . S
N706 C702 1.427 . S
N706 C703 1.384 . S
N707 C699 1.427 . S
N707 C705 1.384 . S
H708 C714 0.930 . S
H709 C718 0.930 . S
H710 C723 0.929 . S
H711 C721 0.929 . S
H712 C716 0.929 . S
H713 C722 0.929 . S
C714 H708 0.930 . S
C714 C715 1.367 . S
C714 C722 1.378 . S
C715 C714 1.367 . S
C715 C723 1.433 . S
C716 H712 0.929 . S
C716 C718 1.378 . S
C716 C720 1.350 . S
C717 C720 1.463 . S
C717 C722 1.350 . S
C717 N725 1.427 . S
C718 H709 0.930 . S
C718 C716 1.378 . S
C718 C719 1.367 . S
C719 C718 1.367 . S
C719 C721 1.433 . S
C720 C716 1.350 . S
C720 C717 1.463 . S
C720 N724 1.427 . S
C721 H711 0.929 . S
C721 C719 1.433 . S
C721 N724 1.384 . S
C722 H713 0.929 . S
C722 C714 1.378 . S
C722 C717 1.350 . S
C723 H710 0.929 . S
C723 C715 1.433 . S
C723 N725 1.384 . S
N724 C720 1.427 . S
N724 C721 1.384 . S
N725 C717 1.427 . S
N725 C723 1.384 . S
H726 C732 0.930 . S
H727 C736 0.930 . S
H728 C741 0.929 . S
H729 C739 0.929 . S
H730 C734 0.929 . S
H731 C740 0.929 . S
C732 H726 0.930 . S
C732 C733 1.367 . S
C732 C740 1.378 . S
C733 C732 1.367 . S
C733 C741 1.433 . S
C734 H730 0.929 . S
C734 C736 1.378 . S
C734 C738 1.350 . S
C735 C738 1.463 . S
C735 C740 1.350 . S
C735 N743 1.427 . S
C736 H727 0.930 . S
C736 C734 1.378 . S
C736 C737 1.367 . S
C737 C736 1.367 . S
C737 C739 1.433 . S
C738 C734 1.350 . S
C738 C735 1.463 . S
C738 N742 1.427 . S
C739 H729 0.929 . S
C739 C737 1.433 . S
C739 N742 1.384 . S
C740 H731 0.929 . S
C740 C732 1.378 . S
C740 C735 1.350 . S
C741 H728 0.929 . S
C741 C733 1.433 . S
C741 N743 1.384 . S
N742 C738 1.427 . S
N742 C739 1.384 . S
N743 C735 1.427 . S
N743 C741 1.384 . S
H744 C750 0.930 . S
H745 C754 0.930 . S
H746 C759 0.929 . S
H747 C757 0.929 1_554 S
H748 C752 0.929 . S
H749 C758 0.929 . S
C750 H744 0.930 . S
C750 C751 1.367 . S
C750 C758 1.378 . S
C751 C750 1.367 . S
C751 C759 1.433 . S
C752 H748 0.929 . S
C752 C754 1.378 . S
C752 C756 1.350 . S
C753 C756 1.463 . S
C753 C758 1.350 . S
C753 N761 1.427 . S
C754 H745 0.930 . S
C754 C752 1.378 . S
C754 C755 1.367 . S
C755 C754 1.367 . S
C755 C757 1.433 . S
C756 C752 1.350 . S
C756 C753 1.463 . S
C756 N760 1.427 . S
C757 H747 0.929 1_556 S
C757 C755 1.433 . S
C757 N760 1.384 . S
C758 H749 0.929 . S
C758 C750 1.378 . S
C758 C753 1.350 . S
C759 H746 0.929 . S
C759 C751 1.433 . S
C759 N761 1.384 . S
N760 C756 1.427 . S
N760 C757 1.384 . S
N761 C753 1.427 . S
N761 C759 1.384 . S
H762 C768 0.930 . S
H763 C772 0.930 . S
H764 C777 0.929 . S
H765 C775 0.929 . S
H766 C770 0.929 . S
H767 C776 0.929 . S
C768 H762 0.930 . S
C768 C769 1.367 . S
C768 C776 1.378 . S
C769 C768 1.367 . S
C769 C777 1.433 . S
C770 H766 0.929 . S
C770 C772 1.378 . S
C770 C774 1.350 . S
C771 C774 1.463 . S
C771 C776 1.350 . S
C771 N779 1.427 . S
C772 H763 0.930 . S
C772 C770 1.378 . S
C772 C773 1.367 . S
C773 C772 1.367 . S
C773 C775 1.433 . S
C774 C770 1.350 . S
C774 C771 1.463 . S
C774 N778 1.427 . S
C775 H765 0.929 . S
C775 C773 1.433 . S
C775 N778 1.384 . S
C776 H767 0.929 . S
C776 C768 1.378 . S
C776 C771 1.350 . S
C777 H764 0.929 . S
C777 C769 1.433 . S
C777 N779 1.384 . S
N778 C774 1.427 . S
N778 C775 1.384 . S
N779 C771 1.427 . S
N779 C777 1.384 . S
H780 C786 0.930 . S
H781 C790 0.930 1_556 S
H782 C795 0.929 . S
H783 C793 0.929 . S
H784 C788 0.929 1_556 S
H785 C794 0.929 . S
C786 H780 0.930 . S
C786 C787 1.367 . S
C786 C794 1.378 . S
C787 C786 1.367 . S
C787 C795 1.433 . S
C788 H784 0.929 1_554 S
C788 C790 1.378 . S
C788 C792 1.350 . S
C789 C792 1.463 . S
C789 C794 1.350 . S
C789 N797 1.427 . S
C790 H781 0.930 1_554 S
C790 C788 1.378 . S
C790 C791 1.367 . S
C791 C790 1.367 . S
C791 C793 1.433 . S
C792 C788 1.350 . S
C792 C789 1.463 . S
C792 N796 1.427 . S
C793 H783 0.929 . S
C793 C791 1.433 . S
C793 N796 1.384 . S
C794 H785 0.929 . S
C794 C786 1.378 . S
C794 C789 1.350 . S
C795 H782 0.929 . S
C795 C787 1.433 . S
C795 N797 1.384 . S
N796 C792 1.427 . S
N796 C793 1.384 . S
N797 C789 1.427 . S
N797 C795 1.384 . S
H798 C804 0.930 . S
H799 C808 0.930 . S
H800 C813 0.929 . S
H801 C811 0.929 . S
H802 C806 0.929 . S
H803 C812 0.929 . S
C804 H798 0.930 . S
C804 C805 1.367 . S
C804 C812 1.378 . S
C805 C804 1.367 . S
C805 C813 1.433 . S
C806 H802 0.929 . S
C806 C808 1.378 . S
C806 C810 1.350 . S
C807 C810 1.463 . S
C807 C812 1.350 . S
C807 N815 1.427 . S
C808 H799 0.930 . S
C808 C806 1.378 . S
C808 C809 1.367 . S
C809 C808 1.367 . S
C809 C811 1.433 . S
C810 C806 1.350 . S
C810 C807 1.463 . S
C810 N814 1.427 . S
C811 H801 0.929 . S
C811 C809 1.433 . S
C811 N814 1.384 . S
C812 H803 0.929 . S
C812 C804 1.378 . S
C812 C807 1.350 . S
C813 H800 0.929 . S
C813 C805 1.433 . S
C813 N815 1.384 . S
N814 C810 1.427 . S
N814 C811 1.384 . S
N815 C807 1.427 . S
N815 C813 1.384 . S
H816 C822 0.930 . S
H817 C826 0.930 . S
H818 C831 0.929 . S
H819 C829 0.929 1_455 S
H820 C824 0.929 . S
H821 C830 0.897 1_455 S
C822 H816 0.930 . S
C822 C823 1.367 . S
C822 C830 1.378 . S
C823 C822 1.367 . S
C823 C831 1.433 . S
C824 H820 0.929 . S
C824 C826 1.378 . S
C824 C828 1.350 . S
C825 C828 1.463 . S
C825 C830 1.350 . S
C825 N833 1.427 . S
C826 H817 0.930 . S
C826 C824 1.378 . S
C826 C827 1.367 . S
C827 C826 1.367 . S
C827 C829 1.433 . S
C828 C824 1.350 . S
C828 C825 1.463 . S
C828 N832 1.427 . S
C829 H819 0.929 1_655 S
C829 C827 1.433 . S
C829 N832 1.384 . S
C830 H821 0.897 1_655 S
C830 C822 1.378 . S
C830 C825 1.350 . S
C831 H818 0.929 . S
C831 C823 1.433 . S
C831 N833 1.384 . S
N832 C828 1.427 . S
N832 C829 1.384 . S
N833 C825 1.427 . S
N833 C831 1.384 . S
H834 C840 0.930 . S
H835 C844 0.930 . S
H836 C849 0.929 . S
H837 C847 0.929 . S
H838 C842 0.929 . S
H839 C848 0.929 . S
C840 H834 0.930 . S
C840 C841 1.367 . S
C840 C848 1.378 . S
C841 C840 1.367 . S
C841 C849 1.433 . S
C842 H838 0.929 . S
C842 C844 1.378 . S
C842 C846 1.350 . S
C843 C846 1.463 . S
C843 C848 1.350 . S
C843 N851 1.427 . S
C844 H835 0.930 . S
C844 C842 1.378 . S
C844 C845 1.367 . S
C845 C844 1.367 . S
C845 C847 1.433 . S
C846 C842 1.350 . S
C846 C843 1.463 . S
C846 N850 1.427 . S
C847 H837 0.929 . S
C847 C845 1.433 . S
C847 N850 1.384 . S
C848 H839 0.929 . S
C848 C840 1.378 . S
C848 C843 1.350 . S
C849 H836 0.929 . S
C849 C841 1.433 . S
C849 N851 1.384 . S
N850 C846 1.427 . S
N850 C847 1.384 . S
N851 C843 1.427 . S
N851 C849 1.384 . S
H852 C858 0.930 . S
H853 C862 0.930 . S
H854 C867 0.929 . S
H855 C865 0.929 . S
H856 C860 0.929 . S
H857 C866 0.929 . S
C858 H852 0.930 . S
C858 C859 1.367 . S
C858 C866 1.378 . S
C859 C858 1.367 . S
C859 C867 1.433 . S
C860 H856 0.929 . S
C860 C862 1.378 . S
C860 C864 1.350 . S
C861 C864 1.463 . S
C861 C866 1.350 . S
C861 N869 1.427 . S
C862 H853 0.930 . S
C862 C860 1.378 . S
C862 C863 1.367 . S
C863 C862 1.367 . S
C863 C865 1.433 . S
C864 C860 1.350 . S
C864 C861 1.463 . S
C864 N868 1.427 . S
C865 H855 0.929 . S
C865 C863 1.433 . S
C865 N868 1.384 . S
C866 H857 0.929 . S
C866 C858 1.378 . S
C866 C861 1.350 . S
C867 H854 0.929 . S
C867 C859 1.433 . S
C867 N869 1.384 . S
N868 C864 1.427 . S
N868 C865 1.384 . S
N869 C861 1.427 . S
N869 C867 1.384 . S
H870 C876 0.930 . S
H871 C880 0.930 . S
H872 C885 0.929 . S
H873 C883 0.929 . S
H874 C878 0.929 . S
H875 C884 0.929 . S
C876 H870 0.930 . S
C876 C877 1.367 . S
C876 C884 1.378 . S
C877 C876 1.367 . S
C877 C885 1.433 . S
C878 H874 0.929 . S
C878 C880 1.378 . S
C878 C882 1.350 . S
C879 C882 1.463 . S
C879 C884 1.350 . S
C879 N887 1.427 . S
C880 H871 0.930 . S
C880 C878 1.378 . S
C880 C881 1.367 . S
C881 C880 1.367 . S
C881 C883 1.433 . S
C882 C878 1.350 . S
C882 C879 1.463 . S
C882 N886 1.427 . S
C883 H873 0.929 . S
C883 C881 1.433 . S
C883 N886 1.384 . S
C884 H875 0.929 . S
C884 C876 1.378 . S
C884 C879 1.350 . S
C885 H872 0.929 . S
C885 C877 1.433 . S
C885 N887 1.384 . S
N886 C882 1.427 . S
N886 C883 1.384 . S
N887 C879 1.427 . S
N887 C885 1.384 . S
C463 C21 2.396 . S
C467 C320 2.394 . S
C481 C61 2.283 . S
C485 C362 2.353 . S
C503 C392 1.005 . S
C499 C82 1.011 . S
C517 C135 1.121 . S
C521 C426 1.125 . S
C539 C383 1.905 . S
C535 C15 1.888 . S
C557 C337 1.928 . S
C553 C42 1.862 . S
C575 C430 1.418 . S
C571 C101 1.421 . S
C593 C396 1.451 . S
C589 C122 1.446 . S
C607 C2 2.289 . S
C611 C451 2.297 . S
C629 C358 1.164 . S
C625 C95 1.158 . S
C643 C141 1.210 . S
C647 C333 1.214 . S
C661 C55 2.195 . S
C665 C417 2.214 . S
C683 C349 2.403 . S
C679 C181 2.332 . S
C697 C202 2.256 . S
C701 C371 2.327 . S
C715 C255 1.007 . S
C719 C401 1.016 . S
C733 C295 1.102 . S
C737 C435 1.107 . S
C751 C175 1.883 . S
C755 C354 1.904 . S
C773 C328 1.940 . S
C769 C221 1.881 . S
C791 C439 1.364 . S
C787 C242 1.292 . S
C809 C405 1.519 . S
C805 C301 1.520 . S
C823 C162 2.174 . S
C827 C422 2.246 . S
C845 C367 1.175 . S
C841 C261 1.134 . S
C863 C324 1.211 . S
C859 C282 1.190 . S
C877 C215 2.231 . S
C881 C388 2.250 . S
