# Generated by pormake.
# Topology zzz, (3,6)-cn, num edge types: 1
# Building blocks:
#     Node 0, Type 0, BuildingBlock: OLANEW_clean_sbu_2, # of connection points: 3
#     Node 1, Type 0, BuildingBlock: OLANEW_clean_sbu_2, # of connection points: 3
#     Node 2, Type 0, BuildingBlock: OLANEW_clean_sbu_2, # of connection points: 3
#     Node 3, Type 0, BuildingBlock: OLANEW_clean_sbu_2, # of connection points: 3
#     Node 4, Type 0, BuildingBlock: OLANEW_clean_sbu_2, # of connection points: 3
#     Node 5, Type 0, BuildingBlock: OLANEW_clean_sbu_2, # of connection points: 3
#     Node 6, Type 0, BuildingBlock: OLANEW_clean_sbu_2, # of connection points: 3
#     Node 7, Type 0, BuildingBlock: OLANEW_clean_sbu_2, # of connection points: 3
#     Node 8, Type 1, BuildingBlock: BETDEL_clean_sbu_0, # of connection points: 6
#     Node 9, Type 1, BuildingBlock: BETDEL_clean_sbu_0, # of connection points: 6
#     Node 10, Type 1, BuildingBlock: BETDEL_clean_sbu_0, # of connection points: 6
#     Node 11, Type 1, BuildingBlock: BETDEL_clean_sbu_0, # of connection points: 6
#     Edge 12, Type (0, 1), BuildingBlock: AJUNOK_clean_linker_0, # of connection points: 2
#     Edge 13, Type (0, 1), BuildingBlock: AJUNOK_clean_linker_0, # of connection points: 2
#     Edge 14, Type (0, 1), BuildingBlock: AJUNOK_clean_linker_0, # of connection points: 2
#     Edge 15, Type (0, 1), BuildingBlock: AJUNOK_clean_linker_0, # of connection points: 2
#     Edge 16, Type (0, 1), BuildingBlock: AJUNOK_clean_linker_0, # of connection points: 2
#     Edge 17, Type (0, 1), BuildingBlock: AJUNOK_clean_linker_0, # of connection points: 2
#     Edge 18, Type (0, 1), BuildingBlock: AJUNOK_clean_linker_0, # of connection points: 2
#     Edge 19, Type (0, 1), BuildingBlock: AJUNOK_clean_linker_0, # of connection points: 2
#     Edge 20, Type (0, 1), BuildingBlock: AJUNOK_clean_linker_0, # of connection points: 2
#     Edge 21, Type (0, 1), BuildingBlock: AJUNOK_clean_linker_0, # of connection points: 2
#     Edge 22, Type (0, 1), BuildingBlock: AJUNOK_clean_linker_0, # of connection points: 2
#     Edge 23, Type (0, 1), BuildingBlock: AJUNOK_clean_linker_0, # of connection points: 2
#     Edge 24, Type (0, 1), BuildingBlock: AJUNOK_clean_linker_0, # of connection points: 2
#     Edge 25, Type (0, 1), BuildingBlock: AJUNOK_clean_linker_0, # of connection points: 2
#     Edge 26, Type (0, 1), BuildingBlock: AJUNOK_clean_linker_0, # of connection points: 2
#     Edge 27, Type (0, 1), BuildingBlock: AJUNOK_clean_linker_0, # of connection points: 2
#     Edge 28, Type (0, 1), BuildingBlock: AJUNOK_clean_linker_0, # of connection points: 2
#     Edge 29, Type (0, 1), BuildingBlock: AJUNOK_clean_linker_0, # of connection points: 2
#     Edge 30, Type (0, 1), BuildingBlock: AJUNOK_clean_linker_0, # of connection points: 2
#     Edge 31, Type (0, 1), BuildingBlock: AJUNOK_clean_linker_0, # of connection points: 2
#     Edge 32, Type (0, 1), BuildingBlock: AJUNOK_clean_linker_0, # of connection points: 2
#     Edge 33, Type (0, 1), BuildingBlock: AJUNOK_clean_linker_0, # of connection points: 2
#     Edge 34, Type (0, 1), BuildingBlock: AJUNOK_clean_linker_0, # of connection points: 2
#     Edge 35, Type (0, 1), BuildingBlock: AJUNOK_clean_linker_0, # of connection points: 2
# Relax obj value: 0.153
# Max RMSD: 0.178
# Mean RMSD: 0.124
data_MOF--net-zzz--node1-OLANEW_clean_sbu_2--node2-BETDEL_clean_sbu_0--edge1-AJUNOK_clean_linker_0
_symmetry_space_group_name_H-M    P1
_symmetry_Int_Tables_number       1
_symmetry_cell_setting            triclinic
loop_
_symmetry_equiv_pos_as_xyz
'x, y, z'
_cell_length_a     40.110086
_cell_length_b     40.293975
_cell_length_c     12.471486
_cell_angle_alpha  91.957737
_cell_angle_beta   88.543786
_cell_angle_gamma 95.785409
loop_
_atom_site_label
_atom_site_type_symbol
_atom_site_fract_x
_atom_site_fract_y
_atom_site_fract_z
_atom_type_partial_charge
O0 O 0.78039 0.50221 0.02214 0.0
Cd1 Cd 0.72581 0.48874 0.11099 0.0
O2 O 0.77944 0.4488 0.98232 0.0
Cd3 Cd 0.75975 0.44163 0.14407 0.0
O4 O 0.80347 0.46386 0.23281 0.0
C5 C 0.83226 0.45804 0.1955 0.0
O6 O 0.83399 0.43663 0.1142 0.0
C7 C 0.79235 0.47851 0.96889 0.0
C8 C 0.67358 0.4871 0.96648 0.0
O9 O 0.67985 0.51215 0.03143 0.0
O10 O 0.69176 0.46281 0.9699 0.0
O11 O 0.92264 0.77983 0.88288 0.0
Cd12 Cd 0.90388 0.72032 0.90606 0.0
O13 O 0.95991 0.78012 0.0083 0.0
Cd14 Cd 0.99766 0.80378 0.11644 0.0
O15 O 0.03701 0.80463 0.24446 0.0
C16 C 0.03589 0.82173 0.33246 0.0
O17 O 0.03824 0.80382 0.24405 0.0
C18 C 0.94518 0.79572 0.93987 0.0
C19 C 0.93979 0.6726 0.79822 0.0
O20 O 0.91746 0.68693 0.75054 0.0
O21 O 0.94604 0.68168 0.89578 0.0
O22 O 0.72328 0.93317 0.81949 0.0
Cd23 Cd 0.76632 0.90551 0.9029 0.0
O24 O 0.734 0.97417 0.93609 0.0
Cd25 Cd 0.72037 0.01622 0.0347 0.0
O26 O 0.67798 0.02366 0.13956 0.0
C27 C 0.65559 0.99901 0.14022 0.0
O28 O 0.66003 0.97268 0.07839 0.0
C29 C 0.71712 0.96164 0.85698 0.0
C30 C 0.82505 0.93306 0.80806 0.0
O31 O 0.80883 0.90671 0.76803 0.0
O32 O 0.81428 0.94533 0.89703 0.0
O33 O 0.58849 0.72385 0.79848 0.0
Cd34 Cd 0.61454 0.77964 0.7629 0.0
O35 O 0.56839 0.73783 0.9577 0.0
Cd36 Cd 0.54639 0.71917 0.10757 0.0
O37 O 0.53547 0.67609 0.20696 0.0
C38 C 0.55877 0.66754 0.26386 0.0
O39 O 0.58778 0.68584 0.2645 0.0
C40 C 0.57248 0.71584 0.88443 0.0
C41 C 0.57074 0.82853 0.74619 0.0
O42 O 0.57766 0.80993 0.66486 0.0
O43 O 0.58367 0.82312 0.83611 0.0
O44 O 0.24346 0.56866 0.24635 0.0
Cd45 Cd 0.30348 0.58258 0.21498 0.0
O46 O 0.24547 0.51697 0.1863 0.0
Cd47 Cd 0.21707 0.47127 0.12845 0.0
O48 O 0.1709 0.46653 0.03961 0.0
C49 C 0.16997 0.4898 0.97391 0.0
O50 O 0.19636 0.51169 0.96357 0.0
C51 C 0.22862 0.54006 0.22338 0.0
C52 C 0.34467 0.55358 0.35404 0.0
O53 O 0.33154 0.58043 0.38115 0.0
O54 O 0.33763 0.53992 0.26197 0.0
O55 O 0.04971 0.22738 0.20715 0.0
Cd56 Cd 0.07561 0.282 0.15066 0.0
O57 O 0.09334 0.20321 0.14645 0.0
Cd58 Cd 0.10483 0.2406 0.02584 0.0
O59 O 0.08783 0.20192 0.90633 0.0
C60 C 0.05783 0.18845 0.91508 0.0
O61 O 0.0371 0.20153 0.98369 0.0
C62 C 0.0657 0.20166 0.19884 0.0
C63 C 0.0554 0.33524 0.27802 0.0
O64 O 0.04116 0.32659 0.18909 0.0
O65 O 0.07915 0.31872 0.30685 0.0
O66 O 0.26495 0.9651 0.24066 0.0
Cd67 Cd 0.2182 0.9789 0.13903 0.0
O68 O 0.28167 0.0157 0.19162 0.0
Cd69 Cd 0.31955 0.05778 0.17201 0.0
O70 O 0.3647 0.0673 0.0742 0.0
C71 C 0.36378 0.04909 0.98897 0.0
O72 O 0.33593 0.03037 0.96656 0.0
C73 C 0.28723 0.98967 0.24039 0.0
C74 C 0.16684 0.98694 0.28485 0.0
O75 O 0.16844 0.9595 0.23074 0.0
O76 O 0.18928 0.01124 0.26769 0.0
O77 O 0.44069 0.28071 0.18511 0.0
Cd78 Cd 0.43258 0.22397 0.11196 0.0
O79 O 0.4927 0.28443 0.12491 0.0
Cd80 Cd 0.47884 0.24969 0.99311 0.0
O81 O 0.4785 0.29953 0.92883 0.0
C82 C 0.45232 0.31492 0.92986 0.0
O83 O 0.42335 0.29935 0.95923 0.0
C84 C 0.46989 0.29621 0.18264 0.0
C85 C 0.45891 0.18268 0.25662 0.0
O86 O 0.47722 0.19581 0.18047 0.0
O87 O 0.42812 0.18868 0.26263 0.0
Dy88 Dy 0.99781 0.98251 0.69241 0.0
C89 C 0.0096 0.07121 0.33819 0.0
C90 C 0.98047 0.93391 0.8371 0.0
Dy91 Dy 0.99379 0.0223 0.48163 0.0
O92 O 0.01099 0.94474 0.80932 0.0
O93 O 0.95973 0.95132 0.79084 0.0
O94 O 0.05449 0.99242 0.68494 0.0
O95 O 0.02634 0.98902 0.54587 0.0
C96 C 0.05515 0.99587 0.58139 0.0
C97 C 0.93623 0.00515 0.58351 0.0
O98 O 0.99242 0.97124 0.40418 0.0
O99 O 0.98001 0.94399 0.56417 0.0
O100 O 0.98069 0.0653 0.38688 0.0
O101 O 0.02901 0.04872 0.36232 0.0
O102 O 0.93861 0.0077 0.47961 0.0
O103 O 0.96379 0.01466 0.62669 0.0
O104 O 0.00398 0.03367 0.76779 0.0
O105 O 0.01738 0.05883 0.6047 0.0
C106 C 0.98393 0.94349 0.45767 0.0
C107 C 0.01592 0.05972 0.71111 0.0
Dy108 Dy 0.47807 1.00038 0.52309 0.0
C109 C 0.60893 0.02692 0.67915 0.0
C110 C 0.4162 0.98962 0.43608 0.0
Dy111 Dy 0.54322 0.03028 0.63418 0.0
O112 O 0.44395 0.99753 0.38333 0.0
O113 O 0.42218 0.98719 0.53731 0.0
O114 O 0.50999 0.97457 0.40181 0.0
O115 O 0.5275 0.02102 0.47065 0.0
C116 C 0.5351 0.9975 0.40918 0.0
C117 C 0.48773 0.0355 0.75027 0.0
O118 O 0.5323 0.07498 0.54411 0.0
O119 O 0.47591 0.05594 0.52548 0.0
O120 O 0.58837 0.04327 0.73823 0.0
O121 O 0.59398 0.01512 0.5931 0.0
O122 O 0.51449 0.05655 0.76134 0.0
O123 O 0.49356 0.0113 0.68778 0.0
O124 O 0.48784 0.95335 0.5995 0.0
O125 O 0.53921 0.97539 0.66774 0.0
C126 C 0.50116 0.07984 0.51885 0.0
C127 C 0.51586 0.95018 0.65024 0.0
Dy128 Dy 0.50329 0.52351 0.7468 0.0
C129 C 0.49248 0.42367 0.41181 0.0
C130 C 0.52523 0.57642 0.87845 0.0
Dy131 Dy 0.50604 0.47422 0.5594 0.0
O132 O 0.49392 0.56592 0.86292 0.0
O133 O 0.544 0.5564 0.82786 0.0
O134 O 0.44759 0.52313 0.73385 0.0
O135 O 0.47698 0.51612 0.59522 0.0
C136 C 0.44733 0.51588 0.63134 0.0
C137 C 0.56149 0.48197 0.67844 0.0
O138 O 0.51597 0.52079 0.46753 0.0
O139 O 0.53242 0.55271 0.61759 0.0
O140 O 0.52111 0.44151 0.42089 0.0
O141 O 0.47107 0.43406 0.48164 0.0
O142 O 0.56197 0.47481 0.57637 0.0
O143 O 0.53167 0.48139 0.71181 0.0
O144 O 0.48982 0.47637 0.83601 0.0
O145 O 0.47414 0.44549 0.68175 0.0
C146 C 0.53074 0.54855 0.51198 0.0
C147 C 0.47484 0.44919 0.78755 0.0
Dy148 Dy 0.9806 0.49489 0.63947 0.0
C149 C 0.08717 0.5192 0.33277 0.0
C150 C 0.92415 0.48819 0.76568 0.0
Dy151 Dy 0.03104 0.51699 0.46253 0.0
O152 O 0.94732 0.51311 0.77231 0.0
O153 O 0.9326 0.46653 0.69334 0.0
O154 O -2e-05 0.44444 0.63458 0.0
O155 O -0.00057 0.47133 0.49319 0.0
C156 C 0.00855 0.44555 0.53339 0.0
C157 C 0.00401 0.56686 0.56903 0.0
O158 O 0.98523 0.5041 0.36411 0.0
O159 O 0.94986 0.51247 0.50917 0.0
O160 O 0.06788 0.54317 0.34588 0.0
O161 O 0.07491 0.49379 0.38737 0.0
O162 O 0.01302 0.56811 0.46818 0.0
O163 O 0.01246 0.54065 0.60849 0.0
O164 O 0.02473 0.49955 0.74415 0.0
O165 O 0.0632 0.50716 0.60221 0.0
C166 C 0.95496 0.50829 0.40465 0.0
C167 C 0.05586 0.50208 0.70537 0.0
C168 C 0.10861 0.97108 0.34647 0.0
C169 C 0.13928 0.99028 0.36317 0.0
C170 C 0.08179 0.97315 0.41856 0.0
C171 C 0.08476 0.99404 0.51112 0.0
H172 H 0.10508 0.95455 0.27639 0.0
H173 H 0.0586 0.95792 0.40188 0.0
S174 S 0.15987 0.04886 0.59366 0.0
N175 N 0.17139 0.03078 0.47953 0.0
N176 N 0.12053 0.03399 0.61713 0.0
C177 C 0.11531 0.01305 0.5302 0.0
C178 C 0.14268 0.01143 0.45538 0.0
C179 C 0.45042 0.14441 0.41039 0.0
C180 C 0.47224 0.16017 0.33334 0.0
C181 C 0.46094 0.1202 0.47607 0.0
C182 C 0.49379 0.11087 0.46826 0.0
H183 H 0.42452 0.14977 0.41747 0.0
H184 H 0.44268 0.10765 0.53039 0.0
S185 S 0.56198 0.14709 0.28844 0.0
N186 N 0.52928 0.16672 0.25966 0.0
N187 N 0.54895 0.12115 0.38389 0.0
C188 C 0.51659 0.12795 0.39697 0.0
C189 C 0.50581 0.15255 0.32913 0.0
C190 C 0.36818 0.54834 0.53573 0.0
C191 C 0.36864 0.53998 0.42522 0.0
C192 C 0.39269 0.53877 0.60333 0.0
C193 C 0.41897 0.52111 0.56244 0.0
H194 H 0.3491 0.56296 0.57007 0.0
H195 H 0.39182 0.54658 0.68724 0.0
S196 S 0.43061 0.49137 0.28047 0.0
N197 N 0.39651 0.51115 0.27932 0.0
N198 N 0.44304 0.49407 0.4059 0.0
C199 C 0.41909 0.51158 0.45297 0.0
C200 C 0.3938 0.52078 0.38445 0.0
C201 C 0.02826 0.38845 0.29724 0.0
C202 C 0.04466 0.3636 0.34486 0.0
C203 C 0.01736 0.4153 0.35849 0.0
C204 C 0.02183 0.41793 0.47005 0.0
H205 H 0.0239 0.38727 0.21175 0.0
H206 H 0.00476 0.43376 0.31833 0.0
S207 S 0.06405 0.36015 0.6336 0.0
N208 N 0.06572 0.34402 0.51026 0.0
N209 N 0.04451 0.39411 0.62547 0.0
C210 C 0.03843 0.39352 0.51868 0.0
C211 C 0.05006 0.36646 0.45606 0.0
C212 C 0.87397 0.9766 0.80156 0.0
C213 C 0.85441 0.94988 0.75082 0.0
C214 C 0.90062 0.99433 0.74689 0.0
C215 C 0.90819 0.98629 0.63929 0.0
H216 H 0.86863 0.98402 0.88399 0.0
H217 H 0.91511 0.01473 0.78862 0.0
S218 S 0.86651 0.91734 0.47163 0.0
N219 N 0.84591 0.91522 0.58785 0.0
N220 N 0.89563 0.94908 0.48517 0.0
C221 C 0.88936 0.9594 0.58798 0.0
C222 C 0.86258 0.94099 0.64387 0.0
C223 C 0.53281 0.85978 0.63943 0.0
C224 C 0.55103 0.85732 0.73356 0.0
C225 C 0.51879 0.88922 0.61669 0.0
C226 C 0.52301 0.9173 0.68655 0.0
H227 H 0.53057 0.83932 0.58056 0.0
H228 H 0.50662 0.89074 0.54068 0.0
S229 S 0.56511 0.92296 0.94864 0.0
N230 N 0.56948 0.88476 0.90198 0.0
N231 N 0.54379 0.94015 0.85758 0.0
C232 C 0.53922 0.91455 0.78385 0.0
C233 C 0.55302 0.8845 0.80794 0.0
C234 C 0.61456 0.4958 0.9266 0.0
C235 C 0.6457 0.48598 0.89108 0.0
C236 C 0.58736 0.49393 0.85747 0.0
C237 C 0.5907 0.48345 0.74925 0.0
H238 H 0.61095 0.50419 0.00917 0.0
H239 H 0.56353 0.50069 0.88934 0.0
S240 S 0.66748 0.45574 0.61669 0.0
N241 N 0.67845 0.46508 0.74173 0.0
N242 N 0.62786 0.46322 0.60996 0.0
C243 C 0.62191 0.47398 0.71245 0.0
C244 C 0.6493 0.47487 0.78386 0.0
C245 C 0.95832 0.64359 0.6295 0.0
C246 C 0.95716 0.64584 0.74241 0.0
C247 C 0.97382 0.61814 0.5744 0.0
C248 C 0.9883 0.59362 0.62995 0.0
H249 H 0.94728 0.66174 0.58304 0.0
H250 H 0.97409 0.61748 0.48747 0.0
S251 S 0.99154 0.58768 0.92571 0.0
N252 N 0.97173 0.621 0.90793 0.0
N253 N 0.00057 0.57309 0.80424 0.0
C254 C 0.98725 0.59542 0.74279 0.0
C255 C 0.9718 0.62157 0.79902 0.0
C256 C 0.06973 0.14132 0.23169 0.0
C257 C 0.05048 0.16874 0.2355 0.0
C258 C 0.05578 0.10944 0.25978 0.0
C259 C 0.02197 0.1036 0.29222 0.0
H260 H 0.09595 0.14444 0.20749 0.0
H261 H 0.07191 0.08941 0.25847 0.0
S262 S 0.96003 0.16618 0.31023 0.0
N263 N 0.99525 0.18743 0.27041 0.0
N264 N 0.96909 0.12746 0.32286 0.0
C265 C 0.00213 0.13048 0.29386 0.0
C266 C 0.01638 0.16306 0.26593 0.0
C267 C 0.34932 0.99532 0.23219 0.0
C268 C 0.31953 0.98754 0.29114 0.0
C269 C 0.38049 0.99505 0.27946 0.0
C270 C 0.38289 0.98707 0.38773 0.0
H271 H 0.3485 0.00145 0.14873 0.0
H272 H 0.40282 0.00169 0.23103 0.0
S273 S 0.31194 0.96329 0.57524 0.0
N274 N 0.29395 0.97025 0.4615 0.0
N275 N 0.35275 0.97002 0.5517 0.0
C276 C 0.35323 0.97838 0.44702 0.0
C277 C 0.32143 0.97842 0.39824 0.0
C278 C 0.45118 0.3413 0.30524 0.0
C279 C 0.47644 0.32901 0.2392 0.0
C280 C 0.45623 0.37255 0.35778 0.0
C281 C 0.48667 0.39272 0.34607 0.0
H282 H 0.42732 0.32662 0.31733 0.0
H283 H 0.43631 0.38063 0.40961 0.0
S284 S 0.56019 0.37338 0.17773 0.0
N285 N 0.53276 0.34029 0.16209 0.0
N286 N 0.54193 0.3992 0.26036 0.0
C287 C 0.51187 0.38127 0.27846 0.0
C288 C 0.50686 0.34933 0.22531 0.0
C289 C 0.17793 0.50423 0.28587 0.0
C290 C 0.19188 0.53384 0.23906 0.0
C291 C 0.14351 0.4988 0.30923 0.0
C292 C 0.12179 0.52299 0.28799 0.0
H293 H 0.19392 0.48564 0.30862 0.0
H294 H 0.13418 0.47612 0.34901 0.0
S295 S 0.14534 0.60329 0.15576 0.0
N296 N 0.18106 0.5865 0.16433 0.0
N297 N 0.11628 0.57653 0.20964 0.0
C298 C 0.13516 0.55209 0.23693 0.0
C299 C 0.17026 0.55755 0.21274 0.0
C300 C 0.98718 0.84593 0.92619 0.0
C301 C 0.95361 0.83198 0.92702 0.0
C302 C 0.99563 0.87968 0.9036 0.0
C303 C 0.97077 0.90076 0.8826 0.0
H304 H 0.00719 0.83033 0.9376 0.0
H305 H 0.02191 0.88889 0.89783 0.0
S306 S 0.87896 0.87696 0.88766 0.0
N307 N 0.8953 0.84216 0.91314 0.0
N308 N 0.91099 0.90568 0.87287 0.0
C309 C 0.93702 0.88745 0.88921 0.0
C310 C 0.9285 0.85303 0.9106 0.0
C311 C 0.6888 0.0134 0.8224 0.0
C312 C 0.68935 0.97843 0.81272 0.0
C313 C 0.66264 0.02934 0.77997 0.0
C314 C 0.63704 0.01099 0.7224 0.0
H315 H 0.70904 0.02878 0.86044 0.0
H316 H 0.66285 0.05617 0.79017 0.0
S317 S 0.62671 0.91917 0.67256 0.0
N318 N 0.66125 0.92616 0.74224 0.0
N319 N 0.61348 0.95616 0.65795 0.0
C320 C 0.63756 0.9762 0.71038 0.0
C321 C 0.66345 0.95993 0.7561 0.0
C322 C 0.58272 0.65607 0.88102 0.0
C323 C 0.5606 0.68052 0.90088 0.0
C324 C 0.57153 0.6221 0.8851 0.0
C325 C 0.53761 0.61133 0.90691 0.0
H326 H 0.60871 0.66325 0.85914 0.0
H327 H 0.58925 0.6042 0.86411 0.0
S328 S 0.47016 0.66575 0.97189 0.0
N329 N 0.50377 0.69201 0.94947 0.0
N330 N 0.48255 0.62797 0.95668 0.0
C331 C 0.51562 0.63559 0.93293 0.0
C332 C 0.52714 0.67028 0.92953 0.0
C333 C 0.83346 0.46037 0.83199 0.0
C334 C 0.82499 0.48382 0.91145 0.0
C335 C 0.86577 0.46188 0.78642 0.0
C336 C 0.89089 0.48676 0.81908 0.0
H337 H 0.81509 0.44037 0.8058 0.0
H338 H 0.87103 0.44333 0.72505 0.0
S339 S 0.88228 0.55315 0.02817 0.0
N340 N 0.84474 0.5322 0.02337 0.0
N341 N 0.90555 0.53499 0.93703 0.0
C342 C 0.88289 0.51043 0.8983 0.0
C343 C 0.84988 0.50902 0.94452 0.0
C344 C 0.02238 0.13374 0.90848 0.0
C345 C 0.04771 0.15579 0.86143 0.0
C346 C 0.01297 0.10209 0.86184 0.0
C347 C 0.02818 0.09163 0.7656 0.0
H348 H 0.00991 0.1408 0.98267 0.0
H349 H 0.9931 0.08612 0.89993 0.0
S350 S 0.09664 0.13936 0.61231 0.0
N351 N 0.08852 0.16441 0.71515 0.0
N352 N 0.07069 0.10525 0.62673 0.0
C353 C 0.05386 0.11326 0.71852 0.0
C354 C 0.06368 0.14525 0.76664 0.0
C355 C 0.42046 0.07183 0.92246 0.0
C356 C 0.39458 0.0456 0.92421 0.0
C357 C 0.45049 0.06838 0.86525 0.0
C358 C 0.45579 0.03844 0.80912 0.0
H359 H 0.41747 0.09523 0.96531 0.0
H360 H 0.4697 0.08931 0.86523 0.0
S361 S 0.39701 0.96126 0.79651 0.0
N362 N 0.3767 0.98821 0.86851 0.0
N363 N 0.43355 0.98144 0.76417 0.0
C364 C 0.43034 0.01184 0.8117 0.0
C365 C 0.3996 0.0155 0.86846 0.0
C366 C 0.48436 0.37139 0.93473 0.0
C367 C 0.45519 0.35083 0.90657 0.0
C368 C 0.48894 0.40497 0.90661 0.0
C369 C 0.46481 0.41884 0.84726 0.0
H370 H 0.50423 0.3612 0.97611 0.0
H371 H 0.5126 0.41935 0.92413 0.0
S372 S 0.38324 0.37648 0.76005 0.0
N373 N 0.40074 0.3476 0.82355 0.0
N374 N 0.41009 0.41035 0.76635 0.0
C375 C 0.43492 0.39907 0.82299 0.0
C376 C 0.4299 0.36513 0.85381 0.0
C377 C 0.14416 0.50829 0.80999 0.0
C378 C 0.1402 0.49247 0.90878 0.0
C379 C 0.11668 0.51138 0.74564 0.0
C380 C 0.08399 0.49925 0.7782 0.0
H381 H 0.16881 0.51802 0.78115 0.0
H382 H 0.12123 0.52351 0.66973 0.0
S383 S 0.05999 0.45721 0.03341 0.0
N384 N 0.10111 0.46537 0.03841 0.0
N385 N 0.04916 0.47143 0.91793 0.0
C386 C 0.07954 0.48389 0.87809 0.0
C387 C 0.10773 0.48037 0.94315 0.0
C388 C 0.99559 0.85209 0.4394 0.0
C389 C 0.0145 0.84932 0.34424 0.0
C390 C 0.98165 0.88166 0.46831 0.0
C391 C 0.98743 0.91021 0.40531 0.0
H392 H 0.99306 0.83183 0.49495 0.0
H393 H 0.96877 0.88289 0.54556 0.0
S394 S 0.03212 0.9141 0.14095 0.0
N395 N 0.0351 0.87578 0.18003 0.0
N396 N 0.01002 0.93206 0.2358 0.0
C397 C 0.00379 0.90668 0.30476 0.0
C398 C 0.01733 0.87611 0.2742 0.0
C399 C 0.60129 0.9713 0.21098 0.0
C400 C 0.6252 0.99942 0.20998 0.0
C401 C 0.57229 0.97084 0.27608 0.0
C402 C 0.56611 0.99846 0.34261 0.0
H403 H 0.60493 0.94935 0.16126 0.0
H404 H 0.55461 0.94866 0.27414 0.0
S405 S 0.6207 0.07828 0.37027 0.0
N406 N 0.64072 0.05559 0.28223 0.0
N407 N 0.5861 0.05484 0.40327 0.0
C408 C 0.58973 0.02676 0.34243 0.0
C409 C 0.61932 0.02721 0.27651 0.0
C410 C 0.53097 0.61003 0.28911 0.0
C411 C 0.55352 0.63678 0.32568 0.0
C412 C 0.52498 0.58081 0.3473 0.0
C413 C 0.54088 0.57757 0.4451 0.0
H414 H 0.51777 0.61169 0.21503 0.0
H415 H 0.50683 0.56117 0.31725 0.0
S416 S 0.60269 0.64022 0.57446 0.0
N417 N 0.59252 0.65788 0.46394 0.0
N418 N 0.58087 0.60322 0.5744 0.0
C419 C 0.56395 0.60393 0.48154 0.0
C420 C 0.57039 0.63347 0.42149 0.0
C421 C 0.89498 0.46668 0.2008 0.0
C422 C 0.8636 0.47492 0.24144 0.0
C423 C 0.925 0.47985 0.24834 0.0
C424 C 0.92477 0.50181 0.33822 0.0
H425 H 0.89644 0.44892 0.13409 0.0
H426 H 0.94827 0.47114 0.21842 0.0
S427 S 0.85003 0.53614 0.46363 0.0
N428 N 0.8347 0.50993 0.36838 0.0
N429 N 0.89102 0.5348 0.45702 0.0
C430 C 0.89384 0.51234 0.37422 0.0
C431 C 0.86329 0.49886 0.32613 0.0
loop_
_geom_bond_atom_site_label_1
_geom_bond_atom_site_label_2
_geom_bond_distance
_geom_bond_site_symmetry_2
_ccdc_geom_bond_type
O0 Cd1 2.300 . S
O0 C7 1.275 . S
Cd1 O0 2.300 . S
Cd1 O9 2.381 . S
Cd1 O10 2.378 1_556 S
O2 Cd3 2.385 1_556 S
O2 C7 1.255 . S
Cd3 O2 2.385 1_554 S
Cd3 O4 2.317 . S
O4 Cd3 2.317 . S
O4 C5 1.232 . S
C5 O4 1.232 . S
C5 O6 1.218 . S
O6 C5 1.218 . S
C7 O0 1.275 . S
C7 O2 1.255 . S
C8 O9 1.258 . S
C8 O10 1.256 1_556 S
O9 Cd1 2.381 . S
O9 C8 1.258 . S
O10 Cd1 2.378 1_554 S
O10 C8 1.256 1_554 S
O11 Cd12 2.300 . S
O11 C18 1.275 . S
Cd12 O11 2.300 . S
Cd12 O20 2.381 . S
Cd12 O21 2.385 1_556 S
O13 Cd14 2.385 1_556 S
O13 C18 1.255 1_455 S
Cd14 O13 2.385 1_554 S
Cd14 O15 2.317 1_455 S
O15 Cd14 2.317 1_655 S
O15 C16 1.232 . S
C16 O15 1.232 . S
C16 O17 1.218 1_655 S
O17 C16 1.218 1_455 S
C18 O11 1.275 . S
C18 O13 1.255 1_655 S
C19 O20 1.258 . S
C19 O21 1.281 1_556 S
O20 Cd12 2.381 . S
O20 C19 1.258 . S
O21 Cd12 2.385 1_554 S
O21 C19 1.281 1_554 S
O22 Cd23 2.300 1_565 S
O22 C29 1.275 . S
Cd23 O22 2.300 1_545 S
Cd23 O31 2.381 1_545 S
Cd23 O32 2.378 1_556 S
O24 Cd25 2.385 1_556 S
O24 C29 1.255 1_545 S
Cd25 O24 2.385 1_554 S
Cd25 O26 2.317 . S
O26 Cd25 2.317 . S
O26 C27 1.232 1_545 S
C27 O26 1.232 1_565 S
C27 O28 1.218 1_565 S
O28 C27 1.218 1_545 S
C29 O22 1.275 . S
C29 O24 1.255 1_565 S
C30 O31 1.258 . S
C30 O32 1.256 1_566 S
O31 Cd23 2.381 1_565 S
O31 C30 1.258 . S
O32 Cd23 2.378 1_554 S
O32 C30 1.256 1_544 S
O33 Cd34 2.300 1_556 S
O33 C40 1.275 . S
Cd34 O33 2.300 1_554 S
Cd34 O42 2.381 1_554 S
Cd34 O43 2.378 . S
O35 Cd36 2.385 . S
O35 C40 1.255 1_554 S
Cd36 O35 2.385 . S
Cd36 O37 2.317 . S
O37 Cd36 2.317 . S
O37 C38 1.232 . S
C38 O37 1.232 . S
C38 O39 1.218 . S
O39 C38 1.218 . S
C40 O33 1.275 . S
C40 O35 1.255 1_556 S
C41 O42 1.258 . S
C41 O43 1.256 1_556 S
O42 Cd34 2.381 1_556 S
O42 C41 1.258 . S
O43 Cd34 2.378 . S
O43 C41 1.256 1_554 S
O44 Cd45 2.300 . S
O44 C51 1.275 . S
Cd45 O44 2.300 . S
Cd45 O53 2.381 . S
Cd45 O54 2.378 . S
O46 Cd47 2.385 . S
O46 C51 1.255 . S
Cd47 O46 2.385 . S
Cd47 O48 2.317 1_554 S
O48 Cd47 2.317 1_556 S
O48 C49 1.232 . S
C49 O48 1.232 . S
C49 O50 1.218 . S
O50 C49 1.218 . S
C51 O44 1.275 . S
C51 O46 1.255 . S
C52 O53 1.258 . S
C52 O54 1.256 . S
O53 Cd45 2.381 . S
O53 C52 1.258 . S
O54 Cd45 2.378 . S
O54 C52 1.256 . S
O55 Cd56 2.300 . S
O55 C62 1.275 . S
Cd56 O55 2.300 . S
Cd56 O64 2.381 . S
Cd56 O65 2.378 . S
O57 Cd58 2.385 . S
O57 C62 1.255 . S
Cd58 O57 2.385 . S
Cd58 O59 2.317 1_554 S
O59 Cd58 2.317 1_556 S
O59 C60 1.232 . S
C60 O59 1.232 . S
C60 O61 1.218 . S
O61 C60 1.218 . S
C62 O55 1.275 . S
C62 O57 1.255 . S
C63 O64 1.258 . S
C63 O65 1.256 . S
O64 Cd56 2.381 . S
O64 C63 1.258 . S
O65 Cd56 2.378 . S
O65 C63 1.256 . S
O66 Cd67 2.300 . S
O66 C73 1.275 . S
Cd67 O66 2.300 . S
Cd67 O75 2.381 . S
Cd67 O76 2.378 . S
O68 Cd69 2.385 . S
O68 C73 1.255 . S
Cd69 O68 2.385 . S
Cd69 O70 2.317 1_554 S
O70 Cd69 2.317 1_556 S
O70 C71 1.232 . S
C71 O70 1.232 . S
C71 O72 1.218 . S
O72 C71 1.218 . S
C73 O66 1.275 . S
C73 O68 1.255 . S
C74 O75 1.258 . S
C74 O76 1.256 . S
O75 Cd67 2.381 . S
O75 C74 1.258 . S
O76 Cd67 2.378 . S
O76 C74 1.256 . S
O77 Cd78 2.300 . S
O77 C84 1.275 . S
Cd78 O77 2.300 . S
Cd78 O86 2.381 . S
Cd78 O87 2.378 . S
O79 Cd80 2.385 1_554 S
O79 C84 1.255 . S
Cd80 O79 2.385 1_556 S
Cd80 O81 2.317 . S
O81 Cd80 2.317 . S
O81 C82 1.232 . S
C82 O81 1.232 . S
C82 O83 1.218 . S
O83 C82 1.218 . S
C84 O77 1.275 . S
C84 O79 1.255 . S
C85 O86 1.258 . S
C85 O87 1.256 . S
O86 Cd78 2.381 . S
O86 C85 1.258 . S
O87 Cd78 2.378 . S
O87 C85 1.256 . S
Dy88 O92 2.398 . S
Dy88 O93 2.491 1_455 S
Dy88 O94 2.403 . S
Dy88 O95 2.664 1_565 S
Dy88 O99 2.326 . S
Dy88 O103 2.310 1_455 S
Dy88 O104 2.351 1_565 S
C89 O100 1.185 1_455 S
C89 O101 1.355 . S
C90 O92 1.185 . S
C90 O93 1.355 1_455 S
Dy91 O95 2.310 1_655 S
Dy91 O98 2.351 1_545 S
Dy91 O100 2.398 . S
Dy91 O101 2.491 1_655 S
Dy91 O102 2.403 . S
Dy91 O103 2.664 1_545 S
Dy91 O105 2.326 1_655 S
O92 Dy88 2.398 . S
O92 C90 1.185 . S
O93 Dy88 2.491 1_655 S
O93 C90 1.355 1_655 S
O94 Dy88 2.403 . S
O94 C96 1.254 1_565 S
O95 Dy88 2.664 1_545 S
O95 Dy91 2.310 1_455 S
O95 C96 1.268 . S
C96 O94 1.254 1_545 S
C96 O95 1.268 . S
C97 O102 1.254 . S
C97 O103 1.268 1_545 S
O98 Dy91 2.351 1_565 S
O98 C106 1.249 . S
O99 Dy88 2.326 . S
O99 C106 1.267 1_455 S
O100 C89 1.185 1_655 S
O100 Dy91 2.398 . S
O101 C89 1.355 . S
O101 Dy91 2.491 1_455 S
O102 Dy91 2.403 . S
O102 C97 1.254 . S
O103 Dy88 2.310 1_655 S
O103 Dy91 2.664 1_565 S
O103 C97 1.268 1_565 S
O104 Dy88 2.351 1_545 S
O104 C107 1.249 . S
O105 Dy91 2.326 1_455 S
O105 C107 1.267 . S
C106 O98 1.249 . S
C106 O99 1.267 1_655 S
C107 O104 1.249 . S
C107 O105 1.267 . S
Dy108 O112 2.398 . S
Dy108 O113 2.491 1_565 S
Dy108 O114 2.403 . S
Dy108 O115 2.664 . S
Dy108 O119 2.326 1_565 S
Dy108 O123 2.310 1_565 S
Dy108 O124 2.351 . S
C109 O120 1.185 . S
C109 O121 1.355 . S
C110 O112 1.185 . S
C110 O113 1.355 1_565 S
Dy111 O115 2.310 1_545 S
Dy111 O118 2.351 . S
Dy111 O120 2.398 . S
Dy111 O121 2.491 . S
Dy111 O122 2.403 . S
Dy111 O123 2.664 . S
Dy111 O125 2.326 1_545 S
O112 Dy108 2.398 . S
O112 C110 1.185 . S
O113 Dy108 2.491 1_545 S
O113 C110 1.355 1_545 S
O114 Dy108 2.403 . S
O114 C116 1.254 . S
O115 Dy108 2.664 . S
O115 Dy111 2.310 1_565 S
O115 C116 1.268 . S
C116 O114 1.254 . S
C116 O115 1.268 . S
C117 O122 1.254 . S
C117 O123 1.268 . S
O118 Dy111 2.351 . S
O118 C126 1.249 . S
O119 Dy108 2.326 1_545 S
O119 C126 1.267 . S
O120 C109 1.185 . S
O120 Dy111 2.398 . S
O121 C109 1.355 . S
O121 Dy111 2.491 . S
O122 Dy111 2.403 . S
O122 C117 1.254 . S
O123 Dy108 2.310 1_545 S
O123 Dy111 2.664 . S
O123 C117 1.268 . S
O124 Dy108 2.351 . S
O124 C127 1.249 . S
O125 Dy111 2.326 1_565 S
O125 C127 1.267 . S
C126 O118 1.249 . S
C126 O119 1.267 . S
C127 O124 1.249 . S
C127 O125 1.267 . S
Dy128 O132 2.398 . S
Dy128 O133 2.491 . S
Dy128 O134 2.403 . S
Dy128 O135 2.664 . S
Dy128 O139 2.326 . S
Dy128 O143 2.310 . S
Dy128 O144 2.351 . S
C129 O140 1.185 . S
C129 O141 1.355 . S
C130 O132 1.185 . S
C130 O133 1.355 . S
Dy131 O135 2.310 . S
Dy131 O138 2.351 . S
Dy131 O140 2.398 . S
Dy131 O141 2.491 . S
Dy131 O142 2.403 . S
Dy131 O143 2.664 . S
Dy131 O145 2.326 . S
O132 Dy128 2.398 . S
O132 C130 1.185 . S
O133 Dy128 2.491 . S
O133 C130 1.355 . S
O134 Dy128 2.403 . S
O134 C136 1.254 . S
O135 Dy128 2.664 . S
O135 Dy131 2.310 . S
O135 C136 1.268 . S
C136 O134 1.254 . S
C136 O135 1.268 . S
C137 O142 1.254 . S
C137 O143 1.268 . S
O138 Dy131 2.351 . S
O138 C146 1.249 . S
O139 Dy128 2.326 . S
O139 C146 1.267 . S
O140 C129 1.185 . S
O140 Dy131 2.398 . S
O141 C129 1.355 . S
O141 Dy131 2.491 . S
O142 Dy131 2.403 . S
O142 C137 1.254 . S
O143 Dy128 2.310 . S
O143 Dy131 2.664 . S
O143 C137 1.268 . S
O144 Dy128 2.351 . S
O144 C147 1.249 . S
O145 Dy131 2.326 . S
O145 C147 1.267 . S
C146 O138 1.249 . S
C146 O139 1.267 . S
C147 O144 1.249 . S
C147 O145 1.267 . S
Dy148 O152 2.398 . S
Dy148 O153 2.491 . S
Dy148 O154 2.403 . S
Dy148 O155 2.664 1_655 S
Dy148 O159 2.326 . S
Dy148 O163 2.310 . S
Dy148 O164 2.351 1_655 S
C149 O160 1.185 . S
C149 O161 1.355 . S
C150 O152 1.185 . S
C150 O153 1.355 . S
Dy151 O155 2.310 . S
Dy151 O158 2.351 1_455 S
Dy151 O160 2.398 . S
Dy151 O161 2.491 . S
Dy151 O162 2.403 . S
Dy151 O163 2.664 1_455 S
Dy151 O165 2.326 . S
O152 Dy148 2.398 . S
O152 C150 1.185 . S
O153 Dy148 2.491 . S
O153 C150 1.355 . S
O154 Dy148 2.403 . S
O154 C156 1.254 1_655 S
O155 Dy148 2.664 1_455 S
O155 Dy151 2.310 . S
O155 C156 1.268 . S
C156 O154 1.254 1_455 S
C156 O155 1.268 . S
C157 O162 1.254 . S
C157 O163 1.268 1_455 S
O158 Dy151 2.351 1_655 S
O158 C166 1.249 . S
O159 Dy148 2.326 . S
O159 C166 1.267 . S
O160 C149 1.185 . S
O160 Dy151 2.398 . S
O161 C149 1.355 . S
O161 Dy151 2.491 . S
O162 Dy151 2.403 . S
O162 C157 1.254 . S
O163 Dy148 2.310 . S
O163 Dy151 2.664 1_655 S
O163 C157 1.268 1_655 S
O164 Dy148 2.351 1_455 S
O164 C167 1.249 . S
O165 Dy151 2.326 . S
O165 C167 1.267 . S
C166 O158 1.249 . S
C166 O159 1.267 . S
C167 O164 1.249 . S
C167 O165 1.267 . S
C168 C169 1.369 . S
C168 C170 1.419 . S
C168 H172 0.930 . S
C169 C168 1.369 . S
C169 C178 1.429 . S
C170 C168 1.419 . S
C170 C171 1.363 . S
C170 H173 0.929 . S
C171 C170 1.363 . S
C171 C177 1.428 . S
H172 C168 0.930 . S
H173 C170 0.929 . S
S174 N175 1.613 1_565 S
S174 N176 1.610 . S
N175 S174 1.613 1_545 S
N175 C178 1.350 . S
N176 S174 1.610 . S
N176 C177 1.351 1_565 S
C177 C171 1.428 . S
C177 N176 1.351 1_545 S
C177 C178 1.434 . S
C178 C169 1.429 . S
C178 N175 1.350 . S
C178 C177 1.434 . S
C179 C180 1.369 . S
C179 C181 1.419 . S
C179 H183 0.930 . S
C180 C179 1.369 . S
C180 C189 1.429 . S
C181 C179 1.419 . S
C181 C182 1.363 . S
C181 H184 0.929 . S
C182 C181 1.363 . S
C182 C188 1.428 . S
H183 C179 0.930 . S
H184 C181 0.929 . S
S185 N186 1.613 . S
S185 N187 1.610 . S
N186 S185 1.613 . S
N186 C189 1.350 . S
N187 S185 1.610 . S
N187 C188 1.351 . S
C188 C182 1.428 . S
C188 N187 1.351 . S
C188 C189 1.434 . S
C189 C180 1.429 . S
C189 N186 1.350 . S
C189 C188 1.434 . S
C190 C191 1.369 . S
C190 C192 1.419 . S
C190 H194 0.930 . S
C191 C190 1.369 . S
C191 C200 1.429 . S
C192 C190 1.419 . S
C192 C193 1.363 . S
C192 H195 0.929 . S
C193 C192 1.363 . S
C193 C199 1.428 . S
H194 C190 0.930 . S
H195 C192 0.929 . S
S196 N197 1.613 . S
S196 N198 1.610 . S
N197 S196 1.613 . S
N197 C200 1.350 . S
N198 S196 1.610 . S
N198 C199 1.351 . S
C199 C193 1.428 . S
C199 N198 1.351 . S
C199 C200 1.434 . S
C200 C191 1.429 . S
C200 N197 1.350 . S
C200 C199 1.434 . S
C201 C202 1.369 . S
C201 C203 1.419 1_455 S
C201 H205 0.930 1_455 S
C202 C201 1.369 . S
C202 C211 1.429 . S
C203 C201 1.419 1_655 S
C203 C204 1.363 1_655 S
C203 H206 0.929 . S
C204 C203 1.363 1_455 S
C204 C210 1.428 . S
H205 C201 0.930 1_655 S
H206 C203 0.929 . S
S207 N208 1.613 . S
S207 N209 1.610 . S
N208 S207 1.613 . S
N208 C211 1.350 . S
N209 S207 1.610 . S
N209 C210 1.351 . S
C210 C204 1.428 . S
C210 N209 1.351 . S
C210 C211 1.434 . S
C211 C202 1.429 . S
C211 N208 1.350 . S
C211 C210 1.434 . S
C212 C213 1.369 . S
C212 C214 1.419 1_565 S
C212 H216 0.930 1_565 S
C213 C212 1.369 . S
C213 C222 1.429 . S
C214 C212 1.419 1_545 S
C214 C215 1.363 1_545 S
C214 H217 0.929 . S
C215 C214 1.363 1_565 S
C215 C221 1.428 . S
H216 C212 0.930 1_545 S
H217 C214 0.929 . S
S218 N219 1.613 . S
S218 N220 1.610 . S
N219 S218 1.613 . S
N219 C222 1.350 . S
N220 S218 1.610 . S
N220 C221 1.351 . S
C221 C215 1.428 . S
C221 N220 1.351 . S
C221 C222 1.434 . S
C222 C213 1.429 . S
C222 N219 1.350 . S
C222 C221 1.434 . S
C223 C224 1.369 . S
C223 C225 1.419 . S
C223 H227 0.930 . S
C224 C223 1.369 . S
C224 C233 1.429 . S
C225 C223 1.419 . S
C225 C226 1.363 . S
C225 H228 0.929 . S
C226 C225 1.363 . S
C226 C232 1.428 . S
H227 C223 0.930 . S
H228 C225 0.929 . S
S229 N230 1.613 . S
S229 N231 1.610 1_554 S
N230 S229 1.613 . S
N230 C233 1.350 1_554 S
N231 S229 1.610 1_556 S
N231 C232 1.351 . S
C232 C226 1.428 . S
C232 N231 1.351 . S
C232 C233 1.434 . S
C233 C224 1.429 . S
C233 N230 1.350 1_556 S
C233 C232 1.434 . S
C234 C235 1.369 . S
C234 C236 1.419 . S
C234 H238 0.930 . S
C235 C234 1.369 . S
C235 C244 1.429 . S
C236 C234 1.419 . S
C236 C237 1.363 . S
C236 H239 0.929 . S
C237 C236 1.363 . S
C237 C243 1.428 . S
H238 C234 0.930 . S
H239 C236 0.929 . S
S240 N241 1.613 . S
S240 N242 1.610 . S
N241 S240 1.613 . S
N241 C244 1.350 . S
N242 S240 1.610 . S
N242 C243 1.351 . S
C243 C237 1.428 . S
C243 N242 1.351 . S
C243 C244 1.434 . S
C244 C235 1.429 . S
C244 N241 1.350 . S
C244 C243 1.434 . S
C245 C246 1.369 . S
C245 C247 1.419 . S
C245 H249 0.930 . S
C246 C245 1.369 . S
C246 C255 1.429 1_655 S
C247 C245 1.419 . S
C247 C248 1.363 . S
C247 H250 0.929 . S
C248 C247 1.363 . S
C248 C254 1.428 1_655 S
H249 C245 0.930 . S
H250 C247 0.929 . S
S251 N252 1.613 . S
S251 N253 1.610 . S
N252 S251 1.613 . S
N252 C255 1.350 . S
N253 S251 1.610 . S
N253 C254 1.351 . S
C254 C248 1.428 1_455 S
C254 N253 1.351 . S
C254 C255 1.434 . S
C255 C246 1.429 1_455 S
C255 N252 1.350 . S
C255 C254 1.434 . S
C256 C257 1.369 . S
C256 C258 1.419 . S
C256 H260 0.930 . S
C257 C256 1.369 . S
C257 C266 1.429 . S
C258 C256 1.419 . S
C258 C259 1.363 . S
C258 H261 0.929 . S
C259 C258 1.363 . S
C259 C265 1.428 1_455 S
H260 C256 0.930 . S
H261 C258 0.929 . S
S262 N263 1.613 . S
S262 N264 1.610 . S
N263 S262 1.613 . S
N263 C266 1.350 1_655 S
N264 S262 1.610 . S
N264 C265 1.351 . S
C265 C259 1.428 1_655 S
C265 N264 1.351 . S
C265 C266 1.434 1_655 S
C266 C257 1.429 . S
C266 N263 1.350 1_455 S
C266 C265 1.434 1_455 S
C267 C268 1.369 . S
C267 C269 1.419 . S
C267 H271 0.930 . S
C268 C267 1.369 . S
C268 C277 1.429 1_545 S
C269 C267 1.419 . S
C269 C270 1.397 . S
C269 H272 0.929 . S
C270 C269 1.397 . S
C270 C276 1.410 1_545 S
H271 C267 0.930 . S
H272 C269 0.929 . S
S273 N274 1.613 . S
S273 N275 1.610 . S
N274 S273 1.613 . S
N274 C277 1.350 . S
N275 S273 1.610 . S
N275 C276 1.351 . S
C276 C270 1.410 1_565 S
C276 N275 1.351 . S
C276 C277 1.434 . S
C277 C268 1.429 1_565 S
C277 N274 1.350 . S
C277 C276 1.434 . S
C278 C279 1.369 . S
C278 C280 1.419 . S
C278 H282 0.930 . S
C279 C278 1.369 . S
C279 C288 1.429 . S
C280 C278 1.419 . S
C280 C281 1.363 . S
C280 H283 0.929 . S
C281 C280 1.363 . S
C281 C287 1.428 . S
H282 C278 0.930 . S
H283 C280 0.929 . S
S284 N285 1.613 . S
S284 N286 1.610 . S
N285 S284 1.613 . S
N285 C288 1.350 . S
N286 S284 1.610 . S
N286 C287 1.351 . S
C287 C281 1.428 . S
C287 N286 1.351 . S
C287 C288 1.434 . S
C288 C279 1.429 . S
C288 N285 1.350 . S
C288 C287 1.434 . S
C289 C290 1.369 . S
C289 C291 1.419 . S
C289 H293 0.930 . S
C290 C289 1.369 . S
C290 C299 1.429 . S
C291 C289 1.419 . S
C291 C292 1.363 . S
C291 H294 0.929 . S
C292 C291 1.363 . S
C292 C298 1.428 . S
H293 C289 0.930 . S
H294 C291 0.929 . S
S295 N296 1.613 . S
S295 N297 1.610 . S
N296 S295 1.613 . S
N296 C299 1.350 . S
N297 S295 1.610 . S
N297 C298 1.351 . S
C298 C292 1.428 . S
C298 N297 1.351 . S
C298 C299 1.434 . S
C299 C290 1.429 . S
C299 N296 1.350 . S
C299 C298 1.434 . S
C300 C301 1.369 . S
C300 C302 1.419 1_655 S
C300 H304 0.930 1_556 S
C301 C300 1.369 . S
C301 C310 1.429 . S
C302 C300 1.419 1_455 S
C302 C303 1.363 . S
C302 H305 0.929 . S
C303 C302 1.363 . S
C303 C309 1.428 1_455 S
H304 C300 0.930 1_554 S
H305 C302 0.929 . S
S306 N307 1.613 . S
S306 N308 1.610 . S
N307 S306 1.613 . S
N307 C310 1.350 . S
N308 S306 1.610 . S
N308 C309 1.351 . S
C309 C303 1.428 1_655 S
C309 N308 1.351 . S
C309 C310 1.434 . S
C310 C301 1.429 . S
C310 N307 1.350 . S
C310 C309 1.434 . S
C311 C312 1.369 1_545 S
C311 C313 1.419 . S
C311 H315 0.930 . S
C312 C311 1.369 1_565 S
C312 C321 1.429 . S
C313 C311 1.419 . S
C313 C314 1.363 . S
C313 H316 0.929 . S
C314 C313 1.363 . S
C314 C320 1.428 1_545 S
H315 C311 0.930 . S
H316 C313 0.929 . S
S317 N318 1.613 . S
S317 N319 1.610 . S
N318 S317 1.613 . S
N318 C321 1.350 . S
N319 S317 1.610 . S
N319 C320 1.351 . S
C320 C314 1.428 1_565 S
C320 N319 1.351 . S
C320 C321 1.434 . S
C321 C312 1.429 . S
C321 N318 1.350 . S
C321 C320 1.434 . S
C322 C323 1.369 . S
C322 C324 1.419 . S
C322 H326 0.930 . S
C323 C322 1.369 . S
C323 C332 1.429 . S
C324 C322 1.419 . S
C324 C325 1.363 . S
C324 H327 0.929 . S
C325 C324 1.363 . S
C325 C331 1.428 . S
H326 C322 0.930 . S
H327 C324 0.929 . S
S328 N329 1.613 . S
S328 N330 1.619 . S
N329 S328 1.613 . S
N329 C332 1.350 1_554 S
N330 S328 1.619 . S
N330 C331 1.345 1_554 S
C331 C325 1.428 . S
C331 N330 1.345 1_556 S
C331 C332 1.434 . S
C332 C323 1.429 . S
C332 N329 1.350 1_556 S
C332 C331 1.434 . S
C333 C334 1.369 . S
C333 C335 1.419 . S
C333 H337 0.930 . S
C334 C333 1.369 . S
C334 C343 1.429 . S
C335 C333 1.419 . S
C335 C336 1.363 . S
C335 H338 0.929 . S
C336 C335 1.363 . S
C336 C342 1.428 . S
H337 C333 0.930 . S
H338 C335 0.929 . S
S339 N340 1.613 . S
S339 N341 1.610 1_554 S
N340 S339 1.613 . S
N340 C343 1.350 1_554 S
N341 S339 1.610 1_556 S
N341 C342 1.351 . S
C342 C336 1.428 . S
C342 N341 1.351 . S
C342 C343 1.434 . S
C343 C334 1.429 . S
C343 N340 1.350 1_556 S
C343 C342 1.434 . S
C344 C345 1.369 . S
C344 C346 1.419 . S
C344 H348 0.922 1_455 S
C345 C344 1.369 . S
C345 C354 1.429 . S
C346 C344 1.419 . S
C346 C347 1.363 . S
C346 H349 0.929 1_455 S
C347 C346 1.363 . S
C347 C353 1.428 . S
H348 C344 0.922 1_655 S
H349 C346 0.929 1_655 S
S350 N351 1.613 . S
S350 N352 1.610 . S
N351 S350 1.613 . S
N351 C354 1.350 . S
N352 S350 1.610 . S
N352 C353 1.351 . S
C353 C347 1.428 . S
C353 N352 1.351 . S
C353 C354 1.434 . S
C354 C345 1.429 . S
C354 N351 1.350 . S
C354 C353 1.434 . S
C355 C356 1.369 . S
C355 C357 1.419 . S
C355 H359 0.930 . S
C356 C355 1.369 . S
C356 C365 1.429 1_545 S
C357 C355 1.419 . S
C357 C358 1.363 . S
C357 H360 0.929 . S
C358 C357 1.363 . S
C358 C364 1.428 1_545 S
H359 C355 0.930 . S
H360 C357 0.929 . S
S361 N362 1.613 . S
S361 N363 1.610 . S
N362 S361 1.613 . S
N362 C365 1.350 . S
N363 S361 1.610 . S
N363 C364 1.351 . S
C364 C358 1.428 1_565 S
C364 N363 1.351 . S
C364 C365 1.434 . S
C365 C356 1.429 1_565 S
C365 N362 1.350 . S
C365 C364 1.434 . S
C366 C367 1.369 . S
C366 C368 1.419 . S
C366 H370 0.930 . S
C367 C366 1.369 . S
C367 C376 1.429 . S
C368 C366 1.419 . S
C368 C369 1.363 . S
C368 H371 0.929 . S
C369 C368 1.363 . S
C369 C375 1.428 . S
H370 C366 0.930 . S
H371 C368 0.929 . S
S372 N373 1.613 . S
S372 N374 1.610 . S
N373 S372 1.613 . S
N373 C376 1.350 . S
N374 S372 1.610 . S
N374 C375 1.351 . S
C375 C369 1.428 . S
C375 N374 1.351 . S
C375 C376 1.434 . S
C376 C367 1.429 . S
C376 N373 1.350 . S
C376 C375 1.434 . S
C377 C378 1.369 . S
C377 C379 1.419 . S
C377 H381 0.930 . S
C378 C377 1.369 . S
C378 C387 1.429 . S
C379 C377 1.419 . S
C379 C380 1.363 . S
C379 H382 0.929 . S
C380 C379 1.363 . S
C380 C386 1.428 . S
H381 C377 0.930 . S
H382 C379 0.929 . S
S383 N384 1.613 . S
S383 N385 1.610 . S
N384 S383 1.613 . S
N384 C387 1.350 . S
N385 S383 1.610 . S
N385 C386 1.351 . S
C386 C380 1.428 . S
C386 N385 1.351 . S
C386 C387 1.434 . S
C387 C378 1.429 . S
C387 N384 1.350 . S
C387 C386 1.434 . S
C388 C389 1.369 . S
C388 C390 1.419 . S
C388 H392 0.930 . S
C389 C388 1.369 . S
C389 C398 1.429 . S
C390 C388 1.419 . S
C390 C391 1.363 . S
C390 H393 0.929 . S
C391 C390 1.363 . S
C391 C397 1.428 . S
H392 C388 0.930 . S
H393 C390 0.929 . S
S394 N395 1.613 . S
S394 N396 1.610 . S
N395 S394 1.613 . S
N395 C398 1.350 1_455 S
N396 S394 1.610 . S
N396 C397 1.351 1_455 S
C397 C391 1.428 . S
C397 N396 1.351 1_655 S
C397 C398 1.434 . S
C398 C389 1.429 . S
C398 N395 1.350 1_655 S
C398 C397 1.434 . S
C399 C400 1.369 . S
C399 C401 1.419 . S
C399 H403 0.930 . S
C400 C399 1.369 . S
C400 C409 1.429 1_565 S
C401 C399 1.419 . S
C401 C402 1.363 . S
C401 H404 0.929 . S
C402 C401 1.363 . S
C402 C408 1.428 1_565 S
H403 C399 0.930 . S
H404 C401 0.929 . S
S405 N406 1.613 . S
S405 N407 1.610 . S
N406 S405 1.613 . S
N406 C409 1.350 . S
N407 S405 1.610 . S
N407 C408 1.351 . S
C408 C402 1.428 1_545 S
C408 N407 1.351 . S
C408 C409 1.434 . S
C409 C400 1.429 1_545 S
C409 N406 1.350 . S
C409 C408 1.434 . S
C410 C411 1.369 . S
C410 C412 1.419 . S
C410 H414 0.930 . S
C411 C410 1.369 . S
C411 C420 1.429 . S
C412 C410 1.419 . S
C412 C413 1.363 . S
C412 H415 0.929 . S
C413 C412 1.363 . S
C413 C419 1.428 . S
H414 C410 0.930 . S
H415 C412 0.929 . S
S416 N417 1.613 . S
S416 N418 1.610 . S
N417 S416 1.613 . S
N417 C420 1.350 . S
N418 S416 1.610 . S
N418 C419 1.351 . S
C419 C413 1.428 . S
C419 N418 1.351 . S
C419 C420 1.434 . S
C420 C411 1.429 . S
C420 N417 1.350 . S
C420 C419 1.434 . S
C421 C422 1.369 . S
C421 C423 1.419 . S
C421 H425 0.930 . S
C422 C421 1.369 . S
C422 C431 1.429 . S
C423 C421 1.419 . S
C423 C424 1.363 . S
C423 H426 0.929 . S
C424 C423 1.363 . S
C424 C430 1.428 . S
H425 C421 0.930 . S
H426 C423 0.929 . S
S427 N428 1.613 . S
S427 N429 1.610 . S
N428 S427 1.613 . S
N428 C431 1.350 . S
N429 S427 1.610 . S
N429 C430 1.351 . S
C430 C424 1.428 . S
C430 N429 1.351 . S
C430 C431 1.434 . S
C431 C422 1.429 . S
C431 N428 1.350 . S
C431 C430 1.434 . S
C169 C74 1.601 . S
C171 C96 1.646 . S
C182 C126 1.847 . S
C180 C85 1.823 . S
C193 C136 1.577 . S
C191 C52 1.492 . S
C204 C156 1.488 . S
C202 C63 1.435 . S
C215 C97 1.647 1_565 S
C213 C30 1.575 . S
C224 C41 1.746 . S
C226 C127 1.848 . S
C235 C8 1.519 . S
C237 C137 1.575 . S
C246 C19 1.393 . S
C248 C157 1.487 1_655 S
C259 C89 1.107 . S
C257 C62 1.119 . S
C270 C110 0.857 1_545 S
C268 C73 0.888 . S
C281 C129 1.301 . S
C279 C84 1.314 . S
C290 C51 0.988 . S
C292 C149 0.985 . S
C301 C18 1.048 . S
C303 C90 1.106 . S
C314 C109 0.872 . S
C312 C29 0.872 . S
C325 C130 1.299 . S
C323 C40 1.190 . S
C334 C7 0.979 . S
C336 C150 0.980 . S
C345 C60 1.406 . S
C347 C107 1.718 . S
C356 C71 1.269 . S
C358 C117 1.602 . S
C369 C147 1.913 . S
C367 C82 1.616 . S
C380 C167 1.845 . S
C378 C49 1.358 . S
C389 C16 1.295 . S
C391 C106 1.716 . S
C402 C116 1.602 . S
C400 C27 1.177 . S
C413 C146 1.913 . S
C411 C38 1.384 . S
C422 C5 1.579 . S
C424 C166 1.845 . S
