# Generated by pormake.
# Topology pth, (4,4)-cn, num edge types: 1
# Building blocks:
#     Node 0, Type 0, BuildingBlock: AZAVOO_clean_sbu_0, # of connection points: 4
#     Node 1, Type 0, BuildingBlock: AZAVOO_clean_sbu_0, # of connection points: 4
#     Node 2, Type 0, BuildingBlock: AZAVOO_clean_sbu_0, # of connection points: 4
#     Node 3, Type 1, BuildingBlock: KOZSID_clean_sbu_0, # of connection points: 4
#     Node 4, Type 1, BuildingBlock: KOZSID_clean_sbu_0, # of connection points: 4
#     Node 5, Type 1, BuildingBlock: KOZSID_clean_sbu_0, # of connection points: 4
#     Edge 6, Type (0, 1), BuildingBlock: EZIPEK_clean_linker_0, # of connection points: 2
#     Edge 7, Type (0, 1), BuildingBlock: EZIPEK_clean_linker_0, # of connection points: 2
#     Edge 8, Type (0, 1), BuildingBlock: EZIPEK_clean_linker_0, # of connection points: 2
#     Edge 9, Type (0, 1), BuildingBlock: EZIPEK_clean_linker_0, # of connection points: 2
#     Edge 10, Type (0, 1), BuildingBlock: EZIPEK_clean_linker_0, # of connection points: 2
#     Edge 11, Type (0, 1), BuildingBlock: EZIPEK_clean_linker_0, # of connection points: 2
#     Edge 12, Type (0, 1), BuildingBlock: EZIPEK_clean_linker_0, # of connection points: 2
#     Edge 13, Type (0, 1), BuildingBlock: EZIPEK_clean_linker_0, # of connection points: 2
#     Edge 14, Type (0, 1), BuildingBlock: EZIPEK_clean_linker_0, # of connection points: 2
#     Edge 15, Type (0, 1), BuildingBlock: EZIPEK_clean_linker_0, # of connection points: 2
#     Edge 16, Type (0, 1), BuildingBlock: EZIPEK_clean_linker_0, # of connection points: 2
#     Edge 17, Type (0, 1), BuildingBlock: EZIPEK_clean_linker_0, # of connection points: 2
# Relax obj value: 0.067
# Max RMSD: 0.221
# Mean RMSD: 0.106
data_MOF--net-pth--node1-AZAVOO_clean_sbu_0--node2-KOZSID_clean_sbu_0--edge1-EZIPEK_clean_linker_0
_symmetry_space_group_name_H-M    P1
_symmetry_Int_Tables_number       1
_symmetry_cell_setting            triclinic
loop_
_symmetry_equiv_pos_as_xyz
'x, y, z'
_cell_length_a     20.124305
_cell_length_b     20.557345
_cell_length_c     45.04904
_cell_angle_alpha  87.479658
_cell_angle_beta   89.547234
_cell_angle_gamma 122.81499
loop_
_atom_site_label
_atom_site_type_symbol
_atom_site_fract_x
_atom_site_fract_y
_atom_site_fract_z
_atom_type_partial_charge
Mg0 Mg 0.15626 0.09825 0.03898 0.0
O1 O 0.05989 0.01008 0.01041 0.0
O2 O 0.04357 0.06989 0.97143 0.0
Mg3 Mg 0.13418 0.20022 0.975 0.0
C4 C 0.0259 0.00832 0.98655 0.0
C5 C 0.11836 0.94418 0.06827 0.0
O6 O 0.15385 0.94836 0.043 0.0
O7 O 0.08014 0.13887 0.05745 0.0
O8 O 0.07764 0.2081 0.0181 0.0
O9 O 0.24938 0.09763 0.01146 0.0
O10 O 0.21108 0.17909 0.00311 0.0
C11 C 0.06305 0.1854 0.04562 0.0
C12 C 0.2558 0.15529 0.99584 0.0
O13 O 0.11078 0.99962 0.07441 0.0
Mg14 Mg 0.98805 0.04713 0.36716 0.0
O15 O 0.11535 0.08879 0.37684 0.0
O16 O 0.13899 0.16835 0.4133 0.0
Mg17 Mg 0.0479 0.20046 0.41934 0.0
C18 C 0.15823 0.13082 0.3974 0.0
C19 C 0.9928 0.92657 0.3342 0.0
O20 O 0.97993 0.90213 0.36237 0.0
O21 O 0.02057 0.15816 0.33982 0.0
O22 O 0.06492 0.25232 0.3719 0.0
O23 O 0.86352 0.01855 0.37212 0.0
O24 O 0.95977 0.08867 0.40235 0.0
C25 C 0.04746 0.2284 0.34567 0.0
C26 C 0.8887 0.06187 0.39467 0.0
O27 O 0.9965 0.98888 0.32681 0.0
Mg28 Mg 0.06403 0.03832 0.69045 0.0
O29 O 0.14034 0.11775 0.72608 0.0
O30 O 0.06252 0.13617 0.75523 0.0
Mg31 Mg 0.93249 0.04535 0.74426 0.0
C32 C 0.13075 0.15109 0.7473 0.0
C33 C 0.20897 0.05341 0.65672 0.0
O34 O 0.17926 0.98372 0.66926 0.0
O35 O 0.04292 0.12887 0.67045 0.0
O36 O 0.93951 0.10488 0.69894 0.0
O37 O 0.04367 0.93173 0.71621 0.0
O38 O 0.96682 0.97719 0.71968 0.0
C39 C 0.98277 0.1331 0.67508 0.0
C40 C 0.9814 0.92584 0.72779 0.0
O41 O 0.17561 0.08971 0.66135 0.0
C42 C 0.10514 0.67494 0.14683 0.0
C43 C 0.17686 0.72785 0.13207 0.0
C44 C 0.23295 0.7209 0.14589 0.0
C45 C 0.19231 0.66401 0.16802 0.0
N46 N 0.1136 0.63368 0.16895 0.0
Co47 Co 0.03207 0.54687 0.19634 0.0
N48 N 0.11575 0.54584 0.21979 0.0
C49 C 0.19494 0.59567 0.21601 0.0
C50 C 0.23759 0.58314 0.23638 0.0
C51 C 0.18236 0.52129 0.25418 0.0
C52 C 0.10899 0.49915 0.24332 0.0
N53 N 0.95053 0.45604 0.22237 0.0
C54 C 0.95952 0.41301 0.24369 0.0
C55 C 0.88706 0.34938 0.25417 0.0
C56 C 0.83033 0.35225 0.23886 0.0
C57 C 0.87118 0.41678 0.21982 0.0
N58 N 0.94897 0.55264 0.17429 0.0
C59 C 0.86989 0.50776 0.17975 0.0
C60 C 0.82834 0.53059 0.16318 0.0
C61 C 0.88445 0.59494 0.14655 0.0
C62 C 0.95703 0.60707 0.15381 0.0
N63 N 0.02797 0.47207 0.16872 0.0
C64 C 0.02232 0.36664 0.1295 0.0
C65 C 0.95676 0.37155 0.13407 0.0
C66 C 0.96052 0.42373 0.15388 0.0
C67 C 0.09034 0.41419 0.14505 0.0
C68 C 0.0922 0.4666 0.16419 0.0
N69 N 0.03529 0.62116 0.22377 0.0
C70 C 0.96639 0.65723 0.25656 0.0
C71 C 0.03416 0.7311 0.25826 0.0
C72 C 0.10336 0.7488 0.24316 0.0
C73 C 0.1029 0.69288 0.22639 0.0
C74 C 0.96814 0.60355 0.2393 0.0
H75 H 0.15741 0.70928 0.21529 0.0
H76 H 0.91398 0.54859 0.23846 0.0
H77 H 0.90812 0.42407 0.15647 0.0
H78 H 0.14673 0.5026 0.17473 0.0
C79 C 0.2273 0.6467 0.19096 0.0
C80 C 0.03226 0.67135 0.14097 0.0
C81 C 0.03524 0.43008 0.25464 0.0
C82 C 0.83689 0.44418 0.20032 0.0
H83 H 0.18788 0.76943 0.11401 0.0
H84 H 0.29626 0.75598 0.14137 0.0
H85 H 0.30129 0.61336 0.23744 0.0
H86 H 0.19483 0.49388 0.27242 0.0
H87 H 0.87631 0.30532 0.27107 0.0
H88 H 0.76688 0.31207 0.24133 0.0
H89 H 0.76493 0.50417 0.16342 0.0
H90 H 0.8734 0.62931 0.13096 0.0
H91 H 0.9033 0.33603 0.1221 0.0
H92 H 0.14274 0.41244 0.14173 0.0
H93 H 0.91186 0.64141 0.26822 0.0
H94 H 0.15724 0.80555 0.24422 0.0
C95 C 0.47068 0.07219 0.57576 0.0
C96 C 0.41479 0.002 0.59048 0.0
C97 C 0.41875 0.94602 0.57711 0.0
C98 C 0.47638 0.98503 0.55513 0.0
N99 N 0.51062 0.06282 0.55387 0.0
Co100 Co 0.59505 0.14149 0.52474 0.0
N101 N 0.59722 0.05818 0.50415 0.0
C102 C 0.55485 0.98117 0.51167 0.0
C103 C 0.56709 0.9382 0.49267 0.0
C104 C 0.621 0.99084 0.47183 0.0
C105 C 0.63875 0.06323 0.47951 0.0
N106 N 0.67748 0.21964 0.49491 0.0
C107 C 0.71286 0.20925 0.47153 0.0
C108 C 0.76657 0.27882 0.45609 0.0
C109 C 0.76492 0.33542 0.47022 0.0
C110 C 0.71054 0.29724 0.49338 0.0
N111 N 0.59359 0.22454 0.54597 0.0
C112 C 0.64075 0.30207 0.54006 0.0
C113 C 0.62454 0.34406 0.5582 0.0
C114 C 0.56307 0.29013 0.57665 0.0
C115 C 0.54535 0.21822 0.56863 0.0
N116 N 0.67893 0.15302 0.5512 0.0
C117 C 0.79693 0.16991 0.58912 0.0
C118 C 0.80687 0.23368 0.57272 0.0
C119 C 0.74727 0.22408 0.55418 0.0
C120 C 0.728 0.09746 0.58606 0.0
C121 C 0.67037 0.09026 0.567 0.0
N122 N 0.51241 0.13095 0.49815 0.0
C123 C 0.45693 0.19004 0.46878 0.0
C124 C 0.39866 0.11816 0.45913 0.0
C125 C 0.3983 0.05264 0.46887 0.0
C126 C 0.45464 0.06013 0.48871 0.0
C127 C 0.5132 0.19519 0.48797 0.0
H128 H 0.44985 0.00788 0.49632 0.0
H129 H 0.55635 0.25176 0.49442 0.0
H130 H 0.75833 0.27516 0.54248 0.0
H131 H 0.61971 0.03332 0.56536 0.0
C132 C 0.4993 0.95013 0.53528 0.0
C133 C 0.4803 0.14537 0.58237 0.0
C134 C 0.69937 0.13511 0.46377 0.0
C135 C 0.69277 0.33278 0.51511 0.0
H136 H 0.37424 0.99203 0.60864 0.0
H137 H 0.38306 0.88416 0.58249 0.0
H138 H 0.5392 0.87592 0.49359 0.0
H139 H 0.6451 0.97757 0.45319 0.0
H140 H 0.8035 0.28761 0.43679 0.0
H141 H 0.80016 0.39716 0.46458 0.0
H142 H 0.65206 0.40627 0.55735 0.0
H143 H 0.53341 0.30205 0.59367 0.0
H144 H 0.86029 0.29058 0.57425 0.0
H145 H 0.71901 0.04642 0.5982 0.0
H146 H 0.45836 0.24194 0.46181 0.0
H147 H 0.35302 0.99576 0.46202 0.0
C148 C 0.74855 0.60976 0.81263 0.0
C149 C 0.8064 0.60299 0.79886 0.0
C150 C 0.80905 0.54646 0.81482 0.0
C151 C 0.75295 0.52185 0.83734 0.0
N152 N 0.71347 0.5579 0.83632 0.0
Co153 Co 0.63063 0.54191 0.8659 0.0
N154 N 0.62288 0.44864 0.88484 0.0
C155 C 0.67567 0.42818 0.88168 0.0
C156 C 0.65465 0.36093 0.89766 0.0
C157 C 0.58402 0.33729 0.91177 0.0
C158 C 0.56612 0.39179 0.90349 0.0
N159 N 0.54589 0.52379 0.89473 0.0
C160 C 0.49375 0.45881 0.91153 0.0
C161 C 0.44244 0.46979 0.92804 0.0
C162 C 0.46364 0.54451 0.9214 0.0
C163 C 0.52635 0.57477 0.90125 0.0
N164 N 0.64038 0.63718 0.84768 0.0
C165 C 0.60989 0.67541 0.85928 0.0
C166 C 0.62681 0.73985 0.84218 0.0
C167 C 0.67254 0.74388 0.81867 0.0
C168 C 0.6815 0.68178 0.82294 0.0
N169 N 0.54767 0.47721 0.83839 0.0
C170 C 0.41586 0.3744 0.80626 0.0
C171 C 0.42427 0.44153 0.81636 0.0
C172 C 0.49003 0.49168 0.8325 0.0
C173 C 0.47624 0.36108 0.8113 0.0
C174 C 0.5422 0.41376 0.82714 0.0
N175 N 0.71225 0.60711 0.89397 0.0
C176 C 0.74391 0.65393 0.94334 0.0
C177 C 0.81298 0.72134 0.93198 0.0
C178 C 0.83484 0.72687 0.90213 0.0
C179 C 0.78412 0.66899 0.88364 0.0
C180 C 0.69499 0.59674 0.92396 0.0
H181 H 0.80254 0.67696 0.8608 0.0
H182 H 0.64162 0.54601 0.93315 0.0
H183 H 0.49224 0.54067 0.84109 0.0
H184 H 0.58745 0.40184 0.83104 0.0
C185 C 0.73516 0.4646 0.85948 0.0
C186 C 0.73966 0.67513 0.80591 0.0
C187 C 0.4958 0.38859 0.91433 0.0
C188 C 0.55943 0.64507 0.8846 0.0
H189 H 0.8457 0.63812 0.7802 0.0
H190 H 0.8485 0.52694 0.81089 0.0
H191 H 0.6849 0.33057 0.89785 0.0
H192 H 0.5492 0.28544 0.92618 0.0
H193 H 0.39512 0.42836 0.94343 0.0
H194 H 0.43483 0.57239 0.92947 0.0
H195 H 0.60809 0.77916 0.84628 0.0
H196 H 0.69961 0.78946 0.80116 0.0
H197 H 0.37878 0.45368 0.81271 0.0
H198 H 0.4718 0.30986 0.80346 0.0
H199 H 0.72661 0.64689 0.96668 0.0
H200 H 0.88926 0.77739 0.89285 0.0
C201 C 0.98344 0.19168 0.08776 0.0
C202 C 0.0454 0.22997 0.06565 0.0
C203 C 0.07638 0.3555 0.0815 0.0
C204 C 0.02359 0.318 0.10639 0.0
N205 N 0.93211 0.19996 0.1354 0.0
N206 N 0.1654 0.34976 0.04754 0.0
C207 C 0.97793 0.23576 0.11009 0.0
C208 C 0.09563 0.31235 0.06395 0.0
N209 N 0.92938 0.11378 0.0871 0.0
N210 N 0.10826 0.43252 0.07454 0.0
H211 H 0.18701 0.32122 0.03638 0.0
H212 H 0.20689 0.40915 0.04811 0.0
H213 H 0.09441 0.46604 0.08666 0.0
H214 H 0.14148 0.46062 0.05495 0.0
H215 H 0.87872 0.0839 0.10098 0.0
H216 H 0.93153 0.08037 0.0708 0.0
H217 H 0.90417 0.14077 0.14072 0.0
H218 H 0.92697 0.23035 0.15225 0.0
C219 C 0.79731 0.11068 0.39638 0.0
C220 C 0.83998 0.08286 0.4113 0.0
C221 C 0.81043 0.11635 0.45884 0.0
C222 C 0.75778 0.13189 0.44465 0.0
N223 N 0.69417 0.13747 0.40044 0.0
N224 N 0.87064 0.04229 0.4577 0.0
C225 C 0.74936 0.12757 0.41349 0.0
C226 C 0.84254 0.08152 0.44282 0.0
N227 N 0.805 0.12422 0.36619 0.0
N228 N 0.82811 0.13316 0.48785 0.0
H229 H 0.88879 0.01011 0.44707 0.0
H230 H 0.8669 0.03381 0.48078 0.0
H231 H 0.80477 0.15838 0.50031 0.0
H232 H 0.87188 0.12941 0.49842 0.0
H233 H 0.78111 0.15152 0.35469 0.0
H234 H 0.84215 0.11604 0.35288 0.0
H235 H 0.67886 0.12601 0.37838 0.0
H236 H 0.66027 0.15275 0.41227 0.0
C237 C 0.93113 0.86326 0.77861 0.0
C238 C 0.92363 0.85884 0.74753 0.0
C239 C 0.7958 0.73448 0.75442 0.0
C240 C 0.80045 0.74168 0.78565 0.0
N241 N 0.86513 0.82168 0.82709 0.0
N242 N 0.84682 0.79586 0.70511 0.0
C243 C 0.86611 0.80847 0.79769 0.0
C244 C 0.85541 0.79587 0.73521 0.0
N245 N 0.00085 0.91969 0.78987 0.0
N246 N 0.73483 0.66837 0.7432 0.0
H247 H 0.89092 0.83766 0.69023 0.0
H248 H 0.79464 0.75707 0.69489 0.0
H249 H 0.68763 0.62431 0.75642 0.0
H250 H 0.73286 0.65499 0.72108 0.0
H251 H 0.01352 0.92125 0.81229 0.0
H252 H 0.04913 0.96125 0.77637 0.0
H253 H 0.90752 0.87281 0.83645 0.0
H254 H 0.81748 0.78579 0.84165 0.0
C255 C 0.10206 0.87847 0.11893 0.0
C256 C 0.08424 0.87333 0.08833 0.0
C257 C 0.02164 0.73243 0.093 0.0
C258 C 0.03759 0.7376 0.12365 0.0
N259 N 0.07209 0.81074 0.16745 0.0
N260 N 0.00576 0.79354 0.04886 0.0
C261 C 0.07045 0.80919 0.13717 0.0
C262 C 0.03728 0.79959 0.07615 0.0
N263 N 0.15352 0.94874 0.1302 0.0
N264 N 0.99467 0.66436 0.07972 0.0
H265 H 0.01285 0.84115 0.03649 0.0
H266 H 0.96562 0.74063 0.04001 0.0
H267 H 0.98115 0.61353 0.0915 0.0
H268 H 0.99086 0.65976 0.05677 0.0
H269 H 0.17494 0.95466 0.15155 0.0
H270 H 0.1809 1.00102 0.11751 0.0
H271 H 0.08893 0.86024 0.17878 0.0
H272 H 0.04874 0.76047 0.18126 0.0
C273 C 0.29493 0.15494 0.39676 0.0
C274 C 0.21749 0.11708 0.40955 0.0
C275 C 0.25718 0.07534 0.45375 0.0
C276 C 0.33466 0.11163 0.44089 0.0
N277 N 0.42365 0.17095 0.39789 0.0
N278 N 0.11891 0.02204 0.44536 0.0
C279 C 0.35242 0.14671 0.41157 0.0
C280 C 0.19673 0.07077 0.43644 0.0
N281 N 0.31388 0.20051 0.37115 0.0
N282 N 0.24212 0.04971 0.48306 0.0
H283 H 0.07258 0.01673 0.4331 0.0
H284 H 0.10006 0.98125 0.46322 0.0
H285 H 0.28487 0.05334 0.49704 0.0
H286 H 0.18883 0.03131 0.49432 0.0
H287 H 0.37144 0.23654 0.36236 0.0
H288 H 0.27196 0.20529 0.35949 0.0
H289 H 0.43768 0.19095 0.37567 0.0
H290 H 0.46641 0.16475 0.40811 0.0
C291 C 0.26798 0.27174 0.74573 0.0
C292 C 0.20225 0.21002 0.76273 0.0
C293 C 0.27373 0.26189 0.80845 0.0
C294 C 0.34253 0.31746 0.79119 0.0
N295 N 0.40863 0.37023 0.74319 0.0
N296 N 0.14848 0.13821 0.80999 0.0
C297 C 0.34074 0.32065 0.75973 0.0
C298 C 0.20652 0.20298 0.79406 0.0
N299 N 0.25971 0.28616 0.71651 0.0
N300 N 0.27186 0.26623 0.8386 0.0
H301 H 0.09912 0.0927 0.80035 0.0
H302 H 0.15298 0.12614 0.83232 0.0
H303 H 0.31977 0.30846 0.84997 0.0
H304 H 0.22064 0.23244 0.85197 0.0
H305 H 0.30294 0.33477 0.70377 0.0
H306 H 0.20653 0.25398 0.70573 0.0
H307 H 0.41313 0.36884 0.72021 0.0
H308 H 0.4623 0.40908 0.75265 0.0
C309 C 0.92737 0.2093 0.65558 0.0
C310 C 0.95265 0.15838 0.65015 0.0
C311 C 0.89895 0.14026 0.60043 0.0
C312 C 0.85957 0.17697 0.60846 0.0
N313 N 0.83242 0.24398 0.64449 0.0
N314 N 0.94997 0.06434 0.61832 0.0
C315 C 0.87355 0.212 0.6361 0.0
C316 C 0.93661 0.12187 0.62259 0.0
N317 N 0.95499 0.25495 0.67932 0.0
N318 N 0.89924 0.12186 0.57167 0.0
H319 H 0.97228 0.0437 0.63425 0.0
H320 H 0.93079 0.03081 0.59982 0.0
H321 H 0.872 0.13481 0.5549 0.0
H322 H 0.9334 0.10155 0.56399 0.0
H323 H 0.94404 0.29804 0.68302 0.0
H324 H 0.99559 0.2549 0.69359 0.0
H325 H 0.83368 0.26242 0.66576 0.0
H326 H 0.79245 0.24706 0.63087 0.0
C327 C 0.99183 0.87935 0.96945 0.0
C328 C 0.96817 0.9317 0.975 0.0
C329 C 0.83892 0.84246 0.95438 0.0
C330 C 0.86139 0.7887 0.95032 0.0
N331 N 0.95082 0.74752 0.96019 0.0
N332 N 0.86373 0.95564 0.9791 0.0
C333 C 0.93516 0.80443 0.96 0.0
C334 C 0.88997 0.91103 0.96936 0.0
N335 N 0.06947 0.90272 0.97135 0.0
N336 N 0.77036 0.82958 0.94287 0.0
H337 H 0.89915 0.00563 0.99054 0.0
H338 H 0.80495 0.9393 0.97833 0.0
H339 H 0.73043 0.77933 0.93233 0.0
H340 H 0.75565 0.871 0.94196 0.0
H341 H 0.09129 0.86974 0.96456 0.0
H342 H 0.11397 0.95813 0.97694 0.0
H343 H 0.00024 0.75284 0.9699 0.0
H344 H 0.91037 0.69209 0.95323 0.0
C345 C 0.9671 0.85916 0.28612 0.0
C346 C 0.01053 0.88547 0.31237 0.0
C347 C 0.07181 0.81255 0.30273 0.0
C348 C 0.0314 0.78926 0.27577 0.0
N349 N 0.95648 0.80595 0.23813 0.0
N350 N 0.12137 0.90629 0.34059 0.0
C351 C 0.98414 0.81769 0.26627 0.0
C352 C 0.06822 0.868 0.31913 0.0
N353 N 0.90666 0.86971 0.28089 0.0
N354 N 0.11063 0.77926 0.31346 0.0
H355 H 0.12291 0.94987 0.35221 0.0
H356 H 0.16927 0.90104 0.3445 0.0
H357 H 0.11409 0.73769 0.30235 0.0
H358 H 0.13343 0.78788 0.33463 0.0
H359 H 0.8675 0.84413 0.26382 0.0
H360 H 0.8911 0.89846 0.29507 0.0
H361 H 0.92854 0.832 0.22892 0.0
H362 H 0.96822 0.77618 0.22296 0.0
C363 C 0.2797 0.10369 0.60689 0.0
C364 C 0.28249 0.09056 0.63796 0.0
C365 C 0.42399 0.14044 0.63272 0.0
C366 C 0.41802 0.1427 0.60145 0.0
N367 N 0.34411 0.13025 0.558 0.0
N368 N 0.35624 0.10035 0.68131 0.0
C369 C 0.34734 0.12697 0.58833 0.0
C370 C 0.3547 0.11085 0.65117 0.0
N371 N 0.21205 0.09268 0.59515 0.0
N372 N 0.49608 0.16615 0.64447 0.0
H373 H 0.30796 0.0837 0.69564 0.0
H374 H 0.40412 0.10577 0.69228 0.0
H375 H 0.54735 0.18753 0.63124 0.0
H376 H 0.50691 0.17168 0.66704 0.0
H377 H 0.20843 0.10904 0.57334 0.0
H378 H 0.15964 0.07087 0.60764 0.0
H379 H 0.2924 0.11072 0.54662 0.0
H380 H 0.39364 0.15042 0.54389 0.0
C381 C 0.39529 0.2628 0.98552 0.0
C382 C 0.3225 0.20363 0.9744 0.0
C383 C 0.37125 0.25648 0.92349 0.0
C384 C 0.43818 0.32224 0.93499 0.0
N385 N 0.51578 0.38946 0.97673 0.0
N386 N 0.23849 0.14348 0.93337 0.0
C387 C 0.45118 0.32543 0.96596 0.0
C388 C 0.30989 0.19984 0.94348 0.0
N389 N 0.4108 0.25901 0.01484 0.0
N390 N 0.36738 0.24751 0.89357 0.0
H391 H 0.19402 0.09902 0.9474 0.0
H392 H 0.22203 0.14293 0.91147 0.0
H393 H 0.41153 0.28815 0.87842 0.0
H394 H 0.32413 0.1971 0.88403 0.0
H395 H 0.46575 0.29574 0.02376 0.0
H396 H 0.3706 0.2148 0.03 0.0
H397 H 0.52345 0.40027 -0.0008 0.0
H398 H 0.56034 0.43453 0.96304 0.0
C399 C 0.00821 0.32088 0.32872 0.0
C400 C 0.04615 0.28101 0.32231 0.0
C401 C 0.06643 0.33043 0.27031 0.0
C402 C 0.03781 0.37751 0.27786 0.0
N403 N 0.99743 0.43004 0.31564 0.0
N404 N 0.12443 0.25965 0.28804 0.0
C405 C 0.01385 0.37675 0.30753 0.0
C406 C 0.07883 0.28889 0.29332 0.0
N407 N 0.96244 0.3023 0.35416 0.0
N408 N 0.08054 0.3245 0.24114 0.0
H409 H 0.13726 0.23141 0.3046 0.0
H410 H 0.15594 0.2702 0.26805 0.0
H411 H 0.07209 0.35417 0.22373 0.0
H412 H 0.0939 0.28511 0.23412 0.0
H413 H 0.92727 0.32422 0.35811 0.0
H414 H 0.95178 0.2585 0.36977 0.0
H415 H 0.98785 0.43706 0.33772 0.0
H416 H 0.00051 0.4719 0.30069 0.0
loop_
_geom_bond_atom_site_label_1
_geom_bond_atom_site_label_2
_geom_bond_distance
_geom_bond_site_symmetry_2
_ccdc_geom_bond_type
Mg0 O1 2.028 . S
Mg0 O7 1.986 . S
Mg0 O9 2.114 . S
Mg0 O10 2.251 . S
Mg0 O13 2.010 . S
O1 Mg0 2.028 . S
O1 C4 1.250 1_554 S
O2 Mg3 2.028 . S
O2 C4 1.248 . S
Mg3 O2 2.028 . S
Mg3 O8 2.032 1_556 S
Mg3 O10 2.079 1_556 S
C4 O1 1.250 1_556 S
C4 O2 1.248 . S
C5 O6 1.264 . S
C5 O13 1.249 1_565 S
O6 C5 1.264 . S
O7 Mg0 1.986 . S
O7 C11 1.246 . S
O8 Mg3 2.032 1_554 S
O8 C11 1.259 . S
O9 Mg0 2.114 . S
O9 C12 1.252 1_554 S
O10 Mg0 2.251 . S
O10 Mg3 2.079 1_554 S
O10 C12 1.273 1_554 S
C11 O7 1.246 . S
C11 O8 1.259 . S
C12 O9 1.252 1_556 S
C12 O10 1.273 1_556 S
O13 Mg0 2.010 . S
O13 C5 1.249 1_545 S
Mg14 O15 2.028 1_655 S
Mg14 O21 1.986 1_655 S
Mg14 O23 2.114 . S
Mg14 O24 2.251 . S
Mg14 O27 2.010 1_545 S
O15 Mg14 2.028 1_455 S
O15 C18 1.250 . S
O16 Mg17 2.028 . S
O16 C18 1.248 . S
Mg17 O16 2.028 . S
Mg17 O22 2.032 . S
Mg17 O24 2.079 1_455 S
C18 O15 1.250 . S
C18 O16 1.248 . S
C19 O20 1.264 . S
C19 O27 1.249 . S
O20 C19 1.264 . S
O21 Mg14 1.986 1_455 S
O21 C25 1.246 . S
O22 Mg17 2.032 . S
O22 C25 1.259 . S
O23 Mg14 2.114 . S
O23 C26 1.252 . S
O24 Mg14 2.251 . S
O24 Mg17 2.079 1_655 S
O24 C26 1.273 . S
C25 O21 1.246 . S
C25 O22 1.259 . S
C26 O23 1.252 . S
C26 O24 1.273 . S
O27 Mg14 2.010 1_565 S
O27 C19 1.249 . S
Mg28 O29 2.028 . S
Mg28 O35 1.986 . S
Mg28 O37 2.114 1_545 S
Mg28 O38 2.251 1_445 S
Mg28 O41 2.010 . S
O29 Mg28 2.028 . S
O29 C32 1.250 . S
O30 Mg31 2.028 1_455 S
O30 C32 1.248 . S
Mg31 O30 2.028 1_655 S
Mg31 O36 2.032 . S
Mg31 O38 2.079 1_545 S
C32 O29 1.250 . S
C32 O30 1.248 . S
C33 O34 1.264 . S
C33 O41 1.249 1_565 S
O34 C33 1.264 . S
O35 Mg28 1.986 . S
O35 C39 1.246 1_455 S
O36 Mg31 2.032 . S
O36 C39 1.259 . S
O37 Mg28 2.114 1_565 S
O37 C40 1.252 1_455 S
O38 Mg28 2.251 1_665 S
O38 Mg31 2.079 1_565 S
O38 C40 1.273 . S
C39 O35 1.246 1_655 S
C39 O36 1.259 . S
C40 O37 1.252 1_655 S
C40 O38 1.273 . S
O41 Mg28 2.010 . S
O41 C33 1.249 1_545 S
C42 C43 1.443 . S
C42 N46 1.376 . S
C42 C80 1.389 . S
C43 C42 1.443 . S
C43 C44 1.340 . S
C43 H83 0.951 . S
C44 C43 1.340 . S
C44 C45 1.439 . S
C44 H84 0.950 . S
C45 C44 1.439 . S
C45 N46 1.374 . S
C45 C79 1.395 . S
N46 C42 1.376 . S
N46 C45 1.374 . S
N46 Co47 2.008 . S
Co47 N46 2.008 . S
Co47 N48 1.995 . S
Co47 N53 2.008 1_455 S
Co47 N58 1.995 1_455 S
Co47 N63 2.282 . S
Co47 N69 2.282 . S
N48 Co47 1.995 . S
N48 C49 1.376 . S
N48 C52 1.383 . S
C49 N48 1.376 . S
C49 C50 1.446 . S
C49 C79 1.391 . S
C50 C49 1.446 . S
C50 C51 1.339 . S
C50 H85 0.949 . S
C51 C50 1.339 . S
C51 C52 1.439 . S
C51 H86 0.950 . S
C52 N48 1.383 . S
C52 C51 1.439 . S
C52 C81 1.392 . S
N53 Co47 2.008 1_655 S
N53 C54 1.376 . S
N53 C57 1.374 . S
C54 N53 1.376 . S
C54 C55 1.443 . S
C54 C81 1.389 1_655 S
C55 C54 1.443 . S
C55 C56 1.340 . S
C55 H87 0.951 . S
C56 C55 1.340 . S
C56 C57 1.439 . S
C56 H88 0.950 . S
C57 N53 1.374 . S
C57 C56 1.439 . S
C57 C82 1.395 . S
N58 Co47 1.995 1_655 S
N58 C59 1.376 . S
N58 C62 1.383 . S
C59 N58 1.376 . S
C59 C60 1.446 . S
C59 C82 1.391 . S
C60 C59 1.446 . S
C60 C61 1.339 . S
C60 H89 0.949 . S
C61 C60 1.339 . S
C61 C62 1.439 . S
C61 H90 0.950 . S
C62 N58 1.383 . S
C62 C61 1.439 . S
C62 C80 1.392 1_655 S
N63 Co47 2.282 . S
N63 C66 1.332 . S
N63 C68 1.332 . S
C64 C65 1.386 . S
C64 C67 1.388 . S
C65 C64 1.386 . S
C65 C66 1.382 . S
C65 H91 0.950 1_455 S
C66 N63 1.332 . S
C66 C65 1.382 . S
C66 H77 0.952 1_455 S
C67 C64 1.388 . S
C67 C68 1.382 . S
C67 H92 0.950 . S
C68 N63 1.332 . S
C68 C67 1.382 . S
C68 H78 0.948 . S
N69 Co47 2.282 . S
N69 C73 1.332 . S
N69 C74 1.332 1_455 S
C70 C71 1.388 1_655 S
C70 C74 1.382 . S
C70 H93 0.950 . S
C71 C70 1.388 1_455 S
C71 C72 1.386 . S
C72 C71 1.386 . S
C72 C73 1.382 . S
C72 H94 0.950 . S
C73 N69 1.332 . S
C73 C72 1.382 . S
C73 H75 0.952 . S
C74 N69 1.332 1_655 S
C74 C70 1.382 . S
C74 H76 0.948 . S
H75 C73 0.952 . S
H76 C74 0.948 . S
H77 C66 0.952 1_655 S
H78 C68 0.948 . S
C79 C45 1.395 . S
C79 C49 1.391 . S
C80 C42 1.389 . S
C80 C62 1.392 1_455 S
C81 C52 1.392 . S
C81 C54 1.389 1_455 S
C82 C57 1.395 . S
C82 C59 1.391 . S
H83 C43 0.951 . S
H84 C44 0.950 . S
H85 C50 0.949 . S
H86 C51 0.950 . S
H87 C55 0.951 . S
H88 C56 0.950 . S
H89 C60 0.949 . S
H90 C61 0.950 . S
H91 C65 0.950 1_655 S
H92 C67 0.950 . S
H93 C70 0.950 . S
H94 C72 0.950 . S
C95 C96 1.443 1_545 S
C95 N99 1.376 . S
C95 C133 1.389 . S
C96 C95 1.443 1_565 S
C96 C97 1.340 . S
C96 H136 0.951 . S
C97 C96 1.340 . S
C97 C98 1.439 . S
C97 H137 0.950 . S
C98 C97 1.439 . S
C98 N99 1.374 1_565 S
C98 C132 1.395 . S
N99 C95 1.376 . S
N99 C98 1.374 1_545 S
N99 Co100 2.008 . S
Co100 N99 2.008 . S
Co100 N101 1.995 . S
Co100 N106 2.008 . S
Co100 N111 1.995 . S
Co100 N116 2.282 . S
Co100 N122 2.282 . S
N101 Co100 1.995 . S
N101 C102 1.376 1_545 S
N101 C105 1.383 . S
C102 N101 1.376 1_565 S
C102 C103 1.446 . S
C102 C132 1.391 . S
C103 C102 1.446 . S
C103 C104 1.339 . S
C103 H138 0.949 . S
C104 C103 1.339 . S
C104 C105 1.439 1_565 S
C104 H139 0.950 . S
C105 N101 1.383 . S
C105 C104 1.439 1_545 S
C105 C134 1.392 . S
N106 Co100 2.008 . S
N106 C107 1.376 . S
N106 C110 1.374 . S
C107 N106 1.376 . S
C107 C108 1.443 . S
C107 C134 1.389 . S
C108 C107 1.443 . S
C108 C109 1.340 . S
C108 H140 0.951 . S
C109 C108 1.340 . S
C109 C110 1.439 . S
C109 H141 0.950 . S
C110 N106 1.374 . S
C110 C109 1.439 . S
C110 C135 1.395 . S
N111 Co100 1.995 . S
N111 C112 1.376 . S
N111 C115 1.383 . S
C112 N111 1.376 . S
C112 C113 1.446 . S
C112 C135 1.391 . S
C113 C112 1.446 . S
C113 C114 1.339 . S
C113 H142 0.949 . S
C114 C113 1.339 . S
C114 C115 1.439 . S
C114 H143 0.950 . S
C115 N111 1.383 . S
C115 C114 1.439 . S
C115 C133 1.392 . S
N116 Co100 2.282 . S
N116 C119 1.332 . S
N116 C121 1.332 . S
C117 C118 1.386 . S
C117 C120 1.388 . S
C118 C117 1.386 . S
C118 C119 1.382 . S
C118 H144 0.950 . S
C119 N116 1.332 . S
C119 C118 1.382 . S
C119 H130 0.952 . S
C120 C117 1.388 . S
C120 C121 1.382 . S
C120 H145 0.950 . S
C121 N116 1.332 . S
C121 C120 1.382 . S
C121 H131 0.948 . S
N122 Co100 2.282 . S
N122 C126 1.332 . S
N122 C127 1.332 . S
C123 C124 1.388 . S
C123 C127 1.382 . S
C123 H146 0.950 . S
C124 C123 1.388 . S
C124 C125 1.386 . S
C125 C124 1.386 . S
C125 C126 1.382 . S
C125 H147 0.950 . S
C126 N122 1.332 . S
C126 C125 1.382 . S
C126 H128 0.952 . S
C127 N122 1.332 . S
C127 C123 1.382 . S
C127 H129 0.948 . S
H128 C126 0.952 . S
H129 C127 0.948 . S
H130 C119 0.952 . S
H131 C121 0.948 . S
C132 C98 1.395 . S
C132 C102 1.391 . S
C133 C95 1.389 . S
C133 C115 1.392 . S
C134 C105 1.392 . S
C134 C107 1.389 . S
C135 C110 1.395 . S
C135 C112 1.391 . S
H136 C96 0.951 . S
H137 C97 0.950 . S
H138 C103 0.949 . S
H139 C104 0.950 . S
H140 C108 0.951 . S
H141 C109 0.950 . S
H142 C113 0.949 . S
H143 C114 0.950 . S
H144 C118 0.950 . S
H145 C120 0.950 . S
H146 C123 0.950 . S
H147 C125 0.950 . S
C148 C149 1.443 . S
C148 N152 1.376 . S
C148 C186 1.389 . S
C149 C148 1.443 . S
C149 C150 1.340 . S
C149 H189 0.951 . S
C150 C149 1.340 . S
C150 C151 1.439 . S
C150 H190 0.950 . S
C151 C150 1.439 . S
C151 N152 1.374 . S
C151 C185 1.395 . S
N152 C148 1.376 . S
N152 C151 1.374 . S
N152 Co153 2.008 . S
Co153 N152 2.008 . S
Co153 N154 1.995 . S
Co153 N159 2.008 . S
Co153 N164 1.995 . S
Co153 N169 2.282 . S
Co153 N175 2.282 . S
N154 Co153 1.995 . S
N154 C155 1.376 . S
N154 C158 1.383 . S
C155 N154 1.376 . S
C155 C156 1.446 . S
C155 C185 1.391 . S
C156 C155 1.446 . S
C156 C157 1.339 . S
C156 H191 0.949 . S
C157 C156 1.339 . S
C157 C158 1.439 . S
C157 H192 0.950 . S
C158 N154 1.383 . S
C158 C157 1.439 . S
C158 C187 1.392 . S
N159 Co153 2.008 . S
N159 C160 1.376 . S
N159 C163 1.374 . S
C160 N159 1.376 . S
C160 C161 1.443 . S
C160 C187 1.389 . S
C161 C160 1.443 . S
C161 C162 1.340 . S
C161 H193 0.951 . S
C162 C161 1.340 . S
C162 C163 1.439 . S
C162 H194 0.950 . S
C163 N159 1.374 . S
C163 C162 1.439 . S
C163 C188 1.395 . S
N164 Co153 1.995 . S
N164 C165 1.376 . S
N164 C168 1.383 . S
C165 N164 1.376 . S
C165 C166 1.446 . S
C165 C188 1.391 . S
C166 C165 1.446 . S
C166 C167 1.339 . S
C166 H195 0.949 . S
C167 C166 1.339 . S
C167 C168 1.439 . S
C167 H196 0.950 . S
C168 N164 1.383 . S
C168 C167 1.439 . S
C168 C186 1.392 . S
N169 Co153 2.282 . S
N169 C172 1.332 . S
N169 C174 1.332 . S
C170 C171 1.386 . S
C170 C173 1.388 . S
C171 C170 1.386 . S
C171 C172 1.382 . S
C171 H197 0.950 . S
C172 N169 1.332 . S
C172 C171 1.382 . S
C172 H183 0.952 . S
C173 C170 1.388 . S
C173 C174 1.382 . S
C173 H198 0.950 . S
C174 N169 1.332 . S
C174 C173 1.382 . S
C174 H184 0.948 . S
N175 Co153 2.282 . S
N175 C179 1.332 . S
N175 C180 1.332 . S
C176 C177 1.388 . S
C176 C180 1.382 . S
C176 H199 0.950 . S
C177 C176 1.388 . S
C177 C178 1.386 . S
C178 C177 1.386 . S
C178 C179 1.382 . S
C178 H200 0.950 . S
C179 N175 1.332 . S
C179 C178 1.382 . S
C179 H181 0.952 . S
C180 N175 1.332 . S
C180 C176 1.382 . S
C180 H182 0.948 . S
H181 C179 0.952 . S
H182 C180 0.948 . S
H183 C172 0.952 . S
H184 C174 0.948 . S
C185 C151 1.395 . S
C185 C155 1.391 . S
C186 C148 1.389 . S
C186 C168 1.392 . S
C187 C158 1.392 . S
C187 C160 1.389 . S
C188 C163 1.395 . S
C188 C165 1.391 . S
H189 C149 0.951 . S
H190 C150 0.950 . S
H191 C156 0.949 . S
H192 C157 0.950 . S
H193 C161 0.951 . S
H194 C162 0.950 . S
H195 C166 0.949 . S
H196 C167 0.950 . S
H197 C171 0.950 . S
H198 C173 0.950 . S
H199 C176 0.950 . S
H200 C178 0.950 . S
C201 C202 1.363 . S
C201 C207 1.379 . S
C201 N209 1.356 1_455 S
C202 C201 1.363 . S
C202 C208 1.363 . S
C203 C204 1.363 . S
C203 C208 1.379 . S
C203 N210 1.356 . S
C204 C203 1.363 . S
C204 C207 1.363 . S
N205 C207 1.356 1_655 S
N205 H217 0.984 . S
N205 H218 0.985 1_655 S
N206 C208 1.356 . S
N206 H211 0.984 . S
N206 H212 0.985 . S
C207 C201 1.379 . S
C207 C204 1.363 . S
C207 N205 1.356 1_455 S
C208 C202 1.363 . S
C208 C203 1.379 . S
C208 N206 1.356 . S
N209 C201 1.356 1_655 S
N209 H215 0.984 . S
N209 H216 0.984 1_655 S
N210 C203 1.356 . S
N210 H213 0.984 . S
N210 H214 0.985 . S
H211 N206 0.984 . S
H212 N206 0.985 . S
H213 N210 0.984 . S
H214 N210 0.985 . S
H215 N209 0.984 . S
H216 N209 0.984 1_455 S
H217 N205 0.984 . S
H218 N205 0.985 1_455 S
C219 C220 1.363 . S
C219 C225 1.379 . S
C219 N227 1.356 . S
C220 C219 1.363 . S
C220 C226 1.363 . S
C221 C222 1.363 . S
C221 C226 1.379 . S
C221 N228 1.356 . S
C222 C221 1.363 . S
C222 C225 1.363 . S
N223 C225 1.356 . S
N223 H235 0.984 . S
N223 H236 0.985 . S
N224 C226 1.356 1_565 S
N224 H229 0.984 . S
N224 H230 0.985 . S
C225 C219 1.379 . S
C225 C222 1.363 . S
C225 N223 1.356 . S
C226 C220 1.363 . S
C226 C221 1.379 . S
C226 N224 1.356 1_545 S
N227 C219 1.356 . S
N227 H233 0.984 . S
N227 H234 0.984 . S
N228 C221 1.356 . S
N228 H231 0.984 . S
N228 H232 0.985 1_545 S
H229 N224 0.984 . S
H230 N224 0.985 . S
H231 N228 0.984 . S
H232 N228 0.985 1_565 S
H233 N227 0.984 . S
H234 N227 0.984 . S
H235 N223 0.984 . S
H236 N223 0.985 . S
C237 C238 1.363 . S
C237 C243 1.379 . S
C237 N245 1.356 1_655 S
C238 C237 1.363 . S
C238 C244 1.363 . S
C239 C240 1.363 . S
C239 C244 1.379 . S
C239 N246 1.356 . S
C240 C239 1.363 . S
C240 C243 1.363 . S
N241 C243 1.356 . S
N241 H253 0.984 . S
N241 H254 0.985 . S
N242 C244 1.356 . S
N242 H247 0.984 . S
N242 H248 0.985 . S
C243 C237 1.379 . S
C243 C240 1.363 . S
C243 N241 1.356 . S
C244 C238 1.363 . S
C244 C239 1.379 . S
C244 N242 1.356 . S
N245 C237 1.356 1_455 S
N245 H251 0.984 . S
N245 H252 0.984 . S
N246 C239 1.356 . S
N246 H249 0.984 . S
N246 H250 0.985 . S
H247 N242 0.984 . S
H248 N242 0.985 . S
H249 N246 0.984 . S
H250 N246 0.985 . S
H251 N245 0.984 . S
H252 N245 0.984 . S
H253 N241 0.984 . S
H254 N241 0.985 . S
C255 C256 1.363 . S
C255 C261 1.379 . S
C255 N263 1.356 . S
C256 C255 1.363 . S
C256 C262 1.363 . S
C257 C258 1.363 . S
C257 C262 1.379 . S
C257 N264 1.356 1_455 S
C258 C257 1.363 . S
C258 C261 1.363 . S
N259 C261 1.356 . S
N259 H271 0.984 . S
N259 H272 0.985 . S
N260 C262 1.356 . S
N260 H265 0.984 . S
N260 H266 0.985 . S
C261 C255 1.379 . S
C261 C258 1.363 . S
C261 N259 1.356 . S
C262 C256 1.363 . S
C262 C257 1.379 . S
C262 N260 1.356 . S
N263 C255 1.356 . S
N263 H269 0.984 . S
N263 H270 0.984 1_565 S
N264 C257 1.356 1_655 S
N264 H267 0.984 . S
N264 H268 0.985 . S
H265 N260 0.984 . S
H266 N260 0.985 . S
H267 N264 0.984 . S
H268 N264 0.985 . S
H269 N263 0.984 . S
H270 N263 0.984 1_545 S
H271 N259 0.984 . S
H272 N259 0.985 . S
C273 C274 1.363 . S
C273 C279 1.379 . S
C273 N281 1.356 . S
C274 C273 1.363 . S
C274 C280 1.363 . S
C275 C276 1.363 . S
C275 C280 1.379 . S
C275 N282 1.356 . S
C276 C275 1.363 . S
C276 C279 1.363 . S
N277 C279 1.356 . S
N277 H289 0.984 . S
N277 H290 0.985 . S
N278 C280 1.356 . S
N278 H283 0.984 . S
N278 H284 0.985 1_545 S
C279 C273 1.379 . S
C279 C276 1.363 . S
C279 N277 1.356 . S
C280 C274 1.363 . S
C280 C275 1.379 . S
C280 N278 1.356 . S
N281 C273 1.356 . S
N281 H287 0.984 . S
N281 H288 0.984 . S
N282 C275 1.356 . S
N282 H285 0.984 . S
N282 H286 0.985 1_545 S
H283 N278 0.984 . S
H284 N278 0.985 1_565 S
H285 N282 0.984 . S
H286 N282 0.985 1_565 S
H287 N281 0.984 . S
H288 N281 0.984 . S
H289 N277 0.984 . S
H290 N277 0.985 . S
C291 C292 1.363 . S
C291 C297 1.379 . S
C291 N299 1.356 . S
C292 C291 1.363 . S
C292 C298 1.363 . S
C293 C294 1.363 . S
C293 C298 1.379 . S
C293 N300 1.356 . S
C294 C293 1.363 . S
C294 C297 1.363 . S
N295 C297 1.356 . S
N295 H307 0.984 . S
N295 H308 0.985 . S
N296 C298 1.356 . S
N296 H301 0.984 . S
N296 H302 0.985 . S
C297 C291 1.379 . S
C297 C294 1.363 . S
C297 N295 1.356 . S
C298 C292 1.363 . S
C298 C293 1.379 . S
C298 N296 1.356 . S
N299 C291 1.356 . S
N299 H305 0.984 . S
N299 H306 0.984 . S
N300 C293 1.356 . S
N300 H303 0.984 . S
N300 H304 0.985 . S
H301 N296 0.984 . S
H302 N296 0.985 . S
H303 N300 0.984 . S
H304 N300 0.985 . S
H305 N299 0.984 . S
H306 N299 0.984 . S
H307 N295 0.984 . S
H308 N295 0.985 . S
C309 C310 1.363 . S
C309 C315 1.379 . S
C309 N317 1.356 . S
C310 C309 1.363 . S
C310 C316 1.363 . S
C311 C312 1.363 . S
C311 C316 1.379 . S
C311 N318 1.356 . S
C312 C311 1.363 . S
C312 C315 1.363 . S
N313 C315 1.356 . S
N313 H325 0.984 . S
N313 H326 0.985 . S
N314 C316 1.356 . S
N314 H319 0.984 . S
N314 H320 0.985 1_545 S
C315 C309 1.379 . S
C315 C312 1.363 . S
C315 N313 1.356 . S
C316 C310 1.363 . S
C316 C311 1.379 . S
C316 N314 1.356 . S
N317 C309 1.356 . S
N317 H323 0.984 . S
N317 H324 0.984 . S
N318 C311 1.356 . S
N318 H321 0.984 . S
N318 H322 0.985 1_545 S
H319 N314 0.984 . S
H320 N314 0.985 1_565 S
H321 N318 0.984 . S
H322 N318 0.985 1_565 S
H323 N317 0.984 . S
H324 N317 0.984 . S
H325 N313 0.984 . S
H326 N313 0.985 . S
C327 C328 1.363 . S
C327 C333 1.379 . S
C327 N335 1.356 1_656 S
C328 C327 1.363 . S
C328 C334 1.363 . S
C329 C330 1.363 . S
C329 C334 1.379 . S
C329 N336 1.356 . S
C330 C329 1.363 . S
C330 C333 1.363 . S
N331 C333 1.356 . S
N331 H343 0.984 . S
N331 H344 0.985 . S
N332 C334 1.356 1_545 S
N332 H337 0.984 . S
N332 H338 0.985 . S
C333 C327 1.379 . S
C333 C330 1.363 . S
C333 N331 1.356 . S
C334 C328 1.363 . S
C334 C329 1.379 . S
C334 N332 1.356 1_565 S
N335 C327 1.356 1_454 S
N335 H341 0.984 . S
N335 H342 0.984 . S
N336 C329 1.356 . S
N336 H339 0.984 . S
N336 H340 0.985 . S
H337 N332 0.984 . S
H338 N332 0.985 . S
H339 N336 0.984 . S
H340 N336 0.985 . S
H341 N335 0.984 . S
H342 N335 0.984 . S
H343 N331 0.984 . S
H344 N331 0.985 . S
C345 C346 1.363 . S
C345 C351 1.379 . S
C345 N353 1.356 1_455 S
C346 C345 1.363 . S
C346 C352 1.363 . S
C347 C348 1.363 . S
C347 C352 1.379 . S
C347 N354 1.356 . S
C348 C347 1.363 . S
C348 C351 1.363 . S
N349 C351 1.356 . S
N349 H361 0.984 . S
N349 H362 0.985 . S
N350 C352 1.356 . S
N350 H355 0.984 1_455 S
N350 H356 0.985 . S
C351 C345 1.379 . S
C351 C348 1.363 . S
C351 N349 1.356 . S
C352 C346 1.363 . S
C352 C347 1.379 . S
C352 N350 1.356 . S
N353 C345 1.356 1_655 S
N353 H359 0.984 . S
N353 H360 0.984 . S
N354 C347 1.356 . S
N354 H357 0.984 . S
N354 H358 0.985 . S
H355 N350 0.984 1_655 S
H356 N350 0.985 . S
H357 N354 0.984 . S
H358 N354 0.985 . S
H359 N353 0.984 . S
H360 N353 0.984 . S
H361 N349 0.984 . S
H362 N349 0.985 . S
C363 C364 1.363 . S
C363 C369 1.379 . S
C363 N371 1.356 . S
C364 C363 1.363 . S
C364 C370 1.363 . S
C365 C366 1.363 . S
C365 C370 1.379 . S
C365 N372 1.356 . S
C366 C365 1.363 . S
C366 C369 1.363 . S
N367 C369 1.356 . S
N367 H379 0.984 . S
N367 H380 0.985 . S
N368 C370 1.356 1_565 S
N368 H373 0.984 . S
N368 H374 0.985 . S
C369 C363 1.379 . S
C369 C366 1.363 . S
C369 N367 1.356 . S
C370 C364 1.363 . S
C370 C365 1.379 . S
C370 N368 1.356 1_545 S
N371 C363 1.356 . S
N371 H377 0.984 . S
N371 H378 0.984 . S
N372 C365 1.356 . S
N372 H375 0.984 . S
N372 H376 0.985 . S
H373 N368 0.984 . S
H374 N368 0.985 . S
H375 N372 0.984 . S
H376 N372 0.985 . S
H377 N371 0.984 . S
H378 N371 0.984 . S
H379 N367 0.984 . S
H380 N367 0.985 . S
C381 C382 1.363 . S
C381 C387 1.379 . S
C381 N389 1.331 1_556 S
C382 C381 1.363 . S
C382 C388 1.363 . S
C383 C384 1.363 . S
C383 C388 1.379 . S
C383 N390 1.356 . S
C384 C383 1.363 . S
C384 C387 1.363 . S
N385 C387 1.356 . S
N385 H397 0.984 . S
N385 H398 0.985 . S
N386 C388 1.356 . S
N386 H391 0.984 . S
N386 H392 0.985 . S
C387 C381 1.379 . S
C387 C384 1.363 . S
C387 N385 1.356 . S
C388 C382 1.363 . S
C388 C383 1.379 . S
C388 N386 1.356 . S
N389 C381 1.331 1_554 S
N389 H395 0.998 . S
N389 H396 0.997 . S
N390 C383 1.356 . S
N390 H393 0.984 . S
N390 H394 0.985 . S
H391 N386 0.984 . S
H392 N386 0.985 . S
H393 N390 0.984 . S
H394 N390 0.985 . S
H395 N389 0.998 . S
H396 N389 0.997 . S
H397 N385 0.984 . S
H398 N385 0.985 . S
C399 C400 1.363 . S
C399 C405 1.379 . S
C399 N407 1.356 . S
C400 C399 1.363 . S
C400 C406 1.363 . S
C401 C402 1.363 . S
C401 C406 1.379 . S
C401 N408 1.356 . S
C402 C401 1.363 . S
C402 C405 1.363 . S
N403 C405 1.356 1_655 S
N403 H415 0.984 . S
N403 H416 0.985 . S
N404 C406 1.356 . S
N404 H409 0.984 . S
N404 H410 0.985 . S
C405 C399 1.379 . S
C405 C402 1.363 . S
C405 N403 1.356 1_455 S
C406 C400 1.363 . S
C406 C401 1.379 . S
C406 N404 1.356 . S
N407 C399 1.356 . S
N407 H413 0.984 . S
N407 H414 0.984 . S
N408 C401 1.356 . S
N408 H411 0.984 . S
N408 H412 0.985 . S
H409 N404 0.984 . S
H410 N404 0.985 . S
H411 N408 0.984 . S
H412 N408 0.985 . S
H413 N407 0.984 . S
H414 N407 0.984 . S
H415 N403 0.984 . S
H416 N403 0.985 . S
C204 C64 1.437 . S
C202 C11 1.417 . S
C220 C26 1.584 . S
C222 C134 1.610 . S
C238 C40 1.461 . S
C240 C186 1.476 . S
C256 C5 1.357 . S
C258 C80 1.474 . S
C276 C124 1.555 . S
C274 C18 1.539 . S
C292 C32 1.430 . S
C294 C170 1.447 . S
C312 C117 1.348 . S
C310 C39 1.340 . S
C328 C4 1.440 1_665 S
C330 C177 1.456 . S
C348 C71 1.440 . S
C346 C19 1.275 1_455 S
C366 C133 1.415 . S
C364 C33 1.301 1_545 S
C384 C187 1.501 . S
C382 C12 1.477 . S
C400 C25 1.444 . S
C402 C81 1.471 . S
