# Generated by pormake.
# Topology gar, (4,6)-cn, num edge types: 1
# Building blocks:
#     Node 0, Type 0, BuildingBlock: GALJAG_clean_sbu_0, # of connection points: 4
#     Node 1, Type 0, BuildingBlock: GALJAG_clean_sbu_0, # of connection points: 4
#     Node 2, Type 0, BuildingBlock: GALJAG_clean_sbu_0, # of connection points: 4
#     Node 3, Type 0, BuildingBlock: GALJAG_clean_sbu_0, # of connection points: 4
#     Node 4, Type 0, BuildingBlock: GALJAG_clean_sbu_0, # of connection points: 4
#     Node 5, Type 0, BuildingBlock: GALJAG_clean_sbu_0, # of connection points: 4
#     Node 6, Type 0, BuildingBlock: GALJAG_clean_sbu_0, # of connection points: 4
#     Node 7, Type 0, BuildingBlock: GALJAG_clean_sbu_0, # of connection points: 4
#     Node 8, Type 0, BuildingBlock: GALJAG_clean_sbu_0, # of connection points: 4
#     Node 9, Type 0, BuildingBlock: GALJAG_clean_sbu_0, # of connection points: 4
#     Node 10, Type 0, BuildingBlock: GALJAG_clean_sbu_0, # of connection points: 4
#     Node 11, Type 0, BuildingBlock: GALJAG_clean_sbu_0, # of connection points: 4
#     Node 12, Type 0, BuildingBlock: GALJAG_clean_sbu_0, # of connection points: 4
#     Node 13, Type 0, BuildingBlock: GALJAG_clean_sbu_0, # of connection points: 4
#     Node 14, Type 0, BuildingBlock: GALJAG_clean_sbu_0, # of connection points: 4
#     Node 15, Type 0, BuildingBlock: GALJAG_clean_sbu_0, # of connection points: 4
#     Node 16, Type 0, BuildingBlock: GALJAG_clean_sbu_0, # of connection points: 4
#     Node 17, Type 0, BuildingBlock: GALJAG_clean_sbu_0, # of connection points: 4
#     Node 18, Type 0, BuildingBlock: GALJAG_clean_sbu_0, # of connection points: 4
#     Node 19, Type 0, BuildingBlock: GALJAG_clean_sbu_0, # of connection points: 4
#     Node 20, Type 0, BuildingBlock: GALJAG_clean_sbu_0, # of connection points: 4
#     Node 21, Type 0, BuildingBlock: GALJAG_clean_sbu_0, # of connection points: 4
#     Node 22, Type 0, BuildingBlock: GALJAG_clean_sbu_0, # of connection points: 4
#     Node 23, Type 0, BuildingBlock: GALJAG_clean_sbu_0, # of connection points: 4
#     Node 24, Type 1, BuildingBlock: KUMBUR_clean_sbu_1, # of connection points: 6
#     Node 25, Type 1, BuildingBlock: KUMBUR_clean_sbu_1, # of connection points: 6
#     Node 26, Type 1, BuildingBlock: KUMBUR_clean_sbu_1, # of connection points: 6
#     Node 27, Type 1, BuildingBlock: KUMBUR_clean_sbu_1, # of connection points: 6
#     Node 28, Type 1, BuildingBlock: KUMBUR_clean_sbu_1, # of connection points: 6
#     Node 29, Type 1, BuildingBlock: KUMBUR_clean_sbu_1, # of connection points: 6
#     Node 30, Type 1, BuildingBlock: KUMBUR_clean_sbu_1, # of connection points: 6
#     Node 31, Type 1, BuildingBlock: KUMBUR_clean_sbu_1, # of connection points: 6
#     Node 32, Type 1, BuildingBlock: KUMBUR_clean_sbu_1, # of connection points: 6
#     Node 33, Type 1, BuildingBlock: KUMBUR_clean_sbu_1, # of connection points: 6
#     Node 34, Type 1, BuildingBlock: KUMBUR_clean_sbu_1, # of connection points: 6
#     Node 35, Type 1, BuildingBlock: KUMBUR_clean_sbu_1, # of connection points: 6
#     Node 36, Type 1, BuildingBlock: KUMBUR_clean_sbu_1, # of connection points: 6
#     Node 37, Type 1, BuildingBlock: KUMBUR_clean_sbu_1, # of connection points: 6
#     Node 38, Type 1, BuildingBlock: KUMBUR_clean_sbu_1, # of connection points: 6
#     Node 39, Type 1, BuildingBlock: KUMBUR_clean_sbu_1, # of connection points: 6
#     Edge 40, Type (0, 1), BuildingBlock: KIFKEQ_clean_linker_1, # of connection points: 2
#     Edge 41, Type (0, 1), BuildingBlock: KIFKEQ_clean_linker_1, # of connection points: 2
#     Edge 42, Type (0, 1), BuildingBlock: KIFKEQ_clean_linker_1, # of connection points: 2
#     Edge 43, Type (0, 1), BuildingBlock: KIFKEQ_clean_linker_1, # of connection points: 2
#     Edge 44, Type (0, 1), BuildingBlock: KIFKEQ_clean_linker_1, # of connection points: 2
#     Edge 45, Type (0, 1), BuildingBlock: KIFKEQ_clean_linker_1, # of connection points: 2
#     Edge 46, Type (0, 1), BuildingBlock: KIFKEQ_clean_linker_1, # of connection points: 2
#     Edge 47, Type (0, 1), BuildingBlock: KIFKEQ_clean_linker_1, # of connection points: 2
#     Edge 48, Type (0, 1), BuildingBlock: KIFKEQ_clean_linker_1, # of connection points: 2
#     Edge 49, Type (0, 1), BuildingBlock: KIFKEQ_clean_linker_1, # of connection points: 2
#     Edge 50, Type (0, 1), BuildingBlock: KIFKEQ_clean_linker_1, # of connection points: 2
#     Edge 51, Type (0, 1), BuildingBlock: KIFKEQ_clean_linker_1, # of connection points: 2
#     Edge 52, Type (0, 1), BuildingBlock: KIFKEQ_clean_linker_1, # of connection points: 2
#     Edge 53, Type (0, 1), BuildingBlock: KIFKEQ_clean_linker_1, # of connection points: 2
#     Edge 54, Type (0, 1), BuildingBlock: KIFKEQ_clean_linker_1, # of connection points: 2
#     Edge 55, Type (0, 1), BuildingBlock: KIFKEQ_clean_linker_1, # of connection points: 2
#     Edge 56, Type (0, 1), BuildingBlock: KIFKEQ_clean_linker_1, # of connection points: 2
#     Edge 57, Type (0, 1), BuildingBlock: KIFKEQ_clean_linker_1, # of connection points: 2
#     Edge 58, Type (0, 1), BuildingBlock: KIFKEQ_clean_linker_1, # of connection points: 2
#     Edge 59, Type (0, 1), BuildingBlock: KIFKEQ_clean_linker_1, # of connection points: 2
#     Edge 60, Type (0, 1), BuildingBlock: KIFKEQ_clean_linker_1, # of connection points: 2
#     Edge 61, Type (0, 1), BuildingBlock: KIFKEQ_clean_linker_1, # of connection points: 2
#     Edge 62, Type (0, 1), BuildingBlock: KIFKEQ_clean_linker_1, # of connection points: 2
#     Edge 63, Type (0, 1), BuildingBlock: KIFKEQ_clean_linker_1, # of connection points: 2
#     Edge 64, Type (0, 1), BuildingBlock: KIFKEQ_clean_linker_1, # of connection points: 2
#     Edge 65, Type (0, 1), BuildingBlock: KIFKEQ_clean_linker_1, # of connection points: 2
#     Edge 66, Type (0, 1), BuildingBlock: KIFKEQ_clean_linker_1, # of connection points: 2
#     Edge 67, Type (0, 1), BuildingBlock: KIFKEQ_clean_linker_1, # of connection points: 2
#     Edge 68, Type (0, 1), BuildingBlock: KIFKEQ_clean_linker_1, # of connection points: 2
#     Edge 69, Type (0, 1), BuildingBlock: KIFKEQ_clean_linker_1, # of connection points: 2
#     Edge 70, Type (0, 1), BuildingBlock: KIFKEQ_clean_linker_1, # of connection points: 2
#     Edge 71, Type (0, 1), BuildingBlock: KIFKEQ_clean_linker_1, # of connection points: 2
#     Edge 72, Type (0, 1), BuildingBlock: KIFKEQ_clean_linker_1, # of connection points: 2
#     Edge 73, Type (0, 1), BuildingBlock: KIFKEQ_clean_linker_1, # of connection points: 2
#     Edge 74, Type (0, 1), BuildingBlock: KIFKEQ_clean_linker_1, # of connection points: 2
#     Edge 75, Type (0, 1), BuildingBlock: KIFKEQ_clean_linker_1, # of connection points: 2
#     Edge 76, Type (0, 1), BuildingBlock: KIFKEQ_clean_linker_1, # of connection points: 2
#     Edge 77, Type (0, 1), BuildingBlock: KIFKEQ_clean_linker_1, # of connection points: 2
#     Edge 78, Type (0, 1), BuildingBlock: KIFKEQ_clean_linker_1, # of connection points: 2
#     Edge 79, Type (0, 1), BuildingBlock: KIFKEQ_clean_linker_1, # of connection points: 2
#     Edge 80, Type (0, 1), BuildingBlock: KIFKEQ_clean_linker_1, # of connection points: 2
#     Edge 81, Type (0, 1), BuildingBlock: KIFKEQ_clean_linker_1, # of connection points: 2
#     Edge 82, Type (0, 1), BuildingBlock: KIFKEQ_clean_linker_1, # of connection points: 2
#     Edge 83, Type (0, 1), BuildingBlock: KIFKEQ_clean_linker_1, # of connection points: 2
#     Edge 84, Type (0, 1), BuildingBlock: KIFKEQ_clean_linker_1, # of connection points: 2
#     Edge 85, Type (0, 1), BuildingBlock: KIFKEQ_clean_linker_1, # of connection points: 2
#     Edge 86, Type (0, 1), BuildingBlock: KIFKEQ_clean_linker_1, # of connection points: 2
#     Edge 87, Type (0, 1), BuildingBlock: KIFKEQ_clean_linker_1, # of connection points: 2
#     Edge 88, Type (0, 1), BuildingBlock: KIFKEQ_clean_linker_1, # of connection points: 2
#     Edge 89, Type (0, 1), BuildingBlock: KIFKEQ_clean_linker_1, # of connection points: 2
#     Edge 90, Type (0, 1), BuildingBlock: KIFKEQ_clean_linker_1, # of connection points: 2
#     Edge 91, Type (0, 1), BuildingBlock: KIFKEQ_clean_linker_1, # of connection points: 2
#     Edge 92, Type (0, 1), BuildingBlock: KIFKEQ_clean_linker_1, # of connection points: 2
#     Edge 93, Type (0, 1), BuildingBlock: KIFKEQ_clean_linker_1, # of connection points: 2
#     Edge 94, Type (0, 1), BuildingBlock: KIFKEQ_clean_linker_1, # of connection points: 2
#     Edge 95, Type (0, 1), BuildingBlock: KIFKEQ_clean_linker_1, # of connection points: 2
#     Edge 96, Type (0, 1), BuildingBlock: KIFKEQ_clean_linker_1, # of connection points: 2
#     Edge 97, Type (0, 1), BuildingBlock: KIFKEQ_clean_linker_1, # of connection points: 2
#     Edge 98, Type (0, 1), BuildingBlock: KIFKEQ_clean_linker_1, # of connection points: 2
#     Edge 99, Type (0, 1), BuildingBlock: KIFKEQ_clean_linker_1, # of connection points: 2
#     Edge 100, Type (0, 1), BuildingBlock: KIFKEQ_clean_linker_1, # of connection points: 2
#     Edge 101, Type (0, 1), BuildingBlock: KIFKEQ_clean_linker_1, # of connection points: 2
#     Edge 102, Type (0, 1), BuildingBlock: KIFKEQ_clean_linker_1, # of connection points: 2
#     Edge 103, Type (0, 1), BuildingBlock: KIFKEQ_clean_linker_1, # of connection points: 2
#     Edge 104, Type (0, 1), BuildingBlock: KIFKEQ_clean_linker_1, # of connection points: 2
#     Edge 105, Type (0, 1), BuildingBlock: KIFKEQ_clean_linker_1, # of connection points: 2
#     Edge 106, Type (0, 1), BuildingBlock: KIFKEQ_clean_linker_1, # of connection points: 2
#     Edge 107, Type (0, 1), BuildingBlock: KIFKEQ_clean_linker_1, # of connection points: 2
#     Edge 108, Type (0, 1), BuildingBlock: KIFKEQ_clean_linker_1, # of connection points: 2
#     Edge 109, Type (0, 1), BuildingBlock: KIFKEQ_clean_linker_1, # of connection points: 2
#     Edge 110, Type (0, 1), BuildingBlock: KIFKEQ_clean_linker_1, # of connection points: 2
#     Edge 111, Type (0, 1), BuildingBlock: KIFKEQ_clean_linker_1, # of connection points: 2
#     Edge 112, Type (0, 1), BuildingBlock: KIFKEQ_clean_linker_1, # of connection points: 2
#     Edge 113, Type (0, 1), BuildingBlock: KIFKEQ_clean_linker_1, # of connection points: 2
#     Edge 114, Type (0, 1), BuildingBlock: KIFKEQ_clean_linker_1, # of connection points: 2
#     Edge 115, Type (0, 1), BuildingBlock: KIFKEQ_clean_linker_1, # of connection points: 2
#     Edge 116, Type (0, 1), BuildingBlock: KIFKEQ_clean_linker_1, # of connection points: 2
#     Edge 117, Type (0, 1), BuildingBlock: KIFKEQ_clean_linker_1, # of connection points: 2
#     Edge 118, Type (0, 1), BuildingBlock: KIFKEQ_clean_linker_1, # of connection points: 2
#     Edge 119, Type (0, 1), BuildingBlock: KIFKEQ_clean_linker_1, # of connection points: 2
#     Edge 120, Type (0, 1), BuildingBlock: KIFKEQ_clean_linker_1, # of connection points: 2
#     Edge 121, Type (0, 1), BuildingBlock: KIFKEQ_clean_linker_1, # of connection points: 2
#     Edge 122, Type (0, 1), BuildingBlock: KIFKEQ_clean_linker_1, # of connection points: 2
#     Edge 123, Type (0, 1), BuildingBlock: KIFKEQ_clean_linker_1, # of connection points: 2
#     Edge 124, Type (0, 1), BuildingBlock: KIFKEQ_clean_linker_1, # of connection points: 2
#     Edge 125, Type (0, 1), BuildingBlock: KIFKEQ_clean_linker_1, # of connection points: 2
#     Edge 126, Type (0, 1), BuildingBlock: KIFKEQ_clean_linker_1, # of connection points: 2
#     Edge 127, Type (0, 1), BuildingBlock: KIFKEQ_clean_linker_1, # of connection points: 2
#     Edge 128, Type (0, 1), BuildingBlock: KIFKEQ_clean_linker_1, # of connection points: 2
#     Edge 129, Type (0, 1), BuildingBlock: KIFKEQ_clean_linker_1, # of connection points: 2
#     Edge 130, Type (0, 1), BuildingBlock: KIFKEQ_clean_linker_1, # of connection points: 2
#     Edge 131, Type (0, 1), BuildingBlock: KIFKEQ_clean_linker_1, # of connection points: 2
#     Edge 132, Type (0, 1), BuildingBlock: KIFKEQ_clean_linker_1, # of connection points: 2
#     Edge 133, Type (0, 1), BuildingBlock: KIFKEQ_clean_linker_1, # of connection points: 2
#     Edge 134, Type (0, 1), BuildingBlock: KIFKEQ_clean_linker_1, # of connection points: 2
#     Edge 135, Type (0, 1), BuildingBlock: KIFKEQ_clean_linker_1, # of connection points: 2
# Relax obj value: 0.083
# Max RMSD: 0.179
# Mean RMSD: 0.129
data_MOF--net-gar--node1-GALJAG_clean_sbu_0--node2-KUMBUR_clean_sbu_1--edge1-KIFKEQ_clean_linker_1
_symmetry_space_group_name_H-M    P1
_symmetry_Int_Tables_number       1
_symmetry_cell_setting            triclinic
loop_
_symmetry_equiv_pos_as_xyz
'x, y, z'
_cell_length_a     60.708198
_cell_length_b     60.925776
_cell_length_c     57.077866
_cell_angle_alpha  95.933592
_cell_angle_beta   96.08706
_cell_angle_gamma 100.72697
loop_
_atom_site_label
_atom_site_type_symbol
_atom_site_fract_x
_atom_site_fract_y
_atom_site_fract_z
_atom_type_partial_charge
In0 In 0.05789 0.32642 0.36891 0.0
O1 O 0.08071 0.32513 0.33675 0.0
O2 O 0.09544 0.3205 0.37024 0.0
C3 C 1.01331 0.32212 0.34617 0.0
C4 C 0.05468 0.2886 0.39179 0.0
C5 C 0.06074 0.36833 0.39624 0.0
O6 O 0.03013 0.32223 0.33463 0.0
O7 O 0.01904 0.32377 0.36823 0.0
O8 O 0.05313 0.34948 0.40253 0.0
O9 O 0.06832 0.36648 0.37642 0.0
C10 C 0.09808 0.32095 0.34862 0.0
O11 O 0.06625 0.30754 0.4009 0.0
O12 O 0.04458 0.28854 0.37125 0.0
In13 In 0.03208 0.76223 0.69718 0.0
O14 O 0.02549 0.78086 0.66521 0.0
O15 O 0.04614 0.79959 0.69605 0.0
C16 C 0.02662 0.72247 0.66681 0.0
C17 C 0.07857 0.76805 0.71551 0.0
C18 C 0.99094 0.76509 0.71735 0.0
O19 O 0.02259 0.74059 0.66016 0.0
O20 O 0.0321 0.72388 0.68899 0.0
O21 O 1.00314 0.75097 0.7225 0.0
O22 O 0.99998 0.77791 0.70362 0.0
C23 C 0.03716 0.79959 0.67501 0.0
O24 O 0.0631 0.76795 0.72902 0.0
O25 O 0.0705 0.76522 0.6939 0.0
In26 In 0.55918 0.82711 0.86803 0.0
O27 O 0.57918 0.8148 0.83659 0.0
O28 O 0.59896 0.83497 0.86588 0.0
C29 C 0.5141 0.82119 0.84655 0.0
C30 C 0.55705 0.79002 0.89221 0.0
C31 C 0.56063 0.8695 0.89349 0.0
O32 O 0.53093 0.82799 0.83585 0.0
O33 O 0.52006 0.81678 0.86713 0.0
O34 O 0.56842 0.85388 0.90235 0.0
O35 O 0.55358 0.86444 0.87156 0.0
C36 C 0.59913 0.82318 0.84633 0.0
O37 O 0.56042 0.80986 0.90272 0.0
O38 O 0.5544 0.78895 0.86989 0.0
In39 In 0.53128 0.26166 0.19731 0.0
O40 O 0.52053 0.23827 0.16173 0.0
O41 O 0.53339 0.22338 0.19055 0.0
C42 C 0.53542 0.29845 0.17378 0.0
C43 C 0.48904 0.26307 0.21568 0.0
C44 C 0.57789 0.26894 0.21622 0.0
O45 O 0.53511 0.27882 0.16413 0.0
O46 O 0.5334 0.29987 0.1957 0.0
O47 O 0.56205 0.26155 0.22807 0.0
O48 O 0.57016 0.27307 0.19614 0.0
C49 C 0.52619 0.2209 0.16859 0.0
O50 O 0.5078 0.26549 0.22894 0.0
O51 O 0.49163 0.25926 0.1941 0.0
In52 In 0.07448 0.80501 0.1191 0.0
O53 O 0.07182 0.77457 0.08707 0.0
O54 O 0.06866 0.76641 0.12135 0.0
C55 C 0.07245 0.84631 0.0993 0.0
C56 C 0.03798 0.8035 0.14261 0.0
C57 C 0.11329 0.81037 0.15095 0.0
O58 O 0.08884 0.83616 0.09808 0.0
O59 O 0.05694 0.83508 0.10873 0.0
O60 O 0.09356 0.80626 0.15653 0.0
O61 O 0.11386 0.81282 0.12927 0.0
C62 C 0.06879 0.75877 0.10009 0.0
O63 O 0.05774 0.8131 0.15196 0.0
O64 O 0.03652 0.79516 0.12108 0.0
In65 In 0.51106 0.77928 0.45085 0.0
O66 O 0.52878 0.78019 0.41698 0.0
O67 O 0.54965 0.78557 0.45021 0.0
C68 C 0.46858 0.77552 0.42418 0.0
C69 C 0.51592 0.73851 0.47047 0.0
C70 C 0.51737 0.8244 0.47228 0.0
O71 O 0.48599 0.77207 0.41528 0.0
O72 O 0.47194 0.77887 0.44661 0.0
O73 O 0.51602 0.80792 0.48435 0.0
O74 O 0.51644 0.81812 0.45042 0.0
C75 C 0.54865 0.78375 0.4278 0.0
O76 O 0.50622 0.75319 0.48016 0.0
O77 O 0.52217 0.74394 0.45115 0.0
In78 In 0.57431 0.30426 0.61934 0.0
O79 O 0.57384 0.27373 0.58809 0.0
O80 O 0.56686 0.26548 0.62152 0.0
C81 C 0.57338 0.34618 0.60048 0.0
C82 C 0.53818 0.30374 0.64382 0.0
C83 C 0.61431 0.3084 0.64859 0.0
O84 O 0.5621 0.32725 0.59041 0.0
O85 O 0.58592 0.34379 0.61879 0.0
O86 O 0.59505 0.30519 0.65548 0.0
O87 O 0.6139 0.31016 0.62657 0.0
C88 C 0.56905 0.25788 0.60075 0.0
O89 O 0.55837 0.30861 0.65354 0.0
O90 O 0.53598 0.29973 0.62145 0.0
In91 In 1.01104 0.27959 0.95188 0.0
O92 O 0.02527 0.25927 0.98183 0.0
O93 O 1.00202 0.24002 0.95432 0.0
C94 C 0.01691 0.32437 0.97391 0.0
C95 C 0.04756 0.28111 0.92685 0.0
C96 C 0.96875 0.27684 0.92549 0.0
O97 O 1.00888 0.30753 0.98392 0.0
O98 O 0.0226 0.31853 0.95398 0.0
O99 O 0.98635 0.27419 0.91642 0.0
O100 O 0.97192 0.27936 0.948 0.0
C101 C 0.01533 0.23958 0.97284 0.0
O102 O 0.02792 0.28136 0.91718 0.0
O103 O 0.04882 0.28014 0.94889 0.0
In104 In 0.40087 0.03071 0.31329 0.0
O105 O 0.43049 0.03381 0.29256 0.0
O106 O 0.39792 0.0335 0.27413 0.0
C107 C 0.42395 0.0328 0.35527 0.0
C108 C 0.38364 0.06684 0.32098 0.0
C109 C 0.37921 0.98859 0.30503 0.0
O110 O 0.43344 0.03509 0.33677 0.0
O111 O 0.40263 0.02967 0.35252 0.0
O112 O 0.37003 1.00429 0.29858 0.0
O113 O 0.39911 0.99425 0.31543 0.0
C114 C 0.41876 0.03476 0.27323 0.0
O115 O 0.37208 0.04737 0.32108 0.0
O116 O 0.40391 0.06782 0.31742 0.0
In117 In 0.27783 0.19251 0.52157 0.0
O118 O 0.2877 0.22353 0.55152 0.0
O119 O 0.27112 0.19253 0.56066 0.0
C120 C 0.28017 0.21032 0.47864 0.0
C121 C 0.31477 0.17389 0.52637 0.0
C122 C 0.2373 0.1637 0.51719 0.0
O123 O 0.27754 0.22187 0.49757 0.0
O124 O 0.2816 0.19043 0.48154 0.0
O125 O 0.25603 0.15765 0.52029 0.0
O126 O 0.23882 0.18456 0.51599 0.0
C127 C 0.28028 0.21277 0.5679 0.0
O128 O 0.29688 0.16432 0.51327 0.0
O129 O 0.31438 0.19312 0.53664 0.0
In130 In 0.14604 0.06083 0.79794 0.0
O131 O 0.11506 0.05889 0.76858 0.0
O132 O 0.14671 0.05678 0.75746 0.0
C133 C 0.12809 0.05869 0.84079 0.0
C134 C 0.16617 0.02487 0.79745 0.0
C135 C 0.174 0.10162 0.80011 0.0
O136 O 0.11581 0.05542 0.82087 0.0
O137 O 0.14888 0.06338 0.839 0.0
O138 O 0.18039 0.08314 0.79794 0.0
O139 O 0.1531 0.09988 0.80162 0.0
C140 C 0.12622 0.05688 0.75118 0.0
O141 O 0.17629 0.04468 0.80509 0.0
O142 O 0.14534 0.02281 0.79046 0.0
In143 In 0.307 0.93507 1.00279 0.0
O144 O 0.31329 0.90771 0.02441 0.0
O145 O 0.29836 0.93378 0.0401 0.0
C146 C 0.3031 0.91204 0.9607 0.0
C147 C 0.27085 0.95238 0.99599 0.0
C148 C 0.34864 0.95809 0.01124 0.0
O149 O 0.29713 0.90283 0.97848 0.0
O150 O 0.31069 0.93301 0.96421 0.0
O151 O 0.33271 0.96597 0.01919 0.0
O152 O 0.34335 0.93897 0.99919 0.0
C153 C 0.30551 0.91589 0.04221 0.0
O154 O 0.29037 0.96428 0.99659 0.0
O155 O 0.26993 0.93184 0.99804 0.0
In156 In 0.31766 0.39653 0.04801 0.0
O157 O 0.29618 0.37206 0.06933 0.0
O158 O 0.33053 0.38344 0.08285 0.0
C159 C 0.31474 0.37438 1.00313 0.0
C160 C 0.28266 0.4187 0.04656 0.0
C161 C 0.35935 0.42388 0.05032 0.0
O162 O 0.31511 0.36413 0.02135 0.0
O163 O 0.31559 0.39522 0.00771 0.0
O164 O 0.34242 0.43114 0.05669 0.0
O165 O 0.35545 0.40295 0.04387 0.0
C166 C 0.31169 0.37199 0.08582 0.0
O167 O 0.29873 0.42331 0.0634 0.0
O168 O 0.28453 0.40342 0.03072 0.0
In169 In 0.77732 0.13772 0.06507 0.0
O170 O 0.7903 0.1075 0.05148 0.0
O171 O 0.80933 0.13003 0.081 0.0
C172 C 0.73414 0.12069 0.05783 0.0
C173 C 0.78471 0.16057 0.10707 0.0
C174 C 0.78337 0.16292 0.03056 0.0
O175 O 0.74776 0.11071 0.06867 0.0
O176 O 0.74242 0.13903 0.05097 0.0
O177 O 0.77985 0.17046 0.05093 0.0
O178 O 0.78471 0.1424 0.02767 0.0
C179 C 0.80774 0.1126 0.06664 0.0
O180 O 0.79632 0.16592 0.09072 0.0
O181 O 0.76886 0.14352 0.10207 0.0
In182 In 0.20022 0.55967 0.25566 0.0
O183 O 0.22594 0.54035 0.24286 0.0
O184 O 0.20376 0.52726 0.26712 0.0
C185 C 0.21987 0.60216 0.26312 0.0
C186 C 0.17583 0.5484 0.21406 0.0
C187 C 0.17614 0.55987 0.29115 0.0
O188 O 0.2308 0.58702 0.26763 0.0
O189 O 0.19956 0.59556 0.25419 0.0
O190 O 0.16789 0.5603 0.27 0.0
O191 O 0.19706 0.55982 0.29458 0.0
C192 C 0.21842 0.52415 0.25383 0.0
O193 O 0.16946 0.54127 0.23264 0.0
O194 O 0.19488 0.56149 0.21644 0.0
In195 In 0.81674 0.89708 0.54739 0.0
O196 O 0.80333 0.86569 0.5656 0.0
O197 O 0.82322 0.89386 0.58758 0.0
C198 C 0.81338 0.87493 0.50239 0.0
C199 C 0.78044 0.91715 0.5489 0.0
C200 C 0.85826 0.92421 0.54777 0.0
O201 O 0.82265 0.86818 0.52046 0.0
O202 O 0.80577 0.89256 0.50706 0.0
O203 O 0.84003 0.93139 0.54584 0.0
O204 O 0.85565 0.90352 0.55005 0.0
C205 C 0.81176 0.87418 0.58645 0.0
O206 O 0.79983 0.92658 0.55926 0.0
O207 O 0.7795 0.89785 0.53798 0.0
In208 In 0.9395 0.01998 0.26989 0.0
O209 O 0.96709 0.01312 0.24619 0.0
O210 O 0.94402 0.03268 0.23362 0.0
C211 C 0.96319 0.02448 0.31459 0.0
C212 C 0.91869 0.05561 0.26916 0.0
C213 C 0.91148 0.97854 0.26711 0.0
O214 O 0.97299 0.02447 0.29615 0.0
O215 O 0.94222 0.02291 0.31036 0.0
O216 O 0.90862 0.9961 0.27897 0.0
O217 O 0.92809 0.98178 0.25546 0.0
C218 C 0.96109 0.02436 0.23003 0.0
O219 O 0.90803 0.03553 0.26389 0.0
O220 O 0.93978 0.05779 0.27455 0.0
In221 In 0.27434 0.6352 0.56405 0.0
O222 O 0.28914 0.60395 0.56473 0.0
O223 O 0.31062 0.6366 0.57357 0.0
C224 C 0.23157 0.61593 0.55511 0.0
C225 C 0.28143 0.65727 0.60648 0.0
C226 C 0.27566 0.65801 0.52726 0.0
O227 O 0.2467 0.60615 0.54791 0.0
O228 O 0.23836 0.63454 0.56797 0.0
O229 O 0.26861 0.66449 0.54617 0.0
O230 O 0.28296 0.63996 0.52682 0.0
C231 C 0.30877 0.61558 0.57137 0.0
O232 O 0.29012 0.66504 0.5892 0.0
O233 O 0.26857 0.63806 0.60241 0.0
In234 In 0.439 0.5205 0.77075 0.0
O235 O 0.41185 0.53951 0.75737 0.0
O236 O 0.43326 0.55375 0.78931 0.0
C237 C 0.41161 0.47862 0.76574 0.0
C238 C 0.46231 0.52667 0.73211 0.0
C239 C 0.46175 0.52453 0.8156 0.0
O240 O 0.40396 0.49646 0.76514 0.0
O241 O 0.43288 0.48176 0.76754 0.0
O242 O 0.47068 0.53355 0.79896 0.0
O243 O 0.4417 0.51395 0.80961 0.0
C244 C 0.41731 0.5556 0.77403 0.0
O245 O 0.46711 0.51395 0.7472 0.0
O246 O 0.44615 0.53596 0.73653 0.0
In247 In 0.70343 0.06379 0.75317 0.0
O248 O 0.73149 0.04505 0.74817 0.0
O249 O 0.69877 0.02743 0.75374 0.0
C250 C 0.73028 0.10338 0.76184 0.0
C251 C 0.68054 0.06353 0.71216 0.0
C252 C 0.67895 0.06112 0.78886 0.0
O253 O 0.72945 0.08961 0.77688 0.0
O254 O 0.71876 0.09646 0.74192 0.0
O255 O 0.67012 0.05519 0.76758 0.0
O256 O 0.69991 0.06886 0.79194 0.0
C257 C 0.71867 0.02668 0.75012 0.0
O258 O 0.67645 0.07466 0.73061 0.0
O259 O 0.69655 0.05305 0.71449 0.0
In260 In 0.77676 0.69193 0.0201 0.0
O261 O 0.79399 0.66217 0.0116 0.0
O262 O 0.81282 0.69032 0.0348 0.0
C263 C 0.73657 0.66299 0.01674 0.0
C264 C 0.77919 0.7127 0.06618 0.0
C265 C 0.7785 0.71131 0.97805 0.0
O266 O 0.75532 0.65674 0.01849 0.0
O267 O 0.738 0.68403 0.01668 0.0
O268 O 0.78103 0.72302 0.99814 0.0
O269 O 0.77471 0.69054 0.97934 0.0
C270 C 0.81231 0.67098 0.02437 0.0
O271 O 0.79367 0.71873 0.05249 0.0
O272 O 0.76302 0.69735 0.05626 0.0
In273 In 0.90273 0.53022 0.81777 0.0
O274 O 0.87152 0.54418 0.82032 0.0
O275 O 0.90298 0.56714 0.82286 0.0
C276 C 0.88157 0.48828 0.81042 0.0
C277 C 0.91845 0.53283 0.77619 0.0
C278 C 0.92511 0.53066 0.85943 0.0
O279 O 0.87148 0.50419 0.8067 0.0
O280 O 0.90243 0.49362 0.81806 0.0
O281 O 0.93514 0.53472 0.84162 0.0
O282 O 0.90382 0.52641 0.85619 0.0
C283 C 0.88187 0.5643 0.82217 0.0
O284 O 0.92961 0.54367 0.79508 0.0
O285 O 0.89989 0.52071 0.7785 0.0
In286 In 0.80696 0.43133 0.50287 0.0
O287 O 0.80546 0.40234 0.52429 0.0
O288 O 0.80112 0.43407 0.54101 0.0
C289 C 0.80204 0.40748 0.46101 0.0
C290 C 0.7772 0.45725 0.50256 0.0
C291 C 0.8492 0.45237 0.50616 0.0
O292 O 0.79496 0.39883 0.47865 0.0
O293 O 0.81086 0.42807 0.4646 0.0
O294 O 0.83309 0.45878 0.49499 0.0
O295 O 0.84411 0.43481 0.51599 0.0
C296 C 0.80185 0.41377 0.54275 0.0
O297 O 0.79769 0.46403 0.51067 0.0
O298 O 0.77134 0.43672 0.49408 0.0
In299 In 0.64507 0.56076 0.29803 0.0
O300 O 0.67715 0.54652 0.30262 0.0
O301 O 0.6465 0.52363 0.2892 0.0
C302 C 0.67453 0.60048 0.30043 0.0
C303 C 0.62358 0.55709 0.25173 0.0
C304 C 0.62665 0.55915 0.3408 0.0
O305 O 0.68022 0.58161 0.29705 0.0
O306 O 0.65381 0.59942 0.30269 0.0
O307 O 0.61464 0.55786 0.32099 0.0
O308 O 0.64737 0.56164 0.33896 0.0
C309 C 0.66754 0.52649 0.29518 0.0
O310 O 0.62173 0.54096 0.26408 0.0
O311 O 0.63483 0.57526 0.26312 0.0
Tb312 Tb 0.08492 0.06254 0.05913 0.0
C313 C 1.00731 0.98662 1.00245 0.0
N314 N 0.01902 1.00662 0.99754 0.0
C315 C 0.01735 0.99091 0.95684 0.0
C316 C 1.00063 0.96788 0.98478 0.0
C317 C 0.02327 1.00914 0.97479 0.0
C318 C 1.00619 0.97013 0.96189 0.0
C319 C 0.9873 0.96539 0.03026 0.0
C320 C 1.0006 0.98535 0.02487 0.0
C321 C 0.98122 0.94654 0.01291 0.0
C322 C 0.98785 0.94778 0.99023 0.0
Tb323 Tb 0.02453 0.03555 0.02796 0.0
N324 N 1.0068 1.00389 0.04132 0.0
C325 C 0.98023 0.96512 0.05281 0.0
C326 C 0.99866 1.00412 0.0627 0.0
C327 C 0.98579 0.98467 0.06904 0.0
H328 H 0.02997 0.02533 0.96984 0.0
H329 H 0.97967 0.98496 0.08619 0.0
H330 H 0.07379 0.07226 0.11616 0.0
H331 H 0.12506 0.1171 1.00085 0.0
H332 H 1.00114 0.01944 0.07444 0.0
H333 H 0.97001 0.95012 0.05765 0.0
H334 H 0.10412 0.08161 0.0108 0.0
H335 H 0.02079 0.9931 0.93891 0.0
H336 H 0.97106 0.93104 0.01672 0.0
H337 H 0.98258 0.93322 0.97686 0.0
H338 H 0.0813 0.10419 0.14715 0.0
H339 H 1.00121 0.95617 0.94779 0.0
H340 H 0.13542 0.15053 0.03122 0.0
N341 N 0.08665 0.09112 0.08921 0.0
C342 C 0.09868 0.11128 0.085 0.0
C343 C 0.08584 0.10655 0.12961 0.0
C344 C 0.1045 0.12985 0.103 0.0
C345 C 0.08077 0.08849 0.11146 0.0
C346 C 0.09767 0.12733 0.12537 0.0
N347 N 0.10014 0.09505 0.04561 0.0
C348 C 0.10715 0.09622 0.02375 0.0
C349 C 0.11887 0.13365 0.0581 0.0
C350 C 0.10595 0.11318 0.06275 0.0
C351 C 0.12555 0.13507 0.03549 0.0
C352 C 0.11959 0.11629 0.01824 0.0
H353 H 0.10198 0.14115 0.13967 0.0
H354 H 0.12217 0.16452 0.11205 0.0
H355 H 0.13456 0.1679 0.07277 0.0
O356 O 0.11837 0.06176 0.05334 0.0
O357 O 0.06343 0.08756 0.04851 0.0
O358 O 0.03567 0.06978 0.01805 0.0
O359 O 0.10926 0.06586 0.08866 0.0
O360 O 0.08337 0.04581 0.02235 0.0
O361 O 0.0485 0.04857 0.00414 0.0
O362 O 0.99616 0.04599 0.03938 0.0
O363 O 0.04226 1.01 0.04293 0.0
O364 O 0.07919 0.02519 0.05984 0.0
O365 O 0.99576 0.03153 1.00307 0.0
O366 O 0.02974 0.05446 0.06378 0.0
O367 O 0.06165 0.04613 0.08175 0.0
C368 C 0.04778 0.08844 0.0306 0.0
C369 C 0.14145 0.05081 0.08453 0.0
C370 C 0.17012 0.02953 0.07676 0.0
C371 C 0.17639 0.03 0.10115 0.0
C372 C 0.14758 0.05122 0.10908 0.0
C373 C 0.16492 0.0407 0.11731 0.0
C374 C 0.15268 0.03972 0.06846 0.0
C375 C 0.06966 0.04693 1.00311 0.0
C376 C 0.12544 0.06423 0.076 0.0
C377 C 0.11744 0.15017 0.09837 0.0
C378 C 0.12458 0.15208 0.07602 0.0
C379 C 0.0621 1.00772 0.05353 0.0
C380 C 0.974 0.05885 0.01005 0.0
C381 C 0.94724 0.08233 0.01744 0.0
C382 C 0.95006 0.09126 0.99608 0.0
C383 C 0.97651 0.06706 0.98814 0.0
C384 C 0.95964 0.06676 0.02465 0.0
C385 C 0.9649 0.0837 0.98149 0.0
C386 C 0.04087 0.04888 0.08246 0.0
C387 C 0.98499 0.04131 0.0181 0.0
H388 H 0.19008 0.02214 0.10756 0.0
H389 H 0.13934 0.06011 0.12188 0.0
H390 H 0.16972 0.04119 0.13619 0.0
H391 H 0.14847 0.03958 0.04947 0.0
H392 H 0.93998 0.10305 0.99019 0.0
H393 H 0.98765 0.06102 0.97649 0.0
H394 H 0.95692 0.05966 0.04108 0.0
H395 H 0.96693 0.09025 0.96477 0.0
Tb396 Tb 0.26875 0.80192 0.32685 0.0
C397 C 0.32035 0.76326 0.23836 0.0
N398 N 0.32967 0.78118 0.25472 0.0
C399 C 0.36443 0.76779 0.25901 0.0
C400 C 0.3325 0.74647 0.232 0.0
C401 C 0.35149 0.78377 0.26502 0.0
C402 C 0.35485 0.74895 0.24255 0.0
C403 C 0.28786 0.74337 0.21118 0.0
C404 C 0.29844 0.76175 0.22826 0.0
C405 C 0.29958 0.72618 0.20518 0.0
C406 C 0.3219 0.72777 0.21553 0.0
Tb407 Tb 0.30634 0.80411 0.26698 0.0
N408 N 0.28773 0.77862 0.23488 0.0
C409 C 0.26601 0.74301 0.20041 0.0
C410 C 0.26716 0.77917 0.22281 0.0
C411 C 0.25583 0.76126 0.20589 0.0
H412 H 0.3589 0.79794 0.27826 0.0
H413 H 0.23933 0.76171 0.19688 0.0
H414 H 0.21777 0.81055 0.30588 0.0
H415 H 0.32426 0.83891 0.40728 0.0
H416 H 0.2594 0.79342 0.22536 0.0
H417 H 0.25723 0.72917 0.18727 0.0
H418 H 0.30854 0.80944 0.37375 0.0
H419 H 0.38167 0.76985 0.26735 0.0
H420 H 0.29166 0.71181 0.1923 0.0
H421 H 0.33086 0.71454 0.21058 0.0
H422 H 0.19514 0.83953 0.31229 0.0
H423 H 0.36481 0.73644 0.23815 0.0
H424 H 0.30538 0.87111 0.41526 0.0
N425 N 0.24442 0.82602 0.33322 0.0
C426 C 0.25101 0.84238 0.35206 0.0
C427 C 0.21103 0.84076 0.3234 0.0
C428 C 0.23858 0.85939 0.35646 0.0
C429 C 0.22418 0.82449 0.31952 0.0
C430 C 0.21845 0.85852 0.34168 0.0
N431 N 0.2822 0.82566 0.3614 0.0
C432 C 0.30059 0.82373 0.37642 0.0
C433 C 0.27864 0.85921 0.38599 0.0
C434 C 0.27057 0.84217 0.36675 0.0
C435 C 0.29851 0.85827 0.40036 0.0
C436 C 0.30929 0.84021 0.39581 0.0
H437 H 0.20833 0.87122 0.34448 0.0
H438 H 0.2375 0.89005 0.37887 0.0
H439 H 0.27274 0.89002 0.40461 0.0
O440 O 0.26957 0.77593 0.3481 0.0
O441 O 0.28482 0.83648 0.32485 0.0
O442 O 0.2942 0.81594 0.29711 0.0
O443 O 0.23808 0.78463 0.33492 0.0
O444 O 0.30466 0.79581 0.33275 0.0
O445 O 0.32727 0.80478 0.30182 0.0
O446 O 0.3051 0.83034 0.24651 0.0
O447 O 0.29901 0.7719 0.27943 0.0
O448 O 0.26806 0.77945 0.29425 0.0
O449 O 0.33662 0.82682 0.2653 0.0
O450 O 0.27262 0.8138 0.26218 0.0
O451 O 0.24964 0.79988 0.29049 0.0
C452 C 0.29592 0.83601 0.30729 0.0
C453 C 0.23909 0.76924 0.37085 0.0
C454 C 0.24253 0.75436 0.40831 0.0
C455 C 0.22047 0.75694 0.41143 0.0
C456 C 0.21699 0.7718 0.37396 0.0
C457 C 0.2078 0.76575 0.39429 0.0
C458 C 0.25182 0.76071 0.3882 0.0
C459 C 0.32438 0.79896 0.32351 0.0
C460 C 0.24773 0.77231 0.3483 0.0
C461 C 0.24666 0.87665 0.3754 0.0
C462 C 0.2667 0.87661 0.39008 0.0
C463 C 0.28207 0.76585 0.29118 0.0
C464 C 0.33772 0.84248 0.22912 0.0
C465 C 0.33517 0.85325 0.1895 0.0
C466 C 0.35814 0.85291 0.18894 0.0
C467 C 0.36078 0.84237 0.22863 0.0
C468 C 0.32506 0.8483 0.20957 0.0
C469 C 0.37092 0.84761 0.20856 0.0
C470 C 0.25269 0.8088 0.27031 0.0
C471 C 0.32685 0.83764 0.25017 0.0
H472 H 0.21284 0.75149 0.4267 0.0
H473 H 0.20658 0.77785 0.36043 0.0
H474 H 0.19065 0.76734 0.39645 0.0
H475 H 0.26871 0.75819 0.38573 0.0
H476 H 0.36617 0.85702 0.17345 0.0
H477 H 0.37098 0.83837 0.24374 0.0
H478 H 0.30732 0.84889 0.20979 0.0
H479 H 0.38871 0.84762 0.20822 0.0
Tb480 Tb 0.50885 0.03621 0.55875 0.0
C481 C 0.59021 0.08265 0.50872 0.0
N482 N 0.57519 0.06283 0.50166 0.0
C483 C 0.57298 0.0707 0.46126 0.0
C484 C 0.59681 0.09742 0.49218 0.0
C485 C 0.56724 0.05633 0.47814 0.0
C486 C 0.58768 0.09139 0.46831 0.0
C487 C 0.61589 0.10774 0.54016 0.0
C488 C 0.59978 0.08782 0.53253 0.0
C489 C 0.62223 0.12257 0.52371 0.0
C490 C 0.61271 0.11745 0.49984 0.0
Tb491 Tb 0.5693 0.04109 0.53139 0.0
N492 N 0.59291 0.07339 0.54827 0.0
C493 C 0.62539 0.11201 0.56406 0.0
C494 C 0.60307 0.07676 0.57118 0.0
C495 C 0.61911 0.09633 0.57957 0.0
H496 H 0.55711 0.03982 0.472 0.0
H497 H 0.62689 0.09911 0.59787 0.0
H498 H 0.52136 0.03976 0.61824 0.0
H499 H 0.44916 0.97564 0.49611 0.0
H500 H 0.59918 0.06427 0.5828 0.0
H501 H 0.63793 0.12711 0.57059 0.0
H502 H 0.4761 0.01144 0.50947 0.0
H503 H 0.56646 0.06558 0.44271 0.0
H504 H 0.63464 0.13798 0.52923 0.0
H505 H 0.61799 0.12898 0.48734 0.0
H506 H 0.51431 0.01486 0.6489 0.0
H507 H 0.59234 0.10232 0.45507 0.0
H508 H 0.44039 0.94818 0.52453 0.0
N509 N 0.50319 0.01553 0.5897 0.0
C510 C 0.48861 0.99536 0.58387 0.0
C511 C 0.50725 1.00902 0.63061 0.0
C512 C 0.48345 0.98087 0.60112 0.0
C513 C 0.51163 0.02294 0.61296 0.0
C514 C 0.49333 0.98778 0.62463 0.0
N515 N 0.4835 1.00389 0.54447 0.0
C516 C 0.47283 0.99942 0.52174 0.0
C517 C 0.46271 0.96892 0.55394 0.0
C518 C 0.4782 0.98948 0.56062 0.0
C519 C 0.45241 0.96381 0.53037 0.0
C520 C 0.45736 0.97923 0.51425 0.0
H521 H 0.4898 0.97713 0.6384 0.0
H522 H 0.46416 0.94884 0.6075 0.0
H523 H 0.44609 0.93834 0.56617 0.0
O524 O 0.4793 0.04719 0.54489 0.0
O525 O 0.51822 1.00319 0.5447 0.0
O526 O 0.54718 1.00747 0.52 0.0
O527 O 0.49178 0.05232 0.58249 0.0
O528 O 0.51782 0.04945 0.52643 0.0
O529 O 0.53975 0.03082 0.50544 0.0
O530 O 0.59546 0.02565 0.54613 0.0
O531 O 0.5598 0.07373 0.5448 0.0
O532 O 0.52956 0.07082 0.56713 0.0
O533 O 0.59443 0.03525 0.51095 0.0
O534 O 0.55903 0.02584 0.562 0.0
O535 O 0.53886 0.04573 0.5837 0.0
C536 C 0.53081 0.99482 0.52939 0.0
C537 C 0.45438 0.05681 0.57305 0.0
C538 C 0.42432 0.07807 0.57291 0.0
C539 C 0.41796 0.06945 0.59357 0.0
C540 C 0.44754 0.0478 0.59346 0.0
C541 C 0.42937 0.05413 0.60362 0.0
C542 C 0.44234 0.07154 0.56252 0.0
C543 C 0.52053 0.03715 0.50733 0.0
C544 C 0.47674 0.05577 0.56611 0.0
C545 C 0.46826 0.96021 0.59449 0.0
C546 C 0.45792 0.95425 0.57096 0.0
C547 C 0.54646 0.08286 0.55824 0.0
C548 C 0.61485 1.00682 0.51783 0.0
C549 C 0.64428 0.98451 0.52162 0.0
C550 C 0.63869 0.97604 0.49748 0.0
C551 C 0.60925 0.99756 0.49379 0.0
C552 C 0.6325 1.00016 0.53179 0.0
C553 C 0.62128 0.9825 0.48371 0.0
C554 C 0.55661 0.03706 0.58176 0.0
C555 C 0.60523 0.02612 0.52688 0.0
H556 H 0.4042 0.07461 0.60191 0.0
H557 H 0.4569 0.03679 0.60221 0.0
H558 H 0.42451 0.04764 0.61966 0.0
H559 H 0.44788 0.07907 0.54718 0.0
H560 H 0.64799 0.96446 0.48921 0.0
H561 H 0.59611 1.00259 0.48242 0.0
H562 H 0.6373 1.0074 0.55021 0.0
H563 H 0.61728 0.97602 0.46505 0.0
Tb564 Tb 0.32902 0.27797 0.79088 0.0
C565 C 0.24792 0.30722 0.7372 0.0
N566 N 0.26025 0.31772 0.75797 0.0
C567 C 0.26059 0.35364 0.74409 0.0
C568 C 0.24228 0.31954 0.71865 0.0
C569 C 0.26536 0.34074 0.76214 0.0
C570 C 0.24938 0.34298 0.72208 0.0
C571 C 0.2246 0.27309 0.71506 0.0
C572 C 0.23919 0.28428 0.73532 0.0
C573 C 0.22 0.28506 0.69599 0.0
C574 C 0.22886 0.30823 0.69776 0.0
Tb575 Tb 0.2673 0.29425 0.7854 0.0
N576 N 0.24424 0.27311 0.75396 0.0
C577 C 0.21445 0.25045 0.715 0.0
C578 C 0.23288 0.25169 0.75492 0.0
C579 C 0.21823 0.23985 0.73523 0.0
H580 H 0.27287 0.34936 0.77946 0.0
H581 H 0.20979 0.22264 0.73573 0.0
H582 H 0.31645 0.22273 0.79739 0.0
H583 H 0.38976 0.34651 0.84254 0.0
H584 H 0.23532 0.2438 0.77078 0.0
H585 H 0.20307 0.24126 0.69978 0.0
H586 H 0.36366 0.32742 0.8072 0.0
H587 H 0.26519 0.37183 0.74732 0.0
H588 H 0.20904 0.27673 0.68011 0.0
H589 H 0.22453 0.31739 0.68323 0.0
H590 H 0.32221 0.19932 0.82894 0.0
H591 H 0.24539 0.35306 0.70826 0.0
H592 H 0.39661 0.32588 0.87688 0.0
N593 N 0.33382 0.25353 0.81814 0.0
C594 C 0.34804 0.26266 0.83826 0.0
C595 C 0.32924 0.2172 0.83199 0.0
C596 C 0.35249 0.24958 0.85655 0.0
C597 C 0.32554 0.23079 0.81427 0.0
C598 C 0.34247 0.22669 0.85339 0.0
N599 N 0.35415 0.29715 0.82216 0.0
C600 C 0.36561 0.31869 0.8225 0.0
C601 C 0.37386 0.29511 0.86061 0.0
C602 C 0.35869 0.28512 0.84025 0.0
C603 C 0.38476 0.3176 0.86159 0.0
C604 C 0.38084 0.32935 0.84231 0.0
H605 H 0.34546 0.21607 0.867 0.0
H606 H 0.37068 0.24983 0.8914 0.0
H607 H 0.38936 0.28971 0.89498 0.0
O608 O 0.36251 0.28502 0.78187 0.0
O609 O 0.31548 0.28865 0.82426 0.0
O610 O 0.29125 0.31289 0.8154 0.0
O611 O 0.34056 0.25194 0.77182 0.0
O612 O 0.32915 0.31136 0.77967 0.0
O613 O 0.29601 0.32345 0.78851 0.0
O614 O 0.24501 0.28174 0.80935 0.0
O615 O 0.27642 0.27226 0.75582 0.0
O616 O 0.31415 0.28569 0.7565 0.0
O617 O 0.23906 0.30881 0.79025 0.0
O618 O 0.27551 0.26708 0.80445 0.0
O619 O 0.2989 0.25075 0.78283 0.0
C620 C 0.30485 0.30504 0.83061 0.0
C621 C 0.37829 0.25598 0.76038 0.0
C622 C 0.41063 0.26065 0.73804 0.0
C623 C 0.41177 0.23801 0.73931 0.0
C624 C 0.37974 0.23337 0.76132 0.0
C625 C 0.39649 0.22452 0.75097 0.0
C626 C 0.39398 0.2698 0.74889 0.0
C627 C 0.31684 0.32695 0.78254 0.0
C628 C 0.36027 0.26462 0.77146 0.0
C629 C 0.36717 0.2596 0.87712 0.0
C630 C 0.37784 0.2823 0.87914 0.0
C631 C 0.29453 0.27547 0.7448 0.0
C632 C 0.22257 0.3062 0.82581 0.0
C633 C 0.19199 0.30709 0.85065 0.0
C634 C 0.2038 0.3281 0.86221 0.0
C635 C 0.23395 0.32717 0.83776 0.0
C636 C 0.20144 0.29615 0.83227 0.0
C637 C 0.22455 0.33804 0.85578 0.0
C638 C 0.28123 0.24907 0.79449 0.0
C639 C 0.23164 0.29567 0.80537 0.0
H640 H 0.42451 0.23073 0.7311 0.0
H641 H 0.36798 0.22256 0.77023 0.0
H642 H 0.39753 0.20708 0.75185 0.0
H643 H 0.39292 0.28725 0.74787 0.0
H644 H 0.19681 0.33693 0.87619 0.0
H645 H 0.24989 0.33534 0.8328 0.0
H646 H 0.19241 0.28002 0.82302 0.0
H647 H 0.23333 0.35434 0.86472 0.0
Tb648 Tb 0.06045 1.01041 0.52646 0.0
C649 C 0.028 0.09098 0.57985 0.0
N650 N 0.01761 0.07777 0.55957 0.0
C651 C 0.98153 0.07653 0.57334 0.0
C652 C 0.01547 0.09719 0.59793 0.0
C653 C 0.99465 0.0709 0.55583 0.0
C654 C 0.99198 0.08963 0.59453 0.0
C655 C 0.06273 0.11184 0.60332 0.0
C656 C 0.05138 0.09811 0.58259 0.0
C657 C 0.05028 0.11805 0.62141 0.0
C658 C 0.02674 0.11071 0.61875 0.0
Tb659 Tb 0.04108 0.06943 0.53303 0.0
N660 N 0.06303 0.0908 0.56523 0.0
C661 C 0.08623 0.11881 0.60524 0.0
C662 C 0.08571 0.09865 0.56639 0.0
C663 C 0.09772 0.11243 0.58654 0.0
H664 H 0.98632 0.06157 0.53915 0.0
H665 H 0.11579 0.11835 0.58749 0.0
H666 H 0.115 0.02172 0.51882 0.0
H667 H 0.98772 0.95581 0.47379 0.0
H668 H 0.09454 0.09489 0.55172 0.0
H669 H 0.09559 0.12943 0.62087 0.0
H670 H 1.00802 0.98172 0.50861 0.0
H671 H 0.96335 0.07095 0.57037 0.0
H672 H 0.05871 0.12852 0.63754 0.0
H673 H 0.01739 0.11563 0.63288 0.0
H674 H 0.13824 0.01299 0.48785 0.0
H675 H 0.98174 0.094 0.60804 0.0
H676 H 1.00833 0.94513 0.44062 0.0
N677 N 0.08402 1.00355 0.49915 0.0
C678 C 0.07422 0.98924 0.4794 0.0
C679 C 0.1202 1.0064 0.4851 0.0
C680 C 0.08705 0.98322 0.46148 0.0
C681 C 0.10682 0.01174 0.50246 0.0
C682 C 0.11028 0.99217 0.46446 0.0
N683 N 0.03939 0.98704 0.49478 0.0
C684 C 0.017 0.97791 0.494 0.0
C685 C 0.04042 0.96546 0.45711 0.0
C686 C 0.05121 0.98049 0.47724 0.0
C687 C 0.01724 0.95679 0.45576 0.0
C688 C 1.00553 0.96289 0.47439 0.0
H689 H 0.12075 0.98792 0.45112 0.0
H690 H 0.08598 0.96353 0.42737 0.0
H691 H 0.04515 0.94797 0.42353 0.0
O692 O 0.0484 0.98156 0.54412 0.0
O693 O 0.04994 0.02391 0.49309 0.0
O694 O 0.02425 0.04644 0.5016 0.0
O695 O 0.08304 0.99069 0.53644 0.0
O696 O 0.02994 0.01337 0.54343 0.0
O697 O 1.01318 0.03979 0.52605 0.0
O698 O 0.05521 0.09582 0.51428 0.0
O699 O 0.05058 0.05527 0.56651 0.0
O700 O 0.0763 0.03305 0.55855 0.0
O701 O 0.02258 0.09438 0.52577 0.0
O702 O 0.07034 0.06527 0.51478 0.0
O703 O 0.08728 0.04053 0.53405 0.0
C704 C 0.03336 0.03414 0.48642 0.0
C705 C 0.07517 0.9561 0.55278 0.0
C706 C 0.07262 0.92549 0.57742 0.0
C707 C 0.09137 0.91913 0.56828 0.0
C708 C 0.09383 0.94918 0.54375 0.0
C709 C 0.10184 0.93086 0.5515 0.0
C710 C 0.06439 0.94402 0.56961 0.0
C711 C 1.01184 0.02093 0.53588 0.0
C712 C 0.0686 0.97691 0.54577 0.0
C713 C 0.07638 0.96837 0.44131 0.0
C714 C 0.05312 0.9595 0.43914 0.0
C715 C 0.0664 0.04434 0.57373 0.0
C716 C 0.0294 0.11404 0.49265 0.0
C717 C 0.02997 0.14473 0.4677 0.0
C718 C 1.01024 0.13227 0.45393 0.0
C719 C 1.00987 0.10191 0.47823 0.0
C720 C 0.03957 0.13555 0.48722 0.0
C721 C 1.00034 0.11105 0.45911 0.0
C722 C 0.08851 0.05817 0.52252 0.0
C723 C 0.03776 0.1054 0.5146 0.0
H724 H 0.09786 0.9049 0.57408 0.0
H725 H 0.1025 0.95813 0.53087 0.0
H726 H 0.11629 0.92581 0.54455 0.0
H727 H 0.05011 0.94921 0.57689 0.0
H728 H 1.00236 0.1391 0.43915 0.0
H729 H 1.00163 0.08557 0.4821 0.0
H730 H 0.05452 0.14521 0.49833 0.0
H731 H 0.98503 0.10174 0.4484 0.0
Tb732 Tb 0.30083 0.82752 0.75765 0.0
C733 C 0.25487 0.74828 0.81094 0.0
N734 N 0.27517 0.76273 0.8172 0.0
C735 C 0.26836 0.76635 0.85791 0.0
C736 C 0.24028 0.74281 0.828 0.0
C737 C 0.28245 0.77104 0.84049 0.0
C738 C 0.24711 0.75236 0.85163 0.0
C739 C 0.22827 0.72294 0.78047 0.0
C740 C 0.24884 0.73837 0.78739 0.0
C741 C 0.2136 0.71777 0.7974 0.0
C742 C 0.21955 0.7277 0.82106 0.0
Tb743 Tb 0.29587 0.76803 0.7865 0.0
N744 N 0.263 0.74435 0.77113 0.0
C745 C 0.22316 0.71305 0.75676 0.0
C746 C 0.25885 0.73367 0.74846 0.0
C747 C 0.23868 0.71822 0.74076 0.0
H748 H 0.29928 0.78086 0.846 0.0
H749 H 0.23529 0.71006 0.72262 0.0
H750 H 0.3022 0.81183 0.69898 0.0
H751 H 0.3554 0.89116 0.82109 0.0
H752 H 0.27123 0.7366 0.73652 0.0
H753 H 0.20754 0.70104 0.75075 0.0
H754 H 0.32076 0.86272 0.80615 0.0
H755 H 0.27406 0.77322 0.87627 0.0
H756 H 0.19766 0.70599 0.79242 0.0
H757 H 0.20811 0.72335 0.83394 0.0
H758 H 0.32935 0.81891 0.67066 0.0
H759 H 0.23634 0.74859 0.86525 0.0
H760 H 0.38527 0.89951 0.7951 0.0
N761 N 0.32401 0.83188 0.72857 0.0
C762 C 0.34357 0.84737 0.73529 0.0
C763 C 0.33372 0.82673 0.68889 0.0
C764 C 0.35929 0.85251 0.71918 0.0
C765 C 0.31852 0.82233 0.70536 0.0
C766 C 0.35431 0.84166 0.69588 0.0
N767 N 0.33204 0.85353 0.77337 0.0
C768 C 0.33421 0.86545 0.79531 0.0
C769 C 0.36731 0.87525 0.76567 0.0
C770 C 0.34755 0.85877 0.75825 0.0
C771 C 0.37033 0.88666 0.78874 0.0
C772 C 0.35358 0.88191 0.80353 0.0
H773 H 0.36593 0.84519 0.68297 0.0
H774 H 0.39148 0.87278 0.7145 0.0
H775 H 0.39852 0.89261 0.75518 0.0
O776 O 0.2861 0.85526 0.77004 0.0
O777 O 0.33398 0.81879 0.77278 0.0
O778 O 0.33009 0.78945 0.79694 0.0
O779 O 0.29045 0.84709 0.73281 0.0
O780 O 0.28796 0.81926 0.79034 0.0
O781 O 0.30683 0.79777 0.81187 0.0
O782 O 0.3095 0.74168 0.77019 0.0
O783 O 0.26294 0.77802 0.77371 0.0
O784 O 0.26637 0.80625 0.7487 0.0
O785 O 0.30427 0.74356 0.80697 0.0
O786 O 0.30998 0.77914 0.75569 0.0
O787 O 0.29001 0.79772 0.7326 0.0
C788 C 0.34258 0.806 0.7877 0.0
C789 C 0.27337 0.87904 0.74073 0.0
C790 C 0.25334 0.90966 0.74775 0.0
C791 C 0.25394 0.91364 0.72403 0.0
C792 C 0.27381 0.88341 0.71702 0.0
C793 C 0.26409 0.90054 0.70877 0.0
C794 C 0.26294 0.8922 0.75617 0.0
C795 C 0.3007 0.8169 0.80936 0.0
C796 C 0.28326 0.86023 0.74835 0.0
C797 C 0.3792 0.86867 0.72664 0.0
C798 C 0.3832 0.88001 0.7498 0.0
C799 C 0.25395 0.79055 0.75896 0.0
C800 C 0.33372 0.72606 0.79643 0.0
C801 C 0.35643 0.69699 0.79589 0.0
C802 C 0.37247 0.71075 0.8134 0.0
C803 C 0.3502 0.73977 0.81366 0.0
C804 C 0.337 0.70466 0.78739 0.0
C805 C 0.36941 0.73206 0.82213 0.0
C806 C 0.29782 0.77976 0.73587 0.0
C807 C 0.31206 0.73279 0.78986 0.0
H808 H 0.24649 0.92696 0.7173 0.0
H809 H 0.28162 0.87352 0.70468 0.0
H810 H 0.26446 0.90369 0.69048 0.0
H811 H 0.26239 0.88904 0.77447 0.0
H812 H 0.38731 0.70487 0.82045 0.0
H813 H 0.34791 0.75618 0.82106 0.0
H814 H 0.32423 0.69382 0.77435 0.0
H815 H 0.3818 0.7425 0.83577 0.0
Tb816 Tb 0.53624 0.0682 0.99121 0.0
C817 C 0.57552 0.01681 0.07808 0.0
N818 N 0.5584 1.00789 0.06055 0.0
C819 C 0.5745 0.97515 0.05337 0.0
C820 C 0.59335 1.00561 0.08351 0.0
C821 C 0.55743 0.98718 0.04836 0.0
C822 C 0.59268 0.9845 0.07085 0.0
C823 C 0.59231 0.04727 0.10901 0.0
C824 C 0.57502 0.03731 0.09043 0.0
C825 C 0.61066 0.03669 0.11401 0.0
C826 C 0.61114 0.01584 0.10131 0.0
Tb827 Tb 0.53355 0.03017 0.05054 0.0
N828 N 0.55704 0.04694 0.0848 0.0
C829 C 0.5903 0.06719 0.12237 0.0
C830 C 0.55391 0.06506 0.09951 0.0
C831 C 0.57071 0.07579 0.11798 0.0
H832 H 0.54363 0.97995 0.03459 0.0
H833 H 0.56841 0.09055 0.12899 0.0
H834 H 0.52829 0.11974 0.00946 0.0
H835 H 0.49592 1.00725 0.91551 0.0
H836 H 0.53847 0.07137 0.09758 0.0
H837 H 0.60324 0.07547 0.13674 0.0
H838 H 0.52469 0.02267 0.94929 0.0
H839 H 0.57373 0.95878 0.04358 0.0
H840 H 0.62427 0.04421 0.128 0.0
H841 H 0.62518 1.00765 0.10559 0.0
H842 H 0.50126 0.14361 0.99905 0.0
H843 H 0.60601 0.97526 0.07452 0.0
H844 H 0.46689 0.02873 0.90303 0.0
N845 N 0.51335 0.09284 0.98212 0.0
C846 C 0.49752 0.08593 0.96276 0.0
C847 C 0.49988 0.12732 0.98883 0.0
C848 C 0.48165 0.09912 0.95624 0.0
C849 C 0.51504 0.11352 0.99485 0.0
C850 C 0.48296 0.12001 0.96961 0.0
N851 N 0.51185 0.05256 0.95746 0.0
C852 C 0.51207 0.03228 0.94479 0.0
C853 C 0.48001 0.05691 0.93035 0.0
C854 C 0.49681 0.06517 0.94989 0.0
C855 C 0.47957 0.03571 0.91809 0.0
C856 C 0.49583 0.02349 0.92518 0.0
H857 H 0.47111 0.13067 0.96515 0.0
H858 H 0.45241 0.10078 0.93166 0.0
H859 H 0.45089 0.06376 0.90907 0.0
O860 O 0.56179 0.06665 0.9695 0.0
O861 O 0.50116 0.05339 0.9934 0.0
O862 O 0.52151 0.04296 0.02073 0.0
O863 O 0.55485 0.09851 0.98349 0.0
O864 O 0.54505 0.03347 0.98682 0.0
O865 O 0.5302 1.01015 0.01472 0.0
O866 O 0.50556 0.03068 0.06874 0.0
O867 O 0.5664 0.03835 0.03907 0.0
O868 O 0.55769 0.06867 0.02426 0.0
O869 O 0.51269 0.99928 0.05387 0.0
O870 O 0.52704 0.065 0.0574 0.0
O871 O 0.53586 0.08772 0.02692 0.0
C872 C 0.50137 0.04226 0.01101 0.0
C873 C 0.56636 0.09573 0.94548 0.0
C874 C 0.58076 0.09273 0.90764 0.0
C875 C 0.56958 0.10965 0.9006 0.0
C876 C 0.55508 0.1126 0.9384 0.0
C877 C 0.55676 0.11951 0.91598 0.0
C878 C 0.57903 0.08586 0.93003 0.0
C879 C 0.53927 0.01337 0.99465 0.0
C880 C 0.56579 0.08833 0.96896 0.0
C881 C 0.46488 0.09097 0.9368 0.0
C882 C 0.46403 0.06989 0.92392 0.0
C883 C 0.57182 0.05528 0.02721 0.0
C884 C 0.49729 1.00025 0.09021 0.0
C885 C 0.48467 1.00484 0.12886 0.0
C886 C 0.49109 0.98476 0.13396 0.0
C887 C 0.50374 0.98009 0.09535 0.0
C888 C 0.48759 0.0125 0.10705 0.0
C889 C 0.50059 0.97241 0.11719 0.0
C890 C 0.52982 0.08458 0.04845 0.0
C891 C 0.50056 1.00889 0.06759 0.0
H892 H 0.57106 0.11546 0.88342 0.0
H893 H 0.54512 0.12051 0.95011 0.0
H894 H 0.54827 0.13263 0.91058 0.0
H895 H 0.58756 0.0727 0.93547 0.0
H896 H 0.48864 0.97864 0.15084 0.0
H897 H 0.5112 0.9703 0.08259 0.0
H898 H 0.48232 0.02799 0.10328 0.0
H899 H 0.5055 0.95687 0.12111 0.0
Tb900 Tb 0.27405 0.25379 0.25898 0.0
C901 C 0.35057 0.32923 0.31532 0.0
N902 N 0.33067 0.31776 0.32077 0.0
C903 C 0.34734 0.31902 0.36109 0.0
C904 C 0.36967 0.33596 0.33264 0.0
C905 C 0.32873 0.31301 0.34346 0.0
C906 C 0.36791 0.33048 0.35566 0.0
C907 C 0.37147 0.34803 0.28656 0.0
C908 C 0.35152 0.3351 0.29247 0.0
C909 C 0.39059 0.35449 0.3037 0.0
C910 C 0.38969 0.34846 0.32665 0.0
Tb911 Tb 0.3011 0.31227 0.29112 0.0
N912 N 0.33259 0.3289 0.27636 0.0
C913 C 0.37137 0.35484 0.26388 0.0
C914 C 0.33197 0.33719 0.25504 0.0
C915 C 0.3514 0.34963 0.24816 0.0
H916 H 0.3127 0.30569 0.34855 0.0
H917 H 0.35071 0.35597 0.23111 0.0
H918 H 0.26514 0.2632 0.20154 0.0
H919 H 0.21856 0.21492 0.31716 0.0
H920 H 0.31632 0.33585 0.244 0.0
H921 H 0.3863 0.36493 0.25871 0.0
H922 H 0.25454 0.23444 0.30686 0.0
H923 H 0.34563 0.31531 0.37903 0.0
H924 H 0.40602 0.36453 0.29951 0.0
H925 H 0.40449 0.3539 0.33979 0.0
H926 H 0.23332 0.25536 0.16998 0.0
H927 H 0.38218 0.33547 0.36949 0.0
H928 H 0.18471 0.20578 0.28709 0.0
N929 N 0.24558 0.25133 0.22841 0.0
C930 C 0.225 0.24031 0.23276 0.0
C931 C 0.23066 0.25139 0.18765 0.0
C932 C 0.20654 0.23434 0.21457 0.0
C933 C 0.24865 0.25654 0.20602 0.0
C934 C 0.20953 0.24024 0.19191 0.0
N935 N 0.24101 0.23946 0.27238 0.0
C936 C 0.23978 0.23222 0.29413 0.0
C937 C 0.20193 0.22177 0.26009 0.0
C938 C 0.22271 0.23401 0.25532 0.0
C939 C 0.20037 0.21528 0.28276 0.0
C940 C 0.2194 0.2205 0.29982 0.0
H941 H 0.19579 0.23581 0.17746 0.0
H942 H 0.17158 0.21716 0.20547 0.0
H943 H 0.16754 0.20621 0.24528 0.0
O944 O 0.27905 0.222 0.26691 0.0
O945 O 0.24939 0.27612 0.26803 0.0
O946 O 0.26668 0.30092 0.30085 0.0
O947 O 0.26831 0.22747 0.23126 0.0
O948 O 0.29077 0.25487 0.29599 0.0
O949 O 0.28682 0.28884 0.31461 0.0
O950 O 0.29276 0.3417 0.2805 0.0
O951 O 0.32699 0.29166 0.28257 0.0
O952 O 0.31022 0.26337 0.25233 0.0
O953 O 0.30475 0.34003 0.31716 0.0
O954 O 0.28296 0.30857 0.25464 0.0
O955 O 0.2908 0.27657 0.2365 0.0
C956 C 0.24813 0.29003 0.28716 0.0
C957 C 0.2876 0.19804 0.23502 0.0
C958 C 0.30887 0.16905 0.2413 0.0
C959 C 0.30832 0.16376 0.21675 0.0
C960 C 0.28725 0.19303 0.21032 0.0
C961 C 0.29771 0.176 0.20128 0.0
C962 C 0.29869 0.18615 0.25036 0.0
C963 C 0.28908 0.26793 0.31545 0.0
C964 C 0.27382 0.21312 0.24476 0.0
C965 C 0.18586 0.2221 0.21931 0.0
C966 C 0.18356 0.21585 0.24199 0.0
C967 C 0.32864 0.27622 0.26503 0.0
C968 C 0.28184 0.36634 0.30937 0.0
C969 C 0.262 0.39546 0.29951 0.0
C970 C 0.25856 0.39997 0.32325 0.0
C971 C 0.27827 0.37051 0.33324 0.0
C972 C 0.27326 0.37861 0.29258 0.0
C973 C 0.26647 0.38724 0.34008 0.0
C974 C 0.2878 0.29714 0.23572 0.0
C975 C 0.29741 0.35229 0.30202 0.0
H976 H 0.31604 0.15027 0.20968 0.0
H977 H 0.27836 0.20177 0.19799 0.0
H978 H 0.29719 0.17198 0.18229 0.0
H979 H 0.29857 0.18942 0.26941 0.0
H980 H 0.25027 0.41357 0.32877 0.0
H981 H 0.28521 0.36147 0.34666 0.0
H982 H 0.27658 0.3761 0.27425 0.0
H983 H 0.26412 0.39082 0.35851 0.0
Tb984 Tb 0.55993 0.50843 0.02738 0.0
C985 C 0.52639 0.5884 0.07889 0.0
N986 N 0.51728 0.57513 0.05819 0.0
C987 C 0.48014 0.57282 0.0699 0.0
C988 C 0.51269 0.59373 0.09626 0.0
C989 C 0.49428 0.5687 0.05288 0.0
C990 C 0.48942 0.58505 0.09187 0.0
C991 C 0.55863 0.6145 0.10155 0.0
C992 C 0.54918 0.5985 0.08172 0.0
C993 C 0.54528 0.61898 0.11939 0.0
C994 C 0.52241 0.6085 0.11683 0.0
Tb995 Tb 0.54282 0.56977 0.03249 0.0
N996 N 0.56183 0.5935 0.06439 0.0
C997 C 0.5811 0.62586 0.10254 0.0
C998 C 0.58319 0.6056 0.06441 0.0
C999 C 0.59333 0.62158 0.08372 0.0
H1000 H 0.48654 0.56071 0.03541 0.0
H1001 H 0.61047 0.63071 0.08401 0.0
H1002 H 0.61477 0.5204 0.01887 0.0
H1003 H 0.48955 0.4475 0.97902 0.0
H1004 H 0.59234 0.6027 0.04957 0.0
H1005 H 0.58897 0.63829 0.11746 0.0
H1006 H 0.50932 0.47535 0.01266 0.0
H1007 H 0.46203 0.56709 0.06582 0.0
H1008 H 0.55233 0.63095 0.13495 0.0
H1009 H 0.51216 0.61265 0.13043 0.0
H1010 H 0.63732 0.51323 0.98691 0.0
H1011 H 0.47835 0.58868 0.10481 0.0
H1012 H 0.50964 0.43806 0.94497 0.0
N1013 N 0.58343 0.50277 0.99939 0.0
C1014 C 0.57373 0.48784 0.98 0.0
C1015 C 0.61935 0.50634 0.98449 0.0
C1016 C 0.58631 0.48244 0.96156 0.0
C1017 C 0.60625 0.51094 1.00241 0.0
C1018 C 0.60927 0.49233 0.96378 0.0
N1019 N 0.53961 0.48295 0.99709 0.0
C1020 C 0.51788 0.47213 0.99749 0.0
C1021 C 0.5408 0.46119 0.95959 0.0
C1022 C 0.55124 0.47732 0.979 0.0
C1023 C 0.51827 0.45054 0.95955 0.0
C1024 C 0.50682 0.45595 0.97866 0.0
H1025 H 0.61952 0.48861 0.95004 0.0
H1026 H 0.58515 0.4627 0.92745 0.0
H1027 H 0.54529 0.44412 0.9257 0.0
O1028 O 0.5526 0.47541 0.03722 0.0
O1029 O 0.54787 0.52094 0.99364 0.0
O1030 O 0.52478 0.5468 1.00166 0.0
O1031 O 0.58634 0.49651 0.04565 0.0
O1032 O 0.5277 0.50962 0.04108 0.0
O1033 O 0.51435 0.54023 0.02746 0.0
O1034 O 0.55509 0.59197 0.00828 0.0
O1035 O 0.56515 0.56157 0.06271 0.0
O1036 O 0.55331 0.52361 0.06193 0.0
O1037 O 0.52872 0.59825 0.02826 0.0
O1038 O 0.57047 0.56175 0.01406 0.0
O1039 O 0.58759 0.53835 0.03485 0.0
C1040 C 0.53282 0.5331 0.98683 0.0
C1041 C 0.5817 0.45917 0.05822 0.0
C1042 C 0.57619 0.42577 0.07893 0.0
C1043 C 0.59907 0.42489 0.07841 0.0
C1044 C 0.60455 0.45798 0.05816 0.0
C1045 C 0.61313 0.44091 0.06814 0.0
C1046 C 0.5674 0.44298 0.06874 0.0
C1047 C 0.51135 0.52043 0.03559 0.0
C1048 C 0.57328 0.47724 0.04693 0.0
C1049 C 0.57578 0.46691 0.94185 0.0
C1050 C 0.5531 0.45628 0.94088 0.0
C1051 C 0.56366 0.54321 0.0734 0.0
C1052 C 0.53051 0.61512 0.99298 0.0
C1053 C 0.52963 0.64563 0.968 0.0
C1054 C 0.50702 0.63568 0.95935 0.0
C1055 C 0.50813 0.60548 0.98348 0.0
C1056 C 0.54132 0.63535 0.98523 0.0
C1057 C 0.49646 0.61582 0.96693 0.0
C1058 C 0.58879 0.5566 0.02419 0.0
C1059 C 0.54155 0.60559 0.01284 0.0
H1060 H 0.60611 0.41179 0.08614 0.0
H1061 H 0.61578 0.47014 0.0501 0.0
H1062 H 0.63075 0.44007 0.0679 0.0
H1063 H 0.54973 0.44372 0.06898 0.0
H1064 H 0.49736 0.64339 0.94664 0.0
H1065 H 0.49945 0.5902 0.98932 0.0
H1066 H 0.55858 0.64298 0.99255 0.0
H1067 H 0.47905 0.60849 0.96007 0.0
Tb1068 Tb 0.80096 0.32884 0.2575 0.0
C1069 C 0.75489 0.24853 0.31006 0.0
N1070 N 0.77514 0.26319 0.31623 0.0
C1071 C 0.76793 0.26755 0.35683 0.0
C1072 C 0.7401 0.24355 0.32707 0.0
C1073 C 0.78229 0.27168 0.33954 0.0
C1074 C 0.74665 0.25368 0.35054 0.0
C1075 C 0.72884 0.22184 0.28016 0.0
C1076 C 0.74922 0.23764 0.28676 0.0
C1077 C 0.71392 0.21735 0.29701 0.0
C1078 C 0.71951 0.22819 0.32034 0.0
Tb1079 Tb 0.79593 0.26722 0.28535 0.0
N1080 N 0.76352 0.24291 0.27043 0.0
C1081 C 0.72414 0.21091 0.25681 0.0
C1082 C 0.75994 0.23106 0.24832 0.0
C1083 C 0.73995 0.21528 0.24094 0.0
H1084 H 0.79919 0.28121 0.34528 0.0
H1085 H 0.73694 0.20622 0.2232 0.0
H1086 H 0.80247 0.31157 0.19849 0.0
H1087 H 0.85567 0.39371 0.31929 0.0
H1088 H 0.77272 0.23325 0.2367 0.0
H1089 H 0.70866 0.19862 0.25107 0.0
H1090 H 0.82105 0.36482 0.30527 0.0
H1091 H 0.7735 0.27469 0.37514 0.0
H1092 H 0.69811 0.20535 0.29223 0.0
H1093 H 0.70792 0.22427 0.3332 0.0
H1094 H 0.82995 0.3173 0.17063 0.0
H1095 H 0.73571 0.2503 0.3641 0.0
H1096 H 0.8855 0.40106 0.29308 0.0
N1097 N 0.82429 0.33164 0.22827 0.0
C1098 C 0.8439 0.34718 0.23474 0.0
C1099 C 0.83428 0.32546 0.18874 0.0
C1100 C 0.85978 0.35168 0.21862 0.0
C1101 C 0.81887 0.32177 0.20511 0.0
C1102 C 0.85495 0.34022 0.19559 0.0
N1103 N 0.83217 0.35495 0.27257 0.0
C1104 C 0.83441 0.36742 0.29422 0.0
C1105 C 0.86756 0.37598 0.26436 0.0
C1106 C 0.84777 0.35944 0.25735 0.0
C1107 C 0.87054 0.38815 0.28706 0.0
C1108 C 0.85378 0.384 0.30196 0.0
H1109 H 0.8667 0.34324 0.18271 0.0
H1110 H 0.89206 0.37151 0.21355 0.0
H1111 H 0.8989 0.39267 0.25357 0.0
O1112 O 0.78739 0.35741 0.26968 0.0
O1113 O 0.83387 0.32104 0.27476 0.0
O1114 O 0.8314 0.28671 0.29145 0.0
O1115 O 0.79011 0.34772 0.23223 0.0
O1116 O 0.78895 0.31816 0.28975 0.0
O1117 O 0.80753 0.29651 0.31111 0.0
O1118 O 0.81028 0.24124 0.26902 0.0
O1119 O 0.76292 0.27598 0.27044 0.0
O1120 O 0.76549 0.30973 0.25336 0.0
O1121 O 0.80339 0.24219 0.30528 0.0
O1122 O 0.80823 0.28205 0.25577 0.0
O1123 O 0.78906 0.29979 0.23177 0.0
C1124 C 0.84312 0.30591 0.28589 0.0
C1125 C 0.77426 0.38046 0.23992 0.0
C1126 C 0.75438 0.41114 0.24667 0.0
C1127 C 0.75496 0.41497 0.2229 0.0
C1128 C 0.77469 0.3846 0.21614 0.0
C1129 C 0.76504 0.40171 0.20772 0.0
C1130 C 0.76393 0.39376 0.25524 0.0
C1131 C 0.80232 0.316 0.30839 0.0
C1132 C 0.78386 0.36163 0.24777 0.0
C1133 C 0.87969 0.36792 0.22571 0.0
C1134 C 0.88357 0.38002 0.24849 0.0
C1135 C 0.75357 0.29107 0.25958 0.0
C1136 C 0.83329 0.22492 0.29621 0.0
C1137 C 0.85686 0.19648 0.2954 0.0
C1138 C 0.87041 0.20865 0.31586 0.0
C1139 C 0.84766 0.23714 0.3161 0.0
C1140 C 0.83798 0.20455 0.28578 0.0
C1141 C 0.86591 0.22885 0.32599 0.0
C1142 C 0.79552 0.2815 0.23612 0.0
C1143 C 0.81195 0.23185 0.28848 0.0
H1144 H 0.74752 0.42827 0.2161 0.0
H1145 H 0.78243 0.37454 0.20389 0.0
H1146 H 0.76538 0.4047 0.18939 0.0
H1147 H 0.76334 0.39072 0.27357 0.0
H1148 H 0.88457 0.20247 0.3241 0.0
H1149 H 0.84433 0.25273 0.32455 0.0
H1150 H 0.82697 0.19502 0.27046 0.0
H1151 H 0.87649 0.23801 0.34172 0.0
Tb1152 Tb 0.03948 0.56913 0.49339 0.0
C1153 C 0.07823 0.51523 0.58108 0.0
N1154 N 0.06158 0.50764 0.56259 0.0
C1155 C 0.07586 0.47375 0.55528 0.0
C1156 C 0.09501 0.50279 0.58673 0.0
C1157 C 0.05986 0.48692 0.55004 0.0
C1158 C 0.09368 0.48183 0.5735 0.0
C1159 C 0.09635 0.54503 0.61247 0.0
C1160 C 0.07884 0.53598 0.59382 0.0
C1161 C 0.11337 0.5329 0.61792 0.0
C1162 C 0.11267 0.51181 0.60512 0.0
Tb1163 Tb 0.03834 0.53187 0.55336 0.0
N1164 N 0.06279 0.54774 0.58703 0.0
C1165 C 0.09632 0.56606 0.62487 0.0
C1166 C 0.06182 0.56751 0.60023 0.0
C1167 C 0.07874 0.57714 0.619 0.0
H1168 H 0.04613 0.48035 0.53599 0.0
H1169 H 0.07814 0.59308 0.62897 0.0
H1170 H 0.02937 0.6192 0.51062 0.0
H1171 H 1.00019 0.50605 0.41857 0.0
H1172 H 0.048 0.57596 0.59683 0.0
H1173 H 0.10952 0.57366 0.63926 0.0
H1174 H 0.03019 0.52394 0.45017 0.0
H1175 H 0.07452 0.45742 0.54515 0.0
H1176 H 0.12711 0.53967 0.63201 0.0
H1177 H 0.12589 0.50263 0.60953 0.0
H1178 H 1.00051 0.64148 0.50082 0.0
H1179 H 0.10623 0.47172 0.57728 0.0
H1180 H 0.96789 0.52422 0.40845 0.0
N1181 N 1.01463 0.59167 0.48409 0.0
C1182 C 0.99785 0.58335 0.46601 0.0
C1183 C 0.99949 0.6251 0.49094 0.0
C1184 C 0.98076 0.59535 0.46003 0.0
C1185 C 0.01582 0.61237 0.49646 0.0
C1186 C 0.98178 0.6165 0.47274 0.0
N1187 N 1.0146 0.55165 0.46038 0.0
C1188 C 0.01602 0.53198 0.44716 0.0
C1189 C 0.98028 0.55296 0.43524 0.0
C1190 C 0.99767 0.56249 0.4539 0.0
C1191 C 0.98095 0.53215 0.42285 0.0
C1192 C 0.9991 0.52181 0.4286 0.0
H1193 H 0.96903 0.62631 0.46865 0.0
H1194 H 0.94981 0.59466 0.437 0.0
H1195 H 0.94935 0.55747 0.41526 0.0
O1196 O 0.06574 0.56954 0.47263 0.0
O1197 O 1.00643 0.56053 0.50446 0.0
O1198 O 0.01702 0.53182 0.52038 0.0
O1199 O 0.05947 0.60045 0.49001 0.0
O1200 O 0.04885 0.53498 0.48771 0.0
O1201 O 0.03777 0.51215 0.51753 0.0
O1202 O 1.01312 0.53424 0.57516 0.0
O1203 O 0.07322 0.54598 0.54964 0.0
O1204 O 0.05284 0.55769 0.52344 0.0
O1205 O 0.01896 0.50192 0.56106 0.0
O1206 O 0.03032 0.5666 0.55786 0.0
O1207 O 0.04423 0.58941 0.52916 0.0
C1208 C 1.00221 0.54454 0.51773 0.0
C1209 C 0.07171 0.60066 0.45219 0.0
C1210 C 0.0846 0.598 0.41376 0.0
C1211 C 0.0726 0.61433 0.40698 0.0
C1212 C 0.05963 0.61713 0.44564 0.0
C1213 C 0.06028 0.62405 0.42307 0.0
C1214 C 0.08441 0.59147 0.43631 0.0
C1215 C 0.04541 0.51525 0.49663 0.0
C1216 C 0.07048 0.59141 0.47463 0.0
C1217 C 0.96321 0.58579 0.44175 0.0
C1218 C 0.96293 0.56461 0.42942 0.0
C1219 C 0.07303 0.55761 0.53239 0.0
C1220 C 1.00295 0.504 0.59698 0.0
C1221 C 0.98462 0.50687 0.63237 0.0
C1222 C 0.9885 0.48567 0.63697 0.0
C1223 C 1.00703 0.4828 0.6017 0.0
C1224 C 0.99183 0.51604 0.61252 0.0
C1225 C 0.99981 0.47373 0.62169 0.0
C1226 C 0.03592 0.58642 0.54965 0.0
C1227 C 1.00744 0.51251 0.57462 0.0
H1228 H 0.07292 0.61959 0.38944 0.0
H1229 H 0.04956 0.62441 0.45772 0.0
H1230 H 0.05106 0.63675 0.41797 0.0
H1231 H 0.09369 0.57866 0.44124 0.0
H1232 H 0.98275 0.47841 0.65233 0.0
H1233 H 0.01528 0.47302 0.58973 0.0
H1234 H 0.98821 0.53225 0.6089 0.0
H1235 H 1.00271 0.4573 0.62516 0.0
Tb1236 Tb 0.82884 0.77716 0.29005 0.0
C1237 C 0.74759 0.80952 0.23853 0.0
N1238 N 0.76177 0.81892 0.25861 0.0
C1239 C 0.76422 0.85546 0.24562 0.0
C1240 C 0.74176 0.82273 0.22087 0.0
C1241 C 0.76889 0.84182 0.26297 0.0
C1242 C 0.7509 0.84584 0.2243 0.0
C1243 C 0.72076 0.77711 0.21729 0.0
C1244 C 0.73734 0.78692 0.23657 0.0
C1245 C 0.71562 0.79001 0.19921 0.0
C1246 C 0.7262 0.81272 0.20093 0.0
Tb1247 Tb 0.76755 0.79427 0.28519 0.0
N1248 N 0.74303 0.77471 0.25406 0.0
C1249 C 0.70965 0.75472 0.21697 0.0
C1250 C 0.73123 0.7534 0.2547 0.0
C1251 C 0.71475 0.7429 0.2359 0.0
H1252 H 0.77772 0.84991 0.27999 0.0
H1253 H 0.70584 0.72582 0.23615 0.0
H1254 H 0.8162 0.72279 0.29987 0.0
H1255 H 0.88642 0.84958 0.33908 0.0
H1256 H 0.73465 0.74461 0.2697 0.0
H1257 H 0.69682 0.74658 0.20245 0.0
H1258 H 0.85813 0.82949 0.30601 0.0
H1259 H 0.7704 0.87349 0.24897 0.0
H1260 H 0.70316 0.7827 0.18408 0.0
H1261 H 0.72162 0.8226 0.18713 0.0
H1262 H 0.82545 0.70068 0.33156 0.0
H1263 H 0.74688 0.85655 0.21112 0.0
H1264 H 0.8993 0.82909 0.37147 0.0
N1265 N 0.8353 0.75406 0.31805 0.0
C1266 C 0.85114 0.76393 0.3367 0.0
C1267 C 0.83251 0.71854 0.33344 0.0
C1268 C 0.85766 0.75154 0.3549 0.0
C1269 C 0.8268 0.7314 0.31569 0.0
C1270 C 0.84781 0.72869 0.35326 0.0
N1271 N 0.85378 0.79832 0.32019 0.0
C1272 C 0.86291 0.82057 0.32039 0.0
C1273 C 0.87757 0.79728 0.35655 0.0
C1274 C 0.86103 0.78659 0.33753 0.0
C1275 C 0.88667 0.82023 0.35709 0.0
C1276 C 0.8793 0.8319 0.33894 0.0
H1277 H 0.85235 0.7186 0.36689 0.0
H1278 H 0.87909 0.75296 0.38811 0.0
H1279 H 0.89646 0.79299 0.3896 0.0
O1280 O 0.86204 0.78542 0.2806 0.0
O1281 O 0.81632 0.78847 0.32402 0.0
O1282 O 0.79139 0.8122 0.31556 0.0
O1283 O 0.84204 0.75114 0.27308 0.0
O1284 O 0.8265 0.80807 0.27431 0.0
O1285 O 0.7975 0.82227 0.29019 0.0
O1286 O 0.74495 0.78216 0.30914 0.0
O1287 O 0.77526 0.77214 0.25459 0.0
O1288 O 0.81358 0.78269 0.25501 0.0
O1289 O 0.74003 0.80974 0.29037 0.0
O1290 O 0.77535 0.76638 0.30336 0.0
O1291 O 0.79897 0.74963 0.28239 0.0
C1292 C 0.80445 0.80375 0.33075 0.0
C1293 C 0.8798 0.75664 0.26148 0.0
C1294 C 0.91301 0.76231 0.24043 0.0
C1295 C 0.91618 0.74066 0.24426 0.0
C1296 C 0.88323 0.73499 0.26486 0.0
C1297 C 0.90135 0.72711 0.25634 0.0
C1298 C 0.89475 0.7704 0.24914 0.0
C1299 C 0.81648 0.82478 0.28038 0.0
C1300 C 0.86109 0.76468 0.27182 0.0
C1301 C 0.87397 0.76222 0.37395 0.0
C1302 C 0.88394 0.78499 0.37474 0.0
C1303 C 0.79356 0.77309 0.24376 0.0
C1304 C 0.7228 0.80724 0.3255 0.0
C1305 C 0.69266 0.80757 0.35103 0.0
C1306 C 0.70371 0.82922 0.36156 0.0
C1307 C 0.73307 0.82906 0.33608 0.0
C1308 C 0.70231 0.79654 0.33284 0.0
C1309 C 0.72368 0.83985 0.35412 0.0
C1310 C 0.78075 0.74826 0.29318 0.0
C1311 C 0.73208 0.79657 0.30524 0.0
H1312 H 0.93014 0.73419 0.23774 0.0
H1313 H 0.87207 0.72427 0.27447 0.0
H1314 H 0.90396 0.71044 0.25918 0.0
H1315 H 0.89229 0.78718 0.24645 0.0
H1316 H 0.69664 0.83812 0.37543 0.0
H1317 H 0.74834 0.83788 0.33027 0.0
H1318 H 0.69391 0.77989 0.32441 0.0
H1319 H 0.73181 0.85665 0.36223 0.0
Tb1320 Tb 0.76906 0.30325 0.82666 0.0
C1321 C 0.81885 0.26008 0.73859 0.0
N1322 N 0.82843 0.27767 0.75527 0.0
C1323 C 0.86262 0.26326 0.75955 0.0
C1324 C 0.83056 0.24295 0.73209 0.0
C1325 C 0.85012 0.2796 0.76565 0.0
C1326 C 0.85274 0.24472 0.74284 0.0
C1327 C 0.78652 0.24145 0.71047 0.0
C1328 C 0.79724 0.25941 0.72801 0.0
C1329 C 0.79777 0.22392 0.70438 0.0
C1330 C 0.8198 0.22471 0.71512 0.0
Tb1331 Tb 0.80607 0.30201 0.76664 0.0
N1332 N 0.787 0.27668 0.73456 0.0
C1333 C 0.76504 0.24187 0.69925 0.0
C1334 C 0.76678 0.2779 0.72214 0.0
C1335 C 0.75533 0.26043 0.7048 0.0
H1336 H 0.85789 0.29377 0.77863 0.0
H1337 H 0.73913 0.26146 0.6955 0.0
H1338 H 0.71693 0.30978 0.80881 0.0
H1339 H 0.83157 0.34745 0.89963 0.0
H1340 H 0.75932 0.29232 0.72471 0.0
H1341 H 0.75618 0.2284 0.68574 0.0
H1342 H 0.81585 0.31747 0.86729 0.0
H1343 H 0.87982 0.26491 0.76787 0.0
H1344 H 0.78974 0.2099 0.69111 0.0
H1345 H 0.82844 0.21126 0.71004 0.0
H1346 H 0.69275 0.33686 0.81783 0.0
H1347 H 0.86238 0.23198 0.73828 0.0
H1348 H 0.80962 0.37621 0.9113 0.0
N1349 N 0.74411 0.32592 0.83528 0.0
C1350 C 0.75123 0.34253 0.85376 0.0
C1351 C 0.70925 0.33879 0.82797 0.0
C1352 C 0.7379 0.35844 0.85958 0.0
C1353 C 0.72319 0.32359 0.82269 0.0
C1354 C 0.71671 0.35643 0.84635 0.0
N1355 N 0.78494 0.3288 0.85949 0.0
C1356 C 0.80582 0.32966 0.87168 0.0
C1357 C 0.78079 0.36157 0.88507 0.0
C1358 C 0.77228 0.34395 0.86646 0.0
C1359 C 0.80242 0.36287 0.89698 0.0
C1360 C 0.81489 0.34672 0.89037 0.0
H1361 H 0.70594 0.3683 0.85027 0.0
H1362 H 0.7363 0.38844 0.88279 0.0
H1363 H 0.77395 0.39128 0.90501 0.0
O1364 O 0.77074 0.27762 0.84818 0.0
O1365 O 0.78509 0.33748 0.82334 0.0
O1366 O 0.79568 0.31589 0.79723 0.0
O1367 O 0.73874 0.2849 0.83459 0.0
O1368 O 0.8037 0.29386 0.83194 0.0
O1369 O 0.82681 0.3038 0.8019 0.0
O1370 O 0.80541 0.32853 0.74649 0.0
O1371 O 0.79526 0.2695 0.77801 0.0
O1372 O 0.7672 0.28186 0.79368 0.0
O1373 O 0.83706 0.32234 0.76247 0.0
O1374 O 0.77301 0.31302 0.76079 0.0
O1375 O 0.74986 0.3037 0.79071 0.0
C1376 C 0.79677 0.33629 0.80621 0.0
C1377 C 0.74044 0.26946 0.87059 0.0
C1378 C 0.74294 0.25166 0.90622 0.0
C1379 C 0.72269 0.2575 0.91177 0.0
C1380 C 0.72007 0.27544 0.87603 0.0
C1381 C 0.71128 0.26943 0.89663 0.0
C1382 C 0.75177 0.25759 0.88581 0.0
C1383 C 0.8237 0.29718 0.82324 0.0
C1384 C 0.74888 0.273 0.84803 0.0
C1385 C 0.74623 0.37596 0.87818 0.0
C1386 C 0.76765 0.37755 0.89086 0.0
C1387 C 0.77907 0.26641 0.79125 0.0
C1388 C 0.83652 0.33771 0.72606 0.0
C1389 C 0.83298 0.35206 0.68829 0.0
C1390 C 0.85405 0.34737 0.68411 0.0
C1391 C 0.85764 0.33291 0.7219 0.0
C1392 C 0.82429 0.34735 0.70914 0.0
C1393 C 0.86633 0.33775 0.70091 0.0
C1394 C 0.75323 0.31053 0.76951 0.0
C1395 C 0.82731 0.33396 0.74822 0.0
H1396 H 0.71571 0.25267 0.92761 0.0
H1397 H 0.71075 0.28429 0.86423 0.0
H1398 H 0.69549 0.27377 0.9007 0.0
H1399 H 0.76728 0.25252 0.8816 0.0
H1400 H 0.86091 0.35114 0.66789 0.0
H1401 H 0.86747 0.32562 0.73485 0.0
H1402 H 0.80807 0.35142 0.71222 0.0
H1403 H 0.88262 0.33414 0.69772 0.0
Tb1404 Tb 0.77575 0.75346 0.75801 0.0
C1405 C 0.84933 0.83243 0.81896 0.0
N1406 N 0.82811 0.82305 0.82292 0.0
C1407 C 0.84014 0.82849 0.86497 0.0
C1408 C 0.86699 0.83945 0.83787 0.0
C1409 C 0.82304 0.82243 0.84573 0.0
C1410 C 0.86232 0.83659 0.86099 0.0
C1411 C 0.87327 0.85053 0.79213 0.0
C1412 C 0.85254 0.83778 0.79635 0.0
C1413 C 0.8914 0.85607 0.81051 0.0
C1414 C 0.8883 0.85046 0.83332 0.0
Tb1415 Tb 0.8021 0.81347 0.7895 0.0
N1416 N 0.83454 0.83256 0.77908 0.0
C1417 C 0.87465 0.8585 0.77005 0.0
C1418 C 0.83506 0.84226 0.75859 0.0
C1419 C 0.85528 0.85481 0.75341 0.0
H1420 H 0.80575 0.81714 0.84908 0.0
H1421 H 0.85581 0.86192 0.73682 0.0
H1422 H 0.76651 0.76497 0.70127 0.0
H1423 H 0.72311 0.69561 0.80468 0.0
H1424 H 0.81979 0.84047 0.74648 0.0
H1425 H 0.89024 0.86848 0.76616 0.0
H1426 H 0.75878 0.71742 0.7962 0.0
H1427 H 0.83613 0.82728 0.88288 0.0
H1428 H 0.90758 0.86561 0.80756 0.0
H1429 H 0.90215 0.85578 0.84759 0.0
H1430 H 0.73428 0.76153 0.67095 0.0
H1431 H 0.87545 0.84175 0.87599 0.0
H1432 H 0.68774 0.6944 0.77841 0.0
N1433 N 0.74704 0.75207 0.72774 0.0
C1434 C 0.72646 0.74044 0.73134 0.0
C1435 C 0.7317 0.75609 0.68809 0.0
C1436 C 0.70754 0.73711 0.71373 0.0
C1437 C 0.74998 0.75882 0.7059 0.0
C1438 C 0.7103 0.74554 0.69215 0.0
N1439 N 0.74366 0.73191 0.76757 0.0
C1440 C 0.74339 0.71865 0.78554 0.0
C1441 C 0.70402 0.71665 0.75536 0.0
C1442 C 0.72473 0.73014 0.75189 0.0
C1443 C 0.70331 0.70491 0.77515 0.0
C1444 C 0.72319 0.7056 0.79006 0.0
H1445 H 0.69626 0.74307 0.6781 0.0
H1446 H 0.67206 0.72187 0.70434 0.0
H1447 H 0.66894 0.70414 0.74088 0.0
O1448 O 0.78548 0.72298 0.76359 0.0
O1449 O 0.7508 0.77488 0.76863 0.0
O1450 O 0.76933 0.7994 0.80132 0.0
O1451 O 0.77333 0.72966 0.72801 0.0
O1452 O 0.78013 0.75379 0.79673 0.0
O1453 O 0.80028 0.78849 0.81484 0.0
O1454 O 0.78289 0.83587 0.77658 0.0
O1455 O 0.8267 0.79885 0.76968 0.0
O1456 O 0.81395 0.76037 0.76542 0.0
O1457 O 0.80622 0.84516 0.80898 0.0
O1458 O 0.78366 0.80785 0.7533 0.0
O1459 O 0.79283 0.77656 0.73566 0.0
C1460 C 0.7503 0.78868 0.78821 0.0
C1461 C 0.78286 0.69342 0.7312 0.0
C1462 C 0.79925 0.6609 0.7359 0.0
C1463 C 0.79064 0.65183 0.71241 0.0
C1464 C 0.77394 0.68441 0.70774 0.0
C1465 C 0.7778 0.66356 0.69842 0.0
C1466 C 0.79522 0.68152 0.74523 0.0
C1467 C 0.79076 0.76738 0.81555 0.0
C1468 C 0.78025 0.71553 0.74108 0.0
C1469 C 0.68673 0.72451 0.71765 0.0
C1470 C 0.68495 0.71439 0.73845 0.0
C1471 C 0.83043 0.77822 0.7655 0.0
C1472 C 0.77459 0.86161 0.80583 0.0
C1473 C 0.75349 0.89094 0.80402 0.0
C1474 C 0.74892 0.8893 0.82742 0.0
C1475 C 0.77027 0.85966 0.82931 0.0
C1476 C 0.76556 0.87662 0.79308 0.0
C1477 C 0.75692 0.87321 0.83987 0.0
C1478 C 0.7901 0.79723 0.73497 0.0
C1479 C 0.79085 0.85093 0.79484 0.0
H1480 H 0.79381 0.63578 0.70502 0.0
H1481 H 0.76421 0.69352 0.69665 0.0
H1482 H 0.77104 0.6566 0.68032 0.0
H1483 H 0.80247 0.68861 0.76325 0.0
H1484 H 0.73999 0.90093 0.83617 0.0
H1485 H 0.77751 0.8481 0.8395 0.0
H1486 H 0.76985 0.87872 0.77531 0.0
H1487 H 0.75366 0.87196 0.85801 0.0
Tb1488 Tb 0.58145 0.56019 0.55848 0.0
C1489 C 0.50357 0.48573 0.50141 0.0
N1490 N 0.51567 0.50544 0.49629 0.0
C1491 C 0.51417 0.48925 0.45582 0.0
C1492 C 0.49653 0.46694 0.48388 0.0
C1493 C 0.52062 0.50751 0.4737 0.0
C1494 C 0.50215 0.46885 0.46094 0.0
C1495 C 0.48489 0.46451 0.53005 0.0
C1496 C 0.49774 0.48454 0.52426 0.0
C1497 C 0.478 0.44576 0.51263 0.0
C1498 C 0.48379 0.44697 0.48963 0.0
Tb1499 Tb 0.52158 0.53448 0.52637 0.0
N1500 N 0.50488 0.50292 0.54085 0.0
C1501 C 0.47924 0.46396 0.55314 0.0
C1502 C 0.49814 0.5028 0.56289 0.0
C1503 C 0.48576 0.48328 0.56958 0.0
H1504 H 0.52836 0.52343 0.46886 0.0
H1505 H 0.48066 0.48337 0.58719 0.0
H1506 H 0.57243 0.56942 0.61578 0.0
H1507 H 0.6272 0.61358 0.50283 0.0
H1508 H 0.50096 0.51789 0.5749 0.0
H1509 H 0.46939 0.4489 0.55828 0.0
H1510 H 0.60462 0.57858 0.51226 0.0
H1511 H 0.518 0.4911 0.43795 0.0
H1512 H 0.46809 0.43026 0.51675 0.0
H1513 H 0.47818 0.43239 0.47634 0.0
H1514 H 0.58099 0.60073 0.64768 0.0
H1515 H 0.49692 0.45483 0.44694 0.0
H1516 H 0.63747 0.64708 0.53314 0.0
N1517 N 0.58567 0.58863 0.58942 0.0
C1518 C 0.59827 0.60863 0.58571 0.0
C1519 C 0.58552 0.60336 0.6302 0.0
C1520 C 0.60468 0.62684 0.60407 0.0
C1521 C 0.57986 0.58569 0.61161 0.0
C1522 C 0.59786 0.62407 0.6264 0.0
N1523 N 0.59986 0.59244 0.54659 0.0
C1524 C 0.60781 0.59325 0.52515 0.0
C1525 C 0.61947 0.63072 0.55942 0.0
C1526 C 0.60578 0.61052 0.5637 0.0
C1527 C 0.62693 0.63187 0.53713 0.0
C1528 C 0.62109 0.61303 0.51994 0.0
H1529 H 0.60261 0.63758 0.641 0.0
H1530 H 0.62342 0.66107 0.61379 0.0
H1531 H 0.63621 0.66453 0.57464 0.0
O1532 O 0.61211 0.55126 0.55073 0.0
O1533 O 0.56275 0.58679 0.5466 0.0
O1534 O 0.53141 0.5699 0.51947 0.0
O1535 O 0.60635 0.56187 0.58706 0.0
O1536 O 0.5793 0.54408 0.5213 0.0
O1537 O 0.5453 0.54884 0.50303 0.0
O1538 O 0.49092 0.5405 0.53632 0.0
O1539 O 0.54174 0.50816 0.53515 0.0
O1540 O 0.57042 0.52456 0.56514 0.0
O1541 O 0.49478 0.53252 0.49943 0.0
O1542 O 0.52503 0.55321 0.56232 0.0
O1543 O 0.55703 0.54504 0.58028 0.0
C1544 C 0.54556 0.5881 0.53058 0.0
C1545 C 0.64233 0.55264 0.58285 0.0
C1546 C 0.67613 0.53912 0.57663 0.0
C1547 C 0.68427 0.54456 0.60082 0.0
C1548 C 0.65018 0.5581 0.60724 0.0
C1549 C 0.67119 0.55406 0.61616 0.0
C1550 C 0.6554 0.54326 0.56767 0.0
C1551 C 0.56642 0.54701 0.50218 0.0
C1552 C 0.62 0.55522 0.57329 0.0
C1553 C 0.61826 0.64698 0.59984 0.0
C1554 C 0.62559 0.64894 0.57757 0.0
C1555 C 0.55756 0.50636 0.5524 0.0
C1556 C 0.47071 0.55731 0.5086 0.0
C1557 C 0.44404 0.58032 0.51911 0.0
C1558 C 0.44641 0.59061 0.49835 0.0
C1559 C 0.47301 0.56741 0.4877 0.0
C1560 C 0.45666 0.56419 0.52433 0.0
C1561 C 0.46102 0.58423 0.48278 0.0
C1562 C 0.53696 0.5494 0.58146 0.0
C1563 C 0.48186 0.53898 0.51433 0.0
H1564 H 0.70047 0.54122 0.60775 0.0
H1565 H 0.64006 0.56521 0.61938 0.0
H1566 H 0.67722 0.55811 0.63492 0.0
H1567 H 0.64939 0.53882 0.54885 0.0
H1568 H 0.43648 0.60295 0.4938 0.0
H1569 H 0.48394 0.56237 0.47524 0.0
H1570 H 0.45507 0.55643 0.54053 0.0
H1571 H 0.46268 0.59197 0.46667 0.0
Tb1572 Tb 1.0098 0.53639 0.06 0.0
C1573 C 0.08997 0.58277 0.00653 0.0
N1574 N 0.07561 0.5624 1.00068 0.0
C1575 C 0.07072 0.56913 0.95992 0.0
C1576 C 0.09456 0.5974 0.98932 0.0
C1577 C 0.06708 0.55493 0.97744 0.0
C1578 C 0.08423 0.59057 0.96594 0.0
C1579 C 0.11683 0.60898 0.03603 0.0
C1580 C 0.10097 0.58866 0.0297 0.0
C1581 C 0.12094 0.62381 0.01903 0.0
C1582 C 0.10975 0.61809 0.9958 0.0
Tb1583 Tb 0.07121 0.54223 0.03204 0.0
N1584 N 0.09588 0.57452 0.04616 0.0
C1585 C 0.12815 0.6137 0.05925 0.0
C1586 C 0.10801 0.57811 0.06816 0.0
C1587 C 0.124 0.59799 0.07526 0.0
H1588 H 0.05775 0.53795 0.97199 0.0
H1589 H 0.13333 0.60101 0.09291 0.0
H1590 H 0.0265 0.53442 0.11881 0.0
H1591 H 0.94688 0.48106 0.99601 0.0
H1592 H 0.10574 0.56541 0.07991 0.0
H1593 H 0.14054 0.62911 0.06479 0.0
H1594 H 0.97462 0.51593 0.011 0.0
H1595 H 0.06345 0.56334 0.94168 0.0
H1596 H 0.1329 0.63964 0.0236 0.0
H1597 H 0.11335 0.6296 0.98281 0.0
H1598 H 0.01963 0.5071 0.14672 0.0
H1599 H 0.08724 0.60141 0.95222 0.0
H1600 H 0.93891 0.45131 0.02211 0.0
N1601 N 1.0064 0.51295 0.08893 0.0
C1602 C 0.99082 0.49345 0.0821 0.0
C1603 C 1.01174 0.50288 0.12849 0.0
C1604 C 0.98584 0.4776 0.09811 0.0
C1605 C 0.01604 0.51821 0.11216 0.0
C1606 C 0.9968 0.48239 0.12139 0.0
N1607 N 0.98423 0.50501 0.04392 0.0
C1608 C 0.97229 0.50257 0.02188 0.0
C1609 C 0.9629 0.46962 0.05164 0.0
C1610 C 0.97921 0.48951 0.05911 0.0
C1611 C 0.95155 0.46638 0.0285 0.0
C1612 C 0.95611 0.48305 0.01364 0.0
H1613 H 0.99336 0.47068 0.13422 0.0
H1614 H 0.96579 0.44534 0.1027 0.0
H1615 H 0.94589 0.4383 0.06203 0.0
O1616 O 0.98044 0.54858 0.04733 0.0
O1617 O 0.01919 0.50376 0.04455 0.0
O1618 O 0.0502 0.50785 0.02238 0.0
O1619 O 0.99055 0.54704 0.08507 0.0
O1620 O 0.02059 0.54955 0.02844 0.0
O1621 O 0.04167 0.53127 0.00625 0.0
O1622 O 0.09591 0.52692 0.04936 0.0
O1623 O 0.06258 0.57507 0.04707 0.0
O1624 O 0.0286 0.57198 0.06403 0.0
O1625 O 0.09709 0.53441 0.01343 0.0
O1626 O 0.05756 0.53017 0.06245 0.0
O1627 O 0.03883 0.54879 0.08592 0.0
C1628 C 0.03291 0.49531 0.03062 0.0
C1629 C 0.95631 0.56036 0.07645 0.0
C1630 C 0.92697 0.58208 0.07062 0.0
C1631 C 0.92067 0.5781 0.09297 0.0
C1632 C 0.9497 0.55639 0.09877 0.0
C1633 C 0.93196 0.56523 0.10693 0.0
C1634 C 0.94473 0.57312 0.0622 0.0
C1635 C 0.02239 0.5369 0.00929 0.0
C1636 C 0.97602 0.55207 0.06915 0.0
C1637 C 0.96974 0.45768 0.09061 0.0
C1638 C 0.95835 0.45369 0.06746 0.0
C1639 C 0.04729 0.58411 0.05793 0.0
C1640 C 0.11257 0.50366 0.02325 0.0
C1641 C 0.1411 0.48034 0.02284 0.0
C1642 C 0.12723 0.46527 0.00456 0.0
C1643 C 0.09896 0.48838 0.00494 0.0
C1644 C 0.13365 0.49948 0.03238 0.0
C1645 C 0.10619 0.46921 0.9958 0.0
C1646 C 0.05767 0.54319 0.08181 0.0
C1647 C 0.10628 0.52529 0.03057 0.0
H1648 H 0.90699 0.58502 0.0996 0.0
H1649 H 0.95836 0.54657 0.11005 0.0
H1650 H 0.92706 0.56221 0.12419 0.0
H1651 H 0.94976 0.57645 0.04503 0.0
H1652 H 0.13289 0.45062 0.99682 0.0
H1653 H 0.08317 0.49181 0.99709 0.0
H1654 H 0.14459 0.5115 0.04603 0.0
H1655 H 0.09571 0.45768 0.98146 0.0
H1656 H 0.05049 0.2334 0.00563 0.0
H1657 H 0.99108 0.19555 0.96137 0.0
H1658 H 0.05838 0.19888 0.01981 0.0
H1659 H 0.99892 0.16089 0.97483 0.0
H1660 H 1.00878 0.09865 0.00943 0.0
H1661 H 1.00079 0.1333 0.9965 0.0
H1662 H 0.06966 0.16629 0.02253 0.0
H1663 H 0.07665 0.13131 0.03592 0.0
C1664 C 0.03891 0.2177 0.99893 0.0
C1665 C 0.0199 0.21783 0.98232 0.0
C1666 C 0.04359 0.19743 0.00699 0.0
C1667 C 0.02948 0.176 0.99898 0.0
C1668 C 1.01043 0.17636 0.98228 0.0
C1669 C 1.00584 0.19661 0.9742 0.0
C1670 C 0.02228 0.11314 0.01211 0.0
C1671 C 0.0435 0.11129 0.02353 0.0
C1672 C 0.01776 0.13357 0.00457 0.0
C1673 C 0.03444 0.15372 0.00774 0.0
C1674 C 0.05581 0.15192 0.0195 0.0
C1675 C 0.06008 0.13139 0.02731 0.0
H1676 H 0.15671 0.83433 0.15225 0.0
H1677 H 0.11604 0.78703 0.18894 0.0
H1678 H 0.18925 0.8351 0.18071 0.0
H1679 H 0.14817 0.78654 0.21703 0.0
H1680 H 0.20864 0.78653 0.26956 0.0
H1681 H 0.176 0.78758 0.24256 0.0
H1682 H 0.21774 0.83425 0.20487 0.0
H1683 H 0.24981 0.83384 0.23313 0.0
C1684 C 0.15484 0.82391 0.16646 0.0
C1685 C 0.13369 0.81076 0.16832 0.0
C1686 C 0.17377 0.82421 0.18319 0.0
C1687 C 0.17248 0.8109 0.20225 0.0
C1688 C 0.15098 0.79747 0.20351 0.0
C1689 C 0.13205 0.79762 0.18711 0.0
C1690 C 0.21068 0.79747 0.25582 0.0
C1691 C 0.23204 0.81033 0.25395 0.0
C1692 C 0.19165 0.79791 0.23963 0.0
C1693 C 0.1931 0.81093 0.22039 0.0
C1694 C 0.21477 0.82387 0.21883 0.0
C1695 C 0.23366 0.82371 0.23532 0.0
H1696 H 0.51159 0.85922 0.44715 0.0
H1697 H 0.52586 0.84603 0.51926 0.0
H1698 H 0.51254 0.89833 0.46074 0.0
H1699 H 0.52822 0.886 0.53325 0.0
H1700 H 0.51868 0.95889 0.55525 0.0
H1701 H 0.51507 0.91846 0.54273 0.0
H1702 H 0.53065 0.93327 0.47318 0.0
H1703 H 0.53368 0.97303 0.4857 0.0
C1704 C 0.51527 0.86471 0.46605 0.0
C1705 C 0.51874 0.84902 0.48191 0.0
C1706 C 0.51606 0.88762 0.47404 0.0
C1707 C 0.52084 0.89637 0.49841 0.0
C1708 C 0.52426 0.88054 0.51438 0.0
C1709 C 0.52309 0.85736 0.50632 0.0
C1710 C 0.52097 0.9534 0.53716 0.0
C1711 C 0.52646 0.96956 0.52156 0.0
C1712 C 0.51917 0.92999 0.52992 0.0
C1713 C 0.52247 0.92166 0.50663 0.0
C1714 C 0.52752 0.93809 0.49109 0.0
C1715 C 0.52951 0.96134 0.49838 0.0
H1716 H 0.53901 0.29903 0.69075 0.0
H1717 H 0.49374 0.30305 0.62846 0.0
H1718 H 0.50728 0.29248 0.71342 0.0
H1719 H 0.46192 0.29802 0.65145 0.0
H1720 H 0.40841 0.25805 0.6904 0.0
H1721 H 0.43881 0.27118 0.66765 0.0
H1722 H 0.47977 0.30547 0.73246 0.0
H1723 H 0.44936 0.29111 0.75513 0.0
C1724 C 0.52225 0.29897 0.68203 0.0
C1725 C 0.51885 0.3015 0.6578 0.0
C1726 C 0.50397 0.29542 0.69512 0.0
C1727 C 0.48179 0.29474 0.68446 0.0
C1728 C 0.47858 0.29796 0.6603 0.0
C1729 C 0.49685 0.30103 0.64708 0.0
C1730 C 0.42374 0.26891 0.69959 0.0
C1731 C 0.42656 0.27375 0.72439 0.0
C1732 C 0.44126 0.27652 0.68658 0.0
C1733 C 0.46208 0.28929 0.69808 0.0
C1734 C 0.46426 0.29529 0.72291 0.0
C1735 C 0.44672 0.28746 0.73594 0.0
H1736 H 0.07568 0.83082 0.67646 0.0
H1737 H 1.00581 0.81376 0.64566 0.0
H1738 H 0.08172 0.86313 0.65453 0.0
H1739 H 1.01101 0.84722 0.6252 0.0
H1740 H 0.03521 0.8923 0.56929 0.0
H1741 H 0.02523 0.86272 0.59411 0.0
H1742 H 0.07733 0.89865 0.64982 0.0
H1743 H 0.08801 0.92725 0.62403 0.0
C1744 C 0.06149 0.83436 0.66533 0.0
C1745 C 0.04033 0.81986 0.66266 0.0
C1746 C 0.06482 0.85307 0.65287 0.0
C1747 C 0.04683 0.8582 0.63803 0.0
C1748 C 0.02546 0.84379 0.63595 0.0
C1749 C 0.02236 0.82465 0.64782 0.0
C1750 C 0.04398 0.89407 0.58714 0.0
C1751 C 0.06218 0.91204 0.5949 0.0
C1752 C 0.03835 0.87708 0.60148 0.0
C1753 C 0.05069 0.87782 0.62405 0.0
C1754 C 0.06782 0.89691 0.63237 0.0
C1755 C 0.07367 0.91365 0.61784 0.0
H1756 H 0.49419 0.82361 0.80049 0.0
H1757 H 0.47718 0.81496 0.87063 0.0
H1758 H 0.45448 0.82141 0.78619 0.0
H1759 H 0.43795 0.81235 0.85703 0.0
H1760 H 0.36456 0.80979 0.83277 0.0
H1761 H 0.40423 0.81472 0.84625 0.0
H1762 H 0.41855 0.81559 0.77351 0.0
H1763 H 0.37834 0.81226 0.76072 0.0
C1764 C 0.48195 0.82123 0.81296 0.0
C1765 C 0.48933 0.81948 0.83686 0.0
C1766 C 0.45869 0.81986 0.80471 0.0
C1767 C 0.44157 0.81677 0.81999 0.0
C1768 C 0.44941 0.81498 0.84395 0.0
C1769 C 0.4725 0.81631 0.85206 0.0
C1770 C 0.37624 0.81133 0.81967 0.0
C1771 C 0.3679 0.81072 0.79563 0.0
C1772 C 0.39959 0.81393 0.8274 0.0
C1773 C 0.41607 0.81524 0.81137 0.0
C1774 C 0.40744 0.81481 0.78708 0.0
C1775 C 0.38398 0.81289 0.77948 0.0
H1776 H 0.54933 0.1864 0.17419 0.0
H1777 H 0.50274 0.20865 0.12395 0.0
H1778 H 0.55035 0.15405 0.14526 0.0
H1779 H 0.50371 0.17651 0.09503 0.0
H1780 H 0.49385 0.10462 0.05557 0.0
H1781 H 0.49251 0.13673 0.08473 0.0
H1782 H 0.56357 0.14272 0.10855 0.0
H1783 H 0.5646 0.11051 0.07942 0.0
C1784 C 0.53909 0.18428 0.15707 0.0
C1785 C 0.52578 0.20014 0.15162 0.0
C1786 C 0.53985 0.16578 0.14027 0.0
C1787 C 0.5271 0.16235 0.11752 0.0
C1788 C 0.51358 0.17816 0.11229 0.0
C1789 C 0.51308 0.19677 0.12895 0.0
C1790 C 0.50917 0.11294 0.06696 0.0
C1791 C 0.5293 0.10503 0.06517 0.0
C1792 C 0.50849 0.13146 0.08371 0.0
C1793 C 0.52791 0.14258 0.09934 0.0
C1794 C 0.54812 0.13461 0.09727 0.0
C1795 C 0.5488 0.1162 0.08039 0.0
H1796 H 0.11166 0.32501 0.30334 0.0
H1797 H 0.13403 0.30555 0.37075 0.0
H1798 H 0.1458 0.31674 0.28798 0.0
H1799 H 0.16826 0.29781 0.35598 0.0
H1800 H 0.22616 0.27293 0.32347 0.0
H1801 H 0.19058 0.27898 0.33674 0.0
H1802 H 0.18258 0.32172 0.28185 0.0
H1803 H 0.21766 0.31437 0.26804 0.0
C1804 C 0.12385 0.31903 0.31504 0.0
C1805 C 0.11957 0.31615 0.33854 0.0
C1806 C 0.14388 0.31432 0.3062 0.0
C1807 C 0.16078 0.30634 0.32031 0.0
C1808 C 0.15624 0.30346 0.34384 0.0
C1809 C 0.13631 0.30821 0.35262 0.0
C1810 C 0.21669 0.28344 0.31404 0.0
C1811 C 0.22511 0.29295 0.29443 0.0
C1812 C 0.19605 0.28727 0.3219 0.0
C1813 C 0.18281 0.30129 0.31094 0.0
C1814 C 0.19137 0.31061 0.29108 0.0
C1815 C 0.21186 0.30645 0.283 0.0
H1816 H 0.96087 0.05843 0.20244 0.0
H1817 H 0.98938 0.99949 0.21001 0.0
H1818 H 0.98129 0.06585 0.16882 0.0
H1819 H 1.00863 1.00569 0.17517 0.0
H1820 H 0.05431 0.02862 0.12095 0.0
H1821 H 0.03648 0.02377 0.15679 0.0
H1822 H 0.98477 0.05844 0.13028 0.0
H1823 H 1.00361 0.06444 0.09537 0.0
C1824 C 0.9713 0.04681 0.19666 0.0
C1825 C 0.97339 0.02831 0.20897 0.0
C1826 C 0.98299 0.05095 0.17707 0.0
C1827 C 0.99679 0.03638 0.1686 0.0
C1828 C 0.99871 0.01774 0.18102 0.0
C1829 C 0.98744 0.01395 0.20102 0.0
C1830 C 0.03931 0.03551 0.12298 0.0
C1831 C 0.03047 0.04695 0.10513 0.0
C1832 C 0.02876 0.03243 0.14354 0.0
C1833 C 1.00877 0.04045 0.1469 0.0
C1834 C 1.00021 0.0522 0.12903 0.0
C1835 C 1.01096 0.05554 0.10867 0.0
H1836 H 0.2414 0.67754 0.51465 0.0
H1837 H 0.30522 0.66548 0.49467 0.0
H1838 H 0.23921 0.70259 0.48459 0.0
H1839 H 0.30333 0.69148 0.46443 0.0
H1840 H 0.26278 0.71901 0.39784 0.0
H1841 H 0.27607 0.69529 0.4261 0.0
H1842 H 0.26414 0.74127 0.48409 0.0
H1843 H 0.25041 0.76464 0.45593 0.0
C1844 C 0.25494 0.68033 0.50368 0.0
C1845 C 0.27368 0.6702 0.50699 0.0
C1846 C 0.25379 0.69471 0.48669 0.0
C1847 C 0.27158 0.69947 0.47308 0.0
C1848 C 0.2897 0.6882 0.4752 0.0
C1849 C 0.29073 0.67342 0.49223 0.0
C1850 C 0.26368 0.72431 0.41669 0.0
C1851 C 0.25509 0.74316 0.42498 0.0
C1852 C 0.27139 0.71088 0.43273 0.0
C1853 C 0.27056 0.7164 0.45698 0.0
C1854 C 0.26447 0.73665 0.4653 0.0
C1855 C 0.25656 0.74988 0.44933 0.0
H1856 H 0.65925 0.09369 0.69305 0.0
H1857 H 0.66684 0.02432 0.68435 0.0
H1858 H 0.6279 0.08496 0.66106 0.0
H1859 H 0.63422 0.01488 0.65428 0.0
H1860 H 0.58771 0.01085 0.58637 0.0
H1861 H 0.6198 0.01775 0.61661 0.0
H1862 H 0.59031 0.06685 0.65658 0.0
H1863 H 0.55974 0.06221 0.62443 0.0
C1864 C 0.65419 0.07666 0.68401 0.0
C1865 C 0.6651 0.05963 0.69066 0.0
C1866 C 0.63609 0.07151 0.66616 0.0
C1867 C 0.62827 0.04911 0.6557 0.0
C1868 C 0.63997 0.03231 0.66184 0.0
C1869 C 0.65861 0.03767 0.67898 0.0
C1870 C 0.58816 0.02318 0.60159 0.0
C1871 C 0.57188 0.03664 0.60282 0.0
C1872 C 0.60638 0.0269 0.6191 0.0
C1873 C 0.60783 0.0433 0.63861 0.0
C1874 C 0.59005 0.0548 0.64116 0.0
C1875 C 0.57229 0.05178 0.6231 0.0
H1876 H 0.31714 0.39487 0.96306 0.0
H1877 H 0.31038 0.32924 0.98672 0.0
H1878 H 0.31615 0.37813 0.92244 0.0
H1879 H 0.3085 0.31209 0.94555 0.0
H1880 H 0.32466 0.29006 0.87044 0.0
H1881 H 0.32798 0.30636 0.91194 0.0
H1882 H 0.29212 0.3574 0.89034 0.0
H1883 H 0.29024 0.34213 0.84918 0.0
C1884 C 0.31526 0.37676 0.95957 0.0
C1885 C 0.31378 0.36343 0.97827 0.0
C1886 C 0.31452 0.36706 0.93608 0.0
C1887 C 0.31201 0.34359 0.93033 0.0
C1888 C 0.31067 0.33021 0.94912 0.0
C1889 C 0.31158 0.34001 0.97277 0.0
C1890 C 0.31788 0.30501 0.87451 0.0
C1891 C 0.30737 0.31481 0.85619 0.0
C1892 C 0.31947 0.31422 0.89846 0.0
C1893 C 0.31042 0.33339 0.90483 0.0
C1894 C 0.29979 0.34299 0.88642 0.0
C1895 C 0.29844 0.33398 0.8626 0.0
H1896 H 1.00885 0.03552 0.3315 0.0
H1897 H 0.94313 0.01447 0.35341 0.0
H1898 H 0.02642 0.03697 0.37258 0.0
H1899 H 0.9604 0.01478 0.39369 0.0
H1900 H 0.99259 0.04167 0.46807 0.0
H1901 H 0.97706 0.03935 0.42691 0.0
H1902 H 0.03603 0.01684 0.40495 0.0
H1903 H 0.05211 0.02009 0.44672 0.0
C1904 C 0.99819 0.03105 0.34503 0.0
C1905 C 0.97457 0.02512 0.33919 0.0
C1906 C 1.00825 0.0317 0.36859 0.0
C1907 C 0.99492 0.02621 0.38679 0.0
C1908 C 0.97134 0.01976 0.38056 0.0
C1909 C 0.96136 0.01943 0.35727 0.0
C1910 C 1.00238 0.0363 0.45455 0.0
C1911 C 0.0237 0.03122 0.46086 0.0
C1912 C 0.9933 0.0347 0.43074 0.0
C1913 C 1.00512 0.02778 0.41226 0.0
C1914 C 0.02645 0.02245 0.41854 0.0
C1915 C 0.0356 0.02409 0.44255 0.0
H1916 H 0.32101 0.6811 0.62791 0.0
H1917 H 0.24971 0.66477 0.63426 0.0
H1918 H 0.32615 0.71203 0.65977 0.0
H1919 H 0.2548 0.69574 0.6666 0.0
H1920 H 0.26819 0.77022 0.69566 0.0
H1921 H 0.26463 0.73779 0.66548 0.0
H1922 H 0.32359 0.71984 0.70214 0.0
H1923 H 0.32786 0.75264 0.73131 0.0
C1924 C 0.30665 0.68382 0.6368 0.0
C1925 C 0.28506 0.67089 0.62914 0.0
C1926 C 0.30953 0.70142 0.65484 0.0
C1927 C 0.29076 0.70621 0.66515 0.0
C1928 C 0.26936 0.69233 0.65848 0.0
C1929 C 0.26652 0.67453 0.64047 0.0
C1930 C 0.28062 0.75957 0.69678 0.0
C1931 C 0.29797 0.76336 0.71581 0.0
C1932 C 0.27837 0.74094 0.67993 0.0
C1933 C 0.29353 0.72626 0.68212 0.0
C1934 C 0.31165 0.73094 0.70035 0.0
C1935 C 0.31401 0.74958 0.717 0.0
H1936 H 0.69019 0.08536 0.83217 0.0
H1937 H 0.63826 0.03415 0.78986 0.0
H1938 H 0.66623 0.08725 0.86343 0.0
H1939 H 0.61452 0.03514 0.82176 0.0
H1940 H 0.56992 0.0774 0.86078 0.0
H1941 H 0.5944 0.06373 0.83408 0.0
H1942 H 0.64694 0.06976 0.89323 0.0
H1943 H 0.62282 0.08466 0.91968 0.0
C1944 C 0.67384 0.07409 0.82991 0.0
C1945 C 0.66573 0.05994 0.80863 0.0
C1946 C 0.66022 0.07496 0.84788 0.0
C1947 C 0.63847 0.0614 0.8449 0.0
C1948 C 0.63108 0.04603 0.82425 0.0
C1949 C 0.64457 0.04548 0.80608 0.0
C1950 C 0.5867 0.07577 0.86798 0.0
C1951 C 0.59473 0.08248 0.89203 0.0
C1952 C 0.60055 0.06754 0.85285 0.0
C1953 C 0.62258 0.06577 0.86164 0.0
C1954 C 0.6301 0.0712 0.88601 0.0
C1955 C 0.6163 0.07961 0.9011 0.0
H1956 H 0.27127 0.35537 0.10122 0.0
H1957 H 0.34325 0.36263 0.11955 0.0
H1958 H 0.26482 0.33727 0.13695 0.0
H1959 H 0.33681 0.34423 0.15511 0.0
H1960 H 0.31479 0.28838 0.20202 0.0
H1961 H 0.32038 0.30615 0.16601 0.0
H1962 H 0.27127 0.34661 0.18176 0.0
H1963 H 0.26602 0.32904 0.21816 0.0
C1964 C 0.28574 0.35297 0.11278 0.0
C1965 C 0.3078 0.36035 0.10734 0.0
C1966 C 0.28203 0.34271 0.13339 0.0
C1967 C 0.30027 0.33917 0.149 0.0
C1968 C 0.32233 0.34643 0.14344 0.0
C1969 C 0.32604 0.35706 0.12305 0.0
C1970 C 0.30504 0.30095 0.19772 0.0
C1971 C 0.2899 0.30724 0.21299 0.0
C1972 C 0.3084 0.3113 0.17715 0.0
C1973 C 0.29636 0.32793 0.1709 0.0
C1974 C 0.28078 0.33383 0.18589 0.0
C1975 C 0.27779 0.32381 0.2068 0.0
H1976 H 0.26474 0.99326 0.98458 0.0
H1977 H 0.23365 0.93426 0.014 0.0
H1978 H 0.23574 0.01297 0.99767 0.0
H1979 H 0.20594 0.95404 0.02823 0.0
H1980 H 0.15466 0.99005 0.04928 0.0
H1981 H 0.17473 0.97157 0.0207 0.0
H1982 H 0.23186 0.02749 0.03738 0.0
H1983 H 0.21121 0.0461 0.0652 0.0
C1984 C 0.25136 0.98441 0.99325 0.0
C1985 C 0.25121 0.96239 0.99829 0.0
C1986 C 0.23496 0.99565 1.00088 0.0
C1987 C 0.2187 0.98504 0.014 0.0
C1988 C 0.21786 0.96249 0.01763 0.0
C1989 C 0.23384 0.95116 0.00956 0.0
C1990 C 0.17144 0.99828 0.04648 0.0
C1991 C 0.18198 0.01889 0.05958 0.0
C1992 C 0.18282 0.98789 0.03018 0.0
C1993 C 0.20486 0.99804 0.02701 0.0
C1994 C 0.2148 0.01938 0.03929 0.0
C1995 C 0.20332 0.0298 0.0555 0.0
H1996 H 0.69543 0.67276 0.02363 0.0
H1997 H 0.72865 0.61701 0.00869 0.0
H1998 H 0.6601 0.64631 0.02489 0.0
H1999 H 0.69317 0.59052 0.00963 0.0
H2000 H 0.63162 0.55374 0.04401 0.0
H2001 H 0.66746 0.57858 0.04044 0.0
H2002 H 0.63167 0.61793 0.99708 0.0
H2003 H 0.59629 0.59276 0.99952 0.0
C2004 C 0.69512 0.65486 0.02036 0.0
C2005 C 0.71483 0.64699 0.01613 0.0
C2006 C 0.67488 0.6397 0.02106 0.0
C2007 C 0.67388 0.61631 0.01747 0.0
C2008 C 0.69351 0.60843 0.01286 0.0
C2009 C 0.71377 0.6236 0.0122 0.0
C2010 C 0.63142 0.56741 0.03335 0.0
C2011 C 0.61094 0.57108 0.02201 0.0
C2012 C 0.65196 0.5817 0.03138 0.0
C2013 C 0.65237 0.60031 0.0186 0.0
C2014 C 0.63193 0.60391 0.00726 0.0
C2015 C 0.61158 0.58937 0.00871 0.0
H2016 H 0.71101 0.52745 0.31338 0.0
H2017 H 0.6525 0.48418 0.27171 0.0
H2018 H 0.73258 0.49781 0.30798 0.0
H2019 H 0.67433 0.45489 0.26515 0.0
H2020 H 0.71425 0.40066 0.2641 0.0
H2021 H 0.6929 0.42765 0.28064 0.0
H2022 H 0.74923 0.48199 0.27729 0.0
H2023 H 0.77046 0.45492 0.26183 0.0
C2024 C 0.70277 0.51155 0.30308 0.0
C2025 C 0.68013 0.50809 0.29289 0.0
C2026 C 0.71514 0.49459 0.29987 0.0
C2027 C 0.70527 0.47395 0.28603 0.0
C2028 C 0.68241 0.47037 0.27629 0.0
C2029 C 0.66993 0.48723 0.27984 0.0
C2030 C 0.7222 0.41832 0.26788 0.0
C2031 C 0.7439 0.42591 0.26198 0.0
C2032 C 0.70993 0.43381 0.27694 0.0
C2033 C 0.71923 0.45706 0.28008 0.0
C2034 C 0.74158 0.46428 0.27549 0.0
C2035 C 0.75379 0.44883 0.26659 0.0
H2036 H 0.86372 0.48363 0.47851 0.0
H2037 H 0.88545 0.45003 0.53747 0.0
H2038 H 0.90093 0.50744 0.48236 0.0
H2039 H 0.92321 0.47392 0.54105 0.0
H2040 H 0.97678 0.54105 0.55378 0.0
H2041 H 0.9393 0.5169 0.55158 0.0
H2042 H 0.93921 0.4995 0.4761 0.0
H2043 H 0.97665 0.52304 0.47858 0.0
C2044 C 0.87656 0.4813 0.49221 0.0
C2045 C 0.87199 0.46515 0.50775 0.0
C2046 C 0.89774 0.49483 0.49434 0.0
C2047 C 0.91456 0.49232 0.51199 0.0
C2048 C 0.91017 0.47607 0.52747 0.0
C2049 C 0.88886 0.46238 0.52528 0.0
C2050 C 0.96858 0.53196 0.53688 0.0
C2051 C 0.97904 0.5336 0.51633 0.0
C2052 C 0.94741 0.51825 0.53562 0.0
C2053 C 0.93678 0.5065 0.51371 0.0
C2054 C 0.9472 0.50865 0.4931 0.0
C2055 C 0.96834 0.52215 0.49443 0.0
H2056 H 0.34075 0.06962 0.32844 0.0
H2057 H 0.40304 0.1076 0.31065 0.0
H2058 H 0.32076 0.09836 0.31549 0.0
H2059 H 0.38308 0.1356 0.29702 0.0
H2060 H 0.34366 0.18527 0.27568 0.0
H2061 H 0.36051 0.16417 0.3045 0.0
H2062 H 0.31283 0.10359 0.27331 0.0
H2063 H 0.29583 0.12494 0.24494 0.0
C2064 C 0.35025 0.08446 0.32252 0.0
C2065 C 0.37325 0.08641 0.32018 0.0
C2066 C 0.33885 0.10076 0.31504 0.0
C2067 C 0.3504 0.11891 0.30507 0.0
C2068 C 0.37386 0.1219 0.30497 0.0
C2069 C 0.38526 0.1058 0.31266 0.0
C2070 C 0.33688 0.16745 0.27523 0.0
C2071 C 0.31912 0.1563 0.25796 0.0
C2072 C 0.34628 0.15551 0.29171 0.0
C2073 C 0.33788 0.13239 0.29107 0.0
C2074 C 0.31938 0.12151 0.27435 0.0
C2075 C 0.31003 0.13347 0.25784 0.0
H2076 H 0.33163 0.14672 0.49503 0.0
H2077 H 0.33965 0.17481 0.56863 0.0
H2078 H 0.36187 0.12629 0.50361 0.0
H2079 H 0.36817 0.15289 0.57797 0.0
H2080 H 0.42707 0.1215 0.59088 0.0
H2081 H 0.40382 0.14732 0.57712 0.0
H2082 H 0.37022 0.09595 0.51964 0.0
H2083 H 0.39503 0.07121 0.53256 0.0
C2084 C 0.33995 0.14843 0.51307 0.0
C2085 C 0.3337 0.16248 0.53115 0.0
C2086 C 0.35711 0.13655 0.51812 0.0
C2087 C 0.36771 0.13782 0.54155 0.0
C2088 C 0.36114 0.15193 0.55958 0.0
C2089 C 0.34462 0.16441 0.55433 0.0
C2090 C 0.41499 0.11612 0.57501 0.0
C2091 C 0.41247 0.09449 0.56282 0.0
C2092 C 0.40141 0.13072 0.56724 0.0
C2093 C 0.38456 0.12366 0.54756 0.0
C2094 C 0.38301 0.10224 0.53473 0.0
C2095 C 0.39705 0.08791 0.54216 0.0
H2096 H 0.66571 0.64298 0.30279 0.0
H2097 H 0.7201 0.60663 0.29861 0.0
H2098 H 0.69206 0.67815 0.3014 0.0
H2099 H 0.74665 0.64191 0.29787 0.0
H2100 H 0.78159 0.70659 0.2698 0.0
H2101 H 0.75658 0.67072 0.27246 0.0
H2102 H 0.72297 0.70414 0.32436 0.0
H2103 H 0.74769 0.73968 0.32167 0.0
C2104 C 0.68334 0.64253 0.3018 0.0
C2105 C 0.69076 0.62201 0.30075 0.0
C2106 C 0.69852 0.66272 0.30112 0.0
C2107 C 0.72155 0.66293 0.29949 0.0
C2108 C 0.72901 0.64238 0.29874 0.0
C2109 C 0.7138 0.62217 0.29933 0.0
C2110 C 0.76899 0.70619 0.28193 0.0
C2111 C 0.76665 0.72606 0.29545 0.0
C2112 C 0.75467 0.68563 0.2835 0.0
C2113 C 0.73759 0.68451 0.2985 0.0
C2114 C 0.7356 0.70436 0.31229 0.0
C2115 C 0.74992 0.72479 0.31081 0.0
H2116 H 0.89082 0.45405 0.83324 0.0
H2117 H 0.84651 0.47094 0.77647 0.0
H2118 H 0.87063 0.41522 0.82593 0.0
H2119 H 0.82708 0.43163 0.76787 0.0
H2120 H 0.77988 0.37051 0.79113 0.0
H2121 H 0.80181 0.40737 0.78711 0.0
H2122 H 0.86359 0.38191 0.79917 0.0
H2123 H 0.84157 0.34599 0.80552 0.0
C2124 C 0.87701 0.44919 0.81887 0.0
C2125 C 0.86998 0.46508 0.80541 0.0
C2126 C 0.86565 0.427 0.81443 0.0
C2127 C 0.84755 0.42042 0.79603 0.0
C2128 C 0.84091 0.43637 0.78221 0.0
C2129 C 0.85192 0.45871 0.7871 0.0
C2130 C 0.79814 0.3729 0.79231 0.0
C2131 C 0.80928 0.35578 0.79815 0.0
C2132 C 0.81066 0.39377 0.78979 0.0
C2133 C 0.83439 0.39744 0.79303 0.0
C2134 C 0.84532 0.37955 0.79697 0.0
C2135 C 0.83279 0.35893 0.80018 0.0
H2136 H 0.03814 0.87046 0.10163 0.0
H2137 H 0.10471 0.87671 0.08045 0.0
H2138 H 0.03637 0.90805 0.09174 0.0
H2139 H 0.10288 0.91442 0.0698 0.0
H2140 H 0.10105 0.99048 0.06655 0.0
H2141 H 0.104 0.95299 0.07716 0.0
H2142 H 0.03126 0.93341 0.06643 0.0
H2143 H 0.02873 0.97071 0.05707 0.0
C2144 C 0.05245 0.87971 0.09458 0.0
C2145 C 0.07151 0.86982 0.09182 0.0
C2146 C 0.0514 0.90165 0.08864 0.0
C2147 C 0.06938 0.91521 0.07952 0.0
C2148 C 0.08854 0.90528 0.07685 0.0
C2149 C 0.08958 0.88323 0.08283 0.0
C2150 C 0.08563 0.97821 0.06644 0.0
C2151 C 0.0645 0.98421 0.06025 0.0
C2152 C 0.0873 0.95629 0.07247 0.0
C2153 C 0.06793 0.93914 0.07286 0.0
C2154 C 0.04689 0.94541 0.06685 0.0
C2155 C 0.04531 0.96718 0.06087 0.0
H2156 H 0.95906 0.27391 0.87675 0.0
H2157 H 0.92846 0.28416 0.94067 0.0
H2158 H 0.92463 0.27831 0.85302 0.0
H2159 H 0.89401 0.28904 0.91702 0.0
H2160 H 0.82691 0.27875 0.86597 0.0
H2161 H 0.86071 0.2735 0.89043 0.0
H2162 H 0.90233 0.30358 0.84086 0.0
H2163 H 0.86883 0.30934 0.81701 0.0
C2164 C 0.94496 0.27704 0.88584 0.0
C2165 C 0.94682 0.2785 0.91084 0.0
C2166 C 0.92506 0.27982 0.87213 0.0
C2167 C 0.90604 0.28422 0.88275 0.0
C2168 C 0.90786 0.28543 0.90781 0.0
C2169 C 0.92783 0.28269 0.92154 0.0
C2170 C 0.84324 0.2843 0.86022 0.0
C2171 C 0.84463 0.29408 0.83889 0.0
C2172 C 0.86285 0.28132 0.87442 0.0
C2173 C 0.88475 0.28776 0.86781 0.0
C2174 C 0.88606 0.29775 0.8466 0.0
C2175 C 0.86654 0.301 0.83264 0.0
H2176 H 0.56273 0.23282 0.55514 0.0
H2177 H 0.56913 0.22424 0.62924 0.0
H2178 H 0.55815 0.19202 0.54467 0.0
H2179 H 0.56401 0.18391 0.61925 0.0
H2180 H 0.56589 0.10996 0.59998 0.0
H2181 H 0.57238 0.15081 0.60911 0.0
H2182 H 0.54195 0.15518 0.53818 0.0
H2183 H 0.53688 0.1143 0.52906 0.0
C2184 C 0.56327 0.22234 0.56931 0.0
C2185 C 0.5665 0.23244 0.59318 0.0
C2186 C 0.56039 0.1985 0.5633 0.0
C2187 C 0.56071 0.18349 0.58086 0.0
C2188 C 0.56397 0.19393 0.6047 0.0
C2189 C 0.56675 0.21756 0.61061 0.0
C2190 C 0.56066 0.11968 0.58631 0.0
C2191 C 0.55079 0.10848 0.56376 0.0
C2192 C 0.56419 0.14351 0.59158 0.0
C2193 C 0.55758 0.15749 0.57471 0.0
C2194 C 0.54774 0.14596 0.552 0.0
C2195 C 0.54462 0.12214 0.54665 0.0
H2196 H 0.55588 0.79964 0.38544 0.0
H2197 H 0.58733 0.76932 0.44154 0.0
H2198 H 0.5898 0.80201 0.36562 0.0
H2199 H 0.62045 0.76969 0.42101 0.0
H2200 H 0.68716 0.7978 0.39542 0.0
H2201 H 0.65233 0.79055 0.41289 0.0
H2202 H 0.61415 0.7873 0.34367 0.0
H2203 H 0.64967 0.7959 0.32662 0.0
C2204 C 0.57001 0.7932 0.39336 0.0
C2205 C 0.56906 0.78462 0.41525 0.0
C2206 C 0.58949 0.79429 0.38184 0.0
C2207 C 0.6084 0.78619 0.39152 0.0
C2208 C 0.60687 0.77685 0.41309 0.0
C2209 C 0.58771 0.77645 0.42493 0.0
C2210 C 0.67127 0.79507 0.38389 0.0
C2211 C 0.67119 0.79738 0.35968 0.0
C2212 C 0.65106 0.79078 0.39389 0.0
C2213 C 0.62991 0.78845 0.37997 0.0
C2214 C 0.62987 0.78946 0.3553 0.0
C2215 C 0.65026 0.79395 0.34531 0.0
H2216 H 0.01861 0.26772 0.41125 0.0
H2217 H 0.08691 0.26355 0.40046 0.0
H2218 H 0.01565 0.2343 0.4321 0.0
H2219 H 0.08407 0.22988 0.42111 0.0
H2220 H 0.0574 0.15485 0.43388 0.0
H2221 H 0.06491 0.19024 0.41655 0.0
H2222 H 0.02943 0.22086 0.46859 0.0
H2223 H 0.02189 0.18531 0.48566 0.0
C2224 C 0.03299 0.25958 0.41337 0.0
C2225 C 0.05297 0.2682 0.40427 0.0
C2226 C 0.03141 0.24052 0.42549 0.0
C2227 C 0.04968 0.22932 0.42854 0.0
C2228 C 0.06963 0.23792 0.41913 0.0
C2229 C 0.07132 0.25726 0.40736 0.0
C2230 C 0.05187 0.1694 0.44204 0.0
C2231 C 0.03939 0.16743 0.46136 0.0
C2232 C 0.05606 0.1897 0.43205 0.0
C2233 C 0.04757 0.20849 0.44092 0.0
C2234 C 0.03595 0.20672 0.46099 0.0
C2235 C 0.03191 0.18646 0.47105 0.0
H2236 H 0.61252 0.27901 0.18931 0.0
H2237 H 0.60227 0.26566 0.26035 0.0
H2238 H 0.65302 0.2832 0.19937 0.0
H2239 H 0.64338 0.27081 0.27104 0.0
H2240 H 0.71943 0.2666 0.28144 0.0
H2241 H 0.6784 0.26067 0.27174 0.0
H2242 H 0.6874 0.30268 0.21566 0.0
H2243 H 0.72816 0.30738 0.22468 0.0
C2244 C 0.61886 0.27716 0.20732 0.0
C2245 C 0.60348 0.27195 0.22385 0.0
C2246 C 0.64256 0.2798 0.21329 0.0
C2247 C 0.65252 0.27767 0.23632 0.0
C2248 C 0.63708 0.27245 0.25299 0.0
C2249 C 0.61317 0.26959 0.24689 0.0
C2250 C 0.71273 0.27404 0.26658 0.0
C2251 C 0.72774 0.28702 0.25359 0.0
C2252 C 0.68881 0.27101 0.2612 0.0
C2253 C 0.67855 0.28092 0.24255 0.0
C2254 C 0.69377 0.2941 0.22978 0.0
C2255 C 0.7176 0.29706 0.23516 0.0
H2256 H 0.52766 0.89457 0.88654 0.0
H2257 H 0.58756 0.89349 0.93376 0.0
H2258 H 0.52239 0.92857 0.9105 0.0
H2259 H 0.58277 0.92799 0.95738 0.0
H2260 H 0.57861 1.00343 0.9803 0.0
H2261 H 0.5841 0.96932 0.95645 0.0
H2262 H 0.51254 0.94224 0.95001 0.0
H2263 H 0.50732 0.97607 0.97443 0.0
C2264 C 0.53992 0.90172 0.90189 0.0
C2265 C 0.55818 0.89114 0.90791 0.0
C2266 C 0.53679 0.92126 0.91584 0.0
C2267 C 0.55214 0.93145 0.9361 0.0
C2268 C 0.5706 0.921 0.94193 0.0
C2269 C 0.57335 0.90105 0.92834 0.0
C2270 C 0.56404 0.99019 0.97376 0.0
C2271 C 0.54251 0.99266 0.97938 0.0
C2272 C 0.56719 0.97046 0.96014 0.0
C2273 C 0.54882 0.95265 0.95103 0.0
C2274 C 0.5272 0.95539 0.95641 0.0
C2275 C 0.52417 0.97485 0.97058 0.0
H2276 H 0.96416 0.79622 0.70864 0.0
H2277 H 0.96359 0.73706 0.74386 0.0
H2278 H 0.92683 0.79862 0.71928 0.0
H2279 H 0.92608 0.73959 0.75511 0.0
H2280 H 0.84938 0.7394 0.75911 0.0
H2281 H 0.88671 0.73588 0.74808 0.0
H2282 H 0.9027 0.80746 0.74507 0.0
H2283 H 0.86554 0.81055 0.75518 0.0
C2284 C 0.95623 0.7837 0.71891 0.0
C2285 C 0.96763 0.7665 0.72536 0.0
C2286 C 0.93444 0.78516 0.72527 0.0
C2287 C 0.92252 0.76944 0.73848 0.0
C2288 C 0.93394 0.75212 0.74485 0.0
C2289 C 0.95588 0.75071 0.73851 0.0
C2290 C 0.86082 0.75445 0.75613 0.0
C2291 C 0.85385 0.77541 0.7586 0.0
C2292 C 0.88264 0.75247 0.74983 0.0
C2293 C 0.89871 0.77131 0.74546 0.0
C2294 C 0.89148 0.79219 0.74779 0.0
C2295 C 0.8698 0.79411 0.75407 0.0
H2296 H 0.0838 0.04944 0.85044 0.0
H2297 H 0.15243 0.0636 0.88504 0.0
H2298 H 0.06997 0.04595 0.88887 0.0
H2299 H 0.13882 0.06079 0.92348 0.0
H2300 H 0.109 0.03594 0.98885 0.0
H2301 H 0.12266 0.03818 0.95017 0.0
H2302 H 0.06428 0.06427 0.92493 0.0
H2303 H 0.05071 0.06179 0.96327 0.0
C2304 C 0.09598 0.05193 0.86625 0.0
C2305 C 0.11928 0.05685 0.86441 0.0
C2306 C 0.08805 0.05007 0.8885 0.0
C2307 C 0.10313 0.05306 0.9098 0.0
C2308 C 0.12646 0.05796 0.9078 0.0
C2309 C 0.13435 0.0598 0.88558 0.0
C2310 C 0.09903 0.04205 0.975 0.0
C2311 C 0.07846 0.04822 0.97935 0.0
C2312 C 0.10695 0.04351 0.95268 0.0
C2313 C 0.09465 0.0513 0.93385 0.0
C2314 C 0.07418 0.05768 0.93842 0.0
C2315 C 0.06633 0.05626 0.96067 0.0
H2316 H 0.80555 0.37176 0.55148 0.0
H2317 H 0.79291 0.4348 0.58398 0.0
H2318 H 0.80521 0.35718 0.58937 0.0
H2319 H 0.79194 0.41991 0.62202 0.0
H2320 H 0.83801 0.39602 0.68304 0.0
H2321 H 0.82258 0.4116 0.64868 0.0
H2322 H 0.783 0.34565 0.62069 0.0
H2323 H 0.79907 0.33015 0.65496 0.0
C2324 C 0.80219 0.38228 0.56666 0.0
C2325 C 0.79941 0.40437 0.56499 0.0
C2326 C 0.8017 0.37386 0.58829 0.0
C2327 C 0.79827 0.38737 0.60853 0.0
C2328 C 0.79458 0.4092 0.60663 0.0
C2329 C 0.79518 0.41768 0.58495 0.0
C2330 C 0.82561 0.38513 0.6697 0.0
C2331 C 0.82007 0.36199 0.67082 0.0
C2332 C 0.81657 0.39399 0.65026 0.0
C2333 C 0.80197 0.37966 0.63187 0.0
C2334 C 0.79456 0.35689 0.63448 0.0
C2335 C 0.80368 0.34805 0.65391 0.0
H2336 H 0.40757 0.02676 0.39716 0.0
H2337 H 0.46932 0.03865 0.36473 0.0
H2338 H 0.42964 0.02574 0.43533 0.0
H2339 H 0.49114 0.03772 0.40271 0.0
H2340 H 0.51932 1.00971 0.46667 0.0
H2341 H 0.49395 1.00701 0.43006 0.0
H2342 H 0.45991 0.05576 0.46345 0.0
H2343 H 0.48557 0.05892 0.50006 0.0
C2344 C 0.4258 0.02922 0.39825 0.0
C2345 C 0.43687 0.03281 0.3782 0.0
C2346 C 0.43831 0.02862 0.41994 0.0
C2347 C 0.46187 0.03147 0.42158 0.0
C2348 C 0.47289 0.03514 0.40157 0.0
C2349 C 0.46045 0.03582 0.37999 0.0
C2350 C 0.50648 0.01991 0.46616 0.0
C2351 C 0.5046 0.03486 0.4859 0.0
C2352 C 0.49196 0.01824 0.44537 0.0
C2353 C 0.47528 0.0313 0.44421 0.0
C2354 C 0.4727 0.04551 0.46419 0.0
C2355 C 0.48742 0.04741 0.48496 0.0
H2356 H 0.74882 0.70325 0.09783 0.0
H2357 H 0.81502 0.74198 0.09371 0.0
H2358 H 0.75268 0.71615 0.14005 0.0
H2359 H 0.81875 0.75584 0.13592 0.0
H2360 H 0.82775 0.76646 0.21698 0.0
H2361 H 0.82474 0.75121 0.17528 0.0
H2362 H 0.75205 0.74324 0.16983 0.0
H2363 H 0.75533 0.756 0.21174 0.0
C2364 C 0.76417 0.71479 0.1059 0.0
C2365 C 0.78147 0.72172 0.09209 0.0
C2366 C 0.76639 0.72243 0.13034 0.0
C2367 C 0.78602 0.73744 0.14205 0.0
C2368 C 0.80341 0.74421 0.1281 0.0
C2369 C 0.80119 0.73646 0.10361 0.0
C2370 C 0.81109 0.76143 0.20688 0.0
C2371 C 0.79171 0.76335 0.21796 0.0
C2372 C 0.80933 0.75278 0.18266 0.0
C2373 C 0.78811 0.74608 0.16838 0.0
C2374 C 0.7688 0.7478 0.1797 0.0
C2375 C 0.77062 0.75579 0.20399 0.0
H2376 H 0.08172 0.05271 0.73106 0.0
H2377 H 0.14924 0.05678 0.71255 0.0
H2378 H 0.06701 0.04926 0.68889 0.0
H2379 H 0.13495 0.05427 0.67078 0.0
H2380 H 0.10277 0.02945 0.59506 0.0
H2381 H 0.1161 0.03172 0.63708 0.0
H2382 H 0.06278 0.06631 0.65429 0.0
H2383 H 0.0487 0.06276 0.61219 0.0
C2384 C 0.09347 0.05301 0.71803 0.0
C2385 C 0.11671 0.05499 0.72542 0.0
C2386 C 0.08506 0.05118 0.69369 0.0
C2387 C 0.09962 0.05139 0.67588 0.0
C2388 C 0.1229 0.05352 0.6835 0.0
C2389 C 0.13122 0.05517 0.7077 0.0
C2390 C 0.09379 0.03753 0.60774 0.0
C2391 C 0.07472 0.04619 0.59987 0.0
C2392 C 0.10163 0.03905 0.63209 0.0
C2393 C 0.09081 0.04943 0.64964 0.0
C2394 C 0.07163 0.05798 0.6417 0.0
C2395 C 0.06367 0.05627 0.61731 0.0
H2396 H 0.81855 0.42274 0.42228 0.0
H2397 H 0.78496 0.36293 0.44885 0.0
H2398 H 0.81946 0.40048 0.38448 0.0
H2399 H 0.78577 0.34085 0.41079 0.0
H2400 H 0.76609 0.3241 0.32793 0.0
H2401 H 0.76626 0.34679 0.36595 0.0
H2402 H 0.83931 0.36262 0.37467 0.0
H2403 H 0.8391 0.33892 0.33707 0.0
C2404 C 0.81128 0.40489 0.41996 0.0
C2405 C 0.80152 0.39441 0.43821 0.0
C2406 C 0.81196 0.39229 0.39853 0.0
C2407 C 0.8027 0.36927 0.39525 0.0
C2408 C 0.79286 0.35875 0.41332 0.0
C2409 C 0.79235 0.3713 0.43486 0.0
C2410 C 0.78208 0.33267 0.33799 0.0
C2411 C 0.80259 0.33047 0.32993 0.0
C2412 C 0.78218 0.34537 0.35954 0.0
C2413 C 0.80278 0.35621 0.37268 0.0
C2414 C 0.82333 0.35427 0.36445 0.0
C2415 C 0.82323 0.34091 0.34324 0.0
H2416 H 0.39791 0.04115 0.23064 0.0
H2417 H 0.46171 0.03267 0.26623 0.0
H2418 H 0.41392 0.04206 0.19325 0.0
H2419 H 0.47739 0.03257 0.22896 0.0
H2420 H 0.50606 0.03769 0.16363 0.0
H2421 H 0.48959 0.05269 0.19764 0.0
H2422 H 0.42386 0.01374 0.16699 0.0
H2423 H 0.44036 0.99979 0.13277 0.0
C2424 C 0.4154 0.03965 0.23044 0.0
C2425 C 0.42862 0.03672 0.25113 0.0
C2426 C 0.42454 0.04017 0.20911 0.0
C2427 C 0.44692 0.03748 0.20818 0.0
C2428 C 0.46026 0.03525 0.22914 0.0
C2429 C 0.45122 0.035 0.25046 0.0
C2430 C 0.48799 0.03304 0.16404 0.0
C2431 C 0.47434 0.01741 0.14623 0.0
C2432 C 0.4786 0.04146 0.18341 0.0
C2433 C 0.45556 0.03396 0.18521 0.0
C2434 C 0.44163 0.01993 0.16612 0.0
C2435 C 0.45101 0.01174 0.14666 0.0
H2436 H 0.76471 0.68871 0.93349 0.0
H2437 H 0.79641 0.75457 0.96939 0.0
H2438 H 0.76801 0.70248 0.89517 0.0
H2439 H 0.79982 0.76851 0.93075 0.0
H2440 H 0.82241 0.77799 0.8556 0.0
H2441 H 0.8194 0.76589 0.895 0.0
H2442 H 0.75273 0.72679 0.8695 0.0
H2443 H 0.75538 0.73983 0.83085 0.0
C2444 C 0.77232 0.70623 0.93325 0.0
C2445 C 0.78012 0.72053 0.95471 0.0
C2446 C 0.77414 0.71419 0.91114 0.0
C2447 C 0.78411 0.73673 0.90958 0.0
C2448 C 0.79214 0.75104 0.93107 0.0
C2449 C 0.79002 0.7431 0.9533 0.0
C2450 C 0.80704 0.76696 0.85845 0.0
C2451 C 0.7894 0.75945 0.83959 0.0
C2452 C 0.8053 0.75996 0.88112 0.0
C2453 C 0.78591 0.74502 0.88562 0.0
C2454 C 0.7682 0.73778 0.86678 0.0
C2455 C 0.76984 0.74503 0.84431 0.0
H2456 H 0.84394 0.11688 0.09993 0.0
H2457 H 0.81506 0.08613 0.02886 0.0
H2458 H 0.87995 0.10654 0.09316 0.0
H2459 H 0.85086 0.0764 0.02198 0.0
H2460 H 0.91099 0.05024 0.01669 0.0
H2461 H 0.87745 0.05282 0.03576 0.0
H2462 H 0.90716 0.1217 0.06489 0.0
H2463 H 0.94136 0.11866 0.04627 0.0
C2464 C 0.84517 0.1073 0.08319 0.0
C2465 C 0.82692 0.10196 0.06493 0.0
C2466 C 0.86567 0.10161 0.07933 0.0
C2467 C 0.86787 0.09059 0.05723 0.0
C2468 C 0.84926 0.08436 0.03943 0.0
C2469 C 0.8288 0.08987 0.04333 0.0
C2470 C 0.91032 0.0658 0.02742 0.0
C2471 C 0.92795 0.08459 0.02959 0.0
C2472 C 0.8914 0.06718 0.03842 0.0
C2473 C 0.88985 0.08748 0.05136 0.0
C2474 C 0.90819 0.10587 0.05493 0.0
C2475 C 0.92736 0.10438 0.044 0.0
H2476 H 0.39334 0.41382 0.0261 0.0
H2477 H 0.37562 0.46757 0.07102 0.0
H2478 H 0.42931 0.43815 0.02232 0.0
H2479 H 0.4119 0.49189 0.06754 0.0
H2480 H 0.49115 0.51672 0.0757 0.0
H2481 H 0.45409 0.49399 0.07962 0.0
H2482 H 0.44291 0.47368 0.00388 0.0
H2483 H 0.4795 0.49723 1.0 0.0
C2484 C 0.39718 0.4308 0.03533 0.0
C2485 C 0.38159 0.4387 0.04895 0.0
C2486 C 0.41776 0.44481 0.033 0.0
C2487 C 0.42351 0.46702 0.04457 0.0
C2488 C 0.40807 0.47484 0.0585 0.0
C2489 C 0.38725 0.46093 0.06046 0.0
C2490 C 0.48052 0.50768 0.0599 0.0
C2491 C 0.48806 0.50875 0.03757 0.0
C2492 C 0.45935 0.49465 0.06211 0.0
C2493 C 0.44554 0.48189 0.04208 0.0
C2494 C 0.45314 0.48316 0.01968 0.0
C2495 C 0.47399 0.49674 0.01742 0.0
H2496 H 0.4135 0.58283 0.81357 0.0
H2497 H 0.39692 0.57318 0.73731 0.0
H2498 H 0.39576 0.6157 0.81599 0.0
H2499 H 0.37949 0.6065 0.73968 0.0
H2500 H 0.37922 0.68486 0.75978 0.0
H2501 H 0.39246 0.64934 0.75249 0.0
H2502 H 0.356 0.62323 0.80791 0.0
H2503 H 0.34286 0.65871 0.81505 0.0
C2504 C 0.40602 0.58775 0.79734 0.0
C2505 C 0.40635 0.57535 0.7753 0.0
C2506 C 0.39576 0.60648 0.79872 0.0
C2507 C 0.38601 0.6135 0.77804 0.0
C2508 C 0.38677 0.60138 0.7559 0.0
C2509 C 0.39661 0.58229 0.75457 0.0
C2510 C 0.37355 0.6712 0.76982 0.0
C2511 C 0.35997 0.67428 0.78782 0.0
C2512 C 0.38114 0.65095 0.76574 0.0
C2513 C 0.37546 0.63364 0.77984 0.0
C2514 C 0.36086 0.6364 0.79699 0.0
C2515 C 0.35317 0.65654 0.80093 0.0
H2516 H 0.19672 0.63214 0.57116 0.0
H2517 H 0.21318 0.58285 0.51925 0.0
H2518 H 0.15711 0.62039 0.55589 0.0
H2519 H 0.17357 0.572 0.50273 0.0
H2520 H 0.10317 0.53515 0.517 0.0
H2521 H 0.14237 0.55135 0.51555 0.0
H2522 H 0.12735 0.61828 0.52576 0.0
H2523 H 0.08836 0.6016 0.52935 0.0
C2524 C 0.19178 0.61885 0.55634 0.0
C2525 C 0.20773 0.60798 0.54662 0.0
C2526 C 0.16916 0.61249 0.54718 0.0
C2527 C 0.16223 0.5954 0.52787 0.0
C2528 C 0.1784 0.58506 0.51775 0.0
C2529 C 0.20099 0.59111 0.52727 0.0
C2530 C 0.10826 0.55329 0.51801 0.0
C2531 C 0.09323 0.56728 0.52319 0.0
C2532 C 0.13063 0.56265 0.51698 0.0
C2533 C 0.13804 0.58615 0.52101 0.0
C2534 C 0.12215 0.60011 0.52315 0.0
C2535 C 0.09982 0.59065 0.52478 0.0
H2536 H 0.73714 1.00063 0.7192 0.0
H2537 H 0.71789 1.00878 0.78986 0.0
H2538 H 0.74928 0.96528 0.72746 0.0
H2539 H 0.7298 0.97423 0.79803 0.0
H2540 H 0.77601 0.93283 0.81794 0.0
H2541 H 0.77306 0.96597 0.79815 0.0
H2542 H 0.72322 0.92512 0.74347 0.0
H2543 H 0.72693 0.89153 0.76294 0.0
C2544 C 0.73594 0.9949 0.73646 0.0
C2545 C 0.7272 1.00698 0.7542 0.0
C2546 C 0.7426 0.97494 0.74104 0.0
C2547 C 0.74077 0.9678 0.76342 0.0
C2548 C 0.7317 0.97995 0.78085 0.0
C2549 C 0.72493 0.99949 0.77623 0.0
C2550 C 0.76445 0.93107 0.80172 0.0
C2551 C 0.75056 0.91037 0.79251 0.0
C2552 C 0.76329 0.94967 0.79013 0.0
C2553 C 0.74792 0.94766 0.76958 0.0
C2554 C 0.73529 0.92666 0.75927 0.0
C2555 C 0.73684 0.90784 0.77067 0.0
H2556 H 0.7764 0.95671 0.57447 0.0
H2557 H 0.73907 0.90156 0.5235 0.0
H2558 H 0.74288 0.97377 0.57415 0.0
H2559 H 0.70616 0.9188 0.52238 0.0
H2560 H 0.64419 0.9425 0.53239 0.0
H2561 H 0.67707 0.92653 0.54357 0.0
H2562 H 0.71976 0.99271 0.55009 0.0
H2563 H 0.68637 1.00867 0.53975 0.0
C2564 C 0.76105 0.94826 0.56319 0.0
C2565 C 0.76035 0.92775 0.54907 0.0
C2566 C 0.74187 0.95807 0.56293 0.0
C2567 C 0.72162 0.94761 0.54845 0.0
C2568 C 0.72113 0.92712 0.5343 0.0
C2569 C 0.74015 0.91728 0.53473 0.0
C2570 C 0.66052 0.95369 0.53711 0.0
C2571 C 0.66283 0.97673 0.53521 0.0
C2572 C 0.67946 0.94454 0.54313 0.0
C2573 C 0.70126 0.95818 0.54702 0.0
C2574 C 0.7033 0.98164 0.54717 0.0
C2575 C 0.68419 0.99085 0.54134 0.0
H2576 H 0.36609 0.4646 0.75118 0.0
H2577 H 0.42425 0.44218 0.7832 0.0
H2578 H 0.34211 0.42833 0.75505 0.0
H2579 H 0.40028 0.4062 0.78749 0.0
H2580 H 0.34507 0.35676 0.81656 0.0
H2581 H 0.36849 0.39285 0.81148 0.0
H2582 H 0.33653 0.38657 0.73919 0.0
H2583 H 0.31411 0.34967 0.74399 0.0
C2584 C 0.37377 0.45189 0.75891 0.0
C2585 C 0.39711 0.45622 0.7667 0.0
C2586 C 0.36004 0.43111 0.7611 0.0
C2587 C 0.36924 0.41437 0.77165 0.0
C2588 C 0.3926 0.41875 0.77943 0.0
C2589 C 0.40638 0.43931 0.77678 0.0
C2590 C 0.34327 0.363 0.79952 0.0
C2591 C 0.32812 0.35029 0.78052 0.0
C2592 C 0.35662 0.38369 0.79662 0.0
C2593 C 0.35456 0.39254 0.77485 0.0
C2594 C 0.33854 0.38025 0.75618 0.0
C2595 C 0.32564 0.35921 0.75892 0.0
H2596 H 0.19705 0.63615 0.26299 0.0
H2597 H 0.26387 0.62134 0.27696 0.0
H2598 H 0.21272 0.67607 0.27276 0.0
H2599 H 0.2795 0.66132 0.28777 0.0
H2600 H 0.30115 0.73254 0.27216 0.0
H2601 H 0.28553 0.69282 0.26644 0.0
H2602 H 0.23016 0.70449 0.30484 0.0
H2603 H 0.24447 0.74481 0.3081 0.0
C2604 C 0.2151 0.64151 0.26824 0.0
C2605 C 0.22943 0.62594 0.26905 0.0
C2606 C 0.22398 0.66426 0.27415 0.0
C2607 C 0.24725 0.67162 0.28105 0.0
C2608 C 0.26149 0.65596 0.28225 0.0
C2609 C 0.25262 0.63319 0.27617 0.0
C2610 C 0.28573 0.72674 0.27957 0.0
C2611 C 0.27415 0.74178 0.29093 0.0
C2612 C 0.27693 0.70392 0.27649 0.0
C2613 C 0.25688 0.69567 0.28552 0.0
C2614 C 0.24564 0.71056 0.29762 0.0
C2615 C 0.25405 0.73357 0.29995 0.0
H2616 H 0.55003 0.71506 0.46293 0.0
H2617 H 0.49255 0.71253 0.50137 0.0
H2618 H 0.55776 0.6807 0.47825 0.0
H2619 H 0.49978 0.67761 0.51612 0.0
H2620 H 0.50551 0.60147 0.51711 0.0
H2621 H 0.49874 0.63688 0.50386 0.0
H2622 H 0.57049 0.6632 0.51396 0.0
H2623 H 0.57708 0.62766 0.52751 0.0
C2624 C 0.53889 0.70721 0.47463 0.0
C2625 C 0.52054 0.71708 0.48069 0.0
C2626 C 0.54345 0.68732 0.48362 0.0
C2627 C 0.52951 0.67573 0.49864 0.0
C2628 C 0.51103 0.68554 0.50459 0.0
C2629 C 0.50686 0.70585 0.49614 0.0
C2630 C 0.51994 0.61471 0.51655 0.0
C2631 C 0.54193 0.61109 0.52355 0.0
C2632 C 0.51602 0.63538 0.50904 0.0
C2633 C 0.53392 0.65355 0.50758 0.0
C2634 C 0.55601 0.64995 0.51452 0.0
C2635 C 0.55988 0.62938 0.52258 0.0
H2636 H 0.65587 0.33714 0.65318 0.0
H2637 H 0.61975 0.28071 0.68215 0.0
H2638 H 0.68838 0.33926 0.68282 0.0
H2639 H 0.65259 0.28095 0.71023 0.0
H2640 H 0.70853 0.29106 0.77047 0.0
H2641 H 0.6759 0.29181 0.74273 0.0
H2642 H 0.71922 0.33101 0.70007 0.0
H2643 H 0.75127 0.33235 0.72962 0.0
C2644 C 0.65511 0.32484 0.66563 0.0
C2645 C 0.63519 0.30878 0.66526 0.0
C2646 C 0.67396 0.32587 0.68278 0.0
C2647 C 0.67384 0.31034 0.6997 0.0
C2648 C 0.65384 0.29385 0.69855 0.0
C2649 C 0.63481 0.29341 0.68202 0.0
C2650 C 0.711 0.30056 0.75564 0.0
C2651 C 0.73274 0.31199 0.75277 0.0
C2652 C 0.69211 0.30049 0.73901 0.0
C2653 C 0.69419 0.31127 0.71829 0.0
C2654 C 0.71611 0.32277 0.7156 0.0
C2655 C 0.73485 0.32341 0.73265 0.0
H2656 H 1.0117 0.34421 0.01915 0.0
H2657 H 0.0255 0.36109 0.95007 0.0
H2658 H 1.01482 0.38428 0.03317 0.0
H2659 H 0.0272 0.40038 0.96313 0.0
H2660 H 0.04684 0.47325 0.99227 0.0
H2661 H 0.04444 0.43365 0.98101 0.0
H2662 H 1.0043 0.41863 0.03767 0.0
H2663 H 1.0092 0.45906 0.05054 0.0
C2664 C 0.01531 0.3564 0.00686 0.0
C2665 C 0.01857 0.34903 0.98342 0.0
C2666 C 0.01695 0.37966 0.01487 0.0
C2667 C 0.02161 0.39655 0.99968 0.0
C2668 C 0.02438 0.38879 0.97611 0.0
C2669 C 0.02315 0.36579 0.96833 0.0
C2670 C 0.03792 0.46167 1.0028 0.0
C2671 C 0.02864 0.46998 0.02269 0.0
C2672 C 0.03596 0.43842 0.99588 0.0
C2673 C 0.02384 0.4219 0.00795 0.0
C2674 C 1.01403 0.43021 0.0277 0.0
C2675 C 0.01649 0.45371 0.03498 0.0
H2676 H 0.03593 0.82465 0.18664 0.0
H2677 H 0.9957 0.77761 0.1294 0.0
H2678 H 1.00444 0.81995 0.20996 0.0
H2679 H 0.96451 0.77187 0.1531 0.0
H2680 H 0.90622 0.77146 0.19477 0.0
H2681 H 0.93548 0.78504 0.17036 0.0
H2682 H 0.98599 0.7943 0.23191 0.0
H2683 H 0.95659 0.78158 0.25604 0.0
C2684 C 0.02031 0.8133 0.17903 0.0
C2685 C 0.01832 0.80149 0.15618 0.0
C2686 C 1.00224 0.81044 0.19248 0.0
C2687 C 0.98178 0.79539 0.18363 0.0
C2688 C 0.97973 0.78392 0.1605 0.0
C2689 C 0.99772 0.78704 0.14691 0.0
C2690 C 0.92351 0.77725 0.2031 0.0
C2691 C 0.92922 0.77575 0.22727 0.0
C2692 C 0.94038 0.78464 0.18908 0.0
C2693 C 0.96332 0.79054 0.19896 0.0
C2694 C 0.96864 0.79023 0.22355 0.0
C2695 C 0.95179 0.78292 0.23749 0.0
H2696 H 0.55936 0.30297 0.13676 0.0
H2697 H 0.51982 0.33797 0.1804 0.0
H2698 H 0.56538 0.33411 0.11347 0.0
H2699 H 0.52452 0.36897 0.15597 0.0
H2700 H 0.5614 0.43034 0.12232 0.0
H2701 H 0.54942 0.3998 0.1457 0.0
H2702 H 0.54841 0.35124 0.08447 0.0
H2703 H 0.56152 0.38181 0.06189 0.0
C2704 C 0.55166 0.3173 0.14113 0.0
C2705 C 0.53903 0.31801 0.16029 0.0
C2706 C 0.55487 0.33514 0.12757 0.0
C2707 C 0.54501 0.35404 0.13232 0.0
C2708 C 0.53249 0.35483 0.15175 0.0
C2709 C 0.52972 0.33707 0.16574 0.0
C2710 C 0.55793 0.41311 0.11381 0.0
C2711 C 0.56231 0.40834 0.09036 0.0
C2712 C 0.55113 0.39554 0.12719 0.0
C2713 C 0.5485 0.37287 0.11729 0.0
C2714 C 0.551 0.36837 0.09308 0.0
C2715 C 0.55808 0.38587 0.0799 0.0
H2716 H 0.97815 0.33199 0.36906 0.0
H2717 H 0.9922 0.30888 0.29934 0.0
H2718 H 0.93858 0.32954 0.35359 0.0
H2719 H 0.95217 0.30601 0.28378 0.0
H2720 H 0.87259 0.27926 0.27274 0.0
H2721 H 0.91331 0.284 0.28534 0.0
H2722 H 0.91234 0.34639 0.32802 0.0
H2723 H 0.87173 0.34196 0.31455 0.0
C2724 C 0.97288 0.32638 0.35033 0.0
C2725 C 0.98882 0.3207 0.33561 0.0
C2726 C 0.94997 0.3251 0.34135 0.0
C2727 C 0.94167 0.31762 0.31724 0.0
C2728 C 0.95757 0.31176 0.30245 0.0
C2729 C 0.98072 0.31349 0.31138 0.0
C2730 C 0.88111 0.29416 0.2846 0.0
C2731 C 0.8686 0.31019 0.29253 0.0
C2732 C 0.90463 0.29694 0.29184 0.0
C2733 C 0.9166 0.31554 0.30799 0.0
C2734 C 0.90403 0.3317 0.31578 0.0
C2735 C 0.88059 0.32924 0.30793 0.0
H2736 H 1.00622 0.71147 0.62056 0.0
H2737 H 0.04795 0.68728 0.67402 0.0
H2738 H 1.00824 0.67912 0.59209 0.0
H2739 H 0.05028 0.65511 0.64552 0.0
H2740 H 0.06973 0.61395 0.58055 0.0
H2741 H 0.067 0.6462 0.6089 0.0
H2742 H 0.99605 0.63763 0.58325 0.0
H2743 H 0.99889 0.60511 0.55525 0.0
C2744 C 0.01573 0.69918 0.62631 0.0
C2745 C 0.02675 0.70198 0.64975 0.0
C2746 C 0.01686 0.68054 0.60996 0.0
C2747 C 0.02948 0.66433 0.61631 0.0
C2748 C 0.04054 0.66722 0.63978 0.0
C2749 C 0.03903 0.68561 0.65626 0.0
C2750 C 0.05359 0.61905 0.58097 0.0
C2751 C 0.03451 0.60697 0.56572 0.0
C2752 C 0.05195 0.63746 0.59734 0.0
C2753 C 0.03126 0.64467 0.59861 0.0
C2754 C 1.0123 0.6328 0.58283 0.0
C2755 C 1.01388 0.6141 0.56677 0.0
H2756 H 0.60435 0.79328 0.80746 0.0
H2757 H 0.64403 0.84165 0.86337 0.0
H2758 H 0.63875 0.78483 0.79341 0.0
H2759 H 0.67837 0.83347 0.84998 0.0
H2760 H 0.74296 0.81916 0.82437 0.0
H2761 H 0.70865 0.82813 0.83645 0.0
H2762 H 0.66994 0.77531 0.78337 0.0
H2763 H 0.70509 0.76778 0.77037 0.0
C2764 C 0.62046 0.80235 0.81678 0.0
C2765 C 0.62084 0.81844 0.83666 0.0
C2766 C 0.64071 0.79736 0.8087 0.0
C2767 C 0.66269 0.80815 0.82 0.0
C2768 C 0.66273 0.82435 0.83994 0.0
C2769 C 0.64254 0.82926 0.84796 0.0
C2770 C 0.72721 0.80969 0.81486 0.0
C2771 C 0.7276 0.79297 0.79591 0.0
C2772 C 0.70682 0.81466 0.82213 0.0
C2773 C 0.68508 0.80273 0.81143 0.0
C2774 C 0.68551 0.78554 0.79256 0.0
C2775 C 0.70611 0.78095 0.78492 0.0
H2776 H 0.45942 0.55917 0.70308 0.0
H2777 H 0.49224 0.50326 0.71292 0.0
H2778 H 0.47839 0.56621 0.66855 0.0
H2779 H 0.51015 0.50904 0.67722 0.0
H2780 H 0.55235 0.5312 0.62054 0.0
H2781 H 0.53607 0.52726 0.65717 0.0
H2782 H 0.48124 0.55783 0.63013 0.0
H2783 H 0.49888 0.56349 0.59437 0.0
C2784 C 0.4706 0.54819 0.6977 0.0
C2785 C 0.47429 0.53064 0.71088 0.0
C2786 C 0.48141 0.55207 0.67753 0.0
C2787 C 0.49595 0.5382 0.6694 0.0
C2788 C 0.49957 0.52055 0.68275 0.0
C2789 C 0.48909 0.517 0.70327 0.0
C2790 C 0.53706 0.53756 0.62262 0.0
C2791 C 0.52714 0.54797 0.60446 0.0
C2792 C 0.52737 0.5349 0.64366 0.0
C2793 C 0.50697 0.54197 0.64713 0.0
C2794 C 0.49711 0.55245 0.62883 0.0
C2795 C 0.50714 0.55559 0.608 0.0
H2796 H 0.79455 0.1534 0.98601 0.0
H2797 H 0.77002 0.2025 0.03128 0.0
H2798 H 0.79077 0.17583 0.95301 0.0
H2799 H 0.76551 0.22407 0.99868 0.0
H2800 H 0.77107 0.26859 0.94601 0.0
H2801 H 0.78806 0.24721 0.97437 0.0
H2802 H 0.75818 0.18527 0.92872 0.0
H2803 H 0.74219 0.20703 0.89987 0.0
C2804 C 0.78868 0.16908 0.98891 0.0
C2805 C 0.78297 0.17655 0.01113 0.0
C2806 C 0.78646 0.18178 0.97015 0.0
C2807 C 0.7784 0.20187 0.97357 0.0
C2808 C 0.77264 0.20911 0.99582 0.0
C2809 C 0.77508 0.19667 0.01446 0.0
C2810 C 0.76862 0.25045 0.94204 0.0
C2811 C 0.75494 0.2391 0.92158 0.0
C2812 C 0.77832 0.23828 0.95803 0.0
C2813 C 0.77392 0.21465 0.95386 0.0
C2814 C 0.76179 0.20348 0.93228 0.0
C2815 C 0.75239 0.21577 0.91606 0.0
H2816 H 0.13737 0.51712 0.20417 0.0
H2817 H 0.17992 0.57019 0.1752 0.0
H2818 H 0.10784 0.51491 0.1712 0.0
H2819 H 0.15014 0.56779 0.14209 0.0
H2820 H 0.07711 0.5776 0.11533 0.0
H2821 H 0.10818 0.5771 0.14643 0.0
H2822 H 0.10414 0.50631 0.12401 0.0
H2823 H 0.0737 0.50695 0.09274 0.0
C2824 C 0.14054 0.52792 0.19045 0.0
C2825 C 0.16064 0.54397 0.1921 0.0
C2826 C 0.12374 0.52665 0.17177 0.0
C2827 C 0.12698 0.54144 0.15476 0.0
C2828 C 0.14753 0.55654 0.1555 0.0
C2829 C 0.16447 0.55771 0.17414 0.0
C2830 C 0.08286 0.56202 0.11742 0.0
C2831 C 0.07382 0.54247 0.10179 0.0
C2832 C 0.10057 0.56178 0.13477 0.0
C2833 C 0.10844 0.54176 0.13686 0.0
C2834 C 0.09832 0.5219 0.12217 0.0
C2835 C 0.0811 0.52229 0.1045 0.0
H2836 H 0.83386 0.84062 0.48646 0.0
H2837 H 0.7893 0.88339 0.4622 0.0
H2838 H 0.83143 0.82232 0.44586 0.0
H2839 H 0.7873 0.86572 0.4216 0.0
H2840 H 0.77151 0.81783 0.35333 0.0
H2841 H 0.77298 0.83395 0.3944 0.0
H2842 H 0.84211 0.82545 0.40802 0.0
H2843 H 0.83981 0.80883 0.36706 0.0
C2844 C 0.82353 0.84611 0.47244 0.0
C2845 C 0.81175 0.86346 0.47767 0.0
C2846 C 0.82227 0.83574 0.44902 0.0
C2847 C 0.80913 0.84237 0.43009 0.0
C2848 C 0.79731 0.85973 0.4355 0.0
C2849 C 0.79861 0.87008 0.45887 0.0
C2850 C 0.78704 0.81964 0.36504 0.0
C2851 C 0.80569 0.81239 0.35653 0.0
C2852 C 0.78798 0.82893 0.38875 0.0
C2853 C 0.80781 0.83146 0.40488 0.0
C2854 C 0.82638 0.8237 0.39647 0.0
C2855 C 0.8252 0.81417 0.37275 0.0
H2856 H 0.44932 0.49839 0.84978 0.0
H2857 H 0.50057 0.55372 0.83728 0.0
H2858 H 0.46765 0.50031 0.8903 0.0
H2859 H 0.5189 0.55584 0.87818 0.0
H2860 H 0.52684 0.56767 0.96173 0.0
H2861 H 0.51091 0.56582 0.92014 0.0
H2862 H 0.50298 0.49345 0.91227 0.0
H2863 H 0.51851 0.49558 0.95391 0.0
C2864 C 0.46455 0.51098 0.85568 0.0
C2865 C 0.47347 0.52588 0.84021 0.0
C2866 C 0.47515 0.51199 0.87893 0.0
C2867 C 0.49483 0.52818 0.88759 0.0
C2868 C 0.50372 0.54322 0.87216 0.0
C2869 C 0.49328 0.54195 0.84869 0.0
C2870 C 0.5218 0.55139 0.95105 0.0
C2871 C 0.52427 0.53171 0.9611 0.0
C2872 C 0.51281 0.55033 0.92715 0.0
C2873 C 0.50567 0.52949 0.91271 0.0
C2874 C 0.50824 0.50981 0.92279 0.0
C2875 C 0.51749 0.51097 0.94662 0.0
H2876 H 0.82236 0.19082 0.12459 0.0
H2877 H 0.75532 0.16191 0.13941 0.0
H2878 H 0.82578 0.22034 0.15746 0.0
H2879 H 0.759 0.19147 0.17281 0.0
H2880 H 0.76307 0.26695 0.19897 0.0
H2881 H 0.76124 0.23417 0.16957 0.0
H2882 H 0.82637 0.22553 0.20181 0.0
H2883 H 0.82849 0.25837 0.2305 0.0
C2884 C 0.80863 0.19054 0.13531 0.0
C2885 C 0.78846 0.17458 0.12956 0.0
C2886 C 0.81062 0.20728 0.15403 0.0
C2887 C 0.79247 0.20801 0.16704 0.0
C2888 C 0.77295 0.19109 0.16249 0.0
C2889 C 0.77097 0.17424 0.14372 0.0
C2890 C 0.77703 0.25814 0.19932 0.0
C2891 C 0.79564 0.26448 0.2169 0.0
C2892 C 0.77584 0.23937 0.18299 0.0
C2893 C 0.79345 0.22738 0.18419 0.0
C2894 C 0.81257 0.23456 0.20101 0.0
C2895 C 0.81373 0.25319 0.21727 0.0
H2896 H 0.18819 0.55538 0.3375 0.0
H2897 H 0.1325 0.56363 0.28748 0.0
H2898 H 0.16475 0.55754 0.36959 0.0
H2899 H 0.10969 0.56682 0.31925 0.0
H2900 H 0.06812 0.56691 0.37582 0.0
H2901 H 0.09007 0.54963 0.34826 0.0
H2902 H 0.15189 0.58841 0.38891 0.0
H2903 H 0.12981 0.60437 0.417 0.0
C2904 C 0.17092 0.5575 0.33342 0.0
C2905 C 0.16211 0.55962 0.31025 0.0
C2906 C 0.15757 0.55871 0.35168 0.0
C2907 C 0.13543 0.56231 0.34688 0.0
C2908 C 0.12648 0.56351 0.32346 0.0
C2909 C 0.13968 0.56203 0.30529 0.0
C2910 C 0.08641 0.57147 0.3787 0.0
C2911 C 0.09755 0.58745 0.39759 0.0
C2912 C 0.09893 0.56157 0.36319 0.0
C2913 C 0.12263 0.56803 0.36623 0.0
C2914 C 0.13368 0.58298 0.38618 0.0
C2915 C 0.12115 0.59248 0.40193 0.0
H2916 H 0.83124 0.88796 0.6325 0.0
H2917 H 0.78381 0.83362 0.58913 0.0
H2918 H 0.8255 0.8686 0.66759 0.0
H2919 H 0.77771 0.81454 0.62448 0.0
H2920 H 0.75728 0.8089 0.70452 0.0
H2921 H 0.76178 0.82589 0.66754 0.0
H2922 H 0.83344 0.82746 0.67893 0.0
H2923 H 0.82858 0.80869 0.71466 0.0
C2924 C 0.8196 0.87188 0.63041 0.0
C2925 C 0.80815 0.86231 0.60787 0.0
C2926 C 0.81633 0.86079 0.65054 0.0
C2927 C 0.8012 0.84001 0.64884 0.0
C2928 C 0.78942 0.83056 0.62641 0.0
C2929 C 0.793 0.84148 0.60615 0.0
C2930 C 0.77394 0.81276 0.699 0.0
C2931 C 0.79264 0.80775 0.71266 0.0
C2932 C 0.77651 0.82242 0.67782 0.0
C2933 C 0.79802 0.82826 0.67042 0.0
C2934 C 0.81668 0.82326 0.68417 0.0
C2935 C 0.81392 0.81256 0.70463 0.0
H2936 H 0.78548 0.49605 0.53139 0.0
H2937 H 0.73319 0.45063 0.48268 0.0
H2938 H 0.75856 0.5177 0.5432 0.0
H2939 H 0.70583 0.47358 0.49367 0.0
H2940 H 0.66624 0.49632 0.55564 0.0
H2941 H 0.68886 0.47837 0.52955 0.0
H2942 H 0.73492 0.54243 0.53242 0.0
H2943 H 0.71305 0.55968 0.55991 0.0
C2944 C 0.76828 0.4912 0.52254 0.0
C2945 C 0.76124 0.47177 0.50615 0.0
C2946 C 0.75286 0.5038 0.52913 0.0
C2947 C 0.73019 0.49753 0.51901 0.0
C2948 C 0.72329 0.47868 0.50166 0.0
C2949 C 0.7388 0.46567 0.49536 0.0
C2950 C 0.68132 0.5063 0.55061 0.0
C2951 C 0.68889 0.52885 0.56027 0.0
C2952 C 0.6939 0.49628 0.53533 0.0
C2953 C 0.71378 0.50902 0.52933 0.0
C2954 C 0.71992 0.53219 0.5373 0.0
C2955 C 0.7077 0.54199 0.55308 0.0
H2956 H 0.23105 0.11859 0.52006 0.0
H2957 H 0.19443 0.17227 0.5121 0.0
H2958 H 0.1956 0.09205 0.51972 0.0
H2959 H 0.15892 0.14584 0.51237 0.0
H2960 H 0.09736 0.08985 0.49256 0.0
H2961 H 0.13319 0.11454 0.48998 0.0
H2962 H 0.16612 0.08237 0.5438 0.0
H2963 H 0.13019 0.05741 0.54613 0.0
C2964 C 0.21539 0.12474 0.51823 0.0
C2965 C 0.21555 0.14757 0.51611 0.0
C2966 C 0.19505 0.10952 0.51821 0.0
C2967 C 0.17431 0.11673 0.51612 0.0
C2968 C 0.1745 0.13956 0.51372 0.0
C2969 C 0.19487 0.15479 0.51369 0.0
C2970 C 0.11228 0.08786 0.50368 0.0
C2971 C 0.1109 0.07152 0.51943 0.0
C2972 C 0.13284 0.10219 0.50234 0.0
C2973 C 0.15262 0.10063 0.51677 0.0
C2974 C 0.15134 0.08391 0.53217 0.0
C2975 C 0.13072 0.06954 0.53349 0.0
H2976 H 0.15032 0.9817 0.77583 0.0
H2977 H 0.21002 0.02608 0.81399 0.0
H2978 H 0.17225 0.95247 0.76868 0.0
H2979 H 0.23164 0.99674 0.80797 0.0
H2980 H 0.26865 0.9538 0.76159 0.0
H2981 H 0.24719 0.98065 0.77692 0.0
H2982 H 0.1923 0.92581 0.78315 0.0
H2983 H 0.21384 0.89898 0.7666 0.0
C2984 C 0.16801 0.98501 0.7831 0.0
C2985 C 0.17847 1.00617 0.79536 0.0
C2986 C 0.18058 0.96822 0.77918 0.0
C2987 C 0.20381 0.97222 0.78765 0.0
C2988 C 0.21393 0.99314 0.80078 0.0
C2989 C 0.20147 1.00994 0.80441 0.0
C2990 C 0.25225 0.94755 0.76692 0.0
C2991 C 0.24286 0.92448 0.76313 0.0
C2992 C 0.23989 0.96289 0.77576 0.0
C2993 C 0.21786 0.95547 0.78121 0.0
C2994 C 0.20905 0.93214 0.7788 0.0
C2995 C 0.22147 0.91674 0.76976 0.0
H2996 H 0.36888 0.98936 0.04839 0.0
H2997 H 0.38005 0.95366 0.9826 0.0
H2998 H 0.40869 1.00852 0.05483 0.0
H2999 H 0.419 0.97332 0.98823 0.0
H3000 H 0.48931 0.99724 0.0056 0.0
H3001 H 0.45373 0.97535 0.01286 0.0
H3002 H 0.43181 0.03689 0.03583 0.0
H3003 H 0.46866 0.05868 0.0305 0.0
C3004 C 0.37989 0.9858 0.03535 0.0
C3005 C 0.37181 0.97018 0.01511 0.0
C3006 C 0.40248 0.9966 0.03902 0.0
C3007 C 0.41684 0.99202 0.02225 0.0
C3008 C 0.40847 0.97655 1.00188 0.0
C3009 C 0.38617 0.96553 0.99848 0.0
C3010 C 0.47733 1.00595 0.01329 0.0
C3011 C 0.48144 0.02938 0.01795 0.0
C3012 C 0.4569 0.9935 0.01716 0.0
C3013 C 0.44005 1.00453 0.02456 0.0
C3014 C 0.44468 0.02803 0.03036 0.0
C3015 C 0.46545 0.04046 0.02703 0.0
H3016 H 0.87331 0.60264 0.84532 0.0
H3017 H 0.8664 0.56222 0.77721 0.0
H3018 H 0.85582 0.63082 0.82616 0.0
H3019 H 0.84918 0.58974 0.75821 0.0
H3020 H 0.83763 0.64826 0.72563 0.0
H3021 H 0.86141 0.62911 0.75024 0.0
H3022 H 0.81668 0.6303 0.80432 0.0
H3023 H 0.79329 0.6501 0.77992 0.0
C3024 C 0.86788 0.59992 0.82637 0.0
C3025 C 0.87053 0.58056 0.81252 0.0
C3026 C 0.85812 0.61585 0.81548 0.0
C3027 C 0.85164 0.61242 0.7908 0.0
C3028 C 0.85451 0.59292 0.77719 0.0
C3029 C 0.86394 0.57709 0.78802 0.0
C3030 C 0.83302 0.64438 0.74278 0.0
C3031 C 0.81345 0.64971 0.75073 0.0
C3032 C 0.84664 0.63379 0.7569 0.0
C3033 C 0.84054 0.62815 0.77888 0.0
C3034 C 0.82167 0.63469 0.78746 0.0
C3035 C 0.80819 0.64557 0.77343 0.0
H3036 H 0.82109 0.63621 0.99515 0.0
H3037 H 0.84605 0.67926 0.06114 0.0
H3038 H 0.85213 0.61627 1.00129 0.0
H3039 H 0.87608 0.65853 0.06826 0.0
H3040 H 0.93563 0.62742 0.07347 0.0
H3041 H 0.90992 0.65058 0.05838 0.0
H3042 H 0.86358 0.59022 0.0241 0.0
H3043 H 0.89008 0.56754 0.03821 0.0
C3044 C 0.83323 0.64133 0.011 0.0
C3045 C 0.8313 0.65927 0.02765 0.0
C3046 C 0.85094 0.62985 0.01462 0.0
C3047 C 0.86675 0.63575 0.03526 0.0
C3048 C 0.86471 0.65383 0.05183 0.0
C3049 C 0.84734 0.66562 0.0479 0.0
C3050 C 0.92031 0.61937 0.0619 0.0
C3051 C 0.91471 0.59591 0.05671 0.0
C3052 C 0.90538 0.63251 0.05359 0.0
C3053 C 0.88438 0.6223 0.04039 0.0
C3054 C 0.8796 0.59878 0.03398 0.0
C3055 C 0.89472 0.58571 0.04203 0.0
H3056 H 0.21775 0.10744 0.7913 0.0
H3057 H 0.16643 0.14462 0.80868 0.0
H3058 H 0.24429 0.14251 0.79064 0.0
H3059 H 0.19289 0.17991 0.80748 0.0
H3060 H 0.25164 0.2393 0.82629 0.0
H3061 H 0.2262 0.20386 0.82813 0.0
H3062 H 0.25252 0.17322 0.7682 0.0
H3063 H 0.27845 0.20879 0.76676 0.0
C3064 C 0.21211 0.12315 0.79497 0.0
C3065 C 0.18994 0.12325 0.80006 0.0
C3066 C 0.22732 0.1433 0.79438 0.0
C3067 C 0.22081 0.16413 0.7989 0.0
C3068 C 0.19863 0.16422 0.80415 0.0
C3069 C 0.18337 0.144 0.8047 0.0
C3070 C 0.25211 0.22497 0.81356 0.0
C3071 C 0.26709 0.22686 0.79636 0.0
C3072 C 0.23735 0.20465 0.8145 0.0
C3073 C 0.23707 0.18564 0.7982 0.0
C3074 C 0.25239 0.18742 0.78123 0.0
C3075 C 0.26727 0.2078 0.78036 0.0
H3076 H 0.38671 0.95695 0.33237 0.0
H3077 H 0.34564 0.96851 0.26999 0.0
H3078 H 0.3671 0.91813 0.32765 0.0
H3079 H 0.32673 0.92887 0.26414 0.0
H3080 H 0.27896 0.86864 0.28857 0.0
H3081 H 0.3004 0.90546 0.28335 0.0
H3082 H 0.36275 0.88345 0.30402 0.0
H3083 H 0.34103 0.84774 0.31149 0.0
C3084 C 0.37374 0.95091 0.31735 0.0
C3085 C 0.36755 0.96535 0.30147 0.0
C3086 C 0.36271 0.92866 0.31443 0.0
C3087 C 0.34574 0.92042 0.2952 0.0
C3088 C 0.33974 0.9349 0.27911 0.0
C3089 C 0.35046 0.95742 0.28242 0.0
C3090 C 0.29728 0.87183 0.29156 0.0
C3091 C 0.30865 0.8558 0.30005 0.0
C3092 C 0.30953 0.89264 0.28832 0.0
C3093 C 0.3332 0.89727 0.29347 0.0
C3094 C 0.34449 0.88039 0.30036 0.0
C3095 C 0.33218 0.85994 0.30434 0.0
H3096 H 0.54357 0.35731 0.56466 0.0
H3097 H 0.59848 0.38872 0.6185 0.0
H3098 H 0.54002 0.39396 0.5532 0.0
H3099 H 0.59503 0.42551 0.60772 0.0
H3100 H 0.59063 0.49434 0.58383 0.0
H3101 H 0.59487 0.45763 0.59435 0.0
H3102 H 0.53397 0.42709 0.5471 0.0
H3103 H 0.5312 0.46356 0.53557 0.0
C3104 C 0.55508 0.37205 0.5741 0.0
C3105 C 0.57147 0.36937 0.59256 0.0
C3106 C 0.55297 0.39368 0.56758 0.0
C3107 C 0.56712 0.41413 0.57914 0.0
C3108 C 0.58356 0.41115 0.59765 0.0
C3109 C 0.58563 0.38955 0.60411 0.0
C3110 C 0.57809 0.47981 0.57557 0.0
C3111 C 0.56022 0.48279 0.55889 0.0
C3112 C 0.58043 0.45816 0.58181 0.0
C3113 C 0.56479 0.43796 0.57212 0.0
C3114 C 0.54688 0.44119 0.55543 0.0
C3115 C 0.54491 0.46276 0.54883 0.0
H3116 H 0.43126 0.7899 0.43929 0.0
H3117 H 0.45662 0.76691 0.37546 0.0
H3118 H 0.39714 0.79524 0.41572 0.0
H3119 H 0.42282 0.77273 0.35165 0.0
H3120 H 0.35138 0.76868 0.31351 0.0
H3121 H 0.38503 0.76232 0.33722 0.0
H3122 H 0.37933 0.81582 0.39076 0.0
H3123 H 0.34567 0.82182 0.3669 0.0
C3124 C 0.42954 0.7858 0.42018 0.0
C3125 C 0.44686 0.77766 0.40952 0.0
C3126 C 0.40989 0.78916 0.40644 0.0
C3127 C 0.40662 0.78452 0.38135 0.0
C3128 C 0.42403 0.77626 0.37076 0.0
C3129 C 0.4437 0.77296 0.38452 0.0
C3130 C 0.3573 0.77904 0.3304 0.0
C3131 C 0.34522 0.79535 0.33845 0.0
C3132 C 0.37686 0.77549 0.34412 0.0
C3133 C 0.3854 0.78833 0.36645 0.0
C3134 C 0.37337 0.80496 0.37421 0.0
C3135 C 0.35376 0.80841 0.36049 0.0
H3136 H 0.07183 0.73452 0.05588 0.0
H3137 H 0.0585 0.72438 0.12697 0.0
H3138 H 0.06688 0.69351 0.04545 0.0
H3139 H 0.05411 0.68402 0.11703 0.0
H3140 H 0.02893 0.60936 0.09111 0.0
H3141 H 0.03338 0.65002 0.09971 0.0
H3142 H 0.0786 0.65896 0.04646 0.0
H3143 H 0.07292 0.61812 0.03707 0.0
C3144 C 0.06784 0.72368 0.06936 0.0
C3145 C 0.06557 0.73333 0.09237 0.0
C3146 C 0.06512 0.69987 0.06342 0.0
C3147 C 0.05987 0.68457 0.08019 0.0
C3148 C 0.05763 0.69447 0.10313 0.0
C3149 C 0.06039 0.71806 0.109 0.0
C3150 C 0.03992 0.61988 0.08119 0.0
C3151 C 0.05099 0.60981 0.06368 0.0
C3152 C 0.0427 0.64361 0.08631 0.0
C3153 C 0.05671 0.65871 0.07417 0.0
C3154 C 0.0676 0.64856 0.05644 0.0
C3155 C 0.06474 0.62476 0.0513 0.0
H3156 H 0.08391 0.26149 0.93581 0.0
H3157 H 0.05649 0.30283 0.88811 0.0
H3158 H 0.11699 0.26313 0.91496 0.0
H3159 H 0.09042 0.30628 0.86825 0.0
H3160 H 0.14915 0.30182 0.82697 0.0
H3161 H 0.11338 0.29292 0.84345 0.0
H3162 H 0.15027 0.28397 0.90981 0.0
H3163 H 0.18538 0.29179 0.89272 0.0
C3164 C 0.08512 0.27116 0.92094 0.0
C3165 C 0.06757 0.28203 0.91364 0.0
C3166 C 0.10428 0.27233 0.90899 0.0
C3167 C 0.10695 0.28508 0.88979 0.0
C3168 C 0.08916 0.29588 0.8825 0.0
C3169 C 0.06965 0.29411 0.89404 0.0
C3170 C 0.14936 0.2972 0.84481 0.0
C3171 C 0.17001 0.29727 0.85851 0.0
C3172 C 0.12886 0.2925 0.85453 0.0
C3173 C 0.1285 0.2879 0.8783 0.0
C3174 C 0.14932 0.28705 0.89145 0.0
C3175 C 0.16967 0.29162 0.88169 0.0
H3176 H 0.55225 0.78537 0.93915 0.0
H3177 H 0.56117 0.74828 0.87351 0.0
H3178 H 0.54945 0.75103 0.95831 0.0
H3179 H 0.56027 0.7146 0.89269 0.0
H3180 H 0.52957 0.6516 0.92175 0.0
H3181 H 0.53776 0.68628 0.90477 0.0
H3182 H 0.56266 0.72228 0.9748 0.0
H3183 H 0.55259 0.68699 0.99195 0.0
C3184 C 0.55389 0.76991 0.92889 0.0
C3185 C 0.55656 0.76955 0.90467 0.0
C3186 C 0.55252 0.75013 0.93995 0.0
C3187 C 0.55425 0.72948 0.92721 0.0
C3188 C 0.55795 0.72962 0.9032 0.0
C3189 C 0.55872 0.74916 0.89209 0.0
C3190 C 0.537 0.66688 0.93356 0.0
C3191 C 0.54009 0.66646 0.95822 0.0
C3192 C 0.54202 0.68703 0.92375 0.0
C3193 C 0.55089 0.70767 0.93817 0.0
C3194 C 0.55539 0.70704 0.96293 0.0
C3195 C 0.55001 0.68668 0.97283 0.0
H3196 H 0.11252 0.76855 0.68723 0.0
H3197 H 0.10357 0.7749 0.76127 0.0
H3198 H 0.15308 0.77313 0.69765 0.0
H3199 H 0.14475 0.78003 0.77199 0.0
H3200 H 0.22004 0.77138 0.78453 0.0
H3201 H 0.17889 0.7659 0.77518 0.0
H3202 H 0.18759 0.79642 0.71099 0.0
H3203 H 0.22846 0.80131 0.72015 0.0
C3204 C 0.11913 0.77104 0.7059 0.0
C3205 C 0.10413 0.77125 0.72324 0.0
C3206 C 0.14283 0.7739 0.71199 0.0
C3207 C 0.15309 0.7772 0.73587 0.0
C3208 C 0.13807 0.77735 0.75336 0.0
C3209 C 0.11417 0.7745 0.74719 0.0
C3210 C 0.21324 0.77663 0.76821 0.0
C3211 C 0.22815 0.78659 0.75307 0.0
C3212 C 0.18933 0.77375 0.76291 0.0
C3213 C 0.17905 0.78053 0.74209 0.0
C3214 C 0.19412 0.79047 0.72701 0.0
C3215 C 0.21795 0.7935 0.7324 0.0
H3216 H 0.08891 0.41064 0.40043 0.0
H3217 H 0.02838 0.37624 0.4242 0.0
H3218 H 0.08536 0.44576 0.42343 0.0
H3219 H 0.02476 0.41087 0.44739 0.0
H3220 H 1.01229 0.47916 0.47662 0.0
H3221 H 0.01574 0.44519 0.45175 0.0
H3222 H 0.08798 0.46941 0.45775 0.0
H3223 H 0.0839 0.504 0.4813 0.0
C3224 C 0.07477 0.41055 0.41052 0.0
C3225 C 0.05899 0.39036 0.41031 0.0
C3226 C 0.07275 0.43082 0.42406 0.0
C3227 C 0.05466 0.43187 0.43772 0.0
C3228 C 0.03884 0.41151 0.43719 0.0
C3229 C 0.04104 0.39128 0.42394 0.0
C3230 C 0.0289 0.47722 0.47251 0.0
C3231 C 0.04779 0.49444 0.48103 0.0
C3232 C 0.03102 0.45746 0.45828 0.0
C3233 C 0.05227 0.45375 0.45243 0.0
C3234 C 0.07118 0.47122 0.46113 0.0
C3235 C 0.06892 0.49122 0.47492 0.0
H3236 H 0.47643 0.27018 0.26176 0.0
H3237 H 0.448 0.26081 0.18828 0.0
H3238 H 0.43924 0.27319 0.27359 0.0
H3239 H 0.41121 0.26433 0.19979 0.0
H3240 H 0.34046 0.25422 0.22419 0.0
H3241 H 0.37767 0.25112 0.21327 0.0
H3242 H 0.40905 0.29109 0.27927 0.0
H3243 H 0.37167 0.29373 0.29024 0.0
C3244 C 0.46235 0.26877 0.24799 0.0
C3245 C 0.46585 0.26502 0.22386 0.0
C3246 C 0.44067 0.27067 0.25482 0.0
C3247 C 0.42119 0.26895 0.23793 0.0
C3248 C 0.42494 0.26536 0.21382 0.0
C3249 C 0.44651 0.26344 0.20705 0.0
C3250 C 0.3552 0.2623 0.23657 0.0
C3251 C 0.35233 0.27416 0.25834 0.0
C3252 C 0.377 0.26071 0.23012 0.0
C3253 C 0.39738 0.27079 0.2451 0.0
C3254 C 0.39441 0.28267 0.26695 0.0
C3255 C 0.37259 0.28438 0.27331 0.0
H3256 H 0.58243 0.54708 0.34983 0.0
H3257 H 0.65058 0.56711 0.38547 0.0
H3258 H 0.56838 0.54342 0.38815 0.0
H3259 H 0.63665 0.56421 0.42381 0.0
H3260 H 0.60699 0.53791 0.48911 0.0
H3261 H 0.62132 0.54055 0.45077 0.0
H3262 H 0.56128 0.5628 0.4234 0.0
H3263 H 0.5472 0.56032 0.4615 0.0
C3264 C 0.59443 0.55093 0.36585 0.0
C3265 C 0.61766 0.55748 0.36434 0.0
C3266 C 0.58636 0.54893 0.38801 0.0
C3267 C 0.60123 0.55353 0.40955 0.0
C3268 C 0.62451 0.56012 0.40791 0.0
C3269 C 0.63256 0.56198 0.38576 0.0
C3270 C 0.5968 0.5433 0.4749 0.0
C3271 C 0.57566 0.54851 0.47862 0.0
C3272 C 0.6051 0.54496 0.45278 0.0
C3273 C 0.59251 0.55174 0.43346 0.0
C3274 C 0.57144 0.55705 0.43735 0.0
C3275 C 0.5633 0.55563 0.45945 0.0
H3276 H 0.27886 0.92108 0.07702 0.0
H3277 H 0.33201 0.88777 0.0563 0.0
H3278 H 0.27858 0.90279 0.11333 0.0
H3279 H 0.33241 0.87037 0.09253 0.0
H3280 H 0.32319 0.8286 0.14665 0.0
H3281 H 0.30886 0.84175 0.1102 0.0
H3282 H 0.30428 0.90463 0.15034 0.0
H3283 H 0.3175 0.89075 0.18697 0.0
C3284 C 0.29043 0.90985 0.08032 0.0
C3285 C 0.30526 0.90545 0.06397 0.0
C3286 C 0.29025 0.89944 0.10094 0.0
C3287 C 0.30504 0.88474 0.10536 0.0
C3288 C 0.32017 0.88089 0.08912 0.0
C3289 C 0.32012 0.89099 0.0685 0.0
C3290 C 0.3184 0.84491 0.1476 0.0
C3291 C 0.32192 0.85906 0.16908 0.0
C3292 C 0.31028 0.85245 0.1269 0.0
C3293 C 0.30627 0.87446 0.12748 0.0
C3294 C 0.30741 0.88765 0.14943 0.0
C3295 C 0.31512 0.87985 0.17028 0.0
H3296 H 0.96175 0.56096 0.87944 0.0
H3297 H 0.91565 0.50078 0.89035 0.0
H3298 H 0.98292 0.5614 0.91844 0.0
H3299 H 0.93738 0.50082 0.92922 0.0
H3300 H 1.01151 0.5023 0.97411 0.0
H3301 H 0.98407 0.49927 0.93858 0.0
H3302 H 0.96904 0.5636 0.96349 0.0
H3303 H 0.99608 0.56656 0.99904 0.0
C3304 C 0.95632 0.54787 0.89028 0.0
C3305 C 0.93738 0.53086 0.88242 0.0
C3306 C 0.9682 0.54819 0.9124 0.0
C3307 C 0.9614 0.53121 0.92637 0.0
C3308 C 0.94255 0.51405 0.91846 0.0
C3309 C 0.93028 0.51406 0.89653 0.0
C3310 C 1.00219 0.51565 0.97188 0.0
C3311 C 1.00585 0.53477 0.98874 0.0
C3312 C 0.98645 0.51377 0.95196 0.0
C3313 C 0.97478 0.53123 0.94882 0.0
C3314 C 0.97801 0.55003 0.96597 0.0
C3315 C 0.99343 0.55174 0.98603 0.0
H3316 H 0.2654 0.1916 0.60507 0.0
H3317 H 0.30097 0.25553 0.58973 0.0
H3318 H 0.26956 0.20612 0.64699 0.0
H3319 H 0.30471 0.27046 0.63182 0.0
H3320 H 0.32499 0.28583 0.7129 0.0
H3321 H 0.32216 0.27094 0.67098 0.0
H3322 H 0.25738 0.22928 0.67589 0.0
H3323 H 0.26095 0.24333 0.71785 0.0
C3324 C 0.27397 0.2089 0.61058 0.0
C3325 C 0.28265 0.22237 0.59371 0.0
C3326 C 0.27627 0.21736 0.63483 0.0
C3327 C 0.28736 0.23971 0.6433 0.0
C3328 C 0.29623 0.25314 0.62638 0.0
C3329 C 0.29392 0.24462 0.60204 0.0
C3330 C 0.31014 0.27346 0.70505 0.0
C3331 C 0.29295 0.26624 0.71894 0.0
C3332 C 0.3084 0.26498 0.68078 0.0
C3333 C 0.28942 0.24886 0.66946 0.0
C3334 C 0.2724 0.24147 0.68357 0.0
C3335 C 0.27422 0.24989 0.70779 0.0
H3336 H 0.59689 0.5202 0.22325 0.0
H3337 H 0.63087 0.5884 0.22068 0.0
H3338 H 0.58308 0.51651 0.18108 0.0
H3339 H 0.6186 0.58457 0.17843 0.0
H3340 H 0.58168 0.58093 0.10535 0.0
H3341 H 0.59406 0.58413 0.14717 0.0
H3342 H 0.58496 0.51157 0.14195 0.0
H3343 H 0.56963 0.5088 0.10028 0.0
C3344 C 0.60146 0.53446 0.21366 0.0
C3345 C 0.61473 0.55474 0.22569 0.0
C3346 C 0.59373 0.5323 0.18912 0.0
C3347 C 0.5993 0.55022 0.17547 0.0
C3348 C 0.61303 0.57036 0.18771 0.0
C3349 C 0.62038 0.57261 0.21226 0.0
C3350 C 0.58148 0.56567 0.11316 0.0
C3351 C 0.57346 0.54474 0.09921 0.0
C3352 C 0.58934 0.56741 0.13749 0.0
C3353 C 0.59071 0.54814 0.14897 0.0
C3354 C 0.58368 0.52703 0.13463 0.0
C3355 C 0.57498 0.52537 0.11036 0.0
H3356 H 0.27909 0.87005 0.94593 0.0
H3357 H 0.3258 0.92479 0.92441 0.0
H3358 H 0.27893 0.84756 0.90793 0.0
H3359 H 0.32579 0.902 0.8865 0.0
H3360 H 0.33721 0.8349 0.84092 0.0
H3361 H 0.33814 0.86004 0.87766 0.0
H3362 H 0.26615 0.85615 0.86241 0.0
H3363 H 0.26539 0.8317 0.82539 0.0
C3364 C 0.28922 0.87722 0.93303 0.0
C3365 C 0.30234 0.89904 0.93779 0.0
C3366 C 0.28909 0.86446 0.91147 0.0
C3367 C 0.30232 0.87334 0.89475 0.0
C3368 C 0.31555 0.89507 0.89944 0.0
C3369 C 0.31541 0.90801 0.92089 0.0
C3370 C 0.32172 0.83957 0.84559 0.0
C3371 C 0.30126 0.83176 0.8308 0.0
C3372 C 0.32227 0.85393 0.86624 0.0
C3373 C 0.3022 0.85975 0.87238 0.0
C3374 C 0.28173 0.85174 0.85764 0.0
C3375 C 0.2813 0.83794 0.83669 0.0
H3376 H 0.90623 0.50107 0.73836 0.0
H3377 H 0.94761 0.56696 0.76202 0.0
H3378 H 0.9196 0.50151 0.69998 0.0
H3379 H 0.9602 0.56817 0.72279 0.0
H3380 H 1.00369 0.53782 0.66943 0.0
H3381 H 0.98487 0.55009 0.70252 0.0
H3382 H 0.92017 0.51638 0.6637 0.0
H3383 H 0.93952 0.50315 0.63122 0.0
C3384 C 0.9179 0.51586 0.73506 0.0
C3385 C 0.92617 0.53389 0.75299 0.0
C3386 C 0.9253 0.51631 0.71295 0.0
C3387 C 0.94078 0.53504 0.70819 0.0
C3388 C 0.94842 0.55346 0.726 0.0
C3389 C 0.94133 0.55277 0.74839 0.0
C3390 C 0.98541 0.53365 0.66791 0.0
C3391 C 0.9729 0.51924 0.64847 0.0
C3392 C 0.97455 0.5408 0.68668 0.0
C3393 C 0.95106 0.53366 0.68596 0.0
C3394 C 0.93836 0.52156 0.665 0.0
C3395 C 0.9493 0.51411 0.64642 0.0
H3396 H 0.28026 0.18608 0.43536 0.0
H3397 H 0.28314 0.25386 0.46757 0.0
H3398 H 0.28194 0.19908 0.3966 0.0
H3399 H 0.28609 0.26732 0.42901 0.0
H3400 H 0.27236 0.28526 0.35451 0.0
H3401 H 0.26991 0.27155 0.39266 0.0
H3402 H 0.30094 0.21624 0.36898 0.0
H3403 H 0.30241 0.22972 0.33017 0.0
C3404 C 0.28143 0.20388 0.43423 0.0
C3405 C 0.28145 0.21885 0.45482 0.0
C3406 C 0.28263 0.21148 0.41179 0.0
C3407 C 0.28421 0.23447 0.40899 0.0
C3408 C 0.28442 0.24944 0.42979 0.0
C3409 C 0.28291 0.24175 0.4522 0.0
C3410 C 0.27879 0.27019 0.35738 0.0
C3411 C 0.28788 0.25884 0.33905 0.0
C3412 C 0.27752 0.2623 0.3796 0.0
C3413 C 0.28543 0.24272 0.38469 0.0
C3414 C 0.29435 0.23121 0.36617 0.0
C3415 C 0.2954 0.23904 0.34374 0.0
H3416 H 0.34852 0.63461 0.59744 0.0
H3417 H 0.31408 0.57596 0.54919 0.0
H3418 H 0.38472 0.62417 0.59251 0.0
H3419 H 0.3502 0.56583 0.54369 0.0
H3420 H 0.41536 0.54914 0.53775 0.0
H3421 H 0.38491 0.55532 0.56023 0.0
H3422 H 0.40285 0.6268 0.55607 0.0
H3423 H 0.43443 0.62078 0.53482 0.0
C3424 C 0.34875 0.61908 0.58641 0.0
C3425 C 0.32884 0.60602 0.57354 0.0
C3426 C 0.36935 0.61322 0.58354 0.0
C3427 C 0.37013 0.59438 0.56764 0.0
C3428 C 0.34997 0.58026 0.55639 0.0
C3429 C 0.32933 0.58601 0.55946 0.0
C3430 C 0.4133 0.56628 0.54233 0.0
C3431 C 0.42701 0.58456 0.53439 0.0
C3432 C 0.39583 0.56973 0.55508 0.0
C3433 C 0.39156 0.59142 0.55965 0.0
C3434 C 0.40603 0.60989 0.55295 0.0
C3435 C 0.42376 0.60646 0.54043 0.0
H3436 H 0.86836 0.96966 0.54528 0.0
H3437 H 0.8991 0.91137 0.54737 0.0
H3438 H 0.90512 0.99309 0.54291 0.0
H3439 H 0.9357 0.9345 0.54409 0.0
H3440 H 1.00225 0.98514 0.56108 0.0
H3441 H 0.96563 0.96219 0.56417 0.0
H3442 H 0.93327 1.00207 0.51812 0.0
H3443 H 0.96998 0.02527 0.51536 0.0
C3444 C 0.88297 0.96182 0.54517 0.0
C3445 C 0.88075 0.93862 0.54664 0.0
C3446 C 0.9041 0.97525 0.54359 0.0
C3447 C 0.92361 0.96584 0.54326 0.0
C3448 C 0.92129 0.94257 0.5447 0.0
C3449 C 0.9002 0.9292 0.54645 0.0
C3450 C 0.98732 0.98919 0.55176 0.0
C3451 C 0.98916 1.00743 0.53833 0.0
C3452 C 0.96622 0.97581 0.55335 0.0
C3453 C 0.94623 0.98019 0.5415 0.0
C3454 C 0.94811 0.99838 0.52796 0.0
C3455 C 0.96925 0.01178 0.52637 0.0
H3456 H 0.87821 0.05973 0.28404 0.0
H3457 H 0.93392 0.09526 0.25317 0.0
H3458 H 0.86141 0.09318 0.28637 0.0
H3459 H 0.91632 0.12789 0.253 0.0
H3460 H 0.89816 0.19164 0.28524 0.0
H3461 H 0.91149 0.15728 0.27673 0.0
H3462 H 0.84296 0.11916 0.27121 0.0
H3463 H 0.83001 0.15419 0.28195 0.0
C3464 C 0.88658 0.07464 0.27729 0.0
C3465 C 0.90749 0.07512 0.26875 0.0
C3466 C 0.87685 0.09382 0.27836 0.0
C3467 C 0.88748 0.11369 0.27016 0.0
C3468 C 0.90787 0.11346 0.26039 0.0
C3469 C 0.91796 0.09463 0.26021 0.0
C3470 C 0.8859 0.17591 0.28206 0.0
C3471 C 0.86316 0.17559 0.28473 0.0
C3472 C 0.8935 0.15601 0.2768 0.0
C3473 C 0.87847 0.13501 0.27332 0.0
C3474 C 0.85526 0.13482 0.27431 0.0
C3475 C 0.84769 0.15493 0.28005 0.0
H3476 H 0.70884 0.09238 0.0825 0.0
H3477 H 0.70651 0.12848 0.02118 0.0
H3478 H 0.66858 0.07625 0.07244 0.0
H3479 H 0.66675 0.11159 0.01043 0.0
H3480 H 0.59121 0.09683 0.01826 0.0
H3481 H 0.63122 0.11316 0.02527 0.0
H3482 H 0.64574 0.04885 0.04072 0.0
H3483 H 0.6056 0.03255 0.03424 0.0
C3484 C 0.69966 0.0966 0.0668 0.0
C3485 C 0.71036 0.11135 0.05243 0.0
C3486 C 0.67686 0.08738 0.06099 0.0
C3487 C 0.66494 0.09254 0.04051 0.0
C3488 C 0.67569 0.10756 0.02637 0.0
C3489 C 0.69831 0.1171 0.03245 0.0
C3490 C 0.60298 0.08606 0.02258 0.0
C3491 C 0.59552 0.06358 0.02605 0.0
C3492 C 0.6258 0.09541 0.02664 0.0
C3493 C 0.64125 0.08224 0.0339 0.0
C3494 C 0.6339 0.05935 0.03565 0.0
C3495 C 0.61108 0.05003 0.03172 0.0
H3496 H 0.19452 0.48586 0.2645 0.0
H3497 H 0.254 0.51287 0.23316 0.0
H3498 H 0.20494 0.44974 0.26265 0.0
H3499 H 0.2645 0.47579 0.23077 0.0
H3500 H 0.28875 0.43318 0.29114 0.0
H3501 H 0.27819 0.46059 0.26626 0.0
H3502 H 0.21346 0.41616 0.24251 0.0
H3503 H 0.22406 0.38912 0.26836 0.0
C3504 C 0.20972 0.48387 0.25681 0.0
C3505 C 0.22404 0.50213 0.24981 0.0
C3506 C 0.2154 0.46296 0.25516 0.0
C3507 C 0.23556 0.45997 0.24651 0.0
C3508 C 0.24889 0.47782 0.23753 0.0
C3509 C 0.24309 0.49893 0.23913 0.0
C3510 C 0.27242 0.42935 0.28028 0.0
C3511 C 0.25658 0.41003 0.28223 0.0
C3512 C 0.26658 0.44465 0.26559 0.0
C3513 C 0.24484 0.44057 0.2528 0.0
C3514 C 0.2302 0.41971 0.2525 0.0
C3515 C 0.236 0.40452 0.26744 0.0
H3516 H 0.26693 0.44267 0.08252 0.0
H3517 H 0.25375 0.41967 0.00732 0.0
H3518 H 0.23362 0.46031 0.07937 0.0
H3519 H 0.22085 0.43716 0.00417 0.0
H3520 H 0.1775 0.48845 0.99944 0.0
H3521 H 0.21307 0.47557 0.00716 0.0
H3522 H 0.19091 0.44915 0.06999 0.0
H3523 H 0.15535 0.46253 0.06228 0.0
C3524 C 0.25704 0.44156 0.06534 0.0
C3525 C 0.26304 0.42997 0.04513 0.0
C3526 C 0.23793 0.4515 0.06356 0.0
C3527 C 0.22479 0.45038 0.04147 0.0
C3528 C 0.23085 0.43872 0.02136 0.0
C3529 C 0.24965 0.42857 0.0232 0.0
C3530 C 0.18055 0.48037 0.01519 0.0
C3531 C 0.16391 0.47648 0.03034 0.0
C3532 C 0.20076 0.47281 0.01951 0.0
C3533 C 0.20467 0.46106 0.039 0.0
C3534 C 0.18845 0.45826 0.05491 0.0
C3535 C 0.16817 0.4659 0.05056 0.0
H3536 H 0.88033 0.96794 0.29722 0.0
H3537 H 0.91064 0.93816 0.24016 0.0
H3538 H 0.85698 0.93185 0.29997 0.0
H3539 H 0.88841 0.90138 0.24371 0.0
H3540 H 0.83488 0.83877 0.24183 0.0
H3541 H 0.85695 0.87548 0.23795 0.0
H3542 H 0.85067 0.89796 0.31109 0.0
H3543 H 0.82664 0.86186 0.31361 0.0
C3544 C 0.88202 0.95355 0.2852 0.0
C3545 C 0.89722 0.95604 0.26828 0.0
C3546 C 0.86877 0.93251 0.28701 0.0
C3547 C 0.87042 0.91303 0.27215 0.0
C3548 C 0.88593 0.91566 0.25529 0.0
C3549 C 0.89901 0.93685 0.25332 0.0
C3550 C 0.83789 0.85187 0.25682 0.0
C3551 C 0.82862 0.8477 0.27779 0.0
C3552 C 0.85098 0.87297 0.25483 0.0
C3553 C 0.85599 0.89035 0.27415 0.0
C3554 C 0.84686 0.88575 0.29536 0.0
C3555 C 0.83304 0.86489 0.29697 0.0
H3556 H 0.73339 0.12611 0.80543 0.0
H3557 H 0.74483 0.13358 0.73291 0.0
H3558 H 0.74045 0.16691 0.81507 0.0
H3559 H 0.75295 0.17431 0.74274 0.0
H3560 H 0.74649 0.24386 0.75805 0.0
H3561 H 0.73181 0.20336 0.75302 0.0
H3562 H 0.77261 0.19818 0.81851 0.0
H3563 H 0.78674 0.23889 0.8236 0.0
C3564 C 0.73821 0.13657 0.79183 0.0
C3565 C 0.73912 0.12709 0.76861 0.0
C3566 C 0.74193 0.15975 0.79725 0.0
C3567 C 0.74691 0.17349 0.77955 0.0
C3568 C 0.74856 0.16393 0.75651 0.0
C3569 C 0.74443 0.14078 0.75101 0.0
C3570 C 0.75164 0.23394 0.77159 0.0
C3571 C 0.76766 0.24371 0.79102 0.0
C3572 C 0.74346 0.21098 0.7687 0.0
C3573 C 0.75152 0.19785 0.78517 0.0
C3574 C 0.76621 0.20809 0.80564 0.0
C3575 C 0.77438 0.23113 0.80851 0.0
loop_
_geom_bond_atom_site_label_1
_geom_bond_atom_site_label_2
_geom_bond_distance
_geom_bond_site_symmetry_2
_ccdc_geom_bond_type
In0 O1 2.294 . S
In0 O2 2.326 . S
In0 O6 2.266 . S
In0 O7 2.326 . S
In0 O8 2.266 . S
In0 O9 2.326 . S
In0 O11 2.294 . S
In0 O12 2.326 . S
O1 In0 2.294 . S
O1 C10 1.240 . S
O2 In0 2.326 . S
O2 C10 1.252 . S
C3 O6 1.252 1_655 S
C3 O7 1.260 1_655 S
C4 O11 1.240 . S
C4 O12 1.252 . S
C5 O8 1.252 . S
C5 O9 1.260 . S
O6 In0 2.266 . S
O6 C3 1.252 1_455 S
O7 In0 2.326 . S
O7 C3 1.260 1_455 S
O8 In0 2.266 . S
O8 C5 1.252 . S
O9 In0 2.326 . S
O9 C5 1.260 . S
C10 O1 1.240 . S
C10 O2 1.252 . S
O11 In0 2.294 . S
O11 C4 1.240 . S
O12 In0 2.326 . S
O12 C4 1.252 . S
In13 O14 2.294 . S
In13 O15 2.326 . S
In13 O19 2.266 . S
In13 O20 2.326 . S
In13 O21 2.266 1_455 S
In13 O22 2.326 1_455 S
In13 O24 2.294 . S
In13 O25 2.326 . S
O14 In13 2.294 . S
O14 C23 1.240 . S
O15 In13 2.326 . S
O15 C23 1.252 . S
C16 O19 1.252 . S
C16 O20 1.260 . S
C17 O24 1.240 . S
C17 O25 1.252 . S
C18 O21 1.252 . S
C18 O22 1.260 . S
O19 In13 2.266 . S
O19 C16 1.252 . S
O20 In13 2.326 . S
O20 C16 1.260 . S
O21 In13 2.266 1_655 S
O21 C18 1.252 . S
O22 In13 2.326 1_655 S
O22 C18 1.260 . S
C23 O14 1.240 . S
C23 O15 1.252 . S
O24 In13 2.294 . S
O24 C17 1.240 . S
O25 In13 2.326 . S
O25 C17 1.252 . S
In26 O27 2.294 . S
In26 O28 2.326 . S
In26 O32 2.266 . S
In26 O33 2.326 . S
In26 O34 2.266 . S
In26 O35 2.326 . S
In26 O37 2.294 . S
In26 O38 2.326 . S
O27 In26 2.294 . S
O27 C36 1.240 . S
O28 In26 2.326 . S
O28 C36 1.252 . S
C29 O32 1.252 . S
C29 O33 1.260 . S
C30 O37 1.240 . S
C30 O38 1.252 . S
C31 O34 1.252 . S
C31 O35 1.260 . S
O32 In26 2.266 . S
O32 C29 1.252 . S
O33 In26 2.326 . S
O33 C29 1.260 . S
O34 In26 2.266 . S
O34 C31 1.252 . S
O35 In26 2.326 . S
O35 C31 1.260 . S
C36 O27 1.240 . S
C36 O28 1.252 . S
O37 In26 2.294 . S
O37 C30 1.240 . S
O38 In26 2.326 . S
O38 C30 1.252 . S
In39 O40 2.294 . S
In39 O41 2.326 . S
In39 O45 2.266 . S
In39 O46 2.326 . S
In39 O47 2.266 . S
In39 O48 2.326 . S
In39 O50 2.294 . S
In39 O51 2.326 . S
O40 In39 2.294 . S
O40 C49 1.240 . S
O41 In39 2.326 . S
O41 C49 1.252 . S
C42 O45 1.252 . S
C42 O46 1.260 . S
C43 O50 1.240 . S
C43 O51 1.252 . S
C44 O47 1.252 . S
C44 O48 1.260 . S
O45 In39 2.266 . S
O45 C42 1.252 . S
O46 In39 2.326 . S
O46 C42 1.260 . S
O47 In39 2.266 . S
O47 C44 1.252 . S
O48 In39 2.326 . S
O48 C44 1.260 . S
C49 O40 1.240 . S
C49 O41 1.252 . S
O50 In39 2.294 . S
O50 C43 1.240 . S
O51 In39 2.326 . S
O51 C43 1.252 . S
In52 O53 2.294 . S
In52 O54 2.326 . S
In52 O58 2.266 . S
In52 O59 2.326 . S
In52 O60 2.266 . S
In52 O61 2.326 . S
In52 O63 2.294 . S
In52 O64 2.326 . S
O53 In52 2.294 . S
O53 C62 1.240 . S
O54 In52 2.326 . S
O54 C62 1.252 . S
C55 O58 1.252 . S
C55 O59 1.260 . S
C56 O63 1.240 . S
C56 O64 1.252 . S
C57 O60 1.252 . S
C57 O61 1.260 . S
O58 In52 2.266 . S
O58 C55 1.252 . S
O59 In52 2.326 . S
O59 C55 1.260 . S
O60 In52 2.266 . S
O60 C57 1.252 . S
O61 In52 2.326 . S
O61 C57 1.260 . S
C62 O53 1.240 . S
C62 O54 1.252 . S
O63 In52 2.294 . S
O63 C56 1.240 . S
O64 In52 2.326 . S
O64 C56 1.252 . S
In65 O66 2.294 . S
In65 O67 2.326 . S
In65 O71 2.266 . S
In65 O72 2.326 . S
In65 O73 2.266 . S
In65 O74 2.326 . S
In65 O76 2.294 . S
In65 O77 2.326 . S
O66 In65 2.294 . S
O66 C75 1.240 . S
O67 In65 2.326 . S
O67 C75 1.252 . S
C68 O71 1.252 . S
C68 O72 1.260 . S
C69 O76 1.240 . S
C69 O77 1.252 . S
C70 O73 1.252 . S
C70 O74 1.260 . S
O71 In65 2.266 . S
O71 C68 1.252 . S
O72 In65 2.326 . S
O72 C68 1.260 . S
O73 In65 2.266 . S
O73 C70 1.252 . S
O74 In65 2.326 . S
O74 C70 1.260 . S
C75 O66 1.240 . S
C75 O67 1.252 . S
O76 In65 2.294 . S
O76 C69 1.240 . S
O77 In65 2.326 . S
O77 C69 1.252 . S
In78 O79 2.294 . S
In78 O80 2.326 . S
In78 O84 2.266 . S
In78 O85 2.326 . S
In78 O86 2.266 . S
In78 O87 2.326 . S
In78 O89 2.294 . S
In78 O90 2.326 . S
O79 In78 2.294 . S
O79 C88 1.240 . S
O80 In78 2.326 . S
O80 C88 1.252 . S
C81 O84 1.252 . S
C81 O85 1.260 . S
C82 O89 1.240 . S
C82 O90 1.252 . S
C83 O86 1.252 . S
C83 O87 1.260 . S
O84 In78 2.266 . S
O84 C81 1.252 . S
O85 In78 2.326 . S
O85 C81 1.260 . S
O86 In78 2.266 . S
O86 C83 1.252 . S
O87 In78 2.326 . S
O87 C83 1.260 . S
C88 O79 1.240 . S
C88 O80 1.252 . S
O89 In78 2.294 . S
O89 C82 1.240 . S
O90 In78 2.326 . S
O90 C82 1.252 . S
In91 O92 2.295 . S
In91 O93 2.334 1_455 S
In91 O97 2.269 . S
In91 O98 2.324 . S
In91 O99 2.261 1_455 S
In91 O100 2.317 1_455 S
In91 O102 2.300 . S
In91 O103 2.335 . S
O92 In91 2.295 . S
O92 C101 1.240 . S
O93 In91 2.334 1_655 S
O93 C101 1.251 1_655 S
C94 O97 1.251 . S
C94 O98 1.260 . S
C95 O102 1.240 . S
C95 O103 1.252 . S
C96 O99 1.252 . S
C96 O100 1.260 . S
O97 In91 2.269 . S
O97 C94 1.251 . S
O98 In91 2.324 . S
O98 C94 1.260 . S
O99 In91 2.261 1_655 S
O99 C96 1.252 . S
O100 In91 2.317 1_655 S
O100 C96 1.260 . S
C101 O92 1.240 . S
C101 O93 1.251 1_455 S
O102 In91 2.300 . S
O102 C95 1.240 . S
O103 In91 2.335 . S
O103 C95 1.252 . S
In104 O105 2.294 . S
In104 O106 2.326 . S
In104 O110 2.266 . S
In104 O111 2.326 . S
In104 O112 2.266 1_545 S
In104 O113 2.326 1_545 S
In104 O115 2.294 . S
In104 O116 2.326 . S
O105 In104 2.294 . S
O105 C114 1.240 . S
O106 In104 2.326 . S
O106 C114 1.252 . S
C107 O110 1.252 . S
C107 O111 1.260 . S
C108 O115 1.240 . S
C108 O116 1.252 . S
C109 O112 1.252 . S
C109 O113 1.260 . S
O110 In104 2.266 . S
O110 C107 1.252 . S
O111 In104 2.326 . S
O111 C107 1.260 . S
O112 In104 2.266 1_565 S
O112 C109 1.252 . S
O113 In104 2.326 1_565 S
O113 C109 1.260 . S
C114 O105 1.240 . S
C114 O106 1.252 . S
O115 In104 2.294 . S
O115 C108 1.240 . S
O116 In104 2.326 . S
O116 C108 1.252 . S
In117 O118 2.294 . S
In117 O119 2.326 . S
In117 O123 2.266 . S
In117 O124 2.326 . S
In117 O125 2.266 . S
In117 O126 2.326 . S
In117 O128 2.294 . S
In117 O129 2.326 . S
O118 In117 2.294 . S
O118 C127 1.240 . S
O119 In117 2.326 . S
O119 C127 1.252 . S
C120 O123 1.252 . S
C120 O124 1.260 . S
C121 O128 1.240 . S
C121 O129 1.252 . S
C122 O125 1.252 . S
C122 O126 1.260 . S
O123 In117 2.266 . S
O123 C120 1.252 . S
O124 In117 2.326 . S
O124 C120 1.260 . S
O125 In117 2.266 . S
O125 C122 1.252 . S
O126 In117 2.326 . S
O126 C122 1.260 . S
C127 O118 1.240 . S
C127 O119 1.252 . S
O128 In117 2.294 . S
O128 C121 1.240 . S
O129 In117 2.326 . S
O129 C121 1.252 . S
In130 O131 2.294 . S
In130 O132 2.326 . S
In130 O136 2.266 . S
In130 O137 2.326 . S
In130 O138 2.266 . S
In130 O139 2.326 . S
In130 O141 2.294 . S
In130 O142 2.326 . S
O131 In130 2.294 . S
O131 C140 1.240 . S
O132 In130 2.326 . S
O132 C140 1.252 . S
C133 O136 1.252 . S
C133 O137 1.260 . S
C134 O141 1.240 . S
C134 O142 1.252 . S
C135 O138 1.252 . S
C135 O139 1.260 . S
O136 In130 2.266 . S
O136 C133 1.252 . S
O137 In130 2.326 . S
O137 C133 1.260 . S
O138 In130 2.266 . S
O138 C135 1.252 . S
O139 In130 2.326 . S
O139 C135 1.260 . S
C140 O131 1.240 . S
C140 O132 1.252 . S
O141 In130 2.294 . S
O141 C134 1.240 . S
O142 In130 2.326 . S
O142 C134 1.252 . S
In143 O144 2.296 . S
In143 O145 2.329 . S
In143 O149 2.264 1_554 S
In143 O150 2.322 1_554 S
In143 O151 2.266 1_554 S
In143 O152 2.323 1_554 S
In143 O154 2.294 . S
In143 O155 2.327 . S
O144 In143 2.296 . S
O144 C153 1.240 . S
O145 In143 2.329 . S
O145 C153 1.252 . S
C146 O149 1.252 . S
C146 O150 1.260 . S
C147 O154 1.240 . S
C147 O155 1.252 . S
C148 O151 1.253 . S
C148 O152 1.257 . S
O149 In143 2.264 1_556 S
O149 C146 1.252 . S
O150 In143 2.322 1_556 S
O150 C146 1.260 . S
O151 In143 2.266 1_556 S
O151 C148 1.253 . S
O152 In143 2.323 1_556 S
O152 C148 1.257 . S
C153 O144 1.240 . S
C153 O145 1.252 . S
O154 In143 2.294 . S
O154 C147 1.240 . S
O155 In143 2.327 . S
O155 C147 1.252 . S
In156 O157 2.294 . S
In156 O158 2.326 . S
In156 O162 2.266 . S
In156 O163 2.326 . S
In156 O164 2.266 . S
In156 O165 2.326 . S
In156 O167 2.294 . S
In156 O168 2.326 . S
O157 In156 2.294 . S
O157 C166 1.240 . S
O158 In156 2.326 . S
O158 C166 1.252 . S
C159 O162 1.237 1_556 S
C159 O163 1.259 1_556 S
C160 O167 1.240 . S
C160 O168 1.252 . S
C161 O164 1.252 . S
C161 O165 1.260 . S
O162 In156 2.266 . S
O162 C159 1.237 1_554 S
O163 In156 2.326 . S
O163 C159 1.259 1_554 S
O164 In156 2.266 . S
O164 C161 1.252 . S
O165 In156 2.326 . S
O165 C161 1.260 . S
C166 O157 1.240 . S
C166 O158 1.252 . S
O167 In156 2.294 . S
O167 C160 1.240 . S
O168 In156 2.326 . S
O168 C160 1.252 . S
In169 O170 2.294 . S
In169 O171 2.326 . S
In169 O175 2.266 . S
In169 O176 2.326 . S
In169 O177 2.266 . S
In169 O178 2.326 . S
In169 O180 2.294 . S
In169 O181 2.326 . S
O170 In169 2.294 . S
O170 C179 1.240 . S
O171 In169 2.326 . S
O171 C179 1.252 . S
C172 O175 1.252 . S
C172 O176 1.260 . S
C173 O180 1.240 . S
C173 O181 1.252 . S
C174 O177 1.252 . S
C174 O178 1.260 . S
O175 In169 2.266 . S
O175 C172 1.252 . S
O176 In169 2.326 . S
O176 C172 1.260 . S
O177 In169 2.266 . S
O177 C174 1.252 . S
O178 In169 2.326 . S
O178 C174 1.260 . S
C179 O170 1.240 . S
C179 O171 1.252 . S
O180 In169 2.294 . S
O180 C173 1.240 . S
O181 In169 2.326 . S
O181 C173 1.252 . S
In182 O183 2.294 . S
In182 O184 2.326 . S
In182 O188 2.266 . S
In182 O189 2.326 . S
In182 O190 2.266 . S
In182 O191 2.326 . S
In182 O193 2.294 . S
In182 O194 2.326 . S
O183 In182 2.294 . S
O183 C192 1.240 . S
O184 In182 2.326 . S
O184 C192 1.252 . S
C185 O188 1.252 . S
C185 O189 1.260 . S
C186 O193 1.240 . S
C186 O194 1.252 . S
C187 O190 1.252 . S
C187 O191 1.260 . S
O188 In182 2.266 . S
O188 C185 1.252 . S
O189 In182 2.326 . S
O189 C185 1.260 . S
O190 In182 2.266 . S
O190 C187 1.252 . S
O191 In182 2.326 . S
O191 C187 1.260 . S
C192 O183 1.240 . S
C192 O184 1.252 . S
O193 In182 2.294 . S
O193 C186 1.240 . S
O194 In182 2.326 . S
O194 C186 1.252 . S
In195 O196 2.294 . S
In195 O197 2.326 . S
In195 O201 2.266 . S
In195 O202 2.326 . S
In195 O203 2.266 . S
In195 O204 2.326 . S
In195 O206 2.294 . S
In195 O207 2.326 . S
O196 In195 2.294 . S
O196 C205 1.240 . S
O197 In195 2.326 . S
O197 C205 1.252 . S
C198 O201 1.252 . S
C198 O202 1.260 . S
C199 O206 1.240 . S
C199 O207 1.252 . S
C200 O203 1.252 . S
C200 O204 1.260 . S
O201 In195 2.266 . S
O201 C198 1.252 . S
O202 In195 2.326 . S
O202 C198 1.260 . S
O203 In195 2.266 . S
O203 C200 1.252 . S
O204 In195 2.326 . S
O204 C200 1.260 . S
C205 O196 1.240 . S
C205 O197 1.252 . S
O206 In195 2.294 . S
O206 C199 1.240 . S
O207 In195 2.326 . S
O207 C199 1.252 . S
In208 O209 2.294 . S
In208 O210 2.326 . S
In208 O214 2.266 . S
In208 O215 2.326 . S
In208 O216 2.266 1_545 S
In208 O217 2.326 1_545 S
In208 O219 2.294 . S
In208 O220 2.326 . S
O209 In208 2.294 . S
O209 C218 1.240 . S
O210 In208 2.326 . S
O210 C218 1.252 . S
C211 O214 1.252 . S
C211 O215 1.260 . S
C212 O219 1.240 . S
C212 O220 1.252 . S
C213 O216 1.252 . S
C213 O217 1.260 . S
O214 In208 2.266 . S
O214 C211 1.252 . S
O215 In208 2.326 . S
O215 C211 1.260 . S
O216 In208 2.266 1_565 S
O216 C213 1.252 . S
O217 In208 2.326 1_565 S
O217 C213 1.260 . S
C218 O209 1.240 . S
C218 O210 1.252 . S
O219 In208 2.294 . S
O219 C212 1.240 . S
O220 In208 2.326 . S
O220 C212 1.252 . S
In221 O222 2.294 . S
In221 O223 2.326 . S
In221 O227 2.266 . S
In221 O228 2.326 . S
In221 O229 2.266 . S
In221 O230 2.326 . S
In221 O232 2.294 . S
In221 O233 2.326 . S
O222 In221 2.294 . S
O222 C231 1.240 . S
O223 In221 2.326 . S
O223 C231 1.252 . S
C224 O227 1.252 . S
C224 O228 1.260 . S
C225 O232 1.240 . S
C225 O233 1.252 . S
C226 O229 1.252 . S
C226 O230 1.260 . S
O227 In221 2.266 . S
O227 C224 1.252 . S
O228 In221 2.326 . S
O228 C224 1.260 . S
O229 In221 2.266 . S
O229 C226 1.252 . S
O230 In221 2.326 . S
O230 C226 1.260 . S
C231 O222 1.240 . S
C231 O223 1.252 . S
O232 In221 2.294 . S
O232 C225 1.240 . S
O233 In221 2.326 . S
O233 C225 1.252 . S
In234 O235 2.294 . S
In234 O236 2.326 . S
In234 O240 2.266 . S
In234 O241 2.326 . S
In234 O242 2.266 . S
In234 O243 2.326 . S
In234 O245 2.294 . S
In234 O246 2.326 . S
O235 In234 2.294 . S
O235 C244 1.240 . S
O236 In234 2.326 . S
O236 C244 1.252 . S
C237 O240 1.252 . S
C237 O241 1.260 . S
C238 O245 1.240 . S
C238 O246 1.252 . S
C239 O242 1.252 . S
C239 O243 1.260 . S
O240 In234 2.266 . S
O240 C237 1.252 . S
O241 In234 2.326 . S
O241 C237 1.260 . S
O242 In234 2.266 . S
O242 C239 1.252 . S
O243 In234 2.326 . S
O243 C239 1.260 . S
C244 O235 1.240 . S
C244 O236 1.252 . S
O245 In234 2.294 . S
O245 C238 1.240 . S
O246 In234 2.326 . S
O246 C238 1.252 . S
In247 O248 2.294 . S
In247 O249 2.326 . S
In247 O253 2.266 . S
In247 O254 2.326 . S
In247 O255 2.266 . S
In247 O256 2.326 . S
In247 O258 2.294 . S
In247 O259 2.326 . S
O248 In247 2.294 . S
O248 C257 1.240 . S
O249 In247 2.326 . S
O249 C257 1.252 . S
C250 O253 1.252 . S
C250 O254 1.260 . S
C251 O258 1.240 . S
C251 O259 1.252 . S
C252 O255 1.252 . S
C252 O256 1.260 . S
O253 In247 2.266 . S
O253 C250 1.252 . S
O254 In247 2.326 . S
O254 C250 1.260 . S
O255 In247 2.266 . S
O255 C252 1.252 . S
O256 In247 2.326 . S
O256 C252 1.260 . S
C257 O248 1.240 . S
C257 O249 1.252 . S
O258 In247 2.294 . S
O258 C251 1.240 . S
O259 In247 2.326 . S
O259 C251 1.252 . S
In260 O261 2.294 . S
In260 O262 2.326 . S
In260 O266 2.266 . S
In260 O267 2.326 . S
In260 O268 2.266 1_554 S
In260 O269 2.326 1_554 S
In260 O271 2.294 . S
In260 O272 2.326 . S
O261 In260 2.294 . S
O261 C270 1.240 . S
O262 In260 2.326 . S
O262 C270 1.252 . S
C263 O266 1.252 . S
C263 O267 1.260 . S
C264 O271 1.240 . S
C264 O272 1.252 . S
C265 O268 1.252 . S
C265 O269 1.260 . S
O266 In260 2.266 . S
O266 C263 1.252 . S
O267 In260 2.326 . S
O267 C263 1.260 . S
O268 In260 2.266 1_556 S
O268 C265 1.252 . S
O269 In260 2.326 1_556 S
O269 C265 1.260 . S
C270 O261 1.240 . S
C270 O262 1.252 . S
O271 In260 2.294 . S
O271 C264 1.240 . S
O272 In260 2.326 . S
O272 C264 1.252 . S
In273 O274 2.294 . S
In273 O275 2.326 . S
In273 O279 2.266 . S
In273 O280 2.326 . S
In273 O281 2.266 . S
In273 O282 2.326 . S
In273 O284 2.294 . S
In273 O285 2.326 . S
O274 In273 2.294 . S
O274 C283 1.240 . S
O275 In273 2.326 . S
O275 C283 1.252 . S
C276 O279 1.252 . S
C276 O280 1.260 . S
C277 O284 1.240 . S
C277 O285 1.252 . S
C278 O281 1.252 . S
C278 O282 1.260 . S
O279 In273 2.266 . S
O279 C276 1.252 . S
O280 In273 2.326 . S
O280 C276 1.260 . S
O281 In273 2.266 . S
O281 C278 1.252 . S
O282 In273 2.326 . S
O282 C278 1.260 . S
C283 O274 1.240 . S
C283 O275 1.252 . S
O284 In273 2.294 . S
O284 C277 1.240 . S
O285 In273 2.326 . S
O285 C277 1.252 . S
In286 O287 2.294 . S
In286 O288 2.326 . S
In286 O292 2.266 . S
In286 O293 2.326 . S
In286 O294 2.266 . S
In286 O295 2.326 . S
In286 O297 2.294 . S
In286 O298 2.326 . S
O287 In286 2.294 . S
O287 C296 1.240 . S
O288 In286 2.326 . S
O288 C296 1.252 . S
C289 O292 1.252 . S
C289 O293 1.260 . S
C290 O297 1.240 . S
C290 O298 1.252 . S
C291 O294 1.252 . S
C291 O295 1.260 . S
O292 In286 2.266 . S
O292 C289 1.252 . S
O293 In286 2.326 . S
O293 C289 1.260 . S
O294 In286 2.266 . S
O294 C291 1.252 . S
O295 In286 2.326 . S
O295 C291 1.260 . S
C296 O287 1.240 . S
C296 O288 1.252 . S
O297 In286 2.294 . S
O297 C290 1.240 . S
O298 In286 2.326 . S
O298 C290 1.252 . S
In299 O300 2.294 . S
In299 O301 2.326 . S
In299 O305 2.266 . S
In299 O306 2.326 . S
In299 O307 2.266 . S
In299 O308 2.326 . S
In299 O310 2.294 . S
In299 O311 2.326 . S
O300 In299 2.294 . S
O300 C309 1.240 . S
O301 In299 2.326 . S
O301 C309 1.252 . S
C302 O305 1.252 . S
C302 O306 1.260 . S
C303 O310 1.240 . S
C303 O311 1.252 . S
C304 O307 1.252 . S
C304 O308 1.260 . S
O305 In299 2.266 . S
O305 C302 1.252 . S
O306 In299 2.326 . S
O306 C302 1.260 . S
O307 In299 2.266 . S
O307 C304 1.252 . S
O308 In299 2.326 . S
O308 C304 1.260 . S
C309 O300 1.240 . S
C309 O301 1.252 . S
O310 In299 2.294 . S
O310 C303 1.240 . S
O311 In299 2.326 . S
O311 C303 1.252 . S
Tb312 N341 2.617 . S
Tb312 N347 2.572 . S
Tb312 O356 2.465 . S
Tb312 O357 2.387 . S
Tb312 O359 2.428 . S
Tb312 O360 2.308 . S
Tb312 O364 2.349 . S
Tb312 O367 2.393 . S
Tb312 C376 2.802 . S
C313 N314 1.414 . S
C313 C316 1.416 . S
C313 C320 1.424 1_556 S
N314 C313 1.414 . S
N314 C317 1.332 . S
N314 Tb323 2.591 1_666 S
C315 C317 1.398 . S
C315 C318 1.339 . S
C315 H335 0.930 . S
C316 C313 1.416 . S
C316 C318 1.416 . S
C316 C322 1.448 . S
C317 N314 1.332 . S
C317 C315 1.398 . S
C317 H328 0.921 1_665 S
C318 C315 1.339 . S
C318 C316 1.416 . S
C318 H339 0.930 . S
C319 C320 1.413 . S
C319 C321 1.427 . S
C319 C325 1.416 . S
C320 C313 1.424 1_554 S
C320 C319 1.413 . S
C320 N324 1.361 . S
C321 C319 1.427 . S
C321 C322 1.328 1_554 S
C321 H336 0.929 . S
C322 C316 1.448 . S
C322 C321 1.328 1_556 S
C322 H337 0.930 . S
Tb323 N314 2.591 1_444 S
Tb323 N324 2.572 1_445 S
Tb323 O358 2.349 . S
Tb323 O361 2.393 1_554 S
Tb323 O362 2.465 1_455 S
Tb323 O363 2.387 . S
Tb323 O365 2.428 1_455 S
Tb323 O366 2.308 . S
Tb323 C387 2.802 1_455 S
N324 C320 1.361 . S
N324 Tb323 2.572 1_665 S
N324 C326 1.340 . S
C325 C319 1.416 . S
C325 C327 1.332 . S
C325 H333 0.931 . S
C326 N324 1.340 . S
C326 C327 1.407 . S
C326 H332 0.930 1_565 S
C327 C325 1.332 . S
C327 C326 1.407 . S
C327 H329 0.929 . S
H328 C317 0.921 1_445 S
H329 C327 0.929 . S
H330 C345 0.930 . S
H331 C352 0.929 . S
H332 C326 0.930 1_545 S
H333 C325 0.931 . S
H334 C348 0.930 . S
H335 C315 0.930 . S
H336 C321 0.929 . S
H337 C322 0.930 . S
H338 C343 0.930 . S
H339 C318 0.930 . S
H340 C351 0.931 . S
N341 Tb312 2.617 . S
N341 C342 1.379 . S
N341 C345 1.334 . S
C342 N341 1.379 . S
C342 C344 1.416 . S
C342 C350 1.424 . S
C343 H338 0.930 . S
C343 C345 1.390 . S
C343 C346 1.339 . S
C344 C342 1.416 . S
C344 C346 1.416 . S
C344 C377 1.448 . S
C345 H330 0.930 . S
C345 N341 1.334 . S
C345 C343 1.390 . S
C346 C343 1.339 . S
C346 C344 1.416 . S
C346 H353 0.930 . S
N347 Tb312 2.572 . S
N347 C348 1.340 . S
N347 C350 1.361 . S
C348 H334 0.930 . S
C348 N347 1.340 . S
C348 C352 1.407 . S
C349 C350 1.413 . S
C349 C351 1.416 . S
C349 C378 1.427 . S
C350 C342 1.424 . S
C350 N347 1.361 . S
C350 C349 1.413 . S
C351 H340 0.931 . S
C351 C349 1.416 . S
C351 C352 1.332 . S
C352 H331 0.929 . S
C352 C348 1.407 . S
C352 C351 1.332 . S
H353 C346 0.930 . S
H354 C377 0.930 . S
H355 C378 0.929 . S
O356 Tb312 2.465 . S
O356 C376 1.264 . S
O357 Tb312 2.387 . S
O357 C368 1.264 . S
O358 Tb323 2.349 . S
O358 C368 1.243 . S
O359 Tb312 2.428 . S
O359 C376 1.256 . S
O360 Tb312 2.308 . S
O360 C375 1.266 . S
O361 Tb323 2.393 1_556 S
O361 C375 1.248 1_556 S
O362 Tb323 2.465 1_655 S
O362 C387 1.264 . S
O363 Tb323 2.387 . S
O363 C379 1.264 . S
O364 Tb312 2.349 . S
O364 C379 1.243 . S
O365 Tb323 2.428 1_655 S
O365 C387 1.256 . S
O366 Tb323 2.308 . S
O366 C386 1.266 . S
O367 Tb312 2.393 . S
O367 C386 1.248 . S
C368 O357 1.264 . S
C368 O358 1.243 . S
C369 C372 1.399 . S
C369 C374 1.383 . S
C369 C376 1.496 . S
C370 C371 1.399 . S
C370 C374 1.389 . S
C371 C370 1.399 . S
C371 C373 1.380 . S
C371 H388 0.929 . S
C372 C369 1.399 . S
C372 C373 1.392 . S
C372 H389 0.929 . S
C373 C371 1.380 . S
C373 C372 1.392 . S
C373 H390 0.929 . S
C374 C369 1.383 . S
C374 C370 1.389 . S
C374 H391 0.931 . S
C375 O360 1.266 . S
C375 O361 1.248 1_554 S
C376 Tb312 2.802 . S
C376 O356 1.264 . S
C376 O359 1.256 . S
C376 C369 1.496 . S
C377 C344 1.448 . S
C377 H354 0.930 . S
C377 C378 1.328 . S
C378 C349 1.427 . S
C378 H355 0.929 . S
C378 C377 1.328 . S
C379 O363 1.264 . S
C379 O364 1.243 . S
C380 C383 1.399 1_554 S
C380 C384 1.383 . S
C380 C387 1.496 . S
C381 C382 1.399 . S
C381 C384 1.389 . S
C382 C381 1.399 . S
C382 C385 1.380 1_554 S
C382 H392 0.929 . S
C383 C380 1.399 1_556 S
C383 C385 1.392 . S
C383 H393 0.929 . S
C384 C380 1.383 . S
C384 C381 1.389 . S
C384 H394 0.931 . S
C385 C382 1.380 1_556 S
C385 C383 1.392 . S
C385 H395 0.929 . S
C386 O366 1.266 . S
C386 O367 1.248 . S
C387 Tb323 2.802 1_655 S
C387 O362 1.264 . S
C387 O365 1.256 . S
C387 C380 1.496 . S
H388 C371 0.929 . S
H389 C372 0.929 . S
H390 C373 0.929 . S
H391 C374 0.931 . S
H392 C382 0.929 . S
H393 C383 0.929 . S
H394 C384 0.931 . S
H395 C385 0.929 . S
Tb396 N425 2.617 . S
Tb396 N431 2.572 . S
Tb396 O440 2.465 . S
Tb396 O441 2.387 . S
Tb396 O443 2.428 . S
Tb396 O444 2.308 . S
Tb396 O448 2.349 . S
Tb396 O451 2.393 . S
Tb396 C460 2.802 . S
C397 N398 1.379 . S
C397 C400 1.416 . S
C397 C404 1.424 . S
N398 C397 1.379 . S
N398 C401 1.334 . S
N398 Tb407 2.617 . S
C399 C401 1.390 . S
C399 C402 1.339 . S
C399 H419 0.930 . S
C400 C397 1.416 . S
C400 C402 1.416 . S
C400 C406 1.448 . S
C401 N398 1.334 . S
C401 C399 1.390 . S
C401 H412 0.930 . S
C402 C399 1.339 . S
C402 C400 1.416 . S
C402 H423 0.930 . S
C403 C404 1.413 . S
C403 C405 1.427 . S
C403 C409 1.416 . S
C404 C397 1.424 . S
C404 C403 1.413 . S
C404 N408 1.361 . S
C405 C403 1.427 . S
C405 C406 1.328 . S
C405 H420 0.929 . S
C406 C400 1.448 . S
C406 C405 1.328 . S
C406 H421 0.930 . S
Tb407 N398 2.617 . S
Tb407 N408 2.572 . S
Tb407 O442 2.349 . S
Tb407 O445 2.393 . S
Tb407 O446 2.465 . S
Tb407 O447 2.387 . S
Tb407 O449 2.428 . S
Tb407 O450 2.308 . S
Tb407 C471 2.802 . S
N408 C404 1.361 . S
N408 Tb407 2.572 . S
N408 C410 1.340 . S
C409 C403 1.416 . S
C409 C411 1.332 . S
C409 H417 0.931 . S
C410 N408 1.340 . S
C410 C411 1.407 . S
C410 H416 0.930 . S
C411 C409 1.332 . S
C411 C410 1.407 . S
C411 H413 0.929 . S
H412 C401 0.930 . S
H413 C411 0.929 . S
H414 C429 0.930 . S
H415 C436 0.929 . S
H416 C410 0.930 . S
H417 C409 0.931 . S
H418 C432 0.930 . S
H419 C399 0.930 . S
H420 C405 0.929 . S
H421 C406 0.930 . S
H422 C427 0.930 . S
H423 C402 0.930 . S
H424 C435 0.931 . S
N425 Tb396 2.617 . S
N425 C426 1.379 . S
N425 C429 1.334 . S
C426 N425 1.379 . S
C426 C428 1.416 . S
C426 C434 1.424 . S
C427 H422 0.930 . S
C427 C429 1.390 . S
C427 C430 1.339 . S
C428 C426 1.416 . S
C428 C430 1.416 . S
C428 C461 1.448 . S
C429 H414 0.930 . S
C429 N425 1.334 . S
C429 C427 1.390 . S
C430 C427 1.339 . S
C430 C428 1.416 . S
C430 H437 0.930 . S
N431 Tb396 2.572 . S
N431 C432 1.340 . S
N431 C434 1.361 . S
C432 H418 0.930 . S
C432 N431 1.340 . S
C432 C436 1.407 . S
C433 C434 1.413 . S
C433 C435 1.416 . S
C433 C462 1.427 . S
C434 C426 1.424 . S
C434 N431 1.361 . S
C434 C433 1.413 . S
C435 H424 0.931 . S
C435 C433 1.416 . S
C435 C436 1.332 . S
C436 H415 0.929 . S
C436 C432 1.407 . S
C436 C435 1.332 . S
H437 C430 0.930 . S
H438 C461 0.930 . S
H439 C462 0.929 . S
O440 Tb396 2.465 . S
O440 C460 1.264 . S
O441 Tb396 2.387 . S
O441 C452 1.264 . S
O442 Tb407 2.349 . S
O442 C452 1.243 . S
O443 Tb396 2.428 . S
O443 C460 1.256 . S
O444 Tb396 2.308 . S
O444 C459 1.266 . S
O445 Tb407 2.393 . S
O445 C459 1.248 . S
O446 Tb407 2.465 . S
O446 C471 1.264 . S
O447 Tb407 2.387 . S
O447 C463 1.264 . S
O448 Tb396 2.349 . S
O448 C463 1.243 . S
O449 Tb407 2.428 . S
O449 C471 1.256 . S
O450 Tb407 2.308 . S
O450 C470 1.266 . S
O451 Tb396 2.393 . S
O451 C470 1.248 . S
C452 O441 1.264 . S
C452 O442 1.243 . S
C453 C456 1.399 . S
C453 C458 1.383 . S
C453 C460 1.496 . S
C454 C455 1.399 . S
C454 C458 1.389 . S
C455 C454 1.399 . S
C455 C457 1.380 . S
C455 H472 0.929 . S
C456 C453 1.399 . S
C456 C457 1.392 . S
C456 H473 0.929 . S
C457 C455 1.380 . S
C457 C456 1.392 . S
C457 H474 0.929 . S
C458 C453 1.383 . S
C458 C454 1.389 . S
C458 H475 0.931 . S
C459 O444 1.266 . S
C459 O445 1.248 . S
C460 Tb396 2.802 . S
C460 O440 1.264 . S
C460 O443 1.256 . S
C460 C453 1.496 . S
C461 C428 1.448 . S
C461 H438 0.930 . S
C461 C462 1.328 . S
C462 C433 1.427 . S
C462 H439 0.929 . S
C462 C461 1.328 . S
C463 O447 1.264 . S
C463 O448 1.243 . S
C464 C467 1.399 . S
C464 C468 1.383 . S
C464 C471 1.496 . S
C465 C466 1.399 . S
C465 C468 1.389 . S
C466 C465 1.399 . S
C466 C469 1.380 . S
C466 H476 0.929 . S
C467 C464 1.399 . S
C467 C469 1.392 . S
C467 H477 0.929 . S
C468 C464 1.383 . S
C468 C465 1.389 . S
C468 H478 0.931 . S
C469 C466 1.380 . S
C469 C467 1.392 . S
C469 H479 0.929 . S
C470 O450 1.266 . S
C470 O451 1.248 . S
C471 Tb407 2.802 . S
C471 O446 1.264 . S
C471 O449 1.256 . S
C471 C464 1.496 . S
H472 C455 0.929 . S
H473 C456 0.929 . S
H474 C457 0.929 . S
H475 C458 0.931 . S
H476 C466 0.929 . S
H477 C467 0.929 . S
H478 C468 0.931 . S
H479 C469 0.929 . S
Tb480 N509 2.617 1_545 S
Tb480 N515 2.572 1_545 S
Tb480 O524 2.465 . S
Tb480 O525 2.387 1_545 S
Tb480 O527 2.428 . S
Tb480 O528 2.308 . S
Tb480 O532 2.349 . S
Tb480 O535 2.393 . S
Tb480 C544 2.802 . S
C481 N482 1.379 . S
C481 C484 1.416 . S
C481 C488 1.424 . S
N482 C481 1.379 . S
N482 C485 1.334 . S
N482 Tb491 2.617 . S
C483 C485 1.390 . S
C483 C486 1.339 . S
C483 H503 0.930 . S
C484 C481 1.416 . S
C484 C486 1.416 . S
C484 C490 1.448 . S
C485 N482 1.334 . S
C485 C483 1.390 . S
C485 H496 0.930 . S
C486 C483 1.339 . S
C486 C484 1.416 . S
C486 H507 0.930 . S
C487 C488 1.413 . S
C487 C489 1.427 . S
C487 C493 1.416 . S
C488 C481 1.424 . S
C488 C487 1.413 . S
C488 N492 1.361 . S
C489 C487 1.427 . S
C489 C490 1.328 . S
C489 H504 0.929 . S
C490 C484 1.448 . S
C490 C489 1.328 . S
C490 H505 0.930 . S
Tb491 N482 2.617 . S
Tb491 N492 2.572 . S
Tb491 O526 2.349 1_545 S
Tb491 O529 2.393 . S
Tb491 O530 2.465 . S
Tb491 O531 2.387 . S
Tb491 O533 2.428 . S
Tb491 O534 2.308 . S
Tb491 C555 2.802 . S
N492 C488 1.361 . S
N492 Tb491 2.572 . S
N492 C494 1.340 . S
C493 C487 1.416 . S
C493 C495 1.332 . S
C493 H501 0.931 . S
C494 N492 1.340 . S
C494 C495 1.407 . S
C494 H500 0.930 . S
C495 C493 1.332 . S
C495 C494 1.407 . S
C495 H497 0.929 . S
H496 C485 0.930 . S
H497 C495 0.929 . S
H498 C513 0.930 1_545 S
H499 C520 0.929 . S
H500 C494 0.930 . S
H501 C493 0.931 . S
H502 C516 0.930 . S
H503 C483 0.930 . S
H504 C489 0.929 . S
H505 C490 0.930 . S
H506 C511 0.930 . S
H507 C486 0.930 . S
H508 C519 0.931 . S
N509 Tb480 2.617 1_565 S
N509 C510 1.379 . S
N509 C513 1.334 . S
C510 N509 1.379 . S
C510 C512 1.416 . S
C510 C518 1.424 . S
C511 H506 0.930 . S
C511 C513 1.390 . S
C511 C514 1.339 . S
C512 C510 1.416 . S
C512 C514 1.416 . S
C512 C545 1.448 . S
C513 H498 0.930 1_565 S
C513 N509 1.334 . S
C513 C511 1.390 . S
C514 C511 1.339 . S
C514 C512 1.416 . S
C514 H521 0.930 . S
N515 Tb480 2.572 1_565 S
N515 C516 1.340 . S
N515 C518 1.361 . S
C516 H502 0.930 . S
C516 N515 1.340 . S
C516 C520 1.407 . S
C517 C518 1.413 . S
C517 C519 1.416 . S
C517 C546 1.427 . S
C518 C510 1.424 . S
C518 N515 1.361 . S
C518 C517 1.413 . S
C519 H508 0.931 . S
C519 C517 1.416 . S
C519 C520 1.332 . S
C520 H499 0.929 . S
C520 C516 1.407 . S
C520 C519 1.332 . S
H521 C514 0.930 . S
H522 C545 0.930 . S
H523 C546 0.929 . S
O524 Tb480 2.465 . S
O524 C544 1.264 . S
O525 Tb480 2.387 1_565 S
O525 C536 1.264 . S
O526 Tb491 2.349 1_565 S
O526 C536 1.243 . S
O527 Tb480 2.428 . S
O527 C544 1.256 . S
O528 Tb480 2.308 . S
O528 C543 1.266 . S
O529 Tb491 2.393 . S
O529 C543 1.248 . S
O530 Tb491 2.465 . S
O530 C555 1.264 . S
O531 Tb491 2.387 . S
O531 C547 1.264 . S
O532 Tb480 2.349 . S
O532 C547 1.243 . S
O533 Tb491 2.428 . S
O533 C555 1.256 . S
O534 Tb491 2.308 . S
O534 C554 1.266 . S
O535 Tb480 2.393 . S
O535 C554 1.248 . S
C536 O525 1.264 . S
C536 O526 1.243 . S
C537 C540 1.399 . S
C537 C542 1.383 . S
C537 C544 1.496 . S
C538 C539 1.399 . S
C538 C542 1.389 . S
C539 C538 1.399 . S
C539 C541 1.380 . S
C539 H556 0.929 . S
C540 C537 1.399 . S
C540 C541 1.392 . S
C540 H557 0.929 . S
C541 C539 1.380 . S
C541 C540 1.392 . S
C541 H558 0.929 . S
C542 C537 1.383 . S
C542 C538 1.389 . S
C542 H559 0.931 . S
C543 O528 1.266 . S
C543 O529 1.248 . S
C544 Tb480 2.802 . S
C544 O524 1.264 . S
C544 O527 1.256 . S
C544 C537 1.496 . S
C545 C512 1.448 . S
C545 H522 0.930 . S
C545 C546 1.328 . S
C546 C517 1.427 . S
C546 H523 0.929 . S
C546 C545 1.328 . S
C547 O531 1.264 . S
C547 O532 1.243 . S
C548 C551 1.399 . S
C548 C552 1.383 . S
C548 C555 1.496 1_565 S
C549 C550 1.399 . S
C549 C552 1.389 . S
C550 C549 1.399 . S
C550 C553 1.380 . S
C550 H560 0.929 . S
C551 C548 1.399 . S
C551 C553 1.392 . S
C551 H561 0.929 . S
C552 C548 1.383 . S
C552 C549 1.389 . S
C552 H562 0.931 . S
C553 C550 1.380 . S
C553 C551 1.392 . S
C553 H563 0.929 . S
C554 O534 1.266 . S
C554 O535 1.248 . S
C555 Tb491 2.802 . S
C555 O530 1.264 . S
C555 O533 1.256 . S
C555 C548 1.496 1_545 S
H556 C539 0.929 . S
H557 C540 0.929 . S
H558 C541 0.929 . S
H559 C542 0.931 . S
H560 C550 0.929 . S
H561 C551 0.929 . S
H562 C552 0.931 . S
H563 C553 0.929 . S
Tb564 N593 2.617 . S
Tb564 N599 2.572 . S
Tb564 O608 2.465 . S
Tb564 O609 2.387 . S
Tb564 O611 2.428 . S
Tb564 O612 2.308 . S
Tb564 O616 2.349 . S
Tb564 O619 2.393 . S
Tb564 C628 2.802 . S
C565 N566 1.379 . S
C565 C568 1.416 . S
C565 C572 1.424 . S
N566 C565 1.379 . S
N566 C569 1.334 . S
N566 Tb575 2.617 . S
C567 C569 1.390 . S
C567 C570 1.339 . S
C567 H587 0.930 . S
C568 C565 1.416 . S
C568 C570 1.416 . S
C568 C574 1.448 . S
C569 N566 1.334 . S
C569 C567 1.390 . S
C569 H580 0.930 . S
C570 C567 1.339 . S
C570 C568 1.416 . S
C570 H591 0.930 . S
C571 C572 1.413 . S
C571 C573 1.427 . S
C571 C577 1.416 . S
C572 C565 1.424 . S
C572 C571 1.413 . S
C572 N576 1.361 . S
C573 C571 1.427 . S
C573 C574 1.328 . S
C573 H588 0.929 . S
C574 C568 1.448 . S
C574 C573 1.328 . S
C574 H589 0.930 . S
Tb575 N566 2.617 . S
Tb575 N576 2.572 . S
Tb575 O610 2.349 . S
Tb575 O613 2.393 . S
Tb575 O614 2.465 . S
Tb575 O615 2.387 . S
Tb575 O617 2.428 . S
Tb575 O618 2.308 . S
Tb575 C639 2.802 . S
N576 C572 1.361 . S
N576 Tb575 2.572 . S
N576 C578 1.340 . S
C577 C571 1.416 . S
C577 C579 1.332 . S
C577 H585 0.931 . S
C578 N576 1.340 . S
C578 C579 1.407 . S
C578 H584 0.930 . S
C579 C577 1.332 . S
C579 C578 1.407 . S
C579 H581 0.929 . S
H580 C569 0.930 . S
H581 C579 0.929 . S
H582 C597 0.930 . S
H583 C604 0.929 . S
H584 C578 0.930 . S
H585 C577 0.931 . S
H586 C600 0.930 . S
H587 C567 0.930 . S
H588 C573 0.929 . S
H589 C574 0.930 . S
H590 C595 0.930 . S
H591 C570 0.930 . S
H592 C603 0.931 . S
N593 Tb564 2.617 . S
N593 C594 1.379 . S
N593 C597 1.334 . S
C594 N593 1.379 . S
C594 C596 1.416 . S
C594 C602 1.424 . S
C595 H590 0.930 . S
C595 C597 1.390 . S
C595 C598 1.339 . S
C596 C594 1.416 . S
C596 C598 1.416 . S
C596 C629 1.448 . S
C597 H582 0.930 . S
C597 N593 1.334 . S
C597 C595 1.390 . S
C598 C595 1.339 . S
C598 C596 1.416 . S
C598 H605 0.930 . S
N599 Tb564 2.572 . S
N599 C600 1.340 . S
N599 C602 1.361 . S
C600 H586 0.930 . S
C600 N599 1.340 . S
C600 C604 1.407 . S
C601 C602 1.413 . S
C601 C603 1.416 . S
C601 C630 1.427 . S
C602 C594 1.424 . S
C602 N599 1.361 . S
C602 C601 1.413 . S
C603 H592 0.931 . S
C603 C601 1.416 . S
C603 C604 1.332 . S
C604 H583 0.929 . S
C604 C600 1.407 . S
C604 C603 1.332 . S
H605 C598 0.930 . S
H606 C629 0.930 . S
H607 C630 0.929 . S
O608 Tb564 2.465 . S
O608 C628 1.264 . S
O609 Tb564 2.387 . S
O609 C620 1.264 . S
O610 Tb575 2.349 . S
O610 C620 1.243 . S
O611 Tb564 2.428 . S
O611 C628 1.256 . S
O612 Tb564 2.308 . S
O612 C627 1.266 . S
O613 Tb575 2.393 . S
O613 C627 1.248 . S
O614 Tb575 2.465 . S
O614 C639 1.264 . S
O615 Tb575 2.387 . S
O615 C631 1.264 . S
O616 Tb564 2.349 . S
O616 C631 1.243 . S
O617 Tb575 2.428 . S
O617 C639 1.256 . S
O618 Tb575 2.308 . S
O618 C638 1.266 . S
O619 Tb564 2.393 . S
O619 C638 1.248 . S
C620 O609 1.264 . S
C620 O610 1.243 . S
C621 C624 1.399 . S
C621 C626 1.383 . S
C621 C628 1.496 . S
C622 C623 1.399 . S
C622 C626 1.389 . S
C623 C622 1.399 . S
C623 C625 1.380 . S
C623 H640 0.929 . S
C624 C621 1.399 . S
C624 C625 1.392 . S
C624 H641 0.929 . S
C625 C623 1.380 . S
C625 C624 1.392 . S
C625 H642 0.929 . S
C626 C621 1.383 . S
C626 C622 1.389 . S
C626 H643 0.931 . S
C627 O612 1.266 . S
C627 O613 1.248 . S
C628 Tb564 2.802 . S
C628 O608 1.264 . S
C628 O611 1.256 . S
C628 C621 1.496 . S
C629 C596 1.448 . S
C629 H606 0.930 . S
C629 C630 1.328 . S
C630 C601 1.427 . S
C630 H607 0.929 . S
C630 C629 1.328 . S
C631 O615 1.264 . S
C631 O616 1.243 . S
C632 C635 1.399 . S
C632 C636 1.383 . S
C632 C639 1.496 . S
C633 C634 1.399 . S
C633 C636 1.389 . S
C634 C633 1.399 . S
C634 C637 1.380 . S
C634 H644 0.929 . S
C635 C632 1.399 . S
C635 C637 1.392 . S
C635 H645 0.929 . S
C636 C632 1.383 . S
C636 C633 1.389 . S
C636 H646 0.931 . S
C637 C634 1.380 . S
C637 C635 1.392 . S
C637 H647 0.929 . S
C638 O618 1.266 . S
C638 O619 1.248 . S
C639 Tb575 2.802 . S
C639 O614 1.264 . S
C639 O617 1.256 . S
C639 C632 1.496 . S
H640 C623 0.929 . S
H641 C624 0.929 . S
H642 C625 0.929 . S
H643 C626 0.931 . S
H644 C634 0.929 . S
H645 C635 0.929 . S
H646 C636 0.931 . S
H647 C637 0.929 . S
Tb648 N677 2.617 . S
Tb648 N683 2.572 . S
Tb648 O692 2.465 . S
Tb648 O693 2.387 1_565 S
Tb648 O695 2.428 . S
Tb648 O696 2.321 . S
Tb648 O700 2.349 1_565 S
Tb648 O703 2.393 1_565 S
Tb648 C712 2.802 . S
C649 N650 1.379 . S
C649 C652 1.429 . S
C649 C656 1.424 . S
N650 C649 1.379 . S
N650 C653 1.334 1_455 S
N650 Tb659 2.617 . S
C651 C653 1.390 . S
C651 C654 1.339 . S
C651 H671 0.930 . S
C652 C649 1.429 . S
C652 C654 1.398 1_455 S
C652 C658 1.455 . S
C653 N650 1.334 1_655 S
C653 C651 1.390 . S
C653 H664 0.930 . S
C654 C651 1.339 . S
C654 C652 1.398 1_655 S
C654 H675 0.930 . S
C655 C656 1.413 . S
C655 C657 1.427 . S
C655 C661 1.416 . S
C656 C649 1.424 . S
C656 C655 1.413 . S
C656 N660 1.361 . S
C657 C655 1.427 . S
C657 C658 1.328 . S
C657 H672 0.929 . S
C658 C652 1.455 . S
C658 C657 1.328 . S
C658 H673 0.930 . S
Tb659 N650 2.617 . S
Tb659 N660 2.572 . S
Tb659 O694 2.349 . S
Tb659 O697 2.393 1_455 S
Tb659 O698 2.465 . S
Tb659 O699 2.387 . S
Tb659 O701 2.428 . S
Tb659 O702 2.308 . S
Tb659 C723 2.802 . S
N660 C656 1.361 . S
N660 Tb659 2.572 . S
N660 C662 1.340 . S
C661 C655 1.416 . S
C661 C663 1.332 . S
C661 H669 0.931 . S
C662 N660 1.340 . S
C662 C663 1.407 . S
C662 H668 0.930 . S
C663 C661 1.332 . S
C663 C662 1.407 . S
C663 H665 0.929 . S
H664 C653 0.930 . S
H665 C663 0.929 . S
H666 C681 0.930 1_545 S
H667 C688 0.929 . S
H668 C662 0.930 . S
H669 C661 0.931 . S
H670 C684 0.930 . S
H671 C651 0.930 . S
H672 C657 0.929 . S
H673 C658 0.930 . S
H674 C679 0.930 . S
H675 C654 0.930 . S
H676 C687 0.920 1_655 S
N677 Tb648 2.617 . S
N677 C678 1.379 . S
N677 C681 1.334 . S
C678 N677 1.379 . S
C678 C680 1.416 . S
C678 C686 1.424 . S
C679 H674 0.930 . S
C679 C681 1.390 . S
C679 C682 1.339 . S
C680 C678 1.416 . S
C680 C682 1.416 . S
C680 C713 1.448 . S
C681 H666 0.930 1_565 S
C681 N677 1.334 . S
C681 C679 1.390 . S
C682 C679 1.339 . S
C682 C680 1.416 . S
C682 H689 0.930 . S
N683 Tb648 2.572 . S
N683 C684 1.340 . S
N683 C686 1.361 . S
C684 H670 0.930 . S
C684 N683 1.340 . S
C684 C688 1.407 1_455 S
C685 C686 1.413 . S
C685 C687 1.416 . S
C685 C714 1.427 . S
C686 C678 1.424 . S
C686 N683 1.361 . S
C686 C685 1.413 . S
C687 H676 0.920 1_455 S
C687 C685 1.416 . S
C687 C688 1.332 1_455 S
C688 H667 0.929 . S
C688 C684 1.407 1_655 S
C688 C687 1.332 1_655 S
H689 C682 0.930 . S
H690 C713 0.930 . S
H691 C714 0.929 . S
O692 Tb648 2.465 . S
O692 C712 1.264 . S
O693 Tb648 2.387 1_545 S
O693 C704 1.264 . S
O694 Tb659 2.349 . S
O694 C704 1.243 . S
O695 Tb648 2.428 . S
O695 C712 1.256 . S
O696 Tb648 2.321 . S
O696 C711 1.247 1_465 S
O697 Tb659 2.393 1_655 S
O697 C711 1.248 . S
O698 Tb659 2.465 . S
O698 C723 1.264 . S
O699 Tb659 2.387 . S
O699 C715 1.264 . S
O700 Tb648 2.349 1_545 S
O700 C715 1.243 . S
O701 Tb659 2.428 . S
O701 C723 1.256 . S
O702 Tb659 2.308 . S
O702 C722 1.266 . S
O703 Tb648 2.393 1_545 S
O703 C722 1.248 . S
C704 O693 1.264 . S
C704 O694 1.243 . S
C705 C708 1.399 . S
C705 C710 1.383 . S
C705 C712 1.496 . S
C706 C707 1.399 . S
C706 C710 1.389 . S
C707 C706 1.399 . S
C707 C709 1.380 . S
C707 H724 0.929 . S
C708 C705 1.399 . S
C708 C709 1.392 . S
C708 H725 0.929 . S
C709 C707 1.380 . S
C709 C708 1.392 . S
C709 H726 0.929 . S
C710 C705 1.383 . S
C710 C706 1.389 . S
C710 H727 0.931 . S
C711 O696 1.247 1_645 S
C711 O697 1.248 . S
C712 Tb648 2.802 . S
C712 O692 1.264 . S
C712 O695 1.256 . S
C712 C705 1.496 . S
C713 C680 1.448 . S
C713 H690 0.930 . S
C713 C714 1.328 . S
C714 C685 1.427 . S
C714 H691 0.929 . S
C714 C713 1.328 . S
C715 O699 1.264 . S
C715 O700 1.243 . S
C716 C719 1.399 1_455 S
C716 C720 1.383 . S
C716 C723 1.496 . S
C717 C718 1.399 . S
C717 C720 1.389 . S
C718 C717 1.399 . S
C718 C721 1.380 1_455 S
C718 H728 0.929 . S
C719 C716 1.399 1_655 S
C719 C721 1.392 . S
C719 H729 0.929 . S
C720 C716 1.383 . S
C720 C717 1.389 . S
C720 H730 0.931 . S
C721 C718 1.380 1_655 S
C721 C719 1.392 . S
C721 H731 0.929 . S
C722 O702 1.266 . S
C722 O703 1.248 . S
C723 Tb659 2.802 . S
C723 O698 1.264 . S
C723 O701 1.256 . S
C723 C716 1.496 . S
H724 C707 0.929 . S
H725 C708 0.929 . S
H726 C709 0.929 . S
H727 C710 0.931 . S
H728 C718 0.929 . S
H729 C719 0.929 . S
H730 C720 0.931 . S
H731 C721 0.929 . S
Tb732 N761 2.617 . S
Tb732 N767 2.572 . S
Tb732 O776 2.465 . S
Tb732 O777 2.387 . S
Tb732 O779 2.428 . S
Tb732 O780 2.308 . S
Tb732 O784 2.349 . S
Tb732 O787 2.393 . S
Tb732 C796 2.802 . S
C733 N734 1.379 . S
C733 C736 1.416 . S
C733 C740 1.424 . S
N734 C733 1.379 . S
N734 C737 1.334 . S
N734 Tb743 2.617 . S
C735 C737 1.390 . S
C735 C738 1.339 . S
C735 H755 0.930 . S
C736 C733 1.416 . S
C736 C738 1.416 . S
C736 C742 1.448 . S
C737 N734 1.334 . S
C737 C735 1.390 . S
C737 H748 0.930 . S
C738 C735 1.339 . S
C738 C736 1.416 . S
C738 H759 0.930 . S
C739 C740 1.413 . S
C739 C741 1.427 . S
C739 C745 1.416 . S
C740 C733 1.424 . S
C740 C739 1.413 . S
C740 N744 1.361 . S
C741 C739 1.427 . S
C741 C742 1.328 . S
C741 H756 0.929 . S
C742 C736 1.448 . S
C742 C741 1.328 . S
C742 H757 0.930 . S
Tb743 N734 2.617 . S
Tb743 N744 2.572 . S
Tb743 O778 2.349 . S
Tb743 O781 2.393 . S
Tb743 O782 2.465 . S
Tb743 O783 2.387 . S
Tb743 O785 2.428 . S
Tb743 O786 2.308 . S
Tb743 C807 2.802 . S
N744 C740 1.361 . S
N744 Tb743 2.572 . S
N744 C746 1.340 . S
C745 C739 1.416 . S
C745 C747 1.332 . S
C745 H753 0.931 . S
C746 N744 1.340 . S
C746 C747 1.407 . S
C746 H752 0.930 . S
C747 C745 1.332 . S
C747 C746 1.407 . S
C747 H749 0.929 . S
H748 C737 0.930 . S
H749 C747 0.929 . S
H750 C765 0.930 . S
H751 C772 0.929 . S
H752 C746 0.930 . S
H753 C745 0.931 . S
H754 C768 0.930 . S
H755 C735 0.930 . S
H756 C741 0.929 . S
H757 C742 0.930 . S
H758 C763 0.930 . S
H759 C738 0.930 . S
H760 C771 0.931 . S
N761 Tb732 2.617 . S
N761 C762 1.379 . S
N761 C765 1.334 . S
C762 N761 1.379 . S
C762 C764 1.416 . S
C762 C770 1.424 . S
C763 H758 0.930 . S
C763 C765 1.390 . S
C763 C766 1.339 . S
C764 C762 1.416 . S
C764 C766 1.416 . S
C764 C797 1.448 . S
C765 H750 0.930 . S
C765 N761 1.334 . S
C765 C763 1.390 . S
C766 C763 1.339 . S
C766 C764 1.416 . S
C766 H773 0.930 . S
N767 Tb732 2.572 . S
N767 C768 1.340 . S
N767 C770 1.361 . S
C768 H754 0.930 . S
C768 N767 1.340 . S
C768 C772 1.407 . S
C769 C770 1.413 . S
C769 C771 1.416 . S
C769 C798 1.427 . S
C770 C762 1.424 . S
C770 N767 1.361 . S
C770 C769 1.413 . S
C771 H760 0.931 . S
C771 C769 1.416 . S
C771 C772 1.332 . S
C772 H751 0.929 . S
C772 C768 1.407 . S
C772 C771 1.332 . S
H773 C766 0.930 . S
H774 C797 0.930 . S
H775 C798 0.929 . S
O776 Tb732 2.465 . S
O776 C796 1.264 . S
O777 Tb732 2.387 . S
O777 C788 1.264 . S
O778 Tb743 2.349 . S
O778 C788 1.243 . S
O779 Tb732 2.428 . S
O779 C796 1.256 . S
O780 Tb732 2.308 . S
O780 C795 1.266 . S
O781 Tb743 2.393 . S
O781 C795 1.248 . S
O782 Tb743 2.465 . S
O782 C807 1.264 . S
O783 Tb743 2.387 . S
O783 C799 1.264 . S
O784 Tb732 2.349 . S
O784 C799 1.243 . S
O785 Tb743 2.428 . S
O785 C807 1.256 . S
O786 Tb743 2.308 . S
O786 C806 1.266 . S
O787 Tb732 2.393 . S
O787 C806 1.248 . S
C788 O777 1.264 . S
C788 O778 1.243 . S
C789 C792 1.399 . S
C789 C794 1.383 . S
C789 C796 1.496 . S
C790 C791 1.399 . S
C790 C794 1.389 . S
C791 C790 1.399 . S
C791 C793 1.380 . S
C791 H808 0.929 . S
C792 C789 1.399 . S
C792 C793 1.392 . S
C792 H809 0.929 . S
C793 C791 1.380 . S
C793 C792 1.392 . S
C793 H810 0.929 . S
C794 C789 1.383 . S
C794 C790 1.389 . S
C794 H811 0.931 . S
C795 O780 1.266 . S
C795 O781 1.248 . S
C796 Tb732 2.802 . S
C796 O776 1.264 . S
C796 O779 1.256 . S
C796 C789 1.496 . S
C797 C764 1.448 . S
C797 H774 0.930 . S
C797 C798 1.328 . S
C798 C769 1.427 . S
C798 H775 0.929 . S
C798 C797 1.328 . S
C799 O783 1.264 . S
C799 O784 1.243 . S
C800 C803 1.399 . S
C800 C804 1.383 . S
C800 C807 1.496 . S
C801 C802 1.399 . S
C801 C804 1.389 . S
C802 C801 1.399 . S
C802 C805 1.380 . S
C802 H812 0.929 . S
C803 C800 1.399 . S
C803 C805 1.392 . S
C803 H813 0.929 . S
C804 C800 1.383 . S
C804 C801 1.389 . S
C804 H814 0.931 . S
C805 C802 1.380 . S
C805 C803 1.392 . S
C805 H815 0.929 . S
C806 O786 1.266 . S
C806 O787 1.248 . S
C807 Tb743 2.802 . S
C807 O782 1.264 . S
C807 O785 1.256 . S
C807 C800 1.496 . S
H808 C791 0.929 . S
H809 C792 0.929 . S
H810 C793 0.929 . S
H811 C794 0.931 . S
H812 C802 0.929 . S
H813 C803 0.929 . S
H814 C804 0.931 . S
H815 C805 0.929 . S
Tb816 N845 2.617 . S
Tb816 N851 2.572 . S
Tb816 O860 2.465 . S
Tb816 O861 2.387 1_556 S
Tb816 O863 2.428 . S
Tb816 O864 2.308 . S
Tb816 O868 2.349 1_556 S
Tb816 O871 2.393 1_556 S
Tb816 C880 2.802 . S
C817 N818 1.379 . S
C817 C820 1.417 1_545 S
C817 C824 1.424 . S
N818 C817 1.379 . S
N818 C821 1.334 1_545 S
N818 Tb827 2.617 . S
C819 C821 1.390 . S
C819 C822 1.339 . S
C819 H839 0.930 . S
C820 C817 1.417 1_565 S
C820 C822 1.415 . S
C820 C826 1.449 1_565 S
C821 N818 1.334 1_565 S
C821 C819 1.390 . S
C821 H832 0.930 . S
C822 C819 1.339 . S
C822 C820 1.415 . S
C822 H843 0.930 . S
C823 C824 1.413 . S
C823 C825 1.427 . S
C823 C829 1.416 . S
C824 C817 1.424 . S
C824 C823 1.413 . S
C824 N828 1.361 . S
C825 C823 1.427 . S
C825 C826 1.328 . S
C825 H840 0.929 . S
C826 C820 1.449 1_545 S
C826 C825 1.328 . S
C826 H841 0.930 . S
Tb827 N818 2.617 . S
Tb827 N828 2.572 . S
Tb827 O862 2.349 . S
Tb827 O865 2.368 1_545 S
Tb827 O866 2.465 . S
Tb827 O867 2.387 . S
Tb827 O869 2.428 . S
Tb827 O870 2.308 . S
Tb827 C891 2.802 . S
N828 C824 1.361 . S
N828 Tb827 2.572 . S
N828 C830 1.340 . S
C829 C823 1.416 . S
C829 C831 1.332 . S
C829 H837 0.931 . S
C830 N828 1.340 . S
C830 C831 1.407 . S
C830 H836 0.930 . S
C831 C829 1.332 . S
C831 C830 1.407 . S
C831 H833 0.929 . S
H832 C821 0.930 . S
H833 C831 0.929 . S
H834 C849 0.930 . S
H835 C856 0.929 1_565 S
H836 C830 0.930 . S
H837 C829 0.931 . S
H838 C852 0.930 . S
H839 C819 0.930 . S
H840 C825 0.929 . S
H841 C826 0.930 . S
H842 C847 0.930 . S
H843 C822 0.930 . S
H844 C855 0.931 . S
N845 Tb816 2.617 . S
N845 C846 1.379 . S
N845 C849 1.334 . S
C846 N845 1.379 . S
C846 C848 1.416 . S
C846 C854 1.424 . S
C847 H842 0.930 . S
C847 C849 1.390 . S
C847 C850 1.339 . S
C848 C846 1.416 . S
C848 C850 1.416 . S
C848 C881 1.448 . S
C849 H834 0.930 . S
C849 N845 1.334 . S
C849 C847 1.390 . S
C850 C847 1.339 . S
C850 C848 1.416 . S
C850 H857 0.930 . S
N851 Tb816 2.572 . S
N851 C852 1.340 . S
N851 C854 1.361 . S
C852 H838 0.930 . S
C852 N851 1.340 . S
C852 C856 1.407 . S
C853 C854 1.413 . S
C853 C855 1.416 . S
C853 C882 1.427 . S
C854 C846 1.424 . S
C854 N851 1.361 . S
C854 C853 1.413 . S
C855 H844 0.931 . S
C855 C853 1.416 . S
C855 C856 1.332 . S
C856 H835 0.929 1_545 S
C856 C852 1.407 . S
C856 C855 1.332 . S
H857 C850 0.930 . S
H858 C881 0.930 . S
H859 C882 0.929 . S
O860 Tb816 2.465 . S
O860 C880 1.264 . S
O861 Tb816 2.387 1_554 S
O861 C872 1.264 . S
O862 Tb827 2.349 . S
O862 C872 1.243 . S
O863 Tb816 2.428 . S
O863 C880 1.256 . S
O864 Tb816 2.308 . S
O864 C879 1.266 . S
O865 Tb827 2.368 1_565 S
O865 C879 1.235 1_564 S
O866 Tb827 2.465 . S
O866 C891 1.264 . S
O867 Tb827 2.387 . S
O867 C883 1.264 . S
O868 Tb816 2.349 1_554 S
O868 C883 1.243 . S
O869 Tb827 2.428 . S
O869 C891 1.256 . S
O870 Tb827 2.308 . S
O870 C890 1.266 . S
O871 Tb816 2.393 1_554 S
O871 C890 1.248 . S
C872 O861 1.264 . S
C872 O862 1.243 . S
C873 C876 1.399 . S
C873 C878 1.383 . S
C873 C880 1.496 . S
C874 C875 1.399 . S
C874 C878 1.389 . S
C875 C874 1.399 . S
C875 C877 1.380 . S
C875 H892 0.929 . S
C876 C873 1.399 . S
C876 C877 1.392 . S
C876 H893 0.929 . S
C877 C875 1.380 . S
C877 C876 1.392 . S
C877 H894 0.929 . S
C878 C873 1.383 . S
C878 C874 1.389 . S
C878 H895 0.931 . S
C879 O864 1.266 . S
C879 O865 1.235 1_546 S
C880 Tb816 2.802 . S
C880 O860 1.264 . S
C880 O863 1.256 . S
C880 C873 1.496 . S
C881 C848 1.448 . S
C881 H858 0.930 . S
C881 C882 1.328 . S
C882 C853 1.427 . S
C882 H859 0.929 . S
C882 C881 1.328 . S
C883 O867 1.264 . S
C883 O868 1.243 . S
C884 C887 1.399 1_545 S
C884 C888 1.383 . S
C884 C891 1.496 . S
C885 C886 1.399 1_545 S
C885 C888 1.389 . S
C886 C885 1.399 1_565 S
C886 C889 1.380 . S
C886 H896 0.929 . S
C887 C884 1.399 1_565 S
C887 C889 1.392 . S
C887 H897 0.929 . S
C888 C884 1.383 . S
C888 C885 1.389 . S
C888 H898 0.931 . S
C889 C886 1.380 . S
C889 C887 1.392 . S
C889 H899 0.929 . S
C890 O870 1.266 . S
C890 O871 1.248 . S
C891 Tb827 2.802 . S
C891 O866 1.264 . S
C891 O869 1.256 . S
C891 C884 1.496 . S
H892 C875 0.929 . S
H893 C876 0.929 . S
H894 C877 0.929 . S
H895 C878 0.931 . S
H896 C886 0.929 . S
H897 C887 0.929 . S
H898 C888 0.931 . S
H899 C889 0.929 . S
Tb900 N929 2.617 . S
Tb900 N935 2.572 . S
Tb900 O944 2.465 . S
Tb900 O945 2.387 . S
Tb900 O947 2.428 . S
Tb900 O948 2.308 . S
Tb900 O952 2.349 . S
Tb900 O955 2.393 . S
Tb900 C964 2.802 . S
C901 N902 1.379 . S
C901 C904 1.416 . S
C901 C908 1.424 . S
N902 C901 1.379 . S
N902 C905 1.334 . S
N902 Tb911 2.617 . S
C903 C905 1.390 . S
C903 C906 1.339 . S
C903 H923 0.930 . S
C904 C901 1.416 . S
C904 C906 1.416 . S
C904 C910 1.448 . S
C905 N902 1.334 . S
C905 C903 1.390 . S
C905 H916 0.930 . S
C906 C903 1.339 . S
C906 C904 1.416 . S
C906 H927 0.930 . S
C907 C908 1.413 . S
C907 C909 1.427 . S
C907 C913 1.416 . S
C908 C901 1.424 . S
C908 C907 1.413 . S
C908 N912 1.361 . S
C909 C907 1.427 . S
C909 C910 1.328 . S
C909 H924 0.929 . S
C910 C904 1.448 . S
C910 C909 1.328 . S
C910 H925 0.930 . S
Tb911 N902 2.617 . S
Tb911 N912 2.572 . S
Tb911 O946 2.349 . S
Tb911 O949 2.393 . S
Tb911 O950 2.465 . S
Tb911 O951 2.387 . S
Tb911 O953 2.428 . S
Tb911 O954 2.308 . S
Tb911 C975 2.802 . S
N912 C908 1.361 . S
N912 Tb911 2.572 . S
N912 C914 1.340 . S
C913 C907 1.416 . S
C913 C915 1.332 . S
C913 H921 0.931 . S
C914 N912 1.340 . S
C914 C915 1.407 . S
C914 H920 0.930 . S
C915 C913 1.332 . S
C915 C914 1.407 . S
C915 H917 0.929 . S
H916 C905 0.930 . S
H917 C915 0.929 . S
H918 C933 0.930 . S
H919 C940 0.929 . S
H920 C914 0.930 . S
H921 C913 0.931 . S
H922 C936 0.930 . S
H923 C903 0.930 . S
H924 C909 0.929 . S
H925 C910 0.930 . S
H926 C931 0.930 . S
H927 C906 0.930 . S
H928 C939 0.931 . S
N929 Tb900 2.617 . S
N929 C930 1.379 . S
N929 C933 1.334 . S
C930 N929 1.379 . S
C930 C932 1.416 . S
C930 C938 1.424 . S
C931 H926 0.930 . S
C931 C933 1.390 . S
C931 C934 1.339 . S
C932 C930 1.416 . S
C932 C934 1.416 . S
C932 C965 1.448 . S
C933 H918 0.930 . S
C933 N929 1.334 . S
C933 C931 1.390 . S
C934 C931 1.339 . S
C934 C932 1.416 . S
C934 H941 0.930 . S
N935 Tb900 2.572 . S
N935 C936 1.340 . S
N935 C938 1.361 . S
C936 H922 0.930 . S
C936 N935 1.340 . S
C936 C940 1.407 . S
C937 C938 1.413 . S
C937 C939 1.416 . S
C937 C966 1.427 . S
C938 C930 1.424 . S
C938 N935 1.361 . S
C938 C937 1.413 . S
C939 H928 0.931 . S
C939 C937 1.416 . S
C939 C940 1.332 . S
C940 H919 0.929 . S
C940 C936 1.407 . S
C940 C939 1.332 . S
H941 C934 0.930 . S
H942 C965 0.930 . S
H943 C966 0.929 . S
O944 Tb900 2.465 . S
O944 C964 1.264 . S
O945 Tb900 2.387 . S
O945 C956 1.264 . S
O946 Tb911 2.349 . S
O946 C956 1.243 . S
O947 Tb900 2.428 . S
O947 C964 1.256 . S
O948 Tb900 2.308 . S
O948 C963 1.266 . S
O949 Tb911 2.393 . S
O949 C963 1.248 . S
O950 Tb911 2.465 . S
O950 C975 1.264 . S
O951 Tb911 2.387 . S
O951 C967 1.264 . S
O952 Tb900 2.349 . S
O952 C967 1.243 . S
O953 Tb911 2.428 . S
O953 C975 1.256 . S
O954 Tb911 2.308 . S
O954 C974 1.266 . S
O955 Tb900 2.393 . S
O955 C974 1.248 . S
C956 O945 1.264 . S
C956 O946 1.243 . S
C957 C960 1.399 . S
C957 C962 1.383 . S
C957 C964 1.496 . S
C958 C959 1.399 . S
C958 C962 1.389 . S
C959 C958 1.399 . S
C959 C961 1.380 . S
C959 H976 0.929 . S
C960 C957 1.399 . S
C960 C961 1.392 . S
C960 H977 0.929 . S
C961 C959 1.380 . S
C961 C960 1.392 . S
C961 H978 0.929 . S
C962 C957 1.383 . S
C962 C958 1.389 . S
C962 H979 0.931 . S
C963 O948 1.266 . S
C963 O949 1.248 . S
C964 Tb900 2.802 . S
C964 O944 1.264 . S
C964 O947 1.256 . S
C964 C957 1.496 . S
C965 C932 1.448 . S
C965 H942 0.930 . S
C965 C966 1.328 . S
C966 C937 1.427 . S
C966 H943 0.929 . S
C966 C965 1.328 . S
C967 O951 1.264 . S
C967 O952 1.243 . S
C968 C971 1.399 . S
C968 C972 1.383 . S
C968 C975 1.496 . S
C969 C970 1.399 . S
C969 C972 1.389 . S
C970 C969 1.399 . S
C970 C973 1.380 . S
C970 H980 0.929 . S
C971 C968 1.399 . S
C971 C973 1.392 . S
C971 H981 0.929 . S
C972 C968 1.383 . S
C972 C969 1.389 . S
C972 H982 0.931 . S
C973 C970 1.380 . S
C973 C971 1.392 . S
C973 H983 0.929 . S
C974 O954 1.266 . S
C974 O955 1.248 . S
C975 Tb911 2.802 . S
C975 O950 1.264 . S
C975 O953 1.256 . S
C975 C968 1.496 . S
H976 C959 0.929 . S
H977 C960 0.929 . S
H978 C961 0.929 . S
H979 C962 0.931 . S
H980 C970 0.929 . S
H981 C971 0.929 . S
H982 C972 0.931 . S
H983 C973 0.929 . S
Tb984 N1013 2.617 1_554 S
Tb984 N1019 2.572 1_554 S
Tb984 O1028 2.465 . S
Tb984 O1029 2.387 1_554 S
Tb984 O1031 2.428 . S
Tb984 O1032 2.308 . S
Tb984 O1036 2.349 . S
Tb984 O1039 2.393 . S
Tb984 C1048 2.802 . S
C985 N986 1.379 . S
C985 C988 1.416 . S
C985 C992 1.424 . S
N986 C985 1.379 . S
N986 C989 1.334 . S
N986 Tb995 2.617 . S
C987 C989 1.390 . S
C987 C990 1.339 . S
C987 H1007 0.930 . S
C988 C985 1.416 . S
C988 C990 1.416 . S
C988 C994 1.448 . S
C989 N986 1.334 . S
C989 C987 1.390 . S
C989 H1000 0.930 . S
C990 C987 1.339 . S
C990 C988 1.416 . S
C990 H1011 0.930 . S
C991 C992 1.413 . S
C991 C993 1.427 . S
C991 C997 1.416 . S
C992 C985 1.424 . S
C992 C991 1.413 . S
C992 N996 1.361 . S
C993 C991 1.427 . S
C993 C994 1.328 . S
C993 H1008 0.929 . S
C994 C988 1.448 . S
C994 C993 1.328 . S
C994 H1009 0.930 . S
Tb995 N986 2.617 . S
Tb995 N996 2.572 . S
Tb995 O1030 2.349 1_554 S
Tb995 O1033 2.393 . S
Tb995 O1034 2.465 . S
Tb995 O1035 2.387 . S
Tb995 O1037 2.428 . S
Tb995 O1038 2.308 . S
Tb995 C1059 2.802 . S
N996 C992 1.361 . S
N996 Tb995 2.572 . S
N996 C998 1.340 . S
C997 C991 1.416 . S
C997 C999 1.332 . S
C997 H1005 0.931 . S
C998 N996 1.340 . S
C998 C999 1.407 . S
C998 H1004 0.930 . S
C999 C997 1.332 . S
C999 C998 1.407 . S
C999 H1001 0.929 . S
H1000 C989 0.930 . S
H1001 C999 0.929 . S
H1002 C1017 0.930 . S
H1003 C1024 0.929 . S
H1004 C998 0.930 . S
H1005 C997 0.931 . S
H1006 C1020 0.930 . S
H1007 C987 0.930 . S
H1008 C993 0.929 . S
H1009 C994 0.930 . S
H1010 C1015 0.930 . S
H1011 C990 0.930 . S
H1012 C1023 0.931 . S
N1013 Tb984 2.617 1_556 S
N1013 C1014 1.379 . S
N1013 C1017 1.334 . S
C1014 N1013 1.379 . S
C1014 C1016 1.416 . S
C1014 C1022 1.424 . S
C1015 H1010 0.930 . S
C1015 C1017 1.390 . S
C1015 C1018 1.339 . S
C1016 C1014 1.416 . S
C1016 C1018 1.416 . S
C1016 C1049 1.448 . S
C1017 H1002 0.930 . S
C1017 N1013 1.334 . S
C1017 C1015 1.390 . S
C1018 C1015 1.339 . S
C1018 C1016 1.416 . S
C1018 H1025 0.930 . S
N1019 Tb984 2.572 1_556 S
N1019 C1020 1.340 . S
N1019 C1022 1.361 . S
C1020 H1006 0.930 . S
C1020 N1019 1.340 . S
C1020 C1024 1.407 . S
C1021 C1022 1.413 . S
C1021 C1023 1.416 . S
C1021 C1050 1.427 . S
C1022 C1014 1.424 . S
C1022 N1019 1.361 . S
C1022 C1021 1.413 . S
C1023 H1012 0.931 . S
C1023 C1021 1.416 . S
C1023 C1024 1.332 . S
C1024 H1003 0.929 . S
C1024 C1020 1.407 . S
C1024 C1023 1.332 . S
H1025 C1018 0.930 . S
H1026 C1049 0.930 . S
H1027 C1050 0.929 . S
O1028 Tb984 2.465 . S
O1028 C1048 1.264 . S
O1029 Tb984 2.387 1_556 S
O1029 C1040 1.264 . S
O1030 Tb995 2.349 1_556 S
O1030 C1040 1.243 . S
O1031 Tb984 2.428 . S
O1031 C1048 1.256 . S
O1032 Tb984 2.308 . S
O1032 C1047 1.266 . S
O1033 Tb995 2.393 . S
O1033 C1047 1.248 . S
O1034 Tb995 2.465 . S
O1034 C1059 1.264 . S
O1035 Tb995 2.387 . S
O1035 C1051 1.264 . S
O1036 Tb984 2.349 . S
O1036 C1051 1.243 . S
O1037 Tb995 2.428 . S
O1037 C1059 1.256 . S
O1038 Tb995 2.308 . S
O1038 C1058 1.266 . S
O1039 Tb984 2.393 . S
O1039 C1058 1.248 . S
C1040 O1029 1.264 . S
C1040 O1030 1.243 . S
C1041 C1044 1.399 . S
C1041 C1046 1.383 . S
C1041 C1048 1.496 . S
C1042 C1043 1.399 . S
C1042 C1046 1.389 . S
C1043 C1042 1.399 . S
C1043 C1045 1.380 . S
C1043 H1060 0.929 . S
C1044 C1041 1.399 . S
C1044 C1045 1.392 . S
C1044 H1061 0.929 . S
C1045 C1043 1.380 . S
C1045 C1044 1.392 . S
C1045 H1062 0.929 . S
C1046 C1041 1.383 . S
C1046 C1042 1.389 . S
C1046 H1063 0.931 . S
C1047 O1032 1.266 . S
C1047 O1033 1.248 . S
C1048 Tb984 2.802 . S
C1048 O1028 1.264 . S
C1048 O1031 1.256 . S
C1048 C1041 1.496 . S
C1049 C1016 1.448 . S
C1049 H1026 0.930 . S
C1049 C1050 1.328 . S
C1050 C1021 1.427 . S
C1050 H1027 0.929 . S
C1050 C1049 1.328 . S
C1051 O1035 1.264 . S
C1051 O1036 1.243 . S
C1052 C1055 1.399 . S
C1052 C1056 1.383 . S
C1052 C1059 1.496 1_556 S
C1053 C1054 1.399 . S
C1053 C1056 1.389 . S
C1054 C1053 1.399 . S
C1054 C1057 1.380 . S
C1054 H1064 0.929 . S
C1055 C1052 1.399 . S
C1055 C1057 1.392 . S
C1055 H1065 0.929 . S
C1056 C1052 1.383 . S
C1056 C1053 1.389 . S
C1056 H1066 0.931 . S
C1057 C1054 1.380 . S
C1057 C1055 1.392 . S
C1057 H1067 0.929 . S
C1058 O1038 1.266 . S
C1058 O1039 1.248 . S
C1059 Tb995 2.802 . S
C1059 O1034 1.264 . S
C1059 O1037 1.256 . S
C1059 C1052 1.496 1_554 S
H1060 C1043 0.929 . S
H1061 C1044 0.929 . S
H1062 C1045 0.929 . S
H1063 C1046 0.931 . S
H1064 C1054 0.929 . S
H1065 C1055 0.929 . S
H1066 C1056 0.931 . S
H1067 C1057 0.929 . S
Tb1068 N1097 2.617 . S
Tb1068 N1103 2.572 . S
Tb1068 O1112 2.465 . S
Tb1068 O1113 2.387 . S
Tb1068 O1115 2.428 . S
Tb1068 O1116 2.308 . S
Tb1068 O1120 2.349 . S
Tb1068 O1123 2.393 . S
Tb1068 C1132 2.802 . S
C1069 N1070 1.379 . S
C1069 C1072 1.416 . S
C1069 C1076 1.424 . S
N1070 C1069 1.379 . S
N1070 C1073 1.334 . S
N1070 Tb1079 2.617 . S
C1071 C1073 1.390 . S
C1071 C1074 1.339 . S
C1071 H1091 0.930 . S
C1072 C1069 1.416 . S
C1072 C1074 1.416 . S
C1072 C1078 1.448 . S
C1073 N1070 1.334 . S
C1073 C1071 1.390 . S
C1073 H1084 0.930 . S
C1074 C1071 1.339 . S
C1074 C1072 1.416 . S
C1074 H1095 0.930 . S
C1075 C1076 1.413 . S
C1075 C1077 1.427 . S
C1075 C1081 1.416 . S
C1076 C1069 1.424 . S
C1076 C1075 1.413 . S
C1076 N1080 1.361 . S
C1077 C1075 1.427 . S
C1077 C1078 1.328 . S
C1077 H1092 0.929 . S
C1078 C1072 1.448 . S
C1078 C1077 1.328 . S
C1078 H1093 0.930 . S
Tb1079 N1070 2.617 . S
Tb1079 N1080 2.572 . S
Tb1079 O1114 2.349 . S
Tb1079 O1117 2.393 . S
Tb1079 O1118 2.465 . S
Tb1079 O1119 2.387 . S
Tb1079 O1121 2.428 . S
Tb1079 O1122 2.308 . S
Tb1079 C1143 2.802 . S
N1080 C1076 1.361 . S
N1080 Tb1079 2.572 . S
N1080 C1082 1.340 . S
C1081 C1075 1.416 . S
C1081 C1083 1.332 . S
C1081 H1089 0.931 . S
C1082 N1080 1.340 . S
C1082 C1083 1.407 . S
C1082 H1088 0.930 . S
C1083 C1081 1.332 . S
C1083 C1082 1.407 . S
C1083 H1085 0.929 . S
H1084 C1073 0.930 . S
H1085 C1083 0.929 . S
H1086 C1101 0.930 . S
H1087 C1108 0.929 . S
H1088 C1082 0.930 . S
H1089 C1081 0.931 . S
H1090 C1104 0.930 . S
H1091 C1071 0.930 . S
H1092 C1077 0.929 . S
H1093 C1078 0.930 . S
H1094 C1099 0.930 . S
H1095 C1074 0.930 . S
H1096 C1107 0.931 . S
N1097 Tb1068 2.617 . S
N1097 C1098 1.379 . S
N1097 C1101 1.334 . S
C1098 N1097 1.379 . S
C1098 C1100 1.416 . S
C1098 C1106 1.424 . S
C1099 H1094 0.930 . S
C1099 C1101 1.390 . S
C1099 C1102 1.339 . S
C1100 C1098 1.416 . S
C1100 C1102 1.416 . S
C1100 C1133 1.448 . S
C1101 H1086 0.930 . S
C1101 N1097 1.334 . S
C1101 C1099 1.390 . S
C1102 C1099 1.339 . S
C1102 C1100 1.416 . S
C1102 H1109 0.930 . S
N1103 Tb1068 2.572 . S
N1103 C1104 1.340 . S
N1103 C1106 1.361 . S
C1104 H1090 0.930 . S
C1104 N1103 1.340 . S
C1104 C1108 1.407 . S
C1105 C1106 1.413 . S
C1105 C1107 1.416 . S
C1105 C1134 1.427 . S
C1106 C1098 1.424 . S
C1106 N1103 1.361 . S
C1106 C1105 1.413 . S
C1107 H1096 0.931 . S
C1107 C1105 1.416 . S
C1107 C1108 1.332 . S
C1108 H1087 0.929 . S
C1108 C1104 1.407 . S
C1108 C1107 1.332 . S
H1109 C1102 0.930 . S
H1110 C1133 0.930 . S
H1111 C1134 0.929 . S
O1112 Tb1068 2.465 . S
O1112 C1132 1.264 . S
O1113 Tb1068 2.387 . S
O1113 C1124 1.264 . S
O1114 Tb1079 2.349 . S
O1114 C1124 1.243 . S
O1115 Tb1068 2.428 . S
O1115 C1132 1.256 . S
O1116 Tb1068 2.308 . S
O1116 C1131 1.266 . S
O1117 Tb1079 2.393 . S
O1117 C1131 1.248 . S
O1118 Tb1079 2.465 . S
O1118 C1143 1.264 . S
O1119 Tb1079 2.387 . S
O1119 C1135 1.264 . S
O1120 Tb1068 2.349 . S
O1120 C1135 1.243 . S
O1121 Tb1079 2.428 . S
O1121 C1143 1.256 . S
O1122 Tb1079 2.308 . S
O1122 C1142 1.266 . S
O1123 Tb1068 2.393 . S
O1123 C1142 1.248 . S
C1124 O1113 1.264 . S
C1124 O1114 1.243 . S
C1125 C1128 1.399 . S
C1125 C1130 1.383 . S
C1125 C1132 1.496 . S
C1126 C1127 1.399 . S
C1126 C1130 1.389 . S
C1127 C1126 1.399 . S
C1127 C1129 1.380 . S
C1127 H1144 0.929 . S
C1128 C1125 1.399 . S
C1128 C1129 1.392 . S
C1128 H1145 0.929 . S
C1129 C1127 1.380 . S
C1129 C1128 1.392 . S
C1129 H1146 0.929 . S
C1130 C1125 1.383 . S
C1130 C1126 1.389 . S
C1130 H1147 0.931 . S
C1131 O1116 1.266 . S
C1131 O1117 1.248 . S
C1132 Tb1068 2.802 . S
C1132 O1112 1.264 . S
C1132 O1115 1.256 . S
C1132 C1125 1.496 . S
C1133 C1100 1.448 . S
C1133 H1110 0.930 . S
C1133 C1134 1.328 . S
C1134 C1105 1.427 . S
C1134 H1111 0.929 . S
C1134 C1133 1.328 . S
C1135 O1119 1.264 . S
C1135 O1120 1.243 . S
C1136 C1139 1.399 . S
C1136 C1140 1.383 . S
C1136 C1143 1.496 . S
C1137 C1138 1.399 . S
C1137 C1140 1.389 . S
C1138 C1137 1.399 . S
C1138 C1141 1.380 . S
C1138 H1148 0.929 . S
C1139 C1136 1.399 . S
C1139 C1141 1.392 . S
C1139 H1149 0.929 . S
C1140 C1136 1.383 . S
C1140 C1137 1.389 . S
C1140 H1150 0.931 . S
C1141 C1138 1.380 . S
C1141 C1139 1.392 . S
C1141 H1151 0.929 . S
C1142 O1122 1.266 . S
C1142 O1123 1.248 . S
C1143 Tb1079 2.802 . S
C1143 O1118 1.264 . S
C1143 O1121 1.256 . S
C1143 C1136 1.496 . S
H1144 C1127 0.929 . S
H1145 C1128 0.929 . S
H1146 C1129 0.929 . S
H1147 C1130 0.931 . S
H1148 C1138 0.929 . S
H1149 C1139 0.929 . S
H1150 C1140 0.931 . S
H1151 C1141 0.929 . S
Tb1152 N1181 2.617 1_455 S
Tb1152 N1187 2.572 1_455 S
Tb1152 O1196 2.465 . S
Tb1152 O1197 2.387 1_455 S
Tb1152 O1199 2.428 . S
Tb1152 O1200 2.308 . S
Tb1152 O1204 2.349 . S
Tb1152 O1207 2.393 . S
Tb1152 C1216 2.802 . S
C1153 N1154 1.379 . S
C1153 C1156 1.416 . S
C1153 C1160 1.424 . S
N1154 C1153 1.379 . S
N1154 C1157 1.334 . S
N1154 Tb1163 2.617 . S
C1155 C1157 1.390 . S
C1155 C1158 1.339 . S
C1155 H1175 0.930 . S
C1156 C1153 1.416 . S
C1156 C1158 1.416 . S
C1156 C1162 1.448 . S
C1157 N1154 1.334 . S
C1157 C1155 1.390 . S
C1157 H1168 0.930 . S
C1158 C1155 1.339 . S
C1158 C1156 1.416 . S
C1158 H1179 0.930 . S
C1159 C1160 1.413 . S
C1159 C1161 1.427 . S
C1159 C1165 1.416 . S
C1160 C1153 1.424 . S
C1160 C1159 1.413 . S
C1160 N1164 1.361 . S
C1161 C1159 1.427 . S
C1161 C1162 1.328 . S
C1161 H1176 0.929 . S
C1162 C1156 1.448 . S
C1162 C1161 1.328 . S
C1162 H1177 0.930 . S
Tb1163 N1154 2.617 . S
Tb1163 N1164 2.572 . S
Tb1163 O1198 2.349 1_455 S
Tb1163 O1201 2.393 . S
Tb1163 O1202 2.465 . S
Tb1163 O1203 2.387 . S
Tb1163 O1205 2.428 . S
Tb1163 O1206 2.308 . S
Tb1163 C1227 2.802 1_455 S
N1164 C1160 1.361 . S
N1164 Tb1163 2.572 . S
N1164 C1166 1.340 . S
C1165 C1159 1.416 . S
C1165 C1167 1.332 . S
C1165 H1173 0.931 . S
C1166 N1164 1.340 . S
C1166 C1167 1.407 . S
C1166 H1172 0.930 . S
C1167 C1165 1.332 . S
C1167 C1166 1.407 . S
C1167 H1169 0.929 . S
H1168 C1157 0.930 . S
H1169 C1167 0.929 . S
H1170 C1185 0.930 1_455 S
H1171 C1192 0.929 . S
H1172 C1166 0.930 . S
H1173 C1165 0.931 . S
H1174 C1188 0.930 . S
H1175 C1155 0.930 . S
H1176 C1161 0.929 . S
H1177 C1162 0.930 . S
H1178 C1183 0.930 . S
H1179 C1158 0.930 . S
H1180 C1191 0.931 . S
N1181 Tb1152 2.617 1_655 S
N1181 C1182 1.379 . S
N1181 C1185 1.334 . S
C1182 N1181 1.379 . S
C1182 C1184 1.416 . S
C1182 C1190 1.424 . S
C1183 H1178 0.930 . S
C1183 C1185 1.390 . S
C1183 C1186 1.339 . S
C1184 C1182 1.416 . S
C1184 C1186 1.416 . S
C1184 C1217 1.448 . S
C1185 H1170 0.930 1_655 S
C1185 N1181 1.334 . S
C1185 C1183 1.390 . S
C1186 C1183 1.339 . S
C1186 C1184 1.416 . S
C1186 H1193 0.930 . S
N1187 Tb1152 2.572 1_655 S
N1187 C1188 1.340 . S
N1187 C1190 1.361 . S
C1188 H1174 0.930 . S
C1188 N1187 1.340 . S
C1188 C1192 1.407 . S
C1189 C1190 1.413 . S
C1189 C1191 1.416 . S
C1189 C1218 1.427 . S
C1190 C1182 1.424 . S
C1190 N1187 1.361 . S
C1190 C1189 1.413 . S
C1191 H1180 0.931 . S
C1191 C1189 1.416 . S
C1191 C1192 1.332 . S
C1192 H1171 0.929 . S
C1192 C1188 1.407 . S
C1192 C1191 1.332 . S
H1193 C1186 0.930 . S
H1194 C1217 0.930 . S
H1195 C1218 0.929 . S
O1196 Tb1152 2.465 . S
O1196 C1216 1.264 . S
O1197 Tb1152 2.387 1_655 S
O1197 C1208 1.264 . S
O1198 Tb1163 2.349 1_655 S
O1198 C1208 1.243 . S
O1199 Tb1152 2.428 . S
O1199 C1216 1.256 . S
O1200 Tb1152 2.308 . S
O1200 C1215 1.266 . S
O1201 Tb1163 2.393 . S
O1201 C1215 1.248 . S
O1202 Tb1163 2.465 . S
O1202 C1227 1.264 1_455 S
O1203 Tb1163 2.387 . S
O1203 C1219 1.264 . S
O1204 Tb1152 2.349 . S
O1204 C1219 1.243 . S
O1205 Tb1163 2.428 . S
O1205 C1227 1.256 1_455 S
O1206 Tb1163 2.308 . S
O1206 C1226 1.266 . S
O1207 Tb1152 2.393 . S
O1207 C1226 1.248 . S
C1208 O1197 1.264 . S
C1208 O1198 1.243 . S
C1209 C1212 1.399 . S
C1209 C1214 1.383 . S
C1209 C1216 1.496 . S
C1210 C1211 1.399 . S
C1210 C1214 1.389 . S
C1211 C1210 1.399 . S
C1211 C1213 1.380 . S
C1211 H1228 0.929 . S
C1212 C1209 1.399 . S
C1212 C1213 1.392 . S
C1212 H1229 0.929 . S
C1213 C1211 1.380 . S
C1213 C1212 1.392 . S
C1213 H1230 0.929 . S
C1214 C1209 1.383 . S
C1214 C1210 1.389 . S
C1214 H1231 0.931 . S
C1215 O1200 1.266 . S
C1215 O1201 1.248 . S
C1216 Tb1152 2.802 . S
C1216 O1196 1.264 . S
C1216 O1199 1.256 . S
C1216 C1209 1.496 . S
C1217 C1184 1.448 . S
C1217 H1194 0.930 . S
C1217 C1218 1.328 . S
C1218 C1189 1.427 . S
C1218 H1195 0.929 . S
C1218 C1217 1.328 . S
C1219 O1203 1.264 . S
C1219 O1204 1.243 . S
C1220 C1223 1.399 . S
C1220 C1224 1.383 . S
C1220 C1227 1.496 . S
C1221 C1222 1.399 . S
C1221 C1224 1.389 . S
C1222 C1221 1.399 . S
C1222 C1225 1.380 . S
C1222 H1232 0.929 . S
C1223 C1220 1.399 . S
C1223 C1225 1.392 . S
C1223 H1233 0.929 . S
C1224 C1220 1.383 . S
C1224 C1221 1.389 . S
C1224 H1234 0.931 . S
C1225 C1222 1.380 . S
C1225 C1223 1.392 . S
C1225 H1235 0.929 . S
C1226 O1206 1.266 . S
C1226 O1207 1.248 . S
C1227 Tb1163 2.802 1_655 S
C1227 O1202 1.264 1_655 S
C1227 O1205 1.256 1_655 S
C1227 C1220 1.496 . S
H1228 C1211 0.929 . S
H1229 C1212 0.929 . S
H1230 C1213 0.929 . S
H1231 C1214 0.931 . S
H1232 C1222 0.929 . S
H1233 C1223 0.929 . S
H1234 C1224 0.931 . S
H1235 C1225 0.929 . S
Tb1236 N1265 2.617 . S
Tb1236 N1271 2.572 . S
Tb1236 O1280 2.465 . S
Tb1236 O1281 2.387 . S
Tb1236 O1283 2.428 . S
Tb1236 O1284 2.308 . S
Tb1236 O1288 2.349 . S
Tb1236 O1291 2.393 . S
Tb1236 C1300 2.802 . S
C1237 N1238 1.379 . S
C1237 C1240 1.416 . S
C1237 C1244 1.424 . S
N1238 C1237 1.379 . S
N1238 C1241 1.334 . S
N1238 Tb1247 2.617 . S
C1239 C1241 1.390 . S
C1239 C1242 1.339 . S
C1239 H1259 0.930 . S
C1240 C1237 1.416 . S
C1240 C1242 1.416 . S
C1240 C1246 1.448 . S
C1241 N1238 1.334 . S
C1241 C1239 1.390 . S
C1241 H1252 0.930 . S
C1242 C1239 1.339 . S
C1242 C1240 1.416 . S
C1242 H1263 0.930 . S
C1243 C1244 1.413 . S
C1243 C1245 1.427 . S
C1243 C1249 1.416 . S
C1244 C1237 1.424 . S
C1244 C1243 1.413 . S
C1244 N1248 1.361 . S
C1245 C1243 1.427 . S
C1245 C1246 1.328 . S
C1245 H1260 0.929 . S
C1246 C1240 1.448 . S
C1246 C1245 1.328 . S
C1246 H1261 0.930 . S
Tb1247 N1238 2.617 . S
Tb1247 N1248 2.572 . S
Tb1247 O1282 2.349 . S
Tb1247 O1285 2.393 . S
Tb1247 O1286 2.465 . S
Tb1247 O1287 2.387 . S
Tb1247 O1289 2.428 . S
Tb1247 O1290 2.308 . S
Tb1247 C1311 2.802 . S
N1248 C1244 1.361 . S
N1248 Tb1247 2.572 . S
N1248 C1250 1.340 . S
C1249 C1243 1.416 . S
C1249 C1251 1.332 . S
C1249 H1257 0.931 . S
C1250 N1248 1.340 . S
C1250 C1251 1.407 . S
C1250 H1256 0.930 . S
C1251 C1249 1.332 . S
C1251 C1250 1.407 . S
C1251 H1253 0.929 . S
H1252 C1241 0.930 . S
H1253 C1251 0.929 . S
H1254 C1269 0.930 . S
H1255 C1276 0.929 . S
H1256 C1250 0.930 . S
H1257 C1249 0.931 . S
H1258 C1272 0.930 . S
H1259 C1239 0.930 . S
H1260 C1245 0.929 . S
H1261 C1246 0.930 . S
H1262 C1267 0.930 . S
H1263 C1242 0.930 . S
H1264 C1275 0.931 . S
N1265 Tb1236 2.617 . S
N1265 C1266 1.379 . S
N1265 C1269 1.334 . S
C1266 N1265 1.379 . S
C1266 C1268 1.416 . S
C1266 C1274 1.424 . S
C1267 H1262 0.930 . S
C1267 C1269 1.390 . S
C1267 C1270 1.339 . S
C1268 C1266 1.416 . S
C1268 C1270 1.416 . S
C1268 C1301 1.448 . S
C1269 H1254 0.930 . S
C1269 N1265 1.334 . S
C1269 C1267 1.390 . S
C1270 C1267 1.339 . S
C1270 C1268 1.416 . S
C1270 H1277 0.930 . S
N1271 Tb1236 2.572 . S
N1271 C1272 1.340 . S
N1271 C1274 1.361 . S
C1272 H1258 0.930 . S
C1272 N1271 1.340 . S
C1272 C1276 1.407 . S
C1273 C1274 1.413 . S
C1273 C1275 1.416 . S
C1273 C1302 1.427 . S
C1274 C1266 1.424 . S
C1274 N1271 1.361 . S
C1274 C1273 1.413 . S
C1275 H1264 0.931 . S
C1275 C1273 1.416 . S
C1275 C1276 1.332 . S
C1276 H1255 0.929 . S
C1276 C1272 1.407 . S
C1276 C1275 1.332 . S
H1277 C1270 0.930 . S
H1278 C1301 0.930 . S
H1279 C1302 0.929 . S
O1280 Tb1236 2.465 . S
O1280 C1300 1.264 . S
O1281 Tb1236 2.387 . S
O1281 C1292 1.264 . S
O1282 Tb1247 2.349 . S
O1282 C1292 1.243 . S
O1283 Tb1236 2.428 . S
O1283 C1300 1.256 . S
O1284 Tb1236 2.308 . S
O1284 C1299 1.266 . S
O1285 Tb1247 2.393 . S
O1285 C1299 1.248 . S
O1286 Tb1247 2.465 . S
O1286 C1311 1.264 . S
O1287 Tb1247 2.387 . S
O1287 C1303 1.264 . S
O1288 Tb1236 2.349 . S
O1288 C1303 1.243 . S
O1289 Tb1247 2.428 . S
O1289 C1311 1.256 . S
O1290 Tb1247 2.308 . S
O1290 C1310 1.266 . S
O1291 Tb1236 2.393 . S
O1291 C1310 1.248 . S
C1292 O1281 1.264 . S
C1292 O1282 1.243 . S
C1293 C1296 1.399 . S
C1293 C1298 1.383 . S
C1293 C1300 1.496 . S
C1294 C1295 1.399 . S
C1294 C1298 1.389 . S
C1295 C1294 1.399 . S
C1295 C1297 1.380 . S
C1295 H1312 0.929 . S
C1296 C1293 1.399 . S
C1296 C1297 1.392 . S
C1296 H1313 0.929 . S
C1297 C1295 1.380 . S
C1297 C1296 1.392 . S
C1297 H1314 0.929 . S
C1298 C1293 1.383 . S
C1298 C1294 1.389 . S
C1298 H1315 0.931 . S
C1299 O1284 1.266 . S
C1299 O1285 1.248 . S
C1300 Tb1236 2.802 . S
C1300 O1280 1.264 . S
C1300 O1283 1.256 . S
C1300 C1293 1.496 . S
C1301 C1268 1.448 . S
C1301 H1278 0.930 . S
C1301 C1302 1.328 . S
C1302 C1273 1.427 . S
C1302 H1279 0.929 . S
C1302 C1301 1.328 . S
C1303 O1287 1.264 . S
C1303 O1288 1.243 . S
C1304 C1307 1.399 . S
C1304 C1308 1.383 . S
C1304 C1311 1.496 . S
C1305 C1306 1.399 . S
C1305 C1308 1.389 . S
C1306 C1305 1.399 . S
C1306 C1309 1.380 . S
C1306 H1316 0.929 . S
C1307 C1304 1.399 . S
C1307 C1309 1.392 . S
C1307 H1317 0.929 . S
C1308 C1304 1.383 . S
C1308 C1305 1.389 . S
C1308 H1318 0.931 . S
C1309 C1306 1.380 . S
C1309 C1307 1.392 . S
C1309 H1319 0.929 . S
C1310 O1290 1.266 . S
C1310 O1291 1.248 . S
C1311 Tb1247 2.802 . S
C1311 O1286 1.264 . S
C1311 O1289 1.256 . S
C1311 C1304 1.496 . S
H1312 C1295 0.929 . S
H1313 C1296 0.929 . S
H1314 C1297 0.929 . S
H1315 C1298 0.931 . S
H1316 C1306 0.929 . S
H1317 C1307 0.929 . S
H1318 C1308 0.931 . S
H1319 C1309 0.929 . S
Tb1320 N1349 2.617 . S
Tb1320 N1355 2.572 . S
Tb1320 O1364 2.465 . S
Tb1320 O1365 2.387 . S
Tb1320 O1367 2.428 . S
Tb1320 O1368 2.308 . S
Tb1320 O1372 2.349 . S
Tb1320 O1375 2.393 . S
Tb1320 C1384 2.802 . S
C1321 N1322 1.379 . S
C1321 C1324 1.416 . S
C1321 C1328 1.424 . S
N1322 C1321 1.379 . S
N1322 C1325 1.334 . S
N1322 Tb1331 2.617 . S
C1323 C1325 1.390 . S
C1323 C1326 1.339 . S
C1323 H1343 0.930 . S
C1324 C1321 1.416 . S
C1324 C1326 1.416 . S
C1324 C1330 1.448 . S
C1325 N1322 1.334 . S
C1325 C1323 1.390 . S
C1325 H1336 0.930 . S
C1326 C1323 1.339 . S
C1326 C1324 1.416 . S
C1326 H1347 0.930 . S
C1327 C1328 1.413 . S
C1327 C1329 1.427 . S
C1327 C1333 1.416 . S
C1328 C1321 1.424 . S
C1328 C1327 1.413 . S
C1328 N1332 1.361 . S
C1329 C1327 1.427 . S
C1329 C1330 1.328 . S
C1329 H1344 0.929 . S
C1330 C1324 1.448 . S
C1330 C1329 1.328 . S
C1330 H1345 0.930 . S
Tb1331 N1322 2.617 . S
Tb1331 N1332 2.572 . S
Tb1331 O1366 2.349 . S
Tb1331 O1369 2.393 . S
Tb1331 O1370 2.465 . S
Tb1331 O1371 2.387 . S
Tb1331 O1373 2.428 . S
Tb1331 O1374 2.308 . S
Tb1331 C1395 2.802 . S
N1332 C1328 1.361 . S
N1332 Tb1331 2.572 . S
N1332 C1334 1.340 . S
C1333 C1327 1.416 . S
C1333 C1335 1.332 . S
C1333 H1341 0.931 . S
C1334 N1332 1.340 . S
C1334 C1335 1.407 . S
C1334 H1340 0.930 . S
C1335 C1333 1.332 . S
C1335 C1334 1.407 . S
C1335 H1337 0.929 . S
H1336 C1325 0.930 . S
H1337 C1335 0.929 . S
H1338 C1353 0.930 . S
H1339 C1360 0.929 . S
H1340 C1334 0.930 . S
H1341 C1333 0.931 . S
H1342 C1356 0.930 . S
H1343 C1323 0.930 . S
H1344 C1329 0.929 . S
H1345 C1330 0.930 . S
H1346 C1351 0.930 . S
H1347 C1326 0.930 . S
H1348 C1359 0.931 . S
N1349 Tb1320 2.617 . S
N1349 C1350 1.379 . S
N1349 C1353 1.334 . S
C1350 N1349 1.379 . S
C1350 C1352 1.416 . S
C1350 C1358 1.424 . S
C1351 H1346 0.930 . S
C1351 C1353 1.390 . S
C1351 C1354 1.339 . S
C1352 C1350 1.416 . S
C1352 C1354 1.416 . S
C1352 C1385 1.448 . S
C1353 H1338 0.930 . S
C1353 N1349 1.334 . S
C1353 C1351 1.390 . S
C1354 C1351 1.339 . S
C1354 C1352 1.416 . S
C1354 H1361 0.930 . S
N1355 Tb1320 2.572 . S
N1355 C1356 1.340 . S
N1355 C1358 1.361 . S
C1356 H1342 0.930 . S
C1356 N1355 1.340 . S
C1356 C1360 1.407 . S
C1357 C1358 1.413 . S
C1357 C1359 1.416 . S
C1357 C1386 1.427 . S
C1358 C1350 1.424 . S
C1358 N1355 1.361 . S
C1358 C1357 1.413 . S
C1359 H1348 0.931 . S
C1359 C1357 1.416 . S
C1359 C1360 1.332 . S
C1360 H1339 0.929 . S
C1360 C1356 1.407 . S
C1360 C1359 1.332 . S
H1361 C1354 0.930 . S
H1362 C1385 0.930 . S
H1363 C1386 0.929 . S
O1364 Tb1320 2.465 . S
O1364 C1384 1.264 . S
O1365 Tb1320 2.387 . S
O1365 C1376 1.264 . S
O1366 Tb1331 2.349 . S
O1366 C1376 1.243 . S
O1367 Tb1320 2.428 . S
O1367 C1384 1.256 . S
O1368 Tb1320 2.308 . S
O1368 C1383 1.266 . S
O1369 Tb1331 2.393 . S
O1369 C1383 1.248 . S
O1370 Tb1331 2.465 . S
O1370 C1395 1.264 . S
O1371 Tb1331 2.387 . S
O1371 C1387 1.264 . S
O1372 Tb1320 2.349 . S
O1372 C1387 1.243 . S
O1373 Tb1331 2.428 . S
O1373 C1395 1.256 . S
O1374 Tb1331 2.308 . S
O1374 C1394 1.266 . S
O1375 Tb1320 2.393 . S
O1375 C1394 1.248 . S
C1376 O1365 1.264 . S
C1376 O1366 1.243 . S
C1377 C1380 1.399 . S
C1377 C1382 1.383 . S
C1377 C1384 1.496 . S
C1378 C1379 1.399 . S
C1378 C1382 1.389 . S
C1379 C1378 1.399 . S
C1379 C1381 1.380 . S
C1379 H1396 0.929 . S
C1380 C1377 1.399 . S
C1380 C1381 1.392 . S
C1380 H1397 0.929 . S
C1381 C1379 1.380 . S
C1381 C1380 1.392 . S
C1381 H1398 0.929 . S
C1382 C1377 1.383 . S
C1382 C1378 1.389 . S
C1382 H1399 0.931 . S
C1383 O1368 1.266 . S
C1383 O1369 1.248 . S
C1384 Tb1320 2.802 . S
C1384 O1364 1.264 . S
C1384 O1367 1.256 . S
C1384 C1377 1.496 . S
C1385 C1352 1.448 . S
C1385 H1362 0.930 . S
C1385 C1386 1.328 . S
C1386 C1357 1.427 . S
C1386 H1363 0.929 . S
C1386 C1385 1.328 . S
C1387 O1371 1.264 . S
C1387 O1372 1.243 . S
C1388 C1391 1.399 . S
C1388 C1392 1.383 . S
C1388 C1395 1.496 . S
C1389 C1390 1.399 . S
C1389 C1392 1.389 . S
C1390 C1389 1.399 . S
C1390 C1393 1.380 . S
C1390 H1400 0.929 . S
C1391 C1388 1.399 . S
C1391 C1393 1.392 . S
C1391 H1401 0.929 . S
C1392 C1388 1.383 . S
C1392 C1389 1.389 . S
C1392 H1402 0.931 . S
C1393 C1390 1.380 . S
C1393 C1391 1.392 . S
C1393 H1403 0.929 . S
C1394 O1374 1.266 . S
C1394 O1375 1.248 . S
C1395 Tb1331 2.802 . S
C1395 O1370 1.264 . S
C1395 O1373 1.256 . S
C1395 C1388 1.496 . S
H1396 C1379 0.929 . S
H1397 C1380 0.929 . S
H1398 C1381 0.929 . S
H1399 C1382 0.931 . S
H1400 C1390 0.929 . S
H1401 C1391 0.929 . S
H1402 C1392 0.931 . S
H1403 C1393 0.929 . S
Tb1404 N1433 2.617 . S
Tb1404 N1439 2.572 . S
Tb1404 O1448 2.465 . S
Tb1404 O1449 2.387 . S
Tb1404 O1451 2.428 . S
Tb1404 O1452 2.308 . S
Tb1404 O1456 2.349 . S
Tb1404 O1459 2.393 . S
Tb1404 C1468 2.802 . S
C1405 N1406 1.379 . S
C1405 C1408 1.416 . S
C1405 C1412 1.424 . S
N1406 C1405 1.379 . S
N1406 C1409 1.334 . S
N1406 Tb1415 2.617 . S
C1407 C1409 1.390 . S
C1407 C1410 1.339 . S
C1407 H1427 0.930 . S
C1408 C1405 1.416 . S
C1408 C1410 1.416 . S
C1408 C1414 1.448 . S
C1409 N1406 1.334 . S
C1409 C1407 1.390 . S
C1409 H1420 0.930 . S
C1410 C1407 1.339 . S
C1410 C1408 1.416 . S
C1410 H1431 0.930 . S
C1411 C1412 1.413 . S
C1411 C1413 1.427 . S
C1411 C1417 1.416 . S
C1412 C1405 1.424 . S
C1412 C1411 1.413 . S
C1412 N1416 1.361 . S
C1413 C1411 1.427 . S
C1413 C1414 1.328 . S
C1413 H1428 0.929 . S
C1414 C1408 1.448 . S
C1414 C1413 1.328 . S
C1414 H1429 0.930 . S
Tb1415 N1406 2.617 . S
Tb1415 N1416 2.572 . S
Tb1415 O1450 2.349 . S
Tb1415 O1453 2.393 . S
Tb1415 O1454 2.465 . S
Tb1415 O1455 2.387 . S
Tb1415 O1457 2.428 . S
Tb1415 O1458 2.308 . S
Tb1415 C1479 2.802 . S
N1416 C1412 1.361 . S
N1416 Tb1415 2.572 . S
N1416 C1418 1.340 . S
C1417 C1411 1.416 . S
C1417 C1419 1.332 . S
C1417 H1425 0.931 . S
C1418 N1416 1.340 . S
C1418 C1419 1.407 . S
C1418 H1424 0.930 . S
C1419 C1417 1.332 . S
C1419 C1418 1.407 . S
C1419 H1421 0.929 . S
H1420 C1409 0.930 . S
H1421 C1419 0.929 . S
H1422 C1437 0.930 . S
H1423 C1444 0.929 . S
H1424 C1418 0.930 . S
H1425 C1417 0.931 . S
H1426 C1440 0.930 . S
H1427 C1407 0.930 . S
H1428 C1413 0.929 . S
H1429 C1414 0.930 . S
H1430 C1435 0.930 . S
H1431 C1410 0.930 . S
H1432 C1443 0.931 . S
N1433 Tb1404 2.617 . S
N1433 C1434 1.379 . S
N1433 C1437 1.334 . S
C1434 N1433 1.379 . S
C1434 C1436 1.416 . S
C1434 C1442 1.424 . S
C1435 H1430 0.930 . S
C1435 C1437 1.390 . S
C1435 C1438 1.339 . S
C1436 C1434 1.416 . S
C1436 C1438 1.416 . S
C1436 C1469 1.448 . S
C1437 H1422 0.930 . S
C1437 N1433 1.334 . S
C1437 C1435 1.390 . S
C1438 C1435 1.339 . S
C1438 C1436 1.416 . S
C1438 H1445 0.930 . S
N1439 Tb1404 2.572 . S
N1439 C1440 1.340 . S
N1439 C1442 1.361 . S
C1440 H1426 0.930 . S
C1440 N1439 1.340 . S
C1440 C1444 1.407 . S
C1441 C1442 1.413 . S
C1441 C1443 1.416 . S
C1441 C1470 1.427 . S
C1442 C1434 1.424 . S
C1442 N1439 1.361 . S
C1442 C1441 1.413 . S
C1443 H1432 0.931 . S
C1443 C1441 1.416 . S
C1443 C1444 1.332 . S
C1444 H1423 0.929 . S
C1444 C1440 1.407 . S
C1444 C1443 1.332 . S
H1445 C1438 0.930 . S
H1446 C1469 0.930 . S
H1447 C1470 0.929 . S
O1448 Tb1404 2.465 . S
O1448 C1468 1.264 . S
O1449 Tb1404 2.387 . S
O1449 C1460 1.264 . S
O1450 Tb1415 2.349 . S
O1450 C1460 1.243 . S
O1451 Tb1404 2.428 . S
O1451 C1468 1.256 . S
O1452 Tb1404 2.308 . S
O1452 C1467 1.266 . S
O1453 Tb1415 2.393 . S
O1453 C1467 1.248 . S
O1454 Tb1415 2.465 . S
O1454 C1479 1.264 . S
O1455 Tb1415 2.387 . S
O1455 C1471 1.264 . S
O1456 Tb1404 2.349 . S
O1456 C1471 1.243 . S
O1457 Tb1415 2.428 . S
O1457 C1479 1.256 . S
O1458 Tb1415 2.308 . S
O1458 C1478 1.266 . S
O1459 Tb1404 2.393 . S
O1459 C1478 1.248 . S
C1460 O1449 1.264 . S
C1460 O1450 1.243 . S
C1461 C1464 1.399 . S
C1461 C1466 1.383 . S
C1461 C1468 1.496 . S
C1462 C1463 1.399 . S
C1462 C1466 1.389 . S
C1463 C1462 1.399 . S
C1463 C1465 1.380 . S
C1463 H1480 0.929 . S
C1464 C1461 1.399 . S
C1464 C1465 1.392 . S
C1464 H1481 0.929 . S
C1465 C1463 1.380 . S
C1465 C1464 1.392 . S
C1465 H1482 0.929 . S
C1466 C1461 1.383 . S
C1466 C1462 1.389 . S
C1466 H1483 0.931 . S
C1467 O1452 1.266 . S
C1467 O1453 1.248 . S
C1468 Tb1404 2.802 . S
C1468 O1448 1.264 . S
C1468 O1451 1.256 . S
C1468 C1461 1.496 . S
C1469 C1436 1.448 . S
C1469 H1446 0.930 . S
C1469 C1470 1.328 . S
C1470 C1441 1.427 . S
C1470 H1447 0.929 . S
C1470 C1469 1.328 . S
C1471 O1455 1.264 . S
C1471 O1456 1.243 . S
C1472 C1475 1.399 . S
C1472 C1476 1.383 . S
C1472 C1479 1.496 . S
C1473 C1474 1.399 . S
C1473 C1476 1.389 . S
C1474 C1473 1.399 . S
C1474 C1477 1.380 . S
C1474 H1484 0.929 . S
C1475 C1472 1.399 . S
C1475 C1477 1.392 . S
C1475 H1485 0.929 . S
C1476 C1472 1.383 . S
C1476 C1473 1.389 . S
C1476 H1486 0.931 . S
C1477 C1474 1.380 . S
C1477 C1475 1.392 . S
C1477 H1487 0.929 . S
C1478 O1458 1.266 . S
C1478 O1459 1.248 . S
C1479 Tb1415 2.802 . S
C1479 O1454 1.264 . S
C1479 O1457 1.256 . S
C1479 C1472 1.496 . S
H1480 C1463 0.929 . S
H1481 C1464 0.929 . S
H1482 C1465 0.929 . S
H1483 C1466 0.931 . S
H1484 C1474 0.929 . S
H1485 C1475 0.929 . S
H1486 C1476 0.931 . S
H1487 C1477 0.929 . S
Tb1488 N1517 2.617 . S
Tb1488 N1523 2.572 . S
Tb1488 O1532 2.465 . S
Tb1488 O1533 2.387 . S
Tb1488 O1535 2.428 . S
Tb1488 O1536 2.308 . S
Tb1488 O1540 2.349 . S
Tb1488 O1543 2.393 . S
Tb1488 C1552 2.802 . S
C1489 N1490 1.379 . S
C1489 C1492 1.416 . S
C1489 C1496 1.424 . S
N1490 C1489 1.379 . S
N1490 C1493 1.334 . S
N1490 Tb1499 2.617 . S
C1491 C1493 1.390 . S
C1491 C1494 1.339 . S
C1491 H1511 0.930 . S
C1492 C1489 1.416 . S
C1492 C1494 1.416 . S
C1492 C1498 1.448 . S
C1493 N1490 1.334 . S
C1493 C1491 1.390 . S
C1493 H1504 0.930 . S
C1494 C1491 1.339 . S
C1494 C1492 1.416 . S
C1494 H1515 0.930 . S
C1495 C1496 1.413 . S
C1495 C1497 1.427 . S
C1495 C1501 1.416 . S
C1496 C1489 1.424 . S
C1496 C1495 1.413 . S
C1496 N1500 1.361 . S
C1497 C1495 1.427 . S
C1497 C1498 1.328 . S
C1497 H1512 0.929 . S
C1498 C1492 1.448 . S
C1498 C1497 1.328 . S
C1498 H1513 0.930 . S
Tb1499 N1490 2.617 . S
Tb1499 N1500 2.572 . S
Tb1499 O1534 2.349 . S
Tb1499 O1537 2.393 . S
Tb1499 O1538 2.465 . S
Tb1499 O1539 2.387 . S
Tb1499 O1541 2.428 . S
Tb1499 O1542 2.308 . S
Tb1499 C1563 2.802 . S
N1500 C1496 1.361 . S
N1500 Tb1499 2.572 . S
N1500 C1502 1.340 . S
C1501 C1495 1.416 . S
C1501 C1503 1.332 . S
C1501 H1509 0.931 . S
C1502 N1500 1.340 . S
C1502 C1503 1.407 . S
C1502 H1508 0.930 . S
C1503 C1501 1.332 . S
C1503 C1502 1.407 . S
C1503 H1505 0.929 . S
H1504 C1493 0.930 . S
H1505 C1503 0.929 . S
H1506 C1521 0.930 . S
H1507 C1528 0.929 . S
H1508 C1502 0.930 . S
H1509 C1501 0.931 . S
H1510 C1524 0.930 . S
H1511 C1491 0.930 . S
H1512 C1497 0.929 . S
H1513 C1498 0.930 . S
H1514 C1519 0.930 . S
H1515 C1494 0.930 . S
H1516 C1527 0.931 . S
N1517 Tb1488 2.617 . S
N1517 C1518 1.379 . S
N1517 C1521 1.334 . S
C1518 N1517 1.379 . S
C1518 C1520 1.416 . S
C1518 C1526 1.424 . S
C1519 H1514 0.930 . S
C1519 C1521 1.390 . S
C1519 C1522 1.339 . S
C1520 C1518 1.416 . S
C1520 C1522 1.416 . S
C1520 C1553 1.448 . S
C1521 H1506 0.930 . S
C1521 N1517 1.334 . S
C1521 C1519 1.390 . S
C1522 C1519 1.339 . S
C1522 C1520 1.416 . S
C1522 H1529 0.930 . S
N1523 Tb1488 2.572 . S
N1523 C1524 1.340 . S
N1523 C1526 1.361 . S
C1524 H1510 0.930 . S
C1524 N1523 1.340 . S
C1524 C1528 1.407 . S
C1525 C1526 1.413 . S
C1525 C1527 1.416 . S
C1525 C1554 1.427 . S
C1526 C1518 1.424 . S
C1526 N1523 1.361 . S
C1526 C1525 1.413 . S
C1527 H1516 0.931 . S
C1527 C1525 1.416 . S
C1527 C1528 1.332 . S
C1528 H1507 0.929 . S
C1528 C1524 1.407 . S
C1528 C1527 1.332 . S
H1529 C1522 0.930 . S
H1530 C1553 0.930 . S
H1531 C1554 0.929 . S
O1532 Tb1488 2.465 . S
O1532 C1552 1.264 . S
O1533 Tb1488 2.387 . S
O1533 C1544 1.264 . S
O1534 Tb1499 2.349 . S
O1534 C1544 1.243 . S
O1535 Tb1488 2.428 . S
O1535 C1552 1.256 . S
O1536 Tb1488 2.308 . S
O1536 C1551 1.266 . S
O1537 Tb1499 2.393 . S
O1537 C1551 1.248 . S
O1538 Tb1499 2.465 . S
O1538 C1563 1.264 . S
O1539 Tb1499 2.387 . S
O1539 C1555 1.264 . S
O1540 Tb1488 2.349 . S
O1540 C1555 1.243 . S
O1541 Tb1499 2.428 . S
O1541 C1563 1.256 . S
O1542 Tb1499 2.308 . S
O1542 C1562 1.266 . S
O1543 Tb1488 2.393 . S
O1543 C1562 1.248 . S
C1544 O1533 1.264 . S
C1544 O1534 1.243 . S
C1545 C1548 1.399 . S
C1545 C1550 1.383 . S
C1545 C1552 1.496 . S
C1546 C1547 1.399 . S
C1546 C1550 1.389 . S
C1547 C1546 1.399 . S
C1547 C1549 1.380 . S
C1547 H1564 0.929 . S
C1548 C1545 1.399 . S
C1548 C1549 1.392 . S
C1548 H1565 0.929 . S
C1549 C1547 1.380 . S
C1549 C1548 1.392 . S
C1549 H1566 0.929 . S
C1550 C1545 1.383 . S
C1550 C1546 1.389 . S
C1550 H1567 0.931 . S
C1551 O1536 1.266 . S
C1551 O1537 1.248 . S
C1552 Tb1488 2.802 . S
C1552 O1532 1.264 . S
C1552 O1535 1.256 . S
C1552 C1545 1.496 . S
C1553 C1520 1.448 . S
C1553 H1530 0.930 . S
C1553 C1554 1.328 . S
C1554 C1525 1.427 . S
C1554 H1531 0.929 . S
C1554 C1553 1.328 . S
C1555 O1539 1.264 . S
C1555 O1540 1.243 . S
C1556 C1559 1.399 . S
C1556 C1560 1.383 . S
C1556 C1563 1.496 . S
C1557 C1558 1.399 . S
C1557 C1560 1.389 . S
C1558 C1557 1.399 . S
C1558 C1561 1.380 . S
C1558 H1568 0.929 . S
C1559 C1556 1.399 . S
C1559 C1561 1.392 . S
C1559 H1569 0.929 . S
C1560 C1556 1.383 . S
C1560 C1557 1.389 . S
C1560 H1570 0.931 . S
C1561 C1558 1.380 . S
C1561 C1559 1.392 . S
C1561 H1571 0.929 . S
C1562 O1542 1.266 . S
C1562 O1543 1.248 . S
C1563 Tb1499 2.802 . S
C1563 O1538 1.264 . S
C1563 O1541 1.256 . S
C1563 C1556 1.496 . S
H1564 C1547 0.929 . S
H1565 C1548 0.929 . S
H1566 C1549 0.929 . S
H1567 C1550 0.931 . S
H1568 C1558 0.929 . S
H1569 C1559 0.929 . S
H1570 C1560 0.931 . S
H1571 C1561 0.929 . S
Tb1572 N1601 2.617 . S
Tb1572 N1607 2.572 . S
Tb1572 O1616 2.465 . S
Tb1572 O1617 2.387 1_655 S
Tb1572 O1619 2.428 . S
Tb1572 O1620 2.308 . S
Tb1572 O1624 2.349 1_655 S
Tb1572 O1627 2.393 1_655 S
Tb1572 C1636 2.802 . S
C1573 N1574 1.375 1_554 S
C1573 C1576 1.387 1_554 S
C1573 C1580 1.458 . S
N1574 C1573 1.375 1_556 S
N1574 C1577 1.334 . S
N1574 Tb1583 2.617 1_556 S
C1575 C1577 1.390 . S
C1575 C1578 1.339 . S
C1575 H1595 0.930 . S
C1576 C1573 1.387 1_556 S
C1576 C1578 1.416 . S
C1576 C1582 1.448 . S
C1577 N1574 1.334 . S
C1577 C1575 1.390 . S
C1577 H1588 0.930 . S
C1578 C1575 1.339 . S
C1578 C1576 1.416 . S
C1578 H1599 0.930 . S
C1579 C1580 1.413 . S
C1579 C1581 1.427 . S
C1579 C1585 1.416 . S
C1580 C1573 1.458 . S
C1580 C1579 1.413 . S
C1580 N1584 1.361 . S
C1581 C1579 1.427 . S
C1581 C1582 1.328 1_554 S
C1581 H1596 0.929 . S
C1582 C1576 1.448 . S
C1582 C1581 1.328 1_556 S
C1582 H1597 0.930 . S
Tb1583 N1574 2.617 1_554 S
Tb1583 N1584 2.572 . S
Tb1583 O1618 2.349 . S
Tb1583 O1621 2.393 1_554 S
Tb1583 O1622 2.465 . S
Tb1583 O1623 2.387 . S
Tb1583 O1625 2.440 . S
Tb1583 O1626 2.308 . S
Tb1583 C1647 2.802 . S
N1584 C1580 1.361 . S
N1584 Tb1583 2.572 . S
N1584 C1586 1.340 . S
C1585 C1579 1.416 . S
C1585 C1587 1.332 . S
C1585 H1593 0.931 . S
C1586 N1584 1.340 . S
C1586 C1587 1.407 . S
C1586 H1592 0.930 . S
C1587 C1585 1.332 . S
C1587 C1586 1.407 . S
C1587 H1589 0.929 . S
H1588 C1577 0.930 . S
H1589 C1587 0.929 . S
H1590 C1605 0.905 1_455 S
H1591 C1612 0.968 . S
H1592 C1586 0.930 . S
H1593 C1585 0.931 . S
H1594 C1608 0.930 . S
H1595 C1575 0.930 . S
H1596 C1581 0.929 . S
H1597 C1582 0.930 . S
H1598 C1603 0.930 . S
H1599 C1578 0.930 . S
H1600 C1611 0.931 . S
N1601 Tb1572 2.617 . S
N1601 C1602 1.379 . S
N1601 C1605 1.334 . S
C1602 N1601 1.379 . S
C1602 C1604 1.416 . S
C1602 C1610 1.424 . S
C1603 H1598 0.930 . S
C1603 C1605 1.390 . S
C1603 C1606 1.339 . S
C1604 C1602 1.416 . S
C1604 C1606 1.416 . S
C1604 C1637 1.448 . S
C1605 H1590 0.905 1_655 S
C1605 N1601 1.334 . S
C1605 C1603 1.390 . S
C1606 C1603 1.339 . S
C1606 C1604 1.416 . S
C1606 H1613 0.930 . S
N1607 Tb1572 2.572 . S
N1607 C1608 1.340 . S
N1607 C1610 1.361 . S
C1608 H1594 0.930 . S
C1608 N1607 1.340 . S
C1608 C1612 1.407 . S
C1609 C1610 1.413 . S
C1609 C1611 1.416 . S
C1609 C1638 1.427 . S
C1610 C1602 1.424 . S
C1610 N1607 1.361 . S
C1610 C1609 1.413 . S
C1611 H1600 0.931 . S
C1611 C1609 1.416 . S
C1611 C1612 1.332 . S
C1612 H1591 0.968 . S
C1612 C1608 1.407 . S
C1612 C1611 1.332 . S
H1613 C1606 0.930 . S
H1614 C1637 0.930 . S
H1615 C1638 0.929 . S
O1616 Tb1572 2.465 . S
O1616 C1636 1.264 . S
O1617 Tb1572 2.387 1_455 S
O1617 C1628 1.264 . S
O1618 Tb1583 2.349 . S
O1618 C1628 1.243 . S
O1619 Tb1572 2.428 . S
O1619 C1636 1.256 . S
O1620 Tb1572 2.308 . S
O1620 C1635 1.279 1_655 S
O1621 Tb1583 2.393 1_556 S
O1621 C1635 1.272 1_556 S
O1622 Tb1583 2.465 . S
O1622 C1647 1.264 . S
O1623 Tb1583 2.387 . S
O1623 C1639 1.264 . S
O1624 Tb1572 2.349 1_455 S
O1624 C1639 1.243 . S
O1625 Tb1583 2.440 . S
O1625 C1647 1.271 . S
O1626 Tb1583 2.308 . S
O1626 C1646 1.266 . S
O1627 Tb1572 2.393 1_455 S
O1627 C1646 1.248 . S
C1628 O1617 1.264 . S
C1628 O1618 1.243 . S
C1629 C1632 1.399 . S
C1629 C1634 1.383 . S
C1629 C1636 1.496 . S
C1630 C1631 1.399 . S
C1630 C1634 1.389 . S
C1631 C1630 1.399 . S
C1631 C1633 1.380 . S
C1631 H1648 0.929 . S
C1632 C1629 1.399 . S
C1632 C1633 1.392 . S
C1632 H1649 0.929 . S
C1633 C1631 1.380 . S
C1633 C1632 1.392 . S
C1633 H1650 0.929 . S
C1634 C1629 1.383 . S
C1634 C1630 1.389 . S
C1634 H1651 0.931 . S
C1635 O1620 1.279 1_455 S
C1635 O1621 1.272 1_554 S
C1636 Tb1572 2.802 . S
C1636 O1616 1.264 . S
C1636 O1619 1.256 . S
C1636 C1629 1.496 . S
C1637 C1604 1.448 . S
C1637 H1614 0.930 . S
C1637 C1638 1.328 . S
C1638 C1609 1.427 . S
C1638 H1615 0.929 . S
C1638 C1637 1.328 . S
C1639 O1623 1.264 . S
C1639 O1624 1.243 . S
C1640 C1643 1.399 1_554 S
C1640 C1644 1.383 . S
C1640 C1647 1.496 . S
C1641 C1642 1.399 . S
C1641 C1644 1.389 . S
C1642 C1641 1.399 . S
C1642 C1645 1.380 1_554 S
C1642 H1652 0.929 1_554 S
C1643 C1640 1.399 1_556 S
C1643 C1645 1.392 . S
C1643 H1653 0.929 . S
C1644 C1640 1.383 . S
C1644 C1641 1.389 . S
C1644 H1654 0.931 . S
C1645 C1642 1.380 1_556 S
C1645 C1643 1.392 . S
C1645 H1655 0.929 . S
C1646 O1626 1.266 . S
C1646 O1627 1.248 . S
C1647 Tb1583 2.802 . S
C1647 O1622 1.264 . S
C1647 O1625 1.271 . S
C1647 C1640 1.496 . S
H1648 C1631 0.929 . S
H1649 C1632 0.929 . S
H1650 C1633 0.929 . S
H1651 C1634 0.931 . S
H1652 C1642 0.929 1_556 S
H1653 C1643 0.929 . S
H1654 C1644 0.931 . S
H1655 C1645 0.929 . S
H1656 C1664 0.950 . S
H1657 C1669 0.950 . S
H1658 C1666 0.950 1_554 S
H1659 C1668 0.950 . S
H1660 C1670 0.933 1_655 S
H1661 C1672 0.950 1_655 S
H1662 C1674 0.950 . S
H1663 C1675 0.950 . S
C1664 H1656 0.950 . S
C1664 C1665 1.386 . S
C1664 C1666 1.391 . S
C1665 C1664 1.386 . S
C1665 C1669 1.393 1_455 S
C1666 H1658 0.950 1_556 S
C1666 C1664 1.391 . S
C1666 C1667 1.400 . S
C1667 C1666 1.400 . S
C1667 C1668 1.398 1_455 S
C1667 C1673 1.491 1_556 S
C1668 H1659 0.950 . S
C1668 C1667 1.398 1_655 S
C1668 C1669 1.391 . S
C1669 H1657 0.950 . S
C1669 C1665 1.393 1_655 S
C1669 C1668 1.391 . S
C1670 H1660 0.933 1_455 S
C1670 C1671 1.386 . S
C1670 C1672 1.391 . S
C1671 C1670 1.386 . S
C1671 C1675 1.393 . S
C1672 H1661 0.950 1_455 S
C1672 C1670 1.391 . S
C1672 C1673 1.400 . S
C1673 C1667 1.491 1_554 S
C1673 C1672 1.400 . S
C1673 C1674 1.398 . S
C1674 H1662 0.950 . S
C1674 C1673 1.398 . S
C1674 C1675 1.391 . S
C1675 H1663 0.950 . S
C1675 C1671 1.393 . S
C1675 C1674 1.391 . S
H1676 C1684 0.950 . S
H1677 C1689 0.950 . S
H1678 C1686 0.950 . S
H1679 C1688 0.950 . S
H1680 C1690 0.950 . S
H1681 C1692 0.950 . S
H1682 C1694 0.950 . S
H1683 C1695 0.950 . S
C1684 H1676 0.950 . S
C1684 C1685 1.386 . S
C1684 C1686 1.391 . S
C1685 C1684 1.386 . S
C1685 C1689 1.393 . S
C1686 H1678 0.950 . S
C1686 C1684 1.391 . S
C1686 C1687 1.400 . S
C1687 C1686 1.400 . S
C1687 C1688 1.398 . S
C1687 C1693 1.491 . S
C1688 H1679 0.950 . S
C1688 C1687 1.398 . S
C1688 C1689 1.391 . S
C1689 H1677 0.950 . S
C1689 C1685 1.393 . S
C1689 C1688 1.391 . S
C1690 H1680 0.950 . S
C1690 C1691 1.386 . S
C1690 C1692 1.391 . S
C1691 C1690 1.386 . S
C1691 C1695 1.393 . S
C1692 H1681 0.950 . S
C1692 C1690 1.391 . S
C1692 C1693 1.400 . S
C1693 C1687 1.491 . S
C1693 C1692 1.400 . S
C1693 C1694 1.398 . S
C1694 H1682 0.950 . S
C1694 C1693 1.398 . S
C1694 C1695 1.391 . S
C1695 H1683 0.950 . S
C1695 C1691 1.393 . S
C1695 C1694 1.391 . S
H1696 C1704 0.950 . S
H1697 C1709 0.950 . S
H1698 C1706 0.950 . S
H1699 C1708 0.950 . S
H1700 C1710 0.950 . S
H1701 C1712 0.950 . S
H1702 C1714 0.950 . S
H1703 C1715 0.950 . S
C1704 H1696 0.950 . S
C1704 C1705 1.386 . S
C1704 C1706 1.391 . S
C1705 C1704 1.386 . S
C1705 C1709 1.393 . S
C1706 H1698 0.950 . S
C1706 C1704 1.391 . S
C1706 C1707 1.400 . S
C1707 C1706 1.400 . S
C1707 C1708 1.398 . S
C1707 C1713 1.491 . S
C1708 H1699 0.950 . S
C1708 C1707 1.398 . S
C1708 C1709 1.391 . S
C1709 H1697 0.950 . S
C1709 C1705 1.393 . S
C1709 C1708 1.391 . S
C1710 H1700 0.950 . S
C1710 C1711 1.386 . S
C1710 C1712 1.391 . S
C1711 C1710 1.386 . S
C1711 C1715 1.393 . S
C1712 H1701 0.950 . S
C1712 C1710 1.391 . S
C1712 C1713 1.400 . S
C1713 C1707 1.491 . S
C1713 C1712 1.400 . S
C1713 C1714 1.398 . S
C1714 H1702 0.950 . S
C1714 C1713 1.398 . S
C1714 C1715 1.391 . S
C1715 H1703 0.950 . S
C1715 C1711 1.393 . S
C1715 C1714 1.391 . S
H1716 C1724 0.950 . S
H1717 C1729 0.950 . S
H1718 C1726 0.950 . S
H1719 C1728 0.950 . S
H1720 C1730 0.950 . S
H1721 C1732 0.950 . S
H1722 C1734 0.950 . S
H1723 C1735 0.950 . S
C1724 H1716 0.950 . S
C1724 C1725 1.386 . S
C1724 C1726 1.391 . S
C1725 C1724 1.386 . S
C1725 C1729 1.393 . S
C1726 H1718 0.950 . S
C1726 C1724 1.391 . S
C1726 C1727 1.400 . S
C1727 C1726 1.400 . S
C1727 C1728 1.398 . S
C1727 C1733 1.491 . S
C1728 H1719 0.950 . S
C1728 C1727 1.398 . S
C1728 C1729 1.391 . S
C1729 H1717 0.950 . S
C1729 C1725 1.393 . S
C1729 C1728 1.391 . S
C1730 H1720 0.950 . S
C1730 C1731 1.386 . S
C1730 C1732 1.391 . S
C1731 C1730 1.386 . S
C1731 C1735 1.393 . S
C1732 H1721 0.950 . S
C1732 C1730 1.391 . S
C1732 C1733 1.400 . S
C1733 C1727 1.491 . S
C1733 C1732 1.400 . S
C1733 C1734 1.398 . S
C1734 H1722 0.950 . S
C1734 C1733 1.398 . S
C1734 C1735 1.391 . S
C1735 H1723 0.950 . S
C1735 C1731 1.393 . S
C1735 C1734 1.391 . S
H1736 C1744 0.950 . S
H1737 C1749 0.950 1_655 S
H1738 C1746 0.950 . S
H1739 C1748 0.950 1_655 S
H1740 C1750 0.950 . S
H1741 C1752 0.950 . S
H1742 C1754 0.950 . S
H1743 C1755 0.950 . S
C1744 H1736 0.950 . S
C1744 C1745 1.386 . S
C1744 C1746 1.391 . S
C1745 C1744 1.386 . S
C1745 C1749 1.393 . S
C1746 H1738 0.950 . S
C1746 C1744 1.391 . S
C1746 C1747 1.400 . S
C1747 C1746 1.400 . S
C1747 C1748 1.398 . S
C1747 C1753 1.491 . S
C1748 H1739 0.950 1_455 S
C1748 C1747 1.398 . S
C1748 C1749 1.391 . S
C1749 H1737 0.950 1_455 S
C1749 C1745 1.393 . S
C1749 C1748 1.391 . S
C1750 H1740 0.950 . S
C1750 C1751 1.386 . S
C1750 C1752 1.391 . S
C1751 C1750 1.386 . S
C1751 C1755 1.393 . S
C1752 H1741 0.950 . S
C1752 C1750 1.391 . S
C1752 C1753 1.400 . S
C1753 C1747 1.491 . S
C1753 C1752 1.400 . S
C1753 C1754 1.398 . S
C1754 H1742 0.950 . S
C1754 C1753 1.398 . S
C1754 C1755 1.391 . S
C1755 H1743 0.950 . S
C1755 C1751 1.393 . S
C1755 C1754 1.391 . S
H1756 C1764 0.950 . S
H1757 C1769 0.950 . S
H1758 C1766 0.950 . S
H1759 C1768 0.950 . S
H1760 C1770 0.950 . S
H1761 C1772 0.950 . S
H1762 C1774 0.950 . S
H1763 C1775 0.950 . S
C1764 H1756 0.950 . S
C1764 C1765 1.386 . S
C1764 C1766 1.391 . S
C1765 C1764 1.386 . S
C1765 C1769 1.393 . S
C1766 H1758 0.950 . S
C1766 C1764 1.391 . S
C1766 C1767 1.400 . S
C1767 C1766 1.400 . S
C1767 C1768 1.398 . S
C1767 C1773 1.491 . S
C1768 H1759 0.950 . S
C1768 C1767 1.398 . S
C1768 C1769 1.391 . S
C1769 H1757 0.950 . S
C1769 C1765 1.393 . S
C1769 C1768 1.391 . S
C1770 H1760 0.950 . S
C1770 C1771 1.386 . S
C1770 C1772 1.391 . S
C1771 C1770 1.386 . S
C1771 C1775 1.393 . S
C1772 H1761 0.950 . S
C1772 C1770 1.391 . S
C1772 C1773 1.400 . S
C1773 C1767 1.491 . S
C1773 C1772 1.400 . S
C1773 C1774 1.398 . S
C1774 H1762 0.950 . S
C1774 C1773 1.398 . S
C1774 C1775 1.391 . S
C1775 H1763 0.950 . S
C1775 C1771 1.393 . S
C1775 C1774 1.391 . S
H1776 C1784 0.950 . S
H1777 C1789 0.950 . S
H1778 C1786 0.950 . S
H1779 C1788 0.950 . S
H1780 C1790 0.950 . S
H1781 C1792 0.950 . S
H1782 C1794 0.950 . S
H1783 C1795 0.950 . S
C1784 H1776 0.950 . S
C1784 C1785 1.386 . S
C1784 C1786 1.391 . S
C1785 C1784 1.386 . S
C1785 C1789 1.393 . S
C1786 H1778 0.950 . S
C1786 C1784 1.391 . S
C1786 C1787 1.400 . S
C1787 C1786 1.400 . S
C1787 C1788 1.398 . S
C1787 C1793 1.491 . S
C1788 H1779 0.950 . S
C1788 C1787 1.398 . S
C1788 C1789 1.391 . S
C1789 H1777 0.950 . S
C1789 C1785 1.393 . S
C1789 C1788 1.391 . S
C1790 H1780 0.950 . S
C1790 C1791 1.386 . S
C1790 C1792 1.391 . S
C1791 C1790 1.386 . S
C1791 C1795 1.393 . S
C1792 H1781 0.950 . S
C1792 C1790 1.391 . S
C1792 C1793 1.400 . S
C1793 C1787 1.491 . S
C1793 C1792 1.400 . S
C1793 C1794 1.398 . S
C1794 H1782 0.950 . S
C1794 C1793 1.398 . S
C1794 C1795 1.391 . S
C1795 H1783 0.950 . S
C1795 C1791 1.393 . S
C1795 C1794 1.391 . S
H1796 C1804 0.950 . S
H1797 C1809 0.950 . S
H1798 C1806 0.950 . S
H1799 C1808 0.950 . S
H1800 C1810 0.950 . S
H1801 C1812 0.950 . S
H1802 C1814 0.950 . S
H1803 C1815 0.950 . S
C1804 H1796 0.950 . S
C1804 C1805 1.386 . S
C1804 C1806 1.391 . S
C1805 C1804 1.386 . S
C1805 C1809 1.393 . S
C1806 H1798 0.950 . S
C1806 C1804 1.391 . S
C1806 C1807 1.400 . S
C1807 C1806 1.400 . S
C1807 C1808 1.398 . S
C1807 C1813 1.491 . S
C1808 H1799 0.950 . S
C1808 C1807 1.398 . S
C1808 C1809 1.391 . S
C1809 H1797 0.950 . S
C1809 C1805 1.393 . S
C1809 C1808 1.391 . S
C1810 H1800 0.950 . S
C1810 C1811 1.386 . S
C1810 C1812 1.391 . S
C1811 C1810 1.386 . S
C1811 C1815 1.393 . S
C1812 H1801 0.950 . S
C1812 C1810 1.391 . S
C1812 C1813 1.400 . S
C1813 C1807 1.491 . S
C1813 C1812 1.400 . S
C1813 C1814 1.398 . S
C1814 H1802 0.950 . S
C1814 C1813 1.398 . S
C1814 C1815 1.391 . S
C1815 H1803 0.950 . S
C1815 C1811 1.393 . S
C1815 C1814 1.391 . S
H1816 C1824 0.950 . S
H1817 C1829 0.950 1_565 S
H1818 C1826 0.950 . S
H1819 C1828 0.950 . S
H1820 C1830 0.950 . S
H1821 C1832 0.954 1_655 S
H1822 C1834 0.950 . S
H1823 C1835 0.950 . S
C1824 H1816 0.950 . S
C1824 C1825 1.386 . S
C1824 C1826 1.391 . S
C1825 C1824 1.386 . S
C1825 C1829 1.393 . S
C1826 H1818 0.950 . S
C1826 C1824 1.391 . S
C1826 C1827 1.400 . S
C1827 C1826 1.400 . S
C1827 C1828 1.398 . S
C1827 C1833 1.491 . S
C1828 H1819 0.950 . S
C1828 C1827 1.398 . S
C1828 C1829 1.391 . S
C1829 H1817 0.950 1_545 S
C1829 C1825 1.393 . S
C1829 C1828 1.391 . S
C1830 H1820 0.950 . S
C1830 C1831 1.386 . S
C1830 C1832 1.420 . S
C1831 C1830 1.386 . S
C1831 C1835 1.393 . S
C1832 H1821 0.954 1_455 S
C1832 C1830 1.420 . S
C1832 C1833 1.369 1_455 S
C1833 C1827 1.491 . S
C1833 C1832 1.369 1_655 S
C1833 C1834 1.398 . S
C1834 H1822 0.950 . S
C1834 C1833 1.398 . S
C1834 C1835 1.391 1_655 S
C1835 H1823 0.950 . S
C1835 C1831 1.393 . S
C1835 C1834 1.391 1_455 S
H1836 C1844 0.950 . S
H1837 C1849 0.950 . S
H1838 C1846 0.950 . S
H1839 C1848 0.950 . S
H1840 C1850 0.950 . S
H1841 C1852 0.950 . S
H1842 C1854 0.950 . S
H1843 C1855 0.950 . S
C1844 H1836 0.950 . S
C1844 C1845 1.386 . S
C1844 C1846 1.391 . S
C1845 C1844 1.386 . S
C1845 C1849 1.393 . S
C1846 H1838 0.950 . S
C1846 C1844 1.391 . S
C1846 C1847 1.400 . S
C1847 C1846 1.400 . S
C1847 C1848 1.398 . S
C1847 C1853 1.491 . S
C1848 H1839 0.950 . S
C1848 C1847 1.398 . S
C1848 C1849 1.391 . S
C1849 H1837 0.950 . S
C1849 C1845 1.393 . S
C1849 C1848 1.391 . S
C1850 H1840 0.950 . S
C1850 C1851 1.386 . S
C1850 C1852 1.391 . S
C1851 C1850 1.386 . S
C1851 C1855 1.393 . S
C1852 H1841 0.950 . S
C1852 C1850 1.391 . S
C1852 C1853 1.400 . S
C1853 C1847 1.491 . S
C1853 C1852 1.400 . S
C1853 C1854 1.398 . S
C1854 H1842 0.950 . S
C1854 C1853 1.398 . S
C1854 C1855 1.391 . S
C1855 H1843 0.950 . S
C1855 C1851 1.393 . S
C1855 C1854 1.391 . S
H1856 C1864 0.950 . S
H1857 C1869 0.950 . S
H1858 C1866 0.950 . S
H1859 C1868 0.950 . S
H1860 C1870 0.950 1_565 S
H1861 C1872 0.950 . S
H1862 C1874 0.950 . S
H1863 C1875 0.950 . S
C1864 H1856 0.950 . S
C1864 C1865 1.386 . S
C1864 C1866 1.391 . S
C1865 C1864 1.386 . S
C1865 C1869 1.393 . S
C1866 H1858 0.950 . S
C1866 C1864 1.391 . S
C1866 C1867 1.400 . S
C1867 C1866 1.400 . S
C1867 C1868 1.398 . S
C1867 C1873 1.491 . S
C1868 H1859 0.950 . S
C1868 C1867 1.398 . S
C1868 C1869 1.391 . S
C1869 H1857 0.950 . S
C1869 C1865 1.393 . S
C1869 C1868 1.391 . S
C1870 H1860 0.950 1_545 S
C1870 C1871 1.386 . S
C1870 C1872 1.391 . S
C1871 C1870 1.386 . S
C1871 C1875 1.393 . S
C1872 H1861 0.950 . S
C1872 C1870 1.391 . S
C1872 C1873 1.400 . S
C1873 C1867 1.491 . S
C1873 C1872 1.400 . S
C1873 C1874 1.398 . S
C1874 H1862 0.950 . S
C1874 C1873 1.398 . S
C1874 C1875 1.391 . S
C1875 H1863 0.950 . S
C1875 C1871 1.393 . S
C1875 C1874 1.391 . S
H1876 C1884 0.950 . S
H1877 C1889 0.950 . S
H1878 C1886 0.950 . S
H1879 C1888 0.950 . S
H1880 C1890 0.950 . S
H1881 C1892 0.950 . S
H1882 C1894 0.950 . S
H1883 C1895 0.950 . S
C1884 H1876 0.950 . S
C1884 C1885 1.386 . S
C1884 C1886 1.391 . S
C1885 C1884 1.386 . S
C1885 C1889 1.393 . S
C1886 H1878 0.950 . S
C1886 C1884 1.391 . S
C1886 C1887 1.400 . S
C1887 C1886 1.400 . S
C1887 C1888 1.398 . S
C1887 C1893 1.491 . S
C1888 H1879 0.950 . S
C1888 C1887 1.398 . S
C1888 C1889 1.391 . S
C1889 H1877 0.950 . S
C1889 C1885 1.393 . S
C1889 C1888 1.391 . S
C1890 H1880 0.950 . S
C1890 C1891 1.386 . S
C1890 C1892 1.391 . S
C1891 C1890 1.386 . S
C1891 C1895 1.393 . S
C1892 H1881 0.950 . S
C1892 C1890 1.391 . S
C1892 C1893 1.400 . S
C1893 C1887 1.491 . S
C1893 C1892 1.400 . S
C1893 C1894 1.398 . S
C1894 H1882 0.950 . S
C1894 C1893 1.398 . S
C1894 C1895 1.391 . S
C1895 H1883 0.950 . S
C1895 C1891 1.393 . S
C1895 C1894 1.391 . S
H1896 C1904 0.950 . S
H1897 C1909 0.950 . S
H1898 C1906 0.950 1_455 S
H1899 C1908 0.950 . S
H1900 C1910 0.950 . S
H1901 C1912 0.950 . S
H1902 C1914 0.950 . S
H1903 C1915 0.950 . S
C1904 H1896 0.950 . S
C1904 C1905 1.386 . S
C1904 C1906 1.391 . S
C1905 C1904 1.386 . S
C1905 C1909 1.393 . S
C1906 H1898 0.950 1_655 S
C1906 C1904 1.391 . S
C1906 C1907 1.400 . S
C1907 C1906 1.400 . S
C1907 C1908 1.398 . S
C1907 C1913 1.491 . S
C1908 H1899 0.950 . S
C1908 C1907 1.398 . S
C1908 C1909 1.391 . S
C1909 H1897 0.950 . S
C1909 C1905 1.393 . S
C1909 C1908 1.391 . S
C1910 H1900 0.950 . S
C1910 C1911 1.386 1_655 S
C1910 C1912 1.391 . S
C1911 C1910 1.386 1_455 S
C1911 C1915 1.393 . S
C1912 H1901 0.950 . S
C1912 C1910 1.391 . S
C1912 C1913 1.400 . S
C1913 C1907 1.491 . S
C1913 C1912 1.400 . S
C1913 C1914 1.398 1_655 S
C1914 H1902 0.950 . S
C1914 C1913 1.398 1_455 S
C1914 C1915 1.391 . S
C1915 H1903 0.950 . S
C1915 C1911 1.393 . S
C1915 C1914 1.391 . S
H1916 C1924 0.950 . S
H1917 C1929 0.950 . S
H1918 C1926 0.950 . S
H1919 C1928 0.950 . S
H1920 C1930 0.950 . S
H1921 C1932 0.950 . S
H1922 C1934 0.950 . S
H1923 C1935 0.950 . S
C1924 H1916 0.950 . S
C1924 C1925 1.386 . S
C1924 C1926 1.391 . S
C1925 C1924 1.386 . S
C1925 C1929 1.393 . S
C1926 H1918 0.950 . S
C1926 C1924 1.391 . S
C1926 C1927 1.400 . S
C1927 C1926 1.400 . S
C1927 C1928 1.398 . S
C1927 C1933 1.491 . S
C1928 H1919 0.950 . S
C1928 C1927 1.398 . S
C1928 C1929 1.391 . S
C1929 H1917 0.950 . S
C1929 C1925 1.393 . S
C1929 C1928 1.391 . S
C1930 H1920 0.950 . S
C1930 C1931 1.386 . S
C1930 C1932 1.391 . S
C1931 C1930 1.386 . S
C1931 C1935 1.393 . S
C1932 H1921 0.950 . S
C1932 C1930 1.391 . S
C1932 C1933 1.400 . S
C1933 C1927 1.491 . S
C1933 C1932 1.400 . S
C1933 C1934 1.398 . S
C1934 H1922 0.950 . S
C1934 C1933 1.398 . S
C1934 C1935 1.391 . S
C1935 H1923 0.950 . S
C1935 C1931 1.393 . S
C1935 C1934 1.391 . S
H1936 C1944 0.950 . S
H1937 C1949 0.950 . S
H1938 C1946 0.950 . S
H1939 C1948 0.950 . S
H1940 C1950 0.950 . S
H1941 C1952 0.950 . S
H1942 C1954 0.950 . S
H1943 C1955 0.950 . S
C1944 H1936 0.950 . S
C1944 C1945 1.386 . S
C1944 C1946 1.391 . S
C1945 C1944 1.386 . S
C1945 C1949 1.393 . S
C1946 H1938 0.950 . S
C1946 C1944 1.391 . S
C1946 C1947 1.400 . S
C1947 C1946 1.400 . S
C1947 C1948 1.398 . S
C1947 C1953 1.491 . S
C1948 H1939 0.950 . S
C1948 C1947 1.398 . S
C1948 C1949 1.391 . S
C1949 H1937 0.950 . S
C1949 C1945 1.393 . S
C1949 C1948 1.391 . S
C1950 H1940 0.950 . S
C1950 C1951 1.386 . S
C1950 C1952 1.391 . S
C1951 C1950 1.386 . S
C1951 C1955 1.393 . S
C1952 H1941 0.950 . S
C1952 C1950 1.391 . S
C1952 C1953 1.400 . S
C1953 C1947 1.491 . S
C1953 C1952 1.400 . S
C1953 C1954 1.398 . S
C1954 H1942 0.950 . S
C1954 C1953 1.398 . S
C1954 C1955 1.391 . S
C1955 H1943 0.950 . S
C1955 C1951 1.393 . S
C1955 C1954 1.391 . S
H1956 C1964 0.950 . S
H1957 C1969 0.950 . S
H1958 C1966 0.950 . S
H1959 C1968 0.950 . S
H1960 C1970 0.950 . S
H1961 C1972 0.950 . S
H1962 C1974 0.950 . S
H1963 C1975 0.950 . S
C1964 H1956 0.950 . S
C1964 C1965 1.386 . S
C1964 C1966 1.391 . S
C1965 C1964 1.386 . S
C1965 C1969 1.393 . S
C1966 H1958 0.950 . S
C1966 C1964 1.391 . S
C1966 C1967 1.400 . S
C1967 C1966 1.400 . S
C1967 C1968 1.398 . S
C1967 C1973 1.491 . S
C1968 H1959 0.950 . S
C1968 C1967 1.398 . S
C1968 C1969 1.391 . S
C1969 H1957 0.950 . S
C1969 C1965 1.393 . S
C1969 C1968 1.391 . S
C1970 H1960 0.950 . S
C1970 C1971 1.386 . S
C1970 C1972 1.391 . S
C1971 C1970 1.386 . S
C1971 C1975 1.393 . S
C1972 H1961 0.950 . S
C1972 C1970 1.391 . S
C1972 C1973 1.400 . S
C1973 C1967 1.491 . S
C1973 C1972 1.400 . S
C1973 C1974 1.398 . S
C1974 H1962 0.950 . S
C1974 C1973 1.398 . S
C1974 C1975 1.391 . S
C1975 H1963 0.950 . S
C1975 C1971 1.393 . S
C1975 C1974 1.391 . S
H1976 C1984 0.942 1_556 S
H1977 C1989 0.950 . S
H1978 C1986 0.950 . S
H1979 C1988 0.950 . S
H1980 C1990 0.950 . S
H1981 C1992 0.950 . S
H1982 C1994 0.950 . S
H1983 C1995 0.950 . S
C1984 H1976 0.942 1_554 S
C1984 C1985 1.389 . S
C1984 C1986 1.395 . S
C1985 C1984 1.389 . S
C1985 C1989 1.393 . S
C1986 H1978 0.950 . S
C1986 C1984 1.395 . S
C1986 C1987 1.400 . S
C1987 C1986 1.400 . S
C1987 C1988 1.398 . S
C1987 C1993 1.491 . S
C1988 H1979 0.950 . S
C1988 C1987 1.398 . S
C1988 C1989 1.391 . S
C1989 H1977 0.950 . S
C1989 C1985 1.393 . S
C1989 C1988 1.391 . S
C1990 H1980 0.950 . S
C1990 C1991 1.386 1_565 S
C1990 C1992 1.391 . S
C1991 C1990 1.386 1_545 S
C1991 C1995 1.393 . S
C1992 H1981 0.950 . S
C1992 C1990 1.391 . S
C1992 C1993 1.400 . S
C1993 C1987 1.491 . S
C1993 C1992 1.400 . S
C1993 C1994 1.398 1_565 S
C1994 H1982 0.950 . S
C1994 C1993 1.398 1_545 S
C1994 C1995 1.391 . S
C1995 H1983 0.950 . S
C1995 C1991 1.393 . S
C1995 C1994 1.391 . S
H1996 C2004 0.950 . S
H1997 C2009 0.950 . S
H1998 C2006 0.950 . S
H1999 C2008 0.950 . S
H2000 C2010 0.942 1_556 S
H2001 C2012 0.950 . S
H2002 C2014 0.950 . S
H2003 C2015 0.950 . S
C2004 H1996 0.950 . S
C2004 C2005 1.386 . S
C2004 C2006 1.391 . S
C2005 C2004 1.386 . S
C2005 C2009 1.393 1_554 S
C2006 H1998 0.950 . S
C2006 C2004 1.391 . S
C2006 C2007 1.400 . S
C2007 C2006 1.400 . S
C2007 C2008 1.398 1_554 S
C2007 C2013 1.491 . S
C2008 H1999 0.950 . S
C2008 C2007 1.398 1_556 S
C2008 C2009 1.391 . S
C2009 H1997 0.950 . S
C2009 C2005 1.393 1_556 S
C2009 C2008 1.391 . S
C2010 H2000 0.942 1_554 S
C2010 C2011 1.400 . S
C2010 C2012 1.385 1_554 S
C2011 C2010 1.400 . S
C2011 C2015 1.393 . S
C2012 H2001 0.950 . S
C2012 C2010 1.385 1_556 S
C2012 C2013 1.400 1_556 S
C2013 C2007 1.491 . S
C2013 C2012 1.400 1_554 S
C2013 C2014 1.398 . S
C2014 H2002 0.950 . S
C2014 C2013 1.398 . S
C2014 C2015 1.391 . S
C2015 H2003 0.950 . S
C2015 C2011 1.393 . S
C2015 C2014 1.391 . S
H2016 C2024 0.950 . S
H2017 C2029 0.950 . S
H2018 C2026 0.950 . S
H2019 C2028 0.950 . S
H2020 C2030 0.950 . S
H2021 C2032 0.950 . S
H2022 C2034 0.950 . S
H2023 C2035 0.950 . S
C2024 H2016 0.950 . S
C2024 C2025 1.386 . S
C2024 C2026 1.391 . S
C2025 C2024 1.386 . S
C2025 C2029 1.393 . S
C2026 H2018 0.950 . S
C2026 C2024 1.391 . S
C2026 C2027 1.400 . S
C2027 C2026 1.400 . S
C2027 C2028 1.398 . S
C2027 C2033 1.491 . S
C2028 H2019 0.950 . S
C2028 C2027 1.398 . S
C2028 C2029 1.391 . S
C2029 H2017 0.950 . S
C2029 C2025 1.393 . S
C2029 C2028 1.391 . S
C2030 H2020 0.950 . S
C2030 C2031 1.386 . S
C2030 C2032 1.391 . S
C2031 C2030 1.386 . S
C2031 C2035 1.393 . S
C2032 H2021 0.950 . S
C2032 C2030 1.391 . S
C2032 C2033 1.400 . S
C2033 C2027 1.491 . S
C2033 C2032 1.400 . S
C2033 C2034 1.398 . S
C2034 H2022 0.950 . S
C2034 C2033 1.398 . S
C2034 C2035 1.391 . S
C2035 H2023 0.950 . S
C2035 C2031 1.393 . S
C2035 C2034 1.391 . S
H2036 C2044 0.950 . S
H2037 C2049 0.950 . S
H2038 C2046 0.950 . S
H2039 C2048 0.950 . S
H2040 C2050 0.950 . S
H2041 C2052 0.950 . S
H2042 C2054 0.950 . S
H2043 C2055 0.950 . S
C2044 H2036 0.950 . S
C2044 C2045 1.386 . S
C2044 C2046 1.391 . S
C2045 C2044 1.386 . S
C2045 C2049 1.393 . S
C2046 H2038 0.950 . S
C2046 C2044 1.391 . S
C2046 C2047 1.400 . S
C2047 C2046 1.400 . S
C2047 C2048 1.398 . S
C2047 C2053 1.491 . S
C2048 H2039 0.950 . S
C2048 C2047 1.398 . S
C2048 C2049 1.391 . S
C2049 H2037 0.950 . S
C2049 C2045 1.393 . S
C2049 C2048 1.391 . S
C2050 H2040 0.950 . S
C2050 C2051 1.386 . S
C2050 C2052 1.391 . S
C2051 C2050 1.386 . S
C2051 C2055 1.393 . S
C2052 H2041 0.950 . S
C2052 C2050 1.391 . S
C2052 C2053 1.400 . S
C2053 C2047 1.491 . S
C2053 C2052 1.400 . S
C2053 C2054 1.398 . S
C2054 H2042 0.950 . S
C2054 C2053 1.398 . S
C2054 C2055 1.391 . S
C2055 H2043 0.950 . S
C2055 C2051 1.393 . S
C2055 C2054 1.391 . S
H2056 C2064 0.950 . S
H2057 C2069 0.950 . S
H2058 C2066 0.950 . S
H2059 C2068 0.950 . S
H2060 C2070 0.950 . S
H2061 C2072 0.950 . S
H2062 C2074 0.950 . S
H2063 C2075 0.950 . S
C2064 H2056 0.950 . S
C2064 C2065 1.386 . S
C2064 C2066 1.391 . S
C2065 C2064 1.386 . S
C2065 C2069 1.393 . S
C2066 H2058 0.950 . S
C2066 C2064 1.391 . S
C2066 C2067 1.400 . S
C2067 C2066 1.400 . S
C2067 C2068 1.398 . S
C2067 C2073 1.491 . S
C2068 H2059 0.950 . S
C2068 C2067 1.398 . S
C2068 C2069 1.391 . S
C2069 H2057 0.950 . S
C2069 C2065 1.393 . S
C2069 C2068 1.391 . S
C2070 H2060 0.950 . S
C2070 C2071 1.386 . S
C2070 C2072 1.391 . S
C2071 C2070 1.386 . S
C2071 C2075 1.393 . S
C2072 H2061 0.950 . S
C2072 C2070 1.391 . S
C2072 C2073 1.400 . S
C2073 C2067 1.491 . S
C2073 C2072 1.400 . S
C2073 C2074 1.398 . S
C2074 H2062 0.950 . S
C2074 C2073 1.398 . S
C2074 C2075 1.391 . S
C2075 H2063 0.950 . S
C2075 C2071 1.393 . S
C2075 C2074 1.391 . S
H2076 C2084 0.950 . S
H2077 C2089 0.950 . S
H2078 C2086 0.950 . S
H2079 C2088 0.950 . S
H2080 C2090 0.950 . S
H2081 C2092 0.950 . S
H2082 C2094 0.950 . S
H2083 C2095 0.950 . S
C2084 H2076 0.950 . S
C2084 C2085 1.386 . S
C2084 C2086 1.391 . S
C2085 C2084 1.386 . S
C2085 C2089 1.393 . S
C2086 H2078 0.950 . S
C2086 C2084 1.391 . S
C2086 C2087 1.400 . S
C2087 C2086 1.400 . S
C2087 C2088 1.398 . S
C2087 C2093 1.491 . S
C2088 H2079 0.950 . S
C2088 C2087 1.398 . S
C2088 C2089 1.391 . S
C2089 H2077 0.950 . S
C2089 C2085 1.393 . S
C2089 C2088 1.391 . S
C2090 H2080 0.950 . S
C2090 C2091 1.386 . S
C2090 C2092 1.391 . S
C2091 C2090 1.386 . S
C2091 C2095 1.393 . S
C2092 H2081 0.950 . S
C2092 C2090 1.391 . S
C2092 C2093 1.400 . S
C2093 C2087 1.491 . S
C2093 C2092 1.400 . S
C2093 C2094 1.398 . S
C2094 H2082 0.950 . S
C2094 C2093 1.398 . S
C2094 C2095 1.391 . S
C2095 H2083 0.950 . S
C2095 C2091 1.393 . S
C2095 C2094 1.391 . S
H2096 C2104 0.950 . S
H2097 C2109 0.950 . S
H2098 C2106 0.950 . S
H2099 C2108 0.950 . S
H2100 C2110 0.950 . S
H2101 C2112 0.950 . S
H2102 C2114 0.950 . S
H2103 C2115 0.950 . S
C2104 H2096 0.950 . S
C2104 C2105 1.386 . S
C2104 C2106 1.391 . S
C2105 C2104 1.386 . S
C2105 C2109 1.393 . S
C2106 H2098 0.950 . S
C2106 C2104 1.391 . S
C2106 C2107 1.400 . S
C2107 C2106 1.400 . S
C2107 C2108 1.398 . S
C2107 C2113 1.491 . S
C2108 H2099 0.950 . S
C2108 C2107 1.398 . S
C2108 C2109 1.391 . S
C2109 H2097 0.950 . S
C2109 C2105 1.393 . S
C2109 C2108 1.391 . S
C2110 H2100 0.950 . S
C2110 C2111 1.386 . S
C2110 C2112 1.391 . S
C2111 C2110 1.386 . S
C2111 C2115 1.393 . S
C2112 H2101 0.950 . S
C2112 C2110 1.391 . S
C2112 C2113 1.400 . S
C2113 C2107 1.491 . S
C2113 C2112 1.400 . S
C2113 C2114 1.398 . S
C2114 H2102 0.950 . S
C2114 C2113 1.398 . S
C2114 C2115 1.391 . S
C2115 H2103 0.950 . S
C2115 C2111 1.393 . S
C2115 C2114 1.391 . S
H2116 C2124 0.950 . S
H2117 C2129 0.950 . S
H2118 C2126 0.950 . S
H2119 C2128 0.950 . S
H2120 C2130 0.950 . S
H2121 C2132 0.950 . S
H2122 C2134 0.950 . S
H2123 C2135 0.950 . S
C2124 H2116 0.950 . S
C2124 C2125 1.386 . S
C2124 C2126 1.391 . S
C2125 C2124 1.386 . S
C2125 C2129 1.393 . S
C2126 H2118 0.950 . S
C2126 C2124 1.391 . S
C2126 C2127 1.400 . S
C2127 C2126 1.400 . S
C2127 C2128 1.398 . S
C2127 C2133 1.491 . S
C2128 H2119 0.950 . S
C2128 C2127 1.398 . S
C2128 C2129 1.391 . S
C2129 H2117 0.950 . S
C2129 C2125 1.393 . S
C2129 C2128 1.391 . S
C2130 H2120 0.950 . S
C2130 C2131 1.386 . S
C2130 C2132 1.391 . S
C2131 C2130 1.386 . S
C2131 C2135 1.393 . S
C2132 H2121 0.950 . S
C2132 C2130 1.391 . S
C2132 C2133 1.400 . S
C2133 C2127 1.491 . S
C2133 C2132 1.400 . S
C2133 C2134 1.398 . S
C2134 H2122 0.950 . S
C2134 C2133 1.398 . S
C2134 C2135 1.391 . S
C2135 H2123 0.950 . S
C2135 C2131 1.393 . S
C2135 C2134 1.391 . S
H2136 C2144 0.950 . S
H2137 C2149 0.950 . S
H2138 C2146 0.950 . S
H2139 C2148 0.950 . S
H2140 C2150 0.950 . S
H2141 C2152 0.950 . S
H2142 C2154 0.950 . S
H2143 C2155 0.950 . S
C2144 H2136 0.950 . S
C2144 C2145 1.386 . S
C2144 C2146 1.391 . S
C2145 C2144 1.386 . S
C2145 C2149 1.393 . S
C2146 H2138 0.950 . S
C2146 C2144 1.391 . S
C2146 C2147 1.400 . S
C2147 C2146 1.400 . S
C2147 C2148 1.398 . S
C2147 C2153 1.491 . S
C2148 H2139 0.950 . S
C2148 C2147 1.398 . S
C2148 C2149 1.391 . S
C2149 H2137 0.950 . S
C2149 C2145 1.393 . S
C2149 C2148 1.391 . S
C2150 H2140 0.950 . S
C2150 C2151 1.386 . S
C2150 C2152 1.391 . S
C2151 C2150 1.386 . S
C2151 C2155 1.393 . S
C2152 H2141 0.950 . S
C2152 C2150 1.391 . S
C2152 C2153 1.400 . S
C2153 C2147 1.491 . S
C2153 C2152 1.400 . S
C2153 C2154 1.398 . S
C2154 H2142 0.950 . S
C2154 C2153 1.398 . S
C2154 C2155 1.391 . S
C2155 H2143 0.950 . S
C2155 C2151 1.393 . S
C2155 C2154 1.391 . S
H2156 C2164 0.950 . S
H2157 C2169 0.950 . S
H2158 C2166 0.950 . S
H2159 C2168 0.950 . S
H2160 C2170 0.950 . S
H2161 C2172 0.950 . S
H2162 C2174 0.950 . S
H2163 C2175 0.950 . S
C2164 H2156 0.950 . S
C2164 C2165 1.386 . S
C2164 C2166 1.391 . S
C2165 C2164 1.386 . S
C2165 C2169 1.393 . S
C2166 H2158 0.950 . S
C2166 C2164 1.391 . S
C2166 C2167 1.400 . S
C2167 C2166 1.400 . S
C2167 C2168 1.398 . S
C2167 C2173 1.491 . S
C2168 H2159 0.950 . S
C2168 C2167 1.398 . S
C2168 C2169 1.391 . S
C2169 H2157 0.950 . S
C2169 C2165 1.393 . S
C2169 C2168 1.391 . S
C2170 H2160 0.950 . S
C2170 C2171 1.386 . S
C2170 C2172 1.391 . S
C2171 C2170 1.386 . S
C2171 C2175 1.393 . S
C2172 H2161 0.950 . S
C2172 C2170 1.391 . S
C2172 C2173 1.400 . S
C2173 C2167 1.491 . S
C2173 C2172 1.400 . S
C2173 C2174 1.398 . S
C2174 H2162 0.950 . S
C2174 C2173 1.398 . S
C2174 C2175 1.391 . S
C2175 H2163 0.950 . S
C2175 C2171 1.393 . S
C2175 C2174 1.391 . S
H2176 C2184 0.950 . S
H2177 C2189 0.950 . S
H2178 C2186 0.950 . S
H2179 C2188 0.950 . S
H2180 C2190 0.950 . S
H2181 C2192 0.950 . S
H2182 C2194 0.950 . S
H2183 C2195 0.950 . S
C2184 H2176 0.950 . S
C2184 C2185 1.386 . S
C2184 C2186 1.391 . S
C2185 C2184 1.386 . S
C2185 C2189 1.393 . S
C2186 H2178 0.950 . S
C2186 C2184 1.391 . S
C2186 C2187 1.400 . S
C2187 C2186 1.400 . S
C2187 C2188 1.398 . S
C2187 C2193 1.491 . S
C2188 H2179 0.950 . S
C2188 C2187 1.398 . S
C2188 C2189 1.391 . S
C2189 H2177 0.950 . S
C2189 C2185 1.393 . S
C2189 C2188 1.391 . S
C2190 H2180 0.950 . S
C2190 C2191 1.386 . S
C2190 C2192 1.391 . S
C2191 C2190 1.386 . S
C2191 C2195 1.393 . S
C2192 H2181 0.950 . S
C2192 C2190 1.391 . S
C2192 C2193 1.400 . S
C2193 C2187 1.491 . S
C2193 C2192 1.400 . S
C2193 C2194 1.398 . S
C2194 H2182 0.950 . S
C2194 C2193 1.398 . S
C2194 C2195 1.391 . S
C2195 H2183 0.950 . S
C2195 C2191 1.393 . S
C2195 C2194 1.391 . S
H2196 C2204 0.950 . S
H2197 C2209 0.950 . S
H2198 C2206 0.950 . S
H2199 C2208 0.950 . S
H2200 C2210 0.950 . S
H2201 C2212 0.950 . S
H2202 C2214 0.950 . S
H2203 C2215 0.950 . S
C2204 H2196 0.950 . S
C2204 C2205 1.386 . S
C2204 C2206 1.391 . S
C2205 C2204 1.386 . S
C2205 C2209 1.393 . S
C2206 H2198 0.950 . S
C2206 C2204 1.391 . S
C2206 C2207 1.400 . S
C2207 C2206 1.400 . S
C2207 C2208 1.398 . S
C2207 C2213 1.491 . S
C2208 H2199 0.950 . S
C2208 C2207 1.398 . S
C2208 C2209 1.391 . S
C2209 H2197 0.950 . S
C2209 C2205 1.393 . S
C2209 C2208 1.391 . S
C2210 H2200 0.950 . S
C2210 C2211 1.386 . S
C2210 C2212 1.391 . S
C2211 C2210 1.386 . S
C2211 C2215 1.393 . S
C2212 H2201 0.950 . S
C2212 C2210 1.391 . S
C2212 C2213 1.400 . S
C2213 C2207 1.491 . S
C2213 C2212 1.400 . S
C2213 C2214 1.398 . S
C2214 H2202 0.950 . S
C2214 C2213 1.398 . S
C2214 C2215 1.391 . S
C2215 H2203 0.950 . S
C2215 C2211 1.393 . S
C2215 C2214 1.391 . S
H2216 C2224 0.950 . S
H2217 C2229 0.950 . S
H2218 C2226 0.950 . S
H2219 C2228 0.950 . S
H2220 C2230 0.950 . S
H2221 C2232 0.950 . S
H2222 C2234 0.950 . S
H2223 C2235 0.950 . S
C2224 H2216 0.950 . S
C2224 C2225 1.386 . S
C2224 C2226 1.391 . S
C2225 C2224 1.386 . S
C2225 C2229 1.393 . S
C2226 H2218 0.950 . S
C2226 C2224 1.391 . S
C2226 C2227 1.400 . S
C2227 C2226 1.400 . S
C2227 C2228 1.398 . S
C2227 C2233 1.491 . S
C2228 H2219 0.950 . S
C2228 C2227 1.398 . S
C2228 C2229 1.391 . S
C2229 H2217 0.950 . S
C2229 C2225 1.393 . S
C2229 C2228 1.391 . S
C2230 H2220 0.950 . S
C2230 C2231 1.386 . S
C2230 C2232 1.391 . S
C2231 C2230 1.386 . S
C2231 C2235 1.393 . S
C2232 H2221 0.950 . S
C2232 C2230 1.391 . S
C2232 C2233 1.400 . S
C2233 C2227 1.491 . S
C2233 C2232 1.400 . S
C2233 C2234 1.398 . S
C2234 H2222 0.950 . S
C2234 C2233 1.398 . S
C2234 C2235 1.391 . S
C2235 H2223 0.950 . S
C2235 C2231 1.393 . S
C2235 C2234 1.391 . S
H2236 C2244 0.950 . S
H2237 C2249 0.950 . S
H2238 C2246 0.950 . S
H2239 C2248 0.950 . S
H2240 C2250 0.950 . S
H2241 C2252 0.950 . S
H2242 C2254 0.950 . S
H2243 C2255 0.950 . S
C2244 H2236 0.950 . S
C2244 C2245 1.386 . S
C2244 C2246 1.391 . S
C2245 C2244 1.386 . S
C2245 C2249 1.393 . S
C2246 H2238 0.950 . S
C2246 C2244 1.391 . S
C2246 C2247 1.400 . S
C2247 C2246 1.400 . S
C2247 C2248 1.398 . S
C2247 C2253 1.491 . S
C2248 H2239 0.950 . S
C2248 C2247 1.398 . S
C2248 C2249 1.391 . S
C2249 H2237 0.950 . S
C2249 C2245 1.393 . S
C2249 C2248 1.391 . S
C2250 H2240 0.950 . S
C2250 C2251 1.386 . S
C2250 C2252 1.391 . S
C2251 C2250 1.386 . S
C2251 C2255 1.393 . S
C2252 H2241 0.950 . S
C2252 C2250 1.391 . S
C2252 C2253 1.400 . S
C2253 C2247 1.491 . S
C2253 C2252 1.400 . S
C2253 C2254 1.398 . S
C2254 H2242 0.950 . S
C2254 C2253 1.398 . S
C2254 C2255 1.391 . S
C2255 H2243 0.950 . S
C2255 C2251 1.393 . S
C2255 C2254 1.391 . S
H2256 C2264 0.950 . S
H2257 C2269 0.950 . S
H2258 C2266 0.950 . S
H2259 C2268 0.950 . S
H2260 C2270 0.950 . S
H2261 C2272 0.950 . S
H2262 C2274 0.950 . S
H2263 C2275 0.950 . S
C2264 H2256 0.950 . S
C2264 C2265 1.386 . S
C2264 C2266 1.391 . S
C2265 C2264 1.386 . S
C2265 C2269 1.393 . S
C2266 H2258 0.950 . S
C2266 C2264 1.391 . S
C2266 C2267 1.400 . S
C2267 C2266 1.400 . S
C2267 C2268 1.398 . S
C2267 C2273 1.491 . S
C2268 H2259 0.950 . S
C2268 C2267 1.398 . S
C2268 C2269 1.391 . S
C2269 H2257 0.950 . S
C2269 C2265 1.393 . S
C2269 C2268 1.391 . S
C2270 H2260 0.950 . S
C2270 C2271 1.386 . S
C2270 C2272 1.391 . S
C2271 C2270 1.386 . S
C2271 C2275 1.393 . S
C2272 H2261 0.950 . S
C2272 C2270 1.391 . S
C2272 C2273 1.400 . S
C2273 C2267 1.491 . S
C2273 C2272 1.400 . S
C2273 C2274 1.398 . S
C2274 H2262 0.950 . S
C2274 C2273 1.398 . S
C2274 C2275 1.391 . S
C2275 H2263 0.950 . S
C2275 C2271 1.393 . S
C2275 C2274 1.391 . S
H2276 C2284 0.950 . S
H2277 C2289 0.950 . S
H2278 C2286 0.950 . S
H2279 C2288 0.950 . S
H2280 C2290 0.950 . S
H2281 C2292 0.950 . S
H2282 C2294 0.950 . S
H2283 C2295 0.950 . S
C2284 H2276 0.950 . S
C2284 C2285 1.386 . S
C2284 C2286 1.391 . S
C2285 C2284 1.386 . S
C2285 C2289 1.393 . S
C2286 H2278 0.950 . S
C2286 C2284 1.391 . S
C2286 C2287 1.400 . S
C2287 C2286 1.400 . S
C2287 C2288 1.398 . S
C2287 C2293 1.491 . S
C2288 H2279 0.950 . S
C2288 C2287 1.398 . S
C2288 C2289 1.391 . S
C2289 H2277 0.950 . S
C2289 C2285 1.393 . S
C2289 C2288 1.391 . S
C2290 H2280 0.950 . S
C2290 C2291 1.386 . S
C2290 C2292 1.391 . S
C2291 C2290 1.386 . S
C2291 C2295 1.393 . S
C2292 H2281 0.950 . S
C2292 C2290 1.391 . S
C2292 C2293 1.400 . S
C2293 C2287 1.491 . S
C2293 C2292 1.400 . S
C2293 C2294 1.398 . S
C2294 H2282 0.950 . S
C2294 C2293 1.398 . S
C2294 C2295 1.391 . S
C2295 H2283 0.950 . S
C2295 C2291 1.393 . S
C2295 C2294 1.391 . S
H2296 C2304 0.950 . S
H2297 C2309 0.950 . S
H2298 C2306 0.950 . S
H2299 C2308 0.950 . S
H2300 C2310 0.950 . S
H2301 C2312 0.950 . S
H2302 C2314 0.950 . S
H2303 C2315 0.950 . S
C2304 H2296 0.950 . S
C2304 C2305 1.386 . S
C2304 C2306 1.391 . S
C2305 C2304 1.386 . S
C2305 C2309 1.393 . S
C2306 H2298 0.950 . S
C2306 C2304 1.391 . S
C2306 C2307 1.400 . S
C2307 C2306 1.400 . S
C2307 C2308 1.398 . S
C2307 C2313 1.491 . S
C2308 H2299 0.950 . S
C2308 C2307 1.398 . S
C2308 C2309 1.391 . S
C2309 H2297 0.950 . S
C2309 C2305 1.393 . S
C2309 C2308 1.391 . S
C2310 H2300 0.950 . S
C2310 C2311 1.386 . S
C2310 C2312 1.391 . S
C2311 C2310 1.386 . S
C2311 C2315 1.393 . S
C2312 H2301 0.950 . S
C2312 C2310 1.391 . S
C2312 C2313 1.400 . S
C2313 C2307 1.491 . S
C2313 C2312 1.400 . S
C2313 C2314 1.398 . S
C2314 H2302 0.950 . S
C2314 C2313 1.398 . S
C2314 C2315 1.391 . S
C2315 H2303 0.950 . S
C2315 C2311 1.393 . S
C2315 C2314 1.391 . S
H2316 C2324 0.950 . S
H2317 C2329 0.950 . S
H2318 C2326 0.950 . S
H2319 C2328 0.950 . S
H2320 C2330 0.950 . S
H2321 C2332 0.950 . S
H2322 C2334 0.950 . S
H2323 C2335 0.950 . S
C2324 H2316 0.950 . S
C2324 C2325 1.386 . S
C2324 C2326 1.391 . S
C2325 C2324 1.386 . S
C2325 C2329 1.393 . S
C2326 H2318 0.950 . S
C2326 C2324 1.391 . S
C2326 C2327 1.400 . S
C2327 C2326 1.400 . S
C2327 C2328 1.398 . S
C2327 C2333 1.491 . S
C2328 H2319 0.950 . S
C2328 C2327 1.398 . S
C2328 C2329 1.391 . S
C2329 H2317 0.950 . S
C2329 C2325 1.393 . S
C2329 C2328 1.391 . S
C2330 H2320 0.950 . S
C2330 C2331 1.386 . S
C2330 C2332 1.391 . S
C2331 C2330 1.386 . S
C2331 C2335 1.393 . S
C2332 H2321 0.950 . S
C2332 C2330 1.391 . S
C2332 C2333 1.400 . S
C2333 C2327 1.491 . S
C2333 C2332 1.400 . S
C2333 C2334 1.398 . S
C2334 H2322 0.950 . S
C2334 C2333 1.398 . S
C2334 C2335 1.391 . S
C2335 H2323 0.950 . S
C2335 C2331 1.393 . S
C2335 C2334 1.391 . S
H2336 C2344 0.950 . S
H2337 C2349 0.950 . S
H2338 C2346 0.950 . S
H2339 C2348 0.950 . S
H2340 C2350 0.950 . S
H2341 C2352 0.950 . S
H2342 C2354 0.950 . S
H2343 C2355 0.950 . S
C2344 H2336 0.950 . S
C2344 C2345 1.386 . S
C2344 C2346 1.391 . S
C2345 C2344 1.386 . S
C2345 C2349 1.393 . S
C2346 H2338 0.950 . S
C2346 C2344 1.391 . S
C2346 C2347 1.400 . S
C2347 C2346 1.400 . S
C2347 C2348 1.398 . S
C2347 C2353 1.491 . S
C2348 H2339 0.950 . S
C2348 C2347 1.398 . S
C2348 C2349 1.391 . S
C2349 H2337 0.950 . S
C2349 C2345 1.393 . S
C2349 C2348 1.391 . S
C2350 H2340 0.950 . S
C2350 C2351 1.386 . S
C2350 C2352 1.391 . S
C2351 C2350 1.386 . S
C2351 C2355 1.393 . S
C2352 H2341 0.950 . S
C2352 C2350 1.391 . S
C2352 C2353 1.400 . S
C2353 C2347 1.491 . S
C2353 C2352 1.400 . S
C2353 C2354 1.398 . S
C2354 H2342 0.950 . S
C2354 C2353 1.398 . S
C2354 C2355 1.391 . S
C2355 H2343 0.950 . S
C2355 C2351 1.393 . S
C2355 C2354 1.391 . S
H2356 C2364 0.950 . S
H2357 C2369 0.950 . S
H2358 C2366 0.950 . S
H2359 C2368 0.950 . S
H2360 C2370 0.950 . S
H2361 C2372 0.950 . S
H2362 C2374 0.950 . S
H2363 C2375 0.950 . S
C2364 H2356 0.950 . S
C2364 C2365 1.386 . S
C2364 C2366 1.391 . S
C2365 C2364 1.386 . S
C2365 C2369 1.393 . S
C2366 H2358 0.950 . S
C2366 C2364 1.391 . S
C2366 C2367 1.400 . S
C2367 C2366 1.400 . S
C2367 C2368 1.398 . S
C2367 C2373 1.491 . S
C2368 H2359 0.950 . S
C2368 C2367 1.398 . S
C2368 C2369 1.391 . S
C2369 H2357 0.950 . S
C2369 C2365 1.393 . S
C2369 C2368 1.391 . S
C2370 H2360 0.950 . S
C2370 C2371 1.386 . S
C2370 C2372 1.391 . S
C2371 C2370 1.386 . S
C2371 C2375 1.393 . S
C2372 H2361 0.950 . S
C2372 C2370 1.391 . S
C2372 C2373 1.400 . S
C2373 C2367 1.491 . S
C2373 C2372 1.400 . S
C2373 C2374 1.398 . S
C2374 H2362 0.950 . S
C2374 C2373 1.398 . S
C2374 C2375 1.391 . S
C2375 H2363 0.950 . S
C2375 C2371 1.393 . S
C2375 C2374 1.391 . S
H2376 C2384 0.950 . S
H2377 C2389 0.950 . S
H2378 C2386 0.950 . S
H2379 C2388 0.950 . S
H2380 C2390 0.950 . S
H2381 C2392 0.950 . S
H2382 C2394 0.950 . S
H2383 C2395 0.950 . S
C2384 H2376 0.950 . S
C2384 C2385 1.386 . S
C2384 C2386 1.391 . S
C2385 C2384 1.386 . S
C2385 C2389 1.393 . S
C2386 H2378 0.950 . S
C2386 C2384 1.391 . S
C2386 C2387 1.400 . S
C2387 C2386 1.400 . S
C2387 C2388 1.398 . S
C2387 C2393 1.491 . S
C2388 H2379 0.950 . S
C2388 C2387 1.398 . S
C2388 C2389 1.391 . S
C2389 H2377 0.950 . S
C2389 C2385 1.393 . S
C2389 C2388 1.391 . S
C2390 H2380 0.950 . S
C2390 C2391 1.386 . S
C2390 C2392 1.391 . S
C2391 C2390 1.386 . S
C2391 C2395 1.393 . S
C2392 H2381 0.950 . S
C2392 C2390 1.391 . S
C2392 C2393 1.400 . S
C2393 C2387 1.491 . S
C2393 C2392 1.400 . S
C2393 C2394 1.398 . S
C2394 H2382 0.950 . S
C2394 C2393 1.398 . S
C2394 C2395 1.391 . S
C2395 H2383 0.950 . S
C2395 C2391 1.393 . S
C2395 C2394 1.391 . S
H2396 C2404 0.950 . S
H2397 C2409 0.950 . S
H2398 C2406 0.950 . S
H2399 C2408 0.950 . S
H2400 C2410 0.950 . S
H2401 C2412 0.950 . S
H2402 C2414 0.950 . S
H2403 C2415 0.950 . S
C2404 H2396 0.950 . S
C2404 C2405 1.386 . S
C2404 C2406 1.391 . S
C2405 C2404 1.386 . S
C2405 C2409 1.393 . S
C2406 H2398 0.950 . S
C2406 C2404 1.391 . S
C2406 C2407 1.400 . S
C2407 C2406 1.400 . S
C2407 C2408 1.398 . S
C2407 C2413 1.491 . S
C2408 H2399 0.950 . S
C2408 C2407 1.398 . S
C2408 C2409 1.391 . S
C2409 H2397 0.950 . S
C2409 C2405 1.393 . S
C2409 C2408 1.391 . S
C2410 H2400 0.950 . S
C2410 C2411 1.386 . S
C2410 C2412 1.391 . S
C2411 C2410 1.386 . S
C2411 C2415 1.393 . S
C2412 H2401 0.950 . S
C2412 C2410 1.391 . S
C2412 C2413 1.400 . S
C2413 C2407 1.491 . S
C2413 C2412 1.400 . S
C2413 C2414 1.398 . S
C2414 H2402 0.950 . S
C2414 C2413 1.398 . S
C2414 C2415 1.391 . S
C2415 H2403 0.950 . S
C2415 C2411 1.393 . S
C2415 C2414 1.391 . S
H2416 C2424 0.950 . S
H2417 C2429 0.950 . S
H2418 C2426 0.950 . S
H2419 C2428 0.950 . S
H2420 C2430 0.950 . S
H2421 C2432 0.950 . S
H2422 C2434 0.950 . S
H2423 C2435 0.950 . S
C2424 H2416 0.950 . S
C2424 C2425 1.386 . S
C2424 C2426 1.391 . S
C2425 C2424 1.386 . S
C2425 C2429 1.393 . S
C2426 H2418 0.950 . S
C2426 C2424 1.391 . S
C2426 C2427 1.400 . S
C2427 C2426 1.400 . S
C2427 C2428 1.398 . S
C2427 C2433 1.491 . S
C2428 H2419 0.950 . S
C2428 C2427 1.398 . S
C2428 C2429 1.391 . S
C2429 H2417 0.950 . S
C2429 C2425 1.393 . S
C2429 C2428 1.391 . S
C2430 H2420 0.950 . S
C2430 C2431 1.386 . S
C2430 C2432 1.391 . S
C2431 C2430 1.386 . S
C2431 C2435 1.393 . S
C2432 H2421 0.950 . S
C2432 C2430 1.391 . S
C2432 C2433 1.400 . S
C2433 C2427 1.491 . S
C2433 C2432 1.400 . S
C2433 C2434 1.398 . S
C2434 H2422 0.950 . S
C2434 C2433 1.398 . S
C2434 C2435 1.391 . S
C2435 H2423 0.950 . S
C2435 C2431 1.393 . S
C2435 C2434 1.391 . S
H2436 C2444 0.950 . S
H2437 C2449 0.950 . S
H2438 C2446 0.950 . S
H2439 C2448 0.950 . S
H2440 C2450 0.950 . S
H2441 C2452 0.950 . S
H2442 C2454 0.950 . S
H2443 C2455 0.950 . S
C2444 H2436 0.950 . S
C2444 C2445 1.386 . S
C2444 C2446 1.391 . S
C2445 C2444 1.386 . S
C2445 C2449 1.393 . S
C2446 H2438 0.950 . S
C2446 C2444 1.391 . S
C2446 C2447 1.400 . S
C2447 C2446 1.400 . S
C2447 C2448 1.398 . S
C2447 C2453 1.491 . S
C2448 H2439 0.950 . S
C2448 C2447 1.398 . S
C2448 C2449 1.391 . S
C2449 H2437 0.950 . S
C2449 C2445 1.393 . S
C2449 C2448 1.391 . S
C2450 H2440 0.950 . S
C2450 C2451 1.386 . S
C2450 C2452 1.391 . S
C2451 C2450 1.386 . S
C2451 C2455 1.393 . S
C2452 H2441 0.950 . S
C2452 C2450 1.391 . S
C2452 C2453 1.400 . S
C2453 C2447 1.491 . S
C2453 C2452 1.400 . S
C2453 C2454 1.398 . S
C2454 H2442 0.950 . S
C2454 C2453 1.398 . S
C2454 C2455 1.391 . S
C2455 H2443 0.950 . S
C2455 C2451 1.393 . S
C2455 C2454 1.391 . S
H2456 C2464 0.950 . S
H2457 C2469 0.950 . S
H2458 C2466 0.950 . S
H2459 C2468 0.950 . S
H2460 C2470 0.950 . S
H2461 C2472 0.950 . S
H2462 C2474 0.950 . S
H2463 C2475 0.950 . S
C2464 H2456 0.950 . S
C2464 C2465 1.386 . S
C2464 C2466 1.391 . S
C2465 C2464 1.386 . S
C2465 C2469 1.393 . S
C2466 H2458 0.950 . S
C2466 C2464 1.391 . S
C2466 C2467 1.400 . S
C2467 C2466 1.400 . S
C2467 C2468 1.398 . S
C2467 C2473 1.491 . S
C2468 H2459 0.950 . S
C2468 C2467 1.398 . S
C2468 C2469 1.391 . S
C2469 H2457 0.950 . S
C2469 C2465 1.393 . S
C2469 C2468 1.391 . S
C2470 H2460 0.950 . S
C2470 C2471 1.386 . S
C2470 C2472 1.391 . S
C2471 C2470 1.386 . S
C2471 C2475 1.393 . S
C2472 H2461 0.950 . S
C2472 C2470 1.391 . S
C2472 C2473 1.400 . S
C2473 C2467 1.491 . S
C2473 C2472 1.400 . S
C2473 C2474 1.398 . S
C2474 H2462 0.950 . S
C2474 C2473 1.398 . S
C2474 C2475 1.391 . S
C2475 H2463 0.950 . S
C2475 C2471 1.393 . S
C2475 C2474 1.391 . S
H2476 C2484 0.950 . S
H2477 C2489 0.950 . S
H2478 C2486 0.950 . S
H2479 C2488 0.950 . S
H2480 C2490 0.950 . S
H2481 C2492 0.950 . S
H2482 C2494 0.950 . S
H2483 C2495 0.950 . S
C2484 H2476 0.950 . S
C2484 C2485 1.386 . S
C2484 C2486 1.391 . S
C2485 C2484 1.386 . S
C2485 C2489 1.393 . S
C2486 H2478 0.950 . S
C2486 C2484 1.391 . S
C2486 C2487 1.400 . S
C2487 C2486 1.400 . S
C2487 C2488 1.398 . S
C2487 C2493 1.491 . S
C2488 H2479 0.950 . S
C2488 C2487 1.398 . S
C2488 C2489 1.391 . S
C2489 H2477 0.950 . S
C2489 C2485 1.393 . S
C2489 C2488 1.391 . S
C2490 H2480 0.950 . S
C2490 C2491 1.386 . S
C2490 C2492 1.391 . S
C2491 C2490 1.386 . S
C2491 C2495 1.393 . S
C2492 H2481 0.950 . S
C2492 C2490 1.391 . S
C2492 C2493 1.400 . S
C2493 C2487 1.491 . S
C2493 C2492 1.400 . S
C2493 C2494 1.398 . S
C2494 H2482 0.950 . S
C2494 C2493 1.398 . S
C2494 C2495 1.391 . S
C2495 H2483 0.950 . S
C2495 C2491 1.393 . S
C2495 C2494 1.391 . S
H2496 C2504 0.950 . S
H2497 C2509 0.950 . S
H2498 C2506 0.950 . S
H2499 C2508 0.950 . S
H2500 C2510 0.950 . S
H2501 C2512 0.950 . S
H2502 C2514 0.950 . S
H2503 C2515 0.950 . S
C2504 H2496 0.950 . S
C2504 C2505 1.386 . S
C2504 C2506 1.391 . S
C2505 C2504 1.386 . S
C2505 C2509 1.393 . S
C2506 H2498 0.950 . S
C2506 C2504 1.391 . S
C2506 C2507 1.400 . S
C2507 C2506 1.400 . S
C2507 C2508 1.398 . S
C2507 C2513 1.491 . S
C2508 H2499 0.950 . S
C2508 C2507 1.398 . S
C2508 C2509 1.391 . S
C2509 H2497 0.950 . S
C2509 C2505 1.393 . S
C2509 C2508 1.391 . S
C2510 H2500 0.950 . S
C2510 C2511 1.386 . S
C2510 C2512 1.391 . S
C2511 C2510 1.386 . S
C2511 C2515 1.393 . S
C2512 H2501 0.950 . S
C2512 C2510 1.391 . S
C2512 C2513 1.400 . S
C2513 C2507 1.491 . S
C2513 C2512 1.400 . S
C2513 C2514 1.398 . S
C2514 H2502 0.950 . S
C2514 C2513 1.398 . S
C2514 C2515 1.391 . S
C2515 H2503 0.950 . S
C2515 C2511 1.393 . S
C2515 C2514 1.391 . S
H2516 C2524 0.950 . S
H2517 C2529 0.950 . S
H2518 C2526 0.950 . S
H2519 C2528 0.950 . S
H2520 C2530 0.950 . S
H2521 C2532 0.950 . S
H2522 C2534 0.950 . S
H2523 C2535 0.950 . S
C2524 H2516 0.950 . S
C2524 C2525 1.386 . S
C2524 C2526 1.391 . S
C2525 C2524 1.386 . S
C2525 C2529 1.393 . S
C2526 H2518 0.950 . S
C2526 C2524 1.391 . S
C2526 C2527 1.400 . S
C2527 C2526 1.400 . S
C2527 C2528 1.398 . S
C2527 C2533 1.491 . S
C2528 H2519 0.950 . S
C2528 C2527 1.398 . S
C2528 C2529 1.391 . S
C2529 H2517 0.950 . S
C2529 C2525 1.393 . S
C2529 C2528 1.391 . S
C2530 H2520 0.950 . S
C2530 C2531 1.386 . S
C2530 C2532 1.391 . S
C2531 C2530 1.386 . S
C2531 C2535 1.393 . S
C2532 H2521 0.950 . S
C2532 C2530 1.391 . S
C2532 C2533 1.400 . S
C2533 C2527 1.491 . S
C2533 C2532 1.400 . S
C2533 C2534 1.398 . S
C2534 H2522 0.950 . S
C2534 C2533 1.398 . S
C2534 C2535 1.391 . S
C2535 H2523 0.950 . S
C2535 C2531 1.393 . S
C2535 C2534 1.391 . S
H2536 C2544 0.950 . S
H2537 C2549 0.950 1_545 S
H2538 C2546 0.950 . S
H2539 C2548 0.950 . S
H2540 C2550 0.950 . S
H2541 C2552 0.950 . S
H2542 C2554 0.950 . S
H2543 C2555 0.950 . S
C2544 H2536 0.950 . S
C2544 C2545 1.386 1_565 S
C2544 C2546 1.391 . S
C2545 C2544 1.386 1_545 S
C2545 C2549 1.393 1_545 S
C2546 H2538 0.950 . S
C2546 C2544 1.391 . S
C2546 C2547 1.400 . S
C2547 C2546 1.400 . S
C2547 C2548 1.398 . S
C2547 C2553 1.491 . S
C2548 H2539 0.950 . S
C2548 C2547 1.398 . S
C2548 C2549 1.391 . S
C2549 H2537 0.950 1_565 S
C2549 C2545 1.393 1_565 S
C2549 C2548 1.391 . S
C2550 H2540 0.950 . S
C2550 C2551 1.386 . S
C2550 C2552 1.391 . S
C2551 C2550 1.386 . S
C2551 C2555 1.393 . S
C2552 H2541 0.950 . S
C2552 C2550 1.391 . S
C2552 C2553 1.400 . S
C2553 C2547 1.491 . S
C2553 C2552 1.400 . S
C2553 C2554 1.398 . S
C2554 H2542 0.950 . S
C2554 C2553 1.398 . S
C2554 C2555 1.391 . S
C2555 H2543 0.950 . S
C2555 C2551 1.393 . S
C2555 C2554 1.391 . S
H2556 C2564 0.950 . S
H2557 C2569 0.950 . S
H2558 C2566 0.950 . S
H2559 C2568 0.950 . S
H2560 C2570 0.950 . S
H2561 C2572 0.950 . S
H2562 C2574 0.950 . S
H2563 C2575 0.950 . S
C2564 H2556 0.950 . S
C2564 C2565 1.386 . S
C2564 C2566 1.391 . S
C2565 C2564 1.386 . S
C2565 C2569 1.393 . S
C2566 H2558 0.950 . S
C2566 C2564 1.391 . S
C2566 C2567 1.400 . S
C2567 C2566 1.400 . S
C2567 C2568 1.398 . S
C2567 C2573 1.491 . S
C2568 H2559 0.950 . S
C2568 C2567 1.398 . S
C2568 C2569 1.391 . S
C2569 H2557 0.950 . S
C2569 C2565 1.393 . S
C2569 C2568 1.391 . S
C2570 H2560 0.950 . S
C2570 C2571 1.386 . S
C2570 C2572 1.391 . S
C2571 C2570 1.386 . S
C2571 C2575 1.393 . S
C2572 H2561 0.950 . S
C2572 C2570 1.391 . S
C2572 C2573 1.400 . S
C2573 C2567 1.491 . S
C2573 C2572 1.400 . S
C2573 C2574 1.398 . S
C2574 H2562 0.950 . S
C2574 C2573 1.398 . S
C2574 C2575 1.391 . S
C2575 H2563 0.950 . S
C2575 C2571 1.393 . S
C2575 C2574 1.391 . S
H2576 C2584 0.950 . S
H2577 C2589 0.950 . S
H2578 C2586 0.950 . S
H2579 C2588 0.950 . S
H2580 C2590 0.950 . S
H2581 C2592 0.950 . S
H2582 C2594 0.950 . S
H2583 C2595 0.950 . S
C2584 H2576 0.950 . S
C2584 C2585 1.386 . S
C2584 C2586 1.391 . S
C2585 C2584 1.386 . S
C2585 C2589 1.393 . S
C2586 H2578 0.950 . S
C2586 C2584 1.391 . S
C2586 C2587 1.400 . S
C2587 C2586 1.400 . S
C2587 C2588 1.398 . S
C2587 C2593 1.491 . S
C2588 H2579 0.950 . S
C2588 C2587 1.398 . S
C2588 C2589 1.391 . S
C2589 H2577 0.950 . S
C2589 C2585 1.393 . S
C2589 C2588 1.391 . S
C2590 H2580 0.950 . S
C2590 C2591 1.386 . S
C2590 C2592 1.391 . S
C2591 C2590 1.386 . S
C2591 C2595 1.393 . S
C2592 H2581 0.950 . S
C2592 C2590 1.391 . S
C2592 C2593 1.400 . S
C2593 C2587 1.491 . S
C2593 C2592 1.400 . S
C2593 C2594 1.398 . S
C2594 H2582 0.950 . S
C2594 C2593 1.398 . S
C2594 C2595 1.391 . S
C2595 H2583 0.950 . S
C2595 C2591 1.393 . S
C2595 C2594 1.391 . S
H2596 C2604 0.950 . S
H2597 C2609 0.950 . S
H2598 C2606 0.950 . S
H2599 C2608 0.950 . S
H2600 C2610 0.950 . S
H2601 C2612 0.950 . S
H2602 C2614 0.950 . S
H2603 C2615 0.950 . S
C2604 H2596 0.950 . S
C2604 C2605 1.386 . S
C2604 C2606 1.391 . S
C2605 C2604 1.386 . S
C2605 C2609 1.393 . S
C2606 H2598 0.950 . S
C2606 C2604 1.391 . S
C2606 C2607 1.400 . S
C2607 C2606 1.400 . S
C2607 C2608 1.398 . S
C2607 C2613 1.491 . S
C2608 H2599 0.950 . S
C2608 C2607 1.398 . S
C2608 C2609 1.391 . S
C2609 H2597 0.950 . S
C2609 C2605 1.393 . S
C2609 C2608 1.391 . S
C2610 H2600 0.950 . S
C2610 C2611 1.386 . S
C2610 C2612 1.391 . S
C2611 C2610 1.386 . S
C2611 C2615 1.393 . S
C2612 H2601 0.950 . S
C2612 C2610 1.391 . S
C2612 C2613 1.400 . S
C2613 C2607 1.491 . S
C2613 C2612 1.400 . S
C2613 C2614 1.398 . S
C2614 H2602 0.950 . S
C2614 C2613 1.398 . S
C2614 C2615 1.391 . S
C2615 H2603 0.950 . S
C2615 C2611 1.393 . S
C2615 C2614 1.391 . S
H2616 C2624 0.950 . S
H2617 C2629 0.950 . S
H2618 C2626 0.950 . S
H2619 C2628 0.950 . S
H2620 C2630 0.950 . S
H2621 C2632 0.950 . S
H2622 C2634 0.950 . S
H2623 C2635 0.950 . S
C2624 H2616 0.950 . S
C2624 C2625 1.386 . S
C2624 C2626 1.391 . S
C2625 C2624 1.386 . S
C2625 C2629 1.393 . S
C2626 H2618 0.950 . S
C2626 C2624 1.391 . S
C2626 C2627 1.400 . S
C2627 C2626 1.400 . S
C2627 C2628 1.398 . S
C2627 C2633 1.491 . S
C2628 H2619 0.950 . S
C2628 C2627 1.398 . S
C2628 C2629 1.391 . S
C2629 H2617 0.950 . S
C2629 C2625 1.393 . S
C2629 C2628 1.391 . S
C2630 H2620 0.950 . S
C2630 C2631 1.386 . S
C2630 C2632 1.391 . S
C2631 C2630 1.386 . S
C2631 C2635 1.393 . S
C2632 H2621 0.950 . S
C2632 C2630 1.391 . S
C2632 C2633 1.400 . S
C2633 C2627 1.491 . S
C2633 C2632 1.400 . S
C2633 C2634 1.398 . S
C2634 H2622 0.950 . S
C2634 C2633 1.398 . S
C2634 C2635 1.391 . S
C2635 H2623 0.950 . S
C2635 C2631 1.393 . S
C2635 C2634 1.391 . S
H2636 C2644 0.950 . S
H2637 C2649 0.950 . S
H2638 C2646 0.950 . S
H2639 C2648 0.950 . S
H2640 C2650 0.950 . S
H2641 C2652 0.950 . S
H2642 C2654 0.950 . S
H2643 C2655 0.950 . S
C2644 H2636 0.950 . S
C2644 C2645 1.386 . S
C2644 C2646 1.391 . S
C2645 C2644 1.386 . S
C2645 C2649 1.393 . S
C2646 H2638 0.950 . S
C2646 C2644 1.391 . S
C2646 C2647 1.400 . S
C2647 C2646 1.400 . S
C2647 C2648 1.398 . S
C2647 C2653 1.491 . S
C2648 H2639 0.950 . S
C2648 C2647 1.398 . S
C2648 C2649 1.391 . S
C2649 H2637 0.950 . S
C2649 C2645 1.393 . S
C2649 C2648 1.391 . S
C2650 H2640 0.950 . S
C2650 C2651 1.386 . S
C2650 C2652 1.391 . S
C2651 C2650 1.386 . S
C2651 C2655 1.393 . S
C2652 H2641 0.950 . S
C2652 C2650 1.391 . S
C2652 C2653 1.400 . S
C2653 C2647 1.491 . S
C2653 C2652 1.400 . S
C2653 C2654 1.398 . S
C2654 H2642 0.950 . S
C2654 C2653 1.398 . S
C2654 C2655 1.391 . S
C2655 H2643 0.950 . S
C2655 C2651 1.393 . S
C2655 C2654 1.391 . S
H2656 C2664 0.950 . S
H2657 C2669 0.950 . S
H2658 C2666 0.950 . S
H2659 C2668 0.950 . S
H2660 C2670 0.950 1_556 S
H2661 C2672 0.950 . S
H2662 C2674 0.950 . S
H2663 C2675 0.950 . S
C2664 H2656 0.950 . S
C2664 C2665 1.386 1_554 S
C2664 C2666 1.391 . S
C2665 C2664 1.386 1_556 S
C2665 C2669 1.393 . S
C2666 H2658 0.950 . S
C2666 C2664 1.391 . S
C2666 C2667 1.400 1_554 S
C2667 C2666 1.400 1_556 S
C2667 C2668 1.398 . S
C2667 C2673 1.491 1_556 S
C2668 H2659 0.950 . S
C2668 C2667 1.398 . S
C2668 C2669 1.391 . S
C2669 H2657 0.950 . S
C2669 C2665 1.393 . S
C2669 C2668 1.391 . S
C2670 H2660 0.950 1_554 S
C2670 C2671 1.386 . S
C2670 C2672 1.391 1_554 S
C2671 C2670 1.386 . S
C2671 C2675 1.393 . S
C2672 H2661 0.950 . S
C2672 C2670 1.391 1_556 S
C2672 C2673 1.400 1_556 S
C2673 C2667 1.491 1_554 S
C2673 C2672 1.400 1_554 S
C2673 C2674 1.398 . S
C2674 H2662 0.950 . S
C2674 C2673 1.398 . S
C2674 C2675 1.391 . S
C2675 H2663 0.950 . S
C2675 C2671 1.393 . S
C2675 C2674 1.391 . S
H2676 C2684 0.950 . S
H2677 C2689 0.950 . S
H2678 C2686 0.950 . S
H2679 C2688 0.950 . S
H2680 C2690 0.950 . S
H2681 C2692 0.950 . S
H2682 C2694 0.950 . S
H2683 C2695 0.950 . S
C2684 H2676 0.950 . S
C2684 C2685 1.386 1_455 S
C2684 C2686 1.391 1_455 S
C2685 C2684 1.386 1_655 S
C2685 C2689 1.393 . S
C2686 H2678 0.950 . S
C2686 C2684 1.391 1_655 S
C2686 C2687 1.400 . S
C2687 C2686 1.400 . S
C2687 C2688 1.398 . S
C2687 C2693 1.491 . S
C2688 H2679 0.950 . S
C2688 C2687 1.398 . S
C2688 C2689 1.391 . S
C2689 H2677 0.950 . S
C2689 C2685 1.393 . S
C2689 C2688 1.391 . S
C2690 H2680 0.950 . S
C2690 C2691 1.386 . S
C2690 C2692 1.391 . S
C2691 C2690 1.386 . S
C2691 C2695 1.393 . S
C2692 H2681 0.950 . S
C2692 C2690 1.391 . S
C2692 C2693 1.400 . S
C2693 C2687 1.491 . S
C2693 C2692 1.400 . S
C2693 C2694 1.398 . S
C2694 H2682 0.950 . S
C2694 C2693 1.398 . S
C2694 C2695 1.391 . S
C2695 H2683 0.950 . S
C2695 C2691 1.393 . S
C2695 C2694 1.391 . S
H2696 C2704 0.950 . S
H2697 C2709 0.950 . S
H2698 C2706 0.950 . S
H2699 C2708 0.950 . S
H2700 C2710 0.950 . S
H2701 C2712 0.950 . S
H2702 C2714 0.950 . S
H2703 C2715 0.950 . S
C2704 H2696 0.950 . S
C2704 C2705 1.386 . S
C2704 C2706 1.391 . S
C2705 C2704 1.386 . S
C2705 C2709 1.393 . S
C2706 H2698 0.950 . S
C2706 C2704 1.391 . S
C2706 C2707 1.400 . S
C2707 C2706 1.400 . S
C2707 C2708 1.398 . S
C2707 C2713 1.491 . S
C2708 H2699 0.950 . S
C2708 C2707 1.398 . S
C2708 C2709 1.391 . S
C2709 H2697 0.950 . S
C2709 C2705 1.393 . S
C2709 C2708 1.391 . S
C2710 H2700 0.950 . S
C2710 C2711 1.386 . S
C2710 C2712 1.391 . S
C2711 C2710 1.386 . S
C2711 C2715 1.393 . S
C2712 H2701 0.950 . S
C2712 C2710 1.391 . S
C2712 C2713 1.400 . S
C2713 C2707 1.491 . S
C2713 C2712 1.400 . S
C2713 C2714 1.398 . S
C2714 H2702 0.950 . S
C2714 C2713 1.398 . S
C2714 C2715 1.391 . S
C2715 H2703 0.950 . S
C2715 C2711 1.393 . S
C2715 C2714 1.391 . S
H2716 C2724 0.950 . S
H2717 C2729 0.950 . S
H2718 C2726 0.950 . S
H2719 C2728 0.950 . S
H2720 C2730 0.950 . S
H2721 C2732 0.950 . S
H2722 C2734 0.950 . S
H2723 C2735 0.950 . S
C2724 H2716 0.950 . S
C2724 C2725 1.386 . S
C2724 C2726 1.391 . S
C2725 C2724 1.386 . S
C2725 C2729 1.393 . S
C2726 H2718 0.950 . S
C2726 C2724 1.391 . S
C2726 C2727 1.400 . S
C2727 C2726 1.400 . S
C2727 C2728 1.398 . S
C2727 C2733 1.491 . S
C2728 H2719 0.950 . S
C2728 C2727 1.398 . S
C2728 C2729 1.391 . S
C2729 H2717 0.950 . S
C2729 C2725 1.393 . S
C2729 C2728 1.391 . S
C2730 H2720 0.950 . S
C2730 C2731 1.386 . S
C2730 C2732 1.391 . S
C2731 C2730 1.386 . S
C2731 C2735 1.393 . S
C2732 H2721 0.950 . S
C2732 C2730 1.391 . S
C2732 C2733 1.400 . S
C2733 C2727 1.491 . S
C2733 C2732 1.400 . S
C2733 C2734 1.398 . S
C2734 H2722 0.950 . S
C2734 C2733 1.398 . S
C2734 C2735 1.391 . S
C2735 H2723 0.950 . S
C2735 C2731 1.393 . S
C2735 C2734 1.391 . S
H2736 C2744 0.950 . S
H2737 C2749 0.950 . S
H2738 C2746 0.950 . S
H2739 C2748 0.950 . S
H2740 C2750 0.950 . S
H2741 C2752 0.950 . S
H2742 C2754 0.950 . S
H2743 C2755 0.950 . S
C2744 H2736 0.950 . S
C2744 C2745 1.386 1_655 S
C2744 C2746 1.391 . S
C2745 C2744 1.386 1_455 S
C2745 C2749 1.393 . S
C2746 H2738 0.950 . S
C2746 C2744 1.391 . S
C2746 C2747 1.400 1_655 S
C2747 C2746 1.400 1_455 S
C2747 C2748 1.398 . S
C2747 C2753 1.491 . S
C2748 H2739 0.950 . S
C2748 C2747 1.398 . S
C2748 C2749 1.391 . S
C2749 H2737 0.950 . S
C2749 C2745 1.393 . S
C2749 C2748 1.391 . S
C2750 H2740 0.950 . S
C2750 C2751 1.386 . S
C2750 C2752 1.391 . S
C2751 C2750 1.386 . S
C2751 C2755 1.393 1_455 S
C2752 H2741 0.950 . S
C2752 C2750 1.391 . S
C2752 C2753 1.400 . S
C2753 C2747 1.491 . S
C2753 C2752 1.400 . S
C2753 C2754 1.398 1_455 S
C2754 H2742 0.950 . S
C2754 C2753 1.398 1_655 S
C2754 C2755 1.391 . S
C2755 H2743 0.950 . S
C2755 C2751 1.393 1_655 S
C2755 C2754 1.391 . S
H2756 C2764 0.950 . S
H2757 C2769 0.950 . S
H2758 C2766 0.950 . S
H2759 C2768 0.950 . S
H2760 C2770 0.950 . S
H2761 C2772 0.950 . S
H2762 C2774 0.950 . S
H2763 C2775 0.950 . S
C2764 H2756 0.950 . S
C2764 C2765 1.386 . S
C2764 C2766 1.391 . S
C2765 C2764 1.386 . S
C2765 C2769 1.393 . S
C2766 H2758 0.950 . S
C2766 C2764 1.391 . S
C2766 C2767 1.400 . S
C2767 C2766 1.400 . S
C2767 C2768 1.398 . S
C2767 C2773 1.491 . S
C2768 H2759 0.950 . S
C2768 C2767 1.398 . S
C2768 C2769 1.391 . S
C2769 H2757 0.950 . S
C2769 C2765 1.393 . S
C2769 C2768 1.391 . S
C2770 H2760 0.950 . S
C2770 C2771 1.386 . S
C2770 C2772 1.391 . S
C2771 C2770 1.386 . S
C2771 C2775 1.393 . S
C2772 H2761 0.950 . S
C2772 C2770 1.391 . S
C2772 C2773 1.400 . S
C2773 C2767 1.491 . S
C2773 C2772 1.400 . S
C2773 C2774 1.398 . S
C2774 H2762 0.950 . S
C2774 C2773 1.398 . S
C2774 C2775 1.391 . S
C2775 H2763 0.950 . S
C2775 C2771 1.393 . S
C2775 C2774 1.391 . S
H2776 C2784 0.950 . S
H2777 C2789 0.950 . S
H2778 C2786 0.950 . S
H2779 C2788 0.950 . S
H2780 C2790 0.950 . S
H2781 C2792 0.950 . S
H2782 C2794 0.950 . S
H2783 C2795 0.950 . S
C2784 H2776 0.950 . S
C2784 C2785 1.386 . S
C2784 C2786 1.391 . S
C2785 C2784 1.386 . S
C2785 C2789 1.393 . S
C2786 H2778 0.950 . S
C2786 C2784 1.391 . S
C2786 C2787 1.400 . S
C2787 C2786 1.400 . S
C2787 C2788 1.398 . S
C2787 C2793 1.491 . S
C2788 H2779 0.950 . S
C2788 C2787 1.398 . S
C2788 C2789 1.391 . S
C2789 H2777 0.950 . S
C2789 C2785 1.393 . S
C2789 C2788 1.391 . S
C2790 H2780 0.950 . S
C2790 C2791 1.386 . S
C2790 C2792 1.391 . S
C2791 C2790 1.386 . S
C2791 C2795 1.393 . S
C2792 H2781 0.950 . S
C2792 C2790 1.391 . S
C2792 C2793 1.400 . S
C2793 C2787 1.491 . S
C2793 C2792 1.400 . S
C2793 C2794 1.398 . S
C2794 H2782 0.950 . S
C2794 C2793 1.398 . S
C2794 C2795 1.391 . S
C2795 H2783 0.950 . S
C2795 C2791 1.393 . S
C2795 C2794 1.391 . S
H2796 C2804 0.950 . S
H2797 C2809 0.950 . S
H2798 C2806 0.950 . S
H2799 C2808 0.951 . S
H2800 C2810 0.950 . S
H2801 C2812 0.950 . S
H2802 C2814 0.950 . S
H2803 C2815 0.950 . S
C2804 H2796 0.950 . S
C2804 C2805 1.386 1_556 S
C2804 C2806 1.391 . S
C2805 C2804 1.386 1_554 S
C2805 C2809 1.393 . S
C2806 H2798 0.950 . S
C2806 C2804 1.391 . S
C2806 C2807 1.400 . S
C2807 C2806 1.400 . S
C2807 C2808 1.398 . S
C2807 C2813 1.491 . S
C2808 H2799 0.951 . S
C2808 C2807 1.398 . S
C2808 C2809 1.391 1_556 S
C2809 H2797 0.950 . S
C2809 C2805 1.393 . S
C2809 C2808 1.391 1_554 S
C2810 H2800 0.950 . S
C2810 C2811 1.386 . S
C2810 C2812 1.391 . S
C2811 C2810 1.386 . S
C2811 C2815 1.393 . S
C2812 H2801 0.950 . S
C2812 C2810 1.391 . S
C2812 C2813 1.400 . S
C2813 C2807 1.491 . S
C2813 C2812 1.400 . S
C2813 C2814 1.398 . S
C2814 H2802 0.950 . S
C2814 C2813 1.398 . S
C2814 C2815 1.391 . S
C2815 H2803 0.950 . S
C2815 C2811 1.393 . S
C2815 C2814 1.391 . S
H2816 C2824 0.950 . S
H2817 C2829 0.950 . S
H2818 C2826 0.950 . S
H2819 C2828 0.950 . S
H2820 C2830 0.950 . S
H2821 C2832 0.950 . S
H2822 C2834 0.950 . S
H2823 C2835 0.950 . S
C2824 H2816 0.950 . S
C2824 C2825 1.386 . S
C2824 C2826 1.391 . S
C2825 C2824 1.386 . S
C2825 C2829 1.393 . S
C2826 H2818 0.950 . S
C2826 C2824 1.391 . S
C2826 C2827 1.400 . S
C2827 C2826 1.400 . S
C2827 C2828 1.398 . S
C2827 C2833 1.491 . S
C2828 H2819 0.950 . S
C2828 C2827 1.398 . S
C2828 C2829 1.391 . S
C2829 H2817 0.950 . S
C2829 C2825 1.393 . S
C2829 C2828 1.391 . S
C2830 H2820 0.950 . S
C2830 C2831 1.386 . S
C2830 C2832 1.391 . S
C2831 C2830 1.386 . S
C2831 C2835 1.393 . S
C2832 H2821 0.950 . S
C2832 C2830 1.391 . S
C2832 C2833 1.400 . S
C2833 C2827 1.491 . S
C2833 C2832 1.400 . S
C2833 C2834 1.398 . S
C2834 H2822 0.950 . S
C2834 C2833 1.398 . S
C2834 C2835 1.391 . S
C2835 H2823 0.950 . S
C2835 C2831 1.393 . S
C2835 C2834 1.391 . S
H2836 C2844 0.950 . S
H2837 C2849 0.950 . S
H2838 C2846 0.950 . S
H2839 C2848 0.950 . S
H2840 C2850 0.950 . S
H2841 C2852 0.950 . S
H2842 C2854 0.950 . S
H2843 C2855 0.950 . S
C2844 H2836 0.950 . S
C2844 C2845 1.386 . S
C2844 C2846 1.391 . S
C2845 C2844 1.386 . S
C2845 C2849 1.393 . S
C2846 H2838 0.950 . S
C2846 C2844 1.391 . S
C2846 C2847 1.400 . S
C2847 C2846 1.400 . S
C2847 C2848 1.398 . S
C2847 C2853 1.491 . S
C2848 H2839 0.950 . S
C2848 C2847 1.398 . S
C2848 C2849 1.391 . S
C2849 H2837 0.950 . S
C2849 C2845 1.393 . S
C2849 C2848 1.391 . S
C2850 H2840 0.950 . S
C2850 C2851 1.386 . S
C2850 C2852 1.391 . S
C2851 C2850 1.386 . S
C2851 C2855 1.393 . S
C2852 H2841 0.950 . S
C2852 C2850 1.391 . S
C2852 C2853 1.400 . S
C2853 C2847 1.491 . S
C2853 C2852 1.400 . S
C2853 C2854 1.398 . S
C2854 H2842 0.950 . S
C2854 C2853 1.398 . S
C2854 C2855 1.391 . S
C2855 H2843 0.950 . S
C2855 C2851 1.393 . S
C2855 C2854 1.391 . S
H2856 C2864 0.950 . S
H2857 C2869 0.950 . S
H2858 C2866 0.950 . S
H2859 C2868 0.950 . S
H2860 C2870 0.950 . S
H2861 C2872 0.950 . S
H2862 C2874 0.950 . S
H2863 C2875 0.950 . S
C2864 H2856 0.950 . S
C2864 C2865 1.386 . S
C2864 C2866 1.391 . S
C2865 C2864 1.386 . S
C2865 C2869 1.393 . S
C2866 H2858 0.950 . S
C2866 C2864 1.391 . S
C2866 C2867 1.400 . S
C2867 C2866 1.400 . S
C2867 C2868 1.398 . S
C2867 C2873 1.491 . S
C2868 H2859 0.950 . S
C2868 C2867 1.398 . S
C2868 C2869 1.391 . S
C2869 H2857 0.950 . S
C2869 C2865 1.393 . S
C2869 C2868 1.391 . S
C2870 H2860 0.950 . S
C2870 C2871 1.386 . S
C2870 C2872 1.391 . S
C2871 C2870 1.386 . S
C2871 C2875 1.393 . S
C2872 H2861 0.950 . S
C2872 C2870 1.391 . S
C2872 C2873 1.400 . S
C2873 C2867 1.491 . S
C2873 C2872 1.400 . S
C2873 C2874 1.398 . S
C2874 H2862 0.950 . S
C2874 C2873 1.398 . S
C2874 C2875 1.391 . S
C2875 H2863 0.950 . S
C2875 C2871 1.393 . S
C2875 C2874 1.391 . S
H2876 C2884 0.950 . S
H2877 C2889 0.950 . S
H2878 C2886 0.950 . S
H2879 C2888 0.950 . S
H2880 C2890 0.950 . S
H2881 C2892 0.950 . S
H2882 C2894 0.950 . S
H2883 C2895 0.950 . S
C2884 H2876 0.950 . S
C2884 C2885 1.386 . S
C2884 C2886 1.391 . S
C2885 C2884 1.386 . S
C2885 C2889 1.393 . S
C2886 H2878 0.950 . S
C2886 C2884 1.391 . S
C2886 C2887 1.400 . S
C2887 C2886 1.400 . S
C2887 C2888 1.398 . S
C2887 C2893 1.491 . S
C2888 H2879 0.950 . S
C2888 C2887 1.398 . S
C2888 C2889 1.391 . S
C2889 H2877 0.950 . S
C2889 C2885 1.393 . S
C2889 C2888 1.391 . S
C2890 H2880 0.950 . S
C2890 C2891 1.386 . S
C2890 C2892 1.391 . S
C2891 C2890 1.386 . S
C2891 C2895 1.393 . S
C2892 H2881 0.950 . S
C2892 C2890 1.391 . S
C2892 C2893 1.400 . S
C2893 C2887 1.491 . S
C2893 C2892 1.400 . S
C2893 C2894 1.398 . S
C2894 H2882 0.950 . S
C2894 C2893 1.398 . S
C2894 C2895 1.391 . S
C2895 H2883 0.950 . S
C2895 C2891 1.393 . S
C2895 C2894 1.391 . S
H2896 C2904 0.950 . S
H2897 C2909 0.950 . S
H2898 C2906 0.950 . S
H2899 C2908 0.950 . S
H2900 C2910 0.950 . S
H2901 C2912 0.950 . S
H2902 C2914 0.950 . S
H2903 C2915 0.950 . S
C2904 H2896 0.950 . S
C2904 C2905 1.386 . S
C2904 C2906 1.391 . S
C2905 C2904 1.386 . S
C2905 C2909 1.393 . S
C2906 H2898 0.950 . S
C2906 C2904 1.391 . S
C2906 C2907 1.400 . S
C2907 C2906 1.400 . S
C2907 C2908 1.398 . S
C2907 C2913 1.491 . S
C2908 H2899 0.950 . S
C2908 C2907 1.398 . S
C2908 C2909 1.391 . S
C2909 H2897 0.950 . S
C2909 C2905 1.393 . S
C2909 C2908 1.391 . S
C2910 H2900 0.950 . S
C2910 C2911 1.386 . S
C2910 C2912 1.391 . S
C2911 C2910 1.386 . S
C2911 C2915 1.393 . S
C2912 H2901 0.950 . S
C2912 C2910 1.391 . S
C2912 C2913 1.400 . S
C2913 C2907 1.491 . S
C2913 C2912 1.400 . S
C2913 C2914 1.398 . S
C2914 H2902 0.950 . S
C2914 C2913 1.398 . S
C2914 C2915 1.391 . S
C2915 H2903 0.950 . S
C2915 C2911 1.393 . S
C2915 C2914 1.391 . S
H2916 C2924 0.950 . S
H2917 C2929 0.950 . S
H2918 C2926 0.950 . S
H2919 C2928 0.950 . S
H2920 C2930 0.950 . S
H2921 C2932 0.950 . S
H2922 C2934 0.950 . S
H2923 C2935 0.950 . S
C2924 H2916 0.950 . S
C2924 C2925 1.386 . S
C2924 C2926 1.391 . S
C2925 C2924 1.386 . S
C2925 C2929 1.393 . S
C2926 H2918 0.950 . S
C2926 C2924 1.391 . S
C2926 C2927 1.400 . S
C2927 C2926 1.400 . S
C2927 C2928 1.398 . S
C2927 C2933 1.491 . S
C2928 H2919 0.950 . S
C2928 C2927 1.398 . S
C2928 C2929 1.391 . S
C2929 H2917 0.950 . S
C2929 C2925 1.393 . S
C2929 C2928 1.391 . S
C2930 H2920 0.950 . S
C2930 C2931 1.386 . S
C2930 C2932 1.391 . S
C2931 C2930 1.386 . S
C2931 C2935 1.393 . S
C2932 H2921 0.950 . S
C2932 C2930 1.391 . S
C2932 C2933 1.400 . S
C2933 C2927 1.491 . S
C2933 C2932 1.400 . S
C2933 C2934 1.398 . S
C2934 H2922 0.950 . S
C2934 C2933 1.398 . S
C2934 C2935 1.391 . S
C2935 H2923 0.950 . S
C2935 C2931 1.393 . S
C2935 C2934 1.391 . S
H2936 C2944 0.950 . S
H2937 C2949 0.950 . S
H2938 C2946 0.950 . S
H2939 C2948 0.950 . S
H2940 C2950 0.950 . S
H2941 C2952 0.950 . S
H2942 C2954 0.950 . S
H2943 C2955 0.950 . S
C2944 H2936 0.950 . S
C2944 C2945 1.386 . S
C2944 C2946 1.391 . S
C2945 C2944 1.386 . S
C2945 C2949 1.393 . S
C2946 H2938 0.950 . S
C2946 C2944 1.391 . S
C2946 C2947 1.400 . S
C2947 C2946 1.400 . S
C2947 C2948 1.398 . S
C2947 C2953 1.491 . S
C2948 H2939 0.950 . S
C2948 C2947 1.398 . S
C2948 C2949 1.391 . S
C2949 H2937 0.950 . S
C2949 C2945 1.393 . S
C2949 C2948 1.391 . S
C2950 H2940 0.950 . S
C2950 C2951 1.386 . S
C2950 C2952 1.391 . S
C2951 C2950 1.386 . S
C2951 C2955 1.393 . S
C2952 H2941 0.950 . S
C2952 C2950 1.391 . S
C2952 C2953 1.400 . S
C2953 C2947 1.491 . S
C2953 C2952 1.400 . S
C2953 C2954 1.398 . S
C2954 H2942 0.950 . S
C2954 C2953 1.398 . S
C2954 C2955 1.391 . S
C2955 H2943 0.950 . S
C2955 C2951 1.393 . S
C2955 C2954 1.391 . S
H2956 C2964 0.950 . S
H2957 C2969 0.950 . S
H2958 C2966 0.950 . S
H2959 C2968 0.950 . S
H2960 C2970 0.950 . S
H2961 C2972 0.950 . S
H2962 C2974 0.950 . S
H2963 C2975 0.950 . S
C2964 H2956 0.950 . S
C2964 C2965 1.386 . S
C2964 C2966 1.391 . S
C2965 C2964 1.386 . S
C2965 C2969 1.393 . S
C2966 H2958 0.950 . S
C2966 C2964 1.391 . S
C2966 C2967 1.400 . S
C2967 C2966 1.400 . S
C2967 C2968 1.398 . S
C2967 C2973 1.491 . S
C2968 H2959 0.950 . S
C2968 C2967 1.398 . S
C2968 C2969 1.391 . S
C2969 H2957 0.950 . S
C2969 C2965 1.393 . S
C2969 C2968 1.391 . S
C2970 H2960 0.950 . S
C2970 C2971 1.386 . S
C2970 C2972 1.391 . S
C2971 C2970 1.386 . S
C2971 C2975 1.393 . S
C2972 H2961 0.950 . S
C2972 C2970 1.391 . S
C2972 C2973 1.400 . S
C2973 C2967 1.491 . S
C2973 C2972 1.400 . S
C2973 C2974 1.398 . S
C2974 H2962 0.950 . S
C2974 C2973 1.398 . S
C2974 C2975 1.391 . S
C2975 H2963 0.950 . S
C2975 C2971 1.393 . S
C2975 C2974 1.391 . S
H2976 C2984 0.950 . S
H2977 C2989 0.900 1_545 S
H2978 C2986 0.950 . S
H2979 C2988 0.950 . S
H2980 C2990 0.950 . S
H2981 C2992 0.950 . S
H2982 C2994 0.950 . S
H2983 C2995 0.950 . S
C2984 H2976 0.950 . S
C2984 C2985 1.386 . S
C2984 C2986 1.391 . S
C2985 C2984 1.386 . S
C2985 C2989 1.401 . S
C2986 H2978 0.950 . S
C2986 C2984 1.391 . S
C2986 C2987 1.400 . S
C2987 C2986 1.400 . S
C2987 C2988 1.398 . S
C2987 C2993 1.491 . S
C2988 H2979 0.950 . S
C2988 C2987 1.398 . S
C2988 C2989 1.434 . S
C2989 H2977 0.900 1_565 S
C2989 C2985 1.401 . S
C2989 C2988 1.434 . S
C2990 H2980 0.950 . S
C2990 C2991 1.386 . S
C2990 C2992 1.391 . S
C2991 C2990 1.386 . S
C2991 C2995 1.393 . S
C2992 H2981 0.950 . S
C2992 C2990 1.391 . S
C2992 C2993 1.400 . S
C2993 C2987 1.491 . S
C2993 C2992 1.400 . S
C2993 C2994 1.398 . S
C2994 H2982 0.950 . S
C2994 C2993 1.398 . S
C2994 C2995 1.391 . S
C2995 H2983 0.950 . S
C2995 C2991 1.393 . S
C2995 C2994 1.391 . S
H2996 C3004 0.950 . S
H2997 C3009 0.950 . S
H2998 C3006 0.950 . S
H2999 C3008 0.950 . S
H3000 C3010 0.950 . S
H3001 C3012 0.950 . S
H3002 C3014 0.950 . S
H3003 C3015 0.950 . S
C3004 H2996 0.950 . S
C3004 C3005 1.370 1_554 S
C3004 C3006 1.391 . S
C3005 C3004 1.370 1_556 S
C3005 C3009 1.410 . S
C3006 H2998 0.950 . S
C3006 C3004 1.391 . S
C3006 C3007 1.400 . S
C3007 C3006 1.400 . S
C3007 C3008 1.398 1_554 S
C3007 C3013 1.491 . S
C3008 H2999 0.950 . S
C3008 C3007 1.398 1_556 S
C3008 C3009 1.391 . S
C3009 H2997 0.950 . S
C3009 C3005 1.410 . S
C3009 C3008 1.391 . S
C3010 H3000 0.950 . S
C3010 C3011 1.386 1_556 S
C3010 C3012 1.391 1_545 S
C3011 C3010 1.386 1_554 S
C3011 C3015 1.393 . S
C3012 H3001 0.950 . S
C3012 C3010 1.391 1_565 S
C3012 C3013 1.400 1_556 S
C3013 C3007 1.491 . S
C3013 C3012 1.400 1_554 S
C3013 C3014 1.398 1_565 S
C3014 H3002 0.950 . S
C3014 C3013 1.398 1_545 S
C3014 C3015 1.391 . S
C3015 H3003 0.950 . S
C3015 C3011 1.393 . S
C3015 C3014 1.391 . S
H3016 C3024 0.950 . S
H3017 C3029 0.950 . S
H3018 C3026 0.950 . S
H3019 C3028 0.950 . S
H3020 C3030 0.950 . S
H3021 C3032 0.950 . S
H3022 C3034 0.950 . S
H3023 C3035 0.950 . S
C3024 H3016 0.950 . S
C3024 C3025 1.386 . S
C3024 C3026 1.391 . S
C3025 C3024 1.386 . S
C3025 C3029 1.393 . S
C3026 H3018 0.950 . S
C3026 C3024 1.391 . S
C3026 C3027 1.400 . S
C3027 C3026 1.400 . S
C3027 C3028 1.398 . S
C3027 C3033 1.491 . S
C3028 H3019 0.950 . S
C3028 C3027 1.398 . S
C3028 C3029 1.391 . S
C3029 H3017 0.950 . S
C3029 C3025 1.393 . S
C3029 C3028 1.391 . S
C3030 H3020 0.950 . S
C3030 C3031 1.386 . S
C3030 C3032 1.391 . S
C3031 C3030 1.386 . S
C3031 C3035 1.393 . S
C3032 H3021 0.950 . S
C3032 C3030 1.391 . S
C3032 C3033 1.400 . S
C3033 C3027 1.491 . S
C3033 C3032 1.400 . S
C3033 C3034 1.398 . S
C3034 H3022 0.950 . S
C3034 C3033 1.398 . S
C3034 C3035 1.391 . S
C3035 H3023 0.950 . S
C3035 C3031 1.393 . S
C3035 C3034 1.391 . S
H3036 C3044 0.950 1_556 S
H3037 C3049 0.950 . S
H3038 C3046 0.976 . S
H3039 C3048 0.950 . S
H3040 C3050 0.950 . S
H3041 C3052 0.950 . S
H3042 C3054 0.950 . S
H3043 C3055 0.950 . S
C3044 H3036 0.950 1_554 S
C3044 C3045 1.386 . S
C3044 C3046 1.391 . S
C3045 C3044 1.386 . S
C3045 C3049 1.393 . S
C3046 H3038 0.976 . S
C3046 C3044 1.391 . S
C3046 C3047 1.400 . S
C3047 C3046 1.400 . S
C3047 C3048 1.398 . S
C3047 C3053 1.491 . S
C3048 H3039 0.950 . S
C3048 C3047 1.398 . S
C3048 C3049 1.391 . S
C3049 H3037 0.950 . S
C3049 C3045 1.393 . S
C3049 C3048 1.391 . S
C3050 H3040 0.950 . S
C3050 C3051 1.386 . S
C3050 C3052 1.391 . S
C3051 C3050 1.386 . S
C3051 C3055 1.393 . S
C3052 H3041 0.950 . S
C3052 C3050 1.391 . S
C3052 C3053 1.400 . S
C3053 C3047 1.491 . S
C3053 C3052 1.400 . S
C3053 C3054 1.398 . S
C3054 H3042 0.950 . S
C3054 C3053 1.398 . S
C3054 C3055 1.391 . S
C3055 H3043 0.950 . S
C3055 C3051 1.393 . S
C3055 C3054 1.391 . S
H3056 C3064 0.950 . S
H3057 C3069 0.950 . S
H3058 C3066 0.950 . S
H3059 C3068 0.950 . S
H3060 C3070 0.950 . S
H3061 C3072 0.950 . S
H3062 C3074 0.950 . S
H3063 C3075 0.950 . S
C3064 H3056 0.950 . S
C3064 C3065 1.386 . S
C3064 C3066 1.391 . S
C3065 C3064 1.386 . S
C3065 C3069 1.393 . S
C3066 H3058 0.950 . S
C3066 C3064 1.391 . S
C3066 C3067 1.400 . S
C3067 C3066 1.400 . S
C3067 C3068 1.398 . S
C3067 C3073 1.491 . S
C3068 H3059 0.950 . S
C3068 C3067 1.398 . S
C3068 C3069 1.391 . S
C3069 H3057 0.950 . S
C3069 C3065 1.393 . S
C3069 C3068 1.391 . S
C3070 H3060 0.950 . S
C3070 C3071 1.386 . S
C3070 C3072 1.391 . S
C3071 C3070 1.386 . S
C3071 C3075 1.393 . S
C3072 H3061 0.950 . S
C3072 C3070 1.391 . S
C3072 C3073 1.400 . S
C3073 C3067 1.491 . S
C3073 C3072 1.400 . S
C3073 C3074 1.398 . S
C3074 H3062 0.950 . S
C3074 C3073 1.398 . S
C3074 C3075 1.391 . S
C3075 H3063 0.950 . S
C3075 C3071 1.393 . S
C3075 C3074 1.391 . S
H3076 C3084 0.950 . S
H3077 C3089 0.950 . S
H3078 C3086 0.950 . S
H3079 C3088 0.950 . S
H3080 C3090 0.950 . S
H3081 C3092 0.950 . S
H3082 C3094 0.950 . S
H3083 C3095 0.950 . S
C3084 H3076 0.950 . S
C3084 C3085 1.386 . S
C3084 C3086 1.391 . S
C3085 C3084 1.386 . S
C3085 C3089 1.393 . S
C3086 H3078 0.950 . S
C3086 C3084 1.391 . S
C3086 C3087 1.400 . S
C3087 C3086 1.400 . S
C3087 C3088 1.398 . S
C3087 C3093 1.491 . S
C3088 H3079 0.950 . S
C3088 C3087 1.398 . S
C3088 C3089 1.391 . S
C3089 H3077 0.950 . S
C3089 C3085 1.393 . S
C3089 C3088 1.391 . S
C3090 H3080 0.950 . S
C3090 C3091 1.386 . S
C3090 C3092 1.391 . S
C3091 C3090 1.386 . S
C3091 C3095 1.393 . S
C3092 H3081 0.950 . S
C3092 C3090 1.391 . S
C3092 C3093 1.400 . S
C3093 C3087 1.491 . S
C3093 C3092 1.400 . S
C3093 C3094 1.398 . S
C3094 H3082 0.950 . S
C3094 C3093 1.398 . S
C3094 C3095 1.391 . S
C3095 H3083 0.950 . S
C3095 C3091 1.393 . S
C3095 C3094 1.391 . S
H3096 C3104 0.950 . S
H3097 C3109 0.950 . S
H3098 C3106 0.950 . S
H3099 C3108 0.950 . S
H3100 C3110 0.950 . S
H3101 C3112 0.950 . S
H3102 C3114 0.950 . S
H3103 C3115 0.950 . S
C3104 H3096 0.950 . S
C3104 C3105 1.386 . S
C3104 C3106 1.391 . S
C3105 C3104 1.386 . S
C3105 C3109 1.393 . S
C3106 H3098 0.950 . S
C3106 C3104 1.391 . S
C3106 C3107 1.400 . S
C3107 C3106 1.400 . S
C3107 C3108 1.398 . S
C3107 C3113 1.491 . S
C3108 H3099 0.950 . S
C3108 C3107 1.398 . S
C3108 C3109 1.391 . S
C3109 H3097 0.950 . S
C3109 C3105 1.393 . S
C3109 C3108 1.391 . S
C3110 H3100 0.950 . S
C3110 C3111 1.386 . S
C3110 C3112 1.391 . S
C3111 C3110 1.386 . S
C3111 C3115 1.393 . S
C3112 H3101 0.950 . S
C3112 C3110 1.391 . S
C3112 C3113 1.400 . S
C3113 C3107 1.491 . S
C3113 C3112 1.400 . S
C3113 C3114 1.398 . S
C3114 H3102 0.950 . S
C3114 C3113 1.398 . S
C3114 C3115 1.391 . S
C3115 H3103 0.950 . S
C3115 C3111 1.393 . S
C3115 C3114 1.391 . S
H3116 C3124 0.950 . S
H3117 C3129 0.950 . S
H3118 C3126 0.950 . S
H3119 C3128 0.950 . S
H3120 C3130 0.950 . S
H3121 C3132 0.950 . S
H3122 C3134 0.950 . S
H3123 C3135 0.950 . S
C3124 H3116 0.950 . S
C3124 C3125 1.386 . S
C3124 C3126 1.391 . S
C3125 C3124 1.386 . S
C3125 C3129 1.393 . S
C3126 H3118 0.950 . S
C3126 C3124 1.391 . S
C3126 C3127 1.400 . S
C3127 C3126 1.400 . S
C3127 C3128 1.398 . S
C3127 C3133 1.491 . S
C3128 H3119 0.950 . S
C3128 C3127 1.398 . S
C3128 C3129 1.391 . S
C3129 H3117 0.950 . S
C3129 C3125 1.393 . S
C3129 C3128 1.391 . S
C3130 H3120 0.950 . S
C3130 C3131 1.386 . S
C3130 C3132 1.391 . S
C3131 C3130 1.386 . S
C3131 C3135 1.393 . S
C3132 H3121 0.950 . S
C3132 C3130 1.391 . S
C3132 C3133 1.400 . S
C3133 C3127 1.491 . S
C3133 C3132 1.400 . S
C3133 C3134 1.398 . S
C3134 H3122 0.950 . S
C3134 C3133 1.398 . S
C3134 C3135 1.391 . S
C3135 H3123 0.950 . S
C3135 C3131 1.393 . S
C3135 C3134 1.391 . S
H3136 C3144 0.950 . S
H3137 C3149 0.950 . S
H3138 C3146 0.950 . S
H3139 C3148 0.950 . S
H3140 C3150 0.950 . S
H3141 C3152 0.950 . S
H3142 C3154 0.950 . S
H3143 C3155 0.950 . S
C3144 H3136 0.950 . S
C3144 C3145 1.386 . S
C3144 C3146 1.391 . S
C3145 C3144 1.386 . S
C3145 C3149 1.393 . S
C3146 H3138 0.950 . S
C3146 C3144 1.391 . S
C3146 C3147 1.400 . S
C3147 C3146 1.400 . S
C3147 C3148 1.398 . S
C3147 C3153 1.491 . S
C3148 H3139 0.950 . S
C3148 C3147 1.398 . S
C3148 C3149 1.391 . S
C3149 H3137 0.950 . S
C3149 C3145 1.393 . S
C3149 C3148 1.391 . S
C3150 H3140 0.950 . S
C3150 C3151 1.386 . S
C3150 C3152 1.391 . S
C3151 C3150 1.386 . S
C3151 C3155 1.393 . S
C3152 H3141 0.950 . S
C3152 C3150 1.391 . S
C3152 C3153 1.400 . S
C3153 C3147 1.491 . S
C3153 C3152 1.400 . S
C3153 C3154 1.398 . S
C3154 H3142 0.950 . S
C3154 C3153 1.398 . S
C3154 C3155 1.391 . S
C3155 H3143 0.950 . S
C3155 C3151 1.393 . S
C3155 C3154 1.391 . S
H3156 C3164 0.950 . S
H3157 C3169 0.950 . S
H3158 C3166 0.950 . S
H3159 C3168 0.950 . S
H3160 C3170 0.950 . S
H3161 C3172 0.950 . S
H3162 C3174 0.950 . S
H3163 C3175 0.950 . S
C3164 H3156 0.950 . S
C3164 C3165 1.386 . S
C3164 C3166 1.391 . S
C3165 C3164 1.386 . S
C3165 C3169 1.393 . S
C3166 H3158 0.950 . S
C3166 C3164 1.391 . S
C3166 C3167 1.400 . S
C3167 C3166 1.400 . S
C3167 C3168 1.398 . S
C3167 C3173 1.491 . S
C3168 H3159 0.950 . S
C3168 C3167 1.398 . S
C3168 C3169 1.391 . S
C3169 H3157 0.950 . S
C3169 C3165 1.393 . S
C3169 C3168 1.391 . S
C3170 H3160 0.950 . S
C3170 C3171 1.386 . S
C3170 C3172 1.391 . S
C3171 C3170 1.386 . S
C3171 C3175 1.393 . S
C3172 H3161 0.950 . S
C3172 C3170 1.391 . S
C3172 C3173 1.400 . S
C3173 C3167 1.491 . S
C3173 C3172 1.400 . S
C3173 C3174 1.398 . S
C3174 H3162 0.950 . S
C3174 C3173 1.398 . S
C3174 C3175 1.391 . S
C3175 H3163 0.950 . S
C3175 C3171 1.393 . S
C3175 C3174 1.391 . S
H3176 C3184 0.950 . S
H3177 C3189 0.950 . S
H3178 C3186 0.950 . S
H3179 C3188 0.950 . S
H3180 C3190 0.950 . S
H3181 C3192 0.950 . S
H3182 C3194 0.950 . S
H3183 C3195 0.950 . S
C3184 H3176 0.950 . S
C3184 C3185 1.386 . S
C3184 C3186 1.391 . S
C3185 C3184 1.386 . S
C3185 C3189 1.393 . S
C3186 H3178 0.950 . S
C3186 C3184 1.391 . S
C3186 C3187 1.400 . S
C3187 C3186 1.400 . S
C3187 C3188 1.398 . S
C3187 C3193 1.491 . S
C3188 H3179 0.950 . S
C3188 C3187 1.398 . S
C3188 C3189 1.391 . S
C3189 H3177 0.950 . S
C3189 C3185 1.393 . S
C3189 C3188 1.391 . S
C3190 H3180 0.950 . S
C3190 C3191 1.386 . S
C3190 C3192 1.391 . S
C3191 C3190 1.386 . S
C3191 C3195 1.393 . S
C3192 H3181 0.950 . S
C3192 C3190 1.391 . S
C3192 C3193 1.400 . S
C3193 C3187 1.491 . S
C3193 C3192 1.400 . S
C3193 C3194 1.398 . S
C3194 H3182 0.950 . S
C3194 C3193 1.398 . S
C3194 C3195 1.391 . S
C3195 H3183 0.950 . S
C3195 C3191 1.393 . S
C3195 C3194 1.391 . S
H3196 C3204 0.950 . S
H3197 C3209 0.950 . S
H3198 C3206 0.950 . S
H3199 C3208 0.950 . S
H3200 C3210 0.950 . S
H3201 C3212 0.950 . S
H3202 C3214 0.950 . S
H3203 C3215 0.950 . S
C3204 H3196 0.950 . S
C3204 C3205 1.386 . S
C3204 C3206 1.391 . S
C3205 C3204 1.386 . S
C3205 C3209 1.393 . S
C3206 H3198 0.950 . S
C3206 C3204 1.391 . S
C3206 C3207 1.400 . S
C3207 C3206 1.400 . S
C3207 C3208 1.398 . S
C3207 C3213 1.491 . S
C3208 H3199 0.950 . S
C3208 C3207 1.398 . S
C3208 C3209 1.391 . S
C3209 H3197 0.950 . S
C3209 C3205 1.393 . S
C3209 C3208 1.391 . S
C3210 H3200 0.950 . S
C3210 C3211 1.386 . S
C3210 C3212 1.391 . S
C3211 C3210 1.386 . S
C3211 C3215 1.393 . S
C3212 H3201 0.950 . S
C3212 C3210 1.391 . S
C3212 C3213 1.400 . S
C3213 C3207 1.491 . S
C3213 C3212 1.400 . S
C3213 C3214 1.398 . S
C3214 H3202 0.950 . S
C3214 C3213 1.398 . S
C3214 C3215 1.391 . S
C3215 H3203 0.950 . S
C3215 C3211 1.393 . S
C3215 C3214 1.391 . S
H3216 C3224 0.950 . S
H3217 C3229 0.950 . S
H3218 C3226 0.950 . S
H3219 C3228 0.950 . S
H3220 C3230 0.950 1_655 S
H3221 C3232 0.919 1_655 S
H3222 C3234 0.950 . S
H3223 C3235 0.950 . S
C3224 H3216 0.950 . S
C3224 C3225 1.386 . S
C3224 C3226 1.391 . S
C3225 C3224 1.386 . S
C3225 C3229 1.393 . S
C3226 H3218 0.950 . S
C3226 C3224 1.391 . S
C3226 C3227 1.400 . S
C3227 C3226 1.400 . S
C3227 C3228 1.398 . S
C3227 C3233 1.491 . S
C3228 H3219 0.950 . S
C3228 C3227 1.398 . S
C3228 C3229 1.391 . S
C3229 H3217 0.950 . S
C3229 C3225 1.393 . S
C3229 C3228 1.391 . S
C3230 H3220 0.950 1_455 S
C3230 C3231 1.386 . S
C3230 C3232 1.391 . S
C3231 C3230 1.386 . S
C3231 C3235 1.393 . S
C3232 H3221 0.919 1_455 S
C3232 C3230 1.391 . S
C3232 C3233 1.400 . S
C3233 C3227 1.491 . S
C3233 C3232 1.400 . S
C3233 C3234 1.398 . S
C3234 H3222 0.950 . S
C3234 C3233 1.398 . S
C3234 C3235 1.391 . S
C3235 H3223 0.950 . S
C3235 C3231 1.393 . S
C3235 C3234 1.391 . S
H3236 C3244 0.950 . S
H3237 C3249 0.950 . S
H3238 C3246 0.950 . S
H3239 C3248 0.950 . S
H3240 C3250 0.950 . S
H3241 C3252 0.950 . S
H3242 C3254 0.950 . S
H3243 C3255 0.950 . S
C3244 H3236 0.950 . S
C3244 C3245 1.386 . S
C3244 C3246 1.391 . S
C3245 C3244 1.386 . S
C3245 C3249 1.393 . S
C3246 H3238 0.950 . S
C3246 C3244 1.391 . S
C3246 C3247 1.400 . S
C3247 C3246 1.400 . S
C3247 C3248 1.398 . S
C3247 C3253 1.491 . S
C3248 H3239 0.950 . S
C3248 C3247 1.398 . S
C3248 C3249 1.391 . S
C3249 H3237 0.950 . S
C3249 C3245 1.393 . S
C3249 C3248 1.391 . S
C3250 H3240 0.950 . S
C3250 C3251 1.386 . S
C3250 C3252 1.391 . S
C3251 C3250 1.386 . S
C3251 C3255 1.393 . S
C3252 H3241 0.950 . S
C3252 C3250 1.391 . S
C3252 C3253 1.400 . S
C3253 C3247 1.491 . S
C3253 C3252 1.400 . S
C3253 C3254 1.398 . S
C3254 H3242 0.950 . S
C3254 C3253 1.398 . S
C3254 C3255 1.391 . S
C3255 H3243 0.950 . S
C3255 C3251 1.393 . S
C3255 C3254 1.391 . S
H3256 C3264 0.950 . S
H3257 C3269 0.950 . S
H3258 C3266 0.950 . S
H3259 C3268 0.950 . S
H3260 C3270 0.950 . S
H3261 C3272 0.950 . S
H3262 C3274 0.950 . S
H3263 C3275 0.950 . S
C3264 H3256 0.950 . S
C3264 C3265 1.386 . S
C3264 C3266 1.391 . S
C3265 C3264 1.386 . S
C3265 C3269 1.393 . S
C3266 H3258 0.950 . S
C3266 C3264 1.391 . S
C3266 C3267 1.400 . S
C3267 C3266 1.400 . S
C3267 C3268 1.398 . S
C3267 C3273 1.491 . S
C3268 H3259 0.950 . S
C3268 C3267 1.398 . S
C3268 C3269 1.391 . S
C3269 H3257 0.950 . S
C3269 C3265 1.393 . S
C3269 C3268 1.391 . S
C3270 H3260 0.950 . S
C3270 C3271 1.386 . S
C3270 C3272 1.391 . S
C3271 C3270 1.386 . S
C3271 C3275 1.393 . S
C3272 H3261 0.950 . S
C3272 C3270 1.391 . S
C3272 C3273 1.400 . S
C3273 C3267 1.491 . S
C3273 C3272 1.400 . S
C3273 C3274 1.398 . S
C3274 H3262 0.950 . S
C3274 C3273 1.398 . S
C3274 C3275 1.391 . S
C3275 H3263 0.950 . S
C3275 C3271 1.393 . S
C3275 C3274 1.391 . S
H3276 C3284 0.950 . S
H3277 C3289 0.950 . S
H3278 C3286 0.950 . S
H3279 C3288 0.950 . S
H3280 C3290 0.950 . S
H3281 C3292 0.950 . S
H3282 C3294 0.950 . S
H3283 C3295 0.950 . S
C3284 H3276 0.950 . S
C3284 C3285 1.386 . S
C3284 C3286 1.391 . S
C3285 C3284 1.386 . S
C3285 C3289 1.393 . S
C3286 H3278 0.950 . S
C3286 C3284 1.391 . S
C3286 C3287 1.400 . S
C3287 C3286 1.400 . S
C3287 C3288 1.398 . S
C3287 C3293 1.491 . S
C3288 H3279 0.950 . S
C3288 C3287 1.398 . S
C3288 C3289 1.391 . S
C3289 H3277 0.950 . S
C3289 C3285 1.393 . S
C3289 C3288 1.391 . S
C3290 H3280 0.950 . S
C3290 C3291 1.386 . S
C3290 C3292 1.391 . S
C3291 C3290 1.386 . S
C3291 C3295 1.393 . S
C3292 H3281 0.950 . S
C3292 C3290 1.391 . S
C3292 C3293 1.400 . S
C3293 C3287 1.491 . S
C3293 C3292 1.400 . S
C3293 C3294 1.398 . S
C3294 H3282 0.950 . S
C3294 C3293 1.398 . S
C3294 C3295 1.391 . S
C3295 H3283 0.950 . S
C3295 C3291 1.393 . S
C3295 C3294 1.391 . S
H3296 C3304 0.950 . S
H3297 C3309 0.950 . S
H3298 C3306 0.950 . S
H3299 C3308 0.950 . S
H3300 C3310 0.950 . S
H3301 C3312 0.950 . S
H3302 C3314 0.950 . S
H3303 C3315 0.950 . S
C3304 H3296 0.950 . S
C3304 C3305 1.386 . S
C3304 C3306 1.391 . S
C3305 C3304 1.386 . S
C3305 C3309 1.393 . S
C3306 H3298 0.950 . S
C3306 C3304 1.391 . S
C3306 C3307 1.400 . S
C3307 C3306 1.400 . S
C3307 C3308 1.398 . S
C3307 C3313 1.491 . S
C3308 H3299 0.950 . S
C3308 C3307 1.398 . S
C3308 C3309 1.391 . S
C3309 H3297 0.950 . S
C3309 C3305 1.393 . S
C3309 C3308 1.391 . S
C3310 H3300 0.950 . S
C3310 C3311 1.386 . S
C3310 C3312 1.391 . S
C3311 C3310 1.386 . S
C3311 C3315 1.393 . S
C3312 H3301 0.950 . S
C3312 C3310 1.391 . S
C3312 C3313 1.400 . S
C3313 C3307 1.491 . S
C3313 C3312 1.400 . S
C3313 C3314 1.398 . S
C3314 H3302 0.950 . S
C3314 C3313 1.398 . S
C3314 C3315 1.391 . S
C3315 H3303 0.950 . S
C3315 C3311 1.393 . S
C3315 C3314 1.391 . S
H3316 C3324 0.950 . S
H3317 C3329 0.950 . S
H3318 C3326 0.950 . S
H3319 C3328 0.950 . S
H3320 C3330 0.950 . S
H3321 C3332 0.950 . S
H3322 C3334 0.950 . S
H3323 C3335 0.950 . S
C3324 H3316 0.950 . S
C3324 C3325 1.386 . S
C3324 C3326 1.391 . S
C3325 C3324 1.386 . S
C3325 C3329 1.393 . S
C3326 H3318 0.950 . S
C3326 C3324 1.391 . S
C3326 C3327 1.400 . S
C3327 C3326 1.400 . S
C3327 C3328 1.398 . S
C3327 C3333 1.491 . S
C3328 H3319 0.950 . S
C3328 C3327 1.398 . S
C3328 C3329 1.391 . S
C3329 H3317 0.950 . S
C3329 C3325 1.393 . S
C3329 C3328 1.391 . S
C3330 H3320 0.950 . S
C3330 C3331 1.386 . S
C3330 C3332 1.391 . S
C3331 C3330 1.386 . S
C3331 C3335 1.393 . S
C3332 H3321 0.950 . S
C3332 C3330 1.391 . S
C3332 C3333 1.400 . S
C3333 C3327 1.491 . S
C3333 C3332 1.400 . S
C3333 C3334 1.398 . S
C3334 H3322 0.950 . S
C3334 C3333 1.398 . S
C3334 C3335 1.391 . S
C3335 H3323 0.950 . S
C3335 C3331 1.393 . S
C3335 C3334 1.391 . S
H3336 C3344 0.950 . S
H3337 C3349 0.950 . S
H3338 C3346 0.950 . S
H3339 C3348 0.950 . S
H3340 C3350 0.950 . S
H3341 C3352 0.950 . S
H3342 C3354 0.950 . S
H3343 C3355 0.950 . S
C3344 H3336 0.950 . S
C3344 C3345 1.386 . S
C3344 C3346 1.391 . S
C3345 C3344 1.386 . S
C3345 C3349 1.393 . S
C3346 H3338 0.950 . S
C3346 C3344 1.391 . S
C3346 C3347 1.400 . S
C3347 C3346 1.400 . S
C3347 C3348 1.398 . S
C3347 C3353 1.491 . S
C3348 H3339 0.950 . S
C3348 C3347 1.398 . S
C3348 C3349 1.391 . S
C3349 H3337 0.950 . S
C3349 C3345 1.393 . S
C3349 C3348 1.391 . S
C3350 H3340 0.950 . S
C3350 C3351 1.386 . S
C3350 C3352 1.391 . S
C3351 C3350 1.386 . S
C3351 C3355 1.393 . S
C3352 H3341 0.950 . S
C3352 C3350 1.391 . S
C3352 C3353 1.400 . S
C3353 C3347 1.491 . S
C3353 C3352 1.400 . S
C3353 C3354 1.398 . S
C3354 H3342 0.950 . S
C3354 C3353 1.398 . S
C3354 C3355 1.391 . S
C3355 H3343 0.950 . S
C3355 C3351 1.393 . S
C3355 C3354 1.391 . S
H3356 C3364 0.950 . S
H3357 C3369 0.950 . S
H3358 C3366 0.950 . S
H3359 C3368 0.950 . S
H3360 C3370 0.950 . S
H3361 C3372 0.950 . S
H3362 C3374 0.950 . S
H3363 C3375 0.950 . S
C3364 H3356 0.950 . S
C3364 C3365 1.386 . S
C3364 C3366 1.391 . S
C3365 C3364 1.386 . S
C3365 C3369 1.393 . S
C3366 H3358 0.950 . S
C3366 C3364 1.391 . S
C3366 C3367 1.400 . S
C3367 C3366 1.400 . S
C3367 C3368 1.398 . S
C3367 C3373 1.491 . S
C3368 H3359 0.950 . S
C3368 C3367 1.398 . S
C3368 C3369 1.391 . S
C3369 H3357 0.950 . S
C3369 C3365 1.393 . S
C3369 C3368 1.391 . S
C3370 H3360 0.950 . S
C3370 C3371 1.386 . S
C3370 C3372 1.391 . S
C3371 C3370 1.386 . S
C3371 C3375 1.393 . S
C3372 H3361 0.950 . S
C3372 C3370 1.391 . S
C3372 C3373 1.400 . S
C3373 C3367 1.491 . S
C3373 C3372 1.400 . S
C3373 C3374 1.398 . S
C3374 H3362 0.950 . S
C3374 C3373 1.398 . S
C3374 C3375 1.391 . S
C3375 H3363 0.950 . S
C3375 C3371 1.393 . S
C3375 C3374 1.391 . S
H3376 C3384 0.950 . S
H3377 C3389 0.950 . S
H3378 C3386 0.950 . S
H3379 C3388 0.950 . S
H3380 C3390 0.950 . S
H3381 C3392 0.950 . S
H3382 C3394 0.950 . S
H3383 C3395 0.950 . S
C3384 H3376 0.950 . S
C3384 C3385 1.386 . S
C3384 C3386 1.391 . S
C3385 C3384 1.386 . S
C3385 C3389 1.393 . S
C3386 H3378 0.950 . S
C3386 C3384 1.391 . S
C3386 C3387 1.400 . S
C3387 C3386 1.400 . S
C3387 C3388 1.398 . S
C3387 C3393 1.491 . S
C3388 H3379 0.950 . S
C3388 C3387 1.398 . S
C3388 C3389 1.391 . S
C3389 H3377 0.950 . S
C3389 C3385 1.393 . S
C3389 C3388 1.391 . S
C3390 H3380 0.950 . S
C3390 C3391 1.386 . S
C3390 C3392 1.391 . S
C3391 C3390 1.386 . S
C3391 C3395 1.393 . S
C3392 H3381 0.950 . S
C3392 C3390 1.391 . S
C3392 C3393 1.400 . S
C3393 C3387 1.491 . S
C3393 C3392 1.400 . S
C3393 C3394 1.398 . S
C3394 H3382 0.950 . S
C3394 C3393 1.398 . S
C3394 C3395 1.391 . S
C3395 H3383 0.950 . S
C3395 C3391 1.393 . S
C3395 C3394 1.391 . S
H3396 C3404 0.950 . S
H3397 C3409 0.950 . S
H3398 C3406 0.950 . S
H3399 C3408 0.950 . S
H3400 C3410 0.950 . S
H3401 C3412 0.950 . S
H3402 C3414 0.950 . S
H3403 C3415 0.950 . S
C3404 H3396 0.950 . S
C3404 C3405 1.386 . S
C3404 C3406 1.391 . S
C3405 C3404 1.386 . S
C3405 C3409 1.393 . S
C3406 H3398 0.950 . S
C3406 C3404 1.391 . S
C3406 C3407 1.400 . S
C3407 C3406 1.400 . S
C3407 C3408 1.398 . S
C3407 C3413 1.491 . S
C3408 H3399 0.950 . S
C3408 C3407 1.398 . S
C3408 C3409 1.391 . S
C3409 H3397 0.950 . S
C3409 C3405 1.393 . S
C3409 C3408 1.391 . S
C3410 H3400 0.950 . S
C3410 C3411 1.386 . S
C3410 C3412 1.391 . S
C3411 C3410 1.386 . S
C3411 C3415 1.393 . S
C3412 H3401 0.950 . S
C3412 C3410 1.391 . S
C3412 C3413 1.400 . S
C3413 C3407 1.491 . S
C3413 C3412 1.400 . S
C3413 C3414 1.398 . S
C3414 H3402 0.950 . S
C3414 C3413 1.398 . S
C3414 C3415 1.391 . S
C3415 H3403 0.950 . S
C3415 C3411 1.393 . S
C3415 C3414 1.391 . S
H3416 C3424 0.950 . S
H3417 C3429 0.950 . S
H3418 C3426 0.950 . S
H3419 C3428 0.950 . S
H3420 C3430 0.950 . S
H3421 C3432 0.950 . S
H3422 C3434 0.950 . S
H3423 C3435 0.950 . S
C3424 H3416 0.950 . S
C3424 C3425 1.386 . S
C3424 C3426 1.391 . S
C3425 C3424 1.386 . S
C3425 C3429 1.393 . S
C3426 H3418 0.950 . S
C3426 C3424 1.391 . S
C3426 C3427 1.400 . S
C3427 C3426 1.400 . S
C3427 C3428 1.398 . S
C3427 C3433 1.491 . S
C3428 H3419 0.950 . S
C3428 C3427 1.398 . S
C3428 C3429 1.391 . S
C3429 H3417 0.950 . S
C3429 C3425 1.393 . S
C3429 C3428 1.391 . S
C3430 H3420 0.950 . S
C3430 C3431 1.386 . S
C3430 C3432 1.391 . S
C3431 C3430 1.386 . S
C3431 C3435 1.393 . S
C3432 H3421 0.950 . S
C3432 C3430 1.391 . S
C3432 C3433 1.400 . S
C3433 C3427 1.491 . S
C3433 C3432 1.400 . S
C3433 C3434 1.398 . S
C3434 H3422 0.950 . S
C3434 C3433 1.398 . S
C3434 C3435 1.391 . S
C3435 H3423 0.950 . S
C3435 C3431 1.393 . S
C3435 C3434 1.391 . S
H3436 C3444 0.950 . S
H3437 C3449 0.950 . S
H3438 C3446 0.950 . S
H3439 C3448 0.950 . S
H3440 C3450 0.950 . S
H3441 C3452 0.950 . S
H3442 C3454 0.950 . S
H3443 C3455 0.950 1_545 S
C3444 H3436 0.950 . S
C3444 C3445 1.386 . S
C3444 C3446 1.391 . S
C3445 C3444 1.386 . S
C3445 C3449 1.393 . S
C3446 H3438 0.950 . S
C3446 C3444 1.391 . S
C3446 C3447 1.400 . S
C3447 C3446 1.400 . S
C3447 C3448 1.398 . S
C3447 C3453 1.491 . S
C3448 H3439 0.950 . S
C3448 C3447 1.398 . S
C3448 C3449 1.391 . S
C3449 H3437 0.950 . S
C3449 C3445 1.393 . S
C3449 C3448 1.391 . S
C3450 H3440 0.950 . S
C3450 C3451 1.386 . S
C3450 C3452 1.391 . S
C3451 C3450 1.386 . S
C3451 C3455 1.393 . S
C3452 H3441 0.950 . S
C3452 C3450 1.391 . S
C3452 C3453 1.400 . S
C3453 C3447 1.491 . S
C3453 C3452 1.400 . S
C3453 C3454 1.398 . S
C3454 H3442 0.950 . S
C3454 C3453 1.398 . S
C3454 C3455 1.391 . S
C3455 H3443 0.950 1_565 S
C3455 C3451 1.393 . S
C3455 C3454 1.391 . S
H3456 C3464 0.950 . S
H3457 C3469 0.950 . S
H3458 C3466 0.950 . S
H3459 C3468 0.950 . S
H3460 C3470 0.950 . S
H3461 C3472 0.950 . S
H3462 C3474 0.950 . S
H3463 C3475 0.950 . S
C3464 H3456 0.950 . S
C3464 C3465 1.386 . S
C3464 C3466 1.391 . S
C3465 C3464 1.386 . S
C3465 C3469 1.393 . S
C3466 H3458 0.950 . S
C3466 C3464 1.391 . S
C3466 C3467 1.400 . S
C3467 C3466 1.400 . S
C3467 C3468 1.398 . S
C3467 C3473 1.491 . S
C3468 H3459 0.950 . S
C3468 C3467 1.398 . S
C3468 C3469 1.391 . S
C3469 H3457 0.950 . S
C3469 C3465 1.393 . S
C3469 C3468 1.391 . S
C3470 H3460 0.950 . S
C3470 C3471 1.386 . S
C3470 C3472 1.391 . S
C3471 C3470 1.386 . S
C3471 C3475 1.393 . S
C3472 H3461 0.950 . S
C3472 C3470 1.391 . S
C3472 C3473 1.400 . S
C3473 C3467 1.491 . S
C3473 C3472 1.400 . S
C3473 C3474 1.398 . S
C3474 H3462 0.950 . S
C3474 C3473 1.398 . S
C3474 C3475 1.391 . S
C3475 H3463 0.950 . S
C3475 C3471 1.393 . S
C3475 C3474 1.391 . S
H3476 C3484 0.950 . S
H3477 C3489 0.950 . S
H3478 C3486 0.950 . S
H3479 C3488 0.950 . S
H3480 C3490 0.950 1_556 S
H3481 C3492 0.950 . S
H3482 C3494 0.950 . S
H3483 C3495 0.950 . S
C3484 H3476 0.950 . S
C3484 C3485 1.386 . S
C3484 C3486 1.391 . S
C3485 C3484 1.386 . S
C3485 C3489 1.393 . S
C3486 H3478 0.950 . S
C3486 C3484 1.391 . S
C3486 C3487 1.400 . S
C3487 C3486 1.400 . S
C3487 C3488 1.398 . S
C3487 C3493 1.491 . S
C3488 H3479 0.950 . S
C3488 C3487 1.398 . S
C3488 C3489 1.391 . S
C3489 H3477 0.950 . S
C3489 C3485 1.393 . S
C3489 C3488 1.391 . S
C3490 H3480 0.950 1_554 S
C3490 C3491 1.386 . S
C3490 C3492 1.391 . S
C3491 C3490 1.386 . S
C3491 C3495 1.393 . S
C3492 H3481 0.950 . S
C3492 C3490 1.391 . S
C3492 C3493 1.400 . S
C3493 C3487 1.491 . S
C3493 C3492 1.400 . S
C3493 C3494 1.398 . S
C3494 H3482 0.950 . S
C3494 C3493 1.398 . S
C3494 C3495 1.391 . S
C3495 H3483 0.950 . S
C3495 C3491 1.393 . S
C3495 C3494 1.391 . S
H3496 C3504 0.950 . S
H3497 C3509 0.950 . S
H3498 C3506 0.950 . S
H3499 C3508 0.950 . S
H3500 C3510 0.950 . S
H3501 C3512 0.950 . S
H3502 C3514 0.950 . S
H3503 C3515 0.950 . S
C3504 H3496 0.950 . S
C3504 C3505 1.386 . S
C3504 C3506 1.391 . S
C3505 C3504 1.386 . S
C3505 C3509 1.393 . S
C3506 H3498 0.950 . S
C3506 C3504 1.391 . S
C3506 C3507 1.400 . S
C3507 C3506 1.400 . S
C3507 C3508 1.398 . S
C3507 C3513 1.491 . S
C3508 H3499 0.950 . S
C3508 C3507 1.398 . S
C3508 C3509 1.391 . S
C3509 H3497 0.950 . S
C3509 C3505 1.393 . S
C3509 C3508 1.391 . S
C3510 H3500 0.950 . S
C3510 C3511 1.386 . S
C3510 C3512 1.391 . S
C3511 C3510 1.386 . S
C3511 C3515 1.393 . S
C3512 H3501 0.950 . S
C3512 C3510 1.391 . S
C3512 C3513 1.400 . S
C3513 C3507 1.491 . S
C3513 C3512 1.400 . S
C3513 C3514 1.398 . S
C3514 H3502 0.950 . S
C3514 C3513 1.398 . S
C3514 C3515 1.391 . S
C3515 H3503 0.950 . S
C3515 C3511 1.393 . S
C3515 C3514 1.391 . S
H3516 C3524 0.950 . S
H3517 C3529 0.950 . S
H3518 C3526 0.950 . S
H3519 C3528 0.950 . S
H3520 C3530 0.950 . S
H3521 C3532 0.950 . S
H3522 C3534 0.950 . S
H3523 C3535 0.950 . S
C3524 H3516 0.950 . S
C3524 C3525 1.386 . S
C3524 C3526 1.391 . S
C3525 C3524 1.386 . S
C3525 C3529 1.393 . S
C3526 H3518 0.950 . S
C3526 C3524 1.391 . S
C3526 C3527 1.400 . S
C3527 C3526 1.400 . S
C3527 C3528 1.398 . S
C3527 C3533 1.491 . S
C3528 H3519 0.950 . S
C3528 C3527 1.398 . S
C3528 C3529 1.391 . S
C3529 H3517 0.950 . S
C3529 C3525 1.393 . S
C3529 C3528 1.391 . S
C3530 H3520 0.950 . S
C3530 C3531 1.386 . S
C3530 C3532 1.391 . S
C3531 C3530 1.386 . S
C3531 C3535 1.393 . S
C3532 H3521 0.950 . S
C3532 C3530 1.391 . S
C3532 C3533 1.400 . S
C3533 C3527 1.491 . S
C3533 C3532 1.400 . S
C3533 C3534 1.398 . S
C3534 H3522 0.950 . S
C3534 C3533 1.398 . S
C3534 C3535 1.391 . S
C3535 H3523 0.950 . S
C3535 C3531 1.393 . S
C3535 C3534 1.391 . S
H3536 C3544 0.950 . S
H3537 C3549 0.950 . S
H3538 C3546 0.950 . S
H3539 C3548 0.950 . S
H3540 C3550 0.950 . S
H3541 C3552 0.950 . S
H3542 C3554 0.950 . S
H3543 C3555 0.950 . S
C3544 H3536 0.950 . S
C3544 C3545 1.386 . S
C3544 C3546 1.391 . S
C3545 C3544 1.386 . S
C3545 C3549 1.393 . S
C3546 H3538 0.950 . S
C3546 C3544 1.391 . S
C3546 C3547 1.400 . S
C3547 C3546 1.400 . S
C3547 C3548 1.398 . S
C3547 C3553 1.491 . S
C3548 H3539 0.950 . S
C3548 C3547 1.398 . S
C3548 C3549 1.391 . S
C3549 H3537 0.950 . S
C3549 C3545 1.393 . S
C3549 C3548 1.391 . S
C3550 H3540 0.950 . S
C3550 C3551 1.386 . S
C3550 C3552 1.391 . S
C3551 C3550 1.386 . S
C3551 C3555 1.393 . S
C3552 H3541 0.950 . S
C3552 C3550 1.391 . S
C3552 C3553 1.400 . S
C3553 C3547 1.491 . S
C3553 C3552 1.400 . S
C3553 C3554 1.398 . S
C3554 H3542 0.950 . S
C3554 C3553 1.398 . S
C3554 C3555 1.391 . S
C3555 H3543 0.950 . S
C3555 C3551 1.393 . S
C3555 C3554 1.391 . S
H3556 C3564 0.950 . S
H3557 C3569 0.950 . S
H3558 C3566 0.950 . S
H3559 C3568 0.950 . S
H3560 C3570 0.950 . S
H3561 C3572 0.950 . S
H3562 C3574 0.950 . S
H3563 C3575 0.950 . S
C3564 H3556 0.950 . S
C3564 C3565 1.386 . S
C3564 C3566 1.391 . S
C3565 C3564 1.386 . S
C3565 C3569 1.393 . S
C3566 H3558 0.950 . S
C3566 C3564 1.391 . S
C3566 C3567 1.400 . S
C3567 C3566 1.400 . S
C3567 C3568 1.398 . S
C3567 C3573 1.491 . S
C3568 H3559 0.950 . S
C3568 C3567 1.398 . S
C3568 C3569 1.391 . S
C3569 H3557 0.950 . S
C3569 C3565 1.393 . S
C3569 C3568 1.391 . S
C3570 H3560 0.950 . S
C3570 C3571 1.386 . S
C3570 C3572 1.391 . S
C3571 C3570 1.386 . S
C3571 C3575 1.393 . S
C3572 H3561 0.950 . S
C3572 C3570 1.391 . S
C3572 C3573 1.400 . S
C3573 C3567 1.491 . S
C3573 C3572 1.400 . S
C3573 C3574 1.398 . S
C3574 H3562 0.950 . S
C3574 C3573 1.398 . S
C3574 C3575 1.391 . S
C3575 H3563 0.950 . S
C3575 C3571 1.393 . S
C3575 C3574 1.391 . S
C1665 C101 2.026 . S
C1671 C368 2.020 . S
C1685 C57 1.777 . S
C1691 C470 1.806 . S
C1705 C70 1.701 . S
C1711 C536 1.693 . S
C1731 C622 1.380 . S
C1725 C82 1.481 . S
C1745 C23 1.472 . S
C1751 C706 1.395 . S
C1771 C788 1.700 . S
C1765 C29 1.699 . S
C1791 C890 1.797 . S
C1785 C49 1.784 . S
C1805 C10 2.029 . S
C1811 C956 2.027 . S
C1831 C386 1.602 . S
C1825 C218 1.632 . S
C1845 C226 0.908 . S
C1851 C454 0.873 . S
C1871 C554 1.149 . S
C1865 C251 1.144 . S
C1891 C620 1.534 . S
C1885 C159 1.557 . S
C1905 C211 1.542 . S
C1911 C704 1.541 . S
C1931 C806 1.137 . S
C1925 C225 1.118 . S
C1951 C874 0.909 . S
C1945 C252 0.910 . S
C1971 C974 1.603 . S
C1965 C166 1.632 . S
C1991 C370 1.017 . S
C1985 C147 1.060 . S
C2005 C263 1.613 . S
C2011 C1058 1.606 . S
C2031 C1126 1.352 . S
C2025 C309 1.422 . S
C2051 C1208 0.720 . S
C2045 C291 0.717 . S
C2065 C108 1.060 . S
C2071 C958 1.013 . S
C2085 C121 1.425 . S
C2091 C538 1.372 . S
C2105 C302 1.611 . S
C2111 C1310 1.609 . S
C2131 C1376 0.716 . S
C2125 C276 0.724 . S
C2151 C379 2.265 1_565 S
C2145 C55 2.244 . S
C2171 C1383 2.089 . S
C2165 C96 2.103 . S
C2185 C88 2.039 . S
C2191 C547 2.044 . S
C2205 C75 1.673 . S
C2211 C1305 1.557 . S
C2231 C717 1.551 . S
C2225 C4 1.674 . S
C2245 C44 2.047 . S
C2251 C1135 2.057 . S
C2271 C879 2.096 1_565 S
C2265 C31 2.095 . S
C2291 C1471 2.266 . S
C2285 C18 2.245 . S
C2311 C375 1.880 1_556 S
C2305 C133 1.926 . S
C2331 C1389 1.067 . S
C2325 C296 1.123 . S
C2345 C107 1.368 . S
C2351 C543 1.365 . S
C2365 C264 1.848 . S
C2371 C1303 1.847 . S
C2385 C140 1.847 . S
C2391 C715 1.845 . S
C2411 C1131 1.366 . S
C2405 C289 1.367 . S
C2425 C114 1.122 . S
C2431 C885 1.019 . S
C2445 C265 1.933 . S
C2451 C1467 1.898 . S
C2465 C179 1.108 . S
C2471 C381 1.056 . S
C2485 C161 1.858 . S
C2491 C1047 1.847 . S
C2505 C244 1.516 . S
C2511 C801 1.421 . S
C2525 C224 1.064 . S
C2531 C1219 1.066 . S
C2551 C1473 1.059 . S
C2545 C257 1.106 . S
C2565 C199 1.508 . S
C2571 C549 1.433 . S
C2591 C627 1.833 . S
C2585 C237 1.863 . S
C2611 C463 1.067 . S
C2605 C185 1.066 . S
C2625 C69 2.025 . S
C2631 C1544 2.019 . S
C2651 C1394 1.807 . S
C2645 C83 1.777 . S
C2665 C94 1.700 . S
C2671 C1628 1.700 . S
C2685 C56 1.484 1_655 S
C2691 C1294 1.382 . S
C2705 C42 1.484 . S
C2711 C1042 1.390 . S
C2731 C1124 1.693 . S
C2725 C3 1.702 . S
C2751 C1226 1.813 . S
C2745 C16 1.773 . S
C2771 C1460 2.022 . S
C2765 C36 2.027 . S
C2791 C1562 1.601 . S
C2785 C238 1.632 . S
C2805 C174 0.919 . S
C2811 C1378 0.918 . S
C2831 C1646 1.151 . S
C2825 C186 1.124 . S
C2851 C1292 1.536 . S
C2845 C198 1.539 . S
C2871 C1040 1.535 . S
C2865 C239 1.540 . S
C2885 C173 1.118 . S
C2891 C1142 1.144 . S
C2911 C1210 0.916 . S
C2905 C187 0.916 . S
C2925 C205 1.635 . S
C2931 C1478 1.592 . S
C2951 C1546 1.009 . S
C2945 C290 1.052 . S
C2965 C122 1.606 . S
C2971 C722 1.619 . S
C2991 C790 1.381 . S
C2985 C134 1.412 1_565 S
C3011 C872 0.735 . S
C3005 C148 0.732 . S
C3031 C1462 1.034 . S
C3025 C283 1.051 . S
C3045 C270 1.425 . S
C3051 C1630 1.363 . S
C3071 C638 1.617 . S
C3065 C135 1.608 . S
C3091 C452 0.715 . S
C3085 C109 0.722 . S
C3105 C81 2.241 . S
C3111 C1555 2.264 . S
C3131 C459 2.098 . S
C3125 C68 2.095 . S
C3145 C62 2.036 . S
C3151 C1639 2.043 . S
C3165 C95 1.667 . S
C3171 C633 1.540 . S
C3185 C30 1.671 . S
C3191 C1053 1.563 . S
C3211 C799 2.047 . S
C3205 C17 2.039 . S
C3225 C5 2.103 . S
C3231 C1215 2.091 . S
C3245 C43 2.238 . S
C3251 C967 2.253 . S
C3271 C1551 1.880 . S
C3265 C304 1.926 . S
C3285 C153 1.116 . S
C3291 C465 1.030 . S
C3311 C1635 1.315 1_656 S
C3305 C278 1.375 . S
C3325 C127 1.849 . S
C3331 C631 1.849 . S
C3345 C303 1.846 . S
C3351 C1051 1.845 . S
C3371 C795 1.348 . S
C3365 C146 1.377 . S
C3385 C277 1.123 . S
C3391 C1221 1.025 . S
C3411 C963 1.895 . S
C3405 C120 1.932 . S
C3431 C1557 1.044 . S
C3425 C231 1.113 . S
C3451 C711 1.835 1_565 S
C3445 C200 1.863 . S
C3465 C212 1.515 . S
C3471 C1137 1.433 . S
C3491 C883 1.060 . S
C3485 C172 1.061 . S
C3505 C192 1.113 . S
C3511 C969 1.036 . S
C3525 C160 1.508 . S
C3531 C1641 1.416 . S
C3551 C1299 1.844 . S
C3545 C213 1.860 . S
C3571 C1387 1.069 . S
C3565 C250 1.069 . S
