# Generated by pormake.
# Topology ocu, (6,8)-cn, num edge types: 1
# Building blocks:
#     Node 0, Type 0, BuildingBlock: MIFKUJ_clean_sbu_0, # of connection points: 6
#     Node 1, Type 0, BuildingBlock: MIFKUJ_clean_sbu_0, # of connection points: 6
#     Node 2, Type 0, BuildingBlock: MIFKUJ_clean_sbu_0, # of connection points: 6
#     Node 3, Type 0, BuildingBlock: MIFKUJ_clean_sbu_0, # of connection points: 6
#     Node 4, Type 0, BuildingBlock: MIFKUJ_clean_sbu_0, # of connection points: 6
#     Node 5, Type 0, BuildingBlock: MIFKUJ_clean_sbu_0, # of connection points: 6
#     Node 6, Type 0, BuildingBlock: MIFKUJ_clean_sbu_0, # of connection points: 6
#     Node 7, Type 0, BuildingBlock: MIFKUJ_clean_sbu_0, # of connection points: 6
#     Node 8, Type 1, BuildingBlock: TAGTUT_clean_sbu_1, # of connection points: 8
#     Node 9, Type 1, BuildingBlock: TAGTUT_clean_sbu_1, # of connection points: 8
#     Node 10, Type 1, BuildingBlock: TAGTUT_clean_sbu_1, # of connection points: 8
#     Node 11, Type 1, BuildingBlock: TAGTUT_clean_sbu_1, # of connection points: 8
#     Node 12, Type 1, BuildingBlock: TAGTUT_clean_sbu_1, # of connection points: 8
#     Node 13, Type 1, BuildingBlock: TAGTUT_clean_sbu_1, # of connection points: 8
#     Edge 14, Type (0, 1), BuildingBlock: AJUNOK_clean_linker_0, # of connection points: 2
#     Edge 15, Type (0, 1), BuildingBlock: AJUNOK_clean_linker_0, # of connection points: 2
#     Edge 16, Type (0, 1), BuildingBlock: AJUNOK_clean_linker_0, # of connection points: 2
#     Edge 17, Type (0, 1), BuildingBlock: AJUNOK_clean_linker_0, # of connection points: 2
#     Edge 18, Type (0, 1), BuildingBlock: AJUNOK_clean_linker_0, # of connection points: 2
#     Edge 19, Type (0, 1), BuildingBlock: AJUNOK_clean_linker_0, # of connection points: 2
#     Edge 20, Type (0, 1), BuildingBlock: AJUNOK_clean_linker_0, # of connection points: 2
#     Edge 21, Type (0, 1), BuildingBlock: AJUNOK_clean_linker_0, # of connection points: 2
#     Edge 22, Type (0, 1), BuildingBlock: AJUNOK_clean_linker_0, # of connection points: 2
#     Edge 23, Type (0, 1), BuildingBlock: AJUNOK_clean_linker_0, # of connection points: 2
#     Edge 24, Type (0, 1), BuildingBlock: AJUNOK_clean_linker_0, # of connection points: 2
#     Edge 25, Type (0, 1), BuildingBlock: AJUNOK_clean_linker_0, # of connection points: 2
#     Edge 26, Type (0, 1), BuildingBlock: AJUNOK_clean_linker_0, # of connection points: 2
#     Edge 27, Type (0, 1), BuildingBlock: AJUNOK_clean_linker_0, # of connection points: 2
#     Edge 28, Type (0, 1), BuildingBlock: AJUNOK_clean_linker_0, # of connection points: 2
#     Edge 29, Type (0, 1), BuildingBlock: AJUNOK_clean_linker_0, # of connection points: 2
#     Edge 30, Type (0, 1), BuildingBlock: AJUNOK_clean_linker_0, # of connection points: 2
#     Edge 31, Type (0, 1), BuildingBlock: AJUNOK_clean_linker_0, # of connection points: 2
#     Edge 32, Type (0, 1), BuildingBlock: AJUNOK_clean_linker_0, # of connection points: 2
#     Edge 33, Type (0, 1), BuildingBlock: AJUNOK_clean_linker_0, # of connection points: 2
#     Edge 34, Type (0, 1), BuildingBlock: AJUNOK_clean_linker_0, # of connection points: 2
#     Edge 35, Type (0, 1), BuildingBlock: AJUNOK_clean_linker_0, # of connection points: 2
#     Edge 36, Type (0, 1), BuildingBlock: AJUNOK_clean_linker_0, # of connection points: 2
#     Edge 37, Type (0, 1), BuildingBlock: AJUNOK_clean_linker_0, # of connection points: 2
#     Edge 38, Type (0, 1), BuildingBlock: AJUNOK_clean_linker_0, # of connection points: 2
#     Edge 39, Type (0, 1), BuildingBlock: AJUNOK_clean_linker_0, # of connection points: 2
#     Edge 40, Type (0, 1), BuildingBlock: AJUNOK_clean_linker_0, # of connection points: 2
#     Edge 41, Type (0, 1), BuildingBlock: AJUNOK_clean_linker_0, # of connection points: 2
#     Edge 42, Type (0, 1), BuildingBlock: AJUNOK_clean_linker_0, # of connection points: 2
#     Edge 43, Type (0, 1), BuildingBlock: AJUNOK_clean_linker_0, # of connection points: 2
#     Edge 44, Type (0, 1), BuildingBlock: AJUNOK_clean_linker_0, # of connection points: 2
#     Edge 45, Type (0, 1), BuildingBlock: AJUNOK_clean_linker_0, # of connection points: 2
#     Edge 46, Type (0, 1), BuildingBlock: AJUNOK_clean_linker_0, # of connection points: 2
#     Edge 47, Type (0, 1), BuildingBlock: AJUNOK_clean_linker_0, # of connection points: 2
#     Edge 48, Type (0, 1), BuildingBlock: AJUNOK_clean_linker_0, # of connection points: 2
#     Edge 49, Type (0, 1), BuildingBlock: AJUNOK_clean_linker_0, # of connection points: 2
#     Edge 50, Type (0, 1), BuildingBlock: AJUNOK_clean_linker_0, # of connection points: 2
#     Edge 51, Type (0, 1), BuildingBlock: AJUNOK_clean_linker_0, # of connection points: 2
#     Edge 52, Type (0, 1), BuildingBlock: AJUNOK_clean_linker_0, # of connection points: 2
#     Edge 53, Type (0, 1), BuildingBlock: AJUNOK_clean_linker_0, # of connection points: 2
#     Edge 54, Type (0, 1), BuildingBlock: AJUNOK_clean_linker_0, # of connection points: 2
#     Edge 55, Type (0, 1), BuildingBlock: AJUNOK_clean_linker_0, # of connection points: 2
#     Edge 56, Type (0, 1), BuildingBlock: AJUNOK_clean_linker_0, # of connection points: 2
#     Edge 57, Type (0, 1), BuildingBlock: AJUNOK_clean_linker_0, # of connection points: 2
#     Edge 58, Type (0, 1), BuildingBlock: AJUNOK_clean_linker_0, # of connection points: 2
#     Edge 59, Type (0, 1), BuildingBlock: AJUNOK_clean_linker_0, # of connection points: 2
#     Edge 60, Type (0, 1), BuildingBlock: AJUNOK_clean_linker_0, # of connection points: 2
#     Edge 61, Type (0, 1), BuildingBlock: AJUNOK_clean_linker_0, # of connection points: 2
# Relax obj value: 0.061
# Max RMSD: 0.234
# Mean RMSD: 0.119
data_MOF--net-ocu--node1-MIFKUJ_clean_sbu_0--node2-TAGTUT_clean_sbu_1--edge1-AJUNOK_clean_linker_0
_symmetry_space_group_name_H-M    P1
_symmetry_Int_Tables_number       1
_symmetry_cell_setting            triclinic
loop_
_symmetry_equiv_pos_as_xyz
'x, y, z'
_cell_length_a     30.29505
_cell_length_b     30.059225
_cell_length_c     30.417174
_cell_angle_alpha  90.247335
_cell_angle_beta   95.495777
_cell_angle_gamma 111.03145
loop_
_atom_site_label
_atom_site_type_symbol
_atom_site_fract_x
_atom_site_fract_y
_atom_site_fract_z
_atom_type_partial_charge
Zn0 Zn 0.2275 0.29624 0.25072 0.0
Zn1 Zn 0.2613 0.19278 0.21332 0.0
C2 C 0.18038 0.32774 0.30451 0.0
O3 O 0.15089 0.29298 0.27812 0.0
C4 C 0.30199 0.15741 0.15428 0.0
O5 O 0.33554 0.19353 0.17602 0.0
O6 O 0.18312 0.30846 0.20186 0.0
O7 O 0.29149 0.32327 0.2222 0.0
O8 O 0.29731 0.26053 0.18877 0.0
C9 C 0.19492 0.35266 0.19432 0.0
O10 O 0.23431 0.38298 0.21515 0.0
O11 O 0.22463 0.3405 0.30043 0.0
C12 C 0.29447 0.13202 0.26213 0.0
O13 O 0.25367 0.10391 0.24176 0.0
O14 O 0.30734 0.1768 0.25707 0.0
O15 O 0.1998 0.16642 0.24712 0.0
O16 O 0.19333 0.22976 0.27824 0.0
O17 O 0.25897 0.14842 0.16156 0.0
C18 C 0.30978 0.30576 0.19366 0.0
C19 C 0.18162 0.18453 0.27534 0.0
Zn20 Zn 0.76878 0.28075 0.1964 0.0
Zn21 Zn 0.72436 0.21961 0.26412 0.0
C22 C 0.68754 0.2986 0.14971 0.0
O23 O 0.69126 0.26748 0.12131 0.0
C24 C 0.78925 0.1896 0.32262 0.0
O25 O 0.76796 0.20589 0.35093 0.0
O26 O 0.8242 0.3211 0.17028 0.0
O27 O 0.80008 0.28835 0.2585 0.0
O28 O 0.73845 0.28599 0.28985 0.0
C29 C 0.85038 0.35899 0.1921 0.0
O30 O 0.83515 0.37406 0.22607 0.0
O31 O 0.71659 0.31057 0.18482 0.0
C32 C 0.65604 0.13954 0.28057 0.0
O33 O 0.68068 0.12293 0.25616 0.0
O34 O 0.67304 0.18248 0.29482 0.0
O35 O 0.68974 0.20002 0.20322 0.0
O36 O 0.75009 0.21647 0.16499 0.0
O37 O 0.77796 0.19214 0.28137 0.0
C38 C 0.78287 0.30232 0.28968 0.0
C39 C 0.70788 0.1906 0.17037 0.0
Zn40 Zn 0.80034 0.71992 0.2276 0.0
Zn41 Zn 0.69432 0.77603 0.24698 0.0
C42 C 0.86138 0.68726 0.2795 0.0
O43 O 0.89035 0.72668 0.26424 0.0
C44 C 0.62948 0.80485 0.195 0.0
O45 O 0.60165 0.76471 0.21007 0.0
O46 O 0.82978 0.71209 0.17447 0.0
O47 O 0.7277 0.69829 0.21077 0.0
O48 O 0.66128 0.71064 0.21937 0.0
C49 C 0.81509 0.66864 0.16119 0.0
O50 O 0.78285 0.63631 0.18162 0.0
O51 O 0.8168 0.67537 0.26949 0.0
C52 C 0.69357 0.82784 0.32158 0.0
O53 O 0.72508 0.86047 0.30076 0.0
O54 O 0.67619 0.78522 0.30582 0.0
O55 O 0.76131 0.78492 0.24828 0.0
O56 O 0.83257 0.78604 0.25801 0.0
O57 O 0.67404 0.81925 0.20648 0.0
C58 C 0.68279 0.68667 0.20192 0.0
C59 C 0.80287 0.80443 0.26705 0.0
Zn60 Zn 0.20606 0.7634 0.24604 0.0
Zn61 Zn 0.27953 0.71687 0.22141 0.0
C62 C 0.13686 0.68804 0.28655 0.0
O63 O 0.10836 0.70181 0.25931 0.0
C64 C 0.34742 0.7926 0.18031 0.0
O65 O 0.3759 0.7791 0.20783 0.0
O66 O 0.17334 0.80713 0.26537 0.0
O67 O 0.27553 0.80079 0.26276 0.0
O68 O 0.29759 0.74179 0.28502 0.0
C69 C 0.18652 0.81929 0.30615 0.0
O70 O 0.21676 0.8027 0.32735 0.0
O71 O 0.18165 0.7078 0.28554 0.0
C72 C 0.30303 0.66551 0.15981 0.0
O73 O 0.27463 0.68373 0.13788 0.0
O74 O 0.31301 0.67424 0.20135 0.0
O75 O 0.21028 0.6795 0.2053 0.0
O76 O 0.19007 0.7392 0.18234 0.0
O77 O 0.30267 0.77279 0.18149 0.0
C78 C 0.29853 0.78407 0.29083 0.0
C79 C 0.19039 0.69752 0.17562 0.0
Zn80 Zn 0.25189 0.7868 0.68327 0.0
Zn81 Zn 0.22763 0.70277 0.77778 0.0
C82 C 0.18325 0.83762 0.67275 0.0
O83 O 0.21653 0.87233 0.6965 0.0
C84 C 0.29301 0.6512 0.79735 0.0
O85 O 0.27132 0.62747 0.76029 0.0
O86 O 0.30431 0.8341 0.6599 0.0
O87 O 0.28004 0.78905 0.74602 0.0
O88 O 0.23498 0.76831 0.79851 0.0
C89 C 0.33402 0.86682 0.68542 0.0
O90 O 0.32165 0.88054 0.72177 0.0
O91 O 0.18993 0.79873 0.66648 0.0
C92 C 0.13306 0.63456 0.76645 0.0
O93 O 0.14604 0.61667 0.7328 0.0
O94 O 0.164 0.66674 0.79149 0.0
O95 O 0.2278 0.69505 0.71256 0.0
O96 O 0.24738 0.72803 0.65067 0.0
O97 O 0.27946 0.68358 0.8117 0.0
C98 C 0.26706 0.80048 0.78129 0.0
C99 C 0.22845 0.69084 0.67119 0.0
Zn100 Zn 0.29655 0.23246 0.71577 0.0
Zn101 Zn 0.19661 0.24704 0.75024 0.0
C102 C 0.34934 0.1973 0.77718 0.0
O103 O 0.37983 0.23823 0.76615 0.0
C104 C 0.14499 0.28819 0.69457 0.0
O105 O 0.11327 0.25128 0.71078 0.0
O106 O 0.33525 0.2249 0.66828 0.0
O107 O 0.23234 0.21537 0.68014 0.0
O108 O 0.17288 0.182 0.71935 0.0
C109 C 0.31725 0.18148 0.65406 0.0
O110 O 0.28109 0.15224 0.67271 0.0
O111 O 0.30594 0.1851 0.7611 0.0
C112 C 0.17627 0.29946 0.8117 0.0
O113 O 0.2142 0.32804 0.79495 0.0
O114 O 0.15816 0.25608 0.79745 0.0
O115 O 0.26029 0.26073 0.78482 0.0
O116 O 0.31912 0.29786 0.7467 0.0
O117 O 0.18893 0.29515 0.70491 0.0
C118 C 0.19414 0.18109 0.68547 0.0
C119 C 0.29724 0.29675 0.78056 0.0
Zn120 Zn 0.7089 0.26802 0.74645 0.0
Zn121 Zn 0.77387 0.21751 0.72521 0.0
C122 C 0.64423 0.18613 0.77824 0.0
O123 O 0.61637 0.19597 0.74712 0.0
C124 C 0.84273 0.29041 0.68745 0.0
O125 O 0.86961 0.27534 0.71536 0.0
O126 O 0.67285 0.30705 0.76803 0.0
O127 O 0.77629 0.30907 0.76504 0.0
O128 O 0.79554 0.24816 0.78722 0.0
C129 C 0.68104 0.31232 0.80999 0.0
O130 O 0.70715 0.29088 0.83096 0.0
O131 O 0.68829 0.21118 0.78343 0.0
C132 C 0.79799 0.16498 0.66531 0.0
O133 O 0.76963 0.1828 0.6427 0.0
O134 O 0.80826 0.17505 0.70669 0.0
O135 O 0.7051 0.18043 0.70321 0.0
O136 O 0.68998 0.24414 0.68327 0.0
O137 O 0.79783 0.27151 0.68643 0.0
C138 C 0.80044 0.29203 0.79148 0.0
C139 C 0.68375 0.20035 0.67657 0.0
Zn140 Zn 0.70054 0.77146 0.72721 0.0
Zn141 Zn 0.78134 0.71393 0.73403 0.0
C142 C 0.68207 0.80758 0.80335 0.0
O143 O 0.64239 0.77304 0.78862 0.0
C144 C 0.81155 0.68023 0.66311 0.0
O145 O 0.84812 0.71711 0.67999 0.0
O146 O 0.65286 0.79601 0.69686 0.0
O147 O 0.75106 0.78981 0.67982 0.0
O148 O 0.8157 0.78348 0.71323 0.0
C149 C 0.67247 0.84048 0.69135 0.0
O150 O 0.71806 0.86183 0.70391 0.0
O151 O 0.71878 0.8156 0.78273 0.0
C152 C 0.82103 0.65202 0.77292 0.0
O153 O 0.78015 0.62299 0.75344 0.0
O154 O 0.83138 0.69679 0.77022 0.0
O155 O 0.72497 0.68639 0.77423 0.0
O156 O 0.6628 0.70421 0.75054 0.0
O157 O 0.7718 0.67105 0.67871 0.0
C158 C 0.79601 0.79987 0.68169 0.0
C159 C 0.6813 0.68082 0.77629 0.0
C160 C 0.88853 0.08619 0.54391 0.0
C161 C 0.91444 0.09964 0.40828 0.0
C162 C 0.90183 0.90825 0.42094 0.0
Mg163 Mg 0.97717 0.10003 0.49507 0.0
O164 O 0.95139 0.03378 0.4972 0.0
Mg165 Mg 0.88483 -0.00036 0.46981 0.0
Mg166 Mg 0.98632 -0.00573 0.47747 0.0
O167 O 0.0218 0.95479 0.45762 0.0
Mg168 Mg -0.00281 0.88847 0.46109 0.0
Mg169 Mg 0.08781 0.99058 0.48638 0.0
C170 C 0.07097 0.08101 0.53434 0.0
C171 C 0.06901 0.05932 0.40894 0.0
O172 O 0.86451 0.04843 0.51934 0.0
O173 O 0.9323 0.11028 0.54028 0.0
O174 O 0.8894 0.0565 0.416 0.0
O175 O 0.95261 0.12304 0.43288 0.0
O176 O 0.04953 0.11001 0.52341 0.0
O177 O 0.05257 0.03605 0.52419 0.0
C178 C 0.90254 0.92608 0.54387 0.0
O179 O 0.94648 0.93796 0.53508 0.0
O180 O 0.8759 0.94519 0.52297 0.0
O181 O 0.11166 0.94107 0.44235 0.0
O182 O 0.04582 0.87794 0.41869 0.0
O183 O 0.08086 0.93784 0.54211 0.0
C184 C 0.09024 0.90252 0.41832 0.0
O185 O 0.01942 0.86953 0.52703 0.0
O186 O 0.92464 0.88024 0.43182 0.0
C187 C 0.05609 0.89561 0.55221 0.0
O188 O 0.91956 0.95351 0.43032 0.0
O189 O 0.02604 0.04934 0.41988 0.0
O190 O 0.09671 0.04138 0.42982 0.0
C191 C 0.3825 0.06995 0.03231 0.0
C192 C 0.42291 0.08525 0.90038 0.0
C193 C 0.41692 0.90113 0.91435 0.0
Mg194 Mg 0.47781 0.08949 -0.00832 0.0
O195 O 0.45551 0.02338 -0.00516 0.0
Mg196 Mg 0.3913 0.98647 0.96315 0.0
Mg197 Mg 0.49449 0.9879 0.97466 0.0
O198 O 0.53382 0.95268 0.95351 0.0
Mg199 Mg 0.51216 0.88656 0.95743 0.0
Mg200 Mg 0.59719 0.99051 -0.01407 0.0
C201 C 0.57481 0.07745 0.0306 0.0
C202 C 0.56972 0.05547 0.91242 0.0
O203 O 0.36225 0.03113 0.0084 0.0
O204 O 0.42626 0.09653 0.03147 0.0
O205 O 0.39647 0.04274 0.90866 0.0
O206 O 0.45988 0.10866 0.92628 0.0
O207 O 0.55054 0.10416 0.0211 0.0
O208 O 0.55822 0.03231 0.0217 0.0
C209 C 0.41801 0.91919 0.03737 0.0
O210 O 0.46131 0.93401 0.02797 0.0
O211 O 0.38699 0.93354 0.01696 0.0
O212 O 0.62834 0.94497 0.94374 0.0
O213 O 0.56755 0.87584 0.92429 0.0
O214 O 0.58852 0.93703 0.04094 0.0
C215 C 0.61099 0.90356 0.92372 0.0
O216 O 0.52403 0.87152 0.02569 0.0
O217 O 0.4418 0.87473 0.92302 0.0
C218 C 0.56034 0.89647 0.05164 0.0
O219 O 0.43125 0.94521 0.92707 0.0
O220 O 0.52675 0.04073 0.92223 0.0
O221 O 0.60177 0.04199 0.93187 0.0
C222 C 0.90609 0.59804 0.03517 0.0
C223 C 0.92672 0.5771 0.89983 0.0
C224 C 0.91478 0.39961 0.94681 0.0
Mg225 Mg 0.99165 0.6027 -0.01403 0.0
O226 O 0.97042 0.53958 0.00244 0.0
Mg227 Mg 0.90384 0.49877 0.98223 0.0
Mg228 Mg 0.00183 0.49743 0.9825 0.0
O229 O 0.03281 0.4547 0.96257 0.0
Mg230 Mg 0.0121 0.3937 -0.01499 0.0
Mg231 Mg 0.1001 0.49566 0.9783 0.0
C232 C 0.09136 0.59557 0.0175 0.0
C233 C 0.05047 0.53997 0.89909 0.0
O234 O 0.88403 0.55493 0.02001 0.0
O235 O 0.9484 0.62309 0.02711 0.0
O236 O 0.90098 0.53939 0.91781 0.0
O237 O 0.96625 0.6048 0.91913 0.0
O238 O 0.06637 0.62097 0.00593 0.0
O239 O 0.07367 0.54965 0.014 0.0
C240 C 0.94949 0.45582 0.06456 0.0
O241 O 0.98693 0.4618 0.04598 0.0
O242 O 0.91393 0.46478 0.04621 0.0
O243 O 0.11533 0.43543 0.94068 0.0
O244 O 0.05221 0.36755 0.94452 0.0
O245 O 0.10848 0.45802 0.04335 0.0
C246 C 0.0928 0.39056 0.93121 0.0
O247 O 0.04257 0.39589 0.05138 0.0
O248 O 0.93621 0.3752 0.96825 0.0
C249 C 0.08463 0.42299 0.06558 0.0
O250 O 0.9318 0.44549 0.94832 0.0
O251 O 0.01502 0.53353 0.92042 0.0
O252 O 0.08646 0.52939 0.9137 0.0
C253 C 0.39655 0.58847 0.04012 0.0
C254 C 0.42473 0.58772 0.9072 0.0
C255 C 0.41351 0.404 0.93215 0.0
Mg256 Mg 0.4872 0.59786 -0.00489 0.0
O257 O 0.4617 0.53265 0.00434 0.0
Mg258 Mg 0.39577 0.49562 0.97692 0.0
Mg259 Mg 0.49745 0.49307 -0.01305 0.0
O260 O 0.53299 0.45362 0.9697 0.0
Mg261 Mg 0.50765 0.38775 0.9746 0.0
Mg262 Mg 0.59872 0.48989 -0.00226 0.0
C263 C 0.57987 0.58169 0.04272 0.0
C264 C 0.57971 0.55689 0.91803 0.0
O265 O 0.37385 0.54732 0.02044 0.0
O266 O 0.44021 0.61274 0.03572 0.0
O267 O 0.4 0.54656 0.91976 0.0
O268 O 0.46369 0.61369 0.92928 0.0
O269 O 0.55951 0.60957 0.02567 0.0
O270 O 0.56284 0.53622 0.03483 0.0
C271 C 0.41615 0.42978 0.05658 0.0
O272 O 0.4592 0.44004 0.04604 0.0
O273 O 0.38821 0.44661 0.03454 0.0
O274 O 0.6211 0.44029 0.95189 0.0
O275 O 0.55392 0.37719 0.93102 0.0
O276 O 0.59424 0.43575 0.05346 0.0
C277 C 0.59773 0.40192 0.92807 0.0
O278 O 0.53128 0.36874 0.03911 0.0
O279 O 0.43526 0.3758 0.9449 0.0
C280 C 0.56952 0.39318 0.06313 0.0
O281 O 0.43153 0.44932 0.94043 0.0
O282 O 0.536 0.54602 0.92703 0.0
O283 O 0.60702 0.54082 0.94189 0.0
C284 C 0.88144 0.57835 0.54478 0.0
C285 C 0.92907 0.58518 0.41389 0.0
C286 C 0.91306 0.39992 0.44155 0.0
Mg287 Mg 0.97754 0.59345 0.50766 0.0
O288 O 0.95477 0.52766 0.51169 0.0
Mg289 Mg 0.89125 0.4909 0.47971 0.0
Mg290 Mg 0.99327 0.49166 0.49195 0.0
O291 O 0.03202 0.45527 0.47359 0.0
Mg292 Mg 0.00938 0.39137 0.48759 0.0
Mg293 Mg 0.09714 0.49355 0.50271 0.0
C294 C 0.07272 0.58023 0.55006 0.0
C295 C 0.06784 0.55794 0.42703 0.0
O296 O 0.8617 0.53828 0.52255 0.0
O297 O 0.92535 0.60433 0.54415 0.0
O298 O 0.90032 0.54437 0.42364 0.0
O299 O 0.96506 0.60932 0.44044 0.0
O300 O 0.04798 0.60634 0.53996 0.0
O301 O 0.0581 0.53569 0.53899 0.0
C302 C 0.91724 0.42585 0.55461 0.0
O303 O 0.96046 0.43989 0.54536 0.0
O304 O 0.88631 0.44037 0.53432 0.0
O305 O 0.12224 0.44516 0.4582 0.0
O306 O 0.05799 0.37705 0.44846 0.0
O307 O 0.09703 0.44174 0.55981 0.0
C308 C 0.10021 0.40293 0.44051 0.0
O309 O 0.02983 0.37876 0.55445 0.0
O310 O 0.9359 0.37528 0.46056 0.0
C311 C 0.07076 0.40216 0.57431 0.0
O312 O 0.92886 0.44588 0.44483 0.0
O313 O 0.02506 0.54379 0.43748 0.0
O314 O 0.09916 0.54381 0.44707 0.0
C315 C 0.39309 0.09771 0.52162 0.0
C316 C 0.40657 0.06309 0.38906 0.0
C317 C 0.40945 0.89515 0.44467 0.0
Mg318 Mg 0.47704 0.09805 0.47141 0.0
O319 O 0.45804 0.03774 0.49482 0.0
Mg320 Mg 0.39213 -0.00637 0.47778 0.0
Mg321 Mg 0.49329 -0.00318 0.48103 0.0
O322 O 0.52859 0.95601 0.46692 0.0
Mg323 Mg 0.50902 0.89437 0.48774 0.0
Mg324 Mg 0.59372 0.00086 0.48691 0.0
C325 C 0.5752 0.09863 0.51512 0.0
C326 C 0.54852 0.03635 0.39988 0.0
O327 O 0.372 0.05278 0.51153 0.0
O328 O 0.43424 0.1219 0.51014 0.0
O329 O 0.38394 0.02715 0.41077 0.0
O330 O 0.44655 0.0933 0.40488 0.0
O331 O 0.55295 0.12034 0.49086 0.0
O332 O 0.56051 0.05282 0.51545 0.0
C333 C 0.4403 0.95778 0.56333 0.0
O334 O 0.47796 0.96447 0.54519 0.0
O335 O 0.40404 0.96477 0.54417 0.0
O336 O 0.61843 0.94492 0.4546 0.0
O337 O 0.55714 0.87447 0.45239 0.0
O338 O 0.5974 0.96527 0.55306 0.0
C339 C 0.59885 0.90032 0.4433 0.0
O340 O 0.5339 0.89881 0.5564 0.0
O341 O 0.43471 0.87134 0.46045 0.0
C342 C 0.57329 0.92907 0.57375 0.0
O343 O 0.42479 0.941 0.44836 0.0
O344 O 0.50969 0.02911 0.4164 0.0
O345 O 0.58443 0.03031 0.42084 0.0
C346 C 0.14197 0.1037 0.30983 0.0
C347 C 0.14767 0.15237 0.30669 0.0
C348 C 0.11432 0.07392 0.34099 0.0
C349 C 0.08934 0.09015 0.37055 0.0
H350 H 0.16052 0.08857 0.28901 0.0
H351 H 0.11354 0.03765 0.34273 0.0
S352 S 0.09074 0.21386 0.37711 0.0
N353 N 0.12455 0.21489 0.33728 0.0
N354 N 0.07233 0.15872 0.39421 0.0
C355 C 0.09333 0.13815 0.36715 0.0
C356 C 0.12232 0.16902 0.33588 0.0
C357 C 0.84915 0.18413 0.38304 0.0
C358 C 0.82626 0.16994 0.33998 0.0
C359 C 0.88078 0.16376 0.40289 0.0
C360 C 0.89011 0.12709 0.38127 0.0
H361 H 0.84205 0.21089 0.40211 0.0
H362 H 0.89588 0.17494 0.43668 0.0
S363 S 0.84183 0.07819 0.2674 0.0
N364 N 0.81797 0.11883 0.27514 0.0
N365 N 0.87544 0.07861 0.31367 0.0
C366 C 0.86856 0.11316 0.33785 0.0
C367 C 0.8373 0.13512 0.3169 0.0
C368 C 0.80919 0.81368 0.34828 0.0
C369 C 0.81342 0.83524 0.30727 0.0
C370 C 0.83271 0.83988 0.38728 0.0
C371 C 0.86126 0.88849 0.38644 0.0
H372 H 0.79119 0.77545 0.34972 0.0
H373 H 0.83251 0.82089 0.41751 0.0
S374 S 0.87532 0.96306 0.28814 0.0
N375 N 0.84178 0.90884 0.26856 0.0
N376 N 0.8856 0.95871 0.34199 0.0
C377 C 0.86064 0.91161 0.34632 0.0
C378 C 0.83711 0.88467 0.3065 0.0
C379 C 0.11756 0.84256 0.3199 0.0
C380 C 0.16482 0.84653 0.3316 0.0
C381 C 0.09401 0.86154 0.34794 0.0
C382 C 0.11717 0.8859 0.3882 0.0
H383 H 0.09791 0.82276 0.28999 0.0
H384 H 0.05712 0.85652 0.33826 0.0
S385 S 0.24242 0.90961 0.43186 0.0
N386 N 0.23503 0.87909 0.38474 0.0
N387 N 0.19093 0.91538 0.43695 0.0
C388 C 0.16519 0.89222 0.39912 0.0
C389 C 0.18895 0.87233 0.37094 0.0
C390 C 0.13831 0.89173 0.65272 0.0
C391 C 0.14264 0.84692 0.64754 0.0
C392 C 0.10667 0.90545 0.62413 0.0
C393 C 0.07736 0.8749 0.58926 0.0
H394 H 0.16141 0.91769 0.6776 0.0
H395 H 0.10722 0.9415 0.62781 0.0
S396 S 0.07059 0.75149 0.56393 0.0
N397 N 0.11133 0.77012 0.60682 0.0
N398 N 0.05191 0.79603 0.55336 0.0
C399 C 0.07852 0.82858 0.58567 0.0
C400 C 0.11113 0.8146 0.61467 0.0
C401 C 0.17259 0.17064 0.60401 0.0
C402 C 0.16768 0.15101 0.64605 0.0
C403 C 0.1443 0.14542 0.56641 0.0
C404 C 0.11101 0.09916 0.56922 0.0
H405 H 0.1964 0.20693 0.6004 0.0
H406 H 0.14635 0.16334 0.53542 0.0
S407 S 0.09028 0.02875 0.67016 0.0
N408 N 0.13112 0.08073 0.6875 0.0
N409 N 0.07852 0.03252 0.61641 0.0
C410 C 0.10885 0.07744 0.61029 0.0
C411 C 0.13693 0.10365 0.64888 0.0
C412 C 0.79416 0.10561 0.60688 0.0
C413 C 0.82126 0.13916 0.6406 0.0
C414 C 0.816 0.08718 0.57668 0.0
C415 C 0.86581 0.10267 0.57849 0.0
H416 H 0.75574 0.09464 0.60299 0.0
H417 H 0.79371 0.06215 0.55073 0.0
S418 S 0.95243 0.18959 0.66186 0.0
N419 N 0.89983 0.18616 0.6753 0.0
N420 N 0.9416 0.15243 0.61863 0.0
C421 C 0.89324 0.1353 0.6132 0.0
C422 C 0.87078 0.15332 0.64428 0.0
C423 C 0.87504 0.85375 0.65182 0.0
C424 C 0.82478 0.82968 0.64585 0.0
C425 C 0.90108 0.88295 0.61877 0.0
C426 C 0.87839 0.88931 0.57757 0.0
H427 H 0.89444 0.85109 0.68287 0.0
H428 H 0.93895 0.9019 0.62625 0.0
S429 S 0.74872 0.82926 0.54218 0.0
N430 N 0.75488 0.81188 0.59301 0.0
N431 N 0.80243 0.86421 0.53198 0.0
C432 C 0.8286 0.86338 0.57069 0.0
C433 C 0.80235 0.83449 0.60421 0.0
C434 C 0.29229 0.10887 0.08401 0.0
C435 C 0.31648 0.12632 0.12596 0.0
C436 C 0.31221 0.08756 0.05399 0.0
C437 C 0.35668 0.08347 0.0654 0.0
H438 H 0.25948 0.11429 0.07345 0.0
H439 H 0.29422 0.07689 0.02101 0.0
S440 S 0.42917 0.11523 0.17417 0.0
N441 N 0.38342 0.13165 0.17948 0.0
N442 N 0.42078 0.0924 0.12325 0.0
C443 C 0.37904 0.09738 0.10843 0.0
C444 C 0.3589 0.11863 0.13873 0.0
C445 C 0.9158 0.36635 0.14775 0.0
C446 C 0.89379 0.38863 0.17458 0.0
C447 C 0.94205 0.39136 0.11479 0.0
C448 C 0.94634 0.43868 0.1087 0.0
H449 H 0.90779 0.32821 0.14855 0.0
H450 H 0.953 0.37197 0.09056 0.0
S451 S 0.91052 0.51676 0.18039 0.0
N452 N 0.88936 0.46337 0.20107 0.0
N453 N 0.93887 0.51052 0.13838 0.0
C454 C 0.93257 0.46347 0.14052 0.0
C455 C 0.90606 0.43818 0.17415 0.0
C456 C 0.56973 0.80399 0.1325 0.0
C457 C 0.60944 0.8301 0.16198 0.0
C458 C 0.5526 0.82618 0.09811 0.0
C459 C 0.57404 0.87546 0.09233 0.0
H460 H 0.553 0.76571 0.13474 0.0
H461 H 0.52365 0.8041 0.07482 0.0
S462 S 0.67416 0.96086 0.1656 0.0
N463 N 0.66668 0.90829 0.18635 0.0
N464 N 0.63378 0.95057 0.12254 0.0
C465 C 0.61192 0.90245 0.1235 0.0
C466 C 0.62981 0.87963 0.15809 0.0
C467 C 0.15658 0.6214 0.13 0.0
C468 C 0.17279 0.67159 0.13238 0.0
C469 C 0.13635 0.59569 0.08998 0.0
C470 C 0.13181 0.61946 0.05103 0.0
H471 H 0.15696 0.60174 0.15972 0.0
H472 H 0.11998 0.55722 0.09067 0.0
S473 S 0.18222 0.75018 0.03744 0.0
N474 N 0.19258 0.7439 0.09092 0.0
N475 N 0.155 0.69563 0.01551 0.0
C476 C 0.15389 0.66949 0.05203 0.0
C477 C 0.17381 0.69562 0.09284 0.0
C478 C 0.35217 0.8425 0.80709 0.0
C479 C 0.30429 0.83408 0.81262 0.0
C480 C 0.3882 0.86635 0.83985 0.0
C481 C 0.37797 0.88301 0.87925 0.0
H482 H 0.36202 0.82835 0.77831 0.0
H483 H 0.42439 0.8703 0.83495 0.0
S484 S 0.25998 0.87677 0.90767 0.0
N485 N 0.24907 0.84885 0.85862 0.0
N486 N 0.31812 0.89464 0.92073 0.0
C487 C 0.33108 0.87834 0.88424 0.0
C488 C 0.29386 0.85347 0.85076 0.0
C489 C 0.18105 0.36468 0.86466 0.0
C490 C 0.15473 0.31944 0.84448 0.0
C491 C 0.16099 0.38691 0.89312 0.0
C492 C 0.11379 0.36474 0.90286 0.0
H493 H 0.21747 0.38358 0.85806 0.0
H494 H 0.1827 0.42199 0.90725 0.0
S495 S 0.03013 0.24519 0.85953 0.0
N496 N 0.07936 0.25273 0.83658 0.0
N497 N 0.04166 0.29371 0.89102 0.0
C498 C 0.08743 0.31873 0.88385 0.0
C499 C 0.10788 0.29627 0.85448 0.0
C500 C 0.6374 0.16588 0.8564 0.0
C501 C 0.62348 0.15227 0.8115 0.0
C502 C 0.61783 0.13473 0.88917 0.0
C503 C 0.58383 0.08932 0.87783 0.0
H504 H 0.66349 0.20082 0.86626 0.0
H505 H 0.6299 0.14585 0.92355 0.0
S506 S 0.53829 0.03564 0.76519 0.0
N507 N 0.57519 0.09014 0.75722 0.0
N508 N 0.53856 0.03101 0.81935 0.0
C509 C 0.56954 0.07519 0.83319 0.0
C510 C 0.58937 0.10698 0.79975 0.0
C511 C 0.83491 0.5838 0.80993 0.0
C512 C 0.85242 0.63224 0.79967 0.0
C513 C 0.86106 0.56506 0.8397 0.0
C514 C 0.90591 0.59396 0.86021 0.0
H515 H 0.79969 0.56046 0.79656 0.0
H516 H 0.84475 0.52825 0.84842 0.0
S517 S 0.97151 0.72113 0.83789 0.0
N518 N 0.91992 0.7072 0.8075 0.0
N519 N 0.96964 0.67211 0.86314 0.0
C520 C 0.92571 0.64148 0.84708 0.0
C521 C 0.89876 0.66064 0.81701 0.0
C522 C 0.18584 0.41439 0.14387 0.0
C523 C 0.16484 0.37084 0.16397 0.0
C524 C 0.15892 0.43261 0.11434 0.0
C525 C 0.10974 0.40814 0.1038 0.0
H526 H 0.22376 0.43404 0.14997 0.0
H527 H 0.17739 0.46528 0.09842 0.0
S528 S 0.03651 0.29611 0.15319 0.0
N529 N 0.09135 0.3061 0.1752 0.0
N530 N 0.04028 0.34033 0.11997 0.0
C531 C 0.08777 0.36585 0.12585 0.0
C532 C 0.11544 0.34709 0.15569 0.0
C533 C 0.07557 0.63364 0.81773 0.0
C534 C 0.08776 0.60962 0.78371 0.0
C535 C 0.05769 0.60925 0.8547 0.0
C536 C 0.05006 0.56065 0.85659 0.0
H537 H 0.08766 0.67227 0.81947 0.0
H538 H 0.05562 0.62934 0.88362 0.0
S539 S 0.05192 0.47921 0.76638 0.0
N540 N 0.07336 0.53306 0.74668 0.0
N541 N 0.03869 0.48677 0.81662 0.0
C542 C 0.05095 0.53491 0.81863 0.0
C543 C 0.0693 0.55972 0.78114 0.0
C544 C 0.40797 0.18852 0.83673 0.0
C545 C 0.36689 0.1668 0.80719 0.0
C546 C 0.42694 0.1616 0.86491 0.0
C547 C 0.40589 0.11145 0.86491 0.0
H548 H 0.4254 0.22698 0.83873 0.0
H549 H 0.4577 0.18073 0.88784 0.0
S550 S 0.30099 0.03655 0.78981 0.0
N551 N 0.30788 0.09182 0.77688 0.0
N552 N 0.34343 0.04091 0.82982 0.0
C553 C 0.36568 0.08902 0.83429 0.0
C554 C 0.34617 0.11669 0.80559 0.0
C555 C 0.81601 0.35367 0.85275 0.0
C556 C 0.83144 0.32272 0.82864 0.0
C557 C 0.84286 0.37903 0.89119 0.0
C558 C 0.88681 0.37555 0.90542 0.0
H559 H 0.78279 0.35794 0.84237 0.0
H560 H 0.82898 0.40081 0.91002 0.0
S561 S 0.95085 0.31515 0.84352 0.0
N562 N 0.89774 0.29931 0.81564 0.0
N563 N 0.95007 0.34948 0.88572 0.0
C564 C 0.9051 0.3495 0.87833 0.0
C565 C 0.87703 0.32252 0.84035 0.0
C566 C 0.66334 0.81867 0.87881 0.0
C567 C 0.6797 0.83931 0.8393 0.0
C568 C 0.64447 0.84173 0.90785 0.0
C569 C 0.64128 0.88626 0.89842 0.0
H570 H 0.66192 0.78286 0.88571 0.0
H571 H 0.62968 0.82332 0.93663 0.0
S572 S 0.67865 0.95511 0.79906 0.0
N573 N 0.69183 0.90688 0.79232 0.0
N574 N 0.65664 0.95057 0.84723 0.0
C575 C 0.65974 0.9085 0.86019 0.0
C576 C 0.67892 0.88488 0.83049 0.0
C577 C 0.81288 0.62817 0.08954 0.0
C578 C 0.83897 0.65329 0.12825 0.0
C579 C 0.835 0.61077 0.05889 0.0
C580 C 0.88361 0.61799 0.06648 0.0
H581 H 0.77528 0.62191 0.08306 0.0
H582 H 0.81407 0.59158 0.0292 0.0
S583 S 0.96485 0.67497 0.16662 0.0
N584 N 0.91398 0.68057 0.17492 0.0
N585 N 0.9558 0.64764 0.11753 0.0
C586 C 0.90961 0.64204 0.10578 0.0
C587 C 0.88713 0.65977 0.13674 0.0
C588 C 0.33632 0.82845 0.10798 0.0
C589 C 0.36685 0.82565 0.14482 0.0
C590 C 0.35367 0.85775 0.0731 0.0
C591 C 0.40233 0.88566 0.07341 0.0
H592 H 0.29863 0.80752 0.10574 0.0
H593 H 0.32846 0.85858 0.04562 0.0
S594 S 0.49709 0.89283 0.16297 0.0
N595 N 0.44827 0.85402 0.17989 0.0
N596 N 0.4807 0.90952 0.11438 0.0
C597 C 0.43341 0.88315 0.10992 0.0
C598 C 0.41571 0.85316 0.1456 0.0
C599 C 0.69058 0.15573 0.09248 0.0
C600 C 0.67724 0.15518 0.13572 0.0
C601 C 0.65852 0.12736 0.05792 0.0
C602 C 0.61318 0.09638 0.0662 0.0
H603 H 0.72475 0.18031 0.08468 0.0
H604 H 0.66827 0.13136 0.02442 0.0
S605 S 0.56162 0.0784 0.17303 0.0
N606 N 0.61518 0.11933 0.18413 0.0
N607 N 0.55715 0.06419 0.11996 0.0
C608 C 0.60068 0.09293 0.10943 0.0
C609 C 0.6322 0.12279 0.14408 0.0
C610 C 0.61006 0.64974 0.8241 0.0
C611 C 0.65247 0.64701 0.80978 0.0
C612 C 0.58542 0.62034 0.85771 0.0
C613 C 0.6017 0.58632 0.87884 0.0
H614 H 0.59625 0.67572 0.81001 0.0
H615 H 0.55415 0.62526 0.86791 0.0
S616 S 0.70769 0.56049 0.85022 0.0
N617 N 0.70687 0.6043 0.81816 0.0
N618 N 0.6616 0.54955 0.87876 0.0
C619 C 0.64296 0.58214 0.8632 0.0
C620 C 0.66791 0.6121 0.82967 0.0
C621 C 0.33661 0.59504 0.81313 0.0
C622 C 0.33158 0.63884 0.82255 0.0
C623 C 0.36979 0.58029 0.83846 0.0
C624 C 0.40031 0.60918 0.87362 0.0
H625 H 0.31326 0.5708 0.78717 0.0
H626 H 0.37015 0.54501 0.83166 0.0
S627 S 0.40414 0.72863 0.91041 0.0
N628 N 0.36193 0.71211 0.86856 0.0
N629 N 0.42471 0.68473 0.91548 0.0
C630 C 0.39751 0.65421 0.88196 0.0
C631 C 0.36304 0.66889 0.85671 0.0
C632 C 0.35692 0.37302 0.81586 0.0
C633 C 0.32116 0.32837 0.82013 0.0
C634 C 0.38318 0.40088 0.85333 0.0
C635 C 0.37504 0.38459 0.8962 0.0
H636 H 0.36587 0.38572 0.78341 0.0
H637 H 0.41264 0.43345 0.84859 0.0
S638 S 0.28221 0.27339 0.92599 0.0
N639 N 0.27561 0.27194 0.87144 0.0
N640 N 0.32665 0.32366 0.94117 0.0
C641 C 0.33755 0.34175 0.90105 0.0
C642 C 0.31015 0.31379 0.86317 0.0
C643 C 0.68669 0.36242 0.87688 0.0
C644 C 0.66171 0.34095 0.83614 0.0
C645 C 0.66698 0.38477 0.90563 0.0
C646 C 0.62117 0.38525 0.89498 0.0
H647 H 0.72129 0.36088 0.88729 0.0
H648 H 0.68665 0.39948 0.93727 0.0
S649 S 0.54253 0.33751 0.79107 0.0
N650 N 0.59033 0.32463 0.78531 0.0
N651 N 0.55255 0.36576 0.8398 0.0
C652 C 0.5966 0.36577 0.85357 0.0
C653 C 0.61709 0.34383 0.82395 0.0
C654 C 0.66592 0.37172 0.14069 0.0
C655 C 0.65234 0.32183 0.13783 0.0
C656 C 0.63669 0.3946 0.11989 0.0
C657 C 0.59245 0.36849 0.09573 0.0
H658 H 0.70081 0.39343 0.15627 0.0
H659 H 0.65042 0.43322 0.12042 0.0
S660 S 0.53717 0.23605 0.08601 0.0
N661 N 0.58948 0.24664 0.11427 0.0
N662 N 0.53417 0.28894 0.07619 0.0
C663 C 0.57672 0.31823 0.09653 0.0
C664 C 0.60681 0.29514 0.11713 0.0
C665 C 0.68054 0.64012 0.13229 0.0
C666 C 0.65629 0.65073 0.16592 0.0
C667 C 0.65588 0.61456 0.09308 0.0
C668 C 0.60622 0.59922 0.08628 0.0
H669 H 0.71884 0.65479 0.13456 0.0
H670 H 0.67581 0.6094 0.06704 0.0
S671 S 0.52529 0.61509 0.16392 0.0
N672 N 0.57905 0.64091 0.19003 0.0
N673 N 0.53319 0.59392 0.11636 0.0
C674 C 0.58139 0.60742 0.12026 0.0
C675 C 0.60626 0.63297 0.16006 0.0
C676 C 0.31535 0.59629 0.12523 0.0
C677 C 0.33048 0.64564 0.13412 0.0
C678 C 0.33631 0.5778 0.09409 0.0
C679 C 0.3728 0.60828 0.07093 0.0
H680 H 0.2864 0.57204 0.14154 0.0
H681 H 0.32403 0.53949 0.08831 0.0
S682 S 0.42186 0.74074 0.08073 0.0
N683 N 0.38185 0.72466 0.11648 0.0
N684 N 0.42149 0.69056 0.05811 0.0
C685 C 0.38776 0.65785 0.0796 0.0
C686 C 0.36644 0.67638 0.11113 0.0
C687 C 0.33522 0.38098 0.14942 0.0
C688 C 0.34227 0.33879 0.16232 0.0
C689 C 0.36069 0.41019 0.11698 0.0
C690 C 0.39582 0.4 0.09562 0.0
H691 H 0.3082 0.3908 0.16324 0.0
H692 H 0.35187 0.44105 0.10792 0.0
S693 S 0.43227 0.29641 0.11984 0.0
N694 N 0.38996 0.29008 0.15245 0.0
N695 N 0.43811 0.34531 0.09253 0.0
C696 C 0.40507 0.35916 0.10957 0.0
C697 C 0.37829 0.32864 0.14231 0.0
C698 C 0.79846 0.63103 0.59237 0.0
C699 C 0.8211 0.64488 0.6355 0.0
C700 C 0.81557 0.60575 0.56324 0.0
C701 C 0.85556 0.5938 0.57677 0.0
H702 H 0.76957 0.64241 0.58027 0.0
H703 H 0.79952 0.59835 0.52935 0.0
S704 S 0.92223 0.61563 0.6884 0.0
N705 N 0.8817 0.64002 0.6916 0.0
N706 N 0.91348 0.59284 0.63741 0.0
C707 C 0.87586 0.60441 0.62079 0.0
C708 C 0.8587 0.6299 0.65006 0.0
C709 C 0.39831 0.94119 0.67229 0.0
C710 C 0.38046 0.89131 0.67098 0.0
C711 C 0.42623 0.96498 0.6398 0.0
C712 C 0.43661 0.93886 0.6066 0.0
H713 H 0.38497 0.96124 0.69374 0.0
H714 H 0.43397 0.00292 0.63703 0.0
S715 S 0.41047 0.80918 0.59869 0.0
N716 N 0.38559 0.81767 0.64241 0.0
N717 N 0.43668 0.86275 0.57992 0.0
C718 C 0.42668 0.89012 0.61031 0.0
C719 C 0.39882 0.86601 0.64349 0.0
C720 C 0.07889 0.31004 0.65675 0.0
C721 C 0.12821 0.32061 0.66612 0.0
C722 C 0.06085 0.33792 0.62891 0.0
C723 C 0.09112 0.37842 0.60956 0.0
H724 H 0.05354 0.27916 0.67026 0.0
H725 H 0.02263 0.32672 0.62162 0.0
S726 S 0.22337 0.42306 0.62433 0.0
N727 N 0.20722 0.37535 0.65443 0.0
N728 N 0.1735 0.42837 0.60263 0.0
C729 C 0.14067 0.39052 0.61974 0.0
C730 C 0.15912 0.36155 0.6478 0.0
C731 C 0.66185 0.13336 0.61933 0.0
C732 C 0.65429 0.17336 0.63668 0.0
C733 C 0.63751 0.11031 0.57916 0.0
C734 C 0.60398 0.12577 0.55536 0.0
H735 H 0.68703 0.11985 0.6366 0.0
H736 H 0.64473 0.07999 0.56684 0.0
S737 S 0.5621 0.22059 0.59315 0.0
N738 N 0.6056 0.22229 0.63091 0.0
N739 N 0.55848 0.17839 0.55663 0.0
C740 C 0.59371 0.16367 0.57417 0.0
C741 C 0.61903 0.18743 0.61459 0.0
C742 C 0.80442 0.35985 0.35578 0.0
C743 C 0.81443 0.32676 0.32928 0.0
C744 C 0.83635 0.38426 0.39238 0.0
C745 C 0.8781 0.37481 0.40406 0.0
H746 H 0.77244 0.36765 0.34759 0.0
H747 H 0.82825 0.41017 0.41172 0.0
S748 S 0.91958 0.291 0.34509 0.0
N749 N 0.86908 0.28666 0.3169 0.0
N750 N 0.92764 0.33038 0.38565 0.0
C751 C 0.88784 0.34141 0.37778 0.0
C752 C 0.85635 0.31789 0.34042 0.0
C753 C 0.69589 0.87629 0.38892 0.0
C754 C 0.66958 0.84287 0.35493 0.0
C755 C 0.67281 0.89409 0.41843 0.0
C756 C 0.62289 0.8791 0.41442 0.0
H757 H 0.73441 0.88899 0.39238 0.0
H758 H 0.69407 0.92 0.4442 0.0
S759 S 0.53891 0.79722 0.32677 0.0
N760 N 0.59183 0.79849 0.31649 0.0
N761 N 0.54837 0.83202 0.37148 0.0
C762 C 0.59644 0.84618 0.38001 0.0
C763 C 0.61986 0.82804 0.35031 0.0
C764 C 0.14806 0.65161 0.35824 0.0
C765 C 0.11753 0.654 0.32126 0.0
C766 C 0.13112 0.62117 0.3924 0.0
C767 C 0.08289 0.59169 0.39121 0.0
H768 H 0.18546 0.67377 0.36117 0.0
H769 H 0.15627 0.62086 0.42013 0.0
S770 S 0.98832 0.58251 0.3008 0.0
N771 N 0.03658 0.62328 0.28489 0.0
N772 N 0.00487 0.56565 0.34928 0.0
C773 C 0.05173 0.59361 0.35452 0.0
C774 C 0.06904 0.62478 0.31951 0.0
C775 C 0.37146 0.1403 0.30565 0.0
C776 C 0.3247 0.11151 0.28984 0.0
C777 C 0.39941 0.12278 0.33474 0.0
C778 C 0.38144 0.07595 0.34976 0.0
H779 H 0.38627 0.17711 0.29648 0.0
H780 H 0.43438 0.14726 0.34748 0.0
S781 S 0.26332 0.98394 0.31327 0.0
N782 N 0.26354 0.03199 0.28714 0.0
N783 N 0.31551 -0.00039 0.34284 0.0
C784 C 0.33583 0.04581 0.33185 0.0
C785 C 0.30758 0.06348 0.30173 0.0
C786 C 0.67149 0.9047 0.6413 0.0
C787 C 0.64657 0.86734 0.66728 0.0
C788 C 0.64766 0.92802 0.61425 0.0
C789 C 0.59794 0.91471 0.61211 0.0
H790 H 0.7094 0.91438 0.63993 0.0
H791 H 0.66815 0.95416 0.59249 0.0
S792 S 0.51824 0.82661 0.68161 0.0
N793 N 0.57107 0.82323 0.695 0.0
N794 N 0.52587 0.8673 0.64383 0.0
C795 C 0.57324 0.88026 0.6409 0.0
C796 C 0.59763 0.85636 0.66848 0.0
C797 C 0.60333 0.05921 0.29711 0.0
C798 C 0.61192 0.10814 0.2956 0.0
C799 C 0.57442 0.03226 0.32747 0.0
C800 C 0.55405 0.05414 0.35618 0.0
H801 H 0.62351 0.04315 0.27928 0.0
H802 H 0.57333 -0.00378 0.33261 0.0
S803 S 0.55217 0.17623 0.35279 0.0
N804 N 0.58639 0.17347 0.31457 0.0
N805 N 0.53419 0.12296 0.37389 0.0
C806 C 0.55497 0.10018 0.34883 0.0
C807 C 0.58369 0.12743 0.31755 0.0
C808 C 0.92055 0.68328 0.34017 0.0
C809 C 0.88075 0.65937 0.31006 0.0
C810 C 0.93781 0.65845 0.37193 0.0
C811 C 0.91606 0.60865 0.37461 0.0
H812 H 0.93734 0.72178 0.34043 0.0
H813 H 0.96709 0.67896 0.39577 0.0
S814 S 0.81721 0.5286 0.2967 0.0
N815 N 0.8243 0.58285 0.28032 0.0
N816 N 0.85703 0.53565 0.33977 0.0
C817 C 0.87843 0.58393 0.34237 0.0
C818 C 0.86061 0.60943 0.31021 0.0
C819 C 0.32463 0.79253 0.37195 0.0
C820 C 0.32354 0.81353 0.33091 0.0
C821 C 0.34832 0.82032 0.4102 0.0
C822 C 0.37204 0.87004 0.40872 0.0
H823 H 0.30757 0.75432 0.37442 0.0
H824 H 0.35033 0.80241 0.44075 0.0
S825 S 0.37955 0.94174 0.30861 0.0
N826 N 0.3469 0.88671 0.29086 0.0
N827 N 0.39222 0.93888 0.36228 0.0
C828 C 0.36934 0.8916 0.36802 0.0
C829 C 0.34506 0.86331 0.3292 0.0
C830 C 0.19041 0.38269 0.37097 0.0
C831 C 0.16086 0.349 0.33832 0.0
C832 C 0.17092 0.40051 0.4041 0.0
C833 C 0.12138 0.38457 0.40595 0.0
H834 H 0.2287 0.39503 0.37119 0.0
H835 H 0.19476 0.42629 0.42873 0.0
S836 S 0.02881 0.29958 0.32584 0.0
N837 N 0.07951 0.30325 0.30826 0.0
N838 N 0.04336 0.33516 0.37043 0.0
C839 C 0.09168 0.35163 0.37285 0.0
C840 C 0.1113 0.33432 0.33906 0.0
C841 C 0.3153 0.11364 0.60581 0.0
C842 C 0.33584 0.16263 0.61794 0.0
C843 C 0.33273 0.09345 0.57331 0.0
C844 C 0.37154 0.12135 0.55148 0.0
H845 H 0.28591 0.09013 0.6221 0.0
H846 H 0.31642 0.05533 0.56637 0.0
S847 S 0.43541 0.25241 0.56808 0.0
N848 N 0.3951 0.23922 0.60359 0.0
N849 N 0.42806 0.20149 0.54217 0.0
C850 C 0.39134 0.17085 0.56202 0.0
C851 C 0.3735 0.19141 0.59532 0.0
C852 C 0.83423 0.32979 0.61769 0.0
C853 C 0.86373 0.32526 0.65453 0.0
C854 C 0.85245 0.36182 0.58533 0.0
C855 C 0.90089 0.39075 0.5885 0.0
H856 H 0.79666 0.30822 0.61347 0.0
H857 H 0.82815 0.36383 0.55751 0.0
S858 S 0.99306 0.39331 0.67878 0.0
N859 N 0.94382 0.3524 0.69268 0.0
N860 N 0.97818 0.41338 0.63135 0.0
C861 C 0.93109 0.38644 0.62486 0.0
C862 C 0.91244 0.35355 0.65806 0.0
C863 C 0.14423 0.65505 0.6481 0.0
C864 C 0.18951 0.65318 0.64621 0.0
C865 C 0.10646 0.62881 0.61803 0.0
C866 C 0.1128 0.60075 0.58395 0.0
H867 H 0.13843 0.67899 0.67176 0.0
H868 H 0.07232 0.63221 0.62045 0.0
S869 S 0.22436 0.58282 0.56534 0.0
N870 N 0.23906 0.62025 0.60893 0.0
N871 N 0.16703 0.57048 0.551 0.0
C872 C 0.15742 0.59683 0.58246 0.0
C873 C 0.19629 0.62372 0.61369 0.0
loop_
_geom_bond_atom_site_label_1
_geom_bond_atom_site_label_2
_geom_bond_distance
_geom_bond_site_symmetry_2
_ccdc_geom_bond_type
Zn0 O6 1.969 . S
Zn0 O7 1.965 . S
Zn0 O11 2.024 . S
Zn0 O16 1.969 . S
Zn1 O8 1.969 . S
Zn1 O14 1.969 . S
Zn1 O15 1.965 . S
Zn1 O17 2.024 . S
C2 O3 1.229 . S
C2 O11 1.058 . S
O3 C2 1.229 . S
C4 O5 1.229 . S
C4 O17 1.058 . S
O5 C4 1.229 . S
O6 Zn0 1.969 . S
O6 C9 1.267 . S
O7 Zn0 1.965 . S
O7 C18 1.260 . S
O8 Zn1 1.969 . S
O8 C18 1.258 . S
C9 O6 1.267 . S
C9 O10 1.228 . S
O10 C9 1.228 . S
O11 Zn0 2.024 . S
O11 C2 1.058 . S
C12 O13 1.228 . S
C12 O14 1.267 . S
O13 C12 1.228 . S
O14 Zn1 1.969 . S
O14 C12 1.267 . S
O15 Zn1 1.965 . S
O15 C19 1.260 . S
O16 Zn0 1.969 . S
O16 C19 1.258 . S
O17 Zn1 2.024 . S
O17 C4 1.058 . S
C18 O7 1.260 . S
C18 O8 1.258 . S
C19 O15 1.260 . S
C19 O16 1.258 . S
Zn20 O26 1.969 . S
Zn20 O27 1.965 . S
Zn20 O31 2.024 . S
Zn20 O36 1.969 . S
Zn21 O28 1.969 . S
Zn21 O34 1.969 . S
Zn21 O35 1.965 . S
Zn21 O37 2.024 . S
C22 O23 1.229 . S
C22 O31 1.058 . S
O23 C22 1.229 . S
C24 O25 1.229 . S
C24 O37 1.058 . S
O25 C24 1.229 . S
O26 Zn20 1.969 . S
O26 C29 1.267 . S
O27 Zn20 1.965 . S
O27 C38 1.260 . S
O28 Zn21 1.969 . S
O28 C38 1.258 . S
C29 O26 1.267 . S
C29 O30 1.228 . S
O30 C29 1.228 . S
O31 Zn20 2.024 . S
O31 C22 1.058 . S
C32 O33 1.228 . S
C32 O34 1.267 . S
O33 C32 1.228 . S
O34 Zn21 1.969 . S
O34 C32 1.267 . S
O35 Zn21 1.965 . S
O35 C39 1.260 . S
O36 Zn20 1.969 . S
O36 C39 1.258 . S
O37 Zn21 2.024 . S
O37 C24 1.058 . S
C38 O27 1.260 . S
C38 O28 1.258 . S
C39 O35 1.260 . S
C39 O36 1.258 . S
Zn40 O46 1.969 . S
Zn40 O47 1.965 . S
Zn40 O51 2.024 . S
Zn40 O56 1.969 . S
Zn41 O48 1.969 . S
Zn41 O54 1.969 . S
Zn41 O55 1.965 . S
Zn41 O57 2.024 . S
C42 O43 1.229 . S
C42 O51 1.058 . S
O43 C42 1.229 . S
C44 O45 1.229 . S
C44 O57 1.058 . S
O45 C44 1.229 . S
O46 Zn40 1.969 . S
O46 C49 1.267 . S
O47 Zn40 1.965 . S
O47 C58 1.260 . S
O48 Zn41 1.969 . S
O48 C58 1.258 . S
C49 O46 1.267 . S
C49 O50 1.228 . S
O50 C49 1.228 . S
O51 Zn40 2.024 . S
O51 C42 1.058 . S
C52 O53 1.228 . S
C52 O54 1.267 . S
O53 C52 1.228 . S
O54 Zn41 1.969 . S
O54 C52 1.267 . S
O55 Zn41 1.965 . S
O55 C59 1.260 . S
O56 Zn40 1.969 . S
O56 C59 1.258 . S
O57 Zn41 2.024 . S
O57 C44 1.058 . S
C58 O47 1.260 . S
C58 O48 1.258 . S
C59 O55 1.260 . S
C59 O56 1.258 . S
Zn60 O66 1.969 . S
Zn60 O67 1.965 . S
Zn60 O71 2.024 . S
Zn60 O76 1.969 . S
Zn61 O68 1.969 . S
Zn61 O74 1.969 . S
Zn61 O75 1.965 . S
Zn61 O77 2.024 . S
C62 O63 1.229 . S
C62 O71 1.058 . S
O63 C62 1.229 . S
C64 O65 1.229 . S
C64 O77 1.058 . S
O65 C64 1.229 . S
O66 Zn60 1.969 . S
O66 C69 1.267 . S
O67 Zn60 1.965 . S
O67 C78 1.260 . S
O68 Zn61 1.969 . S
O68 C78 1.258 . S
C69 O66 1.267 . S
C69 O70 1.228 . S
O70 C69 1.228 . S
O71 Zn60 2.024 . S
O71 C62 1.058 . S
C72 O73 1.228 . S
C72 O74 1.267 . S
O73 C72 1.228 . S
O74 Zn61 1.969 . S
O74 C72 1.267 . S
O75 Zn61 1.965 . S
O75 C79 1.260 . S
O76 Zn60 1.969 . S
O76 C79 1.258 . S
O77 Zn61 2.024 . S
O77 C64 1.058 . S
C78 O67 1.260 . S
C78 O68 1.258 . S
C79 O75 1.260 . S
C79 O76 1.258 . S
Zn80 O86 1.969 . S
Zn80 O87 1.965 . S
Zn80 O91 2.024 . S
Zn80 O96 1.969 . S
Zn81 O88 1.969 . S
Zn81 O94 1.969 . S
Zn81 O95 1.965 . S
Zn81 O97 2.024 . S
C82 O83 1.229 . S
C82 O91 1.058 . S
O83 C82 1.229 . S
C84 O85 1.229 . S
C84 O97 1.058 . S
O85 C84 1.229 . S
O86 Zn80 1.969 . S
O86 C89 1.267 . S
O87 Zn80 1.965 . S
O87 C98 1.260 . S
O88 Zn81 1.969 . S
O88 C98 1.258 . S
C89 O86 1.267 . S
C89 O90 1.228 . S
O90 C89 1.228 . S
O91 Zn80 2.024 . S
O91 C82 1.058 . S
C92 O93 1.228 . S
C92 O94 1.267 . S
O93 C92 1.228 . S
O94 Zn81 1.969 . S
O94 C92 1.267 . S
O95 Zn81 1.965 . S
O95 C99 1.260 . S
O96 Zn80 1.969 . S
O96 C99 1.258 . S
O97 Zn81 2.024 . S
O97 C84 1.058 . S
C98 O87 1.260 . S
C98 O88 1.258 . S
C99 O95 1.260 . S
C99 O96 1.258 . S
Zn100 O106 1.969 . S
Zn100 O107 1.965 . S
Zn100 O111 2.024 . S
Zn100 O116 1.969 . S
Zn101 O108 1.969 . S
Zn101 O114 1.969 . S
Zn101 O115 1.965 . S
Zn101 O117 2.024 . S
C102 O103 1.229 . S
C102 O111 1.058 . S
O103 C102 1.229 . S
C104 O105 1.229 . S
C104 O117 1.058 . S
O105 C104 1.229 . S
O106 Zn100 1.969 . S
O106 C109 1.267 . S
O107 Zn100 1.965 . S
O107 C118 1.260 . S
O108 Zn101 1.969 . S
O108 C118 1.258 . S
C109 O106 1.267 . S
C109 O110 1.228 . S
O110 C109 1.228 . S
O111 Zn100 2.024 . S
O111 C102 1.058 . S
C112 O113 1.228 . S
C112 O114 1.267 . S
O113 C112 1.228 . S
O114 Zn101 1.969 . S
O114 C112 1.267 . S
O115 Zn101 1.965 . S
O115 C119 1.260 . S
O116 Zn100 1.969 . S
O116 C119 1.258 . S
O117 Zn101 2.024 . S
O117 C104 1.058 . S
C118 O107 1.260 . S
C118 O108 1.258 . S
C119 O115 1.260 . S
C119 O116 1.258 . S
Zn120 O126 1.969 . S
Zn120 O127 1.965 . S
Zn120 O131 2.024 . S
Zn120 O136 1.969 . S
Zn121 O128 1.969 . S
Zn121 O134 1.969 . S
Zn121 O135 1.965 . S
Zn121 O137 2.024 . S
C122 O123 1.229 . S
C122 O131 1.058 . S
O123 C122 1.229 . S
C124 O125 1.229 . S
C124 O137 1.058 . S
O125 C124 1.229 . S
O126 Zn120 1.969 . S
O126 C129 1.267 . S
O127 Zn120 1.965 . S
O127 C138 1.260 . S
O128 Zn121 1.969 . S
O128 C138 1.258 . S
C129 O126 1.267 . S
C129 O130 1.228 . S
O130 C129 1.228 . S
O131 Zn120 2.024 . S
O131 C122 1.058 . S
C132 O133 1.228 . S
C132 O134 1.267 . S
O133 C132 1.228 . S
O134 Zn121 1.969 . S
O134 C132 1.267 . S
O135 Zn121 1.965 . S
O135 C139 1.260 . S
O136 Zn120 1.969 . S
O136 C139 1.258 . S
O137 Zn121 2.024 . S
O137 C124 1.058 . S
C138 O127 1.260 . S
C138 O128 1.258 . S
C139 O135 1.260 . S
C139 O136 1.258 . S
Zn140 O146 1.969 . S
Zn140 O147 1.965 . S
Zn140 O151 2.024 . S
Zn140 O156 1.969 . S
Zn141 O148 1.969 . S
Zn141 O154 1.969 . S
Zn141 O155 1.965 . S
Zn141 O157 2.024 . S
C142 O143 1.229 . S
C142 O151 1.058 . S
O143 C142 1.229 . S
C144 O145 1.229 . S
C144 O157 1.058 . S
O145 C144 1.229 . S
O146 Zn140 1.969 . S
O146 C149 1.267 . S
O147 Zn140 1.965 . S
O147 C158 1.260 . S
O148 Zn141 1.969 . S
O148 C158 1.258 . S
C149 O146 1.267 . S
C149 O150 1.228 . S
O150 C149 1.228 . S
O151 Zn140 2.024 . S
O151 C142 1.058 . S
C152 O153 1.228 . S
C152 O154 1.267 . S
O153 C152 1.228 . S
O154 Zn141 1.969 . S
O154 C152 1.267 . S
O155 Zn141 1.965 . S
O155 C159 1.260 . S
O156 Zn140 1.969 . S
O156 C159 1.258 . S
O157 Zn141 2.024 . S
O157 C144 1.058 . S
C158 O147 1.260 . S
C158 O148 1.258 . S
C159 O155 1.260 . S
C159 O156 1.258 . S
C160 O172 1.241 . S
C160 O173 1.280 . S
C161 O174 1.277 . S
C161 O175 1.245 . S
C162 O186 1.247 . S
C162 O188 1.289 . S
Mg163 O164 1.926 . S
Mg163 O173 1.984 . S
Mg163 O175 1.988 . S
Mg163 O176 2.061 1_655 S
O164 Mg163 1.926 . S
O164 Mg165 1.984 1_545 S
O164 Mg166 1.919 1_655 S
Mg165 O164 1.984 1_565 S
Mg165 O172 2.034 1_565 S
Mg165 O174 2.032 1_565 S
Mg165 O180 2.048 . S
Mg165 O188 2.246 . S
Mg166 O164 1.919 1_455 S
Mg166 O167 1.914 1_545 S
Mg166 O177 2.107 . S
Mg166 O179 2.077 1_445 S
Mg166 O188 2.106 1_445 S
Mg166 O189 2.080 . S
O167 Mg166 1.914 1_565 S
O167 Mg168 1.926 . S
O167 Mg169 1.981 1_565 S
Mg168 O167 1.926 . S
Mg168 O182 1.984 . S
Mg168 O185 1.988 . S
Mg168 O186 2.061 1_455 S
Mg169 O167 1.981 1_545 S
Mg169 O177 2.254 . S
Mg169 O181 2.026 1_545 S
Mg169 O183 2.024 1_545 S
Mg169 O190 2.056 . S
C170 O176 1.247 . S
C170 O177 1.289 . S
C171 O189 1.245 . S
C171 O190 1.274 . S
O172 C160 1.241 . S
O172 Mg165 2.034 1_545 S
O173 C160 1.280 . S
O173 Mg163 1.984 . S
O174 C161 1.277 . S
O174 Mg165 2.032 1_545 S
O175 C161 1.245 . S
O175 Mg163 1.988 . S
O176 Mg163 2.061 1_455 S
O176 C170 1.247 . S
O177 Mg166 2.107 . S
O177 Mg169 2.254 . S
O177 C170 1.289 . S
C178 O179 1.245 . S
C178 O180 1.274 . S
O179 Mg166 2.077 1_665 S
O179 C178 1.245 . S
O180 Mg165 2.048 . S
O180 C178 1.274 . S
O181 Mg169 2.026 1_565 S
O181 C184 1.241 . S
O182 Mg168 1.984 . S
O182 C184 1.280 . S
O183 Mg169 2.024 1_565 S
O183 C187 1.277 . S
C184 O181 1.241 . S
C184 O182 1.280 . S
O185 Mg168 1.988 . S
O185 C187 1.245 . S
O186 C162 1.247 . S
O186 Mg168 2.061 1_655 S
C187 O183 1.277 . S
C187 O185 1.245 . S
O188 C162 1.289 . S
O188 Mg165 2.246 . S
O188 Mg166 2.106 1_665 S
O189 Mg166 2.080 . S
O189 C171 1.245 . S
O190 Mg169 2.056 . S
O190 C171 1.274 . S
C191 O203 1.241 . S
C191 O204 1.280 . S
C192 O205 1.277 . S
C192 O206 1.245 . S
C193 O217 1.247 . S
C193 O219 1.289 . S
Mg194 O195 1.926 . S
Mg194 O204 1.984 . S
Mg194 O206 1.988 1_554 S
Mg194 O207 2.061 . S
O195 Mg194 1.926 . S
O195 Mg196 1.984 1_544 S
O195 Mg197 1.920 . S
Mg196 O195 1.984 1_566 S
Mg196 O203 2.034 1_566 S
Mg196 O205 2.032 1_565 S
Mg196 O211 2.048 1_556 S
Mg196 O219 2.246 . S
Mg197 O195 1.920 . S
Mg197 O198 1.913 1_544 S
Mg197 O208 2.108 . S
Mg197 O210 2.080 1_545 S
Mg197 O219 2.104 1_544 S
Mg197 O220 2.078 1_554 S
O198 Mg197 1.913 1_566 S
O198 Mg199 1.926 . S
O198 Mg200 1.981 1_566 S
Mg199 O198 1.926 . S
Mg199 O213 1.984 . S
Mg199 O216 1.988 1_556 S
Mg199 O217 2.061 . S
Mg200 O198 1.981 1_544 S
Mg200 O208 2.254 . S
Mg200 O212 2.026 1_544 S
Mg200 O214 2.024 1_545 S
Mg200 O221 2.056 1_554 S
C201 O207 1.247 . S
C201 O208 1.289 . S
C202 O220 1.245 . S
C202 O221 1.274 . S
O203 C191 1.241 . S
O203 Mg196 2.034 1_544 S
O204 C191 1.280 . S
O204 Mg194 1.984 . S
O205 C192 1.277 . S
O205 Mg196 2.032 1_545 S
O206 C192 1.245 . S
O206 Mg194 1.988 1_556 S
O207 Mg194 2.061 . S
O207 C201 1.247 . S
O208 Mg197 2.108 . S
O208 Mg200 2.254 . S
O208 C201 1.289 . S
C209 O210 1.245 . S
C209 O211 1.274 . S
O210 Mg197 2.080 1_565 S
O210 C209 1.245 . S
O211 Mg196 2.048 1_554 S
O211 C209 1.274 . S
O212 Mg200 2.026 1_566 S
O212 C215 1.241 . S
O213 Mg199 1.984 . S
O213 C215 1.280 . S
O214 Mg200 2.024 1_565 S
O214 C218 1.277 . S
C215 O212 1.241 . S
C215 O213 1.280 . S
O216 Mg199 1.988 1_554 S
O216 C218 1.245 . S
O217 C193 1.247 . S
O217 Mg199 2.061 . S
C218 O214 1.277 . S
C218 O216 1.245 . S
O219 C193 1.289 . S
O219 Mg196 2.246 . S
O219 Mg197 2.104 1_566 S
O220 Mg197 2.078 1_556 S
O220 C202 1.245 . S
O221 Mg200 2.056 1_556 S
O221 C202 1.274 . S
C222 O234 1.241 . S
C222 O235 1.280 . S
C223 O236 1.277 . S
C223 O237 1.245 . S
C224 O248 1.247 . S
C224 O250 1.289 . S
Mg225 O226 1.926 . S
Mg225 O235 1.984 . S
Mg225 O237 1.988 1_554 S
Mg225 O238 2.061 1_655 S
O226 Mg225 1.926 . S
O226 Mg227 1.986 1_554 S
O226 Mg228 1.918 1_655 S
Mg227 O226 1.986 1_556 S
Mg227 O234 2.042 1_556 S
Mg227 O236 2.041 . S
Mg227 O242 2.038 1_556 S
Mg227 O250 2.238 . S
Mg228 O226 1.918 1_455 S
Mg228 O229 1.916 1_554 S
Mg228 O239 2.108 . S
Mg228 O241 2.081 1_455 S
Mg228 O250 2.105 1_454 S
Mg228 O251 2.076 1_554 S
O229 Mg228 1.916 1_556 S
O229 Mg230 1.926 . S
O229 Mg231 1.986 1_556 S
Mg230 O229 1.926 . S
Mg230 O244 1.984 . S
Mg230 O247 1.988 1_556 S
Mg230 O248 2.061 1_455 S
Mg231 O229 1.986 1_554 S
Mg231 O239 2.238 . S
Mg231 O243 2.042 1_554 S
Mg231 O245 2.041 . S
Mg231 O252 2.038 1_554 S
C232 O238 1.247 . S
C232 O239 1.289 . S
C233 O251 1.245 . S
C233 O252 1.274 . S
O234 C222 1.241 . S
O234 Mg227 2.042 1_554 S
O235 C222 1.280 . S
O235 Mg225 1.984 . S
O236 C223 1.277 . S
O236 Mg227 2.041 . S
O237 C223 1.245 . S
O237 Mg225 1.988 1_556 S
O238 Mg225 2.061 1_455 S
O238 C232 1.247 . S
O239 Mg228 2.108 . S
O239 Mg231 2.238 . S
O239 C232 1.289 . S
C240 O241 1.245 . S
C240 O242 1.274 . S
O241 Mg228 2.081 1_655 S
O241 C240 1.245 . S
O242 Mg227 2.038 1_554 S
O242 C240 1.274 . S
O243 Mg231 2.042 1_556 S
O243 C246 1.241 . S
O244 Mg230 1.984 . S
O244 C246 1.280 . S
O245 Mg231 2.041 . S
O245 C249 1.277 . S
C246 O243 1.241 . S
C246 O244 1.280 . S
O247 Mg230 1.988 1_554 S
O247 C249 1.245 . S
O248 C224 1.247 . S
O248 Mg230 2.061 1_655 S
C249 O245 1.277 . S
C249 O247 1.245 . S
O250 C224 1.289 . S
O250 Mg227 2.238 . S
O250 Mg228 2.105 1_656 S
O251 Mg228 2.076 1_556 S
O251 C233 1.245 . S
O252 Mg231 2.038 1_556 S
O252 C233 1.274 . S
C253 O265 1.241 . S
C253 O266 1.280 . S
C254 O267 1.277 . S
C254 O268 1.245 . S
C255 O279 1.247 . S
C255 O281 1.289 . S
Mg256 O257 1.926 . S
Mg256 O266 1.984 . S
Mg256 O268 1.988 1_554 S
Mg256 O269 2.061 . S
O257 Mg256 1.926 . S
O257 Mg258 1.986 1_554 S
O257 Mg259 1.918 . S
Mg258 O257 1.986 1_556 S
Mg258 O265 2.042 1_556 S
Mg258 O267 2.041 . S
Mg258 O273 2.038 1_556 S
Mg258 O281 2.238 . S
Mg259 O257 1.918 . S
Mg259 O260 1.916 1_554 S
Mg259 O270 2.108 . S
Mg259 O272 2.081 . S
Mg259 O281 2.105 1_554 S
Mg259 O282 2.076 1_554 S
O260 Mg259 1.916 1_556 S
O260 Mg261 1.926 . S
O260 Mg262 1.986 1_556 S
Mg261 O260 1.926 . S
Mg261 O275 1.984 . S
Mg261 O278 1.988 1_556 S
Mg261 O279 2.061 . S
Mg262 O260 1.986 1_554 S
Mg262 O270 2.238 . S
Mg262 O274 2.042 1_554 S
Mg262 O276 2.041 . S
Mg262 O283 2.038 1_554 S
C263 O269 1.247 . S
C263 O270 1.289 . S
C264 O282 1.245 . S
C264 O283 1.274 . S
O265 C253 1.241 . S
O265 Mg258 2.042 1_554 S
O266 C253 1.280 . S
O266 Mg256 1.984 . S
O267 C254 1.277 . S
O267 Mg258 2.041 . S
O268 C254 1.245 . S
O268 Mg256 1.988 1_556 S
O269 Mg256 2.061 . S
O269 C263 1.247 . S
O270 Mg259 2.108 . S
O270 Mg262 2.238 . S
O270 C263 1.289 . S
C271 O272 1.245 . S
C271 O273 1.274 . S
O272 Mg259 2.081 . S
O272 C271 1.245 . S
O273 Mg258 2.038 1_554 S
O273 C271 1.274 . S
O274 Mg262 2.042 1_556 S
O274 C277 1.241 . S
O275 Mg261 1.984 . S
O275 C277 1.280 . S
O276 Mg262 2.041 . S
O276 C280 1.277 . S
C277 O274 1.241 . S
C277 O275 1.280 . S
O278 Mg261 1.988 1_554 S
O278 C280 1.245 . S
O279 C255 1.247 . S
O279 Mg261 2.061 . S
C280 O276 1.277 . S
C280 O278 1.245 . S
O281 C255 1.289 . S
O281 Mg258 2.238 . S
O281 Mg259 2.105 1_556 S
O282 Mg259 2.076 1_556 S
O282 C264 1.245 . S
O283 Mg262 2.038 1_556 S
O283 C264 1.274 . S
C284 O296 1.241 . S
C284 O297 1.280 . S
C285 O298 1.277 . S
C285 O299 1.245 . S
C286 O310 1.247 . S
C286 O312 1.289 . S
Mg287 O288 1.926 . S
Mg287 O297 1.984 . S
Mg287 O299 1.988 . S
Mg287 O300 2.061 1_655 S
O288 Mg287 1.926 . S
O288 Mg289 1.986 . S
O288 Mg290 1.917 1_655 S
Mg289 O288 1.986 . S
Mg289 O296 2.042 . S
Mg289 O298 2.041 . S
Mg289 O304 2.038 . S
Mg289 O312 2.238 . S
Mg290 O288 1.917 1_455 S
Mg290 O291 1.917 . S
Mg290 O301 2.106 . S
Mg290 O303 2.079 1_455 S
Mg290 O312 2.106 1_455 S
Mg290 O313 2.079 . S
O291 Mg290 1.917 . S
O291 Mg292 1.926 . S
O291 Mg293 1.986 . S
Mg292 O291 1.926 . S
Mg292 O306 1.984 . S
Mg292 O309 1.988 . S
Mg292 O310 2.061 1_455 S
Mg293 O291 1.986 . S
Mg293 O301 2.238 . S
Mg293 O305 2.042 . S
Mg293 O307 2.041 . S
Mg293 O314 2.038 . S
C294 O300 1.247 . S
C294 O301 1.289 . S
C295 O313 1.245 . S
C295 O314 1.274 . S
O296 C284 1.241 . S
O296 Mg289 2.042 . S
O297 C284 1.280 . S
O297 Mg287 1.984 . S
O298 C285 1.277 . S
O298 Mg289 2.041 . S
O299 C285 1.245 . S
O299 Mg287 1.988 . S
O300 Mg287 2.061 1_455 S
O300 C294 1.247 . S
O301 Mg290 2.106 . S
O301 Mg293 2.238 . S
O301 C294 1.289 . S
C302 O303 1.245 . S
C302 O304 1.274 . S
O303 Mg290 2.079 1_655 S
O303 C302 1.245 . S
O304 Mg289 2.038 . S
O304 C302 1.274 . S
O305 Mg293 2.042 . S
O305 C308 1.241 . S
O306 Mg292 1.984 . S
O306 C308 1.280 . S
O307 Mg293 2.041 . S
O307 C311 1.277 . S
C308 O305 1.241 . S
C308 O306 1.280 . S
O309 Mg292 1.988 . S
O309 C311 1.245 . S
O310 C286 1.247 . S
O310 Mg292 2.061 1_655 S
C311 O307 1.277 . S
C311 O309 1.245 . S
O312 C286 1.289 . S
O312 Mg289 2.238 . S
O312 Mg290 2.106 1_655 S
O313 Mg290 2.079 . S
O313 C295 1.245 . S
O314 Mg293 2.038 . S
O314 C295 1.274 . S
C315 O327 1.241 . S
C315 O328 1.280 . S
C316 O329 1.277 . S
C316 O330 1.245 . S
C317 O341 1.247 . S
C317 O343 1.289 . S
Mg318 O319 1.926 . S
Mg318 O328 1.984 . S
Mg318 O330 1.988 . S
Mg318 O331 2.061 . S
O319 Mg318 1.926 . S
O319 Mg320 1.984 1_545 S
O319 Mg321 1.919 . S
Mg320 O319 1.984 1_565 S
Mg320 O327 2.034 1_565 S
Mg320 O329 2.032 1_565 S
Mg320 O335 2.048 . S
Mg320 O343 2.246 . S
Mg321 O319 1.919 . S
Mg321 O322 1.914 1_545 S
Mg321 O332 2.107 . S
Mg321 O334 2.077 1_545 S
Mg321 O343 2.106 1_545 S
Mg321 O344 2.080 . S
O322 Mg321 1.914 1_565 S
O322 Mg323 1.926 . S
O322 Mg324 1.981 1_565 S
Mg323 O322 1.926 . S
Mg323 O337 1.984 . S
Mg323 O340 1.988 . S
Mg323 O341 2.061 . S
Mg324 O322 1.981 1_545 S
Mg324 O332 2.254 . S
Mg324 O336 2.026 1_545 S
Mg324 O338 2.024 1_545 S
Mg324 O345 2.056 . S
C325 O331 1.247 . S
C325 O332 1.289 . S
C326 O344 1.245 . S
C326 O345 1.274 . S
O327 C315 1.241 . S
O327 Mg320 2.034 1_545 S
O328 C315 1.280 . S
O328 Mg318 1.984 . S
O329 C316 1.277 . S
O329 Mg320 2.032 1_545 S
O330 C316 1.245 . S
O330 Mg318 1.988 . S
O331 Mg318 2.061 . S
O331 C325 1.247 . S
O332 Mg321 2.107 . S
O332 Mg324 2.254 . S
O332 C325 1.289 . S
C333 O334 1.245 . S
C333 O335 1.274 . S
O334 Mg321 2.077 1_565 S
O334 C333 1.245 . S
O335 Mg320 2.048 . S
O335 C333 1.274 . S
O336 Mg324 2.026 1_565 S
O336 C339 1.241 . S
O337 Mg323 1.984 . S
O337 C339 1.280 . S
O338 Mg324 2.024 1_565 S
O338 C342 1.277 . S
C339 O336 1.241 . S
C339 O337 1.280 . S
O340 Mg323 1.988 . S
O340 C342 1.245 . S
O341 C317 1.247 . S
O341 Mg323 2.061 . S
C342 O338 1.277 . S
C342 O340 1.245 . S
O343 C317 1.289 . S
O343 Mg320 2.246 . S
O343 Mg321 2.106 1_565 S
O344 Mg321 2.080 . S
O344 C326 1.245 . S
O345 Mg324 2.056 . S
O345 C326 1.274 . S
C346 C347 1.369 . S
C346 C348 1.419 . S
C346 H350 0.930 . S
C347 C346 1.369 . S
C347 C356 1.429 . S
C348 C346 1.419 . S
C348 C349 1.363 . S
C348 H351 0.929 . S
C349 C348 1.363 . S
C349 C355 1.428 . S
H350 C346 0.930 . S
H351 C348 0.929 . S
S352 N353 1.613 . S
S352 N354 1.610 . S
N353 S352 1.613 . S
N353 C356 1.350 . S
N354 S352 1.610 . S
N354 C355 1.351 . S
C355 C349 1.428 . S
C355 N354 1.351 . S
C355 C356 1.434 . S
C356 C347 1.429 . S
C356 N353 1.350 . S
C356 C355 1.434 . S
C357 C358 1.369 . S
C357 C359 1.419 . S
C357 H361 0.930 . S
C358 C357 1.369 . S
C358 C367 1.429 . S
C359 C357 1.419 . S
C359 C360 1.363 . S
C359 H362 0.929 . S
C360 C359 1.363 . S
C360 C366 1.428 . S
H361 C357 0.930 . S
H362 C359 0.929 . S
S363 N364 1.613 . S
S363 N365 1.610 . S
N364 S363 1.613 . S
N364 C367 1.350 . S
N365 S363 1.610 . S
N365 C366 1.351 . S
C366 C360 1.428 . S
C366 N365 1.351 . S
C366 C367 1.434 . S
C367 C358 1.429 . S
C367 N364 1.350 . S
C367 C366 1.434 . S
C368 C369 1.369 . S
C368 C370 1.419 . S
C368 H372 0.930 . S
C369 C368 1.369 . S
C369 C378 1.429 . S
C370 C368 1.419 . S
C370 C371 1.363 . S
C370 H373 0.929 . S
C371 C370 1.363 . S
C371 C377 1.428 . S
H372 C368 0.930 . S
H373 C370 0.929 . S
S374 N375 1.613 . S
S374 N376 1.610 . S
N375 S374 1.613 . S
N375 C378 1.350 . S
N376 S374 1.610 . S
N376 C377 1.351 . S
C377 C371 1.428 . S
C377 N376 1.351 . S
C377 C378 1.434 . S
C378 C369 1.429 . S
C378 N375 1.350 . S
C378 C377 1.434 . S
C379 C380 1.369 . S
C379 C381 1.419 . S
C379 H383 0.930 . S
C380 C379 1.369 . S
C380 C389 1.429 . S
C381 C379 1.419 . S
C381 C382 1.363 . S
C381 H384 0.929 . S
C382 C381 1.363 . S
C382 C388 1.428 . S
H383 C379 0.930 . S
H384 C381 0.929 . S
S385 N386 1.613 . S
S385 N387 1.610 . S
N386 S385 1.613 . S
N386 C389 1.350 . S
N387 S385 1.610 . S
N387 C388 1.351 . S
C388 C382 1.428 . S
C388 N387 1.351 . S
C388 C389 1.434 . S
C389 C380 1.429 . S
C389 N386 1.350 . S
C389 C388 1.434 . S
C390 C391 1.369 . S
C390 C392 1.419 . S
C390 H394 0.930 . S
C391 C390 1.369 . S
C391 C400 1.429 . S
C392 C390 1.419 . S
C392 C393 1.363 . S
C392 H395 0.929 . S
C393 C392 1.363 . S
C393 C399 1.428 . S
H394 C390 0.930 . S
H395 C392 0.929 . S
S396 N397 1.613 . S
S396 N398 1.610 . S
N397 S396 1.613 . S
N397 C400 1.350 . S
N398 S396 1.610 . S
N398 C399 1.351 . S
C399 C393 1.428 . S
C399 N398 1.351 . S
C399 C400 1.434 . S
C400 C391 1.429 . S
C400 N397 1.350 . S
C400 C399 1.434 . S
C401 C402 1.369 . S
C401 C403 1.419 . S
C401 H405 0.930 . S
C402 C401 1.369 . S
C402 C411 1.429 . S
C403 C401 1.419 . S
C403 C404 1.363 . S
C403 H406 0.929 . S
C404 C403 1.363 . S
C404 C410 1.428 . S
H405 C401 0.930 . S
H406 C403 0.929 . S
S407 N408 1.613 . S
S407 N409 1.610 . S
N408 S407 1.613 . S
N408 C411 1.350 . S
N409 S407 1.610 . S
N409 C410 1.351 . S
C410 C404 1.428 . S
C410 N409 1.351 . S
C410 C411 1.434 . S
C411 C402 1.429 . S
C411 N408 1.350 . S
C411 C410 1.434 . S
C412 C413 1.369 . S
C412 C414 1.419 . S
C412 H416 0.930 . S
C413 C412 1.369 . S
C413 C422 1.429 . S
C414 C412 1.419 . S
C414 C415 1.363 . S
C414 H417 0.929 . S
C415 C414 1.363 . S
C415 C421 1.428 . S
H416 C412 0.930 . S
H417 C414 0.929 . S
S418 N419 1.613 . S
S418 N420 1.610 . S
N419 S418 1.613 . S
N419 C422 1.350 . S
N420 S418 1.610 . S
N420 C421 1.351 . S
C421 C415 1.428 . S
C421 N420 1.351 . S
C421 C422 1.434 . S
C422 C413 1.429 . S
C422 N419 1.350 . S
C422 C421 1.434 . S
C423 C424 1.369 . S
C423 C425 1.419 . S
C423 H427 0.930 . S
C424 C423 1.369 . S
C424 C433 1.429 . S
C425 C423 1.419 . S
C425 C426 1.363 . S
C425 H428 0.929 . S
C426 C425 1.363 . S
C426 C432 1.428 . S
H427 C423 0.930 . S
H428 C425 0.929 . S
S429 N430 1.613 . S
S429 N431 1.610 . S
N430 S429 1.613 . S
N430 C433 1.350 . S
N431 S429 1.610 . S
N431 C432 1.351 . S
C432 C426 1.428 . S
C432 N431 1.351 . S
C432 C433 1.434 . S
C433 C424 1.429 . S
C433 N430 1.350 . S
C433 C432 1.434 . S
C434 C435 1.369 . S
C434 C436 1.419 . S
C434 H438 0.930 . S
C435 C434 1.369 . S
C435 C444 1.429 . S
C436 C434 1.419 . S
C436 C437 1.363 . S
C436 H439 0.929 . S
C437 C436 1.363 . S
C437 C443 1.428 . S
H438 C434 0.930 . S
H439 C436 0.929 . S
S440 N441 1.613 . S
S440 N442 1.610 . S
N441 S440 1.613 . S
N441 C444 1.350 . S
N442 S440 1.610 . S
N442 C443 1.351 . S
C443 C437 1.428 . S
C443 N442 1.351 . S
C443 C444 1.434 . S
C444 C435 1.429 . S
C444 N441 1.350 . S
C444 C443 1.434 . S
C445 C446 1.369 . S
C445 C447 1.419 . S
C445 H449 0.930 . S
C446 C445 1.369 . S
C446 C455 1.429 . S
C447 C445 1.419 . S
C447 C448 1.363 . S
C447 H450 0.929 . S
C448 C447 1.363 . S
C448 C454 1.428 . S
H449 C445 0.930 . S
H450 C447 0.929 . S
S451 N452 1.613 . S
S451 N453 1.610 . S
N452 S451 1.613 . S
N452 C455 1.350 . S
N453 S451 1.610 . S
N453 C454 1.351 . S
C454 C448 1.428 . S
C454 N453 1.351 . S
C454 C455 1.434 . S
C455 C446 1.429 . S
C455 N452 1.350 . S
C455 C454 1.434 . S
C456 C457 1.369 . S
C456 C458 1.419 . S
C456 H460 0.930 . S
C457 C456 1.369 . S
C457 C466 1.429 . S
C458 C456 1.419 . S
C458 C459 1.363 . S
C458 H461 0.929 . S
C459 C458 1.363 . S
C459 C465 1.428 . S
H460 C456 0.930 . S
H461 C458 0.929 . S
S462 N463 1.613 1_545 S
S462 N464 1.610 1_545 S
N463 S462 1.613 1_565 S
N463 C466 1.350 . S
N464 S462 1.610 1_565 S
N464 C465 1.351 . S
C465 C459 1.428 . S
C465 N464 1.351 . S
C465 C466 1.434 . S
C466 C457 1.429 . S
C466 N463 1.350 . S
C466 C465 1.434 . S
C467 C468 1.369 . S
C467 C469 1.419 . S
C467 H471 0.930 . S
C468 C467 1.369 . S
C468 C477 1.429 . S
C469 C467 1.419 . S
C469 C470 1.363 . S
C469 H472 0.929 . S
C470 C469 1.363 . S
C470 C476 1.428 . S
H471 C467 0.930 . S
H472 C469 0.929 . S
S473 N474 1.613 . S
S473 N475 1.610 . S
N474 S473 1.613 . S
N474 C477 1.350 . S
N475 S473 1.610 . S
N475 C476 1.351 . S
C476 C470 1.428 . S
C476 N475 1.351 . S
C476 C477 1.434 . S
C477 C468 1.429 . S
C477 N474 1.350 . S
C477 C476 1.434 . S
C478 C479 1.369 . S
C478 C480 1.419 . S
C478 H482 0.930 . S
C479 C478 1.369 . S
C479 C488 1.429 . S
C480 C478 1.419 . S
C480 C481 1.363 . S
C480 H483 0.929 . S
C481 C480 1.363 . S
C481 C487 1.428 . S
H482 C478 0.930 . S
H483 C480 0.929 . S
S484 N485 1.613 . S
S484 N486 1.610 . S
N485 S484 1.613 . S
N485 C488 1.350 . S
N486 S484 1.610 . S
N486 C487 1.351 . S
C487 C481 1.428 . S
C487 N486 1.351 . S
C487 C488 1.434 . S
C488 C479 1.429 . S
C488 N485 1.350 . S
C488 C487 1.434 . S
C489 C490 1.369 . S
C489 C491 1.419 . S
C489 H493 0.930 . S
C490 C489 1.369 . S
C490 C499 1.429 . S
C491 C489 1.419 . S
C491 C492 1.363 . S
C491 H494 0.929 . S
C492 C491 1.363 . S
C492 C498 1.428 . S
H493 C489 0.930 . S
H494 C491 0.929 . S
S495 N496 1.613 . S
S495 N497 1.610 . S
N496 S495 1.613 . S
N496 C499 1.350 . S
N497 S495 1.610 . S
N497 C498 1.351 . S
C498 C492 1.428 . S
C498 N497 1.351 . S
C498 C499 1.434 . S
C499 C490 1.429 . S
C499 N496 1.350 . S
C499 C498 1.434 . S
C500 C501 1.369 . S
C500 C502 1.419 . S
C500 H504 0.930 . S
C501 C500 1.369 . S
C501 C510 1.429 . S
C502 C500 1.419 . S
C502 C503 1.363 . S
C502 H505 0.929 . S
C503 C502 1.363 . S
C503 C509 1.428 . S
H504 C500 0.930 . S
H505 C502 0.929 . S
S506 N507 1.613 . S
S506 N508 1.610 . S
N507 S506 1.613 . S
N507 C510 1.350 . S
N508 S506 1.610 . S
N508 C509 1.351 . S
C509 C503 1.428 . S
C509 N508 1.351 . S
C509 C510 1.434 . S
C510 C501 1.429 . S
C510 N507 1.350 . S
C510 C509 1.434 . S
C511 C512 1.369 . S
C511 C513 1.419 . S
C511 H515 0.930 . S
C512 C511 1.369 . S
C512 C521 1.429 . S
C513 C511 1.419 . S
C513 C514 1.363 . S
C513 H516 0.929 . S
C514 C513 1.363 . S
C514 C520 1.428 . S
H515 C511 0.930 . S
H516 C513 0.929 . S
S517 N518 1.593 1_455 S
S517 N519 1.611 1_455 S
N518 S517 1.593 1_655 S
N518 C521 1.350 . S
N519 S517 1.611 1_655 S
N519 C520 1.351 . S
C520 C514 1.428 . S
C520 N519 1.351 . S
C520 C521 1.434 . S
C521 C512 1.429 . S
C521 N518 1.350 . S
C521 C520 1.434 . S
C522 C523 1.369 . S
C522 C524 1.419 . S
C522 H526 0.930 . S
C523 C522 1.369 . S
C523 C532 1.429 . S
C524 C522 1.419 . S
C524 C525 1.363 . S
C524 H527 0.929 . S
C525 C524 1.363 . S
C525 C531 1.428 . S
H526 C522 0.930 . S
H527 C524 0.929 . S
S528 N529 1.613 1_655 S
S528 N530 1.610 1_655 S
N529 S528 1.613 1_455 S
N529 C532 1.350 . S
N530 S528 1.610 1_455 S
N530 C531 1.351 . S
C531 C525 1.428 . S
C531 N530 1.351 . S
C531 C532 1.434 . S
C532 C523 1.429 . S
C532 N529 1.350 . S
C532 C531 1.434 . S
C533 C534 1.369 . S
C533 C535 1.419 . S
C533 H537 0.930 . S
C534 C533 1.369 . S
C534 C543 1.429 . S
C535 C533 1.419 . S
C535 C536 1.363 . S
C535 H538 0.929 . S
C536 C535 1.363 . S
C536 C542 1.428 . S
H537 C533 0.930 . S
H538 C535 0.929 . S
S539 N540 1.613 . S
S539 N541 1.610 . S
N540 S539 1.613 . S
N540 C543 1.350 . S
N541 S539 1.610 . S
N541 C542 1.351 . S
C542 C536 1.428 . S
C542 N541 1.351 . S
C542 C543 1.434 . S
C543 C534 1.429 . S
C543 N540 1.350 . S
C543 C542 1.434 . S
C544 C545 1.369 . S
C544 C546 1.419 . S
C544 H548 0.930 . S
C545 C544 1.369 . S
C545 C554 1.429 . S
C546 C544 1.419 . S
C546 C547 1.363 . S
C546 H549 0.929 . S
C547 C546 1.363 . S
C547 C553 1.428 . S
H548 C544 0.930 . S
H549 C546 0.929 . S
S550 N551 1.613 . S
S550 N552 1.610 . S
N551 S550 1.613 . S
N551 C554 1.350 . S
N552 S550 1.610 . S
N552 C553 1.351 . S
C553 C547 1.428 . S
C553 N552 1.351 . S
C553 C554 1.434 . S
C554 C545 1.429 . S
C554 N551 1.350 . S
C554 C553 1.434 . S
C555 C556 1.369 . S
C555 C557 1.419 . S
C555 H559 0.930 . S
C556 C555 1.369 . S
C556 C565 1.429 . S
C557 C555 1.419 . S
C557 C558 1.363 . S
C557 H560 0.929 . S
C558 C557 1.363 . S
C558 C564 1.428 . S
H559 C555 0.930 . S
H560 C557 0.929 . S
S561 N562 1.613 . S
S561 N563 1.610 . S
N562 S561 1.613 . S
N562 C565 1.350 . S
N563 S561 1.610 . S
N563 C564 1.351 . S
C564 C558 1.428 . S
C564 N563 1.351 . S
C564 C565 1.434 . S
C565 C556 1.429 . S
C565 N562 1.350 . S
C565 C564 1.434 . S
C566 C567 1.369 . S
C566 C568 1.419 . S
C566 H570 0.930 . S
C567 C566 1.369 . S
C567 C576 1.429 . S
C568 C566 1.419 . S
C568 C569 1.363 . S
C568 H571 0.929 . S
C569 C568 1.363 . S
C569 C575 1.428 . S
H570 C566 0.930 . S
H571 C568 0.929 . S
S572 N573 1.613 . S
S572 N574 1.610 . S
N573 S572 1.613 . S
N573 C576 1.350 . S
N574 S572 1.610 . S
N574 C575 1.351 . S
C575 C569 1.428 . S
C575 N574 1.351 . S
C575 C576 1.434 . S
C576 C567 1.429 . S
C576 N573 1.350 . S
C576 C575 1.434 . S
C577 C578 1.369 . S
C577 C579 1.419 . S
C577 H581 0.930 . S
C578 C577 1.369 . S
C578 C587 1.429 . S
C579 C577 1.419 . S
C579 C580 1.363 . S
C579 H582 0.929 . S
C580 C579 1.363 . S
C580 C586 1.428 . S
H581 C577 0.930 . S
H582 C579 0.929 . S
S583 N584 1.613 . S
S583 N585 1.610 . S
N584 S583 1.613 . S
N584 C587 1.350 . S
N585 S583 1.610 . S
N585 C586 1.351 . S
C586 C580 1.428 . S
C586 N585 1.351 . S
C586 C587 1.434 . S
C587 C578 1.429 . S
C587 N584 1.350 . S
C587 C586 1.434 . S
C588 C589 1.369 . S
C588 C590 1.419 . S
C588 H592 0.930 . S
C589 C588 1.369 . S
C589 C598 1.429 . S
C590 C588 1.419 . S
C590 C591 1.363 . S
C590 H593 0.929 . S
C591 C590 1.363 . S
C591 C597 1.428 . S
H592 C588 0.930 . S
H593 C590 0.929 . S
S594 N595 1.613 . S
S594 N596 1.610 . S
N595 S594 1.613 . S
N595 C598 1.350 . S
N596 S594 1.610 . S
N596 C597 1.351 . S
C597 C591 1.428 . S
C597 N596 1.351 . S
C597 C598 1.434 . S
C598 C589 1.429 . S
C598 N595 1.350 . S
C598 C597 1.434 . S
C599 C600 1.369 . S
C599 C601 1.419 . S
C599 H603 0.930 . S
C600 C599 1.369 . S
C600 C609 1.429 . S
C601 C599 1.419 . S
C601 C602 1.363 . S
C601 H604 0.929 . S
C602 C601 1.363 . S
C602 C608 1.428 . S
H603 C599 0.930 . S
H604 C601 0.929 . S
S605 N606 1.613 . S
S605 N607 1.610 . S
N606 S605 1.613 . S
N606 C609 1.350 . S
N607 S605 1.610 . S
N607 C608 1.351 . S
C608 C602 1.428 . S
C608 N607 1.351 . S
C608 C609 1.434 . S
C609 C600 1.429 . S
C609 N606 1.350 . S
C609 C608 1.434 . S
C610 C611 1.369 . S
C610 C612 1.419 . S
C610 H614 0.930 . S
C611 C610 1.369 . S
C611 C620 1.429 . S
C612 C610 1.419 . S
C612 C613 1.363 . S
C612 H615 0.929 . S
C613 C612 1.363 . S
C613 C619 1.428 . S
H614 C610 0.930 . S
H615 C612 0.929 . S
S616 N617 1.613 . S
S616 N618 1.610 . S
N617 S616 1.613 . S
N617 C620 1.350 . S
N618 S616 1.610 . S
N618 C619 1.351 . S
C619 C613 1.428 . S
C619 N618 1.351 . S
C619 C620 1.434 . S
C620 C611 1.429 . S
C620 N617 1.350 . S
C620 C619 1.434 . S
C621 C622 1.369 . S
C621 C623 1.419 . S
C621 H625 0.930 . S
C622 C621 1.369 . S
C622 C631 1.429 . S
C623 C621 1.419 . S
C623 C624 1.363 . S
C623 H626 0.929 . S
C624 C623 1.363 . S
C624 C630 1.428 . S
H625 C621 0.930 . S
H626 C623 0.929 . S
S627 N628 1.613 . S
S627 N629 1.610 . S
N628 S627 1.613 . S
N628 C631 1.350 . S
N629 S627 1.610 . S
N629 C630 1.351 . S
C630 C624 1.428 . S
C630 N629 1.351 . S
C630 C631 1.434 . S
C631 C622 1.429 . S
C631 N628 1.350 . S
C631 C630 1.434 . S
C632 C633 1.369 . S
C632 C634 1.419 . S
C632 H636 0.930 . S
C633 C632 1.369 . S
C633 C642 1.429 . S
C634 C632 1.419 . S
C634 C635 1.363 . S
C634 H637 0.929 . S
C635 C634 1.363 . S
C635 C641 1.428 . S
H636 C632 0.930 . S
H637 C634 0.929 . S
S638 N639 1.613 . S
S638 N640 1.610 . S
N639 S638 1.613 . S
N639 C642 1.350 . S
N640 S638 1.610 . S
N640 C641 1.351 . S
C641 C635 1.428 . S
C641 N640 1.351 . S
C641 C642 1.434 . S
C642 C633 1.429 . S
C642 N639 1.350 . S
C642 C641 1.434 . S
C643 C644 1.369 . S
C643 C645 1.419 . S
C643 H647 0.930 . S
C644 C643 1.369 . S
C644 C653 1.429 . S
C645 C643 1.419 . S
C645 C646 1.363 . S
C645 H648 0.929 . S
C646 C645 1.363 . S
C646 C652 1.428 . S
H647 C643 0.930 . S
H648 C645 0.929 . S
S649 N650 1.613 . S
S649 N651 1.610 . S
N650 S649 1.613 . S
N650 C653 1.350 . S
N651 S649 1.610 . S
N651 C652 1.351 . S
C652 C646 1.428 . S
C652 N651 1.351 . S
C652 C653 1.434 . S
C653 C644 1.429 . S
C653 N650 1.350 . S
C653 C652 1.434 . S
C654 C655 1.369 . S
C654 C656 1.419 . S
C654 H658 0.930 . S
C655 C654 1.369 . S
C655 C664 1.429 . S
C656 C654 1.419 . S
C656 C657 1.363 . S
C656 H659 0.929 . S
C657 C656 1.363 . S
C657 C663 1.428 . S
H658 C654 0.930 . S
H659 C656 0.929 . S
S660 N661 1.613 . S
S660 N662 1.610 . S
N661 S660 1.613 . S
N661 C664 1.350 . S
N662 S660 1.610 . S
N662 C663 1.351 . S
C663 C657 1.428 . S
C663 N662 1.351 . S
C663 C664 1.434 . S
C664 C655 1.429 . S
C664 N661 1.350 . S
C664 C663 1.434 . S
C665 C666 1.369 . S
C665 C667 1.419 . S
C665 H669 0.930 . S
C666 C665 1.369 . S
C666 C675 1.429 . S
C667 C665 1.419 . S
C667 C668 1.363 . S
C667 H670 0.929 . S
C668 C667 1.363 . S
C668 C674 1.428 . S
H669 C665 0.930 . S
H670 C667 0.929 . S
S671 N672 1.613 . S
S671 N673 1.610 . S
N672 S671 1.613 . S
N672 C675 1.350 . S
N673 S671 1.610 . S
N673 C674 1.351 . S
C674 C668 1.428 . S
C674 N673 1.351 . S
C674 C675 1.434 . S
C675 C666 1.429 . S
C675 N672 1.350 . S
C675 C674 1.434 . S
C676 C677 1.369 . S
C676 C678 1.419 . S
C676 H680 0.930 . S
C677 C676 1.369 . S
C677 C686 1.429 . S
C678 C676 1.419 . S
C678 C679 1.363 . S
C678 H681 0.929 . S
C679 C678 1.363 . S
C679 C685 1.428 . S
H680 C676 0.930 . S
H681 C678 0.929 . S
S682 N683 1.613 . S
S682 N684 1.610 . S
N683 S682 1.613 . S
N683 C686 1.350 . S
N684 S682 1.610 . S
N684 C685 1.351 . S
C685 C679 1.428 . S
C685 N684 1.351 . S
C685 C686 1.434 . S
C686 C677 1.429 . S
C686 N683 1.350 . S
C686 C685 1.434 . S
C687 C688 1.369 . S
C687 C689 1.419 . S
C687 H691 0.930 . S
C688 C687 1.369 . S
C688 C697 1.429 . S
C689 C687 1.419 . S
C689 C690 1.363 . S
C689 H692 0.929 . S
C690 C689 1.363 . S
C690 C696 1.428 . S
H691 C687 0.930 . S
H692 C689 0.929 . S
S693 N694 1.613 . S
S693 N695 1.610 . S
N694 S693 1.613 . S
N694 C697 1.350 . S
N695 S693 1.610 . S
N695 C696 1.351 . S
C696 C690 1.428 . S
C696 N695 1.351 . S
C696 C697 1.434 . S
C697 C688 1.429 . S
C697 N694 1.350 . S
C697 C696 1.434 . S
C698 C699 1.369 . S
C698 C700 1.419 . S
C698 H702 0.930 . S
C699 C698 1.369 . S
C699 C708 1.429 . S
C700 C698 1.419 . S
C700 C701 1.363 . S
C700 H703 0.929 . S
C701 C700 1.363 . S
C701 C707 1.428 . S
H702 C698 0.930 . S
H703 C700 0.929 . S
S704 N705 1.613 . S
S704 N706 1.610 . S
N705 S704 1.613 . S
N705 C708 1.350 . S
N706 S704 1.610 . S
N706 C707 1.351 . S
C707 C701 1.428 . S
C707 N706 1.351 . S
C707 C708 1.434 . S
C708 C699 1.429 . S
C708 N705 1.350 . S
C708 C707 1.434 . S
C709 C710 1.369 . S
C709 C711 1.419 . S
C709 H713 0.930 . S
C710 C709 1.369 . S
C710 C719 1.429 . S
C711 C709 1.419 . S
C711 C712 1.363 . S
C711 H714 0.929 . S
C712 C711 1.363 . S
C712 C718 1.428 . S
H713 C709 0.930 . S
H714 C711 0.929 . S
S715 N716 1.613 . S
S715 N717 1.610 . S
N716 S715 1.613 . S
N716 C719 1.350 . S
N717 S715 1.610 . S
N717 C718 1.351 . S
C718 C712 1.428 . S
C718 N717 1.351 . S
C718 C719 1.434 . S
C719 C710 1.429 . S
C719 N716 1.350 . S
C719 C718 1.434 . S
C720 C721 1.369 . S
C720 C722 1.419 . S
C720 H724 0.930 . S
C721 C720 1.369 . S
C721 C730 1.429 . S
C722 C720 1.419 . S
C722 C723 1.363 . S
C722 H725 0.929 . S
C723 C722 1.363 . S
C723 C729 1.428 . S
H724 C720 0.930 . S
H725 C722 0.929 . S
S726 N727 1.613 . S
S726 N728 1.610 . S
N727 S726 1.613 . S
N727 C730 1.350 . S
N728 S726 1.610 . S
N728 C729 1.351 . S
C729 C723 1.428 . S
C729 N728 1.351 . S
C729 C730 1.434 . S
C730 C721 1.429 . S
C730 N727 1.350 . S
C730 C729 1.434 . S
C731 C732 1.369 . S
C731 C733 1.419 . S
C731 H735 0.930 . S
C732 C731 1.369 . S
C732 C741 1.429 . S
C733 C731 1.419 . S
C733 C734 1.363 . S
C733 H736 0.929 . S
C734 C733 1.363 . S
C734 C740 1.428 . S
H735 C731 0.930 . S
H736 C733 0.929 . S
S737 N738 1.613 . S
S737 N739 1.610 . S
N738 S737 1.613 . S
N738 C741 1.350 . S
N739 S737 1.610 . S
N739 C740 1.351 . S
C740 C734 1.428 . S
C740 N739 1.351 . S
C740 C741 1.434 . S
C741 C732 1.429 . S
C741 N738 1.350 . S
C741 C740 1.434 . S
C742 C743 1.369 . S
C742 C744 1.419 . S
C742 H746 0.930 . S
C743 C742 1.369 . S
C743 C752 1.429 . S
C744 C742 1.419 . S
C744 C745 1.363 . S
C744 H747 0.929 . S
C745 C744 1.363 . S
C745 C751 1.428 . S
H746 C742 0.930 . S
H747 C744 0.929 . S
S748 N749 1.613 . S
S748 N750 1.610 . S
N749 S748 1.613 . S
N749 C752 1.350 . S
N750 S748 1.610 . S
N750 C751 1.351 . S
C751 C745 1.428 . S
C751 N750 1.351 . S
C751 C752 1.434 . S
C752 C743 1.429 . S
C752 N749 1.350 . S
C752 C751 1.434 . S
C753 C754 1.369 . S
C753 C755 1.419 . S
C753 H757 0.930 . S
C754 C753 1.369 . S
C754 C763 1.429 . S
C755 C753 1.419 . S
C755 C756 1.363 . S
C755 H758 0.929 . S
C756 C755 1.363 . S
C756 C762 1.428 . S
H757 C753 0.930 . S
H758 C755 0.929 . S
S759 N760 1.613 . S
S759 N761 1.610 . S
N760 S759 1.613 . S
N760 C763 1.350 . S
N761 S759 1.610 . S
N761 C762 1.351 . S
C762 C756 1.428 . S
C762 N761 1.351 . S
C762 C763 1.434 . S
C763 C754 1.429 . S
C763 N760 1.350 . S
C763 C762 1.434 . S
C764 C765 1.369 . S
C764 C766 1.419 . S
C764 H768 0.930 . S
C765 C764 1.369 . S
C765 C774 1.429 . S
C766 C764 1.419 . S
C766 C767 1.363 . S
C766 H769 0.929 . S
C767 C766 1.363 . S
C767 C773 1.428 . S
H768 C764 0.930 . S
H769 C766 0.929 . S
S770 N771 1.613 . S
S770 N772 1.610 . S
N771 S770 1.613 . S
N771 C774 1.350 . S
N772 S770 1.610 . S
N772 C773 1.351 . S
C773 C767 1.428 . S
C773 N772 1.351 . S
C773 C774 1.434 . S
C774 C765 1.429 . S
C774 N771 1.350 . S
C774 C773 1.434 . S
C775 C776 1.369 . S
C775 C777 1.419 . S
C775 H779 0.930 . S
C776 C775 1.369 . S
C776 C785 1.429 . S
C777 C775 1.419 . S
C777 C778 1.363 . S
C777 H780 0.929 . S
C778 C777 1.363 . S
C778 C784 1.428 . S
H779 C775 0.930 . S
H780 C777 0.929 . S
S781 N782 1.613 . S
S781 N783 1.610 . S
N782 S781 1.613 . S
N782 C785 1.350 . S
N783 S781 1.610 . S
N783 C784 1.351 . S
C784 C778 1.428 . S
C784 N783 1.351 . S
C784 C785 1.434 . S
C785 C776 1.429 . S
C785 N782 1.350 . S
C785 C784 1.434 . S
C786 C787 1.369 . S
C786 C788 1.419 . S
C786 H790 0.930 . S
C787 C786 1.369 . S
C787 C796 1.429 . S
C788 C786 1.419 . S
C788 C789 1.363 . S
C788 H791 0.929 . S
C789 C788 1.363 . S
C789 C795 1.428 . S
H790 C786 0.930 . S
H791 C788 0.929 . S
S792 N793 1.613 . S
S792 N794 1.610 . S
N793 S792 1.613 . S
N793 C796 1.350 . S
N794 S792 1.610 . S
N794 C795 1.351 . S
C795 C789 1.428 . S
C795 N794 1.351 . S
C795 C796 1.434 . S
C796 C787 1.429 . S
C796 N793 1.350 . S
C796 C795 1.434 . S
C797 C798 1.369 . S
C797 C799 1.419 . S
C797 H801 0.930 . S
C798 C797 1.369 . S
C798 C807 1.429 . S
C799 C797 1.419 . S
C799 C800 1.363 . S
C799 H802 0.929 . S
C800 C799 1.363 . S
C800 C806 1.428 . S
H801 C797 0.930 . S
H802 C799 0.929 . S
S803 N804 1.613 . S
S803 N805 1.610 . S
N804 S803 1.613 . S
N804 C807 1.350 . S
N805 S803 1.610 . S
N805 C806 1.351 . S
C806 C800 1.428 . S
C806 N805 1.351 . S
C806 C807 1.434 . S
C807 C798 1.429 . S
C807 N804 1.350 . S
C807 C806 1.434 . S
C808 C809 1.369 . S
C808 C810 1.419 . S
C808 H812 0.930 . S
C809 C808 1.369 . S
C809 C818 1.429 . S
C810 C808 1.419 . S
C810 C811 1.363 . S
C810 H813 0.929 . S
C811 C810 1.363 . S
C811 C817 1.428 . S
H812 C808 0.930 . S
H813 C810 0.929 . S
S814 N815 1.613 . S
S814 N816 1.610 . S
N815 S814 1.613 . S
N815 C818 1.350 . S
N816 S814 1.610 . S
N816 C817 1.351 . S
C817 C811 1.428 . S
C817 N816 1.351 . S
C817 C818 1.434 . S
C818 C809 1.429 . S
C818 N815 1.350 . S
C818 C817 1.434 . S
C819 C820 1.369 . S
C819 C821 1.419 . S
C819 H823 0.930 . S
C820 C819 1.369 . S
C820 C829 1.429 . S
C821 C819 1.419 . S
C821 C822 1.363 . S
C821 H824 0.929 . S
C822 C821 1.363 . S
C822 C828 1.428 . S
H823 C819 0.930 . S
H824 C821 0.929 . S
S825 N826 1.613 . S
S825 N827 1.610 . S
N826 S825 1.613 . S
N826 C829 1.350 . S
N827 S825 1.610 . S
N827 C828 1.351 . S
C828 C822 1.428 . S
C828 N827 1.351 . S
C828 C829 1.434 . S
C829 C820 1.429 . S
C829 N826 1.350 . S
C829 C828 1.434 . S
C830 C831 1.369 . S
C830 C832 1.419 . S
C830 H834 0.930 . S
C831 C830 1.369 . S
C831 C840 1.429 . S
C832 C830 1.419 . S
C832 C833 1.363 . S
C832 H835 0.929 . S
C833 C832 1.363 . S
C833 C839 1.428 . S
H834 C830 0.930 . S
H835 C832 0.929 . S
S836 N837 1.613 . S
S836 N838 1.610 . S
N837 S836 1.613 . S
N837 C840 1.350 . S
N838 S836 1.610 . S
N838 C839 1.351 . S
C839 C833 1.428 . S
C839 N838 1.351 . S
C839 C840 1.434 . S
C840 C831 1.429 . S
C840 N837 1.350 . S
C840 C839 1.434 . S
C841 C842 1.369 . S
C841 C843 1.419 . S
C841 H845 0.930 . S
C842 C841 1.369 . S
C842 C851 1.429 . S
C843 C841 1.419 . S
C843 C844 1.363 . S
C843 H846 0.929 . S
C844 C843 1.363 . S
C844 C850 1.428 . S
H845 C841 0.930 . S
H846 C843 0.929 . S
S847 N848 1.613 . S
S847 N849 1.610 . S
N848 S847 1.613 . S
N848 C851 1.350 . S
N849 S847 1.610 . S
N849 C850 1.351 . S
C850 C844 1.428 . S
C850 N849 1.351 . S
C850 C851 1.434 . S
C851 C842 1.429 . S
C851 N848 1.350 . S
C851 C850 1.434 . S
C852 C853 1.369 . S
C852 C854 1.419 . S
C852 H856 0.930 . S
C853 C852 1.369 . S
C853 C862 1.429 . S
C854 C852 1.419 . S
C854 C855 1.363 . S
C854 H857 0.929 . S
C855 C854 1.363 . S
C855 C861 1.428 . S
H856 C852 0.930 . S
H857 C854 0.929 . S
S858 N859 1.613 . S
S858 N860 1.610 . S
N859 S858 1.613 . S
N859 C862 1.350 . S
N860 S858 1.610 . S
N860 C861 1.351 . S
C861 C855 1.428 . S
C861 N860 1.351 . S
C861 C862 1.434 . S
C862 C853 1.429 . S
C862 N859 1.350 . S
C862 C861 1.434 . S
C863 C864 1.369 . S
C863 C865 1.419 . S
C863 H867 0.930 . S
C864 C863 1.369 . S
C864 C873 1.429 . S
C865 C863 1.419 . S
C865 C866 1.363 . S
C865 H868 0.929 . S
C866 C865 1.363 . S
C866 C872 1.428 . S
H867 C863 0.930 . S
H868 C865 0.929 . S
S869 N870 1.613 . S
S869 N871 1.610 . S
N870 S869 1.613 . S
N870 C873 1.350 . S
N871 S869 1.610 . S
N871 C872 1.351 . S
C872 C866 1.428 . S
C872 N871 1.351 . S
C872 C873 1.434 . S
C873 C864 1.429 . S
C873 N870 1.350 . S
C873 C872 1.434 . S
C349 C171 2.203 . S
C347 C19 2.172 . S
C360 C161 1.613 . S
C358 C24 1.564 . S
C371 C162 1.181 . S
C369 C59 1.180 . S
C380 C69 1.356 . S
C382 C184 1.367 . S
C391 C82 1.553 . S
C393 C187 1.607 . S
C404 C170 1.181 . S
C402 C118 1.180 . S
C413 C132 1.360 . S
C415 C160 1.369 . S
C424 C158 2.173 . S
C426 C178 2.202 . S
C437 C191 1.697 . S
C435 C4 1.564 . S
C446 C29 1.019 . S
C448 C240 1.009 . S
C459 C218 1.625 . S
C457 C44 1.519 . S
C470 C232 1.141 . S
C468 C79 1.179 . S
C479 C98 1.172 . S
C481 C193 1.169 . S
C492 C246 1.382 . S
C490 C112 1.354 . S
C501 C122 1.255 . S
C503 C202 1.275 . S
C512 C152 1.316 . S
C514 C223 1.365 . S
C523 C9 1.317 . S
C525 C249 1.363 . S
C534 C92 1.023 . S
C536 C233 1.014 . S
C547 C192 1.624 . S
C545 C102 1.521 . S
C558 C224 1.145 . S
C556 C138 1.176 . S
C567 C142 1.571 . S
C569 C215 1.698 . S
C578 C49 1.354 . S
C580 C222 1.384 . S
C591 C209 1.276 . S
C589 C64 1.248 . S
C600 C39 1.169 . S
C602 C201 1.170 . S
C611 C159 2.179 . S
C613 C264 2.202 . S
C622 C84 1.554 . S
C624 C254 1.609 . S
C635 C255 1.175 . S
C633 C119 1.171 . S
C646 C277 1.375 . S
C644 C129 1.366 . S
C655 C22 1.559 . S
C657 C280 1.612 . S
C668 C263 1.175 . S
C666 C58 1.173 . S
C677 C72 1.357 . S
C679 C253 1.368 . S
C688 C18 2.176 . S
C690 C271 2.205 . S
C699 C144 1.564 . S
C701 C284 1.698 . S
C712 C333 1.011 . S
C710 C89 1.030 . S
C721 C104 1.526 . S
C723 C311 1.620 . S
C732 C139 1.176 . S
C734 C325 1.145 . S
C745 C286 1.163 . S
C743 C38 1.163 . S
C754 C52 1.352 . S
C756 C339 1.384 . S
C767 C295 1.277 . S
C765 C62 1.249 . S
C778 C316 1.366 . S
C776 C12 1.304 . S
C789 C342 1.368 . S
C787 C149 1.310 . S
C798 C32 1.031 . S
C800 C326 1.011 . S
C809 C42 1.520 . S
C811 C285 1.626 . S
C822 C317 1.150 . S
C820 C78 1.172 . S
C831 C2 1.564 . S
C833 C308 1.696 . S
C842 C109 1.358 . S
C844 C315 1.378 . S
C855 C302 1.277 . S
C853 C124 1.252 . S
C866 C294 1.170 . S
C864 C99 1.172 . S
