# Generated by pormake.
# Topology ocu, (6,8)-cn, num edge types: 1
# Building blocks:
#     Node 0, Type 0, BuildingBlock: KUMJIN_clean_sbu_0, # of connection points: 6
#     Node 1, Type 0, BuildingBlock: KUMJIN_clean_sbu_0, # of connection points: 6
#     Node 2, Type 0, BuildingBlock: KUMJIN_clean_sbu_0, # of connection points: 6
#     Node 3, Type 0, BuildingBlock: KUMJIN_clean_sbu_0, # of connection points: 6
#     Node 4, Type 0, BuildingBlock: KUMJIN_clean_sbu_0, # of connection points: 6
#     Node 5, Type 0, BuildingBlock: KUMJIN_clean_sbu_0, # of connection points: 6
#     Node 6, Type 0, BuildingBlock: KUMJIN_clean_sbu_0, # of connection points: 6
#     Node 7, Type 0, BuildingBlock: KUMJIN_clean_sbu_0, # of connection points: 6
#     Node 8, Type 1, BuildingBlock: GIZVER_clean_sbu_0, # of connection points: 8
#     Node 9, Type 1, BuildingBlock: GIZVER_clean_sbu_0, # of connection points: 8
#     Node 10, Type 1, BuildingBlock: GIZVER_clean_sbu_0, # of connection points: 8
#     Node 11, Type 1, BuildingBlock: GIZVER_clean_sbu_0, # of connection points: 8
#     Node 12, Type 1, BuildingBlock: GIZVER_clean_sbu_0, # of connection points: 8
#     Node 13, Type 1, BuildingBlock: GIZVER_clean_sbu_0, # of connection points: 8
#     Edge 14, Type (0, 1), BuildingBlock: EZIPEK_clean_linker_0, # of connection points: 2
#     Edge 15, Type (0, 1), BuildingBlock: EZIPEK_clean_linker_0, # of connection points: 2
#     Edge 16, Type (0, 1), BuildingBlock: EZIPEK_clean_linker_0, # of connection points: 2
#     Edge 17, Type (0, 1), BuildingBlock: EZIPEK_clean_linker_0, # of connection points: 2
#     Edge 18, Type (0, 1), BuildingBlock: EZIPEK_clean_linker_0, # of connection points: 2
#     Edge 19, Type (0, 1), BuildingBlock: EZIPEK_clean_linker_0, # of connection points: 2
#     Edge 20, Type (0, 1), BuildingBlock: EZIPEK_clean_linker_0, # of connection points: 2
#     Edge 21, Type (0, 1), BuildingBlock: EZIPEK_clean_linker_0, # of connection points: 2
#     Edge 22, Type (0, 1), BuildingBlock: EZIPEK_clean_linker_0, # of connection points: 2
#     Edge 23, Type (0, 1), BuildingBlock: EZIPEK_clean_linker_0, # of connection points: 2
#     Edge 24, Type (0, 1), BuildingBlock: EZIPEK_clean_linker_0, # of connection points: 2
#     Edge 25, Type (0, 1), BuildingBlock: EZIPEK_clean_linker_0, # of connection points: 2
#     Edge 26, Type (0, 1), BuildingBlock: EZIPEK_clean_linker_0, # of connection points: 2
#     Edge 27, Type (0, 1), BuildingBlock: EZIPEK_clean_linker_0, # of connection points: 2
#     Edge 28, Type (0, 1), BuildingBlock: EZIPEK_clean_linker_0, # of connection points: 2
#     Edge 29, Type (0, 1), BuildingBlock: EZIPEK_clean_linker_0, # of connection points: 2
#     Edge 30, Type (0, 1), BuildingBlock: EZIPEK_clean_linker_0, # of connection points: 2
#     Edge 31, Type (0, 1), BuildingBlock: EZIPEK_clean_linker_0, # of connection points: 2
#     Edge 32, Type (0, 1), BuildingBlock: EZIPEK_clean_linker_0, # of connection points: 2
#     Edge 33, Type (0, 1), BuildingBlock: EZIPEK_clean_linker_0, # of connection points: 2
#     Edge 34, Type (0, 1), BuildingBlock: EZIPEK_clean_linker_0, # of connection points: 2
#     Edge 35, Type (0, 1), BuildingBlock: EZIPEK_clean_linker_0, # of connection points: 2
#     Edge 36, Type (0, 1), BuildingBlock: EZIPEK_clean_linker_0, # of connection points: 2
#     Edge 37, Type (0, 1), BuildingBlock: EZIPEK_clean_linker_0, # of connection points: 2
#     Edge 38, Type (0, 1), BuildingBlock: EZIPEK_clean_linker_0, # of connection points: 2
#     Edge 39, Type (0, 1), BuildingBlock: EZIPEK_clean_linker_0, # of connection points: 2
#     Edge 40, Type (0, 1), BuildingBlock: EZIPEK_clean_linker_0, # of connection points: 2
#     Edge 41, Type (0, 1), BuildingBlock: EZIPEK_clean_linker_0, # of connection points: 2
#     Edge 42, Type (0, 1), BuildingBlock: EZIPEK_clean_linker_0, # of connection points: 2
#     Edge 43, Type (0, 1), BuildingBlock: EZIPEK_clean_linker_0, # of connection points: 2
#     Edge 44, Type (0, 1), BuildingBlock: EZIPEK_clean_linker_0, # of connection points: 2
#     Edge 45, Type (0, 1), BuildingBlock: EZIPEK_clean_linker_0, # of connection points: 2
#     Edge 46, Type (0, 1), BuildingBlock: EZIPEK_clean_linker_0, # of connection points: 2
#     Edge 47, Type (0, 1), BuildingBlock: EZIPEK_clean_linker_0, # of connection points: 2
#     Edge 48, Type (0, 1), BuildingBlock: EZIPEK_clean_linker_0, # of connection points: 2
#     Edge 49, Type (0, 1), BuildingBlock: EZIPEK_clean_linker_0, # of connection points: 2
#     Edge 50, Type (0, 1), BuildingBlock: EZIPEK_clean_linker_0, # of connection points: 2
#     Edge 51, Type (0, 1), BuildingBlock: EZIPEK_clean_linker_0, # of connection points: 2
#     Edge 52, Type (0, 1), BuildingBlock: EZIPEK_clean_linker_0, # of connection points: 2
#     Edge 53, Type (0, 1), BuildingBlock: EZIPEK_clean_linker_0, # of connection points: 2
#     Edge 54, Type (0, 1), BuildingBlock: EZIPEK_clean_linker_0, # of connection points: 2
#     Edge 55, Type (0, 1), BuildingBlock: EZIPEK_clean_linker_0, # of connection points: 2
#     Edge 56, Type (0, 1), BuildingBlock: EZIPEK_clean_linker_0, # of connection points: 2
#     Edge 57, Type (0, 1), BuildingBlock: EZIPEK_clean_linker_0, # of connection points: 2
#     Edge 58, Type (0, 1), BuildingBlock: EZIPEK_clean_linker_0, # of connection points: 2
#     Edge 59, Type (0, 1), BuildingBlock: EZIPEK_clean_linker_0, # of connection points: 2
#     Edge 60, Type (0, 1), BuildingBlock: EZIPEK_clean_linker_0, # of connection points: 2
#     Edge 61, Type (0, 1), BuildingBlock: EZIPEK_clean_linker_0, # of connection points: 2
# Relax obj value: 0.183
# Max RMSD: 0.290
# Mean RMSD: 0.215
data_MOF--net-ocu--node1-KUMJIN_clean_sbu_0--node2-GIZVER_clean_sbu_0--edge1-EZIPEK_clean_linker_0
_symmetry_space_group_name_H-M    P1
_symmetry_Int_Tables_number       1
_symmetry_cell_setting            triclinic
loop_
_symmetry_equiv_pos_as_xyz
'x, y, z'
_cell_length_a     33.890221
_cell_length_b     35.281486
_cell_length_c     27.500614
_cell_angle_alpha  75.943346
_cell_angle_beta   103.62582
_cell_angle_gamma 118.55779
loop_
_atom_site_label
_atom_site_type_symbol
_atom_site_fract_x
_atom_site_fract_y
_atom_site_fract_z
_atom_type_partial_charge
Eu0 Eu 0.25567 0.22103 0.20616 0.0
C1 C 0.36481 0.32173 0.38642 0.0
C2 C 0.32856 0.26627 0.45459 0.0
C3 C 0.39846 0.33033 0.47405 0.0
C4 C 0.32907 0.2828 0.40246 0.0
C5 C 0.4008 0.34501 0.42211 0.0
C6 C 0.36212 0.29119 0.49024 0.0
C7 C 0.44034 0.39392 0.35265 0.0
N8 N 0.36641 0.33445 0.33588 0.0
C9 C 0.40356 0.37031 0.3187 0.0
C10 C 0.43871 0.38161 0.40458 0.0
Eu11 Eu 0.29654 0.29936 0.28333 0.0
N12 N 0.29851 0.25849 0.36687 0.0
C13 C 0.27014 0.21543 0.38139 0.0
C14 C 0.29613 0.22401 0.46931 0.0
C15 C 0.26785 0.19793 0.43256 0.0
H16 H 0.40431 0.38254 0.27891 0.0
H17 H 0.24439 0.16424 0.44354 0.0
H18 H 0.36122 0.27947 0.53035 0.0
H19 H 0.46935 0.42244 0.33865 0.0
H20 H 0.24855 0.19416 0.35396 0.0
H21 H 0.23625 0.30698 0.01558 0.0
H22 H 0.29486 0.21037 0.50893 0.0
H23 H 0.18911 0.12045 0.25928 0.0
H24 H 0.26878 0.30229 0.10447 0.0
H25 H 0.11669 0.0571 0.23554 0.0
H26 H 0.42532 0.34822 0.50198 0.0
H27 H 0.1684 0.2443 0.98477 0.0
H28 H 0.10158 0.17189 0.00475 0.0
H29 H 0.46703 0.40027 0.43078 0.0
H30 H 0.06653 0.10619 0.06575 0.0
N31 N 0.21767 0.23799 0.12622 0.0
C32 C 0.23755 0.2752 0.09299 0.0
C33 C 0.18024 0.24301 0.02494 0.0
C34 C 0.15779 0.20637 0.05951 0.0
C35 C 0.21926 0.27817 0.04202 0.0
C36 C 0.17787 0.20441 0.11067 0.0
H37 H 0.07165 0.06322 0.15179 0.0
N38 N 0.18252 0.16267 0.19168 0.0
C39 C 0.12805 0.08765 0.20986 0.0
C40 C 0.15915 0.16631 0.1447 0.0
C41 C 0.16871 0.12346 0.22332 0.0
C42 C 0.10259 0.09135 0.16263 0.0
C43 C 0.11867 0.13045 0.12881 0.0
O44 O 0.26476 0.16385 0.20723 0.0
O45 O 0.31621 0.24826 0.26924 0.0
O46 O 0.35416 0.32021 0.23911 0.0
O47 O 0.3139 0.28233 0.17224 0.0
O48 O 0.27679 0.18276 0.27895 0.0
O49 O 0.27722 0.2128 0.14058 0.0
O50 O 0.31658 0.36865 0.28185 0.0
O51 O 0.24043 0.27577 0.21637 0.0
O52 O 0.19658 0.20013 0.24975 0.0
O53 O 0.22701 0.25066 0.30422 0.0
O54 O 0.28341 0.34053 0.20918 0.0
O55 O 0.26056 0.319 0.32061 0.0
C56 C 0.31497 0.21218 0.29743 0.0
C57 C 0.26193 0.13965 0.13262 0.0
C58 C 0.28257 0.09486 0.09722 0.0
C59 C 0.29453 0.13393 0.11518 0.0
C60 C 0.23767 0.06202 0.09677 0.0
C61 C 0.21705 0.10686 0.12939 0.0
C62 C 0.20498 0.06853 0.11138 0.0
C63 C 0.35059 0.31367 0.19274 0.0
C64 C 0.27672 0.17538 0.16228 0.0
C65 C 0.09736 0.13349 0.07866 0.0
C66 C 0.11733 0.17097 0.04389 0.0
C67 C 0.2456 0.3128 0.18804 0.0
C68 C 0.29703 0.38864 0.34707 0.0
C69 C 0.2617 0.39124 0.36246 0.0
C70 C 0.27129 0.41922 0.39692 0.0
C71 C 0.31656 0.4442 0.41651 0.0
C72 C 0.34212 0.41491 0.36597 0.0
C73 C 0.35172 0.44233 0.40062 0.0
C74 C 0.19306 0.21595 0.2867 0.0
C75 C 0.28568 0.36065 0.30872 0.0
H76 H 0.32952 0.15871 0.11795 0.0
H77 H 0.22781 0.03163 0.08396 0.0
H78 H 0.19154 0.10987 0.14265 0.0
H79 H 0.17029 0.04327 0.10998 0.0
H80 H 0.22678 0.37231 0.34677 0.0
H81 H 0.32463 0.46614 0.44282 0.0
H82 H 0.36996 0.415 0.35337 0.0
H83 H 0.38662 0.46275 0.41457 0.0
Eu84 Eu 0.81236 0.23934 0.26662 0.0
C85 C 0.66562 0.27125 0.2811 0.0
C86 C 0.59982 0.22814 0.22631 0.0
C87 C 0.5914 0.23304 0.30944 0.0
C88 C 0.64707 0.25442 0.23631 0.0
C89 C 0.63725 0.26362 0.31624 0.0
C90 C 0.57271 0.21502 0.26449 0.0
C91 C 0.69839 0.32444 0.35445 0.0
N92 N 0.70977 0.30117 0.28587 0.0
C93 C 0.72503 0.33044 0.31872 0.0
C94 C 0.65481 0.28975 0.35443 0.0
Eu95 Eu 0.75428 0.30598 0.22723 0.0
N96 N 0.67392 0.27005 0.19948 0.0
C97 C 0.65402 0.26727 0.14999 0.0
C98 C 0.58069 0.21932 0.17698 0.0
C99 C 0.60766 0.24042 0.13827 0.0
H100 H 0.75808 0.35823 0.31792 0.0
H101 H 0.59272 0.23649 0.09934 0.0
H102 H 0.53659 0.19393 0.25797 0.0
H103 H 0.71141 0.34663 0.38177 0.0
H104 H 0.67396 0.28472 0.11921 0.0
H105 H 0.99039 0.3517 0.24478 0.0
H106 H 0.54462 0.19923 0.16772 0.0
H107 H 0.74988 0.14048 0.22169 0.0
H108 H 0.91985 0.32153 0.27909 0.0
H109 H 0.74968 0.10438 0.15616 0.0
H110 H 0.56944 0.22563 0.33687 0.0
H111 H 0.99489 0.31983 0.17694 0.0
H112 H 0.95711 0.26336 0.12 0.0
H113 H 0.63409 0.28526 0.38189 0.0
H114 H 0.89053 0.19813 0.09339 0.0
N115 N 0.88216 0.27234 0.23197 0.0
C116 C 0.92025 0.30651 0.25021 0.0
C117 C 0.96332 0.30609 0.19227 0.0
C118 C 0.92502 0.27037 0.1745 0.0
C119 C 0.96093 0.32408 0.23051 0.0
C120 C 0.88446 0.2537 0.19557 0.0
H121 H 0.81307 0.1391 0.10587 0.0
N122 N 0.81026 0.19897 0.20542 0.0
C123 C 0.77704 0.13625 0.16211 0.0
C124 C 0.84713 0.2166 0.18105 0.0
C125 C 0.77718 0.15738 0.19902 0.0
C126 C 0.81279 0.15592 0.13386 0.0
C127 C 0.84922 0.19565 0.14448 0.0
O128 O 0.80934 0.17535 0.29925 0.0
O129 O 0.74463 0.23808 0.26774 0.0
O130 O 0.79399 0.3162 0.30716 0.0
O131 O 0.85186 0.30087 0.30491 0.0
O132 O 0.77637 0.21934 0.33497 0.0
O133 O 0.85527 0.23033 0.33753 0.0
O134 O 0.7976 0.37593 0.22917 0.0
O135 O 0.82155 0.30611 0.22879 0.0
O136 O 0.74772 0.20991 0.20863 0.0
O137 O 0.73257 0.26646 0.16344 0.0
O138 O 0.79193 0.3264 0.15952 0.0
O139 O 0.73076 0.35421 0.18644 0.0
C140 C 0.73976 0.22232 0.31426 0.0
C141 C 0.81935 0.162 0.38887 0.0
C142 C 0.83481 0.143 0.48102 0.0
C143 C 0.84913 0.16878 0.43438 0.0
C144 C 0.78881 0.11208 0.48055 0.0
C145 C 0.77432 0.12979 0.38988 0.0
C146 C 0.75896 0.10588 0.43549 0.0
C147 C 0.83543 0.32021 0.32462 0.0
C148 C 0.83601 0.18802 0.34056 0.0
C149 C 0.8885 0.21362 0.12155 0.0
C150 C 0.92649 0.25061 0.13691 0.0
C151 C 0.82794 0.32252 0.18296 0.0
C152 C 0.7903 0.4141 0.14655 0.0
C153 C 0.76236 0.40867 0.09987 0.0
C154 C 0.7803 0.42698 0.05387 0.0
C155 C 0.82747 0.45182 0.0552 0.0
C156 C 0.83709 0.44103 0.14712 0.0
C157 C 0.85555 0.45934 0.10167 0.0
C158 C 0.7268 0.22621 0.16868 0.0
C159 C 0.77074 0.38709 0.19321 0.0
H160 H 0.88412 0.19258 0.43224 0.0
H161 H 0.7758 0.09093 0.51442 0.0
H162 H 0.75107 0.12248 0.35545 0.0
H163 H 0.72413 0.08119 0.43569 0.0
H164 H 0.72599 0.39009 0.09942 0.0
H165 H 0.84261 0.46611 0.02068 0.0
H166 H 0.85943 0.44704 0.1826 0.0
H167 H 0.89176 0.47932 0.10246 0.0
Eu168 Eu 0.74219 0.74655 0.28478 0.0
C169 C 0.89298 0.89601 0.17437 0.0
C170 C 0.85098 0.92983 0.11177 0.0
C171 C 0.92901 0.97435 0.1457 0.0
C172 C 0.85295 0.89263 0.14358 0.0
C173 C 0.93174 0.9368 0.17488 0.0
C174 C 0.88874 0.97086 0.11415 0.0
C175 C 0.97429 0.89983 0.22904 0.0
N176 N 0.89467 0.85903 0.20183 0.0
C177 C 0.9351 0.86008 0.22706 0.0
C178 C 0.97245 0.93846 0.20352 0.0
Eu179 Eu 0.82464 0.79449 0.20052 0.0
N180 N 0.81715 0.85251 0.14165 0.0
C181 C 0.78069 0.84649 0.1049 0.0
C182 C 0.81181 0.92436 0.07698 0.0
C183 C 0.77693 0.88236 0.07274 0.0
H184 H 0.93702 0.83056 0.24706 0.0
H185 H 0.74719 0.87756 0.04476 0.0
H186 H 0.88764 0.99988 0.0905 0.0
H187 H 1.00589 0.90065 0.25027 0.0
H188 H 0.75396 0.81409 0.10095 0.0
H189 H 0.77916 0.69214 0.484 0.0
H190 H 0.80899 0.95209 0.05187 0.0
H191 H 0.6463 0.6939 0.20453 0.0
H192 H 0.78881 0.74397 0.4049 0.0
H193 H 0.58839 0.61909 0.19661 0.0
H194 H 0.95829 1.00603 0.14605 0.0
H195 H 0.72694 0.61353 0.48221 0.0
H196 H 0.668 0.55455 0.43307 0.0
H197 H 1.00293 0.96919 0.20499 0.0
H198 H 0.61599 0.53468 0.35418 0.0
N199 N 0.74127 0.69625 0.35902 0.0
C200 C 0.76635 0.70995 0.40346 0.0
C201 C 0.73081 0.63647 0.44755 0.0
C202 C 0.70422 0.62282 0.40219 0.0
C203 C 0.76071 0.68058 0.44853 0.0
C204 C 0.70877 0.65438 0.35845 0.0
H205 H 0.58626 0.55846 0.26572 0.0
N206 N 0.67965 0.67635 0.27614 0.0
C207 C 0.61301 0.62555 0.23046 0.0
C208 C 0.67788 0.64382 0.31518 0.0
C209 C 0.64603 0.66817 0.23529 0.0
C210 C 0.61219 0.59145 0.26928 0.0
C211 C 0.64384 0.60056 0.31307 0.0
O212 O 0.68453 0.74338 0.31158 0.0
O213 O 0.76628 0.80339 0.21983 0.0
O214 O 0.85684 0.83559 0.2627 0.0
O215 O 0.80992 0.79291 0.3245 0.0
O216 O 0.69782 0.76705 0.21908 0.0
O217 O 0.75197 0.78956 0.33721 0.0
O218 O 0.82679 0.74088 0.17544 0.0
O219 O 0.80721 0.74669 0.27392 0.0
O220 O 0.73491 0.69884 0.23559 0.0
O221 O 0.75413 0.75088 0.16758 0.0
O222 O 0.86783 0.76287 0.25265 0.0
O223 O 0.84886 0.8041 0.12926 0.0
C224 C 0.72747 0.80165 0.19627 0.0
C225 C 0.69281 0.80941 0.33109 0.0
C226 C 0.68173 0.8611 0.36595 0.0
C227 C 0.69856 0.83008 0.37228 0.0
C228 C 0.66072 0.87207 0.31799 0.0
C229 C 0.67033 0.82034 0.28413 0.0
C230 C 0.65511 0.85186 0.2775 0.0
C231 C 0.84617 0.82771 0.30836 0.0
C232 C 0.70888 0.77569 0.33738 0.0
C233 C 0.64171 0.56813 0.35518 0.0
C234 C 0.67145 0.57938 0.39998 0.0
C235 C 0.84198 0.73775 0.28664 0.0
C236 C 0.88145 0.75863 0.12236 0.0
C237 C 0.87554 0.71621 0.12131 0.0
C238 C 0.90813 0.71061 0.10368 0.0
C239 C 0.9473 0.74782 0.08915 0.0
C240 C 0.92103 0.79504 0.10737 0.0
C241 C 0.95369 0.78954 0.09111 0.0
C242 C 0.73587 0.70941 0.18626 0.0
C243 C 0.8448 0.76466 0.13517 0.0
H244 H 0.71479 0.8213 0.40915 0.0
H245 H 0.64762 0.89572 0.31221 0.0
H246 H 0.66396 0.80422 0.25246 0.0
H247 H 0.63812 0.86011 0.24095 0.0
H248 H 0.8454 0.68781 0.13324 0.0
H249 H 0.9732 0.74449 0.07629 0.0
H250 H 0.92663 0.8279 0.10767 0.0
H251 H 0.984 0.81781 0.07953 0.0
Eu252 Eu 0.31448 0.73517 0.27317 0.0
C253 C 0.21679 0.82114 0.09788 0.0
C254 C 0.27567 0.88504 0.057 0.0
C255 C 0.20373 0.84446 0.00727 0.0
C256 C 0.26026 0.85466 0.10056 0.0
C257 C 0.18769 0.81594 0.05137 0.0
C258 C 0.24766 0.87901 0.01008 0.0
C259 C 0.12838 0.75642 0.09604 0.0
N260 N 0.20248 0.79437 0.14132 0.0
C261 C 0.15844 0.76309 0.14128 0.0
C262 C 0.14317 0.7827 0.05078 0.0
Eu263 Eu 0.25638 0.80542 0.21627 0.0
N264 N 0.28606 0.85973 0.14659 0.0
C265 C 0.32482 0.89741 0.15267 0.0
C266 C 0.31779 0.92165 0.06243 0.0
C267 C 0.34197 0.92841 0.11075 0.0
H268 H 0.14657 0.74257 0.17592 0.0
H269 H 0.37353 0.95764 0.11582 0.0
H270 H 0.25909 0.90166 0.97609 0.0
H271 H 0.09384 0.73097 0.09611 0.0
H272 H 0.34251 0.90359 0.19001 0.0
H273 H 0.18352 0.57797 0.34377 0.0
H274 H 0.33086 0.94584 0.03002 0.0
H275 H 0.42489 0.77699 0.32422 0.0
H276 H 0.22088 0.63868 0.28052 0.0
H277 H 0.47051 0.7784 0.40878 0.0
H278 H 0.18201 0.84082 0.97113 0.0
H279 H 0.22005 0.57509 0.43338 0.0
H280 H 0.28638 0.61082 0.49828 0.0
H281 H 0.11981 0.7775 0.01579 0.0
H282 H 0.36419 0.66794 0.51666 0.0
N283 N 0.27619 0.67437 0.33269 0.0
C284 C 0.23733 0.63908 0.31889 0.0
C285 C 0.23655 0.60281 0.40542 0.0
C286 C 0.27815 0.63765 0.41892 0.0
C287 C 0.21626 0.60366 0.35503 0.0
C288 C 0.29782 0.67309 0.38096 0.0
H289 H 0.43366 0.73039 0.48328 0.0
N290 N 0.36202 0.73399 0.35163 0.0
C291 C 0.4342 0.75806 0.40457 0.0
C292 C 0.34192 0.7045 0.39098 0.0
C293 C 0.40811 0.75792 0.35684 0.0
C294 C 0.41327 0.73094 0.4465 0.0
C295 C 0.36694 0.70229 0.43964 0.0
O296 O 0.34215 0.68841 0.28079 0.0
O297 O 0.318 0.79558 0.21976 0.0
O298 O 0.24128 0.75882 0.16214 0.0
O299 O 0.2477 0.70247 0.22098 0.0
O300 O 0.37867 0.7931 0.24557 0.0
O301 O 0.32131 0.71613 0.20694 0.0
O302 O 0.20549 0.81747 0.23717 0.0
O303 O 0.25435 0.74625 0.2722 0.0
O304 O 0.339 0.78561 0.32684 0.0
O305 O 0.31541 0.83725 0.27694 0.0
O306 O 0.19634 0.75389 0.25712 0.0
O307 O 0.2751 0.86776 0.23863 0.0
C308 C 0.36051 0.81716 0.21693 0.0
C309 C 0.3765 0.6918 0.21255 0.0
C310 C 0.41131 0.65316 0.18879 0.0
C311 C 0.37864 0.65269 0.21299 0.0
C312 C 0.443 0.69347 0.16653 0.0
C313 C 0.40839 0.73149 0.18966 0.0
C314 C 0.44158 0.73224 0.1671 0.0
C315 C 0.23474 0.7177 0.1741 0.0
C316 C 0.33881 0.69028 0.23234 0.0
C317 C 0.34576 0.66972 0.47886 0.0
C318 C 0.3015 0.63718 0.4684 0.0
C319 C 0.21433 0.7293 0.2839 0.0
C320 C 0.21776 0.89071 0.22456 0.0
C321 C 0.20066 0.90255 0.25703 0.0
C322 C 0.18329 0.93317 0.23875 0.0
C323 C 0.18385 0.95248 0.18772 0.0
C324 C 0.21816 0.91014 0.17362 0.0
C325 C 0.20134 0.941 0.15539 0.0
C326 C 0.33788 0.82397 0.31827 0.0
C327 C 0.23393 0.85734 0.24469 0.0
H328 H 0.35442 0.62198 0.23105 0.0
H329 H 0.46894 0.69487 0.14846 0.0
H330 H 0.40726 0.76185 0.18853 0.0
H331 H 0.46602 0.76295 0.14943 0.0
H332 H 0.19984 0.88719 0.29633 0.0
H333 H 0.16995 0.97565 0.17285 0.0
H334 H 0.23102 0.90122 0.14796 0.0
H335 H 0.20116 0.95542 0.11591 0.0
Eu336 Eu 0.32593 0.73127 0.76964 0.0
C337 C 0.18313 0.77102 0.79715 0.0
C338 C 0.11209 0.70918 0.77596 0.0
C339 C 0.12279 0.74163 0.84923 0.0
C340 C 0.15708 0.73887 0.7675 0.0
C341 C 0.16534 0.77417 0.83681 0.0
C342 C 0.09599 0.70924 0.81853 0.0
C343 C 0.22707 0.84625 0.84042 0.0
N344 N 0.22309 0.80267 0.78253 0.0
C345 C 0.2425 0.84181 0.80019 0.0
C346 C 0.18917 0.81157 0.86011 0.0
Eu347 Eu 0.25337 0.78695 0.723 0.0
N348 N 0.17391 0.73987 0.72686 0.0
C349 C 0.14479 0.71683 0.68896 0.0
C350 C 0.08396 0.68197 0.73997 0.0
C351 C 0.10001 0.68679 0.69552 0.0
H352 H 0.27078 0.86956 0.78421 0.0
H353 H 0.07782 0.66762 0.66608 0.0
H354 H 0.06203 0.68593 0.82643 0.0
H355 H 0.24409 0.8766 0.85576 0.0
H356 H 0.15564 0.7212 0.65324 0.0
H357 H 0.49818 0.85817 0.82467 0.0
H358 H 0.04922 0.65882 0.74493 0.0
H359 H 0.31687 0.64872 0.71391 0.0
H360 H 0.42424 0.79861 0.84135 0.0
H361 H 0.34565 0.64295 0.64322 0.0
H362 H 0.10909 0.7429 0.88033 0.0
H363 H 0.52677 0.86932 0.74501 0.0
H364 H 0.51589 0.84192 0.66424 0.0
H365 H 0.17675 0.81525 0.89068 0.0
H366 H 0.47254 0.78278 0.61259 0.0
N367 N 0.40555 0.78023 0.76735 0.0
C368 C 0.4343 0.80395 0.80493 0.0
C369 C 0.49317 0.84377 0.75124 0.0
C370 C 0.46637 0.81538 0.7161 0.0
C371 C 0.47745 0.83719 0.7965 0.0
C372 C 0.42251 0.78315 0.72584 0.0
H373 H 0.40939 0.70723 0.60539 0.0
N374 N 0.3597 0.71683 0.71259 0.0
C375 C 0.36029 0.67375 0.65717 0.0
C376 C 0.39827 0.75031 0.69688 0.0
C377 C 0.34371 0.67726 0.69707 0.0
C378 C 0.39612 0.7101 0.63581 0.0
C379 C 0.41712 0.74836 0.6574 0.0
O380 O 0.35754 0.71798 0.84638 0.0
O381 O 0.26594 0.73831 0.7842 0.0
O382 O 0.30419 0.8221 0.78768 0.0
O383 O 0.35 0.78682 0.81477 0.0
O384 O 0.25724 0.67684 0.78656 0.0
O385 O 0.31642 0.66502 0.80299 0.0
O386 O 0.24351 0.84463 0.68508 0.0
O387 O 0.3141 0.78188 0.70955 0.0
O388 O 0.28591 0.70616 0.69653 0.0
O389 O 0.22706 0.72445 0.68631 0.0
O390 O 0.32134 0.84341 0.70868 0.0
O391 O 0.23286 0.79641 0.64142 0.0
C392 C 0.23802 0.69823 0.7934 0.0
C393 C 0.3123 0.65031 0.89134 0.0
C394 C 0.31861 0.62571 0.982 0.0
C395 C 0.33863 0.65018 0.93829 0.0
C396 C 0.27142 0.60735 0.97969 0.0
C397 C 0.26479 0.62568 0.88843 0.0
C398 C 0.24452 0.60642 0.93261 0.0
C399 C 0.33956 0.81807 0.81657 0.0
C400 C 0.33656 0.67583 0.84737 0.0
C401 C 0.45817 0.78309 0.64368 0.0
C402 C 0.48289 0.81667 0.67315 0.0
C403 C 0.3413 0.82251 0.70155 0.0
C404 C 0.26099 0.86926 0.60046 0.0
C405 C 0.23893 0.86892 0.55067 0.0
C406 C 0.25916 0.9024 0.51106 0.0
C407 C 0.30439 0.93378 0.52234 0.0
C408 C 0.30503 0.90243 0.611 0.0
C409 C 0.32703 0.93356 0.57181 0.0
C410 C 0.24457 0.70064 0.67698 0.0
C411 C 0.23611 0.83487 0.64001 0.0
H412 H 0.37524 0.6657 0.93978 0.0
H413 H 0.25537 0.59016 0.01338 0.0
H414 H 0.24291 0.62004 0.85295 0.0
H415 H 0.20795 0.58873 0.93016 0.0
H416 H 0.20448 0.8437 0.54415 0.0
H417 H 0.3219 0.95982 0.49368 0.0
H418 H 0.32241 0.90518 0.64916 0.0
H419 H 0.36117 0.95876 0.58013 0.0
Eu420 Eu 0.25594 0.24801 0.78151 0.0
C421 C 0.40279 0.3684 0.63735 0.0
C422 C 0.36103 0.37121 0.553 0.0
C423 C 0.4399 0.42419 0.56921 0.0
C424 C 0.36289 0.35212 0.60438 0.0
C425 C 0.44181 0.40461 0.6201 0.0
C426 C 0.39969 0.40736 0.53571 0.0
C427 C 0.48284 0.39734 0.7037 0.0
N428 N 0.40395 0.34793 0.68586 0.0
C429 C 0.44354 0.3611 0.71874 0.0
C430 C 0.48194 0.41933 0.65418 0.0
Eu431 Eu 0.33814 0.28319 0.70606 0.0
N432 N 0.32595 0.31738 0.6224 0.0
C433 C 0.28622 0.29987 0.59069 0.0
C434 C 0.32071 0.3527 0.52028 0.0
C435 C 0.2833 0.31669 0.53926 0.0
H436 H 0.44485 0.34388 0.75687 0.0
H437 H 0.25227 0.30118 0.51433 0.0
H438 H 0.39908 0.42216 0.49639 0.0
H439 H 0.51387 0.40802 0.73017 0.0
H440 H 0.25664 0.27228 0.60426 0.0
H441 H 0.3312 0.21991 0.97609 0.0
H442 H 0.31832 0.36541 0.48028 0.0
H443 H 0.15373 0.18875 0.71899 0.0
H444 H 0.33183 0.25546 0.88754 0.0
H445 H 0.08332 0.12239 0.73836 0.0
H446 H 0.46957 0.45186 0.55518 0.0
H447 H 0.26218 0.1555 0.00224 0.0
H448 H 0.18365 0.09779 0.97785 0.0
H449 H 0.51258 0.4471 0.64241 0.0
H450 H 0.11783 0.06966 0.91281 0.0
N451 N 0.26559 0.20882 0.86218 0.0
C452 C 0.30269 0.22551 0.89746 0.0
C453 C 0.26319 0.16919 0.96255 0.0
C454 C 0.2258 0.15112 0.92598 0.0
C455 C 0.30216 0.20584 0.94803 0.0
C456 C 0.22787 0.17202 0.87526 0.0
H457 H 0.08025 0.07831 0.8236 0.0
N458 N 0.19113 0.18009 0.79119 0.0
C459 C 0.11312 0.13152 0.76673 0.0
C460 C 0.18989 0.15698 0.83871 0.0
C461 C 0.15309 0.16882 0.75575 0.0
C462 C 0.11156 0.10672 0.8149 0.0
C463 C 0.14983 0.11978 0.85187 0.0
O464 O 0.19888 0.2602 0.77676 0.0
O465 O 0.28553 0.30429 0.71664 0.0
O466 O 0.36079 0.34102 0.74674 0.0
O467 O 0.32006 0.30353 0.81359 0.0
O468 O 0.21774 0.26748 0.70653 0.0
O469 O 0.2461 0.26876 0.84649 0.0
O470 O 0.39137 0.26354 0.70794 0.0
O471 O 0.31277 0.23188 0.77474 0.0
O472 O 0.2391 0.1887 0.74787 0.0
O473 O 0.2713 0.22748 0.67671 0.0
O474 O 0.3809 0.27244 0.78044 0.0
O475 O 0.33303 0.24634 0.6501 0.0
C476 C 0.2489 0.30391 0.68774 0.0
C477 C 0.17007 0.26018 0.84686 0.0
C478 C 0.13162 0.28919 0.88173 0.0
C479 C 0.17196 0.29126 0.87249 0.0
C480 C 0.08969 0.25557 0.86524 0.0
C481 C 0.12785 0.22519 0.83437 0.0
C482 C 0.088 0.22302 0.84338 0.0
C483 C 0.35178 0.33938 0.79181 0.0
C484 C 0.20897 0.27064 0.82185 0.0
C485 C 0.1484 0.09806 0.90196 0.0
C486 C 0.18599 0.11403 0.93902 0.0
C487 C 0.3512 0.23751 0.80319 0.0
C488 C 0.39626 0.24122 0.63446 0.0
C489 C 0.38757 0.20054 0.62352 0.0
C490 C 0.41185 0.19832 0.5899 0.0
C491 C 0.44448 0.23737 0.5669 0.0
C492 C 0.42934 0.27968 0.61141 0.0
C493 C 0.45312 0.27766 0.57764 0.0
C494 C 0.24458 0.19006 0.70167 0.0
C495 C 0.36999 0.24236 0.6696 0.0
H496 H 0.2043 0.31839 0.88245 0.0
H497 H 0.05823 0.25378 0.87093 0.0
H498 H 0.1252 0.20098 0.81463 0.0
H499 H 0.05557 0.1967 0.83197 0.0
H500 H 0.36251 0.17055 0.6417 0.0
H501 H 0.4638 0.23659 0.54122 0.0
H502 H 0.4365 0.31117 0.61917 0.0
H503 H 0.47849 0.30751 0.55977 0.0
Eu504 Eu 0.81918 0.22069 0.78055 0.0
C505 C 0.73782 0.33148 0.60738 0.0
C506 C 0.8021 0.3973 0.57951 0.0
C507 C 0.73232 0.36923 0.52118 0.0
C508 C 0.7824 0.36108 0.61662 0.0
C509 C 0.71161 0.33596 0.56012 0.0
C510 C 0.77753 0.4002 0.53104 0.0
C511 C 0.64505 0.2811 0.59699 0.0
N512 N 0.71865 0.30172 0.64685 0.0
C513 C 0.67253 0.27906 0.64334 0.0
C514 C 0.66484 0.30895 0.55474 0.0
Eu515 Eu 0.76646 0.29643 0.72428 0.0
N516 N 0.80465 0.35744 0.66408 0.0
C517 C 0.8453 0.39103 0.67808 0.0
C518 C 0.84472 0.43074 0.5932 0.0
C519 C 0.86625 0.42765 0.64292 0.0
H520 H 0.65674 0.25914 0.67635 0.0
H521 H 0.89913 0.45315 0.65446 0.0
H522 H 0.79247 0.42729 0.50174 0.0
H523 H 0.6086 0.26186 0.59417 0.0
H524 H 0.8618 0.39003 0.71646 0.0
H525 H 0.68925 0.06561 0.85991 0.0
H526 H 0.86048 0.4595 0.56613 0.0
H527 H 0.92811 0.27239 0.83091 0.0
H528 H 0.7265 0.12499 0.79266 0.0
H529 H 0.97591 0.2745 0.91453 0.0
H530 H 0.71298 0.37285 0.48439 0.0
H531 H 0.72621 0.06812 0.94892 0.0
H532 H 0.79528 0.10444 0.01069 0.0
H533 H 0.64346 0.31128 0.51913 0.0
H534 H 0.87411 0.16065 0.02519 0.0
N535 N 0.78218 0.16226 0.84329 0.0
C536 C 0.74253 0.12679 0.83142 0.0
C537 C 0.74239 0.09452 0.91958 0.0
C538 C 0.7851 0.12899 0.93081 0.0
C539 C 0.7215 0.0929 0.8694 0.0
C540 C 0.80462 0.16252 0.89114 0.0
H541 H 0.94188 0.22431 0.98967 0.0
N542 N 0.86762 0.22313 0.85908 0.0
C543 C 0.94017 0.25184 0.91085 0.0
C544 C 0.84889 0.19399 0.89932 0.0
C545 C 0.91315 0.25051 0.8636 0.0
C546 C 0.9208 0.22357 0.95319 0.0
C547 C 0.87487 0.19345 0.94755 0.0
O548 O 0.8706 0.20763 0.76269 0.0
O549 O 0.82338 0.28051 0.72438 0.0
O550 O 0.74202 0.24721 0.66879 0.0
O551 O 0.75732 0.19125 0.72173 0.0
O552 O 0.87848 0.26873 0.7374 0.0
O553 O 0.79973 0.16078 0.7517 0.0
O554 O 0.71593 0.30624 0.75006 0.0
O555 O 0.76302 0.23708 0.78133 0.0
O556 O 0.8437 0.27072 0.83418 0.0
O557 O 0.83119 0.32727 0.78016 0.0
O558 O 0.7029 0.24048 0.75539 0.0
O559 O 0.78624 0.35272 0.76084 0.0
C560 C 0.8629 0.29552 0.71154 0.0
C561 C 0.85423 0.13373 0.76947 0.0
C562 C 0.88899 0.09103 0.75641 0.0
C563 C 0.87317 0.12287 0.73804 0.0
C564 C 0.88428 0.06909 0.80625 0.0
C565 C 0.8495 0.11145 0.81909 0.0
C566 C 0.86417 0.07901 0.83719 0.0
C567 C 0.73891 0.20691 0.67859 0.0
C568 C 0.8414 0.16951 0.75006 0.0
C569 C 0.85472 0.16177 0.98794 0.0
C570 C 0.80984 0.12966 0.97963 0.0
C571 C 0.72073 0.21698 0.78579 0.0
C572 C 0.73225 0.37954 0.74864 0.0
C573 C 0.71562 0.39054 0.78264 0.0
C574 C 0.70048 0.42313 0.76686 0.0
C575 C 0.7037 0.44556 0.71705 0.0
C576 C 0.73556 0.40261 0.69923 0.0
C577 C 0.72167 0.43567 0.68373 0.0
C578 C 0.85056 0.31198 0.82279 0.0
C579 C 0.74502 0.3434 0.76488 0.0
H580 H 0.87707 0.14021 0.69971 0.0
H581 H 0.89663 0.04474 0.82127 0.0
H582 H 0.83497 0.11937 0.8439 0.0
H583 H 0.86066 0.06203 0.87559 0.0
H584 H 0.71298 0.37278 0.82086 0.0
H585 H 0.69188 0.47042 0.70388 0.0
H586 H 0.74852 0.39488 0.67258 0.0
H587 H 0.72415 0.45321 0.64548 0.0
Eu588 Eu 0.78036 0.72999 0.71132 0.0
C589 C 0.91857 0.85578 0.86043 0.0
C590 C 0.93958 0.80621 0.92606 0.0
C591 C 0.99211 0.88329 0.91329 0.0
C592 C 0.90798 0.81379 0.8862 0.0
C593 C 0.9602 0.89112 0.87485 0.0
C594 C 0.98196 0.84088 0.93857 0.0
C595 C 0.93488 0.93995 0.81418 0.0
N596 N 0.88744 0.86249 0.82277 0.0
C597 C 0.89452 0.90397 0.80052 0.0
C598 C 0.96819 0.93348 0.85095 0.0
Eu599 Eu 0.82041 0.7995 0.80179 0.0
N600 N 0.86615 0.78091 0.87432 0.0
C601 C 0.85273 0.74098 0.90427 0.0
C602 C 0.92735 0.76413 0.95302 0.0
C603 C 0.88352 0.73163 0.94259 0.0
H604 H 0.86924 0.90967 0.77222 0.0
H605 H 0.87368 0.69905 0.96322 0.0
H606 H 1.00661 0.83544 0.96882 0.0
H607 H 0.94039 0.97265 0.79611 0.0
H608 H 0.81913 0.715 0.89772 0.0
H609 H 0.73812 0.83054 0.54274 0.0
H610 H 0.95112 0.75662 0.9826 0.0
H611 H 0.72022 0.62255 0.75176 0.0
H612 H 0.78861 0.81069 0.61331 0.0
H613 H 0.6419 0.56452 0.73697 0.0
H614 H 1.02444 0.90995 0.92438 0.0
H615 H 0.65631 0.78001 0.52927 0.0
H616 H 0.5922 0.70686 0.55336 0.0
H617 H 0.99959 0.96142 0.86118 0.0
H618 H 0.56613 0.63433 0.60583 0.0
N619 N 0.73549 0.75061 0.64075 0.0
C620 C 0.75287 0.78859 0.60797 0.0
C621 C 0.67824 0.77129 0.56043 0.0
C622 C 0.66125 0.73105 0.59211 0.0
C623 C 0.72442 0.79985 0.56785 0.0
C624 C 0.69122 0.72134 0.6323 0.0
H625 H 0.58456 0.58078 0.67376 0.0
N626 N 0.7068 0.6715 0.6987 0.0
C627 C 0.65112 0.59707 0.71588 0.0
C628 C 0.67651 0.68046 0.66184 0.0
C629 C 0.69542 0.62998 0.72414 0.0
C630 C 0.61883 0.6064 0.68018 0.0
C631 C 0.6315 0.64826 0.652 0.0
O632 O 0.80484 0.68475 0.70387 0.0
O633 O 0.83493 0.74823 0.78098 0.0
O634 O 0.87819 0.82838 0.75555 0.0
O635 O 0.84144 0.79281 0.68594 0.0
O636 O 0.79568 0.68302 0.77656 0.0
O637 O 0.79448 0.72791 0.63795 0.0
O638 O 0.75779 0.79438 0.8183 0.0
O639 O 0.76976 0.78475 0.72966 0.0
O640 O 0.72403 0.70527 0.7595 0.0
O641 O 0.77043 0.7305 0.83052 0.0
O642 O 0.81243 0.84877 0.73338 0.0
O643 O 0.82114 0.8349 0.85807 0.0
C644 C 0.83057 0.70955 0.80295 0.0
C645 C 0.78941 0.66063 0.62594 0.0
C646 C 0.80399 0.61199 0.59013 0.0
C647 C 0.82014 0.6487 0.61444 0.0
C648 C 0.757 0.58717 0.57832 0.0
C649 C 0.7427 0.63591 0.61245 0.0
C650 C 0.72666 0.59925 0.58911 0.0
C651 C 0.87825 0.82105 0.71073 0.0
C652 C 0.80633 0.69651 0.65562 0.0
C653 C 0.60098 0.65849 0.61359 0.0
C654 C 0.61581 0.69981 0.58374 0.0
C655 C 0.77677 0.82373 0.70653 0.0
C656 C 0.76231 0.85673 0.84028 0.0
C657 C 0.73496 0.85538 0.87267 0.0
C658 C 0.71771 0.88623 0.86197 0.0
C659 C 0.72799 0.9183 0.819 0.0
C660 C 0.77243 0.88935 0.79765 0.0
C661 C 0.75521 0.91978 0.78703 0.0
C662 C 0.72934 0.70797 0.8078 0.0
C663 C 0.77771 0.82259 0.84939 0.0
H664 H 0.85633 0.66753 0.62477 0.0
H665 H 0.7438 0.55863 0.5601 0.0
H666 H 0.71858 0.64453 0.62054 0.0
H667 H 0.69052 0.58009 0.57929 0.0
H668 H 0.72666 0.83028 0.90558 0.0
H669 H 0.7149 0.94219 0.81027 0.0
H670 H 0.79318 0.89129 0.77215 0.0
H671 H 0.76275 0.94441 0.75373 0.0
Co672 Co 0.06813 0.96282 0.43434 0.0
Co673 Co 0.09182 0.94852 0.52963 0.0
Co674 Co 0.0429 1.01256 0.50405 0.0
O675 O 0.08631 0.99584 0.48821 0.0
H676 H 0.11598 0.0204 0.48627 0.0
O677 O 0.99966 0.02929 0.52019 0.0
Co678 Co 1.0161 0.06376 0.57234 0.0
Co679 Co 0.9921 0.07441 0.47637 0.0
H680 H 0.97027 1.00442 0.52276 0.0
O681 O 0.14736 0.94877 0.54056 0.0
O682 O 0.08836 0.92057 0.47958 0.0
O683 O 0.04833 0.91485 0.57613 0.0
O684 O 1.01338 0.95791 0.55439 0.0
O685 O 0.09099 0.04131 0.56031 0.0
O686 O 1.02626 0.0923 0.62277 0.0
O687 O 0.96199 0.03711 0.5942 0.0
O688 O 0.07531 0.09614 0.55629 0.0
O689 O 0.07262 0.06703 0.45318 0.0
O690 O 1.03403 0.10676 0.42873 0.0
O691 O 0.99824 0.10626 0.52359 0.0
O692 O 0.93713 0.07532 0.46586 0.0
C693 C 0.0978 0.96154 0.37794 0.0
C694 C 0.98288 0.94535 0.4402 0.0
C695 C 1.01713 0.92381 0.57981 0.0
C696 C 0.13028 0.93019 0.50006 0.0
C697 C 0.98354 0.06599 0.62492 0.0
C698 C 0.10203 0.07871 0.57094 0.0
C699 C 0.06632 0.09922 0.42572 0.0
C700 C 0.95683 0.09832 0.50266 0.0
O701 O 0.0553 0.93567 0.38193 0.0
O702 O 0.1209 0.99025 0.40881 0.0
O703 O 0.9941 0.9835 0.44844 0.0
O704 O 1.01069 0.92923 0.45446 0.0
Co705 Co 0.57214 0.9329 0.00344 0.0
Co706 Co 0.59228 0.96052 0.085 0.0
Co707 Co 0.53541 0.017 -0.00221 0.0
O708 O 0.58283 0.9912 0.01741 0.0
H709 H 0.612 0.01361 0.0086 0.0
O710 O 0.48712 0.04087 0.97565 0.0
Co711 Co 0.47932 0.07765 0.01143 0.0
Co712 Co 0.4942 0.08917 0.92386 0.0
H713 H 0.45777 0.01711 0.96727 0.0
O714 O 0.64138 0.95059 0.13631 0.0
O715 O 0.6126 0.92296 0.06587 0.0
O716 O 0.53053 0.93156 0.10416 0.0
O717 O 0.49833 0.97445 0.05506 0.0
O718 O 0.57515 0.06387 0.04306 0.0
O719 O 0.46613 0.10587 0.04661 0.0
O720 O 0.4184 0.04849 0.00629 0.0
O721 O 0.54426 0.11115 0.02496 0.0
O722 O 0.57361 0.05911 0.94062 0.0
O723 O 0.55524 0.11476 0.90521 0.0
O724 O 0.47423 0.12358 0.94737 0.0
O725 O 0.44565 0.0962 0.87507 0.0
C726 C 0.60554 0.91348 0.96516 0.0
C727 C 0.49561 0.94276 0.93408 0.0
C728 C 0.4974 0.94172 0.08981 0.0
C729 C 0.63867 0.92386 0.10932 0.0
C730 C 0.42488 0.07705 0.03355 0.0
C731 C 0.57734 0.10141 0.04362 0.0
C732 C 0.58188 0.09695 0.91289 0.0
C733 C 0.44663 0.12114 0.90368 0.0
O734 O 0.56996 0.88477 0.98598 0.0
O735 O 0.61837 0.95432 0.96598 0.0
O736 O 0.49379 0.97145 0.953 0.0
O737 O 0.5304 0.93577 0.94348 0.0
Co738 Co 0.07222 0.43326 0.99411 0.0
Co739 Co 0.08749 0.44965 0.08338 0.0
Co740 Co 0.03932 0.51451 0.00048 0.0
O741 O 0.08654 0.48774 0.01965 0.0
H742 H 0.11682 0.51009 0.01461 0.0
O743 O 0.99117 0.53968 0.98073 0.0
Co744 Co 0.99448 0.58512 0.01457 0.0
Co745 Co 0.9969 0.5859 0.92549 0.0
H746 H 0.9607 0.51622 0.97768 0.0
O747 O 0.14143 0.44237 0.11946 0.0
O748 O 0.08744 0.39995 0.06594 0.0
O749 O 1.03107 0.42909 0.11086 0.0
O750 O 0.99922 0.46947 0.05562 0.0
O751 O 0.07803 0.55878 0.04849 0.0
O752 O 0.99477 0.62187 0.04859 0.0
O753 O 0.93435 0.5626 0.02204 0.0
O754 O 0.05832 0.61325 0.01606 0.0
O755 O 0.07956 0.55906 0.94516 0.0
O756 O 0.05585 0.6097 0.90214 0.0
O757 O 0.98354 0.62596 0.9474 0.0
O758 O 0.94608 0.59094 0.8807 0.0
C759 C 0.10425 0.40666 0.96802 0.0
C760 C 0.98752 0.42992 0.96246 0.0
C761 C 0.99799 0.43885 0.09387 0.0
C762 C 0.1257 0.40789 0.09827 0.0
C763 C 0.95158 0.59626 0.04603 0.0
C764 C 0.08579 0.59898 0.04419 0.0
C765 C 0.08484 0.5944 0.91283 0.0
C766 C 0.95195 0.61989 0.90677 0.0
O767 O 0.06083 0.38778 0.96803 0.0
O768 O 0.12855 0.44507 0.9829 0.0
O769 O 1.00093 0.47132 0.95189 0.0
O770 O 1.00985 0.41391 -0.00202 0.0
Co771 Co 0.57187 0.45645 0.94524 0.0
Co772 Co 0.58264 0.44155 0.042 0.0
Co773 Co 0.54131 0.51153 0.00383 0.0
O774 O 0.58421 0.49038 0.99716 0.0
H775 H 0.61474 0.51368 -0.00107 0.0
O776 O 0.49773 0.53249 0.0104 0.0
Co777 Co 0.5066 0.56029 0.06783 0.0
Co778 Co 0.5037 0.58515 0.9709 0.0
H779 H 0.46685 0.51022 0.00474 0.0
O780 O 0.63698 0.44086 0.06682 0.0
O781 O 0.58836 0.41437 0.99723 0.0
O782 O 0.53173 0.40953 0.07892 0.0
O783 O 0.50692 0.46064 0.05502 0.0
O784 O 0.58887 0.54391 0.05937 0.0
O785 O 0.51075 0.58334 0.12034 0.0
O786 O 0.44804 0.5327 0.08277 0.0
O787 O 0.56658 0.59299 0.06178 0.0
O788 O 0.575 0.56139 0.95164 0.0
O789 O 0.55534 0.61598 0.93289 0.0
O790 O 0.49739 0.60761 0.02092 0.0
O791 O 0.45134 0.5916 0.94724 0.0
C792 C 0.608 0.45353 0.8966 0.0
C793 C 0.48493 0.44278 0.93826 0.0
C794 C 0.50398 0.42385 0.07995 0.0
C795 C 0.62798 0.42468 0.02551 0.0
C796 C 0.46769 0.55722 0.11862 0.0
C797 C 0.59704 0.58061 0.07006 0.0
C798 C 0.58009 0.59918 0.92856 0.0
C799 C 0.45966 0.60288 0.99165 0.0
O800 O 0.56492 0.42775 0.89632 0.0
O801 O 0.62802 0.48272 0.92705 0.0
O802 O 0.49556 0.48058 0.94739 0.0
O803 O 0.51092 0.42468 0.95643 0.0
Co804 Co 0.12783 0.47226 0.54938 0.0
Co805 Co 0.09917 0.48384 0.45356 0.0
Co806 Co 0.03742 0.51337 0.49602 0.0
O807 O 0.06802 0.47141 0.50708 0.0
H808 H 0.04488 0.44149 0.50852 0.0
O809 O 1.00649 0.55554 0.48551 0.0
Co810 Co 0.95384 0.56382 0.4334 0.0
Co811 Co 0.96166 0.53335 0.52567 0.0
H812 H 1.02915 0.58374 0.49408 0.0
O813 O 0.09701 0.43898 0.42945 0.0
O814 O 0.15237 0.48146 0.48516 0.0
O815 O 0.11573 0.5396 0.41133 0.0
O816 O 0.0766 0.56183 0.44256 0.0
O817 O 0.98906 0.4799 0.4431 0.0
O818 O 0.9092 0.57615 0.38581 0.0
O819 O 0.96051 0.62166 0.43572 0.0
O820 O 0.93641 0.50576 0.41853 0.0
O821 O 0.99934 0.46479 0.55019 0.0
O822 O 0.94244 0.4752 0.56108 0.0
O823 O 0.91288 0.5401 0.48816 0.0
O824 O 0.95941 0.57164 0.55634 0.0
C825 C 0.1612 0.42655 0.58555 0.0
C826 C 0.12872 0.55768 0.55726 0.0
C827 C 0.10513 0.5689 0.41347 0.0
C828 C 0.13776 0.45256 0.45445 0.0
C829 C 0.92495 0.61398 0.40003 0.0
C830 C 0.94992 0.47683 0.42053 0.0
C831 C 0.96265 0.45169 0.5692 0.0
C832 C 0.91998 0.55822 0.5282 0.0
O833 O 0.18131 0.46828 0.588 0.0
O834 O 0.11936 0.41214 0.56138 0.0
O835 O 0.08568 0.54584 0.54943 0.0
O836 O 0.14705 0.53523 0.54897 0.0
Co837 Co 0.62809 0.96722 0.56618 0.0
Co838 Co 0.61618 0.99654 0.47545 0.0
Co839 Co 0.53944 1.01316 0.50104 0.0
O840 O 0.57084 0.9708 0.51639 0.0
H841 H 0.54909 0.94229 0.50788 0.0
O842 O 0.50913 0.05584 0.48663 0.0
Co843 Co 0.45453 0.062 0.43673 0.0
Co844 Co 0.46112 0.02776 0.52247 0.0
H845 H 0.5303 0.08328 0.49832 0.0
O846 O 0.61164 0.96206 0.43393 0.0
O847 O 0.66011 0.97999 0.50695 0.0
O848 O 0.63941 0.05727 0.45094 0.0
O849 O 0.57069 0.05364 0.43889 0.0
O850 O 0.48652 0.97408 0.45599 0.0
O851 O 0.4073 0.07207 0.39184 0.0
O852 O 0.46598 0.12259 0.43115 0.0
O853 O 0.43343 1.00005 0.42882 0.0
O854 O 0.50692 0.97289 0.56274 0.0
O855 O 0.43683 0.96606 0.54187 0.0
O856 O 0.41859 0.04708 0.49402 0.0
O857 O 0.46566 0.05823 0.56837 0.0
C858 C 0.66 0.91994 0.60325 0.0
C859 C 0.6323 0.05793 0.56716 0.0
C860 C 0.61251 0.07384 0.43126 0.0
C861 C 0.6446 0.95906 0.46752 0.0
C862 C 0.42766 0.11263 0.39954 0.0
C863 C 0.44721 0.97064 0.43314 0.0
C864 C 0.46396 0.95069 0.56572 0.0
C865 C 0.43144 0.06169 0.53781 0.0
O866 O 0.6784 0.96054 0.61002 0.0
O867 O 0.62008 0.90696 0.57448 0.0
O868 O 0.5922 0.05259 0.54552 0.0
O869 O 0.64759 0.02965 0.57134 0.0
C870 C 0.11766 0.15022 0.30313 0.0
C871 C 0.15259 0.19089 0.31518 0.0
C872 C 0.12742 0.17336 0.39818 0.0
C873 C 0.09816 0.12985 0.38919 0.0
N874 N 0.06933 0.07538 0.33446 0.0
N875 N 0.16901 0.24831 0.36046 0.0
C876 C 0.09431 0.11785 0.342 0.0
C877 C 0.15169 0.20477 0.35911 0.0
N878 N 0.10242 0.14482 0.25369 0.0
N879 N 0.13308 0.18438 0.44454 0.0
H880 H 0.17811 0.27131 0.32806 0.0
H881 H 0.16709 0.26087 0.38994 0.0
H882 H 0.1157 0.16227 0.47395 0.0
H883 H 0.15789 0.21415 0.4552 0.0
H884 H 0.07342 0.11753 0.24234 0.0
H885 H 0.11491 0.17043 0.22434 0.0
H886 H 0.06882 0.06459 0.3021 0.0
H887 H 0.05319 0.0505 0.36272 0.0
C888 C 0.86325 0.10082 0.55195 0.0
C889 C 0.86906 0.14241 0.52701 0.0
C890 C 0.94566 0.16025 0.51729 0.0
C891 C 0.93114 0.11448 0.52128 0.0
N892 N 0.87507 0.04016 0.54674 0.0
N893 N 0.92495 0.21649 0.52331 0.0
C894 C 0.89001 0.08418 0.54107 0.0
C895 C 0.9143 0.17395 0.5242 0.0
N896 N 0.83283 0.07813 0.58539 0.0
N897 N 0.98678 0.18995 0.50272 0.0
H898 H 0.90014 0.22517 0.526 0.0
H899 H 0.95775 0.24179 0.5232 0.0
H900 H 1.01009 0.18102 0.49631 0.0
H901 H 0.99725 0.22349 0.49528 0.0
H902 H 0.82932 0.0482 0.60689 0.0
H903 H 0.81487 0.09209 0.59444 0.0
H904 H 0.84356 0.01785 0.55789 0.0
H905 H 0.89223 0.02608 0.53656 0.0
C906 C 0.89518 0.90542 0.3257 0.0
C907 C 0.87715 0.8596 0.34357 0.0
C908 C 0.91392 0.8759 0.42882 0.0
C909 C 0.9396 0.92004 0.40914 0.0
N910 N 0.9559 0.9772 0.33688 0.0
N911 N 0.87869 0.80201 0.41209 0.0
C912 C 0.9303 0.93512 0.35708 0.0
C913 C 0.88852 0.84489 0.39532 0.0
N914 N 0.87796 0.92097 0.27964 0.0
N915 N 0.914 0.86368 0.47977 0.0
H916 H 0.86456 0.77866 0.38804 0.0
H917 H 0.88982 0.79085 0.44883 0.0
H918 H 0.93136 0.8865 0.50472 0.0
H919 H 0.89264 0.83242 0.49592 0.0
H920 H 0.88694 0.95403 0.26728 0.0
H921 H 0.8514 0.90096 0.25577 0.0
H922 H 0.95515 0.988 0.29801 0.0
H923 H 0.9793 1.00085 0.3589 0.0
C924 C 0.1204 0.9082 0.28915 0.0
C925 C 0.16115 0.94198 0.27247 0.0
C926 C 0.1576 0.99103 0.31923 0.0
C927 C 0.12016 0.95532 0.34153 0.0
N928 N 0.0771 0.87613 0.35842 0.0
N929 N 0.22361 0.01347 0.27898 0.0
C930 C 0.10448 0.9128 0.32945 0.0
C931 C 0.18145 0.98281 0.28988 0.0
N932 N 0.0965 0.87162 0.26637 0.0
N933 N 0.16919 0.03293 0.32365 0.0
H934 H 0.24166 1.0087 0.25702 0.0
H935 H 0.24229 0.04184 0.29538 0.0
H936 H 0.14956 0.04131 0.33884 0.0
H937 H 0.19531 0.05993 0.3067 0.0
H938 H 0.06418 0.8481 0.27404 0.0
H939 H 0.10674 0.86708 0.23619 0.0
H940 H 0.06849 0.84469 0.35306 0.0
H941 H 0.06832 0.87638 0.39204 0.0
C942 C 0.23437 0.95179 0.44841 0.0
C943 C 0.2303 0.9093 0.46228 0.0
C944 C 0.15054 0.88143 0.46731 0.0
C945 C 0.16047 0.9238 0.47524 0.0
N946 N 0.21137 1.00182 0.46495 0.0
N947 N 0.17919 0.83817 0.44231 0.0
C948 C 0.20192 0.96017 0.46206 0.0
C949 C 0.18577 0.876 0.45474 0.0
N950 N 0.26868 0.98308 0.42276 0.0
N951 N 0.11026 0.8463 0.47685 0.0
H952 H 0.20665 0.83461 0.43677 0.0
H953 H 0.14719 0.81267 0.43423 0.0
H954 H 0.08428 0.84883 0.48773 0.0
H955 H 0.10342 0.81436 0.47603 0.0
H956 H 0.27157 0.0144 0.40867 0.0
H957 H 0.29128 0.97545 0.41189 0.0
H958 H 0.24297 0.02823 0.4599 0.0
H959 H 0.18865 1.00962 0.475 0.0
C960 C 0.22223 0.15105 0.62585 0.0
C961 C 0.21509 0.151 0.67446 0.0
C962 C 0.13912 0.09127 0.66028 0.0
C963 C 0.14269 0.09929 0.60781 0.0
N964 N 0.18914 0.13529 0.54073 0.0
N965 N 0.18043 0.09938 0.74501 0.0
C966 C 0.18484 0.12847 0.59061 0.0
C967 C 0.17749 0.11457 0.69437 0.0
N968 N 0.26531 0.16565 0.61708 0.0
N969 N 0.09877 0.06282 0.67731 0.0
H970 H 0.21062 0.11232 0.76954 0.0
H971 H 0.15543 0.07054 0.76122 0.0
H972 H 0.07001 0.0456 0.65331 0.0
H973 H 0.0931 0.05882 0.71425 0.0
H974 H 0.27315 0.16307 0.58399 0.0
H975 H 0.2913 0.17098 0.64753 0.0
H976 H 0.21788 0.16007 0.52571 0.0
H977 H 0.16305 0.11783 0.51414 0.0
C978 C 0.89667 0.04184 0.70952 0.0
C979 C 0.9135 0.08332 0.72435 0.0
C980 C 0.97127 0.11405 0.66842 0.0
C981 C 0.95909 0.07149 0.65929 0.0
N982 N 0.91558 0.9933 0.68169 0.0
N983 N 0.97513 0.15583 0.72844 0.0
C984 C 0.92321 0.0348 0.68275 0.0
C985 C 0.95345 0.11844 0.70718 0.0
N986 N 0.85497 1.00956 0.71971 0.0
N987 N 0.99735 0.15064 0.6383 0.0
H988 H 0.96417 0.15991 0.75836 0.0
H989 H 1.00672 0.18065 0.72007 0.0
H990 H 1.00784 0.14986 0.60608 0.0
H991 H 1.0033 0.18188 0.64138 0.0
H992 H 0.83919 0.98021 0.70524 0.0
H993 H 0.83427 0.01383 0.73838 0.0
H994 H 0.89145 0.96572 0.7007 0.0
H995 H 0.93663 0.9864 0.66693 0.0
C996 C 0.95438 0.88748 0.69386 0.0
C997 C 0.92087 0.84486 0.68574 0.0
C998 C 0.95851 0.85012 0.61611 0.0
C999 C 0.98566 0.89555 0.61786 0.0
N1000 N 1.01132 0.95729 0.66051 0.0
N1001 N 0.90891 0.7798 0.65894 0.0
C1002 C 0.98377 0.9142 0.6571 0.0
C1003 C 0.9279 0.82435 0.65226 0.0
N1004 N 0.96328 0.89999 0.7399 0.0
N1005 N 0.96061 0.83182 0.57888 0.0
H1006 H 0.89193 0.76061 0.68981 0.0
H1007 H 0.9151 0.76214 0.63889 0.0
H1008 H 0.9826 0.84923 0.55189 0.0
H1009 H 0.93802 0.80022 0.572 0.0
H1010 H 0.98883 0.92994 0.74918 0.0
H1011 H 0.95233 0.87716 0.77165 0.0
H1012 H 1.00669 0.97418 0.68322 0.0
H1013 H 0.03793 0.97646 0.63933 0.0
C1014 C 0.35331 0.08325 0.11758 0.0
C1015 C 0.31711 0.08674 0.08133 0.0
C1016 C 0.348 0.07764 0.01446 0.0
C1017 C 0.3859 0.07727 0.0501 0.0
N1018 N 0.41793 0.06698 0.13744 0.0
N1019 N 0.27847 0.08539 0.99548 0.0
C1020 C 0.38687 0.07689 0.10221 0.0
C1021 C 0.31367 0.08261 0.03004 0.0
N1022 N 0.35535 0.08568 0.16702 0.0
N1023 N 0.34416 0.0723 0.96572 0.0
H1024 H 0.25059 0.08501 0.00542 0.0
H1025 H 0.27713 0.08989 0.95645 0.0
H1026 H 0.3698 0.07253 0.95115 0.0
H1027 H 0.31474 0.06534 0.93973 0.0
H1028 H 0.38378 0.09005 0.19407 0.0
H1029 H 0.32873 0.08469 0.18089 0.0
H1030 H 0.41826 0.06194 0.17637 0.0
H1031 H 0.44118 0.05949 0.12801 0.0
C1032 C 0.88195 0.34179 0.12046 0.0
C1033 C 0.87327 0.35152 0.16291 0.0
C1034 C 0.94376 0.42178 0.15582 0.0
C1035 C 0.95439 0.40964 0.11688 0.0
N1036 N 0.93911 0.35075 0.07433 0.0
N1037 N 0.902 0.39885 0.22645 0.0
C1038 C 0.9249 0.36766 0.10245 0.0
C1039 C 0.90601 0.39094 0.18221 0.0
N1040 N 0.8498 0.3066 0.09827 0.0
N1041 N 0.96944 0.4631 0.16738 0.0
H1042 H 0.87464 0.37863 0.24591 0.0
H1043 H 0.92739 0.42388 0.24564 0.0
H1044 H 0.99765 0.48589 0.14977 0.0
H1045 H 0.96059 0.47588 0.19115 0.0
H1046 H 0.85147 0.30099 0.06349 0.0
H1047 H 0.82059 0.2839 0.11394 0.0
H1048 H 0.92014 0.3197 0.06414 0.0
H1049 H 0.97218 0.36559 0.06642 0.0
C1050 C 0.72883 0.87971 0.18289 0.0
C1051 C 0.71185 0.83787 0.16789 0.0
C1052 C 0.64578 0.85103 0.11709 0.0
C1053 C 0.66498 0.89475 0.12787 0.0
N1054 N 0.73355 0.95287 0.162 0.0
N1055 N 0.65732 0.78962 0.1097 0.0
C1056 C 0.7091 0.90959 0.15804 0.0
C1057 C 0.67156 0.82584 0.13136 0.0
N1058 N 0.76189 0.89028 0.22349 0.0
N1059 N 0.60127 0.8315 0.09647 0.0
H1060 H 0.67445 0.77034 0.11872 0.0
H1061 H 0.63153 0.78149 0.07908 0.0
H1062 H 0.5799 0.84634 0.08918 0.0
H1063 H 0.58399 0.79856 0.09256 0.0
H1064 H 0.77246 0.91796 0.2398 0.0
H1065 H 0.77487 0.86883 0.2442 0.0
H1066 H 0.76716 0.96633 0.17929 0.0
H1067 H 0.72226 0.97601 0.14277 0.0
C1068 C 0.18301 0.64053 0.15237 0.0
C1069 C 0.20409 0.68631 0.13651 0.0
C1070 C 0.15338 0.67438 0.05472 0.0
C1071 C 0.12712 0.62967 0.0751 0.0
N1072 N 0.11237 0.57521 0.15063 0.0
N1073 N 0.22348 0.7412 0.06302 0.0
C1074 C 0.1408 0.61408 0.12581 0.0
C1075 C 0.19299 0.70197 0.08494 0.0
N1076 N 0.20515 0.6212 0.18939 0.0
N1077 N 0.14066 0.69106 0.00674 0.0
H1078 H 0.25535 0.75921 0.08206 0.0
H1079 H 0.22033 0.75324 0.02456 0.0
H1080 H 0.11696 0.67209 0.98 0.0
H1081 H 0.15319 0.72437 0.9933 0.0
H1082 H 0.19198 0.58742 0.1999 0.0
H1083 H 0.23946 0.638 0.20281 0.0
H1084 H 0.11991 0.56486 0.18903 0.0
H1085 H 0.07911 0.55635 0.13537 0.0
C1086 C 0.39114 0.83705 0.89924 0.0
C1087 C 0.37286 0.85187 0.85057 0.0
C1088 C 0.43266 0.92748 0.85919 0.0
C1089 C 0.45282 0.91184 0.90562 0.0
N1090 N 0.45176 0.85147 0.97046 0.0
N1091 N 0.37 0.9144 0.79114 0.0
C1092 C 0.43201 0.86656 0.92586 0.0
C1093 C 0.39134 0.89803 0.83297 0.0
N1094 N 0.36749 0.79497 0.92147 0.0
N1095 N 0.45514 0.97012 0.83785 0.0
H1096 H 0.3426 0.89558 0.76735 0.0
H1097 H 0.37767 0.94735 0.78144 0.0
H1098 H 0.48527 0.99256 0.85559 0.0
H1099 H 0.44646 0.98263 0.80081 0.0
H1100 H 0.37574 0.78247 0.95863 0.0
H1101 H 0.33642 0.77333 0.90435 0.0
H1102 H 0.44295 0.81858 0.98364 0.0
H1103 H 0.47856 0.8719 0.99396 0.0
C1104 C 0.14954 0.36682 0.88791 0.0
C1105 C 0.1322 0.32165 0.90872 0.0
C1106 C 0.10677 0.33553 0.97618 0.0
C1107 C 0.1237 0.38072 0.95514 0.0
N1108 N 0.1716 0.44091 0.89917 0.0
N1109 N 0.09995 0.26413 0.97715 0.0
C1110 C 0.14897 0.39693 0.91406 0.0
C1111 C 0.11289 0.30655 0.95437 0.0
N1112 N 0.1629 0.38046 0.84098 0.0
N1113 N 0.0825 0.31954 0.0159 0.0
H1114 H 0.09946 0.24023 0.96083 0.0
H1115 H 0.09269 0.25284 0.01418 0.0
H1116 H 0.08125 0.33937 0.03712 0.0
H1117 H 0.06183 0.28659 0.02679 0.0
H1118 H 0.17104 0.41184 0.82119 0.0
H1119 H 0.1615 0.35929 0.81937 0.0
H1120 H 0.19429 0.4548 0.87287 0.0
H1121 H 0.17133 0.46383 0.91665 0.0
C1122 C 0.65074 0.14539 0.80159 0.0
C1123 C 0.69256 0.17775 0.82221 0.0
C1124 C 0.66661 0.14494 0.90649 0.0
C1125 C 0.62172 0.11989 0.88333 0.0
N1126 N 0.57122 0.09698 0.80698 0.0
N1127 N 0.74063 0.20694 0.89677 0.0
C1128 C 0.61395 0.12036 0.83035 0.0
C1129 C 0.70074 0.17685 0.87561 0.0
N1130 N 0.64746 0.13606 0.75536 0.0
N1131 N 0.67687 0.13768 0.95786 0.0
H1132 H 0.76698 0.22767 0.87572 0.0
H1133 H 0.74698 0.21178 0.93427 0.0
H1134 H 0.65289 0.1143 0.98086 0.0
H1135 H 0.70968 0.15186 0.97702 0.0
H1136 H 0.61984 0.10999 0.73977 0.0
H1137 H 0.67577 0.15036 0.73697 0.0
H1138 H 0.56249 0.10045 0.76774 0.0
H1139 H 0.54392 0.07593 0.8268 0.0
C1140 C 0.91387 0.7144 0.8416 0.0
C1141 C 0.8651 0.69179 0.83691 0.0
C1142 C 0.87432 0.62381 0.8792 0.0
C1143 C 0.92289 0.64632 0.88689 0.0
N1144 N 0.98805 0.71648 0.88018 0.0
N1145 N 0.80256 0.62668 0.86959 0.0
C1146 C 0.94219 0.69272 0.8699 0.0
C1147 C 0.84677 0.64709 0.86111 0.0
N1148 N 0.93366 0.75628 0.81756 0.0
N1149 N 0.85345 0.57927 0.88888 0.0
H1150 H 0.78214 0.64269 0.86141 0.0
H1151 H 0.78789 0.59571 0.8906 0.0
H1152 H 0.87068 0.56061 0.90619 0.0
H1153 H 0.81911 0.56078 0.87709 0.0
H1154 H 0.96796 0.77332 0.81371 0.0
H1155 H 0.91514 0.77334 0.79886 0.0
H1156 H 1.0045 0.75046 0.87454 0.0
H1157 H 1.00941 0.70205 0.89797 0.0
C1158 C 0.22603 0.37294 0.12482 0.0
C1159 C 0.20987 0.33086 0.1567 0.0
C1160 C 0.13529 0.33577 0.1443 0.0
C1161 C 0.1522 0.37841 0.11406 0.0
N1162 N 0.21307 0.43294 0.06901 0.0
N1163 N 0.14245 0.26823 0.18205 0.0
C1164 C 0.19745 0.39536 0.10287 0.0
C1165 C 0.16249 0.31125 0.16199 0.0
N1166 N 0.2698 0.3922 0.11509 0.0
N1167 N 0.09322 0.31891 0.15797 0.0
H1168 H 0.15983 0.24933 0.19114 0.0
H1169 H 0.10781 0.25012 0.18371 0.0
H1170 H 0.0725 0.33467 0.14491 0.0
H1171 H 0.08007 0.29107 0.18452 0.0
H1172 H 0.28737 0.42503 0.1007 0.0
H1173 H 0.28924 0.37531 0.12221 0.0
H1174 H 0.24221 0.44465 0.05256 0.0
H1175 H 0.19485 0.45098 0.05399 0.0
C1176 C 0.15709 0.63883 0.80357 0.0
C1177 C 0.19676 0.67525 0.82188 0.0
C1178 C 0.16711 0.65077 0.90421 0.0
C1179 C 0.12527 0.61843 0.88358 0.0
N1180 N 0.07892 0.58487 0.81074 0.0
N1181 N 0.23503 0.71869 0.88934 0.0
C1182 C 0.11996 0.61348 0.83242 0.0
C1183 C 0.20019 0.68219 0.872 0.0
N1184 N 0.1547 0.62794 0.75832 0.0
N1185 N 0.17656 0.64989 0.95535 0.0
H1186 H 0.25939 0.74241 0.86721 0.0
H1187 H 0.23692 0.72764 0.92355 0.0
H1188 H 0.15433 0.62581 0.97969 0.0
H1189 H 0.20808 0.66957 0.97371 0.0
H1190 H 0.13032 0.59867 0.74607 0.0
H1191 H 0.1784 0.6475 0.73385 0.0
H1192 H 0.07068 0.58369 0.77199 0.0
H1193 H 0.05195 0.56403 0.83111 0.0
C1194 C 0.40866 0.21737 0.87249 0.0
C1195 C 0.36922 0.2033 0.83458 0.0
C1196 C 0.37616 0.1329 0.84983 0.0
C1197 C 0.41896 0.1492 0.88269 0.0
N1198 N 0.47897 0.21388 0.91488 0.0
N1199 N 0.32365 0.14839 0.78039 0.0
C1200 C 0.43558 0.19314 0.89153 0.0
C1201 C 0.35521 0.16115 0.82177 0.0
N1202 N 0.42121 0.25483 0.89078 0.0
N1203 N 0.35385 0.08946 0.84601 0.0
H1204 H 0.30848 0.16743 0.75811 0.0
H1205 H 0.31613 0.12103 0.76506 0.0
H1206 H 0.36573 0.06703 0.86628 0.0
H1207 H 0.32075 0.0747 0.82768 0.0
H1208 H 0.44543 0.26426 0.92244 0.0
H1209 H 0.40464 0.27453 0.87727 0.0
H1210 H 0.49519 0.24713 0.91715 0.0
H1211 H 0.50084 0.19945 0.92679 0.0
C1212 C 0.87398 0.34374 0.9052 0.0
C1213 C 0.88454 0.34395 0.85796 0.0
C1214 C 0.9624 0.4005 0.87982 0.0
C1215 C 0.95155 0.40108 0.92622 0.0
N1216 N 0.89359 0.3824 0.97616 0.0
N1217 N 0.93465 0.38387 0.79487 0.0
C1218 C 0.90635 0.37508 0.93716 0.0
C1219 C 0.92755 0.37564 0.84375 0.0
N1220 N 0.83249 0.31448 0.91894 0.0
N1221 N 1.00632 0.4232 0.8702 0.0
H1222 H 0.91015 0.36652 0.76757 0.0
H1223 H 0.96279 0.41051 0.78063 0.0
H1224 H 1.0327 0.44306 0.89462 0.0
H1225 H 1.01711 0.41963 0.83982 0.0
H1226 H 0.82455 0.30857 0.95525 0.0
H1227 H 0.8064 0.2952 0.89398 0.0
H1228 H 0.86027 0.36758 0.98367 0.0
H1229 H 0.91588 0.40667 -0.00182 0.0
C1230 C 0.64107 0.86132 0.88635 0.0
C1231 C 0.6889 0.88601 0.89538 0.0
C1232 C 0.68128 0.91998 0.95815 0.0
C1233 C 0.63333 0.90038 0.94413 0.0
N1234 N 0.56687 0.8511 0.89561 0.0
N1235 N 0.75484 0.93596 0.9443 0.0
C1236 C 0.61289 0.86992 0.90915 0.0
C1237 C 0.70894 0.91413 0.9324 0.0
N1238 N 0.62293 0.83021 0.85531 0.0
N1239 N 0.70112 0.94414 0.99689 0.0
H1240 H 0.77815 0.93321 0.92817 0.0
H1241 H 0.77815 0.93321 0.92817 0.0
H1242 H 0.68276 0.94702 0.02007 0.0
H1243 H 0.73619 0.95947 0.00757 0.0
H1244 H 0.58879 0.80832 0.84944 0.0
H1245 H 0.64279 0.8241 0.83742 0.0
H1246 H 0.54966 0.82941 0.86968 0.0
H1247 H 0.5452 0.85853 0.90839 0.0
C1248 C 0.87517 0.64305 0.06153 0.0
C1249 C 0.90414 0.66671 0.10143 0.0
C1250 C 0.94443 0.62151 0.11925 0.0
C1251 C 0.92458 0.60756 0.07133 0.0
N1252 N 0.86412 0.59715 0.00156 0.0
N1253 N 0.9608 0.673 0.17463 0.0
C1254 C 0.88698 0.61498 0.0445 0.0
C1255 C 0.93645 0.65346 0.13291 0.0
N1256 N 0.83671 0.64757 0.03996 0.0
N1257 N 0.97108 0.60402 0.15128 0.0
H1258 H 0.95342 0.69431 0.18709 0.0
H1259 H 0.98874 0.66912 0.19596 0.0
H1260 H 0.97606 0.57974 0.14202 0.0
H1261 H 0.98449 0.61022 0.18824 0.0
H1262 H 0.81176 0.62831 0.01414 0.0
H1263 H 0.8281 0.66878 0.05049 0.0
H1264 H 0.84029 0.60557 0.97657 0.0
H1265 H 0.86926 0.57371 0.99089 0.0
C1266 C 0.4227 0.89384 0.19568 0.0
C1267 C 0.38674 0.85503 0.17849 0.0
C1268 C 0.41691 0.8811 0.09653 0.0
C1269 C 0.45676 0.91523 0.11768 0.0
N1270 N 0.49829 0.95313 0.189 0.0
N1271 N 0.35147 0.81079 0.11189 0.0
C1272 C 0.4597 0.92131 0.16767 0.0
C1273 C 0.38403 0.84874 0.12834 0.0
N1274 N 0.42001 0.9061 0.23747 0.0
N1275 N 0.41054 0.87951 0.04604 0.0
H1276 H 0.32662 0.78715 0.13358 0.0
H1277 H 0.3507 0.80163 0.0783 0.0
H1278 H 0.4339 0.90255 0.0222 0.0
H1279 H 0.38056 0.85804 0.02709 0.0
H1280 H 0.44231 0.93603 0.2495 0.0
H1281 H 0.39147 0.88871 0.25555 0.0
H1282 H 0.50499 0.95549 0.22741 0.0
H1283 H 0.52492 0.97569 0.1689 0.0
C1284 C 0.68712 0.20281 0.08139 0.0
C1285 C 0.68838 0.19556 0.13485 0.0
C1286 C 0.61937 0.12566 0.12788 0.0
C1287 C 0.61711 0.13317 0.07446 0.0
N1288 N 0.64208 0.18519 -0.00027 0.0
N1289 N 0.64255 0.16009 0.20208 0.0
C1290 C 0.64906 0.17364 0.05096 0.0
C1291 C 0.65105 0.15954 0.15636 0.0
N1292 N 0.72213 0.23748 0.05946 0.0
N1293 N 0.59039 0.08661 0.15182 0.0
H1294 H 0.6627 0.18618 0.22204 0.0
H1295 H 0.61275 0.13758 0.21692 0.0
H1296 H 0.56509 0.06148 0.13262 0.0
H1297 H 0.59389 0.07822 0.19112 0.0
H1298 H 0.72619 0.24157 0.02185 0.0
H1299 H 0.74836 0.26112 0.07976 0.0
H1300 H 0.66119 0.21601 0.98075 0.0
H1301 H 0.61488 0.16486 0.97649 0.0
C1302 C 0.69741 0.67605 0.89244 0.0
C1303 C 0.68951 0.68255 0.83822 0.0
C1304 C 0.60767 0.63315 0.84352 0.0
C1305 C 0.61756 0.62482 0.89684 0.0
N1306 N 0.67464 0.62614 0.96897 0.0
N1307 N 0.63205 0.67734 0.7643 0.0
C1308 C 0.66322 0.64209 0.92016 0.0
C1309 C 0.64322 0.66338 0.81409 0.0
N1310 N 0.7349 0.70519 0.91861 0.0
N1311 N 0.56447 0.61016 0.82077 0.0
H1312 H 0.6548 0.70289 0.74214 0.0
H1313 H 0.59895 0.66789 0.74595 0.0
H1314 H 0.53794 0.58804 0.84124 0.0
H1315 H 0.55561 0.60943 0.782 0.0
H1316 H 0.74011 0.70237 0.95797 0.0
H1317 H 0.75572 0.73636 0.9023 0.0
H1318 H 0.70824 0.63467 0.98549 0.0
H1319 H 0.65106 0.60125 0.99118 0.0
C1320 C 0.34201 0.56879 0.0171 0.0
C1321 C 0.34662 0.60953 0.02238 0.0
C1322 C 0.42882 0.63913 0.03163 0.0
C1323 C 0.42281 0.60272 0.0116 0.0
N1324 N 0.3721 0.52716 -0.00215 0.0
N1325 N 0.39382 0.67801 0.05185 0.0
C1326 C 0.37942 0.56592 0.00859 0.0
C1327 C 0.39006 0.64169 0.03822 0.0
N1328 N 0.30136 0.53257 0.01627 0.0
N1329 N 0.47016 0.67331 0.04111 0.0
H1330 H 0.36508 0.68041 0.05538 0.0
H1331 H 0.42505 0.70474 0.05933 0.0
H1332 H 0.50065 0.67537 0.03591 0.0
H1333 H 0.50065 0.67537 0.03591 0.0
H1334 H 0.27217 0.53128 0.02441 0.0
H1335 H 0.27217 0.53128 0.02441 0.0
H1336 H 0.39745 0.52052 0.99231 0.0
H1337 H 0.39745 0.52052 0.99231 0.0
C1338 C 0.42199 0.41163 0.80824 0.0
C1339 C 0.38077 0.37635 0.82251 0.0
C1340 C 0.4032 0.39494 0.90866 0.0
C1341 C 0.44755 0.42391 0.89716 0.0
N1342 N 0.49915 0.46335 0.8352 0.0
N1343 N 0.32411 0.3569 0.87472 0.0
C1344 C 0.45681 0.43368 0.8465 0.0
C1345 C 0.3688 0.37432 0.86959 0.0
N1346 N 0.42585 0.42724 0.75819 0.0
N1347 N 0.39411 0.3863 0.95707 0.0
H1348 H 0.29889 0.34916 0.84349 0.0
H1349 H 0.3128 0.35683 0.90684 0.0
H1350 H 0.41792 0.40246 0.98605 0.0
H1351 H 0.36386 0.36142 0.96894 0.0
H1352 H 0.4538 0.45484 0.74513 0.0
H1353 H 0.39832 0.41655 0.72979 0.0
H1354 H 0.50995 0.46758 0.80096 0.0
H1355 H 0.5244 0.48233 0.86122 0.0
C1356 C 0.63917 0.39703 0.82094 0.0
C1357 C 0.67826 0.43158 0.80127 0.0
C1358 C 0.66942 0.48248 0.84014 0.0
C1359 C 0.63399 0.44671 0.86521 0.0
N1360 N 0.59623 0.36812 0.89059 0.0
N1361 N 0.73643 0.50601 0.80149 0.0
C1362 C 0.62212 0.40344 0.85895 0.0
C1363 C 0.69527 0.47401 0.81379 0.0
N1364 N 0.61688 0.35846 0.80204 0.0
N1365 N 0.67703 0.52436 0.8389 0.0
H1366 H 0.75695 0.50065 0.78374 0.0
H1367 H 0.75204 0.53646 0.81329 0.0
H1368 H 0.65702 0.53214 0.8543 0.0
H1369 H 0.69994 0.55116 0.81753 0.0
H1370 H 0.58574 0.33396 0.81215 0.0
H1371 H 0.62657 0.3529 0.77219 0.0
H1372 H 0.59048 0.33644 0.88991 0.0
H1373 H 0.58547 0.37067 0.92156 0.0
C1374 C 0.74373 0.4639 0.98901 0.0
C1375 C 0.74792 0.4252 0.00633 0.0
C1376 C 0.66593 0.38452 0.00592 0.0
C1377 C 0.66588 0.42453 0.00776 0.0
N1378 N 0.70664 0.50387 0.00024 0.0
N1379 N 0.71239 0.34876 0.00476 0.0
C1380 C 0.70498 0.46494 -0.00225 0.0
C1381 C 0.70801 0.38547 0.00324 0.0
N1382 N 0.7779 0.49979 0.96761 0.0
N1383 N 0.62758 0.34604 0.01187 0.0
H1384 H 0.7443 0.35068 0.00554 0.0
H1385 H 0.68542 0.31776 0.00323 0.0
H1386 H 0.59696 0.34463 0.01553 0.0
H1387 H 0.62583 0.31556 0.01331 0.0
H1388 H 0.77547 0.52873 0.95191 0.0
H1389 H 0.806 0.49822 0.96065 0.0
H1390 H 0.73625 0.53322 -0.00168 0.0
H1391 H 0.67946 0.5066 0.0076 0.0
C1392 C 0.70045 0.6865 0.09893 0.0
C1393 C 0.71189 0.67513 0.15159 0.0
C1394 C 0.65991 0.59791 0.14451 0.0
C1395 C 0.64204 0.61074 0.09462 0.0
N1396 N 0.6437 0.66928 0.02591 0.0
N1397 N 0.72179 0.61847 0.21369 0.0
C1398 C 0.66227 0.6555 0.07215 0.0
C1399 C 0.69723 0.6302 0.17144 0.0
N1400 N 0.7279 0.72532 0.0731 0.0
N1401 N 0.63922 0.55576 0.16784 0.0
H1402 H 0.75321 0.64151 0.22819 0.0
H1403 H 0.71514 0.58628 0.22888 0.0
H1404 H 0.61214 0.53096 0.14971 0.0
H1405 H 0.64691 0.54599 0.20631 0.0
H1406 H 0.72281 0.73331 0.03384 0.0
H1407 H 0.75982 0.74622 0.08897 0.0
H1408 H 0.65263 0.70209 0.01156 0.0
H1409 H 0.61738 0.64804 0.00317 0.0
C1410 C 0.45601 0.61004 0.21215 0.0
C1411 C 0.41539 0.61282 0.18792 0.0
C1412 C 0.39665 0.55299 0.14219 0.0
C1413 C 0.44259 0.56105 0.15426 0.0
N1414 N 0.5024 0.57232 0.22395 0.0
N1415 N 0.3412 0.57902 0.13953 0.0
C1416 C 0.46809 0.58172 0.19697 0.0
C1417 C 0.38322 0.58098 0.15688 0.0
N1418 N 0.48395 0.63611 0.24768 0.0
N1419 N 0.36601 0.51733 0.12011 0.0
H1420 H 0.33079 0.59957 0.14847 0.0
H1421 H 0.31684 0.55774 0.1153 0.0
H1422 H 0.37547 0.49536 0.11278 0.0
H1423 H 0.33112 0.50671 0.11496 0.0
H1424 H 0.51672 0.63983 0.26198 0.0
H1425 H 0.47441 0.65499 0.2618 0.0
H1426 H 0.5197 0.58275 0.25851 0.0
H1427 H 0.50959 0.54971 0.21405 0.0
C1428 C 0.40394 0.3238 0.13386 0.0
C1429 C 0.38939 0.34216 0.16274 0.0
C1430 C 0.45359 0.41355 0.14158 0.0
C1431 C 0.46482 0.39588 0.10868 0.0
N1432 N 0.44101 0.33652 0.06245 0.0
N1433 N 0.39354 0.40836 0.17949 0.0
C1434 C 0.43718 0.3517 0.10152 0.0
C1435 C 0.41229 0.38818 0.16254 0.0
N1436 N 0.38787 0.27971 0.13869 0.0
N1437 N 0.4828 0.45403 0.15424 0.0
H1438 H 0.36214 0.39169 0.1923 0.0
H1439 H 0.40679 0.44222 0.17548 0.0
H1440 H 0.51419 0.47314 0.14136 0.0
H1441 H 0.47791 0.46656 0.18175 0.0
H1442 H 0.40097 0.26513 0.12237 0.0
H1443 H 0.36523 0.25795 0.16342 0.0
H1444 H 0.41826 0.3058 0.05264 0.0
H1445 H 0.4633 0.35615 0.03617 0.0
C1446 C 0.83857 0.6034 0.52479 0.0
C1447 C 0.83526 0.59853 0.57644 0.0
C1448 C 0.88236 0.55961 0.59765 0.0
C1449 C 0.88349 0.56319 0.54485 0.0
N1450 N 0.84013 0.56753 0.46218 0.0
N1451 N 0.84612 0.5635 0.66179 0.0
C1452 C 0.8549 0.57871 0.50938 0.0
C1453 C 0.85491 0.57411 0.61297 0.0
N1454 N 0.82788 0.6331 0.49032 0.0
N1455 N 0.90669 0.54155 0.63324 0.0
H1456 H 0.82705 0.57438 0.67427 0.0
H1457 H 0.85491 0.54152 0.68899 0.0
H1458 H 0.92178 0.52497 0.62418 0.0
H1459 H 0.91249 0.54359 0.67163 0.0
H1460 H 0.83209 0.63948 0.4523 0.0
H1461 H 0.82137 0.65518 0.50206 0.0
H1462 H 0.81513 0.57483 0.43793 0.0
H1463 H 0.84642 0.54499 0.45109 0.0
C1464 C 0.41809 0.88596 0.68908 0.0
C1465 C 0.38172 0.84706 0.67222 0.0
C1466 C 0.41364 0.8707 0.59159 0.0
C1467 C 0.44473 0.91223 0.60603 0.0
N1468 N 0.47494 0.96034 0.66818 0.0
N1469 N 0.3444 0.80353 0.6047 0.0
C1470 C 0.44702 0.91975 0.65503 0.0
C1471 C 0.37987 0.83927 0.623 0.0
N1472 N 0.42548 0.89033 0.73861 0.0
N1473 N 0.4163 0.86166 0.54725 0.0
H1474 H 0.32007 0.77929 0.62648 0.0
H1475 H 0.33774 0.79881 0.56715 0.0
H1476 H 0.44049 0.88419 0.52397 0.0
H1477 H 0.39779 0.83097 0.53598 0.0
H1478 H 0.45365 0.91539 0.75516 0.0
H1479 H 0.40625 0.86536 0.76436 0.0
H1480 H 0.47324 0.97019 0.70007 0.0
H1481 H 0.49822 0.98529 0.64552 0.0
C1482 C 0.25102 0.37642 0.62279 0.0
C1483 C 0.23484 0.34316 0.66507 0.0
C1484 C 0.17326 0.36643 0.65633 0.0
C1485 C 0.18607 0.39675 0.61125 0.0
N1486 N 0.24234 0.43303 0.55463 0.0
N1487 N 0.20557 0.34042 0.73683 0.0
C1488 C 0.22669 0.40244 0.59562 0.0
C1489 C 0.20174 0.34629 0.68573 0.0
N1490 N 0.29321 0.38767 0.6137 0.0
N1491 N 0.13502 0.35823 0.67369 0.0
H1492 H 0.23531 0.34032 0.75848 0.0
H1493 H 0.18533 0.34501 0.7558 0.0
H1494 H 0.11425 0.3732 0.65531 0.0
H1495 H 0.12276 0.3342 0.70451 0.0
H1496 H 0.30971 0.41206 0.58535 0.0
H1497 H 0.31404 0.37637 0.64056 0.0
H1498 H 0.26842 0.43688 0.53724 0.0
H1499 H 0.22741 0.45354 0.53625 0.0
C1500 C 0.66367 0.15383 0.63541 0.0
C1501 C 0.7118 0.17496 0.64124 0.0
C1502 C 0.70767 0.12444 0.58933 0.0
C1503 C 0.66057 0.09832 0.59263 0.0
N1504 N 0.59689 0.08474 0.63141 0.0
N1505 N 0.78023 0.17741 0.62574 0.0
C1506 C 0.63927 0.11239 0.61854 0.0
C1507 C 0.73395 0.1593 0.61878 0.0
N1508 N 0.64088 0.17216 0.648 0.0
N1509 N 0.72707 0.11784 0.55606 0.0
H1510 H 0.80066 0.20436 0.64442 0.0
H1511 H 0.79806 0.16394 0.61561 0.0
H1512 H 0.70875 0.09431 0.53218 0.0
H1513 H 0.75989 0.13918 0.54819 0.0
H1514 H 0.60589 0.16118 0.63854 0.0
H1515 H 0.65762 0.19902 0.66671 0.0
H1516 H 0.58124 0.0924 0.65336 0.0
H1517 H 0.57975 0.05208 0.62623 0.0
C1518 C 0.91381 0.37637 0.35994 0.0
C1519 C 0.86618 0.35459 0.35888 0.0
C1520 C 0.87244 0.41128 0.40253 0.0
C1521 C 0.91916 0.43663 0.39565 0.0
N1522 N 0.98016 0.4459 0.35531 0.0
N1523 N 0.80831 0.33947 0.40604 0.0
C1524 C 0.93859 0.41984 0.3708 0.0
C1525 C 0.8473 0.36911 0.387 0.0
N1526 N 0.93645 0.35384 0.35776 0.0
N1527 N 0.85161 0.42657 0.42431 0.0
H1528 H 0.79511 0.30665 0.40319 0.0
H1529 H 0.79378 0.34549 0.43091 0.0
H1530 H 0.86857 0.45368 0.44287 0.0
H1531 H 0.8165 0.41264 0.42263 0.0
H1532 H 0.97175 0.36763 0.36174 0.0
H1533 H 0.92043 0.31986 0.36135 0.0
H1534 H 0.99378 0.43583 0.33355 0.0
H1535 H 0.99819 0.479 0.3586 0.0
C1536 C 0.6442 0.85999 0.43495 0.0
C1537 C 0.68233 0.88102 0.40873 0.0
C1538 C 0.70551 0.94887 0.4418 0.0
C1539 C 0.66273 0.93023 0.45903 0.0
N1540 N 0.59078 0.86763 0.47213 0.0
N1541 N 0.75176 0.94402 0.3899 0.0
C1542 C 0.6324 0.88534 0.45669 0.0
C1543 C 0.71427 0.92487 0.41394 0.0
N1544 N 0.61861 0.81583 0.43782 0.0
N1545 N 0.73703 0.98986 0.4508 0.0
H1546 H 0.75969 0.92645 0.37146 0.0
H1547 H 0.77417 0.97712 0.38686 0.0
H1548 H 0.73108 1.00808 0.47036 0.0
H1549 H 0.77014 1.00447 0.44276 0.0
H1550 H 0.59278 0.7976 0.46024 0.0
H1551 H 0.62624 0.79671 0.42161 0.0
H1552 H 0.5648 0.83707 0.46549 0.0
H1553 H 0.58096 0.88464 0.48903 0.0
C1554 C 0.14606 0.65484 0.29697 0.0
C1555 C 0.18735 0.68801 0.31811 0.0
C1556 C 0.17151 0.64565 0.40334 0.0
C1557 C 0.1296 0.61322 0.38231 0.0
N1558 N 0.07336 0.59151 0.30977 0.0
N1559 N 0.23376 0.71895 0.39261 0.0
C1560 C 0.11585 0.61944 0.32928 0.0
C1561 C 0.19807 0.68472 0.37171 0.0
N1562 N 0.13667 0.65598 0.24567 0.0
N1563 N 0.18797 0.63758 0.453 0.0
H1564 H 0.2552 0.74677 0.37087 0.0
H1565 H 0.24033 0.72096 0.43109 0.0
H1566 H 0.17108 0.6085 0.47622 0.0
H1567 H 0.22007 0.65755 0.46989 0.0
H1568 H 0.11034 0.63061 0.22777 0.0
H1569 H 0.15771 0.68079 0.2209 0.0
H1570 H 0.05891 0.59627 0.27237 0.0
H1571 H 0.05078 0.56553 0.33239 0.0
C1572 C 0.38195 0.20418 0.36871 0.0
C1573 C 0.35491 0.1975 0.32006 0.0
C1574 C 0.38248 0.1421 0.32088 0.0
C1575 C 0.40627 0.14536 0.37161 0.0
N1576 N 0.43569 0.18944 0.43849 0.0
N1577 N 0.35514 0.17795 0.24352 0.0
C1578 C 0.40811 0.17949 0.39381 0.0
C1579 C 0.36179 0.17071 0.29483 0.0
N1580 N 0.38489 0.23664 0.38951 0.0
N1581 N 0.38084 0.11268 0.29527 0.0
H1582 H 0.34926 0.20451 0.22497 0.0
H1583 H 0.36305 0.16353 0.22076 0.0
H1584 H 0.40259 0.09808 0.30566 0.0
H1585 H 0.35704 0.1028 0.26346 0.0
H1586 H 0.39796 0.24195 0.42677 0.0
H1587 H 0.37626 0.26015 0.36601 0.0
H1588 H 0.44255 0.21583 0.45507 0.0
H1589 H 0.4533 0.17201 0.45905 0.0
C1590 C 0.75878 0.88263 0.63936 0.0
C1591 C 0.74246 0.84316 0.67536 0.0
C1592 C 0.67052 0.85273 0.6632 0.0
C1593 C 0.68656 0.89112 0.626 0.0
N1594 N 0.74491 0.93737 0.57368 0.0
N1595 N 0.679 0.79032 0.71829 0.0
C1596 C 0.73046 0.90439 0.61316 0.0
C1597 C 0.69705 0.82811 0.68575 0.0
N1598 N 0.80268 0.90059 0.63048 0.0
N1599 N 0.63059 0.84099 0.67956 0.0
H1600 H 0.69785 0.77412 0.73859 0.0
H1601 H 0.645 0.77376 0.72339 0.0
H1602 H 0.61057 0.85724 0.66393 0.0
H1603 H 0.61852 0.81736 0.71054 0.0
H1604 H 0.81972 0.93228 0.61214 0.0
H1605 H 0.82323 0.88469 0.64378 0.0
H1606 H 0.77275 0.94508 0.55668 0.0
H1607 H 0.72658 0.95462 0.55467 0.0
C1608 C 0.68638 0.19258 0.38081 0.0
C1609 C 0.69664 0.18735 0.336 0.0
C1610 C 0.63621 0.11108 0.3462 0.0
C1611 C 0.63062 0.11482 0.39377 0.0
N1612 N 0.65038 0.15887 0.45769 0.0
N1613 N 0.69044 0.13405 0.28989 0.0
C1614 C 0.65527 0.15582 0.41105 0.0
C1615 C 0.67338 0.14472 0.32173 0.0
N1616 N 0.70803 0.23266 0.39555 0.0
N1617 N 0.60741 0.07398 0.32568 0.0
H1618 H 0.72102 0.15548 0.27691 0.0
H1619 H 0.67764 0.10247 0.28206 0.0
H1620 H 0.58043 0.04863 0.34345 0.0
H1621 H 0.60766 0.07061 0.28914 0.0
H1622 H 0.70111 0.24048 0.42566 0.0
H1623 H 0.73102 0.25918 0.37449 0.0
H1624 H 0.67092 0.18566 0.47642 0.0
H1625 H 0.62603 0.13328 0.47872 0.0
C1626 C 0.9046 0.72195 0.3512 0.0
C1627 C 0.85793 0.70611 0.32822 0.0
C1628 C 0.85469 0.63097 0.3513 0.0
C1629 C 0.90155 0.64615 0.37616 0.0
N1630 N 0.96838 0.71043 0.40205 0.0
N1631 N 0.78707 0.64289 0.32159 0.0
C1632 C 0.9252 0.69275 0.37711 0.0
C1633 C 0.83295 0.65995 0.33309 0.0
N1634 N 0.93061 0.76616 0.34674 0.0
N1635 N 0.82967 0.58869 0.34275 0.0
H1636 H 0.77117 0.66298 0.30767 0.0
H1637 H 0.76516 0.60991 0.3305 0.0
H1638 H 0.83767 0.56321 0.35965 0.0
H1639 H 0.80004 0.57874 0.31684 0.0
H1640 H 0.96591 0.78122 0.35383 0.0
H1641 H 0.91674 0.78819 0.33376 0.0
H1642 H 0.98398 0.74118 0.41308 0.0
H1643 H 0.98892 0.69467 0.41278 0.0
C1644 C 0.41402 0.87902 0.35743 0.0
C1645 C 0.36595 0.85682 0.35438 0.0
C1646 C 0.37122 0.90538 0.40984 0.0
C1647 C 0.41824 0.93152 0.40592 0.0
N1648 N 0.48083 0.94796 0.36359 0.0
N1649 N 0.29811 0.85202 0.37484 0.0
C1650 C 0.4388 0.9193 0.37688 0.0
C1651 C 0.34439 0.87104 0.37974 0.0
N1652 N 0.43631 0.86309 0.33939 0.0
N1653 N 0.35243 0.91183 0.44396 0.0
H1654 H 0.27741 0.82529 0.35588 0.0
H1655 H 0.28031 0.86445 0.38695 0.0
H1656 H 0.37103 0.9356 0.46744 0.0
H1657 H 0.31973 0.89085 0.45246 0.0
H1658 H 0.47139 0.87424 0.34704 0.0
H1659 H 0.41938 0.83811 0.31774 0.0
H1660 H 0.49561 0.9424 0.33855 0.0
H1661 H 0.49862 0.97969 0.37207 0.0
C1662 C 0.22948 0.46385 0.38652 0.0
C1663 C 0.23435 0.42542 0.40918 0.0
C1664 C 0.17166 0.40158 0.45759 0.0
C1665 C 0.17006 0.44207 0.43847 0.0
N1666 N 0.18257 0.50106 0.369 0.0
N1667 N 0.21061 0.35718 0.46583 0.0
C1668 C 0.19501 0.47041 0.3987 0.0
C1669 C 0.20519 0.39386 0.44424 0.0
N1670 N 0.25826 0.49462 0.35368 0.0
N1671 N 0.13943 0.36967 0.48592 0.0
H1672 H 0.23264 0.34942 0.45424 0.0
H1673 H 0.19504 0.33549 0.49642 0.0
H1674 H 0.11285 0.37348 0.49327 0.0
H1675 H 0.13619 0.33816 0.49825 0.0
H1676 H 0.26064 0.52594 0.34185 0.0
H1677 H 0.28162 0.48982 0.34027 0.0
H1678 H 0.19456 0.51801 0.33474 0.0
H1679 H 0.15614 0.50566 0.37532 0.0
C1680 C 0.38113 0.13987 0.5335 0.0
C1681 C 0.40517 0.15535 0.58021 0.0
C1682 C 0.42162 0.0923 0.6055 0.0
C1683 C 0.4095 0.08433 0.55459 0.0
N1684 N 0.3572 0.0853 0.47862 0.0
N1685 N 0.44786 0.14517 0.66181 0.0
C1686 C 0.38278 0.10345 0.52078 0.0
C1687 C 0.42458 0.13079 0.6169 0.0
N1688 N 0.3573 0.16043 0.50156 0.0
N1689 N 0.4277 0.06158 0.64336 0.0
H1690 H 0.45072 0.17302 0.67212 0.0
H1691 H 0.46711 0.1311 0.68721 0.0
H1692 H 0.42097 0.03109 0.63641 0.0
H1693 H 0.4331 0.0639 0.68166 0.0
H1694 H 0.33983 0.15257 0.46614 0.0
H1695 H 0.35516 0.18625 0.51087 0.0
H1696 H 0.33708 0.09726 0.45159 0.0
H1697 H 0.35243 0.05513 0.47315 0.0
C1698 C 0.87134 0.33893 0.62086 0.0
C1699 C 0.88979 0.33413 0.67306 0.0
C1700 C 0.96138 0.40022 0.65255 0.0
C1701 C 0.9414 0.40754 0.60214 0.0
N1702 N 0.87967 0.38114 0.53576 0.0
N1703 N 0.96153 0.34985 0.72919 0.0
C1704 C 0.89713 0.37563 0.58557 0.0
C1705 C 0.93755 0.36139 0.68592 0.0
N1706 N 0.83038 0.30681 0.60446 0.0
N1707 N 1.00249 0.43166 0.67005 0.0
H1708 H 0.9471 0.32476 0.7579 0.0
H1709 H 0.99689 0.36457 0.73576 0.0
H1710 H 1.02177 0.4598 0.64687 0.0
H1711 H 1.01592 0.4312 0.70829 0.0
H1712 H 0.81493 0.30606 0.56706 0.0
H1713 H 0.81244 0.27888 0.62853 0.0
H1714 H 0.84639 0.36275 0.52046 0.0
H1715 H 0.89934 0.40523 0.50922 0.0
C1716 C 0.19433 0.67297 0.59577 0.0
C1717 C 0.21531 0.66399 0.64552 0.0
C1718 C 0.17755 0.58524 0.63702 0.0
C1719 C 0.15792 0.59463 0.58709 0.0
N1720 N 0.13722 0.64547 0.52425 0.0
N1721 N 0.23056 0.61026 0.71051 0.0
C1722 C 0.16322 0.63792 0.56803 0.0
C1723 C 0.208 0.61983 0.66509 0.0
N1724 N 0.20683 0.71538 0.57328 0.0
N1725 N 0.1638 0.54259 0.65969 0.0
H1726 H 0.2502 0.63251 0.73481 0.0
H1727 H 0.23312 0.58107 0.72248 0.0
H1728 H 0.14074 0.516 0.6414 0.0
H1729 H 0.17107 0.53306 0.6983 0.0
H1730 H 0.19697 0.72454 0.53526 0.0
H1731 H 0.23115 0.74179 0.59111 0.0
H1732 H 0.13505 0.67481 0.51161 0.0
H1733 H 0.11498 0.62128 0.50228 0.0
loop_
_geom_bond_atom_site_label_1
_geom_bond_atom_site_label_2
_geom_bond_distance
_geom_bond_site_symmetry_2
_ccdc_geom_bond_type
Eu0 N31 2.657 . S
Eu0 N38 2.609 . S
Eu0 O44 2.558 . S
Eu0 O45 2.612 . S
Eu0 O47 2.339 . S
Eu0 O48 2.563 . S
Eu0 O49 2.419 . S
Eu0 O51 2.380 . S
Eu0 O52 2.432 . S
Eu0 C64 2.848 . S
C1 C4 1.429 . S
C1 C5 1.411 . S
C1 N8 1.377 . S
C2 C4 1.420 . S
C2 C6 1.423 . S
C2 C14 1.392 . S
C3 C5 1.420 . S
C3 C6 1.351 . S
C3 H26 0.931 . S
C4 C1 1.429 . S
C4 C2 1.420 . S
C4 N12 1.362 . S
C5 C1 1.411 . S
C5 C3 1.420 . S
C5 C10 1.395 . S
C6 C2 1.423 . S
C6 C3 1.351 . S
C6 H18 0.930 . S
C7 C9 1.400 . S
C7 C10 1.386 . S
C7 H19 0.930 . S
N8 C1 1.377 . S
N8 C9 1.321 . S
N8 Eu11 2.609 . S
C9 C7 1.400 . S
C9 N8 1.321 . S
C9 H16 0.930 . S
C10 C5 1.395 . S
C10 C7 1.386 . S
C10 H29 0.930 . S
Eu11 N8 2.609 . S
Eu11 N12 2.657 . S
Eu11 O45 2.380 . S
Eu11 O46 2.432 . S
Eu11 O50 2.558 . S
Eu11 O51 2.612 . S
Eu11 O53 2.339 . S
Eu11 O54 2.563 . S
Eu11 O55 2.419 . S
Eu11 C75 2.848 . S
N12 C4 1.362 . S
N12 Eu11 2.657 . S
N12 C13 1.334 . S
C13 N12 1.334 . S
C13 C15 1.413 . S
C13 H20 0.929 . S
C14 C2 1.392 . S
C14 C15 1.367 . S
C14 H22 0.930 . S
C15 C13 1.413 . S
C15 C14 1.367 . S
C15 H17 0.930 . S
H16 C9 0.930 . S
H17 C15 0.930 . S
H18 C6 0.930 . S
H19 C7 0.930 . S
H20 C13 0.929 . S
H21 C35 0.930 . S
H22 C14 0.930 . S
H23 C41 0.930 . S
H24 C32 0.929 . S
H25 C39 0.930 . S
H26 C3 0.931 . S
H27 C33 0.930 1_556 S
H28 C66 0.930 1_556 S
H29 C10 0.930 . S
H30 C65 0.931 . S
N31 Eu0 2.657 . S
N31 C32 1.334 . S
N31 C36 1.362 . S
C32 H24 0.929 . S
C32 N31 1.334 . S
C32 C35 1.413 . S
C33 H27 0.930 1_554 S
C33 C34 1.392 . S
C33 C35 1.367 . S
C34 C33 1.392 . S
C34 C36 1.420 . S
C34 C66 1.423 . S
C35 H21 0.930 . S
C35 C32 1.413 . S
C35 C33 1.367 . S
C36 N31 1.362 . S
C36 C34 1.420 . S
C36 C40 1.429 . S
H37 C42 0.930 . S
N38 Eu0 2.609 . S
N38 C40 1.377 . S
N38 C41 1.321 . S
C39 H25 0.930 . S
C39 C41 1.400 . S
C39 C42 1.386 . S
C40 C36 1.429 . S
C40 N38 1.377 . S
C40 C43 1.411 . S
C41 H23 0.930 . S
C41 N38 1.321 . S
C41 C39 1.400 . S
C42 H37 0.930 . S
C42 C39 1.386 . S
C42 C43 1.395 . S
C43 C40 1.411 . S
C43 C42 1.395 . S
C43 C65 1.420 . S
O44 Eu0 2.558 . S
O44 C64 1.257 . S
O45 Eu0 2.612 . S
O45 Eu11 2.380 . S
O45 C56 1.276 . S
O46 Eu11 2.432 . S
O46 C63 1.264 . S
O47 Eu0 2.339 . S
O47 C63 1.254 . S
O48 Eu0 2.563 . S
O48 C56 1.235 . S
O49 Eu0 2.419 . S
O49 C64 1.249 . S
O50 Eu11 2.558 . S
O50 C75 1.257 . S
O51 Eu0 2.380 . S
O51 Eu11 2.612 . S
O51 C67 1.276 . S
O52 Eu0 2.432 . S
O52 C74 1.264 . S
O53 Eu11 2.339 . S
O53 C74 1.254 . S
O54 Eu11 2.563 . S
O54 C67 1.235 . S
O55 Eu11 2.419 . S
O55 C75 1.249 . S
C56 O45 1.276 . S
C56 O48 1.235 . S
C57 C59 1.393 . S
C57 C61 1.395 . S
C57 C64 1.492 . S
C58 C59 1.392 . S
C58 C60 1.386 . S
C59 C57 1.393 . S
C59 C58 1.392 . S
C59 H76 0.930 . S
C60 C58 1.386 . S
C60 C62 1.395 . S
C60 H77 0.930 . S
C61 C57 1.395 . S
C61 C62 1.379 . S
C61 H78 0.930 . S
C62 C60 1.395 . S
C62 C61 1.379 . S
C62 H79 0.930 . S
C63 O46 1.264 . S
C63 O47 1.254 . S
C64 Eu0 2.848 . S
C64 O44 1.257 . S
C64 O49 1.249 . S
C64 C57 1.492 . S
C65 H30 0.931 . S
C65 C43 1.420 . S
C65 C66 1.351 . S
C66 H28 0.930 1_554 S
C66 C34 1.423 . S
C66 C65 1.351 . S
C67 O51 1.276 . S
C67 O54 1.235 . S
C68 C69 1.393 . S
C68 C72 1.395 . S
C68 C75 1.492 . S
C69 C68 1.393 . S
C69 C70 1.392 . S
C69 H80 0.930 . S
C70 C69 1.392 . S
C70 C71 1.386 . S
C71 C70 1.386 . S
C71 C73 1.395 . S
C71 H81 0.930 . S
C72 C68 1.395 . S
C72 C73 1.379 . S
C72 H82 0.930 . S
C73 C71 1.395 . S
C73 C72 1.379 . S
C73 H83 0.930 . S
C74 O52 1.264 . S
C74 O53 1.254 . S
C75 Eu11 2.848 . S
C75 O50 1.257 . S
C75 O55 1.249 . S
C75 C68 1.492 . S
H76 C59 0.930 . S
H77 C60 0.930 . S
H78 C61 0.930 . S
H79 C62 0.930 . S
H80 C69 0.930 . S
H81 C71 0.930 . S
H82 C72 0.930 . S
H83 C73 0.930 . S
Eu84 N115 2.657 . S
Eu84 N122 2.609 . S
Eu84 O128 2.558 . S
Eu84 O129 2.612 . S
Eu84 O131 2.339 . S
Eu84 O132 2.563 . S
Eu84 O133 2.419 . S
Eu84 O135 2.380 . S
Eu84 O136 2.432 . S
Eu84 C148 2.848 . S
C85 C88 1.429 . S
C85 C89 1.411 . S
C85 N92 1.377 . S
C86 C88 1.420 . S
C86 C90 1.423 . S
C86 C98 1.392 . S
C87 C89 1.420 . S
C87 C90 1.351 . S
C87 H110 0.931 . S
C88 C85 1.429 . S
C88 C86 1.420 . S
C88 N96 1.362 . S
C89 C85 1.411 . S
C89 C87 1.420 . S
C89 C94 1.395 . S
C90 C86 1.423 . S
C90 C87 1.351 . S
C90 H102 0.930 . S
C91 C93 1.400 . S
C91 C94 1.386 . S
C91 H103 0.930 . S
N92 C85 1.377 . S
N92 C93 1.321 . S
N92 Eu95 2.609 . S
C93 C91 1.400 . S
C93 N92 1.321 . S
C93 H100 0.930 . S
C94 C89 1.395 . S
C94 C91 1.386 . S
C94 H113 0.930 . S
Eu95 N92 2.609 . S
Eu95 N96 2.657 . S
Eu95 O129 2.380 . S
Eu95 O130 2.432 . S
Eu95 O134 2.558 . S
Eu95 O135 2.612 . S
Eu95 O137 2.339 . S
Eu95 O138 2.563 . S
Eu95 O139 2.419 . S
Eu95 C159 2.848 . S
N96 C88 1.362 . S
N96 Eu95 2.657 . S
N96 C97 1.334 . S
C97 N96 1.334 . S
C97 C99 1.413 . S
C97 H104 0.929 . S
C98 C86 1.392 . S
C98 C99 1.367 . S
C98 H106 0.930 . S
C99 C97 1.413 . S
C99 C98 1.367 . S
C99 H101 0.930 . S
H100 C93 0.930 . S
H101 C99 0.930 . S
H102 C90 0.930 . S
H103 C91 0.930 . S
H104 C97 0.929 . S
H105 C119 0.930 . S
H106 C98 0.930 . S
H107 C125 0.930 . S
H108 C116 0.929 . S
H109 C123 0.930 . S
H110 C87 0.931 . S
H111 C117 0.930 . S
H112 C150 0.930 . S
H113 C94 0.930 . S
H114 C149 0.931 . S
N115 Eu84 2.657 . S
N115 C116 1.334 . S
N115 C120 1.362 . S
C116 H108 0.929 . S
C116 N115 1.334 . S
C116 C119 1.413 . S
C117 H111 0.930 . S
C117 C118 1.392 . S
C117 C119 1.367 . S
C118 C117 1.392 . S
C118 C120 1.420 . S
C118 C150 1.423 . S
C119 H105 0.930 . S
C119 C116 1.413 . S
C119 C117 1.367 . S
C120 N115 1.362 . S
C120 C118 1.420 . S
C120 C124 1.429 . S
H121 C126 0.930 . S
N122 Eu84 2.609 . S
N122 C124 1.377 . S
N122 C125 1.321 . S
C123 H109 0.930 . S
C123 C125 1.400 . S
C123 C126 1.386 . S
C124 C120 1.429 . S
C124 N122 1.377 . S
C124 C127 1.411 . S
C125 H107 0.930 . S
C125 N122 1.321 . S
C125 C123 1.400 . S
C126 H121 0.930 . S
C126 C123 1.386 . S
C126 C127 1.395 . S
C127 C124 1.411 . S
C127 C126 1.395 . S
C127 C149 1.420 . S
O128 Eu84 2.558 . S
O128 C148 1.257 . S
O129 Eu84 2.612 . S
O129 Eu95 2.380 . S
O129 C140 1.276 . S
O130 Eu95 2.432 . S
O130 C147 1.264 . S
O131 Eu84 2.339 . S
O131 C147 1.254 . S
O132 Eu84 2.563 . S
O132 C140 1.235 . S
O133 Eu84 2.419 . S
O133 C148 1.249 . S
O134 Eu95 2.558 . S
O134 C159 1.257 . S
O135 Eu84 2.380 . S
O135 Eu95 2.612 . S
O135 C151 1.276 . S
O136 Eu84 2.432 . S
O136 C158 1.264 . S
O137 Eu95 2.339 . S
O137 C158 1.254 . S
O138 Eu95 2.563 . S
O138 C151 1.235 . S
O139 Eu95 2.419 . S
O139 C159 1.249 . S
C140 O129 1.276 . S
C140 O132 1.235 . S
C141 C143 1.393 . S
C141 C145 1.395 . S
C141 C148 1.492 . S
C142 C143 1.392 . S
C142 C144 1.386 . S
C143 C141 1.393 . S
C143 C142 1.392 . S
C143 H160 0.930 . S
C144 C142 1.386 . S
C144 C146 1.395 . S
C144 H161 0.930 . S
C145 C141 1.395 . S
C145 C146 1.379 . S
C145 H162 0.930 . S
C146 C144 1.395 . S
C146 C145 1.379 . S
C146 H163 0.930 . S
C147 O130 1.264 . S
C147 O131 1.254 . S
C148 Eu84 2.848 . S
C148 O128 1.257 . S
C148 O133 1.249 . S
C148 C141 1.492 . S
C149 H114 0.931 . S
C149 C127 1.420 . S
C149 C150 1.351 . S
C150 H112 0.930 . S
C150 C118 1.423 . S
C150 C149 1.351 . S
C151 O135 1.276 . S
C151 O138 1.235 . S
C152 C153 1.393 . S
C152 C156 1.395 . S
C152 C159 1.492 . S
C153 C152 1.393 . S
C153 C154 1.392 . S
C153 H164 0.930 . S
C154 C153 1.392 . S
C154 C155 1.386 . S
C155 C154 1.386 . S
C155 C157 1.395 . S
C155 H165 0.930 . S
C156 C152 1.395 . S
C156 C157 1.379 . S
C156 H166 0.930 . S
C157 C155 1.395 . S
C157 C156 1.379 . S
C157 H167 0.930 . S
C158 O136 1.264 . S
C158 O137 1.254 . S
C159 Eu95 2.848 . S
C159 O134 1.257 . S
C159 O139 1.249 . S
C159 C152 1.492 . S
H160 C143 0.930 . S
H161 C144 0.930 . S
H162 C145 0.930 . S
H163 C146 0.930 . S
H164 C153 0.930 . S
H165 C155 0.930 . S
H166 C156 0.930 . S
H167 C157 0.930 . S
Eu168 N199 2.657 . S
Eu168 N206 2.609 . S
Eu168 O212 2.558 . S
Eu168 O213 2.612 . S
Eu168 O215 2.339 . S
Eu168 O216 2.563 . S
Eu168 O217 2.419 . S
Eu168 O219 2.380 . S
Eu168 O220 2.432 . S
Eu168 C232 2.848 . S
C169 C172 1.429 . S
C169 C173 1.411 . S
C169 N176 1.377 . S
C170 C172 1.420 . S
C170 C174 1.423 . S
C170 C182 1.392 . S
C171 C173 1.420 . S
C171 C174 1.351 . S
C171 H194 0.931 . S
C172 C169 1.429 . S
C172 C170 1.420 . S
C172 N180 1.362 . S
C173 C169 1.411 . S
C173 C171 1.420 . S
C173 C178 1.395 . S
C174 C170 1.423 . S
C174 C171 1.351 . S
C174 H186 0.930 1_554 S
C175 C177 1.400 . S
C175 C178 1.386 . S
C175 H187 0.930 . S
N176 C169 1.377 . S
N176 C177 1.321 . S
N176 Eu179 2.609 . S
C177 C175 1.400 . S
C177 N176 1.321 . S
C177 H184 0.930 . S
C178 C173 1.395 . S
C178 C175 1.386 . S
C178 H197 0.930 . S
Eu179 N176 2.609 . S
Eu179 N180 2.657 . S
Eu179 O213 2.380 . S
Eu179 O214 2.432 . S
Eu179 O218 2.558 . S
Eu179 O219 2.612 . S
Eu179 O221 2.339 . S
Eu179 O222 2.563 . S
Eu179 O223 2.419 . S
Eu179 C243 2.848 . S
N180 C172 1.362 . S
N180 Eu179 2.657 . S
N180 C181 1.334 . S
C181 N180 1.334 . S
C181 C183 1.413 . S
C181 H188 0.929 . S
C182 C170 1.392 . S
C182 C183 1.367 . S
C182 H190 0.930 1_554 S
C183 C181 1.413 . S
C183 C182 1.367 . S
C183 H185 0.930 . S
H184 C177 0.930 . S
H185 C183 0.930 . S
H186 C174 0.930 1_556 S
H187 C175 0.930 . S
H188 C181 0.929 . S
H189 C203 0.930 . S
H190 C182 0.930 1_556 S
H191 C209 0.930 . S
H192 C200 0.929 . S
H193 C207 0.930 . S
H194 C171 0.931 . S
H195 C201 0.930 . S
H196 C234 0.930 . S
H197 C178 0.930 . S
H198 C233 0.931 . S
N199 Eu168 2.657 . S
N199 C200 1.334 . S
N199 C204 1.362 . S
C200 H192 0.929 . S
C200 N199 1.334 . S
C200 C203 1.413 . S
C201 H195 0.930 . S
C201 C202 1.392 . S
C201 C203 1.367 . S
C202 C201 1.392 . S
C202 C204 1.420 . S
C202 C234 1.423 . S
C203 H189 0.930 . S
C203 C200 1.413 . S
C203 C201 1.367 . S
C204 N199 1.362 . S
C204 C202 1.420 . S
C204 C208 1.429 . S
H205 C210 0.930 . S
N206 Eu168 2.609 . S
N206 C208 1.377 . S
N206 C209 1.321 . S
C207 H193 0.930 . S
C207 C209 1.400 . S
C207 C210 1.386 . S
C208 C204 1.429 . S
C208 N206 1.377 . S
C208 C211 1.411 . S
C209 H191 0.930 . S
C209 N206 1.321 . S
C209 C207 1.400 . S
C210 H205 0.930 . S
C210 C207 1.386 . S
C210 C211 1.395 . S
C211 C208 1.411 . S
C211 C210 1.395 . S
C211 C233 1.420 . S
O212 Eu168 2.558 . S
O212 C232 1.257 . S
O213 Eu168 2.612 . S
O213 Eu179 2.380 . S
O213 C224 1.276 . S
O214 Eu179 2.432 . S
O214 C231 1.264 . S
O215 Eu168 2.339 . S
O215 C231 1.254 . S
O216 Eu168 2.563 . S
O216 C224 1.235 . S
O217 Eu168 2.419 . S
O217 C232 1.249 . S
O218 Eu179 2.558 . S
O218 C243 1.257 . S
O219 Eu168 2.380 . S
O219 Eu179 2.612 . S
O219 C235 1.276 . S
O220 Eu168 2.432 . S
O220 C242 1.264 . S
O221 Eu179 2.339 . S
O221 C242 1.254 . S
O222 Eu179 2.563 . S
O222 C235 1.235 . S
O223 Eu179 2.419 . S
O223 C243 1.249 . S
C224 O213 1.276 . S
C224 O216 1.235 . S
C225 C227 1.393 . S
C225 C229 1.395 . S
C225 C232 1.492 . S
C226 C227 1.392 . S
C226 C228 1.386 . S
C227 C225 1.393 . S
C227 C226 1.392 . S
C227 H244 0.930 . S
C228 C226 1.386 . S
C228 C230 1.395 . S
C228 H245 0.930 . S
C229 C225 1.395 . S
C229 C230 1.379 . S
C229 H246 0.930 . S
C230 C228 1.395 . S
C230 C229 1.379 . S
C230 H247 0.930 . S
C231 O214 1.264 . S
C231 O215 1.254 . S
C232 Eu168 2.848 . S
C232 O212 1.257 . S
C232 O217 1.249 . S
C232 C225 1.492 . S
C233 H198 0.931 . S
C233 C211 1.420 . S
C233 C234 1.351 . S
C234 H196 0.930 . S
C234 C202 1.423 . S
C234 C233 1.351 . S
C235 O219 1.276 . S
C235 O222 1.235 . S
C236 C237 1.393 . S
C236 C240 1.395 . S
C236 C243 1.492 . S
C237 C236 1.393 . S
C237 C238 1.392 . S
C237 H248 0.930 . S
C238 C237 1.392 . S
C238 C239 1.386 . S
C239 C238 1.386 . S
C239 C241 1.395 . S
C239 H249 0.930 . S
C240 C236 1.395 . S
C240 C241 1.379 . S
C240 H250 0.930 . S
C241 C239 1.395 . S
C241 C240 1.379 . S
C241 H251 0.930 . S
C242 O220 1.264 . S
C242 O221 1.254 . S
C243 Eu179 2.848 . S
C243 O218 1.257 . S
C243 O223 1.249 . S
C243 C236 1.492 . S
H244 C227 0.930 . S
H245 C228 0.930 . S
H246 C229 0.930 . S
H247 C230 0.930 . S
H248 C237 0.930 . S
H249 C239 0.930 . S
H250 C240 0.930 . S
H251 C241 0.930 . S
Eu252 N283 2.657 . S
Eu252 N290 2.609 . S
Eu252 O296 2.558 . S
Eu252 O297 2.612 . S
Eu252 O299 2.339 . S
Eu252 O300 2.563 . S
Eu252 O301 2.419 . S
Eu252 O303 2.380 . S
Eu252 O304 2.432 . S
Eu252 C316 2.848 . S
C253 C256 1.429 . S
C253 C257 1.411 . S
C253 N260 1.377 . S
C254 C256 1.420 . S
C254 C258 1.423 . S
C254 C266 1.392 . S
C255 C257 1.420 . S
C255 C258 1.351 . S
C255 H278 0.931 1_554 S
C256 C253 1.429 . S
C256 C254 1.420 . S
C256 N264 1.362 . S
C257 C253 1.411 . S
C257 C255 1.420 . S
C257 C262 1.395 . S
C258 C254 1.423 . S
C258 C255 1.351 . S
C258 H270 0.930 . S
C259 C261 1.400 . S
C259 C262 1.386 . S
C259 H271 0.930 . S
N260 C253 1.377 . S
N260 C261 1.321 . S
N260 Eu263 2.609 . S
C261 C259 1.400 . S
C261 N260 1.321 . S
C261 H268 0.930 . S
C262 C257 1.395 . S
C262 C259 1.386 . S
C262 H281 0.930 1_554 S
Eu263 N260 2.609 . S
Eu263 N264 2.657 . S
Eu263 O297 2.380 . S
Eu263 O298 2.432 . S
Eu263 O302 2.558 . S
Eu263 O303 2.612 . S
Eu263 O305 2.339 . S
Eu263 O306 2.563 . S
Eu263 O307 2.419 . S
Eu263 C327 2.848 . S
N264 C256 1.362 . S
N264 Eu263 2.657 . S
N264 C265 1.334 . S
C265 N264 1.334 . S
C265 C267 1.413 . S
C265 H272 0.929 . S
C266 C254 1.392 . S
C266 C267 1.367 . S
C266 H274 0.930 . S
C267 C265 1.413 . S
C267 C266 1.367 . S
C267 H269 0.930 . S
H268 C261 0.930 . S
H269 C267 0.930 . S
H270 C258 0.930 . S
H271 C259 0.930 . S
H272 C265 0.929 . S
H273 C287 0.930 . S
H274 C266 0.930 . S
H275 C293 0.930 . S
H276 C284 0.929 . S
H277 C291 0.930 . S
H278 C255 0.931 1_556 S
H279 C285 0.930 . S
H280 C318 0.930 . S
H281 C262 0.930 1_556 S
H282 C317 0.931 . S
N283 Eu252 2.657 . S
N283 C284 1.334 . S
N283 C288 1.362 . S
C284 H276 0.929 . S
C284 N283 1.334 . S
C284 C287 1.413 . S
C285 H279 0.930 . S
C285 C286 1.392 . S
C285 C287 1.367 . S
C286 C285 1.392 . S
C286 C288 1.420 . S
C286 C318 1.423 . S
C287 H273 0.930 . S
C287 C284 1.413 . S
C287 C285 1.367 . S
C288 N283 1.362 . S
C288 C286 1.420 . S
C288 C292 1.429 . S
H289 C294 0.930 . S
N290 Eu252 2.609 . S
N290 C292 1.377 . S
N290 C293 1.321 . S
C291 H277 0.930 . S
C291 C293 1.400 . S
C291 C294 1.386 . S
C292 C288 1.429 . S
C292 N290 1.377 . S
C292 C295 1.411 . S
C293 H275 0.930 . S
C293 N290 1.321 . S
C293 C291 1.400 . S
C294 H289 0.930 . S
C294 C291 1.386 . S
C294 C295 1.395 . S
C295 C292 1.411 . S
C295 C294 1.395 . S
C295 C317 1.420 . S
O296 Eu252 2.558 . S
O296 C316 1.257 . S
O297 Eu252 2.612 . S
O297 Eu263 2.380 . S
O297 C308 1.276 . S
O298 Eu263 2.432 . S
O298 C315 1.264 . S
O299 Eu252 2.339 . S
O299 C315 1.254 . S
O300 Eu252 2.563 . S
O300 C308 1.235 . S
O301 Eu252 2.419 . S
O301 C316 1.249 . S
O302 Eu263 2.558 . S
O302 C327 1.257 . S
O303 Eu252 2.380 . S
O303 Eu263 2.612 . S
O303 C319 1.276 . S
O304 Eu252 2.432 . S
O304 C326 1.264 . S
O305 Eu263 2.339 . S
O305 C326 1.254 . S
O306 Eu263 2.563 . S
O306 C319 1.235 . S
O307 Eu263 2.419 . S
O307 C327 1.249 . S
C308 O297 1.276 . S
C308 O300 1.235 . S
C309 C311 1.393 . S
C309 C313 1.395 . S
C309 C316 1.492 . S
C310 C311 1.392 . S
C310 C312 1.386 . S
C311 C309 1.393 . S
C311 C310 1.392 . S
C311 H328 0.930 . S
C312 C310 1.386 . S
C312 C314 1.395 . S
C312 H329 0.930 . S
C313 C309 1.395 . S
C313 C314 1.379 . S
C313 H330 0.930 . S
C314 C312 1.395 . S
C314 C313 1.379 . S
C314 H331 0.930 . S
C315 O298 1.264 . S
C315 O299 1.254 . S
C316 Eu252 2.848 . S
C316 O296 1.257 . S
C316 O301 1.249 . S
C316 C309 1.492 . S
C317 H282 0.931 . S
C317 C295 1.420 . S
C317 C318 1.351 . S
C318 H280 0.930 . S
C318 C286 1.423 . S
C318 C317 1.351 . S
C319 O303 1.276 . S
C319 O306 1.235 . S
C320 C321 1.393 . S
C320 C324 1.395 . S
C320 C327 1.492 . S
C321 C320 1.393 . S
C321 C322 1.392 . S
C321 H332 0.930 . S
C322 C321 1.392 . S
C322 C323 1.386 . S
C323 C322 1.386 . S
C323 C325 1.395 . S
C323 H333 0.930 . S
C324 C320 1.395 . S
C324 C325 1.379 . S
C324 H334 0.930 . S
C325 C323 1.395 . S
C325 C324 1.379 . S
C325 H335 0.930 . S
C326 O304 1.264 . S
C326 O305 1.254 . S
C327 Eu263 2.848 . S
C327 O302 1.257 . S
C327 O307 1.249 . S
C327 C320 1.492 . S
H328 C311 0.930 . S
H329 C312 0.930 . S
H330 C313 0.930 . S
H331 C314 0.930 . S
H332 C321 0.930 . S
H333 C323 0.930 . S
H334 C324 0.930 . S
H335 C325 0.930 . S
Eu336 N367 2.657 . S
Eu336 N374 2.609 . S
Eu336 O380 2.558 . S
Eu336 O381 2.612 . S
Eu336 O383 2.339 . S
Eu336 O384 2.563 . S
Eu336 O385 2.419 . S
Eu336 O387 2.380 . S
Eu336 O388 2.432 . S
Eu336 C400 2.848 . S
C337 C340 1.429 . S
C337 C341 1.411 . S
C337 N344 1.377 . S
C338 C340 1.420 . S
C338 C342 1.423 . S
C338 C350 1.392 . S
C339 C341 1.420 . S
C339 C342 1.351 . S
C339 H362 0.931 . S
C340 C337 1.429 . S
C340 C338 1.420 . S
C340 N348 1.362 . S
C341 C337 1.411 . S
C341 C339 1.420 . S
C341 C346 1.395 . S
C342 C338 1.423 . S
C342 C339 1.351 . S
C342 H354 0.930 . S
C343 C345 1.400 . S
C343 C346 1.386 . S
C343 H355 0.930 . S
N344 C337 1.377 . S
N344 C345 1.321 . S
N344 Eu347 2.609 . S
C345 C343 1.400 . S
C345 N344 1.321 . S
C345 H352 0.930 . S
C346 C341 1.395 . S
C346 C343 1.386 . S
C346 H365 0.930 . S
Eu347 N344 2.609 . S
Eu347 N348 2.657 . S
Eu347 O381 2.380 . S
Eu347 O382 2.432 . S
Eu347 O386 2.558 . S
Eu347 O387 2.612 . S
Eu347 O389 2.339 . S
Eu347 O390 2.563 . S
Eu347 O391 2.419 . S
Eu347 C411 2.848 . S
N348 C340 1.362 . S
N348 Eu347 2.657 . S
N348 C349 1.334 . S
C349 N348 1.334 . S
C349 C351 1.413 . S
C349 H356 0.929 . S
C350 C338 1.392 . S
C350 C351 1.367 . S
C350 H358 0.930 . S
C351 C349 1.413 . S
C351 C350 1.367 . S
C351 H353 0.930 . S
H352 C345 0.930 . S
H353 C351 0.930 . S
H354 C342 0.930 . S
H355 C343 0.930 . S
H356 C349 0.929 . S
H357 C371 0.930 . S
H358 C350 0.930 . S
H359 C377 0.930 . S
H360 C368 0.929 . S
H361 C375 0.930 . S
H362 C339 0.931 . S
H363 C369 0.930 . S
H364 C402 0.930 . S
H365 C346 0.930 . S
H366 C401 0.931 . S
N367 Eu336 2.657 . S
N367 C368 1.334 . S
N367 C372 1.362 . S
C368 H360 0.929 . S
C368 N367 1.334 . S
C368 C371 1.413 . S
C369 H363 0.930 . S
C369 C370 1.392 . S
C369 C371 1.367 . S
C370 C369 1.392 . S
C370 C372 1.420 . S
C370 C402 1.423 . S
C371 H357 0.930 . S
C371 C368 1.413 . S
C371 C369 1.367 . S
C372 N367 1.362 . S
C372 C370 1.420 . S
C372 C376 1.429 . S
H373 C378 0.930 . S
N374 Eu336 2.609 . S
N374 C376 1.377 . S
N374 C377 1.321 . S
C375 H361 0.930 . S
C375 C377 1.400 . S
C375 C378 1.386 . S
C376 C372 1.429 . S
C376 N374 1.377 . S
C376 C379 1.411 . S
C377 H359 0.930 . S
C377 N374 1.321 . S
C377 C375 1.400 . S
C378 H373 0.930 . S
C378 C375 1.386 . S
C378 C379 1.395 . S
C379 C376 1.411 . S
C379 C378 1.395 . S
C379 C401 1.420 . S
O380 Eu336 2.558 . S
O380 C400 1.257 . S
O381 Eu336 2.612 . S
O381 Eu347 2.380 . S
O381 C392 1.276 . S
O382 Eu347 2.432 . S
O382 C399 1.264 . S
O383 Eu336 2.339 . S
O383 C399 1.254 . S
O384 Eu336 2.563 . S
O384 C392 1.235 . S
O385 Eu336 2.419 . S
O385 C400 1.249 . S
O386 Eu347 2.558 . S
O386 C411 1.257 . S
O387 Eu336 2.380 . S
O387 Eu347 2.612 . S
O387 C403 1.276 . S
O388 Eu336 2.432 . S
O388 C410 1.264 . S
O389 Eu347 2.339 . S
O389 C410 1.254 . S
O390 Eu347 2.563 . S
O390 C403 1.235 . S
O391 Eu347 2.419 . S
O391 C411 1.249 . S
C392 O381 1.276 . S
C392 O384 1.235 . S
C393 C395 1.393 . S
C393 C397 1.395 . S
C393 C400 1.492 . S
C394 C395 1.392 . S
C394 C396 1.386 . S
C395 C393 1.393 . S
C395 C394 1.392 . S
C395 H412 0.930 . S
C396 C394 1.386 . S
C396 C398 1.395 . S
C396 H413 0.930 . S
C397 C393 1.395 . S
C397 C398 1.379 . S
C397 H414 0.930 . S
C398 C396 1.395 . S
C398 C397 1.379 . S
C398 H415 0.930 . S
C399 O382 1.264 . S
C399 O383 1.254 . S
C400 Eu336 2.848 . S
C400 O380 1.257 . S
C400 O385 1.249 . S
C400 C393 1.492 . S
C401 H366 0.931 . S
C401 C379 1.420 . S
C401 C402 1.351 . S
C402 H364 0.930 . S
C402 C370 1.423 . S
C402 C401 1.351 . S
C403 O387 1.276 . S
C403 O390 1.235 . S
C404 C405 1.393 . S
C404 C408 1.395 . S
C404 C411 1.492 . S
C405 C404 1.393 . S
C405 C406 1.392 . S
C405 H416 0.930 . S
C406 C405 1.392 . S
C406 C407 1.386 . S
C407 C406 1.386 . S
C407 C409 1.395 . S
C407 H417 0.930 . S
C408 C404 1.395 . S
C408 C409 1.379 . S
C408 H418 0.930 . S
C409 C407 1.395 . S
C409 C408 1.379 . S
C409 H419 0.930 . S
C410 O388 1.264 . S
C410 O389 1.254 . S
C411 Eu347 2.848 . S
C411 O386 1.257 . S
C411 O391 1.249 . S
C411 C404 1.492 . S
H412 C395 0.930 . S
H413 C396 0.930 . S
H414 C397 0.930 . S
H415 C398 0.930 . S
H416 C405 0.930 . S
H417 C407 0.930 . S
H418 C408 0.930 . S
H419 C409 0.930 . S
Eu420 N451 2.657 . S
Eu420 N458 2.609 . S
Eu420 O464 2.558 . S
Eu420 O465 2.612 . S
Eu420 O467 2.339 . S
Eu420 O468 2.563 . S
Eu420 O469 2.419 . S
Eu420 O471 2.380 . S
Eu420 O472 2.432 . S
Eu420 C484 2.848 . S
C421 C424 1.429 . S
C421 C425 1.411 . S
C421 N428 1.377 . S
C422 C424 1.420 . S
C422 C426 1.423 . S
C422 C434 1.392 . S
C423 C425 1.420 . S
C423 C426 1.351 . S
C423 H446 0.931 . S
C424 C421 1.429 . S
C424 C422 1.420 . S
C424 N432 1.362 . S
C425 C421 1.411 . S
C425 C423 1.420 . S
C425 C430 1.395 . S
C426 C422 1.423 . S
C426 C423 1.351 . S
C426 H438 0.930 . S
C427 C429 1.400 . S
C427 C430 1.386 . S
C427 H439 0.930 . S
N428 C421 1.377 . S
N428 C429 1.321 . S
N428 Eu431 2.609 . S
C429 C427 1.400 . S
C429 N428 1.321 . S
C429 H436 0.930 . S
C430 C425 1.395 . S
C430 C427 1.386 . S
C430 H449 0.930 . S
Eu431 N428 2.609 . S
Eu431 N432 2.657 . S
Eu431 O465 2.380 . S
Eu431 O466 2.432 . S
Eu431 O470 2.558 . S
Eu431 O471 2.612 . S
Eu431 O473 2.339 . S
Eu431 O474 2.563 . S
Eu431 O475 2.419 . S
Eu431 C495 2.848 . S
N432 C424 1.362 . S
N432 Eu431 2.657 . S
N432 C433 1.334 . S
C433 N432 1.334 . S
C433 C435 1.413 . S
C433 H440 0.929 . S
C434 C422 1.392 . S
C434 C435 1.367 . S
C434 H442 0.930 . S
C435 C433 1.413 . S
C435 C434 1.367 . S
C435 H437 0.930 . S
H436 C429 0.930 . S
H437 C435 0.930 . S
H438 C426 0.930 . S
H439 C427 0.930 . S
H440 C433 0.929 . S
H441 C455 0.930 . S
H442 C434 0.930 . S
H443 C461 0.930 . S
H444 C452 0.929 . S
H445 C459 0.930 . S
H446 C423 0.931 . S
H447 C453 0.930 1_554 S
H448 C486 0.930 1_554 S
H449 C430 0.930 . S
H450 C485 0.931 . S
N451 Eu420 2.657 . S
N451 C452 1.334 . S
N451 C456 1.362 . S
C452 H444 0.929 . S
C452 N451 1.334 . S
C452 C455 1.413 . S
C453 H447 0.930 1_556 S
C453 C454 1.392 . S
C453 C455 1.367 . S
C454 C453 1.392 . S
C454 C456 1.420 . S
C454 C486 1.423 . S
C455 H441 0.930 . S
C455 C452 1.413 . S
C455 C453 1.367 . S
C456 N451 1.362 . S
C456 C454 1.420 . S
C456 C460 1.429 . S
H457 C462 0.930 . S
N458 Eu420 2.609 . S
N458 C460 1.377 . S
N458 C461 1.321 . S
C459 H445 0.930 . S
C459 C461 1.400 . S
C459 C462 1.386 . S
C460 C456 1.429 . S
C460 N458 1.377 . S
C460 C463 1.411 . S
C461 H443 0.930 . S
C461 N458 1.321 . S
C461 C459 1.400 . S
C462 H457 0.930 . S
C462 C459 1.386 . S
C462 C463 1.395 . S
C463 C460 1.411 . S
C463 C462 1.395 . S
C463 C485 1.420 . S
O464 Eu420 2.558 . S
O464 C484 1.257 . S
O465 Eu420 2.612 . S
O465 Eu431 2.380 . S
O465 C476 1.276 . S
O466 Eu431 2.432 . S
O466 C483 1.264 . S
O467 Eu420 2.339 . S
O467 C483 1.254 . S
O468 Eu420 2.563 . S
O468 C476 1.235 . S
O469 Eu420 2.419 . S
O469 C484 1.249 . S
O470 Eu431 2.558 . S
O470 C495 1.257 . S
O471 Eu420 2.380 . S
O471 Eu431 2.612 . S
O471 C487 1.276 . S
O472 Eu420 2.432 . S
O472 C494 1.264 . S
O473 Eu431 2.339 . S
O473 C494 1.254 . S
O474 Eu431 2.563 . S
O474 C487 1.235 . S
O475 Eu431 2.419 . S
O475 C495 1.249 . S
C476 O465 1.276 . S
C476 O468 1.235 . S
C477 C479 1.393 . S
C477 C481 1.395 . S
C477 C484 1.492 . S
C478 C479 1.392 . S
C478 C480 1.386 . S
C479 C477 1.393 . S
C479 C478 1.392 . S
C479 H496 0.930 . S
C480 C478 1.386 . S
C480 C482 1.395 . S
C480 H497 0.930 . S
C481 C477 1.395 . S
C481 C482 1.379 . S
C481 H498 0.930 . S
C482 C480 1.395 . S
C482 C481 1.379 . S
C482 H499 0.930 . S
C483 O466 1.264 . S
C483 O467 1.254 . S
C484 Eu420 2.848 . S
C484 O464 1.257 . S
C484 O469 1.249 . S
C484 C477 1.492 . S
C485 H450 0.931 . S
C485 C463 1.420 . S
C485 C486 1.351 . S
C486 H448 0.930 1_556 S
C486 C454 1.423 . S
C486 C485 1.351 . S
C487 O471 1.276 . S
C487 O474 1.235 . S
C488 C489 1.393 . S
C488 C492 1.395 . S
C488 C495 1.492 . S
C489 C488 1.393 . S
C489 C490 1.392 . S
C489 H500 0.930 . S
C490 C489 1.392 . S
C490 C491 1.386 . S
C491 C490 1.386 . S
C491 C493 1.395 . S
C491 H501 0.930 . S
C492 C488 1.395 . S
C492 C493 1.379 . S
C492 H502 0.930 . S
C493 C491 1.395 . S
C493 C492 1.379 . S
C493 H503 0.930 . S
C494 O472 1.264 . S
C494 O473 1.254 . S
C495 Eu431 2.848 . S
C495 O470 1.257 . S
C495 O475 1.249 . S
C495 C488 1.492 . S
H496 C479 0.930 . S
H497 C480 0.930 . S
H498 C481 0.930 . S
H499 C482 0.930 . S
H500 C489 0.930 . S
H501 C491 0.930 . S
H502 C492 0.930 . S
H503 C493 0.930 . S
Eu504 N535 2.657 . S
Eu504 N542 2.609 . S
Eu504 O548 2.558 . S
Eu504 O549 2.612 . S
Eu504 O551 2.339 . S
Eu504 O552 2.563 . S
Eu504 O553 2.419 . S
Eu504 O555 2.380 . S
Eu504 O556 2.432 . S
Eu504 C568 2.848 . S
C505 C508 1.429 . S
C505 C509 1.411 . S
C505 N512 1.377 . S
C506 C508 1.420 . S
C506 C510 1.423 . S
C506 C518 1.392 . S
C507 C509 1.420 . S
C507 C510 1.351 . S
C507 H530 0.931 . S
C508 C505 1.429 . S
C508 C506 1.420 . S
C508 N516 1.362 . S
C509 C505 1.411 . S
C509 C507 1.420 . S
C509 C514 1.395 . S
C510 C506 1.423 . S
C510 C507 1.351 . S
C510 H522 0.930 . S
C511 C513 1.400 . S
C511 C514 1.386 . S
C511 H523 0.930 . S
N512 C505 1.377 . S
N512 C513 1.321 . S
N512 Eu515 2.609 . S
C513 C511 1.400 . S
C513 N512 1.321 . S
C513 H520 0.930 . S
C514 C509 1.395 . S
C514 C511 1.386 . S
C514 H533 0.930 . S
Eu515 N512 2.609 . S
Eu515 N516 2.657 . S
Eu515 O549 2.380 . S
Eu515 O550 2.432 . S
Eu515 O554 2.558 . S
Eu515 O555 2.612 . S
Eu515 O557 2.339 . S
Eu515 O558 2.563 . S
Eu515 O559 2.419 . S
Eu515 C579 2.848 . S
N516 C508 1.362 . S
N516 Eu515 2.657 . S
N516 C517 1.334 . S
C517 N516 1.334 . S
C517 C519 1.413 . S
C517 H524 0.929 . S
C518 C506 1.392 . S
C518 C519 1.367 . S
C518 H526 0.930 . S
C519 C517 1.413 . S
C519 C518 1.367 . S
C519 H521 0.930 . S
H520 C513 0.930 . S
H521 C519 0.930 . S
H522 C510 0.930 . S
H523 C511 0.930 . S
H524 C517 0.929 . S
H525 C539 0.930 . S
H526 C518 0.930 . S
H527 C545 0.930 . S
H528 C536 0.929 . S
H529 C543 0.930 . S
H530 C507 0.931 . S
H531 C537 0.930 . S
H532 C570 0.930 . S
H533 C514 0.930 . S
H534 C569 0.931 1_554 S
N535 Eu504 2.657 . S
N535 C536 1.334 . S
N535 C540 1.362 . S
C536 H528 0.929 . S
C536 N535 1.334 . S
C536 C539 1.413 . S
C537 H531 0.930 . S
C537 C538 1.392 . S
C537 C539 1.367 . S
C538 C537 1.392 . S
C538 C540 1.420 . S
C538 C570 1.423 . S
C539 H525 0.930 . S
C539 C536 1.413 . S
C539 C537 1.367 . S
C540 N535 1.362 . S
C540 C538 1.420 . S
C540 C544 1.429 . S
H541 C546 0.930 1_554 S
N542 Eu504 2.609 . S
N542 C544 1.377 . S
N542 C545 1.321 . S
C543 H529 0.930 . S
C543 C545 1.400 . S
C543 C546 1.386 . S
C544 C540 1.429 . S
C544 N542 1.377 . S
C544 C547 1.411 . S
C545 H527 0.930 . S
C545 N542 1.321 . S
C545 C543 1.400 . S
C546 H541 0.930 1_556 S
C546 C543 1.386 . S
C546 C547 1.395 . S
C547 C544 1.411 . S
C547 C546 1.395 . S
C547 C569 1.420 . S
O548 Eu504 2.558 . S
O548 C568 1.257 . S
O549 Eu504 2.612 . S
O549 Eu515 2.380 . S
O549 C560 1.276 . S
O550 Eu515 2.432 . S
O550 C567 1.264 . S
O551 Eu504 2.339 . S
O551 C567 1.254 . S
O552 Eu504 2.563 . S
O552 C560 1.235 . S
O553 Eu504 2.419 . S
O553 C568 1.249 . S
O554 Eu515 2.558 . S
O554 C579 1.257 . S
O555 Eu504 2.380 . S
O555 Eu515 2.612 . S
O555 C571 1.276 . S
O556 Eu504 2.432 . S
O556 C578 1.264 . S
O557 Eu515 2.339 . S
O557 C578 1.254 . S
O558 Eu515 2.563 . S
O558 C571 1.235 . S
O559 Eu515 2.419 . S
O559 C579 1.249 . S
C560 O549 1.276 . S
C560 O552 1.235 . S
C561 C563 1.393 . S
C561 C565 1.395 . S
C561 C568 1.492 . S
C562 C563 1.392 . S
C562 C564 1.386 . S
C563 C561 1.393 . S
C563 C562 1.392 . S
C563 H580 0.930 . S
C564 C562 1.386 . S
C564 C566 1.395 . S
C564 H581 0.930 . S
C565 C561 1.395 . S
C565 C566 1.379 . S
C565 H582 0.930 . S
C566 C564 1.395 . S
C566 C565 1.379 . S
C566 H583 0.930 . S
C567 O550 1.264 . S
C567 O551 1.254 . S
C568 Eu504 2.848 . S
C568 O548 1.257 . S
C568 O553 1.249 . S
C568 C561 1.492 . S
C569 H534 0.931 1_556 S
C569 C547 1.420 . S
C569 C570 1.351 . S
C570 H532 0.930 . S
C570 C538 1.423 . S
C570 C569 1.351 . S
C571 O555 1.276 . S
C571 O558 1.235 . S
C572 C573 1.393 . S
C572 C576 1.395 . S
C572 C579 1.492 . S
C573 C572 1.393 . S
C573 C574 1.392 . S
C573 H584 0.930 . S
C574 C573 1.392 . S
C574 C575 1.386 . S
C575 C574 1.386 . S
C575 C577 1.395 . S
C575 H585 0.930 . S
C576 C572 1.395 . S
C576 C577 1.379 . S
C576 H586 0.930 . S
C577 C575 1.395 . S
C577 C576 1.379 . S
C577 H587 0.930 . S
C578 O556 1.264 . S
C578 O557 1.254 . S
C579 Eu515 2.848 . S
C579 O554 1.257 . S
C579 O559 1.249 . S
C579 C572 1.492 . S
H580 C563 0.930 . S
H581 C564 0.930 . S
H582 C565 0.930 . S
H583 C566 0.930 . S
H584 C573 0.930 . S
H585 C575 0.930 . S
H586 C576 0.930 . S
H587 C577 0.930 . S
Eu588 N619 2.657 . S
Eu588 N626 2.609 . S
Eu588 O632 2.558 . S
Eu588 O633 2.612 . S
Eu588 O635 2.339 . S
Eu588 O636 2.563 . S
Eu588 O637 2.419 . S
Eu588 O639 2.380 . S
Eu588 O640 2.432 . S
Eu588 C652 2.848 . S
C589 C592 1.429 . S
C589 C593 1.411 . S
C589 N596 1.377 . S
C590 C592 1.420 . S
C590 C594 1.423 . S
C590 C602 1.392 . S
C591 C593 1.420 . S
C591 C594 1.351 . S
C591 H614 0.931 . S
C592 C589 1.429 . S
C592 C590 1.420 . S
C592 N600 1.362 . S
C593 C589 1.411 . S
C593 C591 1.420 . S
C593 C598 1.395 . S
C594 C590 1.423 . S
C594 C591 1.351 . S
C594 H606 0.930 1_556 S
C595 C597 1.400 . S
C595 C598 1.386 . S
C595 H607 0.930 . S
N596 C589 1.377 . S
N596 C597 1.321 . S
N596 Eu599 2.609 . S
C597 C595 1.400 . S
C597 N596 1.321 . S
C597 H604 0.930 . S
C598 C593 1.395 . S
C598 C595 1.386 . S
C598 H617 0.930 . S
Eu599 N596 2.609 . S
Eu599 N600 2.657 . S
Eu599 O633 2.380 . S
Eu599 O634 2.432 . S
Eu599 O638 2.558 . S
Eu599 O639 2.612 . S
Eu599 O641 2.339 . S
Eu599 O642 2.563 . S
Eu599 O643 2.419 . S
Eu599 C663 2.848 . S
N600 C592 1.362 . S
N600 Eu599 2.657 . S
N600 C601 1.334 . S
C601 N600 1.334 . S
C601 C603 1.413 . S
C601 H608 0.929 . S
C602 C590 1.392 . S
C602 C603 1.367 . S
C602 H610 0.930 1_556 S
C603 C601 1.413 . S
C603 C602 1.367 . S
C603 H605 0.930 . S
H604 C597 0.930 . S
H605 C603 0.930 . S
H606 C594 0.930 1_554 S
H607 C595 0.930 . S
H608 C601 0.929 . S
H609 C623 0.930 . S
H610 C602 0.930 1_554 S
H611 C629 0.930 . S
H612 C620 0.929 . S
H613 C627 0.930 . S
H614 C591 0.931 . S
H615 C621 0.930 . S
H616 C654 0.930 . S
H617 C598 0.930 . S
H618 C653 0.931 . S
N619 Eu588 2.657 . S
N619 C620 1.334 . S
N619 C624 1.362 . S
C620 H612 0.929 . S
C620 N619 1.334 . S
C620 C623 1.413 . S
C621 H615 0.930 . S
C621 C622 1.392 . S
C621 C623 1.367 . S
C622 C621 1.392 . S
C622 C624 1.420 . S
C622 C654 1.423 . S
C623 H609 0.930 . S
C623 C620 1.413 . S
C623 C621 1.367 . S
C624 N619 1.362 . S
C624 C622 1.420 . S
C624 C628 1.429 . S
H625 C630 0.930 . S
N626 Eu588 2.609 . S
N626 C628 1.377 . S
N626 C629 1.321 . S
C627 H613 0.930 . S
C627 C629 1.400 . S
C627 C630 1.386 . S
C628 C624 1.429 . S
C628 N626 1.377 . S
C628 C631 1.411 . S
C629 H611 0.930 . S
C629 N626 1.321 . S
C629 C627 1.400 . S
C630 H625 0.930 . S
C630 C627 1.386 . S
C630 C631 1.395 . S
C631 C628 1.411 . S
C631 C630 1.395 . S
C631 C653 1.420 . S
O632 Eu588 2.558 . S
O632 C652 1.257 . S
O633 Eu588 2.612 . S
O633 Eu599 2.380 . S
O633 C644 1.276 . S
O634 Eu599 2.432 . S
O634 C651 1.264 . S
O635 Eu588 2.339 . S
O635 C651 1.254 . S
O636 Eu588 2.563 . S
O636 C644 1.235 . S
O637 Eu588 2.419 . S
O637 C652 1.249 . S
O638 Eu599 2.558 . S
O638 C663 1.257 . S
O639 Eu588 2.380 . S
O639 Eu599 2.612 . S
O639 C655 1.276 . S
O640 Eu588 2.432 . S
O640 C662 1.264 . S
O641 Eu599 2.339 . S
O641 C662 1.254 . S
O642 Eu599 2.563 . S
O642 C655 1.235 . S
O643 Eu599 2.419 . S
O643 C663 1.249 . S
C644 O633 1.276 . S
C644 O636 1.235 . S
C645 C647 1.393 . S
C645 C649 1.395 . S
C645 C652 1.492 . S
C646 C647 1.392 . S
C646 C648 1.386 . S
C647 C645 1.393 . S
C647 C646 1.392 . S
C647 H664 0.930 . S
C648 C646 1.386 . S
C648 C650 1.395 . S
C648 H665 0.930 . S
C649 C645 1.395 . S
C649 C650 1.379 . S
C649 H666 0.930 . S
C650 C648 1.395 . S
C650 C649 1.379 . S
C650 H667 0.930 . S
C651 O634 1.264 . S
C651 O635 1.254 . S
C652 Eu588 2.848 . S
C652 O632 1.257 . S
C652 O637 1.249 . S
C652 C645 1.492 . S
C653 H618 0.931 . S
C653 C631 1.420 . S
C653 C654 1.351 . S
C654 H616 0.930 . S
C654 C622 1.423 . S
C654 C653 1.351 . S
C655 O639 1.276 . S
C655 O642 1.235 . S
C656 C657 1.393 . S
C656 C660 1.395 . S
C656 C663 1.492 . S
C657 C656 1.393 . S
C657 C658 1.392 . S
C657 H668 0.930 . S
C658 C657 1.392 . S
C658 C659 1.386 . S
C659 C658 1.386 . S
C659 C661 1.395 . S
C659 H669 0.930 . S
C660 C656 1.395 . S
C660 C661 1.379 . S
C660 H670 0.930 . S
C661 C659 1.395 . S
C661 C660 1.379 . S
C661 H671 0.930 . S
C662 O640 1.264 . S
C662 O641 1.254 . S
C663 Eu599 2.848 . S
C663 O638 1.257 . S
C663 O643 1.249 . S
C663 C656 1.492 . S
H664 C647 0.930 . S
H665 C648 0.930 . S
H666 C649 0.930 . S
H667 C650 0.930 . S
H668 C657 0.930 . S
H669 C659 0.930 . S
H670 C660 0.930 . S
H671 C661 0.930 . S
Co672 O675 2.042 . S
Co672 O682 2.264 . S
Co672 O701 2.286 . S
Co672 O702 2.069 . S
Co672 O704 2.015 1_455 S
Co673 O675 2.122 . S
Co673 O681 2.073 . S
Co673 O682 2.327 . S
Co673 O683 1.976 1_455 S
Co674 O675 2.088 1_545 S
Co674 O677 2.085 1_455 S
Co674 O684 2.108 1_445 S
Co674 O685 2.146 . S
Co674 O689 2.114 . S
Co674 O703 2.141 1_445 S
O675 Co672 2.042 . S
O675 Co673 2.122 . S
O675 Co674 2.088 1_565 S
O675 H676 0.980 . S
H676 O675 0.980 . S
O677 Co674 2.085 1_655 S
O677 Co678 2.042 . S
O677 Co679 2.122 . S
O677 H680 0.980 . S
Co678 O677 2.042 . S
Co678 O686 2.286 . S
Co678 O687 2.069 . S
Co678 O688 2.015 1_655 S
Co678 O691 2.264 . S
Co679 O677 2.122 . S
Co679 O690 1.976 1_655 S
Co679 O691 2.327 . S
Co679 O692 2.073 . S
H680 O677 0.980 . S
O681 Co673 2.073 . S
O681 C696 1.245 . S
O682 Co672 2.264 . S
O682 Co673 2.327 . S
O682 C696 1.257 . S
O683 Co673 1.976 1_655 S
O683 C695 1.251 . S
O684 Co674 2.108 1_665 S
O684 C695 1.274 . S
O685 Co674 2.146 . S
O685 C698 1.246 . S
O686 Co678 2.286 . S
O686 C697 1.259 . S
O687 Co678 2.069 . S
O687 C697 1.289 . S
O688 Co678 2.015 1_455 S
O688 C698 1.257 . S
O689 Co674 2.114 . S
O689 C699 1.274 . S
O690 Co679 1.976 1_455 S
O690 C699 1.251 . S
O691 Co678 2.264 . S
O691 Co679 2.327 . S
O691 C700 1.257 . S
O692 Co679 2.073 . S
O692 C700 1.245 . S
C693 O701 1.259 . S
C693 O702 1.289 . S
C694 O703 1.246 . S
C694 O704 1.257 . S
C695 O683 1.251 . S
C695 O684 1.274 . S
C696 O681 1.245 . S
C696 O682 1.257 . S
C697 O686 1.259 . S
C697 O687 1.289 . S
C698 O685 1.246 . S
C698 O688 1.257 . S
C699 O689 1.274 . S
C699 O690 1.251 . S
C700 O691 1.257 . S
C700 O692 1.245 . S
O701 Co672 2.286 . S
O701 C693 1.259 . S
O702 Co672 2.069 . S
O702 C693 1.289 . S
O703 Co674 2.141 1_665 S
O703 C694 1.246 . S
O704 Co672 2.015 1_655 S
O704 C694 1.257 . S
Co705 O708 2.042 1_556 S
Co705 O715 2.264 1_556 S
Co705 O734 2.286 . S
Co705 O735 2.069 . S
Co705 O737 2.015 . S
Co706 O708 2.122 . S
Co706 O714 2.073 . S
Co706 O715 2.327 . S
Co706 O716 1.976 . S
Co707 O708 2.084 1_545 S
Co707 O710 2.089 1_554 S
Co707 O717 2.111 1_545 S
Co707 O718 2.145 . S
Co707 O722 2.112 1_554 S
Co707 O736 2.142 1_544 S
O708 Co705 2.042 1_554 S
O708 Co706 2.122 . S
O708 Co707 2.084 1_565 S
O708 H709 0.980 . S
H709 O708 0.980 . S
O710 Co707 2.089 1_556 S
O710 Co711 2.042 1_556 S
O710 Co712 2.122 . S
O710 H713 0.980 . S
Co711 O710 2.042 1_554 S
Co711 O719 2.286 . S
Co711 O720 2.069 . S
Co711 O721 2.015 . S
Co711 O724 2.264 1_554 S
Co712 O710 2.122 . S
Co712 O723 1.976 . S
Co712 O724 2.327 . S
Co712 O725 2.073 . S
H713 O710 0.980 . S
O714 Co706 2.073 . S
O714 C729 1.245 . S
O715 Co705 2.264 1_554 S
O715 Co706 2.327 . S
O715 C729 1.257 . S
O716 Co706 1.976 . S
O716 C728 1.251 . S
O717 Co707 2.111 1_565 S
O717 C728 1.274 . S
O718 Co707 2.145 . S
O718 C731 1.246 . S
O719 Co711 2.286 . S
O719 C730 1.259 . S
O720 Co711 2.069 . S
O720 C730 1.289 . S
O721 Co711 2.015 . S
O721 C731 1.257 . S
O722 Co707 2.112 1_556 S
O722 C732 1.274 . S
O723 Co712 1.976 . S
O723 C732 1.251 . S
O724 Co711 2.264 1_556 S
O724 Co712 2.327 . S
O724 C733 1.257 . S
O725 Co712 2.073 . S
O725 C733 1.245 . S
C726 O734 1.259 . S
C726 O735 1.289 . S
C727 O736 1.246 . S
C727 O737 1.257 . S
C728 O716 1.251 . S
C728 O717 1.274 . S
C729 O714 1.245 . S
C729 O715 1.257 . S
C730 O719 1.259 . S
C730 O720 1.289 . S
C731 O718 1.246 . S
C731 O721 1.257 . S
C732 O722 1.274 . S
C732 O723 1.251 . S
C733 O724 1.257 . S
C733 O725 1.245 . S
O734 Co705 2.286 . S
O734 C726 1.259 . S
O735 Co705 2.069 . S
O735 C726 1.289 . S
O736 Co707 2.142 1_566 S
O736 C727 1.246 . S
O737 Co705 2.015 . S
O737 C727 1.257 . S
Co738 O741 2.042 1_556 S
Co738 O748 2.264 1_556 S
Co738 O767 2.286 . S
Co738 O768 2.069 . S
Co738 O770 2.015 1_455 S
Co739 O741 2.122 . S
Co739 O747 2.073 . S
Co739 O748 2.327 . S
Co739 O749 1.976 1_455 S
Co740 O741 2.091 . S
Co740 O743 2.083 1_454 S
Co740 O750 2.109 1_455 S
Co740 O751 2.145 . S
Co740 O755 2.114 1_554 S
Co740 O769 2.142 1_454 S
O741 Co738 2.042 1_554 S
O741 Co739 2.122 . S
O741 Co740 2.091 . S
O741 H742 0.980 . S
H742 O741 0.980 . S
O743 Co740 2.083 1_656 S
O743 Co744 2.042 1_556 S
O743 Co745 2.122 . S
O743 H746 0.980 . S
Co744 O743 2.042 1_554 S
Co744 O752 2.286 . S
Co744 O753 2.069 . S
Co744 O754 2.015 1_655 S
Co744 O757 2.264 1_554 S
Co745 O743 2.122 . S
Co745 O756 1.976 1_655 S
Co745 O757 2.327 . S
Co745 O758 2.073 . S
H746 O743 0.980 . S
O747 Co739 2.073 . S
O747 C762 1.245 . S
O748 Co738 2.264 1_554 S
O748 Co739 2.327 . S
O748 C762 1.257 . S
O749 Co739 1.976 1_655 S
O749 C761 1.251 . S
O750 Co740 2.109 1_655 S
O750 C761 1.274 . S
O751 Co740 2.145 . S
O751 C764 1.246 . S
O752 Co744 2.286 . S
O752 C763 1.259 . S
O753 Co744 2.069 . S
O753 C763 1.289 . S
O754 Co744 2.015 1_455 S
O754 C764 1.257 . S
O755 Co740 2.114 1_556 S
O755 C765 1.274 . S
O756 Co745 1.976 1_455 S
O756 C765 1.251 . S
O757 Co744 2.264 1_556 S
O757 Co745 2.327 . S
O757 C766 1.257 . S
O758 Co745 2.073 . S
O758 C766 1.245 . S
C759 O767 1.259 . S
C759 O768 1.289 . S
C760 O769 1.246 . S
C760 O770 1.257 . S
C761 O749 1.251 . S
C761 O750 1.274 . S
C762 O747 1.245 . S
C762 O748 1.257 . S
C763 O752 1.259 . S
C763 O753 1.289 . S
C764 O751 1.246 . S
C764 O754 1.257 . S
C765 O755 1.274 . S
C765 O756 1.251 . S
C766 O757 1.257 . S
C766 O758 1.245 . S
O767 Co738 2.286 . S
O767 C759 1.259 . S
O768 Co738 2.069 . S
O768 C759 1.289 . S
O769 Co740 2.142 1_656 S
O769 C760 1.246 . S
O770 Co738 2.015 1_655 S
O770 C760 1.257 . S
Co771 O774 2.042 1_556 S
Co771 O781 2.264 1_556 S
Co771 O800 2.286 . S
Co771 O801 2.069 . S
Co771 O803 2.015 . S
Co772 O774 2.122 . S
Co772 O780 2.073 . S
Co772 O781 2.327 . S
Co772 O782 1.976 . S
Co773 O774 2.087 . S
Co773 O776 2.087 1_554 S
Co773 O783 2.111 . S
Co773 O784 2.143 . S
Co773 O788 2.111 1_554 S
Co773 O802 2.143 1_554 S
O774 Co771 2.042 1_554 S
O774 Co772 2.122 . S
O774 Co773 2.087 . S
O774 H775 0.980 . S
H775 O774 0.980 . S
O776 Co773 2.087 1_556 S
O776 Co777 2.042 1_556 S
O776 Co778 2.122 . S
O776 H779 0.980 . S
Co777 O776 2.042 1_554 S
Co777 O785 2.286 . S
Co777 O786 2.069 . S
Co777 O787 2.015 . S
Co777 O790 2.264 1_554 S
Co778 O776 2.122 . S
Co778 O789 1.976 . S
Co778 O790 2.327 . S
Co778 O791 2.073 . S
H779 O776 0.980 . S
O780 Co772 2.073 . S
O780 C795 1.245 . S
O781 Co771 2.264 1_554 S
O781 Co772 2.327 . S
O781 C795 1.257 . S
O782 Co772 1.976 . S
O782 C794 1.251 . S
O783 Co773 2.111 . S
O783 C794 1.274 . S
O784 Co773 2.143 . S
O784 C797 1.246 . S
O785 Co777 2.286 . S
O785 C796 1.259 . S
O786 Co777 2.069 . S
O786 C796 1.289 . S
O787 Co777 2.015 . S
O787 C797 1.257 . S
O788 Co773 2.111 1_556 S
O788 C798 1.274 . S
O789 Co778 1.976 . S
O789 C798 1.251 . S
O790 Co777 2.264 1_556 S
O790 Co778 2.327 . S
O790 C799 1.257 . S
O791 Co778 2.073 . S
O791 C799 1.245 . S
C792 O800 1.259 . S
C792 O801 1.289 . S
C793 O802 1.246 . S
C793 O803 1.257 . S
C794 O782 1.251 . S
C794 O783 1.274 . S
C795 O780 1.245 . S
C795 O781 1.257 . S
C796 O785 1.259 . S
C796 O786 1.289 . S
C797 O784 1.246 . S
C797 O787 1.257 . S
C798 O788 1.274 . S
C798 O789 1.251 . S
C799 O790 1.257 . S
C799 O791 1.245 . S
O800 Co771 2.286 . S
O800 C792 1.259 . S
O801 Co771 2.069 . S
O801 C792 1.289 . S
O802 Co773 2.143 1_556 S
O802 C793 1.246 . S
O803 Co771 2.015 . S
O803 C793 1.257 . S
Co804 O807 2.042 . S
Co804 O814 2.264 . S
Co804 O833 2.286 . S
Co804 O834 2.069 . S
Co804 O836 2.015 . S
Co805 O807 2.122 . S
Co805 O813 2.073 . S
Co805 O814 2.327 . S
Co805 O815 1.976 . S
Co806 O807 2.091 . S
Co806 O809 2.083 1_455 S
Co806 O816 2.112 . S
Co806 O817 2.142 1_455 S
Co806 O821 2.110 1_455 S
Co806 O835 2.145 . S
O807 Co804 2.042 . S
O807 Co805 2.122 . S
O807 Co806 2.091 . S
O807 H808 0.980 . S
H808 O807 0.980 . S
O809 Co806 2.083 1_655 S
O809 Co810 2.042 . S
O809 Co811 2.122 . S
O809 H812 0.980 . S
Co810 O809 2.042 . S
Co810 O818 2.286 . S
Co810 O819 2.069 . S
Co810 O820 2.015 . S
Co810 O823 2.264 . S
Co811 O809 2.122 . S
Co811 O822 1.976 . S
Co811 O823 2.327 . S
Co811 O824 2.073 . S
H812 O809 0.980 . S
O813 Co805 2.073 . S
O813 C828 1.245 . S
O814 Co804 2.264 . S
O814 Co805 2.327 . S
O814 C828 1.257 . S
O815 Co805 1.976 . S
O815 C827 1.251 . S
O816 Co806 2.112 . S
O816 C827 1.274 . S
O817 Co806 2.142 1_655 S
O817 C830 1.246 . S
O818 Co810 2.286 . S
O818 C829 1.259 . S
O819 Co810 2.069 . S
O819 C829 1.289 . S
O820 Co810 2.015 . S
O820 C830 1.257 . S
O821 Co806 2.110 1_655 S
O821 C831 1.274 . S
O822 Co811 1.976 . S
O822 C831 1.251 . S
O823 Co810 2.264 . S
O823 Co811 2.327 . S
O823 C832 1.257 . S
O824 Co811 2.073 . S
O824 C832 1.245 . S
C825 O833 1.259 . S
C825 O834 1.289 . S
C826 O835 1.246 . S
C826 O836 1.257 . S
C827 O815 1.251 . S
C827 O816 1.274 . S
C828 O813 1.245 . S
C828 O814 1.257 . S
C829 O818 1.259 . S
C829 O819 1.289 . S
C830 O817 1.246 . S
C830 O820 1.257 . S
C831 O821 1.274 . S
C831 O822 1.251 . S
C832 O823 1.257 . S
C832 O824 1.245 . S
O833 Co804 2.286 . S
O833 C825 1.259 . S
O834 Co804 2.069 . S
O834 C825 1.289 . S
O835 Co806 2.145 . S
O835 C826 1.246 . S
O836 Co804 2.015 . S
O836 C826 1.257 . S
Co837 O840 2.042 . S
Co837 O847 2.264 . S
Co837 O866 2.286 . S
Co837 O867 2.069 . S
Co837 O869 2.015 1_565 S
Co838 O840 2.122 . S
Co838 O846 2.073 . S
Co838 O847 2.327 . S
Co838 O848 1.976 1_565 S
Co839 O840 2.084 1_545 S
Co839 O842 2.090 . S
Co839 O849 2.113 . S
Co839 O850 2.143 1_545 S
Co839 O854 2.110 1_545 S
Co839 O868 2.144 . S
O840 Co837 2.042 . S
O840 Co838 2.122 . S
O840 Co839 2.084 1_565 S
O840 H841 0.980 . S
H841 O840 0.980 . S
O842 Co839 2.090 . S
O842 Co843 2.042 . S
O842 Co844 2.122 . S
O842 H845 0.980 . S
Co843 O842 2.042 . S
Co843 O851 2.286 . S
Co843 O852 2.069 . S
Co843 O853 2.015 1_545 S
Co843 O856 2.264 . S
Co844 O842 2.122 . S
Co844 O855 1.976 1_545 S
Co844 O856 2.327 . S
Co844 O857 2.073 . S
H845 O842 0.980 . S
O846 Co838 2.073 . S
O846 C861 1.245 . S
O847 Co837 2.264 . S
O847 Co838 2.327 . S
O847 C861 1.257 . S
O848 Co838 1.976 1_545 S
O848 C860 1.251 . S
O849 Co839 2.113 . S
O849 C860 1.274 . S
O850 Co839 2.143 1_565 S
O850 C863 1.246 . S
O851 Co843 2.286 . S
O851 C862 1.259 . S
O852 Co843 2.069 . S
O852 C862 1.289 . S
O853 Co843 2.015 1_565 S
O853 C863 1.257 . S
O854 Co839 2.110 1_565 S
O854 C864 1.274 . S
O855 Co844 1.976 1_565 S
O855 C864 1.251 . S
O856 Co843 2.264 . S
O856 Co844 2.327 . S
O856 C865 1.257 . S
O857 Co844 2.073 . S
O857 C865 1.245 . S
C858 O866 1.259 . S
C858 O867 1.289 . S
C859 O868 1.246 . S
C859 O869 1.257 . S
C860 O848 1.251 . S
C860 O849 1.274 . S
C861 O846 1.245 . S
C861 O847 1.257 . S
C862 O851 1.259 . S
C862 O852 1.289 . S
C863 O850 1.246 . S
C863 O853 1.257 . S
C864 O854 1.274 . S
C864 O855 1.251 . S
C865 O856 1.257 . S
C865 O857 1.245 . S
O866 Co837 2.286 . S
O866 C858 1.259 . S
O867 Co837 2.069 . S
O867 C858 1.289 . S
O868 Co839 2.144 . S
O868 C859 1.246 . S
O869 Co837 2.015 1_545 S
O869 C859 1.257 . S
C870 C871 1.363 . S
C870 C876 1.379 . S
C870 N878 1.356 . S
C871 C870 1.363 . S
C871 C877 1.363 . S
C872 C873 1.363 . S
C872 C877 1.379 . S
C872 N879 1.356 . S
C873 C872 1.363 . S
C873 C876 1.363 . S
N874 C876 1.356 . S
N874 H886 0.984 . S
N874 H887 0.985 . S
N875 C877 1.356 . S
N875 H880 0.984 . S
N875 H881 0.985 . S
C876 C870 1.379 . S
C876 C873 1.363 . S
C876 N874 1.356 . S
C877 C871 1.363 . S
C877 C872 1.379 . S
C877 N875 1.356 . S
N878 C870 1.356 . S
N878 H884 0.984 . S
N878 H885 0.984 . S
N879 C872 1.356 . S
N879 H882 0.984 . S
N879 H883 0.985 . S
H880 N875 0.984 . S
H881 N875 0.985 . S
H882 N879 0.984 . S
H883 N879 0.985 . S
H884 N878 0.984 . S
H885 N878 0.984 . S
H886 N874 0.984 . S
H887 N874 0.985 . S
C888 C889 1.363 . S
C888 C894 1.379 . S
C888 N896 1.356 . S
C889 C888 1.363 . S
C889 C895 1.363 . S
C890 C891 1.363 . S
C890 C895 1.379 . S
C890 N897 1.356 . S
C891 C890 1.363 . S
C891 C894 1.363 . S
N892 C894 1.356 . S
N892 H904 0.984 . S
N892 H905 0.985 . S
N893 C895 1.356 . S
N893 H898 0.984 . S
N893 H899 0.985 . S
C894 C888 1.379 . S
C894 C891 1.363 . S
C894 N892 1.356 . S
C895 C889 1.363 . S
C895 C890 1.379 . S
C895 N893 1.356 . S
N896 C888 1.356 . S
N896 H902 0.984 . S
N896 H903 0.984 . S
N897 C890 1.356 . S
N897 H900 0.984 . S
N897 H901 0.985 . S
H898 N893 0.984 . S
H899 N893 0.985 . S
H900 N897 0.984 . S
H901 N897 0.985 . S
H902 N896 0.984 . S
H903 N896 0.984 . S
H904 N892 0.984 . S
H905 N892 0.985 . S
C906 C907 1.363 . S
C906 C912 1.379 . S
C906 N914 1.356 . S
C907 C906 1.363 . S
C907 C913 1.363 . S
C908 C909 1.363 . S
C908 C913 1.379 . S
C908 N915 1.356 . S
C909 C908 1.363 . S
C909 C912 1.363 . S
N910 C912 1.356 . S
N910 H922 0.984 . S
N910 H923 0.985 . S
N911 C913 1.356 . S
N911 H916 0.984 . S
N911 H917 0.985 . S
C912 C906 1.379 . S
C912 C909 1.363 . S
C912 N910 1.356 . S
C913 C907 1.363 . S
C913 C908 1.379 . S
C913 N911 1.356 . S
N914 C906 1.356 . S
N914 H920 0.984 . S
N914 H921 0.984 . S
N915 C908 1.356 . S
N915 H918 0.984 . S
N915 H919 0.985 . S
H916 N911 0.984 . S
H917 N911 0.985 . S
H918 N915 0.984 . S
H919 N915 0.985 . S
H920 N914 0.984 . S
H921 N914 0.984 . S
H922 N910 0.984 . S
H923 N910 0.985 . S
C924 C925 1.363 . S
C924 C930 1.379 . S
C924 N932 1.356 . S
C925 C924 1.363 . S
C925 C931 1.363 . S
C926 C927 1.363 . S
C926 C931 1.379 . S
C926 N933 1.356 . S
C927 C926 1.363 . S
C927 C930 1.363 . S
N928 C930 1.356 . S
N928 H940 0.992 . S
N928 H941 0.985 . S
N929 C931 1.356 . S
N929 H934 0.984 . S
N929 H935 0.985 . S
C930 C924 1.379 . S
C930 C927 1.363 . S
C930 N928 1.356 . S
C931 C925 1.363 . S
C931 C926 1.379 . S
C931 N929 1.356 . S
N932 C924 1.356 . S
N932 H938 0.984 . S
N932 H939 0.984 . S
N933 C926 1.356 . S
N933 H936 0.984 . S
N933 H937 0.985 . S
H934 N929 0.984 . S
H935 N929 0.985 . S
H936 N933 0.984 . S
H937 N933 0.985 . S
H938 N932 0.984 . S
H939 N932 0.984 . S
H940 N928 0.992 . S
H941 N928 0.985 . S
C942 C943 1.363 . S
C942 C948 1.379 . S
C942 N950 1.356 . S
C943 C942 1.363 . S
C943 C949 1.363 . S
C944 C945 1.363 . S
C944 C949 1.379 . S
C944 N951 1.356 . S
C945 C944 1.363 . S
C945 C948 1.363 . S
N946 C948 1.356 . S
N946 H958 0.984 . S
N946 H959 0.985 . S
N947 C949 1.356 . S
N947 H952 0.984 . S
N947 H953 0.985 . S
C948 C942 1.379 . S
C948 C945 1.363 . S
C948 N946 1.356 . S
C949 C943 1.363 . S
C949 C944 1.379 . S
C949 N947 1.356 . S
N950 C942 1.356 . S
N950 H956 0.984 . S
N950 H957 0.984 . S
N951 C944 1.356 . S
N951 H954 0.984 . S
N951 H955 0.985 . S
H952 N947 0.984 . S
H953 N947 0.985 . S
H954 N951 0.984 . S
H955 N951 0.985 . S
H956 N950 0.984 . S
H957 N950 0.984 . S
H958 N946 0.984 . S
H959 N946 0.985 . S
C960 C961 1.363 . S
C960 C966 1.379 . S
C960 N968 1.356 . S
C961 C960 1.363 . S
C961 C967 1.363 . S
C962 C963 1.363 . S
C962 C967 1.379 . S
C962 N969 1.356 . S
C963 C962 1.363 . S
C963 C966 1.363 . S
N964 C966 1.356 . S
N964 H976 0.984 . S
N964 H977 0.985 . S
N965 C967 1.356 . S
N965 H970 0.984 . S
N965 H971 0.985 . S
C966 C960 1.379 . S
C966 C963 1.363 . S
C966 N964 1.356 . S
C967 C961 1.363 . S
C967 C962 1.379 . S
C967 N965 1.356 . S
N968 C960 1.356 . S
N968 H974 0.984 . S
N968 H975 0.984 . S
N969 C962 1.356 . S
N969 H972 0.984 . S
N969 H973 0.985 . S
H970 N965 0.984 . S
H971 N965 0.985 . S
H972 N969 0.984 . S
H973 N969 0.985 . S
H974 N968 0.984 . S
H975 N968 0.984 . S
H976 N964 0.984 . S
H977 N964 0.985 . S
C978 C979 1.363 . S
C978 C984 1.379 . S
C978 N986 1.356 . S
C979 C978 1.363 . S
C979 C985 1.363 . S
C980 C981 1.363 . S
C980 C985 1.379 . S
C980 N987 1.356 . S
C981 C980 1.363 . S
C981 C984 1.363 . S
N982 C984 1.356 . S
N982 H994 0.984 . S
N982 H995 0.985 . S
N983 C985 1.356 . S
N983 H988 0.984 . S
N983 H989 0.985 . S
C984 C978 1.379 . S
C984 C981 1.363 . S
C984 N982 1.356 . S
C985 C979 1.363 . S
C985 C980 1.379 . S
C985 N983 1.356 . S
N986 C978 1.356 . S
N986 H992 0.984 . S
N986 H993 0.984 . S
N987 C980 1.356 . S
N987 H990 0.984 . S
N987 H991 0.985 . S
H988 N983 0.984 . S
H989 N983 0.985 . S
H990 N987 0.984 . S
H991 N987 0.985 . S
H992 N986 0.984 . S
H993 N986 0.984 . S
H994 N982 0.984 . S
H995 N982 0.985 . S
C996 C997 1.363 . S
C996 C1002 1.379 . S
C996 N1004 1.356 . S
C997 C996 1.363 . S
C997 C1003 1.363 . S
C998 C999 1.363 . S
C998 C1003 1.379 . S
C998 N1005 1.356 . S
C999 C998 1.363 . S
C999 C1002 1.363 . S
N1000 C1002 1.356 . S
N1000 H1012 0.984 . S
N1000 H1013 0.985 . S
N1001 C1003 1.356 . S
N1001 H1006 0.984 . S
N1001 H1007 0.985 . S
C1002 C996 1.379 . S
C1002 C999 1.363 . S
C1002 N1000 1.356 . S
C1003 C997 1.363 . S
C1003 C998 1.379 . S
C1003 N1001 1.356 . S
N1004 C996 1.356 . S
N1004 H1010 0.984 . S
N1004 H1011 0.984 . S
N1005 C998 1.356 . S
N1005 H1008 0.984 . S
N1005 H1009 0.985 . S
H1006 N1001 0.984 . S
H1007 N1001 0.985 . S
H1008 N1005 0.984 . S
H1009 N1005 0.985 . S
H1010 N1004 0.984 . S
H1011 N1004 0.984 . S
H1012 N1000 0.984 . S
H1013 N1000 0.985 . S
C1014 C1015 1.363 . S
C1014 C1020 1.379 . S
C1014 N1022 1.356 . S
C1015 C1014 1.363 . S
C1015 C1021 1.363 . S
C1016 C1017 1.363 . S
C1016 C1021 1.379 . S
C1016 N1023 1.356 1_554 S
C1017 C1016 1.363 . S
C1017 C1020 1.363 . S
N1018 C1020 1.356 . S
N1018 H1030 0.984 . S
N1018 H1031 0.985 . S
N1019 C1021 1.356 . S
N1019 H1024 0.984 . S
N1019 H1025 0.985 1_554 S
C1020 C1014 1.379 . S
C1020 C1017 1.363 . S
C1020 N1018 1.356 . S
C1021 C1015 1.363 . S
C1021 C1016 1.379 . S
C1021 N1019 1.356 . S
N1022 C1014 1.356 . S
N1022 H1028 0.984 . S
N1022 H1029 0.984 . S
N1023 C1016 1.356 1_556 S
N1023 H1026 0.984 . S
N1023 H1027 0.985 . S
H1024 N1019 0.984 . S
H1025 N1019 0.985 1_556 S
H1026 N1023 0.984 . S
H1027 N1023 0.985 . S
H1028 N1022 0.984 . S
H1029 N1022 0.984 . S
H1030 N1018 0.984 . S
H1031 N1018 0.985 . S
C1032 C1033 1.363 . S
C1032 C1038 1.379 . S
C1032 N1040 1.356 . S
C1033 C1032 1.363 . S
C1033 C1039 1.363 . S
C1034 C1035 1.363 . S
C1034 C1039 1.379 . S
C1034 N1041 1.356 . S
C1035 C1034 1.363 . S
C1035 C1038 1.363 . S
N1036 C1038 1.356 . S
N1036 H1048 0.984 . S
N1036 H1049 0.985 . S
N1037 C1039 1.356 . S
N1037 H1042 0.984 . S
N1037 H1043 0.985 . S
C1038 C1032 1.379 . S
C1038 C1035 1.363 . S
C1038 N1036 1.356 . S
C1039 C1033 1.363 . S
C1039 C1034 1.379 . S
C1039 N1037 1.356 . S
N1040 C1032 1.356 . S
N1040 H1046 0.984 . S
N1040 H1047 0.984 . S
N1041 C1034 1.356 . S
N1041 H1044 0.984 . S
N1041 H1045 0.985 . S
H1042 N1037 0.984 . S
H1043 N1037 0.985 . S
H1044 N1041 0.984 . S
H1045 N1041 0.985 . S
H1046 N1040 0.984 . S
H1047 N1040 0.984 . S
H1048 N1036 0.984 . S
H1049 N1036 0.985 . S
C1050 C1051 1.363 . S
C1050 C1056 1.379 . S
C1050 N1058 1.356 . S
C1051 C1050 1.363 . S
C1051 C1057 1.363 . S
C1052 C1053 1.363 . S
C1052 C1057 1.379 . S
C1052 N1059 1.356 . S
C1053 C1052 1.363 . S
C1053 C1056 1.363 . S
N1054 C1056 1.356 . S
N1054 H1066 0.984 . S
N1054 H1067 0.985 . S
N1055 C1057 1.356 . S
N1055 H1060 0.984 . S
N1055 H1061 0.985 . S
C1056 C1050 1.379 . S
C1056 C1053 1.363 . S
C1056 N1054 1.356 . S
C1057 C1051 1.363 . S
C1057 C1052 1.379 . S
C1057 N1055 1.356 . S
N1058 C1050 1.356 . S
N1058 H1064 0.984 . S
N1058 H1065 0.984 . S
N1059 C1052 1.356 . S
N1059 H1062 0.984 . S
N1059 H1063 0.985 . S
H1060 N1055 0.984 . S
H1061 N1055 0.985 . S
H1062 N1059 0.984 . S
H1063 N1059 0.985 . S
H1064 N1058 0.984 . S
H1065 N1058 0.984 . S
H1066 N1054 0.984 . S
H1067 N1054 0.985 . S
C1068 C1069 1.363 . S
C1068 C1074 1.379 . S
C1068 N1076 1.356 . S
C1069 C1068 1.363 . S
C1069 C1075 1.363 . S
C1070 C1071 1.363 . S
C1070 C1075 1.379 . S
C1070 N1077 1.356 1_554 S
C1071 C1070 1.363 . S
C1071 C1074 1.363 . S
N1072 C1074 1.356 . S
N1072 H1084 0.984 . S
N1072 H1085 0.985 . S
N1073 C1075 1.356 . S
N1073 H1078 0.984 . S
N1073 H1079 0.985 . S
C1074 C1068 1.379 . S
C1074 C1071 1.363 . S
C1074 N1072 1.356 . S
C1075 C1069 1.363 . S
C1075 C1070 1.379 . S
C1075 N1073 1.356 . S
N1076 C1068 1.356 . S
N1076 H1082 0.984 . S
N1076 H1083 0.984 . S
N1077 C1070 1.356 1_556 S
N1077 H1080 0.984 . S
N1077 H1081 0.985 . S
H1078 N1073 0.984 . S
H1079 N1073 0.985 . S
H1080 N1077 0.984 . S
H1081 N1077 0.985 . S
H1082 N1076 0.984 . S
H1083 N1076 0.984 . S
H1084 N1072 0.984 . S
H1085 N1072 0.985 . S
C1086 C1087 1.363 . S
C1086 C1092 1.379 . S
C1086 N1094 1.356 . S
C1087 C1086 1.363 . S
C1087 C1093 1.363 . S
C1088 C1089 1.363 . S
C1088 C1093 1.379 . S
C1088 N1095 1.356 . S
C1089 C1088 1.363 . S
C1089 C1092 1.363 . S
N1090 C1092 1.356 . S
N1090 H1102 0.984 . S
N1090 H1103 0.985 . S
N1091 C1093 1.356 . S
N1091 H1096 0.984 . S
N1091 H1097 0.985 . S
C1092 C1086 1.379 . S
C1092 C1089 1.363 . S
C1092 N1090 1.356 . S
C1093 C1087 1.363 . S
C1093 C1088 1.379 . S
C1093 N1091 1.356 . S
N1094 C1086 1.356 . S
N1094 H1100 0.984 . S
N1094 H1101 0.984 . S
N1095 C1088 1.356 . S
N1095 H1098 0.984 . S
N1095 H1099 0.985 . S
H1096 N1091 0.984 . S
H1097 N1091 0.985 . S
H1098 N1095 0.984 . S
H1099 N1095 0.985 . S
H1100 N1094 0.984 . S
H1101 N1094 0.984 . S
H1102 N1090 0.984 . S
H1103 N1090 0.985 . S
C1104 C1105 1.363 . S
C1104 C1110 1.379 . S
C1104 N1112 1.356 . S
C1105 C1104 1.363 . S
C1105 C1111 1.363 . S
C1106 C1107 1.363 . S
C1106 C1111 1.379 . S
C1106 N1113 1.356 1_556 S
C1107 C1106 1.363 . S
C1107 C1110 1.363 . S
N1108 C1110 1.356 . S
N1108 H1120 0.984 . S
N1108 H1121 0.985 . S
N1109 C1111 1.356 . S
N1109 H1114 0.984 . S
N1109 H1115 0.985 1_556 S
C1110 C1104 1.379 . S
C1110 C1107 1.363 . S
C1110 N1108 1.356 . S
C1111 C1105 1.363 . S
C1111 C1106 1.379 . S
C1111 N1109 1.356 . S
N1112 C1104 1.356 . S
N1112 H1118 0.984 . S
N1112 H1119 0.984 . S
N1113 C1106 1.356 1_554 S
N1113 H1116 0.984 . S
N1113 H1117 0.985 . S
H1114 N1109 0.984 . S
H1115 N1109 0.985 1_554 S
H1116 N1113 0.984 . S
H1117 N1113 0.985 . S
H1118 N1112 0.984 . S
H1119 N1112 0.984 . S
H1120 N1108 0.984 . S
H1121 N1108 0.985 . S
C1122 C1123 1.363 . S
C1122 C1128 1.379 . S
C1122 N1130 1.356 . S
C1123 C1122 1.363 . S
C1123 C1129 1.363 . S
C1124 C1125 1.363 . S
C1124 C1129 1.379 . S
C1124 N1131 1.356 1_556 S
C1125 C1124 1.363 . S
C1125 C1128 1.363 . S
N1126 C1128 1.356 . S
N1126 H1138 0.984 . S
N1126 H1139 0.985 . S
N1127 C1129 1.356 . S
N1127 H1132 0.984 . S
N1127 H1133 0.985 . S
C1128 C1122 1.379 . S
C1128 C1125 1.363 . S
C1128 N1126 1.356 . S
C1129 C1123 1.363 . S
C1129 C1124 1.379 . S
C1129 N1127 1.356 . S
N1130 C1122 1.356 . S
N1130 H1136 0.984 . S
N1130 H1137 0.984 . S
N1131 C1124 1.356 1_554 S
N1131 H1134 0.984 . S
N1131 H1135 0.985 . S
H1132 N1127 0.984 . S
H1133 N1127 0.985 . S
H1134 N1131 0.984 . S
H1135 N1131 0.985 . S
H1136 N1130 0.984 . S
H1137 N1130 0.984 . S
H1138 N1126 0.984 . S
H1139 N1126 0.985 . S
C1140 C1141 1.363 . S
C1140 C1146 1.379 . S
C1140 N1148 1.356 . S
C1141 C1140 1.363 . S
C1141 C1147 1.363 . S
C1142 C1143 1.363 . S
C1142 C1147 1.379 . S
C1142 N1149 1.356 . S
C1143 C1142 1.363 . S
C1143 C1146 1.363 . S
N1144 C1146 1.356 . S
N1144 H1156 0.984 . S
N1144 H1157 0.985 . S
N1145 C1147 1.356 . S
N1145 H1150 0.984 . S
N1145 H1151 0.985 . S
C1146 C1140 1.379 . S
C1146 C1143 1.363 . S
C1146 N1144 1.356 . S
C1147 C1141 1.363 . S
C1147 C1142 1.379 . S
C1147 N1145 1.356 . S
N1148 C1140 1.356 . S
N1148 H1154 0.984 . S
N1148 H1155 0.984 . S
N1149 C1142 1.356 . S
N1149 H1152 0.984 . S
N1149 H1153 0.985 . S
H1150 N1145 0.984 . S
H1151 N1145 0.985 . S
H1152 N1149 0.984 . S
H1153 N1149 0.985 . S
H1154 N1148 0.984 . S
H1155 N1148 0.984 . S
H1156 N1144 0.984 . S
H1157 N1144 0.985 . S
C1158 C1159 1.363 . S
C1158 C1164 1.379 . S
C1158 N1166 1.356 . S
C1159 C1158 1.363 . S
C1159 C1165 1.363 . S
C1160 C1161 1.363 . S
C1160 C1165 1.379 . S
C1160 N1167 1.356 . S
C1161 C1160 1.363 . S
C1161 C1164 1.363 . S
N1162 C1164 1.356 . S
N1162 H1174 0.984 . S
N1162 H1175 0.985 . S
N1163 C1165 1.356 . S
N1163 H1168 0.984 . S
N1163 H1169 0.985 . S
C1164 C1158 1.379 . S
C1164 C1161 1.363 . S
C1164 N1162 1.356 . S
C1165 C1159 1.363 . S
C1165 C1160 1.379 . S
C1165 N1163 1.356 . S
N1166 C1158 1.356 . S
N1166 H1172 0.984 . S
N1166 H1173 0.984 . S
N1167 C1160 1.356 . S
N1167 H1170 0.984 . S
N1167 H1171 0.985 . S
H1168 N1163 0.984 . S
H1169 N1163 0.985 . S
H1170 N1167 0.984 . S
H1171 N1167 0.985 . S
H1172 N1166 0.984 . S
H1173 N1166 0.984 . S
H1174 N1162 0.984 . S
H1175 N1162 0.985 . S
C1176 C1177 1.363 . S
C1176 C1182 1.379 . S
C1176 N1184 1.356 . S
C1177 C1176 1.363 . S
C1177 C1183 1.363 . S
C1178 C1179 1.363 . S
C1178 C1183 1.379 . S
C1178 N1185 1.356 . S
C1179 C1178 1.363 . S
C1179 C1182 1.363 . S
N1180 C1182 1.356 . S
N1180 H1192 0.984 . S
N1180 H1193 0.985 . S
N1181 C1183 1.356 . S
N1181 H1186 0.984 . S
N1181 H1187 0.985 . S
C1182 C1176 1.379 . S
C1182 C1179 1.363 . S
C1182 N1180 1.356 . S
C1183 C1177 1.363 . S
C1183 C1178 1.379 . S
C1183 N1181 1.356 . S
N1184 C1176 1.356 . S
N1184 H1190 0.984 . S
N1184 H1191 0.984 . S
N1185 C1178 1.356 . S
N1185 H1188 0.984 . S
N1185 H1189 0.985 . S
H1186 N1181 0.984 . S
H1187 N1181 0.985 . S
H1188 N1185 0.984 . S
H1189 N1185 0.985 . S
H1190 N1184 0.984 . S
H1191 N1184 0.984 . S
H1192 N1180 0.984 . S
H1193 N1180 0.985 . S
C1194 C1195 1.363 . S
C1194 C1200 1.379 . S
C1194 N1202 1.356 . S
C1195 C1194 1.363 . S
C1195 C1201 1.363 . S
C1196 C1197 1.363 . S
C1196 C1201 1.379 . S
C1196 N1203 1.356 . S
C1197 C1196 1.363 . S
C1197 C1200 1.363 . S
N1198 C1200 1.356 . S
N1198 H1210 0.984 . S
N1198 H1211 0.985 . S
N1199 C1201 1.356 . S
N1199 H1204 0.984 . S
N1199 H1205 0.985 . S
C1200 C1194 1.379 . S
C1200 C1197 1.363 . S
C1200 N1198 1.356 . S
C1201 C1195 1.363 . S
C1201 C1196 1.379 . S
C1201 N1199 1.356 . S
N1202 C1194 1.356 . S
N1202 H1208 0.984 . S
N1202 H1209 0.984 . S
N1203 C1196 1.356 . S
N1203 H1206 0.984 . S
N1203 H1207 0.985 . S
H1204 N1199 0.984 . S
H1205 N1199 0.985 . S
H1206 N1203 0.984 . S
H1207 N1203 0.985 . S
H1208 N1202 0.984 . S
H1209 N1202 0.984 . S
H1210 N1198 0.984 . S
H1211 N1198 0.985 . S
C1212 C1213 1.363 . S
C1212 C1218 1.379 . S
C1212 N1220 1.356 . S
C1213 C1212 1.363 . S
C1213 C1219 1.363 . S
C1214 C1215 1.363 . S
C1214 C1219 1.379 . S
C1214 N1221 1.356 . S
C1215 C1214 1.363 . S
C1215 C1218 1.363 . S
N1216 C1218 1.356 1_554 S
N1216 H1228 0.984 . S
N1216 H1229 0.985 . S
N1217 C1219 1.356 . S
N1217 H1222 0.984 . S
N1217 H1223 0.985 . S
C1218 C1212 1.379 . S
C1218 C1215 1.363 . S
C1218 N1216 1.356 1_556 S
C1219 C1213 1.363 . S
C1219 C1214 1.379 . S
C1219 N1217 1.356 . S
N1220 C1212 1.356 . S
N1220 H1226 0.984 . S
N1220 H1227 0.984 . S
N1221 C1214 1.356 . S
N1221 H1224 0.984 . S
N1221 H1225 0.985 . S
H1222 N1217 0.984 . S
H1223 N1217 0.985 . S
H1224 N1221 0.984 . S
H1225 N1221 0.985 . S
H1226 N1220 0.984 . S
H1227 N1220 0.984 . S
H1228 N1216 0.984 . S
H1229 N1216 0.985 . S
C1230 C1231 1.363 . S
C1230 C1236 1.379 . S
C1230 N1238 1.356 . S
C1231 C1230 1.363 . S
C1231 C1237 1.363 . S
C1232 C1233 1.363 . S
C1232 C1237 1.379 . S
C1232 N1239 1.356 1_556 S
C1233 C1232 1.363 . S
C1233 C1236 1.363 . S
N1234 C1236 1.356 . S
N1234 H1246 0.984 . S
N1234 H1247 0.985 . S
N1235 C1237 1.356 . S
N1235 H1240 0.984 . S
N1235 H1241 0.985 1_556 S
C1236 C1230 1.379 . S
C1236 C1233 1.363 . S
C1236 N1234 1.356 . S
C1237 C1231 1.363 . S
C1237 C1232 1.379 . S
C1237 N1235 1.356 . S
N1238 C1230 1.356 . S
N1238 H1244 0.984 . S
N1238 H1245 0.984 . S
N1239 C1232 1.356 1_554 S
N1239 H1242 0.984 . S
N1239 H1243 0.985 . S
H1240 N1235 0.984 . S
H1241 N1235 0.985 1_554 S
H1242 N1239 0.984 . S
H1243 N1239 0.985 . S
H1244 N1238 0.984 . S
H1245 N1238 0.984 . S
H1246 N1234 0.984 . S
H1247 N1234 0.985 . S
C1248 C1249 1.363 . S
C1248 C1254 1.379 . S
C1248 N1256 1.356 . S
C1249 C1248 1.363 . S
C1249 C1255 1.363 . S
C1250 C1251 1.363 . S
C1250 C1255 1.379 . S
C1250 N1257 1.356 . S
C1251 C1250 1.363 . S
C1251 C1254 1.363 . S
N1252 C1254 1.356 . S
N1252 H1264 0.984 1_554 S
N1252 H1265 0.985 . S
N1253 C1255 1.356 . S
N1253 H1258 0.984 . S
N1253 H1259 0.985 . S
C1254 C1248 1.379 . S
C1254 C1251 1.363 . S
C1254 N1252 1.356 . S
C1255 C1249 1.363 . S
C1255 C1250 1.379 . S
C1255 N1253 1.356 . S
N1256 C1248 1.356 . S
N1256 H1262 0.984 . S
N1256 H1263 0.984 . S
N1257 C1250 1.356 . S
N1257 H1260 0.984 . S
N1257 H1261 0.985 . S
H1258 N1253 0.984 . S
H1259 N1253 0.985 . S
H1260 N1257 0.984 . S
H1261 N1257 0.985 . S
H1262 N1256 0.984 . S
H1263 N1256 0.984 . S
H1264 N1252 0.984 1_556 S
H1265 N1252 0.985 . S
C1266 C1267 1.363 . S
C1266 C1272 1.379 . S
C1266 N1274 1.356 . S
C1267 C1266 1.363 . S
C1267 C1273 1.363 . S
C1268 C1269 1.363 . S
C1268 C1273 1.379 . S
C1268 N1275 1.356 . S
C1269 C1268 1.363 . S
C1269 C1272 1.363 . S
N1270 C1272 1.356 . S
N1270 H1282 0.984 . S
N1270 H1283 0.985 . S
N1271 C1273 1.356 . S
N1271 H1276 0.984 . S
N1271 H1277 0.985 . S
C1272 C1266 1.379 . S
C1272 C1269 1.363 . S
C1272 N1270 1.356 . S
C1273 C1267 1.363 . S
C1273 C1268 1.379 . S
C1273 N1271 1.356 . S
N1274 C1266 1.356 . S
N1274 H1280 0.984 . S
N1274 H1281 0.984 . S
N1275 C1268 1.356 . S
N1275 H1278 0.984 . S
N1275 H1279 0.985 . S
H1276 N1271 0.984 . S
H1277 N1271 0.985 . S
H1278 N1275 0.984 . S
H1279 N1275 0.985 . S
H1280 N1274 0.984 . S
H1281 N1274 0.984 . S
H1282 N1270 0.984 . S
H1283 N1270 0.985 . S
C1284 C1285 1.363 . S
C1284 C1290 1.379 . S
C1284 N1292 1.356 . S
C1285 C1284 1.363 . S
C1285 C1291 1.363 . S
C1286 C1287 1.363 . S
C1286 C1291 1.379 . S
C1286 N1293 1.356 . S
C1287 C1286 1.363 . S
C1287 C1290 1.363 . S
N1288 C1290 1.356 . S
N1288 H1300 0.984 1_554 S
N1288 H1301 0.985 . S
N1289 C1291 1.356 . S
N1289 H1294 0.984 . S
N1289 H1295 0.985 . S
C1290 C1284 1.379 . S
C1290 C1287 1.363 . S
C1290 N1288 1.356 . S
C1291 C1285 1.363 . S
C1291 C1286 1.379 . S
C1291 N1289 1.356 . S
N1292 C1284 1.356 . S
N1292 H1298 0.984 . S
N1292 H1299 0.984 . S
N1293 C1286 1.356 . S
N1293 H1296 0.984 . S
N1293 H1297 0.985 . S
H1294 N1289 0.984 . S
H1295 N1289 0.985 . S
H1296 N1293 0.984 . S
H1297 N1293 0.985 . S
H1298 N1292 0.984 . S
H1299 N1292 0.984 . S
H1300 N1288 0.984 1_556 S
H1301 N1288 0.985 . S
C1302 C1303 1.363 . S
C1302 C1308 1.379 . S
C1302 N1310 1.356 . S
C1303 C1302 1.363 . S
C1303 C1309 1.363 . S
C1304 C1305 1.363 . S
C1304 C1309 1.379 . S
C1304 N1311 1.356 . S
C1305 C1304 1.363 . S
C1305 C1308 1.363 . S
N1306 C1308 1.356 . S
N1306 H1318 0.984 . S
N1306 H1319 0.985 . S
N1307 C1309 1.356 . S
N1307 H1312 0.984 . S
N1307 H1313 0.985 . S
C1308 C1302 1.379 . S
C1308 C1305 1.363 . S
C1308 N1306 1.356 . S
C1309 C1303 1.363 . S
C1309 C1304 1.379 . S
C1309 N1307 1.356 . S
N1310 C1302 1.356 . S
N1310 H1316 0.984 . S
N1310 H1317 0.984 . S
N1311 C1304 1.356 . S
N1311 H1314 0.984 . S
N1311 H1315 0.985 . S
H1312 N1307 0.984 . S
H1313 N1307 0.985 . S
H1314 N1311 0.984 . S
H1315 N1311 0.985 . S
H1316 N1310 0.984 . S
H1317 N1310 0.984 . S
H1318 N1306 0.984 . S
H1319 N1306 0.985 . S
C1320 C1321 1.363 . S
C1320 C1326 1.379 . S
C1320 N1328 1.356 . S
C1321 C1320 1.363 . S
C1321 C1327 1.363 . S
C1322 C1323 1.363 . S
C1322 C1327 1.379 . S
C1322 N1329 1.356 . S
C1323 C1322 1.363 . S
C1323 C1326 1.363 . S
N1324 C1326 1.356 . S
N1324 H1336 0.984 . S
N1324 H1337 0.985 . S
N1325 C1327 1.356 1_554 S
N1325 H1330 0.984 . S
N1325 H1331 0.985 . S
C1326 C1320 1.379 . S
C1326 C1323 1.363 . S
C1326 N1324 1.356 . S
C1327 C1321 1.363 . S
C1327 C1322 1.379 . S
C1327 N1325 1.356 1_556 S
N1328 C1320 1.356 . S
N1328 H1334 0.984 . S
N1328 H1335 0.984 . S
N1329 C1322 1.356 . S
N1329 H1332 0.984 . S
N1329 H1333 0.985 1_556 S
H1330 N1325 0.984 . S
H1331 N1325 0.985 . S
H1332 N1329 0.984 . S
H1333 N1329 0.985 1_554 S
H1334 N1328 0.984 . S
H1335 N1328 0.984 . S
H1336 N1324 0.984 . S
H1337 N1324 0.985 . S
C1338 C1339 1.363 . S
C1338 C1344 1.379 . S
C1338 N1346 1.356 . S
C1339 C1338 1.363 . S
C1339 C1345 1.363 . S
C1340 C1341 1.363 . S
C1340 C1345 1.379 . S
C1340 N1347 1.356 . S
C1341 C1340 1.363 . S
C1341 C1344 1.363 . S
N1342 C1344 1.356 . S
N1342 H1354 0.984 . S
N1342 H1355 0.985 . S
N1343 C1345 1.356 . S
N1343 H1348 0.984 . S
N1343 H1349 0.985 . S
C1344 C1338 1.379 . S
C1344 C1341 1.363 . S
C1344 N1342 1.356 . S
C1345 C1339 1.363 . S
C1345 C1340 1.379 . S
C1345 N1343 1.356 . S
N1346 C1338 1.356 . S
N1346 H1352 0.984 . S
N1346 H1353 0.984 . S
N1347 C1340 1.356 . S
N1347 H1350 0.984 . S
N1347 H1351 0.985 . S
H1348 N1343 0.984 . S
H1349 N1343 0.985 . S
H1350 N1347 0.984 . S
H1351 N1347 0.985 . S
H1352 N1346 0.984 . S
H1353 N1346 0.984 . S
H1354 N1342 0.984 . S
H1355 N1342 0.985 . S
C1356 C1357 1.363 . S
C1356 C1362 1.379 . S
C1356 N1364 1.356 . S
C1357 C1356 1.363 . S
C1357 C1363 1.363 . S
C1358 C1359 1.363 . S
C1358 C1363 1.379 . S
C1358 N1365 1.356 . S
C1359 C1358 1.363 . S
C1359 C1362 1.363 . S
N1360 C1362 1.356 . S
N1360 H1372 0.984 . S
N1360 H1373 0.985 . S
N1361 C1363 1.356 . S
N1361 H1366 0.984 . S
N1361 H1367 0.985 . S
C1362 C1356 1.379 . S
C1362 C1359 1.363 . S
C1362 N1360 1.356 . S
C1363 C1357 1.363 . S
C1363 C1358 1.379 . S
C1363 N1361 1.356 . S
N1364 C1356 1.356 . S
N1364 H1370 0.984 . S
N1364 H1371 0.984 . S
N1365 C1358 1.356 . S
N1365 H1368 0.984 . S
N1365 H1369 0.985 . S
H1366 N1361 0.984 . S
H1367 N1361 0.985 . S
H1368 N1365 0.984 . S
H1369 N1365 0.985 . S
H1370 N1364 0.984 . S
H1371 N1364 0.984 . S
H1372 N1360 0.984 . S
H1373 N1360 0.985 . S
C1374 C1375 1.363 . S
C1374 C1380 1.379 . S
C1374 N1382 1.356 . S
C1375 C1374 1.363 . S
C1375 C1381 1.363 . S
C1376 C1377 1.363 . S
C1376 C1381 1.379 . S
C1376 N1383 1.356 . S
C1377 C1376 1.363 . S
C1377 C1380 1.363 . S
N1378 C1380 1.356 . S
N1378 H1390 0.984 . S
N1378 H1391 0.985 . S
N1379 C1381 1.356 . S
N1379 H1384 0.984 . S
N1379 H1385 0.985 . S
C1380 C1374 1.379 . S
C1380 C1377 1.363 . S
C1380 N1378 1.356 . S
C1381 C1375 1.363 . S
C1381 C1376 1.379 . S
C1381 N1379 1.356 . S
N1382 C1374 1.356 . S
N1382 H1388 0.984 . S
N1382 H1389 0.984 . S
N1383 C1376 1.356 . S
N1383 H1386 0.984 . S
N1383 H1387 0.985 . S
H1384 N1379 0.984 . S
H1385 N1379 0.985 . S
H1386 N1383 0.984 . S
H1387 N1383 0.985 . S
H1388 N1382 0.984 . S
H1389 N1382 0.984 . S
H1390 N1378 0.984 . S
H1391 N1378 0.985 . S
C1392 C1393 1.363 . S
C1392 C1398 1.379 . S
C1392 N1400 1.356 . S
C1393 C1392 1.363 . S
C1393 C1399 1.363 . S
C1394 C1395 1.363 . S
C1394 C1399 1.379 . S
C1394 N1401 1.356 . S
C1395 C1394 1.363 . S
C1395 C1398 1.363 . S
N1396 C1398 1.356 . S
N1396 H1408 0.984 . S
N1396 H1409 0.985 . S
N1397 C1399 1.356 . S
N1397 H1402 0.984 . S
N1397 H1403 0.985 . S
C1398 C1392 1.379 . S
C1398 C1395 1.363 . S
C1398 N1396 1.356 . S
C1399 C1393 1.363 . S
C1399 C1394 1.379 . S
C1399 N1397 1.356 . S
N1400 C1392 1.356 . S
N1400 H1406 0.984 . S
N1400 H1407 0.984 . S
N1401 C1394 1.356 . S
N1401 H1404 0.984 . S
N1401 H1405 0.985 . S
H1402 N1397 0.984 . S
H1403 N1397 0.985 . S
H1404 N1401 0.984 . S
H1405 N1401 0.985 . S
H1406 N1400 0.984 . S
H1407 N1400 0.984 . S
H1408 N1396 0.984 . S
H1409 N1396 0.985 . S
C1410 C1411 1.363 . S
C1410 C1416 1.379 . S
C1410 N1418 1.356 . S
C1411 C1410 1.363 . S
C1411 C1417 1.363 . S
C1412 C1413 1.363 . S
C1412 C1417 1.379 . S
C1412 N1419 1.356 1_554 S
C1413 C1412 1.363 . S
C1413 C1416 1.363 . S
N1414 C1416 1.356 . S
N1414 H1426 0.984 . S
N1414 H1427 0.985 . S
N1415 C1417 1.356 . S
N1415 H1420 0.984 . S
N1415 H1421 0.985 . S
C1416 C1410 1.379 . S
C1416 C1413 1.363 . S
C1416 N1414 1.356 . S
C1417 C1411 1.363 . S
C1417 C1412 1.379 . S
C1417 N1415 1.356 . S
N1418 C1410 1.356 . S
N1418 H1424 0.984 . S
N1418 H1425 0.984 . S
N1419 C1412 1.356 1_556 S
N1419 H1422 0.984 . S
N1419 H1423 0.985 . S
H1420 N1415 0.984 . S
H1421 N1415 0.985 . S
H1422 N1419 0.984 . S
H1423 N1419 0.985 . S
H1424 N1418 0.984 . S
H1425 N1418 0.984 . S
H1426 N1414 0.984 . S
H1427 N1414 0.985 . S
C1428 C1429 1.363 . S
C1428 C1434 1.379 . S
C1428 N1436 1.356 . S
C1429 C1428 1.363 . S
C1429 C1435 1.363 . S
C1430 C1431 1.363 . S
C1430 C1435 1.379 . S
C1430 N1437 1.356 . S
C1431 C1430 1.363 . S
C1431 C1434 1.363 . S
N1432 C1434 1.356 . S
N1432 H1444 0.984 . S
N1432 H1445 0.985 . S
N1433 C1435 1.356 . S
N1433 H1438 0.984 . S
N1433 H1439 0.985 . S
C1434 C1428 1.379 . S
C1434 C1431 1.363 . S
C1434 N1432 1.356 . S
C1435 C1429 1.363 . S
C1435 C1430 1.379 . S
C1435 N1433 1.356 . S
N1436 C1428 1.356 . S
N1436 H1442 0.984 . S
N1436 H1443 0.984 . S
N1437 C1430 1.356 . S
N1437 H1440 0.984 . S
N1437 H1441 0.985 . S
H1438 N1433 0.984 . S
H1439 N1433 0.985 . S
H1440 N1437 0.984 . S
H1441 N1437 0.985 . S
H1442 N1436 0.984 . S
H1443 N1436 0.984 . S
H1444 N1432 0.984 . S
H1445 N1432 0.985 . S
C1446 C1447 1.363 . S
C1446 C1452 1.379 . S
C1446 N1454 1.356 . S
C1447 C1446 1.363 . S
C1447 C1453 1.363 . S
C1448 C1449 1.363 . S
C1448 C1453 1.379 . S
C1448 N1455 1.356 . S
C1449 C1448 1.363 . S
C1449 C1452 1.363 . S
N1450 C1452 1.356 . S
N1450 H1462 0.984 . S
N1450 H1463 0.985 . S
N1451 C1453 1.356 . S
N1451 H1456 0.984 . S
N1451 H1457 0.985 . S
C1452 C1446 1.379 . S
C1452 C1449 1.363 . S
C1452 N1450 1.356 . S
C1453 C1447 1.363 . S
C1453 C1448 1.379 . S
C1453 N1451 1.356 . S
N1454 C1446 1.356 . S
N1454 H1460 0.984 . S
N1454 H1461 0.984 . S
N1455 C1448 1.356 . S
N1455 H1458 0.984 . S
N1455 H1459 0.985 . S
H1456 N1451 0.984 . S
H1457 N1451 0.985 . S
H1458 N1455 0.984 . S
H1459 N1455 0.985 . S
H1460 N1454 0.984 . S
H1461 N1454 0.984 . S
H1462 N1450 0.984 . S
H1463 N1450 0.985 . S
C1464 C1465 1.363 . S
C1464 C1470 1.379 . S
C1464 N1472 1.356 . S
C1465 C1464 1.363 . S
C1465 C1471 1.363 . S
C1466 C1467 1.363 . S
C1466 C1471 1.379 . S
C1466 N1473 1.356 . S
C1467 C1466 1.363 . S
C1467 C1470 1.363 . S
N1468 C1470 1.356 . S
N1468 H1480 0.984 . S
N1468 H1481 0.985 . S
N1469 C1471 1.356 . S
N1469 H1474 0.984 . S
N1469 H1475 0.985 . S
C1470 C1464 1.379 . S
C1470 C1467 1.363 . S
C1470 N1468 1.356 . S
C1471 C1465 1.363 . S
C1471 C1466 1.379 . S
C1471 N1469 1.356 . S
N1472 C1464 1.356 . S
N1472 H1478 0.984 . S
N1472 H1479 0.984 . S
N1473 C1466 1.356 . S
N1473 H1476 0.984 . S
N1473 H1477 0.985 . S
H1474 N1469 0.984 . S
H1475 N1469 0.985 . S
H1476 N1473 0.984 . S
H1477 N1473 0.985 . S
H1478 N1472 0.984 . S
H1479 N1472 0.984 . S
H1480 N1468 0.984 . S
H1481 N1468 0.985 . S
C1482 C1483 1.363 . S
C1482 C1488 1.379 . S
C1482 N1490 1.356 . S
C1483 C1482 1.363 . S
C1483 C1489 1.363 . S
C1484 C1485 1.363 . S
C1484 C1489 1.379 . S
C1484 N1491 1.356 . S
C1485 C1484 1.363 . S
C1485 C1488 1.363 . S
N1486 C1488 1.356 . S
N1486 H1498 0.984 . S
N1486 H1499 0.985 . S
N1487 C1489 1.356 . S
N1487 H1492 0.984 . S
N1487 H1493 0.985 . S
C1488 C1482 1.379 . S
C1488 C1485 1.363 . S
C1488 N1486 1.356 . S
C1489 C1483 1.363 . S
C1489 C1484 1.379 . S
C1489 N1487 1.356 . S
N1490 C1482 1.356 . S
N1490 H1496 0.984 . S
N1490 H1497 0.984 . S
N1491 C1484 1.356 . S
N1491 H1494 0.984 . S
N1491 H1495 0.985 . S
H1492 N1487 0.984 . S
H1493 N1487 0.985 . S
H1494 N1491 0.984 . S
H1495 N1491 0.985 . S
H1496 N1490 0.984 . S
H1497 N1490 0.984 . S
H1498 N1486 0.984 . S
H1499 N1486 0.985 . S
C1500 C1501 1.363 . S
C1500 C1506 1.379 . S
C1500 N1508 1.356 . S
C1501 C1500 1.363 . S
C1501 C1507 1.363 . S
C1502 C1503 1.363 . S
C1502 C1507 1.379 . S
C1502 N1509 1.356 . S
C1503 C1502 1.363 . S
C1503 C1506 1.363 . S
N1504 C1506 1.356 . S
N1504 H1516 0.984 . S
N1504 H1517 0.985 . S
N1505 C1507 1.356 . S
N1505 H1510 0.984 . S
N1505 H1511 0.985 . S
C1506 C1500 1.379 . S
C1506 C1503 1.363 . S
C1506 N1504 1.356 . S
C1507 C1501 1.363 . S
C1507 C1502 1.379 . S
C1507 N1505 1.356 . S
N1508 C1500 1.356 . S
N1508 H1514 0.984 . S
N1508 H1515 0.984 . S
N1509 C1502 1.356 . S
N1509 H1512 0.984 . S
N1509 H1513 0.985 . S
H1510 N1505 0.984 . S
H1511 N1505 0.985 . S
H1512 N1509 0.984 . S
H1513 N1509 0.985 . S
H1514 N1508 0.984 . S
H1515 N1508 0.984 . S
H1516 N1504 0.984 . S
H1517 N1504 0.985 . S
C1518 C1519 1.363 . S
C1518 C1524 1.379 . S
C1518 N1526 1.356 . S
C1519 C1518 1.363 . S
C1519 C1525 1.363 . S
C1520 C1521 1.363 . S
C1520 C1525 1.379 . S
C1520 N1527 1.356 . S
C1521 C1520 1.363 . S
C1521 C1524 1.363 . S
N1522 C1524 1.356 . S
N1522 H1534 0.984 . S
N1522 H1535 0.985 . S
N1523 C1525 1.356 . S
N1523 H1528 0.984 . S
N1523 H1529 0.985 . S
C1524 C1518 1.379 . S
C1524 C1521 1.363 . S
C1524 N1522 1.356 . S
C1525 C1519 1.363 . S
C1525 C1520 1.379 . S
C1525 N1523 1.356 . S
N1526 C1518 1.356 . S
N1526 H1532 0.984 . S
N1526 H1533 0.984 . S
N1527 C1520 1.356 . S
N1527 H1530 0.984 . S
N1527 H1531 0.985 . S
H1528 N1523 0.984 . S
H1529 N1523 0.985 . S
H1530 N1527 0.984 . S
H1531 N1527 0.985 . S
H1532 N1526 0.984 . S
H1533 N1526 0.984 . S
H1534 N1522 0.984 . S
H1535 N1522 0.985 . S
C1536 C1537 1.363 . S
C1536 C1542 1.379 . S
C1536 N1544 1.356 . S
C1537 C1536 1.363 . S
C1537 C1543 1.363 . S
C1538 C1539 1.363 . S
C1538 C1543 1.379 . S
C1538 N1545 1.356 . S
C1539 C1538 1.363 . S
C1539 C1542 1.363 . S
N1540 C1542 1.356 . S
N1540 H1552 0.984 . S
N1540 H1553 0.985 . S
N1541 C1543 1.356 . S
N1541 H1546 0.984 . S
N1541 H1547 0.985 . S
C1542 C1536 1.379 . S
C1542 C1539 1.363 . S
C1542 N1540 1.356 . S
C1543 C1537 1.363 . S
C1543 C1538 1.379 . S
C1543 N1541 1.356 . S
N1544 C1536 1.356 . S
N1544 H1550 0.984 . S
N1544 H1551 0.984 . S
N1545 C1538 1.356 . S
N1545 H1548 0.984 . S
N1545 H1549 0.985 . S
H1546 N1541 0.984 . S
H1547 N1541 0.985 . S
H1548 N1545 0.984 . S
H1549 N1545 0.985 . S
H1550 N1544 0.984 . S
H1551 N1544 0.984 . S
H1552 N1540 0.984 . S
H1553 N1540 0.985 . S
C1554 C1555 1.363 . S
C1554 C1560 1.379 . S
C1554 N1562 1.356 . S
C1555 C1554 1.363 . S
C1555 C1561 1.363 . S
C1556 C1557 1.363 . S
C1556 C1561 1.379 . S
C1556 N1563 1.356 . S
C1557 C1556 1.363 . S
C1557 C1560 1.363 . S
N1558 C1560 1.356 . S
N1558 H1570 0.984 . S
N1558 H1571 0.985 . S
N1559 C1561 1.356 . S
N1559 H1564 0.984 . S
N1559 H1565 0.985 . S
C1560 C1554 1.379 . S
C1560 C1557 1.363 . S
C1560 N1558 1.356 . S
C1561 C1555 1.363 . S
C1561 C1556 1.379 . S
C1561 N1559 1.356 . S
N1562 C1554 1.356 . S
N1562 H1568 0.984 . S
N1562 H1569 0.984 . S
N1563 C1556 1.356 . S
N1563 H1566 0.984 . S
N1563 H1567 0.985 . S
H1564 N1559 0.984 . S
H1565 N1559 0.985 . S
H1566 N1563 0.984 . S
H1567 N1563 0.985 . S
H1568 N1562 0.984 . S
H1569 N1562 0.984 . S
H1570 N1558 0.984 . S
H1571 N1558 0.985 . S
C1572 C1573 1.363 . S
C1572 C1578 1.379 . S
C1572 N1580 1.356 . S
C1573 C1572 1.363 . S
C1573 C1579 1.363 . S
C1574 C1575 1.363 . S
C1574 C1579 1.379 . S
C1574 N1581 1.356 . S
C1575 C1574 1.363 . S
C1575 C1578 1.363 . S
N1576 C1578 1.356 . S
N1576 H1588 0.984 . S
N1576 H1589 0.985 . S
N1577 C1579 1.356 . S
N1577 H1582 0.984 . S
N1577 H1583 0.985 . S
C1578 C1572 1.379 . S
C1578 C1575 1.363 . S
C1578 N1576 1.356 . S
C1579 C1573 1.363 . S
C1579 C1574 1.379 . S
C1579 N1577 1.356 . S
N1580 C1572 1.356 . S
N1580 H1586 0.984 . S
N1580 H1587 0.984 . S
N1581 C1574 1.356 . S
N1581 H1584 0.984 . S
N1581 H1585 0.985 . S
H1582 N1577 0.984 . S
H1583 N1577 0.985 . S
H1584 N1581 0.984 . S
H1585 N1581 0.985 . S
H1586 N1580 0.984 . S
H1587 N1580 0.984 . S
H1588 N1576 0.984 . S
H1589 N1576 0.985 . S
C1590 C1591 1.363 . S
C1590 C1596 1.379 . S
C1590 N1598 1.356 . S
C1591 C1590 1.363 . S
C1591 C1597 1.363 . S
C1592 C1593 1.363 . S
C1592 C1597 1.379 . S
C1592 N1599 1.356 . S
C1593 C1592 1.363 . S
C1593 C1596 1.363 . S
N1594 C1596 1.356 . S
N1594 H1606 0.984 . S
N1594 H1607 0.985 . S
N1595 C1597 1.356 . S
N1595 H1600 0.984 . S
N1595 H1601 0.985 . S
C1596 C1590 1.379 . S
C1596 C1593 1.363 . S
C1596 N1594 1.356 . S
C1597 C1591 1.363 . S
C1597 C1592 1.379 . S
C1597 N1595 1.356 . S
N1598 C1590 1.356 . S
N1598 H1604 0.984 . S
N1598 H1605 0.984 . S
N1599 C1592 1.356 . S
N1599 H1602 0.984 . S
N1599 H1603 0.985 . S
H1600 N1595 0.984 . S
H1601 N1595 0.985 . S
H1602 N1599 0.984 . S
H1603 N1599 0.985 . S
H1604 N1598 0.984 . S
H1605 N1598 0.984 . S
H1606 N1594 0.984 . S
H1607 N1594 0.985 . S
C1608 C1609 1.363 . S
C1608 C1614 1.379 . S
C1608 N1616 1.356 . S
C1609 C1608 1.363 . S
C1609 C1615 1.363 . S
C1610 C1611 1.363 . S
C1610 C1615 1.379 . S
C1610 N1617 1.356 . S
C1611 C1610 1.363 . S
C1611 C1614 1.363 . S
N1612 C1614 1.356 . S
N1612 H1624 0.984 . S
N1612 H1625 0.985 . S
N1613 C1615 1.356 . S
N1613 H1618 0.984 . S
N1613 H1619 0.985 . S
C1614 C1608 1.379 . S
C1614 C1611 1.363 . S
C1614 N1612 1.356 . S
C1615 C1609 1.363 . S
C1615 C1610 1.379 . S
C1615 N1613 1.356 . S
N1616 C1608 1.356 . S
N1616 H1622 0.984 . S
N1616 H1623 0.984 . S
N1617 C1610 1.356 . S
N1617 H1620 0.984 . S
N1617 H1621 0.985 . S
H1618 N1613 0.984 . S
H1619 N1613 0.985 . S
H1620 N1617 0.984 . S
H1621 N1617 0.985 . S
H1622 N1616 0.984 . S
H1623 N1616 0.984 . S
H1624 N1612 0.984 . S
H1625 N1612 0.985 . S
C1626 C1627 1.363 . S
C1626 C1632 1.379 . S
C1626 N1634 1.356 . S
C1627 C1626 1.363 . S
C1627 C1633 1.363 . S
C1628 C1629 1.363 . S
C1628 C1633 1.379 . S
C1628 N1635 1.356 . S
C1629 C1628 1.363 . S
C1629 C1632 1.363 . S
N1630 C1632 1.356 . S
N1630 H1642 0.984 . S
N1630 H1643 0.985 . S
N1631 C1633 1.356 . S
N1631 H1636 0.984 . S
N1631 H1637 0.985 . S
C1632 C1626 1.379 . S
C1632 C1629 1.363 . S
C1632 N1630 1.356 . S
C1633 C1627 1.363 . S
C1633 C1628 1.379 . S
C1633 N1631 1.356 . S
N1634 C1626 1.356 . S
N1634 H1640 0.984 . S
N1634 H1641 0.984 . S
N1635 C1628 1.356 . S
N1635 H1638 0.984 . S
N1635 H1639 0.985 . S
H1636 N1631 0.984 . S
H1637 N1631 0.985 . S
H1638 N1635 0.984 . S
H1639 N1635 0.985 . S
H1640 N1634 0.984 . S
H1641 N1634 0.984 . S
H1642 N1630 0.984 . S
H1643 N1630 0.985 . S
C1644 C1645 1.363 . S
C1644 C1650 1.379 . S
C1644 N1652 1.356 . S
C1645 C1644 1.363 . S
C1645 C1651 1.363 . S
C1646 C1647 1.363 . S
C1646 C1651 1.379 . S
C1646 N1653 1.356 . S
C1647 C1646 1.363 . S
C1647 C1650 1.363 . S
N1648 C1650 1.356 . S
N1648 H1660 0.984 . S
N1648 H1661 0.985 . S
N1649 C1651 1.356 . S
N1649 H1654 0.984 . S
N1649 H1655 0.985 . S
C1650 C1644 1.379 . S
C1650 C1647 1.363 . S
C1650 N1648 1.356 . S
C1651 C1645 1.363 . S
C1651 C1646 1.379 . S
C1651 N1649 1.356 . S
N1652 C1644 1.356 . S
N1652 H1658 0.984 . S
N1652 H1659 0.984 . S
N1653 C1646 1.356 . S
N1653 H1656 0.984 . S
N1653 H1657 0.985 . S
H1654 N1649 0.984 . S
H1655 N1649 0.985 . S
H1656 N1653 0.984 . S
H1657 N1653 0.985 . S
H1658 N1652 0.984 . S
H1659 N1652 0.984 . S
H1660 N1648 0.984 . S
H1661 N1648 0.985 . S
C1662 C1663 1.363 . S
C1662 C1668 1.379 . S
C1662 N1670 1.356 . S
C1663 C1662 1.363 . S
C1663 C1669 1.363 . S
C1664 C1665 1.363 . S
C1664 C1669 1.379 . S
C1664 N1671 1.356 . S
C1665 C1664 1.363 . S
C1665 C1668 1.363 . S
N1666 C1668 1.356 . S
N1666 H1678 0.984 . S
N1666 H1679 0.985 . S
N1667 C1669 1.356 . S
N1667 H1672 0.984 . S
N1667 H1673 0.985 . S
C1668 C1662 1.379 . S
C1668 C1665 1.363 . S
C1668 N1666 1.356 . S
C1669 C1663 1.363 . S
C1669 C1664 1.379 . S
C1669 N1667 1.356 . S
N1670 C1662 1.356 . S
N1670 H1676 0.984 . S
N1670 H1677 0.984 . S
N1671 C1664 1.356 . S
N1671 H1674 0.984 . S
N1671 H1675 0.985 . S
H1672 N1667 0.984 . S
H1673 N1667 0.985 . S
H1674 N1671 0.984 . S
H1675 N1671 0.985 . S
H1676 N1670 0.984 . S
H1677 N1670 0.984 . S
H1678 N1666 0.984 . S
H1679 N1666 0.985 . S
C1680 C1681 1.363 . S
C1680 C1686 1.379 . S
C1680 N1688 1.356 . S
C1681 C1680 1.363 . S
C1681 C1687 1.363 . S
C1682 C1683 1.363 . S
C1682 C1687 1.379 . S
C1682 N1689 1.356 . S
C1683 C1682 1.363 . S
C1683 C1686 1.363 . S
N1684 C1686 1.356 . S
N1684 H1696 0.984 . S
N1684 H1697 0.985 . S
N1685 C1687 1.356 . S
N1685 H1690 0.984 . S
N1685 H1691 0.985 . S
C1686 C1680 1.379 . S
C1686 C1683 1.363 . S
C1686 N1684 1.356 . S
C1687 C1681 1.363 . S
C1687 C1682 1.379 . S
C1687 N1685 1.356 . S
N1688 C1680 1.356 . S
N1688 H1694 0.984 . S
N1688 H1695 0.984 . S
N1689 C1682 1.356 . S
N1689 H1692 0.984 . S
N1689 H1693 0.985 . S
H1690 N1685 0.984 . S
H1691 N1685 0.985 . S
H1692 N1689 0.984 . S
H1693 N1689 0.985 . S
H1694 N1688 0.984 . S
H1695 N1688 0.984 . S
H1696 N1684 0.984 . S
H1697 N1684 0.985 . S
C1698 C1699 1.363 . S
C1698 C1704 1.379 . S
C1698 N1706 1.356 . S
C1699 C1698 1.363 . S
C1699 C1705 1.363 . S
C1700 C1701 1.363 . S
C1700 C1705 1.379 . S
C1700 N1707 1.356 . S
C1701 C1700 1.363 . S
C1701 C1704 1.363 . S
N1702 C1704 1.356 . S
N1702 H1714 0.984 . S
N1702 H1715 0.985 . S
N1703 C1705 1.356 . S
N1703 H1708 0.984 . S
N1703 H1709 0.985 . S
C1704 C1698 1.379 . S
C1704 C1701 1.363 . S
C1704 N1702 1.356 . S
C1705 C1699 1.363 . S
C1705 C1700 1.379 . S
C1705 N1703 1.356 . S
N1706 C1698 1.356 . S
N1706 H1712 0.984 . S
N1706 H1713 0.984 . S
N1707 C1700 1.356 . S
N1707 H1710 0.984 . S
N1707 H1711 0.985 . S
H1708 N1703 0.984 . S
H1709 N1703 0.985 . S
H1710 N1707 0.984 . S
H1711 N1707 0.985 . S
H1712 N1706 0.984 . S
H1713 N1706 0.984 . S
H1714 N1702 0.984 . S
H1715 N1702 0.985 . S
C1716 C1717 1.363 . S
C1716 C1722 1.379 . S
C1716 N1724 1.356 . S
C1717 C1716 1.363 . S
C1717 C1723 1.363 . S
C1718 C1719 1.363 . S
C1718 C1723 1.379 . S
C1718 N1725 1.356 . S
C1719 C1718 1.363 . S
C1719 C1722 1.363 . S
N1720 C1722 1.356 . S
N1720 H1732 0.984 . S
N1720 H1733 0.985 . S
N1721 C1723 1.356 . S
N1721 H1726 0.984 . S
N1721 H1727 0.985 . S
C1722 C1716 1.379 . S
C1722 C1719 1.363 . S
C1722 N1720 1.356 . S
C1723 C1717 1.363 . S
C1723 C1718 1.379 . S
C1723 N1721 1.356 . S
N1724 C1716 1.356 . S
N1724 H1730 0.984 . S
N1724 H1731 0.984 . S
N1725 C1718 1.356 . S
N1725 H1728 0.984 . S
N1725 H1729 0.985 . S
H1726 N1721 0.984 . S
H1727 N1721 0.985 . S
H1728 N1725 0.984 . S
H1729 N1725 0.985 . S
H1730 N1724 0.984 . S
H1731 N1724 0.984 . S
H1732 N1720 0.984 . S
H1733 N1720 0.985 . S
C873 C699 1.387 . S
C871 C74 1.445 . S
C891 C700 0.603 . S
C889 C142 0.799 . S
C909 C694 1.417 . S
C907 C231 1.347 . S
C925 C322 1.128 . S
C927 C693 1.154 . S
C943 C406 0.799 . S
C945 C696 0.603 . S
C963 C698 1.417 . S
C961 C494 1.347 . S
C979 C562 1.127 . S
C981 C697 1.154 . S
C997 C651 1.445 . S
C999 C695 1.387 . S
C1017 C730 1.536 . S
C1015 C58 1.447 . S
C1033 C151 1.811 . S
C1035 C761 1.762 . S
C1053 C729 2.604 . S
C1051 C224 2.455 . S
C1071 C764 1.336 . S
C1069 C315 1.306 . S
C1087 C399 1.579 . S
C1089 C727 1.588 . S
C1107 C759 1.470 . S
C1105 C478 1.400 . S
C1123 C571 1.394 . S
C1125 C732 1.465 . S
C1141 C644 2.489 . S
C1143 C766 2.563 . S
C1159 C67 2.489 . S
C1161 C762 2.563 . S
C1177 C392 1.811 . S
C1179 C765 1.762 . S
C1197 C733 2.604 . S
C1195 C487 2.456 . S
C1215 C760 1.336 . S
C1213 C578 1.307 . S
C1231 C658 1.447 . S
C1233 C726 1.536 . S
C1249 C238 1.400 . S
C1251 C763 1.470 . S
C1269 C728 1.465 . S
C1267 C308 1.394 . S
C1285 C158 1.579 . S
C1287 C731 1.588 . S
C1303 C662 1.421 . S
C1305 C798 1.341 . S
C1321 C394 1.040 . S
C1323 C799 0.163 . S
C1341 C793 1.562 . S
C1339 C483 1.523 . S
C1359 C792 1.376 . S
C1357 C574 1.253 . S
C1375 C154 1.040 . S
C1377 C795 0.163 . S
C1395 C797 1.562 . S
C1393 C242 1.522 . S
C1411 C310 1.252 . S
C1413 C796 1.376 . S
C1429 C63 1.421 . S
C1431 C794 1.341 . S
C1447 C646 1.466 . S
C1449 C832 1.546 . S
C1467 C864 1.350 . S
C1465 C403 1.401 . S
C1483 C476 2.344 . S
C1485 C825 2.487 . S
C1501 C567 1.643 . S
C1503 C859 1.705 . S
C1521 C830 1.559 . S
C1519 C147 1.397 . S
C1537 C226 1.638 . S
C1539 C861 1.648 . S
C1557 C827 1.606 . S
C1555 C319 1.660 . S
C1575 C862 2.562 . S
C1573 C56 2.288 . S
C1593 C858 2.562 . S
C1591 C655 2.287 . S
C1609 C140 1.400 . S
C1611 C860 1.349 . S
C1627 C235 2.344 . S
C1629 C829 2.487 . S
C1647 C863 1.705 . S
C1645 C326 1.643 . S
C1663 C70 1.466 . S
C1665 C828 1.545 . S
C1681 C490 1.638 . S
C1683 C865 1.648 . S
C1701 C831 1.606 . S
C1699 C560 1.660 . S
C1719 C826 1.559 . S
C1717 C410 1.397 . S
