# Generated by pormake.
# Topology cml, (3,6)-cn, num edge types: 1
# Building blocks:
#     Node 0, Type 0, BuildingBlock: OLANEW_clean_sbu_2, # of connection points: 3
#     Node 1, Type 0, BuildingBlock: OLANEW_clean_sbu_2, # of connection points: 3
#     Node 2, Type 0, BuildingBlock: OLANEW_clean_sbu_2, # of connection points: 3
#     Node 3, Type 0, BuildingBlock: OLANEW_clean_sbu_2, # of connection points: 3
#     Node 4, Type 0, BuildingBlock: OLANEW_clean_sbu_2, # of connection points: 3
#     Node 5, Type 0, BuildingBlock: OLANEW_clean_sbu_2, # of connection points: 3
#     Node 6, Type 0, BuildingBlock: OLANEW_clean_sbu_2, # of connection points: 3
#     Node 7, Type 0, BuildingBlock: OLANEW_clean_sbu_2, # of connection points: 3
#     Node 8, Type 1, BuildingBlock: OJICUG_clean_sbu_0, # of connection points: 6
#     Node 9, Type 1, BuildingBlock: OJICUG_clean_sbu_0, # of connection points: 6
#     Node 10, Type 1, BuildingBlock: OJICUG_clean_sbu_0, # of connection points: 6
#     Node 11, Type 1, BuildingBlock: OJICUG_clean_sbu_0, # of connection points: 6
#     Edge 12, Type (0, 1), BuildingBlock: TEMPAE_clean_linker_10, # of connection points: 2
#     Edge 13, Type (0, 1), BuildingBlock: TEMPAE_clean_linker_10, # of connection points: 2
#     Edge 14, Type (0, 1), BuildingBlock: TEMPAE_clean_linker_10, # of connection points: 2
#     Edge 15, Type (0, 1), BuildingBlock: TEMPAE_clean_linker_10, # of connection points: 2
#     Edge 16, Type (0, 1), BuildingBlock: TEMPAE_clean_linker_10, # of connection points: 2
#     Edge 17, Type (0, 1), BuildingBlock: TEMPAE_clean_linker_10, # of connection points: 2
#     Edge 18, Type (0, 1), BuildingBlock: TEMPAE_clean_linker_10, # of connection points: 2
#     Edge 19, Type (0, 1), BuildingBlock: TEMPAE_clean_linker_10, # of connection points: 2
#     Edge 20, Type (0, 1), BuildingBlock: TEMPAE_clean_linker_10, # of connection points: 2
#     Edge 21, Type (0, 1), BuildingBlock: TEMPAE_clean_linker_10, # of connection points: 2
#     Edge 22, Type (0, 1), BuildingBlock: TEMPAE_clean_linker_10, # of connection points: 2
#     Edge 23, Type (0, 1), BuildingBlock: TEMPAE_clean_linker_10, # of connection points: 2
#     Edge 24, Type (0, 1), BuildingBlock: TEMPAE_clean_linker_10, # of connection points: 2
#     Edge 25, Type (0, 1), BuildingBlock: TEMPAE_clean_linker_10, # of connection points: 2
#     Edge 26, Type (0, 1), BuildingBlock: TEMPAE_clean_linker_10, # of connection points: 2
#     Edge 27, Type (0, 1), BuildingBlock: TEMPAE_clean_linker_10, # of connection points: 2
#     Edge 28, Type (0, 1), BuildingBlock: TEMPAE_clean_linker_10, # of connection points: 2
#     Edge 29, Type (0, 1), BuildingBlock: TEMPAE_clean_linker_10, # of connection points: 2
#     Edge 30, Type (0, 1), BuildingBlock: TEMPAE_clean_linker_10, # of connection points: 2
#     Edge 31, Type (0, 1), BuildingBlock: TEMPAE_clean_linker_10, # of connection points: 2
#     Edge 32, Type (0, 1), BuildingBlock: TEMPAE_clean_linker_10, # of connection points: 2
#     Edge 33, Type (0, 1), BuildingBlock: TEMPAE_clean_linker_10, # of connection points: 2
#     Edge 34, Type (0, 1), BuildingBlock: TEMPAE_clean_linker_10, # of connection points: 2
#     Edge 35, Type (0, 1), BuildingBlock: TEMPAE_clean_linker_10, # of connection points: 2
# Relax obj value: 0.021
# Max RMSD: 0.072
# Mean RMSD: 0.061
data_MOF--net-cml--node1-OLANEW_clean_sbu_2--node2-OJICUG_clean_sbu_0--edge1-TEMPAE_clean_linker_10
_symmetry_space_group_name_H-M    P1
_symmetry_Int_Tables_number       1
_symmetry_cell_setting            triclinic
loop_
_symmetry_equiv_pos_as_xyz
'x, y, z'
_cell_length_a     43.13742
_cell_length_b     41.573932
_cell_length_c     38.505759
_cell_angle_alpha  88.262477
_cell_angle_beta   87.70727
_cell_angle_gamma 88.594301
loop_
_atom_site_label
_atom_site_type_symbol
_atom_site_fract_x
_atom_site_fract_y
_atom_site_fract_z
_atom_type_partial_charge
O0 O 0.25408 0.47589 0.92296 0.0
Cd1 Cd 0.20482 0.45749 0.94953 0.0
O2 O 0.27393 0.44826 0.96594 0.0
Cd3 Cd 0.30726 0.43106 0.00375 0.0
O4 O 0.33108 0.41126 0.04861 0.0
C5 C 0.36043 0.40795 0.04819 0.0
O6 O 0.37665 0.4166 0.01999 0.0
C7 C 0.27784 0.46719 0.93964 0.0
C8 C 0.18354 0.3981 0.92997 0.0
O9 O 0.17414 0.42444 0.91524 0.0
O10 O 0.20389 0.3997 0.95319 0.0
O11 O 0.71544 0.63478 0.53816 0.0
Cd12 Cd 0.73837 0.61436 0.48366 0.0
O13 O 0.74444 0.60462 0.57246 0.0
Cd14 Cd 0.75976 0.57577 0.52844 0.0
O15 O 0.73625 0.54258 0.49603 0.0
C16 C 0.70687 0.54512 0.49959 0.0
O17 O 0.69484 0.5667 0.52077 0.0
C18 C 0.72369 0.62659 0.56861 0.0
C19 C 0.78732 0.65141 0.45702 0.0
O20 O 0.75929 0.65799 0.4489 0.0
O21 O 0.79215 0.62732 0.47784 0.0
O22 O 0.72178 0.4015 0.97336 0.0
Cd23 Cd 0.74544 0.3607 0.01169 0.0
O24 O 0.75151 0.44113 0.98691 0.0
Cd25 Cd 0.76934 0.41178 0.02992 0.0
O26 O 0.7488 0.39134 0.07815 0.0
C27 C 0.71933 0.3928 0.07824 0.0
O28 O 0.70597 0.40542 0.05077 0.0
C29 C 0.72991 0.43063 0.96908 0.0
C30 C 0.79464 0.32668 0.97994 0.0
O31 O 0.76673 0.317 0.97875 0.0
O32 O 0.79919 0.35266 0.99591 0.0
O33 O 0.31435 0.59458 0.47815 0.0
Cd34 Cd 0.28841 0.63552 0.51384 0.0
O35 O 0.28546 0.55483 0.49839 0.0
Cd36 Cd 0.26896 0.58445 0.54143 0.0
O37 O 0.29089 0.60415 0.58608 0.0
C38 C 0.3202 0.60555 0.58172 0.0
O39 O 0.33302 0.59633 0.55202 0.0
C40 C 0.30668 0.56526 0.4774 0.0
C41 C 0.23886 0.6653 0.48038 0.0
O42 O 0.26625 0.67658 0.47705 0.0
O43 O 0.23496 0.63984 0.49952 0.0
O44 O 0.76724 0.96468 0.91122 0.0
Cd45 Cd 0.71301 0.94816 0.9162 0.0
O46 O 0.78131 0.94075 0.95974 0.0
Cd47 Cd 0.81033 0.92891 0.00389 0.0
O48 O 0.83261 0.91293 0.0516 0.0
C49 C 0.86198 0.91059 0.05259 0.0
O50 O 0.87885 0.91811 0.02448 0.0
C51 C 0.78791 0.95879 0.93332 0.0
C52 C 0.69767 0.88339 0.91405 0.0
O53 O 0.70427 0.89976 0.88608 0.0
O54 O 0.69992 0.89715 0.94317 0.0
O55 O 0.21203 0.13577 0.53379 0.0
Cd56 Cd 0.23497 0.11586 0.47912 0.0
O57 O 0.24576 0.11153 0.56769 0.0
Cd58 Cd 0.26162 0.0818 0.5246 0.0
O59 O 0.2375 0.04628 0.49576 0.0
C60 C 0.20914 0.04427 0.50576 0.0
O61 O 0.1986 0.06261 0.53102 0.0
C62 C 0.22248 0.13053 0.56395 0.0
C63 C 0.2836 0.1537 0.45307 0.0
O64 O 0.25554 0.16006 0.44491 0.0
O65 O 0.28861 0.12943 0.47357 0.0
O66 O 0.22185 0.90078 0.97975 0.0
Cd67 Cd 0.24536 0.85968 0.01781 0.0
O68 O 0.25412 0.93909 0.99048 0.0
Cd69 Cd 0.27168 0.91014 0.03392 0.0
O70 O 0.25025 0.89261 0.08299 0.0
C71 C 0.22097 0.89703 0.08356 0.0
O72 O 0.20835 0.91063 0.05612 0.0
C73 C 0.2313 0.92929 0.97407 0.0
C74 C 0.2926 0.82424 0.98415 0.0
O75 O 0.26441 0.81514 0.98452 0.0
O76 O 0.29836 0.85021 -0.00043 0.0
O77 O 0.77114 0.04967 0.49359 0.0
Cd78 Cd 0.7362 0.0834 0.52914 0.0
O79 O 0.79366 0.03184 0.54091 0.0
Cd80 Cd 0.76874 0.0628 0.57771 0.0
O81 O 0.7861 0.09177 0.61843 0.0
C82 C 0.80855 0.10941 0.60836 0.0
O83 O 0.81626 0.11111 0.57499 0.0
C84 C 0.79144 0.03175 0.5081 0.0
C85 C 0.69998 0.12653 0.49064 0.0
O86 O 0.72714 0.13401 0.49958 0.0
O87 O 0.69021 0.09849 0.49958 0.0
Sc88 Sc 0.01661 0.81298 0.31848 0.0
Sc89 Sc 0.01514 0.89758 0.32621 0.0
Sc90 Sc 0.00858 0.8474 0.40107 0.0
O91 O 0.0134 0.85263 0.34851 0.0
C92 C 0.96499 0.79219 0.37593 0.0
C93 C 0.97494 0.86108 0.27238 0.0
C94 C 0.96187 0.90617 0.38526 0.0
C95 C 0.0668 0.85903 0.28115 0.0
C96 C 0.05785 0.79148 0.38302 0.0
C97 C 0.0549 0.90625 0.39312 0.0
O98 O 0.97778 0.7902 0.34569 0.0
O99 O 0.98373 0.8862 0.2868 0.0
O100 O 0.97101 0.88222 0.40374 0.0
O101 O 0.05565 0.83139 0.28798 0.0
O102 O 0.04531 0.81183 0.40349 0.0
O103 O 0.04711 0.91433 0.36257 0.0
O104 O 0.04953 0.78866 0.35192 0.0
O105 O 0.05463 0.88481 0.29309 0.0
O106 O 0.04281 0.88285 0.41032 0.0
O107 O 0.98461 0.8329 0.28108 0.0
O108 O 0.97409 0.8113 0.39833 0.0
O109 O 0.97573 0.91525 0.357 0.0
Sc110 Sc 0.02261 0.18504 0.81421 0.0
Sc111 Sc 0.02903 0.10058 0.81418 0.0
Sc112 Sc 0.02595 0.1407 0.89381 0.0
O113 O 0.02593 0.14213 0.84079 0.0
C114 C 0.0683 0.20129 0.87399 0.0
C115 C 0.07141 0.14654 0.7656 0.0
C116 C 0.07688 0.08629 0.87412 0.0
C117 C 0.97833 0.1414 0.77217 0.0
C118 C 0.97564 0.19655 0.87937 0.0
C119 C 0.98373 0.08076 0.8787 0.0
O120 O 0.05765 0.20575 0.8439 0.0
O121 O 0.06297 0.11896 0.77686 0.0
O122 O 0.06438 0.10641 0.89498 0.0
O123 O 0.98698 0.16861 0.78186 0.0
O124 O 0.98754 0.17454 0.8986 0.0
O125 O 0.99524 0.07721 0.84813 0.0
O126 O 0.98602 0.20307 0.84866 0.0
O127 O 0.99154 0.115 0.78143 0.0
O128 O 0.9924 0.10262 0.89839 0.0
O129 O 0.05897 0.17255 0.77651 0.0
O130 O 0.05892 0.17924 0.89532 0.0
O131 O 0.06683 0.08181 0.8441 0.0
Sc132 Sc 0.515 0.31076 0.31441 0.0
Sc133 Sc 0.51529 0.39531 0.31902 0.0
Sc134 Sc 0.50722 0.34797 0.39579 0.0
O135 O 0.51247 0.35128 0.34305 0.0
C136 C 0.46176 0.29396 0.37201 0.0
C137 C 0.475 0.35797 0.266 0.0
C138 C 0.46271 0.40829 0.37741 0.0
C139 C 0.56669 0.35463 0.27627 0.0
C140 C 0.55402 0.2889 0.38018 0.0
C141 C 0.55533 0.40466 0.38601 0.0
O142 O 0.47571 0.28982 0.34264 0.0
O143 O 0.48472 0.38332 0.27909 0.0
O144 O 0.47235 0.38604 0.39796 0.0
O145 O 0.55455 0.32746 0.28324 0.0
O146 O 0.54132 0.30959 0.40015 0.0
O147 O 0.54661 0.41285 0.35582 0.0
O148 O 0.5471 0.2867 0.34857 0.0
O149 O 0.55525 0.38089 0.28776 0.0
O150 O 0.54372 0.38119 0.40356 0.0
O151 O 0.48344 0.32987 0.27631 0.0
O152 O 0.47035 0.31427 0.39352 0.0
O153 O 0.47532 0.41406 0.34758 0.0
Sc154 Sc 0.51526 0.68235 0.81019 0.0
Sc155 Sc 0.52348 0.59796 0.8105 0.0
Sc156 Sc 0.52101 0.6384 0.8896 0.0
O157 O 0.52 0.6396 0.83677 0.0
C158 C 0.56106 0.6999 0.87014 0.0
C159 C 0.56554 0.64523 0.7626 0.0
C160 C 0.57162 0.58365 0.8697 0.0
C161 C 0.47286 0.63692 0.76727 0.0
C162 C 0.469 0.69326 0.8751 0.0
C163 C 0.47803 0.57913 0.87539 0.0
O164 O 0.54716 0.70584 0.84207 0.0
O165 O 0.5561 0.61751 0.77226 0.0
O166 O 0.55818 0.60268 0.89106 0.0
O167 O 0.48216 0.66443 0.77524 0.0
O168 O 0.48385 0.67387 0.89494 0.0
O169 O 0.49069 0.57415 0.84557 0.0
O170 O 0.47656 0.69776 0.8431 0.0
O171 O 0.48503 0.61084 0.77884 0.0
O172 O 0.486 0.60187 0.89436 0.0
O173 O 0.5539 0.67118 0.77475 0.0
O174 O 0.55583 0.67514 0.88959 0.0
O175 O 0.56245 0.58024 0.83913 0.0
C176 C 0.14133 0.3665 0.90596 0.0
C177 C 0.17005 0.36697 0.92168 0.0
C178 C 0.12711 0.33735 0.8998 0.0
C179 C 0.14231 0.30786 0.90884 0.0
C180 C 0.17165 0.30813 0.92405 0.0
C181 C 0.18502 0.33773 0.93068 0.0
C182 C 0.09559 0.33814 0.884 0.0
C183 C 0.18888 0.2772 0.93325 0.0
C184 C 0.08933 0.23622 0.91874 0.0
C185 C 0.09107 0.22453 0.88496 0.0
C186 C 0.10698 0.26258 0.92745 0.0
C187 C 0.12731 0.27694 0.90196 0.0
C188 C 0.13078 0.2636 0.86861 0.0
C189 C 0.1123 0.23784 0.86036 0.0
C190 C 0.10222 0.2764 0.96312 0.0
C191 C 0.15279 0.27761 0.84099 0.0
H192 H 0.12951 0.38901 0.89922 0.0
H193 H 0.20729 0.33798 0.94273 0.0
H194 H 0.09691 0.32579 0.85883 0.0
H195 H 0.07876 0.32501 0.9014 0.0
H196 H 0.08649 0.36308 0.87944 0.0
H197 H 0.21184 0.28153 0.94407 0.0
H198 H 0.17493 0.26283 0.95262 0.0
H199 H 0.19242 0.26245 0.90981 0.0
H200 H 0.07274 0.22611 0.93769 0.0
H201 H 0.11384 0.22862 0.83428 0.0
H202 H 0.09039 0.30034 0.96082 0.0
H203 H 0.12485 0.28002 0.97493 0.0
H204 H 0.08794 0.26071 0.98093 0.0
H205 H 0.14365 0.30141 0.83181 0.0
H206 H 0.1559 0.26187 0.81825 0.0
H207 H 0.17582 0.28144 0.85182 0.0
C208 C 0.84396 0.66319 0.45132 0.0
C209 C 0.81331 0.67119 0.44297 0.0
C210 C 0.86873 0.68216 0.43889 0.0
C211 C 0.8627 0.70985 0.41769 0.0
C212 C 0.83188 0.7178 0.40874 0.0
C213 C 0.80756 0.69835 0.42146 0.0
C214 C 0.90131 0.6729 0.44897 0.0
C215 C 0.82454 0.7472 0.38629 0.0
C216 C 0.92136 0.77634 0.41724 0.0
C217 C 0.93837 0.77141 0.3859 0.0
C218 C 0.89653 0.75669 0.42764 0.0
C219 C 0.88848 0.73132 0.4063 0.0
C220 C 0.90529 0.72631 0.3745 0.0
C221 C 0.93 0.74647 0.36462 0.0
C222 C 0.87905 0.76295 0.46164 0.0
C223 C 0.89736 0.69946 0.35111 0.0
H224 H 0.84864 0.64219 0.46783 0.0
H225 H 0.78396 0.70468 0.41483 0.0
H226 H 0.91669 0.67055 0.42535 0.0
H227 H 0.91078 0.6921 0.4646 0.0
H228 H 0.90225 0.64988 0.46434 0.0
H229 H 0.79954 0.74931 0.38052 0.0
H230 H 0.83112 0.7692 0.39956 0.0
H231 H 0.83832 0.74641 0.36136 0.0
H232 H 0.92741 0.79566 0.43381 0.0
H233 H 0.94297 0.74243 0.34039 0.0
H234 H 0.88105 0.74154 0.4794 0.0
H235 H 0.85402 0.76713 0.45709 0.0
H236 H 0.88781 0.7841 0.47486 0.0
H237 H 0.90005 0.67592 0.36516 0.0
H238 H 0.91229 0.69913 0.32693 0.0
H239 H 0.87276 0.70196 0.34389 0.0
C240 C 0.85142 0.31859 0.96604 0.0
C241 C 0.82091 0.30809 0.96389 0.0
C242 C 0.8766 0.30076 0.95177 0.0
C243 C 0.87115 0.27175 0.93493 0.0
C244 C 0.84041 0.26118 0.93235 0.0
C245 C 0.81565 0.27948 0.94687 0.0
C246 C 0.90908 0.3128 0.95501 0.0
C247 C 0.8337 0.23038 0.91455 0.0
C248 C 0.93406 0.23933 0.87266 0.0
C249 C 0.94862 0.21555 0.89343 0.0
C250 C 0.90873 0.25769 0.88577 0.0
C251 C 0.89768 0.2522 0.92049 0.0
C252 C 0.9121 0.22818 0.94155 0.0
C253 C 0.93736 0.21014 0.92778 0.0
C254 C 0.89387 0.28306 0.86251 0.0
C255 C 0.90094 0.22164 0.97872 0.0
H256 H 0.85569 0.34067 0.97913 0.0
H257 H 0.79215 0.2712 0.94507 0.0
H258 H 0.92314 0.2948 0.9698 0.0
H259 H 0.92055 0.31589 0.92886 0.0
H260 H 0.90934 0.3361 0.96837 0.0
H261 H 0.80844 0.22583 0.91415 0.0
H262 H 0.84329 0.23134 0.88738 0.0
H263 H 0.84525 0.20969 0.92805 0.0
H264 H 0.94246 0.2437 0.84608 0.0
H265 H 0.94835 0.19186 0.94409 0.0
H266 H 0.89541 0.30705 0.87409 0.0
H267 H 0.86887 0.27816 0.86028 0.0
H268 H 0.905 0.28408 0.83599 0.0
H269 H 0.90268 0.24372 0.99394 0.0
H270 H 0.91451 0.20192 0.99155 0.0
H271 H 0.87615 0.21507 0.97957 0.0
C272 C 0.21677 0.71037 0.44382 0.0
C273 C 0.2124 0.68164 0.46326 0.0
C274 C 0.19166 0.72699 0.42891 0.0
C275 C 0.16147 0.71455 0.43352 0.0
C276 C 0.15702 0.68513 0.45231 0.0
C277 C 0.18254 0.66903 0.467 0.0
C278 C 0.19732 0.75834 0.4091 0.0
C279 C 0.12517 0.67109 0.4577 0.0
C280 C 0.09406 0.77462 0.42976 0.0
C281 C 0.08377 0.77085 0.396 0.0
C282 C 0.11912 0.75625 0.44229 0.0
C283 C 0.13433 0.73342 0.42063 0.0
C284 C 0.12394 0.72914 0.3867 0.0
C285 C 0.09879 0.74793 0.37475 0.0
C286 C 0.12955 0.76158 0.47863 0.0
C287 C 0.13959 0.70494 0.36292 0.0
H288 H 0.23977 0.72023 0.44071 0.0
H289 H 0.17898 0.64678 0.48186 0.0
H290 H 0.18767 0.75759 0.38286 0.0
H291 H 0.1852 0.77837 0.42287 0.0
H292 H 0.22239 0.76378 0.40616 0.0
H293 H 0.12591 0.647 0.47098 0.0
H294 H 0.11011 0.68743 0.47364 0.0
H295 H 0.11415 0.66894 0.43236 0.0
H296 H 0.08273 0.79222 0.44648 0.0
H297 H 0.09106 0.74478 0.34866 0.0
H298 H 0.15395 0.76948 0.47756 0.0
H299 H 0.12875 0.73869 0.49419 0.0
H300 H 0.11494 0.77996 0.49234 0.0
H301 H 0.16426 0.71116 0.35791 0.0
H302 H 0.12823 0.70394 0.3376 0.0
H303 H 0.13932 0.68061 0.37558 0.0
C304 C 0.68812 0.83334 0.882 0.0
C305 C 0.68447 0.85093 0.91244 0.0
C306 C 0.67142 0.8052 0.87792 0.0
C307 C 0.64998 0.79492 0.90456 0.0
C308 C 0.64763 0.81151 0.93618 0.0
C309 C 0.66518 0.83913 0.93988 0.0
C310 C 0.67523 0.78772 0.84417 0.0
C311 C 0.62472 0.80172 0.96502 0.0
C312 C 0.57824 0.7564 0.87223 0.0
C313 C 0.58352 0.72375 0.88065 0.0
C314 C 0.59935 0.7797 0.88071 0.0
C315 C 0.62694 0.77011 0.89729 0.0
C316 C 0.63242 0.73715 0.90605 0.0
C317 C 0.61038 0.71433 0.89803 0.0
C318 C 0.59216 0.81465 0.87164 0.0
C319 C 0.66186 0.72594 0.92304 0.0
H320 H 0.70324 0.84217 0.86083 0.0
H321 H 0.6622 0.85266 0.96346 0.0
H322 H 0.67707 0.76134 0.8492 0.0
H323 H 0.65452 0.79253 0.82846 0.0
H324 H 0.69608 0.79552 0.82857 0.0
H325 H 0.62858 0.81428 0.98948 0.0
H326 H 0.60082 0.80767 0.95686 0.0
H327 H 0.62614 0.77538 0.97035 0.0
H328 H 0.55732 0.76382 0.85916 0.0
H329 H 0.61458 0.68905 0.90436 0.0
H330 H 0.60982 0.82392 0.85238 0.0
H331 H 0.59313 0.82933 0.89514 0.0
H332 H 0.56889 0.81824 0.86057 0.0
H333 H 0.68214 0.73143 0.90541 0.0
H334 H 0.66212 0.69968 0.92932 0.0
H335 H 0.66477 0.73906 0.9473 0.0
C336 C 0.34009 0.16616 0.44793 0.0
C337 C 0.30943 0.17389 0.43941 0.0
C338 C 0.36474 0.18539 0.43574 0.0
C339 C 0.35859 0.21307 0.41458 0.0
C340 C 0.32775 0.22083 0.40555 0.0
C341 C 0.30354 0.20113 0.41805 0.0
C342 C 0.39735 0.17632 0.44587 0.0
C343 C 0.32029 0.25019 0.3831 0.0
C344 C 0.41765 0.27929 0.41334 0.0
C345 C 0.43465 0.27388 0.3821 0.0
C346 C 0.39262 0.25994 0.42394 0.0
C347 C 0.38434 0.23446 0.40287 0.0
C348 C 0.40106 0.22907 0.37111 0.0
C349 C 0.42598 0.24886 0.36106 0.0
C350 C 0.37527 0.26654 0.45793 0.0
C351 C 0.39288 0.2021 0.34797 0.0
H352 H 0.34488 0.14512 0.46434 0.0
H353 H 0.27992 0.20726 0.41131 0.0
H354 H 0.41267 0.17365 0.42225 0.0
H355 H 0.40685 0.19574 0.46115 0.0
H356 H 0.39834 0.15349 0.46159 0.0
H357 H 0.29523 0.25235 0.3776 0.0
H358 H 0.32706 0.27222 0.39619 0.0
H359 H 0.33385 0.24928 0.35804 0.0
H360 H 0.42397 0.2986 0.42976 0.0
H361 H 0.43889 0.24443 0.33689 0.0
H362 H 0.37733 0.24529 0.4759 0.0
H363 H 0.35022 0.27068 0.45347 0.0
H364 H 0.38411 0.28782 0.47085 0.0
H365 H 0.39565 0.17863 0.36214 0.0
H366 H 0.40762 0.20161 0.32366 0.0
H367 H 0.36822 0.2046 0.34099 0.0
C368 C 0.34855 0.81553 0.96647 0.0
C369 C 0.31785 0.80512 0.96684 0.0
C370 C 0.37282 0.79734 0.95083 0.0
C371 C 0.36624 0.76802 0.9352 0.0
C372 C 0.33528 0.7575 0.93519 0.0
C373 C 0.31144 0.77619 0.951 0.0
C374 C 0.40555 0.80937 0.95129 0.0
C375 C 0.32738 0.72635 0.91879 0.0
C376 C 0.426 0.73469 0.86975 0.0
C377 C 0.44204 0.71173 0.89014 0.0
C378 C 0.40106 0.75294 0.88397 0.0
C379 C 0.39189 0.74811 0.9194 0.0
C380 C 0.40764 0.72471 0.94001 0.0
C381 C 0.43251 0.70682 0.92516 0.0
C382 C 0.38477 0.77769 0.86118 0.0
C383 C 0.39845 0.7188 0.97789 0.0
H384 H 0.35371 0.83787 0.9786 0.0
H385 H 0.28778 0.76798 0.95115 0.0
H386 H 0.42042 0.79165 0.96544 0.0
H387 H 0.41549 0.81187 0.92435 0.0
H388 H 0.40669 0.83296 0.96392 0.0
H389 H 0.30208 0.72187 0.9204 0.0
H390 H 0.33538 0.72672 0.89104 0.0
H391 H 0.33966 0.7059 0.93189 0.0
H392 H 0.43307 0.73869 0.84267 0.0
H393 H 0.4446 0.6891 0.94117 0.0
H394 H 0.38714 0.80201 0.87172 0.0
H395 H 0.3596 0.7728 0.86115 0.0
H396 H 0.39423 0.77795 0.83391 0.0
H397 H 0.40123 0.7411 0.99246 0.0
H398 H 0.41257 0.69916 0.99012 0.0
H399 H 0.37363 0.71244 0.9806 0.0
C400 C 0.69178 0.17963 0.45951 0.0
C401 C 0.6801 0.14993 0.47151 0.0
C402 C 0.67268 0.20261 0.44283 0.0
C403 C 0.64113 0.1958 0.43832 0.0
C404 C 0.62936 0.16565 0.4498 0.0
C405 C 0.64902 0.14303 0.46614 0.0
C406 C 0.68609 0.2344 0.43064 0.0
C407 C 0.59579 0.15759 0.44561 0.0
C408 C 0.5827 0.26502 0.43043 0.0
C409 C 0.57736 0.26592 0.39467 0.0
C410 C 0.60373 0.24262 0.44483 0.0
C411 C 0.61999 0.22066 0.42298 0.0
C412 C 0.61528 0.22182 0.3868 0.0
C413 C 0.59395 0.24437 0.37308 0.0
C414 C 0.60808 0.24205 0.48359 0.0
C415 C 0.63244 0.19894 0.36267 0.0
H416 H 0.71581 0.18507 0.46343 0.0
H417 H 0.63982 0.12015 0.47534 0.0
H418 H 0.68175 0.23897 0.4027 0.0
H419 H 0.67448 0.25425 0.44519 0.0
H420 H 0.71147 0.23524 0.43434 0.0
H421 H 0.59054 0.13267 0.45488 0.0
H422 H 0.58054 0.17461 0.46044 0.0
H423 H 0.58985 0.16031 0.4179 0.0
H424 H 0.57007 0.28153 0.44739 0.0
H425 H 0.59017 0.24496 0.34541 0.0
H426 H 0.6329 0.24504 0.48893 0.0
H427 H 0.60114 0.21841 0.49514 0.0
H428 H 0.59422 0.26128 0.49685 0.0
H429 H 0.65784 0.20065 0.3655 0.0
H430 H 0.62717 0.20389 0.33499 0.0
H431 H 0.62611 0.17381 0.36971 0.0
C432 C 0.30996 0.51116 0.91271 0.0
C433 C 0.3085 0.48106 0.93011 0.0
C434 C 0.33852 0.52565 0.90472 0.0
C435 C 0.3664 0.50962 0.91418 0.0
C436 C 0.36517 0.47889 0.93104 0.0
C437 C 0.33622 0.46496 0.93875 0.0
C438 C 0.33881 0.55827 0.88633 0.0
C439 C 0.39436 0.46089 0.94133 0.0
C440 C 0.43942 0.53681 0.86446 0.0
C441 C 0.45132 0.55895 0.88707 0.0
C442 C 0.41235 0.51991 0.8734 0.0
C443 C 0.39677 0.52501 0.90586 0.0
C444 C 0.40925 0.5463 0.92942 0.0
C445 C 0.43631 0.56309 0.91971 0.0
C446 C 0.39982 0.49742 0.84754 0.0
C447 C 0.39347 0.5521 0.96444 0.0
H448 H 0.28866 0.52374 0.90586 0.0
H449 H 0.3354 0.44125 0.95105 0.0
H450 H 0.3499 0.57593 0.90264 0.0
H451 H 0.35279 0.55695 0.86157 0.0
H452 H 0.31511 0.56741 0.88049 0.0
H453 H 0.38977 0.43566 0.94995 0.0
H454 H 0.41177 0.46061 0.91934 0.0
H455 H 0.40481 0.47333 0.96296 0.0
H456 H 0.45073 0.53329 0.83917 0.0
H457 H 0.44529 0.57999 0.93747 0.0
H458 H 0.37698 0.50672 0.83889 0.0
H459 H 0.39609 0.47331 0.85992 0.0
H460 H 0.41562 0.49467 0.82427 0.0
H461 H 0.37032 0.56368 0.96084 0.0
H462 H 0.40714 0.56777 0.98065 0.0
H463 H 0.3897 0.52887 0.97874 0.0
C464 C 0.69838 0.49798 0.46213 0.0
C465 C 0.68628 0.52392 0.48125 0.0
C466 C 0.67864 0.4773 0.44571 0.0
C467 C 0.64612 0.48288 0.44837 0.0
C468 C 0.63384 0.50923 0.4673 0.0
C469 C 0.65404 0.52936 0.48355 0.0
C470 C 0.6925 0.44937 0.42577 0.0
C471 C 0.5993 0.51612 0.47055 0.0
C472 C 0.59305 0.44967 0.38263 0.0
C473 C 0.57982 0.42359 0.4014 0.0
C474 C 0.61535 0.46859 0.39724 0.0
C475 C 0.62469 0.46129 0.43144 0.0
C476 C 0.61207 0.43457 0.45023 0.0
C477 C 0.58978 0.41604 0.435 0.0
C478 C 0.62826 0.49693 0.3764 0.0
C479 C 0.62154 0.42603 0.48676 0.0
H480 H 0.72326 0.4936 0.4603 0.0
H481 H 0.64447 0.54941 0.49815 0.0
H482 H 0.68363 0.4264 0.43718 0.0
H483 H 0.68537 0.45107 0.3984 0.0
H484 H 0.71826 0.44849 0.42594 0.0
H485 H 0.59354 0.53779 0.48593 0.0
H486 H 0.58975 0.51978 0.44435 0.0
H487 H 0.58746 0.49521 0.48322 0.0
H488 H 0.58572 0.45567 0.35659 0.0
H489 H 0.57988 0.39588 0.44969 0.0
H490 H 0.65399 0.4955 0.37521 0.0
H491 H 0.62131 0.51962 0.38934 0.0
H492 H 0.61997 0.49823 0.34943 0.0
H493 H 0.64715 0.42336 0.48752 0.0
H494 H 0.61101 0.40338 0.49705 0.0
H495 H 0.6143 0.44576 0.50431 0.0
C496 C 0.71996 0.48531 0.9418 0.0
C497 C 0.71144 0.4531 0.94703 0.0
C498 C 0.69998 0.50792 0.92577 0.0
C499 C 0.67068 0.49813 0.91521 0.0
C500 C 0.6627 0.46535 0.91873 0.0
C501 C 0.68327 0.44321 0.93433 0.0
C502 C 0.70958 0.54254 0.92172 0.0
C503 C 0.6316 0.45395 0.90799 0.0
C504 C 0.6026 0.55762 0.91682 0.0
C505 C 0.59845 0.56374 0.88128 0.0
C506 C 0.62652 0.53691 0.92818 0.0
C507 C 0.64715 0.52239 0.90341 0.0
C508 C 0.64391 0.52951 0.86756 0.0
C509 C 0.6194 0.54985 0.85688 0.0
C510 C 0.62897 0.52963 0.96666 0.0
C511 C 0.66586 0.51503 0.84045 0.0
H512 H 0.74177 0.49313 0.9513 0.0
H513 H 0.67646 0.41839 0.93816 0.0
H514 H 0.70514 0.55209 0.89512 0.0
H515 H 0.69557 0.55745 0.94021 0.0
H516 H 0.73452 0.54541 0.92683 0.0
H517 H 0.62983 0.42735 0.91024 0.0
H518 H 0.61287 0.46492 0.92469 0.0
H519 H 0.62739 0.46176 0.88076 0.0
H520 H 0.58648 0.56818 0.93582 0.0
H521 H 0.61655 0.55477 0.82937 0.0
H522 H 0.65256 0.535 0.97501 0.0
H523 H 0.62526 0.50362 0.97218 0.0
H524 H 0.61174 0.54369 0.98258 0.0
H525 H 0.69027 0.51895 0.847 0.0
H526 H 0.66203 0.52538 0.81399 0.0
H527 H 0.66271 0.48865 0.84004 0.0
C528 C 0.31536 0.51111 0.45125 0.0
C529 C 0.32522 0.54259 0.45556 0.0
C530 C 0.33499 0.48814 0.43501 0.0
C531 C 0.36535 0.49676 0.42356 0.0
C532 C 0.37484 0.52889 0.42636 0.0
C533 C 0.35454 0.55148 0.44199 0.0
C534 C 0.32378 0.45432 0.43159 0.0
C535 C 0.40715 0.53898 0.41485 0.0
C536 C 0.43024 0.43364 0.42472 0.0
C537 C 0.43625 0.42906 0.38915 0.0
C538 C 0.4067 0.45507 0.43625 0.0
C539 C 0.38827 0.47178 0.41163 0.0
C540 C 0.39332 0.4662 0.37576 0.0
C541 C 0.41753 0.44518 0.3649 0.0
C542 C 0.40239 0.46077 0.47472 0.0
C543 C 0.37362 0.48295 0.34884 0.0
H544 H 0.29263 0.50414 0.46143 0.0
H545 H 0.36238 0.57574 0.44524 0.0
H546 H 0.32921 0.44568 0.405 0.0
H547 H 0.33595 0.43786 0.45002 0.0
H548 H 0.29839 0.45266 0.43722 0.0
H549 H 0.41024 0.5653 0.41685 0.0
H550 H 0.42438 0.52618 0.43123 0.0
H551 H 0.41241 0.53224 0.38757 0.0
H552 H 0.4447 0.42132 0.44356 0.0
H553 H 0.42185 0.44141 0.33737 0.0
H554 H 0.37807 0.45621 0.48356 0.0
H555 H 0.407 0.4863 0.47988 0.0
H556 H 0.41806 0.44518 0.49051 0.0
H557 H 0.34863 0.48008 0.35591 0.0
H558 H 0.37841 0.4735 0.32243 0.0
H559 H 0.37814 0.50911 0.34798 0.0
C560 C 0.84558 0.96084 0.94121 0.0
C561 C 0.81815 0.97493 0.92878 0.0
C562 C 0.87419 0.97621 0.93579 0.0
C563 C 0.87525 0.00645 0.91781 0.0
C564 C 0.84756 0.0208 0.90545 0.0
C565 C 0.81947 0.00482 0.91094 0.0
C566 C 0.90322 0.96001 0.94921 0.0
C567 C 0.84762 0.05289 0.88593 0.0
C568 C 0.94207 0.06404 0.9229 0.0
C569 C 0.95797 0.05946 0.89082 0.0
C570 C 0.9159 0.04588 0.93285 0.0
C571 C 0.90532 0.02267 0.91017 0.0
C572 C 0.92203 0.01698 0.8785 0.0
C573 C 0.94809 0.03536 0.86925 0.0
C574 C 0.89886 0.05239 0.967 0.0
C575 C 0.91168 0.99229 0.85368 0.0
H576 H 0.84491 0.93742 0.95423 0.0
H577 H 0.79835 0.01591 0.90132 0.0
H578 H 0.92247 0.96095 0.92924 0.0
H579 H 0.91072 0.97293 0.97212 0.0
H580 H 0.89946 0.93445 0.95711 0.0
H581 H 0.82394 0.06122 0.87895 0.0
H582 H 0.85781 0.07141 0.90189 0.0
H583 H 0.86227 0.05107 0.86169 0.0
H584 H 0.94952 0.08242 0.9399 0.0
H585 H 0.96024 0.03131 0.84453 0.0
H586 H 0.89556 0.02956 0.98222 0.0
H587 H 0.87546 0.06281 0.96204 0.0
H588 H 0.91136 0.06934 0.98291 0.0
H589 H 0.90862 0.96869 0.86748 0.0
H590 H 0.92846 0.98907 0.83135 0.0
H591 H 0.88886 0.99985 0.84344 0.0
C592 C 0.15608 0.02381 0.49811 0.0
C593 C 0.18794 0.02239 0.48924 0.0
C594 C 0.13529 0.00386 0.48252 0.0
C595 C 0.14662 0.98173 0.45759 0.0
C596 C 0.1788 0.9798 0.44881 0.0
C597 C 0.19911 0.0003 0.46465 0.0
C598 C 0.10111 0.00683 0.49238 0.0
C599 C 0.19171 0.95628 0.42253 0.0
C600 C 0.09303 0.91353 0.43963 0.0
C601 C 0.07909 0.92499 0.40919 0.0
C602 C 0.11575 0.9313 0.45514 0.0
C603 C 0.12448 0.96138 0.44006 0.0
C604 C 0.11079 0.9729 0.40916 0.0
C605 C 0.08839 0.95452 0.39402 0.0
C606 C 0.13007 0.91813 0.48793 0.0
C607 C 0.11928 0.00502 0.3925 0.0
H608 H 0.14722 0.04084 0.51705 0.0
H609 H 0.22371 0.99899 0.45778 0.0
H610 H 0.08788 0.0138 0.46909 0.0
H611 H 0.09239 0.98327 0.50229 0.0
H612 H 0.09612 0.02497 0.51258 0.0
H613 H 0.21741 0.95695 0.4195 0.0
H614 H 0.18498 0.93145 0.43044 0.0
H615 H 0.18173 0.96179 0.39685 0.0
H616 H 0.08624 0.89062 0.45137 0.0
H617 H 0.07778 0.96363 0.37054 0.0
H618 H 0.12397 0.93421 0.50977 0.0
H619 H 0.15574 0.91742 0.4846 0.0
H620 H 0.12211 0.89353 0.4952 0.0
H621 H 0.11302 0.02457 0.41066 0.0
H622 H 0.10732 0.00999 0.36782 0.0
H623 H 0.1447 0.00584 0.38704 0.0
C624 C 0.18391 0.94349 0.94123 0.0
C625 C 0.21315 0.95211 0.9521 0.0
C626 C 0.16396 0.96625 0.92562 0.0
C627 C 0.17366 0.99835 0.92022 0.0
C628 C 0.20392 0.00675 0.92899 0.0
C629 C 0.22326 0.98357 0.94508 0.0
C630 C 0.13181 0.95634 0.9168 0.0
C631 C 0.21531 0.04057 0.9229 0.0
C632 C 0.12312 0.05028 0.86139 0.0
C633 C 0.10352 0.0661 0.88572 0.0
C634 C 0.14705 0.02925 0.87217 0.0
C635 C 0.1511 0.02346 0.90812 0.0
C636 C 0.13198 0.04005 0.93278 0.0
C637 C 0.1086 0.06137 0.92127 0.0
C638 C 0.16739 0.0125 0.84512 0.0
C639 C 0.13535 0.03426 0.97137 0.0
H640 H 0.17586 0.91926 0.94647 0.0
H641 H 0.2459 0.9904 0.95317 0.0
H642 H 0.11429 0.96914 0.93353 0.0
H643 H 0.12713 0.96322 0.88942 0.0
H644 H 0.12856 0.93002 0.92059 0.0
H645 H 0.24058 0.04218 0.92695 0.0
H646 H 0.21056 0.04933 0.89609 0.0
H647 H 0.20269 0.05697 0.94106 0.0
H648 H 0.11958 0.0541 0.83384 0.0
H649 H 0.09353 0.07343 0.94024 0.0
H650 H 0.16262 0.98639 0.84601 0.0
H651 H 0.19223 0.01508 0.85067 0.0
H652 H 0.16341 0.02216 0.81841 0.0
H653 H 0.13022 0.00882 0.97845 0.0
H654 H 0.11954 0.05008 0.98712 0.0
H655 H 0.15957 0.03843 0.97845 0.0
C656 C 0.80883 0.00546 0.45248 0.0
C657 C 0.8141 0.01243 0.48714 0.0
C658 C 0.83095 0.98782 0.43255 0.0
C659 C 0.85916 0.97763 0.44748 0.0
C660 C 0.86461 0.98481 0.48236 0.0
C661 C 0.84192 0.00181 0.50182 0.0
C662 C 0.82414 0.97997 0.39565 0.0
C663 C 0.89459 0.97483 0.49911 0.0
C664 C 0.90994 0.90816 0.41583 0.0
C665 C 0.93399 0.92432 0.39767 0.0
C666 C 0.88428 0.92514 0.43016 0.0
C667 C 0.88316 0.95916 0.42713 0.0
C668 C 0.9069 0.97553 0.40781 0.0
C669 C 0.93189 0.95782 0.39287 0.0
C670 C 0.85906 0.90675 0.4498 0.0
C671 C 0.90688 0.01182 0.40465 0.0
H672 H 0.78735 0.01357 0.44104 0.0
H673 H 0.84633 0.00737 0.52847 0.0
H674 H 0.84192 0.99055 0.37741 0.0
H675 H 0.82533 0.95352 0.39254 0.0
H676 H 0.80088 0.98914 0.3881 0.0
H677 H 0.89559 0.98327 0.52613 0.0
H678 H 0.89732 0.94822 0.49969 0.0
H679 H 0.91461 0.98464 0.48358 0.0
H680 H 0.91134 0.88217 0.4191 0.0
H681 H 0.95054 0.97031 0.37889 0.0
H682 H 0.83586 0.91525 0.44145 0.0
H683 H 0.8601 0.9111 0.47801 0.0
H684 H 0.86135 0.88041 0.44592 0.0
H685 H 0.88421 0.02126 0.39569 0.0
H686 H 0.92554 0.0207 0.38635 0.0
H687 H 0.91027 0.02186 0.43057 0.0
C688 C 0.40851 0.39633 0.08102 0.0
C689 C 0.37609 0.39602 0.07975 0.0
C690 C 0.42349 0.38723 0.11159 0.0
C691 C 0.4056 0.37744 0.14153 0.0
C692 C 0.37296 0.37587 0.14002 0.0
C693 C 0.35858 0.38527 0.10917 0.0
C694 C 0.45837 0.38926 0.11223 0.0
C695 C 0.35315 0.36535 0.17135 0.0
C696 C 0.44927 0.33586 0.21472 0.0
C697 C 0.45449 0.36179 0.23608 0.0
C698 C 0.43262 0.34032 0.18424 0.0
C699 C 0.42091 0.3714 0.17506 0.0
C700 C 0.42501 0.39734 0.19724 0.0
C701 C 0.44172 0.39223 0.22743 0.0
C702 C 0.42851 0.31207 0.16128 0.0
C703 C 0.41264 0.43081 0.1885 0.0
H704 H 0.42221 0.40448 0.05838 0.0
H705 H 0.33351 0.3847 0.10833 0.0
H706 H 0.46461 0.408 0.13047 0.0
H707 H 0.4686 0.36607 0.1218 0.0
H708 H 0.46904 0.39527 0.08618 0.0
H709 H 0.32846 0.36269 0.16502 0.0
H710 H 0.36204 0.34207 0.18228 0.0
H711 H 0.35431 0.38333 0.19194 0.0
H712 H 0.45903 0.31226 0.22116 0.0
H713 H 0.44531 0.41238 0.24391 0.0
H714 H 0.44157 0.31603 0.13617 0.0
H715 H 0.40371 0.30986 0.15534 0.0
H716 H 0.43683 0.28903 0.17342 0.0
H717 H 0.42417 0.44 0.16402 0.0
H718 H 0.41651 0.44801 0.20934 0.0
H719 H 0.38739 0.43025 0.18415 0.0
C720 C 0.67854 0.65733 0.59485 0.0
C721 C 0.70584 0.63885 0.59936 0.0
C722 C 0.65761 0.66305 0.62292 0.0
C723 C 0.6643 0.65032 0.65636 0.0
C724 C 0.69313 0.63428 0.66168 0.0
C725 C 0.71353 0.62859 0.63306 0.0
C726 C 0.62711 0.68024 0.61609 0.0
C727 C 0.70141 0.62088 0.69708 0.0
C728 C 0.61039 0.67363 0.73274 0.0
C729 C 0.59093 0.64704 0.73564 0.0
C730 C 0.63482 0.67493 0.70745 0.0
C731 C 0.63938 0.64936 0.68418 0.0
C732 C 0.61962 0.62263 0.6869 0.0
C733 C 0.59587 0.62167 0.71275 0.0
C734 C 0.65582 0.70349 0.70574 0.0
C735 C 0.62337 0.59505 0.66226 0.0
H736 H 0.67246 0.6656 0.56899 0.0
H737 H 0.73473 0.61462 0.6369 0.0
H738 H 0.60823 0.66252 0.61746 0.0
H739 H 0.62153 0.6983 0.63615 0.0
H740 H 0.62726 0.69253 0.59007 0.0
H741 H 0.72643 0.61409 0.69811 0.0
H742 H 0.69562 0.63863 0.71743 0.0
H743 H 0.68767 0.59911 0.70343 0.0
H744 H 0.60683 0.69317 0.75059 0.0
H745 H 0.58079 0.60116 0.71467 0.0
H746 H 0.65469 0.71592 0.6799 0.0
H747 H 0.68024 0.69525 0.70884 0.0
H748 H 0.64952 0.7211 0.72613 0.0
H749 H 0.62133 0.60417 0.63504 0.0
H750 H 0.60577 0.57629 0.66759 0.0
H751 H 0.64677 0.58367 0.66433 0.0
C752 C 0.71344 0.37259 0.14027 0.0
C753 C 0.70004 0.38202 0.10884 0.0
C754 C 0.69476 0.3647 0.16992 0.0
C755 C 0.66204 0.36634 0.16794 0.0
C756 C 0.64851 0.37467 0.13594 0.0
C757 C 0.66765 0.38239 0.10683 0.0
C758 C 0.70995 0.35572 0.20361 0.0
C759 C 0.6137 0.37663 0.13269 0.0
C760 C 0.60523 0.32904 0.23426 0.0
C761 C 0.59425 0.35631 0.25202 0.0
C762 C 0.62881 0.33147 0.20814 0.0
C763 C 0.6416 0.36187 0.1996 0.0
C764 C 0.63197 0.38903 0.21886 0.0
C765 C 0.60848 0.38592 0.24484 0.0
C766 C 0.63873 0.30191 0.18837 0.0
C767 C 0.64509 0.42188 0.21061 0.0
H768 H 0.73847 0.37213 0.14196 0.0
H769 H 0.65708 0.38935 0.08258 0.0
H770 H 0.70518 0.37495 0.22259 0.0
H771 H 0.70011 0.33323 0.21513 0.0
H772 H 0.7355 0.35234 0.20001 0.0
H773 H 0.60693 0.38176 0.1055 0.0
H774 H 0.60316 0.35371 0.14196 0.0
H775 H 0.6037 0.39596 0.14927 0.0
H776 H 0.59462 0.30599 0.23978 0.0
H777 H 0.60054 0.40709 0.25868 0.0
H778 H 0.6644 0.30001 0.18555 0.0
H779 H 0.62964 0.30381 0.16182 0.0
H780 H 0.62998 0.27948 0.20132 0.0
H781 H 0.67081 0.42051 0.20926 0.0
H782 H 0.63746 0.43979 0.23021 0.0
H783 H 0.63741 0.43068 0.18478 0.0
C784 C 0.32767 0.62007 0.64365 0.0
C785 C 0.34009 0.61507 0.60996 0.0
C786 C 0.3471 0.62629 0.67101 0.0
C787 C 0.37959 0.62754 0.66441 0.0
C788 C 0.39206 0.62375 0.6302 0.0
C789 C 0.37218 0.61757 0.60344 0.0
C790 C 0.333 0.63036 0.70717 0.0
C791 C 0.42657 0.62499 0.62204 0.0
C792 C 0.43435 0.6629 0.7272 0.0
C793 C 0.4472 0.63497 0.74288 0.0
C794 C 0.41135 0.66099 0.70258 0.0
C795 C 0.40099 0.63046 0.69341 0.0
C796 C 0.41303 0.60228 0.71002 0.0
C797 C 0.43594 0.60487 0.73452 0.0
C798 C 0.39892 0.69156 0.6855 0.0
C799 C 0.40256 0.56925 0.701 0.0
H800 H 0.30289 0.61826 0.64886 0.0
H801 H 0.38197 0.61401 0.57744 0.0
H802 H 0.34023 0.60975 0.7242 0.0
H803 H 0.34152 0.65252 0.71857 0.0
H804 H 0.30724 0.63168 0.70742 0.0
H805 H 0.43234 0.62353 0.59374 0.0
H806 H 0.43597 0.64759 0.63148 0.0
H807 H 0.43856 0.60468 0.63572 0.0
H808 H 0.4427 0.68629 0.7336 0.0
H809 H 0.44542 0.58312 0.74665 0.0
H810 H 0.37318 0.69204 0.68682 0.0
H811 H 0.40641 0.69242 0.65759 0.0
H812 H 0.40718 0.71345 0.69779 0.0
H813 H 0.37689 0.56814 0.70332 0.0
H814 H 0.4126 0.54992 0.71797 0.0
H815 H 0.40959 0.56434 0.67359 0.0
C816 C 0.90937 0.90054 0.0871 0.0
C817 C 0.87699 0.90021 0.08517 0.0
C818 C 0.92387 0.89197 0.11813 0.0
C819 C 0.90556 0.8827 0.14795 0.0
C820 C 0.87292 0.88155 0.14597 0.0
C821 C 0.85901 0.89041 0.11463 0.0
C822 C 0.95876 0.89363 0.11925 0.0
C823 C 0.85266 0.87165 0.17716 0.0
C824 C 0.94852 0.83982 0.221 0.0
C825 C 0.95423 0.86546 0.2426 0.0
C826 C 0.93182 0.84481 0.1906 0.0
C827 C 0.92057 0.87614 0.18165 0.0
C828 C 0.92513 0.90179 0.20406 0.0
C829 C 0.94183 0.89615 0.23421 0.0
C830 C 0.9272 0.81682 0.16744 0.0
C831 C 0.91339 0.93554 0.19553 0.0
H832 H 0.92345 0.90801 0.06448 0.0
H833 H 0.83397 0.88992 0.11333 0.0
H834 H 0.96502 0.91197 0.13795 0.0
H835 H 0.96866 0.87019 0.12851 0.0
H836 H 0.96974 0.89993 0.09343 0.0
H837 H 0.82788 0.87001 0.17075 0.0
H838 H 0.86071 0.84798 0.18793 0.0
H839 H 0.85445 0.88937 0.19792 0.0
H840 H 0.95793 0.81602 0.2272 0.0
H841 H 0.9458 0.91613 0.2508 0.0
H842 H 0.94037 0.82067 0.14237 0.0
H843 H 0.90235 0.81515 0.16145 0.0
H844 H 0.93508 0.79355 0.17944 0.0
H845 H 0.92532 0.94474 0.1713 0.0
H846 H 0.91734 0.95244 0.21663 0.0
H847 H 0.88819 0.9355 0.19083 0.0
C848 C 0.17491 0.15612 0.59124 0.0
C849 C 0.20469 0.14241 0.59491 0.0
C850 C 0.15496 0.16115 0.62031 0.0
C851 C 0.1652 0.15268 0.6539 0.0
C852 C 0.19615 0.14155 0.65802 0.0
C853 C 0.21551 0.13634 0.62842 0.0
C854 C 0.12208 0.17295 0.61475 0.0
C855 C 0.20814 0.13292 0.69348 0.0
C856 C 0.11247 0.17669 0.73089 0.0
C857 C 0.09627 0.14819 0.73795 0.0
C858 C 0.13565 0.17839 0.70421 0.0
C859 C 0.14233 0.15114 0.68381 0.0
C860 C 0.12622 0.12228 0.69103 0.0
C861 C 0.1036 0.1211 0.71813 0.0
C862 C 0.15275 0.20936 0.69764 0.0
C863 C 0.13239 0.09275 0.66963 0.0
H864 H 0.16636 0.16108 0.56549 0.0
H865 H 0.2386 0.12606 0.63155 0.0
H866 H 0.10595 0.15286 0.62021 0.0
H867 H 0.11539 0.19235 0.63291 0.0
H868 H 0.11889 0.18214 0.58771 0.0
H869 H 0.23381 0.12987 0.6928 0.0
H870 H 0.2012 0.1517 0.71232 0.0
H871 H 0.19786 0.11 0.70322 0.0
H872 H 0.10713 0.19765 0.7463 0.0
H873 H 0.09114 0.09902 0.72328 0.0
H874 H 0.14757 0.21957 0.6715 0.0
H875 H 0.17817 0.20463 0.69789 0.0
H876 H 0.1463 0.22762 0.71729 0.0
H877 H 0.12752 0.09841 0.642 0.0
H878 H 0.11798 0.07215 0.67878 0.0
H879 H 0.15719 0.08521 0.67064 0.0
C880 C 0.16878 0.89068 0.11252 0.0
C881 C 0.20114 0.88799 0.11438 0.0
C882 C 0.14926 0.88376 0.14154 0.0
C883 C 0.16238 0.87396 0.17336 0.0
C884 C 0.19501 0.87051 0.17535 0.0
C885 C 0.21407 0.87753 0.14574 0.0
C886 C 0.11455 0.88757 0.13828 0.0
C887 C 0.20975 0.86011 0.2089 0.0
C888 C 0.1087 0.89127 0.25099 0.0
C889 C 0.09415 0.86163 0.25671 0.0
C890 C 0.13234 0.89508 0.22526 0.0
C891 C 0.14162 0.86868 0.20463 0.0
C892 C 0.1283 0.83826 0.21151 0.0
C893 C 0.10475 0.83507 0.23753 0.0
C894 C 0.14616 0.92787 0.21888 0.0
C895 C 0.13763 0.80952 0.19008 0.0
H896 H 0.15855 0.89853 0.08834 0.0
H897 H 0.23906 0.87538 0.14733 0.0
H898 H 0.10304 0.86479 0.14627 0.0
H899 H 0.1053 0.90645 0.15589 0.0
H900 H 0.10805 0.89428 0.11134 0.0
H901 H 0.23533 0.85686 0.20565 0.0
H902 H 0.2046 0.8784 0.22884 0.0
H903 H 0.1998 0.83716 0.21902 0.0
H904 H 0.10102 0.91185 0.26596 0.0
H905 H 0.09384 0.81201 0.24184 0.0
H906 H 0.13861 0.93815 0.19358 0.0
H907 H 0.17187 0.92591 0.21738 0.0
H908 H 0.13897 0.9449 0.23955 0.0
H909 H 0.12907 0.8132 0.16342 0.0
H910 H 0.128 0.78681 0.20141 0.0
H911 H 0.16327 0.80684 0.1877 0.0
C912 C 0.85733 0.13647 0.62229 0.0
C913 C 0.82941 0.12237 0.63386 0.0
C914 C 0.88014 0.14338 0.64569 0.0
C915 C 0.87476 0.13632 0.68157 0.0
C916 C 0.8457 0.12445 0.69373 0.0
C917 C 0.82335 0.1175 0.66968 0.0
C918 C 0.91083 0.15607 0.63169 0.0
C919 C 0.83894 0.11712 0.73188 0.0
C920 C 0.94534 0.11182 0.73246 0.0
C921 C 0.9516 0.14028 0.74926 0.0
C922 C 0.92028 0.11027 0.71059 0.0
C923 C 0.90075 0.13776 0.7056 0.0
C924 C 0.90663 0.16646 0.72276 0.0
C925 C 0.9321 0.16744 0.74427 0.0
C926 C 0.9149 0.07925 0.6925 0.0
C927 C 0.88608 0.1961 0.71831 0.0
H928 H 0.86213 0.14058 0.59468 0.0
H929 H 0.80172 0.1069 0.67888 0.0
H930 H 0.91775 0.17686 0.64676 0.0
H931 H 0.92912 0.13702 0.63447 0.0
H932 H 0.91009 0.16364 0.60381 0.0
H933 H 0.81399 0.11237 0.73759 0.0
H934 H 0.85274 0.09555 0.74015 0.0
H935 H 0.84583 0.13739 0.74777 0.0
H936 H 0.96028 0.09073 0.73606 0.0
H937 H 0.93659 0.18947 0.75737 0.0
H938 H 0.91618 0.08354 0.6639 0.0
H939 H 0.89134 0.07047 0.69958 0.0
H940 H 0.93215 0.06003 0.6993 0.0
H941 H 0.88675 0.20437 0.69064 0.0
H942 H 0.8932 0.21619 0.73439 0.0
H943 H 0.86164 0.19032 0.72555 0.0
loop_
_geom_bond_atom_site_label_1
_geom_bond_atom_site_label_2
_geom_bond_distance
_geom_bond_site_symmetry_2
_ccdc_geom_bond_type
O0 Cd1 2.300 . S
O0 C7 1.275 . S
Cd1 O0 2.300 . S
Cd1 O9 2.381 . S
Cd1 O10 2.378 . S
O2 Cd3 2.385 1_556 S
O2 C7 1.255 . S
Cd3 O2 2.385 1_554 S
Cd3 O4 2.317 . S
O4 Cd3 2.317 . S
O4 C5 1.232 . S
C5 O4 1.232 . S
C5 O6 1.218 . S
O6 C5 1.218 . S
C7 O0 1.275 . S
C7 O2 1.255 . S
C8 O9 1.258 . S
C8 O10 1.256 . S
O9 Cd1 2.381 . S
O9 C8 1.258 . S
O10 Cd1 2.378 . S
O10 C8 1.256 . S
O11 Cd12 2.300 . S
O11 C18 1.275 . S
Cd12 O11 2.300 . S
Cd12 O20 2.381 . S
Cd12 O21 2.378 . S
O13 Cd14 2.385 . S
O13 C18 1.255 . S
Cd14 O13 2.385 . S
Cd14 O15 2.317 . S
O15 Cd14 2.317 . S
O15 C16 1.232 . S
C16 O15 1.232 . S
C16 O17 1.218 . S
O17 C16 1.218 . S
C18 O11 1.275 . S
C18 O13 1.255 . S
C19 O20 1.258 . S
C19 O21 1.256 . S
O20 Cd12 2.381 . S
O20 C19 1.258 . S
O21 Cd12 2.378 . S
O21 C19 1.256 . S
O22 Cd23 2.300 . S
O22 C29 1.275 . S
Cd23 O22 2.300 . S
Cd23 O31 2.381 . S
Cd23 O32 2.378 . S
O24 Cd25 2.385 . S
O24 C29 1.255 1_554 S
Cd25 O24 2.385 . S
Cd25 O26 2.317 . S
O26 Cd25 2.317 . S
O26 C27 1.232 . S
C27 O26 1.232 . S
C27 O28 1.218 . S
O28 C27 1.218 . S
C29 O22 1.275 . S
C29 O24 1.255 1_556 S
C30 O31 1.258 . S
C30 O32 1.256 . S
O31 Cd23 2.381 . S
O31 C30 1.258 . S
O32 Cd23 2.378 . S
O32 C30 1.256 . S
O33 Cd34 2.300 . S
O33 C40 1.275 . S
Cd34 O33 2.300 . S
Cd34 O42 2.381 . S
Cd34 O43 2.378 . S
O35 Cd36 2.385 . S
O35 C40 1.255 . S
Cd36 O35 2.385 . S
Cd36 O37 2.317 . S
O37 Cd36 2.317 . S
O37 C38 1.232 . S
C38 O37 1.232 . S
C38 O39 1.218 . S
O39 C38 1.218 . S
C40 O33 1.275 . S
C40 O35 1.255 . S
C41 O42 1.258 . S
C41 O43 1.256 . S
O42 Cd34 2.381 . S
O42 C41 1.258 . S
O43 Cd34 2.378 . S
O43 C41 1.256 . S
O44 Cd45 2.300 . S
O44 C51 1.275 . S
Cd45 O44 2.300 . S
Cd45 O53 2.381 . S
Cd45 O54 2.378 . S
O46 Cd47 2.385 1_556 S
O46 C51 1.255 . S
Cd47 O46 2.385 1_554 S
Cd47 O48 2.317 . S
O48 Cd47 2.317 . S
O48 C49 1.232 . S
C49 O48 1.232 . S
C49 O50 1.218 . S
O50 C49 1.218 . S
C51 O44 1.275 . S
C51 O46 1.255 . S
C52 O53 1.258 . S
C52 O54 1.256 . S
O53 Cd45 2.381 . S
O53 C52 1.258 . S
O54 Cd45 2.378 . S
O54 C52 1.256 . S
O55 Cd56 2.300 . S
O55 C62 1.275 . S
Cd56 O55 2.300 . S
Cd56 O64 2.381 . S
Cd56 O65 2.378 . S
O57 Cd58 2.385 . S
O57 C62 1.255 . S
Cd58 O57 2.385 . S
Cd58 O59 2.317 . S
O59 Cd58 2.317 . S
O59 C60 1.232 . S
C60 O59 1.232 . S
C60 O61 1.218 . S
O61 C60 1.218 . S
C62 O55 1.275 . S
C62 O57 1.255 . S
C63 O64 1.258 . S
C63 O65 1.256 . S
O64 Cd56 2.381 . S
O64 C63 1.258 . S
O65 Cd56 2.378 . S
O65 C63 1.256 . S
O66 Cd67 2.300 . S
O66 C73 1.275 . S
Cd67 O66 2.300 . S
Cd67 O75 2.381 . S
Cd67 O76 2.378 . S
O68 Cd69 2.385 . S
O68 C73 1.255 1_554 S
Cd69 O68 2.385 . S
Cd69 O70 2.317 . S
O70 Cd69 2.317 . S
O70 C71 1.232 . S
C71 O70 1.232 . S
C71 O72 1.218 . S
O72 C71 1.218 . S
C73 O66 1.275 . S
C73 O68 1.255 1_556 S
C74 O75 1.258 . S
C74 O76 1.256 . S
O75 Cd67 2.381 . S
O75 C74 1.258 . S
O76 Cd67 2.378 . S
O76 C74 1.256 . S
O77 Cd78 2.300 . S
O77 C84 1.275 . S
Cd78 O77 2.300 . S
Cd78 O86 2.381 . S
Cd78 O87 2.378 . S
O79 Cd80 2.385 . S
O79 C84 1.255 . S
Cd80 O79 2.385 . S
Cd80 O81 2.317 . S
O81 Cd80 2.317 . S
O81 C82 1.232 . S
C82 O81 1.232 . S
C82 O83 1.218 . S
O83 C82 1.218 . S
C84 O77 1.275 . S
C84 O79 1.255 . S
C85 O86 1.258 . S
C85 O87 1.256 . S
O86 Cd78 2.381 . S
O86 C85 1.258 . S
O87 Cd78 2.378 . S
O87 C85 1.256 . S
Sc88 O91 2.025 . S
Sc88 O98 2.105 1_455 S
Sc88 O101 2.105 . S
Sc88 O104 2.105 . S
Sc88 O107 2.105 1_455 S
Sc89 O91 2.025 . S
Sc89 O99 2.105 1_455 S
Sc89 O103 2.105 . S
Sc89 O105 2.105 . S
Sc89 O109 2.105 1_455 S
Sc90 O91 2.025 . S
Sc90 O100 2.105 1_455 S
Sc90 O102 2.105 . S
Sc90 O106 2.105 . S
Sc90 O108 2.105 1_455 S
O91 Sc88 2.025 . S
O91 Sc89 2.025 . S
O91 Sc90 2.025 . S
C92 O98 1.268 . S
C92 O108 1.268 . S
C93 O99 1.268 . S
C93 O107 1.268 . S
C94 O100 1.268 . S
C94 O109 1.268 . S
C95 O101 1.268 . S
C95 O105 1.268 . S
C96 O102 1.268 . S
C96 O104 1.268 . S
C97 O103 1.268 . S
C97 O106 1.268 . S
O98 Sc88 2.105 1_655 S
O98 C92 1.268 . S
O99 Sc89 2.105 1_655 S
O99 C93 1.268 . S
O100 Sc90 2.105 1_655 S
O100 C94 1.268 . S
O101 Sc88 2.105 . S
O101 C95 1.268 . S
O102 Sc90 2.105 . S
O102 C96 1.268 . S
O103 Sc89 2.105 . S
O103 C97 1.268 . S
O104 Sc88 2.105 . S
O104 C96 1.268 . S
O105 Sc89 2.105 . S
O105 C95 1.268 . S
O106 Sc90 2.105 . S
O106 C97 1.268 . S
O107 Sc88 2.105 1_655 S
O107 C93 1.268 . S
O108 Sc90 2.105 1_655 S
O108 C92 1.268 . S
O109 Sc89 2.105 1_655 S
O109 C94 1.268 . S
Sc110 O113 2.025 . S
Sc110 O120 2.105 . S
Sc110 O123 2.105 1_455 S
Sc110 O126 2.105 1_455 S
Sc110 O129 2.105 . S
Sc111 O113 2.025 . S
Sc111 O121 2.105 . S
Sc111 O125 2.105 1_455 S
Sc111 O127 2.105 1_455 S
Sc111 O131 2.105 . S
Sc112 O113 2.025 . S
Sc112 O122 2.105 . S
Sc112 O124 2.105 1_455 S
Sc112 O128 2.105 1_455 S
Sc112 O130 2.105 . S
O113 Sc110 2.025 . S
O113 Sc111 2.025 . S
O113 Sc112 2.025 . S
C114 O120 1.268 . S
C114 O130 1.268 . S
C115 O121 1.268 . S
C115 O129 1.268 . S
C116 O122 1.268 . S
C116 O131 1.268 . S
C117 O123 1.268 . S
C117 O127 1.268 . S
C118 O124 1.268 . S
C118 O126 1.268 . S
C119 O125 1.268 . S
C119 O128 1.268 . S
O120 Sc110 2.105 . S
O120 C114 1.268 . S
O121 Sc111 2.105 . S
O121 C115 1.268 . S
O122 Sc112 2.105 . S
O122 C116 1.268 . S
O123 Sc110 2.105 1_655 S
O123 C117 1.268 . S
O124 Sc112 2.105 1_655 S
O124 C118 1.268 . S
O125 Sc111 2.105 1_655 S
O125 C119 1.268 . S
O126 Sc110 2.105 1_655 S
O126 C118 1.268 . S
O127 Sc111 2.105 1_655 S
O127 C117 1.268 . S
O128 Sc112 2.105 1_655 S
O128 C119 1.268 . S
O129 Sc110 2.105 . S
O129 C115 1.268 . S
O130 Sc112 2.105 . S
O130 C114 1.268 . S
O131 Sc111 2.105 . S
O131 C116 1.268 . S
Sc132 O135 2.025 . S
Sc132 O142 2.105 . S
Sc132 O145 2.105 . S
Sc132 O148 2.105 . S
Sc132 O151 2.105 . S
Sc133 O135 2.025 . S
Sc133 O143 2.105 . S
Sc133 O147 2.105 . S
Sc133 O149 2.105 . S
Sc133 O153 2.105 . S
Sc134 O135 2.025 . S
Sc134 O144 2.105 . S
Sc134 O146 2.105 . S
Sc134 O150 2.105 . S
Sc134 O152 2.105 . S
O135 Sc132 2.025 . S
O135 Sc133 2.025 . S
O135 Sc134 2.025 . S
C136 O142 1.268 . S
C136 O152 1.268 . S
C137 O143 1.268 . S
C137 O151 1.268 . S
C138 O144 1.268 . S
C138 O153 1.268 . S
C139 O145 1.268 . S
C139 O149 1.268 . S
C140 O146 1.268 . S
C140 O148 1.268 . S
C141 O147 1.268 . S
C141 O150 1.268 . S
O142 Sc132 2.105 . S
O142 C136 1.268 . S
O143 Sc133 2.105 . S
O143 C137 1.268 . S
O144 Sc134 2.105 . S
O144 C138 1.268 . S
O145 Sc132 2.105 . S
O145 C139 1.268 . S
O146 Sc134 2.105 . S
O146 C140 1.268 . S
O147 Sc133 2.105 . S
O147 C141 1.268 . S
O148 Sc132 2.105 . S
O148 C140 1.268 . S
O149 Sc133 2.105 . S
O149 C139 1.268 . S
O150 Sc134 2.105 . S
O150 C141 1.268 . S
O151 Sc132 2.105 . S
O151 C137 1.268 . S
O152 Sc134 2.105 . S
O152 C136 1.268 . S
O153 Sc133 2.105 . S
O153 C138 1.268 . S
Sc154 O157 2.025 . S
Sc154 O164 2.105 . S
Sc154 O167 2.105 . S
Sc154 O170 2.105 . S
Sc154 O173 2.105 . S
Sc155 O157 2.025 . S
Sc155 O165 2.105 . S
Sc155 O169 2.105 . S
Sc155 O171 2.105 . S
Sc155 O175 2.105 . S
Sc156 O157 2.025 . S
Sc156 O166 2.105 . S
Sc156 O168 2.105 . S
Sc156 O172 2.105 . S
Sc156 O174 2.105 . S
O157 Sc154 2.025 . S
O157 Sc155 2.025 . S
O157 Sc156 2.025 . S
C158 O164 1.268 . S
C158 O174 1.268 . S
C159 O165 1.268 . S
C159 O173 1.268 . S
C160 O166 1.268 . S
C160 O175 1.268 . S
C161 O167 1.268 . S
C161 O171 1.268 . S
C162 O168 1.268 . S
C162 O170 1.268 . S
C163 O169 1.268 . S
C163 O172 1.268 . S
O164 Sc154 2.105 . S
O164 C158 1.268 . S
O165 Sc155 2.105 . S
O165 C159 1.268 . S
O166 Sc156 2.105 . S
O166 C160 1.268 . S
O167 Sc154 2.105 . S
O167 C161 1.268 . S
O168 Sc156 2.105 . S
O168 C162 1.268 . S
O169 Sc155 2.105 . S
O169 C163 1.268 . S
O170 Sc154 2.105 . S
O170 C162 1.268 . S
O171 Sc155 2.105 . S
O171 C161 1.268 . S
O172 Sc156 2.105 . S
O172 C163 1.268 . S
O173 Sc154 2.105 . S
O173 C159 1.268 . S
O174 Sc156 2.105 . S
O174 C158 1.268 . S
O175 Sc155 2.105 . S
O175 C160 1.268 . S
C176 C177 1.391 . S
C176 C178 1.394 . S
C176 H192 0.931 . S
C177 C176 1.391 . S
C177 C181 1.376 . S
C178 C176 1.394 . S
C178 C179 1.369 . S
C178 C182 1.531 . S
C179 C178 1.369 . S
C179 C180 1.410 . S
C179 C187 1.503 . S
C180 C179 1.410 . S
C180 C181 1.392 . S
C180 C183 1.511 . S
C181 C177 1.376 . S
C181 C180 1.392 . S
C181 H193 0.929 . S
C182 C178 1.531 . S
C182 H194 0.960 . S
C182 H195 0.962 . S
C182 H196 0.960 . S
C183 C180 1.511 . S
C183 H197 0.961 . S
C183 H198 0.961 . S
C183 H199 0.961 . S
C184 C185 1.370 . S
C184 C186 1.363 . S
C184 H200 0.931 . S
C185 C184 1.370 . S
C185 C189 1.408 . S
C186 C184 1.363 . S
C186 C187 1.370 . S
C186 C190 1.524 . S
C187 C179 1.503 . S
C187 C186 1.370 . S
C187 C188 1.403 . S
C188 C187 1.403 . S
C188 C189 1.404 . S
C188 C191 1.539 . S
C189 C185 1.408 . S
C189 C188 1.404 . S
C189 H201 0.930 . S
C190 C186 1.524 . S
C190 H202 0.956 . S
C190 H203 0.961 . S
C190 H204 0.961 . S
C191 C188 1.539 . S
C191 H205 0.958 . S
C191 H206 0.961 . S
C191 H207 0.960 . S
H192 C176 0.931 . S
H193 C181 0.929 . S
H194 C182 0.960 . S
H195 C182 0.962 . S
H196 C182 0.960 . S
H197 C183 0.961 . S
H198 C183 0.961 . S
H199 C183 0.961 . S
H200 C184 0.931 . S
H201 C189 0.930 . S
H202 C190 0.956 . S
H203 C190 0.961 . S
H204 C190 0.961 . S
H205 C191 0.958 . S
H206 C191 0.961 . S
H207 C191 0.960 . S
C208 C209 1.391 . S
C208 C210 1.394 . S
C208 H224 0.931 . S
C209 C208 1.391 . S
C209 C213 1.376 . S
C210 C208 1.394 . S
C210 C211 1.369 . S
C210 C214 1.531 . S
C211 C210 1.369 . S
C211 C212 1.410 . S
C211 C219 1.503 . S
C212 C211 1.410 . S
C212 C213 1.392 . S
C212 C215 1.511 . S
C213 C209 1.376 . S
C213 C212 1.392 . S
C213 H225 0.929 . S
C214 C210 1.531 . S
C214 H226 0.960 . S
C214 H227 0.962 . S
C214 H228 0.960 . S
C215 C212 1.511 . S
C215 H229 0.961 . S
C215 H230 0.961 . S
C215 H231 0.961 . S
C216 C217 1.370 . S
C216 C218 1.363 . S
C216 H232 0.931 . S
C217 C216 1.370 . S
C217 C221 1.408 . S
C218 C216 1.363 . S
C218 C219 1.370 . S
C218 C222 1.524 . S
C219 C211 1.503 . S
C219 C218 1.370 . S
C219 C220 1.403 . S
C220 C219 1.403 . S
C220 C221 1.404 . S
C220 C223 1.539 . S
C221 C217 1.408 . S
C221 C220 1.404 . S
C221 H233 0.930 . S
C222 C218 1.524 . S
C222 H234 0.956 . S
C222 H235 0.961 . S
C222 H236 0.961 . S
C223 C220 1.539 . S
C223 H237 0.958 . S
C223 H238 0.961 . S
C223 H239 0.960 . S
H224 C208 0.931 . S
H225 C213 0.929 . S
H226 C214 0.960 . S
H227 C214 0.962 . S
H228 C214 0.960 . S
H229 C215 0.961 . S
H230 C215 0.961 . S
H231 C215 0.961 . S
H232 C216 0.931 . S
H233 C221 0.930 . S
H234 C222 0.956 . S
H235 C222 0.961 . S
H236 C222 0.961 . S
H237 C223 0.958 . S
H238 C223 0.961 . S
H239 C223 0.960 . S
C240 C241 1.391 . S
C240 C242 1.394 . S
C240 H256 0.931 . S
C241 C240 1.391 . S
C241 C245 1.376 . S
C242 C240 1.394 . S
C242 C243 1.369 . S
C242 C246 1.531 . S
C243 C242 1.369 . S
C243 C244 1.410 . S
C243 C251 1.503 . S
C244 C243 1.410 . S
C244 C245 1.392 . S
C244 C247 1.511 . S
C245 C241 1.376 . S
C245 C244 1.392 . S
C245 H257 0.929 . S
C246 C242 1.531 . S
C246 H258 0.960 . S
C246 H259 0.962 . S
C246 H260 0.960 . S
C247 C244 1.511 . S
C247 H261 0.961 . S
C247 H262 0.961 . S
C247 H263 0.961 . S
C248 C249 1.370 . S
C248 C250 1.363 . S
C248 H264 0.931 . S
C249 C248 1.370 . S
C249 C253 1.408 . S
C250 C248 1.363 . S
C250 C251 1.370 . S
C250 C254 1.524 . S
C251 C243 1.503 . S
C251 C250 1.370 . S
C251 C252 1.403 . S
C252 C251 1.403 . S
C252 C253 1.404 . S
C252 C255 1.539 . S
C253 C249 1.408 . S
C253 C252 1.404 . S
C253 H265 0.930 . S
C254 C250 1.524 . S
C254 H266 0.956 . S
C254 H267 0.961 . S
C254 H268 0.961 . S
C255 C252 1.539 . S
C255 H269 0.958 . S
C255 H270 0.961 . S
C255 H271 0.960 . S
H256 C240 0.931 . S
H257 C245 0.929 . S
H258 C246 0.960 . S
H259 C246 0.962 . S
H260 C246 0.960 . S
H261 C247 0.961 . S
H262 C247 0.961 . S
H263 C247 0.961 . S
H264 C248 0.931 . S
H265 C253 0.930 . S
H266 C254 0.956 . S
H267 C254 0.961 . S
H268 C254 0.961 . S
H269 C255 0.958 . S
H270 C255 0.961 . S
H271 C255 0.960 . S
C272 C273 1.391 . S
C272 C274 1.394 . S
C272 H288 0.931 . S
C273 C272 1.391 . S
C273 C277 1.376 . S
C274 C272 1.394 . S
C274 C275 1.369 . S
C274 C278 1.531 . S
C275 C274 1.369 . S
C275 C276 1.410 . S
C275 C283 1.503 . S
C276 C275 1.410 . S
C276 C277 1.392 . S
C276 C279 1.511 . S
C277 C273 1.376 . S
C277 C276 1.392 . S
C277 H289 0.929 . S
C278 C274 1.531 . S
C278 H290 0.960 . S
C278 H291 0.962 . S
C278 H292 0.960 . S
C279 C276 1.511 . S
C279 H293 0.961 . S
C279 H294 0.961 . S
C279 H295 0.961 . S
C280 C281 1.370 . S
C280 C282 1.363 . S
C280 H296 0.931 . S
C281 C280 1.370 . S
C281 C285 1.408 . S
C282 C280 1.363 . S
C282 C283 1.370 . S
C282 C286 1.524 . S
C283 C275 1.503 . S
C283 C282 1.370 . S
C283 C284 1.403 . S
C284 C283 1.403 . S
C284 C285 1.404 . S
C284 C287 1.539 . S
C285 C281 1.408 . S
C285 C284 1.404 . S
C285 H297 0.930 . S
C286 C282 1.524 . S
C286 H298 0.956 . S
C286 H299 0.961 . S
C286 H300 0.961 . S
C287 C284 1.539 . S
C287 H301 0.958 . S
C287 H302 0.961 . S
C287 H303 0.960 . S
H288 C272 0.931 . S
H289 C277 0.929 . S
H290 C278 0.960 . S
H291 C278 0.962 . S
H292 C278 0.960 . S
H293 C279 0.961 . S
H294 C279 0.961 . S
H295 C279 0.961 . S
H296 C280 0.931 . S
H297 C285 0.930 . S
H298 C286 0.956 . S
H299 C286 0.961 . S
H300 C286 0.961 . S
H301 C287 0.958 . S
H302 C287 0.961 . S
H303 C287 0.960 . S
C304 C305 1.391 . S
C304 C306 1.394 . S
C304 H320 0.931 . S
C305 C304 1.391 . S
C305 C309 1.376 . S
C306 C304 1.394 . S
C306 C307 1.369 . S
C306 C310 1.531 . S
C307 C306 1.369 . S
C307 C308 1.410 . S
C307 C315 1.503 . S
C308 C307 1.410 . S
C308 C309 1.392 . S
C308 C311 1.511 . S
C309 C305 1.376 . S
C309 C308 1.392 . S
C309 H321 0.929 . S
C310 C306 1.531 . S
C310 H322 0.960 . S
C310 H323 0.962 . S
C310 H324 0.960 . S
C311 C308 1.511 . S
C311 H325 0.961 . S
C311 H326 0.961 . S
C311 H327 0.961 . S
C312 C313 1.370 . S
C312 C314 1.363 . S
C312 H328 0.931 . S
C313 C312 1.370 . S
C313 C317 1.408 . S
C314 C312 1.363 . S
C314 C315 1.370 . S
C314 C318 1.524 . S
C315 C307 1.503 . S
C315 C314 1.370 . S
C315 C316 1.403 . S
C316 C315 1.403 . S
C316 C317 1.404 . S
C316 C319 1.539 . S
C317 C313 1.408 . S
C317 C316 1.404 . S
C317 H329 0.930 . S
C318 C314 1.524 . S
C318 H330 0.956 . S
C318 H331 0.961 . S
C318 H332 0.961 . S
C319 C316 1.539 . S
C319 H333 0.958 . S
C319 H334 0.961 . S
C319 H335 0.960 . S
H320 C304 0.931 . S
H321 C309 0.929 . S
H322 C310 0.960 . S
H323 C310 0.962 . S
H324 C310 0.960 . S
H325 C311 0.961 . S
H326 C311 0.961 . S
H327 C311 0.961 . S
H328 C312 0.931 . S
H329 C317 0.930 . S
H330 C318 0.956 . S
H331 C318 0.961 . S
H332 C318 0.961 . S
H333 C319 0.958 . S
H334 C319 0.961 . S
H335 C319 0.960 . S
C336 C337 1.391 . S
C336 C338 1.394 . S
C336 H352 0.931 . S
C337 C336 1.391 . S
C337 C341 1.376 . S
C338 C336 1.394 . S
C338 C339 1.369 . S
C338 C342 1.531 . S
C339 C338 1.369 . S
C339 C340 1.410 . S
C339 C347 1.503 . S
C340 C339 1.410 . S
C340 C341 1.392 . S
C340 C343 1.511 . S
C341 C337 1.376 . S
C341 C340 1.392 . S
C341 H353 0.929 . S
C342 C338 1.531 . S
C342 H354 0.960 . S
C342 H355 0.962 . S
C342 H356 0.960 . S
C343 C340 1.511 . S
C343 H357 0.961 . S
C343 H358 0.961 . S
C343 H359 0.961 . S
C344 C345 1.370 . S
C344 C346 1.363 . S
C344 H360 0.931 . S
C345 C344 1.370 . S
C345 C349 1.408 . S
C346 C344 1.363 . S
C346 C347 1.370 . S
C346 C350 1.524 . S
C347 C339 1.503 . S
C347 C346 1.370 . S
C347 C348 1.403 . S
C348 C347 1.403 . S
C348 C349 1.404 . S
C348 C351 1.539 . S
C349 C345 1.408 . S
C349 C348 1.404 . S
C349 H361 0.930 . S
C350 C346 1.524 . S
C350 H362 0.956 . S
C350 H363 0.961 . S
C350 H364 0.961 . S
C351 C348 1.539 . S
C351 H365 0.958 . S
C351 H366 0.961 . S
C351 H367 0.960 . S
H352 C336 0.931 . S
H353 C341 0.929 . S
H354 C342 0.960 . S
H355 C342 0.962 . S
H356 C342 0.960 . S
H357 C343 0.961 . S
H358 C343 0.961 . S
H359 C343 0.961 . S
H360 C344 0.931 . S
H361 C349 0.930 . S
H362 C350 0.956 . S
H363 C350 0.961 . S
H364 C350 0.961 . S
H365 C351 0.958 . S
H366 C351 0.961 . S
H367 C351 0.960 . S
C368 C369 1.391 . S
C368 C370 1.394 . S
C368 H384 0.931 . S
C369 C368 1.391 . S
C369 C373 1.376 . S
C370 C368 1.394 . S
C370 C371 1.369 . S
C370 C374 1.531 . S
C371 C370 1.369 . S
C371 C372 1.410 . S
C371 C379 1.503 . S
C372 C371 1.410 . S
C372 C373 1.392 . S
C372 C375 1.511 . S
C373 C369 1.376 . S
C373 C372 1.392 . S
C373 H385 0.929 . S
C374 C370 1.531 . S
C374 H386 0.960 . S
C374 H387 0.962 . S
C374 H388 0.960 . S
C375 C372 1.511 . S
C375 H389 0.961 . S
C375 H390 0.961 . S
C375 H391 0.961 . S
C376 C377 1.370 . S
C376 C378 1.363 . S
C376 H392 0.931 . S
C377 C376 1.370 . S
C377 C381 1.408 . S
C378 C376 1.363 . S
C378 C379 1.370 . S
C378 C382 1.524 . S
C379 C371 1.503 . S
C379 C378 1.370 . S
C379 C380 1.403 . S
C380 C379 1.403 . S
C380 C381 1.404 . S
C380 C383 1.539 . S
C381 C377 1.408 . S
C381 C380 1.404 . S
C381 H393 0.930 . S
C382 C378 1.524 . S
C382 H394 0.956 . S
C382 H395 0.961 . S
C382 H396 0.961 . S
C383 C380 1.539 . S
C383 H397 0.958 . S
C383 H398 0.961 . S
C383 H399 0.960 . S
H384 C368 0.931 . S
H385 C373 0.929 . S
H386 C374 0.960 . S
H387 C374 0.962 . S
H388 C374 0.960 . S
H389 C375 0.961 . S
H390 C375 0.961 . S
H391 C375 0.961 . S
H392 C376 0.931 . S
H393 C381 0.930 . S
H394 C382 0.956 . S
H395 C382 0.961 . S
H396 C382 0.961 . S
H397 C383 0.958 . S
H398 C383 0.961 . S
H399 C383 0.960 . S
C400 C401 1.391 . S
C400 C402 1.394 . S
C400 H416 0.931 . S
C401 C400 1.391 . S
C401 C405 1.376 . S
C402 C400 1.394 . S
C402 C403 1.369 . S
C402 C406 1.531 . S
C403 C402 1.369 . S
C403 C404 1.410 . S
C403 C411 1.503 . S
C404 C403 1.410 . S
C404 C405 1.392 . S
C404 C407 1.511 . S
C405 C401 1.376 . S
C405 C404 1.392 . S
C405 H417 0.929 . S
C406 C402 1.531 . S
C406 H418 0.960 . S
C406 H419 0.962 . S
C406 H420 0.960 . S
C407 C404 1.511 . S
C407 H421 0.961 . S
C407 H422 0.961 . S
C407 H423 0.961 . S
C408 C409 1.370 . S
C408 C410 1.363 . S
C408 H424 0.931 . S
C409 C408 1.370 . S
C409 C413 1.408 . S
C410 C408 1.363 . S
C410 C411 1.370 . S
C410 C414 1.524 . S
C411 C403 1.503 . S
C411 C410 1.370 . S
C411 C412 1.403 . S
C412 C411 1.403 . S
C412 C413 1.404 . S
C412 C415 1.539 . S
C413 C409 1.408 . S
C413 C412 1.404 . S
C413 H425 0.930 . S
C414 C410 1.524 . S
C414 H426 0.956 . S
C414 H427 0.961 . S
C414 H428 0.961 . S
C415 C412 1.539 . S
C415 H429 0.958 . S
C415 H430 0.961 . S
C415 H431 0.960 . S
H416 C400 0.931 . S
H417 C405 0.929 . S
H418 C406 0.960 . S
H419 C406 0.962 . S
H420 C406 0.960 . S
H421 C407 0.961 . S
H422 C407 0.961 . S
H423 C407 0.961 . S
H424 C408 0.931 . S
H425 C413 0.930 . S
H426 C414 0.956 . S
H427 C414 0.961 . S
H428 C414 0.961 . S
H429 C415 0.958 . S
H430 C415 0.961 . S
H431 C415 0.960 . S
C432 C433 1.391 . S
C432 C434 1.394 . S
C432 H448 0.931 . S
C433 C432 1.391 . S
C433 C437 1.376 . S
C434 C432 1.394 . S
C434 C435 1.369 . S
C434 C438 1.531 . S
C435 C434 1.369 . S
C435 C436 1.410 . S
C435 C443 1.503 . S
C436 C435 1.410 . S
C436 C437 1.392 . S
C436 C439 1.511 . S
C437 C433 1.376 . S
C437 C436 1.392 . S
C437 H449 0.929 . S
C438 C434 1.531 . S
C438 H450 0.960 . S
C438 H451 0.962 . S
C438 H452 0.960 . S
C439 C436 1.511 . S
C439 H453 0.961 . S
C439 H454 0.961 . S
C439 H455 0.961 . S
C440 C441 1.370 . S
C440 C442 1.363 . S
C440 H456 0.931 . S
C441 C440 1.370 . S
C441 C445 1.408 . S
C442 C440 1.363 . S
C442 C443 1.370 . S
C442 C446 1.524 . S
C443 C435 1.503 . S
C443 C442 1.370 . S
C443 C444 1.403 . S
C444 C443 1.403 . S
C444 C445 1.404 . S
C444 C447 1.539 . S
C445 C441 1.408 . S
C445 C444 1.404 . S
C445 H457 0.930 . S
C446 C442 1.524 . S
C446 H458 0.956 . S
C446 H459 0.961 . S
C446 H460 0.961 . S
C447 C444 1.539 . S
C447 H461 0.958 . S
C447 H462 0.961 . S
C447 H463 0.960 . S
H448 C432 0.931 . S
H449 C437 0.929 . S
H450 C438 0.960 . S
H451 C438 0.962 . S
H452 C438 0.960 . S
H453 C439 0.961 . S
H454 C439 0.961 . S
H455 C439 0.961 . S
H456 C440 0.931 . S
H457 C445 0.930 . S
H458 C446 0.956 . S
H459 C446 0.961 . S
H460 C446 0.961 . S
H461 C447 0.958 . S
H462 C447 0.961 . S
H463 C447 0.960 . S
C464 C465 1.391 . S
C464 C466 1.394 . S
C464 H480 0.931 . S
C465 C464 1.391 . S
C465 C469 1.376 . S
C466 C464 1.394 . S
C466 C467 1.369 . S
C466 C470 1.531 . S
C467 C466 1.369 . S
C467 C468 1.410 . S
C467 C475 1.503 . S
C468 C467 1.410 . S
C468 C469 1.392 . S
C468 C471 1.511 . S
C469 C465 1.376 . S
C469 C468 1.392 . S
C469 H481 0.929 . S
C470 C466 1.531 . S
C470 H482 0.960 . S
C470 H483 0.962 . S
C470 H484 0.960 . S
C471 C468 1.511 . S
C471 H485 0.961 . S
C471 H486 0.961 . S
C471 H487 0.961 . S
C472 C473 1.370 . S
C472 C474 1.363 . S
C472 H488 0.931 . S
C473 C472 1.370 . S
C473 C477 1.408 . S
C474 C472 1.363 . S
C474 C475 1.370 . S
C474 C478 1.524 . S
C475 C467 1.503 . S
C475 C474 1.370 . S
C475 C476 1.403 . S
C476 C475 1.403 . S
C476 C477 1.404 . S
C476 C479 1.539 . S
C477 C473 1.408 . S
C477 C476 1.404 . S
C477 H489 0.930 . S
C478 C474 1.524 . S
C478 H490 0.956 . S
C478 H491 0.961 . S
C478 H492 0.961 . S
C479 C476 1.539 . S
C479 H493 0.958 . S
C479 H494 0.961 . S
C479 H495 0.960 . S
H480 C464 0.931 . S
H481 C469 0.929 . S
H482 C470 0.960 . S
H483 C470 0.962 . S
H484 C470 0.960 . S
H485 C471 0.961 . S
H486 C471 0.961 . S
H487 C471 0.961 . S
H488 C472 0.931 . S
H489 C477 0.930 . S
H490 C478 0.956 . S
H491 C478 0.961 . S
H492 C478 0.961 . S
H493 C479 0.958 . S
H494 C479 0.961 . S
H495 C479 0.960 . S
C496 C497 1.391 . S
C496 C498 1.394 . S
C496 H512 0.931 . S
C497 C496 1.391 . S
C497 C501 1.376 . S
C498 C496 1.394 . S
C498 C499 1.369 . S
C498 C502 1.531 . S
C499 C498 1.369 . S
C499 C500 1.410 . S
C499 C507 1.503 . S
C500 C499 1.410 . S
C500 C501 1.392 . S
C500 C503 1.511 . S
C501 C497 1.376 . S
C501 C500 1.392 . S
C501 H513 0.929 . S
C502 C498 1.531 . S
C502 H514 0.960 . S
C502 H515 0.962 . S
C502 H516 0.960 . S
C503 C500 1.511 . S
C503 H517 0.961 . S
C503 H518 0.961 . S
C503 H519 0.961 . S
C504 C505 1.370 . S
C504 C506 1.363 . S
C504 H520 0.931 . S
C505 C504 1.370 . S
C505 C509 1.408 . S
C506 C504 1.363 . S
C506 C507 1.370 . S
C506 C510 1.524 . S
C507 C499 1.503 . S
C507 C506 1.370 . S
C507 C508 1.403 . S
C508 C507 1.403 . S
C508 C509 1.404 . S
C508 C511 1.539 . S
C509 C505 1.408 . S
C509 C508 1.404 . S
C509 H521 0.930 . S
C510 C506 1.524 . S
C510 H522 0.956 . S
C510 H523 0.961 . S
C510 H524 0.961 . S
C511 C508 1.539 . S
C511 H525 0.958 . S
C511 H526 0.961 . S
C511 H527 0.960 . S
H512 C496 0.931 . S
H513 C501 0.929 . S
H514 C502 0.960 . S
H515 C502 0.962 . S
H516 C502 0.960 . S
H517 C503 0.961 . S
H518 C503 0.961 . S
H519 C503 0.961 . S
H520 C504 0.931 . S
H521 C509 0.930 . S
H522 C510 0.956 . S
H523 C510 0.961 . S
H524 C510 0.961 . S
H525 C511 0.958 . S
H526 C511 0.961 . S
H527 C511 0.960 . S
C528 C529 1.391 . S
C528 C530 1.394 . S
C528 H544 0.931 . S
C529 C528 1.391 . S
C529 C533 1.376 . S
C530 C528 1.394 . S
C530 C531 1.369 . S
C530 C534 1.531 . S
C531 C530 1.369 . S
C531 C532 1.410 . S
C531 C539 1.503 . S
C532 C531 1.410 . S
C532 C533 1.392 . S
C532 C535 1.511 . S
C533 C529 1.376 . S
C533 C532 1.392 . S
C533 H545 0.929 . S
C534 C530 1.531 . S
C534 H546 0.960 . S
C534 H547 0.962 . S
C534 H548 0.960 . S
C535 C532 1.511 . S
C535 H549 0.961 . S
C535 H550 0.961 . S
C535 H551 0.961 . S
C536 C537 1.370 . S
C536 C538 1.363 . S
C536 H552 0.931 . S
C537 C536 1.370 . S
C537 C541 1.408 . S
C538 C536 1.363 . S
C538 C539 1.370 . S
C538 C542 1.524 . S
C539 C531 1.503 . S
C539 C538 1.370 . S
C539 C540 1.403 . S
C540 C539 1.403 . S
C540 C541 1.404 . S
C540 C543 1.539 . S
C541 C537 1.408 . S
C541 C540 1.404 . S
C541 H553 0.930 . S
C542 C538 1.524 . S
C542 H554 0.956 . S
C542 H555 0.961 . S
C542 H556 0.961 . S
C543 C540 1.539 . S
C543 H557 0.958 . S
C543 H558 0.961 . S
C543 H559 0.960 . S
H544 C528 0.931 . S
H545 C533 0.929 . S
H546 C534 0.960 . S
H547 C534 0.962 . S
H548 C534 0.960 . S
H549 C535 0.961 . S
H550 C535 0.961 . S
H551 C535 0.961 . S
H552 C536 0.931 . S
H553 C541 0.930 . S
H554 C542 0.956 . S
H555 C542 0.961 . S
H556 C542 0.961 . S
H557 C543 0.958 . S
H558 C543 0.961 . S
H559 C543 0.960 . S
C560 C561 1.391 . S
C560 C562 1.394 . S
C560 H576 0.931 . S
C561 C560 1.391 . S
C561 C565 1.376 . S
C562 C560 1.394 . S
C562 C563 1.369 . S
C562 C566 1.531 . S
C563 C562 1.369 . S
C563 C564 1.410 1_565 S
C563 C571 1.503 1_565 S
C564 C563 1.410 1_545 S
C564 C565 1.392 1_545 S
C564 C567 1.511 . S
C565 C561 1.376 . S
C565 C564 1.392 1_565 S
C565 H577 0.929 . S
C566 C562 1.531 . S
C566 H578 0.960 . S
C566 H579 0.962 . S
C566 H580 0.960 . S
C567 C564 1.511 . S
C567 H581 0.961 . S
C567 H582 0.961 . S
C567 H583 0.961 . S
C568 C569 1.370 . S
C568 C570 1.363 . S
C568 H584 0.931 . S
C569 C568 1.370 . S
C569 C573 1.408 . S
C570 C568 1.363 . S
C570 C571 1.370 . S
C570 C574 1.520 1_545 S
C571 C563 1.503 1_545 S
C571 C570 1.370 . S
C571 C572 1.403 . S
C572 C571 1.403 . S
C572 C573 1.404 . S
C572 C575 1.539 . S
C573 C569 1.408 . S
C573 C572 1.404 . S
C573 H585 0.930 . S
C574 C570 1.520 1_565 S
C574 H586 0.965 . S
C574 H587 0.959 1_565 S
C574 H588 0.958 1_565 S
C575 C572 1.539 . S
C575 H589 0.958 . S
C575 H590 0.961 . S
C575 H591 0.960 . S
H576 C560 0.931 . S
H577 C565 0.929 . S
H578 C566 0.960 . S
H579 C566 0.962 . S
H580 C566 0.960 . S
H581 C567 0.961 . S
H582 C567 0.961 . S
H583 C567 0.961 . S
H584 C568 0.931 . S
H585 C573 0.930 . S
H586 C574 0.965 . S
H587 C574 0.959 1_545 S
H588 C574 0.958 1_545 S
H589 C575 0.958 . S
H590 C575 0.961 . S
H591 C575 0.960 . S
C592 C593 1.391 . S
C592 C594 1.394 1_545 S
C592 H608 0.931 . S
C593 C592 1.391 . S
C593 C597 1.376 . S
C594 C592 1.394 1_565 S
C594 C595 1.369 . S
C594 C598 1.531 . S
C595 C594 1.369 . S
C595 C596 1.410 1_565 S
C595 C603 1.503 . S
C596 C595 1.410 1_545 S
C596 C597 1.392 . S
C596 C599 1.511 . S
C597 C593 1.376 . S
C597 C596 1.392 . S
C597 H609 0.929 . S
C598 C594 1.531 . S
C598 H610 0.960 . S
C598 H611 0.962 . S
C598 H612 0.960 . S
C599 C596 1.511 . S
C599 H613 0.961 . S
C599 H614 0.961 . S
C599 H615 0.961 . S
C600 C601 1.370 . S
C600 C602 1.363 . S
C600 H616 0.931 . S
C601 C600 1.370 . S
C601 C605 1.408 . S
C602 C600 1.363 . S
C602 C603 1.370 . S
C602 C606 1.524 . S
C603 C595 1.503 . S
C603 C602 1.370 . S
C603 C604 1.403 . S
C604 C603 1.403 . S
C604 C605 1.404 . S
C604 C607 1.539 1_565 S
C605 C601 1.408 . S
C605 C604 1.404 . S
C605 H617 0.930 . S
C606 C602 1.524 . S
C606 H618 0.956 . S
C606 H619 0.961 . S
C606 H620 0.961 . S
C607 C604 1.539 1_545 S
C607 H621 0.958 . S
C607 H622 0.961 . S
C607 H623 0.960 . S
H608 C592 0.931 . S
H609 C597 0.929 . S
H610 C598 0.960 . S
H611 C598 0.962 . S
H612 C598 0.960 . S
H613 C599 0.961 . S
H614 C599 0.961 . S
H615 C599 0.961 . S
H616 C600 0.931 . S
H617 C605 0.930 . S
H618 C606 0.956 . S
H619 C606 0.961 . S
H620 C606 0.961 . S
H621 C607 0.958 . S
H622 C607 0.961 . S
H623 C607 0.960 . S
C624 C625 1.391 . S
C624 C626 1.394 . S
C624 H640 0.931 . S
C625 C624 1.391 . S
C625 C629 1.376 . S
C626 C624 1.394 . S
C626 C627 1.369 . S
C626 C630 1.531 . S
C627 C626 1.369 . S
C627 C628 1.410 1_565 S
C627 C635 1.503 1_565 S
C628 C627 1.410 1_545 S
C628 C629 1.392 1_545 S
C628 C631 1.511 . S
C629 C625 1.376 . S
C629 C628 1.392 1_565 S
C629 H641 0.929 . S
C630 C626 1.531 . S
C630 H642 0.960 . S
C630 H643 0.962 . S
C630 H644 0.960 . S
C631 C628 1.511 . S
C631 H645 0.961 . S
C631 H646 0.961 . S
C631 H647 0.961 . S
C632 C633 1.370 . S
C632 C634 1.363 . S
C632 H648 0.931 . S
C633 C632 1.370 . S
C633 C637 1.408 . S
C634 C632 1.363 . S
C634 C635 1.370 . S
C634 C638 1.524 . S
C635 C627 1.503 1_545 S
C635 C634 1.370 . S
C635 C636 1.403 . S
C636 C635 1.403 . S
C636 C637 1.404 . S
C636 C639 1.539 . S
C637 C633 1.408 . S
C637 C636 1.404 . S
C637 H649 0.930 . S
C638 C634 1.524 . S
C638 H650 0.956 . S
C638 H651 0.961 . S
C638 H652 0.961 . S
C639 C636 1.539 . S
C639 H653 0.958 1_545 S
C639 H654 0.961 . S
C639 H655 0.960 1_545 S
H640 C624 0.931 . S
H641 C629 0.929 . S
H642 C630 0.960 . S
H643 C630 0.962 . S
H644 C630 0.960 . S
H645 C631 0.961 . S
H646 C631 0.961 . S
H647 C631 0.961 . S
H648 C632 0.931 . S
H649 C637 0.930 . S
H650 C638 0.956 . S
H651 C638 0.961 . S
H652 C638 0.961 . S
H653 C639 0.958 1_565 S
H654 C639 0.961 . S
H655 C639 0.960 1_565 S
C656 C657 1.391 . S
C656 C658 1.394 . S
C656 H672 0.931 . S
C657 C656 1.391 . S
C657 C661 1.376 . S
C658 C656 1.394 . S
C658 C659 1.369 . S
C658 C662 1.531 . S
C659 C658 1.369 . S
C659 C660 1.410 . S
C659 C667 1.503 1_545 S
C660 C659 1.410 . S
C660 C661 1.392 . S
C660 C663 1.511 . S
C661 C657 1.376 . S
C661 C660 1.392 . S
C661 H673 0.929 . S
C662 C658 1.531 . S
C662 H674 0.960 . S
C662 H675 0.962 1_545 S
C662 H676 0.960 . S
C663 C660 1.511 . S
C663 H677 0.961 . S
C663 H678 0.961 1_545 S
C663 H679 0.961 . S
C664 C665 1.370 . S
C664 C666 1.363 . S
C664 H680 0.931 . S
C665 C664 1.370 . S
C665 C669 1.408 . S
C666 C664 1.363 . S
C666 C667 1.370 . S
C666 C670 1.524 . S
C667 C659 1.503 1_565 S
C667 C666 1.370 . S
C667 C668 1.403 . S
C668 C667 1.403 . S
C668 C669 1.404 . S
C668 C671 1.539 1_565 S
C669 C665 1.408 . S
C669 C668 1.404 . S
C669 H681 0.930 . S
C670 C666 1.524 . S
C670 H682 0.956 . S
C670 H683 0.961 . S
C670 H684 0.961 . S
C671 C668 1.539 1_545 S
C671 H685 0.958 . S
C671 H686 0.961 . S
C671 H687 0.960 . S
H672 C656 0.931 . S
H673 C661 0.929 . S
H674 C662 0.960 . S
H675 C662 0.962 1_565 S
H676 C662 0.960 . S
H677 C663 0.961 . S
H678 C663 0.961 1_565 S
H679 C663 0.961 . S
H680 C664 0.931 . S
H681 C669 0.930 . S
H682 C670 0.956 . S
H683 C670 0.961 . S
H684 C670 0.961 . S
H685 C671 0.958 . S
H686 C671 0.961 . S
H687 C671 0.960 . S
C688 C689 1.391 . S
C688 C690 1.394 . S
C688 H704 0.931 . S
C689 C688 1.391 . S
C689 C693 1.376 . S
C690 C688 1.394 . S
C690 C691 1.369 . S
C690 C694 1.531 . S
C691 C690 1.369 . S
C691 C692 1.410 . S
C691 C699 1.503 . S
C692 C691 1.410 . S
C692 C693 1.392 . S
C692 C695 1.511 . S
C693 C689 1.376 . S
C693 C692 1.392 . S
C693 H705 0.929 . S
C694 C690 1.531 . S
C694 H706 0.960 . S
C694 H707 0.962 . S
C694 H708 0.960 . S
C695 C692 1.511 . S
C695 H709 0.961 . S
C695 H710 0.961 . S
C695 H711 0.961 . S
C696 C697 1.370 . S
C696 C698 1.363 . S
C696 H712 0.931 . S
C697 C696 1.370 . S
C697 C701 1.408 . S
C698 C696 1.363 . S
C698 C699 1.370 . S
C698 C702 1.524 . S
C699 C691 1.503 . S
C699 C698 1.370 . S
C699 C700 1.403 . S
C700 C699 1.403 . S
C700 C701 1.404 . S
C700 C703 1.539 . S
C701 C697 1.408 . S
C701 C700 1.404 . S
C701 H713 0.930 . S
C702 C698 1.524 . S
C702 H714 0.956 . S
C702 H715 0.961 . S
C702 H716 0.961 . S
C703 C700 1.539 . S
C703 H717 0.958 . S
C703 H718 0.961 . S
C703 H719 0.960 . S
H704 C688 0.931 . S
H705 C693 0.929 . S
H706 C694 0.960 . S
H707 C694 0.962 . S
H708 C694 0.960 . S
H709 C695 0.961 . S
H710 C695 0.961 . S
H711 C695 0.961 . S
H712 C696 0.931 . S
H713 C701 0.930 . S
H714 C702 0.956 . S
H715 C702 0.961 . S
H716 C702 0.961 . S
H717 C703 0.958 . S
H718 C703 0.961 . S
H719 C703 0.960 . S
C720 C721 1.391 . S
C720 C722 1.394 . S
C720 H736 0.931 . S
C721 C720 1.391 . S
C721 C725 1.376 . S
C722 C720 1.394 . S
C722 C723 1.369 . S
C722 C726 1.531 . S
C723 C722 1.369 . S
C723 C724 1.410 . S
C723 C731 1.503 . S
C724 C723 1.410 . S
C724 C725 1.392 . S
C724 C727 1.511 . S
C725 C721 1.376 . S
C725 C724 1.392 . S
C725 H737 0.929 . S
C726 C722 1.531 . S
C726 H738 0.960 . S
C726 H739 0.962 . S
C726 H740 0.960 . S
C727 C724 1.511 . S
C727 H741 0.961 . S
C727 H742 0.961 . S
C727 H743 0.961 . S
C728 C729 1.370 . S
C728 C730 1.363 . S
C728 H744 0.931 . S
C729 C728 1.370 . S
C729 C733 1.408 . S
C730 C728 1.363 . S
C730 C731 1.370 . S
C730 C734 1.524 . S
C731 C723 1.503 . S
C731 C730 1.370 . S
C731 C732 1.403 . S
C732 C731 1.403 . S
C732 C733 1.404 . S
C732 C735 1.539 . S
C733 C729 1.408 . S
C733 C732 1.404 . S
C733 H745 0.930 . S
C734 C730 1.524 . S
C734 H746 0.956 . S
C734 H747 0.961 . S
C734 H748 0.961 . S
C735 C732 1.539 . S
C735 H749 0.958 . S
C735 H750 0.961 . S
C735 H751 0.960 . S
H736 C720 0.931 . S
H737 C725 0.929 . S
H738 C726 0.960 . S
H739 C726 0.962 . S
H740 C726 0.960 . S
H741 C727 0.961 . S
H742 C727 0.961 . S
H743 C727 0.961 . S
H744 C728 0.931 . S
H745 C733 0.930 . S
H746 C734 0.956 . S
H747 C734 0.961 . S
H748 C734 0.961 . S
H749 C735 0.958 . S
H750 C735 0.961 . S
H751 C735 0.960 . S
C752 C753 1.391 . S
C752 C754 1.394 . S
C752 H768 0.931 . S
C753 C752 1.391 . S
C753 C757 1.376 . S
C754 C752 1.394 . S
C754 C755 1.369 . S
C754 C758 1.531 . S
C755 C754 1.369 . S
C755 C756 1.410 . S
C755 C763 1.503 . S
C756 C755 1.410 . S
C756 C757 1.392 . S
C756 C759 1.511 . S
C757 C753 1.376 . S
C757 C756 1.392 . S
C757 H769 0.929 . S
C758 C754 1.531 . S
C758 H770 0.960 . S
C758 H771 0.962 . S
C758 H772 0.960 . S
C759 C756 1.511 . S
C759 H773 0.961 . S
C759 H774 0.961 . S
C759 H775 0.961 . S
C760 C761 1.370 . S
C760 C762 1.363 . S
C760 H776 0.931 . S
C761 C760 1.370 . S
C761 C765 1.408 . S
C762 C760 1.363 . S
C762 C763 1.370 . S
C762 C766 1.524 . S
C763 C755 1.503 . S
C763 C762 1.370 . S
C763 C764 1.403 . S
C764 C763 1.403 . S
C764 C765 1.404 . S
C764 C767 1.539 . S
C765 C761 1.408 . S
C765 C764 1.404 . S
C765 H777 0.930 . S
C766 C762 1.524 . S
C766 H778 0.956 . S
C766 H779 0.961 . S
C766 H780 0.961 . S
C767 C764 1.539 . S
C767 H781 0.958 . S
C767 H782 0.961 . S
C767 H783 0.960 . S
H768 C752 0.931 . S
H769 C757 0.929 . S
H770 C758 0.960 . S
H771 C758 0.962 . S
H772 C758 0.960 . S
H773 C759 0.961 . S
H774 C759 0.961 . S
H775 C759 0.961 . S
H776 C760 0.931 . S
H777 C765 0.930 . S
H778 C766 0.956 . S
H779 C766 0.961 . S
H780 C766 0.961 . S
H781 C767 0.958 . S
H782 C767 0.961 . S
H783 C767 0.960 . S
C784 C785 1.391 . S
C784 C786 1.394 . S
C784 H800 0.931 . S
C785 C784 1.391 . S
C785 C789 1.376 . S
C786 C784 1.394 . S
C786 C787 1.369 . S
C786 C790 1.531 . S
C787 C786 1.369 . S
C787 C788 1.410 . S
C787 C795 1.503 . S
C788 C787 1.410 . S
C788 C789 1.392 . S
C788 C791 1.511 . S
C789 C785 1.376 . S
C789 C788 1.392 . S
C789 H801 0.929 . S
C790 C786 1.531 . S
C790 H802 0.960 . S
C790 H803 0.962 . S
C790 H804 0.960 . S
C791 C788 1.511 . S
C791 H805 0.961 . S
C791 H806 0.961 . S
C791 H807 0.961 . S
C792 C793 1.370 . S
C792 C794 1.363 . S
C792 H808 0.931 . S
C793 C792 1.370 . S
C793 C797 1.408 . S
C794 C792 1.363 . S
C794 C795 1.370 . S
C794 C798 1.524 . S
C795 C787 1.503 . S
C795 C794 1.370 . S
C795 C796 1.403 . S
C796 C795 1.403 . S
C796 C797 1.404 . S
C796 C799 1.539 . S
C797 C793 1.408 . S
C797 C796 1.404 . S
C797 H809 0.930 . S
C798 C794 1.524 . S
C798 H810 0.956 . S
C798 H811 0.961 . S
C798 H812 0.961 . S
C799 C796 1.539 . S
C799 H813 0.958 . S
C799 H814 0.961 . S
C799 H815 0.960 . S
H800 C784 0.931 . S
H801 C789 0.929 . S
H802 C790 0.960 . S
H803 C790 0.962 . S
H804 C790 0.960 . S
H805 C791 0.961 . S
H806 C791 0.961 . S
H807 C791 0.961 . S
H808 C792 0.931 . S
H809 C797 0.930 . S
H810 C798 0.956 . S
H811 C798 0.961 . S
H812 C798 0.961 . S
H813 C799 0.958 . S
H814 C799 0.961 . S
H815 C799 0.960 . S
C816 C817 1.391 . S
C816 C818 1.394 . S
C816 H832 0.931 . S
C817 C816 1.391 . S
C817 C821 1.376 . S
C818 C816 1.394 . S
C818 C819 1.369 . S
C818 C822 1.531 . S
C819 C818 1.369 . S
C819 C820 1.410 . S
C819 C827 1.503 . S
C820 C819 1.410 . S
C820 C821 1.392 . S
C820 C823 1.511 . S
C821 C817 1.376 . S
C821 C820 1.392 . S
C821 H833 0.929 . S
C822 C818 1.531 . S
C822 H834 0.960 . S
C822 H835 0.962 . S
C822 H836 0.960 . S
C823 C820 1.511 . S
C823 H837 0.961 . S
C823 H838 0.961 . S
C823 H839 0.961 . S
C824 C825 1.370 . S
C824 C826 1.363 . S
C824 H840 0.931 . S
C825 C824 1.370 . S
C825 C829 1.408 . S
C826 C824 1.363 . S
C826 C827 1.370 . S
C826 C830 1.524 . S
C827 C819 1.503 . S
C827 C826 1.370 . S
C827 C828 1.403 . S
C828 C827 1.403 . S
C828 C829 1.404 . S
C828 C831 1.539 . S
C829 C825 1.408 . S
C829 C828 1.404 . S
C829 H841 0.930 . S
C830 C826 1.524 . S
C830 H842 0.956 . S
C830 H843 0.961 . S
C830 H844 0.961 . S
C831 C828 1.539 . S
C831 H845 0.958 . S
C831 H846 0.961 . S
C831 H847 0.960 . S
H832 C816 0.931 . S
H833 C821 0.929 . S
H834 C822 0.960 . S
H835 C822 0.962 . S
H836 C822 0.960 . S
H837 C823 0.961 . S
H838 C823 0.961 . S
H839 C823 0.961 . S
H840 C824 0.931 . S
H841 C829 0.930 . S
H842 C830 0.956 . S
H843 C830 0.961 . S
H844 C830 0.961 . S
H845 C831 0.958 . S
H846 C831 0.961 . S
H847 C831 0.960 . S
C848 C849 1.391 . S
C848 C850 1.394 . S
C848 H864 0.931 . S
C849 C848 1.391 . S
C849 C853 1.376 . S
C850 C848 1.394 . S
C850 C851 1.369 . S
C850 C854 1.531 . S
C851 C850 1.369 . S
C851 C852 1.410 . S
C851 C859 1.503 . S
C852 C851 1.410 . S
C852 C853 1.392 . S
C852 C855 1.511 . S
C853 C849 1.376 . S
C853 C852 1.392 . S
C853 H865 0.929 . S
C854 C850 1.531 . S
C854 H866 0.960 . S
C854 H867 0.962 . S
C854 H868 0.960 . S
C855 C852 1.511 . S
C855 H869 0.961 . S
C855 H870 0.961 . S
C855 H871 0.961 . S
C856 C857 1.370 . S
C856 C858 1.363 . S
C856 H872 0.931 . S
C857 C856 1.370 . S
C857 C861 1.408 . S
C858 C856 1.363 . S
C858 C859 1.370 . S
C858 C862 1.524 . S
C859 C851 1.503 . S
C859 C858 1.370 . S
C859 C860 1.403 . S
C860 C859 1.403 . S
C860 C861 1.404 . S
C860 C863 1.539 . S
C861 C857 1.408 . S
C861 C860 1.404 . S
C861 H873 0.930 . S
C862 C858 1.524 . S
C862 H874 0.956 . S
C862 H875 0.961 . S
C862 H876 0.961 . S
C863 C860 1.539 . S
C863 H877 0.958 . S
C863 H878 0.961 . S
C863 H879 0.960 . S
H864 C848 0.931 . S
H865 C853 0.929 . S
H866 C854 0.960 . S
H867 C854 0.962 . S
H868 C854 0.960 . S
H869 C855 0.961 . S
H870 C855 0.961 . S
H871 C855 0.961 . S
H872 C856 0.931 . S
H873 C861 0.930 . S
H874 C862 0.956 . S
H875 C862 0.961 . S
H876 C862 0.961 . S
H877 C863 0.958 . S
H878 C863 0.961 . S
H879 C863 0.960 . S
C880 C881 1.391 . S
C880 C882 1.394 . S
C880 H896 0.931 . S
C881 C880 1.391 . S
C881 C885 1.376 . S
C882 C880 1.394 . S
C882 C883 1.369 . S
C882 C886 1.531 . S
C883 C882 1.369 . S
C883 C884 1.410 . S
C883 C891 1.503 . S
C884 C883 1.410 . S
C884 C885 1.392 . S
C884 C887 1.511 . S
C885 C881 1.376 . S
C885 C884 1.392 . S
C885 H897 0.929 . S
C886 C882 1.531 . S
C886 H898 0.960 . S
C886 H899 0.962 . S
C886 H900 0.960 . S
C887 C884 1.511 . S
C887 H901 0.961 . S
C887 H902 0.961 . S
C887 H903 0.961 . S
C888 C889 1.370 . S
C888 C890 1.363 . S
C888 H904 0.931 . S
C889 C888 1.370 . S
C889 C893 1.408 . S
C890 C888 1.363 . S
C890 C891 1.370 . S
C890 C894 1.524 . S
C891 C883 1.503 . S
C891 C890 1.370 . S
C891 C892 1.403 . S
C892 C891 1.403 . S
C892 C893 1.404 . S
C892 C895 1.539 . S
C893 C889 1.408 . S
C893 C892 1.404 . S
C893 H905 0.930 . S
C894 C890 1.524 . S
C894 H906 0.956 . S
C894 H907 0.961 . S
C894 H908 0.961 . S
C895 C892 1.539 . S
C895 H909 0.958 . S
C895 H910 0.961 . S
C895 H911 0.960 . S
H896 C880 0.931 . S
H897 C885 0.929 . S
H898 C886 0.960 . S
H899 C886 0.962 . S
H900 C886 0.960 . S
H901 C887 0.961 . S
H902 C887 0.961 . S
H903 C887 0.961 . S
H904 C888 0.931 . S
H905 C893 0.930 . S
H906 C894 0.956 . S
H907 C894 0.961 . S
H908 C894 0.961 . S
H909 C895 0.958 . S
H910 C895 0.961 . S
H911 C895 0.960 . S
C912 C913 1.391 . S
C912 C914 1.394 . S
C912 H928 0.931 . S
C913 C912 1.391 . S
C913 C917 1.376 . S
C914 C912 1.394 . S
C914 C915 1.369 . S
C914 C918 1.531 . S
C915 C914 1.369 . S
C915 C916 1.410 . S
C915 C923 1.503 . S
C916 C915 1.410 . S
C916 C917 1.392 . S
C916 C919 1.511 . S
C917 C913 1.376 . S
C917 C916 1.392 . S
C917 H929 0.929 . S
C918 C914 1.531 . S
C918 H930 0.960 . S
C918 H931 0.962 . S
C918 H932 0.960 . S
C919 C916 1.511 . S
C919 H933 0.961 . S
C919 H934 0.961 . S
C919 H935 0.961 . S
C920 C921 1.370 . S
C920 C922 1.363 . S
C920 H936 0.931 . S
C921 C920 1.370 . S
C921 C925 1.408 . S
C922 C920 1.363 . S
C922 C923 1.370 . S
C922 C926 1.524 . S
C923 C915 1.503 . S
C923 C922 1.370 . S
C923 C924 1.403 . S
C924 C923 1.403 . S
C924 C925 1.404 . S
C924 C927 1.539 . S
C925 C921 1.408 . S
C925 C924 1.404 . S
C925 H937 0.930 . S
C926 C922 1.524 . S
C926 H938 0.956 . S
C926 H939 0.961 . S
C926 H940 0.961 . S
C927 C924 1.539 . S
C927 H941 0.958 . S
C927 H942 0.961 . S
C927 H943 0.960 . S
H928 C912 0.931 . S
H929 C917 0.929 . S
H930 C918 0.960 . S
H931 C918 0.962 . S
H932 C918 0.960 . S
H933 C919 0.961 . S
H934 C919 0.961 . S
H935 C919 0.961 . S
H936 C920 0.931 . S
H937 C925 0.930 . S
H938 C926 0.956 . S
H939 C926 0.961 . S
H940 C926 0.961 . S
H941 C927 0.958 . S
H942 C927 0.961 . S
H943 C927 0.960 . S
C177 C8 1.681 . S
C185 C114 1.696 . S
C217 C92 1.407 . S
C209 C19 1.421 . S
C249 C118 1.514 . S
C241 C30 1.543 . S
C281 C96 1.525 . S
C273 C41 1.548 . S
C313 C158 1.698 . S
C305 C52 1.665 . S
C345 C136 1.392 . S
C337 C63 1.424 . S
C369 C74 1.543 . S
C377 C162 1.518 . S
C409 C140 1.517 . S
C401 C85 1.547 . S
C433 C7 1.687 . S
C441 C163 1.715 . S
C473 C141 1.326 . S
C465 C16 1.174 . S
C497 C29 1.570 . S
C505 C160 1.571 . S
C529 C40 1.510 . S
C537 C138 1.500 . S
C569 C119 1.719 . S
C561 C51 1.659 . S
C593 C60 1.249 . S
C601 C97 1.322 . S
C633 C116 1.563 . S
C625 C73 1.588 . S
C665 C94 1.497 . S
C657 C84 1.517 . S
C697 C137 1.472 . S
C689 C5 1.276 . S
C729 C159 1.453 . S
C721 C18 1.476 . S
C753 C27 1.354 . S
C761 C139 1.458 . S
C793 C161 1.448 . S
C785 C38 1.309 . S
C825 C93 1.472 . S
C817 C49 1.279 . S
C849 C62 1.471 . S
C857 C115 1.460 . S
C881 C71 1.400 . S
C889 C95 1.464 . S
C913 C82 1.333 . S
C921 C117 1.461 . S
