# Generated by pormake.
# Topology pyr, (3,6)-cn, num edge types: 1
# Building blocks:
#     Node 0, Type 0, BuildingBlock: OLANEW_clean_sbu_2, # of connection points: 3
#     Node 1, Type 0, BuildingBlock: OLANEW_clean_sbu_2, # of connection points: 3
#     Node 2, Type 0, BuildingBlock: OLANEW_clean_sbu_2, # of connection points: 3
#     Node 3, Type 0, BuildingBlock: OLANEW_clean_sbu_2, # of connection points: 3
#     Node 4, Type 0, BuildingBlock: OLANEW_clean_sbu_2, # of connection points: 3
#     Node 5, Type 0, BuildingBlock: OLANEW_clean_sbu_2, # of connection points: 3
#     Node 6, Type 0, BuildingBlock: OLANEW_clean_sbu_2, # of connection points: 3
#     Node 7, Type 0, BuildingBlock: OLANEW_clean_sbu_2, # of connection points: 3
#     Node 8, Type 1, BuildingBlock: PAMTOO_clean_sbu_0, # of connection points: 6
#     Node 9, Type 1, BuildingBlock: PAMTOO_clean_sbu_0, # of connection points: 6
#     Node 10, Type 1, BuildingBlock: PAMTOO_clean_sbu_0, # of connection points: 6
#     Node 11, Type 1, BuildingBlock: PAMTOO_clean_sbu_0, # of connection points: 6
#     Edge 12, Type (0, 1), BuildingBlock: UVAHIK_clean_linker_0, # of connection points: 2
#     Edge 13, Type (0, 1), BuildingBlock: UVAHIK_clean_linker_0, # of connection points: 2
#     Edge 14, Type (0, 1), BuildingBlock: UVAHIK_clean_linker_0, # of connection points: 2
#     Edge 15, Type (0, 1), BuildingBlock: UVAHIK_clean_linker_0, # of connection points: 2
#     Edge 16, Type (0, 1), BuildingBlock: UVAHIK_clean_linker_0, # of connection points: 2
#     Edge 17, Type (0, 1), BuildingBlock: UVAHIK_clean_linker_0, # of connection points: 2
#     Edge 18, Type (0, 1), BuildingBlock: UVAHIK_clean_linker_0, # of connection points: 2
#     Edge 19, Type (0, 1), BuildingBlock: UVAHIK_clean_linker_0, # of connection points: 2
#     Edge 20, Type (0, 1), BuildingBlock: UVAHIK_clean_linker_0, # of connection points: 2
#     Edge 21, Type (0, 1), BuildingBlock: UVAHIK_clean_linker_0, # of connection points: 2
#     Edge 22, Type (0, 1), BuildingBlock: UVAHIK_clean_linker_0, # of connection points: 2
#     Edge 23, Type (0, 1), BuildingBlock: UVAHIK_clean_linker_0, # of connection points: 2
#     Edge 24, Type (0, 1), BuildingBlock: UVAHIK_clean_linker_0, # of connection points: 2
#     Edge 25, Type (0, 1), BuildingBlock: UVAHIK_clean_linker_0, # of connection points: 2
#     Edge 26, Type (0, 1), BuildingBlock: UVAHIK_clean_linker_0, # of connection points: 2
#     Edge 27, Type (0, 1), BuildingBlock: UVAHIK_clean_linker_0, # of connection points: 2
#     Edge 28, Type (0, 1), BuildingBlock: UVAHIK_clean_linker_0, # of connection points: 2
#     Edge 29, Type (0, 1), BuildingBlock: UVAHIK_clean_linker_0, # of connection points: 2
#     Edge 30, Type (0, 1), BuildingBlock: UVAHIK_clean_linker_0, # of connection points: 2
#     Edge 31, Type (0, 1), BuildingBlock: UVAHIK_clean_linker_0, # of connection points: 2
#     Edge 32, Type (0, 1), BuildingBlock: UVAHIK_clean_linker_0, # of connection points: 2
#     Edge 33, Type (0, 1), BuildingBlock: UVAHIK_clean_linker_0, # of connection points: 2
#     Edge 34, Type (0, 1), BuildingBlock: UVAHIK_clean_linker_0, # of connection points: 2
#     Edge 35, Type (0, 1), BuildingBlock: UVAHIK_clean_linker_0, # of connection points: 2
# Relax obj value: 0.097
# Max RMSD: 0.206
# Mean RMSD: 0.126
data_MOF--net-pyr--node1-OLANEW_clean_sbu_2--node2-PAMTOO_clean_sbu_0--edge1-UVAHIK_clean_linker_0
_symmetry_space_group_name_H-M    P1
_symmetry_Int_Tables_number       1
_symmetry_cell_setting            triclinic
loop_
_symmetry_equiv_pos_as_xyz
'x, y, z'
_cell_length_a     51.581594
_cell_length_b     53.583139
_cell_length_c     53.215051
_cell_angle_alpha  93.862522
_cell_angle_beta   89.497906
_cell_angle_gamma 105.19791
loop_
_atom_site_label
_atom_site_type_symbol
_atom_site_fract_x
_atom_site_fract_y
_atom_site_fract_z
_atom_type_partial_charge
O0 O 0.30673 0.23893 0.18923 0.0
Cd1 Cd 0.27684 0.26227 0.21093 0.0
O2 O 0.32995 0.24093 0.22417 0.0
Cd3 Cd 0.30263 0.25602 0.24866 0.0
O4 O 0.27429 0.25055 0.27978 0.0
C5 C 0.28352 0.24909 0.30154 0.0
O6 O 0.30957 0.25287 0.30442 0.0
C7 C 0.32639 0.23439 0.20078 0.0
C8 C 0.24347 0.28246 0.18144 0.0
O9 O 0.26752 0.29557 0.1871 0.0
O10 O 0.23552 0.25948 0.18899 0.0
O11 O 0.21013 0.78558 0.76369 0.0
Cd12 Cd 0.19164 0.77439 0.72111 0.0
O13 O 0.17368 0.79197 0.78174 0.0
Cd14 Cd 0.15235 0.78923 0.74598 0.0
O15 O 0.13146 0.80416 0.71731 0.0
C16 C 0.11231 0.81357 0.72481 0.0
O17 O 0.10552 0.81254 0.74865 0.0
C18 C 0.19789 0.79079 0.78338 0.0
C19 C 0.22716 0.75236 0.69341 0.0
O20 O 0.20747 0.73823 0.70513 0.0
O21 O 0.22954 0.77681 0.69418 0.0
O22 O 0.68847 0.40559 0.85422 0.0
Cd23 Cd 0.64285 0.39131 0.83498 0.0
O24 O 0.68616 0.37186 0.87702 0.0
Cd25 Cd 0.64621 0.34456 0.87176 0.0
O26 O 0.62034 0.30859 0.88595 0.0
C27 C 0.62502 0.30444 0.90854 0.0
O28 O 0.64376 0.32184 0.92144 0.0
C29 C 0.69911 0.39376 0.86959 0.0
C30 C 0.63155 0.41647 0.79282 0.0
O31 O 0.62982 0.42593 0.81536 0.0
O32 O 0.63947 0.39569 0.79008 0.0
O33 O 0.88911 0.71093 0.35046 0.0
Cd34 Cd 0.86215 0.6711 0.32792 0.0
O35 O 0.88163 0.69378 0.38712 0.0
Cd36 Cd 0.85393 0.65726 0.37369 0.0
O37 O 0.81381 0.63543 0.38411 0.0
C38 C 0.79869 0.64971 0.39152 0.0
O39 O 0.80784 0.67495 0.39066 0.0
C40 C 0.89239 0.7129 0.37426 0.0
C41 C 0.88534 0.6516 0.28577 0.0
O42 O 0.87343 0.66964 0.28402 0.0
O43 O 0.88698 0.64328 0.30757 0.0
O44 O 0.70394 0.74591 0.8062 0.0
Cd45 Cd 0.68297 0.7133 0.83527 0.0
O46 O 0.69209 0.77595 0.82987 0.0
Cd47 Cd 0.68573 0.81371 0.84224 0.0
O48 O 0.66965 0.84287 0.86306 0.0
C49 C 0.64429 0.83785 0.86544 0.0
O50 O 0.6293 0.81613 0.85468 0.0
C51 C 0.70396 0.76954 0.81038 0.0
C52 C 0.72264 0.69626 0.85877 0.0
O53 O 0.71236 0.68566 0.83758 0.0
O54 O 0.71381 0.71469 0.86911 0.0
O55 O 0.79295 0.24243 0.36904 0.0
Cd56 Cd 0.81767 0.26332 0.40707 0.0
O57 O 0.8064 0.27565 0.34568 0.0
Cd58 Cd 0.81925 0.30177 0.37904 0.0
O59 O 0.80059 0.3271 0.40249 0.0
C60 C 0.78813 0.33978 0.38998 0.0
O61 O 0.78939 0.33787 0.36527 0.0
C62 C 0.79392 0.25206 0.34775 0.0
C63 C 0.84434 0.22928 0.42577 0.0
O64 O 0.82025 0.22874 0.43237 0.0
O65 O 0.85608 0.24635 0.41074 0.0
O66 O 0.39688 0.74124 0.23638 0.0
Cd67 Cd 0.37866 0.6982 0.25396 0.0
O68 O 0.36089 0.7347 0.21206 0.0
Cd69 Cd 0.33732 0.69534 0.21851 0.0
O70 O 0.3021 0.66729 0.20102 0.0
C71 C 0.29667 0.67232 0.17893 0.0
O72 O 0.31251 0.69253 0.16897 0.0
C73 C 0.38339 0.74916 0.22006 0.0
C74 C 0.4021 0.68231 0.29596 0.0
O75 O 0.40947 0.67773 0.27341 0.0
O76 O 0.3847 0.69551 0.29884 0.0
O77 O 0.14809 0.40361 0.74819 0.0
Cd78 Cd 0.15411 0.3823 0.7071 0.0
O79 O 0.14372 0.36882 0.76929 0.0
Cd80 Cd 0.14595 0.34314 0.73612 0.0
O81 O 0.13418 0.30843 0.71039 0.0
C82 C 0.10918 0.29737 0.7087 0.0
O83 O 0.09239 0.30777 0.72166 0.0
C84 C 0.14448 0.39271 0.76893 0.0
C85 C 0.2024 0.40496 0.6835 0.0
O86 O 0.18219 0.41458 0.6825 0.0
O87 O 0.19995 0.38478 0.69591 0.0
Dy88 Dy 0.01141 0.01142 0.52506 0.0
Dy89 Dy 0.95678 0.99956 0.5599 0.0
C90 C 0.00494 0.05044 0.57101 0.0
O91 O 0.01367 0.97849 0.54784 0.0
O92 O -0.01297 0.98573 0.58089 0.0
O93 O 0.05459 0.01969 0.52126 0.0
O94 O 0.02904 0.01479 0.4882 0.0
O95 O 0.95622 0.96208 0.53834 0.0
O96 O 0.9802 0.9799 0.50465 0.0
O97 O 0.94758 0.01739 0.52545 0.0
O98 O -0.00999 0.0411 0.51651 0.0
O99 O 0.91399 0.98341 0.56353 0.0
O100 O 0.93753 0.00515 0.59523 0.0
C101 C 0.00528 0.97496 0.57106 0.0
O102 O 0.02139 0.03882 0.55914 0.0
O103 O 0.97878 0.04093 0.56937 0.0
C104 C 0.07157 0.04468 0.48705 0.0
C105 C 0.10603 0.08787 0.46594 0.0
C106 C 0.07945 0.08785 0.47206 0.0
C107 C 0.06238 0.06647 0.48266 0.0
C108 C 0.09816 0.0448 0.48139 0.0
C109 C 0.11529 0.06623 0.47098 0.0
C110 C 0.05359 0.02151 0.497 0.0
C111 C 0.96397 0.96016 0.51487 0.0
C112 C 0.96382 0.03689 0.51484 0.0
C113 C 0.89817 0.97342 0.60455 0.0
C114 C 0.86769 0.94003 0.63896 0.0
C115 C 0.88638 0.93182 0.6232 0.0
C116 C 0.90161 0.94845 0.60616 0.0
C117 C 0.87955 0.9816 0.62012 0.0
C118 C 0.86444 0.9651 0.63717 0.0
C119 C 0.91392 0.99157 0.58719 0.0
H120 H 0.07186 0.10436 0.46863 0.0
H121 H 0.04194 0.06682 0.48714 0.0
H122 H 0.10557 0.02815 0.48469 0.0
H123 H 0.13556 0.06555 0.46621 0.0
H124 H 0.88948 0.9127 0.62431 0.0
H125 H 0.91608 0.94192 0.59435 0.0
H126 H 0.87667 1.00083 0.61909 0.0
H127 H 0.84996 0.97188 0.64873 0.0
Dy128 Dy 0.46583 0.01589 0.03983 0.0
Dy129 Dy 0.51871 0.03429 0.0774 0.0
C130 C 0.47355 0.98195 0.08487 0.0
O131 O 0.46149 0.05123 0.06171 0.0
O132 O 0.48713 0.05069 0.09657 0.0
O133 O 0.42277 0.00708 0.03466 0.0
O134 O 0.44874 0.00563 1.00256 0.0
O135 O 0.52008 0.06908 0.05621 0.0
O136 O 0.4951 0.04843 0.02168 0.0
O137 O 0.53132 0.0157 0.04205 0.0
O138 O 0.49069 0.98851 0.02991 0.0
O139 O 0.56115 0.0513 0.08362 0.0
O140 O 0.53616 0.03309 0.1139 0.0
C141 C 0.46851 0.0587 0.08519 0.0
O142 O 0.45622 0.99111 0.07288 0.0
O143 O 0.49939 0.99282 0.0837 0.0
C144 C 0.40485 0.97763 1.00028 0.0
C145 C 0.36787 0.93366 0.97766 0.0
C146 C 0.39387 0.93251 0.98429 0.0
C147 C 0.41222 0.95432 0.99561 0.0
C148 C 0.3788 0.97866 0.99426 0.0
C149 C 0.36046 0.9569 0.98308 0.0
C150 C 0.42407 1.00138 0.01055 0.0
C151 C 0.51207 0.0689 0.0328 0.0
C152 C 0.51699 0.99519 0.02886 0.0
C153 C 0.57626 0.06475 0.12561 0.0
C154 C 0.60944 0.10014 0.16094 0.0
C155 C 0.59505 0.10901 0.14264 0.0
C156 C 0.57848 0.09139 0.12509 0.0
C157 C 0.59041 0.05592 0.14387 0.0
C158 C 0.60685 0.07339 0.16132 0.0
C159 C 0.56017 0.04553 0.10711 0.0
H160 H 0.40007 0.91481 0.98055 0.0
H161 H 0.43223 0.95312 1.00031 0.0
H162 H 0.37281 0.99651 0.99772 0.0
H163 H 0.34077 0.95858 0.97787 0.0
H164 H 0.5965 0.12948 0.14198 0.0
H165 H 0.56762 0.09852 0.11108 0.0
H166 H 0.58903 0.03543 0.14442 0.0
H167 H 0.61802 0.06592 0.1748 0.0
Dy168 Dy 0.50101 0.50987 0.52657 0.0
Dy169 Dy 0.5043 0.56479 0.56003 0.0
C170 C 0.52668 0.5203 0.58264 0.0
O171 O 0.45878 0.50606 0.53889 0.0
O172 O 0.46687 0.53692 0.57222 0.0
O173 O 0.49309 0.46812 0.5222 0.0
O174 O 0.50695 0.49123 0.49057 0.0
O175 O 0.47618 0.56365 0.528 0.0
O176 O 0.49383 0.53844 0.50015 0.0
O177 O 0.53939 0.57217 0.53396 0.0
O178 O 0.54428 0.53094 0.52925 0.0
O179 O 0.50971 0.60622 0.56131 0.0
O180 O 0.503 0.58615 0.59568 0.0
C181 C 0.45108 0.51686 0.55954 0.0
O182 O 0.51258 0.50337 0.56559 0.0
O183 O 0.52997 0.54539 0.58141 0.0
C184 C 0.52425 0.45561 0.49478 0.0
C185 C 0.56853 0.43565 0.48267 0.0
C186 C 0.56901 0.45205 0.50453 0.0
C187 C 0.54709 0.46203 0.51047 0.0
C188 C 0.52335 0.43874 0.47335 0.0
C189 C 0.54532 0.42881 0.46733 0.0
C190 C 0.50261 0.46844 0.4994 0.0
C191 C 0.48026 0.55582 0.50477 0.0
C192 C 0.55368 0.55589 0.52714 0.0
C193 C 0.48239 0.61981 0.59184 0.0
C194 C 0.44016 0.64237 0.60497 0.0
C195 C 0.43493 0.6182 0.59123 0.0
C196 C 0.45586 0.60704 0.58469 0.0
C197 C 0.48781 0.64395 0.60539 0.0
C198 C 0.46686 0.65519 0.6119 0.0
C199 C 0.50419 0.60774 0.58523 0.0
H200 H 0.58671 0.45795 0.51654 0.0
H201 H 0.54828 0.47536 0.52694 0.0
H202 H 0.50595 0.43376 0.46094 0.0
H203 H 0.54426 0.41602 0.4505 0.0
H204 H 0.41466 0.608 0.58531 0.0
H205 H 0.45138 0.58841 0.57408 0.0
H206 H 0.5082 0.65401 0.61106 0.0
H207 H 0.47149 0.6737 0.62271 0.0
Dy208 Dy 0.00614 0.54583 0.00731 0.0
Dy209 Dy 0.00057 0.49119 0.03508 0.0
C210 C 0.9773 0.5362 0.06095 0.0
O211 O 0.04711 0.54916 0.0228 0.0
O212 O 0.0354 0.52037 0.05371 0.0
O213 O 0.01361 0.58754 0.00816 0.0
O214 O 0.00508 0.5645 0.97279 0.0
O215 O 0.03259 0.49326 0.00619 0.0
O216 O 0.01728 0.51769 0.97924 0.0
O217 O 0.96694 0.48318 0.0066 0.0
O218 O 0.96289 0.5245 1.00368 0.0
O219 O -0.00303 0.44991 0.03153 0.0
O220 O -0.00196 0.4699 0.06842 0.0
C221 C 0.05258 0.53977 0.04374 0.0
O222 O -0.00738 0.55279 0.04644 0.0
O223 O 0.97341 0.51101 0.05675 0.0
C224 C -0.01241 0.60054 0.97774 0.0
C225 C 0.94616 0.62104 0.96134 0.0
C226 C 0.94333 0.60785 0.98357 0.0
C227 C 0.96382 0.59751 0.99163 0.0
C228 C -0.00919 0.61434 0.956 0.0
C229 C 0.97025 0.62449 0.94782 0.0
C230 C 0.00792 0.58728 0.9843 0.0
C231 C 0.03166 0.50159 0.98369 0.0
C232 C 0.95342 0.49932 0.99967 0.0
C233 C 0.01893 0.43533 0.06415 0.0
C234 C 0.05653 0.40936 0.08002 0.0
C235 C 0.03315 0.39572 0.06657 0.0
C236 C 0.01454 0.40856 0.0588 0.0
C237 C 0.04239 0.44915 0.07725 0.0
C238 C 0.06092 0.43628 0.0852 0.0
C239 C -0.00103 0.44844 0.05577 0.0
H240 H 0.92487 0.60465 0.99419 0.0
H241 H 0.9608 0.58654 0.00827 0.0
H242 H 0.00894 0.61666 0.94496 0.0
H243 H 0.97305 0.63476 0.93074 0.0
H244 H 0.02928 0.3751 0.06181 0.0
H245 H -0.0033 0.39757 0.04853 0.0
H246 H 0.04638 0.46987 0.08148 0.0
H247 H 0.07847 0.44742 0.09576 0.0
C248 C 0.27551 0.23603 0.3458 0.0
C249 C 0.26513 0.23977 0.32243 0.0
C250 C 0.2584 0.22405 0.36447 0.0
C251 C 0.18728 0.20355 0.38428 0.0
H252 H 0.2099 0.1481 0.41326 0.0
C253 C 0.11417 0.1204 0.43307 0.0
C254 C 0.12381 0.10983 0.45338 0.0
C255 C 0.13148 0.13953 0.4198 0.0
C256 C 0.20343 0.1638 0.40578 0.0
H257 H 0.22847 0.23518 0.30087 0.0
H258 H 0.19863 0.21412 0.33341 0.0
H259 H 0.24 0.17629 0.38555 0.0
H260 H 0.15875 0.112 0.47657 0.0
H261 H 0.18892 0.14564 0.45366 0.0
H262 H 0.15047 0.19071 0.40429 0.0
C263 C 0.22 0.22056 0.33735 0.0
C264 C 0.22072 0.17998 0.38984 0.0
C265 C 0.23713 0.23252 0.31864 0.0
C266 C 0.15087 0.11949 0.46074 0.0
C267 C 0.16814 0.13872 0.44758 0.0
C268 C 0.16998 0.18739 0.40034 0.0
C269 C 0.23052 0.21558 0.36021 0.0
C270 C 0.21275 0.19986 0.37868 0.0
C271 C 0.15879 0.14862 0.42663 0.0
C272 C 0.17774 0.16712 0.41105 0.0
H273 H 0.29695 0.24157 0.34944 0.0
H274 H 0.26707 0.22088 0.38206 0.0
H275 H 0.18068 0.21887 0.37616 0.0
H276 H 0.09348 0.11315 0.4268 0.0
H277 H 0.12366 0.14644 0.40358 0.0
C278 C 0.24008 0.79886 0.80911 0.0
C279 C 0.2125 0.79737 0.80779 0.0
C280 C 0.25464 0.80799 0.83136 0.0
C281 C 0.25285 0.85083 0.88771 0.0
H282 H 0.31431 0.82785 0.90819 0.0
C283 C 0.32138 0.90504 0.96915 0.0
C284 C 0.34896 0.91145 0.96368 0.0
C285 C 0.30312 0.88651 0.95384 0.0
C286 C 0.2972 0.83448 0.90269 0.0
H287 H 0.17826 0.80285 0.82932 0.0
H288 H 0.20363 0.81845 0.86826 0.0
H289 H 0.28461 0.80318 0.87452 0.0
H290 H 0.3791 0.90259 0.93851 0.0
H291 H 0.34726 0.87029 0.91179 0.0
H292 H 0.26575 0.88248 0.91529 0.0
C293 C 0.2141 0.81304 0.85191 0.0
C294 C 0.28021 0.82037 0.88341 0.0
C295 C 0.19953 0.80397 0.82961 0.0
C296 C 0.35803 0.89792 0.94338 0.0
C297 C 0.33975 0.87938 0.92806 0.0
C298 C 0.26977 0.86487 0.90699 0.0
C299 C 0.24195 0.81577 0.85286 0.0
C300 C 0.25815 0.8287 0.87534 0.0
C301 C 0.31202 0.87397 0.93273 0.0
C302 C 0.29244 0.85716 0.91437 0.0
H303 H 0.25071 0.79388 0.79268 0.0
H304 H 0.2761 0.81008 0.83131 0.0
H305 H 0.23634 0.85808 0.88173 0.0
H306 H 0.31384 0.9148 0.98494 0.0
H307 H 0.28193 0.88243 0.9582 0.0
C308 C 0.62011 0.41518 0.74676 0.0
C309 C 0.62347 0.4285 0.77071 0.0
C310 C 0.6108 0.42567 0.72629 0.0
C311 C 0.60372 0.48681 0.70235 0.0
H312 H 0.54704 0.44166 0.6606 0.0
C313 C 0.54834 0.52651 0.62575 0.0
C314 C 0.53921 0.51061 0.6038 0.0
C315 C 0.55929 0.51694 0.64593 0.0
C316 C 0.56318 0.45455 0.67171 0.0
H317 H 0.62024 0.46368 0.79164 0.0
H318 H 0.60441 0.48214 0.75582 0.0
H319 H 0.56545 0.42442 0.69547 0.0
H320 H 0.53527 0.47231 0.58565 0.0
H321 H 0.55504 0.45597 0.62022 0.0
H322 H 0.6019 0.51686 0.67838 0.0
C323 C 0.60891 0.46352 0.75292 0.0
C324 C 0.57369 0.4446 0.69184 0.0
C325 C 0.6179 0.45288 0.77349 0.0
C326 C 0.54179 0.48506 0.60236 0.0
C327 C 0.55301 0.4756 0.62237 0.0
C328 C 0.59344 0.49672 0.68201 0.0
C329 C 0.60492 0.4499 0.72911 0.0
C330 C 0.59406 0.46059 0.70747 0.0
C331 C 0.56172 0.49127 0.64462 0.0
C332 C 0.57295 0.48076 0.66635 0.0
H333 H 0.62416 0.39636 0.7439 0.0
H334 H 0.60824 0.41478 0.70817 0.0
H335 H 0.6196 0.49961 0.71385 0.0
H336 H 0.54656 0.54624 0.62759 0.0
H337 H 0.56533 0.52959 0.66277 0.0
C338 C 0.90291 0.61647 0.26391 0.0
C339 C 0.89591 0.64007 0.2631 0.0
C340 C 0.91142 0.60483 0.24215 0.0
C341 C 0.94153 0.61878 0.18026 0.0
H342 H 0.9091 0.54599 0.16217 0.0
C343 C 0.96254 0.57208 0.08433 0.0
C344 C 0.96516 0.54659 0.08329 0.0
C345 C 0.95313 0.58285 0.10606 0.0
C346 C 0.91868 0.56623 0.16707 0.0
H347 H 0.89289 0.67019 0.23891 0.0
H348 H 0.90823 0.6501 0.20106 0.0
H349 H 0.89575 0.56619 0.2009 0.0
H350 H 0.95957 0.51223 0.10414 0.0
H351 H 0.94389 0.53121 0.14239 0.0
H352 H 0.96496 0.6189 0.14696 0.0
C353 C 0.907 0.64056 0.21851 0.0
C354 C 0.91094 0.57781 0.18926 0.0
C355 C 0.89813 0.65202 0.24017 0.0
C356 C 0.95759 0.53188 0.1043 0.0
C357 C 0.94852 0.54278 0.12622 0.0
C358 C 0.94952 0.60716 0.15827 0.0
C359 C 0.9135 0.61673 0.21921 0.0
C360 C 0.92217 0.60424 0.196 0.0
C361 C 0.94648 0.56856 0.12752 0.0
C362 C 0.93807 0.58076 0.15122 0.0
H363 H 0.90136 0.60672 0.28126 0.0
H364 H 0.91653 0.58657 0.2433 0.0
H365 H 0.95079 0.63911 0.18514 0.0
H366 H 0.9679 0.58385 0.06835 0.0
H367 H 0.95117 0.60247 0.106 0.0
C368 C 0.3383 0.20884 0.16306 0.0
C369 C 0.34396 0.21972 0.18782 0.0
C370 C 0.35322 0.19267 0.15203 0.0
C371 C 0.41645 0.17245 0.15792 0.0
H372 H 0.37565 0.10968 0.12125 0.0
C373 C 0.46286 0.08817 0.12286 0.0
C374 C 0.45526 0.0773 0.09837 0.0
C375 C 0.45009 0.10595 0.13459 0.0
C376 C 0.38741 0.12722 0.13124 0.0
H377 H 0.37053 0.22293 0.22 0.0
H378 H 0.3963 0.19471 0.20083 0.0
H379 H 0.35261 0.14096 0.1389 0.0
H380 H 0.42828 0.07681 0.06706 0.0
H381 H 0.40653 0.10757 0.08725 0.0
H382 H 0.4513 0.15854 0.15019 0.0
C383 C 0.38046 0.19875 0.18986 0.0
C384 C 0.37419 0.14522 0.14129 0.0
C385 C 0.36555 0.21486 0.2009 0.0
C386 C 0.43469 0.08462 0.08596 0.0
C387 C 0.422 0.10221 0.09762 0.0
C388 C 0.42972 0.15439 0.14783 0.0
C389 C 0.37416 0.18705 0.16548 0.0
C390 C 0.38854 0.16815 0.1546 0.0
C391 C 0.4294 0.11305 0.12209 0.0
C392 C 0.41537 0.13167 0.13418 0.0
H393 H 0.3219 0.21223 0.15242 0.0
H394 H 0.34814 0.18432 0.13304 0.0
H395 H 0.42814 0.18999 0.16795 0.0
H396 H 0.47865 0.08301 0.13293 0.0
H397 H 0.45615 0.11388 0.15353 0.0
C398 C 0.10828 0.83104 0.68279 0.0
C399 C 0.09934 0.82742 0.70765 0.0
C400 C 0.09729 0.84584 0.66733 0.0
C401 C 0.06203 0.89757 0.67138 0.0
H402 H 0.04694 0.87835 0.60042 0.0
C403 C 0.00652 0.95273 0.61083 0.0
C404 C 0.016 0.95772 0.58634 0.0
C405 C 0.0164 0.93631 0.62521 0.0
C406 C 0.05133 0.88412 0.62015 0.0
H407 H 0.07117 0.83573 0.73544 0.0
H408 H 0.05188 0.86122 0.70844 0.0
H409 H 0.06422 0.85005 0.62607 0.0
H410 H 0.04333 0.94925 0.55776 0.0
H411 H 0.06075 0.92082 0.58298 0.0
H412 H 0.04929 0.93165 0.66552 0.0
C413 C 0.06771 0.85304 0.70102 0.0
C414 C 0.0612 0.86789 0.63484 0.0
C415 C 0.07867 0.83827 0.71645 0.0
C416 C 0.03556 0.94584 0.57654 0.0
C417 C 0.04543 0.92939 0.59094 0.0
C418 C 0.05219 0.91377 0.65671 0.0
C419 C 0.07716 0.85733 0.67642 0.0
C420 C 0.06659 0.8744 0.66065 0.0
C421 C 0.036 0.92447 0.61546 0.0
C422 C 0.04665 0.90722 0.63093 0.0
H423 H 0.1242 0.82295 0.67543 0.0
H424 H 0.10515 0.84892 0.64853 0.0
H425 H 0.06648 0.90343 0.69108 0.0
H426 H -0.00865 0.96141 0.61895 0.0
H427 H 0.00841 0.93264 0.64389 0.0
C428 C 0.73939 0.43207 0.87846 0.0
C429 C 0.72667 0.40555 0.87994 0.0
C430 C 0.76456 0.4431 0.88999 0.0
C431 C 0.82442 0.42628 0.9148 0.0
H432 H 0.83493 0.49046 0.95631 0.0
C433 C 0.91513 0.46229 0.98313 0.0
C434 C 0.92725 0.48908 0.98613 0.0
C435 C 0.89099 0.45275 0.96958 0.0
C436 C 0.83256 0.47272 0.94453 0.0
H437 H 0.73097 0.36979 0.89416 0.0
H438 H 0.77459 0.38888 0.91389 0.0
H439 H 0.7931 0.4732 0.93254 0.0
H440 H 0.92325 0.52682 0.97712 0.0
H441 H 0.88162 0.51021 0.95322 0.0
H442 H 0.86381 0.42575 0.92656 0.0
C443 C 0.76522 0.40121 0.90387 0.0
C444 C 0.80851 0.46282 0.93088 0.0
C445 C 0.74006 0.39029 0.89264 0.0
C446 C 0.91447 0.50607 0.97537 0.0
C447 C 0.89043 0.49652 0.9617 0.0
C448 C 0.84851 0.43624 0.92829 0.0
C449 C 0.77772 0.42778 0.90293 0.0
C450 C 0.80402 0.43933 0.91606 0.0
C451 C 0.87836 0.46971 0.9585 0.0
C452 C 0.85285 0.45947 0.94358 0.0
H453 H 0.72965 0.44441 0.8689 0.0
H454 H 0.77375 0.46361 0.88876 0.0
H455 H 0.8218 0.40833 0.90328 0.0
H456 H 0.9243 0.44863 0.99122 0.0
H457 H 0.88212 0.43201 0.96797 0.0
C458 C 0.76356 0.61207 0.40704 0.0
C459 C 0.7723 0.63863 0.40304 0.0
C460 C 0.73955 0.60222 0.41973 0.0
C461 C 0.67595 0.61743 0.43927 0.0
H462 H 0.6757 0.56938 0.49067 0.0
C463 C 0.5898 0.59175 0.51034 0.0
C464 C 0.58007 0.56546 0.51506 0.0
C465 C 0.61353 0.6003 0.49692 0.0
C466 C 0.67537 0.5826 0.47621 0.0
H467 H 0.76235 0.67552 0.40867 0.0
H468 H 0.72077 0.65842 0.43083 0.0
H469 H 0.71584 0.58426 0.46543 0.0
H470 H 0.58812 0.52763 0.50993 0.0
H471 H 0.6294 0.54258 0.4865 0.0
H472 H 0.63557 0.6159 0.45012 0.0
C473 C 0.73226 0.64513 0.42402 0.0
C474 C 0.69834 0.59106 0.4617 0.0
C475 C 0.75621 0.65496 0.4114 0.0
C476 C 0.59503 0.54805 0.50669 0.0
C477 C 0.61878 0.55661 0.49331 0.0
C478 C 0.65303 0.609 0.45378 0.0
C479 C 0.72377 0.61871 0.42858 0.0
C480 C 0.69894 0.6087 0.44316 0.0
C481 C 0.6281 0.58277 0.48796 0.0
C482 C 0.65252 0.59161 0.47253 0.0
H483 H 0.77548 0.59897 0.40079 0.0
H484 H 0.73338 0.5817 0.42266 0.0
H485 H 0.67561 0.6307 0.42487 0.0
H486 H 0.57883 0.6057 0.51657 0.0
H487 H 0.62043 0.62067 0.49346 0.0
C488 C 0.19778 0.28055 0.16426 0.0
C489 C 0.22496 0.29401 0.16781 0.0
C490 C 0.17981 0.29223 0.15324 0.0
C491 C 0.1757 0.34556 0.11405 0.0
H492 H 0.107 0.33922 0.14671 0.0
C493 C 0.10388 0.40723 0.08879 0.0
C494 C 0.07605 0.39554 0.08884 0.0
C495 C 0.1221 0.3944 0.09749 0.0
C496 C 0.1259 0.34091 0.13708 0.0
H497 H 0.25469 0.33007 0.16186 0.0
H498 H 0.22333 0.3504 0.14257 0.0
H499 H 0.13854 0.31728 0.16279 0.0
H500 H 0.04575 0.36102 0.09825 0.0
H501 H 0.07745 0.33837 0.11252 0.0
H502 H 0.16303 0.36908 0.08824 0.0
C503 C 0.21594 0.33077 0.14825 0.0
C504 C 0.14402 0.32832 0.14635 0.0
C505 C 0.2339 0.31914 0.1594 0.0
C506 C 0.067 0.37056 0.09762 0.0
C507 C 0.08522 0.35768 0.10617 0.0
C508 C 0.1575 0.35804 0.10466 0.0
C509 C 0.18861 0.31759 0.14537 0.0
C510 C 0.16916 0.33054 0.13501 0.0
C511 C 0.11302 0.36947 0.10636 0.0
C512 C 0.13236 0.35594 0.11609 0.0
H513 H 0.19021 0.26115 0.17046 0.0
H514 H 0.15896 0.28141 0.15098 0.0
H515 H 0.19479 0.34742 0.10471 0.0
H516 H 0.11167 0.42629 0.08189 0.0
H517 H 0.14331 0.40424 0.09759 0.0
C518 C 0.59228 0.26001 0.90629 0.0
C519 C 0.61057 0.28024 0.92019 0.0
C520 C 0.57959 0.23698 0.91747 0.0
C521 C 0.56319 0.20997 0.98003 0.0
H522 H 0.55739 0.14355 0.94365 0.0
C523 C 0.53955 0.11496 0.03067 0.0
C524 C 0.52211 0.09266 0.01882 0.0
C525 C 0.54874 0.13752 0.01784 0.0
C526 C 0.55852 0.16193 0.95398 0.0
H527 H 0.62966 0.29205 0.95682 0.0
H528 H 0.60783 0.25219 0.97607 0.0
H529 H 0.57571 0.18352 0.92265 0.0
H530 H 0.50083 0.07674 0.98395 0.0
H531 H 0.51681 0.1162 0.96161 0.0
H532 H 0.54628 0.18852 0.0114 0.0
C533 C 0.60296 0.25409 0.95665 0.0
C534 C 0.56902 0.18487 0.94191 0.0
C535 C 0.61564 0.27697 0.94552 0.0
C536 C 0.51426 0.09351 0.99369 0.0
C537 C 0.52353 0.11612 0.98082 0.0
C538 C 0.55273 0.1871 0.99206 0.0
C539 C 0.5848 0.23374 0.94282 0.0
C540 C 0.57185 0.20921 0.95491 0.0
C541 C 0.5408 0.13848 0.99278 0.0
C542 C 0.5506 0.16275 0.97934 0.0
H543 H 0.58791 0.26187 0.88674 0.0
H544 H 0.56556 0.2218 0.9063 0.0
H545 H 0.56452 0.22833 0.99048 0.0
H546 H 0.54615 0.11509 0.04995 0.0
H547 H 0.56237 0.15418 0.02755 0.0
C548 C 0.91489 0.76069 0.37449 0.0
C549 C 0.90581 0.73816 0.38762 0.0
C550 C 0.92375 0.78501 0.3876 0.0
C551 C 0.94385 0.81725 0.45158 0.0
H552 H 0.91938 0.87312 0.42562 0.0
C553 C 0.94528 0.91178 0.51156 0.0
C554 C 0.95585 0.93501 0.49986 0.0
C555 C 0.93984 0.88792 0.49749 0.0
C556 C 0.92653 0.85776 0.43301 0.0
H557 H 0.9002 0.72351 0.4249 0.0
H558 H 0.91508 0.76559 0.44754 0.0
H559 H 0.91084 0.83146 0.40143 0.0
H560 H 0.96824 0.9514 0.46409 0.0
H561 H 0.95843 0.90987 0.43963 0.0
H562 H 0.95895 0.8435 0.48347 0.0
C563 C 0.91574 0.76464 0.42716 0.0
C564 C 0.9218 0.83391 0.41907 0.0
C565 C 0.90704 0.74041 0.41411 0.0
C566 C 0.96014 0.93388 0.47372 0.0
C567 C 0.95443 0.91008 0.45965 0.0
C568 C 0.94836 0.84104 0.46561 0.0
C569 C 0.92366 0.78734 0.41412 0.0
C570 C 0.93027 0.81326 0.42822 0.0
C571 C 0.94455 0.88682 0.47141 0.0
C572 C 0.93965 0.86152 0.45653 0.0
H573 H 0.91431 0.75968 0.3541 0.0
H574 H 0.93022 0.80202 0.37692 0.0
H575 H 0.95107 0.80198 0.45906 0.0
H576 H 0.94184 0.91197 0.53167 0.0
H577 H 0.93195 0.8703 0.50702 0.0
C578 C 0.26989 0.75691 0.66927 0.0
C579 C 0.24735 0.74097 0.68052 0.0
C580 C 0.29007 0.74647 0.65892 0.0
C581 C 0.305 0.68496 0.63616 0.0
H582 H 0.37863 0.72238 0.65264 0.0
C583 C 0.39347 0.63852 0.62102 0.0
C584 C 0.41778 0.65401 0.61222 0.0
C585 C 0.37241 0.6494 0.62791 0.0
C586 C 0.35822 0.71185 0.64755 0.0
H587 H 0.22796 0.70143 0.68907 0.0
H588 H 0.26322 0.68326 0.6711 0.0
H589 H 0.34208 0.74082 0.66654 0.0
H590 H 0.43884 0.69299 0.60335 0.0
H591 H 0.40203 0.712 0.61531 0.0
H592 H 0.32115 0.6559 0.61731 0.0
C593 C 0.26521 0.7038 0.67012 0.0
C594 C 0.33726 0.72243 0.65552 0.0
C595 C 0.24505 0.71424 0.68052 0.0
C596 C 0.42051 0.68062 0.6104 0.0
C597 C 0.39941 0.6915 0.61725 0.0
C598 C 0.32598 0.67439 0.62815 0.0
C599 C 0.28813 0.71986 0.65952 0.0
C600 C 0.3104 0.70904 0.65006 0.0
C601 C 0.37512 0.67602 0.62613 0.0
C602 C 0.35283 0.68763 0.6339 0.0
H603 H 0.27224 0.77757 0.66888 0.0
H604 H 0.30729 0.75929 0.65056 0.0
H605 H 0.28454 0.67433 0.63136 0.0
H606 H 0.39088 0.61803 0.62301 0.0
H607 H 0.35416 0.63701 0.63509 0.0
C608 C 0.72914 0.81477 0.80078 0.0
C609 C 0.71787 0.7887 0.79266 0.0
C610 C 0.74425 0.83208 0.78424 0.0
C611 C 0.75883 0.84064 0.71642 0.0
H612 H 0.8256 0.88744 0.74154 0.0
C613 C 0.83936 0.89643 0.65001 0.0
C614 C 0.85137 0.92263 0.65714 0.0
C615 C 0.82286 0.88048 0.66675 0.0
C616 C 0.80688 0.87468 0.73429 0.0
H617 H 0.71342 0.76038 0.76084 0.0
H618 H 0.73988 0.79038 0.73216 0.0
H619 H 0.79615 0.85963 0.77028 0.0
H620 H 0.85618 0.9524 0.68772 0.0
H621 H 0.82722 0.92466 0.71681 0.0
H622 H 0.76971 0.85553 0.68038 0.0
C623 C 0.73675 0.79765 0.75112 0.0
C624 C 0.78995 0.85879 0.75078 0.0
C625 C 0.72172 0.7804 0.76763 0.0
C626 C 0.84696 0.93237 0.68155 0.0
C627 C 0.83058 0.91641 0.69831 0.0
C628 C 0.77578 0.85649 0.69993 0.0
C629 C 0.74844 0.82364 0.75928 0.0
C630 C 0.76579 0.84148 0.74202 0.0
C631 C 0.81814 0.89034 0.69104 0.0
C632 C 0.80007 0.8736 0.70864 0.0
H633 H 0.72726 0.82162 0.8201 0.0
H634 H 0.75286 0.85201 0.79109 0.0
H635 H 0.74018 0.82781 0.70913 0.0
H636 H 0.84221 0.88839 0.63128 0.0
H637 H 0.81384 0.86038 0.66069 0.0
C638 C 0.77875 0.24689 0.30252 0.0
C639 C 0.77877 0.23638 0.32603 0.0
C640 C 0.76241 0.2328 0.28279 0.0
C641 C 0.7222 0.16642 0.26203 0.0
H642 H 0.68205 0.20256 0.22309 0.0
C643 C 0.62913 0.11196 0.20433 0.0
C644 C 0.62773 0.11842 0.17929 0.0
C645 C 0.64832 0.12747 0.22099 0.0
C646 C 0.69334 0.19229 0.23364 0.0
H647 H 0.76212 0.20254 0.34701 0.0
H648 H 0.73348 0.17827 0.31292 0.0
H649 H 0.7155 0.22706 0.25399 0.0
H650 H 0.64473 0.14689 0.15246 0.0
H651 H 0.67811 0.17436 0.18191 0.0
H652 H 0.69953 0.13161 0.24218 0.0
C653 C 0.74633 0.19721 0.30949 0.0
C654 C 0.71258 0.20629 0.25127 0.0
C655 C 0.7627 0.21121 0.32914 0.0
C656 C 0.64517 0.14148 0.17167 0.0
C657 C 0.66433 0.15715 0.18847 0.0
C658 C 0.70288 0.15245 0.2446 0.0
C659 C 0.74573 0.20792 0.28617 0.0
C660 C 0.72695 0.19345 0.26594 0.0
C661 C 0.66647 0.14993 0.21311 0.0
C662 C 0.68797 0.16518 0.23051 0.0
H663 H 0.79096 0.26621 0.29947 0.0
H664 H 0.76272 0.24147 0.26495 0.0
H665 H 0.73331 0.15597 0.27258 0.0
H666 H 0.61558 0.09465 0.21097 0.0
H667 H 0.64912 0.12177 0.24006 0.0
C668 C 0.40387 0.6764 0.34249 0.0
C669 C 0.41209 0.67131 0.31781 0.0
C670 C 0.41162 0.66448 0.36279 0.0
C671 C 0.43473 0.60698 0.37736 0.0
H672 H 0.45438 0.64438 0.44221 0.0
C673 C 0.47779 0.56214 0.45843 0.0
C674 C 0.47092 0.56801 0.48338 0.0
C675 C 0.47038 0.57464 0.43841 0.0
C676 C 0.44859 0.63347 0.42436 0.0
H677 H 0.43544 0.64994 0.29537 0.0
H678 H 0.44905 0.62931 0.3307 0.0
H679 H 0.44266 0.66674 0.40732 0.0
H680 H 0.45035 0.59148 0.50661 0.0
H681 H 0.43696 0.61282 0.47175 0.0
H682 H 0.44037 0.57366 0.39435 0.0
C683 C 0.43633 0.64232 0.33435 0.0
C684 C 0.44191 0.64637 0.40427 0.0
C685 C 0.4287 0.65434 0.31407 0.0
C686 C 0.45607 0.58647 0.48768 0.0
C687 C 0.44857 0.5989 0.46764 0.0
C688 C 0.44127 0.59405 0.39746 0.0
C689 C 0.42769 0.64701 0.35897 0.0
C690 C 0.43495 0.63333 0.38045 0.0
C691 C 0.45577 0.59333 0.44269 0.0
C692 C 0.44837 0.60709 0.42128 0.0
H693 H 0.39101 0.68927 0.3461 0.0
H694 H 0.40437 0.66842 0.38141 0.0
H695 H 0.42901 0.59614 0.35945 0.0
H696 H 0.48936 0.54818 0.45433 0.0
H697 H 0.47668 0.57001 0.4196 0.0
C698 C 0.1361 0.39554 0.81543 0.0
C699 C 0.13888 0.40711 0.79225 0.0
C700 C 0.12786 0.40786 0.83689 0.0
C701 C 0.08838 0.45383 0.85447 0.0
H702 H 0.11785 0.4544 0.92136 0.0
C703 C 0.04985 0.50474 0.93994 0.0
C704 C 0.04673 0.49251 0.96273 0.0
C705 C 0.0633 0.49586 0.91977 0.0
C706 C 0.10919 0.45416 0.90285 0.0
H707 H 0.13623 0.44125 0.77376 0.0
H708 H 0.12181 0.46268 0.81121 0.0
H709 H 0.13809 0.43652 0.88511 0.0
H710 H 0.05562 0.46147 0.9823 0.0
H711 H 0.07851 0.4455 0.94687 0.0
H712 H 0.05905 0.47071 0.87203 0.0
C713 C 0.1258 0.44396 0.81268 0.0
C714 C 0.12087 0.444 0.88208 0.0
C715 C 0.13423 0.43174 0.79127 0.0
C716 C 0.05773 0.47138 0.96502 0.0
C717 C 0.07101 0.46232 0.94472 0.0
C718 C 0.07659 0.46378 0.87521 0.0
C719 C 0.12204 0.43194 0.83561 0.0
C720 C 0.11056 0.4437 0.85767 0.0
C721 C 0.07376 0.47432 0.92175 0.0
C722 C 0.08679 0.46406 0.8997 0.0
H723 H 0.13957 0.37661 0.81689 0.0
H724 H 0.125 0.39803 0.85423 0.0
H725 H 0.07964 0.45342 0.83597 0.0
H726 H 0.0419 0.52127 0.93761 0.0
H727 H 0.06551 0.50596 0.90261 0.0
C728 C 0.64771 0.8776 0.89445 0.0
C729 C 0.63181 0.85535 0.88118 0.0
C730 C 0.6358 0.89332 0.91024 0.0
C731 C 0.57351 0.89135 0.94582 0.0
H732 H 0.59892 0.96631 0.94858 0.0
C733 C 0.51565 0.95739 0.99801 0.0
C734 C 0.53068 0.97941 0.01225 0.0
C735 C 0.52846 0.94257 0.98218 0.0
C736 C 0.59179 0.94539 0.94823 0.0
H737 H 0.59088 0.83252 0.87364 0.0
H738 H 0.57018 0.86003 0.90085 0.0
H739 H 0.6204 0.94012 0.92031 0.0
H740 H 0.57104 1.00307 0.02098 0.0
H741 H 0.59337 0.97704 0.99347 0.0
H742 H 0.54489 0.89657 0.97367 0.0
C743 C 0.59187 0.86512 0.89944 0.0
C744 C 0.6041 0.93039 0.93203 0.0
C745 C 0.60375 0.84943 0.88369 0.0
C746 C 0.55883 0.98625 0.01027 0.0
C747 C 0.57164 0.97143 0.99438 0.0
C748 C 0.56122 0.90633 0.96198 0.0
C749 C 0.60774 0.88711 0.9131 0.0
C750 C 0.59501 0.90319 0.93054 0.0
C751 C 0.5566 0.9494 0.98017 0.0
C752 C 0.57011 0.93353 0.96331 0.0
H753 H 0.66939 0.88269 0.89297 0.0
H754 H 0.64862 0.90999 0.92066 0.0
H755 H 0.56635 0.87044 0.94552 0.0
H756 H 0.49393 0.95159 0.99898 0.0
H757 H 0.51624 0.92593 0.97124 0.0
C758 C 0.88491 0.21206 0.42892 0.0
C759 C 0.85781 0.21019 0.43458 0.0
C760 C 0.89724 0.19338 0.43641 0.0
C761 C 0.88162 0.1257 0.45334 0.0
H762 H 0.95226 0.14563 0.48472 0.0
C763 C 0.92452 0.05333 0.5037 0.0
C764 C 0.95225 0.0555 0.50242 0.0
C765 C 0.9137 0.07187 0.4937 0.0
C766 C 0.93272 0.13969 0.4756 0.0
H767 H 0.82251 0.18737 0.45276 0.0
H768 H 0.84402 0.1548 0.46573 0.0
H769 H 0.93222 0.17899 0.47098 0.0
H770 H -0.00974 0.07854 0.48896 0.0
H771 H 0.97126 0.11064 0.47101 0.0
H772 H 0.88205 0.08645 0.45776 0.0
C773 C 0.85566 0.17062 0.45537 0.0
C774 C 0.92121 0.15883 0.46781 0.0
C775 C 0.8434 0.18938 0.44808 0.0
C776 C 0.96882 0.07634 0.49035 0.0
C777 C 0.95795 0.09485 0.48021 0.0
C778 C 0.89318 0.10657 0.46094 0.0
C779 C 0.88266 0.17232 0.44949 0.0
C780 C 0.89541 0.15204 0.45688 0.0
C781 C 0.93028 0.09299 0.482 0.0
C782 C 0.91874 0.11331 0.47245 0.0
H783 H 0.89656 0.22785 0.41853 0.0
H784 H 0.91803 0.19511 0.43149 0.0
H785 H 0.86189 0.11986 0.44455 0.0
H786 H 0.91115 0.03763 0.51298 0.0
H787 H 0.89239 0.07 0.49579 0.0
C788 C 0.25434 0.63571 0.17542 0.0
C789 C 0.27244 0.65672 0.16488 0.0
C790 C 0.23097 0.62194 0.16225 0.0
C791 C 0.18529 0.62925 0.11172 0.0
H792 H 0.1602 0.55434 0.11 0.0
C793 C 0.0975 0.57257 0.04699 0.0
C794 C 0.07859 0.55173 0.05691 0.0
C795 C 0.1215 0.58449 0.05995 0.0
C796 C 0.16677 0.57529 0.11051 0.0
H797 H 0.2804 0.67929 0.13196 0.0
H798 H 0.24 0.6553 0.10911 0.0
H799 H 0.2012 0.57665 0.13339 0.0
H800 H 0.07044 0.52683 0.08817 0.0
H801 H 0.11205 0.54784 0.11086 0.0
H802 H 0.1509 0.62805 0.08906 0.0
C803 C 0.24357 0.64966 0.12767 0.0
C804 C 0.19028 0.58807 0.12392 0.0
C805 C 0.26687 0.66333 0.14076 0.0
C806 C 0.0845 0.54284 0.07992 0.0
C807 C 0.10849 0.55479 0.0929 0.0
C808 C 0.16181 0.61652 0.09838 0.0
C809 C 0.22518 0.62896 0.13832 0.0
C810 C 0.1999 0.61521 0.12457 0.0
C811 C 0.12721 0.57593 0.0832 0.0
C812 C 0.15228 0.58936 0.09749 0.0
H813 H 0.25803 0.63011 0.19396 0.0
H814 H 0.21714 0.60619 0.17106 0.0
H815 H 0.19183 0.65021 0.11221 0.0
H816 H 0.09373 0.57986 0.02926 0.0
H817 H 0.13564 0.60043 0.05169 0.0
C818 C 0.23377 0.44259 0.66425 0.0
C819 C 0.22765 0.41659 0.6704 0.0
C820 C 0.25757 0.45356 0.65173 0.0
C821 C 0.30617 0.43889 0.6079 0.0
H822 H 0.35667 0.50007 0.63823 0.0
C823 C 0.41175 0.47903 0.5661 0.0
C824 C 0.42403 0.5057 0.56961 0.0
C825 C 0.38723 0.46822 0.57759 0.0
C826 C 0.34263 0.48333 0.62912 0.0
H827 H 0.24142 0.3816 0.66793 0.0
H828 H 0.28268 0.40064 0.64527 0.0
H829 H 0.31485 0.48139 0.65961 0.0
H830 H 0.41974 0.5422 0.58678 0.0
H831 H 0.37639 0.52377 0.60555 0.0
H832 H 0.33314 0.44118 0.57693 0.0
C833 C 0.26917 0.41252 0.65049 0.0
C834 C 0.31876 0.47253 0.64156 0.0
C835 C 0.24567 0.40171 0.66355 0.0
C836 C 0.41087 0.5215 0.584 0.0
C837 C 0.38608 0.51083 0.59498 0.0
C838 C 0.32978 0.45001 0.59514 0.0
C839 C 0.27536 0.43856 0.64459 0.0
C840 C 0.30042 0.45014 0.63115 0.0
C841 C 0.3741 0.48393 0.5924 0.0
C842 C 0.34848 0.47233 0.60562 0.0
H843 H 0.22029 0.45453 0.66934 0.0
H844 H 0.26192 0.47367 0.6473 0.0
H845 H 0.29216 0.42172 0.59942 0.0
H846 H 0.42159 0.46636 0.55528 0.0
H847 H 0.37904 0.44742 0.5754 0.0
C848 C 0.7575 0.67137 0.8569 0.0
C849 C 0.74465 0.68801 0.87053 0.0
C850 C 0.77918 0.66457 0.86745 0.0
C851 C 0.81116 0.65916 0.92728 0.0
H852 H 0.87497 0.66442 0.88673 0.0
C853 C 0.90895 0.64307 0.96757 0.0
C854 C 0.92355 0.62997 0.95153 0.0
C855 C 0.88733 0.65098 0.95822 0.0
C856 C 0.85721 0.66249 0.89822 0.0
H857 H 0.74406 0.7101 0.90613 0.0
H858 H 0.78181 0.6979 0.92467 0.0
H859 H 0.83633 0.6758 0.86951 0.0
H860 H 0.92661 0.61433 0.91333 0.0
H861 H 0.88868 0.62757 0.89711 0.0
H862 H 0.83174 0.64529 0.95581 0.0
C863 C 0.77509 0.69022 0.9058 0.0
C864 C 0.83511 0.66909 0.88835 0.0
C865 C 0.75357 0.69727 0.89514 0.0
C866 C 0.91603 0.62482 0.92603 0.0
C867 C 0.8943 0.63248 0.91674 0.0
C868 C 0.8332 0.65228 0.93709 0.0
C869 C 0.78829 0.67404 0.89194 0.0
C870 C 0.81183 0.66739 0.90272 0.0
C871 C 0.87968 0.64571 0.93268 0.0
C872 C 0.85647 0.65374 0.92263 0.0
H873 H 0.75111 0.6639 0.8379 0.0
H874 H 0.7888 0.65183 0.85645 0.0
H875 H 0.79337 0.65748 0.93869 0.0
H876 H 0.91445 0.64745 0.98728 0.0
H877 H 0.8768 0.66145 0.97097 0.0
C878 C 0.42054 0.78919 0.21143 0.0
C879 C 0.39349 0.77486 0.20925 0.0
C880 C 0.42976 0.81226 0.19905 0.0
C881 C 0.41116 0.84608 0.14567 0.0
H882 H 0.46376 0.90619 0.17513 0.0
C883 C 0.43699 0.94477 0.09993 0.0
C884 C 0.4642 0.95866 0.09969 0.0
C885 C 0.42859 0.92275 0.11384 0.0
C886 C 0.44922 0.88949 0.16651 0.0
H887 H 0.35474 0.7744 0.19329 0.0
H888 H 0.37052 0.81433 0.17248 0.0
H889 H 0.44935 0.86735 0.19864 0.0
H890 H 0.50386 0.96019 0.11418 0.0
H891 H 0.48926 0.92196 0.13814 0.0
H892 H 0.41094 0.86813 0.11361 0.0
C893 C 0.38491 0.80756 0.18301 0.0
C894 C 0.44099 0.86717 0.18001 0.0
C895 C 0.3758 0.78463 0.19518 0.0
C896 C 0.48272 0.95005 0.11385 0.0
C897 C 0.47432 0.92816 0.1278 0.0
C898 C 0.41931 0.86836 0.13225 0.0
C899 C 0.4121 0.8215 0.18431 0.0
C900 C 0.4217 0.84518 0.16984 0.0
C901 C 0.44716 0.91413 0.12796 0.0
C902 C 0.43839 0.89043 0.14248 0.0
H903 H 0.43472 0.78223 0.22205 0.0
H904 H 0.45087 0.82241 0.20044 0.0
H905 H 0.39673 0.82939 0.13691 0.0
H906 H 0.42215 0.95083 0.08932 0.0
H907 H 0.40746 0.91262 0.11372 0.0
C908 C 0.11687 0.26031 0.68076 0.0
C909 C 0.09907 0.27256 0.69347 0.0
C910 C 0.10717 0.23634 0.66729 0.0
C911 C 0.04831 0.17928 0.66288 0.0
H912 H 0.07774 0.16463 0.59794 0.0
C913 C -0.00093 0.08853 0.59838 0.0
C914 C 0.01615 0.07547 0.5856 0.0
C915 C 0.0096 0.11241 0.61167 0.0
C916 C 0.06952 0.16831 0.61619 0.0
H917 H 0.05707 0.26946 0.70155 0.0
H918 H 0.04022 0.22794 0.6779 0.0
H919 H 0.09542 0.2068 0.62054 0.0
H920 H 0.0578 0.07732 0.57693 0.0
H921 H 0.07612 0.11886 0.60029 0.0
H922 H 0.02238 0.14086 0.65854 0.0
C923 C 0.0617 0.2366 0.67866 0.0
C924 C 0.07966 0.19248 0.62914 0.0
C925 C 0.07137 0.26052 0.6921 0.0
C926 C 0.04403 0.08683 0.58653 0.0
C927 C 0.05455 0.11074 0.59979 0.0
C928 C 0.03819 0.15514 0.64995 0.0
C929 C 0.07947 0.22411 0.66626 0.0
C930 C 0.06908 0.19829 0.65259 0.0
C931 C 0.03746 0.12385 0.61248 0.0
C932 C 0.04859 0.14939 0.6264 0.0
H933 H 0.13833 0.26905 0.68147 0.0
H934 H 0.12142 0.22714 0.65813 0.0
H935 H 0.04005 0.18294 0.68112 0.0
H936 H 0.9775 0.08041 0.59802 0.0
H937 H -0.00415 0.12214 0.62098 0.0
C938 C 0.75584 0.36714 0.38806 0.0
C939 C 0.77004 0.35403 0.40252 0.0
C940 C 0.73669 0.37843 0.39916 0.0
C941 C 0.69132 0.37291 0.45335 0.0
H942 H 0.67967 0.43639 0.43059 0.0
C943 C 0.60764 0.41829 0.49324 0.0
C944 C 0.59266 0.42681 0.47526 0.0
C945 C 0.63081 0.41074 0.48624 0.0
C946 C 0.6826 0.41857 0.43704 0.0
H947 H 0.77599 0.34336 0.44022 0.0
H948 H 0.74265 0.36341 0.45973 0.0
H949 H 0.71852 0.42198 0.41565 0.0
H950 H 0.59043 0.43435 0.43591 0.0
H951 H 0.63062 0.42091 0.42366 0.0
H952 H 0.65518 0.36942 0.47454 0.0
C953 C 0.7461 0.36459 0.43969 0.0
C954 C 0.70485 0.41031 0.4285 0.0
C955 C 0.76533 0.35326 0.42855 0.0
C956 C 0.60134 0.42759 0.45015 0.0
C957 C 0.62456 0.42021 0.44319 0.0
C958 C 0.66909 0.38124 0.46198 0.0
C959 C 0.73127 0.37696 0.42503 0.0
C960 C 0.70922 0.38713 0.43618 0.0
C961 C 0.63961 0.41178 0.46116 0.0
C962 C 0.66423 0.40391 0.45355 0.0
H963 H 0.75895 0.36811 0.36796 0.0
H964 H 0.72542 0.38749 0.38723 0.0
H965 H 0.69387 0.3548 0.4594 0.0
H966 H 0.60136 0.41735 0.51271 0.0
H967 H 0.64206 0.40444 0.50052 0.0
loop_
_geom_bond_atom_site_label_1
_geom_bond_atom_site_label_2
_geom_bond_distance
_geom_bond_site_symmetry_2
_ccdc_geom_bond_type
O0 Cd1 2.300 . S
O0 C7 1.275 . S
Cd1 O0 2.300 . S
Cd1 O9 2.381 . S
Cd1 O10 2.378 . S
O2 Cd3 2.385 . S
O2 C7 1.255 . S
Cd3 O2 2.385 . S
Cd3 O4 2.317 . S
O4 Cd3 2.317 . S
O4 C5 1.232 . S
C5 O4 1.232 . S
C5 O6 1.218 . S
O6 C5 1.218 . S
C7 O0 1.275 . S
C7 O2 1.255 . S
C8 O9 1.258 . S
C8 O10 1.256 . S
O9 Cd1 2.381 . S
O9 C8 1.258 . S
O10 Cd1 2.378 . S
O10 C8 1.256 . S
O11 Cd12 2.300 . S
O11 C18 1.275 . S
Cd12 O11 2.300 . S
Cd12 O20 2.381 . S
Cd12 O21 2.378 . S
O13 Cd14 2.385 . S
O13 C18 1.255 . S
Cd14 O13 2.385 . S
Cd14 O15 2.317 . S
O15 Cd14 2.317 . S
O15 C16 1.232 . S
C16 O15 1.232 . S
C16 O17 1.218 . S
O17 C16 1.218 . S
C18 O11 1.275 . S
C18 O13 1.255 . S
C19 O20 1.258 . S
C19 O21 1.256 . S
O20 Cd12 2.381 . S
O20 C19 1.258 . S
O21 Cd12 2.378 . S
O21 C19 1.256 . S
O22 Cd23 2.300 . S
O22 C29 1.275 . S
Cd23 O22 2.300 . S
Cd23 O31 2.381 . S
Cd23 O32 2.378 . S
O24 Cd25 2.385 . S
O24 C29 1.255 . S
Cd25 O24 2.385 . S
Cd25 O26 2.317 . S
O26 Cd25 2.317 . S
O26 C27 1.232 . S
C27 O26 1.232 . S
C27 O28 1.218 . S
O28 C27 1.218 . S
C29 O22 1.275 . S
C29 O24 1.255 . S
C30 O31 1.258 . S
C30 O32 1.256 . S
O31 Cd23 2.381 . S
O31 C30 1.258 . S
O32 Cd23 2.378 . S
O32 C30 1.256 . S
O33 Cd34 2.300 . S
O33 C40 1.275 . S
Cd34 O33 2.300 . S
Cd34 O42 2.381 . S
Cd34 O43 2.378 . S
O35 Cd36 2.385 . S
O35 C40 1.255 . S
Cd36 O35 2.385 . S
Cd36 O37 2.317 . S
O37 Cd36 2.317 . S
O37 C38 1.232 . S
C38 O37 1.232 . S
C38 O39 1.218 . S
O39 C38 1.218 . S
C40 O33 1.275 . S
C40 O35 1.255 . S
C41 O42 1.258 . S
C41 O43 1.256 . S
O42 Cd34 2.381 . S
O42 C41 1.258 . S
O43 Cd34 2.378 . S
O43 C41 1.256 . S
O44 Cd45 2.300 . S
O44 C51 1.275 . S
Cd45 O44 2.300 . S
Cd45 O53 2.381 . S
Cd45 O54 2.378 . S
O46 Cd47 2.385 . S
O46 C51 1.255 . S
Cd47 O46 2.385 . S
Cd47 O48 2.317 . S
O48 Cd47 2.317 . S
O48 C49 1.232 . S
C49 O48 1.232 . S
C49 O50 1.218 . S
O50 C49 1.218 . S
C51 O44 1.275 . S
C51 O46 1.255 . S
C52 O53 1.258 . S
C52 O54 1.256 . S
O53 Cd45 2.381 . S
O53 C52 1.258 . S
O54 Cd45 2.378 . S
O54 C52 1.256 . S
O55 Cd56 2.300 . S
O55 C62 1.275 . S
Cd56 O55 2.300 . S
Cd56 O64 2.381 . S
Cd56 O65 2.378 . S
O57 Cd58 2.385 . S
O57 C62 1.255 . S
Cd58 O57 2.385 . S
Cd58 O59 2.317 . S
O59 Cd58 2.317 . S
O59 C60 1.232 . S
C60 O59 1.232 . S
C60 O61 1.218 . S
O61 C60 1.218 . S
C62 O55 1.275 . S
C62 O57 1.255 . S
C63 O64 1.258 . S
C63 O65 1.256 . S
O64 Cd56 2.381 . S
O64 C63 1.258 . S
O65 Cd56 2.378 . S
O65 C63 1.256 . S
O66 Cd67 2.300 . S
O66 C73 1.275 . S
Cd67 O66 2.300 . S
Cd67 O75 2.381 . S
Cd67 O76 2.378 . S
O68 Cd69 2.385 . S
O68 C73 1.255 . S
Cd69 O68 2.385 . S
Cd69 O70 2.317 . S
O70 Cd69 2.317 . S
O70 C71 1.232 . S
C71 O70 1.232 . S
C71 O72 1.218 . S
O72 C71 1.218 . S
C73 O66 1.275 . S
C73 O68 1.255 . S
C74 O75 1.258 . S
C74 O76 1.256 . S
O75 Cd67 2.381 . S
O75 C74 1.258 . S
O76 Cd67 2.378 . S
O76 C74 1.256 . S
O77 Cd78 2.300 . S
O77 C84 1.275 . S
Cd78 O77 2.300 . S
Cd78 O86 2.381 . S
Cd78 O87 2.378 . S
O79 Cd80 2.385 . S
O79 C84 1.255 . S
Cd80 O79 2.385 . S
Cd80 O81 2.317 . S
O81 Cd80 2.317 . S
O81 C82 1.232 . S
C82 O81 1.232 . S
C82 O83 1.218 . S
O83 C82 1.218 . S
C84 O77 1.275 . S
C84 O79 1.255 . S
C85 O86 1.258 . S
C85 O87 1.256 . S
O86 Cd78 2.381 . S
O86 C85 1.258 . S
O87 Cd78 2.378 . S
O87 C85 1.256 . S
Dy88 O91 2.307 1_545 S
Dy88 O93 2.395 . S
Dy88 O94 2.379 . S
Dy88 O96 2.339 1_545 S
Dy88 O98 2.320 . S
Dy88 O102 2.275 . S
Dy88 C110 2.738 . S
Dy89 O92 2.298 1_645 S
Dy89 O95 2.275 1_545 S
Dy89 O97 2.307 . S
Dy89 O99 2.395 1_545 S
Dy89 O100 2.379 1_545 S
Dy89 O103 2.349 . S
Dy89 C119 2.738 1_545 S
C90 O102 1.254 . S
C90 O103 1.235 1_455 S
O91 Dy88 2.307 1_565 S
O91 C101 1.266 . S
O92 Dy89 2.298 1_465 S
O92 C101 1.236 . S
O93 Dy88 2.395 . S
O93 C110 1.255 . S
O94 Dy88 2.379 . S
O94 C110 1.249 . S
O95 Dy89 2.275 1_565 S
O95 C111 1.254 . S
O96 Dy88 2.339 1_565 S
O96 C111 1.257 1_455 S
O97 Dy89 2.307 . S
O97 C112 1.266 . S
O98 Dy88 2.320 . S
O98 C112 1.214 1_455 S
O99 Dy89 2.395 1_565 S
O99 C119 1.255 . S
O100 Dy89 2.379 1_565 S
O100 C119 1.249 . S
C101 O91 1.266 . S
C101 O92 1.236 . S
O102 Dy88 2.275 . S
O102 C90 1.254 . S
O103 Dy89 2.349 . S
O103 C90 1.235 1_655 S
C104 C107 1.344 . S
C104 C108 1.328 . S
C104 C110 1.516 . S
C105 C106 1.304 . S
C105 C109 1.323 . S
C106 C105 1.304 . S
C106 C107 1.371 . S
C106 H120 0.930 . S
C107 C104 1.344 . S
C107 C106 1.371 . S
C107 H121 0.931 . S
C108 C104 1.328 . S
C108 C109 1.433 . S
C108 H122 0.931 . S
C109 C105 1.323 . S
C109 C108 1.433 . S
C109 H123 0.933 . S
C110 Dy88 2.738 . S
C110 O93 1.255 . S
C110 O94 1.249 . S
C110 C104 1.516 . S
C111 O95 1.254 . S
C111 O96 1.257 1_655 S
C112 O97 1.266 . S
C112 O98 1.214 1_655 S
C113 C116 1.344 . S
C113 C117 1.328 . S
C113 C119 1.516 . S
C114 C115 1.304 . S
C114 C118 1.323 . S
C115 C114 1.304 . S
C115 C116 1.371 . S
C115 H124 0.930 . S
C116 C113 1.344 . S
C116 C115 1.371 . S
C116 H125 0.931 . S
C117 C113 1.328 . S
C117 C118 1.433 . S
C117 H126 0.931 . S
C118 C114 1.323 . S
C118 C117 1.433 . S
C118 H127 0.933 . S
C119 Dy89 2.738 1_565 S
C119 O99 1.255 . S
C119 O100 1.249 . S
C119 C113 1.516 . S
H120 C106 0.930 . S
H121 C107 0.931 . S
H122 C108 0.931 . S
H123 C109 0.933 . S
H124 C115 0.930 . S
H125 C116 0.931 . S
H126 C117 0.931 . S
H127 C118 0.933 . S
Dy128 O131 2.307 . S
Dy128 O133 2.395 1_545 S
Dy128 O134 2.379 1_554 S
Dy128 O136 2.339 . S
Dy128 O138 2.298 . S
Dy128 O142 2.277 . S
Dy128 C150 2.738 1_544 S
Dy129 O132 2.298 . S
Dy129 O135 2.275 . S
Dy129 O137 2.307 . S
Dy129 O139 2.395 . S
Dy129 O140 2.379 . S
Dy129 O143 2.339 1_545 S
Dy129 C159 2.738 . S
C130 O142 1.252 1_565 S
C130 O143 1.257 . S
O131 Dy128 2.307 . S
O131 C141 1.266 . S
O132 Dy129 2.298 . S
O132 C141 1.236 . S
O133 Dy128 2.395 1_565 S
O133 C150 1.255 1_554 S
O134 Dy128 2.379 1_556 S
O134 C150 1.249 1_545 S
O135 Dy129 2.275 . S
O135 C151 1.254 . S
O136 Dy128 2.339 . S
O136 C151 1.257 . S
O137 Dy129 2.307 . S
O137 C152 1.266 1_545 S
O138 Dy128 2.298 . S
O138 C152 1.236 1_545 S
O139 Dy129 2.395 . S
O139 C159 1.255 . S
O140 Dy129 2.379 . S
O140 C159 1.249 . S
C141 O131 1.266 . S
C141 O132 1.236 . S
O142 Dy128 2.277 . S
O142 C130 1.252 1_545 S
O143 Dy129 2.339 1_565 S
O143 C130 1.257 . S
C144 C147 1.344 . S
C144 C148 1.328 . S
C144 C150 1.516 . S
C145 C146 1.304 . S
C145 C149 1.323 . S
C146 C145 1.304 . S
C146 C147 1.371 . S
C146 H160 0.930 . S
C147 C144 1.344 . S
C147 C146 1.371 . S
C147 H161 0.931 . S
C148 C144 1.328 . S
C148 C149 1.433 . S
C148 H162 0.931 . S
C149 C145 1.323 . S
C149 C148 1.433 . S
C149 H163 0.933 . S
C150 Dy128 2.738 1_566 S
C150 O133 1.255 1_556 S
C150 O134 1.249 1_565 S
C150 C144 1.516 . S
C151 O135 1.254 . S
C151 O136 1.257 . S
C152 O137 1.266 1_565 S
C152 O138 1.236 1_565 S
C153 C156 1.344 . S
C153 C157 1.328 . S
C153 C159 1.516 . S
C154 C155 1.304 . S
C154 C158 1.323 . S
C155 C154 1.304 . S
C155 C156 1.371 . S
C155 H164 0.930 . S
C156 C153 1.344 . S
C156 C155 1.371 . S
C156 H165 0.931 . S
C157 C153 1.328 . S
C157 C158 1.433 . S
C157 H166 0.931 . S
C158 C154 1.323 . S
C158 C157 1.433 . S
C158 H167 0.933 . S
C159 Dy129 2.738 . S
C159 O139 1.255 . S
C159 O140 1.249 . S
C159 C153 1.516 . S
H160 C146 0.930 . S
H161 C147 0.931 . S
H162 C148 0.931 . S
H163 C149 0.933 . S
H164 C155 0.930 . S
H165 C156 0.931 . S
H166 C157 0.931 . S
H167 C158 0.933 . S
Dy168 O171 2.307 . S
Dy168 O173 2.395 . S
Dy168 O174 2.379 . S
Dy168 O176 2.339 . S
Dy168 O178 2.298 . S
Dy168 O182 2.275 . S
Dy168 C190 2.738 . S
Dy169 O172 2.298 . S
Dy169 O175 2.275 . S
Dy169 O177 2.307 . S
Dy169 O179 2.395 . S
Dy169 O180 2.379 . S
Dy169 O183 2.339 . S
Dy169 C199 2.738 . S
C170 O182 1.254 . S
C170 O183 1.257 . S
O171 Dy168 2.307 . S
O171 C181 1.266 . S
O172 Dy169 2.298 . S
O172 C181 1.236 . S
O173 Dy168 2.395 . S
O173 C190 1.255 . S
O174 Dy168 2.379 . S
O174 C190 1.249 . S
O175 Dy169 2.275 . S
O175 C191 1.254 . S
O176 Dy168 2.339 . S
O176 C191 1.257 . S
O177 Dy169 2.307 . S
O177 C192 1.266 . S
O178 Dy168 2.298 . S
O178 C192 1.236 . S
O179 Dy169 2.395 . S
O179 C199 1.255 . S
O180 Dy169 2.379 . S
O180 C199 1.249 . S
C181 O171 1.266 . S
C181 O172 1.236 . S
O182 Dy168 2.275 . S
O182 C170 1.254 . S
O183 Dy169 2.339 . S
O183 C170 1.257 . S
C184 C187 1.344 . S
C184 C188 1.328 . S
C184 C190 1.516 . S
C185 C186 1.304 . S
C185 C189 1.323 . S
C186 C185 1.304 . S
C186 C187 1.371 . S
C186 H200 0.930 . S
C187 C184 1.344 . S
C187 C186 1.371 . S
C187 H201 0.931 . S
C188 C184 1.328 . S
C188 C189 1.433 . S
C188 H202 0.931 . S
C189 C185 1.323 . S
C189 C188 1.433 . S
C189 H203 0.933 . S
C190 Dy168 2.738 . S
C190 O173 1.255 . S
C190 O174 1.249 . S
C190 C184 1.516 . S
C191 O175 1.254 . S
C191 O176 1.257 . S
C192 O177 1.266 . S
C192 O178 1.236 . S
C193 C196 1.344 . S
C193 C197 1.328 . S
C193 C199 1.516 . S
C194 C195 1.304 . S
C194 C198 1.323 . S
C195 C194 1.304 . S
C195 C196 1.371 . S
C195 H204 0.930 . S
C196 C193 1.344 . S
C196 C195 1.371 . S
C196 H205 0.931 . S
C197 C193 1.328 . S
C197 C198 1.433 . S
C197 H206 0.931 . S
C198 C194 1.323 . S
C198 C197 1.433 . S
C198 H207 0.933 . S
C199 Dy169 2.738 . S
C199 O179 1.255 . S
C199 O180 1.249 . S
C199 C193 1.516 . S
H200 C186 0.930 . S
H201 C187 0.931 . S
H202 C188 0.931 . S
H203 C189 0.933 . S
H204 C195 0.930 . S
H205 C196 0.931 . S
H206 C197 0.931 . S
H207 C198 0.933 . S
Dy208 O211 2.307 1_556 S
Dy208 O213 2.395 1_455 S
Dy208 O214 2.379 . S
Dy208 O216 2.339 . S
Dy208 O218 2.298 1_455 S
Dy208 O222 2.275 1_556 S
Dy208 C230 2.738 1_455 S
Dy209 O212 2.298 . S
Dy209 O215 2.275 1_554 S
Dy209 O217 2.307 1_455 S
Dy209 O219 2.395 . S
Dy209 O220 2.379 . S
Dy209 O223 2.339 . S
Dy209 C239 2.738 . S
C210 O222 1.254 1_655 S
C210 O223 1.257 1_655 S
O211 Dy208 2.307 1_554 S
O211 C221 1.266 . S
O212 Dy209 2.298 . S
O212 C221 1.236 . S
O213 Dy208 2.395 1_655 S
O213 C230 1.255 . S
O214 Dy208 2.379 . S
O214 C230 1.249 1_455 S
O215 Dy209 2.275 1_556 S
O215 C231 1.254 . S
O216 Dy208 2.339 . S
O216 C231 1.257 . S
O217 Dy209 2.307 1_655 S
O217 C232 1.266 1_554 S
O218 Dy208 2.298 1_655 S
O218 C232 1.236 . S
O219 Dy209 2.395 . S
O219 C239 1.255 . S
O220 Dy209 2.379 . S
O220 C239 1.249 . S
C221 O211 1.266 . S
C221 O212 1.236 . S
O222 Dy208 2.275 1_554 S
O222 C210 1.254 1_455 S
O223 Dy209 2.339 . S
O223 C210 1.257 1_455 S
C224 C227 1.344 . S
C224 C228 1.328 . S
C224 C230 1.516 . S
C225 C226 1.304 . S
C225 C229 1.323 . S
C226 C225 1.304 . S
C226 C227 1.371 . S
C226 H240 0.930 . S
C227 C224 1.344 . S
C227 C226 1.371 . S
C227 H241 0.931 . S
C228 C224 1.328 . S
C228 C229 1.433 . S
C228 H242 0.931 . S
C229 C225 1.323 . S
C229 C228 1.433 . S
C229 H243 0.933 . S
C230 Dy208 2.738 1_655 S
C230 O213 1.255 . S
C230 O214 1.249 1_655 S
C230 C224 1.516 . S
C231 O215 1.254 . S
C231 O216 1.257 . S
C232 O217 1.266 1_556 S
C232 O218 1.236 . S
C233 C236 1.344 . S
C233 C237 1.328 . S
C233 C239 1.516 . S
C234 C235 1.304 . S
C234 C238 1.323 . S
C235 C234 1.304 . S
C235 C236 1.371 . S
C235 H244 0.930 . S
C236 C233 1.344 . S
C236 C235 1.371 . S
C236 H245 0.931 . S
C237 C233 1.328 . S
C237 C238 1.433 . S
C237 H246 0.931 . S
C238 C234 1.323 . S
C238 C237 1.433 . S
C238 H247 0.933 . S
C239 Dy209 2.738 . S
C239 O219 1.255 . S
C239 O220 1.249 . S
C239 C233 1.516 . S
H240 C226 0.930 . S
H241 C227 0.931 . S
H242 C228 0.931 . S
H243 C229 0.933 . S
H244 C235 0.930 . S
H245 C236 0.931 . S
H246 C237 0.931 . S
H247 C238 0.933 . S
C248 C249 1.349 . S
C248 C250 1.327 . S
C248 H273 0.950 . S
C249 C248 1.349 . S
C249 C265 1.349 . S
C250 C248 1.327 . S
C250 C269 1.429 . S
C250 H274 0.950 . S
C251 C268 1.574 . S
C251 C270 1.368 . S
C251 H275 0.949 . S
H252 C256 0.949 . S
C253 C254 1.349 . S
C253 C255 1.327 . S
C253 H276 0.950 . S
C254 C253 1.349 . S
C254 C266 1.349 . S
C255 C253 1.327 . S
C255 C271 1.429 . S
C255 H277 0.950 . S
C256 H252 0.949 . S
C256 C264 1.574 . S
C256 C272 1.368 . S
H257 C265 0.950 . S
H258 C263 0.950 . S
H259 C264 0.949 . S
H260 C266 0.950 . S
H261 C267 0.950 . S
H262 C268 0.949 . S
C263 H258 0.950 . S
C263 C265 1.327 . S
C263 C269 1.429 . S
C264 C256 1.574 . S
C264 H259 0.949 . S
C264 C270 1.368 . S
C265 C249 1.349 . S
C265 H257 0.950 . S
C265 C263 1.327 . S
C266 C254 1.349 . S
C266 H260 0.950 . S
C266 C267 1.327 . S
C267 H261 0.950 . S
C267 C266 1.327 . S
C267 C271 1.429 . S
C268 C251 1.574 . S
C268 H262 0.949 . S
C268 C272 1.368 . S
C269 C250 1.429 . S
C269 C263 1.429 . S
C269 C270 1.523 . S
C270 C251 1.368 . S
C270 C264 1.368 . S
C270 C269 1.523 . S
C271 C255 1.429 . S
C271 C267 1.429 . S
C271 C272 1.523 . S
C272 C256 1.368 . S
C272 C268 1.368 . S
C272 C271 1.523 . S
H273 C248 0.950 . S
H274 C250 0.950 . S
H275 C251 0.949 . S
H276 C253 0.950 . S
H277 C255 0.950 . S
C278 C279 1.349 . S
C278 C280 1.327 . S
C278 H303 0.950 . S
C279 C278 1.349 . S
C279 C295 1.349 . S
C280 C278 1.327 . S
C280 C299 1.429 . S
C280 H304 0.950 . S
C281 C298 1.574 . S
C281 C300 1.368 . S
C281 H305 0.949 . S
H282 C286 0.949 . S
C283 C284 1.349 . S
C283 C285 1.327 . S
C283 H306 0.950 . S
C284 C283 1.349 . S
C284 C296 1.349 . S
C285 C283 1.327 . S
C285 C301 1.429 . S
C285 H307 0.950 . S
C286 H282 0.949 . S
C286 C294 1.574 . S
C286 C302 1.368 . S
H287 C295 0.950 . S
H288 C293 0.950 . S
H289 C294 0.949 . S
H290 C296 0.950 . S
H291 C297 0.950 . S
H292 C298 0.949 . S
C293 H288 0.950 . S
C293 C295 1.327 . S
C293 C299 1.429 . S
C294 C286 1.574 . S
C294 H289 0.949 . S
C294 C300 1.368 . S
C295 C279 1.349 . S
C295 H287 0.950 . S
C295 C293 1.327 . S
C296 C284 1.349 . S
C296 H290 0.950 . S
C296 C297 1.327 . S
C297 H291 0.950 . S
C297 C296 1.327 . S
C297 C301 1.429 . S
C298 C281 1.574 . S
C298 H292 0.949 . S
C298 C302 1.368 . S
C299 C280 1.429 . S
C299 C293 1.429 . S
C299 C300 1.523 . S
C300 C281 1.368 . S
C300 C294 1.368 . S
C300 C299 1.523 . S
C301 C285 1.429 . S
C301 C297 1.429 . S
C301 C302 1.523 . S
C302 C286 1.368 . S
C302 C298 1.368 . S
C302 C301 1.523 . S
H303 C278 0.950 . S
H304 C280 0.950 . S
H305 C281 0.949 . S
H306 C283 0.950 . S
H307 C285 0.950 . S
C308 C309 1.349 . S
C308 C310 1.327 . S
C308 H333 0.950 . S
C309 C308 1.349 . S
C309 C325 1.349 . S
C310 C308 1.327 . S
C310 C329 1.429 . S
C310 H334 0.950 . S
C311 C328 1.574 . S
C311 C330 1.368 . S
C311 H335 0.949 . S
H312 C316 0.949 . S
C313 C314 1.349 . S
C313 C315 1.327 . S
C313 H336 0.950 . S
C314 C313 1.349 . S
C314 C326 1.349 . S
C315 C313 1.327 . S
C315 C331 1.429 . S
C315 H337 0.950 . S
C316 H312 0.949 . S
C316 C324 1.574 . S
C316 C332 1.368 . S
H317 C325 0.950 . S
H318 C323 0.950 . S
H319 C324 0.949 . S
H320 C326 0.950 . S
H321 C327 0.950 . S
H322 C328 0.949 . S
C323 H318 0.950 . S
C323 C325 1.327 . S
C323 C329 1.429 . S
C324 C316 1.574 . S
C324 H319 0.949 . S
C324 C330 1.368 . S
C325 C309 1.349 . S
C325 H317 0.950 . S
C325 C323 1.327 . S
C326 C314 1.349 . S
C326 H320 0.950 . S
C326 C327 1.327 . S
C327 H321 0.950 . S
C327 C326 1.327 . S
C327 C331 1.429 . S
C328 C311 1.574 . S
C328 H322 0.949 . S
C328 C332 1.368 . S
C329 C310 1.429 . S
C329 C323 1.429 . S
C329 C330 1.523 . S
C330 C311 1.368 . S
C330 C324 1.368 . S
C330 C329 1.523 . S
C331 C315 1.429 . S
C331 C327 1.429 . S
C331 C332 1.523 . S
C332 C316 1.368 . S
C332 C328 1.368 . S
C332 C331 1.523 . S
H333 C308 0.950 . S
H334 C310 0.950 . S
H335 C311 0.949 . S
H336 C313 0.950 . S
H337 C315 0.950 . S
C338 C339 1.349 . S
C338 C340 1.327 . S
C338 H363 0.950 . S
C339 C338 1.349 . S
C339 C355 1.349 . S
C340 C338 1.327 . S
C340 C359 1.429 . S
C340 H364 0.950 . S
C341 C358 1.574 . S
C341 C360 1.368 . S
C341 H365 0.949 . S
H342 C346 0.949 . S
C343 C344 1.349 . S
C343 C345 1.327 . S
C343 H366 0.950 1_655 S
C344 C343 1.349 . S
C344 C356 1.349 . S
C345 C343 1.327 . S
C345 C361 1.429 . S
C345 H367 0.950 1_655 S
C346 H342 0.949 . S
C346 C354 1.574 . S
C346 C362 1.368 . S
H347 C355 0.950 . S
H348 C353 0.950 . S
H349 C354 0.949 . S
H350 C356 0.950 . S
H351 C357 0.950 . S
H352 C358 0.949 . S
C353 H348 0.950 . S
C353 C355 1.327 . S
C353 C359 1.429 . S
C354 C346 1.574 . S
C354 H349 0.949 . S
C354 C360 1.368 . S
C355 C339 1.349 . S
C355 H347 0.950 . S
C355 C353 1.327 . S
C356 C344 1.349 . S
C356 H350 0.950 . S
C356 C357 1.327 . S
C357 H351 0.950 . S
C357 C356 1.327 . S
C357 C361 1.429 . S
C358 C341 1.574 . S
C358 H352 0.949 . S
C358 C362 1.368 . S
C359 C340 1.429 . S
C359 C353 1.429 . S
C359 C360 1.523 . S
C360 C341 1.368 . S
C360 C354 1.368 . S
C360 C359 1.523 . S
C361 C345 1.429 . S
C361 C357 1.429 . S
C361 C362 1.523 . S
C362 C346 1.368 . S
C362 C358 1.368 . S
C362 C361 1.523 . S
H363 C338 0.950 . S
H364 C340 0.950 . S
H365 C341 0.949 . S
H366 C343 0.950 1_455 S
H367 C345 0.950 1_455 S
C368 C369 1.349 . S
C368 C370 1.327 . S
C368 H393 0.950 . S
C369 C368 1.349 . S
C369 C385 1.349 . S
C370 C368 1.327 . S
C370 C389 1.429 . S
C370 H394 0.950 . S
C371 C388 1.574 . S
C371 C390 1.368 . S
C371 H395 0.949 . S
H372 C376 0.949 . S
C373 C374 1.349 . S
C373 C375 1.327 . S
C373 H396 0.950 . S
C374 C373 1.349 . S
C374 C386 1.349 . S
C375 C373 1.327 . S
C375 C391 1.429 . S
C375 H397 0.950 . S
C376 H372 0.949 . S
C376 C384 1.574 . S
C376 C392 1.368 . S
H377 C385 0.950 . S
H378 C383 0.950 . S
H379 C384 0.949 . S
H380 C386 0.950 . S
H381 C387 0.950 . S
H382 C388 0.949 . S
C383 H378 0.950 . S
C383 C385 1.327 . S
C383 C389 1.429 . S
C384 C376 1.574 . S
C384 H379 0.949 . S
C384 C390 1.368 . S
C385 C369 1.349 . S
C385 H377 0.950 . S
C385 C383 1.327 . S
C386 C374 1.349 . S
C386 H380 0.950 . S
C386 C387 1.327 . S
C387 H381 0.950 . S
C387 C386 1.327 . S
C387 C391 1.429 . S
C388 C371 1.574 . S
C388 H382 0.949 . S
C388 C392 1.368 . S
C389 C370 1.429 . S
C389 C383 1.429 . S
C389 C390 1.523 . S
C390 C371 1.368 . S
C390 C384 1.368 . S
C390 C389 1.523 . S
C391 C375 1.429 . S
C391 C387 1.429 . S
C391 C392 1.523 . S
C392 C376 1.368 . S
C392 C388 1.368 . S
C392 C391 1.523 . S
H393 C368 0.950 . S
H394 C370 0.950 . S
H395 C371 0.949 . S
H396 C373 0.950 . S
H397 C375 0.950 . S
C398 C399 1.349 . S
C398 C400 1.327 . S
C398 H423 0.950 . S
C399 C398 1.349 . S
C399 C415 1.349 . S
C400 C398 1.327 . S
C400 C419 1.429 . S
C400 H424 0.950 . S
C401 C418 1.574 . S
C401 C420 1.368 . S
C401 H425 0.949 . S
H402 C406 0.949 . S
C403 C404 1.349 . S
C403 C405 1.327 . S
C403 H426 0.950 . S
C404 C403 1.349 . S
C404 C416 1.349 . S
C405 C403 1.327 . S
C405 C421 1.429 . S
C405 H427 0.950 . S
C406 H402 0.949 . S
C406 C414 1.574 . S
C406 C422 1.368 . S
H407 C415 0.950 . S
H408 C413 0.950 . S
H409 C414 0.949 . S
H410 C416 0.950 . S
H411 C417 0.950 . S
H412 C418 0.949 . S
C413 H408 0.950 . S
C413 C415 1.327 . S
C413 C419 1.429 . S
C414 C406 1.574 . S
C414 H409 0.949 . S
C414 C420 1.368 . S
C415 C399 1.349 . S
C415 H407 0.950 . S
C415 C413 1.327 . S
C416 C404 1.349 . S
C416 H410 0.950 . S
C416 C417 1.327 . S
C417 H411 0.950 . S
C417 C416 1.327 . S
C417 C421 1.429 . S
C418 C401 1.574 . S
C418 H412 0.949 . S
C418 C422 1.368 . S
C419 C400 1.429 . S
C419 C413 1.429 . S
C419 C420 1.523 . S
C420 C401 1.368 . S
C420 C414 1.368 . S
C420 C419 1.523 . S
C421 C405 1.429 . S
C421 C417 1.429 . S
C421 C422 1.523 . S
C422 C406 1.368 . S
C422 C418 1.368 . S
C422 C421 1.523 . S
H423 C398 0.950 . S
H424 C400 0.950 . S
H425 C401 0.949 . S
H426 C403 0.950 . S
H427 C405 0.950 . S
C428 C429 1.349 . S
C428 C430 1.327 . S
C428 H453 0.950 . S
C429 C428 1.349 . S
C429 C445 1.349 . S
C430 C428 1.327 . S
C430 C449 1.429 . S
C430 H454 0.950 . S
C431 C448 1.574 . S
C431 C450 1.368 . S
C431 H455 0.949 . S
H432 C436 0.949 . S
C433 C434 1.349 . S
C433 C435 1.327 . S
C433 H456 0.950 . S
C434 C433 1.349 . S
C434 C446 1.349 . S
C435 C433 1.327 . S
C435 C451 1.429 . S
C435 H457 0.950 . S
C436 H432 0.949 . S
C436 C444 1.574 . S
C436 C452 1.368 . S
H437 C445 0.950 . S
H438 C443 0.950 . S
H439 C444 0.949 . S
H440 C446 0.950 . S
H441 C447 0.950 . S
H442 C448 0.949 . S
C443 H438 0.950 . S
C443 C445 1.327 . S
C443 C449 1.429 . S
C444 C436 1.574 . S
C444 H439 0.949 . S
C444 C450 1.368 . S
C445 C429 1.349 . S
C445 H437 0.950 . S
C445 C443 1.327 . S
C446 C434 1.349 . S
C446 H440 0.950 . S
C446 C447 1.327 . S
C447 H441 0.950 . S
C447 C446 1.327 . S
C447 C451 1.429 . S
C448 C431 1.574 . S
C448 H442 0.949 . S
C448 C452 1.368 . S
C449 C430 1.429 . S
C449 C443 1.429 . S
C449 C450 1.523 . S
C450 C431 1.368 . S
C450 C444 1.368 . S
C450 C449 1.523 . S
C451 C435 1.429 . S
C451 C447 1.429 . S
C451 C452 1.523 . S
C452 C436 1.368 . S
C452 C448 1.368 . S
C452 C451 1.523 . S
H453 C428 0.950 . S
H454 C430 0.950 . S
H455 C431 0.949 . S
H456 C433 0.950 . S
H457 C435 0.950 . S
C458 C459 1.349 . S
C458 C460 1.327 . S
C458 H483 0.950 . S
C459 C458 1.349 . S
C459 C475 1.349 . S
C460 C458 1.327 . S
C460 C479 1.429 . S
C460 H484 0.950 . S
C461 C478 1.574 . S
C461 C480 1.368 . S
C461 H485 0.949 . S
H462 C466 0.949 . S
C463 C464 1.349 . S
C463 C465 1.327 . S
C463 H486 0.950 . S
C464 C463 1.349 . S
C464 C476 1.349 . S
C465 C463 1.327 . S
C465 C481 1.429 . S
C465 H487 0.950 . S
C466 H462 0.949 . S
C466 C474 1.574 . S
C466 C482 1.368 . S
H467 C475 0.950 . S
H468 C473 0.950 . S
H469 C474 0.949 . S
H470 C476 0.950 . S
H471 C477 0.950 . S
H472 C478 0.949 . S
C473 H468 0.950 . S
C473 C475 1.327 . S
C473 C479 1.429 . S
C474 C466 1.574 . S
C474 H469 0.949 . S
C474 C480 1.368 . S
C475 C459 1.349 . S
C475 H467 0.950 . S
C475 C473 1.327 . S
C476 C464 1.349 . S
C476 H470 0.950 . S
C476 C477 1.327 . S
C477 H471 0.950 . S
C477 C476 1.327 . S
C477 C481 1.429 . S
C478 C461 1.574 . S
C478 H472 0.949 . S
C478 C482 1.368 . S
C479 C460 1.429 . S
C479 C473 1.429 . S
C479 C480 1.523 . S
C480 C461 1.368 . S
C480 C474 1.368 . S
C480 C479 1.523 . S
C481 C465 1.429 . S
C481 C477 1.429 . S
C481 C482 1.523 . S
C482 C466 1.368 . S
C482 C478 1.368 . S
C482 C481 1.523 . S
H483 C458 0.950 . S
H484 C460 0.950 . S
H485 C461 0.949 . S
H486 C463 0.950 . S
H487 C465 0.950 . S
C488 C489 1.349 . S
C488 C490 1.327 . S
C488 H513 0.950 . S
C489 C488 1.349 . S
C489 C505 1.349 . S
C490 C488 1.327 . S
C490 C509 1.429 . S
C490 H514 0.950 . S
C491 C508 1.574 . S
C491 C510 1.368 . S
C491 H515 0.949 . S
H492 C496 0.949 . S
C493 C494 1.349 . S
C493 C495 1.327 . S
C493 H516 0.950 . S
C494 C493 1.349 . S
C494 C506 1.349 . S
C495 C493 1.327 . S
C495 C511 1.429 . S
C495 H517 0.950 . S
C496 H492 0.949 . S
C496 C504 1.574 . S
C496 C512 1.368 . S
H497 C505 0.950 . S
H498 C503 0.950 . S
H499 C504 0.949 . S
H500 C506 0.950 . S
H501 C507 0.950 . S
H502 C508 0.949 . S
C503 H498 0.950 . S
C503 C505 1.327 . S
C503 C509 1.429 . S
C504 C496 1.574 . S
C504 H499 0.949 . S
C504 C510 1.368 . S
C505 C489 1.349 . S
C505 H497 0.950 . S
C505 C503 1.327 . S
C506 C494 1.349 . S
C506 H500 0.950 . S
C506 C507 1.327 . S
C507 H501 0.950 . S
C507 C506 1.327 . S
C507 C511 1.429 . S
C508 C491 1.574 . S
C508 H502 0.949 . S
C508 C512 1.368 . S
C509 C490 1.429 . S
C509 C503 1.429 . S
C509 C510 1.523 . S
C510 C491 1.368 . S
C510 C504 1.368 . S
C510 C509 1.523 . S
C511 C495 1.429 . S
C511 C507 1.429 . S
C511 C512 1.523 . S
C512 C496 1.368 . S
C512 C508 1.368 . S
C512 C511 1.523 . S
H513 C488 0.950 . S
H514 C490 0.950 . S
H515 C491 0.949 . S
H516 C493 0.950 . S
H517 C495 0.950 . S
C518 C519 1.349 . S
C518 C520 1.327 . S
C518 H543 0.950 . S
C519 C518 1.349 . S
C519 C535 1.349 . S
C520 C518 1.327 . S
C520 C539 1.429 . S
C520 H544 0.950 . S
C521 C538 1.574 . S
C521 C540 1.368 . S
C521 H545 0.949 . S
H522 C526 0.949 . S
C523 C524 1.349 . S
C523 C525 1.327 . S
C523 H546 0.950 . S
C524 C523 1.349 . S
C524 C536 1.349 1_554 S
C525 C523 1.327 . S
C525 C541 1.429 1_554 S
C525 H547 0.950 . S
C526 H522 0.949 . S
C526 C534 1.574 . S
C526 C542 1.368 . S
H527 C535 0.950 . S
H528 C533 0.950 . S
H529 C534 0.949 . S
H530 C536 0.950 . S
H531 C537 0.950 . S
H532 C538 0.949 . S
C533 H528 0.950 . S
C533 C535 1.327 . S
C533 C539 1.429 . S
C534 C526 1.574 . S
C534 H529 0.949 . S
C534 C540 1.368 . S
C535 C519 1.349 . S
C535 H527 0.950 . S
C535 C533 1.327 . S
C536 C524 1.349 1_556 S
C536 H530 0.950 . S
C536 C537 1.327 . S
C537 H531 0.950 . S
C537 C536 1.327 . S
C537 C541 1.429 . S
C538 C521 1.574 . S
C538 H532 0.949 . S
C538 C542 1.368 . S
C539 C520 1.429 . S
C539 C533 1.429 . S
C539 C540 1.523 . S
C540 C521 1.368 . S
C540 C534 1.368 . S
C540 C539 1.523 . S
C541 C525 1.429 1_556 S
C541 C537 1.429 . S
C541 C542 1.523 . S
C542 C526 1.368 . S
C542 C538 1.368 . S
C542 C541 1.523 . S
H543 C518 0.950 . S
H544 C520 0.950 . S
H545 C521 0.949 . S
H546 C523 0.950 . S
H547 C525 0.950 . S
C548 C549 1.349 . S
C548 C550 1.327 . S
C548 H573 0.950 . S
C549 C548 1.349 . S
C549 C565 1.349 . S
C550 C548 1.327 . S
C550 C569 1.429 . S
C550 H574 0.950 . S
C551 C568 1.574 . S
C551 C570 1.368 . S
C551 H575 0.949 . S
H552 C556 0.949 . S
C553 C554 1.349 . S
C553 C555 1.327 . S
C553 H576 0.950 . S
C554 C553 1.349 . S
C554 C566 1.349 . S
C555 C553 1.327 . S
C555 C571 1.429 . S
C555 H577 0.950 . S
C556 H552 0.949 . S
C556 C564 1.574 . S
C556 C572 1.368 . S
H557 C565 0.950 . S
H558 C563 0.950 . S
H559 C564 0.949 . S
H560 C566 0.950 . S
H561 C567 0.950 . S
H562 C568 0.949 . S
C563 H558 0.950 . S
C563 C565 1.327 . S
C563 C569 1.429 . S
C564 C556 1.574 . S
C564 H559 0.949 . S
C564 C570 1.368 . S
C565 C549 1.349 . S
C565 H557 0.950 . S
C565 C563 1.327 . S
C566 C554 1.349 . S
C566 H560 0.950 . S
C566 C567 1.327 . S
C567 H561 0.950 . S
C567 C566 1.327 . S
C567 C571 1.429 . S
C568 C551 1.574 . S
C568 H562 0.949 . S
C568 C572 1.368 . S
C569 C550 1.429 . S
C569 C563 1.429 . S
C569 C570 1.523 . S
C570 C551 1.368 . S
C570 C564 1.368 . S
C570 C569 1.523 . S
C571 C555 1.429 . S
C571 C567 1.429 . S
C571 C572 1.523 . S
C572 C556 1.368 . S
C572 C568 1.368 . S
C572 C571 1.523 . S
H573 C548 0.950 . S
H574 C550 0.950 . S
H575 C551 0.949 . S
H576 C553 0.950 . S
H577 C555 0.950 . S
C578 C579 1.349 . S
C578 C580 1.327 . S
C578 H603 0.950 . S
C579 C578 1.349 . S
C579 C595 1.349 . S
C580 C578 1.327 . S
C580 C599 1.429 . S
C580 H604 0.950 . S
C581 C598 1.574 . S
C581 C600 1.368 . S
C581 H605 0.949 . S
H582 C586 0.949 . S
C583 C584 1.349 . S
C583 C585 1.327 . S
C583 H606 0.950 . S
C584 C583 1.349 . S
C584 C596 1.349 . S
C585 C583 1.327 . S
C585 C601 1.429 . S
C585 H607 0.950 . S
C586 H582 0.949 . S
C586 C594 1.574 . S
C586 C602 1.368 . S
H587 C595 0.950 . S
H588 C593 0.950 . S
H589 C594 0.949 . S
H590 C596 0.950 . S
H591 C597 0.950 . S
H592 C598 0.949 . S
C593 H588 0.950 . S
C593 C595 1.327 . S
C593 C599 1.429 . S
C594 C586 1.574 . S
C594 H589 0.949 . S
C594 C600 1.368 . S
C595 C579 1.349 . S
C595 H587 0.950 . S
C595 C593 1.327 . S
C596 C584 1.349 . S
C596 H590 0.950 . S
C596 C597 1.327 . S
C597 H591 0.950 . S
C597 C596 1.327 . S
C597 C601 1.429 . S
C598 C581 1.574 . S
C598 H592 0.949 . S
C598 C602 1.368 . S
C599 C580 1.429 . S
C599 C593 1.429 . S
C599 C600 1.523 . S
C600 C581 1.368 . S
C600 C594 1.368 . S
C600 C599 1.523 . S
C601 C585 1.429 . S
C601 C597 1.429 . S
C601 C602 1.523 . S
C602 C586 1.368 . S
C602 C598 1.368 . S
C602 C601 1.523 . S
H603 C578 0.950 . S
H604 C580 0.950 . S
H605 C581 0.949 . S
H606 C583 0.950 . S
H607 C585 0.950 . S
C608 C609 1.349 . S
C608 C610 1.327 . S
C608 H633 0.950 . S
C609 C608 1.349 . S
C609 C625 1.349 . S
C610 C608 1.327 . S
C610 C629 1.429 . S
C610 H634 0.950 . S
C611 C628 1.574 . S
C611 C630 1.368 . S
C611 H635 0.949 . S
H612 C616 0.949 . S
C613 C614 1.349 . S
C613 C615 1.327 . S
C613 H636 0.950 . S
C614 C613 1.349 . S
C614 C626 1.349 . S
C615 C613 1.327 . S
C615 C631 1.429 . S
C615 H637 0.950 . S
C616 H612 0.949 . S
C616 C624 1.574 . S
C616 C632 1.368 . S
H617 C625 0.950 . S
H618 C623 0.950 . S
H619 C624 0.949 . S
H620 C626 0.950 . S
H621 C627 0.950 . S
H622 C628 0.949 . S
C623 H618 0.950 . S
C623 C625 1.327 . S
C623 C629 1.429 . S
C624 C616 1.574 . S
C624 H619 0.949 . S
C624 C630 1.368 . S
C625 C609 1.349 . S
C625 H617 0.950 . S
C625 C623 1.327 . S
C626 C614 1.349 . S
C626 H620 0.950 . S
C626 C627 1.327 . S
C627 H621 0.950 . S
C627 C626 1.327 . S
C627 C631 1.429 . S
C628 C611 1.574 . S
C628 H622 0.949 . S
C628 C632 1.368 . S
C629 C610 1.429 . S
C629 C623 1.429 . S
C629 C630 1.523 . S
C630 C611 1.368 . S
C630 C624 1.368 . S
C630 C629 1.523 . S
C631 C615 1.429 . S
C631 C627 1.429 . S
C631 C632 1.523 . S
C632 C616 1.368 . S
C632 C628 1.368 . S
C632 C631 1.523 . S
H633 C608 0.950 . S
H634 C610 0.950 . S
H635 C611 0.949 . S
H636 C613 0.950 . S
H637 C615 0.950 . S
C638 C639 1.349 . S
C638 C640 1.327 . S
C638 H663 0.950 . S
C639 C638 1.349 . S
C639 C655 1.349 . S
C640 C638 1.327 . S
C640 C659 1.429 . S
C640 H664 0.950 . S
C641 C658 1.574 . S
C641 C660 1.368 . S
C641 H665 0.949 . S
H642 C646 0.949 . S
C643 C644 1.349 . S
C643 C645 1.327 . S
C643 H666 0.950 . S
C644 C643 1.349 . S
C644 C656 1.349 . S
C645 C643 1.327 . S
C645 C661 1.429 . S
C645 H667 0.950 . S
C646 H642 0.949 . S
C646 C654 1.574 . S
C646 C662 1.368 . S
H647 C655 0.950 . S
H648 C653 0.950 . S
H649 C654 0.949 . S
H650 C656 0.950 . S
H651 C657 0.950 . S
H652 C658 0.949 . S
C653 H648 0.950 . S
C653 C655 1.327 . S
C653 C659 1.429 . S
C654 C646 1.574 . S
C654 H649 0.949 . S
C654 C660 1.368 . S
C655 C639 1.349 . S
C655 H647 0.950 . S
C655 C653 1.327 . S
C656 C644 1.349 . S
C656 H650 0.950 . S
C656 C657 1.327 . S
C657 H651 0.950 . S
C657 C656 1.327 . S
C657 C661 1.429 . S
C658 C641 1.574 . S
C658 H652 0.949 . S
C658 C662 1.368 . S
C659 C640 1.429 . S
C659 C653 1.429 . S
C659 C660 1.523 . S
C660 C641 1.368 . S
C660 C654 1.368 . S
C660 C659 1.523 . S
C661 C645 1.429 . S
C661 C657 1.429 . S
C661 C662 1.523 . S
C662 C646 1.368 . S
C662 C658 1.368 . S
C662 C661 1.523 . S
H663 C638 0.950 . S
H664 C640 0.950 . S
H665 C641 0.949 . S
H666 C643 0.950 . S
H667 C645 0.950 . S
C668 C669 1.349 . S
C668 C670 1.327 . S
C668 H693 0.950 . S
C669 C668 1.349 . S
C669 C685 1.349 . S
C670 C668 1.327 . S
C670 C689 1.429 . S
C670 H694 0.950 . S
C671 C688 1.574 . S
C671 C690 1.368 . S
C671 H695 0.949 . S
H672 C676 0.949 . S
C673 C674 1.349 . S
C673 C675 1.327 . S
C673 H696 0.950 . S
C674 C673 1.349 . S
C674 C686 1.349 . S
C675 C673 1.327 . S
C675 C691 1.429 . S
C675 H697 0.950 . S
C676 H672 0.949 . S
C676 C684 1.574 . S
C676 C692 1.368 . S
H677 C685 0.950 . S
H678 C683 0.950 . S
H679 C684 0.949 . S
H680 C686 0.950 . S
H681 C687 0.950 . S
H682 C688 0.949 . S
C683 H678 0.950 . S
C683 C685 1.327 . S
C683 C689 1.429 . S
C684 C676 1.574 . S
C684 H679 0.949 . S
C684 C690 1.368 . S
C685 C669 1.349 . S
C685 H677 0.950 . S
C685 C683 1.327 . S
C686 C674 1.349 . S
C686 H680 0.950 . S
C686 C687 1.327 . S
C687 H681 0.950 . S
C687 C686 1.327 . S
C687 C691 1.429 . S
C688 C671 1.574 . S
C688 H682 0.949 . S
C688 C692 1.368 . S
C689 C670 1.429 . S
C689 C683 1.429 . S
C689 C690 1.523 . S
C690 C671 1.368 . S
C690 C684 1.368 . S
C690 C689 1.523 . S
C691 C675 1.429 . S
C691 C687 1.429 . S
C691 C692 1.523 . S
C692 C676 1.368 . S
C692 C688 1.368 . S
C692 C691 1.523 . S
H693 C668 0.950 . S
H694 C670 0.950 . S
H695 C671 0.949 . S
H696 C673 0.950 . S
H697 C675 0.950 . S
C698 C699 1.349 . S
C698 C700 1.327 . S
C698 H723 0.950 . S
C699 C698 1.349 . S
C699 C715 1.349 . S
C700 C698 1.327 . S
C700 C719 1.429 . S
C700 H724 0.950 . S
C701 C718 1.574 . S
C701 C720 1.368 . S
C701 H725 0.949 . S
H702 C706 0.949 . S
C703 C704 1.349 . S
C703 C705 1.327 . S
C703 H726 0.950 . S
C704 C703 1.349 . S
C704 C716 1.349 . S
C705 C703 1.327 . S
C705 C721 1.429 . S
C705 H727 0.950 . S
C706 H702 0.949 . S
C706 C714 1.574 . S
C706 C722 1.368 . S
H707 C715 0.950 . S
H708 C713 0.950 . S
H709 C714 0.949 . S
H710 C716 0.950 . S
H711 C717 0.950 . S
H712 C718 0.949 . S
C713 H708 0.950 . S
C713 C715 1.327 . S
C713 C719 1.429 . S
C714 C706 1.574 . S
C714 H709 0.949 . S
C714 C720 1.368 . S
C715 C699 1.349 . S
C715 H707 0.950 . S
C715 C713 1.327 . S
C716 C704 1.349 . S
C716 H710 0.950 . S
C716 C717 1.327 . S
C717 H711 0.950 . S
C717 C716 1.327 . S
C717 C721 1.429 . S
C718 C701 1.574 . S
C718 H712 0.949 . S
C718 C722 1.368 . S
C719 C700 1.429 . S
C719 C713 1.429 . S
C719 C720 1.523 . S
C720 C701 1.368 . S
C720 C714 1.368 . S
C720 C719 1.523 . S
C721 C705 1.429 . S
C721 C717 1.429 . S
C721 C722 1.523 . S
C722 C706 1.368 . S
C722 C718 1.368 . S
C722 C721 1.523 . S
H723 C698 0.950 . S
H724 C700 0.950 . S
H725 C701 0.949 . S
H726 C703 0.950 . S
H727 C705 0.950 . S
C728 C729 1.349 . S
C728 C730 1.327 . S
C728 H753 0.950 . S
C729 C728 1.349 . S
C729 C745 1.349 . S
C730 C728 1.327 . S
C730 C749 1.429 . S
C730 H754 0.950 . S
C731 C748 1.574 . S
C731 C750 1.368 . S
C731 H755 0.949 . S
H732 C736 0.949 . S
C733 C734 1.349 . S
C733 C735 1.327 . S
C733 H756 0.950 . S
C734 C733 1.349 . S
C734 C746 1.349 . S
C735 C733 1.327 . S
C735 C751 1.429 . S
C735 H757 0.950 . S
C736 H732 0.949 . S
C736 C744 1.574 . S
C736 C752 1.368 . S
H737 C745 0.950 . S
H738 C743 0.950 . S
H739 C744 0.949 . S
H740 C746 0.950 1_554 S
H741 C747 0.950 . S
H742 C748 0.949 . S
C743 H738 0.950 . S
C743 C745 1.327 . S
C743 C749 1.429 . S
C744 C736 1.574 . S
C744 H739 0.949 . S
C744 C750 1.368 . S
C745 C729 1.349 . S
C745 H737 0.950 . S
C745 C743 1.327 . S
C746 C734 1.349 . S
C746 H740 0.950 1_556 S
C746 C747 1.327 . S
C747 H741 0.950 . S
C747 C746 1.327 . S
C747 C751 1.429 . S
C748 C731 1.574 . S
C748 H742 0.949 . S
C748 C752 1.368 . S
C749 C730 1.429 . S
C749 C743 1.429 . S
C749 C750 1.523 . S
C750 C731 1.368 . S
C750 C744 1.368 . S
C750 C749 1.523 . S
C751 C735 1.429 . S
C751 C747 1.429 . S
C751 C752 1.523 . S
C752 C736 1.368 . S
C752 C748 1.368 . S
C752 C751 1.523 . S
H753 C728 0.950 . S
H754 C730 0.950 . S
H755 C731 0.949 . S
H756 C733 0.950 . S
H757 C735 0.950 . S
C758 C759 1.349 . S
C758 C760 1.327 . S
C758 H783 0.950 . S
C759 C758 1.349 . S
C759 C775 1.349 . S
C760 C758 1.327 . S
C760 C779 1.429 . S
C760 H784 0.950 . S
C761 C778 1.574 . S
C761 C780 1.368 . S
C761 H785 0.949 . S
H762 C766 0.949 . S
C763 C764 1.349 . S
C763 C765 1.327 . S
C763 H786 0.950 . S
C764 C763 1.349 . S
C764 C776 1.349 . S
C765 C763 1.327 . S
C765 C781 1.429 . S
C765 H787 0.950 . S
C766 H762 0.949 . S
C766 C774 1.574 . S
C766 C782 1.368 . S
H767 C775 0.950 . S
H768 C773 0.950 . S
H769 C774 0.949 . S
H770 C776 0.950 1_455 S
H771 C777 0.950 . S
H772 C778 0.949 . S
C773 H768 0.950 . S
C773 C775 1.327 . S
C773 C779 1.429 . S
C774 C766 1.574 . S
C774 H769 0.949 . S
C774 C780 1.368 . S
C775 C759 1.349 . S
C775 H767 0.950 . S
C775 C773 1.327 . S
C776 C764 1.349 . S
C776 H770 0.950 1_655 S
C776 C777 1.327 . S
C777 H771 0.950 . S
C777 C776 1.327 . S
C777 C781 1.429 . S
C778 C761 1.574 . S
C778 H772 0.949 . S
C778 C782 1.368 . S
C779 C760 1.429 . S
C779 C773 1.429 . S
C779 C780 1.523 . S
C780 C761 1.368 . S
C780 C774 1.368 . S
C780 C779 1.523 . S
C781 C765 1.429 . S
C781 C777 1.429 . S
C781 C782 1.523 . S
C782 C766 1.368 . S
C782 C778 1.368 . S
C782 C781 1.523 . S
H783 C758 0.950 . S
H784 C760 0.950 . S
H785 C761 0.949 . S
H786 C763 0.950 . S
H787 C765 0.950 . S
C788 C789 1.349 . S
C788 C790 1.327 . S
C788 H813 0.950 . S
C789 C788 1.349 . S
C789 C805 1.349 . S
C790 C788 1.327 . S
C790 C809 1.429 . S
C790 H814 0.950 . S
C791 C808 1.574 . S
C791 C810 1.368 . S
C791 H815 0.949 . S
H792 C796 0.949 . S
C793 C794 1.349 . S
C793 C795 1.327 . S
C793 H816 0.950 . S
C794 C793 1.349 . S
C794 C806 1.349 . S
C795 C793 1.327 . S
C795 C811 1.429 . S
C795 H817 0.950 . S
C796 H792 0.949 . S
C796 C804 1.574 . S
C796 C812 1.368 . S
H797 C805 0.950 . S
H798 C803 0.950 . S
H799 C804 0.949 . S
H800 C806 0.950 . S
H801 C807 0.950 . S
H802 C808 0.949 . S
C803 H798 0.950 . S
C803 C805 1.327 . S
C803 C809 1.429 . S
C804 C796 1.574 . S
C804 H799 0.949 . S
C804 C810 1.368 . S
C805 C789 1.349 . S
C805 H797 0.950 . S
C805 C803 1.327 . S
C806 C794 1.349 . S
C806 H800 0.950 . S
C806 C807 1.327 . S
C807 H801 0.950 . S
C807 C806 1.327 . S
C807 C811 1.429 . S
C808 C791 1.574 . S
C808 H802 0.949 . S
C808 C812 1.368 . S
C809 C790 1.429 . S
C809 C803 1.429 . S
C809 C810 1.523 . S
C810 C791 1.368 . S
C810 C804 1.368 . S
C810 C809 1.523 . S
C811 C795 1.429 . S
C811 C807 1.429 . S
C811 C812 1.523 . S
C812 C796 1.368 . S
C812 C808 1.368 . S
C812 C811 1.523 . S
H813 C788 0.950 . S
H814 C790 0.950 . S
H815 C791 0.949 . S
H816 C793 0.950 . S
H817 C795 0.950 . S
C818 C819 1.349 . S
C818 C820 1.327 . S
C818 H843 0.950 . S
C819 C818 1.349 . S
C819 C835 1.349 . S
C820 C818 1.327 . S
C820 C839 1.429 . S
C820 H844 0.950 . S
C821 C838 1.574 . S
C821 C840 1.368 . S
C821 H845 0.949 . S
H822 C826 0.949 . S
C823 C824 1.349 . S
C823 C825 1.327 . S
C823 H846 0.950 . S
C824 C823 1.349 . S
C824 C836 1.349 . S
C825 C823 1.327 . S
C825 C841 1.429 . S
C825 H847 0.950 . S
C826 H822 0.949 . S
C826 C834 1.574 . S
C826 C842 1.368 . S
H827 C835 0.950 . S
H828 C833 0.950 . S
H829 C834 0.949 . S
H830 C836 0.950 . S
H831 C837 0.950 . S
H832 C838 0.949 . S
C833 H828 0.950 . S
C833 C835 1.327 . S
C833 C839 1.429 . S
C834 C826 1.574 . S
C834 H829 0.949 . S
C834 C840 1.368 . S
C835 C819 1.349 . S
C835 H827 0.950 . S
C835 C833 1.327 . S
C836 C824 1.349 . S
C836 H830 0.950 . S
C836 C837 1.327 . S
C837 H831 0.950 . S
C837 C836 1.327 . S
C837 C841 1.429 . S
C838 C821 1.574 . S
C838 H832 0.949 . S
C838 C842 1.368 . S
C839 C820 1.429 . S
C839 C833 1.429 . S
C839 C840 1.523 . S
C840 C821 1.368 . S
C840 C834 1.368 . S
C840 C839 1.523 . S
C841 C825 1.429 . S
C841 C837 1.429 . S
C841 C842 1.523 . S
C842 C826 1.368 . S
C842 C838 1.368 . S
C842 C841 1.523 . S
H843 C818 0.950 . S
H844 C820 0.950 . S
H845 C821 0.949 . S
H846 C823 0.950 . S
H847 C825 0.950 . S
C848 C849 1.349 . S
C848 C850 1.327 . S
C848 H873 0.950 . S
C849 C848 1.349 . S
C849 C865 1.349 . S
C850 C848 1.327 . S
C850 C869 1.429 . S
C850 H874 0.950 . S
C851 C868 1.574 . S
C851 C870 1.368 . S
C851 H875 0.949 . S
H852 C856 0.949 . S
C853 C854 1.349 . S
C853 C855 1.327 . S
C853 H876 0.950 . S
C854 C853 1.349 . S
C854 C866 1.349 . S
C855 C853 1.327 . S
C855 C871 1.429 . S
C855 H877 0.950 . S
C856 H852 0.949 . S
C856 C864 1.574 . S
C856 C872 1.368 . S
H857 C865 0.950 . S
H858 C863 0.950 . S
H859 C864 0.949 . S
H860 C866 0.950 . S
H861 C867 0.950 . S
H862 C868 0.949 . S
C863 H858 0.950 . S
C863 C865 1.327 . S
C863 C869 1.429 . S
C864 C856 1.574 . S
C864 H859 0.949 . S
C864 C870 1.368 . S
C865 C849 1.349 . S
C865 H857 0.950 . S
C865 C863 1.327 . S
C866 C854 1.349 . S
C866 H860 0.950 . S
C866 C867 1.327 . S
C867 H861 0.950 . S
C867 C866 1.327 . S
C867 C871 1.429 . S
C868 C851 1.574 . S
C868 H862 0.949 . S
C868 C872 1.368 . S
C869 C850 1.429 . S
C869 C863 1.429 . S
C869 C870 1.523 . S
C870 C851 1.368 . S
C870 C864 1.368 . S
C870 C869 1.523 . S
C871 C855 1.429 . S
C871 C867 1.429 . S
C871 C872 1.523 . S
C872 C856 1.368 . S
C872 C868 1.368 . S
C872 C871 1.523 . S
H873 C848 0.950 . S
H874 C850 0.950 . S
H875 C851 0.949 . S
H876 C853 0.950 . S
H877 C855 0.950 . S
C878 C879 1.349 . S
C878 C880 1.327 . S
C878 H903 0.950 . S
C879 C878 1.349 . S
C879 C895 1.349 . S
C880 C878 1.327 . S
C880 C899 1.429 . S
C880 H904 0.950 . S
C881 C898 1.574 . S
C881 C900 1.368 . S
C881 H905 0.949 . S
H882 C886 0.949 . S
C883 C884 1.349 . S
C883 C885 1.327 . S
C883 H906 0.950 . S
C884 C883 1.349 . S
C884 C896 1.349 . S
C885 C883 1.327 . S
C885 C901 1.429 . S
C885 H907 0.950 . S
C886 H882 0.949 . S
C886 C894 1.574 . S
C886 C902 1.368 . S
H887 C895 0.950 . S
H888 C893 0.950 . S
H889 C894 0.949 . S
H890 C896 0.950 . S
H891 C897 0.950 . S
H892 C898 0.949 . S
C893 H888 0.950 . S
C893 C895 1.327 . S
C893 C899 1.429 . S
C894 C886 1.574 . S
C894 H889 0.949 . S
C894 C900 1.368 . S
C895 C879 1.349 . S
C895 H887 0.950 . S
C895 C893 1.327 . S
C896 C884 1.349 . S
C896 H890 0.950 . S
C896 C897 1.327 . S
C897 H891 0.950 . S
C897 C896 1.327 . S
C897 C901 1.429 . S
C898 C881 1.574 . S
C898 H892 0.949 . S
C898 C902 1.368 . S
C899 C880 1.429 . S
C899 C893 1.429 . S
C899 C900 1.523 . S
C900 C881 1.368 . S
C900 C894 1.368 . S
C900 C899 1.523 . S
C901 C885 1.429 . S
C901 C897 1.429 . S
C901 C902 1.523 . S
C902 C886 1.368 . S
C902 C898 1.368 . S
C902 C901 1.523 . S
H903 C878 0.950 . S
H904 C880 0.950 . S
H905 C881 0.949 . S
H906 C883 0.950 . S
H907 C885 0.950 . S
C908 C909 1.349 . S
C908 C910 1.327 . S
C908 H933 0.950 . S
C909 C908 1.349 . S
C909 C925 1.349 . S
C910 C908 1.327 . S
C910 C929 1.429 . S
C910 H934 0.950 . S
C911 C928 1.574 . S
C911 C930 1.368 . S
C911 H935 0.949 . S
H912 C916 0.949 . S
C913 C914 1.349 . S
C913 C915 1.327 . S
C913 H936 0.950 . S
C914 C913 1.349 . S
C914 C926 1.349 . S
C915 C913 1.327 . S
C915 C931 1.429 . S
C915 H937 0.950 . S
C916 H912 0.949 . S
C916 C924 1.574 . S
C916 C932 1.368 . S
H917 C925 0.950 . S
H918 C923 0.950 . S
H919 C924 0.949 . S
H920 C926 0.950 . S
H921 C927 0.950 . S
H922 C928 0.949 . S
C923 H918 0.950 . S
C923 C925 1.327 . S
C923 C929 1.429 . S
C924 C916 1.574 . S
C924 H919 0.949 . S
C924 C930 1.368 . S
C925 C909 1.349 . S
C925 H917 0.950 . S
C925 C923 1.327 . S
C926 C914 1.349 . S
C926 H920 0.950 . S
C926 C927 1.327 . S
C927 H921 0.950 . S
C927 C926 1.327 . S
C927 C931 1.429 . S
C928 C911 1.574 . S
C928 H922 0.949 . S
C928 C932 1.368 . S
C929 C910 1.429 . S
C929 C923 1.429 . S
C929 C930 1.523 . S
C930 C911 1.368 . S
C930 C924 1.368 . S
C930 C929 1.523 . S
C931 C915 1.429 . S
C931 C927 1.429 . S
C931 C932 1.523 . S
C932 C916 1.368 . S
C932 C928 1.368 . S
C932 C931 1.523 . S
H933 C908 0.950 . S
H934 C910 0.950 . S
H935 C911 0.949 . S
H936 C913 0.950 . S
H937 C915 0.950 . S
C938 C939 1.349 . S
C938 C940 1.327 . S
C938 H963 0.950 . S
C939 C938 1.349 . S
C939 C955 1.349 . S
C940 C938 1.327 . S
C940 C959 1.429 . S
C940 H964 0.950 . S
C941 C958 1.574 . S
C941 C960 1.368 . S
C941 H965 0.949 . S
H942 C946 0.949 . S
C943 C944 1.349 . S
C943 C945 1.327 . S
C943 H966 0.950 . S
C944 C943 1.349 . S
C944 C956 1.349 . S
C945 C943 1.327 . S
C945 C961 1.429 . S
C945 H967 0.950 . S
C946 H942 0.949 . S
C946 C954 1.574 . S
C946 C962 1.368 . S
H947 C955 0.950 . S
H948 C953 0.950 . S
H949 C954 0.949 . S
H950 C956 0.950 . S
H951 C957 0.950 . S
H952 C958 0.949 . S
C953 H948 0.950 . S
C953 C955 1.327 . S
C953 C959 1.429 . S
C954 C946 1.574 . S
C954 H949 0.949 . S
C954 C960 1.368 . S
C955 C939 1.349 . S
C955 H947 0.950 . S
C955 C953 1.327 . S
C956 C944 1.349 . S
C956 H950 0.950 . S
C956 C957 1.327 . S
C957 H951 0.950 . S
C957 C956 1.327 . S
C957 C961 1.429 . S
C958 C941 1.574 . S
C958 H952 0.949 . S
C958 C962 1.368 . S
C959 C940 1.429 . S
C959 C953 1.429 . S
C959 C960 1.523 . S
C960 C941 1.368 . S
C960 C954 1.368 . S
C960 C959 1.523 . S
C961 C945 1.429 . S
C961 C957 1.429 . S
C961 C962 1.523 . S
C962 C946 1.368 . S
C962 C958 1.368 . S
C962 C961 1.523 . S
H963 C938 0.950 . S
H964 C940 0.950 . S
H965 C941 0.949 . S
H966 C943 0.950 . S
H967 C945 0.950 . S
C249 C5 0.979 . S
C254 C105 1.200 . S
C279 C18 1.095 . S
C284 C145 1.139 . S
C314 C170 2.174 . S
C309 C30 2.205 . S
C339 C41 2.049 . S
C344 C210 1.999 . S
C374 C141 1.878 . S
C369 C7 1.750 . S
C404 C101 1.906 . S
C399 C16 1.816 . S
C434 C232 1.648 . S
C429 C29 1.610 . S
C464 C192 1.123 . S
C459 C38 1.010 . S
C489 C8 1.202 . S
C494 C234 1.247 . S
C524 C151 2.353 . S
C519 C27 2.116 . S
C549 C40 2.230 . S
C554 C111 2.204 . S
C579 C19 1.055 . S
C584 C194 1.048 . S
C614 C114 1.165 . S
C609 C51 1.049 . S
C639 C62 1.454 . S
C644 C154 1.442 . S
C669 C74 2.307 . S
C674 C191 2.284 . S
C699 C84 2.028 . S
C704 C231 2.084 . S
C729 C49 1.734 . S
C734 C152 2.177 1_556 S
C764 C112 1.815 . S
C759 C63 1.803 . S
C794 C221 1.479 . S
C789 C71 1.303 . S
C824 C181 1.320 . S
C819 C85 1.327 . S
C849 C52 1.245 . S
C854 C225 1.287 . S
C884 C130 2.432 . S
C879 C73 2.421 . S
C914 C90 1.703 . S
C909 C82 1.507 . S
C939 C60 1.177 . S
C944 C185 1.251 . S
