# Generated by pormake.
# Topology iac, (4,6)-cn, num edge types: 1
# Building blocks:
#     Node 0, Type 0, BuildingBlock: NAHDIM_clean_sbu_0, # of connection points: 4
#     Node 1, Type 0, BuildingBlock: NAHDIM_clean_sbu_0, # of connection points: 4
#     Node 2, Type 0, BuildingBlock: NAHDIM_clean_sbu_0, # of connection points: 4
#     Node 3, Type 0, BuildingBlock: NAHDIM_clean_sbu_0, # of connection points: 4
#     Node 4, Type 0, BuildingBlock: NAHDIM_clean_sbu_0, # of connection points: 4
#     Node 5, Type 0, BuildingBlock: NAHDIM_clean_sbu_0, # of connection points: 4
#     Node 6, Type 0, BuildingBlock: NAHDIM_clean_sbu_0, # of connection points: 4
#     Node 7, Type 0, BuildingBlock: NAHDIM_clean_sbu_0, # of connection points: 4
#     Node 8, Type 0, BuildingBlock: NAHDIM_clean_sbu_0, # of connection points: 4
#     Node 9, Type 0, BuildingBlock: NAHDIM_clean_sbu_0, # of connection points: 4
#     Node 10, Type 0, BuildingBlock: NAHDIM_clean_sbu_0, # of connection points: 4
#     Node 11, Type 0, BuildingBlock: NAHDIM_clean_sbu_0, # of connection points: 4
#     Node 12, Type 0, BuildingBlock: NAHDIM_clean_sbu_0, # of connection points: 4
#     Node 13, Type 0, BuildingBlock: NAHDIM_clean_sbu_0, # of connection points: 4
#     Node 14, Type 0, BuildingBlock: NAHDIM_clean_sbu_0, # of connection points: 4
#     Node 15, Type 0, BuildingBlock: NAHDIM_clean_sbu_0, # of connection points: 4
#     Node 16, Type 0, BuildingBlock: NAHDIM_clean_sbu_0, # of connection points: 4
#     Node 17, Type 0, BuildingBlock: NAHDIM_clean_sbu_0, # of connection points: 4
#     Node 18, Type 0, BuildingBlock: NAHDIM_clean_sbu_0, # of connection points: 4
#     Node 19, Type 0, BuildingBlock: NAHDIM_clean_sbu_0, # of connection points: 4
#     Node 20, Type 0, BuildingBlock: NAHDIM_clean_sbu_0, # of connection points: 4
#     Node 21, Type 0, BuildingBlock: NAHDIM_clean_sbu_0, # of connection points: 4
#     Node 22, Type 0, BuildingBlock: NAHDIM_clean_sbu_0, # of connection points: 4
#     Node 23, Type 0, BuildingBlock: NAHDIM_clean_sbu_0, # of connection points: 4
#     Node 24, Type 1, BuildingBlock: FUNLAD_clean_sbu_0, # of connection points: 6
#     Node 25, Type 1, BuildingBlock: FUNLAD_clean_sbu_0, # of connection points: 6
#     Node 26, Type 1, BuildingBlock: FUNLAD_clean_sbu_0, # of connection points: 6
#     Node 27, Type 1, BuildingBlock: FUNLAD_clean_sbu_0, # of connection points: 6
#     Node 28, Type 1, BuildingBlock: FUNLAD_clean_sbu_0, # of connection points: 6
#     Node 29, Type 1, BuildingBlock: FUNLAD_clean_sbu_0, # of connection points: 6
#     Node 30, Type 1, BuildingBlock: FUNLAD_clean_sbu_0, # of connection points: 6
#     Node 31, Type 1, BuildingBlock: FUNLAD_clean_sbu_0, # of connection points: 6
#     Node 32, Type 1, BuildingBlock: FUNLAD_clean_sbu_0, # of connection points: 6
#     Node 33, Type 1, BuildingBlock: FUNLAD_clean_sbu_0, # of connection points: 6
#     Node 34, Type 1, BuildingBlock: FUNLAD_clean_sbu_0, # of connection points: 6
#     Node 35, Type 1, BuildingBlock: FUNLAD_clean_sbu_0, # of connection points: 6
#     Node 36, Type 1, BuildingBlock: FUNLAD_clean_sbu_0, # of connection points: 6
#     Node 37, Type 1, BuildingBlock: FUNLAD_clean_sbu_0, # of connection points: 6
#     Node 38, Type 1, BuildingBlock: FUNLAD_clean_sbu_0, # of connection points: 6
#     Node 39, Type 1, BuildingBlock: FUNLAD_clean_sbu_0, # of connection points: 6
#     Edge 40, Type (0, 1), BuildingBlock: KIFKEQ_clean_linker_1, # of connection points: 2
#     Edge 41, Type (0, 1), BuildingBlock: KIFKEQ_clean_linker_1, # of connection points: 2
#     Edge 42, Type (0, 1), BuildingBlock: KIFKEQ_clean_linker_1, # of connection points: 2
#     Edge 43, Type (0, 1), BuildingBlock: KIFKEQ_clean_linker_1, # of connection points: 2
#     Edge 44, Type (0, 1), BuildingBlock: KIFKEQ_clean_linker_1, # of connection points: 2
#     Edge 45, Type (0, 1), BuildingBlock: KIFKEQ_clean_linker_1, # of connection points: 2
#     Edge 46, Type (0, 1), BuildingBlock: KIFKEQ_clean_linker_1, # of connection points: 2
#     Edge 47, Type (0, 1), BuildingBlock: KIFKEQ_clean_linker_1, # of connection points: 2
#     Edge 48, Type (0, 1), BuildingBlock: KIFKEQ_clean_linker_1, # of connection points: 2
#     Edge 49, Type (0, 1), BuildingBlock: KIFKEQ_clean_linker_1, # of connection points: 2
#     Edge 50, Type (0, 1), BuildingBlock: KIFKEQ_clean_linker_1, # of connection points: 2
#     Edge 51, Type (0, 1), BuildingBlock: KIFKEQ_clean_linker_1, # of connection points: 2
#     Edge 52, Type (0, 1), BuildingBlock: KIFKEQ_clean_linker_1, # of connection points: 2
#     Edge 53, Type (0, 1), BuildingBlock: KIFKEQ_clean_linker_1, # of connection points: 2
#     Edge 54, Type (0, 1), BuildingBlock: KIFKEQ_clean_linker_1, # of connection points: 2
#     Edge 55, Type (0, 1), BuildingBlock: KIFKEQ_clean_linker_1, # of connection points: 2
#     Edge 56, Type (0, 1), BuildingBlock: KIFKEQ_clean_linker_1, # of connection points: 2
#     Edge 57, Type (0, 1), BuildingBlock: KIFKEQ_clean_linker_1, # of connection points: 2
#     Edge 58, Type (0, 1), BuildingBlock: KIFKEQ_clean_linker_1, # of connection points: 2
#     Edge 59, Type (0, 1), BuildingBlock: KIFKEQ_clean_linker_1, # of connection points: 2
#     Edge 60, Type (0, 1), BuildingBlock: KIFKEQ_clean_linker_1, # of connection points: 2
#     Edge 61, Type (0, 1), BuildingBlock: KIFKEQ_clean_linker_1, # of connection points: 2
#     Edge 62, Type (0, 1), BuildingBlock: KIFKEQ_clean_linker_1, # of connection points: 2
#     Edge 63, Type (0, 1), BuildingBlock: KIFKEQ_clean_linker_1, # of connection points: 2
#     Edge 64, Type (0, 1), BuildingBlock: KIFKEQ_clean_linker_1, # of connection points: 2
#     Edge 65, Type (0, 1), BuildingBlock: KIFKEQ_clean_linker_1, # of connection points: 2
#     Edge 66, Type (0, 1), BuildingBlock: KIFKEQ_clean_linker_1, # of connection points: 2
#     Edge 67, Type (0, 1), BuildingBlock: KIFKEQ_clean_linker_1, # of connection points: 2
#     Edge 68, Type (0, 1), BuildingBlock: KIFKEQ_clean_linker_1, # of connection points: 2
#     Edge 69, Type (0, 1), BuildingBlock: KIFKEQ_clean_linker_1, # of connection points: 2
#     Edge 70, Type (0, 1), BuildingBlock: KIFKEQ_clean_linker_1, # of connection points: 2
#     Edge 71, Type (0, 1), BuildingBlock: KIFKEQ_clean_linker_1, # of connection points: 2
#     Edge 72, Type (0, 1), BuildingBlock: KIFKEQ_clean_linker_1, # of connection points: 2
#     Edge 73, Type (0, 1), BuildingBlock: KIFKEQ_clean_linker_1, # of connection points: 2
#     Edge 74, Type (0, 1), BuildingBlock: KIFKEQ_clean_linker_1, # of connection points: 2
#     Edge 75, Type (0, 1), BuildingBlock: KIFKEQ_clean_linker_1, # of connection points: 2
#     Edge 76, Type (0, 1), BuildingBlock: KIFKEQ_clean_linker_1, # of connection points: 2
#     Edge 77, Type (0, 1), BuildingBlock: KIFKEQ_clean_linker_1, # of connection points: 2
#     Edge 78, Type (0, 1), BuildingBlock: KIFKEQ_clean_linker_1, # of connection points: 2
#     Edge 79, Type (0, 1), BuildingBlock: KIFKEQ_clean_linker_1, # of connection points: 2
#     Edge 80, Type (0, 1), BuildingBlock: KIFKEQ_clean_linker_1, # of connection points: 2
#     Edge 81, Type (0, 1), BuildingBlock: KIFKEQ_clean_linker_1, # of connection points: 2
#     Edge 82, Type (0, 1), BuildingBlock: KIFKEQ_clean_linker_1, # of connection points: 2
#     Edge 83, Type (0, 1), BuildingBlock: KIFKEQ_clean_linker_1, # of connection points: 2
#     Edge 84, Type (0, 1), BuildingBlock: KIFKEQ_clean_linker_1, # of connection points: 2
#     Edge 85, Type (0, 1), BuildingBlock: KIFKEQ_clean_linker_1, # of connection points: 2
#     Edge 86, Type (0, 1), BuildingBlock: KIFKEQ_clean_linker_1, # of connection points: 2
#     Edge 87, Type (0, 1), BuildingBlock: KIFKEQ_clean_linker_1, # of connection points: 2
#     Edge 88, Type (0, 1), BuildingBlock: KIFKEQ_clean_linker_1, # of connection points: 2
#     Edge 89, Type (0, 1), BuildingBlock: KIFKEQ_clean_linker_1, # of connection points: 2
#     Edge 90, Type (0, 1), BuildingBlock: KIFKEQ_clean_linker_1, # of connection points: 2
#     Edge 91, Type (0, 1), BuildingBlock: KIFKEQ_clean_linker_1, # of connection points: 2
#     Edge 92, Type (0, 1), BuildingBlock: KIFKEQ_clean_linker_1, # of connection points: 2
#     Edge 93, Type (0, 1), BuildingBlock: KIFKEQ_clean_linker_1, # of connection points: 2
#     Edge 94, Type (0, 1), BuildingBlock: KIFKEQ_clean_linker_1, # of connection points: 2
#     Edge 95, Type (0, 1), BuildingBlock: KIFKEQ_clean_linker_1, # of connection points: 2
#     Edge 96, Type (0, 1), BuildingBlock: KIFKEQ_clean_linker_1, # of connection points: 2
#     Edge 97, Type (0, 1), BuildingBlock: KIFKEQ_clean_linker_1, # of connection points: 2
#     Edge 98, Type (0, 1), BuildingBlock: KIFKEQ_clean_linker_1, # of connection points: 2
#     Edge 99, Type (0, 1), BuildingBlock: KIFKEQ_clean_linker_1, # of connection points: 2
#     Edge 100, Type (0, 1), BuildingBlock: KIFKEQ_clean_linker_1, # of connection points: 2
#     Edge 101, Type (0, 1), BuildingBlock: KIFKEQ_clean_linker_1, # of connection points: 2
#     Edge 102, Type (0, 1), BuildingBlock: KIFKEQ_clean_linker_1, # of connection points: 2
#     Edge 103, Type (0, 1), BuildingBlock: KIFKEQ_clean_linker_1, # of connection points: 2
#     Edge 104, Type (0, 1), BuildingBlock: KIFKEQ_clean_linker_1, # of connection points: 2
#     Edge 105, Type (0, 1), BuildingBlock: KIFKEQ_clean_linker_1, # of connection points: 2
#     Edge 106, Type (0, 1), BuildingBlock: KIFKEQ_clean_linker_1, # of connection points: 2
#     Edge 107, Type (0, 1), BuildingBlock: KIFKEQ_clean_linker_1, # of connection points: 2
#     Edge 108, Type (0, 1), BuildingBlock: KIFKEQ_clean_linker_1, # of connection points: 2
#     Edge 109, Type (0, 1), BuildingBlock: KIFKEQ_clean_linker_1, # of connection points: 2
#     Edge 110, Type (0, 1), BuildingBlock: KIFKEQ_clean_linker_1, # of connection points: 2
#     Edge 111, Type (0, 1), BuildingBlock: KIFKEQ_clean_linker_1, # of connection points: 2
#     Edge 112, Type (0, 1), BuildingBlock: KIFKEQ_clean_linker_1, # of connection points: 2
#     Edge 113, Type (0, 1), BuildingBlock: KIFKEQ_clean_linker_1, # of connection points: 2
#     Edge 114, Type (0, 1), BuildingBlock: KIFKEQ_clean_linker_1, # of connection points: 2
#     Edge 115, Type (0, 1), BuildingBlock: KIFKEQ_clean_linker_1, # of connection points: 2
#     Edge 116, Type (0, 1), BuildingBlock: KIFKEQ_clean_linker_1, # of connection points: 2
#     Edge 117, Type (0, 1), BuildingBlock: KIFKEQ_clean_linker_1, # of connection points: 2
#     Edge 118, Type (0, 1), BuildingBlock: KIFKEQ_clean_linker_1, # of connection points: 2
#     Edge 119, Type (0, 1), BuildingBlock: KIFKEQ_clean_linker_1, # of connection points: 2
#     Edge 120, Type (0, 1), BuildingBlock: KIFKEQ_clean_linker_1, # of connection points: 2
#     Edge 121, Type (0, 1), BuildingBlock: KIFKEQ_clean_linker_1, # of connection points: 2
#     Edge 122, Type (0, 1), BuildingBlock: KIFKEQ_clean_linker_1, # of connection points: 2
#     Edge 123, Type (0, 1), BuildingBlock: KIFKEQ_clean_linker_1, # of connection points: 2
#     Edge 124, Type (0, 1), BuildingBlock: KIFKEQ_clean_linker_1, # of connection points: 2
#     Edge 125, Type (0, 1), BuildingBlock: KIFKEQ_clean_linker_1, # of connection points: 2
#     Edge 126, Type (0, 1), BuildingBlock: KIFKEQ_clean_linker_1, # of connection points: 2
#     Edge 127, Type (0, 1), BuildingBlock: KIFKEQ_clean_linker_1, # of connection points: 2
#     Edge 128, Type (0, 1), BuildingBlock: KIFKEQ_clean_linker_1, # of connection points: 2
#     Edge 129, Type (0, 1), BuildingBlock: KIFKEQ_clean_linker_1, # of connection points: 2
#     Edge 130, Type (0, 1), BuildingBlock: KIFKEQ_clean_linker_1, # of connection points: 2
#     Edge 131, Type (0, 1), BuildingBlock: KIFKEQ_clean_linker_1, # of connection points: 2
#     Edge 132, Type (0, 1), BuildingBlock: KIFKEQ_clean_linker_1, # of connection points: 2
#     Edge 133, Type (0, 1), BuildingBlock: KIFKEQ_clean_linker_1, # of connection points: 2
#     Edge 134, Type (0, 1), BuildingBlock: KIFKEQ_clean_linker_1, # of connection points: 2
#     Edge 135, Type (0, 1), BuildingBlock: KIFKEQ_clean_linker_1, # of connection points: 2
# Relax obj value: 0.336
# Max RMSD: 0.280
# Mean RMSD: 0.169
data_MOF--net-iac--node1-NAHDIM_clean_sbu_0--node2-FUNLAD_clean_sbu_0--edge1-KIFKEQ_clean_linker_1
_symmetry_space_group_name_H-M    P1
_symmetry_Int_Tables_number       1
_symmetry_cell_setting            triclinic
loop_
_symmetry_equiv_pos_as_xyz
'x, y, z'
_cell_length_a     57.085693
_cell_length_b     53.896658
_cell_length_c     58.190513
_cell_angle_alpha  89.907679
_cell_angle_beta   92.575623
_cell_angle_gamma 90.58004
loop_
_atom_site_label
_atom_site_type_symbol
_atom_site_fract_x
_atom_site_fract_y
_atom_site_fract_z
_atom_type_partial_charge
C0 C 0.98728 0.17841 0.16733 0.0
O1 O 0.98669 0.17543 0.1449 0.0
O2 O 0.03402 0.19305 0.13065 0.0
Zn3 Zn 0.02582 0.21147 0.15873 0.0
O4 O 0.01254 0.24343 0.14703 0.0
C5 C 0.07481 0.21386 0.17586 0.0
O6 O 0.07925 0.19775 0.15975 0.0
O7 O 0.00263 0.19275 0.17678 0.0
C8 C 0.01635 0.26351 0.15801 0.0
O9 O 0.02592 0.26261 0.17894 0.0
C10 C 0.04567 0.2038 0.11532 0.0
O11 O 0.05427 0.22619 0.11916 0.0
O12 O 0.05389 0.22049 0.17858 0.0
C13 C 0.08884 0.77141 0.36635 0.0
O14 O 0.08906 0.78492 0.38513 0.0
O15 O 0.0442 0.72508 0.40072 0.0
Zn16 Zn 0.04253 0.7576 0.3823 0.0
O17 O 0.04428 0.7884 0.4034 0.0
C18 C 0.99295 0.74863 0.372 0.0
O19 O 0.99491 0.73869 0.39261 0.0
O20 O 0.07065 0.75829 0.36113 0.0
C21 C 0.02695 0.79721 0.41371 0.0
O22 O 0.00649 0.78595 0.41146 0.0
C23 C 0.03965 0.72277 0.42186 0.0
O24 O 0.03402 0.74255 0.43347 0.0
O25 O 0.01121 0.75782 0.36326 0.0
C26 C 0.52196 0.66462 0.69211 0.0
O27 O 0.52563 0.64833 0.67592 0.0
O28 O 0.56858 0.6663 0.65466 0.0
Zn29 Zn 0.57081 0.67629 0.68757 0.0
O30 O 0.58467 0.71075 0.68719 0.0
C31 C 0.604 0.65537 0.72175 0.0
O32 O 0.61515 0.63735 0.7326 0.0
O33 O 0.53872 0.6785 0.69953 0.0
C34 C 0.60092 0.71635 0.67382 0.0
O35 O 0.61115 0.69854 0.66273 0.0
C36 C 0.55957 0.68114 0.63982 0.0
O37 O 0.55066 0.70214 0.6466 0.0
O38 O 0.58837 0.65027 0.70628 0.0
C39 C 0.59075 0.24816 0.86999 0.0
O40 O 0.5939 0.24297 0.89198 0.0
O41 O 0.54276 0.21687 0.90234 0.0
Zn42 Zn 0.54161 0.24923 0.88297 0.0
O43 O 0.54318 0.28051 0.90342 0.0
C44 C 0.49171 0.2411 0.87105 0.0
O45 O 0.49243 0.23098 0.89161 0.0
O46 O 0.56984 0.25117 0.86184 0.0
C47 C 0.52538 0.28996 0.91246 0.0
O48 O 0.50488 0.27894 0.90939 0.0
C49 C 0.53676 0.21559 0.92319 0.0
O50 O 0.53023 0.23595 0.93336 0.0
O51 O 0.51064 0.24978 0.86321 0.0
C52 C 0.18468 0.98251 0.23025 0.0
O53 O 0.16267 0.98083 0.22272 0.0
O54 O 0.15381 0.03332 0.20668 0.0
Zn55 Zn 0.16963 0.03105 0.2382 0.0
O56 O 0.14712 0.02479 0.26322 0.0
C57 C 0.17384 0.0802 0.2546 0.0
O58 O 0.15095 0.07736 0.25435 0.0
O59 O 0.19242 0.00313 0.23809 0.0
C60 C 0.15729 0.02541 0.28311 0.0
O61 O 0.18026 0.02762 0.28471 0.0
C62 C 0.13405 0.04326 0.20228 0.0
O63 O 0.12264 0.05303 0.21909 0.0
O64 O 0.18628 0.06286 0.24699 0.0
C65 C 0.2468 0.91872 0.55381 0.0
O66 O 0.24636 0.89434 0.55446 0.0
O67 O 0.28879 0.88104 0.57969 0.0
Zn68 Zn 0.29406 0.9063 0.55473 0.0
O69 O 0.29468 0.8892 0.52426 0.0
C70 C 0.34278 0.90973 0.56704 0.0
O71 O 0.33855 0.88684 0.57356 0.0
O72 O 0.26658 0.92981 0.55369 0.0
C73 C 0.30372 0.90044 0.50757 0.0
O74 O 0.31163 0.92324 0.51054 0.0
C75 C 0.28964 0.85775 0.57638 0.0
O76 O 0.29506 0.84937 0.55613 0.0
O77 O 0.32578 0.92299 0.55949 0.0
C78 C 0.38687 0.0416 0.73769 0.0
O79 O 0.40842 0.04263 0.73069 0.0
O80 O 0.42197 0.99053 0.72343 0.0
Zn81 Zn 0.39763 0.99021 0.74753 0.0
O82 O 0.41384 0.98692 0.77876 0.0
C83 C 0.3784 0.94214 0.73281 0.0
O84 O 0.39762 0.94011 0.72138 0.0
O85 O 0.37904 0.0214 0.74572 0.0
C86 C 0.41732 0.96552 0.78741 0.0
O87 O 0.40929 0.94579 0.77632 0.0
C88 C 0.44371 0.99164 0.72927 0.0
O89 O 0.45028 0.99186 0.75118 0.0
O90 O 0.37484 0.96193 0.74383 0.0
C91 C 0.32078 0.04414 0.04526 0.0
O92 O 0.30219 0.03986 0.03169 0.0
O93 O 0.30453 0.11824 0.07055 0.0
Zn94 Zn 0.3054 0.09495 0.04397 0.0
O95 O 0.31704 0.11262 0.01628 0.0
C96 C 0.26073 0.09635 0.02133 0.0
O97 O 0.26575 0.12012 0.01989 0.0
O98 O 0.32539 0.06601 0.05236 0.0
C99 C 0.31493 0.10099 -0.00269 0.0
O100 O 0.30946 0.07727 -0.00241 0.0
C101 C 0.30278 0.14152 0.06768 0.0
O102 O 0.30045 0.1506 0.04675 0.0
O103 O 0.274 0.08228 0.03343 0.0
C104 C 0.74595 0.42466 0.03619 0.0
O105 O 0.7564 0.41994 0.01706 0.0
O106 O 0.78258 0.37135 0.08204 0.0
Zn107 Zn 0.7849 0.39711 0.05703 0.0
O108 O 0.78987 0.37999 0.02673 0.0
C109 C 0.8328 0.41019 0.06597 0.0
O110 O 0.83418 0.38608 0.06901 0.0
O111 O 0.75504 0.41699 0.0552 0.0
C112 C 0.80145 0.39137 0.01169 0.0
O113 O 0.809 0.41406 0.01598 0.0
C114 C 0.76399 0.3582 0.08258 0.0
O115 O 0.7471 0.36184 0.06688 0.0
O116 O 0.81272 0.41984 0.06266 0.0
C117 C 0.87886 0.53434 0.22801 0.0
O118 O 0.90095 0.53615 0.22279 0.0
O119 O 0.91182 0.48496 0.20609 0.0
Zn120 Zn 0.89067 0.48305 0.23293 0.0
O121 O 0.90957 0.48246 0.2627 0.0
C122 C 0.87485 0.43154 0.22589 0.0
O123 O 0.89424 0.42851 0.21492 0.0
O124 O 0.87037 0.51319 0.23282 0.0
C125 C 0.9235 0.46485 0.26779 0.0
O126 O 0.92624 0.44698 0.25286 0.0
C127 C 0.93273 0.49313 0.20917 0.0
O128 O 0.94063 0.49889 0.23004 0.0
O129 O 0.86989 0.4529 0.2333 0.0
C130 C 0.85041 0.60354 0.59241 0.0
O131 O 0.86156 0.60494 0.61262 0.0
O132 O 0.79127 0.64648 0.56797 0.0
Zn133 Zn 0.80732 0.61414 0.56277 0.0
O134 O 0.82193 0.61815 0.53208 0.0
C135 C 0.76623 0.58717 0.57463 0.0
O136 O 0.76617 0.60397 0.59098 0.0
O137 O 0.82916 0.61012 0.59058 0.0
C138 C 0.81629 0.60355 0.51555 0.0
O139 O 0.8049 0.58291 0.51992 0.0
C140 C 0.80474 0.66527 0.57061 0.0
O141 O 0.82744 0.66236 0.56907 0.0
O142 O 0.78293 0.58719 0.56097 0.0
C143 C 0.69468 0.49847 0.72389 0.0
O144 O 0.67785 0.50055 0.70789 0.0
O145 O 0.64995 0.54393 0.7162 0.0
Zn146 Zn 0.67566 0.54449 0.74121 0.0
O147 O 0.65994 0.54224 0.77131 0.0
C148 C 0.6839 0.59609 0.73337 0.0
O149 O 0.66304 0.59406 0.72304 0.0
O150 O 0.69734 0.51526 0.73913 0.0
C151 C 0.64416 0.55772 0.77589 0.0
O152 O 0.63855 0.57511 0.76086 0.0
C153 C 0.63286 0.52883 0.71799 0.0
O154 O 0.63297 0.51334 0.73545 0.0
O155 O 0.69378 0.57676 0.74148 0.0
C156 C 0.01326 0.78968 0.84262 0.0
O157 O 0.00134 0.76905 0.84565 0.0
O158 O 0.97654 0.77549 0.88688 0.0
Zn159 Zn 0.97837 0.80861 0.87121 0.0
O160 O 0.98268 0.83372 0.8965 0.0
C161 C 0.93053 0.82112 0.86118 0.0
O162 O 0.93074 0.82351 0.88366 0.0
O163 O 0.00644 0.8096 0.85172 0.0
C164 C 0.97583 0.85603 0.89631 0.0
O165 O 0.96494 0.86501 0.87779 0.0
C166 C 0.99121 0.77212 0.90363 0.0
O167 O 0.00647 0.78981 0.90906 0.0
O168 O 0.94911 0.8146 0.85173 0.0
C169 C 0.98158 0.26981 0.66563 0.0
O170 O 0.9818 0.2749 0.64355 0.0
O171 O 0.02911 0.22452 0.6394 0.0
Zn172 Zn 0.02968 0.25813 0.65611 0.0
O173 O 0.02894 0.28682 0.63288 0.0
C174 C 0.07933 0.25299 0.66593 0.0
O175 O 0.07754 0.24727 0.64397 0.0
O176 O 0.00034 0.26163 0.67563 0.0
C177 C 0.03355 0.30886 0.63967 0.0
O178 O 0.03997 0.31245 0.66138 0.0
C179 C 0.02795 0.2219 0.6176 0.0
O180 O 0.0257 0.2417 0.60453 0.0
O181 O 0.06075 0.25919 0.67583 0.0
C182 C 0.51986 0.28742 0.37715 0.0
O183 O 0.5022 0.27437 0.36812 0.0
O184 O 0.49937 0.24713 0.42825 0.0
Zn185 Zn 0.49361 0.28176 0.4175 0.0
O186 O 0.49178 0.30346 0.44533 0.0
C187 C 0.44549 0.27124 0.40549 0.0
O188 O 0.44696 0.25838 0.4247 0.0
O189 O 0.52 0.29308 0.39833 0.0
C190 C 0.47414 0.3167 0.44933 0.0
O191 O 0.45619 0.31711 0.43441 0.0
C192 C 0.51391 0.24371 0.44506 0.0
O193 O 0.52523 0.26289 0.45422 0.0
O194 O 0.4635 0.28272 0.39885 0.0
C195 C 0.48373 0.76116 0.16688 0.0
O196 O 0.485 0.76825 0.14535 0.0
O197 O 0.53161 0.71572 0.14035 0.0
Zn198 Zn 0.53193 0.74802 0.15893 0.0
O199 O 0.53408 0.77807 0.13747 0.0
C200 C 0.58118 0.75083 0.17297 0.0
O201 O 0.58232 0.75705 0.15121 0.0
O202 O 0.50172 0.7513 0.17682 0.0
C203 C 0.54096 0.79912 0.14523 0.0
O204 O 0.54738 0.80106 0.16713 0.0
C205 C 0.5269 0.71397 0.1188 0.0
O206 O 0.52074 0.73397 0.10718 0.0
O207 O 0.56111 0.74647 0.18093 0.0
C208 C 0.87794 0.07355 0.78016 0.0
O209 O 0.89584 0.07071 0.79488 0.0
O210 O 0.89728 0.00577 0.75205 0.0
Zn211 Zn 0.87791 0.01984 0.77663 0.0
O212 O 0.8951 0.01942 0.80721 0.0
C213 C 0.83103 0.00718 0.76379 0.0
O214 O 0.83472 0.02437 0.7483 0.0
O215 O 0.86912 0.05479 0.76971 0.0
C216 C 0.91027 0.00361 0.81384 0.0
O217 O 0.91498 0.98495 0.80036 0.0
C218 C 0.91857 0.01225 0.75034 0.0
O219 O 0.92788 0.02863 0.76484 0.0
O220 O 0.84763 0.00122 0.77797 0.0
C221 C 0.83625 0.09604 0.49384 0.0
O222 O 0.83506 0.1191 0.48654 0.0
O223 O 0.78872 0.13018 0.52493 0.0
Zn224 Zn 0.78755 0.10429 0.49968 0.0
O225 O 0.78279 0.12039 0.46852 0.0
C226 C 0.75712 0.07629 0.52716 0.0
O227 O 0.77101 0.08631 0.54327 0.0
O228 O 0.81779 0.08546 0.50061 0.0
C229 C 0.76363 0.13036 0.4617 0.0
O230 O 0.74561 0.12956 0.47498 0.0
C231 C 0.78228 0.15261 0.52277 0.0
O232 O 0.77595 0.16124 0.50236 0.0
O233 O 0.76089 0.08081 0.50616 0.0
C234 C 0.67028 0.93228 0.3151 0.0
O235 O 0.64816 0.92771 0.31901 0.0
O236 O 0.63246 0.9811 0.28453 0.0
Zn237 Zn 0.65302 0.98158 0.31343 0.0
O238 O 0.63411 0.97675 0.34145 0.0
C239 C 0.65638 0.03415 0.31271 0.0
O240 O 0.63373 0.03159 0.31506 0.0
O241 O 0.67686 0.95456 0.31191 0.0
C242 C 0.64441 0.96993 0.36018 0.0
O243 O 0.66727 0.96711 0.36092 0.0
C244 C 0.61146 0.98875 0.28362 0.0
O245 O 0.60142 0.99448 0.30276 0.0
O246 O 0.66914 0.01496 0.31336 0.0
C247 C 0.74829 0.96701 0.01816 0.0
O248 O 0.76014 0.97076 -0.00038 0.0
O249 O 0.80026 0.9239 0.0574 0.0
Zn250 Zn 0.79279 0.95167 0.03563 0.0
O251 O 0.79898 0.94221 0.00304 0.0
C252 C 0.80294 0.00434 0.04217 0.0
O253 O 0.78626 0.00824 0.02636 0.0
O254 O 0.75869 0.95837 0.03615 0.0
C255 C 0.80765 0.9217 0.99715 0.0
O256 O 0.81788 0.90755 0.01294 0.0
C257 C 0.78913 0.90342 0.0559 0.0
O258 O 0.77283 0.90034 0.03945 0.0
O259 O 0.80917 0.98235 0.04724 0.0
C260 C 0.32979 0.5895 0.98762 0.0
O261 O 0.33008 0.61339 0.98311 0.0
O262 O 0.28567 0.62169 0.02233 0.0
Zn263 Zn 0.28268 0.60199 0.99309 0.0
O264 O 0.28236 0.6253 0.96575 0.0
C265 C 0.23515 0.59696 0.00168 0.0
O266 O 0.23917 0.62071 0.0053 0.0
O267 O 0.31044 0.57919 0.99229 0.0
C268 C 0.26569 0.62632 0.95055 0.0
O269 O 0.24762 0.61122 0.95201 0.0
C270 C 0.28798 0.64512 0.02344 0.0
O271 O 0.29069 0.65793 0.00451 0.0
O272 O 0.25175 0.5836 0.9949 0.0
C273 C 0.17377 0.43825 0.80664 0.0
O274 O 0.15453 0.43453 0.81778 0.0
O275 O 0.1333 0.48647 0.76822 0.0
Zn276 Zn 0.15378 0.48641 0.79699 0.0
O277 O 0.13392 0.48422 0.82461 0.0
C278 C 0.16072 0.53851 0.79236 0.0
O279 O 0.13774 0.5385 0.7929 0.0
O280 O 0.17683 0.45879 0.79647 0.0
C281 C 0.13521 0.49981 0.84095 0.0
O282 O 0.15094 0.51774 0.84071 0.0
C283 C 0.11162 0.49155 0.76819 0.0
O284 O 0.10141 0.49396 0.78784 0.0
O285 O 0.1717 0.51831 0.79537 0.0
C286 C 0.19949 0.41089 0.5923 0.0
O287 O 0.19021 0.39909 0.60949 0.0
O288 O 0.26789 0.4032 0.5643 0.0
Zn289 Zn 0.23996 0.42516 0.56503 0.0
O290 O 0.22257 0.42186 0.53436 0.0
C291 C 0.25215 0.47861 0.55983 0.0
O292 O 0.23784 0.47914 0.54152 0.0
O293 O 0.22164 0.4117 0.59121 0.0
C294 C 0.23417 0.42574 0.51658 0.0
O295 O 0.25598 0.43364 0.51917 0.0
C296 C 0.26711 0.38141 0.55603 0.0
O297 O 0.24744 0.37317 0.54606 0.0
O298 O 0.25364 0.45894 0.57184 0.0
C299 C 0.39277 0.57459 0.29127 0.0
O300 O 0.41237 0.57495 0.30399 0.0
O301 O 0.42222 0.51515 0.25907 0.0
Zn302 Zn 0.40257 0.52261 0.28575 0.0
O303 O 0.421 0.5232 0.31565 0.0
C304 C 0.37906 0.47631 0.27676 0.0
O305 O 0.39856 0.47106 0.26673 0.0
O306 O 0.38611 0.55467 0.28129 0.0
C307 C 0.43152 0.50448 0.32419 0.0
O308 O 0.43105 0.48347 0.31275 0.0
C309 C 0.44443 0.51404 0.25958 0.0
O310 O 0.45658 0.51975 0.27857 0.0
O311 O 0.37724 0.49702 0.2868 0.0
C312 C 0.00549 0.03625 0.96056 0.0
N313 N 0.98677 0.04887 0.028 0.0
C314 C 0.97073 0.06493 0.01875 0.0
C315 C 0.95126 0.07144 0.03095 0.0
C316 C 0.94853 0.06186 0.05319 0.0
C317 C 0.96615 0.04645 0.06276 0.0
C318 C 0.98487 0.03973 0.04964 0.0
Zn319 Zn 0.01527 0.04019 0.01003 0.0
C320 C 0.02217 0.98688 0.00433 0.0
N321 N 0.07702 0.02569 0.97494 0.0
C322 C 0.0802 0.03703 0.9544 0.0
C323 C 0.09384 0.01116 0.98499 0.0
C324 C 0.11593 0.01018 0.9759 0.0
C325 C 0.12064 0.02396 0.95598 0.0
C326 C 0.10183 0.0359 0.94429 0.0
Zn327 Zn 0.04821 0.03331 0.99263 0.0
O328 O 0.9952 0.03993 0.97909 0.0
C329 C 0.04055 0.08665 -0.00269 0.0
O330 O 0.0276 0.03357 0.96126 0.0
H331 H 0.09072 0.00179 0.00102 0.0
H332 H 0.97282 0.07242 0.00171 0.0
H333 H 0.06648 0.0483 0.94653 0.0
O334 O 0.02225 0.07803 0.00615 0.0
O335 O 0.0556 0.07185 0.98988 0.0
H336 H 0.9978 0.02704 0.05679 0.0
O337 O 0.06843 0.03292 0.0245 0.0
O338 O 0.03557 0.04016 0.04105 0.0
O339 O 0.04068 0.99514 0.99552 0.0
O340 O 0.00812 0.00196 0.0131 0.0
C341 C 0.05748 0.03666 0.04267 0.0
H342 H 0.93807 0.08299 0.02251 0.0
H343 H 0.96524 0.039 0.07998 0.0
H344 H 0.12956 0.00062 0.9858 0.0
H345 H 0.1042 0.046 0.92846 0.0
C346 C 0.32858 0.78108 0.24399 0.0
N347 N 0.26444 0.75595 0.21474 0.0
C348 C 0.27109 0.76849 0.19575 0.0
C349 C 0.26859 0.75754 0.17409 0.0
C350 C 0.25937 0.73339 0.17202 0.0
C351 C 0.25114 0.72156 0.19165 0.0
C352 C 0.2538 0.7333 0.21299 0.0
Zn353 Zn 0.27605 0.76902 0.24606 0.0
C354 C 0.297 0.72866 0.27488 0.0
N355 N 0.30449 0.79566 0.31016 0.0
C356 C 0.31525 0.81821 0.31263 0.0
C357 C 0.29831 0.78219 0.32876 0.0
C358 C 0.3017 0.79184 0.35082 0.0
C359 C 0.31131 0.81574 0.35383 0.0
C360 C 0.31887 0.82868 0.33448 0.0
Zn361 Zn 0.29284 0.78295 0.27871 0.0
O362 O 0.31025 0.77362 0.23269 0.0
C363 C 0.27221 0.8235 0.24966 0.0
O364 O 0.32686 0.78753 0.26489 0.0
H365 H 0.28961 0.76441 0.32646 0.0
H366 H 0.27979 0.78634 0.19755 0.0
H367 H 0.31993 0.82863 0.29758 0.0
O368 O 0.26696 0.80547 0.23634 0.0
O369 O 0.28336 0.81939 0.26865 0.0
H370 H 0.24867 0.72367 0.22832 0.0
O371 O 0.25876 0.77781 0.29221 0.0
O372 O 0.24203 0.76425 0.25995 0.0
O373 O 0.30221 0.74664 0.28823 0.0
O374 O 0.2855 0.73273 0.2561 0.0
C375 C 0.24049 0.76998 0.28104 0.0
H376 H 0.27536 0.76718 0.15941 0.0
H377 H 0.24371 0.703 0.19067 0.0
H378 H 0.29603 0.78106 0.36532 0.0
H379 H 0.32625 0.84721 0.33606 0.0
C380 C 0.54962 0.99055 0.59853 0.0
N381 N 0.57519 0.92439 0.57265 0.0
C382 C 0.59132 0.92441 0.59061 0.0
C383 C 0.59759 0.9023 0.60164 0.0
C384 C 0.58689 0.87997 0.59435 0.0
C385 C 0.57072 0.88034 0.57541 0.0
C386 C 0.56518 0.90287 0.56467 0.0
Zn387 Zn 0.56437 0.95792 0.55982 0.0
C388 C 0.51231 0.95973 0.55074 0.0
N389 N 0.54178 0.02891 0.53677 0.0
C390 C 0.55053 0.04967 0.54743 0.0
C391 C 0.52752 0.03033 0.51747 0.0
C392 C 0.52212 0.05334 0.50772 0.0
C393 C 0.53154 0.07504 0.51794 0.0
C394 C 0.54563 0.07304 0.53825 0.0
Zn395 Zn 0.55207 0.9952 0.5488 0.0
O396 O 0.55824 0.96956 0.59399 0.0
C397 C 0.6037 0.99436 0.55795 0.0
O398 O 0.54567 0.00594 0.58234 0.0
H399 H 0.52076 0.01356 0.50931 0.0
H400 H 0.59881 0.94173 0.59694 0.0
H401 H 0.56189 0.04808 0.56273 0.0
O402 O 0.59965 0.97163 0.56221 0.0
O403 O 0.58675 0.00852 0.55244 0.0
H404 H 0.5524 0.90327 0.55039 0.0
O405 O 0.55841 0.98398 0.51507 0.0
O406 O 0.57017 0.94682 0.52554 0.0
O407 O 0.51745 0.98195 0.54555 0.0
O408 O 0.52866 0.94493 0.55694 0.0
C409 C 0.5662 0.96284 0.5098 0.0
H410 H 0.6099 0.90282 0.61635 0.0
H411 H 0.56222 0.86342 0.56921 0.0
H412 H 0.51092 0.0541 0.49222 0.0
H413 H 0.55348 0.08927 0.54654 0.0
C414 C 0.29755 0.19882 0.75233 0.0
N415 N 0.26965 0.22375 0.81296 0.0
C416 C 0.26132 0.20008 0.8145 0.0
C417 C 0.26244 0.18767 0.83562 0.0
C418 C 0.27202 0.19991 0.85524 0.0
C419 C 0.27799 0.22513 0.85352 0.0
C420 C 0.27691 0.23666 0.8321 0.0
Zn421 Zn 0.27941 0.23782 0.78219 0.0
C422 C 0.33188 0.24934 0.78684 0.0
N423 N 0.30579 0.26727 0.72066 0.0
C424 C 0.29762 0.25653 0.70071 0.0
C425 C 0.32166 0.28626 0.72067 0.0
C426 C 0.32945 0.29561 0.69995 0.0
C427 C 0.32057 0.28554 0.679 0.0
C428 C 0.3047 0.26547 0.67963 0.0
Zn429 Zn 0.29409 0.2539 0.75077 0.0
O430 O 0.28727 0.20189 0.77098 0.0
C431 C 0.24133 0.24247 0.74641 0.0
O432 O 0.30227 0.2176 0.74012 0.0
H433 H 0.32805 0.2944 0.73676 0.0
H434 H 0.25564 0.19011 0.79909 0.0
H435 H 0.28521 0.24126 0.70112 0.0
O436 O 0.24451 0.23493 0.76708 0.0
O437 O 0.25893 0.2505 0.73576 0.0
H438 H 0.28383 0.25529 0.83061 0.0
O439 O 0.2858 0.29017 0.76159 0.0
O440 O 0.27177 0.274 0.79281 0.0
O441 O 0.32881 0.2573 0.76637 0.0
O442 O 0.31434 0.24072 0.79704 0.0
C443 C 0.27596 0.29292 0.78058 0.0
H444 H 0.25761 0.16821 0.83616 0.0
H445 H 0.28493 0.23544 0.86831 0.0
H446 H 0.34191 0.3109 0.70034 0.0
H447 H 0.29698 0.25738 0.66401 0.0
C448 C 0.08771 0.99611 0.53387 0.0
N449 N 0.05643 0.02857 0.47456 0.0
C450 C 0.07759 0.0399 0.47222 0.0
C451 C 0.08613 0.04381 0.45036 0.0
C452 C 0.07264 0.03618 0.43075 0.0
C453 C 0.05017 0.02621 0.43373 0.0
C454 C 0.04249 0.02232 0.45583 0.0
Zn455 Zn 0.04679 0.0155 0.50573 0.0
C456 C 0.03718 0.95992 0.50128 0.0
N457 N 0.02577 0.98382 0.56858 0.0
C458 C 0.03674 0.99239 0.58827 0.0
C459 C 0.00643 0.96892 0.56912 0.0
C460 C 0.99645 0.96349 0.59002 0.0
C461 C 0.00638 0.97367 0.61049 0.0
C462 C 0.02729 0.98754 0.60951 0.0
Zn463 Zn 0.03595 -0.00249 0.53794 0.0
O464 O 0.08233 0.00731 0.51515 0.0
C465 C 0.04506 0.05329 0.54218 0.0
O466 O 0.07155 0.98998 0.54717 0.0
H467 H 0.99801 0.96232 0.55324 0.0
H468 H 0.08844 0.04465 0.48732 0.0
H469 H 0.05208 0.00424 0.58741 0.0
O470 O 0.05034 0.05146 0.52121 0.0
O471 O 0.03903 0.0338 0.5529 0.0
H472 H 0.02586 0.01303 0.45797 0.0
O473 O 0.00051 0.00525 0.52857 0.0
O474 O 0.01115 0.02357 0.49703 0.0
O475 O 0.03268 0.9616 0.52243 0.0
O476 O 0.04308 0.97942 0.49056 0.0
C477 C 0.99506 0.01707 0.51024 0.0
H478 H 0.10364 0.0514 0.44897 0.0
H479 H 0.03894 0.02054 0.41915 0.0
H480 H 0.98054 0.95237 0.59003 0.0
H481 H 0.03543 0.99599 0.62477 0.0
C482 C 0.26349 0.75307 0.71495 0.0
N483 N 0.31584 0.71645 0.7536 0.0
C484 C 0.31853 0.70106 0.73543 0.0
C485 C 0.34069 0.69228 0.73065 0.0
C486 C 0.3602 0.69958 0.74466 0.0
C487 C 0.35677 0.71477 0.76376 0.0
C488 C 0.33432 0.72302 0.76795 0.0
Zn489 Zn 0.28415 0.73182 0.75849 0.0
C490 C 0.28931 0.78621 0.76776 0.0
N491 N 0.21834 0.76553 0.76836 0.0
C492 C 0.20083 0.76146 0.75213 0.0
C493 C 0.21423 0.77744 0.78834 0.0
C494 C 0.19151 0.78444 0.7932 0.0
C495 C 0.17286 0.77946 0.77719 0.0
C496 C 0.17796 0.76856 0.75609 0.0
Zn497 Zn 0.25033 0.75041 0.76361 0.0
O498 O 0.28059 0.7403 0.72292 0.0
C499 C 0.24528 0.69606 0.75408 0.0
O500 O 0.2477 0.7596 0.72832 0.0
H501 H 0.22842 0.78056 0.80098 0.0
H502 H 0.30357 0.69616 0.72423 0.0
H503 H 0.20441 0.75184 0.7364 0.0
O504 O 0.26746 0.6973 0.75341 0.0
O505 O 0.23375 0.71569 0.75724 0.0
H506 H 0.33174 0.73521 0.78234 0.0
O507 O 0.25363 0.74078 0.79915 0.0
O508 O 0.28759 0.72359 0.79389 0.0
O509 O 0.26723 0.78507 0.76966 0.0
O510 O 0.30047 0.76655 0.76374 0.0
C511 C 0.2714 0.72908 0.8072 0.0
H512 H 0.34268 0.68077 0.71563 0.0
H513 H 0.37136 0.72055 0.77512 0.0
H514 H 0.18851 0.79252 0.80982 0.0
H515 H 0.16432 0.76484 0.74298 0.0
C516 C 0.53299 0.9579 0.05122 0.0
N517 N 0.5384 0.02867 0.0793 0.0
C518 C 0.52479 0.01861 0.09558 0.0
C519 C 0.53036 0.02234 0.11881 0.0
C520 C 0.55021 0.03655 0.12556 0.0
C521 C 0.56297 0.04831 0.10841 0.0
C522 C 0.55674 0.04404 0.0852 0.0
Zn523 Zn 0.53329 0.01443 0.04693 0.0
C524 C 0.57762 0.0039 0.0249 0.0
N525 N 0.52162 0.97891 0.98238 0.0
C526 C 0.50725 0.9587 0.98017 0.0
C527 C 0.53018 0.9904 0.96367 0.0
C528 C 0.52287 0.9828 0.9416 0.0
C529 C 0.50688 0.96291 0.93874 0.0
C530 C 0.49985 0.95016 0.95841 0.0
Zn531 Zn 0.52753 0.99447 0.01388 0.0
O532 O 0.53416 0.97828 0.06216 0.0
C533 C 0.48313 0.00407 0.03614 0.0
O534 O 0.53067 0.95849 0.02941 0.0
H535 H 0.54175 0.00631 0.96582 0.0
H536 H 0.51056 0.00607 0.09068 0.0
H537 H 0.50064 0.94984 0.99528 0.0
O538 O 0.49696 0.01549 0.05022 0.0
O539 O 0.49125 0.99343 0.01883 0.0
H540 H 0.5674 0.05177 0.07199 0.0
O541 O 0.52479 0.03113 -0.00126 0.0
O542 O 0.53269 0.05037 0.0314 0.0
O543 O 0.56361 0.99514 0.00934 0.0
O544 O 0.56958 0.01294 0.04305 0.0
C545 C 0.52846 0.05133 0.00974 0.0
H546 H 0.52021 0.01248 0.13125 0.0
H547 H 0.57825 0.05967 0.11285 0.0
H548 H 0.52864 0.99344 0.92707 0.0
H549 H 0.48799 0.93438 0.95709 0.0
C550 C 0.24155 0.2437 0.29857 0.0
N551 N 0.27805 0.27413 0.24519 0.0
C552 C 0.29228 0.25419 0.2482 0.0
C553 C 0.30055 0.24186 0.22923 0.0
C554 C 0.29408 0.25014 0.207 0.0
C555 C 0.28075 0.27179 0.20441 0.0
C556 C 0.27281 0.28355 0.22389 0.0
Zn557 Zn 0.26143 0.28698 0.27285 0.0
C558 C 0.21069 0.29339 0.2618 0.0
N559 N 0.22538 0.31051 0.33122 0.0
C560 C 0.23084 0.30131 0.35254 0.0
C561 C 0.21135 0.33063 0.32827 0.0
C562 C 0.20348 0.3433 0.34728 0.0
C563 C 0.21027 0.33532 0.36956 0.0
C564 C 0.22345 0.31349 0.37205 0.0
Zn565 Zn 0.24192 0.2974 0.30344 0.0
O566 O 0.25392 0.25049 0.28209 0.0
C567 C 0.29287 0.28955 0.31421 0.0
O568 O 0.23313 0.26 0.31157 0.0
H569 H 0.20728 0.33769 0.31116 0.0
H570 H 0.29626 0.24703 0.26528 0.0
H571 H 0.24206 0.28532 0.35448 0.0
O572 O 0.29272 0.28589 0.29268 0.0
O573 O 0.27383 0.29467 0.32359 0.0
H574 H 0.26143 0.29941 0.22194 0.0
O575 O 0.25123 0.33468 0.29477 0.0
O576 O 0.26876 0.3232 0.26379 0.0
O577 O 0.21036 0.29924 0.28292 0.0
O578 O 0.22999 0.28787 0.25323 0.0
C579 C 0.26252 0.34026 0.2771 0.0
H580 H 0.31105 0.22539 0.23189 0.0
H581 H 0.27526 0.27863 0.18752 0.0
H582 H 0.19305 0.35981 0.34455 0.0
H583 H 0.22933 0.30678 0.38886 0.0
C584 C 0.58287 0.49357 0.02383 0.0
N585 N 0.54757 0.52574 0.96773 0.0
C586 C 0.56603 0.54167 0.96597 0.0
C587 C 0.57364 0.5485 0.94439 0.0
C588 C 0.56215 0.53876 0.9245 0.0
C589 C 0.54238 0.52342 0.92684 0.0
C590 C 0.53535 0.5171 0.94874 0.0
Zn591 Zn 0.5401 0.51165 -0.001 0.0
C592 C 0.53162 0.45564 0.99527 0.0
N593 N 0.52478 0.48002 0.06367 0.0
C594 C 0.54118 0.48535 0.0807 0.0
C595 C 0.50362 0.46997 0.06857 0.0
C596 C 0.49764 0.46682 0.09145 0.0
C597 C 0.51375 0.47386 0.10933 0.0
C598 C 0.53617 0.48197 0.10364 0.0
Zn599 Zn 0.53132 0.49331 0.03164 0.0
O600 O 0.57626 0.50596 0.00621 0.0
C601 C 0.53961 0.54913 0.03579 0.0
O602 O 0.56762 0.48572 0.03737 0.0
H603 H 0.49078 0.46588 0.05483 0.0
H604 H 0.57552 0.54821 0.98132 0.0
H605 H 0.55772 0.49384 0.07673 0.0
O606 O 0.54254 0.54785 0.01428 0.0
O607 O 0.53558 0.52925 0.04677 0.0
H608 H 0.5207 0.50449 0.95057 0.0
O609 O 0.4951 0.50105 0.02495 0.0
O610 O 0.50394 0.51733 0.99184 0.0
O611 O 0.52692 0.45759 0.01637 0.0
O612 O 0.53755 0.47503 0.98432 0.0
C613 C 0.48862 0.51151 0.00614 0.0
H614 H 0.5891 0.56019 0.94334 0.0
H615 H 0.53286 0.5158 0.91191 0.0
H616 H 0.48008 0.46059 0.095 0.0
H617 H 0.54933 0.48708 0.11681 0.0
C618 C 0.7481 0.25038 0.22146 0.0
N619 N 0.79951 0.20827 0.25704 0.0
C620 C 0.80018 0.19456 0.23749 0.0
C621 C 0.82088 0.18297 0.23179 0.0
C622 C 0.84098 0.18527 0.24654 0.0
C623 C 0.83929 0.19836 0.26725 0.0
C624 C 0.81842 0.21002 0.27202 0.0
Zn625 Zn 0.77035 0.22776 0.26383 0.0
C626 C 0.78165 0.28113 0.27131 0.0
N627 N 0.70973 0.2688 0.27876 0.0
C628 C 0.68885 0.26343 0.26762 0.0
C629 C 0.71119 0.28501 0.29667 0.0
C630 C 0.69094 0.29537 0.30492 0.0
C631 C 0.66895 0.28878 0.29482 0.0
C632 C 0.66812 0.27324 0.27542 0.0
Zn633 Zn 0.73882 0.24947 0.2712 0.0
O634 O 0.76512 0.23694 0.22854 0.0
C635 C 0.72797 0.19583 0.2637 0.0
O636 O 0.73331 0.25752 0.2357 0.0
H637 H 0.72798 0.289 0.30529 0.0
H638 H 0.78486 0.19326 0.22591 0.0
H639 H 0.68813 0.2505 0.2534 0.0
O640 O 0.74969 0.19531 0.25985 0.0
O641 O 0.71857 0.21641 0.26826 0.0
H642 H 0.81756 0.22105 0.28746 0.0
O643 O 0.74443 0.24112 0.30674 0.0
O644 O 0.77521 0.21917 0.29912 0.0
O645 O 0.75971 0.28219 0.27403 0.0
O646 O 0.79094 0.26024 0.26784 0.0
C647 C 0.76112 0.22715 0.31357 0.0
H648 H 0.82137 0.17336 0.2155 0.0
H649 H 0.85415 0.20023 0.27937 0.0
H650 H 0.69241 0.3076 0.31968 0.0
H651 H 0.65156 0.26745 0.26721 0.0
C652 C 0.01256 0.4631 0.54122 0.0
N653 N 0.02784 0.53274 0.56834 0.0
C654 C 0.01083 0.52852 0.58356 0.0
C655 C 0.01556 0.53175 0.60703 0.0
C656 C 0.03827 0.53857 0.61507 0.0
C657 C 0.05488 0.54494 0.59885 0.0
C658 C 0.04919 0.54206 0.57541 0.0
Zn659 Zn 0.02272 0.5181 0.53615 0.0
C660 C 0.06671 0.4968 0.51915 0.0
N661 N 0.0112 0.48292 0.47139 0.0
C662 C 0.99283 0.46679 0.46858 0.0
C663 C 0.02389 0.49024 0.45331 0.0
C664 C 0.01724 0.48254 0.43105 0.0
C665 C 0.9974 0.46716 0.42751 0.0
C666 C 0.9857 0.45851 0.44671 0.0
Zn667 Zn 0.01708 0.49876 0.50273 0.0
O668 O 0.01599 0.48334 0.55206 0.0
C669 C 0.9731 0.52012 0.51971 0.0
O670 O 0.01166 0.46352 0.51934 0.0
H671 H 0.03847 0.50303 0.45599 0.0
H672 H 0.99404 0.52082 0.57778 0.0
H673 H 0.98297 0.46126 0.48321 0.0
O674 O 0.98716 0.52717 0.53591 0.0
O675 O 0.98054 0.50737 0.50329 0.0
H676 H 0.06246 0.54544 0.56306 0.0
O677 O 0.02314 0.53445 0.48689 0.0
O678 O 0.02971 0.55258 0.52036 0.0
O679 O 0.05326 0.49023 0.5022 0.0
O680 O 0.05837 0.50885 0.53557 0.0
C681 C 0.02819 0.55397 0.49851 0.0
H682 H 0.00198 0.52731 0.61882 0.0
H683 H 0.07266 0.5502 0.60411 0.0
H684 H 0.02664 0.48981 0.41671 0.0
H685 H 0.97053 0.44633 0.44474 0.0
C686 C 0.79674 0.69268 0.26094 0.0
N687 N 0.77157 0.71372 0.32414 0.0
C688 C 0.76397 0.68976 0.32555 0.0
C689 C 0.7671 0.67657 0.34618 0.0
C690 C 0.77821 0.68821 0.36538 0.0
C691 C 0.78393 0.71352 0.36392 0.0
C692 C 0.78051 0.72594 0.34306 0.0
Zn693 Zn 0.77784 0.72972 0.29304 0.0
C694 C 0.82991 0.74523 0.29453 0.0
N695 N 0.79802 0.76241 0.23049 0.0
C696 C 0.78968 0.751 0.2109 0.0
C697 C 0.80986 0.78439 0.22981 0.0
C698 C 0.81292 0.79626 0.20881 0.0
C699 C 0.80355 0.78541 0.18844 0.0
C700 C 0.79223 0.76226 0.18959 0.0
Zn701 Zn 0.79032 0.74702 0.26113 0.0
O702 O 0.78704 0.69465 0.28005 0.0
C703 C 0.73834 0.73164 0.25929 0.0
O704 O 0.80044 0.71204 0.24916 0.0
H705 H 0.81625 0.79313 0.24563 0.0
H706 H 0.7571 0.68029 0.31028 0.0
H707 H 0.78039 0.73348 0.21184 0.0
O708 O 0.74218 0.72477 0.28008 0.0
O709 O 0.75522 0.74053 0.24821 0.0
H710 H 0.7868 0.74484 0.3416 0.0
O711 O 0.77992 0.78199 0.27334 0.0
O712 O 0.76857 0.76505 0.30533 0.0
O713 O 0.82531 0.75342 0.27437 0.0
O714 O 0.81358 0.73497 0.3054 0.0
C715 C 0.77094 0.78417 0.29281 0.0
H716 H 0.76242 0.65705 0.34661 0.0
H717 H 0.79211 0.72332 0.37846 0.0
H718 H 0.82154 0.81425 0.20863 0.0
H719 H 0.78497 0.75322 0.17421 0.0
C720 C 0.82613 0.28969 0.74289 0.0
N721 N 0.76136 0.26731 0.71259 0.0
C722 C 0.76997 0.27929 0.69415 0.0
C723 C 0.76727 0.26897 0.67224 0.0
C724 C 0.75529 0.24622 0.66916 0.0
C725 C 0.74483 0.2354 0.68825 0.0
C726 C 0.74828 0.2462 0.70996 0.0
Zn727 Zn 0.77334 0.27849 0.74448 0.0
C728 C 0.79367 0.23622 0.77093 0.0
N729 N 0.80253 0.30099 0.80967 0.0
C730 C 0.81519 0.32235 0.81258 0.0
C731 C 0.79584 0.28738 0.828 0.0
C732 C 0.80088 0.29572 0.85034 0.0
C733 C 0.81294 0.31832 0.8539 0.0
C734 C 0.82064 0.33139 0.83468 0.0
Zn735 Zn 0.79019 0.29027 0.77782 0.0
O736 O 0.80774 0.28305 0.73124 0.0
C737 C 0.77037 0.33284 0.75059 0.0
O738 O 0.82432 0.29524 0.76399 0.0
H739 H 0.78568 0.27051 0.82531 0.0
H740 H 0.78034 0.29605 0.69662 0.0
H741 H 0.82032 0.33285 0.79773 0.0
O742 O 0.76508 0.31558 0.73639 0.0
O743 O 0.78103 0.32757 0.76961 0.0
H744 H 0.74163 0.23697 0.72489 0.0
O745 O 0.75612 0.28461 0.79142 0.0
O746 O 0.73921 0.27328 0.75851 0.0
O747 O 0.79923 0.25315 0.78537 0.0
O748 O 0.78203 0.24174 0.75258 0.0
C749 C 0.73777 0.27745 0.77995 0.0
H750 H 0.77588 0.27798 0.65824 0.0
H751 H 0.73497 0.21818 0.68666 0.0
H752 H 0.7943 0.28519 0.86459 0.0
H753 H 0.83025 0.34874 0.83667 0.0
C754 C 0.73117 0.77067 0.76714 0.0
N755 N 0.74258 0.81577 0.71127 0.0
C756 C 0.7635 0.80505 0.70728 0.0
C757 C 0.76854 0.79739 0.68522 0.0
C758 C 0.75165 0.80012 0.66722 0.0
C759 C 0.73057 0.81202 0.67145 0.0
C760 C 0.72651 0.82012 0.69373 0.0
Zn761 Zn 0.73413 0.82044 0.74484 0.0
C762 C 0.68125 0.81303 0.74965 0.0
N763 N 0.71492 0.82584 0.81444 0.0
C764 C 0.72712 0.81018 0.82882 0.0
C765 C 0.70605 0.84737 0.82245 0.0
C766 C 0.7123 0.85549 0.84472 0.0
C767 C 0.72747 0.84106 0.85884 0.0
C768 C 0.73339 0.81736 0.85124 0.0
Zn769 Zn 0.72076 0.82217 0.78004 0.0
O770 O 0.73894 0.78202 0.7499 0.0
C771 C 0.77361 0.82754 0.77685 0.0
O772 O 0.72193 0.78301 0.78289 0.0
H773 H 0.69626 0.85957 0.81091 0.0
H774 H 0.77583 0.80105 0.72138 0.0
H775 H 0.73445 0.79334 0.82232 0.0
O776 O 0.76993 0.82746 0.75518 0.0
O777 O 0.7564 0.82504 0.78965 0.0
H778 H 0.71 0.8287 0.69717 0.0
O779 O 0.71966 0.86115 0.77568 0.0
O780 O 0.72935 0.85853 0.73973 0.0
O781 O 0.68529 0.81872 0.77066 0.0
O782 O 0.69813 0.813 0.73604 0.0
C783 C 0.72382 0.87167 0.75671 0.0
H784 H 0.78479 0.78779 0.6826 0.0
H785 H 0.7171 0.81417 0.65789 0.0
H786 H 0.70715 0.87386 0.84991 0.0
H787 H 0.74452 0.80533 0.86179 0.0
C788 C 0.4981 0.51479 0.48673 0.0
N789 N 0.46023 0.52747 0.54567 0.0
C790 C 0.44763 0.54333 0.53184 0.0
C791 C 0.42396 0.54728 0.53534 0.0
C792 C 0.41318 0.53498 0.55337 0.0
C793 C 0.42678 0.51941 0.56791 0.0
C794 C 0.4504 0.51581 0.56366 0.0
Zn795 Zn 0.49413 0.52067 0.53811 0.0
C796 C 0.50412 0.46658 0.53557 0.0
N797 N 0.56417 0.5072 0.51976 0.0
C798 C 0.57426 0.52249 0.50436 0.0
C799 C 0.57737 0.49228 0.53398 0.0
C800 C 0.60176 0.4946 0.53498 0.0
C801 C 0.61246 0.51246 0.52124 0.0
C802 C 0.59857 0.52539 0.50479 0.0
Zn803 Zn 0.53002 0.51284 0.52686 0.0
O804 O 0.48397 0.51869 0.50259 0.0
C805 C 0.52 0.56696 0.5291 0.0
O806 O 0.51972 0.51177 0.49192 0.0
H807 H 0.56896 0.48028 0.54611 0.0
H808 H 0.45582 0.55256 0.51773 0.0
H809 H 0.56343 0.53414 0.49319 0.0
O810 O 0.50021 0.55893 0.53508 0.0
O811 O 0.53588 0.55157 0.52478 0.0
H812 H 0.46073 0.50326 0.57439 0.0
O813 O 0.54005 0.51356 0.56197 0.0
O814 O 0.50516 0.52269 0.57367 0.0
O815 O 0.5237 0.47477 0.5291 0.0
O816 O 0.48832 0.4818 0.54083 0.0
C817 C 0.52668 0.51818 0.57819 0.0
H818 H 0.41407 0.55952 0.52384 0.0
H819 H 0.41901 0.50932 0.58182 0.0
H820 H 0.61184 0.48433 0.54795 0.0
H821 H 0.60626 0.53909 0.49367 0.0
C822 C 0.01997 0.52124 0.06713 0.0
N823 N 0.04492 0.45757 0.037 0.0
C824 C 0.05694 0.45508 0.05757 0.0
C825 C 0.05701 0.43234 0.06903 0.0
C826 C 0.04468 0.41208 0.05907 0.0
C827 C 0.03467 0.41455 0.03671 0.0
C828 C 0.03491 0.43765 0.02595 0.0
Zn829 Zn 0.03497 0.49194 0.02649 0.0
C830 C 0.98224 0.49209 0.01899 0.0
N831 N 0.00949 0.56295 0.00717 0.0
C832 C 0.01901 0.58321 0.01807 0.0
C833 C 0.99468 0.56524 0.98833 0.0
C834 C 0.98972 0.58863 0.97913 0.0
C835 C 0.00025 0.60977 0.98937 0.0
C836 C 0.01462 0.60692 0.0094 0.0
Zn837 Zn 0.02017 0.52867 0.01742 0.0
O838 O 0.02924 0.50117 0.06097 0.0
C839 C 0.07302 0.52822 0.02542 0.0
O840 O 0.01459 0.53753 0.05208 0.0
H841 H 0.98742 0.54884 0.97989 0.0
H842 H 0.06472 0.47121 0.06604 0.0
H843 H 0.03071 0.58093 0.03304 0.0
O844 O 0.06968 0.50538 0.02972 0.0
O845 O 0.05547 0.54188 0.02039 0.0
H846 H 0.02538 0.44009 0.00963 0.0
O847 O 0.02583 0.51938 0.98268 0.0
O848 O 0.04056 0.48314 0.99208 0.0
O849 O 0.98516 0.51504 0.0149 0.0
O850 O 2e-05 0.47865 0.0233 0.0
C851 C 0.03524 0.49921 0.9768 0.0
H852 H 0.06492 0.43129 0.08626 0.0
H853 H 0.02544 0.39922 0.02824 0.0
H854 H 0.97871 0.59003 0.96354 0.0
H855 H 0.02282 0.62281 0.01796 0.0
H856 H 0.07736 0.2135 0.08223 0.0
H857 H 0.01687 0.16828 0.09695 0.0
H858 H 0.07897 0.1935 0.0443 0.0
H859 H 0.01824 0.14901 0.05948 0.0
H860 H 0.01024 0.12478 0.99299 0.0
H861 H 0.01384 0.16242 0.01605 0.0
H862 H 0.08594 0.14492 0.03413 0.0
H863 H 0.08249 0.10751 0.01058 0.0
C864 C 0.06435 0.19951 0.07729 0.0
C865 C 0.04711 0.19225 0.09254 0.0
C866 C 0.06522 0.18826 0.05564 0.0
C867 C 0.04843 0.17021 0.04886 0.0
C868 C 0.03105 0.16336 0.06405 0.0
C869 C 0.03048 0.17412 0.08567 0.0
C870 C 0.02725 0.1298 0.00073 0.0
C871 C 0.04592 0.1131 0.00057 0.0
C872 C 0.0293 0.15128 0.01396 0.0
C873 C 0.04993 0.156 0.02735 0.0
C874 C 0.06983 0.14157 0.024 0.0
C875 C 0.06785 0.12016 0.0105 0.0
H876 H 0.0983 0.74086 0.32984 0.0
H877 H 0.12754 0.80132 0.37081 0.0
H878 H 0.13442 0.73935 0.30863 0.0
H879 H 0.16302 0.80029 0.34944 0.0
H880 H 0.2333 0.77599 0.32671 0.0
H881 H 0.19655 0.7754 0.34608 0.0
H882 H 0.15892 0.76043 0.28144 0.0
H883 H 0.19613 0.76036 0.26199 0.0
C884 C 0.1123 0.75397 0.3342 0.0
C885 C 0.11001 0.77107 0.35221 0.0
C886 C 0.13301 0.75317 0.32197 0.0
C887 C 0.1519 0.76949 0.32744 0.0
C888 C 0.14921 0.78698 0.34504 0.0
C889 C 0.12868 0.78769 0.35725 0.0
C890 C 0.21725 0.77248 0.31654 0.0
C891 C 0.21776 0.76838 0.2927 0.0
C892 C 0.19604 0.77232 0.32768 0.0
C893 C 0.17455 0.76823 0.31536 0.0
C894 C 0.17506 0.76352 0.29156 0.0
C895 C 0.19641 0.76358 0.28037 0.0
H896 H 0.63086 0.73494 0.64246 0.0
H897 H 0.57844 0.75706 0.68951 0.0
H898 H 0.62994 0.7763 0.62524 0.0
H899 H 0.57754 0.79826 0.67219 0.0
H900 H 0.55466 0.84687 0.60922 0.0
H901 H 0.56161 0.8093 0.63182 0.0
H902 H 0.63625 0.82323 0.63213 0.0
H903 H 0.62926 0.86103 0.60937 0.0
C904 C 0.61953 0.74875 0.64947 0.0
C905 C 0.60434 0.74254 0.667 0.0
C906 C 0.61907 0.77245 0.63963 0.0
C907 C 0.60331 0.79026 0.64708 0.0
C908 C 0.58951 0.78467 0.66583 0.0
C909 C 0.59011 0.7611 0.67578 0.0
C910 C 0.57255 0.84184 0.61398 0.0
C911 C 0.59142 0.85676 0.60743 0.0
C912 C 0.57652 0.82053 0.62717 0.0
C913 C 0.59946 0.81352 0.63391 0.0
C914 C 0.6184 0.82827 0.62719 0.0
C915 C 0.6144 0.84985 0.61423 0.0
H916 H 0.48313 0.24917 0.8246 0.0
H917 H 0.44825 0.23861 0.8882 0.0
H918 H 0.44501 0.25135 0.80373 0.0
H919 H 0.41046 0.24212 0.86787 0.0
H920 H 0.34564 0.223 0.82497 0.0
H921 H 0.38418 0.22102 0.84402 0.0
H922 H 0.4106 0.27364 0.79508 0.0
H923 H 0.37194 0.27448 0.77519 0.0
C924 C 0.46733 0.24755 0.83415 0.0
C925 C 0.46877 0.24343 0.85804 0.0
C926 C 0.4454 0.24897 0.82221 0.0
C927 C 0.42436 0.24666 0.83394 0.0
C928 C 0.42604 0.24324 0.85796 0.0
C929 C 0.44784 0.24139 0.86975 0.0
C930 C 0.35963 0.23421 0.81825 0.0
C931 C 0.3556 0.24901 0.79859 0.0
C932 C 0.38186 0.23323 0.82933 0.0
C933 C 0.40076 0.2474 0.82141 0.0
C934 C 0.39671 0.26222 0.80164 0.0
C935 C 0.37445 0.26287 0.79029 0.0
H936 H 0.99503 0.81711 0.44188 0.0
H937 H 0.06441 0.82969 0.41722 0.0
H938 H 0.99807 0.85573 0.4636 0.0
H939 H 0.06747 0.86839 0.43911 0.0
H940 H 0.05097 0.9496 0.45795 0.0
H941 H 0.04937 0.90995 0.43784 0.0
H942 H 0.01951 0.87526 0.49686 0.0
H943 H 0.02102 0.91507 0.51706 0.0
C944 C 0.01101 0.82804 0.44117 0.0
C945 C 0.02945 0.82027 0.4277 0.0
C946 C 0.01279 0.85015 0.45376 0.0
C947 C 0.03299 0.86523 0.4531 0.0
C948 C 0.05156 0.85736 0.43982 0.0
C949 C 0.04986 0.83509 0.42737 0.0
C950 C 0.04406 0.93355 0.4667 0.0
C951 C 0.03607 0.9356 0.48915 0.0
C952 C 0.04331 0.91074 0.45519 0.0
C953 C 0.03437 0.88936 0.46572 0.0
C954 C 0.02633 0.89139 0.48817 0.0
C955 C 0.02727 0.9142 0.49978 0.0
H956 H 0.51047 0.69039 0.73011 0.0
H957 H 0.48041 0.64512 0.67485 0.0
H958 H 0.47163 0.69679 0.74437 0.0
H959 H 0.44133 0.65221 0.68872 0.0
H960 H 0.3758 0.65429 0.73097 0.0
H961 H 0.41525 0.64393 0.71959 0.0
H962 H 0.43759 0.71973 0.73239 0.0
H963 H 0.3985 0.72984 0.74406 0.0
C964 C 0.49554 0.68183 0.72097 0.0
C965 C 0.49845 0.66741 0.70125 0.0
C966 C 0.47326 0.68559 0.7291 0.0
C967 C 0.45336 0.67522 0.71755 0.0
C968 C 0.45633 0.66026 0.69814 0.0
C969 C 0.47869 0.65632 0.69011 0.0
C970 C 0.38923 0.66865 0.73137 0.0
C971 C 0.38417 0.69281 0.73853 0.0
C972 C 0.41176 0.66276 0.72481 0.0
C973 C 0.42958 0.68098 0.72517 0.0
C974 C 0.42443 0.70512 0.73239 0.0
C975 C 0.40202 0.71094 0.73906 0.0
H976 H 0.54965 0.16927 0.90842 0.0
H977 H 0.52187 0.20695 0.96652 0.0
H978 H 0.54772 0.1299 0.92923 0.0
H979 H 0.51932 0.16775 0.98698 0.0
H980 H 0.53913 0.09765 0.02711 0.0
H981 H 0.54184 0.13674 0.00623 0.0
H982 H 0.52132 0.09909 0.94289 0.0
H983 H 0.51925 0.05988 0.96371 0.0
C984 C 0.54309 0.16919 0.92559 0.0
C985 C 0.536 0.1914 0.93574 0.0
C986 C 0.54181 0.14653 0.93751 0.0
C987 C 0.53335 0.14544 0.95991 0.0
C988 C 0.5263 0.16773 0.96998 0.0
C989 C 0.52764 0.19031 0.95812 0.0
C990 C 0.53509 0.09769 0.00874 0.0
C991 C 0.5289 0.07551 -0.00283 0.0
C992 C 0.53655 0.12021 0.99671 0.0
C993 C 0.53182 0.12129 0.97274 0.0
C994 C 0.52547 0.09908 0.96122 0.0
C995 C 0.52406 0.07655 0.97325 0.0
H996 H 0.07104 0.25148 0.20669 0.0
H997 H 0.12193 0.20573 0.17437 0.0
H998 H 0.10256 0.27501 0.22615 0.0
H999 H 0.15351 0.22893 0.19441 0.0
H1000 H 0.20552 0.28744 0.21545 0.0
H1001 H 0.17152 0.27007 0.19419 0.0
H1002 H 0.13277 0.26989 0.25632 0.0
H1003 H 0.1666 0.28785 0.27748 0.0
C1004 C 0.08896 0.24626 0.2039 0.0
C1005 C 0.09402 0.22672 0.18896 0.0
C1006 C 0.10701 0.25977 0.21509 0.0
C1007 C 0.13049 0.25398 0.21165 0.0
C1008 C 0.13555 0.23417 0.19702 0.0
C1009 C 0.11749 0.2207 0.18574 0.0
C1010 C 0.18955 0.28425 0.22444 0.0
C1011 C 0.18876 0.28874 0.24816 0.0
C1012 C 0.17018 0.27405 0.21232 0.0
C1013 C 0.14971 0.26807 0.22372 0.0
C1014 C 0.14832 0.27431 0.24706 0.0
C1015 C 0.16768 0.28466 0.25918 0.0
H1016 H 0.14962 0.01837 0.16512 0.0
H1017 H 0.09547 0.06813 0.18556 0.0
H1018 H 0.13189 0.01693 0.12627 0.0
H1019 H 0.07818 0.06737 0.14654 0.0
H1020 H 0.03746 0.03719 0.08413 0.0
H1021 H 0.05668 0.03917 0.12206 0.0
H1022 H 0.12432 0.04042 0.09149 0.0
H1023 H 0.10491 0.03763 0.05321 0.0
C1024 C 0.13405 0.0292 0.16126 0.0
C1025 C 0.12383 0.04323 0.17847 0.0
C1026 C 0.12398 0.0285 0.13893 0.0
C1027 C 0.10353 0.04192 0.13328 0.0
C1028 C 0.09366 0.0564 0.1504 0.0
C1029 C 0.10363 0.05695 0.17276 0.0
C1030 C 0.05645 0.03785 0.08542 0.0
C1031 C 0.06967 0.0373 0.06563 0.0
C1032 C 0.06748 0.03919 0.10723 0.0
C1033 C 0.09205 0.04023 0.10987 0.0
C1034 C 0.10535 0.03945 0.09008 0.0
C1035 C 0.09426 0.03793 0.06815 0.0
H1036 H 0.29089 0.85288 0.4965 0.0
H1037 H 0.32144 0.91936 0.46826 0.0
H1038 H 0.29427 0.83201 0.45975 0.0
H1039 H 0.32435 0.89857 0.43131 0.0
H1040 H 0.34592 0.8446 0.37487 0.0
H1041 H 0.34509 0.86492 0.41242 0.0
H1042 H 0.27569 0.83473 0.42146 0.0
H1043 H 0.27652 0.81457 0.38424 0.0
C1044 C 0.29825 0.86308 0.48243 0.0
C1045 C 0.30578 0.88782 0.48525 0.0
C1046 C 0.30011 0.85114 0.46135 0.0
C1047 C 0.30949 0.86368 0.44261 0.0
C1048 C 0.31729 0.88833 0.4455 0.0
C1049 C 0.31544 0.90029 0.46662 0.0
C1050 C 0.33052 0.84237 0.38493 0.0
C1051 C 0.31141 0.82776 0.37673 0.0
C1052 C 0.33002 0.85401 0.40637 0.0
C1053 C 0.31038 0.85127 0.41995 0.0
C1054 C 0.29128 0.83676 0.41165 0.0
C1055 C 0.29178 0.82517 0.39031 0.0
H1056 H 0.43654 0.00161 0.68354 0.0
H1057 H 0.49105 0.98604 0.73539 0.0
H1058 H 0.466 0.00486 0.65457 0.0
H1059 H 0.52051 0.98924 0.70626 0.0
H1060 H 0.55314 0.96097 0.63677 0.0
H1061 H 0.52951 0.96373 0.67058 0.0
H1062 H 0.50068 0.03289 0.64541 0.0
H1063 H 0.52425 0.0303 0.61165 0.0
C1064 C 0.4548 -0.00109 0.68875 0.0
C1065 C 0.46148 0.9935 0.7117 0.0
C1066 C 0.47167 0.00101 0.67222 0.0
C1067 C 0.49551 -0.0025 0.67828 0.0
C1068 C 0.50223 0.99203 0.7012 0.0
C1069 C 0.48537 0.99023 0.71781 0.0
C1070 C 0.54226 0.97711 0.63875 0.0
C1071 C 0.54029 0.99521 0.62136 0.0
C1072 C 0.52875 0.97868 0.65811 0.0
C1073 C 0.51298 -0.00172 0.6603 0.0
C1074 C 0.51243 0.01737 0.64387 0.0
C1075 C 0.52606 0.01594 0.62464 0.0
H1076 H 0.30082 0.08326 0.95499 0.0
H1077 H 0.32295 0.15051 0.99052 0.0
H1078 H 0.29083 0.10735 0.92053 0.0
H1079 H 0.31276 0.17455 0.95603 0.0
H1080 H 0.3121 0.20488 0.88216 0.0
H1081 H 0.32429 0.18079 0.91585 0.0
H1082 H 0.25983 0.1382 0.90967 0.0
H1083 H 0.24734 0.16263 0.87594 0.0
C1084 C 0.30391 0.10312 0.95536 0.0
C1085 C 0.31264 0.115 0.97552 0.0
C1086 C 0.29792 0.11692 0.93569 0.0
C1087 C 0.30072 0.14283 0.93572 0.0
C1088 C 0.31048 0.15458 0.95551 0.0
C1089 C 0.31633 0.14081 0.97524 0.0
C1090 C 0.30025 0.19073 0.88821 0.0
C1091 C 0.27857 0.18588 0.8765 0.0
C1092 C 0.30735 0.17684 0.90745 0.0
C1093 C 0.29305 0.15762 0.91534 0.0
C1094 C 0.27135 0.15272 0.90374 0.0
C1095 C 0.26417 0.16674 0.8845 0.0
H1096 H 0.17392 0.03607 0.32651 0.0
H1097 H 0.11 0.0181 0.2871 0.0
H1098 H 0.15176 0.04032 0.361 0.0
H1099 H 0.08778 0.02232 0.32192 0.0
H1100 H 0.06683 0.00124 0.39683 0.0
H1101 H 0.08566 -0.00034 0.36022 0.0
H1102 H 0.12111 0.06913 0.37584 0.0
H1103 H 0.10172 0.07124 0.41235 0.0
C1104 C 0.15514 0.03292 0.32521 0.0
C1105 C 0.14371 0.02667 0.30408 0.0
C1106 C 0.14244 0.0356 0.34495 0.0
C1107 C 0.11806 0.03187 0.34406 0.0
C1108 C 0.10659 0.02527 0.32304 0.0
C1109 C 0.11929 0.02285 0.30316 0.0
C1110 C 0.07813 0.01657 0.39229 0.0
C1111 C 0.08272 0.03642 0.40762 0.0
C1112 C 0.08899 0.01556 0.37131 0.0
C1113 C 0.1049 0.03419 0.36528 0.0
C1114 C 0.10911 0.05435 0.38025 0.0
C1115 C 0.09806 0.05551 0.40116 0.0
H1116 H 0.29374 0.80716 0.57678 0.0
H1117 H 0.27287 0.86895 0.61822 0.0
H1118 H 0.28458 0.7786 0.60789 0.0
H1119 H 0.26395 0.8405 0.6492 0.0
H1120 H 0.23144 0.78382 0.69385 0.0
H1121 H 0.23581 0.80702 0.6583 0.0
H1122 H 0.30086 0.76947 0.64748 0.0
H1123 H 0.29644 0.74601 0.68292 0.0
C1124 C 0.28717 0.81465 0.59248 0.0
C1125 C 0.28409 0.84033 0.59507 0.0
C1126 C 0.28197 0.79829 0.61028 0.0
C1127 C 0.2734 0.8073 0.6309 0.0
C1128 C 0.27015 0.83295 0.63336 0.0
C1129 C 0.27548 0.84928 0.61568 0.0
C1130 C 0.24643 0.78011 0.68366 0.0
C1131 C 0.26374 0.76329 0.69136 0.0
C1132 C 0.249 0.79354 0.66339 0.0
C1133 C 0.26887 0.79036 0.65034 0.0
C1134 C 0.28534 0.77228 0.65715 0.0
C1135 C 0.28281 0.75888 0.67749 0.0
H1136 H 0.41859 0.92556 0.81615 0.0
H1137 H 0.44817 -0.0011 0.80715 0.0
H1138 H 0.44217 0.92086 0.85205 0.0
H1139 H 0.47194 0.99394 0.84281 0.0
H1140 H 0.52648 0.96562 0.89642 0.0
H1141 H 0.50578 0.96402 0.85877 0.0
H1142 H 0.44134 0.94576 0.8912 0.0
H1143 H 0.46141 0.94858 0.92879 0.0
C1144 C 0.4302 0.94059 0.82179 0.0
C1145 C 0.43145 0.96267 0.80901 0.0
C1146 C 0.44366 0.93786 0.84224 0.0
C1147 C 0.4589 0.95697 0.84996 0.0
C1148 C 0.46048 0.97885 0.837 0.0
C1149 C 0.44673 0.98177 0.81677 0.0
C1150 C 0.50791 0.96121 0.89557 0.0
C1151 C 0.49562 0.95751 0.91575 0.0
C1152 C 0.49616 0.96018 0.87403 0.0
C1153 C 0.47203 0.95492 0.87225 0.0
C1154 C 0.46002 0.94965 0.89219 0.0
C1155 C 0.47163 0.95112 0.91373 0.0
H1156 H 0.31806 0.13037 0.1114 0.0
H1157 H 0.29032 0.19028 0.06926 0.0
H1158 H 0.31936 0.15737 0.14484 0.0
H1159 H 0.2907 0.21712 0.10299 0.0
H1160 H 0.31006 0.265 0.16535 0.0
H1161 H 0.31473 0.23921 0.13131 0.0
H1162 H 0.2918 0.17493 0.16913 0.0
H1163 H 0.28775 0.20044 0.20296 0.0
C1164 C 0.3121 0.1493 0.10932 0.0
C1165 C 0.30387 0.15817 0.08777 0.0
C1166 C 0.31278 0.16476 0.1285 0.0
C1167 C 0.30493 0.18935 0.12665 0.0
C1168 C 0.29714 0.19838 0.10497 0.0
C1169 C 0.29674 0.18295 0.08568 0.0
C1170 C 0.30627 0.2453 0.16633 0.0
C1171 C 0.29876 0.23466 0.18681 0.0
C1172 C 0.30882 0.23056 0.14686 0.0
C1173 C 0.30368 0.20499 0.14751 0.0
C1174 C 0.29643 0.19442 0.16814 0.0
C1175 C 0.29408 0.20906 0.18756 0.0
H1176 H 0.26298 0.05187 -8e-05 0.0
H1177 H 0.21958 0.11642 0.00585 0.0
H1178 H 0.2343 0.0335 0.97266 0.0
H1179 H 0.18998 0.09753 0.98002 0.0
H1180 H 0.1375 0.06723 0.9371 0.0
H1181 H 0.17628 0.08406 0.94434 0.0
H1182 H 0.19865 0.01391 0.97356 0.0
H1183 H 0.16064 0.99603 0.96353 0.0
C1184 C 0.24706 0.06195 0.99557 0.0
C1185 C 0.24308 0.08526 0.00531 0.0
C1186 C 0.23066 0.05148 0.97988 0.0
C1187 C 0.20965 0.06383 0.9741 0.0
C1188 C 0.20611 0.08755 0.98351 0.0
C1189 C 0.22283 0.09829 -0.0013 0.0
C1190 C 0.15085 0.05479 0.9439 0.0
C1191 C 0.14534 0.03053 0.95111 0.0
C1192 C 0.17316 0.06475 0.94853 0.0
C1193 C 0.19011 0.05096 0.96106 0.0
C1194 C 0.18589 0.02549 0.96451 0.0
C1195 C 0.16381 0.01524 0.95907 0.0
H1196 H 0.72041 0.4393 0.07244 0.0
H1197 H 0.72007 0.43944 -0.00185 0.0
H1198 H 0.68214 0.45911 0.07089 0.0
H1199 H 0.68164 0.45851 0.99659 0.0
H1200 H 0.62022 0.50948 -0.00025 0.0
H1201 H 0.66072 0.49574 0.00408 0.0
H1202 H 0.64218 0.44819 0.06047 0.0
H1203 H 0.6019 0.4625 0.0566 0.0
C1204 C 0.71219 0.44358 0.05578 0.0
C1205 C 0.72325 0.43771 0.03542 0.0
C1206 C 0.69021 0.45483 0.05489 0.0
C1207 C 0.67876 0.46036 0.03362 0.0
C1208 C 0.69007 0.45489 0.01328 0.0
C1209 C 0.71207 0.44376 0.01417 0.0
C1210 C 0.62486 0.49631 0.01324 0.0
C1211 C 0.60781 0.48696 0.02773 0.0
C1212 C 0.64805 0.48832 0.01563 0.0
C1213 C 0.65468 0.47068 0.03248 0.0
C1214 C 0.63777 0.46199 0.04747 0.0
C1215 C 0.61461 0.47009 0.04516 0.0
H1216 H 0.83823 0.431 0.25442 0.0
H1217 H 0.87894 0.38316 0.2124 0.0
H1218 H 0.81647 0.39526 0.26782 0.0
H1219 H 0.85652 0.34736 0.22523 0.0
H1220 H 0.82919 0.28546 0.26909 0.0
H1221 H 0.85157 0.3222 0.25872 0.0
H1222 H 0.78791 0.36508 0.25574 0.0
H1223 H 0.7657 0.32856 0.26685 0.0
C1224 C 0.84234 0.41287 0.24778 0.0
C1225 C 0.86036 0.40993 0.23233 0.0
C1226 C 0.82979 0.39235 0.25545 0.0
C1227 C 0.83481 0.36839 0.24773 0.0
C1228 C 0.85252 0.3655 0.2319 0.0
C1229 C 0.86521 0.38604 0.22434 0.0
C1230 C 0.82005 0.30285 0.26662 0.0
C1231 C 0.79566 0.30409 0.26876 0.0
C1232 C 0.83284 0.32385 0.2604 0.0
C1233 C 0.82151 0.34652 0.25603 0.0
C1234 C 0.79726 0.34798 0.25913 0.0
C1235 C 0.7845 0.32702 0.26552 0.0
H1236 H 0.83616 0.5674 0.56209 0.0
H1237 H 0.89295 0.61841 0.57926 0.0
H1238 H 0.86118 0.54571 0.53539 0.0
H1239 H 0.91753 0.59751 0.55226 0.0
H1240 H 0.93606 0.49961 0.54053 0.0
H1241 H 0.9002 0.52135 0.54982 0.0
H1242 H 0.92153 0.584 0.50914 0.0
H1243 H 0.95719 0.56201 0.49965 0.0
C1244 C 0.85367 0.57448 0.55945 0.0
C1245 C 0.86282 0.59441 0.57263 0.0
C1246 C 0.86793 0.5621 0.54429 0.0
C1247 C 0.89121 0.57001 0.54178 0.0
C1248 C 0.89956 0.59123 0.55364 0.0
C1249 C 0.88558 0.60311 0.56916 0.0
C1250 C 0.93241 0.5175 0.53271 0.0
C1251 C 0.94903 0.52918 0.51928 0.0
C1252 C 0.91194 0.52992 0.53795 0.0
C1253 C 0.9082 0.55435 0.5302 0.0
C1254 C 0.92401 0.56515 0.51521 0.0
C1255 C 0.9443 0.5526 0.50975 0.0
H1256 H 0.21975 0.08689 0.26865 0.0
H1257 H 0.1527 0.12351 0.26512 0.0
H1258 H 0.23782 0.12371 0.28641 0.0
H1259 H 0.17085 0.16062 0.28196 0.0
H1260 H 0.20469 0.22268 0.32056 0.0
H1261 H 0.18941 0.18043 0.31496 0.0
H1262 H 0.24802 0.16363 0.27324 0.0
H1263 H 0.26352 0.20507 0.27954 0.0
C1264 C 0.20891 0.10287 0.27154 0.0
C1265 C 0.18489 0.10247 0.26521 0.0
C1266 C 0.21924 0.12395 0.28177 0.0
C1267 C 0.20581 0.14518 0.28559 0.0
C1268 C 0.18166 0.14449 0.2797 0.0
C1269 C 0.17129 0.12332 0.26974 0.0
C1270 C 0.21463 0.20964 0.31085 0.0
C1271 C 0.23507 0.21724 0.30019 0.0
C1272 C 0.20577 0.18555 0.30741 0.0
C1273 C 0.21725 0.16878 0.29328 0.0
C1274 C 0.23874 0.1759 0.28432 0.0
C1275 C 0.24757 0.19981 0.2878 0.0
H1276 H 0.38162 0.89105 0.58954 0.0
H1277 H 0.35938 0.94781 0.54111 0.0
H1278 H 0.42238 0.90315 0.58513 0.0
H1279 H 0.40016 0.95922 0.53579 0.0
H1280 H 0.47415 0.98965 0.54806 0.0
H1281 H 0.43346 0.97832 0.55283 0.0
H1282 H 0.45291 0.9012 0.55935 0.0
H1283 H 0.494 0.91283 0.55568 0.0
C1284 C 0.38547 0.90615 0.57794 0.0
C1285 C 0.3673 0.91855 0.56575 0.0
C1286 C 0.40888 0.91292 0.5752 0.0
C1287 C 0.41472 0.93204 0.55992 0.0
C1288 C 0.39642 0.94466 0.54796 0.0
C1289 C 0.37299 0.93811 0.55097 0.0
C1290 C 0.46977 0.97022 0.55034 0.0
C1291 C 0.48735 0.95213 0.55149 0.0
C1292 C 0.44632 0.9637 0.55299 0.0
C1293 C 0.43974 0.93883 0.55655 0.0
C1294 C 0.45731 0.92062 0.55712 0.0
C1295 C 0.48087 0.92722 0.55477 0.0
H1296 H 0.89197 0.58215 0.21948 0.0
H1297 H 0.83327 0.53742 0.24024 0.0
H1298 H 0.86942 0.61955 0.22502 0.0
H1299 H 0.81053 0.57494 0.24537 0.0
H1300 H 0.79438 0.6483 0.28347 0.0
H1301 H 0.81212 0.60931 0.27286 0.0
H1302 H 0.83549 0.64292 0.21032 0.0
H1303 H 0.81814 0.68212 0.22111 0.0
C1304 C 0.87416 0.58028 0.22496 0.0
C1305 C 0.86448 0.55684 0.22961 0.0
C1306 C 0.86117 0.60172 0.22797 0.0
C1307 C 0.83821 0.60018 0.23567 0.0
C1308 C 0.82828 0.5767 0.23968 0.0
C1309 C 0.84128 0.55523 0.23665 0.0
C1310 C 0.80306 0.6473 0.26732 0.0
C1311 C 0.80508 0.66836 0.25325 0.0
C1312 C 0.81311 0.62491 0.26118 0.0
C1313 C 0.82534 0.62311 0.24083 0.0
C1314 C 0.82649 0.64387 0.22628 0.0
C1315 C 0.81645 0.66628 0.23242 0.0
H1316 H 0.73456 0.49042 0.75061 0.0
H1317 H 0.68659 0.45481 0.70117 0.0
H1318 H 0.75602 0.45174 0.75548 0.0
H1319 H 0.70729 0.41599 0.70672 0.0
H1320 H 0.75658 0.35221 0.70889 0.0
H1321 H 0.74154 0.39355 0.70074 0.0
H1322 H 0.7514 0.41244 0.77276 0.0
H1323 H 0.76744 0.37146 0.78063 0.0
C1324 C 0.72864 0.47434 0.74074 0.0
C1325 C 0.70883 0.47565 0.72556 0.0
C1326 C 0.74084 0.45211 0.74365 0.0
C1327 C 0.73335 0.43061 0.73162 0.0
C1328 C 0.71386 0.43219 0.71601 0.0
C1329 C 0.70186 0.45447 0.71292 0.0
C1330 C 0.75576 0.36531 0.72292 0.0
C1331 C 0.76304 0.35854 0.74542 0.0
C1332 C 0.74699 0.38898 0.71829 0.0
C1333 C 0.74497 0.40634 0.73611 0.0
C1334 C 0.75295 0.39974 0.75852 0.0
C1335 C 0.76203 0.37617 0.76309 0.0
H1336 H 0.95841 0.90198 0.90483 0.0
H1337 H 0.00324 0.84506 0.93455 0.0
H1338 H 0.96763 0.92843 0.93805 0.0
H1339 H 0.01244 0.87161 0.96774 0.0
H1340 H 0.04934 0.94821 0.99213 0.0
H1341 H 0.03558 0.91198 0.97033 0.0
H1342 H 0.96389 0.93182 0.98148 0.0
H1343 H 0.97761 0.96809 0.00341 0.0
C1344 C 0.97004 0.89503 0.91853 0.0
C1345 C 0.98028 0.87158 0.91694 0.0
C1346 C 0.9751 0.91004 0.93768 0.0
C1347 C 0.99065 0.90196 0.95551 0.0
C1348 C 0.0004 0.87825 0.95423 0.0
C1349 C 0.99515 0.86313 0.9352 0.0
C1350 C 0.03068 0.94429 0.99074 0.0
C1351 C 0.01456 0.96121 -0.0009 0.0
C1352 C 0.02279 0.92353 0.97824 0.0
C1353 C -0.00134 0.91949 0.97381 0.0
C1354 C 0.98258 0.93482 0.98437 0.0
C1355 C 0.99048 0.95544 0.99712 0.0
H1356 H 0.97208 0.25837 0.71078 0.0
H1357 H 0.94108 0.29081 0.64886 0.0
H1358 H 0.93516 0.2643 0.73002 0.0
H1359 H 0.90481 0.29724 0.66802 0.0
H1360 H 0.83498 0.27861 0.69835 0.0
H1361 H 0.87257 0.27408 0.68101 0.0
H1362 H 0.90821 0.2943 0.74541 0.0
H1363 H 0.87023 0.2983 0.76306 0.0
C1364 C 0.9575 0.26688 0.7013 0.0
C1365 C 0.95961 0.27387 0.67816 0.0
C1366 C 0.93634 0.27043 0.71238 0.0
C1367 C 0.91675 0.28108 0.70058 0.0
C1368 C 0.91918 0.28849 0.67761 0.0
C1369 C 0.94018 0.2849 0.6666 0.0
C1370 C 0.85076 0.28231 0.70887 0.0
C1371 C 0.84942 0.28897 0.73214 0.0
C1372 C 0.87246 0.27979 0.69884 0.0
C1373 C 0.89364 0.2839 0.71169 0.0
C1374 C 0.89235 0.29073 0.73498 0.0
C1375 C 0.87053 0.29327 0.74506 0.0
H1376 H 0.54051 0.23073 0.48327 0.0
H1377 H 0.49406 0.20024 0.42951 0.0
H1378 H 0.54423 0.18969 0.50064 0.0
H1379 H 0.49761 0.15929 0.44708 0.0
H1380 H 0.53197 0.0863 0.47218 0.0
H1381 H 0.52769 0.12696 0.45419 0.0
H1382 H 0.51869 0.15992 0.52079 0.0
H1383 H 0.52274 0.11921 0.53882 0.0
C1384 C 0.53114 0.21528 0.47513 0.0
C1385 C 0.51697 0.21872 0.45504 0.0
C1386 C 0.53314 0.19183 0.48518 0.0
C1387 C 0.5211 0.17136 0.47527 0.0
C1388 C 0.50722 0.17472 0.45499 0.0
C1389 C 0.50513 0.19818 0.44499 0.0
C1390 C 0.5287 0.10215 0.48295 0.0
C1391 C 0.52769 0.09955 0.50693 0.0
C1392 C 0.52633 0.12543 0.47265 0.0
C1393 C 0.52298 0.14659 0.48612 0.0
C1394 C 0.52165 0.14397 0.51004 0.0
C1395 C 0.52394 0.12068 0.52035 0.0
H1396 H 0.6244 0.76921 0.16415 0.0
H1397 H 0.58802 0.72639 0.21443 0.0
H1398 H 0.66112 0.76345 0.18596 0.0
H1399 H 0.62525 0.71959 0.23603 0.0
H1400 H 0.69539 0.73214 0.27921 0.0
H1401 H 0.65675 0.73671 0.25959 0.0
H1402 H 0.68909 0.73325 0.19392 0.0
H1403 H 0.72735 0.72987 0.21346 0.0
C1404 C 0.62425 0.7584 0.17986 0.0
C1405 C 0.60323 0.74815 0.18742 0.0
C1406 C 0.64546 0.75487 0.19234 0.0
C1407 C 0.64647 0.74058 0.21266 0.0
C1408 C 0.62528 0.73078 0.22057 0.0
C1409 C 0.6039 0.73461 0.20814 0.0
C1410 C 0.69411 0.7321 0.26058 0.0
C1411 C 0.71448 0.73087 0.24792 0.0
C1412 C 0.67194 0.73471 0.24929 0.0
C1413 C 0.66965 0.73588 0.22506 0.0
C1414 C 0.69003 0.7333 0.21255 0.0
C1415 C 0.71207 0.73108 0.22378 0.0
H1416 H 0.03996 0.17796 0.63881 0.0
H1417 H 0.0219 0.20935 0.57212 0.0
H1418 H 0.04567 0.13767 0.621 0.0
H1419 H 0.02682 0.16897 0.55438 0.0
H1420 H 0.05814 0.09897 0.52556 0.0
H1421 H 0.05481 0.13934 0.54404 0.0
H1422 H 0.02587 0.10373 0.60317 0.0
H1423 H 0.02997 0.06349 0.58507 0.0
C1424 C 0.03697 0.17623 0.62036 0.0
C1425 C 0.03044 0.19697 0.60694 0.0
C1426 C 0.04017 0.15304 0.61011 0.0
C1427 C 0.03678 0.14987 0.58614 0.0
C1428 C 0.03005 0.17064 0.57279 0.0
C1429 C 0.02701 0.19385 0.58302 0.0
C1430 C 0.05127 0.09975 0.54259 0.0
C1431 C 0.04437 0.0779 0.55379 0.0
C1432 C 0.04914 0.12297 0.55316 0.0
C1433 C 0.03992 0.12501 0.57515 0.0
C1434 C 0.03335 0.10305 0.58642 0.0
C1435 C 0.03561 0.07987 0.57593 0.0
H1436 H 0.52759 0.2732 0.33311 0.0
H1437 H 0.55825 0.31566 0.39 0.0
H1438 H 0.5632 0.27915 0.3122 0.0
H1439 H 0.59367 0.32214 0.36881 0.0
H1440 H 0.62668 0.30263 0.27442 0.0
H1441 H 0.58952 0.30772 0.29313 0.0
H1442 H 0.62472 0.29437 0.35922 0.0
H1443 H 0.6615 0.28926 0.3407 0.0
C1444 C 0.54176 0.28418 0.34099 0.0
C1445 C 0.54025 0.29362 0.36337 0.0
C1446 C 0.56212 0.28777 0.32891 0.0
C1447 C 0.58135 0.30095 0.33893 0.0
C1448 C 0.5793 0.31154 0.36079 0.0
C1449 C 0.55899 0.30787 0.37291 0.0
C1450 C 0.62646 0.30106 0.29296 0.0
C1451 C 0.64705 0.29548 0.30605 0.0
C1452 C 0.60521 0.30397 0.30367 0.0
C1453 C 0.60415 0.30137 0.32765 0.0
C1454 C 0.62495 0.29692 0.34077 0.0
C1455 C 0.64612 0.29401 0.33011 0.0
H1456 H 0.52068 0.80478 0.10177 0.0
H1457 H 0.5613 0.84417 0.15467 0.0
H1458 H 0.51878 0.84255 0.07846 0.0
H1459 H 0.56018 0.88149 0.1312 0.0
H1460 H 0.53183 0.95113 0.09758 0.0
H1461 H 0.53387 0.91258 0.11912 0.0
H1462 H 0.53968 0.87172 0.05582 0.0
H1463 H 0.53678 0.91055 0.03408 0.0
C1464 C 0.52944 0.82141 0.10831 0.0
C1465 C 0.54098 0.82147 0.13019 0.0
C1466 C 0.52845 0.84308 0.09489 0.0
C1467 C 0.53911 0.8653 0.10295 0.0
C1468 C 0.55123 0.86501 0.12457 0.0
C1469 C 0.55203 0.84349 0.13802 0.0
C1470 C 0.53355 0.93395 0.08819 0.0
C1471 C 0.53424 0.93401 0.06406 0.0
C1472 C 0.5349 0.91175 0.1006 0.0
C1473 C 0.53721 0.88887 0.08933 0.0
C1474 C 0.53771 0.88889 0.06513 0.0
C1475 C 0.53618 0.91118 0.05264 0.0
H1476 H 0.91981 0.80558 0.81725 0.0
H1477 H 0.89246 0.84708 0.87337 0.0
H1478 H 0.88258 0.81009 0.79545 0.0
H1479 H 0.8557 0.85261 0.85127 0.0
H1480 H 0.7853 0.82514 0.82241 0.0
H1481 H 0.82382 0.82628 0.84111 0.0
H1482 H 0.85484 0.83669 0.77529 0.0
H1483 H 0.8157 0.83459 0.75617 0.0
C1484 C 0.90595 0.81601 0.82476 0.0
C1485 C 0.90884 0.82561 0.84715 0.0
C1486 C 0.88468 0.81877 0.81219 0.0
C1487 C 0.86603 0.83146 0.82171 0.0
C1488 C 0.86948 0.84218 0.84365 0.0
C1489 C 0.89056 0.83908 0.85631 0.0
C1490 C 0.80025 0.8278 0.81179 0.0
C1491 C 0.79742 0.82971 0.78773 0.0
C1492 C 0.82243 0.8287 0.82262 0.0
C1493 C 0.84248 0.8318 0.80976 0.0
C1494 C 0.83973 0.83408 0.78567 0.0
C1495 C 0.81736 0.83301 0.77473 0.0
H1496 H 0.90428 0.04038 0.84498 0.0
H1497 H 0.94665 0.97617 0.83233 0.0
H1498 H 0.92756 0.04883 0.88009 0.0
H1499 H 0.96977 0.98447 0.86791 0.0
H1500 H 0.02152 0.02455 0.9184 0.0
H1501 H -0.00181 0.0161 0.88307 0.0
H1502 H 0.93489 0.03117 0.91836 0.0
H1503 H 0.95813 0.04003 0.95352 0.0
C1504 C 0.91845 0.02792 0.84979 0.0
C1505 C 0.92365 0.00759 0.83584 0.0
C1506 C 0.93173 0.03273 0.86998 0.0
C1507 C 0.9505 0.01735 0.87671 0.0
C1508 C 0.95557 0.99683 0.86295 0.0
C1509 C 0.94223 0.99197 0.8427 0.0
C1510 C 0.00264 0.02629 0.91855 0.0
C1511 C 0.99166 0.03303 0.93873 0.0
C1512 C 0.98929 0.0212 0.89839 0.0
C1513 C 0.96473 0.02284 0.89801 0.0
C1514 C 0.95381 0.02997 0.91809 0.0
C1515 C 0.96713 0.03502 0.93823 0.0
H1516 H 0.75581 0.19419 0.52632 0.0
H1517 H 0.80117 0.14503 0.56606 0.0
H1518 H 0.74723 0.21663 0.56116 0.0
H1519 H 0.7936 0.16817 0.60076 0.0
H1520 H 0.75866 0.1961 0.66243 0.0
H1521 H 0.7641 0.17431 0.62676 0.0
H1522 H 0.76182 0.24396 0.58981 0.0
H1523 H 0.75433 0.2656 0.62529 0.0
C1524 C 0.7643 0.18847 0.54246 0.0
C1525 C 0.7791 0.16779 0.54348 0.0
C1526 C 0.75942 0.20138 0.56247 0.0
C1527 C 0.76951 0.19412 0.5839 0.0
C1528 C 0.78498 0.17392 0.58471 0.0
C1529 C 0.78955 0.16079 0.56477 0.0
C1530 C 0.7586 0.20678 0.64666 0.0
C1531 C 0.75609 0.23272 0.64689 0.0
C1532 C 0.76225 0.19428 0.62618 0.0
C1533 C 0.7639 0.20737 0.60538 0.0
C1534 C 0.76059 0.23319 0.60544 0.0
C1535 C 0.75657 0.24568 0.6259 0.0
H1536 H 0.66125 0.95552 0.40272 0.0
H1537 H 0.59697 0.973 0.36428 0.0
H1538 H 0.63933 0.94934 0.43722 0.0
H1539 H 0.57496 0.9663 0.39876 0.0
H1540 H 0.5547 0.99066 0.47201 0.0
H1541 H 0.57169 0.9887 0.43458 0.0
H1542 H 0.61026 0.9234 0.45589 0.0
H1543 H 0.5935 0.92564 0.49377 0.0
C1544 C 0.64241 0.9578 0.40157 0.0
C1545 C 0.63089 0.96503 0.38082 0.0
C1546 C 0.6298 0.954 0.42131 0.0
C1547 C 0.60539 0.95731 0.42074 0.0
C1548 C 0.59378 0.96385 0.39981 0.0
C1549 C 0.6064 0.96768 0.38006 0.0
C1550 C 0.56648 0.97559 0.46862 0.0
C1551 C 0.57298 0.95847 0.48595 0.0
C1552 C 0.57612 0.97439 0.44707 0.0
C1553 C 0.59252 0.95605 0.44233 0.0
C1554 C 0.59794 0.93798 0.45918 0.0
C1555 C 0.58819 0.93913 0.48078 0.0
H1556 H 0.77239 0.85571 0.05538 0.0
H1557 H 0.81682 0.90665 0.09517 0.0
H1558 H 0.77856 0.82411 0.08503 0.0
H1559 H 0.82231 0.87551 0.12506 0.0
H1560 H 0.84021 0.81067 0.1703 0.0
H1561 H 0.83919 0.83655 0.13576 0.0
H1562 H 0.76594 0.81766 0.12319 0.0
H1563 H 0.76719 0.79151 0.15725 0.0
C1564 C 0.7835 0.86013 0.07042 0.0
C1565 C 0.79396 0.88371 0.07304 0.0
C1566 C 0.78698 0.84207 0.08744 0.0
C1567 C 0.80083 0.84732 0.10749 0.0
C1568 C 0.81183 0.87069 0.10971 0.0
C1569 C 0.80851 0.88864 0.09264 0.0
C1570 C 0.82401 0.81192 0.15996 0.0
C1571 C 0.80379 0.79916 0.16644 0.0
C1572 C 0.82338 0.82676 0.14024 0.0
C1573 C 0.80244 0.82929 0.12678 0.0
C1574 C 0.78246 0.81582 0.13291 0.0
C1575 C 0.78315 0.80086 0.15248 0.0
H1576 H 0.9045 0.97793 0.71797 0.0
H1577 H 0.96391 0.02338 0.74069 0.0
H1578 H 0.92631 0.96322 0.68572 0.0
H1579 H 0.98554 0.00898 0.70818 0.0
H1580 H 0.02447 0.9678 0.65473 0.0
H1581 H 0.00381 0.973 0.69028 0.0
H1582 H 0.93884 0.98305 0.65054 0.0
H1583 H 0.95932 0.97813 0.61525 0.0
C1584 C 0.92225 0.98469 0.71616 0.0
C1585 C 0.93239 0.00205 0.73174 0.0
C1586 C 0.93472 0.97628 0.69766 0.0
C1587 C 0.95759 0.98503 0.69434 0.0
C1588 C 0.96805 0.00167 0.71041 0.0
C1589 C 0.95557 0.01009 0.72893 0.0
C1590 C 0.00573 0.97086 0.65364 0.0
C1591 C 0.99358 0.97264 0.63214 0.0
C1592 C 0.99392 0.97385 0.67397 0.0
C1593 C 0.96973 0.97859 0.67319 0.0
C1594 C 0.95742 0.97909 0.65175 0.0
C1595 C 0.9692 0.97618 0.63148 0.0
H1596 H 0.73534 0.16963 0.45121 0.0
H1597 H 0.79018 0.12502 0.42437 0.0
H1598 H 0.73585 0.19614 0.41731 0.0
H1599 H 0.78978 0.15039 0.38978 0.0
H1600 H 0.7995 0.20972 0.33778 0.0
H1601 H 0.80038 0.18827 0.37466 0.0
H1602 H 0.72563 0.19902 0.37857 0.0
H1603 H 0.72525 0.22184 0.3425 0.0
C1604 C 0.74722 0.16525 0.43783 0.0
C1605 C 0.7627 0.14526 0.44038 0.0
C1606 C 0.7475 0.18042 0.41831 0.0
C1607 C 0.76294 0.17561 0.40067 0.0
C1608 C 0.77807 0.1552 0.40316 0.0
C1609 C 0.77814 0.14041 0.42289 0.0
C1610 C 0.78339 0.2079 0.34683 0.0
C1611 C 0.76233 0.21744 0.33731 0.0
C1612 C 0.78378 0.1953 0.36784 0.0
C1613 C 0.76299 0.19138 0.37955 0.0
C1614 C 0.74208 0.20182 0.37033 0.0
C1615 C 0.74181 0.21492 0.34957 0.0
H1616 H 0.62333 0.9729 0.24134 0.0
H1617 H 0.57512 0.02056 0.27505 0.0
H1618 H 0.60836 0.98768 0.20407 0.0
H1619 H 0.56071 0.03615 0.23772 0.0
H1620 H 0.52491 0.03717 0.16464 0.0
H1621 H 0.53881 0.02577 0.20332 0.0
H1622 H 0.60986 0.02371 0.18069 0.0
H1623 H 0.59579 0.03334 0.14176 0.0
C1624 C 0.60946 0.9865 0.24076 0.0
C1625 C 0.60039 0.99555 0.2611 0.0
C1626 C 0.60108 0.99524 0.2194 0.0
C1627 C 0.58363 0.01349 0.21787 0.0
C1628 C 0.57407 0.02202 0.23824 0.0
C1629 C 0.5823 0.01304 0.25964 0.0
C1630 C 0.54353 0.03441 0.16795 0.0
C1631 C 0.55915 0.03575 0.14995 0.0
C1632 C 0.55153 0.02807 0.19021 0.0
C1633 C 0.5754 0.02324 0.19503 0.0
C1634 C 0.59125 0.02657 0.17743 0.0
C1635 C 0.58322 0.03261 0.15514 0.0
H1636 H 0.78193 0.94414 0.9624 0.0
H1637 H 0.81611 0.8752 0.98074 0.0
H1638 H 0.76315 0.92433 0.92873 0.0
H1639 H 0.79718 0.85542 0.94701 0.0
H1640 H 0.70988 0.87172 0.89153 0.0
H1641 H 0.73164 0.89209 0.92348 0.0
H1642 H 0.79502 0.85591 0.90432 0.0
H1643 H 0.77356 0.83593 0.87232 0.0
C1644 C 0.78576 0.92487 0.95908 0.0
C1645 C 0.80036 0.91119 0.97443 0.0
C1646 C 0.77479 0.91348 0.9399 0.0
C1647 C 0.77833 0.88822 0.93551 0.0
C1648 C 0.79409 0.87493 0.94999 0.0
C1649 C 0.80498 0.88629 0.96929 0.0
C1650 C 0.72844 0.86811 0.89416 0.0
C1651 C 0.73986 0.85196 0.8795 0.0
C1652 C 0.74092 0.87983 0.91238 0.0
C1653 C 0.76506 0.87563 0.91632 0.0
C1654 C 0.7764 0.85927 0.90188 0.0
C1655 C 0.76399 0.84767 0.88363 0.0
H1656 H 0.81798 0.04622 0.02116 0.0
H1657 H 0.81756 0.00907 0.08684 0.0
H1658 H 0.85029 0.07255 0.03529 0.0
H1659 H 0.84895 0.03646 0.10167 0.0
H1660 H 0.91809 0.10161 0.05144 0.0
H1661 H 0.87634 0.0992 0.05865 0.0
H1662 H 0.88656 0.02653 0.08879 0.0
H1663 H 0.92712 0.02834 0.08092 0.0
C1664 C 0.82408 0.04459 0.03899 0.0
C1665 C 0.81617 0.02513 0.05269 0.0
C1666 C 0.84245 0.05988 0.04727 0.0
C1667 C 0.85281 0.05593 0.06939 0.0
C1668 C 0.84185 0.03936 0.0843 0.0
C1669 C 0.824 0.02362 0.07582 0.0
C1670 C 0.91144 0.08533 0.06003 0.0
C1671 C 0.9259 0.06471 0.0646 0.0
C1672 C 0.88757 0.08412 0.06439 0.0
C1673 C 0.87794 0.0624 0.07365 0.0
C1674 C 0.89318 0.04361 0.08159 0.0
C1675 C 0.91681 0.04465 0.07696 0.0
H1676 H 0.37252 0.60553 0.9745 0.0
H1677 H 0.33727 0.54168 0.00247 0.0
H1678 H 0.40957 0.58375 0.97758 0.0
H1679 H 0.3746 0.51965 0.00533 0.0
H1680 H 0.45182 0.50647 0.03459 0.0
H1681 H 0.41227 0.52288 0.02845 0.0
H1682 H 0.42989 0.54875 0.96104 0.0
H1683 H 0.46939 0.53276 0.96723 0.0
C1684 C 0.37263 0.58674 0.98113 0.0
C1685 C 0.35193 0.57538 0.98829 0.0
C1686 C 0.39388 0.57417 0.98275 0.0
C1687 C 0.39503 0.54993 0.99163 0.0
C1688 C 0.37429 0.53838 -0.00144 0.0
C1689 C 0.35291 0.55095 0.9968 0.0
C1690 C 0.44715 0.51538 0.01834 0.0
C1691 C 0.46385 0.51857 0.00151 0.0
C1692 C 0.42446 0.52468 0.01479 0.0
C1693 C 0.41804 0.53736 0.99436 0.0
C1694 C 0.43443 0.53947 0.97713 0.0
C1695 C 0.45704 0.5302 0.98066 0.0
H1696 H 0.20326 0.54155 0.77329 0.0
H1697 H 0.1466 0.58639 0.79626 0.0
H1698 H 0.22324 0.57859 0.76009 0.0
H1699 H 0.16717 0.62373 0.78435 0.0
H1700 H 0.19878 0.68604 0.74557 0.0
H1701 H 0.17824 0.64711 0.75267 0.0
H1702 H 0.24429 0.61314 0.77325 0.0
H1703 H 0.26474 0.65151 0.76484 0.0
C1704 C 0.19528 0.55943 0.77586 0.0
C1705 C 0.17345 0.56117 0.78589 0.0
C1706 C 0.20675 0.5807 0.76832 0.0
C1707 C 0.19686 0.60424 0.77108 0.0
C1708 C 0.1751 0.60591 0.78142 0.0
C1709 C 0.1634 0.58456 0.78853 0.0
C1710 C 0.20888 0.67003 0.75112 0.0
C1711 C 0.23331 0.67177 0.75468 0.0
C1712 C 0.19712 0.6478 0.75548 0.0
C1713 C 0.20952 0.62702 0.76393 0.0
C1714 C 0.23412 0.62857 0.76651 0.0
C1715 C 0.2459 0.65064 0.76172 0.0
H1716 H 0.20594 0.45599 0.57252 0.0
H1717 H 0.15822 0.39352 0.57364 0.0
H1718 H 0.17801 0.47849 0.54726 0.0
H1719 H 0.13017 0.41593 0.54865 0.0
H1720 H 0.08548 0.45686 0.49804 0.0
H1721 H 0.12208 0.43616 0.50964 0.0
H1722 H 0.13878 0.49517 0.55795 0.0
H1723 H 0.10234 0.51575 0.54648 0.0
C1724 C 0.18977 0.44686 0.56678 0.0
C1725 C 0.1842 0.42306 0.57481 0.0
C1726 C 0.17376 0.45973 0.55247 0.0
C1727 C 0.15198 0.44891 0.54595 0.0
C1728 C 0.14698 0.42458 0.55309 0.0
C1729 C 0.16288 0.41185 0.56757 0.0
C1730 C 0.09735 0.46579 0.51058 0.0
C1731 C 0.09096 0.48771 0.52161 0.0
C1732 C 0.1182 0.45388 0.51729 0.0
C1733 C 0.1331 0.46394 0.53484 0.0
C1734 C 0.12771 0.48705 0.54427 0.0
C1735 C 0.10677 0.49877 0.5378 0.0
H1736 H 0.79414 0.01058 0.73233 0.0
H1737 H 0.81631 0.97453 0.79595 0.0
H1738 H 0.75842 0.98515 0.73054 0.0
H1739 H 0.78097 0.94914 0.79404 0.0
H1740 H 0.71924 0.90492 0.7916 0.0
H1741 H 0.73788 0.94574 0.79394 0.0
H1742 H 0.75499 0.94031 0.72256 0.0
H1743 H 0.73607 0.89986 0.72006 0.0
C1744 C 0.79122 -0.00247 0.74611 0.0
C1745 C 0.80822 0.99415 0.76404 0.0
C1746 C 0.77075 0.98307 0.7451 0.0
C1747 C 0.7669 0.96516 0.76211 0.0
C1748 C 0.78321 0.96303 0.78083 0.0
C1749 C 0.80367 0.97734 0.78176 0.0
C1750 C 0.72615 0.91286 0.77616 0.0
C1751 C 0.72698 0.89884 0.75587 0.0
C1752 C 0.73688 0.93621 0.77754 0.0
C1753 C 0.74852 0.94581 0.75865 0.0
C1754 C 0.74629 0.93336 0.73746 0.0
C1755 C 0.73555 0.91003 0.73607 0.0
H1756 H 0.73664 0.07561 0.56849 0.0
H1757 H 0.73083 0.04385 0.5003 0.0
H1758 H 0.70085 0.05367 0.57851 0.0
H1759 H 0.6952 0.02148 0.51063 0.0
H1760 H 0.64334 0.96919 0.54823 0.0
H1761 H 0.68232 0.98707 0.54215 0.0
H1762 H 0.65726 0.0594 0.56032 0.0
H1763 H 0.61829 0.04179 0.56581 0.0
C1764 C 0.72792 0.06368 0.55575 0.0
C1765 C 0.73646 0.06153 0.53356 0.0
C1766 C 0.70745 0.05118 0.56151 0.0
C1767 C 0.69541 0.03591 0.54535 0.0
C1768 C 0.70435 0.03302 0.52343 0.0
C1769 C 0.7246 0.04592 0.51749 0.0
C1770 C 0.64632 0.98882 0.55129 0.0
C1771 C 0.62788 0.00415 0.55749 0.0
C1772 C 0.6685 -0.00098 0.54766 0.0
C1773 C 0.67265 0.02455 0.55075 0.0
C1774 C 0.65448 0.03963 0.55796 0.0
C1775 C 0.63223 0.02957 0.56106 0.0
H1776 H 0.2168 0.4416 0.78809 0.0
H1777 H 0.17097 0.39058 0.82235 0.0
H1778 H 0.24546 0.4088 0.78453 0.0
H1779 H 0.19932 0.35765 0.81824 0.0
H1780 H 0.25943 0.30606 0.822 0.0
H1781 H 0.23765 0.34324 0.83071 0.0
H1782 H 0.24869 0.37131 0.76238 0.0
H1783 H 0.27104 0.33446 0.7539 0.0
C1784 C 0.21285 0.42338 0.79489 0.0
C1785 C 0.19154 0.41862 0.80538 0.0
C1786 C 0.22926 0.40459 0.79278 0.0
C1787 C 0.22468 0.38061 0.80106 0.0
C1788 C 0.20358 0.37602 0.812 0.0
C1789 C 0.18722 0.39485 0.8142 0.0
C1790 C 0.2576 0.32041 0.80899 0.0
C1791 C 0.26671 0.31723 0.78717 0.0
C1792 C 0.24497 0.34161 0.81393 0.0
C1793 C 0.24107 0.36002 0.79711 0.0
C1794 C 0.25148 0.35756 0.77578 0.0
C1795 C 0.26426 0.33639 0.77089 0.0
H1796 H 0.40282 0.62164 0.30647 0.0
H1797 H 0.34801 0.5768 0.27322 0.0
H1798 H 0.37717 0.65756 0.30425 0.0
H1799 H 0.32219 0.61237 0.27172 0.0
H1800 H 0.29634 0.68869 0.24625 0.0
H1801 H 0.31851 0.65072 0.25138 0.0
H1802 H 0.34214 0.67456 0.31952 0.0
H1803 H 0.32049 0.71303 0.31409 0.0
C1804 C 0.38527 0.61943 0.29881 0.0
C1805 C 0.3775 0.59648 0.28986 0.0
C1806 C 0.3705 0.63993 0.29774 0.0
C1807 C 0.34761 0.63778 0.28786 0.0
C1808 C 0.33981 0.61472 0.27915 0.0
C1809 C 0.35462 0.59433 0.28005 0.0
C1810 C 0.30593 0.68567 0.26249 0.0
C1811 C 0.30686 0.70394 0.27968 0.0
C1812 C 0.31861 0.66385 0.26545 0.0
C1813 C 0.33232 0.65977 0.28576 0.0
C1814 C 0.33215 0.67743 0.30348 0.0
C1815 C 0.31959 0.69935 0.30045 0.0
H1816 H 0.58506 0.64613 0.61922 0.0
H1817 H 0.53092 0.70024 0.60533 0.0
H1818 H 0.57776 0.62858 0.58136 0.0
H1819 H 0.52361 0.68267 0.56688 0.0
H1820 H 0.56192 0.59007 0.52179 0.0
H1821 H 0.57496 0.62904 0.53948 0.0
H1822 H 0.50435 0.64252 0.55987 0.0
H1823 H 0.49125 0.60415 0.54175 0.0
C1824 C 0.57194 0.65464 0.6078 0.0
C1825 C 0.55805 0.674 0.61541 0.0
C1826 C 0.568 0.64486 0.58587 0.0
C1827 C 0.54992 0.6541 0.57113 0.0
C1828 C 0.53752 0.67506 0.57795 0.0
C1829 C 0.54164 0.68502 0.59995 0.0
C1830 C 0.54899 0.60189 0.52918 0.0
C1831 C 0.5258 0.59357 0.5314 0.0
C1832 C 0.55647 0.62423 0.53928 0.0
C1833 C 0.54089 0.63828 0.55187 0.0
C1834 C 0.5169 0.63201 0.55055 0.0
C1835 C 0.5094 0.60978 0.54034 0.0
H1836 H 0.63678 0.24028 0.8824 0.0
H1837 H 0.59212 0.26339 0.82462 0.0
H1838 H 0.67112 0.24688 0.85993 0.0
H1839 H 0.62682 0.27061 0.80209 0.0
H1840 H 0.69517 0.25929 0.76233 0.0
H1841 H 0.6593 0.25167 0.783 0.0
H1842 H 0.69379 0.27993 0.84529 0.0
H1843 H 0.72945 0.28696 0.82493 0.0
C1844 C 0.63423 0.24684 0.86487 0.0
C1845 C 0.61154 0.2514 0.85545 0.0
C1846 C 0.65406 0.25082 0.85196 0.0
C1847 C 0.65197 0.25962 0.82917 0.0
C1848 C 0.62922 0.26369 0.8195 0.0
C1849 C 0.60928 0.25965 0.83248 0.0
C1850 C 0.69504 0.26392 0.78043 0.0
C1851 C 0.71535 0.27363 0.79192 0.0
C1852 C 0.6744 0.25964 0.79229 0.0
C1853 C 0.67354 0.26492 0.81598 0.0
C1854 C 0.69377 0.27507 0.82724 0.0
C1855 C 0.7143 0.27929 0.81545 0.0
H1856 H 0.99762 0.27179 0.11476 0.0
H1857 H 0.03394 0.30856 0.17217 0.0
H1858 H 0.00353 0.30828 0.09093 0.0
H1859 H 0.03959 0.34519 0.1483 0.0
H1860 H 0.07435 0.38759 0.08955 0.0
H1861 H 0.06456 0.35319 0.11487 0.0
H1862 H 0.99353 0.3525 0.08594 0.0
H1863 H 0.00317 0.38692 0.06085 0.0
C1864 C 0.00641 0.28786 0.12244 0.0
C1865 C 0.01553 0.2872 0.14528 0.0
C1866 C 0.00978 0.30876 0.10878 0.0
C1867 C 0.02237 0.32938 0.11768 0.0
C1868 C 0.03024 0.32932 0.1409 0.0
C1869 C 0.02677 0.30845 0.15462 0.0
C1870 C 0.05667 0.38007 0.08861 0.0
C1871 C 0.03962 0.38983 0.07306 0.0
C1872 C 0.05102 0.36051 0.10318 0.0
C1873 C 0.02823 0.35032 0.10246 0.0
C1874 C 0.01128 0.35985 0.08672 0.0
C1875 C 0.01689 0.37943 0.07222 0.0
H1876 H 0.95056 0.74443 0.39106 0.0
H1877 H 0.98209 0.75556 0.32576 0.0
H1878 H 0.91188 0.74522 0.3722 0.0
H1879 H 0.94308 0.75509 0.30642 0.0
H1880 H 0.86752 0.77322 0.28099 0.0
H1881 H 0.90696 0.77539 0.2992 0.0
H1882 H 0.88645 0.72119 0.34955 0.0
H1883 H 0.8471 0.72008 0.33213 0.0
C1884 C 0.94923 0.7468 0.37256 0.0
C1885 C 0.96947 0.74973 0.35991 0.0
C1886 C 0.92693 0.74708 0.36164 0.0
C1887 C 0.9241 0.7498 0.33761 0.0
C1888 C 0.94441 0.75315 0.32494 0.0
C1889 C 0.96683 0.75328 0.336 0.0
C1890 C 0.87149 0.7619 0.29603 0.0
C1891 C 0.85406 0.74666 0.3052 0.0
C1892 C 0.89418 0.76298 0.30641 0.0
C1893 C 0.90008 0.74862 0.32607 0.0
C1894 C 0.88262 0.73308 0.33488 0.0
C1895 C 0.85996 0.73229 0.32475 0.0
H1896 H 0.56259 0.3228 0.91612 0.0
H1897 H 0.49239 0.31068 0.93884 0.0
H1898 H 0.56458 0.36244 0.93666 0.0
H1899 H 0.49438 0.35016 0.95922 0.0
H1900 H 0.51536 0.41117 0.01165 0.0
H1901 H 0.51483 0.37078 0.99255 0.0
H1902 H 0.5459 0.40397 0.93345 0.0
H1903 H 0.54649 0.4443 0.95249 0.0
C1904 C 0.54764 0.32849 0.92558 0.0
C1905 C 0.52732 0.31353 0.92576 0.0
C1906 C 0.54872 0.35129 0.93723 0.0
C1907 C 0.52961 0.35953 0.94957 0.0
C1908 C 0.50949 0.34431 0.95009 0.0
C1909 C 0.50832 0.3217 0.93827 0.0
C1910 C 0.52206 0.40987 0.99457 0.0
C1911 C 0.5309 0.43105 0.98362 0.0
C1912 C 0.52169 0.38672 0.98359 0.0
C1913 C 0.53037 0.38409 0.96147 0.0
C1914 C 0.53934 0.40524 0.95058 0.0
C1915 C 0.5395 0.42843 0.96146 0.0
H1916 H 0.98679 0.17485 0.21396 0.0
H1917 H 0.94456 0.16023 0.15187 0.0
H1918 H 0.95258 0.16811 0.2368 0.0
H1919 H 0.91021 0.15408 0.17471 0.0
H1920 H 0.85093 0.14308 0.22219 0.0
H1921 H 0.88822 0.13283 0.20548 0.0
H1922 H 0.92024 0.19767 0.23773 0.0
H1923 H 0.8834 0.20823 0.25371 0.0
C1924 C 0.9703 0.1697 0.20523 0.0
C1925 C 0.96816 0.16872 0.18111 0.0
C1926 C 0.95074 0.16582 0.21831 0.0
C1927 C 0.92866 0.16112 0.20749 0.0
C1928 C 0.92701 0.15764 0.18354 0.0
C1929 C 0.94667 0.16133 0.17043 0.0
C1930 C 0.86602 0.15499 0.22586 0.0
C1931 C 0.86408 0.17655 0.23923 0.0
C1932 C 0.88735 0.14902 0.2164 0.0
C1933 C 0.90714 0.16438 0.22038 0.0
C1934 C 0.90547 0.18513 0.23474 0.0
C1935 C 0.88423 0.1912 0.24396 0.0
H1936 H 0.02617 0.71109 0.46509 0.0
H1937 H 0.0522 0.67795 0.40384 0.0
H1938 H 0.02415 0.67039 0.48301 0.0
H1939 H 0.05087 0.63715 0.42207 0.0
H1940 H 0.02084 0.5652 0.45272 0.0
H1941 H 0.02434 0.60563 0.43417 0.0
H1942 H 0.04728 0.63807 0.49933 0.0
H1943 H 0.04307 0.59791 0.51792 0.0
C1944 C 0.0317 0.69514 0.4555 0.0
C1945 C 0.03936 0.69788 0.43299 0.0
C1946 C 0.03068 0.67172 0.46586 0.0
C1947 C 0.03741 0.65032 0.45408 0.0
C1948 C 0.04523 0.65309 0.4316 0.0
C1949 C 0.04616 0.67655 0.42118 0.0
C1950 C 0.02671 0.58095 0.46307 0.0
C1951 C 0.03155 0.57827 0.48686 0.0
C1952 C 0.02885 0.60417 0.45239 0.0
C1953 C 0.03599 0.6253 0.46521 0.0
C1954 C 0.04129 0.62242 0.48892 0.0
C1955 C 0.03902 0.59928 0.4996 0.0
H1956 H 0.6444 0.67686 0.71001 0.0
H1957 H 0.57919 0.69155 0.74179 0.0
H1958 H 0.65584 0.72042 0.71427 0.0
H1959 H 0.5905 0.73557 0.74604 0.0
H1960 H 0.6668 0.79844 0.7064 0.0
H1961 H 0.64258 0.76192 0.69813 0.0
H1962 H 0.62266 0.75965 0.7688 0.0
H1963 H 0.64687 0.79622 0.7772 0.0
C1964 C 0.63267 0.68951 0.71809 0.0
C1965 C 0.61113 0.68115 0.72576 0.0
C1966 C 0.63896 0.71446 0.72019 0.0
C1967 C 0.62379 0.73144 0.73004 0.0
C1968 C 0.60238 0.72287 0.73823 0.0
C1969 C 0.59599 0.69783 0.73593 0.0
C1970 C 0.65646 0.79085 0.71996 0.0
C1971 C 0.65941 0.79965 0.74264 0.0
C1972 C 0.6427 0.76982 0.71524 0.0
C1973 C 0.63147 0.75753 0.73304 0.0
C1974 C 0.63138 0.76864 0.75483 0.0
C1975 C 0.64522 0.78968 0.7596 0.0
H1976 H 0.62059 0.56455 0.68643 0.0
H1977 H 0.60157 0.49109 0.70945 0.0
H1978 H 0.59014 0.5618 0.65549 0.0
H1979 H 0.57148 0.48829 0.67829 0.0
H1980 H 0.52013 0.55205 0.61225 0.0
H1981 H 0.54297 0.55536 0.64908 0.0
H1982 H 0.579 0.4878 0.63353 0.0
H1983 H 0.55688 0.48496 0.59674 0.0
C1984 C 0.60981 0.54792 0.68498 0.0
C1985 C 0.6136 0.52793 0.70019 0.0
C1986 C 0.59227 0.54647 0.66745 0.0
C1987 C 0.5785 0.52486 0.66464 0.0
C1988 C 0.58187 0.50515 0.68019 0.0
C1989 C 0.5991 0.50677 0.69795 0.0
C1990 C 0.53256 0.53769 0.61706 0.0
C1991 C 0.53681 0.51823 0.60185 0.0
C1992 C 0.54568 0.53966 0.63794 0.0
C1993 C 0.56265 0.5218 0.64404 0.0
C1994 C 0.56587 0.50167 0.62931 0.0
C1995 C 0.55328 0.50007 0.6083 0.0
H1996 H 0.82593 0.41098 0.97676 0.0
H1997 H 0.78689 0.3456 0.99599 0.0
H1998 H 0.83197 0.39289 0.93923 0.0
H1999 H 0.79269 0.32765 0.95819 0.0
H2000 H 0.82368 0.2943 0.89459 0.0
H2001 H 0.82313 0.31138 0.93342 0.0
H2002 H 0.80696 0.38361 0.90498 0.0
H2003 H 0.8073 0.36661 0.86633 0.0
C2004 C 0.81865 0.39273 0.973 0.0
C2005 C 0.80576 0.37979 0.9893 0.0
C2006 C 0.82207 0.38241 0.95146 0.0
C2007 C 0.81273 0.35891 0.94572 0.0
C2008 C 0.80032 0.34569 0.9622 0.0
C2009 C 0.79686 0.35604 0.98379 0.0
C2010 C 0.82011 0.31385 0.89665 0.0
C2011 C 0.81549 0.32908 0.87736 0.0
C2012 C 0.81977 0.3236 0.91887 0.0
C2013 C 0.81489 0.3488 0.92224 0.0
C2014 C 0.81108 0.36419 0.90295 0.0
C2015 C 0.81135 0.35444 0.88077 0.0
H2016 H 0.91831 0.49659 0.16393 0.0
H2017 H 0.97976 0.50265 0.20985 0.0
H2018 H 0.942 0.50789 0.13155 0.0
H2019 H 0.00344 0.51381 0.17732 0.0
H2020 H 0.03538 0.49522 0.10492 0.0
H2021 H 0.01549 0.49081 0.14097 0.0
H2022 H 0.96543 0.5462 0.11831 0.0
H2023 H 0.98539 0.55081 0.08225 0.0
C2024 C 0.93688 0.50022 0.16709 0.0
C2025 C 0.9472 0.49866 0.1894 0.0
C2026 C 0.95036 0.50697 0.14861 0.0
C2027 C 0.97446 0.51198 0.15205 0.0
C2028 C 0.98487 0.5101 0.17428 0.0
C2029 C 0.97133 0.50369 0.19283 0.0
C2030 C 0.02054 0.50698 0.10791 0.0
C2031 C 0.01183 0.52323 0.09073 0.0
C2032 C 0.00918 0.50444 0.12853 0.0
C2033 C 0.98876 0.51789 0.13218 0.0
C2034 C 0.98099 0.5354 0.11571 0.0
C2035 C 0.99256 0.5382 0.0952 0.0
H2036 H 0.80007 0.58006 0.47624 0.0
H2037 H 0.83254 0.64844 0.5007 0.0
H2038 H 0.79299 0.59868 0.43838 0.0
H2039 H 0.825 0.66714 0.46311 0.0
H2040 H 0.82056 0.69057 0.38877 0.0
H2041 H 0.83341 0.66766 0.42305 0.0
H2042 H 0.76621 0.62999 0.42299 0.0
H2043 H 0.75346 0.6528 0.38837 0.0
C2044 C 0.80608 0.59891 0.47345 0.0
C2045 C 0.81665 0.61284 0.4916 0.0
C2046 C 0.80179 0.60965 0.45181 0.0
C2047 C 0.80804 0.63453 0.44781 0.0
C2048 C 0.82003 0.6479 0.46552 0.0
C2049 C 0.82434 0.63716 0.48714 0.0
C2050 C 0.80845 0.67751 0.39616 0.0
C2051 C 0.78584 0.67376 0.38609 0.0
C2052 C 0.81586 0.66432 0.41578 0.0
C2053 C 0.80083 0.64707 0.42586 0.0
C2054 C 0.77837 0.6429 0.41548 0.0
C2055 C 0.77098 0.65605 0.39574 0.0
H2056 H 0.61196 0.5896 0.79227 0.0
H2057 H 0.64834 0.52136 0.80846 0.0
H2058 H 0.59082 0.58571 0.82769 0.0
H2059 H 0.62738 0.51768 0.84387 0.0
H2060 H 0.56754 0.50432 0.89105 0.0
H2061 H 0.58647 0.50964 0.85468 0.0
H2062 H 0.59913 0.58707 0.87033 0.0
H2063 H 0.57957 0.5819 0.90661 0.0
C2064 C 0.61549 0.57382 0.8034 0.0
C2065 C 0.63177 0.55575 0.79755 0.0
C2066 C 0.60346 0.57168 0.8237 0.0
C2067 C 0.60738 0.55134 0.83844 0.0
C2068 C 0.62377 0.53337 0.83266 0.0
C2069 C 0.63588 0.53557 0.81245 0.0
C2070 C 0.57395 0.52259 0.88656 0.0
C2071 C 0.57203 0.54272 0.90166 0.0
C2072 C 0.58505 0.52555 0.86587 0.0
C2073 C 0.59444 0.54871 0.8598 0.0
C2074 C 0.59196 0.56903 0.87455 0.0
C2075 C 0.58093 0.56604 0.89536 0.0
H2076 H 0.72464 0.33112 0.09146 0.0
H2077 H 0.79669 0.34292 0.11526 0.0
H2078 H 0.71938 0.30137 0.12254 0.0
H2079 H 0.79135 0.31331 0.14636 0.0
H2080 H 0.78088 0.24492 0.18907 0.0
H2081 H 0.78401 0.26842 0.15348 0.0
H2082 H 0.71803 0.30369 0.16519 0.0
H2083 H 0.71476 0.28013 0.20074 0.0
C2084 C 0.73939 0.32729 0.10324 0.0
C2085 C 0.76107 0.33948 0.10093 0.0
C2086 C 0.73633 0.3103 0.12108 0.0
C2087 C 0.75494 0.30496 0.13687 0.0
C2088 C 0.77675 0.31678 0.13428 0.0
C2089 C 0.77976 0.3339 0.11656 0.0
C2090 C 0.76677 0.25729 0.18384 0.0
C2091 C 0.74765 0.26079 0.19787 0.0
C2092 C 0.76869 0.2709 0.16353 0.0
C2093 C 0.75144 0.28816 0.15671 0.0
C2094 C 0.73158 0.29048 0.16995 0.0
C2095 C 0.72972 0.27699 0.19034 0.0
H2096 H 0.95581 0.43111 0.28408 0.0
H2097 H 0.9191 0.49729 0.30306 0.0
H2098 H 0.97453 0.42932 0.32274 0.0
H2099 H 0.93783 0.4955 0.34134 0.0
H2100 H 0.9514 0.46896 0.41357 0.0
H2101 H 0.93451 0.4665 0.37461 0.0
H2102 H 0.00327 0.45457 0.34884 0.0
H2103 H 0.02032 0.45634 0.38824 0.0
C2104 C 0.95183 0.4453 0.29643 0.0
C2105 C 0.93585 0.46424 0.29059 0.0
C2106 C 0.9626 0.44431 0.31847 0.0
C2107 C 0.95738 0.4621 0.33503 0.0
C2108 C 0.94183 0.48129 0.329 0.0
C2109 C 0.93121 0.48238 0.30703 0.0
C2110 C 0.96291 0.46519 0.39973 0.0
C2111 C 0.98721 0.46282 0.40399 0.0
C2112 C 0.95325 0.46412 0.37738 0.0
C2113 C 0.96764 0.46068 0.35875 0.0
C2114 C 0.99181 0.45723 0.36296 0.0
C2115 C 0.00155 0.4584 0.38543 0.0
H2116 H 0.75926 0.6811 0.56768 0.0
H2117 H 0.82928 0.70361 0.5905 0.0
H2118 H 0.74372 0.71891 0.58394 0.0
H2119 H 0.8139 0.74036 0.6079 0.0
H2120 H 0.78628 0.80731 0.6371 0.0
H2121 H 0.79695 0.77892 0.60671 0.0
H2122 H 0.7363 0.73321 0.62029 0.0
H2123 H 0.72507 0.76258 0.64932 0.0
C2124 C 0.77133 0.69421 0.57608 0.0
C2125 C 0.79544 0.68928 0.57805 0.0
C2126 C 0.76244 0.71584 0.58552 0.0
C2127 C 0.77743 0.73274 0.59754 0.0
C2128 C 0.80171 0.7282 0.59849 0.0
C2129 C 0.8106 0.70688 0.58867 0.0
C2130 C 0.77488 0.79163 0.63285 0.0
C2131 C 0.75493 0.78699 0.64543 0.0
C2132 C 0.78109 0.77516 0.61569 0.0
C2133 C 0.76787 0.7533 0.61135 0.0
C2134 C 0.74689 0.74983 0.62285 0.0
C2135 C 0.74041 0.76664 0.63959 0.0
H2136 H 0.72378 0.58964 0.59416 0.0
H2137 H 0.76127 0.54934 0.54341 0.0
H2138 H 0.68749 0.5688 0.58117 0.0
H2139 H 0.72478 0.5284 0.53056 0.0
H2140 H 0.65175 0.48423 0.53029 0.0
H2141 H 0.6904 0.49915 0.5451 0.0
H2142 H 0.66575 0.57455 0.54133 0.0
H2143 H 0.62755 0.55991 0.52672 0.0
C2144 C 0.72439 0.576 0.58056 0.0
C2145 C 0.74532 0.5714 0.56959 0.0
C2146 C 0.7036 0.56417 0.57307 0.0
C2147 C 0.70339 0.54732 0.55468 0.0
C2148 C 0.72455 0.54135 0.54477 0.0
C2149 C 0.74537 0.5534 0.55209 0.0
C2150 C 0.65479 0.50398 0.53238 0.0
C2151 C 0.63674 0.52092 0.52716 0.0
C2152 C 0.6768 0.51247 0.54084 0.0
C2153 C 0.68081 0.53792 0.54462 0.0
C2154 C 0.66296 0.5548 0.53886 0.0
C2155 C 0.64121 0.54642 0.53016 0.0
H2156 H 0.23965 0.9683 0.54484 0.0
H2157 H 0.20329 0.90016 0.56087 0.0
H2158 H 0.20203 0.98996 0.54212 0.0
H2159 H 0.16608 0.9216 0.55805 0.0
H2160 H 0.10457 0.96964 0.57103 0.0
H2161 H 0.14402 0.95358 0.5779 0.0
H2162 H 0.16591 0.9893 0.51583 0.0
H2163 H 0.12646 0.00564 0.50901 0.0
C2164 C 0.2237 0.958 0.54791 0.0
C2165 C 0.22446 0.9325 0.55301 0.0
C2166 C 0.20218 0.97037 0.54626 0.0
C2167 C 0.1811 0.95751 0.54997 0.0
C2168 C 0.18201 0.93214 0.55544 0.0
C2169 C 0.20337 0.9198 0.55687 0.0
C2170 C 0.11784 0.97435 0.55897 0.0
C2171 C 0.11228 0.98872 0.53934 0.0
C2172 C 0.14043 0.96505 0.56287 0.0
C2173 C 0.15802 0.96996 0.54728 0.0
C2174 C 0.15279 0.98531 0.52823 0.0
C2175 C 0.13013 0.99456 0.52427 0.0
H2176 H 0.38287 0.89523 0.71578 0.0
H2177 H 0.33967 0.93958 0.75861 0.0
H2178 H 0.3605 0.85831 0.72582 0.0
H2179 H 0.31775 0.90262 0.76903 0.0
H2180 H 0.27009 0.83237 0.76339 0.0
H2181 H 0.29051 0.87086 0.75411 0.0
H2182 H 0.35681 0.83287 0.76014 0.0
H2183 H 0.33645 0.7944 0.76892 0.0
C2184 C 0.36851 0.89714 0.72718 0.0
C2185 C 0.36316 0.9203 0.7365 0.0
C2186 C 0.35585 0.87596 0.73312 0.0
C2187 C 0.33761 0.87751 0.74852 0.0
C2188 C 0.33165 0.90082 0.75709 0.0
C2189 C 0.34427 0.922 0.75112 0.0
C2190 C 0.28906 0.83238 0.76317 0.0
C2191 C 0.30165 0.81034 0.76672 0.0
C2192 C 0.30075 0.8544 0.75778 0.0
C2193 C 0.32523 0.85476 0.75594 0.0
C2194 C 0.33788 0.83302 0.76081 0.0
C2195 C 0.32623 0.81105 0.7661 0.0
H2196 H 0.33744 0.01562 0.01167 0.0
H2197 H 0.34616 0.0323 0.08403 0.0
H2198 H 0.37632 -0.00233 0.01238 0.0
H2199 H 0.38446 0.0126 0.08538 0.0
H2200 H 0.45012 0.97294 0.01607 0.0
H2201 H 0.40814 0.97187 0.02255 0.0
H2202 H 0.4179 0.03178 0.07162 0.0
H2203 H 0.45953 0.03195 0.06594 0.0
C2204 C 0.34725 0.01418 0.02799 0.0
C2205 C 0.33929 0.0257 0.04769 0.0
C2206 C 0.36955 0.00382 0.02847 0.0
C2207 C 0.38386 0.00451 0.0488 0.0
C2208 C 0.37422 0.01269 0.06925 0.0
C2209 C 0.35225 0.02372 0.0686 0.0
C2210 C 0.44319 0.98568 0.02839 0.0
C2211 C 0.45795 0.00278 0.04028 0.0
C2212 C 0.4192 0.98501 0.03215 0.0
C2213 C 0.40957 0.00166 0.04765 0.0
C2214 C 0.42463 0.0182 0.05999 0.0
C2215 C 0.44854 0.01862 0.05647 0.0
H2216 H 0.66079 0.6397 0.73328 0.0
H2217 H 0.72948 0.60836 0.74603 0.0
H2218 H 0.67586 0.68025 0.7454 0.0
H2219 H 0.74479 0.64956 0.75748 0.0
H2220 H 0.75552 0.73869 0.74101 0.0
H2221 H 0.74695 0.69455 0.73479 0.0
H2222 H 0.69434 0.69713 0.78567 0.0
H2223 H 0.70303 0.74105 0.79224 0.0
C2224 C 0.67915 0.64153 0.73841 0.0
C2225 C 0.69392 0.62087 0.73872 0.0
C2226 C 0.6877 0.66468 0.74549 0.0
C2227 C 0.71134 0.66782 0.75255 0.0
C2228 C 0.72644 0.64744 0.75221 0.0
C2229 C 0.7177 0.624 0.74563 0.0
C2230 C 0.74259 0.72965 0.75133 0.0
C2231 C 0.72979 0.74333 0.76698 0.0
C2232 C 0.73778 0.70444 0.7478 0.0
C2233 C 0.71989 0.69269 0.75962 0.0
C2234 C 0.70816 0.70593 0.77631 0.0
C2235 C 0.71322 0.731 0.78012 0.0
H2236 H 0.87823 0.39761 0.07608 0.0
H2237 H 0.83566 0.4554 0.04478 0.0
H2238 H 0.91343 0.41863 0.06369 0.0
H2239 H 0.87078 0.47592 0.03151 0.0
H2240 H 0.94229 0.5167 0.02893 0.0
H2241 H 0.9058 0.49836 0.04164 0.0
H2242 H 0.9326 0.42513 0.02897 0.0
H2243 H 0.96928 0.44345 0.01722 0.0
C2244 C 0.87641 0.4149 0.06667 0.0
C2245 C 0.85417 0.42477 0.06136 0.0
C2246 C 0.89657 0.42682 0.0593 0.0
C2247 C 0.89496 0.44873 0.04614 0.0
C2248 C 0.87274 0.45916 0.04166 0.0
C2249 C 0.85257 0.44737 0.04929 0.0
C2250 C 0.94016 0.49671 0.02845 0.0
C2251 C 0.95865 0.48149 0.02216 0.0
C2252 C 0.91926 0.48617 0.03581 0.0
C2253 C 0.91638 0.46022 0.03678 0.0
C2254 C 0.93444 0.44514 0.02915 0.0
C2255 C 0.95537 0.45564 0.02209 0.0
H2256 H 0.34046 0.04412 0.74662 0.0
H2257 H 0.39916 0.08902 0.72615 0.0
H2258 H 0.31593 0.08078 0.74648 0.0
H2259 H 0.37474 0.12583 0.72661 0.0
H2260 H 0.32187 0.18601 0.71476 0.0
H2261 H 0.34138 0.14677 0.70814 0.0
H2262 H 0.31345 0.11702 0.77039 0.0
H2263 H 0.29355 0.15587 0.77669 0.0
C2264 C 0.34814 0.06182 0.74208 0.0
C2265 C 0.37182 0.06372 0.7366 0.0
C2266 C 0.33407 0.08283 0.74205 0.0
C2267 C 0.3434 0.10622 0.73664 0.0
C2268 C 0.36693 0.10802 0.73056 0.0
C2269 C 0.38099 0.08696 0.73048 0.0
C2270 C 0.31956 0.17092 0.72679 0.0
C2271 C 0.30633 0.1741 0.74635 0.0
C2272 C 0.33087 0.14852 0.72309 0.0
C2273 C 0.32918 0.12889 0.73887 0.0
C2274 C 0.31495 0.13168 0.75778 0.0
C2275 C 0.30361 0.15402 0.76145 0.0
H2276 H 0.17284 0.93572 0.216 0.0
H2277 H 0.2308 0.97946 0.24492 0.0
H2278 H 0.19689 0.89879 0.21845 0.0
H2279 H 0.2551 0.94245 0.24689 0.0
H2280 H 0.2756 0.86491 0.27666 0.0
H2281 H 0.25656 0.90458 0.26967 0.0
H2282 H 0.23056 0.8788 0.20292 0.0
H2283 H 0.24913 0.83886 0.21012 0.0
C2284 C 0.19081 0.93752 0.22263 0.0
C2285 C 0.19985 0.96048 0.23042 0.0
C2286 C 0.20467 0.91636 0.22386 0.0
C2287 C 0.22792 0.91769 0.23284 0.0
C2288 C 0.23717 0.94079 0.24011 0.0
C2289 C 0.22327 0.96198 0.23891 0.0
C2290 C 0.2661 0.86781 0.26035 0.0
C2291 C 0.26362 0.84864 0.24406 0.0
C2292 C 0.25529 0.89062 0.2563 0.0
C2293 C 0.24184 0.89474 0.23584 0.0
C2294 C 0.24043 0.87601 0.21904 0.0
C2295 C 0.25118 0.85318 0.22312 0.0
H2296 H 0.44488 0.35497 0.45767 0.0
H2297 H 0.50501 0.3158 0.48652 0.0
H2298 H 0.45025 0.38659 0.48712 0.0
H2299 H 0.50991 0.34705 0.51664 0.0
H2300 H 0.53458 0.42957 0.52721 0.0
H2301 H 0.52456 0.38834 0.51347 0.0
H2302 H 0.45161 0.40122 0.5261 0.0
H2303 H 0.46164 0.44313 0.53926 0.0
C2304 C 0.45888 0.35277 0.47069 0.0
C2305 C 0.4749 0.3333 0.46945 0.0
C2306 C 0.46182 0.37078 0.48778 0.0
C2307 C 0.48071 0.36953 0.5041 0.0
C2308 C 0.49547 0.34881 0.50403 0.0
C2309 C 0.49268 0.33094 0.48678 0.0
C2310 C 0.51646 0.42344 0.52762 0.0
C2311 C 0.4988 0.43982 0.53367 0.0
C2312 C 0.51071 0.39962 0.51993 0.0
C2313 C 0.48718 0.39163 0.51823 0.0
C2314 C 0.46983 0.40707 0.52672 0.0
C2315 C 0.4756 0.43101 0.53438 0.0
H2316 H 0.47361 0.74859 0.21146 0.0
H2317 H 0.44351 0.78272 0.14992 0.0
H2318 H 0.43668 0.75465 0.23055 0.0
H2319 H 0.40709 0.78915 0.16897 0.0
H2320 H 0.33706 0.76998 0.19939 0.0
H2321 H 0.37457 0.76548 0.18183 0.0
H2322 H 0.41054 0.78577 0.24604 0.0
H2323 H 0.37269 0.78986 0.26388 0.0
C2324 C 0.4592 0.75746 0.20202 0.0
C2325 C 0.46157 0.76498 0.17906 0.0
C2326 C 0.43805 0.7611 0.21302 0.0
C2327 C 0.41874 0.77229 0.20131 0.0
C2328 C 0.42134 0.78007 0.17847 0.0
C2329 C 0.44237 0.77646 0.16753 0.0
C2330 C 0.35291 0.77369 0.20981 0.0
C2331 C 0.35174 0.7804 0.23309 0.0
C2332 C 0.37452 0.77119 0.19966 0.0
C2333 C 0.39573 0.7753 0.21243 0.0
C2334 C 0.39462 0.7822 0.2357 0.0
C2335 C 0.37289 0.78479 0.24589 0.0
H2336 H 0.01564 0.76242 0.94381 0.0
H2337 H 0.96674 0.72924 0.8937 0.0
H2338 H 0.01637 0.72399 0.96572 0.0
H2339 H 0.96802 0.69039 0.91531 0.0
H2340 H 0.96033 0.63104 0.97075 0.0
H2341 H 0.957 0.67089 0.95079 0.0
H2342 H 0.03158 0.6831 0.96217 0.0
H2343 H 0.03475 0.64369 0.98233 0.0
C2344 C 0.00512 0.74686 0.93741 0.0
C2345 C 0.99123 0.7488 0.91696 0.0
C2346 C 0.00561 0.72478 0.94993 0.0
C2347 C 0.99238 0.70406 0.9422 0.0
C2348 C 0.97821 0.7061 0.92189 0.0
C2349 C 0.97759 0.7283 0.90942 0.0
C2350 C 0.97594 0.64235 0.96901 0.0
C2351 C 0.99776 0.63437 0.97823 0.0
C2352 C 0.97407 0.66509 0.95752 0.0
C2353 C 0.99401 0.6802 0.95492 0.0
C2354 C 0.01578 0.67219 0.96426 0.0
C2355 C 0.01762 0.64958 0.97583 0.0
H2356 H 0.0909 0.26301 0.71174 0.0
H2357 H 0.1209 0.23924 0.64873 0.0
H2358 H 0.12962 0.26022 0.7316 0.0
H2359 H 0.15907 0.23597 0.66846 0.0
H2360 H 0.22902 0.25809 0.7028 0.0
H2361 H 0.19005 0.26115 0.68447 0.0
H2362 H 0.15984 0.23153 0.7456 0.0
H2363 H 0.19906 0.22896 0.76423 0.0
C2364 C 0.10568 0.25716 0.70213 0.0
C2365 C 0.10268 0.2515 0.67856 0.0
C2366 C 0.12789 0.25539 0.71355 0.0
C2367 C 0.14767 0.24799 0.70168 0.0
C2368 C 0.14449 0.24219 0.67817 0.0
C2369 C 0.12242 0.24395 0.66682 0.0
C2370 C 0.21414 0.2521 0.71238 0.0
C2371 C 0.21734 0.24315 0.73502 0.0
C2372 C 0.19167 0.25377 0.70178 0.0
C2373 C 0.17161 0.2465 0.71343 0.0
C2374 C 0.17478 0.23756 0.73612 0.0
C2375 C 0.19733 0.23587 0.74676 0.0
H2376 H 0.54436 0.67025 0.13628 0.0
H2377 H 0.51486 0.70294 0.0738 0.0
H2378 H 0.54904 0.63109 0.11622 0.0
H2379 H 0.51883 0.66356 0.05389 0.0
H2380 H 0.5482 0.5958 0.01853 0.0
H2381 H 0.54609 0.63551 0.03852 0.0
H2382 H 0.52752 0.59704 0.10043 0.0
H2383 H 0.53036 0.55757 0.08075 0.0
C2384 C 0.53868 0.66905 0.1183 0.0
C2385 C 0.52918 0.68981 0.10671 0.0
C2386 C 0.54128 0.64649 0.10677 0.0
C2387 C 0.53431 0.64397 0.08334 0.0
C2388 C 0.52477 0.66478 0.07178 0.0
C2389 C 0.5223 0.68738 0.08329 0.0
C2390 C 0.54386 0.59584 0.03646 0.0
C2391 C 0.5395 0.57342 0.04799 0.0
C2392 C 0.54245 0.61865 0.04792 0.0
C2393 C 0.53656 0.61966 0.07117 0.0
C2394 C 0.53246 0.59715 0.08268 0.0
C2395 C 0.53397 0.57441 0.0713 0.0
H2396 H 0.03846 0.82939 0.82735 0.0
H2397 H 0.03777 0.74926 0.82996 0.0
H2398 H 0.07571 0.82867 0.80842 0.0
H2399 H 0.07531 0.74851 0.81203 0.0
H2400 H 0.13429 0.75081 0.76539 0.0
H2401 H 0.09464 0.75524 0.77776 0.0
H2402 H 0.11589 0.82035 0.81699 0.0
H2403 H 0.15527 0.81712 0.80305 0.0
C2404 C 0.04627 0.81163 0.82388 0.0
C2405 C 0.03521 0.78938 0.83015 0.0
C2406 C 0.06769 0.81122 0.81315 0.0
C2407 C 0.07859 0.78855 0.80869 0.0
C2408 C 0.06727 0.76631 0.81474 0.0
C2409 C 0.04577 0.76673 0.82519 0.0
C2410 C 0.13046 0.76654 0.77609 0.0
C2411 C 0.14815 0.78356 0.78326 0.0
C2412 C 0.10771 0.76881 0.78354 0.0
C2413 C 0.10209 0.7879 0.79869 0.0
C2414 C 0.11952 0.80547 0.80523 0.0
C2415 C 0.14224 0.8034 0.79749 0.0
H2416 H 0.04692 0.35689 0.64773 0.0
H2417 H 0.01291 0.30997 0.59595 0.0
H2418 H 0.04041 0.39286 0.6232 0.0
H2419 H 0.00566 0.34632 0.57148 0.0
H2420 H 0.01838 0.41561 0.52526 0.0
H2421 H 0.02315 0.3777 0.54813 0.0
H2422 H 0.01005 0.41916 0.60966 0.0
H2423 H 0.00612 0.4569 0.58701 0.0
C2424 C 0.03796 0.35423 0.6311 0.0
C2425 C 0.03039 0.33048 0.62389 0.0
C2426 C 0.03401 0.37498 0.61704 0.0
C2427 C 0.02216 0.37272 0.59538 0.0
C2428 C 0.01495 0.34885 0.58795 0.0
C2429 C 0.01906 0.32798 0.60202 0.0
C2430 C 0.01622 0.41651 0.54363 0.0
C2431 C 0.01202 0.43935 0.55429 0.0
C2432 C 0.01894 0.39475 0.55678 0.0
C2433 C 0.0174 0.3953 0.58089 0.0
C2434 C 0.01205 0.418 0.59128 0.0
C2435 C 0.00954 0.43969 0.57822 0.0
H2436 H 0.40276 0.25213 0.41623 0.0
H2437 H 0.43722 0.29617 0.36527 0.0
H2438 H 0.36542 0.25687 0.39453 0.0
H2439 H 0.39998 0.30117 0.34393 0.0
H2440 H 0.33599 0.27938 0.29876 0.0
H2441 H 0.37251 0.27463 0.32129 0.0
H2442 H 0.33667 0.28988 0.38348 0.0
H2443 H 0.29977 0.29431 0.3609 0.0
C2444 C 0.40237 0.26281 0.40044 0.0
C2445 C 0.42293 0.27368 0.3924 0.0
C2446 C 0.38098 0.26567 0.38814 0.0
C2447 C 0.37984 0.27935 0.36756 0.0
C2448 C 0.4004 0.29026 0.35959 0.0
C2449 C 0.42171 0.28745 0.37187 0.0
C2450 C 0.33583 0.28179 0.31723 0.0
C2451 C 0.315 0.28729 0.32806 0.0
C2452 C 0.3568 0.27916 0.33012 0.0
C2453 C 0.35742 0.28197 0.35411 0.0
C2454 C 0.33661 0.2874 0.36501 0.0
C2455 C 0.31556 0.2901 0.35208 0.0
H2456 H 0.45799 0.4694 0.34714 0.0
H2457 H 0.43121 0.54374 0.35353 0.0
H2458 H 0.47521 0.47208 0.38635 0.0
H2459 H 0.44841 0.5463 0.39246 0.0
H2460 H 0.45467 0.52714 0.4694 0.0
H2461 H 0.43983 0.52459 0.42956 0.0
H2462 H 0.50661 0.49685 0.40952 0.0
H2463 H 0.52159 0.49933 0.44949 0.0
C2464 C 0.4559 0.48632 0.35683 0.0
C2465 C 0.44312 0.50628 0.34731 0.0
C2466 C 0.46584 0.48787 0.37918 0.0
C2467 C 0.46296 0.50932 0.39241 0.0
C2468 C 0.4506 0.52943 0.38271 0.0
C2469 C 0.44086 0.52797 0.36038 0.0
C2470 C 0.46622 0.52052 0.45652 0.0
C2471 C 0.48931 0.51349 0.46255 0.0
C2472 C 0.45775 0.51918 0.43372 0.0
C2473 C 0.47212 0.51059 0.41652 0.0
C2474 C 0.49515 0.50338 0.42252 0.0
C2475 C 0.50373 0.50495 0.44534 0.0
H2476 H 0.27269 0.62471 0.06298 0.0
H2477 H 0.29476 0.69435 0.03357 0.0
H2478 H 0.26397 0.64579 0.09836 0.0
H2479 H 0.28682 0.71542 0.06945 0.0
H2480 H 0.24824 0.74956 0.12827 0.0
H2481 H 0.25499 0.72809 0.09224 0.0
H2482 H 0.28266 0.6654 0.13073 0.0
H2483 H 0.27538 0.68658 0.1665 0.0
C2484 C 0.27602 0.6445 0.06418 0.0
C2485 C 0.28449 0.65786 0.04547 0.0
C2486 C 0.27105 0.65659 0.08453 0.0
C2487 C 0.27466 0.68232 0.08678 0.0
C2488 C 0.28345 0.69565 0.06816 0.0
C2489 C 0.28823 0.68355 0.04768 0.0
C2490 C 0.25554 0.73109 0.12893 0.0
C2491 C 0.26111 0.71966 0.15015 0.0
C2492 C 0.25959 0.71887 0.10833 0.0
C2493 C 0.26948 0.69506 0.10857 0.0
C2494 C 0.27467 0.68353 0.12987 0.0
C2495 C 0.27044 0.69565 0.1504 0.0
H2496 H 0.10433 0.4622 0.84968 0.0
H2497 H 0.12758 0.53464 0.87362 0.0
H2498 H 0.07582 0.46056 0.87979 0.0
H2499 H 0.09916 0.53292 0.9036 0.0
H2500 H 0.03352 0.53345 0.94217 0.0
H2501 H 0.05523 0.53254 0.90708 0.0
H2502 H 0.07821 0.45823 0.92335 0.0
H2503 H 0.05645 0.45899 0.95848 0.0
C2504 C 0.10334 0.47776 0.86134 0.0
C2505 C 0.11825 0.49853 0.85934 0.0
C2506 C 0.08704 0.47679 0.87854 0.0
C2507 C 0.08516 0.4967 0.89385 0.0
C2508 C 0.09996 0.51749 0.89176 0.0
C2509 C 0.1164 0.51836 0.87475 0.0
C2510 C 0.04271 0.51666 0.93802 0.0
C2511 C 0.04355 0.49641 0.95328 0.0
C2512 C 0.05528 0.51625 0.91801 0.0
C2513 C 0.06872 0.4955 0.91277 0.0
C2514 C 0.06799 0.47447 0.927 0.0
C2515 C 0.05555 0.47493 0.94713 0.0
H2516 H 0.31184 0.39262 0.57127 0.0
H2517 H 0.26439 0.33085 0.55792 0.0
H2518 H 0.33671 0.36626 0.59588 0.0
H2519 H 0.28878 0.30478 0.58295 0.0
H2520 H 0.32631 0.26363 0.63689 0.0
H2521 H 0.32378 0.28427 0.59945 0.0
H2522 H 0.32323 0.35541 0.63357 0.0
H2523 H 0.3252 0.33508 0.67048 0.0
C2524 C 0.30714 0.3732 0.57297 0.0
C2525 C 0.28575 0.36399 0.56341 0.0
C2526 C 0.32139 0.35811 0.58706 0.0
C2527 C 0.31428 0.33372 0.59201 0.0
C2528 C 0.29474 0.32354 0.57964 0.0
C2529 C 0.2806 0.33857 0.56535 0.0
C2530 C 0.3261 0.28371 0.63633 0.0
C2531 C 0.32537 0.29766 0.65672 0.0
C2532 C 0.32483 0.2955 0.61489 0.0
C2533 C 0.32302 0.32144 0.6135 0.0
C2534 C 0.32488 0.33541 0.63391 0.0
C2535 C 0.32596 0.32367 0.65525 0.0
H2536 H 0.49151 0.51337 0.25241 0.0
H2537 H 0.42383 0.49453 0.22045 0.0
H2538 H 0.51046 0.49969 0.21783 0.0
H2539 H 0.44273 0.48116 0.18604 0.0
H2540 H 0.48476 0.44259 0.13284 0.0
H2541 H 0.46959 0.44928 0.17099 0.0
H2542 H 0.51085 0.51666 0.17806 0.0
H2543 H 0.52551 0.51046 0.14014 0.0
C2544 C 0.48071 0.50624 0.23809 0.0
C2545 C 0.45618 0.50529 0.23906 0.0
C2546 C 0.49154 0.49841 0.21833 0.0
C2547 C 0.47805 0.48932 0.1993 0.0
C2548 C 0.45359 0.48775 0.20055 0.0
C2549 C 0.44277 0.49571 0.22019 0.0
C2550 C 0.49068 0.45873 0.14262 0.0
C2551 C 0.50641 0.47591 0.1334 0.0
C2552 C 0.48206 0.46252 0.16444 0.0
C2553 C 0.4891 0.48347 0.17747 0.0
C2554 C 0.50544 0.50011 0.16862 0.0
C2555 C 0.51389 0.49646 0.14683 0.0
H2556 H 0.30165 0.65808 0.94078 0.0
H2557 H 0.23195 0.63528 0.91688 0.0
H2558 H 0.30358 0.68682 0.90842 0.0
H2559 H 0.23403 0.66376 0.88449 0.0
H2560 H 0.23662 0.73032 0.83803 0.0
H2561 H 0.23553 0.70832 0.87467 0.0
H2562 H 0.30617 0.68291 0.8664 0.0
H2563 H 0.30741 0.70508 0.82998 0.0
C2564 C 0.28672 0.65924 0.92868 0.0
C2565 C 0.26669 0.64428 0.93134 0.0
C2566 C 0.28786 0.67566 0.91012 0.0
C2567 C 0.26895 0.67759 0.89392 0.0
C2568 C 0.24876 0.66298 0.89685 0.0
C2569 C 0.24766 0.64648 0.91532 0.0
C2570 C 0.25208 0.72044 0.84424 0.0
C2571 C 0.27203 0.71928 0.83099 0.0
C2572 C 0.25138 0.70768 0.86514 0.0
C2573 C 0.27065 0.69364 0.87329 0.0
C2574 C 0.29107 0.69367 0.86067 0.0
C2575 C 0.29174 0.70631 0.83973 0.0
H2576 H 0.06439 0.49702 0.76001 0.0
H2577 H 0.13086 0.50288 0.72749 0.0
H2578 H 0.04432 0.51157 0.72447 0.0
H2579 H 0.11083 0.51757 0.69231 0.0
H2580 H 0.07008 0.56644 0.64133 0.0
H2581 H 0.08657 0.55626 0.67963 0.0
H2582 H 0.03924 0.49358 0.68309 0.0
H2583 H 0.02344 0.50283 0.6447 0.0
C2584 C 0.07467 0.50133 0.7453 0.0
C2585 C 0.09916 0.49867 0.74647 0.0
C2586 C 0.06321 0.5097 0.72506 0.0
C2587 C 0.07612 0.51596 0.70586 0.0
C2588 C 0.10055 0.51325 0.70703 0.0
C2589 C 0.11195 0.50454 0.72708 0.0
C2590 C 0.06308 0.55057 0.65028 0.0
C2591 C 0.0455 0.53543 0.63976 0.0
C2592 C 0.07247 0.54483 0.6722 0.0
C2593 C 0.06421 0.52407 0.68414 0.0
C2594 C 0.04573 0.50982 0.67431 0.0
C2595 C 0.03659 0.51531 0.6523 0.0
H2596 H 0.19373 0.39944 0.50623 0.0
H2597 H 0.25368 0.4332 0.47529 0.0
H2598 H 0.18206 0.38023 0.46938 0.0
H2599 H 0.24221 0.41388 0.43877 0.0
H2600 H 0.1986 0.32074 0.41287 0.0
H2601 H 0.19939 0.34624 0.44749 0.0
H2602 H 0.2133 0.41135 0.40673 0.0
H2603 H 0.21349 0.38583 0.37234 0.0
C2604 C 0.20417 0.40313 0.49149 0.0
C2605 C 0.2248 0.41759 0.49371 0.0
C2606 C 0.19755 0.39201 0.47044 0.0
C2607 C 0.2113 0.39537 0.45122 0.0
C2608 C 0.23109 0.4111 0.45316 0.0
C2609 C 0.23777 0.42206 0.47417 0.0
C2610 C 0.20156 0.34054 0.41127 0.0
C2611 C 0.20625 0.35116 0.38986 0.0
C2612 C 0.20175 0.3552 0.43107 0.0
C2613 C 0.20665 0.38078 0.42986 0.0
C2614 C 0.20977 0.39164 0.40825 0.0
C2615 C 0.20961 0.37701 0.38848 0.0
H2616 H 0.28438 0.48231 0.59563 0.0
H2617 H 0.26271 0.51759 0.53152 0.0
H2618 H 0.32145 0.50428 0.59562 0.0
H2619 H 0.2997 0.54071 0.53203 0.0
H2620 H 0.37914 0.53091 0.5194 0.0
H2621 H 0.33726 0.52645 0.52355 0.0
H2622 H 0.34705 0.5385 0.59685 0.0
H2623 H 0.38935 0.54205 0.59261 0.0
C2624 C 0.28721 0.49544 0.58189 0.0
C2625 C 0.27088 0.49761 0.5632 0.0
C2626 C 0.30852 0.50829 0.58198 0.0
C2627 C 0.31392 0.52386 0.5635 0.0
C2628 C 0.2964 0.52829 0.54619 0.0
C2629 C 0.27508 0.51521 0.546 0.0
C2630 C 0.37229 0.53321 0.53632 0.0
C2631 C 0.38751 0.5365 0.55573 0.0
C2632 C 0.34817 0.53082 0.53872 0.0
C2633 C 0.33865 0.53189 0.56059 0.0
C2634 C 0.35379 0.53705 0.57981 0.0
C2635 C 0.378 0.53911 0.57742 0.0
H2636 H 0.87901 0.11395 0.48212 0.0
H2637 H 0.84458 0.04798 0.50688 0.0
H2638 H 0.91641 0.09263 0.48432 0.0
H2639 H 0.88199 0.02644 0.50858 0.0
H2640 H 0.95741 0.00993 0.53697 0.0
H2641 H 0.91846 0.02752 0.53145 0.0
H2642 H 0.93825 0.05981 0.46703 0.0
H2643 H 0.97744 0.04269 0.47281 0.0
C2644 C 0.87938 0.09482 0.48785 0.0
C2645 C 0.85882 0.08272 0.49443 0.0
C2646 C 0.90082 0.08252 0.48894 0.0
C2647 C 0.90221 0.05779 0.49659 0.0
C2648 C 0.88157 0.04557 0.50286 0.0
C2649 C 0.86012 0.05789 0.5018 0.0
C2650 C 0.95339 0.02053 0.52148 0.0
C2651 C 0.97061 0.02507 0.50542 0.0
C2652 C 0.931 0.03053 0.51827 0.0
C2653 C 0.92528 0.04526 0.49889 0.0
C2654 C 0.94222 0.04893 0.48236 0.0
C2655 C 0.96463 0.03896 0.48559 0.0
H2656 H 0.70256 0.04772 0.31083 0.0
H2657 H 0.63226 0.0752 0.29858 0.0
H2658 H 0.71844 0.08681 0.2969 0.0
H2659 H 0.64802 0.1138 0.28378 0.0
H2660 H 0.74092 0.14914 0.25157 0.0
H2661 H 0.72269 0.11006 0.26254 0.0
H2662 H 0.66818 0.15051 0.29506 0.0
H2663 H 0.68584 0.18942 0.28328 0.0
C2664 C 0.69051 0.06211 0.30517 0.0
C2665 C 0.66618 0.05841 0.3059 0.0
C2666 C 0.69958 0.08443 0.29692 0.0
C2667 C 0.68451 0.10342 0.28898 0.0
C2668 C 0.66017 0.09974 0.28999 0.0
C2669 C 0.65112 0.07756 0.29847 0.0
C2670 C 0.72477 0.14964 0.26065 0.0
C2671 C 0.71486 0.17236 0.26661 0.0
C2672 C 0.71447 0.12725 0.2672 0.0
C2673 C 0.69418 0.1271 0.28006 0.0
C2674 C 0.68368 0.14985 0.28503 0.0
C2675 C 0.69383 0.17222 0.27826 0.0
H2676 H 0.72133 0.98711 0.98317 0.0
H2677 H 0.71943 0.96295 0.05401 0.0
H2678 H 0.68038 -0.00063 0.98406 0.0
H2679 H 0.67848 0.97483 0.0547 0.0
H2680 H 0.61232 0.01924 0.0555 0.0
H2681 H 0.65431 0.01267 0.05307 0.0
H2682 H 0.6422 0.97773 0.98675 0.0
H2683 H 0.6003 0.98464 0.9889 0.0
C2684 C 0.71217 0.98437 -0.00111 0.0
C2685 C 0.72353 0.97404 0.01851 0.0
C2686 C 0.68876 0.99135 -0.00063 0.0
C2687 C 0.67639 0.98814 0.01948 0.0
C2688 C 0.68777 0.97789 0.0391 0.0
C2689 C 0.71113 0.97089 0.03863 0.0
C2690 C 0.61865 0.01042 0.04028 0.0
C2691 C 0.60305 0.00221 0.02249 0.0
C2692 C 0.64263 0.00657 0.03896 0.0
C2693 C 0.65138 0.9945 0.01984 0.0
C2694 C 0.63589 0.98725 0.00162 0.0
C2695 C 0.61191 0.99108 0.00292 0.0
H2696 H 0.37702 0.43084 0.25641 0.0
H2697 H 0.33559 0.48271 0.29361 0.0
H2698 H 0.34393 0.40214 0.25395 0.0
H2699 H 0.30223 0.45404 0.29071 0.0
H2700 H 0.26688 0.37715 0.30908 0.0
H2701 H 0.29233 0.41355 0.30706 0.0
H2702 H 0.30477 0.39679 0.23606 0.0
H2703 H 0.27983 0.36002 0.23826 0.0
C2704 C 0.3608 0.43619 0.26393 0.0
C2705 C 0.35896 0.45895 0.27531 0.0
C2706 C 0.34173 0.41987 0.26228 0.0
C2707 C 0.3204 0.42599 0.27192 0.0
C2708 C 0.31848 0.44884 0.28317 0.0
C2709 C 0.33759 0.4652 0.28484 0.0
C2710 C 0.27447 0.38167 0.29284 0.0
C2711 C 0.27183 0.36551 0.27398 0.0
C2712 C 0.28904 0.40254 0.29167 0.0
C2713 C 0.30099 0.4076 0.27157 0.0
C2714 C 0.29627 0.3929 0.25197 0.0
C2715 C 0.28188 0.37197 0.25318 0.0
H2716 H 0.21863 0.54982 0.99236 0.0
H2717 H 0.19886 0.62006 0.0211 0.0
H2718 H 0.17963 0.53303 -0.0006 0.0
H2719 H 0.16041 0.60319 0.02868 0.0
H2720 H 0.08591 0.57506 0.01311 0.0
H2721 H 0.12525 0.59095 0.00771 0.0
H2722 H 0.15415 0.52059 0.02986 0.0
H2723 H 0.11457 0.50439 0.03468 0.0
C2724 C 0.20603 0.56161 0.00027 0.0
C2725 C 0.21178 0.58631 0.006 0.0
C2726 C 0.18375 0.55196 0.00446 0.0
C2727 C 0.16685 0.5668 0.01453 0.0
C2728 C 0.17282 0.59137 0.02052 0.0
C2729 C 0.19495 0.60102 0.01624 0.0
C2730 C 0.10064 0.56301 0.01704 0.0
C2731 C 0.09709 0.53845 0.02434 0.0
C2732 C 0.12324 0.57216 0.01401 0.0
C2733 C 0.14289 0.55704 0.01833 0.0
C2734 C 0.13938 0.53261 0.02607 0.0
C2735 C 0.11671 0.5234 0.02903 0.0
H2736 H 0.71666 0.93494 0.30512 0.0
H2737 H 0.66222 0.88321 0.32347 0.0
H2738 H 0.74416 0.9007 0.30281 0.0
H2739 H 0.68955 0.84909 0.32085 0.0
H2740 H 0.77128 0.82804 0.26921 0.0
H2741 H 0.74894 0.86511 0.27701 0.0
H2742 H 0.72519 0.83153 0.33939 0.0
H2743 H 0.74726 0.79425 0.33146 0.0
C2744 C 0.71058 0.91629 0.30873 0.0
C2745 C 0.68722 0.91176 0.31436 0.0
C2746 C 0.72631 0.8967 0.30735 0.0
C2747 C 0.71904 0.87222 0.3117 0.0
C2748 C 0.6958 0.86779 0.31775 0.0
C2749 C 0.68007 0.88733 0.31905 0.0
C2750 C 0.76163 0.82871 0.2848 0.0
C2751 C 0.76082 0.80808 0.29957 0.0
C2752 C 0.74889 0.85001 0.28932 0.0
C2753 C 0.73508 0.85111 0.30867 0.0
C2754 C 0.73536 0.83104 0.32412 0.0
C2755 C 0.74813 0.80975 0.31965 0.0
H2756 H 0.89278 0.11876 0.7969 0.0
H2757 H 0.8351 0.08216 0.75957 0.0
H2758 H 0.87105 0.15757 0.79556 0.0
H2759 H 0.81313 0.12038 0.75911 0.0
H2760 H 0.7919 0.19889 0.73953 0.0
H2761 H 0.81255 0.15986 0.74172 0.0
H2762 H 0.83765 0.17721 0.81112 0.0
H2763 H 0.81764 0.21699 0.80856 0.0
C2764 C 0.87551 0.11902 0.78842 0.0
C2765 C 0.86573 0.09748 0.77822 0.0
C2766 C 0.86294 0.14115 0.78787 0.0
C2767 C 0.8403 0.14205 0.77732 0.0
C2768 C 0.83065 0.12047 0.76707 0.0
C2769 C 0.84327 0.09851 0.76737 0.0
C2770 C 0.80156 0.19428 0.7554 0.0
C2771 C 0.8032 0.21105 0.77386 0.0
C2772 C 0.81339 0.17183 0.75667 0.0
C2773 C 0.8269 0.16546 0.77655 0.0
C2774 C 0.82778 0.1818 0.79539 0.0
C2775 C 0.8161 0.20445 0.79403 0.0
loop_
_geom_bond_atom_site_label_1
_geom_bond_atom_site_label_2
_geom_bond_distance
_geom_bond_site_symmetry_2
_ccdc_geom_bond_type
C0 O1 1.160 . S
C0 O7 1.185 . S
O1 C0 1.160 . S
O2 Zn3 1.899 . S
O2 C10 1.284 . S
Zn3 O2 1.899 . S
Zn3 O4 2.032 . S
Zn3 O7 2.086 . S
Zn3 O12 1.977 . S
O4 Zn3 2.032 . S
O4 C8 1.278 . S
C5 O6 1.203 . S
C5 O12 1.267 . S
O6 C5 1.203 . S
O7 C0 1.185 . S
O7 Zn3 2.086 . S
C8 O4 1.278 . S
C8 O9 1.211 . S
O9 C8 1.211 . S
C10 O2 1.284 . S
C10 O11 1.273 . S
O11 C10 1.273 . S
O12 Zn3 1.977 . S
O12 C5 1.267 . S
C13 O14 1.160 . S
C13 O20 1.185 . S
O14 C13 1.160 . S
O15 Zn16 1.899 . S
O15 C23 1.284 . S
Zn16 O15 1.899 . S
Zn16 O17 2.032 . S
Zn16 O20 2.086 . S
Zn16 O25 1.977 . S
O17 Zn16 2.032 . S
O17 C21 1.278 . S
C18 O19 1.203 . S
C18 O25 1.267 1_655 S
O19 C18 1.203 . S
O20 C13 1.185 . S
O20 Zn16 2.086 . S
C21 O17 1.278 . S
C21 O22 1.211 . S
O22 C21 1.211 . S
C23 O15 1.284 . S
C23 O24 1.273 . S
O24 C23 1.273 . S
O25 Zn16 1.977 . S
O25 C18 1.267 1_455 S
C26 O27 1.160 . S
C26 O33 1.185 . S
O27 C26 1.160 . S
O28 Zn29 1.899 . S
O28 C36 1.284 . S
Zn29 O28 1.899 . S
Zn29 O30 2.032 . S
Zn29 O33 2.086 . S
Zn29 O38 1.977 . S
O30 Zn29 2.032 . S
O30 C34 1.278 . S
C31 O32 1.203 . S
C31 O38 1.267 . S
O32 C31 1.203 . S
O33 C26 1.185 . S
O33 Zn29 2.086 . S
C34 O30 1.278 . S
C34 O35 1.211 . S
O35 C34 1.211 . S
C36 O28 1.284 . S
C36 O37 1.273 . S
O37 C36 1.273 . S
O38 Zn29 1.977 . S
O38 C31 1.267 . S
C39 O40 1.160 . S
C39 O46 1.185 . S
O40 C39 1.160 . S
O41 Zn42 1.899 . S
O41 C49 1.284 . S
Zn42 O41 1.899 . S
Zn42 O43 2.032 . S
Zn42 O46 2.086 . S
Zn42 O51 1.977 . S
O43 Zn42 2.032 . S
O43 C47 1.278 . S
C44 O45 1.203 . S
C44 O51 1.267 . S
O45 C44 1.203 . S
O46 C39 1.185 . S
O46 Zn42 2.086 . S
C47 O43 1.278 . S
C47 O48 1.211 . S
O48 C47 1.211 . S
C49 O41 1.284 . S
C49 O50 1.273 . S
O50 C49 1.273 . S
O51 Zn42 1.977 . S
O51 C44 1.267 . S
C52 O53 1.160 . S
C52 O59 1.185 . S
O53 C52 1.160 . S
O54 Zn55 1.899 . S
O54 C62 1.284 . S
Zn55 O54 1.899 . S
Zn55 O56 2.032 . S
Zn55 O59 2.086 1_545 S
Zn55 O64 1.977 . S
O56 Zn55 2.032 . S
O56 C60 1.278 . S
C57 O58 1.203 . S
C57 O64 1.267 . S
O58 C57 1.203 . S
O59 C52 1.185 . S
O59 Zn55 2.086 1_565 S
C60 O56 1.278 . S
C60 O61 1.211 . S
O61 C60 1.211 . S
C62 O54 1.284 . S
C62 O63 1.273 . S
O63 C62 1.273 . S
O64 Zn55 1.977 . S
O64 C57 1.267 . S
C65 O66 1.160 . S
C65 O72 1.185 . S
O66 C65 1.160 . S
O67 Zn68 1.899 . S
O67 C75 1.284 . S
Zn68 O67 1.899 . S
Zn68 O69 2.032 . S
Zn68 O72 2.086 . S
Zn68 O77 1.977 . S
O69 Zn68 2.032 . S
O69 C73 1.278 . S
C70 O71 1.203 . S
C70 O77 1.267 . S
O71 C70 1.203 . S
O72 C65 1.185 . S
O72 Zn68 2.086 . S
C73 O69 1.278 . S
C73 O74 1.211 . S
O74 C73 1.211 . S
C75 O67 1.284 . S
C75 O76 1.273 . S
O76 C75 1.273 . S
O77 Zn68 1.977 . S
O77 C70 1.267 . S
C78 O79 1.160 . S
C78 O85 1.185 . S
O79 C78 1.160 . S
O80 Zn81 1.899 . S
O80 C88 1.284 . S
Zn81 O80 1.899 . S
Zn81 O82 2.032 . S
Zn81 O85 2.086 . S
Zn81 O90 1.977 1_545 S
O82 Zn81 2.032 . S
O82 C86 1.278 . S
C83 O84 1.203 . S
C83 O90 1.267 . S
O84 C83 1.203 . S
O85 C78 1.185 . S
O85 Zn81 2.086 . S
C86 O82 1.278 . S
C86 O87 1.211 1_545 S
O87 C86 1.211 1_565 S
C88 O80 1.284 . S
C88 O89 1.273 . S
O89 C88 1.273 . S
O90 Zn81 1.977 1_565 S
O90 C83 1.267 . S
C91 O92 1.160 . S
C91 O98 1.185 . S
O92 C91 1.160 . S
O93 Zn94 1.899 . S
O93 C101 1.284 . S
Zn94 O93 1.899 . S
Zn94 O95 2.032 . S
Zn94 O98 2.086 . S
Zn94 O103 1.977 . S
O95 Zn94 2.032 . S
O95 C99 1.278 1_554 S
C96 O97 1.203 . S
C96 O103 1.267 . S
O97 C96 1.203 . S
O98 C91 1.185 . S
O98 Zn94 2.086 . S
C99 O95 1.278 1_556 S
C99 O100 1.211 . S
O100 C99 1.211 . S
C101 O93 1.284 . S
C101 O102 1.273 . S
O102 C101 1.273 . S
O103 Zn94 1.977 . S
O103 C96 1.267 . S
C104 O105 1.160 . S
C104 O111 1.185 . S
O105 C104 1.160 . S
O106 Zn107 1.899 . S
O106 C114 1.284 . S
Zn107 O106 1.899 . S
Zn107 O108 2.032 . S
Zn107 O111 2.086 . S
Zn107 O116 1.977 . S
O108 Zn107 2.032 . S
O108 C112 1.278 . S
C109 O110 1.203 . S
C109 O116 1.267 . S
O110 C109 1.203 . S
O111 C104 1.185 . S
O111 Zn107 2.086 . S
C112 O108 1.278 . S
C112 O113 1.211 . S
O113 C112 1.211 . S
C114 O106 1.284 . S
C114 O115 1.273 . S
O115 C114 1.273 . S
O116 Zn107 1.977 . S
O116 C109 1.267 . S
C117 O118 1.160 . S
C117 O124 1.185 . S
O118 C117 1.160 . S
O119 Zn120 1.899 . S
O119 C127 1.284 . S
Zn120 O119 1.899 . S
Zn120 O121 2.032 . S
Zn120 O124 2.086 . S
Zn120 O129 1.977 . S
O121 Zn120 2.032 . S
O121 C125 1.278 . S
C122 O123 1.203 . S
C122 O129 1.267 . S
O123 C122 1.203 . S
O124 C117 1.185 . S
O124 Zn120 2.086 . S
C125 O121 1.278 . S
C125 O126 1.211 . S
O126 C125 1.211 . S
C127 O119 1.284 . S
C127 O128 1.273 . S
O128 C127 1.273 . S
O129 Zn120 1.977 . S
O129 C122 1.267 . S
C130 O131 1.160 . S
C130 O137 1.185 . S
O131 C130 1.160 . S
O132 Zn133 1.899 . S
O132 C140 1.284 . S
Zn133 O132 1.899 . S
Zn133 O134 2.032 . S
Zn133 O137 2.086 . S
Zn133 O142 1.977 . S
O134 Zn133 2.032 . S
O134 C138 1.278 . S
C135 O136 1.203 . S
C135 O142 1.267 . S
O136 C135 1.203 . S
O137 C130 1.185 . S
O137 Zn133 2.086 . S
C138 O134 1.278 . S
C138 O139 1.211 . S
O139 C138 1.211 . S
C140 O132 1.284 . S
C140 O141 1.273 . S
O141 C140 1.273 . S
O142 Zn133 1.977 . S
O142 C135 1.267 . S
C143 O144 1.160 . S
C143 O150 1.185 . S
O144 C143 1.160 . S
O145 Zn146 1.899 . S
O145 C153 1.284 . S
Zn146 O145 1.899 . S
Zn146 O147 2.032 . S
Zn146 O150 2.086 . S
Zn146 O155 1.977 . S
O147 Zn146 2.032 . S
O147 C151 1.278 . S
C148 O149 1.203 . S
C148 O155 1.267 . S
O149 C148 1.203 . S
O150 C143 1.185 . S
O150 Zn146 2.086 . S
C151 O147 1.278 . S
C151 O152 1.211 . S
O152 C151 1.211 . S
C153 O145 1.284 . S
C153 O154 1.273 . S
O154 C153 1.273 . S
O155 Zn146 1.977 . S
O155 C148 1.267 . S
C156 O157 1.160 . S
C156 O163 1.185 . S
O157 C156 1.160 . S
O158 Zn159 1.899 . S
O158 C166 1.284 1_455 S
Zn159 O158 1.899 . S
Zn159 O160 2.032 . S
Zn159 O163 2.086 . S
Zn159 O168 1.977 1_455 S
O160 Zn159 2.032 . S
O160 C164 1.278 1_455 S
C161 O162 1.203 . S
C161 O168 1.267 . S
O162 C161 1.203 . S
O163 C156 1.185 . S
O163 Zn159 2.086 . S
C164 O160 1.278 1_655 S
C164 O165 1.211 . S
O165 C164 1.211 . S
C166 O158 1.284 1_655 S
C166 O167 1.273 . S
O167 C166 1.273 . S
O168 Zn159 1.977 1_655 S
O168 C161 1.267 . S
C169 O170 1.160 . S
C169 O176 1.185 1_655 S
O170 C169 1.160 . S
O171 Zn172 1.899 . S
O171 C179 1.284 . S
Zn172 O171 1.899 . S
Zn172 O173 2.032 . S
Zn172 O176 2.086 . S
Zn172 O181 1.977 . S
O173 Zn172 2.032 . S
O173 C177 1.278 . S
C174 O175 1.203 . S
C174 O181 1.267 . S
O175 C174 1.203 . S
O176 C169 1.185 1_455 S
O176 Zn172 2.086 . S
C177 O173 1.278 . S
C177 O178 1.211 . S
O178 C177 1.211 . S
C179 O171 1.284 . S
C179 O180 1.273 . S
O180 C179 1.273 . S
O181 Zn172 1.977 . S
O181 C174 1.267 . S
C182 O183 1.160 . S
C182 O189 1.185 . S
O183 C182 1.160 . S
O184 Zn185 1.899 . S
O184 C192 1.284 . S
Zn185 O184 1.899 . S
Zn185 O186 2.032 . S
Zn185 O189 2.086 . S
Zn185 O194 1.977 . S
O186 Zn185 2.032 . S
O186 C190 1.278 . S
C187 O188 1.203 . S
C187 O194 1.267 . S
O188 C187 1.203 . S
O189 C182 1.185 . S
O189 Zn185 2.086 . S
C190 O186 1.278 . S
C190 O191 1.211 . S
O191 C190 1.211 . S
C192 O184 1.284 . S
C192 O193 1.273 . S
O193 C192 1.273 . S
O194 Zn185 1.977 . S
O194 C187 1.267 . S
C195 O196 1.160 . S
C195 O202 1.185 . S
O196 C195 1.160 . S
O197 Zn198 1.899 . S
O197 C205 1.284 . S
Zn198 O197 1.899 . S
Zn198 O199 2.032 . S
Zn198 O202 2.086 . S
Zn198 O207 1.977 . S
O199 Zn198 2.032 . S
O199 C203 1.278 . S
C200 O201 1.203 . S
C200 O207 1.267 . S
O201 C200 1.203 . S
O202 C195 1.185 . S
O202 Zn198 2.086 . S
C203 O199 1.278 . S
C203 O204 1.211 . S
O204 C203 1.211 . S
C205 O197 1.284 . S
C205 O206 1.273 . S
O206 C205 1.273 . S
O207 Zn198 1.977 . S
O207 C200 1.267 . S
C208 O209 1.160 . S
C208 O215 1.185 . S
O209 C208 1.160 . S
O210 Zn211 1.899 . S
O210 C218 1.284 . S
Zn211 O210 1.899 . S
Zn211 O212 2.032 . S
Zn211 O215 2.086 . S
Zn211 O220 1.977 1_545 S
O212 Zn211 2.032 . S
O212 C216 1.278 . S
C213 O214 1.203 . S
C213 O220 1.267 . S
O214 C213 1.203 . S
O215 C208 1.185 . S
O215 Zn211 2.086 . S
C216 O212 1.278 . S
C216 O217 1.211 1_545 S
O217 C216 1.211 1_565 S
C218 O210 1.284 . S
C218 O219 1.273 1_545 S
O219 C218 1.273 1_565 S
O220 Zn211 1.977 1_565 S
O220 C213 1.267 . S
C221 O222 1.160 . S
C221 O228 1.185 . S
O222 C221 1.160 . S
O223 Zn224 1.899 . S
O223 C231 1.284 . S
Zn224 O223 1.899 . S
Zn224 O225 2.032 . S
Zn224 O228 2.086 . S
Zn224 O233 1.977 . S
O225 Zn224 2.032 . S
O225 C229 1.278 . S
C226 O227 1.203 . S
C226 O233 1.267 . S
O227 C226 1.203 . S
O228 C221 1.185 . S
O228 Zn224 2.086 . S
C229 O225 1.278 . S
C229 O230 1.211 . S
O230 C229 1.211 . S
C231 O223 1.284 . S
C231 O232 1.273 . S
O232 C231 1.273 . S
O233 Zn224 1.977 . S
O233 C226 1.267 . S
C234 O235 1.160 . S
C234 O241 1.185 . S
O235 C234 1.160 . S
O236 Zn237 1.899 . S
O236 C244 1.284 . S
Zn237 O236 1.899 . S
Zn237 O238 2.032 . S
Zn237 O241 2.086 1_545 S
Zn237 O246 1.977 . S
O238 Zn237 2.032 . S
O238 C242 1.278 . S
C239 O240 1.203 . S
C239 O246 1.267 . S
O240 C239 1.203 . S
O241 C234 1.185 . S
O241 Zn237 2.086 1_565 S
C242 O238 1.278 . S
C242 O243 1.211 . S
O243 C242 1.211 . S
C244 O236 1.284 . S
C244 O245 1.273 . S
O245 C244 1.273 . S
O246 Zn237 1.977 . S
O246 C239 1.267 . S
C247 O248 1.160 . S
C247 O254 1.185 . S
O248 C247 1.160 . S
O249 Zn250 1.899 . S
O249 C257 1.284 . S
Zn250 O249 1.899 . S
Zn250 O251 2.017 1_554 S
Zn250 O254 2.086 . S
Zn250 O259 1.977 . S
O251 Zn250 2.017 1_556 S
O251 C255 1.288 . S
C252 O253 1.203 . S
C252 O259 1.267 . S
O253 C252 1.203 . S
O254 C247 1.185 . S
O254 Zn250 2.086 . S
C255 O251 1.288 . S
C255 O256 1.211 . S
O256 C255 1.211 . S
C257 O249 1.284 . S
C257 O258 1.273 . S
O258 C257 1.273 . S
O259 Zn250 1.977 . S
O259 C252 1.267 . S
C260 O261 1.160 . S
C260 O267 1.185 1_554 S
O261 C260 1.160 . S
O262 Zn263 1.899 . S
O262 C270 1.284 . S
Zn263 O262 1.899 . S
Zn263 O264 2.032 1_554 S
Zn263 O267 2.086 1_554 S
Zn263 O272 1.977 1_554 S
O264 Zn263 2.032 1_556 S
O264 C268 1.278 . S
C265 O266 1.203 . S
C265 O272 1.267 1_554 S
O266 C265 1.203 . S
O267 C260 1.185 1_556 S
O267 Zn263 2.086 1_556 S
C268 O264 1.278 . S
C268 O269 1.211 . S
O269 C268 1.211 . S
C270 O262 1.284 . S
C270 O271 1.273 . S
O271 C270 1.273 . S
O272 Zn263 1.977 1_556 S
O272 C265 1.267 1_556 S
C273 O274 1.160 . S
C273 O280 1.185 . S
O274 C273 1.160 . S
O275 Zn276 1.899 . S
O275 C283 1.284 . S
Zn276 O275 1.899 . S
Zn276 O277 2.032 . S
Zn276 O280 2.086 . S
Zn276 O285 1.977 . S
O277 Zn276 2.032 . S
O277 C281 1.278 . S
C278 O279 1.203 . S
C278 O285 1.267 . S
O279 C278 1.203 . S
O280 C273 1.185 . S
O280 Zn276 2.086 . S
C281 O277 1.278 . S
C281 O282 1.211 . S
O282 C281 1.211 . S
C283 O275 1.284 . S
C283 O284 1.273 . S
O284 C283 1.273 . S
O285 Zn276 1.977 . S
O285 C278 1.267 . S
C286 O287 1.160 . S
C286 O293 1.185 . S
O287 C286 1.160 . S
O288 Zn289 1.899 . S
O288 C296 1.284 . S
Zn289 O288 1.899 . S
Zn289 O290 2.032 . S
Zn289 O293 2.086 . S
Zn289 O298 1.977 . S
O290 Zn289 2.032 . S
O290 C294 1.278 . S
C291 O292 1.203 . S
C291 O298 1.267 . S
O292 C291 1.203 . S
O293 C286 1.185 . S
O293 Zn289 2.086 . S
C294 O290 1.278 . S
C294 O295 1.211 . S
O295 C294 1.211 . S
C296 O288 1.284 . S
C296 O297 1.273 . S
O297 C296 1.273 . S
O298 Zn289 1.977 . S
O298 C291 1.267 . S
C299 O300 1.160 . S
C299 O306 1.185 . S
O300 C299 1.160 . S
O301 Zn302 1.899 . S
O301 C309 1.284 . S
Zn302 O301 1.899 . S
Zn302 O303 2.032 . S
Zn302 O306 2.086 . S
Zn302 O311 1.977 . S
O303 Zn302 2.032 . S
O303 C307 1.278 . S
C304 O305 1.203 . S
C304 O311 1.267 . S
O305 C304 1.203 . S
O306 C299 1.185 . S
O306 Zn302 2.086 . S
C307 O303 1.278 . S
C307 O308 1.211 . S
O308 C307 1.211 . S
C309 O301 1.284 . S
C309 O310 1.273 . S
O310 C309 1.273 . S
O311 Zn302 1.977 . S
O311 C304 1.267 . S
C312 O328 1.251 1_456 S
C312 O330 1.254 . S
N313 C314 1.333 1_565 S
N313 C318 1.307 . S
N313 Zn319 2.020 1_665 S
C314 N313 1.333 1_545 S
C314 C315 1.379 . S
C314 H332 0.952 . S
C315 C314 1.379 . S
C315 C316 1.390 1_545 S
C315 H342 0.949 . S
C316 C315 1.390 1_565 S
C316 C317 1.357 . S
C317 C316 1.357 . S
C317 C318 1.370 . S
C317 H343 0.950 . S
C318 N313 1.307 . S
C318 C317 1.370 . S
C318 H336 0.948 . S
Zn319 N313 2.020 1_445 S
Zn319 O328 2.039 1_455 S
Zn319 O334 2.034 . S
Zn319 O338 2.025 1_545 S
Zn319 O340 2.024 1_545 S
C320 O339 1.246 . S
C320 O340 1.249 . S
N321 C322 1.307 1_554 S
N321 C323 1.333 . S
N321 Zn327 2.020 . S
C322 N321 1.307 1_556 S
C322 C326 1.370 . S
C322 H333 0.948 . S
C323 N321 1.333 . S
C323 C324 1.379 . S
C323 H331 0.952 . S
C324 C323 1.379 . S
C324 C325 1.390 . S
C324 H344 0.949 . S
C325 C324 1.390 . S
C325 C326 1.357 1_554 S
C326 C322 1.370 . S
C326 C325 1.357 1_556 S
C326 H345 0.950 . S
Zn327 N321 2.020 . S
Zn327 O330 2.025 1_554 S
Zn327 O335 2.024 . S
Zn327 O337 2.039 . S
Zn327 O339 2.034 1_545 S
O328 C312 1.251 1_654 S
O328 Zn319 2.039 1_655 S
C329 O334 1.246 . S
C329 O335 1.249 . S
O330 C312 1.254 . S
O330 Zn327 2.025 1_556 S
H331 C323 0.952 . S
H332 C314 0.952 . S
H333 C322 0.948 . S
O334 Zn319 2.034 . S
O334 C329 1.246 . S
O335 Zn327 2.024 . S
O335 C329 1.249 . S
H336 C318 0.948 . S
O337 Zn327 2.039 . S
O337 C341 1.251 . S
O338 Zn319 2.025 1_565 S
O338 C341 1.254 1_565 S
O339 C320 1.246 . S
O339 Zn327 2.034 1_565 S
O340 Zn319 2.024 1_565 S
O340 C320 1.249 . S
C341 O337 1.251 . S
C341 O338 1.254 1_545 S
H342 C315 0.949 . S
H343 C317 0.950 . S
H344 C324 0.949 . S
H345 C326 0.950 . S
C346 O362 1.251 . S
C346 O364 1.254 . S
N347 C348 1.333 . S
N347 C352 1.307 . S
N347 Zn353 2.020 . S
C348 N347 1.333 . S
C348 C349 1.379 . S
C348 H366 0.952 . S
C349 C348 1.379 . S
C349 C350 1.390 . S
C349 H376 0.949 . S
C350 C349 1.390 . S
C350 C351 1.357 . S
C351 C350 1.357 . S
C351 C352 1.370 . S
C351 H377 0.950 . S
C352 N347 1.307 . S
C352 C351 1.370 . S
C352 H370 0.948 . S
Zn353 N347 2.020 . S
Zn353 O362 2.039 . S
Zn353 O368 2.034 . S
Zn353 O372 2.025 . S
Zn353 O374 2.024 . S
C354 O373 1.246 . S
C354 O374 1.249 . S
N355 C356 1.307 . S
N355 C357 1.333 . S
N355 Zn361 2.020 . S
C356 N355 1.307 . S
C356 C360 1.370 . S
C356 H367 0.948 . S
C357 N355 1.333 . S
C357 C358 1.379 . S
C357 H365 0.952 . S
C358 C357 1.379 . S
C358 C359 1.390 . S
C358 H378 0.949 . S
C359 C358 1.390 . S
C359 C360 1.357 . S
C360 C356 1.370 . S
C360 C359 1.357 . S
C360 H379 0.950 . S
Zn361 N355 2.020 . S
Zn361 O364 2.025 . S
Zn361 O369 2.024 . S
Zn361 O371 2.039 . S
Zn361 O373 2.034 . S
O362 C346 1.251 . S
O362 Zn353 2.039 . S
C363 O368 1.246 . S
C363 O369 1.249 . S
O364 C346 1.254 . S
O364 Zn361 2.025 . S
H365 C357 0.952 . S
H366 C348 0.952 . S
H367 C356 0.948 . S
O368 Zn353 2.034 . S
O368 C363 1.246 . S
O369 Zn361 2.024 . S
O369 C363 1.249 . S
H370 C352 0.948 . S
O371 Zn361 2.039 . S
O371 C375 1.251 . S
O372 Zn353 2.025 . S
O372 C375 1.254 . S
O373 C354 1.246 . S
O373 Zn361 2.034 . S
O374 Zn353 2.024 . S
O374 C354 1.249 . S
C375 O371 1.251 . S
C375 O372 1.254 . S
H376 C349 0.949 . S
H377 C351 0.950 . S
H378 C358 0.949 . S
H379 C360 0.950 . S
C380 O396 1.271 . S
C380 O398 1.254 . S
N381 C382 1.333 . S
N381 C386 1.307 . S
N381 Zn387 2.020 . S
C382 N381 1.333 . S
C382 C383 1.379 . S
C382 H400 0.952 . S
C383 C382 1.379 . S
C383 C384 1.390 . S
C383 H410 0.949 . S
C384 C383 1.390 . S
C384 C385 1.357 . S
C385 C384 1.357 . S
C385 C386 1.370 . S
C385 H411 0.950 . S
C386 N381 1.307 . S
C386 C385 1.370 . S
C386 H404 0.948 . S
Zn387 N381 2.020 . S
Zn387 O396 2.031 1_565 S
Zn387 O402 2.034 1_565 S
Zn387 O406 2.025 . S
Zn387 O408 2.024 . S
C388 O407 1.246 1_565 S
C388 O408 1.249 . S
N389 C390 1.307 . S
N389 C391 1.333 . S
N389 Zn395 2.020 . S
C390 N389 1.307 . S
C390 C394 1.370 . S
C390 H401 0.948 . S
C391 N389 1.333 . S
C391 C392 1.379 . S
C391 H399 0.952 . S
C392 C391 1.379 . S
C392 C393 1.390 . S
C392 H412 0.949 . S
C393 C392 1.390 . S
C393 C394 1.357 . S
C394 C390 1.370 . S
C394 C393 1.357 . S
C394 H413 0.950 . S
Zn395 N389 2.020 . S
Zn395 O398 2.025 . S
Zn395 O403 2.024 . S
Zn395 O405 2.039 . S
Zn395 O407 2.034 . S
O396 C380 1.271 . S
O396 Zn387 2.031 1_545 S
C397 O402 1.246 . S
C397 O403 1.249 . S
O398 C380 1.254 . S
O398 Zn395 2.025 . S
H399 C391 0.952 . S
H400 C382 0.952 . S
H401 C390 0.948 . S
O402 Zn387 2.034 1_545 S
O402 C397 1.246 . S
O403 Zn395 2.024 . S
O403 C397 1.249 . S
H404 C386 0.948 . S
O405 Zn395 2.039 . S
O405 C409 1.251 . S
O406 Zn387 2.025 . S
O406 C409 1.254 1_565 S
O407 C388 1.246 1_545 S
O407 Zn395 2.034 . S
O408 Zn387 2.024 . S
O408 C388 1.249 . S
C409 O405 1.251 . S
C409 O406 1.254 1_545 S
H410 C383 0.949 . S
H411 C385 0.950 . S
H412 C392 0.949 . S
H413 C394 0.950 . S
C414 O430 1.251 . S
C414 O432 1.254 . S
N415 C416 1.333 . S
N415 C420 1.307 . S
N415 Zn421 2.020 . S
C416 N415 1.333 . S
C416 C417 1.379 . S
C416 H434 0.952 . S
C417 C416 1.379 . S
C417 C418 1.390 . S
C417 H444 0.949 . S
C418 C417 1.390 . S
C418 C419 1.357 . S
C419 C418 1.357 . S
C419 C420 1.370 . S
C419 H445 0.950 . S
C420 N415 1.307 . S
C420 C419 1.370 . S
C420 H438 0.948 . S
Zn421 N415 2.020 . S
Zn421 O430 2.039 . S
Zn421 O436 2.034 . S
Zn421 O440 2.025 . S
Zn421 O442 2.024 . S
C422 O441 1.246 . S
C422 O442 1.249 . S
N423 C424 1.307 . S
N423 C425 1.333 . S
N423 Zn429 2.020 . S
C424 N423 1.307 . S
C424 C428 1.370 . S
C424 H435 0.948 . S
C425 N423 1.333 . S
C425 C426 1.379 . S
C425 H433 0.952 . S
C426 C425 1.379 . S
C426 C427 1.390 . S
C426 H446 0.949 . S
C427 C426 1.390 . S
C427 C428 1.357 . S
C428 C424 1.370 . S
C428 C427 1.357 . S
C428 H447 0.950 . S
Zn429 N423 2.020 . S
Zn429 O432 2.025 . S
Zn429 O437 2.024 . S
Zn429 O439 2.039 . S
Zn429 O441 2.034 . S
O430 C414 1.251 . S
O430 Zn421 2.039 . S
C431 O436 1.246 . S
C431 O437 1.249 . S
O432 C414 1.254 . S
O432 Zn429 2.025 . S
H433 C425 0.952 . S
H434 C416 0.952 . S
H435 C424 0.948 . S
O436 Zn421 2.034 . S
O436 C431 1.246 . S
O437 Zn429 2.024 . S
O437 C431 1.249 . S
H438 C420 0.948 . S
O439 Zn429 2.039 . S
O439 C443 1.251 . S
O440 Zn421 2.025 . S
O440 C443 1.254 . S
O441 C422 1.246 . S
O441 Zn429 2.034 . S
O442 Zn421 2.024 . S
O442 C422 1.249 . S
C443 O439 1.251 . S
C443 O440 1.254 . S
H444 C417 0.949 . S
H445 C419 0.950 . S
H446 C426 0.949 . S
H447 C428 0.950 . S
C448 O464 1.251 1_565 S
C448 O466 1.254 . S
N449 C450 1.333 . S
N449 C454 1.307 . S
N449 Zn455 2.020 . S
C450 N449 1.333 . S
C450 C451 1.379 . S
C450 H468 0.952 . S
C451 C450 1.379 . S
C451 C452 1.390 . S
C451 H478 0.949 . S
C452 C451 1.390 . S
C452 C453 1.357 . S
C453 C452 1.357 . S
C453 C454 1.370 . S
C453 H479 0.950 . S
C454 N449 1.307 . S
C454 C453 1.370 . S
C454 H472 0.948 . S
Zn455 N449 2.020 . S
Zn455 O464 2.039 . S
Zn455 O470 2.034 . S
Zn455 O474 2.025 . S
Zn455 O476 2.024 1_545 S
C456 O475 1.246 . S
C456 O476 1.249 . S
N457 C458 1.307 . S
N457 C459 1.333 1_455 S
N457 Zn463 2.020 1_565 S
C458 N457 1.307 . S
C458 C462 1.370 . S
C458 H469 0.956 . S
C459 N457 1.333 1_655 S
C459 C460 1.379 . S
C459 H467 0.952 . S
C460 C459 1.379 . S
C460 C461 1.390 . S
C460 H480 0.949 . S
C461 C460 1.390 . S
C461 C462 1.357 1_655 S
C462 C458 1.370 . S
C462 C461 1.357 1_455 S
C462 H481 0.950 . S
Zn463 N457 2.020 1_545 S
Zn463 O466 2.025 1_545 S
Zn463 O471 2.024 . S
Zn463 O473 2.039 1_455 S
Zn463 O475 2.034 1_545 S
O464 C448 1.251 1_545 S
O464 Zn455 2.039 . S
C465 O470 1.246 . S
C465 O471 1.249 . S
O466 C448 1.254 . S
O466 Zn463 2.025 1_565 S
H467 C459 0.952 . S
H468 C450 0.952 . S
H469 C458 0.956 . S
O470 Zn455 2.034 . S
O470 C465 1.246 . S
O471 Zn463 2.024 . S
O471 C465 1.249 . S
H472 C454 0.948 . S
O473 Zn463 2.039 1_655 S
O473 C477 1.251 . S
O474 Zn455 2.025 . S
O474 C477 1.254 1_455 S
O475 C456 1.246 . S
O475 Zn463 2.034 1_565 S
O476 Zn455 2.024 1_565 S
O476 C456 1.249 . S
C477 O473 1.251 . S
C477 O474 1.254 1_655 S
H478 C451 0.949 . S
H479 C453 0.950 . S
H480 C460 0.949 . S
H481 C462 0.950 . S
C482 O498 1.251 . S
C482 O500 1.254 . S
N483 C484 1.333 . S
N483 C488 1.307 . S
N483 Zn489 2.020 . S
C484 N483 1.333 . S
C484 C485 1.379 . S
C484 H502 0.952 . S
C485 C484 1.379 . S
C485 C486 1.390 . S
C485 H512 0.949 . S
C486 C485 1.390 . S
C486 C487 1.357 . S
C487 C486 1.357 . S
C487 C488 1.370 . S
C487 H513 0.950 . S
C488 N483 1.307 . S
C488 C487 1.370 . S
C488 H506 0.948 . S
Zn489 N483 2.020 . S
Zn489 O498 2.039 . S
Zn489 O504 2.034 . S
Zn489 O508 2.025 . S
Zn489 O510 2.024 . S
C490 O509 1.246 . S
C490 O510 1.249 . S
N491 C492 1.307 . S
N491 C493 1.333 . S
N491 Zn497 2.020 . S
C492 N491 1.307 . S
C492 C496 1.370 . S
C492 H503 0.948 . S
C493 N491 1.333 . S
C493 C494 1.379 . S
C493 H501 0.952 . S
C494 C493 1.379 . S
C494 C495 1.390 . S
C494 H514 0.949 . S
C495 C494 1.390 . S
C495 C496 1.357 . S
C496 C492 1.370 . S
C496 C495 1.357 . S
C496 H515 0.950 . S
Zn497 N491 2.020 . S
Zn497 O500 2.025 . S
Zn497 O505 2.024 . S
Zn497 O507 2.039 . S
Zn497 O509 2.034 . S
O498 C482 1.251 . S
O498 Zn489 2.039 . S
C499 O504 1.246 . S
C499 O505 1.249 . S
O500 C482 1.254 . S
O500 Zn497 2.025 . S
H501 C493 0.952 . S
H502 C484 0.952 . S
H503 C492 0.948 . S
O504 Zn489 2.034 . S
O504 C499 1.246 . S
O505 Zn497 2.024 . S
O505 C499 1.249 . S
H506 C488 0.948 . S
O507 Zn497 2.039 . S
O507 C511 1.251 . S
O508 Zn489 2.025 . S
O508 C511 1.254 . S
O509 C490 1.246 . S
O509 Zn497 2.034 . S
O510 Zn489 2.024 . S
O510 C490 1.249 . S
C511 O507 1.251 . S
C511 O508 1.254 . S
H512 C485 0.949 . S
H513 C487 0.950 . S
H514 C494 0.949 . S
H515 C496 0.950 . S
C516 O532 1.251 . S
C516 O534 1.254 . S
N517 C518 1.333 . S
N517 C522 1.307 . S
N517 Zn523 2.020 . S
C518 N517 1.333 . S
C518 C519 1.379 . S
C518 H536 0.952 . S
C519 C518 1.379 . S
C519 C520 1.390 . S
C519 H546 0.949 . S
C520 C519 1.390 . S
C520 C521 1.357 . S
C521 C520 1.357 . S
C521 C522 1.370 . S
C521 H547 0.950 . S
C522 N517 1.307 . S
C522 C521 1.370 . S
C522 H540 0.948 . S
Zn523 N517 2.020 . S
Zn523 O532 2.039 1_545 S
Zn523 O538 2.034 . S
Zn523 O542 2.025 . S
Zn523 O544 2.024 . S
C524 O543 1.272 . S
C524 O544 1.249 1_565 S
N525 C526 1.307 . S
N525 C527 1.333 1_565 S
N525 Zn531 2.020 1_566 S
C526 N525 1.307 . S
C526 C530 1.370 . S
C526 H537 0.948 . S
C527 N525 1.333 1_545 S
C527 C528 1.379 . S
C527 H535 0.952 . S
C528 C527 1.379 . S
C528 C529 1.390 1_545 S
C528 H548 0.949 . S
C529 C528 1.390 1_565 S
C529 C530 1.357 . S
C530 C526 1.370 . S
C530 C529 1.357 . S
C530 H549 0.950 . S
Zn531 N525 2.020 1_544 S
Zn531 O534 2.025 1_545 S
Zn531 O539 2.024 . S
Zn531 O541 2.039 1_554 S
Zn531 O543 2.038 1_545 S
O532 C516 1.251 . S
O532 Zn523 2.039 1_565 S
C533 O538 1.246 . S
C533 O539 1.249 . S
O534 C516 1.254 . S
O534 Zn531 2.025 1_565 S
H535 C527 0.952 . S
H536 C518 0.952 . S
H537 C526 0.948 . S
O538 Zn523 2.034 . S
O538 C533 1.246 . S
O539 Zn531 2.024 . S
O539 C533 1.249 . S
H540 C522 0.948 . S
O541 Zn531 2.039 1_556 S
O541 C545 1.251 1_556 S
O542 Zn523 2.025 . S
O542 C545 1.254 . S
O543 C524 1.272 . S
O543 Zn531 2.038 1_565 S
O544 Zn523 2.024 . S
O544 C524 1.249 1_545 S
C545 O541 1.251 1_554 S
C545 O542 1.254 . S
H546 C519 0.949 . S
H547 C521 0.950 . S
H548 C528 0.949 . S
H549 C530 0.950 . S
C550 O566 1.251 . S
C550 O568 1.254 . S
N551 C552 1.333 . S
N551 C556 1.307 . S
N551 Zn557 2.020 . S
C552 N551 1.333 . S
C552 C553 1.379 . S
C552 H570 0.952 . S
C553 C552 1.379 . S
C553 C554 1.390 . S
C553 H580 0.949 . S
C554 C553 1.390 . S
C554 C555 1.357 . S
C555 C554 1.357 . S
C555 C556 1.370 . S
C555 H581 0.950 . S
C556 N551 1.307 . S
C556 C555 1.370 . S
C556 H574 0.948 . S
Zn557 N551 2.020 . S
Zn557 O566 2.039 . S
Zn557 O572 2.034 . S
Zn557 O576 2.025 . S
Zn557 O578 2.024 . S
C558 O577 1.246 . S
C558 O578 1.249 . S
N559 C560 1.307 . S
N559 C561 1.333 . S
N559 Zn565 2.020 . S
C560 N559 1.307 . S
C560 C564 1.370 . S
C560 H571 0.948 . S
C561 N559 1.333 . S
C561 C562 1.379 . S
C561 H569 0.952 . S
C562 C561 1.379 . S
C562 C563 1.390 . S
C562 H582 0.949 . S
C563 C562 1.390 . S
C563 C564 1.357 . S
C564 C560 1.370 . S
C564 C563 1.357 . S
C564 H583 0.950 . S
Zn565 N559 2.020 . S
Zn565 O568 2.025 . S
Zn565 O573 2.024 . S
Zn565 O575 2.039 . S
Zn565 O577 2.034 . S
O566 C550 1.251 . S
O566 Zn557 2.039 . S
C567 O572 1.246 . S
C567 O573 1.249 . S
O568 C550 1.254 . S
O568 Zn565 2.025 . S
H569 C561 0.952 . S
H570 C552 0.952 . S
H571 C560 0.948 . S
O572 Zn557 2.034 . S
O572 C567 1.246 . S
O573 Zn565 2.024 . S
O573 C567 1.249 . S
H574 C556 0.948 . S
O575 Zn565 2.039 . S
O575 C579 1.251 . S
O576 Zn557 2.025 . S
O576 C579 1.254 . S
O577 C558 1.246 . S
O577 Zn565 2.034 . S
O578 Zn557 2.024 . S
O578 C558 1.249 . S
C579 O575 1.251 . S
C579 O576 1.254 . S
H580 C553 0.949 . S
H581 C555 0.950 . S
H582 C562 0.949 . S
H583 C564 0.950 . S
C584 O600 1.251 . S
C584 O602 1.254 . S
N585 C586 1.333 . S
N585 C590 1.307 . S
N585 Zn591 2.020 1_556 S
C586 N585 1.333 . S
C586 C587 1.379 . S
C586 H604 0.952 . S
C587 C586 1.379 . S
C587 C588 1.390 . S
C587 H614 0.949 . S
C588 C587 1.390 . S
C588 C589 1.357 . S
C589 C588 1.357 . S
C589 C590 1.370 . S
C589 H615 0.950 . S
C590 N585 1.307 . S
C590 C589 1.370 . S
C590 H608 0.948 . S
Zn591 N585 2.020 1_554 S
Zn591 O600 2.039 . S
Zn591 O606 2.034 . S
Zn591 O610 2.025 1_554 S
Zn591 O612 2.024 1_554 S
C592 O611 1.246 . S
C592 O612 1.249 1_554 S
N593 C594 1.307 . S
N593 C595 1.333 . S
N593 Zn599 2.020 . S
C594 N593 1.307 . S
C594 C598 1.370 . S
C594 H605 0.948 . S
C595 N593 1.333 . S
C595 C596 1.379 . S
C595 H603 0.952 . S
C596 C595 1.379 . S
C596 C597 1.390 . S
C596 H616 0.949 . S
C597 C596 1.390 . S
C597 C598 1.357 . S
C598 C594 1.370 . S
C598 C597 1.357 . S
C598 H617 0.950 . S
Zn599 N593 2.020 . S
Zn599 O602 2.025 . S
Zn599 O607 2.024 . S
Zn599 O609 2.039 . S
Zn599 O611 2.034 . S
O600 C584 1.251 . S
O600 Zn591 2.039 . S
C601 O606 1.246 . S
C601 O607 1.249 . S
O602 C584 1.254 . S
O602 Zn599 2.025 . S
H603 C595 0.952 . S
H604 C586 0.952 . S
H605 C594 0.948 . S
O606 Zn591 2.034 . S
O606 C601 1.246 . S
O607 Zn599 2.024 . S
O607 C601 1.249 . S
H608 C590 0.948 . S
O609 Zn599 2.039 . S
O609 C613 1.251 . S
O610 Zn591 2.025 1_556 S
O610 C613 1.254 1_556 S
O611 C592 1.246 . S
O611 Zn599 2.034 . S
O612 Zn591 2.024 1_556 S
O612 C592 1.249 1_556 S
C613 O609 1.251 . S
C613 O610 1.254 1_554 S
H614 C587 0.949 . S
H615 C589 0.950 . S
H616 C596 0.949 . S
H617 C598 0.950 . S
C618 O634 1.251 . S
C618 O636 1.254 . S
N619 C620 1.333 . S
N619 C624 1.307 . S
N619 Zn625 2.020 . S
C620 N619 1.333 . S
C620 C621 1.379 . S
C620 H638 0.952 . S
C621 C620 1.379 . S
C621 C622 1.390 . S
C621 H648 0.949 . S
C622 C621 1.390 . S
C622 C623 1.357 . S
C623 C622 1.357 . S
C623 C624 1.370 . S
C623 H649 0.950 . S
C624 N619 1.307 . S
C624 C623 1.370 . S
C624 H642 0.948 . S
Zn625 N619 2.020 . S
Zn625 O634 2.039 . S
Zn625 O640 2.034 . S
Zn625 O644 2.025 . S
Zn625 O646 2.024 . S
C626 O645 1.246 . S
C626 O646 1.249 . S
N627 C628 1.307 . S
N627 C629 1.333 . S
N627 Zn633 2.020 . S
C628 N627 1.307 . S
C628 C632 1.370 . S
C628 H639 0.948 . S
C629 N627 1.333 . S
C629 C630 1.379 . S
C629 H637 0.952 . S
C630 C629 1.379 . S
C630 C631 1.390 . S
C630 H650 0.949 . S
C631 C630 1.390 . S
C631 C632 1.357 . S
C632 C628 1.370 . S
C632 C631 1.357 . S
C632 H651 0.950 . S
Zn633 N627 2.020 . S
Zn633 O636 2.025 . S
Zn633 O641 2.024 . S
Zn633 O643 2.039 . S
Zn633 O645 2.034 . S
O634 C618 1.251 . S
O634 Zn625 2.039 . S
C635 O640 1.246 . S
C635 O641 1.249 . S
O636 C618 1.254 . S
O636 Zn633 2.025 . S
H637 C629 0.952 . S
H638 C620 0.952 . S
H639 C628 0.948 . S
O640 Zn625 2.034 . S
O640 C635 1.246 . S
O641 Zn633 2.024 . S
O641 C635 1.249 . S
H642 C624 0.948 . S
O643 Zn633 2.039 . S
O643 C647 1.251 . S
O644 Zn625 2.025 . S
O644 C647 1.254 . S
O645 C626 1.246 . S
O645 Zn633 2.034 . S
O646 Zn625 2.024 . S
O646 C626 1.249 . S
C647 O643 1.251 . S
C647 O644 1.254 . S
H648 C621 0.949 . S
H649 C623 0.950 . S
H650 C630 0.949 . S
H651 C632 0.950 . S
C652 O668 1.251 . S
C652 O670 1.254 . S
N653 C654 1.333 . S
N653 C658 1.307 . S
N653 Zn659 2.020 . S
C654 N653 1.333 . S
C654 C655 1.379 . S
C654 H672 0.952 . S
C655 C654 1.379 . S
C655 C656 1.390 . S
C655 H682 0.949 . S
C656 C655 1.390 . S
C656 C657 1.357 . S
C657 C656 1.357 . S
C657 C658 1.370 . S
C657 H683 0.950 . S
C658 N653 1.307 . S
C658 C657 1.370 . S
C658 H676 0.948 . S
Zn659 N653 2.020 . S
Zn659 O668 2.039 . S
Zn659 O674 2.034 . S
Zn659 O678 2.025 . S
Zn659 O680 2.024 . S
C660 O679 1.246 . S
C660 O680 1.249 . S
N661 C662 1.307 1_455 S
N661 C663 1.333 . S
N661 Zn667 2.020 . S
C662 N661 1.307 1_655 S
C662 C666 1.370 . S
C662 H673 0.948 . S
C663 N661 1.333 . S
C663 C664 1.379 . S
C663 H671 0.952 . S
C664 C663 1.379 . S
C664 C665 1.390 1_455 S
C664 H684 0.949 . S
C665 C664 1.390 1_655 S
C665 C666 1.357 . S
C666 C662 1.370 . S
C666 C665 1.357 . S
C666 H685 0.950 . S
Zn667 N661 2.020 . S
Zn667 O670 2.025 . S
Zn667 O675 2.024 1_455 S
Zn667 O677 2.039 . S
Zn667 O679 2.034 . S
O668 C652 1.251 . S
O668 Zn659 2.039 . S
C669 O674 1.246 1_655 S
C669 O675 1.249 . S
O670 C652 1.254 . S
O670 Zn667 2.025 . S
H671 C663 0.952 . S
H672 C654 0.952 . S
H673 C662 0.948 . S
O674 Zn659 2.034 . S
O674 C669 1.246 1_455 S
O675 Zn667 2.024 1_655 S
O675 C669 1.249 . S
H676 C658 0.948 . S
O677 Zn667 2.039 . S
O677 C681 1.251 . S
O678 Zn659 2.025 . S
O678 C681 1.254 . S
O679 C660 1.246 . S
O679 Zn667 2.034 . S
O680 Zn659 2.024 . S
O680 C660 1.249 . S
C681 O677 1.251 . S
C681 O678 1.254 . S
H682 C655 0.949 . S
H683 C657 0.950 . S
H684 C664 0.949 . S
H685 C666 0.950 . S
C686 O702 1.251 . S
C686 O704 1.254 . S
N687 C688 1.333 . S
N687 C692 1.307 . S
N687 Zn693 2.020 . S
C688 N687 1.333 . S
C688 C689 1.379 . S
C688 H706 0.952 . S
C689 C688 1.379 . S
C689 C690 1.390 . S
C689 H716 0.949 . S
C690 C689 1.390 . S
C690 C691 1.357 . S
C691 C690 1.357 . S
C691 C692 1.370 . S
C691 H717 0.950 . S
C692 N687 1.307 . S
C692 C691 1.370 . S
C692 H710 0.948 . S
Zn693 N687 2.020 . S
Zn693 O702 2.039 . S
Zn693 O708 2.034 . S
Zn693 O712 2.025 . S
Zn693 O714 2.024 . S
C694 O713 1.246 . S
C694 O714 1.249 . S
N695 C696 1.307 . S
N695 C697 1.333 . S
N695 Zn701 2.020 . S
C696 N695 1.307 . S
C696 C700 1.370 . S
C696 H707 0.948 . S
C697 N695 1.333 . S
C697 C698 1.379 . S
C697 H705 0.952 . S
C698 C697 1.379 . S
C698 C699 1.390 . S
C698 H718 0.949 . S
C699 C698 1.390 . S
C699 C700 1.357 . S
C700 C696 1.370 . S
C700 C699 1.357 . S
C700 H719 0.950 . S
Zn701 N695 2.020 . S
Zn701 O704 2.025 . S
Zn701 O709 2.024 . S
Zn701 O711 2.039 . S
Zn701 O713 2.034 . S
O702 C686 1.251 . S
O702 Zn693 2.039 . S
C703 O708 1.246 . S
C703 O709 1.249 . S
O704 C686 1.254 . S
O704 Zn701 2.025 . S
H705 C697 0.952 . S
H706 C688 0.952 . S
H707 C696 0.948 . S
O708 Zn693 2.034 . S
O708 C703 1.246 . S
O709 Zn701 2.024 . S
O709 C703 1.249 . S
H710 C692 0.948 . S
O711 Zn701 2.039 . S
O711 C715 1.251 . S
O712 Zn693 2.025 . S
O712 C715 1.254 . S
O713 C694 1.246 . S
O713 Zn701 2.034 . S
O714 Zn693 2.024 . S
O714 C694 1.249 . S
C715 O711 1.251 . S
C715 O712 1.254 . S
H716 C689 0.949 . S
H717 C691 0.950 . S
H718 C698 0.949 . S
H719 C700 0.950 . S
C720 O736 1.251 . S
C720 O738 1.254 . S
N721 C722 1.333 . S
N721 C726 1.307 . S
N721 Zn727 2.020 . S
C722 N721 1.333 . S
C722 C723 1.379 . S
C722 H740 0.952 . S
C723 C722 1.379 . S
C723 C724 1.390 . S
C723 H750 0.949 . S
C724 C723 1.390 . S
C724 C725 1.357 . S
C725 C724 1.357 . S
C725 C726 1.370 . S
C725 H751 0.950 . S
C726 N721 1.307 . S
C726 C725 1.370 . S
C726 H744 0.948 . S
Zn727 N721 2.020 . S
Zn727 O736 2.039 . S
Zn727 O742 2.034 . S
Zn727 O746 2.025 . S
Zn727 O748 2.024 . S
C728 O747 1.246 . S
C728 O748 1.249 . S
N729 C730 1.307 . S
N729 C731 1.333 . S
N729 Zn735 2.020 . S
C730 N729 1.307 . S
C730 C734 1.370 . S
C730 H741 0.948 . S
C731 N729 1.333 . S
C731 C732 1.379 . S
C731 H739 0.952 . S
C732 C731 1.379 . S
C732 C733 1.390 . S
C732 H752 0.949 . S
C733 C732 1.390 . S
C733 C734 1.357 . S
C734 C730 1.370 . S
C734 C733 1.357 . S
C734 H753 0.950 . S
Zn735 N729 2.020 . S
Zn735 O738 2.025 . S
Zn735 O743 2.024 . S
Zn735 O745 2.039 . S
Zn735 O747 2.034 . S
O736 C720 1.251 . S
O736 Zn727 2.039 . S
C737 O742 1.246 . S
C737 O743 1.249 . S
O738 C720 1.254 . S
O738 Zn735 2.025 . S
H739 C731 0.952 . S
H740 C722 0.952 . S
H741 C730 0.948 . S
O742 Zn727 2.034 . S
O742 C737 1.246 . S
O743 Zn735 2.024 . S
O743 C737 1.249 . S
H744 C726 0.948 . S
O745 Zn735 2.039 . S
O745 C749 1.251 . S
O746 Zn727 2.025 . S
O746 C749 1.254 . S
O747 C728 1.246 . S
O747 Zn735 2.034 . S
O748 Zn727 2.024 . S
O748 C728 1.249 . S
C749 O745 1.251 . S
C749 O746 1.254 . S
H750 C723 0.949 . S
H751 C725 0.950 . S
H752 C732 0.949 . S
H753 C734 0.950 . S
C754 O770 1.251 . S
C754 O772 1.254 . S
N755 C756 1.333 . S
N755 C760 1.307 . S
N755 Zn761 2.020 . S
C756 N755 1.333 . S
C756 C757 1.379 . S
C756 H774 0.952 . S
C757 C756 1.379 . S
C757 C758 1.390 . S
C757 H784 0.949 . S
C758 C757 1.390 . S
C758 C759 1.357 . S
C759 C758 1.357 . S
C759 C760 1.370 . S
C759 H785 0.950 . S
C760 N755 1.307 . S
C760 C759 1.370 . S
C760 H778 0.948 . S
Zn761 N755 2.020 . S
Zn761 O770 2.039 . S
Zn761 O776 2.034 . S
Zn761 O780 2.025 . S
Zn761 O782 2.024 . S
C762 O781 1.246 . S
C762 O782 1.249 . S
N763 C764 1.307 . S
N763 C765 1.333 . S
N763 Zn769 2.020 . S
C764 N763 1.307 . S
C764 C768 1.370 . S
C764 H775 0.948 . S
C765 N763 1.333 . S
C765 C766 1.379 . S
C765 H773 0.952 . S
C766 C765 1.379 . S
C766 C767 1.390 . S
C766 H786 0.949 . S
C767 C766 1.390 . S
C767 C768 1.357 . S
C768 C764 1.370 . S
C768 C767 1.357 . S
C768 H787 0.950 . S
Zn769 N763 2.020 . S
Zn769 O772 2.025 . S
Zn769 O777 2.024 . S
Zn769 O779 2.039 . S
Zn769 O781 2.034 . S
O770 C754 1.251 . S
O770 Zn761 2.039 . S
C771 O776 1.246 . S
C771 O777 1.249 . S
O772 C754 1.254 . S
O772 Zn769 2.025 . S
H773 C765 0.952 . S
H774 C756 0.952 . S
H775 C764 0.948 . S
O776 Zn761 2.034 . S
O776 C771 1.246 . S
O777 Zn769 2.024 . S
O777 C771 1.249 . S
H778 C760 0.948 . S
O779 Zn769 2.039 . S
O779 C783 1.251 . S
O780 Zn761 2.025 . S
O780 C783 1.254 . S
O781 C762 1.246 . S
O781 Zn769 2.034 . S
O782 Zn761 2.024 . S
O782 C762 1.249 . S
C783 O779 1.251 . S
C783 O780 1.254 . S
H784 C757 0.949 . S
H785 C759 0.950 . S
H786 C766 0.949 . S
H787 C768 0.950 . S
C788 O804 1.251 . S
C788 O806 1.254 . S
N789 C790 1.333 . S
N789 C794 1.307 . S
N789 Zn795 2.020 . S
C790 N789 1.333 . S
C790 C791 1.379 . S
C790 H808 0.952 . S
C791 C790 1.379 . S
C791 C792 1.390 . S
C791 H818 0.949 . S
C792 C791 1.390 . S
C792 C793 1.357 . S
C793 C792 1.357 . S
C793 C794 1.370 . S
C793 H819 0.950 . S
C794 N789 1.307 . S
C794 C793 1.370 . S
C794 H812 0.948 . S
Zn795 N789 2.020 . S
Zn795 O804 2.039 . S
Zn795 O810 2.034 . S
Zn795 O814 2.025 . S
Zn795 O816 2.024 . S
C796 O815 1.246 . S
C796 O816 1.249 . S
N797 C798 1.307 . S
N797 C799 1.333 . S
N797 Zn803 2.020 . S
C798 N797 1.307 . S
C798 C802 1.370 . S
C798 H809 0.948 . S
C799 N797 1.333 . S
C799 C800 1.379 . S
C799 H807 0.952 . S
C800 C799 1.379 . S
C800 C801 1.390 . S
C800 H820 0.949 . S
C801 C800 1.390 . S
C801 C802 1.357 . S
C802 C798 1.370 . S
C802 C801 1.357 . S
C802 H821 0.950 . S
Zn803 N797 2.020 . S
Zn803 O806 2.025 . S
Zn803 O811 2.024 . S
Zn803 O813 2.039 . S
Zn803 O815 2.034 . S
O804 C788 1.251 . S
O804 Zn795 2.039 . S
C805 O810 1.246 . S
C805 O811 1.249 . S
O806 C788 1.254 . S
O806 Zn803 2.025 . S
H807 C799 0.952 . S
H808 C790 0.952 . S
H809 C798 0.948 . S
O810 Zn795 2.034 . S
O810 C805 1.246 . S
O811 Zn803 2.024 . S
O811 C805 1.249 . S
H812 C794 0.948 . S
O813 Zn803 2.039 . S
O813 C817 1.251 . S
O814 Zn795 2.025 . S
O814 C817 1.254 . S
O815 C796 1.246 . S
O815 Zn803 2.034 . S
O816 Zn795 2.024 . S
O816 C796 1.249 . S
C817 O813 1.251 . S
C817 O814 1.254 . S
H818 C791 0.949 . S
H819 C793 0.950 . S
H820 C800 0.949 . S
H821 C802 0.950 . S
C822 O838 1.251 . S
C822 O840 1.254 . S
N823 C824 1.333 . S
N823 C828 1.307 . S
N823 Zn829 2.020 . S
C824 N823 1.333 . S
C824 C825 1.379 . S
C824 H842 0.952 . S
C825 C824 1.379 . S
C825 C826 1.390 . S
C825 H852 0.949 . S
C826 C825 1.390 . S
C826 C827 1.357 . S
C827 C826 1.357 . S
C827 C828 1.370 . S
C827 H853 0.950 . S
C828 N823 1.307 . S
C828 C827 1.370 . S
C828 H846 0.948 . S
Zn829 N823 2.020 . S
Zn829 O838 2.039 . S
Zn829 O844 2.034 . S
Zn829 O848 2.025 . S
Zn829 O850 2.043 . S
C830 O849 1.246 . S
C830 O850 1.237 1_655 S
N831 C832 1.307 . S
N831 C833 1.333 1_554 S
N831 Zn837 2.020 . S
C832 N831 1.307 . S
C832 C836 1.370 . S
C832 H843 0.948 . S
C833 N831 1.333 1_556 S
C833 C834 1.377 1_455 S
C833 H841 0.952 . S
C834 C833 1.377 1_655 S
C834 C835 1.391 . S
C834 H854 0.951 . S
C835 C834 1.391 . S
C835 C836 1.357 1_656 S
C836 C832 1.370 . S
C836 C835 1.357 1_454 S
C836 H855 0.950 . S
Zn837 N831 2.020 . S
Zn837 O840 2.025 . S
Zn837 O845 2.024 . S
Zn837 O847 2.039 1_554 S
Zn837 O849 2.034 1_455 S
O838 C822 1.251 . S
O838 Zn829 2.039 . S
C839 O844 1.246 . S
C839 O845 1.249 . S
O840 C822 1.254 . S
O840 Zn837 2.025 . S
H841 C833 0.952 . S
H842 C824 0.952 . S
H843 C832 0.948 . S
O844 Zn829 2.034 . S
O844 C839 1.246 . S
O845 Zn837 2.024 . S
O845 C839 1.249 . S
H846 C828 0.948 . S
O847 Zn837 2.039 1_556 S
O847 C851 1.251 . S
O848 Zn829 2.025 . S
O848 C851 1.254 1_554 S
O849 C830 1.246 . S
O849 Zn837 2.034 1_655 S
O850 Zn829 2.043 . S
O850 C830 1.237 1_455 S
C851 O847 1.251 . S
C851 O848 1.254 1_556 S
H852 C825 0.949 . S
H853 C827 0.950 . S
H854 C834 0.951 . S
H855 C836 0.950 . S
H856 C864 0.950 . S
H857 C869 0.950 . S
H858 C866 0.950 . S
H859 C868 0.950 . S
H860 C870 0.950 . S
H861 C872 0.950 . S
H862 C874 0.950 . S
H863 C875 0.950 . S
C864 H856 0.950 . S
C864 C865 1.386 . S
C864 C866 1.391 . S
C865 C864 1.386 . S
C865 C869 1.393 . S
C866 H858 0.950 . S
C866 C864 1.391 . S
C866 C867 1.400 . S
C867 C866 1.400 . S
C867 C868 1.398 . S
C867 C873 1.491 . S
C868 H859 0.950 . S
C868 C867 1.398 . S
C868 C869 1.391 . S
C869 H857 0.950 . S
C869 C865 1.393 . S
C869 C868 1.391 . S
C870 H860 0.950 . S
C870 C871 1.386 . S
C870 C872 1.391 . S
C871 C870 1.386 . S
C871 C875 1.393 . S
C872 H861 0.950 . S
C872 C870 1.391 . S
C872 C873 1.400 . S
C873 C867 1.491 . S
C873 C872 1.400 . S
C873 C874 1.398 . S
C874 H862 0.950 . S
C874 C873 1.398 . S
C874 C875 1.391 . S
C875 H863 0.950 . S
C875 C871 1.393 . S
C875 C874 1.391 . S
H876 C884 0.950 . S
H877 C889 0.950 . S
H878 C886 0.950 . S
H879 C888 0.950 . S
H880 C890 0.950 . S
H881 C892 0.950 . S
H882 C894 0.950 . S
H883 C895 0.950 . S
C884 H876 0.950 . S
C884 C885 1.386 . S
C884 C886 1.391 . S
C885 C884 1.386 . S
C885 C889 1.393 . S
C886 H878 0.950 . S
C886 C884 1.391 . S
C886 C887 1.400 . S
C887 C886 1.400 . S
C887 C888 1.398 . S
C887 C893 1.491 . S
C888 H879 0.950 . S
C888 C887 1.398 . S
C888 C889 1.391 . S
C889 H877 0.950 . S
C889 C885 1.393 . S
C889 C888 1.391 . S
C890 H880 0.950 . S
C890 C891 1.386 . S
C890 C892 1.391 . S
C891 C890 1.386 . S
C891 C895 1.393 . S
C892 H881 0.950 . S
C892 C890 1.391 . S
C892 C893 1.400 . S
C893 C887 1.491 . S
C893 C892 1.400 . S
C893 C894 1.398 . S
C894 H882 0.950 . S
C894 C893 1.398 . S
C894 C895 1.391 . S
C895 H883 0.950 . S
C895 C891 1.393 . S
C895 C894 1.391 . S
H896 C904 0.950 . S
H897 C909 0.950 . S
H898 C906 0.950 . S
H899 C908 0.950 . S
H900 C910 0.950 . S
H901 C912 0.950 . S
H902 C914 0.950 . S
H903 C915 0.950 . S
C904 H896 0.950 . S
C904 C905 1.386 . S
C904 C906 1.391 . S
C905 C904 1.386 . S
C905 C909 1.393 . S
C906 H898 0.950 . S
C906 C904 1.391 . S
C906 C907 1.400 . S
C907 C906 1.400 . S
C907 C908 1.398 . S
C907 C913 1.491 . S
C908 H899 0.950 . S
C908 C907 1.398 . S
C908 C909 1.391 . S
C909 H897 0.950 . S
C909 C905 1.393 . S
C909 C908 1.391 . S
C910 H900 0.950 . S
C910 C911 1.386 . S
C910 C912 1.391 . S
C911 C910 1.386 . S
C911 C915 1.393 . S
C912 H901 0.950 . S
C912 C910 1.391 . S
C912 C913 1.400 . S
C913 C907 1.491 . S
C913 C912 1.400 . S
C913 C914 1.398 . S
C914 H902 0.950 . S
C914 C913 1.398 . S
C914 C915 1.391 . S
C915 H903 0.950 . S
C915 C911 1.393 . S
C915 C914 1.391 . S
H916 C924 0.950 . S
H917 C929 0.950 . S
H918 C926 0.950 . S
H919 C928 0.950 . S
H920 C930 0.950 . S
H921 C932 0.950 . S
H922 C934 0.950 . S
H923 C935 0.950 . S
C924 H916 0.950 . S
C924 C925 1.386 . S
C924 C926 1.391 . S
C925 C924 1.386 . S
C925 C929 1.393 . S
C926 H918 0.950 . S
C926 C924 1.391 . S
C926 C927 1.400 . S
C927 C926 1.400 . S
C927 C928 1.398 . S
C927 C933 1.491 . S
C928 H919 0.950 . S
C928 C927 1.398 . S
C928 C929 1.391 . S
C929 H917 0.950 . S
C929 C925 1.393 . S
C929 C928 1.391 . S
C930 H920 0.950 . S
C930 C931 1.386 . S
C930 C932 1.391 . S
C931 C930 1.386 . S
C931 C935 1.393 . S
C932 H921 0.950 . S
C932 C930 1.391 . S
C932 C933 1.400 . S
C933 C927 1.491 . S
C933 C932 1.400 . S
C933 C934 1.398 . S
C934 H922 0.950 . S
C934 C933 1.398 . S
C934 C935 1.391 . S
C935 H923 0.950 . S
C935 C931 1.393 . S
C935 C934 1.391 . S
H936 C944 0.950 . S
H937 C949 0.950 . S
H938 C946 0.950 1_655 S
H939 C948 0.950 . S
H940 C950 0.950 . S
H941 C952 0.950 . S
H942 C954 0.950 1_655 S
H943 C955 0.950 1_655 S
C944 H936 0.950 . S
C944 C945 1.386 . S
C944 C946 1.391 . S
C945 C944 1.386 . S
C945 C949 1.393 . S
C946 H938 0.950 1_455 S
C946 C944 1.391 . S
C946 C947 1.400 . S
C947 C946 1.400 . S
C947 C948 1.398 . S
C947 C953 1.491 . S
C948 H939 0.950 . S
C948 C947 1.398 . S
C948 C949 1.391 . S
C949 H937 0.950 . S
C949 C945 1.393 . S
C949 C948 1.391 . S
C950 H940 0.950 . S
C950 C951 1.386 . S
C950 C952 1.391 . S
C951 C950 1.386 . S
C951 C955 1.393 . S
C952 H941 0.950 . S
C952 C950 1.391 . S
C952 C953 1.400 . S
C953 C947 1.491 . S
C953 C952 1.400 . S
C953 C954 1.398 . S
C954 H942 0.950 1_455 S
C954 C953 1.398 . S
C954 C955 1.391 . S
C955 H943 0.950 1_455 S
C955 C951 1.393 . S
C955 C954 1.391 . S
H956 C964 0.950 . S
H957 C969 0.950 . S
H958 C966 0.950 . S
H959 C968 0.950 . S
H960 C970 0.950 . S
H961 C972 0.950 . S
H962 C974 0.950 . S
H963 C975 0.950 . S
C964 H956 0.950 . S
C964 C965 1.386 . S
C964 C966 1.391 . S
C965 C964 1.386 . S
C965 C969 1.393 . S
C966 H958 0.950 . S
C966 C964 1.391 . S
C966 C967 1.400 . S
C967 C966 1.400 . S
C967 C968 1.398 . S
C967 C973 1.491 . S
C968 H959 0.950 . S
C968 C967 1.398 . S
C968 C969 1.391 . S
C969 H957 0.950 . S
C969 C965 1.393 . S
C969 C968 1.391 . S
C970 H960 0.950 . S
C970 C971 1.386 . S
C970 C972 1.391 . S
C971 C970 1.386 . S
C971 C975 1.393 . S
C972 H961 0.950 . S
C972 C970 1.391 . S
C972 C973 1.400 . S
C973 C967 1.491 . S
C973 C972 1.400 . S
C973 C974 1.398 . S
C974 H962 0.950 . S
C974 C973 1.398 . S
C974 C975 1.391 . S
C975 H963 0.950 . S
C975 C971 1.393 . S
C975 C974 1.391 . S
H976 C984 0.950 . S
H977 C989 0.950 . S
H978 C986 0.950 . S
H979 C988 0.950 . S
H980 C990 0.950 . S
H981 C992 0.950 . S
H982 C994 0.950 . S
H983 C995 0.950 . S
C984 H976 0.950 . S
C984 C985 1.386 . S
C984 C986 1.391 . S
C985 C984 1.386 . S
C985 C989 1.393 . S
C986 H978 0.950 . S
C986 C984 1.391 . S
C986 C987 1.400 . S
C987 C986 1.400 . S
C987 C988 1.398 . S
C987 C993 1.491 . S
C988 H979 0.950 . S
C988 C987 1.398 . S
C988 C989 1.391 . S
C989 H977 0.950 . S
C989 C985 1.393 . S
C989 C988 1.391 . S
C990 H980 0.950 . S
C990 C991 1.386 1_554 S
C990 C992 1.391 1_554 S
C991 C990 1.386 1_556 S
C991 C995 1.393 . S
C992 H981 0.950 . S
C992 C990 1.391 1_556 S
C992 C993 1.400 . S
C993 C987 1.491 . S
C993 C992 1.400 . S
C993 C994 1.398 . S
C994 H982 0.950 . S
C994 C993 1.398 . S
C994 C995 1.391 . S
C995 H983 0.950 . S
C995 C991 1.393 . S
C995 C994 1.391 . S
H996 C1004 0.950 . S
H997 C1009 0.950 . S
H998 C1006 0.950 . S
H999 C1008 0.950 . S
H1000 C1010 0.950 . S
H1001 C1012 0.950 . S
H1002 C1014 0.950 . S
H1003 C1015 0.950 . S
C1004 H996 0.950 . S
C1004 C1005 1.386 . S
C1004 C1006 1.391 . S
C1005 C1004 1.386 . S
C1005 C1009 1.393 . S
C1006 H998 0.950 . S
C1006 C1004 1.391 . S
C1006 C1007 1.400 . S
C1007 C1006 1.400 . S
C1007 C1008 1.398 . S
C1007 C1013 1.491 . S
C1008 H999 0.950 . S
C1008 C1007 1.398 . S
C1008 C1009 1.391 . S
C1009 H997 0.950 . S
C1009 C1005 1.393 . S
C1009 C1008 1.391 . S
C1010 H1000 0.950 . S
C1010 C1011 1.386 . S
C1010 C1012 1.391 . S
C1011 C1010 1.386 . S
C1011 C1015 1.393 . S
C1012 H1001 0.950 . S
C1012 C1010 1.391 . S
C1012 C1013 1.400 . S
C1013 C1007 1.491 . S
C1013 C1012 1.400 . S
C1013 C1014 1.398 . S
C1014 H1002 0.950 . S
C1014 C1013 1.398 . S
C1014 C1015 1.391 . S
C1015 H1003 0.950 . S
C1015 C1011 1.393 . S
C1015 C1014 1.391 . S
H1016 C1024 0.950 . S
H1017 C1029 0.950 . S
H1018 C1026 0.950 . S
H1019 C1028 0.950 . S
H1020 C1030 0.950 . S
H1021 C1032 0.950 . S
H1022 C1034 0.950 . S
H1023 C1035 0.946 1_565 S
C1024 H1016 0.950 . S
C1024 C1025 1.386 . S
C1024 C1026 1.391 . S
C1025 C1024 1.386 . S
C1025 C1029 1.393 . S
C1026 H1018 0.950 . S
C1026 C1024 1.391 . S
C1026 C1027 1.400 . S
C1027 C1026 1.400 . S
C1027 C1028 1.398 . S
C1027 C1033 1.491 . S
C1028 H1019 0.950 . S
C1028 C1027 1.398 . S
C1028 C1029 1.391 . S
C1029 H1017 0.950 . S
C1029 C1025 1.393 . S
C1029 C1028 1.391 . S
C1030 H1020 0.950 . S
C1030 C1031 1.387 . S
C1030 C1032 1.391 . S
C1031 C1030 1.387 . S
C1031 C1035 1.393 . S
C1032 H1021 0.950 . S
C1032 C1030 1.391 . S
C1032 C1033 1.400 . S
C1033 C1027 1.491 . S
C1033 C1032 1.400 . S
C1033 C1034 1.398 . S
C1034 H1022 0.950 . S
C1034 C1033 1.398 . S
C1034 C1035 1.395 . S
C1035 H1023 0.946 1_545 S
C1035 C1031 1.393 . S
C1035 C1034 1.395 . S
H1036 C1044 0.950 . S
H1037 C1049 0.950 . S
H1038 C1046 0.950 . S
H1039 C1048 0.950 . S
H1040 C1050 0.950 . S
H1041 C1052 0.950 . S
H1042 C1054 0.950 . S
H1043 C1055 0.950 . S
C1044 H1036 0.950 . S
C1044 C1045 1.386 . S
C1044 C1046 1.391 . S
C1045 C1044 1.386 . S
C1045 C1049 1.393 . S
C1046 H1038 0.950 . S
C1046 C1044 1.391 . S
C1046 C1047 1.400 . S
C1047 C1046 1.400 . S
C1047 C1048 1.398 . S
C1047 C1053 1.491 . S
C1048 H1039 0.950 . S
C1048 C1047 1.398 . S
C1048 C1049 1.391 . S
C1049 H1037 0.950 . S
C1049 C1045 1.393 . S
C1049 C1048 1.391 . S
C1050 H1040 0.950 . S
C1050 C1051 1.386 . S
C1050 C1052 1.391 . S
C1051 C1050 1.386 . S
C1051 C1055 1.393 . S
C1052 H1041 0.950 . S
C1052 C1050 1.391 . S
C1052 C1053 1.400 . S
C1053 C1047 1.491 . S
C1053 C1052 1.400 . S
C1053 C1054 1.398 . S
C1054 H1042 0.950 . S
C1054 C1053 1.398 . S
C1054 C1055 1.391 . S
C1055 H1043 0.950 . S
C1055 C1051 1.393 . S
C1055 C1054 1.391 . S
H1056 C1064 0.950 . S
H1057 C1069 0.950 . S
H1058 C1066 0.950 . S
H1059 C1068 0.950 . S
H1060 C1070 0.950 . S
H1061 C1072 0.950 . S
H1062 C1074 0.950 . S
H1063 C1075 0.950 . S
C1064 H1056 0.950 . S
C1064 C1065 1.386 . S
C1064 C1066 1.391 . S
C1065 C1064 1.386 . S
C1065 C1069 1.393 . S
C1066 H1058 0.950 . S
C1066 C1064 1.391 . S
C1066 C1067 1.400 . S
C1067 C1066 1.400 . S
C1067 C1068 1.398 . S
C1067 C1073 1.491 . S
C1068 H1059 0.950 . S
C1068 C1067 1.398 . S
C1068 C1069 1.391 . S
C1069 H1057 0.950 . S
C1069 C1065 1.393 . S
C1069 C1068 1.391 . S
C1070 H1060 0.950 . S
C1070 C1071 1.386 . S
C1070 C1072 1.391 . S
C1071 C1070 1.386 . S
C1071 C1075 1.393 . S
C1072 H1061 0.950 . S
C1072 C1070 1.391 . S
C1072 C1073 1.400 . S
C1073 C1067 1.491 . S
C1073 C1072 1.400 . S
C1073 C1074 1.398 . S
C1074 H1062 0.950 . S
C1074 C1073 1.398 . S
C1074 C1075 1.391 . S
C1075 H1063 0.950 . S
C1075 C1071 1.393 . S
C1075 C1074 1.391 . S
H1076 C1084 0.950 . S
H1077 C1089 0.950 . S
H1078 C1086 0.950 . S
H1079 C1088 0.950 . S
H1080 C1090 0.950 . S
H1081 C1092 0.950 . S
H1082 C1094 0.950 . S
H1083 C1095 0.950 . S
C1084 H1076 0.950 . S
C1084 C1085 1.386 . S
C1084 C1086 1.391 . S
C1085 C1084 1.386 . S
C1085 C1089 1.393 . S
C1086 H1078 0.950 . S
C1086 C1084 1.391 . S
C1086 C1087 1.400 . S
C1087 C1086 1.400 . S
C1087 C1088 1.398 . S
C1087 C1093 1.491 . S
C1088 H1079 0.950 . S
C1088 C1087 1.398 . S
C1088 C1089 1.391 . S
C1089 H1077 0.950 . S
C1089 C1085 1.393 . S
C1089 C1088 1.391 . S
C1090 H1080 0.950 . S
C1090 C1091 1.386 . S
C1090 C1092 1.391 . S
C1091 C1090 1.386 . S
C1091 C1095 1.393 . S
C1092 H1081 0.950 . S
C1092 C1090 1.391 . S
C1092 C1093 1.400 . S
C1093 C1087 1.491 . S
C1093 C1092 1.400 . S
C1093 C1094 1.398 . S
C1094 H1082 0.950 . S
C1094 C1093 1.398 . S
C1094 C1095 1.391 . S
C1095 H1083 0.950 . S
C1095 C1091 1.393 . S
C1095 C1094 1.391 . S
H1096 C1104 0.950 . S
H1097 C1109 0.950 1_565 S
H1098 C1106 0.950 . S
H1099 C1108 0.977 . S
H1100 C1110 0.950 . S
H1101 C1112 0.950 . S
H1102 C1114 0.950 . S
H1103 C1115 0.950 . S
C1104 H1096 0.950 . S
C1104 C1105 1.386 . S
C1104 C1106 1.391 . S
C1105 C1104 1.386 . S
C1105 C1109 1.393 . S
C1106 H1098 0.950 . S
C1106 C1104 1.391 . S
C1106 C1107 1.400 . S
C1107 C1106 1.400 . S
C1107 C1108 1.398 . S
C1107 C1113 1.491 . S
C1108 H1099 0.977 . S
C1108 C1107 1.398 . S
C1108 C1109 1.391 . S
C1109 H1097 0.950 1_545 S
C1109 C1105 1.393 . S
C1109 C1108 1.391 . S
C1110 H1100 0.950 . S
C1110 C1111 1.386 . S
C1110 C1112 1.391 . S
C1111 C1110 1.386 . S
C1111 C1115 1.393 . S
C1112 H1101 0.950 . S
C1112 C1110 1.391 . S
C1112 C1113 1.400 . S
C1113 C1107 1.491 . S
C1113 C1112 1.400 . S
C1113 C1114 1.398 . S
C1114 H1102 0.950 . S
C1114 C1113 1.398 . S
C1114 C1115 1.391 . S
C1115 H1103 0.950 . S
C1115 C1111 1.393 . S
C1115 C1114 1.391 . S
H1116 C1124 0.950 . S
H1117 C1129 0.950 . S
H1118 C1126 0.950 . S
H1119 C1128 0.950 . S
H1120 C1130 0.950 . S
H1121 C1132 0.950 . S
H1122 C1134 0.950 . S
H1123 C1135 0.950 . S
C1124 H1116 0.950 . S
C1124 C1125 1.386 . S
C1124 C1126 1.391 . S
C1125 C1124 1.386 . S
C1125 C1129 1.393 . S
C1126 H1118 0.950 . S
C1126 C1124 1.391 . S
C1126 C1127 1.400 . S
C1127 C1126 1.400 . S
C1127 C1128 1.398 . S
C1127 C1133 1.491 . S
C1128 H1119 0.950 . S
C1128 C1127 1.398 . S
C1128 C1129 1.391 . S
C1129 H1117 0.950 . S
C1129 C1125 1.393 . S
C1129 C1128 1.391 . S
C1130 H1120 0.950 . S
C1130 C1131 1.386 . S
C1130 C1132 1.391 . S
C1131 C1130 1.386 . S
C1131 C1135 1.393 . S
C1132 H1121 0.950 . S
C1132 C1130 1.391 . S
C1132 C1133 1.400 . S
C1133 C1127 1.491 . S
C1133 C1132 1.400 . S
C1133 C1134 1.398 . S
C1134 H1122 0.950 . S
C1134 C1133 1.398 . S
C1134 C1135 1.391 . S
C1135 H1123 0.950 . S
C1135 C1131 1.393 . S
C1135 C1134 1.391 . S
H1136 C1144 0.950 . S
H1137 C1149 0.950 . S
H1138 C1146 0.950 . S
H1139 C1148 0.950 . S
H1140 C1150 0.935 1_545 S
H1141 C1152 0.950 . S
H1142 C1154 0.950 . S
H1143 C1155 0.950 . S
C1144 H1136 0.950 . S
C1144 C1145 1.386 1_565 S
C1144 C1146 1.391 . S
C1145 C1144 1.386 1_545 S
C1145 C1149 1.393 . S
C1146 H1138 0.950 . S
C1146 C1144 1.391 . S
C1146 C1147 1.401 1_565 S
C1147 C1146 1.401 1_545 S
C1147 C1148 1.397 . S
C1147 C1153 1.491 1_545 S
C1148 H1139 0.950 . S
C1148 C1147 1.397 . S
C1148 C1149 1.391 . S
C1149 H1137 0.950 . S
C1149 C1145 1.393 . S
C1149 C1148 1.391 . S
C1150 H1140 0.935 1_565 S
C1150 C1151 1.411 . S
C1150 C1152 1.383 1_565 S
C1151 C1150 1.411 . S
C1151 C1155 1.393 . S
C1152 H1141 0.950 . S
C1152 C1150 1.383 1_545 S
C1152 C1153 1.400 1_545 S
C1153 C1147 1.491 1_565 S
C1153 C1152 1.400 1_565 S
C1153 C1154 1.398 . S
C1154 H1142 0.950 . S
C1154 C1153 1.398 . S
C1154 C1155 1.391 . S
C1155 H1143 0.950 . S
C1155 C1151 1.393 . S
C1155 C1154 1.391 . S
H1156 C1164 0.950 . S
H1157 C1169 0.950 . S
H1158 C1166 0.950 . S
H1159 C1168 0.950 . S
H1160 C1170 0.950 . S
H1161 C1172 0.950 . S
H1162 C1174 0.950 . S
H1163 C1175 0.950 . S
C1164 H1156 0.950 . S
C1164 C1165 1.386 . S
C1164 C1166 1.391 . S
C1165 C1164 1.386 . S
C1165 C1169 1.393 . S
C1166 H1158 0.950 . S
C1166 C1164 1.391 . S
C1166 C1167 1.400 . S
C1167 C1166 1.400 . S
C1167 C1168 1.398 . S
C1167 C1173 1.491 . S
C1168 H1159 0.950 . S
C1168 C1167 1.398 . S
C1168 C1169 1.391 . S
C1169 H1157 0.950 . S
C1169 C1165 1.393 . S
C1169 C1168 1.391 . S
C1170 H1160 0.950 . S
C1170 C1171 1.386 . S
C1170 C1172 1.391 . S
C1171 C1170 1.386 . S
C1171 C1175 1.393 . S
C1172 H1161 0.950 . S
C1172 C1170 1.391 . S
C1172 C1173 1.400 . S
C1173 C1167 1.491 . S
C1173 C1172 1.400 . S
C1173 C1174 1.398 . S
C1174 H1162 0.950 . S
C1174 C1173 1.398 . S
C1174 C1175 1.391 . S
C1175 H1163 0.950 . S
C1175 C1171 1.393 . S
C1175 C1174 1.391 . S
H1176 C1184 0.950 1_556 S
H1177 C1189 0.950 . S
H1178 C1186 0.946 . S
H1179 C1188 0.950 . S
H1180 C1190 0.950 . S
H1181 C1192 0.950 . S
H1182 C1194 0.950 . S
H1183 C1195 0.950 . S
C1184 H1176 0.950 1_554 S
C1184 C1185 1.386 . S
C1184 C1186 1.392 1_554 S
C1185 C1184 1.386 . S
C1185 C1189 1.393 . S
C1186 H1178 0.946 . S
C1186 C1184 1.392 1_556 S
C1186 C1187 1.403 1_556 S
C1187 C1186 1.403 1_554 S
C1187 C1188 1.398 . S
C1187 C1193 1.491 . S
C1188 H1179 0.950 . S
C1188 C1187 1.398 . S
C1188 C1189 1.391 . S
C1189 H1177 0.950 . S
C1189 C1185 1.393 . S
C1189 C1188 1.391 . S
C1190 H1180 0.950 . S
C1190 C1191 1.386 1_554 S
C1190 C1192 1.391 . S
C1191 C1190 1.386 1_556 S
C1191 C1195 1.393 . S
C1192 H1181 0.950 . S
C1192 C1190 1.391 . S
C1192 C1193 1.400 . S
C1193 C1187 1.491 . S
C1193 C1192 1.400 . S
C1193 C1194 1.398 1_554 S
C1194 H1182 0.950 . S
C1194 C1193 1.398 1_556 S
C1194 C1195 1.391 . S
C1195 H1183 0.950 . S
C1195 C1191 1.393 . S
C1195 C1194 1.391 . S
H1196 C1204 0.950 . S
H1197 C1209 0.950 . S
H1198 C1206 0.950 . S
H1199 C1208 0.950 . S
H1200 C1210 0.950 . S
H1201 C1212 0.950 . S
H1202 C1214 0.950 . S
H1203 C1215 0.950 . S
C1204 H1196 0.950 . S
C1204 C1205 1.386 . S
C1204 C1206 1.391 . S
C1205 C1204 1.386 . S
C1205 C1209 1.393 . S
C1206 H1198 0.950 . S
C1206 C1204 1.391 . S
C1206 C1207 1.400 . S
C1207 C1206 1.400 . S
C1207 C1208 1.398 . S
C1207 C1213 1.491 . S
C1208 H1199 0.950 . S
C1208 C1207 1.398 . S
C1208 C1209 1.391 . S
C1209 H1197 0.950 . S
C1209 C1205 1.393 . S
C1209 C1208 1.391 . S
C1210 H1200 0.950 . S
C1210 C1211 1.386 . S
C1210 C1212 1.391 . S
C1211 C1210 1.386 . S
C1211 C1215 1.393 . S
C1212 H1201 0.950 . S
C1212 C1210 1.391 . S
C1212 C1213 1.400 . S
C1213 C1207 1.491 . S
C1213 C1212 1.400 . S
C1213 C1214 1.398 . S
C1214 H1202 0.950 . S
C1214 C1213 1.398 . S
C1214 C1215 1.391 . S
C1215 H1203 0.950 . S
C1215 C1211 1.393 . S
C1215 C1214 1.391 . S
H1216 C1224 0.950 . S
H1217 C1229 0.950 . S
H1218 C1226 0.950 . S
H1219 C1228 0.950 . S
H1220 C1230 0.950 . S
H1221 C1232 0.950 . S
H1222 C1234 0.950 . S
H1223 C1235 0.950 . S
C1224 H1216 0.950 . S
C1224 C1225 1.386 . S
C1224 C1226 1.391 . S
C1225 C1224 1.386 . S
C1225 C1229 1.393 . S
C1226 H1218 0.950 . S
C1226 C1224 1.391 . S
C1226 C1227 1.400 . S
C1227 C1226 1.400 . S
C1227 C1228 1.398 . S
C1227 C1233 1.491 . S
C1228 H1219 0.950 . S
C1228 C1227 1.398 . S
C1228 C1229 1.391 . S
C1229 H1217 0.950 . S
C1229 C1225 1.393 . S
C1229 C1228 1.391 . S
C1230 H1220 0.950 . S
C1230 C1231 1.386 . S
C1230 C1232 1.391 . S
C1231 C1230 1.386 . S
C1231 C1235 1.393 . S
C1232 H1221 0.950 . S
C1232 C1230 1.391 . S
C1232 C1233 1.400 . S
C1233 C1227 1.491 . S
C1233 C1232 1.400 . S
C1233 C1234 1.398 . S
C1234 H1222 0.950 . S
C1234 C1233 1.398 . S
C1234 C1235 1.391 . S
C1235 H1223 0.950 . S
C1235 C1231 1.393 . S
C1235 C1234 1.391 . S
H1236 C1244 0.950 . S
H1237 C1249 0.950 . S
H1238 C1246 0.950 . S
H1239 C1248 0.950 . S
H1240 C1250 0.950 . S
H1241 C1252 0.950 . S
H1242 C1254 0.950 . S
H1243 C1255 0.950 . S
C1244 H1236 0.950 . S
C1244 C1245 1.386 . S
C1244 C1246 1.391 . S
C1245 C1244 1.386 . S
C1245 C1249 1.393 . S
C1246 H1238 0.950 . S
C1246 C1244 1.391 . S
C1246 C1247 1.400 . S
C1247 C1246 1.400 . S
C1247 C1248 1.398 . S
C1247 C1253 1.491 . S
C1248 H1239 0.950 . S
C1248 C1247 1.398 . S
C1248 C1249 1.391 . S
C1249 H1237 0.950 . S
C1249 C1245 1.393 . S
C1249 C1248 1.391 . S
C1250 H1240 0.950 . S
C1250 C1251 1.386 . S
C1250 C1252 1.391 . S
C1251 C1250 1.386 . S
C1251 C1255 1.393 . S
C1252 H1241 0.950 . S
C1252 C1250 1.391 . S
C1252 C1253 1.400 . S
C1253 C1247 1.491 . S
C1253 C1252 1.400 . S
C1253 C1254 1.398 . S
C1254 H1242 0.950 . S
C1254 C1253 1.398 . S
C1254 C1255 1.391 . S
C1255 H1243 0.950 . S
C1255 C1251 1.393 . S
C1255 C1254 1.391 . S
H1256 C1264 0.950 . S
H1257 C1269 0.950 . S
H1258 C1266 0.950 . S
H1259 C1268 0.950 . S
H1260 C1270 0.950 . S
H1261 C1272 0.950 . S
H1262 C1274 0.950 . S
H1263 C1275 0.950 . S
C1264 H1256 0.950 . S
C1264 C1265 1.386 . S
C1264 C1266 1.391 . S
C1265 C1264 1.386 . S
C1265 C1269 1.393 . S
C1266 H1258 0.950 . S
C1266 C1264 1.391 . S
C1266 C1267 1.400 . S
C1267 C1266 1.400 . S
C1267 C1268 1.398 . S
C1267 C1273 1.491 . S
C1268 H1259 0.950 . S
C1268 C1267 1.398 . S
C1268 C1269 1.391 . S
C1269 H1257 0.950 . S
C1269 C1265 1.393 . S
C1269 C1268 1.391 . S
C1270 H1260 0.950 . S
C1270 C1271 1.386 . S
C1270 C1272 1.391 . S
C1271 C1270 1.386 . S
C1271 C1275 1.393 . S
C1272 H1261 0.950 . S
C1272 C1270 1.391 . S
C1272 C1273 1.400 . S
C1273 C1267 1.491 . S
C1273 C1272 1.400 . S
C1273 C1274 1.398 . S
C1274 H1262 0.950 . S
C1274 C1273 1.398 . S
C1274 C1275 1.391 . S
C1275 H1263 0.950 . S
C1275 C1271 1.393 . S
C1275 C1274 1.391 . S
H1276 C1284 0.950 . S
H1277 C1289 0.950 . S
H1278 C1286 0.950 . S
H1279 C1288 0.950 . S
H1280 C1290 0.950 1_545 S
H1281 C1292 0.950 . S
H1282 C1294 0.950 . S
H1283 C1295 0.950 . S
C1284 H1276 0.950 . S
C1284 C1285 1.386 . S
C1284 C1286 1.391 . S
C1285 C1284 1.386 . S
C1285 C1289 1.393 . S
C1286 H1278 0.950 . S
C1286 C1284 1.391 . S
C1286 C1287 1.400 . S
C1287 C1286 1.400 . S
C1287 C1288 1.398 . S
C1287 C1293 1.491 . S
C1288 H1279 0.950 . S
C1288 C1287 1.398 . S
C1288 C1289 1.391 . S
C1289 H1277 0.950 . S
C1289 C1285 1.393 . S
C1289 C1288 1.391 . S
C1290 H1280 0.950 1_565 S
C1290 C1291 1.386 . S
C1290 C1292 1.391 . S
C1291 C1290 1.386 . S
C1291 C1295 1.393 . S
C1292 H1281 0.950 . S
C1292 C1290 1.391 . S
C1292 C1293 1.400 . S
C1293 C1287 1.491 . S
C1293 C1292 1.400 . S
C1293 C1294 1.398 . S
C1294 H1282 0.950 . S
C1294 C1293 1.398 . S
C1294 C1295 1.391 . S
C1295 H1283 0.950 . S
C1295 C1291 1.393 . S
C1295 C1294 1.391 . S
H1296 C1304 0.950 . S
H1297 C1309 0.950 . S
H1298 C1306 0.950 . S
H1299 C1308 0.950 . S
H1300 C1310 0.950 . S
H1301 C1312 0.950 . S
H1302 C1314 0.950 . S
H1303 C1315 0.950 . S
C1304 H1296 0.950 . S
C1304 C1305 1.386 . S
C1304 C1306 1.391 . S
C1305 C1304 1.386 . S
C1305 C1309 1.393 . S
C1306 H1298 0.950 . S
C1306 C1304 1.391 . S
C1306 C1307 1.400 . S
C1307 C1306 1.400 . S
C1307 C1308 1.398 . S
C1307 C1313 1.491 . S
C1308 H1299 0.950 . S
C1308 C1307 1.398 . S
C1308 C1309 1.391 . S
C1309 H1297 0.950 . S
C1309 C1305 1.393 . S
C1309 C1308 1.391 . S
C1310 H1300 0.950 . S
C1310 C1311 1.386 . S
C1310 C1312 1.391 . S
C1311 C1310 1.386 . S
C1311 C1315 1.393 . S
C1312 H1301 0.950 . S
C1312 C1310 1.391 . S
C1312 C1313 1.400 . S
C1313 C1307 1.491 . S
C1313 C1312 1.400 . S
C1313 C1314 1.398 . S
C1314 H1302 0.950 . S
C1314 C1313 1.398 . S
C1314 C1315 1.391 . S
C1315 H1303 0.950 . S
C1315 C1311 1.393 . S
C1315 C1314 1.391 . S
H1316 C1324 0.950 . S
H1317 C1329 0.950 . S
H1318 C1326 0.950 . S
H1319 C1328 0.950 . S
H1320 C1330 0.950 . S
H1321 C1332 0.950 . S
H1322 C1334 0.950 . S
H1323 C1335 0.950 . S
C1324 H1316 0.950 . S
C1324 C1325 1.386 . S
C1324 C1326 1.391 . S
C1325 C1324 1.386 . S
C1325 C1329 1.393 . S
C1326 H1318 0.950 . S
C1326 C1324 1.391 . S
C1326 C1327 1.400 . S
C1327 C1326 1.400 . S
C1327 C1328 1.398 . S
C1327 C1333 1.491 . S
C1328 H1319 0.950 . S
C1328 C1327 1.398 . S
C1328 C1329 1.391 . S
C1329 H1317 0.950 . S
C1329 C1325 1.393 . S
C1329 C1328 1.391 . S
C1330 H1320 0.950 . S
C1330 C1331 1.386 . S
C1330 C1332 1.391 . S
C1331 C1330 1.386 . S
C1331 C1335 1.393 . S
C1332 H1321 0.950 . S
C1332 C1330 1.391 . S
C1332 C1333 1.400 . S
C1333 C1327 1.491 . S
C1333 C1332 1.400 . S
C1333 C1334 1.398 . S
C1334 H1322 0.950 . S
C1334 C1333 1.398 . S
C1334 C1335 1.391 . S
C1335 H1323 0.950 . S
C1335 C1331 1.393 . S
C1335 C1334 1.391 . S
H1336 C1344 0.950 . S
H1337 C1349 0.950 . S
H1338 C1346 0.954 . S
H1339 C1348 0.950 . S
H1340 C1350 0.950 . S
H1341 C1352 0.950 . S
H1342 C1354 0.945 1_655 S
H1343 C1355 0.950 . S
C1344 H1336 0.950 . S
C1344 C1345 1.386 1_655 S
C1344 C1346 1.393 . S
C1345 C1344 1.386 1_455 S
C1345 C1349 1.393 . S
C1346 H1338 0.954 . S
C1346 C1344 1.393 . S
C1346 C1347 1.394 1_655 S
C1347 C1346 1.394 1_455 S
C1347 C1348 1.398 . S
C1347 C1353 1.491 . S
C1348 H1339 0.950 . S
C1348 C1347 1.398 . S
C1348 C1349 1.391 . S
C1349 H1337 0.950 . S
C1349 C1345 1.393 . S
C1349 C1348 1.391 . S
C1350 H1340 0.950 . S
C1350 C1351 1.381 1_556 S
C1350 C1352 1.391 . S
C1351 C1350 1.381 1_554 S
C1351 C1355 1.394 . S
C1352 H1341 0.950 . S
C1352 C1350 1.391 . S
C1352 C1353 1.400 . S
C1353 C1347 1.491 . S
C1353 C1352 1.400 . S
C1353 C1354 1.398 . S
C1354 H1342 0.945 1_455 S
C1354 C1353 1.398 . S
C1354 C1355 1.391 1_556 S
C1355 H1343 0.950 . S
C1355 C1351 1.394 . S
C1355 C1354 1.391 1_554 S
H1356 C1364 0.950 . S
H1357 C1369 0.950 . S
H1358 C1366 0.950 . S
H1359 C1368 0.950 . S
H1360 C1370 0.950 . S
H1361 C1372 0.950 . S
H1362 C1374 0.950 . S
H1363 C1375 0.950 . S
C1364 H1356 0.950 . S
C1364 C1365 1.386 . S
C1364 C1366 1.391 . S
C1365 C1364 1.386 . S
C1365 C1369 1.393 . S
C1366 H1358 0.950 . S
C1366 C1364 1.391 . S
C1366 C1367 1.400 . S
C1367 C1366 1.400 . S
C1367 C1368 1.398 . S
C1367 C1373 1.491 . S
C1368 H1359 0.950 . S
C1368 C1367 1.398 . S
C1368 C1369 1.391 . S
C1369 H1357 0.950 . S
C1369 C1365 1.393 . S
C1369 C1368 1.391 . S
C1370 H1360 0.950 . S
C1370 C1371 1.386 . S
C1370 C1372 1.391 . S
C1371 C1370 1.386 . S
C1371 C1375 1.393 . S
C1372 H1361 0.950 . S
C1372 C1370 1.391 . S
C1372 C1373 1.400 . S
C1373 C1367 1.491 . S
C1373 C1372 1.400 . S
C1373 C1374 1.398 . S
C1374 H1362 0.950 . S
C1374 C1373 1.398 . S
C1374 C1375 1.391 . S
C1375 H1363 0.950 . S
C1375 C1371 1.393 . S
C1375 C1374 1.391 . S
H1376 C1384 0.950 . S
H1377 C1389 0.950 . S
H1378 C1386 0.950 . S
H1379 C1388 0.950 . S
H1380 C1390 0.950 . S
H1381 C1392 0.950 . S
H1382 C1394 0.950 . S
H1383 C1395 0.950 . S
C1384 H1376 0.950 . S
C1384 C1385 1.386 . S
C1384 C1386 1.391 . S
C1385 C1384 1.386 . S
C1385 C1389 1.393 . S
C1386 H1378 0.950 . S
C1386 C1384 1.391 . S
C1386 C1387 1.400 . S
C1387 C1386 1.400 . S
C1387 C1388 1.398 . S
C1387 C1393 1.491 . S
C1388 H1379 0.950 . S
C1388 C1387 1.398 . S
C1388 C1389 1.391 . S
C1389 H1377 0.950 . S
C1389 C1385 1.393 . S
C1389 C1388 1.391 . S
C1390 H1380 0.950 . S
C1390 C1391 1.386 . S
C1390 C1392 1.391 . S
C1391 C1390 1.386 . S
C1391 C1395 1.393 . S
C1392 H1381 0.950 . S
C1392 C1390 1.391 . S
C1392 C1393 1.400 . S
C1393 C1387 1.491 . S
C1393 C1392 1.400 . S
C1393 C1394 1.398 . S
C1394 H1382 0.950 . S
C1394 C1393 1.398 . S
C1394 C1395 1.391 . S
C1395 H1383 0.950 . S
C1395 C1391 1.393 . S
C1395 C1394 1.391 . S
H1396 C1404 0.950 . S
H1397 C1409 0.950 . S
H1398 C1406 0.950 . S
H1399 C1408 0.950 . S
H1400 C1410 0.950 . S
H1401 C1412 0.950 . S
H1402 C1414 0.950 . S
H1403 C1415 0.950 . S
C1404 H1396 0.950 . S
C1404 C1405 1.386 . S
C1404 C1406 1.391 . S
C1405 C1404 1.386 . S
C1405 C1409 1.393 . S
C1406 H1398 0.950 . S
C1406 C1404 1.391 . S
C1406 C1407 1.400 . S
C1407 C1406 1.400 . S
C1407 C1408 1.398 . S
C1407 C1413 1.491 . S
C1408 H1399 0.950 . S
C1408 C1407 1.398 . S
C1408 C1409 1.391 . S
C1409 H1397 0.950 . S
C1409 C1405 1.393 . S
C1409 C1408 1.391 . S
C1410 H1400 0.950 . S
C1410 C1411 1.386 . S
C1410 C1412 1.391 . S
C1411 C1410 1.386 . S
C1411 C1415 1.393 . S
C1412 H1401 0.950 . S
C1412 C1410 1.391 . S
C1412 C1413 1.400 . S
C1413 C1407 1.491 . S
C1413 C1412 1.400 . S
C1413 C1414 1.398 . S
C1414 H1402 0.950 . S
C1414 C1413 1.398 . S
C1414 C1415 1.391 . S
C1415 H1403 0.950 . S
C1415 C1411 1.393 . S
C1415 C1414 1.391 . S
H1416 C1424 0.950 1_655 S
H1417 C1429 0.950 . S
H1418 C1426 0.950 . S
H1419 C1428 0.950 . S
H1420 C1430 0.950 . S
H1421 C1432 0.950 . S
H1422 C1434 0.950 . S
H1423 C1435 0.950 . S
C1424 H1416 0.950 1_455 S
C1424 C1425 1.386 . S
C1424 C1426 1.391 . S
C1425 C1424 1.386 . S
C1425 C1429 1.393 . S
C1426 H1418 0.950 . S
C1426 C1424 1.391 . S
C1426 C1427 1.400 . S
C1427 C1426 1.400 . S
C1427 C1428 1.398 . S
C1427 C1433 1.491 . S
C1428 H1419 0.950 . S
C1428 C1427 1.398 . S
C1428 C1429 1.391 . S
C1429 H1417 0.950 . S
C1429 C1425 1.393 . S
C1429 C1428 1.391 . S
C1430 H1420 0.950 . S
C1430 C1431 1.386 . S
C1430 C1432 1.391 . S
C1431 C1430 1.386 . S
C1431 C1435 1.393 . S
C1432 H1421 0.950 . S
C1432 C1430 1.391 . S
C1432 C1433 1.400 . S
C1433 C1427 1.491 . S
C1433 C1432 1.400 . S
C1433 C1434 1.398 . S
C1434 H1422 0.950 . S
C1434 C1433 1.398 . S
C1434 C1435 1.391 . S
C1435 H1423 0.950 . S
C1435 C1431 1.393 . S
C1435 C1434 1.391 . S
H1436 C1444 0.950 . S
H1437 C1449 0.950 . S
H1438 C1446 0.950 . S
H1439 C1448 0.950 . S
H1440 C1450 0.950 . S
H1441 C1452 0.950 . S
H1442 C1454 0.950 . S
H1443 C1455 0.950 . S
C1444 H1436 0.950 . S
C1444 C1445 1.386 . S
C1444 C1446 1.391 . S
C1445 C1444 1.386 . S
C1445 C1449 1.393 . S
C1446 H1438 0.950 . S
C1446 C1444 1.391 . S
C1446 C1447 1.400 . S
C1447 C1446 1.400 . S
C1447 C1448 1.398 . S
C1447 C1453 1.491 . S
C1448 H1439 0.950 . S
C1448 C1447 1.398 . S
C1448 C1449 1.391 . S
C1449 H1437 0.950 . S
C1449 C1445 1.393 . S
C1449 C1448 1.391 . S
C1450 H1440 0.950 . S
C1450 C1451 1.386 . S
C1450 C1452 1.391 . S
C1451 C1450 1.386 . S
C1451 C1455 1.393 . S
C1452 H1441 0.950 . S
C1452 C1450 1.391 . S
C1452 C1453 1.400 . S
C1453 C1447 1.491 . S
C1453 C1452 1.400 . S
C1453 C1454 1.398 . S
C1454 H1442 0.950 . S
C1454 C1453 1.398 . S
C1454 C1455 1.391 . S
C1455 H1443 0.950 . S
C1455 C1451 1.393 . S
C1455 C1454 1.391 . S
H1456 C1464 0.950 . S
H1457 C1469 0.950 . S
H1458 C1466 0.950 . S
H1459 C1468 0.950 . S
H1460 C1470 0.950 . S
H1461 C1472 0.950 . S
H1462 C1474 0.950 . S
H1463 C1475 0.950 . S
C1464 H1456 0.950 . S
C1464 C1465 1.386 . S
C1464 C1466 1.391 . S
C1465 C1464 1.386 . S
C1465 C1469 1.393 . S
C1466 H1458 0.950 . S
C1466 C1464 1.391 . S
C1466 C1467 1.400 . S
C1467 C1466 1.400 . S
C1467 C1468 1.398 . S
C1467 C1473 1.491 . S
C1468 H1459 0.950 . S
C1468 C1467 1.398 . S
C1468 C1469 1.391 . S
C1469 H1457 0.950 . S
C1469 C1465 1.393 . S
C1469 C1468 1.391 . S
C1470 H1460 0.950 . S
C1470 C1471 1.386 . S
C1470 C1472 1.391 . S
C1471 C1470 1.386 . S
C1471 C1475 1.393 . S
C1472 H1461 0.950 . S
C1472 C1470 1.391 . S
C1472 C1473 1.400 . S
C1473 C1467 1.491 . S
C1473 C1472 1.400 . S
C1473 C1474 1.398 . S
C1474 H1462 0.950 . S
C1474 C1473 1.398 . S
C1474 C1475 1.391 . S
C1475 H1463 0.950 . S
C1475 C1471 1.393 . S
C1475 C1474 1.391 . S
H1476 C1484 0.950 . S
H1477 C1489 0.950 . S
H1478 C1486 0.950 . S
H1479 C1488 0.950 . S
H1480 C1490 0.950 . S
H1481 C1492 0.950 . S
H1482 C1494 0.950 . S
H1483 C1495 0.950 . S
C1484 H1476 0.950 . S
C1484 C1485 1.386 . S
C1484 C1486 1.391 . S
C1485 C1484 1.386 . S
C1485 C1489 1.393 . S
C1486 H1478 0.950 . S
C1486 C1484 1.391 . S
C1486 C1487 1.400 . S
C1487 C1486 1.400 . S
C1487 C1488 1.398 . S
C1487 C1493 1.491 . S
C1488 H1479 0.950 . S
C1488 C1487 1.398 . S
C1488 C1489 1.391 . S
C1489 H1477 0.950 . S
C1489 C1485 1.393 . S
C1489 C1488 1.391 . S
C1490 H1480 0.950 . S
C1490 C1491 1.386 . S
C1490 C1492 1.391 . S
C1491 C1490 1.386 . S
C1491 C1495 1.393 . S
C1492 H1481 0.950 . S
C1492 C1490 1.391 . S
C1492 C1493 1.400 . S
C1493 C1487 1.491 . S
C1493 C1492 1.400 . S
C1493 C1494 1.398 . S
C1494 H1482 0.950 . S
C1494 C1493 1.398 . S
C1494 C1495 1.391 . S
C1495 H1483 0.950 . S
C1495 C1491 1.393 . S
C1495 C1494 1.391 . S
H1496 C1504 0.950 . S
H1497 C1509 0.950 . S
H1498 C1506 0.950 . S
H1499 C1508 0.950 . S
H1500 C1510 0.960 1_565 S
H1501 C1512 0.929 1_565 S
H1502 C1514 0.950 . S
H1503 C1515 0.950 1_455 S
C1504 H1496 0.950 . S
C1504 C1505 1.386 . S
C1504 C1506 1.391 . S
C1505 C1504 1.386 . S
C1505 C1509 1.393 1_545 S
C1506 H1498 0.950 . S
C1506 C1504 1.391 . S
C1506 C1507 1.400 . S
C1507 C1506 1.400 . S
C1507 C1508 1.398 1_545 S
C1507 C1513 1.491 . S
C1508 H1499 0.950 . S
C1508 C1507 1.398 1_565 S
C1508 C1509 1.391 . S
C1509 H1497 0.950 . S
C1509 C1505 1.393 1_565 S
C1509 C1508 1.391 . S
C1510 H1500 0.960 1_545 S
C1510 C1511 1.386 1_655 S
C1510 C1512 1.394 . S
C1511 C1510 1.386 1_455 S
C1511 C1515 1.393 1_455 S
C1512 H1501 0.929 1_545 S
C1512 C1510 1.394 . S
C1512 C1513 1.418 . S
C1513 C1507 1.491 . S
C1513 C1512 1.418 . S
C1513 C1514 1.398 . S
C1514 H1502 0.950 . S
C1514 C1513 1.398 . S
C1514 C1515 1.391 . S
C1515 H1503 0.950 1_655 S
C1515 C1511 1.393 1_655 S
C1515 C1514 1.391 . S
H1516 C1524 0.950 . S
H1517 C1529 0.950 . S
H1518 C1526 0.950 . S
H1519 C1528 0.950 . S
H1520 C1530 0.950 . S
H1521 C1532 0.950 . S
H1522 C1534 0.950 . S
H1523 C1535 0.950 . S
C1524 H1516 0.950 . S
C1524 C1525 1.386 . S
C1524 C1526 1.391 . S
C1525 C1524 1.386 . S
C1525 C1529 1.393 . S
C1526 H1518 0.950 . S
C1526 C1524 1.391 . S
C1526 C1527 1.400 . S
C1527 C1526 1.400 . S
C1527 C1528 1.398 . S
C1527 C1533 1.491 . S
C1528 H1519 0.950 . S
C1528 C1527 1.398 . S
C1528 C1529 1.391 . S
C1529 H1517 0.950 . S
C1529 C1525 1.393 . S
C1529 C1528 1.391 . S
C1530 H1520 0.950 . S
C1530 C1531 1.386 . S
C1530 C1532 1.391 . S
C1531 C1530 1.386 . S
C1531 C1535 1.393 . S
C1532 H1521 0.950 . S
C1532 C1530 1.391 . S
C1532 C1533 1.400 . S
C1533 C1527 1.491 . S
C1533 C1532 1.400 . S
C1533 C1534 1.398 . S
C1534 H1522 0.950 . S
C1534 C1533 1.398 . S
C1534 C1535 1.391 . S
C1535 H1523 0.950 . S
C1535 C1531 1.393 . S
C1535 C1534 1.391 . S
H1536 C1544 0.950 . S
H1537 C1549 0.961 . S
H1538 C1546 0.950 . S
H1539 C1548 0.950 1_565 S
H1540 C1550 0.950 . S
H1541 C1552 0.950 . S
H1542 C1554 0.950 . S
H1543 C1555 0.950 . S
C1544 H1536 0.950 . S
C1544 C1545 1.386 . S
C1544 C1546 1.391 . S
C1545 C1544 1.386 . S
C1545 C1549 1.393 . S
C1546 H1538 0.950 . S
C1546 C1544 1.391 . S
C1546 C1547 1.400 . S
C1547 C1546 1.400 . S
C1547 C1548 1.398 . S
C1547 C1553 1.491 . S
C1548 H1539 0.950 1_545 S
C1548 C1547 1.398 . S
C1548 C1549 1.391 . S
C1549 H1537 0.961 . S
C1549 C1545 1.393 . S
C1549 C1548 1.391 . S
C1550 H1540 0.950 . S
C1550 C1551 1.395 . S
C1550 C1552 1.391 . S
C1551 C1550 1.395 . S
C1551 C1555 1.381 1_565 S
C1552 H1541 0.950 . S
C1552 C1550 1.391 . S
C1552 C1553 1.400 1_565 S
C1553 C1547 1.491 . S
C1553 C1552 1.400 1_545 S
C1553 C1554 1.398 . S
C1554 H1542 0.950 . S
C1554 C1553 1.398 . S
C1554 C1555 1.391 . S
C1555 H1543 0.950 . S
C1555 C1551 1.381 1_545 S
C1555 C1554 1.391 . S
H1556 C1564 0.950 . S
H1557 C1569 0.950 . S
H1558 C1566 0.950 . S
H1559 C1568 0.950 . S
H1560 C1570 0.950 . S
H1561 C1572 0.950 . S
H1562 C1574 0.950 . S
H1563 C1575 0.950 . S
C1564 H1556 0.950 . S
C1564 C1565 1.386 . S
C1564 C1566 1.391 . S
C1565 C1564 1.386 . S
C1565 C1569 1.393 . S
C1566 H1558 0.950 . S
C1566 C1564 1.391 . S
C1566 C1567 1.400 . S
C1567 C1566 1.400 . S
C1567 C1568 1.398 . S
C1567 C1573 1.491 . S
C1568 H1559 0.950 . S
C1568 C1567 1.398 . S
C1568 C1569 1.391 . S
C1569 H1557 0.950 . S
C1569 C1565 1.393 . S
C1569 C1568 1.391 . S
C1570 H1560 0.950 . S
C1570 C1571 1.386 . S
C1570 C1572 1.391 . S
C1571 C1570 1.386 . S
C1571 C1575 1.393 . S
C1572 H1561 0.950 . S
C1572 C1570 1.391 . S
C1572 C1573 1.400 . S
C1573 C1567 1.491 . S
C1573 C1572 1.400 . S
C1573 C1574 1.398 . S
C1574 H1562 0.950 . S
C1574 C1573 1.398 . S
C1574 C1575 1.391 . S
C1575 H1563 0.950 . S
C1575 C1571 1.393 . S
C1575 C1574 1.391 . S
H1576 C1584 0.950 . S
H1577 C1589 0.952 . S
H1578 C1586 0.950 . S
H1579 C1588 0.950 . S
H1580 C1590 0.950 1_455 S
H1581 C1592 0.950 . S
H1582 C1594 0.950 . S
H1583 C1595 0.950 . S
C1584 H1576 0.950 . S
C1584 C1585 1.386 . S
C1584 C1586 1.391 1_545 S
C1585 C1584 1.386 . S
C1585 C1589 1.396 . S
C1586 H1578 0.950 . S
C1586 C1584 1.391 1_565 S
C1586 C1587 1.400 . S
C1587 C1586 1.400 . S
C1587 C1588 1.398 . S
C1587 C1593 1.491 . S
C1588 H1579 0.950 . S
C1588 C1587 1.398 . S
C1588 C1589 1.386 1_565 S
C1589 H1577 0.952 . S
C1589 C1585 1.396 . S
C1589 C1588 1.386 1_545 S
C1590 H1580 0.950 1_655 S
C1590 C1591 1.386 . S
C1590 C1592 1.391 . S
C1591 C1590 1.386 . S
C1591 C1595 1.393 . S
C1592 H1581 0.950 . S
C1592 C1590 1.391 . S
C1592 C1593 1.400 . S
C1593 C1587 1.491 . S
C1593 C1592 1.400 . S
C1593 C1594 1.398 . S
C1594 H1582 0.950 . S
C1594 C1593 1.398 . S
C1594 C1595 1.391 . S
C1595 H1583 0.950 . S
C1595 C1591 1.393 . S
C1595 C1594 1.391 . S
H1596 C1604 0.950 . S
H1597 C1609 0.950 . S
H1598 C1606 0.950 . S
H1599 C1608 0.950 . S
H1600 C1610 0.950 . S
H1601 C1612 0.950 . S
H1602 C1614 0.950 . S
H1603 C1615 0.950 . S
C1604 H1596 0.950 . S
C1604 C1605 1.386 . S
C1604 C1606 1.391 . S
C1605 C1604 1.386 . S
C1605 C1609 1.393 . S
C1606 H1598 0.950 . S
C1606 C1604 1.391 . S
C1606 C1607 1.400 . S
C1607 C1606 1.400 . S
C1607 C1608 1.398 . S
C1607 C1613 1.491 . S
C1608 H1599 0.950 . S
C1608 C1607 1.398 . S
C1608 C1609 1.391 . S
C1609 H1597 0.950 . S
C1609 C1605 1.393 . S
C1609 C1608 1.391 . S
C1610 H1600 0.950 . S
C1610 C1611 1.386 . S
C1610 C1612 1.391 . S
C1611 C1610 1.386 . S
C1611 C1615 1.393 . S
C1612 H1601 0.950 . S
C1612 C1610 1.391 . S
C1612 C1613 1.400 . S
C1613 C1607 1.491 . S
C1613 C1612 1.400 . S
C1613 C1614 1.398 . S
C1614 H1602 0.950 . S
C1614 C1613 1.398 . S
C1614 C1615 1.391 . S
C1615 H1603 0.950 . S
C1615 C1611 1.393 . S
C1615 C1614 1.391 . S
H1616 C1624 0.950 . S
H1617 C1629 0.950 . S
H1618 C1626 0.950 . S
H1619 C1628 0.950 . S
H1620 C1630 0.950 . S
H1621 C1632 0.950 . S
H1622 C1634 0.950 . S
H1623 C1635 0.950 . S
C1624 H1616 0.950 . S
C1624 C1625 1.386 . S
C1624 C1626 1.391 . S
C1625 C1624 1.386 . S
C1625 C1629 1.393 . S
C1626 H1618 0.950 . S
C1626 C1624 1.391 . S
C1626 C1627 1.400 . S
C1627 C1626 1.400 . S
C1627 C1628 1.398 . S
C1627 C1633 1.491 . S
C1628 H1619 0.950 . S
C1628 C1627 1.398 . S
C1628 C1629 1.391 . S
C1629 H1617 0.950 . S
C1629 C1625 1.393 . S
C1629 C1628 1.391 . S
C1630 H1620 0.950 . S
C1630 C1631 1.386 . S
C1630 C1632 1.391 . S
C1631 C1630 1.386 . S
C1631 C1635 1.393 . S
C1632 H1621 0.950 . S
C1632 C1630 1.391 . S
C1632 C1633 1.400 . S
C1633 C1627 1.491 . S
C1633 C1632 1.400 . S
C1633 C1634 1.398 . S
C1634 H1622 0.950 . S
C1634 C1633 1.398 . S
C1634 C1635 1.391 . S
C1635 H1623 0.950 . S
C1635 C1631 1.393 . S
C1635 C1634 1.391 . S
H1636 C1644 0.950 . S
H1637 C1649 0.950 . S
H1638 C1646 0.950 . S
H1639 C1648 0.950 . S
H1640 C1650 0.950 . S
H1641 C1652 0.950 . S
H1642 C1654 0.950 . S
H1643 C1655 0.950 . S
C1644 H1636 0.950 . S
C1644 C1645 1.386 . S
C1644 C1646 1.391 . S
C1645 C1644 1.386 . S
C1645 C1649 1.393 . S
C1646 H1638 0.950 . S
C1646 C1644 1.391 . S
C1646 C1647 1.400 . S
C1647 C1646 1.400 . S
C1647 C1648 1.398 . S
C1647 C1653 1.491 . S
C1648 H1639 0.950 . S
C1648 C1647 1.398 . S
C1648 C1649 1.391 . S
C1649 H1637 0.950 . S
C1649 C1645 1.393 . S
C1649 C1648 1.391 . S
C1650 H1640 0.950 . S
C1650 C1651 1.386 . S
C1650 C1652 1.391 . S
C1651 C1650 1.386 . S
C1651 C1655 1.393 . S
C1652 H1641 0.950 . S
C1652 C1650 1.391 . S
C1652 C1653 1.400 . S
C1653 C1647 1.491 . S
C1653 C1652 1.400 . S
C1653 C1654 1.398 . S
C1654 H1642 0.950 . S
C1654 C1653 1.398 . S
C1654 C1655 1.391 . S
C1655 H1643 0.950 . S
C1655 C1651 1.393 . S
C1655 C1654 1.391 . S
H1656 C1664 0.950 . S
H1657 C1669 0.950 . S
H1658 C1666 0.950 . S
H1659 C1668 0.950 . S
H1660 C1670 0.924 1_545 S
H1661 C1672 0.950 1_545 S
H1662 C1674 0.950 . S
H1663 C1675 0.950 . S
C1664 H1656 0.950 . S
C1664 C1665 1.386 . S
C1664 C1666 1.391 . S
C1665 C1664 1.386 . S
C1665 C1669 1.393 . S
C1666 H1658 0.950 . S
C1666 C1664 1.391 . S
C1666 C1667 1.400 . S
C1667 C1666 1.400 . S
C1667 C1668 1.398 . S
C1667 C1673 1.491 . S
C1668 H1659 0.950 . S
C1668 C1667 1.398 . S
C1668 C1669 1.391 . S
C1669 H1657 0.950 . S
C1669 C1665 1.393 . S
C1669 C1668 1.391 . S
C1670 H1660 0.924 1_565 S
C1670 C1671 1.404 . S
C1670 C1672 1.398 . S
C1671 C1670 1.404 . S
C1671 C1675 1.393 . S
C1672 H1661 0.950 1_565 S
C1672 C1670 1.398 . S
C1672 C1673 1.400 . S
C1673 C1667 1.491 . S
C1673 C1672 1.400 . S
C1673 C1674 1.398 . S
C1674 H1662 0.950 . S
C1674 C1673 1.398 . S
C1674 C1675 1.391 . S
C1675 H1663 0.950 . S
C1675 C1671 1.393 . S
C1675 C1674 1.391 . S
H1676 C1684 0.950 . S
H1677 C1689 0.950 . S
H1678 C1686 0.950 . S
H1679 C1688 0.950 . S
H1680 C1690 0.950 . S
H1681 C1692 0.950 . S
H1682 C1694 0.950 . S
H1683 C1695 0.950 . S
C1684 H1676 0.950 . S
C1684 C1685 1.386 . S
C1684 C1686 1.391 . S
C1685 C1684 1.386 . S
C1685 C1689 1.393 . S
C1686 H1678 0.950 . S
C1686 C1684 1.391 . S
C1686 C1687 1.400 . S
C1687 C1686 1.400 . S
C1687 C1688 1.398 . S
C1687 C1693 1.491 . S
C1688 H1679 0.950 . S
C1688 C1687 1.398 . S
C1688 C1689 1.391 . S
C1689 H1677 0.950 . S
C1689 C1685 1.393 . S
C1689 C1688 1.391 . S
C1690 H1680 0.950 . S
C1690 C1691 1.386 . S
C1690 C1692 1.391 . S
C1691 C1690 1.386 . S
C1691 C1695 1.393 . S
C1692 H1681 0.950 . S
C1692 C1690 1.391 . S
C1692 C1693 1.400 . S
C1693 C1687 1.491 . S
C1693 C1692 1.400 . S
C1693 C1694 1.398 . S
C1694 H1682 0.950 . S
C1694 C1693 1.398 . S
C1694 C1695 1.391 . S
C1695 H1683 0.950 . S
C1695 C1691 1.393 . S
C1695 C1694 1.391 . S
H1696 C1704 0.950 . S
H1697 C1709 0.950 . S
H1698 C1706 0.950 . S
H1699 C1708 0.950 . S
H1700 C1710 0.950 . S
H1701 C1712 0.950 . S
H1702 C1714 0.950 . S
H1703 C1715 0.950 . S
C1704 H1696 0.950 . S
C1704 C1705 1.386 . S
C1704 C1706 1.391 . S
C1705 C1704 1.386 . S
C1705 C1709 1.393 . S
C1706 H1698 0.950 . S
C1706 C1704 1.391 . S
C1706 C1707 1.400 . S
C1707 C1706 1.400 . S
C1707 C1708 1.398 . S
C1707 C1713 1.491 . S
C1708 H1699 0.950 . S
C1708 C1707 1.398 . S
C1708 C1709 1.391 . S
C1709 H1697 0.950 . S
C1709 C1705 1.393 . S
C1709 C1708 1.391 . S
C1710 H1700 0.950 . S
C1710 C1711 1.386 . S
C1710 C1712 1.391 . S
C1711 C1710 1.386 . S
C1711 C1715 1.393 . S
C1712 H1701 0.950 . S
C1712 C1710 1.391 . S
C1712 C1713 1.400 . S
C1713 C1707 1.491 . S
C1713 C1712 1.400 . S
C1713 C1714 1.398 . S
C1714 H1702 0.950 . S
C1714 C1713 1.398 . S
C1714 C1715 1.391 . S
C1715 H1703 0.950 . S
C1715 C1711 1.393 . S
C1715 C1714 1.391 . S
H1716 C1724 0.950 . S
H1717 C1729 0.950 . S
H1718 C1726 0.950 . S
H1719 C1728 0.950 . S
H1720 C1730 0.950 . S
H1721 C1732 0.950 . S
H1722 C1734 0.950 . S
H1723 C1735 0.950 . S
C1724 H1716 0.950 . S
C1724 C1725 1.386 . S
C1724 C1726 1.391 . S
C1725 C1724 1.386 . S
C1725 C1729 1.393 . S
C1726 H1718 0.950 . S
C1726 C1724 1.391 . S
C1726 C1727 1.400 . S
C1727 C1726 1.400 . S
C1727 C1728 1.398 . S
C1727 C1733 1.491 . S
C1728 H1719 0.950 . S
C1728 C1727 1.398 . S
C1728 C1729 1.391 . S
C1729 H1717 0.950 . S
C1729 C1725 1.393 . S
C1729 C1728 1.391 . S
C1730 H1720 0.950 . S
C1730 C1731 1.386 . S
C1730 C1732 1.391 . S
C1731 C1730 1.386 . S
C1731 C1735 1.393 . S
C1732 H1721 0.950 . S
C1732 C1730 1.391 . S
C1732 C1733 1.400 . S
C1733 C1727 1.491 . S
C1733 C1732 1.400 . S
C1733 C1734 1.398 . S
C1734 H1722 0.950 . S
C1734 C1733 1.398 . S
C1734 C1735 1.391 . S
C1735 H1723 0.950 . S
C1735 C1731 1.393 . S
C1735 C1734 1.391 . S
H1736 C1744 0.950 . S
H1737 C1749 0.950 . S
H1738 C1746 0.950 . S
H1739 C1748 0.950 . S
H1740 C1750 0.950 . S
H1741 C1752 0.950 . S
H1742 C1754 0.950 . S
H1743 C1755 0.950 . S
C1744 H1736 0.950 . S
C1744 C1745 1.386 . S
C1744 C1746 1.391 . S
C1745 C1744 1.386 . S
C1745 C1749 1.393 . S
C1746 H1738 0.950 . S
C1746 C1744 1.391 . S
C1746 C1747 1.400 . S
C1747 C1746 1.400 . S
C1747 C1748 1.398 . S
C1747 C1753 1.491 . S
C1748 H1739 0.950 . S
C1748 C1747 1.398 . S
C1748 C1749 1.391 . S
C1749 H1737 0.950 . S
C1749 C1745 1.393 . S
C1749 C1748 1.391 . S
C1750 H1740 0.950 . S
C1750 C1751 1.386 . S
C1750 C1752 1.391 . S
C1751 C1750 1.386 . S
C1751 C1755 1.393 . S
C1752 H1741 0.950 . S
C1752 C1750 1.391 . S
C1752 C1753 1.400 . S
C1753 C1747 1.491 . S
C1753 C1752 1.400 . S
C1753 C1754 1.398 . S
C1754 H1742 0.950 . S
C1754 C1753 1.398 . S
C1754 C1755 1.391 . S
C1755 H1743 0.950 . S
C1755 C1751 1.393 . S
C1755 C1754 1.391 . S
H1756 C1764 0.950 . S
H1757 C1769 0.950 . S
H1758 C1766 0.950 . S
H1759 C1768 0.950 . S
H1760 C1770 0.950 . S
H1761 C1772 0.950 . S
H1762 C1774 0.950 . S
H1763 C1775 0.950 . S
C1764 H1756 0.950 . S
C1764 C1765 1.386 . S
C1764 C1766 1.391 . S
C1765 C1764 1.386 . S
C1765 C1769 1.393 . S
C1766 H1758 0.950 . S
C1766 C1764 1.391 . S
C1766 C1767 1.400 . S
C1767 C1766 1.400 . S
C1767 C1768 1.398 . S
C1767 C1773 1.491 . S
C1768 H1759 0.950 . S
C1768 C1767 1.398 . S
C1768 C1769 1.391 . S
C1769 H1757 0.950 . S
C1769 C1765 1.393 . S
C1769 C1768 1.391 . S
C1770 H1760 0.950 . S
C1770 C1771 1.386 . S
C1770 C1772 1.391 . S
C1771 C1770 1.386 . S
C1771 C1775 1.393 . S
C1772 H1761 0.950 . S
C1772 C1770 1.391 . S
C1772 C1773 1.400 . S
C1773 C1767 1.491 . S
C1773 C1772 1.400 . S
C1773 C1774 1.398 . S
C1774 H1762 0.950 . S
C1774 C1773 1.398 . S
C1774 C1775 1.391 . S
C1775 H1763 0.950 . S
C1775 C1771 1.393 . S
C1775 C1774 1.391 . S
H1776 C1784 0.950 . S
H1777 C1789 0.950 . S
H1778 C1786 0.950 . S
H1779 C1788 0.950 . S
H1780 C1790 0.950 . S
H1781 C1792 0.950 . S
H1782 C1794 0.950 . S
H1783 C1795 0.950 . S
C1784 H1776 0.950 . S
C1784 C1785 1.386 . S
C1784 C1786 1.391 . S
C1785 C1784 1.386 . S
C1785 C1789 1.393 . S
C1786 H1778 0.950 . S
C1786 C1784 1.391 . S
C1786 C1787 1.400 . S
C1787 C1786 1.400 . S
C1787 C1788 1.398 . S
C1787 C1793 1.491 . S
C1788 H1779 0.950 . S
C1788 C1787 1.398 . S
C1788 C1789 1.391 . S
C1789 H1777 0.950 . S
C1789 C1785 1.393 . S
C1789 C1788 1.391 . S
C1790 H1780 0.950 . S
C1790 C1791 1.386 . S
C1790 C1792 1.391 . S
C1791 C1790 1.386 . S
C1791 C1795 1.393 . S
C1792 H1781 0.950 . S
C1792 C1790 1.391 . S
C1792 C1793 1.400 . S
C1793 C1787 1.491 . S
C1793 C1792 1.400 . S
C1793 C1794 1.398 . S
C1794 H1782 0.950 . S
C1794 C1793 1.398 . S
C1794 C1795 1.391 . S
C1795 H1783 0.950 . S
C1795 C1791 1.393 . S
C1795 C1794 1.391 . S
H1796 C1804 0.950 . S
H1797 C1809 0.950 . S
H1798 C1806 0.950 . S
H1799 C1808 0.950 . S
H1800 C1810 0.950 . S
H1801 C1812 0.950 . S
H1802 C1814 0.950 . S
H1803 C1815 0.950 . S
C1804 H1796 0.950 . S
C1804 C1805 1.386 . S
C1804 C1806 1.391 . S
C1805 C1804 1.386 . S
C1805 C1809 1.393 . S
C1806 H1798 0.950 . S
C1806 C1804 1.391 . S
C1806 C1807 1.400 . S
C1807 C1806 1.400 . S
C1807 C1808 1.398 . S
C1807 C1813 1.491 . S
C1808 H1799 0.950 . S
C1808 C1807 1.398 . S
C1808 C1809 1.391 . S
C1809 H1797 0.950 . S
C1809 C1805 1.393 . S
C1809 C1808 1.391 . S
C1810 H1800 0.950 . S
C1810 C1811 1.386 . S
C1810 C1812 1.391 . S
C1811 C1810 1.386 . S
C1811 C1815 1.393 . S
C1812 H1801 0.950 . S
C1812 C1810 1.391 . S
C1812 C1813 1.400 . S
C1813 C1807 1.491 . S
C1813 C1812 1.400 . S
C1813 C1814 1.398 . S
C1814 H1802 0.950 . S
C1814 C1813 1.398 . S
C1814 C1815 1.391 . S
C1815 H1803 0.950 . S
C1815 C1811 1.393 . S
C1815 C1814 1.391 . S
H1816 C1824 0.950 . S
H1817 C1829 0.950 . S
H1818 C1826 0.950 . S
H1819 C1828 0.950 . S
H1820 C1830 0.950 . S
H1821 C1832 0.950 . S
H1822 C1834 0.950 . S
H1823 C1835 0.950 . S
C1824 H1816 0.950 . S
C1824 C1825 1.386 . S
C1824 C1826 1.391 . S
C1825 C1824 1.386 . S
C1825 C1829 1.393 . S
C1826 H1818 0.950 . S
C1826 C1824 1.391 . S
C1826 C1827 1.400 . S
C1827 C1826 1.400 . S
C1827 C1828 1.398 . S
C1827 C1833 1.491 . S
C1828 H1819 0.950 . S
C1828 C1827 1.398 . S
C1828 C1829 1.391 . S
C1829 H1817 0.950 . S
C1829 C1825 1.393 . S
C1829 C1828 1.391 . S
C1830 H1820 0.950 . S
C1830 C1831 1.386 . S
C1830 C1832 1.391 . S
C1831 C1830 1.386 . S
C1831 C1835 1.393 . S
C1832 H1821 0.950 . S
C1832 C1830 1.391 . S
C1832 C1833 1.400 . S
C1833 C1827 1.491 . S
C1833 C1832 1.400 . S
C1833 C1834 1.398 . S
C1834 H1822 0.950 . S
C1834 C1833 1.398 . S
C1834 C1835 1.391 . S
C1835 H1823 0.950 . S
C1835 C1831 1.393 . S
C1835 C1834 1.391 . S
H1836 C1844 0.950 . S
H1837 C1849 0.950 . S
H1838 C1846 0.950 . S
H1839 C1848 0.950 . S
H1840 C1850 0.950 . S
H1841 C1852 0.950 . S
H1842 C1854 0.950 . S
H1843 C1855 0.950 . S
C1844 H1836 0.950 . S
C1844 C1845 1.386 . S
C1844 C1846 1.391 . S
C1845 C1844 1.386 . S
C1845 C1849 1.393 . S
C1846 H1838 0.950 . S
C1846 C1844 1.391 . S
C1846 C1847 1.400 . S
C1847 C1846 1.400 . S
C1847 C1848 1.398 . S
C1847 C1853 1.491 . S
C1848 H1839 0.950 . S
C1848 C1847 1.398 . S
C1848 C1849 1.391 . S
C1849 H1837 0.950 . S
C1849 C1845 1.393 . S
C1849 C1848 1.391 . S
C1850 H1840 0.950 . S
C1850 C1851 1.386 . S
C1850 C1852 1.391 . S
C1851 C1850 1.386 . S
C1851 C1855 1.393 . S
C1852 H1841 0.950 . S
C1852 C1850 1.391 . S
C1852 C1853 1.400 . S
C1853 C1847 1.491 . S
C1853 C1852 1.400 . S
C1853 C1854 1.398 . S
C1854 H1842 0.950 . S
C1854 C1853 1.398 . S
C1854 C1855 1.391 . S
C1855 H1843 0.950 . S
C1855 C1851 1.393 . S
C1855 C1854 1.391 . S
H1856 C1864 0.950 . S
H1857 C1869 0.950 . S
H1858 C1866 0.950 . S
H1859 C1868 0.950 . S
H1860 C1870 0.950 . S
H1861 C1872 0.950 . S
H1862 C1874 0.950 . S
H1863 C1875 0.950 . S
C1864 H1856 0.950 . S
C1864 C1865 1.386 . S
C1864 C1866 1.391 . S
C1865 C1864 1.386 . S
C1865 C1869 1.393 . S
C1866 H1858 0.950 . S
C1866 C1864 1.391 . S
C1866 C1867 1.400 . S
C1867 C1866 1.400 . S
C1867 C1868 1.398 . S
C1867 C1873 1.491 . S
C1868 H1859 0.950 . S
C1868 C1867 1.398 . S
C1868 C1869 1.391 . S
C1869 H1857 0.950 . S
C1869 C1865 1.393 . S
C1869 C1868 1.391 . S
C1870 H1860 0.950 . S
C1870 C1871 1.386 . S
C1870 C1872 1.391 . S
C1871 C1870 1.386 . S
C1871 C1875 1.393 . S
C1872 H1861 0.950 . S
C1872 C1870 1.391 . S
C1872 C1873 1.400 . S
C1873 C1867 1.491 . S
C1873 C1872 1.400 . S
C1873 C1874 1.398 . S
C1874 H1862 0.950 . S
C1874 C1873 1.398 . S
C1874 C1875 1.391 . S
C1875 H1863 0.950 . S
C1875 C1871 1.393 . S
C1875 C1874 1.391 . S
H1876 C1884 0.950 . S
H1877 C1889 0.950 . S
H1878 C1886 0.950 . S
H1879 C1888 0.950 . S
H1880 C1890 0.950 . S
H1881 C1892 0.950 . S
H1882 C1894 0.950 . S
H1883 C1895 0.950 . S
C1884 H1876 0.950 . S
C1884 C1885 1.386 . S
C1884 C1886 1.391 . S
C1885 C1884 1.386 . S
C1885 C1889 1.393 . S
C1886 H1878 0.950 . S
C1886 C1884 1.391 . S
C1886 C1887 1.400 . S
C1887 C1886 1.400 . S
C1887 C1888 1.398 . S
C1887 C1893 1.491 . S
C1888 H1879 0.950 . S
C1888 C1887 1.398 . S
C1888 C1889 1.391 . S
C1889 H1877 0.950 . S
C1889 C1885 1.393 . S
C1889 C1888 1.391 . S
C1890 H1880 0.950 . S
C1890 C1891 1.386 . S
C1890 C1892 1.391 . S
C1891 C1890 1.386 . S
C1891 C1895 1.393 . S
C1892 H1881 0.950 . S
C1892 C1890 1.391 . S
C1892 C1893 1.400 . S
C1893 C1887 1.491 . S
C1893 C1892 1.400 . S
C1893 C1894 1.398 . S
C1894 H1882 0.950 . S
C1894 C1893 1.398 . S
C1894 C1895 1.391 . S
C1895 H1883 0.950 . S
C1895 C1891 1.393 . S
C1895 C1894 1.391 . S
H1896 C1904 0.950 . S
H1897 C1909 0.950 . S
H1898 C1906 0.950 . S
H1899 C1908 0.950 . S
H1900 C1910 0.950 . S
H1901 C1912 0.950 1_554 S
H1902 C1914 0.950 . S
H1903 C1915 0.950 . S
C1904 H1896 0.950 . S
C1904 C1905 1.386 . S
C1904 C1906 1.391 . S
C1905 C1904 1.386 . S
C1905 C1909 1.393 . S
C1906 H1898 0.950 . S
C1906 C1904 1.391 . S
C1906 C1907 1.400 . S
C1907 C1906 1.400 . S
C1907 C1908 1.398 . S
C1907 C1913 1.491 . S
C1908 H1899 0.950 . S
C1908 C1907 1.398 . S
C1908 C1909 1.391 . S
C1909 H1897 0.950 . S
C1909 C1905 1.393 . S
C1909 C1908 1.391 . S
C1910 H1900 0.950 . S
C1910 C1911 1.372 1_554 S
C1910 C1912 1.391 1_554 S
C1911 C1910 1.372 1_556 S
C1911 C1915 1.422 . S
C1912 H1901 0.950 1_556 S
C1912 C1910 1.391 1_556 S
C1912 C1913 1.400 . S
C1913 C1907 1.491 . S
C1913 C1912 1.400 . S
C1913 C1914 1.398 . S
C1914 H1902 0.950 . S
C1914 C1913 1.398 . S
C1914 C1915 1.391 . S
C1915 H1903 0.950 . S
C1915 C1911 1.422 . S
C1915 C1914 1.391 . S
H1916 C1924 0.965 . S
H1917 C1929 0.950 . S
H1918 C1926 0.950 . S
H1919 C1928 0.950 . S
H1920 C1930 0.950 . S
H1921 C1932 0.950 . S
H1922 C1934 0.950 . S
H1923 C1935 0.950 . S
C1924 H1916 0.965 . S
C1924 C1925 1.389 . S
C1924 C1926 1.372 1_455 S
C1925 C1924 1.389 . S
C1925 C1929 1.393 1_455 S
C1926 H1918 0.950 . S
C1926 C1924 1.372 1_655 S
C1926 C1927 1.400 . S
C1927 C1926 1.400 . S
C1927 C1928 1.398 . S
C1927 C1933 1.491 . S
C1928 H1919 0.950 . S
C1928 C1927 1.398 . S
C1928 C1929 1.391 . S
C1929 H1917 0.950 . S
C1929 C1925 1.393 1_655 S
C1929 C1928 1.391 . S
C1930 H1920 0.950 . S
C1930 C1931 1.386 . S
C1930 C1932 1.391 . S
C1931 C1930 1.386 . S
C1931 C1935 1.393 . S
C1932 H1921 0.950 . S
C1932 C1930 1.391 . S
C1932 C1933 1.400 . S
C1933 C1927 1.491 . S
C1933 C1932 1.400 . S
C1933 C1934 1.398 . S
C1934 H1922 0.950 . S
C1934 C1933 1.398 . S
C1934 C1935 1.391 . S
C1935 H1923 0.950 . S
C1935 C1931 1.393 . S
C1935 C1934 1.391 . S
H1936 C1944 0.950 . S
H1937 C1949 0.950 . S
H1938 C1946 0.950 . S
H1939 C1948 0.950 . S
H1940 C1950 0.950 . S
H1941 C1952 0.950 . S
H1942 C1954 0.950 . S
H1943 C1955 0.950 . S
C1944 H1936 0.950 . S
C1944 C1945 1.386 . S
C1944 C1946 1.391 . S
C1945 C1944 1.386 . S
C1945 C1949 1.393 . S
C1946 H1938 0.950 . S
C1946 C1944 1.391 . S
C1946 C1947 1.400 . S
C1947 C1946 1.400 . S
C1947 C1948 1.398 . S
C1947 C1953 1.491 . S
C1948 H1939 0.950 . S
C1948 C1947 1.398 . S
C1948 C1949 1.391 . S
C1949 H1937 0.950 . S
C1949 C1945 1.393 . S
C1949 C1948 1.391 . S
C1950 H1940 0.950 . S
C1950 C1951 1.386 . S
C1950 C1952 1.391 . S
C1951 C1950 1.386 . S
C1951 C1955 1.393 . S
C1952 H1941 0.950 . S
C1952 C1950 1.391 . S
C1952 C1953 1.400 . S
C1953 C1947 1.491 . S
C1953 C1952 1.400 . S
C1953 C1954 1.398 . S
C1954 H1942 0.950 . S
C1954 C1953 1.398 . S
C1954 C1955 1.391 . S
C1955 H1943 0.950 . S
C1955 C1951 1.393 . S
C1955 C1954 1.391 . S
H1956 C1964 0.950 . S
H1957 C1969 0.950 . S
H1958 C1966 0.950 . S
H1959 C1968 0.950 . S
H1960 C1970 0.950 . S
H1961 C1972 0.950 . S
H1962 C1974 0.950 . S
H1963 C1975 0.950 . S
C1964 H1956 0.950 . S
C1964 C1965 1.386 . S
C1964 C1966 1.391 . S
C1965 C1964 1.386 . S
C1965 C1969 1.393 . S
C1966 H1958 0.950 . S
C1966 C1964 1.391 . S
C1966 C1967 1.400 . S
C1967 C1966 1.400 . S
C1967 C1968 1.398 . S
C1967 C1973 1.491 . S
C1968 H1959 0.950 . S
C1968 C1967 1.398 . S
C1968 C1969 1.391 . S
C1969 H1957 0.950 . S
C1969 C1965 1.393 . S
C1969 C1968 1.391 . S
C1970 H1960 0.950 . S
C1970 C1971 1.386 . S
C1970 C1972 1.391 . S
C1971 C1970 1.386 . S
C1971 C1975 1.393 . S
C1972 H1961 0.950 . S
C1972 C1970 1.391 . S
C1972 C1973 1.400 . S
C1973 C1967 1.491 . S
C1973 C1972 1.400 . S
C1973 C1974 1.398 . S
C1974 H1962 0.950 . S
C1974 C1973 1.398 . S
C1974 C1975 1.391 . S
C1975 H1963 0.950 . S
C1975 C1971 1.393 . S
C1975 C1974 1.391 . S
H1976 C1984 0.950 . S
H1977 C1989 0.950 . S
H1978 C1986 0.950 . S
H1979 C1988 0.950 . S
H1980 C1990 0.950 . S
H1981 C1992 0.950 . S
H1982 C1994 0.950 . S
H1983 C1995 0.950 . S
C1984 H1976 0.950 . S
C1984 C1985 1.386 . S
C1984 C1986 1.391 . S
C1985 C1984 1.386 . S
C1985 C1989 1.393 . S
C1986 H1978 0.950 . S
C1986 C1984 1.391 . S
C1986 C1987 1.400 . S
C1987 C1986 1.400 . S
C1987 C1988 1.398 . S
C1987 C1993 1.491 . S
C1988 H1979 0.950 . S
C1988 C1987 1.398 . S
C1988 C1989 1.391 . S
C1989 H1977 0.950 . S
C1989 C1985 1.393 . S
C1989 C1988 1.391 . S
C1990 H1980 0.950 . S
C1990 C1991 1.386 . S
C1990 C1992 1.391 . S
C1991 C1990 1.386 . S
C1991 C1995 1.393 . S
C1992 H1981 0.950 . S
C1992 C1990 1.391 . S
C1992 C1993 1.400 . S
C1993 C1987 1.491 . S
C1993 C1992 1.400 . S
C1993 C1994 1.398 . S
C1994 H1982 0.950 . S
C1994 C1993 1.398 . S
C1994 C1995 1.391 . S
C1995 H1983 0.950 . S
C1995 C1991 1.393 . S
C1995 C1994 1.391 . S
H1996 C2004 0.950 . S
H1997 C2009 0.950 1_554 S
H1998 C2006 0.950 . S
H1999 C2008 0.950 . S
H2000 C2010 0.950 . S
H2001 C2012 0.950 . S
H2002 C2014 0.950 . S
H2003 C2015 0.950 . S
C2004 H1996 0.950 . S
C2004 C2005 1.386 1_556 S
C2004 C2006 1.391 . S
C2005 C2004 1.386 1_554 S
C2005 C2009 1.393 1_554 S
C2006 H1998 0.950 . S
C2006 C2004 1.391 . S
C2006 C2007 1.400 . S
C2007 C2006 1.400 . S
C2007 C2008 1.398 . S
C2007 C2013 1.491 . S
C2008 H1999 0.950 . S
C2008 C2007 1.398 . S
C2008 C2009 1.391 . S
C2009 H1997 0.950 1_556 S
C2009 C2005 1.393 1_556 S
C2009 C2008 1.391 . S
C2010 H2000 0.950 . S
C2010 C2011 1.386 . S
C2010 C2012 1.391 . S
C2011 C2010 1.386 . S
C2011 C2015 1.393 . S
C2012 H2001 0.950 . S
C2012 C2010 1.391 . S
C2012 C2013 1.400 . S
C2013 C2007 1.491 . S
C2013 C2012 1.400 . S
C2013 C2014 1.398 . S
C2014 H2002 0.950 . S
C2014 C2013 1.398 . S
C2014 C2015 1.391 . S
C2015 H2003 0.950 . S
C2015 C2011 1.393 . S
C2015 C2014 1.391 . S
H2016 C2024 0.950 . S
H2017 C2029 0.950 . S
H2018 C2026 0.950 . S
H2019 C2028 0.950 . S
H2020 C2030 0.950 1_455 S
H2021 C2032 0.950 . S
H2022 C2034 0.950 . S
H2023 C2035 0.950 . S
C2024 H2016 0.950 . S
C2024 C2025 1.386 . S
C2024 C2026 1.391 . S
C2025 C2024 1.386 . S
C2025 C2029 1.393 . S
C2026 H2018 0.950 . S
C2026 C2024 1.391 . S
C2026 C2027 1.400 . S
C2027 C2026 1.400 . S
C2027 C2028 1.398 . S
C2027 C2033 1.491 . S
C2028 H2019 0.950 . S
C2028 C2027 1.398 . S
C2028 C2029 1.391 . S
C2029 H2017 0.950 . S
C2029 C2025 1.393 . S
C2029 C2028 1.391 . S
C2030 H2020 0.950 1_655 S
C2030 C2031 1.386 . S
C2030 C2032 1.391 . S
C2031 C2030 1.386 . S
C2031 C2035 1.396 . S
C2032 H2021 0.950 . S
C2032 C2030 1.391 . S
C2032 C2033 1.400 . S
C2033 C2027 1.491 . S
C2033 C2032 1.400 . S
C2033 C2034 1.398 . S
C2034 H2022 0.950 . S
C2034 C2033 1.398 . S
C2034 C2035 1.391 . S
C2035 H2023 0.950 . S
C2035 C2031 1.396 . S
C2035 C2034 1.391 . S
H2036 C2044 0.950 . S
H2037 C2049 0.950 . S
H2038 C2046 0.950 . S
H2039 C2048 0.950 . S
H2040 C2050 0.950 . S
H2041 C2052 0.950 . S
H2042 C2054 0.950 . S
H2043 C2055 0.950 . S
C2044 H2036 0.950 . S
C2044 C2045 1.386 . S
C2044 C2046 1.391 . S
C2045 C2044 1.386 . S
C2045 C2049 1.393 . S
C2046 H2038 0.950 . S
C2046 C2044 1.391 . S
C2046 C2047 1.400 . S
C2047 C2046 1.400 . S
C2047 C2048 1.398 . S
C2047 C2053 1.491 . S
C2048 H2039 0.950 . S
C2048 C2047 1.398 . S
C2048 C2049 1.391 . S
C2049 H2037 0.950 . S
C2049 C2045 1.393 . S
C2049 C2048 1.391 . S
C2050 H2040 0.950 . S
C2050 C2051 1.386 . S
C2050 C2052 1.391 . S
C2051 C2050 1.386 . S
C2051 C2055 1.393 . S
C2052 H2041 0.950 . S
C2052 C2050 1.391 . S
C2052 C2053 1.400 . S
C2053 C2047 1.491 . S
C2053 C2052 1.400 . S
C2053 C2054 1.398 . S
C2054 H2042 0.950 . S
C2054 C2053 1.398 . S
C2054 C2055 1.391 . S
C2055 H2043 0.950 . S
C2055 C2051 1.393 . S
C2055 C2054 1.391 . S
H2056 C2064 0.950 . S
H2057 C2069 0.950 . S
H2058 C2066 0.950 . S
H2059 C2068 0.950 . S
H2060 C2070 0.950 . S
H2061 C2072 0.950 . S
H2062 C2074 0.950 . S
H2063 C2075 0.950 . S
C2064 H2056 0.950 . S
C2064 C2065 1.386 . S
C2064 C2066 1.391 . S
C2065 C2064 1.386 . S
C2065 C2069 1.393 . S
C2066 H2058 0.950 . S
C2066 C2064 1.391 . S
C2066 C2067 1.400 . S
C2067 C2066 1.400 . S
C2067 C2068 1.398 . S
C2067 C2073 1.491 . S
C2068 H2059 0.950 . S
C2068 C2067 1.398 . S
C2068 C2069 1.391 . S
C2069 H2057 0.950 . S
C2069 C2065 1.393 . S
C2069 C2068 1.391 . S
C2070 H2060 0.950 . S
C2070 C2071 1.386 . S
C2070 C2072 1.391 . S
C2071 C2070 1.386 . S
C2071 C2075 1.393 . S
C2072 H2061 0.950 . S
C2072 C2070 1.391 . S
C2072 C2073 1.400 . S
C2073 C2067 1.491 . S
C2073 C2072 1.400 . S
C2073 C2074 1.398 . S
C2074 H2062 0.950 . S
C2074 C2073 1.398 . S
C2074 C2075 1.391 . S
C2075 H2063 0.950 . S
C2075 C2071 1.393 . S
C2075 C2074 1.391 . S
H2076 C2084 0.950 . S
H2077 C2089 0.950 . S
H2078 C2086 0.950 . S
H2079 C2088 0.950 . S
H2080 C2090 0.950 . S
H2081 C2092 0.950 . S
H2082 C2094 0.950 . S
H2083 C2095 0.950 . S
C2084 H2076 0.950 . S
C2084 C2085 1.386 . S
C2084 C2086 1.391 . S
C2085 C2084 1.386 . S
C2085 C2089 1.393 . S
C2086 H2078 0.950 . S
C2086 C2084 1.391 . S
C2086 C2087 1.400 . S
C2087 C2086 1.400 . S
C2087 C2088 1.398 . S
C2087 C2093 1.491 . S
C2088 H2079 0.950 . S
C2088 C2087 1.398 . S
C2088 C2089 1.391 . S
C2089 H2077 0.950 . S
C2089 C2085 1.393 . S
C2089 C2088 1.391 . S
C2090 H2080 0.950 . S
C2090 C2091 1.386 . S
C2090 C2092 1.391 . S
C2091 C2090 1.386 . S
C2091 C2095 1.393 . S
C2092 H2081 0.950 . S
C2092 C2090 1.391 . S
C2092 C2093 1.400 . S
C2093 C2087 1.491 . S
C2093 C2092 1.400 . S
C2093 C2094 1.398 . S
C2094 H2082 0.950 . S
C2094 C2093 1.398 . S
C2094 C2095 1.391 . S
C2095 H2083 0.950 . S
C2095 C2091 1.393 . S
C2095 C2094 1.391 . S
H2096 C2104 0.950 . S
H2097 C2109 0.950 . S
H2098 C2106 0.950 . S
H2099 C2108 0.950 . S
H2100 C2110 0.950 . S
H2101 C2112 0.950 . S
H2102 C2114 0.950 . S
H2103 C2115 0.950 1_455 S
C2104 H2096 0.950 . S
C2104 C2105 1.386 . S
C2104 C2106 1.391 . S
C2105 C2104 1.386 . S
C2105 C2109 1.393 . S
C2106 H2098 0.950 . S
C2106 C2104 1.391 . S
C2106 C2107 1.400 . S
C2107 C2106 1.400 . S
C2107 C2108 1.398 . S
C2107 C2113 1.491 . S
C2108 H2099 0.950 . S
C2108 C2107 1.398 . S
C2108 C2109 1.391 . S
C2109 H2097 0.950 . S
C2109 C2105 1.393 . S
C2109 C2108 1.391 . S
C2110 H2100 0.950 . S
C2110 C2111 1.386 . S
C2110 C2112 1.391 . S
C2111 C2110 1.386 . S
C2111 C2115 1.393 . S
C2112 H2101 0.950 . S
C2112 C2110 1.391 . S
C2112 C2113 1.400 . S
C2113 C2107 1.491 . S
C2113 C2112 1.400 . S
C2113 C2114 1.398 . S
C2114 H2102 0.950 . S
C2114 C2113 1.398 . S
C2114 C2115 1.391 . S
C2115 H2103 0.950 1_655 S
C2115 C2111 1.393 . S
C2115 C2114 1.391 . S
H2116 C2124 0.950 . S
H2117 C2129 0.950 . S
H2118 C2126 0.950 . S
H2119 C2128 0.950 . S
H2120 C2130 0.950 . S
H2121 C2132 0.950 . S
H2122 C2134 0.950 . S
H2123 C2135 0.950 . S
C2124 H2116 0.950 . S
C2124 C2125 1.386 . S
C2124 C2126 1.391 . S
C2125 C2124 1.386 . S
C2125 C2129 1.393 . S
C2126 H2118 0.950 . S
C2126 C2124 1.391 . S
C2126 C2127 1.400 . S
C2127 C2126 1.400 . S
C2127 C2128 1.398 . S
C2127 C2133 1.491 . S
C2128 H2119 0.950 . S
C2128 C2127 1.398 . S
C2128 C2129 1.391 . S
C2129 H2117 0.950 . S
C2129 C2125 1.393 . S
C2129 C2128 1.391 . S
C2130 H2120 0.950 . S
C2130 C2131 1.386 . S
C2130 C2132 1.391 . S
C2131 C2130 1.386 . S
C2131 C2135 1.393 . S
C2132 H2121 0.950 . S
C2132 C2130 1.391 . S
C2132 C2133 1.400 . S
C2133 C2127 1.491 . S
C2133 C2132 1.400 . S
C2133 C2134 1.398 . S
C2134 H2122 0.950 . S
C2134 C2133 1.398 . S
C2134 C2135 1.391 . S
C2135 H2123 0.950 . S
C2135 C2131 1.393 . S
C2135 C2134 1.391 . S
H2136 C2144 0.950 . S
H2137 C2149 0.950 . S
H2138 C2146 0.950 . S
H2139 C2148 0.950 . S
H2140 C2150 0.950 . S
H2141 C2152 0.950 . S
H2142 C2154 0.950 . S
H2143 C2155 0.950 . S
C2144 H2136 0.950 . S
C2144 C2145 1.386 . S
C2144 C2146 1.391 . S
C2145 C2144 1.386 . S
C2145 C2149 1.393 . S
C2146 H2138 0.950 . S
C2146 C2144 1.391 . S
C2146 C2147 1.400 . S
C2147 C2146 1.400 . S
C2147 C2148 1.398 . S
C2147 C2153 1.491 . S
C2148 H2139 0.950 . S
C2148 C2147 1.398 . S
C2148 C2149 1.391 . S
C2149 H2137 0.950 . S
C2149 C2145 1.393 . S
C2149 C2148 1.391 . S
C2150 H2140 0.950 . S
C2150 C2151 1.386 . S
C2150 C2152 1.391 . S
C2151 C2150 1.386 . S
C2151 C2155 1.393 . S
C2152 H2141 0.950 . S
C2152 C2150 1.391 . S
C2152 C2153 1.400 . S
C2153 C2147 1.491 . S
C2153 C2152 1.400 . S
C2153 C2154 1.398 . S
C2154 H2142 0.950 . S
C2154 C2153 1.398 . S
C2154 C2155 1.391 . S
C2155 H2143 0.950 . S
C2155 C2151 1.393 . S
C2155 C2154 1.391 . S
H2156 C2164 0.950 . S
H2157 C2169 0.950 . S
H2158 C2166 0.950 . S
H2159 C2168 0.950 . S
H2160 C2170 0.950 . S
H2161 C2172 0.950 . S
H2162 C2174 0.950 . S
H2163 C2175 0.950 1_545 S
C2164 H2156 0.950 . S
C2164 C2165 1.386 . S
C2164 C2166 1.391 . S
C2165 C2164 1.386 . S
C2165 C2169 1.393 . S
C2166 H2158 0.950 . S
C2166 C2164 1.391 . S
C2166 C2167 1.400 . S
C2167 C2166 1.400 . S
C2167 C2168 1.398 . S
C2167 C2173 1.491 . S
C2168 H2159 0.950 . S
C2168 C2167 1.398 . S
C2168 C2169 1.391 . S
C2169 H2157 0.950 . S
C2169 C2165 1.393 . S
C2169 C2168 1.391 . S
C2170 H2160 0.950 . S
C2170 C2171 1.386 . S
C2170 C2172 1.391 . S
C2171 C2170 1.386 . S
C2171 C2175 1.393 . S
C2172 H2161 0.950 . S
C2172 C2170 1.391 . S
C2172 C2173 1.400 . S
C2173 C2167 1.491 . S
C2173 C2172 1.400 . S
C2173 C2174 1.398 . S
C2174 H2162 0.950 . S
C2174 C2173 1.398 . S
C2174 C2175 1.391 . S
C2175 H2163 0.950 1_565 S
C2175 C2171 1.393 . S
C2175 C2174 1.391 . S
H2176 C2184 0.950 . S
H2177 C2189 0.950 . S
H2178 C2186 0.950 . S
H2179 C2188 0.950 . S
H2180 C2190 0.950 . S
H2181 C2192 0.950 . S
H2182 C2194 0.950 . S
H2183 C2195 0.950 . S
C2184 H2176 0.950 . S
C2184 C2185 1.386 . S
C2184 C2186 1.391 . S
C2185 C2184 1.386 . S
C2185 C2189 1.393 . S
C2186 H2178 0.950 . S
C2186 C2184 1.391 . S
C2186 C2187 1.400 . S
C2187 C2186 1.400 . S
C2187 C2188 1.398 . S
C2187 C2193 1.491 . S
C2188 H2179 0.950 . S
C2188 C2187 1.398 . S
C2188 C2189 1.391 . S
C2189 H2177 0.950 . S
C2189 C2185 1.393 . S
C2189 C2188 1.391 . S
C2190 H2180 0.950 . S
C2190 C2191 1.386 . S
C2190 C2192 1.391 . S
C2191 C2190 1.386 . S
C2191 C2195 1.393 . S
C2192 H2181 0.950 . S
C2192 C2190 1.391 . S
C2192 C2193 1.400 . S
C2193 C2187 1.491 . S
C2193 C2192 1.400 . S
C2193 C2194 1.398 . S
C2194 H2182 0.950 . S
C2194 C2193 1.398 . S
C2194 C2195 1.391 . S
C2195 H2183 0.950 . S
C2195 C2191 1.393 . S
C2195 C2194 1.391 . S
H2196 C2204 0.927 1_556 S
H2197 C2209 0.950 . S
H2198 C2206 0.950 . S
H2199 C2208 0.950 . S
H2200 C2210 0.950 . S
H2201 C2212 0.950 . S
H2202 C2214 0.950 . S
H2203 C2215 0.950 . S
C2204 H2196 0.927 1_554 S
C2204 C2205 1.386 . S
C2204 C2206 1.391 . S
C2205 C2204 1.386 . S
C2205 C2209 1.393 . S
C2206 H2198 0.950 . S
C2206 C2204 1.391 . S
C2206 C2207 1.400 . S
C2207 C2206 1.400 . S
C2207 C2208 1.398 . S
C2207 C2213 1.491 . S
C2208 H2199 0.950 . S
C2208 C2207 1.398 . S
C2208 C2209 1.391 . S
C2209 H2197 0.950 . S
C2209 C2205 1.393 . S
C2209 C2208 1.391 . S
C2210 H2200 0.950 . S
C2210 C2211 1.386 . S
C2210 C2212 1.391 . S
C2211 C2210 1.386 . S
C2211 C2215 1.393 . S
C2212 H2201 0.950 . S
C2212 C2210 1.391 . S
C2212 C2213 1.400 . S
C2213 C2207 1.491 . S
C2213 C2212 1.400 . S
C2213 C2214 1.398 . S
C2214 H2202 0.950 . S
C2214 C2213 1.398 . S
C2214 C2215 1.391 . S
C2215 H2203 0.950 . S
C2215 C2211 1.393 . S
C2215 C2214 1.391 . S
H2216 C2224 0.950 . S
H2217 C2229 0.950 . S
H2218 C2226 0.950 . S
H2219 C2228 0.950 . S
H2220 C2230 0.950 . S
H2221 C2232 0.950 . S
H2222 C2234 0.950 . S
H2223 C2235 0.950 . S
C2224 H2216 0.950 . S
C2224 C2225 1.386 . S
C2224 C2226 1.391 . S
C2225 C2224 1.386 . S
C2225 C2229 1.393 . S
C2226 H2218 0.950 . S
C2226 C2224 1.391 . S
C2226 C2227 1.400 . S
C2227 C2226 1.400 . S
C2227 C2228 1.398 . S
C2227 C2233 1.491 . S
C2228 H2219 0.950 . S
C2228 C2227 1.398 . S
C2228 C2229 1.391 . S
C2229 H2217 0.950 . S
C2229 C2225 1.393 . S
C2229 C2228 1.391 . S
C2230 H2220 0.950 . S
C2230 C2231 1.386 . S
C2230 C2232 1.391 . S
C2231 C2230 1.386 . S
C2231 C2235 1.393 . S
C2232 H2221 0.950 . S
C2232 C2230 1.391 . S
C2232 C2233 1.400 . S
C2233 C2227 1.491 . S
C2233 C2232 1.400 . S
C2233 C2234 1.398 . S
C2234 H2222 0.950 . S
C2234 C2233 1.398 . S
C2234 C2235 1.391 . S
C2235 H2223 0.950 . S
C2235 C2231 1.393 . S
C2235 C2234 1.391 . S
H2236 C2244 0.950 . S
H2237 C2249 0.950 . S
H2238 C2246 0.950 . S
H2239 C2248 0.950 . S
H2240 C2250 0.950 . S
H2241 C2252 0.950 . S
H2242 C2254 0.950 . S
H2243 C2255 0.950 . S
C2244 H2236 0.950 . S
C2244 C2245 1.386 . S
C2244 C2246 1.391 . S
C2245 C2244 1.386 . S
C2245 C2249 1.393 . S
C2246 H2238 0.950 . S
C2246 C2244 1.391 . S
C2246 C2247 1.400 . S
C2247 C2246 1.400 . S
C2247 C2248 1.398 . S
C2247 C2253 1.491 . S
C2248 H2239 0.950 . S
C2248 C2247 1.398 . S
C2248 C2249 1.391 . S
C2249 H2237 0.950 . S
C2249 C2245 1.393 . S
C2249 C2248 1.391 . S
C2250 H2240 0.950 . S
C2250 C2251 1.386 . S
C2250 C2252 1.391 . S
C2251 C2250 1.386 . S
C2251 C2255 1.393 . S
C2252 H2241 0.950 . S
C2252 C2250 1.391 . S
C2252 C2253 1.400 . S
C2253 C2247 1.491 . S
C2253 C2252 1.400 . S
C2253 C2254 1.398 . S
C2254 H2242 0.950 . S
C2254 C2253 1.398 . S
C2254 C2255 1.391 . S
C2255 H2243 0.950 . S
C2255 C2251 1.393 . S
C2255 C2254 1.391 . S
H2256 C2264 0.950 . S
H2257 C2269 0.950 . S
H2258 C2266 0.950 . S
H2259 C2268 0.950 . S
H2260 C2270 0.950 . S
H2261 C2272 0.950 . S
H2262 C2274 0.950 . S
H2263 C2275 0.950 . S
C2264 H2256 0.950 . S
C2264 C2265 1.386 . S
C2264 C2266 1.391 . S
C2265 C2264 1.386 . S
C2265 C2269 1.393 . S
C2266 H2258 0.950 . S
C2266 C2264 1.391 . S
C2266 C2267 1.400 . S
C2267 C2266 1.400 . S
C2267 C2268 1.398 . S
C2267 C2273 1.491 . S
C2268 H2259 0.950 . S
C2268 C2267 1.398 . S
C2268 C2269 1.391 . S
C2269 H2257 0.950 . S
C2269 C2265 1.393 . S
C2269 C2268 1.391 . S
C2270 H2260 0.950 . S
C2270 C2271 1.386 . S
C2270 C2272 1.391 . S
C2271 C2270 1.386 . S
C2271 C2275 1.393 . S
C2272 H2261 0.950 . S
C2272 C2270 1.391 . S
C2272 C2273 1.400 . S
C2273 C2267 1.491 . S
C2273 C2272 1.400 . S
C2273 C2274 1.398 . S
C2274 H2262 0.950 . S
C2274 C2273 1.398 . S
C2274 C2275 1.391 . S
C2275 H2263 0.950 . S
C2275 C2271 1.393 . S
C2275 C2274 1.391 . S
H2276 C2284 0.950 . S
H2277 C2289 0.950 . S
H2278 C2286 0.950 . S
H2279 C2288 0.950 . S
H2280 C2290 0.950 . S
H2281 C2292 0.950 . S
H2282 C2294 0.950 . S
H2283 C2295 0.950 . S
C2284 H2276 0.950 . S
C2284 C2285 1.386 . S
C2284 C2286 1.391 . S
C2285 C2284 1.386 . S
C2285 C2289 1.393 . S
C2286 H2278 0.950 . S
C2286 C2284 1.391 . S
C2286 C2287 1.400 . S
C2287 C2286 1.400 . S
C2287 C2288 1.398 . S
C2287 C2293 1.491 . S
C2288 H2279 0.950 . S
C2288 C2287 1.398 . S
C2288 C2289 1.391 . S
C2289 H2277 0.950 . S
C2289 C2285 1.393 . S
C2289 C2288 1.391 . S
C2290 H2280 0.950 . S
C2290 C2291 1.386 . S
C2290 C2292 1.391 . S
C2291 C2290 1.386 . S
C2291 C2295 1.393 . S
C2292 H2281 0.950 . S
C2292 C2290 1.391 . S
C2292 C2293 1.400 . S
C2293 C2287 1.491 . S
C2293 C2292 1.400 . S
C2293 C2294 1.398 . S
C2294 H2282 0.950 . S
C2294 C2293 1.398 . S
C2294 C2295 1.391 . S
C2295 H2283 0.950 . S
C2295 C2291 1.393 . S
C2295 C2294 1.391 . S
H2296 C2304 0.950 . S
H2297 C2309 0.950 . S
H2298 C2306 0.950 . S
H2299 C2308 0.950 . S
H2300 C2310 0.950 . S
H2301 C2312 0.950 . S
H2302 C2314 0.950 . S
H2303 C2315 0.950 . S
C2304 H2296 0.950 . S
C2304 C2305 1.386 . S
C2304 C2306 1.391 . S
C2305 C2304 1.386 . S
C2305 C2309 1.393 . S
C2306 H2298 0.950 . S
C2306 C2304 1.391 . S
C2306 C2307 1.400 . S
C2307 C2306 1.400 . S
C2307 C2308 1.398 . S
C2307 C2313 1.491 . S
C2308 H2299 0.950 . S
C2308 C2307 1.398 . S
C2308 C2309 1.391 . S
C2309 H2297 0.950 . S
C2309 C2305 1.393 . S
C2309 C2308 1.391 . S
C2310 H2300 0.950 . S
C2310 C2311 1.386 . S
C2310 C2312 1.391 . S
C2311 C2310 1.386 . S
C2311 C2315 1.393 . S
C2312 H2301 0.950 . S
C2312 C2310 1.391 . S
C2312 C2313 1.400 . S
C2313 C2307 1.491 . S
C2313 C2312 1.400 . S
C2313 C2314 1.398 . S
C2314 H2302 0.950 . S
C2314 C2313 1.398 . S
C2314 C2315 1.391 . S
C2315 H2303 0.950 . S
C2315 C2311 1.393 . S
C2315 C2314 1.391 . S
H2316 C2324 0.950 . S
H2317 C2329 0.950 . S
H2318 C2326 0.950 . S
H2319 C2328 0.950 . S
H2320 C2330 0.950 . S
H2321 C2332 0.950 . S
H2322 C2334 0.950 . S
H2323 C2335 0.950 . S
C2324 H2316 0.950 . S
C2324 C2325 1.386 . S
C2324 C2326 1.391 . S
C2325 C2324 1.386 . S
C2325 C2329 1.393 . S
C2326 H2318 0.950 . S
C2326 C2324 1.391 . S
C2326 C2327 1.400 . S
C2327 C2326 1.400 . S
C2327 C2328 1.398 . S
C2327 C2333 1.491 . S
C2328 H2319 0.950 . S
C2328 C2327 1.398 . S
C2328 C2329 1.391 . S
C2329 H2317 0.950 . S
C2329 C2325 1.393 . S
C2329 C2328 1.391 . S
C2330 H2320 0.950 . S
C2330 C2331 1.386 . S
C2330 C2332 1.391 . S
C2331 C2330 1.386 . S
C2331 C2335 1.393 . S
C2332 H2321 0.950 . S
C2332 C2330 1.391 . S
C2332 C2333 1.400 . S
C2333 C2327 1.491 . S
C2333 C2332 1.400 . S
C2333 C2334 1.398 . S
C2334 H2322 0.950 . S
C2334 C2333 1.398 . S
C2334 C2335 1.391 . S
C2335 H2323 0.950 . S
C2335 C2331 1.393 . S
C2335 C2334 1.391 . S
H2336 C2344 0.950 . S
H2337 C2349 0.950 . S
H2338 C2346 0.950 . S
H2339 C2348 0.950 . S
H2340 C2350 0.950 . S
H2341 C2352 0.950 . S
H2342 C2354 0.950 . S
H2343 C2355 0.950 1_554 S
C2344 H2336 0.950 . S
C2344 C2345 1.386 1_455 S
C2344 C2346 1.391 . S
C2345 C2344 1.386 1_655 S
C2345 C2349 1.393 . S
C2346 H2338 0.950 . S
C2346 C2344 1.391 . S
C2346 C2347 1.400 1_455 S
C2347 C2346 1.400 1_655 S
C2347 C2348 1.398 . S
C2347 C2353 1.491 . S
C2348 H2339 0.950 . S
C2348 C2347 1.398 . S
C2348 C2349 1.391 . S
C2349 H2337 0.950 . S
C2349 C2345 1.393 . S
C2349 C2348 1.391 . S
C2350 H2340 0.950 . S
C2350 C2351 1.386 . S
C2350 C2352 1.391 . S
C2351 C2350 1.386 . S
C2351 C2355 1.393 1_655 S
C2352 H2341 0.950 . S
C2352 C2350 1.391 . S
C2352 C2353 1.400 . S
C2353 C2347 1.491 . S
C2353 C2352 1.400 . S
C2353 C2354 1.398 1_655 S
C2354 H2342 0.950 . S
C2354 C2353 1.398 1_455 S
C2354 C2355 1.391 . S
C2355 H2343 0.950 1_556 S
C2355 C2351 1.393 1_455 S
C2355 C2354 1.391 . S
H2356 C2364 0.950 . S
H2357 C2369 0.950 . S
H2358 C2366 0.950 . S
H2359 C2368 0.950 . S
H2360 C2370 0.950 . S
H2361 C2372 0.950 . S
H2362 C2374 0.950 . S
H2363 C2375 0.950 . S
C2364 H2356 0.950 . S
C2364 C2365 1.386 . S
C2364 C2366 1.391 . S
C2365 C2364 1.386 . S
C2365 C2369 1.393 . S
C2366 H2358 0.950 . S
C2366 C2364 1.391 . S
C2366 C2367 1.400 . S
C2367 C2366 1.400 . S
C2367 C2368 1.398 . S
C2367 C2373 1.491 . S
C2368 H2359 0.950 . S
C2368 C2367 1.398 . S
C2368 C2369 1.391 . S
C2369 H2357 0.950 . S
C2369 C2365 1.393 . S
C2369 C2368 1.391 . S
C2370 H2360 0.950 . S
C2370 C2371 1.386 . S
C2370 C2372 1.391 . S
C2371 C2370 1.386 . S
C2371 C2375 1.393 . S
C2372 H2361 0.950 . S
C2372 C2370 1.391 . S
C2372 C2373 1.400 . S
C2373 C2367 1.491 . S
C2373 C2372 1.400 . S
C2373 C2374 1.398 . S
C2374 H2362 0.950 . S
C2374 C2373 1.398 . S
C2374 C2375 1.391 . S
C2375 H2363 0.950 . S
C2375 C2371 1.393 . S
C2375 C2374 1.391 . S
H2376 C2384 0.950 . S
H2377 C2389 0.950 . S
H2378 C2386 0.950 . S
H2379 C2388 0.950 . S
H2380 C2390 0.950 . S
H2381 C2392 0.950 . S
H2382 C2394 0.950 . S
H2383 C2395 0.950 . S
C2384 H2376 0.950 . S
C2384 C2385 1.386 . S
C2384 C2386 1.391 . S
C2385 C2384 1.386 . S
C2385 C2389 1.393 . S
C2386 H2378 0.950 . S
C2386 C2384 1.391 . S
C2386 C2387 1.400 . S
C2387 C2386 1.400 . S
C2387 C2388 1.398 . S
C2387 C2393 1.491 . S
C2388 H2379 0.950 . S
C2388 C2387 1.398 . S
C2388 C2389 1.391 . S
C2389 H2377 0.950 . S
C2389 C2385 1.393 . S
C2389 C2388 1.391 . S
C2390 H2380 0.950 . S
C2390 C2391 1.386 . S
C2390 C2392 1.391 . S
C2391 C2390 1.386 . S
C2391 C2395 1.393 . S
C2392 H2381 0.950 . S
C2392 C2390 1.391 . S
C2392 C2393 1.400 . S
C2393 C2387 1.491 . S
C2393 C2392 1.400 . S
C2393 C2394 1.398 . S
C2394 H2382 0.950 . S
C2394 C2393 1.398 . S
C2394 C2395 1.391 . S
C2395 H2383 0.950 . S
C2395 C2391 1.393 . S
C2395 C2394 1.391 . S
H2396 C2404 0.950 . S
H2397 C2409 0.950 . S
H2398 C2406 0.950 . S
H2399 C2408 0.950 . S
H2400 C2410 0.950 . S
H2401 C2412 0.950 . S
H2402 C2414 0.950 . S
H2403 C2415 0.950 . S
C2404 H2396 0.950 . S
C2404 C2405 1.386 . S
C2404 C2406 1.391 . S
C2405 C2404 1.386 . S
C2405 C2409 1.393 . S
C2406 H2398 0.950 . S
C2406 C2404 1.391 . S
C2406 C2407 1.400 . S
C2407 C2406 1.400 . S
C2407 C2408 1.398 . S
C2407 C2413 1.491 . S
C2408 H2399 0.950 . S
C2408 C2407 1.398 . S
C2408 C2409 1.391 . S
C2409 H2397 0.950 . S
C2409 C2405 1.393 . S
C2409 C2408 1.391 . S
C2410 H2400 0.950 . S
C2410 C2411 1.386 . S
C2410 C2412 1.391 . S
C2411 C2410 1.386 . S
C2411 C2415 1.393 . S
C2412 H2401 0.950 . S
C2412 C2410 1.391 . S
C2412 C2413 1.400 . S
C2413 C2407 1.491 . S
C2413 C2412 1.400 . S
C2413 C2414 1.398 . S
C2414 H2402 0.950 . S
C2414 C2413 1.398 . S
C2414 C2415 1.391 . S
C2415 H2403 0.950 . S
C2415 C2411 1.393 . S
C2415 C2414 1.391 . S
H2416 C2424 0.950 . S
H2417 C2429 0.950 1_655 S
H2418 C2426 0.950 . S
H2419 C2428 0.950 1_655 S
H2420 C2430 0.950 1_655 S
H2421 C2432 0.950 1_655 S
H2422 C2434 0.950 . S
H2423 C2435 0.950 . S
C2424 H2416 0.950 . S
C2424 C2425 1.386 . S
C2424 C2426 1.391 . S
C2425 C2424 1.386 . S
C2425 C2429 1.393 . S
C2426 H2418 0.950 . S
C2426 C2424 1.391 . S
C2426 C2427 1.400 . S
C2427 C2426 1.400 . S
C2427 C2428 1.398 . S
C2427 C2433 1.491 . S
C2428 H2419 0.950 1_455 S
C2428 C2427 1.398 . S
C2428 C2429 1.391 . S
C2429 H2417 0.950 1_455 S
C2429 C2425 1.393 . S
C2429 C2428 1.391 . S
C2430 H2420 0.950 1_455 S
C2430 C2431 1.386 . S
C2430 C2432 1.391 . S
C2431 C2430 1.386 . S
C2431 C2435 1.393 . S
C2432 H2421 0.950 1_455 S
C2432 C2430 1.391 . S
C2432 C2433 1.400 . S
C2433 C2427 1.491 . S
C2433 C2432 1.400 . S
C2433 C2434 1.398 . S
C2434 H2422 0.950 . S
C2434 C2433 1.398 . S
C2434 C2435 1.391 . S
C2435 H2423 0.950 . S
C2435 C2431 1.393 . S
C2435 C2434 1.391 . S
H2436 C2444 0.950 . S
H2437 C2449 0.950 . S
H2438 C2446 0.950 . S
H2439 C2448 0.950 . S
H2440 C2450 0.950 . S
H2441 C2452 0.950 . S
H2442 C2454 0.950 . S
H2443 C2455 0.950 . S
C2444 H2436 0.950 . S
C2444 C2445 1.386 . S
C2444 C2446 1.391 . S
C2445 C2444 1.386 . S
C2445 C2449 1.393 . S
C2446 H2438 0.950 . S
C2446 C2444 1.391 . S
C2446 C2447 1.400 . S
C2447 C2446 1.400 . S
C2447 C2448 1.398 . S
C2447 C2453 1.491 . S
C2448 H2439 0.950 . S
C2448 C2447 1.398 . S
C2448 C2449 1.391 . S
C2449 H2437 0.950 . S
C2449 C2445 1.393 . S
C2449 C2448 1.391 . S
C2450 H2440 0.950 . S
C2450 C2451 1.386 . S
C2450 C2452 1.391 . S
C2451 C2450 1.386 . S
C2451 C2455 1.393 . S
C2452 H2441 0.950 . S
C2452 C2450 1.391 . S
C2452 C2453 1.400 . S
C2453 C2447 1.491 . S
C2453 C2452 1.400 . S
C2453 C2454 1.398 . S
C2454 H2442 0.950 . S
C2454 C2453 1.398 . S
C2454 C2455 1.391 . S
C2455 H2443 0.950 . S
C2455 C2451 1.393 . S
C2455 C2454 1.391 . S
H2456 C2464 0.950 . S
H2457 C2469 0.950 . S
H2458 C2466 0.950 . S
H2459 C2468 0.950 . S
H2460 C2470 0.950 . S
H2461 C2472 0.950 . S
H2462 C2474 0.950 . S
H2463 C2475 0.950 . S
C2464 H2456 0.950 . S
C2464 C2465 1.386 . S
C2464 C2466 1.391 . S
C2465 C2464 1.386 . S
C2465 C2469 1.393 . S
C2466 H2458 0.950 . S
C2466 C2464 1.391 . S
C2466 C2467 1.400 . S
C2467 C2466 1.400 . S
C2467 C2468 1.398 . S
C2467 C2473 1.491 . S
C2468 H2459 0.950 . S
C2468 C2467 1.398 . S
C2468 C2469 1.391 . S
C2469 H2457 0.950 . S
C2469 C2465 1.393 . S
C2469 C2468 1.391 . S
C2470 H2460 0.950 . S
C2470 C2471 1.386 . S
C2470 C2472 1.391 . S
C2471 C2470 1.386 . S
C2471 C2475 1.393 . S
C2472 H2461 0.950 . S
C2472 C2470 1.391 . S
C2472 C2473 1.400 . S
C2473 C2467 1.491 . S
C2473 C2472 1.400 . S
C2473 C2474 1.398 . S
C2474 H2462 0.950 . S
C2474 C2473 1.398 . S
C2474 C2475 1.391 . S
C2475 H2463 0.950 . S
C2475 C2471 1.393 . S
C2475 C2474 1.391 . S
H2476 C2484 0.950 . S
H2477 C2489 0.950 . S
H2478 C2486 0.950 . S
H2479 C2488 0.950 . S
H2480 C2490 0.950 . S
H2481 C2492 0.950 . S
H2482 C2494 0.950 . S
H2483 C2495 0.950 . S
C2484 H2476 0.950 . S
C2484 C2485 1.386 . S
C2484 C2486 1.391 . S
C2485 C2484 1.386 . S
C2485 C2489 1.393 . S
C2486 H2478 0.950 . S
C2486 C2484 1.391 . S
C2486 C2487 1.400 . S
C2487 C2486 1.400 . S
C2487 C2488 1.398 . S
C2487 C2493 1.491 . S
C2488 H2479 0.950 . S
C2488 C2487 1.398 . S
C2488 C2489 1.391 . S
C2489 H2477 0.950 . S
C2489 C2485 1.393 . S
C2489 C2488 1.391 . S
C2490 H2480 0.950 . S
C2490 C2491 1.386 . S
C2490 C2492 1.391 . S
C2491 C2490 1.386 . S
C2491 C2495 1.393 . S
C2492 H2481 0.950 . S
C2492 C2490 1.391 . S
C2492 C2493 1.400 . S
C2493 C2487 1.491 . S
C2493 C2492 1.400 . S
C2493 C2494 1.398 . S
C2494 H2482 0.950 . S
C2494 C2493 1.398 . S
C2494 C2495 1.391 . S
C2495 H2483 0.950 . S
C2495 C2491 1.393 . S
C2495 C2494 1.391 . S
H2496 C2504 0.950 . S
H2497 C2509 0.950 . S
H2498 C2506 0.950 . S
H2499 C2508 0.950 . S
H2500 C2510 0.950 . S
H2501 C2512 0.950 . S
H2502 C2514 0.950 . S
H2503 C2515 0.950 . S
C2504 H2496 0.950 . S
C2504 C2505 1.386 . S
C2504 C2506 1.391 . S
C2505 C2504 1.386 . S
C2505 C2509 1.393 . S
C2506 H2498 0.950 . S
C2506 C2504 1.391 . S
C2506 C2507 1.400 . S
C2507 C2506 1.400 . S
C2507 C2508 1.398 . S
C2507 C2513 1.491 . S
C2508 H2499 0.950 . S
C2508 C2507 1.398 . S
C2508 C2509 1.391 . S
C2509 H2497 0.950 . S
C2509 C2505 1.393 . S
C2509 C2508 1.391 . S
C2510 H2500 0.950 . S
C2510 C2511 1.386 . S
C2510 C2512 1.391 . S
C2511 C2510 1.386 . S
C2511 C2515 1.393 . S
C2512 H2501 0.950 . S
C2512 C2510 1.391 . S
C2512 C2513 1.400 . S
C2513 C2507 1.491 . S
C2513 C2512 1.400 . S
C2513 C2514 1.398 . S
C2514 H2502 0.950 . S
C2514 C2513 1.398 . S
C2514 C2515 1.391 . S
C2515 H2503 0.950 . S
C2515 C2511 1.393 . S
C2515 C2514 1.391 . S
H2516 C2524 0.950 . S
H2517 C2529 0.950 . S
H2518 C2526 0.950 . S
H2519 C2528 0.950 . S
H2520 C2530 0.950 . S
H2521 C2532 0.950 . S
H2522 C2534 0.950 . S
H2523 C2535 0.950 . S
C2524 H2516 0.950 . S
C2524 C2525 1.386 . S
C2524 C2526 1.391 . S
C2525 C2524 1.386 . S
C2525 C2529 1.393 . S
C2526 H2518 0.950 . S
C2526 C2524 1.391 . S
C2526 C2527 1.400 . S
C2527 C2526 1.400 . S
C2527 C2528 1.398 . S
C2527 C2533 1.491 . S
C2528 H2519 0.950 . S
C2528 C2527 1.398 . S
C2528 C2529 1.391 . S
C2529 H2517 0.950 . S
C2529 C2525 1.393 . S
C2529 C2528 1.391 . S
C2530 H2520 0.950 . S
C2530 C2531 1.386 . S
C2530 C2532 1.391 . S
C2531 C2530 1.386 . S
C2531 C2535 1.393 . S
C2532 H2521 0.950 . S
C2532 C2530 1.391 . S
C2532 C2533 1.400 . S
C2533 C2527 1.491 . S
C2533 C2532 1.400 . S
C2533 C2534 1.398 . S
C2534 H2522 0.950 . S
C2534 C2533 1.398 . S
C2534 C2535 1.391 . S
C2535 H2523 0.950 . S
C2535 C2531 1.393 . S
C2535 C2534 1.391 . S
H2536 C2544 0.950 . S
H2537 C2549 0.950 . S
H2538 C2546 0.950 . S
H2539 C2548 0.950 . S
H2540 C2550 0.950 . S
H2541 C2552 0.950 . S
H2542 C2554 0.950 . S
H2543 C2555 0.950 . S
C2544 H2536 0.950 . S
C2544 C2545 1.386 . S
C2544 C2546 1.391 . S
C2545 C2544 1.386 . S
C2545 C2549 1.393 . S
C2546 H2538 0.950 . S
C2546 C2544 1.391 . S
C2546 C2547 1.400 . S
C2547 C2546 1.400 . S
C2547 C2548 1.398 . S
C2547 C2553 1.491 . S
C2548 H2539 0.950 . S
C2548 C2547 1.398 . S
C2548 C2549 1.391 . S
C2549 H2537 0.950 . S
C2549 C2545 1.393 . S
C2549 C2548 1.391 . S
C2550 H2540 0.950 . S
C2550 C2551 1.386 . S
C2550 C2552 1.391 . S
C2551 C2550 1.386 . S
C2551 C2555 1.393 . S
C2552 H2541 0.950 . S
C2552 C2550 1.391 . S
C2552 C2553 1.400 . S
C2553 C2547 1.491 . S
C2553 C2552 1.400 . S
C2553 C2554 1.398 . S
C2554 H2542 0.950 . S
C2554 C2553 1.398 . S
C2554 C2555 1.391 . S
C2555 H2543 0.950 . S
C2555 C2551 1.393 . S
C2555 C2554 1.391 . S
H2556 C2564 0.950 . S
H2557 C2569 0.950 . S
H2558 C2566 0.950 . S
H2559 C2568 0.950 . S
H2560 C2570 0.950 . S
H2561 C2572 0.950 . S
H2562 C2574 0.950 . S
H2563 C2575 0.950 . S
C2564 H2556 0.950 . S
C2564 C2565 1.386 . S
C2564 C2566 1.391 . S
C2565 C2564 1.386 . S
C2565 C2569 1.393 . S
C2566 H2558 0.950 . S
C2566 C2564 1.391 . S
C2566 C2567 1.400 . S
C2567 C2566 1.400 . S
C2567 C2568 1.398 . S
C2567 C2573 1.491 . S
C2568 H2559 0.950 . S
C2568 C2567 1.398 . S
C2568 C2569 1.391 . S
C2569 H2557 0.950 . S
C2569 C2565 1.393 . S
C2569 C2568 1.391 . S
C2570 H2560 0.950 . S
C2570 C2571 1.386 . S
C2570 C2572 1.391 . S
C2571 C2570 1.386 . S
C2571 C2575 1.393 . S
C2572 H2561 0.950 . S
C2572 C2570 1.391 . S
C2572 C2573 1.400 . S
C2573 C2567 1.491 . S
C2573 C2572 1.400 . S
C2573 C2574 1.398 . S
C2574 H2562 0.950 . S
C2574 C2573 1.398 . S
C2574 C2575 1.391 . S
C2575 H2563 0.950 . S
C2575 C2571 1.393 . S
C2575 C2574 1.391 . S
H2576 C2584 0.950 . S
H2577 C2589 0.950 . S
H2578 C2586 0.950 . S
H2579 C2588 0.950 . S
H2580 C2590 0.950 . S
H2581 C2592 0.950 . S
H2582 C2594 0.950 . S
H2583 C2595 0.950 . S
C2584 H2576 0.950 . S
C2584 C2585 1.386 . S
C2584 C2586 1.391 . S
C2585 C2584 1.386 . S
C2585 C2589 1.393 . S
C2586 H2578 0.950 . S
C2586 C2584 1.391 . S
C2586 C2587 1.400 . S
C2587 C2586 1.400 . S
C2587 C2588 1.398 . S
C2587 C2593 1.491 . S
C2588 H2579 0.950 . S
C2588 C2587 1.398 . S
C2588 C2589 1.391 . S
C2589 H2577 0.950 . S
C2589 C2585 1.393 . S
C2589 C2588 1.391 . S
C2590 H2580 0.950 . S
C2590 C2591 1.386 . S
C2590 C2592 1.391 . S
C2591 C2590 1.386 . S
C2591 C2595 1.393 . S
C2592 H2581 0.950 . S
C2592 C2590 1.391 . S
C2592 C2593 1.400 . S
C2593 C2587 1.491 . S
C2593 C2592 1.400 . S
C2593 C2594 1.398 . S
C2594 H2582 0.950 . S
C2594 C2593 1.398 . S
C2594 C2595 1.391 . S
C2595 H2583 0.950 . S
C2595 C2591 1.393 . S
C2595 C2594 1.391 . S
H2596 C2604 0.950 . S
H2597 C2609 0.950 . S
H2598 C2606 0.950 . S
H2599 C2608 0.950 . S
H2600 C2610 0.950 . S
H2601 C2612 0.950 . S
H2602 C2614 0.950 . S
H2603 C2615 0.950 . S
C2604 H2596 0.950 . S
C2604 C2605 1.386 . S
C2604 C2606 1.391 . S
C2605 C2604 1.386 . S
C2605 C2609 1.393 . S
C2606 H2598 0.950 . S
C2606 C2604 1.391 . S
C2606 C2607 1.400 . S
C2607 C2606 1.400 . S
C2607 C2608 1.398 . S
C2607 C2613 1.491 . S
C2608 H2599 0.950 . S
C2608 C2607 1.398 . S
C2608 C2609 1.391 . S
C2609 H2597 0.950 . S
C2609 C2605 1.393 . S
C2609 C2608 1.391 . S
C2610 H2600 0.950 . S
C2610 C2611 1.386 . S
C2610 C2612 1.391 . S
C2611 C2610 1.386 . S
C2611 C2615 1.393 . S
C2612 H2601 0.950 . S
C2612 C2610 1.391 . S
C2612 C2613 1.400 . S
C2613 C2607 1.491 . S
C2613 C2612 1.400 . S
C2613 C2614 1.398 . S
C2614 H2602 0.950 . S
C2614 C2613 1.398 . S
C2614 C2615 1.391 . S
C2615 H2603 0.950 . S
C2615 C2611 1.393 . S
C2615 C2614 1.391 . S
H2616 C2624 0.950 . S
H2617 C2629 0.950 . S
H2618 C2626 0.950 . S
H2619 C2628 0.950 . S
H2620 C2630 0.950 . S
H2621 C2632 0.950 . S
H2622 C2634 0.950 . S
H2623 C2635 0.950 . S
C2624 H2616 0.950 . S
C2624 C2625 1.386 . S
C2624 C2626 1.391 . S
C2625 C2624 1.386 . S
C2625 C2629 1.393 . S
C2626 H2618 0.950 . S
C2626 C2624 1.391 . S
C2626 C2627 1.400 . S
C2627 C2626 1.400 . S
C2627 C2628 1.398 . S
C2627 C2633 1.491 . S
C2628 H2619 0.950 . S
C2628 C2627 1.398 . S
C2628 C2629 1.391 . S
C2629 H2617 0.950 . S
C2629 C2625 1.393 . S
C2629 C2628 1.391 . S
C2630 H2620 0.950 . S
C2630 C2631 1.386 . S
C2630 C2632 1.391 . S
C2631 C2630 1.386 . S
C2631 C2635 1.393 . S
C2632 H2621 0.950 . S
C2632 C2630 1.391 . S
C2632 C2633 1.400 . S
C2633 C2627 1.491 . S
C2633 C2632 1.400 . S
C2633 C2634 1.398 . S
C2634 H2622 0.950 . S
C2634 C2633 1.398 . S
C2634 C2635 1.391 . S
C2635 H2623 0.950 . S
C2635 C2631 1.393 . S
C2635 C2634 1.391 . S
H2636 C2644 0.950 . S
H2637 C2649 0.950 . S
H2638 C2646 0.950 . S
H2639 C2648 0.950 . S
H2640 C2650 0.950 . S
H2641 C2652 0.950 . S
H2642 C2654 0.950 . S
H2643 C2655 0.950 . S
C2644 H2636 0.950 . S
C2644 C2645 1.386 . S
C2644 C2646 1.391 . S
C2645 C2644 1.386 . S
C2645 C2649 1.393 . S
C2646 H2638 0.950 . S
C2646 C2644 1.391 . S
C2646 C2647 1.400 . S
C2647 C2646 1.400 . S
C2647 C2648 1.398 . S
C2647 C2653 1.491 . S
C2648 H2639 0.950 . S
C2648 C2647 1.398 . S
C2648 C2649 1.391 . S
C2649 H2637 0.950 . S
C2649 C2645 1.393 . S
C2649 C2648 1.391 . S
C2650 H2640 0.950 . S
C2650 C2651 1.386 . S
C2650 C2652 1.391 . S
C2651 C2650 1.386 . S
C2651 C2655 1.393 . S
C2652 H2641 0.950 . S
C2652 C2650 1.391 . S
C2652 C2653 1.400 . S
C2653 C2647 1.491 . S
C2653 C2652 1.400 . S
C2653 C2654 1.398 . S
C2654 H2642 0.950 . S
C2654 C2653 1.398 . S
C2654 C2655 1.391 . S
C2655 H2643 0.950 . S
C2655 C2651 1.393 . S
C2655 C2654 1.391 . S
H2656 C2664 0.950 . S
H2657 C2669 0.950 . S
H2658 C2666 0.950 . S
H2659 C2668 0.950 . S
H2660 C2670 0.950 . S
H2661 C2672 0.950 . S
H2662 C2674 0.950 . S
H2663 C2675 0.950 . S
C2664 H2656 0.950 . S
C2664 C2665 1.386 . S
C2664 C2666 1.391 . S
C2665 C2664 1.386 . S
C2665 C2669 1.393 . S
C2666 H2658 0.950 . S
C2666 C2664 1.391 . S
C2666 C2667 1.400 . S
C2667 C2666 1.400 . S
C2667 C2668 1.398 . S
C2667 C2673 1.491 . S
C2668 H2659 0.950 . S
C2668 C2667 1.398 . S
C2668 C2669 1.391 . S
C2669 H2657 0.950 . S
C2669 C2665 1.393 . S
C2669 C2668 1.391 . S
C2670 H2660 0.950 . S
C2670 C2671 1.386 . S
C2670 C2672 1.391 . S
C2671 C2670 1.386 . S
C2671 C2675 1.393 . S
C2672 H2661 0.950 . S
C2672 C2670 1.391 . S
C2672 C2673 1.400 . S
C2673 C2667 1.491 . S
C2673 C2672 1.400 . S
C2673 C2674 1.398 . S
C2674 H2662 0.950 . S
C2674 C2673 1.398 . S
C2674 C2675 1.391 . S
C2675 H2663 0.950 . S
C2675 C2671 1.393 . S
C2675 C2674 1.391 . S
H2676 C2684 0.950 1_556 S
H2677 C2689 0.950 . S
H2678 C2686 0.921 1_556 S
H2679 C2688 0.950 . S
H2680 C2690 0.936 1_545 S
H2681 C2692 0.950 . S
H2682 C2694 0.950 . S
H2683 C2695 0.950 . S
C2684 H2676 0.950 1_554 S
C2684 C2685 1.386 . S
C2684 C2686 1.393 . S
C2685 C2684 1.386 . S
C2685 C2689 1.393 . S
C2686 H2678 0.921 1_554 S
C2686 C2684 1.393 . S
C2686 C2687 1.428 . S
C2687 C2686 1.428 . S
C2687 C2688 1.398 . S
C2687 C2693 1.491 . S
C2688 H2679 0.950 . S
C2688 C2687 1.398 . S
C2688 C2689 1.391 . S
C2689 H2677 0.950 . S
C2689 C2685 1.393 . S
C2689 C2688 1.391 . S
C2690 H2680 0.936 1_565 S
C2690 C2691 1.390 . S
C2690 C2692 1.401 . S
C2691 C2690 1.390 . S
C2691 C2695 1.393 1_554 S
C2692 H2681 0.950 . S
C2692 C2690 1.401 . S
C2692 C2693 1.400 . S
C2693 C2687 1.491 . S
C2693 C2692 1.400 . S
C2693 C2694 1.398 1_554 S
C2694 H2682 0.950 . S
C2694 C2693 1.398 1_556 S
C2694 C2695 1.391 . S
C2695 H2683 0.950 . S
C2695 C2691 1.393 1_556 S
C2695 C2694 1.391 . S
H2696 C2704 0.950 . S
H2697 C2709 0.950 . S
H2698 C2706 0.950 . S
H2699 C2708 0.950 . S
H2700 C2710 0.950 . S
H2701 C2712 0.950 . S
H2702 C2714 0.950 . S
H2703 C2715 0.950 . S
C2704 H2696 0.950 . S
C2704 C2705 1.386 . S
C2704 C2706 1.391 . S
C2705 C2704 1.386 . S
C2705 C2709 1.393 . S
C2706 H2698 0.950 . S
C2706 C2704 1.391 . S
C2706 C2707 1.400 . S
C2707 C2706 1.400 . S
C2707 C2708 1.398 . S
C2707 C2713 1.491 . S
C2708 H2699 0.950 . S
C2708 C2707 1.398 . S
C2708 C2709 1.391 . S
C2709 H2697 0.950 . S
C2709 C2705 1.393 . S
C2709 C2708 1.391 . S
C2710 H2700 0.950 . S
C2710 C2711 1.386 . S
C2710 C2712 1.391 . S
C2711 C2710 1.386 . S
C2711 C2715 1.393 . S
C2712 H2701 0.950 . S
C2712 C2710 1.391 . S
C2712 C2713 1.400 . S
C2713 C2707 1.491 . S
C2713 C2712 1.400 . S
C2713 C2714 1.398 . S
C2714 H2702 0.950 . S
C2714 C2713 1.398 . S
C2714 C2715 1.391 . S
C2715 H2703 0.950 . S
C2715 C2711 1.393 . S
C2715 C2714 1.391 . S
H2716 C2724 0.950 . S
H2717 C2729 0.950 . S
H2718 C2726 0.950 . S
H2719 C2728 0.950 . S
H2720 C2730 0.950 . S
H2721 C2732 0.950 . S
H2722 C2734 0.950 1_556 S
H2723 C2735 0.950 . S
C2724 H2716 0.950 . S
C2724 C2725 1.386 1_556 S
C2724 C2726 1.391 . S
C2725 C2724 1.386 1_554 S
C2725 C2729 1.393 . S
C2726 H2718 0.950 . S
C2726 C2724 1.391 . S
C2726 C2727 1.400 1_556 S
C2727 C2726 1.400 1_554 S
C2727 C2728 1.398 . S
C2727 C2733 1.491 . S
C2728 H2719 0.950 . S
C2728 C2727 1.398 . S
C2728 C2729 1.391 . S
C2729 H2717 0.950 . S
C2729 C2725 1.393 . S
C2729 C2728 1.391 . S
C2730 H2720 0.950 . S
C2730 C2731 1.386 . S
C2730 C2732 1.391 . S
C2731 C2730 1.386 . S
C2731 C2735 1.393 . S
C2732 H2721 0.950 . S
C2732 C2730 1.391 . S
C2732 C2733 1.400 . S
C2733 C2727 1.491 . S
C2733 C2732 1.400 . S
C2733 C2734 1.398 . S
C2734 H2722 0.950 1_554 S
C2734 C2733 1.398 . S
C2734 C2735 1.391 . S
C2735 H2723 0.950 . S
C2735 C2731 1.393 . S
C2735 C2734 1.391 . S
H2736 C2744 0.950 . S
H2737 C2749 0.950 . S
H2738 C2746 0.950 . S
H2739 C2748 0.950 . S
H2740 C2750 0.950 . S
H2741 C2752 0.950 . S
H2742 C2754 0.950 . S
H2743 C2755 0.950 . S
C2744 H2736 0.950 . S
C2744 C2745 1.386 . S
C2744 C2746 1.391 . S
C2745 C2744 1.386 . S
C2745 C2749 1.393 . S
C2746 H2738 0.950 . S
C2746 C2744 1.391 . S
C2746 C2747 1.400 . S
C2747 C2746 1.400 . S
C2747 C2748 1.398 . S
C2747 C2753 1.491 . S
C2748 H2739 0.950 . S
C2748 C2747 1.398 . S
C2748 C2749 1.391 . S
C2749 H2737 0.950 . S
C2749 C2745 1.393 . S
C2749 C2748 1.391 . S
C2750 H2740 0.950 . S
C2750 C2751 1.386 . S
C2750 C2752 1.391 . S
C2751 C2750 1.386 . S
C2751 C2755 1.393 . S
C2752 H2741 0.950 . S
C2752 C2750 1.391 . S
C2752 C2753 1.400 . S
C2753 C2747 1.491 . S
C2753 C2752 1.400 . S
C2753 C2754 1.398 . S
C2754 H2742 0.950 . S
C2754 C2753 1.398 . S
C2754 C2755 1.391 . S
C2755 H2743 0.950 . S
C2755 C2751 1.393 . S
C2755 C2754 1.391 . S
H2756 C2764 0.950 . S
H2757 C2769 0.950 . S
H2758 C2766 0.950 . S
H2759 C2768 0.950 . S
H2760 C2770 0.950 . S
H2761 C2772 0.950 . S
H2762 C2774 0.950 . S
H2763 C2775 0.950 . S
C2764 H2756 0.950 . S
C2764 C2765 1.386 . S
C2764 C2766 1.391 . S
C2765 C2764 1.386 . S
C2765 C2769 1.393 . S
C2766 H2758 0.950 . S
C2766 C2764 1.391 . S
C2766 C2767 1.400 . S
C2767 C2766 1.400 . S
C2767 C2768 1.398 . S
C2767 C2773 1.491 . S
C2768 H2759 0.950 . S
C2768 C2767 1.398 . S
C2768 C2769 1.391 . S
C2769 H2757 0.950 . S
C2769 C2765 1.393 . S
C2769 C2768 1.391 . S
C2770 H2760 0.950 . S
C2770 C2771 1.386 . S
C2770 C2772 1.391 . S
C2771 C2770 1.386 . S
C2771 C2775 1.393 . S
C2772 H2761 0.950 . S
C2772 C2770 1.391 . S
C2772 C2773 1.400 . S
C2773 C2767 1.491 . S
C2773 C2772 1.400 . S
C2773 C2774 1.398 . S
C2774 H2762 0.950 . S
C2774 C2773 1.398 . S
C2774 C2775 1.391 . S
C2775 H2763 0.950 . S
C2775 C2771 1.393 . S
C2775 C2774 1.391 . S
C871 C329 0.950 . S
C865 C10 0.942 . S
C885 C13 1.701 . S
C891 C375 1.741 . S
C905 C34 0.870 . S
C911 C384 0.868 . S
C931 C422 1.545 . S
C925 C44 1.554 . S
C945 C21 1.518 . S
C951 C456 1.533 . S
C971 C486 0.712 . S
C965 C26 0.705 . S
C991 C545 1.548 1_556 S
C985 C49 1.553 . S
C1005 C5 0.876 . S
C1011 C558 0.872 . S
C1025 C62 1.228 . S
C1031 C341 1.207 . S
C1045 C73 1.050 . S
C1051 C359 1.088 . S
C1071 C380 1.521 . S
C1065 C88 1.534 . S
C1091 C418 0.749 . S
C1085 C99 0.760 . S
C1105 C60 1.155 . S
C1111 C452 1.183 . S
C1131 C482 1.454 . S
C1125 C75 1.459 . S
C1151 C529 1.131 . S
C1145 C86 1.102 . S
C1171 C554 0.593 . S
C1165 C101 0.608 . S
C1191 C325 0.612 1_556 S
C1185 C96 0.667 . S
C1211 C584 1.525 . S
C1205 C104 1.487 . S
C1225 C122 1.273 . S
C1231 C626 1.286 . S
C1251 C669 0.442 . S
C1245 C130 0.516 . S
C1265 C57 1.203 . S
C1271 C550 1.194 . S
C1291 C388 1.402 . S
C1285 C70 1.380 . S
C1305 C117 1.168 . S
C1311 C686 1.192 . S
C1331 C737 1.413 . S
C1325 C143 1.390 . S
C1345 C164 1.035 1_455 S
C1351 C320 1.007 . S
C1371 C720 1.821 . S
C1365 C169 1.804 . S
C1385 C192 0.898 . S
C1391 C393 0.883 . S
C1405 C200 1.648 . S
C1411 C703 1.661 . S
C1431 C465 1.616 . S
C1425 C179 1.629 . S
C1451 C631 0.763 . S
C1445 C182 0.759 . S
C1471 C516 1.652 . S
C1465 C203 1.642 . S
C1491 C771 0.948 . S
C1485 C161 0.915 . S
C1511 C312 1.308 . S
C1505 C216 1.311 . S
C1525 C231 1.138 . S
C1531 C724 1.127 . S
C1551 C409 1.626 1_565 S
C1545 C242 1.629 . S
C1565 C257 0.763 . S
C1571 C699 0.757 . S
C1585 C218 1.270 . S
C1591 C461 1.256 . S
C1605 C229 1.556 . S
C1611 C647 1.535 . S
C1631 C520 1.199 . S
C1625 C244 1.208 . S
C1645 C255 0.651 . S
C1651 C767 0.662 . S
C1665 C252 0.702 . S
C1671 C316 0.669 . S
C1685 C260 1.518 . S
C1691 C613 1.593 . S
C1705 C278 1.312 . S
C1711 C499 1.348 . S
C1725 C286 0.543 . S
C1731 C660 0.468 . S
C1751 C783 1.266 . S
C1745 C213 1.240 . S
C1771 C397 1.499 . S
C1765 C226 1.432 . S
C1791 C443 1.258 . S
C1785 C273 1.227 . S
C1811 C354 1.485 . S
C1805 C299 1.434 . S
C1825 C36 0.935 . S
C1831 C805 0.929 . S
C1851 C749 1.731 . S
C1845 C39 1.683 . S
C1871 C826 0.871 . S
C1865 C8 0.860 . S
C1885 C18 1.538 . S
C1891 C694 1.557 . S
C1905 C47 1.499 . S
C1911 C592 1.520 1_556 S
C1931 C622 0.722 . S
C1925 C0 0.726 . S
C1951 C681 1.556 . S
C1945 C23 1.558 . S
C1971 C762 0.864 . S
C1965 C31 0.845 . S
C1991 C817 1.215 . S
C1985 C153 1.235 . S
C2005 C112 1.041 . S
C2011 C733 1.070 . S
C2025 C127 1.530 . S
C2031 C822 1.519 1_655 S
C2051 C690 0.739 . S
C2045 C138 0.747 . S
C2071 C588 1.188 . S
C2065 C151 1.162 . S
C2085 C114 1.454 . S
C2091 C618 1.448 . S
C2111 C665 1.154 . S
C2105 C125 1.129 . S
C2125 C140 0.620 . S
C2131 C758 0.616 . S
C2151 C801 0.623 . S
C2145 C135 0.602 . S
C2171 C448 1.523 . S
C2165 C65 1.472 . S
C2191 C490 1.270 . S
C2185 C83 1.258 . S
C2205 C91 0.444 . S
C2211 C533 0.389 . S
C2231 C754 1.173 . S
C2225 C148 1.198 . S
C2245 C109 1.385 . S
C2251 C830 1.400 . S
C2271 C414 1.199 . S
C2265 C78 1.173 . S
C2291 C363 1.409 . S
C2285 C52 1.392 . S
C2305 C190 1.029 . S
C2311 C796 1.021 . S
C2331 C346 1.819 . S
C2325 C195 1.806 . S
C2351 C835 0.883 . S
C2345 C166 0.892 . S
C2365 C174 1.646 . S
C2371 C431 1.649 . S
C2385 C205 1.629 . S
C2391 C601 1.614 . S
C2405 C156 0.744 . S
C2411 C495 0.742 . S
C2425 C177 1.639 . S
C2431 C652 1.653 . S
C2445 C187 0.945 . S
C2451 C567 0.963 . S
C2471 C788 1.299 . S
C2465 C307 1.322 . S
C2485 C270 1.145 . S
C2491 C350 1.135 . S
C2511 C851 1.633 . S
C2505 C281 1.629 . S
C2525 C296 0.800 . S
C2531 C427 0.805 . S
C2545 C309 1.262 . S
C2551 C597 1.240 . S
C2571 C511 1.543 . S
C2565 C268 1.556 . S
C2585 C283 1.199 . S
C2591 C656 1.182 . S
C2611 C563 0.666 . S
C2605 C294 0.647 . S
C2631 C792 0.661 . S
C2625 C291 0.648 . S
C2651 C477 1.594 . S
C2645 C221 1.525 . S
C2665 C239 1.326 . S
C2671 C635 1.352 . S
C2691 C524 0.484 . S
C2685 C247 0.478 . S
C2711 C579 1.268 . S
C2705 C304 1.258 . S
C2725 C265 1.440 . S
C2731 C839 1.484 . S
C2751 C715 1.260 . S
C2745 C234 1.215 . S
C2771 C728 1.484 . S
C2765 C208 1.430 . S
