# Generated by pormake.
# Topology ocu, (6,8)-cn, num edge types: 1
# Building blocks:
#     Node 0, Type 0, BuildingBlock: BETDEL_clean_sbu_0, # of connection points: 6
#     Node 1, Type 0, BuildingBlock: BETDEL_clean_sbu_0, # of connection points: 6
#     Node 2, Type 0, BuildingBlock: BETDEL_clean_sbu_0, # of connection points: 6
#     Node 3, Type 0, BuildingBlock: BETDEL_clean_sbu_0, # of connection points: 6
#     Node 4, Type 0, BuildingBlock: BETDEL_clean_sbu_0, # of connection points: 6
#     Node 5, Type 0, BuildingBlock: BETDEL_clean_sbu_0, # of connection points: 6
#     Node 6, Type 0, BuildingBlock: BETDEL_clean_sbu_0, # of connection points: 6
#     Node 7, Type 0, BuildingBlock: BETDEL_clean_sbu_0, # of connection points: 6
#     Node 8, Type 1, BuildingBlock: TAGTUT_clean_sbu_1, # of connection points: 8
#     Node 9, Type 1, BuildingBlock: TAGTUT_clean_sbu_1, # of connection points: 8
#     Node 10, Type 1, BuildingBlock: TAGTUT_clean_sbu_1, # of connection points: 8
#     Node 11, Type 1, BuildingBlock: TAGTUT_clean_sbu_1, # of connection points: 8
#     Node 12, Type 1, BuildingBlock: TAGTUT_clean_sbu_1, # of connection points: 8
#     Node 13, Type 1, BuildingBlock: TAGTUT_clean_sbu_1, # of connection points: 8
#     Edge 14, Type (0, 1), BuildingBlock: OJICUG_clean_linker_0, # of connection points: 2
#     Edge 15, Type (0, 1), BuildingBlock: OJICUG_clean_linker_0, # of connection points: 2
#     Edge 16, Type (0, 1), BuildingBlock: OJICUG_clean_linker_0, # of connection points: 2
#     Edge 17, Type (0, 1), BuildingBlock: OJICUG_clean_linker_0, # of connection points: 2
#     Edge 18, Type (0, 1), BuildingBlock: OJICUG_clean_linker_0, # of connection points: 2
#     Edge 19, Type (0, 1), BuildingBlock: OJICUG_clean_linker_0, # of connection points: 2
#     Edge 20, Type (0, 1), BuildingBlock: OJICUG_clean_linker_0, # of connection points: 2
#     Edge 21, Type (0, 1), BuildingBlock: OJICUG_clean_linker_0, # of connection points: 2
#     Edge 22, Type (0, 1), BuildingBlock: OJICUG_clean_linker_0, # of connection points: 2
#     Edge 23, Type (0, 1), BuildingBlock: OJICUG_clean_linker_0, # of connection points: 2
#     Edge 24, Type (0, 1), BuildingBlock: OJICUG_clean_linker_0, # of connection points: 2
#     Edge 25, Type (0, 1), BuildingBlock: OJICUG_clean_linker_0, # of connection points: 2
#     Edge 26, Type (0, 1), BuildingBlock: OJICUG_clean_linker_0, # of connection points: 2
#     Edge 27, Type (0, 1), BuildingBlock: OJICUG_clean_linker_0, # of connection points: 2
#     Edge 28, Type (0, 1), BuildingBlock: OJICUG_clean_linker_0, # of connection points: 2
#     Edge 29, Type (0, 1), BuildingBlock: OJICUG_clean_linker_0, # of connection points: 2
#     Edge 30, Type (0, 1), BuildingBlock: OJICUG_clean_linker_0, # of connection points: 2
#     Edge 31, Type (0, 1), BuildingBlock: OJICUG_clean_linker_0, # of connection points: 2
#     Edge 32, Type (0, 1), BuildingBlock: OJICUG_clean_linker_0, # of connection points: 2
#     Edge 33, Type (0, 1), BuildingBlock: OJICUG_clean_linker_0, # of connection points: 2
#     Edge 34, Type (0, 1), BuildingBlock: OJICUG_clean_linker_0, # of connection points: 2
#     Edge 35, Type (0, 1), BuildingBlock: OJICUG_clean_linker_0, # of connection points: 2
#     Edge 36, Type (0, 1), BuildingBlock: OJICUG_clean_linker_0, # of connection points: 2
#     Edge 37, Type (0, 1), BuildingBlock: OJICUG_clean_linker_0, # of connection points: 2
#     Edge 38, Type (0, 1), BuildingBlock: OJICUG_clean_linker_0, # of connection points: 2
#     Edge 39, Type (0, 1), BuildingBlock: OJICUG_clean_linker_0, # of connection points: 2
#     Edge 40, Type (0, 1), BuildingBlock: OJICUG_clean_linker_0, # of connection points: 2
#     Edge 41, Type (0, 1), BuildingBlock: OJICUG_clean_linker_0, # of connection points: 2
#     Edge 42, Type (0, 1), BuildingBlock: OJICUG_clean_linker_0, # of connection points: 2
#     Edge 43, Type (0, 1), BuildingBlock: OJICUG_clean_linker_0, # of connection points: 2
#     Edge 44, Type (0, 1), BuildingBlock: OJICUG_clean_linker_0, # of connection points: 2
#     Edge 45, Type (0, 1), BuildingBlock: OJICUG_clean_linker_0, # of connection points: 2
#     Edge 46, Type (0, 1), BuildingBlock: OJICUG_clean_linker_0, # of connection points: 2
#     Edge 47, Type (0, 1), BuildingBlock: OJICUG_clean_linker_0, # of connection points: 2
#     Edge 48, Type (0, 1), BuildingBlock: OJICUG_clean_linker_0, # of connection points: 2
#     Edge 49, Type (0, 1), BuildingBlock: OJICUG_clean_linker_0, # of connection points: 2
#     Edge 50, Type (0, 1), BuildingBlock: OJICUG_clean_linker_0, # of connection points: 2
#     Edge 51, Type (0, 1), BuildingBlock: OJICUG_clean_linker_0, # of connection points: 2
#     Edge 52, Type (0, 1), BuildingBlock: OJICUG_clean_linker_0, # of connection points: 2
#     Edge 53, Type (0, 1), BuildingBlock: OJICUG_clean_linker_0, # of connection points: 2
#     Edge 54, Type (0, 1), BuildingBlock: OJICUG_clean_linker_0, # of connection points: 2
#     Edge 55, Type (0, 1), BuildingBlock: OJICUG_clean_linker_0, # of connection points: 2
#     Edge 56, Type (0, 1), BuildingBlock: OJICUG_clean_linker_0, # of connection points: 2
#     Edge 57, Type (0, 1), BuildingBlock: OJICUG_clean_linker_0, # of connection points: 2
#     Edge 58, Type (0, 1), BuildingBlock: OJICUG_clean_linker_0, # of connection points: 2
#     Edge 59, Type (0, 1), BuildingBlock: OJICUG_clean_linker_0, # of connection points: 2
#     Edge 60, Type (0, 1), BuildingBlock: OJICUG_clean_linker_0, # of connection points: 2
#     Edge 61, Type (0, 1), BuildingBlock: OJICUG_clean_linker_0, # of connection points: 2
# Relax obj value: 0.091
# Max RMSD: 0.261
# Mean RMSD: 0.143
data_MOF--net-ocu--node1-BETDEL_clean_sbu_0--node2-TAGTUT_clean_sbu_1--edge1-OJICUG_clean_linker_0
_symmetry_space_group_name_H-M    P1
_symmetry_Int_Tables_number       1
_symmetry_cell_setting            triclinic
loop_
_symmetry_equiv_pos_as_xyz
'x, y, z'
_cell_length_a     28.827076
_cell_length_b     27.923633
_cell_length_c     29.825239
_cell_angle_alpha  91.500507
_cell_angle_beta   92.98777
_cell_angle_gamma 109.70116
loop_
_atom_site_label
_atom_site_type_symbol
_atom_site_fract_x
_atom_site_fract_y
_atom_site_fract_z
_atom_type_partial_charge
Dy0 Dy 0.30674 0.25005 0.26479 0.0
C1 C 0.16162 0.29774 0.15687 0.0
C2 C 0.36133 0.20044 0.30482 0.0
Dy3 Dy 0.21701 0.24899 0.19694 0.0
O4 O 0.37142 0.24959 0.30955 0.0
O5 O 0.31932 0.17874 0.28242 0.0
O6 O 0.367 0.31424 0.23552 0.0
O7 O 0.29554 0.29039 0.20686 0.0
C8 C 0.33915 0.31958 0.20162 0.0
C9 C 0.18467 0.17949 0.26016 0.0
O10 O 0.25364 0.20979 0.14998 0.0
O11 O 0.31179 0.20179 0.20431 0.0
O12 O 0.15201 0.24866 0.15224 0.0
O13 O 0.20365 0.31987 0.17913 0.0
O14 O 0.1568 0.18476 0.22627 0.0
O15 O 0.22822 0.20877 0.2549 0.0
O16 O 0.27012 0.28932 0.31172 0.0
O17 O 0.21215 0.29751 0.2573 0.0
C18 C 0.29091 0.19392 0.16267 0.0
C19 C 0.23293 0.30529 0.29898 0.0
Dy20 Dy 0.80564 0.23018 0.23776 0.0
C21 C 0.64066 0.29911 0.19411 0.0
C22 C 0.88108 0.20025 0.26992 0.0
Dy23 Dy 0.71568 0.26868 0.22665 0.0
O24 O 0.84258 0.17175 0.24552 0.0
O25 O 0.87845 0.24539 0.27667 0.0
O26 O 0.79749 0.20468 0.16471 0.0
O27 O 0.73569 0.20636 0.19835 0.0
C28 C 0.7513 0.20104 0.16049 0.0
C29 C 0.77048 0.29793 0.30377 0.0
O30 O 0.67934 0.1965 0.25955 0.0
O31 O 0.75219 0.18478 0.28564 0.0
O32 O 0.6792 0.32746 0.21855 0.0
O33 O 0.64294 0.25379 0.18767 0.0
O34 O 0.72428 0.29436 0.29981 0.0
O35 O 0.78563 0.29251 0.26577 0.0
O36 O 0.84194 0.30237 0.20492 0.0
O37 O 0.76907 0.31391 0.17866 0.0
C38 C 0.7035 0.17304 0.28459 0.0
C39 C 0.81777 0.3257 0.17976 0.0
Dy40 Dy 0.72214 0.73631 0.26764 0.0
C41 C 0.84102 0.73575 0.12338 0.0
C42 C 0.68221 0.76335 0.33956 0.0
Dy43 Dy 0.80177 0.76328 0.19544 0.0
O44 O 0.66662 0.71747 0.32076 0.0
O45 O 0.71746 0.79366 0.31808 0.0
O46 O 0.68522 0.65787 0.23501 0.0
O47 O 0.72487 0.72019 0.19823 0.0
C48 C 0.70426 0.67277 0.19673 0.0
C49 C 0.81941 0.8269 0.26628 0.0
O50 O 0.75094 0.80259 0.16557 0.0
O51 O 0.69393 0.78667 0.22117 0.0
O52 O 0.8568 0.78177 0.14191 0.0
O53 O 0.80608 0.70557 0.14526 0.0
O54 O 0.83855 0.8418 0.22803 0.0
O55 O 0.79897 0.77947 0.26473 0.0
O56 O 0.77314 0.69708 0.29748 0.0
O57 O 0.83021 0.71316 0.24193 0.0
C58 C 0.71109 0.80799 0.18286 0.0
C59 C 0.81307 0.6918 0.28022 0.0
Dy60 Dy 0.28857 0.71046 0.23359 0.0
C61 C 0.19236 0.85369 0.26223 0.0
C62 C 0.33037 0.64509 0.20038 0.0
Dy63 Dy 0.23423 0.7886 0.22852 0.0
O64 O 0.35318 0.68432 0.22737 0.0
O65 O 0.28387 0.63944 0.19557 0.0
O66 O 0.30269 0.72554 0.30848 0.0
O67 O 0.2977 0.78275 0.26613 0.0
C68 C 0.30039 0.77139 0.30633 0.0
C69 C 0.22225 0.72726 0.15591 0.0
O70 O 0.30445 0.83604 0.20301 0.0
O71 O 0.33281 0.76904 0.18762 0.0
O72 O 0.16945 0.81434 0.23539 0.0
O73 O 0.23896 0.8597 0.26647 0.0
O74 O 0.21988 0.77309 0.15358 0.0
O75 O 0.22504 0.71632 0.19618 0.0
O76 O 0.21835 0.66299 0.25897 0.0
O77 O 0.19016 0.73003 0.27461 0.0
C78 C 0.33635 0.81751 0.18544 0.0
C79 C 0.18658 0.68154 0.27671 0.0
Dy80 Dy 0.30389 0.7314 0.73906 0.0
C81 C 0.14264 0.8067 0.69825 0.0
C82 C 0.37786 0.69825 0.76974 0.0
Dy83 Dy 0.21659 0.77391 0.72977 0.0
O84 O 0.33823 0.6707 0.74622 0.0
O85 O 0.3772 0.74416 0.77628 0.0
O86 O 0.29025 0.70391 0.66597 0.0
O87 O 0.23205 0.70795 0.70343 0.0
C88 C 0.24372 0.69925 0.66476 0.0
C89 C 0.27351 0.80297 0.80557 0.0
O90 O 0.17925 0.70302 0.76386 0.0
O91 O 0.25151 0.68944 0.78909 0.0
O92 O 0.18193 0.83441 0.72214 0.0
O93 O 0.14373 0.76098 0.69182 0.0
O94 O 0.22777 0.8011 0.80245 0.0
O95 O 0.28748 0.7961 0.76729 0.0
O96 O 0.34147 0.80194 0.70507 0.0
O97 O 0.26943 0.81575 0.67983 0.0
C98 C 0.20301 0.67903 0.78871 0.0
C99 C 0.31789 0.82594 0.68017 0.0
Dy100 Dy 0.22155 0.23607 0.76796 0.0
C101 C 0.34199 0.2338 0.62436 0.0
C102 C 0.18091 0.26474 0.83882 0.0
Dy103 Dy 0.30191 0.26294 0.69531 0.0
O104 O 0.16639 0.21818 0.82152 0.0
O105 O 0.21558 0.29472 0.8165 0.0
O106 O 0.18478 0.15752 0.73531 0.0
O107 O 0.22529 0.21975 0.69895 0.0
C108 C 0.20473 0.1724 0.69736 0.0
C109 C 0.31853 0.32679 0.76579 0.0
O110 O 0.25008 0.30095 0.66475 0.0
O111 O 0.19298 0.28525 0.72037 0.0
O112 O 0.35654 0.28052 0.6413 0.0
O113 O 0.3077 0.20395 0.64712 0.0
O114 O 0.33852 0.34159 0.72783 0.0
O115 O 0.29814 0.2794 0.76425 0.0
O116 O 0.27331 0.19791 0.79843 0.0
O117 O 0.3305 0.21381 0.74287 0.0
C118 C 0.20996 0.30612 0.68183 0.0
C119 C 0.31347 0.1928 0.78135 0.0
Dy120 Dy 0.78835 0.21011 0.73407 0.0
C121 C 0.69207 0.35402 0.76082 0.0
C122 C 0.83056 0.14496 0.70103 0.0
Dy123 Dy 0.73421 0.28879 0.72779 0.0
O124 O 0.85307 0.18402 0.72832 0.0
O125 O 0.78405 0.13922 0.69598 0.0
O126 O 0.80223 0.22611 0.80893 0.0
O127 O 0.79732 0.28272 0.76582 0.0
C128 C 0.79985 0.2719 0.80617 0.0
C129 C 0.72268 0.22673 0.65577 0.0
O130 O 0.80476 0.33572 0.7027 0.0
O131 O 0.83272 0.26826 0.68795 0.0
O132 O 0.66946 0.3148 0.73373 0.0
O133 O 0.73862 0.35986 0.76563 0.0
O134 O 0.72026 0.27249 0.65287 0.0
O135 O 0.72523 0.21623 0.69619 0.0
O136 O 0.71778 0.16315 0.75907 0.0
O137 O 0.68992 0.23065 0.77399 0.0
C138 C 0.83651 0.31676 0.68546 0.0
C139 C 0.68609 0.18212 0.77641 0.0
Dy140 Dy 0.80447 0.75247 0.7594 0.0
C141 C 0.65832 0.79064 0.66405 0.0
C142 C 0.86496 0.70767 0.7981 0.0
Dy143 Dy 0.71979 0.74685 0.70261 0.0
O144 O 0.87649 0.75683 0.79571 0.0
O145 O 0.81965 0.6845 0.7834 0.0
O146 O 0.84978 0.83006 0.73818 0.0
O147 O 0.79853 0.77934 0.69161 0.0
C148 C 0.82936 0.82406 0.69751 0.0
C149 C 0.69522 0.67536 0.76476 0.0
O150 O 0.75 0.70453 0.65177 0.0
O151 O 0.80579 0.69459 0.70531 0.0
O152 O 0.64732 0.74156 0.66665 0.0
O153 O 0.70366 0.81428 0.67843 0.0
O154 O 0.67493 0.6691 0.72404 0.0
O155 O 0.72572 0.72023 0.77048 0.0
O156 O 0.77435 0.79505 0.81009 0.0
O157 O 0.71891 0.80525 0.75636 0.0
C158 C 0.78474 0.6851 0.66402 0.0
C159 C 0.73981 0.81469 0.7977 0.0
C160 C 0.91823 0.11261 0.54123 0.0
C161 C 0.96926 0.11475 0.40296 0.0
C162 C 0.92347 0.91606 0.42459 0.0
Mg163 Mg 0.01499 0.11925 0.49779 0.0
O164 O 0.98198 0.04923 0.50219 0.0
Mg165 Mg 0.91554 0.01742 0.4701 0.0
Mg166 Mg 0.01341 0.00143 0.48119 0.0
O167 O 0.04481 0.95348 0.46026 0.0
Mg168 Mg 0.01155 0.88381 0.46658 0.0
Mg169 Mg 0.11134 0.98554 0.49229 0.0
C170 C 0.10312 0.08644 0.53825 0.0
C171 C 0.10204 0.06246 0.41468 0.0
O172 O 0.89422 0.0735 0.51546 0.0
O173 O 0.96448 0.13677 0.53905 0.0
O174 O 0.93599 0.07406 0.41386 0.0
O175 O 1.00604 0.139 0.4298 0.0
O176 O 0.086 0.12204 0.52827 0.0
O177 O 0.07932 0.03959 0.52823 0.0
C178 C 0.92474 0.9402 0.54739 0.0
O179 O 0.96997 0.94897 0.53799 0.0
O180 O 0.89758 0.96076 0.52564 0.0
O181 O 0.13224 0.92855 0.44786 0.0
O182 O 0.06176 0.86463 0.42605 0.0
O183 O 0.09124 0.93043 0.54951 0.0
C184 C 0.10792 0.88865 0.42312 0.0
O185 O 0.02041 0.86614 0.53531 0.0
O186 O 0.94057 0.88075 0.43569 0.0
C187 C 0.05767 0.89065 0.56154 0.0
O188 O 0.94736 0.96317 0.43374 0.0
O189 O 0.05706 0.05404 0.42483 0.0
O190 O 0.12922 0.04147 0.43588 0.0
C191 C 0.39383 0.10275 0.04 0.0
C192 C 0.42121 0.09598 0.90138 0.0
C193 C 0.43114 0.8993 0.93722 0.0
Mg194 Mg 0.49023 0.11429 -0.0101 0.0
O195 O 0.47221 0.04457 -0.00066 0.0
Mg196 Mg 0.40363 0.00138 0.97787 0.0
Mg197 Mg 0.51379 0.0013 -0.0174 0.0
O198 O 0.55557 0.95832 0.96551 0.0
Mg199 Mg 0.53833 0.88824 0.97223 0.0
Mg200 Mg 0.62416 0.00178 -0.01329 0.0
C201 C 0.59692 0.10361 0.02648 0.0
C202 C 0.58327 0.05776 0.90662 0.0
O203 O 0.37363 0.05778 0.02095 0.0
O204 O 0.43902 0.12948 0.03469 0.0
O205 O 0.39881 0.05145 0.9156 0.0
O206 O 0.46118 0.12557 0.92212 0.0
O207 O 0.56816 0.12902 0.01538 0.0
O208 O 0.58316 0.05455 0.02134 0.0
C209 C 0.44361 0.94503 0.05848 0.0
O210 O 0.48656 0.95577 0.04367 0.0
O211 O 0.40922 0.95801 0.0393 0.0
O212 O 0.65539 0.94687 0.94303 0.0
O213 O 0.59048 0.87539 0.92673 0.0
O214 O 0.62848 0.95097 0.04851 0.0
C215 C 0.6358 0.90263 0.92256 0.0
O216 O 0.56687 0.87624 0.03995 0.0
O217 O 0.46024 0.87384 0.94698 0.0
C218 C 0.60606 0.90594 0.06177 0.0
O219 O 0.44467 0.94818 0.94381 0.0
O220 O 0.54046 0.04651 0.92168 0.0
O221 O 0.61817 0.04537 0.92552 0.0
C222 C 0.92435 0.63825 -0.00214 0.0
C223 C 0.97138 0.59702 0.87697 0.0
C224 C 0.91416 0.40518 0.93991 0.0
Mg225 Mg 0.01746 0.61805 0.97036 0.0
O226 O 0.981 0.55416 -0.00983 0.0
Mg227 Mg 0.91472 0.52049 0.95853 0.0
Mg228 Mg 1.00936 0.49977 0.98147 0.0
O229 O 0.03771 0.44538 0.97261 0.0
Mg230 Mg 1.00164 0.38115 -0.00798 0.0
Mg231 Mg 0.10407 0.47918 0.004 0.0
C232 C 0.10476 0.59439 0.02283 0.0
C233 C 0.09708 0.53797 0.91402 0.0
O234 O 0.89879 0.59179 -0.01435 0.0
O235 O 0.97124 0.65658 -0.00453 0.0
O236 O 0.93623 0.5624 0.89383 0.0
O237 O 0.01176 0.61984 0.89964 0.0
O238 O 0.0875 0.6256 0.00306 0.0
O239 O 0.07904 0.54685 0.02535 0.0
C240 C 0.92151 0.46164 0.04917 0.0
O241 O 0.96552 0.4639 0.04127 0.0
O242 O 0.89629 0.4806 0.02308 0.0
O243 O 0.12037 0.40819 0.97644 0.0
O244 O 0.04829 0.34303 0.96628 0.0
O245 O 0.08272 0.43785 0.06834 0.0
C246 C 0.09516 0.36179 0.96377 0.0
O247 O 1.00738 0.38016 0.06291 0.0
O248 O 0.9315 0.37386 0.95942 0.0
C249 C 0.04774 0.40343 0.08547 0.0
O250 O 0.93989 0.45273 0.93758 0.0
O251 O 0.05307 0.5357 0.92185 0.0
O252 O 0.12222 0.51884 0.93994 0.0
C253 C 0.41598 0.61048 0.04025 0.0
C254 C 0.4657 0.61084 0.90193 0.0
C255 C 0.4208 0.41375 0.92416 0.0
Mg256 Mg 0.51237 0.61615 -0.0035 0.0
O257 O 0.47927 0.54638 0.00209 0.0
Mg258 Mg 0.41267 0.51446 0.97017 0.0
Mg259 Mg 0.51076 0.49856 0.9811 0.0
O260 O 0.54209 0.45069 0.96007 0.0
Mg261 Mg 0.50884 0.38072 0.96466 0.0
Mg262 Mg 0.6085 0.48227 -0.00776 0.0
C263 C 0.60056 0.58373 0.03809 0.0
C264 C 0.59955 0.55974 0.91502 0.0
O265 O 0.39169 0.57092 0.01511 0.0
O266 O 0.46217 0.63453 0.03755 0.0
O267 O 0.43244 0.57051 0.91348 0.0
O268 O 0.503 0.63504 0.92824 0.0
O269 O 0.58336 0.61901 0.02714 0.0
O270 O 0.57683 0.5366 0.02876 0.0
C271 C 0.42202 0.4371 0.04739 0.0
O272 O 0.46705 0.44573 0.03734 0.0
O273 O 0.39482 0.45806 0.02621 0.0
O274 O 0.62956 0.42606 0.94676 0.0
O275 O 0.55914 0.36288 0.92338 0.0
O276 O 0.58797 0.42563 0.04852 0.0
C277 C 0.60539 0.38692 0.92107 0.0
O278 O 0.51774 0.36092 0.03266 0.0
O279 O 0.43782 0.37811 0.93427 0.0
C280 C 0.5546 0.38503 0.05946 0.0
O281 O 0.44482 0.46061 0.93393 0.0
O282 O 0.55434 0.55112 0.92442 0.0
O283 O 0.6266 0.53902 0.93674 0.0
C284 C 0.88877 0.59698 0.53928 0.0
C285 C 0.91871 0.59342 0.40041 0.0
C286 C 0.92708 0.39561 0.43576 0.0
Mg287 Mg 0.98646 0.61084 0.48984 0.0
O288 O 0.96878 0.54077 0.49702 0.0
Mg289 Mg 0.90016 0.49753 0.47554 0.0
Mg290 Mg 1.01046 0.4976 0.48005 0.0
O291 O 0.05184 0.45421 0.46319 0.0
Mg292 Mg 0.03362 0.38436 0.47218 0.0
Mg293 Mg 0.12042 0.49722 0.48478 0.0
C294 C 0.09289 0.59894 0.52634 0.0
C295 C 0.08081 0.55422 0.40453 0.0
O296 O 0.86908 0.55262 0.51907 0.0
O297 O 0.9341 0.6241 0.53494 0.0
O298 O 0.89613 0.5485 0.4138 0.0
O299 O 0.95816 0.62293 0.42201 0.0
O300 O 0.06401 0.62462 0.51658 0.0
O301 O 0.07959 0.55015 0.51955 0.0
C302 C 0.94044 0.44112 0.55569 0.0
O303 O 0.9833 0.45212 0.54076 0.0
O304 O 0.90577 0.45381 0.5367 0.0
O305 O 0.15033 0.44101 0.44134 0.0
O306 O 0.08489 0.36943 0.42725 0.0
O307 O 0.12496 0.44679 0.54676 0.0
C308 C 0.13011 0.39617 0.42205 0.0
O309 O 0.06254 0.37271 0.53998 0.0
O310 O 0.95566 0.36993 0.44668 0.0
C311 C 0.10246 0.40223 0.56086 0.0
O312 O 0.94117 0.44467 0.44112 0.0
O313 O 0.03786 0.54337 0.4193 0.0
O314 O 0.11516 0.54111 0.4236 0.0
C315 C 0.42591 0.13576 0.49877 0.0
C316 C 0.47319 0.0931 0.37749 0.0
C317 C 0.41626 0.90289 0.44074 0.0
Mg318 Mg 0.51928 0.11591 0.47089 0.0
O319 O 0.48317 0.05201 0.49082 0.0
Mg320 Mg 0.41682 0.01804 0.45934 0.0
Mg321 Mg 0.51162 0.99762 0.4822 0.0
O322 O 0.53994 0.94321 0.47355 0.0
Mg323 Mg 0.50364 0.87897 0.49285 0.0
Mg324 Mg 0.60631 0.97689 0.50492 0.0
C325 C 0.60682 0.09226 0.52335 0.0
C326 C 0.5995 0.03587 0.41439 0.0
O327 O 0.40057 0.08928 0.48643 0.0
O328 O 0.47277 0.15436 0.49616 0.0
O329 O 0.43811 0.05891 0.39474 0.0
O330 O 0.5136 0.11629 0.4 0.0
O331 O 0.58935 0.12332 0.50358 0.0
O332 O 0.58124 0.04471 0.52607 0.0
C333 C 0.42377 0.96005 0.54988 0.0
O334 O 0.46772 0.96198 0.54207 0.0
O335 O 0.39869 0.97895 0.52369 0.0
O336 O 0.62237 0.90581 0.47748 0.0
O337 O 0.55008 0.84089 0.46716 0.0
O338 O 0.58488 0.93475 0.56951 0.0
C339 C 0.59698 0.85943 0.46488 0.0
O340 O 0.50958 0.8768 0.56359 0.0
O341 O 0.43346 0.87149 0.46028 0.0
C342 C 0.5499 0.89983 0.58629 0.0
O343 O 0.44208 0.95041 0.4385 0.0
O344 O 0.55543 0.03343 0.42226 0.0
O345 O 0.62474 0.01696 0.44047 0.0
C346 C 0.11331 0.13246 0.3051 0.0
C347 C 0.16476 0.1504 0.30044 0.0
H348 H 0.05326 0.09207 0.34462 0.0
C349 C 0.19546 0.14123 0.33476 0.0
H350 H 0.08845 0.13934 0.27958 0.0
C351 C 0.17505 0.11349 0.37202 0.0
C352 C 0.12344 0.09505 0.37647 0.0
H353 H 0.23513 0.15491 0.3326 0.0
H354 H 0.19989 0.10636 0.3974 0.0
C355 C 0.09298 0.10561 0.34266 0.0
C356 C 0.90674 0.12798 0.2934 0.0
C357 C 0.91524 0.18052 0.29524 0.0
H358 H 0.9183 0.06559 0.32652 0.0
C359 C 0.95079 0.21221 0.32693 0.0
H360 H 0.87992 0.10282 0.26889 0.0
C361 C 0.97334 0.19092 0.35962 0.0
C362 C 0.95985 0.13774 0.3612 0.0
H363 H 0.95823 0.25295 0.3287 0.0
H364 H 0.99743 0.21574 0.38605 0.0
C365 C 0.9287 0.10668 0.32635 0.0
C366 C 0.86265 0.90782 0.31121 0.0
C367 C 0.83377 0.85613 0.30925 0.0
H368 H 0.91323 0.9693 0.35202 0.0
C369 C 0.82414 0.82987 0.34919 0.0
H370 H 0.86995 0.92889 0.28087 0.0
C371 C 0.84808 0.8529 0.38963 0.0
C372 C 0.88248 0.90215 0.39048 0.0
H373 H 0.80185 0.78994 0.34878 0.0
H374 H 0.84408 0.83021 0.41906 0.0
C375 C 0.88675 0.93103 0.35199 0.0
C376 C 0.19779 0.90358 0.33303 0.0
C377 C 0.16853 0.86887 0.29938 0.0
H378 H 0.20242 0.93541 0.39959 0.0
C379 C 0.11981 0.83967 0.30716 0.0
H380 H 0.23587 0.92581 0.32804 0.0
C381 C 0.10112 0.84386 0.34856 0.0
C382 C 0.13058 0.87796 0.38273 0.0
H383 H 0.09683 0.81179 0.28209 0.0
H384 H 0.06329 0.82077 0.35344 0.0
C385 C 0.17903 0.90806 0.37438 0.0
C386 C 0.12064 0.88018 0.67186 0.0
C387 C 0.10954 0.82731 0.67238 0.0
H388 H 0.11187 0.94207 0.63589 0.0
C389 C 0.07244 0.79533 0.64206 0.0
H390 H 0.14873 0.90559 0.69526 0.0
C391 C 0.0509 0.81623 0.60828 0.0
C392 C 0.06684 0.86923 0.60427 0.0
H393 H 0.06298 0.75434 0.64215 0.0
H394 H 0.02549 0.79085 0.58295 0.0
C395 C 0.0996 0.90104 0.63786 0.0
C396 C 0.20228 0.1702 0.61464 0.0
C397 C 0.19141 0.14349 0.65427 0.0
H398 H 0.18361 0.17111 0.54466 0.0
C399 C 0.16208 0.09198 0.65169 0.0
H400 H 0.22499 0.21002 0.61551 0.0
C401 C 0.13855 0.06956 0.61051 0.0
C402 C 0.14386 0.09911 0.57238 0.0
H403 H 0.15383 0.0706 0.68179 0.0
H404 H 0.11153 0.03154 0.60993 0.0
C405 C 0.17887 0.14797 0.57383 0.0
C406 C 0.90421 0.15909 0.65759 0.0
C407 C 0.85514 0.13006 0.6643 0.0
H408 H 0.96184 0.17858 0.61244 0.0
C409 C 0.82648 0.096 0.62994 0.0
H410 H 0.92679 0.18644 0.68324 0.0
C411 C 0.84614 0.09216 0.5889 0.0
C412 C 0.89489 0.12227 0.58158 0.0
H413 H 0.78817 0.07388 0.63409 0.0
H414 H 0.82316 0.06539 0.56308 0.0
C415 C 0.9238 0.15555 0.61651 0.0
C416 C 0.82795 0.85231 0.61823 0.0
C417 C 0.85457 0.85367 0.65931 0.0
H418 H 0.82913 0.87843 0.55117 0.0
C419 C 0.90571 0.88139 0.6625 0.0
H420 H 0.78876 0.83096 0.61442 0.0
C421 C 0.92942 0.90735 0.62556 0.0
C422 C 0.90229 0.90731 0.58493 0.0
H423 H 0.92755 0.88264 0.69345 0.0
H424 H 0.96858 0.92882 0.62929 0.0
C425 C 0.85127 0.8793 0.58187 0.0
C426 C 0.28869 0.13461 0.09486 0.0
C427 C 0.3151 0.17053 0.12925 0.0
H428 H 0.2923 0.08366 0.04035 0.0
C429 C 0.3668 0.18352 0.13337 0.0
H430 H 0.24887 0.12354 0.09082 0.0
C431 C 0.39152 0.16166 0.10433 0.0
C432 C 0.36552 0.12494 0.07049 0.0
H433 H 0.38854 0.21122 0.15916 0.0
H434 H 0.43137 0.17324 0.10892 0.0
C435 C 0.31359 0.1115 0.06619 0.0
C436 C 0.8203 0.38708 0.12032 0.0
C437 C 0.84563 0.36485 0.14997 0.0
H438 H 0.82446 0.43526 0.06554 0.0
C439 C 0.89723 0.3789 0.14943 0.0
H440 H 0.78062 0.37758 0.12016 0.0
C441 C 0.92263 0.41262 0.11812 0.0
C442 C 0.89677 0.4323 0.08665 0.0
H443 H 0.91791 0.36304 0.17242 0.0
H444 H 0.96224 0.42237 0.11799 0.0
C445 C 0.84558 0.42041 0.08901 0.0
C446 C 0.63107 0.81854 0.15131 0.0
C447 C 0.68317 0.83604 0.15622 0.0
H448 H 0.56578 0.82584 0.11761 0.0
C449 C 0.70875 0.87906 0.13262 0.0
H450 H 0.60998 0.78529 0.16854 0.0
C451 C 0.68342 0.90336 0.10466 0.0
C452 C 0.63143 0.88465 0.09794 0.0
H453 H 0.74874 0.89374 0.13537 0.0
H454 H 0.70498 0.93557 0.08648 0.0
C455 C 0.60565 0.84189 0.12203 0.0
C456 C 0.20806 0.70245 0.0745 0.0
C457 C 0.20611 0.6882 0.11909 0.0
H458 H 0.17947 0.68068 0.00683 0.0
C459 C 0.18278 0.63677 0.12854 0.0
H460 H 0.22705 0.74154 0.06637 0.0
C461 C 0.15485 0.60194 0.09461 0.0
C462 C 0.15059 0.61845 0.05111 0.0
H463 H 0.18173 0.62465 0.16279 0.0
H464 H 0.13198 0.5644 0.10368 0.0
C465 C 0.18124 0.6674 0.04049 0.0
C466 C 0.31354 0.87309 0.86318 0.0
C467 C 0.30779 0.82452 0.84472 0.0
H468 H 0.35752 0.93546 0.90745 0.0
C469 C 0.33798 0.79823 0.86144 0.0
H470 H 0.29027 0.89384 0.85059 0.0
C471 C 0.37553 0.82126 0.89445 0.0
C472 C 0.38436 0.87167 0.91063 0.0
H473 H 0.33328 0.76028 0.8482 0.0
H474 H 0.39936 0.80037 0.90526 0.0
C475 C 0.35191 0.89677 0.89571 0.0
C476 C 0.18993 0.3299 0.89904 0.0
C477 C 0.16136 0.28329 0.87736 0.0
H478 H 0.19183 0.39077 0.94448 0.0
C479 C 0.11333 0.25841 0.88987 0.0
H480 H 0.22752 0.34933 0.89041 0.0
C481 C 0.09257 0.28237 0.92086 0.0
C482 C 0.11986 0.33127 0.93973 0.0
H483 H 0.0909 0.22222 0.87369 0.0
H484 H 0.05432 0.26389 0.92794 0.0
C485 C 0.16951 0.35356 0.93016 0.0
C486 C 0.6389 0.09576 0.79909 0.0
C487 C 0.64759 0.14834 0.80227 0.0
H488 H 0.61015 0.02503 0.83073 0.0
C489 C 0.62403 0.16827 0.83424 0.0
H490 H 0.65552 0.07918 0.77397 0.0
C491 C 0.59717 0.13678 0.86625 0.0
C492 C 0.59408 0.08566 0.86607 0.0
H493 H 0.62971 0.20865 0.83693 0.0
H494 H 0.5831 0.15329 0.89343 0.0
C495 C 0.61259 0.06466 0.83113 0.0
C496 C 0.88309 0.62733 0.80014 0.0
C497 C 0.89918 0.68032 0.80853 0.0
H498 H 0.89654 0.55814 0.81271 0.0
C499 C 0.94733 0.70575 0.82653 0.0
H500 H 0.84678 0.60701 0.78433 0.0
C501 C 0.97643 0.67766 0.84185 0.0
C502 C 0.95692 0.62399 0.84008 0.0
H503 H 0.96113 0.74682 0.83161 0.0
H504 H 0.01134 0.69793 0.86015 0.0
C505 C 0.91205 0.59936 0.81532 0.0
C506 C 0.13947 0.37597 0.15887 0.0
C507 C 0.1261 0.32373 0.14766 0.0
H508 H 0.12121 0.44337 0.15089 0.0
C509 C 0.07819 0.29675 0.12985 0.0
H510 H 0.17553 0.39722 0.1747 0.0
C511 C 0.04639 0.323 0.11766 0.0
C512 C 0.06315 0.37658 0.12176 0.0
H513 H 0.06631 0.25596 0.123 0.0
H514 H 0.01164 0.30191 0.09945 0.0
C515 C 0.10782 0.4022 0.14655 0.0
C516 C 0.19972 0.61644 0.84688 0.0
C517 C 0.17476 0.63931 0.81755 0.0
H518 H 0.19462 0.56605 0.89991 0.0
C519 C 0.12301 0.62434 0.81665 0.0
H520 H 0.23952 0.62661 0.84799 0.0
C521 C 0.09697 0.58885 0.84633 0.0
C522 C 0.12238 0.56848 0.87756 0.0
H523 H 0.10268 0.64059 0.79366 0.0
H524 H 0.05723 0.57825 0.84542 0.0
C525 C 0.17382 0.58139 0.87655 0.0
C526 C 0.31689 0.12297 0.83287 0.0
C527 C 0.34189 0.1653 0.80822 0.0
H528 H 0.3217 0.06716 0.87939 0.0
C529 C 0.39404 0.18236 0.81179 0.0
H530 H 0.2769 0.10857 0.83116 0.0
C531 C 0.42011 0.15925 0.84067 0.0
C532 C 0.39494 0.11709 0.86571 0.0
H533 H 0.41476 0.21504 0.79369 0.0
H534 H 0.46005 0.17496 0.84395 0.0
C535 C 0.34283 0.09887 0.86044 0.0
C536 C 0.81202 0.29688 0.88757 0.0
C537 C 0.81486 0.31102 0.84295 0.0
H538 H 0.83914 0.319 0.95555 0.0
C539 C 0.83796 0.3625 0.83355 0.0
H540 H 0.79313 0.25776 0.89563 0.0
C541 C 0.86496 0.39755 0.8677 0.0
C542 C 0.86854 0.38118 0.91135 0.0
H543 H 0.83966 0.37453 0.79925 0.0
H544 H 0.88783 0.43515 0.85877 0.0
C545 C 0.83788 0.33216 0.92178 0.0
C546 C 0.66517 0.83171 0.82318 0.0
C547 C 0.71586 0.8391 0.83081 0.0
H548 H 0.60103 0.84488 0.84566 0.0
C549 C 0.74093 0.86873 0.86937 0.0
H550 H 0.64414 0.80885 0.79427 0.0
C551 C 0.71583 0.8909 0.89881 0.0
C552 C 0.66481 0.88246 0.89114 0.0
H553 H 0.77985 0.87526 0.87646 0.0
H554 H 0.73605 0.91362 0.92808 0.0
C555 C 0.64012 0.85234 0.85293 0.0
C556 C 0.83034 0.67196 0.06174 0.0
C557 C 0.85976 0.71779 0.08414 0.0
H558 H 0.82739 0.61128 0.01566 0.0
C559 C 0.90796 0.74209 0.07188 0.0
H560 H 0.79256 0.65311 0.07015 0.0
C561 C 0.92816 0.71795 0.04063 0.0
C562 C 0.90013 0.66946 0.02139 0.0
H563 H 0.93098 0.77773 0.0886 0.0
H564 H 0.9666 0.73578 0.03386 0.0
C565 C 0.85025 0.64808 0.03041 0.0
C566 C 0.40008 0.83281 0.12883 0.0
C567 C 0.37521 0.85194 0.16019 0.0
H568 H 0.44347 0.84917 0.07119 0.0
C569 C 0.38367 0.90447 0.16383 0.0
H570 H 0.39462 0.7925 0.12578 0.0
C571 C 0.41141 0.93637 0.13296 0.0
C572 C 0.43155 0.91628 0.0986 0.0
H573 H 0.36604 0.92049 0.18848 0.0
H574 H 0.41378 0.97598 0.1337 0.0
C575 C 0.42832 0.86509 0.09796 0.0
C576 C 0.71337 0.13093 0.1024 0.0
C577 C 0.71846 0.17948 0.12046 0.0
H578 H 0.6705 0.06821 0.05792 0.0
C579 C 0.68839 0.20546 0.10284 0.0
H580 H 0.73649 0.11039 0.11577 0.0
C581 C 0.65159 0.18213 0.06927 0.0
C582 C 0.64332 0.13169 0.05349 0.0
H583 H 0.69241 0.24328 0.11596 0.0
H584 H 0.62774 0.20274 0.05782 0.0
C585 C 0.67571 0.10692 0.06933 0.0
C586 C 0.61885 0.61802 0.79973 0.0
C587 C 0.66995 0.6459 0.80301 0.0
H588 H 0.55594 0.5706 0.83287 0.0
C589 C 0.69646 0.64756 0.84422 0.0
H590 H 0.5971 0.61653 0.76867 0.0
C591 C 0.67306 0.62069 0.88062 0.0
C592 C 0.62207 0.59255 0.87746 0.0
H593 H 0.73562 0.66902 0.8481 0.0
H594 H 0.69512 0.62176 0.91142 0.0
C595 C 0.59506 0.59221 0.83669 0.0
C596 C 0.40089 0.62442 0.79355 0.0
C597 C 0.41134 0.67728 0.79466 0.0
H598 H 0.41103 0.56155 0.82699 0.0
C599 C 0.44843 0.70855 0.82535 0.0
H600 H 0.37281 0.59954 0.76984 0.0
C601 C 0.47081 0.68681 0.85781 0.0
C602 C 0.45571 0.6336 0.86017 0.0
H603 H 0.45736 0.74951 0.82657 0.0
H604 H 0.49626 0.71153 0.8835 0.0
C605 C 0.42276 0.60269 0.82625 0.0
C606 C 0.32126 0.32943 0.84853 0.0
C607 C 0.33181 0.35591 0.80876 0.0
H608 H 0.34037 0.32901 0.91846 0.0
C609 C 0.36091 0.4075 0.81108 0.0
H610 H 0.29873 0.28956 0.84784 0.0
C611 C 0.38462 0.43024 0.8521 0.0
C612 C 0.37973 0.4009 0.89034 0.0
H613 H 0.36888 0.42873 0.78087 0.0
H614 H 0.41148 0.46834 0.85246 0.0
C615 C 0.34483 0.35197 0.88919 0.0
C616 C 0.69655 0.40325 0.83185 0.0
C617 C 0.66771 0.36901 0.79768 0.0
H618 H 0.70027 0.43415 0.89866 0.0
C619 C 0.61874 0.33994 0.8047 0.0
H620 H 0.7348 0.4254 0.82745 0.0
C621 C 0.59942 0.34364 0.84589 0.0
C622 C 0.62851 0.37711 0.88063 0.0
H623 H 0.59603 0.31246 0.77921 0.0
H624 H 0.56145 0.32056 0.8502 0.0
C625 C 0.67717 0.40724 0.873 0.0
C626 C 0.61626 0.37182 0.1696 0.0
C627 C 0.6071 0.31916 0.16823 0.0
H628 H 0.60579 0.43432 0.13578 0.0
C629 C 0.57158 0.28755 0.13647 0.0
H630 H 0.64309 0.39695 0.19413 0.0
C631 C 0.54967 0.30895 0.10333 0.0
C632 C 0.56376 0.36214 0.10138 0.0
H633 H 0.56365 0.24674 0.13502 0.0
H634 H 0.52553 0.28412 0.07694 0.0
C635 C 0.59495 0.39322 0.13622 0.0
C636 C 0.6996 0.66985 0.11382 0.0
C637 C 0.68983 0.64357 0.15374 0.0
H638 H 0.67995 0.66957 0.04389 0.0
C639 C 0.66088 0.59189 0.15171 0.0
H640 H 0.72194 0.70977 0.11426 0.0
C641 C 0.63692 0.56872 0.11085 0.0
C642 C 0.64141 0.59761 0.07235 0.0
H643 H 0.65345 0.5708 0.18203 0.0
H644 H 0.6104 0.53046 0.11075 0.0
C645 C 0.67582 0.64686 0.0733 0.0
C646 C 0.40342 0.65865 0.15632 0.0
C647 C 0.35452 0.62966 0.16365 0.0
H648 H 0.46038 0.67758 0.11049 0.0
C649 C 0.32548 0.59508 0.12981 0.0
H650 H 0.42626 0.68638 0.18157 0.0
C651 C 0.34458 0.59072 0.08862 0.0
C652 C 0.39315 0.62078 0.08065 0.0
H653 H 0.28729 0.57298 0.13448 0.0
H654 H 0.32131 0.56357 0.0632 0.0
C655 C 0.42246 0.65457 0.11508 0.0
C656 C 0.32848 0.35802 0.12708 0.0
C657 C 0.35913 0.34872 0.16138 0.0
H658 H 0.32414 0.39311 0.06454 0.0
C659 C 0.41059 0.36664 0.15675 0.0
H660 H 0.28881 0.34438 0.12923 0.0
C661 C 0.43098 0.39363 0.11927 0.0
C662 C 0.40057 0.40433 0.08549 0.0
H663 H 0.43542 0.35967 0.18225 0.0
H664 H 0.47071 0.40717 0.11735 0.0
C665 C 0.34894 0.38587 0.0899 0.0
C666 C 0.85975 0.66951 0.63778 0.0
C667 C 0.80878 0.66096 0.63079 0.0
H668 H 0.92409 0.65713 0.61489 0.0
C669 C 0.78345 0.6302 0.59287 0.0
H670 H 0.88095 0.69326 0.66618 0.0
C671 C 0.80857 0.608 0.56349 0.0
C672 C 0.85985 0.61749 0.57056 0.0
H673 H 0.74429 0.62274 0.58631 0.0
H674 H 0.78813 0.58433 0.53478 0.0
C675 C 0.8848 0.64882 0.60808 0.0
C676 C 0.39775 0.87658 0.64934 0.0
C677 C 0.34635 0.86439 0.65029 0.0
H678 H 0.46319 0.91824 0.61765 0.0
C679 C 0.32192 0.88813 0.62131 0.0
H680 H 0.41777 0.85955 0.6719 0.0
C681 C 0.34784 0.92116 0.59017 0.0
C682 C 0.39874 0.93116 0.58733 0.0
H683 H 0.28247 0.88012 0.62161 0.0
H684 H 0.32736 0.93731 0.56723 0.0
C685 C 0.4238 0.90998 0.61818 0.0
C686 C 0.20655 0.37579 0.63019 0.0
C687 C 0.18151 0.33343 0.65479 0.0
H688 H 0.20184 0.4314 0.58346 0.0
C689 C 0.12936 0.31608 0.65085 0.0
H690 H 0.24654 0.39039 0.63216 0.0
C691 C 0.10334 0.33897 0.62167 0.0
C692 C 0.12857 0.38116 0.5967 0.0
H693 H 0.10862 0.28334 0.66887 0.0
H694 H 0.06342 0.32306 0.61812 0.0
C695 C 0.18065 0.39965 0.60234 0.0
C696 C 0.70949 0.20102 0.57452 0.0
C697 C 0.7072 0.18729 0.61925 0.0
H698 H 0.68153 0.17834 0.50682 0.0
C699 C 0.68414 0.13594 0.62908 0.0
H700 H 0.72831 0.24004 0.56612 0.0
C701 C 0.6567 0.10062 0.59529 0.0
C702 C 0.65263 0.11659 0.55157 0.0
H703 H 0.68284 0.12422 0.66347 0.0
H704 H 0.63392 0.06314 0.60458 0.0
C705 C 0.68316 0.16548 0.54066 0.0
C706 C 0.80995 0.36881 0.36084 0.0
C707 C 0.80379 0.3197 0.34349 0.0
H708 H 0.85422 0.43198 0.40419 0.0
C709 C 0.83349 0.2934 0.36126 0.0
H710 H 0.78718 0.38964 0.34731 0.0
C711 C 0.87095 0.31688 0.39424 0.0
C712 C 0.88024 0.36775 0.4093 0.0
H713 H 0.8287 0.25518 0.34864 0.0
H714 H 0.89446 0.29595 0.40581 0.0
C715 C 0.84823 0.39292 0.39334 0.0
C716 C 0.61447 0.75652 0.39031 0.0
C717 C 0.66285 0.78104 0.37857 0.0
H718 H 0.55528 0.76226 0.42786 0.0
C719 C 0.69189 0.82679 0.40132 0.0
H720 H 0.59172 0.72095 0.3733 0.0
C721 C 0.67151 0.8503 0.43256 0.0
C722 C 0.62152 0.82864 0.44116 0.0
H723 H 0.72978 0.84584 0.39331 0.0
H724 H 0.69415 0.88701 0.44765 0.0
C725 C 0.5938 0.78029 0.42146 0.0
C726 C 0.13969 0.59465 0.29865 0.0
C727 C 0.148 0.64715 0.30221 0.0
H728 H 0.11026 0.52326 0.32912 0.0
C729 C 0.12346 0.66632 0.33386 0.0
H730 H 0.15706 0.5786 0.27379 0.0
C731 C 0.09574 0.63411 0.36504 0.0
C732 C 0.09273 0.58299 0.36444 0.0
H733 H 0.12882 0.70661 0.33686 0.0
H734 H 0.08079 0.65004 0.39196 0.0
C735 C 0.11252 0.56283 0.32986 0.0
C736 C 0.44434 0.20032 0.33201 0.0
C737 C 0.39625 0.17381 0.31439 0.0
H738 H 0.51048 0.19439 0.36258 0.0
C739 C 0.38207 0.12137 0.30376 0.0
H740 H 0.45683 0.2412 0.33841 0.0
C741 C 0.4131 0.0946 0.31649 0.0
C742 C 0.458 0.11992 0.34104 0.0
H743 H 0.34583 0.10044 0.28811 0.0
H744 H 0.39911 0.0534 0.31258 0.0
C745 C 0.47554 0.17354 0.34456 0.0
C746 C 0.63896 0.87032 0.66272 0.0
C747 C 0.62354 0.81743 0.65396 0.0
H748 H 0.62446 0.93909 0.65075 0.0
C749 C 0.5755 0.79155 0.63592 0.0
H750 H 0.67517 0.89096 0.67859 0.0
C751 C 0.54585 0.8192 0.6209 0.0
C752 C 0.56471 0.8729 0.62302 0.0
H753 H 0.56221 0.75051 0.63056 0.0
H754 H 0.51106 0.79867 0.60251 0.0
C755 C 0.60944 0.89786 0.64786 0.0
C756 C 0.70102 0.11178 0.34414 0.0
C757 C 0.67563 0.1337 0.31424 0.0
H758 H 0.69685 0.06354 0.39888 0.0
C759 C 0.62395 0.11903 0.31433 0.0
H760 H 0.74077 0.12176 0.34467 0.0
C761 C 0.59848 0.08495 0.3454 0.0
C762 C 0.62436 0.06556 0.3771 0.0
H763 H 0.60323 0.13461 0.29113 0.0
H764 H 0.5588 0.07464 0.34512 0.0
C765 C 0.67569 0.07812 0.37521 0.0
C766 C 0.81563 0.62082 0.33052 0.0
C767 C 0.8411 0.66376 0.30678 0.0
H768 H 0.81963 0.56424 0.37649 0.0
C769 C 0.89321 0.68108 0.3113 0.0
H770 H 0.77564 0.60626 0.32807 0.0
C771 C 0.91879 0.65761 0.34032 0.0
C772 C 0.89314 0.6149 0.36452 0.0
H773 H 0.91423 0.71425 0.29394 0.0
H774 H 0.95868 0.67352 0.34443 0.0
C775 C 0.84111 0.5964 0.35821 0.0
C776 C 0.31355 0.79525 0.38791 0.0
C777 C 0.31592 0.81005 0.34347 0.0
H778 H 0.34146 0.8163 0.45583 0.0
C779 C 0.33912 0.86164 0.33454 0.0
H780 H 0.2946 0.75602 0.39562 0.0
C781 C 0.36662 0.89615 0.36886 0.0
C782 C 0.37058 0.87912 0.41221 0.0
H783 H 0.34047 0.87417 0.30041 0.0
H784 H 0.38947 0.93388 0.3602 0.0
C785 C 0.33993 0.82997 0.42229 0.0
C786 C 0.23508 0.36384 0.36737 0.0
C787 C 0.20875 0.32877 0.33237 0.0
H788 H 0.23147 0.41403 0.42251 0.0
C789 C 0.15715 0.31658 0.32774 0.0
H790 H 0.27483 0.37426 0.37185 0.0
C791 C 0.13245 0.33834 0.3569 0.0
C792 C 0.1584 0.37419 0.39138 0.0
H793 H 0.13543 0.28953 0.30149 0.0
H794 H 0.09267 0.32737 0.35193 0.0
C795 C 0.21024 0.38689 0.39617 0.0
C796 C 0.33207 0.16825 0.56429 0.0
C797 C 0.36093 0.21501 0.58556 0.0
H798 H 0.32953 0.10702 0.519 0.0
C799 C 0.40868 0.23982 0.57237 0.0
H800 H 0.29466 0.14888 0.57343 0.0
C801 C 0.42896 0.21562 0.54117 0.0
C802 C 0.40146 0.16655 0.52277 0.0
H803 H 0.43131 0.27613 0.58822 0.0
H804 H 0.46706 0.23404 0.53359 0.0
C805 C 0.35201 0.14435 0.53296 0.0
C806 C 0.88381 0.40311 0.6628 0.0
C807 C 0.87513 0.35054 0.65971 0.0
H808 H 0.91294 0.47384 0.63125 0.0
C809 C 0.89897 0.33059 0.62798 0.0
H810 H 0.86699 0.4197 0.68774 0.0
C811 C 0.92614 0.36208 0.59612 0.0
C812 C 0.92928 0.4132 0.59621 0.0
H813 H 0.8933 0.29022 0.62536 0.0
H814 H 0.94044 0.34556 0.56912 0.0
C815 C 0.91045 0.43421 0.63093 0.0
C816 C 0.15674 0.66414 0.63468 0.0
C817 C 0.20676 0.674 0.62781 0.0
H818 H 0.08227 0.6332 0.60749 0.0
C819 C 0.21989 0.65763 0.58677 0.0
H820 H 0.14522 0.67445 0.66636 0.0
C821 C 0.18315 0.63207 0.5531 0.0
C822 C 0.13334 0.62375 0.56016 0.0
H823 H 0.25827 0.66424 0.5809 0.0
H824 H 0.19354 0.61959 0.52166 0.0
C825 C 0.12061 0.63995 0.60113 0.0
loop_
_geom_bond_atom_site_label_1
_geom_bond_atom_site_label_2
_geom_bond_distance
_geom_bond_site_symmetry_2
_ccdc_geom_bond_type
Dy0 O4 2.398 . S
Dy0 O5 2.491 . S
Dy0 O6 2.403 . S
Dy0 O7 2.664 . S
Dy0 O11 2.326 . S
Dy0 O15 2.310 . S
Dy0 O16 2.351 . S
C1 O12 1.185 . S
C1 O13 1.355 . S
C2 O4 1.185 . S
C2 O5 1.355 . S
Dy3 O7 2.310 . S
Dy3 O10 2.351 . S
Dy3 O12 2.398 . S
Dy3 O13 2.491 . S
Dy3 O14 2.403 . S
Dy3 O15 2.664 . S
Dy3 O17 2.326 . S
O4 Dy0 2.398 . S
O4 C2 1.185 . S
O5 Dy0 2.491 . S
O5 C2 1.355 . S
O6 Dy0 2.403 . S
O6 C8 1.254 . S
O7 Dy0 2.664 . S
O7 Dy3 2.310 . S
O7 C8 1.268 . S
C8 O6 1.254 . S
C8 O7 1.268 . S
C9 O14 1.254 . S
C9 O15 1.268 . S
O10 Dy3 2.351 . S
O10 C18 1.249 . S
O11 Dy0 2.326 . S
O11 C18 1.267 . S
O12 C1 1.185 . S
O12 Dy3 2.398 . S
O13 C1 1.355 . S
O13 Dy3 2.491 . S
O14 Dy3 2.403 . S
O14 C9 1.254 . S
O15 Dy0 2.310 . S
O15 Dy3 2.664 . S
O15 C9 1.268 . S
O16 Dy0 2.351 . S
O16 C19 1.249 . S
O17 Dy3 2.326 . S
O17 C19 1.267 . S
C18 O10 1.249 . S
C18 O11 1.267 . S
C19 O16 1.249 . S
C19 O17 1.267 . S
Dy20 O24 2.398 . S
Dy20 O25 2.491 . S
Dy20 O26 2.403 . S
Dy20 O27 2.664 . S
Dy20 O31 2.326 . S
Dy20 O35 2.310 . S
Dy20 O36 2.351 . S
C21 O32 1.185 . S
C21 O33 1.355 . S
C22 O24 1.185 . S
C22 O25 1.355 . S
Dy23 O27 2.310 . S
Dy23 O30 2.351 . S
Dy23 O32 2.398 . S
Dy23 O33 2.491 . S
Dy23 O34 2.403 . S
Dy23 O35 2.664 . S
Dy23 O37 2.326 . S
O24 Dy20 2.398 . S
O24 C22 1.185 . S
O25 Dy20 2.491 . S
O25 C22 1.355 . S
O26 Dy20 2.403 . S
O26 C28 1.254 . S
O27 Dy20 2.664 . S
O27 Dy23 2.310 . S
O27 C28 1.268 . S
C28 O26 1.254 . S
C28 O27 1.268 . S
C29 O34 1.254 . S
C29 O35 1.268 . S
O30 Dy23 2.351 . S
O30 C38 1.249 . S
O31 Dy20 2.326 . S
O31 C38 1.267 . S
O32 C21 1.185 . S
O32 Dy23 2.398 . S
O33 C21 1.355 . S
O33 Dy23 2.491 . S
O34 Dy23 2.403 . S
O34 C29 1.254 . S
O35 Dy20 2.310 . S
O35 Dy23 2.664 . S
O35 C29 1.268 . S
O36 Dy20 2.351 . S
O36 C39 1.249 . S
O37 Dy23 2.326 . S
O37 C39 1.267 . S
C38 O30 1.249 . S
C38 O31 1.267 . S
C39 O36 1.249 . S
C39 O37 1.267 . S
Dy40 O44 2.398 . S
Dy40 O45 2.491 . S
Dy40 O46 2.403 . S
Dy40 O47 2.664 . S
Dy40 O51 2.326 . S
Dy40 O55 2.310 . S
Dy40 O56 2.351 . S
C41 O52 1.185 . S
C41 O53 1.355 . S
C42 O44 1.185 . S
C42 O45 1.355 . S
Dy43 O47 2.310 . S
Dy43 O50 2.351 . S
Dy43 O52 2.398 . S
Dy43 O53 2.491 . S
Dy43 O54 2.403 . S
Dy43 O55 2.664 . S
Dy43 O57 2.326 . S
O44 Dy40 2.398 . S
O44 C42 1.185 . S
O45 Dy40 2.491 . S
O45 C42 1.355 . S
O46 Dy40 2.403 . S
O46 C48 1.254 . S
O47 Dy40 2.664 . S
O47 Dy43 2.310 . S
O47 C48 1.268 . S
C48 O46 1.254 . S
C48 O47 1.268 . S
C49 O54 1.254 . S
C49 O55 1.268 . S
O50 Dy43 2.351 . S
O50 C58 1.249 . S
O51 Dy40 2.326 . S
O51 C58 1.267 . S
O52 C41 1.185 . S
O52 Dy43 2.398 . S
O53 C41 1.355 . S
O53 Dy43 2.491 . S
O54 Dy43 2.403 . S
O54 C49 1.254 . S
O55 Dy40 2.310 . S
O55 Dy43 2.664 . S
O55 C49 1.268 . S
O56 Dy40 2.351 . S
O56 C59 1.249 . S
O57 Dy43 2.326 . S
O57 C59 1.267 . S
C58 O50 1.249 . S
C58 O51 1.267 . S
C59 O56 1.249 . S
C59 O57 1.267 . S
Dy60 O64 2.398 . S
Dy60 O65 2.491 . S
Dy60 O66 2.403 . S
Dy60 O67 2.664 . S
Dy60 O71 2.326 . S
Dy60 O75 2.310 . S
Dy60 O76 2.351 . S
C61 O72 1.185 . S
C61 O73 1.355 . S
C62 O64 1.185 . S
C62 O65 1.355 . S
Dy63 O67 2.310 . S
Dy63 O70 2.351 . S
Dy63 O72 2.398 . S
Dy63 O73 2.491 . S
Dy63 O74 2.403 . S
Dy63 O75 2.664 . S
Dy63 O77 2.326 . S
O64 Dy60 2.398 . S
O64 C62 1.185 . S
O65 Dy60 2.491 . S
O65 C62 1.355 . S
O66 Dy60 2.403 . S
O66 C68 1.254 . S
O67 Dy60 2.664 . S
O67 Dy63 2.310 . S
O67 C68 1.268 . S
C68 O66 1.254 . S
C68 O67 1.268 . S
C69 O74 1.254 . S
C69 O75 1.268 . S
O70 Dy63 2.351 . S
O70 C78 1.249 . S
O71 Dy60 2.326 . S
O71 C78 1.267 . S
O72 C61 1.185 . S
O72 Dy63 2.398 . S
O73 C61 1.355 . S
O73 Dy63 2.491 . S
O74 Dy63 2.403 . S
O74 C69 1.254 . S
O75 Dy60 2.310 . S
O75 Dy63 2.664 . S
O75 C69 1.268 . S
O76 Dy60 2.351 . S
O76 C79 1.249 . S
O77 Dy63 2.326 . S
O77 C79 1.267 . S
C78 O70 1.249 . S
C78 O71 1.267 . S
C79 O76 1.249 . S
C79 O77 1.267 . S
Dy80 O84 2.398 . S
Dy80 O85 2.491 . S
Dy80 O86 2.403 . S
Dy80 O87 2.664 . S
Dy80 O91 2.326 . S
Dy80 O95 2.310 . S
Dy80 O96 2.351 . S
C81 O92 1.185 . S
C81 O93 1.355 . S
C82 O84 1.185 . S
C82 O85 1.355 . S
Dy83 O87 2.310 . S
Dy83 O90 2.351 . S
Dy83 O92 2.398 . S
Dy83 O93 2.491 . S
Dy83 O94 2.403 . S
Dy83 O95 2.664 . S
Dy83 O97 2.326 . S
O84 Dy80 2.398 . S
O84 C82 1.185 . S
O85 Dy80 2.491 . S
O85 C82 1.355 . S
O86 Dy80 2.403 . S
O86 C88 1.254 . S
O87 Dy80 2.664 . S
O87 Dy83 2.310 . S
O87 C88 1.268 . S
C88 O86 1.254 . S
C88 O87 1.268 . S
C89 O94 1.254 . S
C89 O95 1.268 . S
O90 Dy83 2.351 . S
O90 C98 1.249 . S
O91 Dy80 2.326 . S
O91 C98 1.267 . S
O92 C81 1.185 . S
O92 Dy83 2.398 . S
O93 C81 1.355 . S
O93 Dy83 2.491 . S
O94 Dy83 2.403 . S
O94 C89 1.254 . S
O95 Dy80 2.310 . S
O95 Dy83 2.664 . S
O95 C89 1.268 . S
O96 Dy80 2.351 . S
O96 C99 1.249 . S
O97 Dy83 2.326 . S
O97 C99 1.267 . S
C98 O90 1.249 . S
C98 O91 1.267 . S
C99 O96 1.249 . S
C99 O97 1.267 . S
Dy100 O104 2.398 . S
Dy100 O105 2.491 . S
Dy100 O106 2.403 . S
Dy100 O107 2.664 . S
Dy100 O111 2.326 . S
Dy100 O115 2.310 . S
Dy100 O116 2.351 . S
C101 O112 1.185 . S
C101 O113 1.355 . S
C102 O104 1.185 . S
C102 O105 1.355 . S
Dy103 O107 2.310 . S
Dy103 O110 2.351 . S
Dy103 O112 2.398 . S
Dy103 O113 2.491 . S
Dy103 O114 2.403 . S
Dy103 O115 2.664 . S
Dy103 O117 2.326 . S
O104 Dy100 2.398 . S
O104 C102 1.185 . S
O105 Dy100 2.491 . S
O105 C102 1.355 . S
O106 Dy100 2.403 . S
O106 C108 1.254 . S
O107 Dy100 2.664 . S
O107 Dy103 2.310 . S
O107 C108 1.268 . S
C108 O106 1.254 . S
C108 O107 1.268 . S
C109 O114 1.254 . S
C109 O115 1.268 . S
O110 Dy103 2.351 . S
O110 C118 1.249 . S
O111 Dy100 2.326 . S
O111 C118 1.267 . S
O112 C101 1.185 . S
O112 Dy103 2.398 . S
O113 C101 1.355 . S
O113 Dy103 2.491 . S
O114 Dy103 2.403 . S
O114 C109 1.254 . S
O115 Dy100 2.310 . S
O115 Dy103 2.664 . S
O115 C109 1.268 . S
O116 Dy100 2.351 . S
O116 C119 1.249 . S
O117 Dy103 2.326 . S
O117 C119 1.267 . S
C118 O110 1.249 . S
C118 O111 1.267 . S
C119 O116 1.249 . S
C119 O117 1.267 . S
Dy120 O124 2.398 . S
Dy120 O125 2.491 . S
Dy120 O126 2.403 . S
Dy120 O127 2.664 . S
Dy120 O131 2.326 . S
Dy120 O135 2.310 . S
Dy120 O136 2.351 . S
C121 O132 1.185 . S
C121 O133 1.355 . S
C122 O124 1.185 . S
C122 O125 1.355 . S
Dy123 O127 2.310 . S
Dy123 O130 2.351 . S
Dy123 O132 2.398 . S
Dy123 O133 2.491 . S
Dy123 O134 2.403 . S
Dy123 O135 2.664 . S
Dy123 O137 2.326 . S
O124 Dy120 2.398 . S
O124 C122 1.185 . S
O125 Dy120 2.491 . S
O125 C122 1.355 . S
O126 Dy120 2.403 . S
O126 C128 1.254 . S
O127 Dy120 2.664 . S
O127 Dy123 2.310 . S
O127 C128 1.268 . S
C128 O126 1.254 . S
C128 O127 1.268 . S
C129 O134 1.254 . S
C129 O135 1.268 . S
O130 Dy123 2.351 . S
O130 C138 1.249 . S
O131 Dy120 2.326 . S
O131 C138 1.267 . S
O132 C121 1.185 . S
O132 Dy123 2.398 . S
O133 C121 1.355 . S
O133 Dy123 2.491 . S
O134 Dy123 2.403 . S
O134 C129 1.254 . S
O135 Dy120 2.310 . S
O135 Dy123 2.664 . S
O135 C129 1.268 . S
O136 Dy120 2.351 . S
O136 C139 1.249 . S
O137 Dy123 2.326 . S
O137 C139 1.267 . S
C138 O130 1.249 . S
C138 O131 1.267 . S
C139 O136 1.249 . S
C139 O137 1.267 . S
Dy140 O144 2.398 . S
Dy140 O145 2.491 . S
Dy140 O146 2.403 . S
Dy140 O147 2.664 . S
Dy140 O151 2.326 . S
Dy140 O155 2.310 . S
Dy140 O156 2.351 . S
C141 O152 1.185 . S
C141 O153 1.355 . S
C142 O144 1.185 . S
C142 O145 1.355 . S
Dy143 O147 2.310 . S
Dy143 O150 2.351 . S
Dy143 O152 2.398 . S
Dy143 O153 2.491 . S
Dy143 O154 2.403 . S
Dy143 O155 2.664 . S
Dy143 O157 2.326 . S
O144 Dy140 2.398 . S
O144 C142 1.185 . S
O145 Dy140 2.491 . S
O145 C142 1.355 . S
O146 Dy140 2.403 . S
O146 C148 1.254 . S
O147 Dy140 2.664 . S
O147 Dy143 2.310 . S
O147 C148 1.268 . S
C148 O146 1.254 . S
C148 O147 1.268 . S
C149 O154 1.254 . S
C149 O155 1.268 . S
O150 Dy143 2.351 . S
O150 C158 1.249 . S
O151 Dy140 2.326 . S
O151 C158 1.267 . S
O152 C141 1.185 . S
O152 Dy143 2.398 . S
O153 C141 1.355 . S
O153 Dy143 2.491 . S
O154 Dy143 2.403 . S
O154 C149 1.254 . S
O155 Dy140 2.310 . S
O155 Dy143 2.664 . S
O155 C149 1.268 . S
O156 Dy140 2.351 . S
O156 C159 1.249 . S
O157 Dy143 2.326 . S
O157 C159 1.267 . S
C158 O150 1.249 . S
C158 O151 1.267 . S
C159 O156 1.249 . S
C159 O157 1.267 . S
C160 O172 1.241 . S
C160 O173 1.280 . S
C161 O174 1.277 . S
C161 O175 1.245 . S
C162 O186 1.247 . S
C162 O188 1.289 . S
Mg163 O164 1.926 . S
Mg163 O173 1.984 . S
Mg163 O175 1.988 . S
Mg163 O176 2.061 1_655 S
O164 Mg163 1.926 . S
O164 Mg165 1.986 1_545 S
O164 Mg166 1.919 1_655 S
Mg165 O164 1.986 1_565 S
Mg165 O172 2.042 1_565 S
Mg165 O174 2.041 1_565 S
Mg165 O180 2.038 . S
Mg165 O188 2.238 . S
Mg166 O164 1.919 1_455 S
Mg166 O167 1.915 1_545 S
Mg166 O177 2.107 . S
Mg166 O179 2.077 1_445 S
Mg166 O188 2.106 1_445 S
Mg166 O189 2.080 . S
O167 Mg166 1.915 1_565 S
O167 Mg168 1.926 . S
O167 Mg169 1.986 1_565 S
Mg168 O167 1.926 . S
Mg168 O182 1.984 . S
Mg168 O185 1.988 . S
Mg168 O186 2.061 1_455 S
Mg169 O167 1.986 1_545 S
Mg169 O177 2.238 . S
Mg169 O181 2.042 1_545 S
Mg169 O183 2.041 1_545 S
Mg169 O190 2.038 . S
C170 O176 1.247 . S
C170 O177 1.289 . S
C171 O189 1.245 . S
C171 O190 1.274 . S
O172 C160 1.241 . S
O172 Mg165 2.042 1_545 S
O173 C160 1.280 . S
O173 Mg163 1.984 . S
O174 C161 1.277 . S
O174 Mg165 2.041 1_545 S
O175 C161 1.245 . S
O175 Mg163 1.988 . S
O176 Mg163 2.061 1_455 S
O176 C170 1.247 . S
O177 Mg166 2.107 . S
O177 Mg169 2.238 . S
O177 C170 1.289 . S
C178 O179 1.245 . S
C178 O180 1.274 . S
O179 Mg166 2.077 1_665 S
O179 C178 1.245 . S
O180 Mg165 2.038 . S
O180 C178 1.274 . S
O181 Mg169 2.042 1_565 S
O181 C184 1.241 . S
O182 Mg168 1.984 . S
O182 C184 1.280 . S
O183 Mg169 2.041 1_565 S
O183 C187 1.277 . S
C184 O181 1.241 . S
C184 O182 1.280 . S
O185 Mg168 1.988 . S
O185 C187 1.245 . S
O186 C162 1.247 . S
O186 Mg168 2.061 1_655 S
C187 O183 1.277 . S
C187 O185 1.245 . S
O188 C162 1.289 . S
O188 Mg165 2.238 . S
O188 Mg166 2.106 1_665 S
O189 Mg166 2.080 . S
O189 C171 1.245 . S
O190 Mg169 2.038 . S
O190 C171 1.274 . S
C191 O203 1.241 . S
C191 O204 1.280 . S
C192 O205 1.277 . S
C192 O206 1.245 . S
C193 O217 1.247 . S
C193 O219 1.289 . S
Mg194 O195 1.926 . S
Mg194 O204 1.984 . S
Mg194 O206 1.988 1_554 S
Mg194 O207 2.061 . S
O195 Mg194 1.926 . S
O195 Mg196 1.986 1_544 S
O195 Mg197 1.919 . S
Mg196 O195 1.986 1_566 S
Mg196 O203 2.042 1_566 S
Mg196 O205 2.041 1_565 S
Mg196 O211 2.038 1_556 S
Mg196 O219 2.238 . S
Mg197 O195 1.919 . S
Mg197 O198 1.915 1_544 S
Mg197 O208 2.107 . S
Mg197 O210 2.078 1_545 S
Mg197 O219 2.106 1_544 S
Mg197 O220 2.080 1_554 S
O198 Mg197 1.915 1_566 S
O198 Mg199 1.926 . S
O198 Mg200 1.986 1_566 S
Mg199 O198 1.926 . S
Mg199 O213 1.984 . S
Mg199 O216 1.988 1_556 S
Mg199 O217 2.061 . S
Mg200 O198 1.986 1_544 S
Mg200 O208 2.238 . S
Mg200 O212 2.042 1_544 S
Mg200 O214 2.041 1_545 S
Mg200 O221 2.038 1_554 S
C201 O207 1.247 . S
C201 O208 1.289 . S
C202 O220 1.245 . S
C202 O221 1.274 . S
O203 C191 1.241 . S
O203 Mg196 2.042 1_544 S
O204 C191 1.280 . S
O204 Mg194 1.984 . S
O205 C192 1.277 . S
O205 Mg196 2.041 1_545 S
O206 C192 1.245 . S
O206 Mg194 1.988 1_556 S
O207 Mg194 2.061 . S
O207 C201 1.247 . S
O208 Mg197 2.107 . S
O208 Mg200 2.238 . S
O208 C201 1.289 . S
C209 O210 1.245 . S
C209 O211 1.274 . S
O210 Mg197 2.078 1_565 S
O210 C209 1.245 . S
O211 Mg196 2.038 1_554 S
O211 C209 1.274 . S
O212 Mg200 2.042 1_566 S
O212 C215 1.241 . S
O213 Mg199 1.984 . S
O213 C215 1.280 . S
O214 Mg200 2.041 1_565 S
O214 C218 1.277 . S
C215 O212 1.241 . S
C215 O213 1.280 . S
O216 Mg199 1.988 1_554 S
O216 C218 1.245 . S
O217 C193 1.247 . S
O217 Mg199 2.061 . S
C218 O214 1.277 . S
C218 O216 1.245 . S
O219 C193 1.289 . S
O219 Mg196 2.238 . S
O219 Mg197 2.106 1_566 S
O220 Mg197 2.080 1_556 S
O220 C202 1.245 . S
O221 Mg200 2.038 1_556 S
O221 C202 1.274 . S
C222 O234 1.241 . S
C222 O235 1.280 . S
C223 O236 1.277 . S
C223 O237 1.245 . S
C224 O248 1.247 . S
C224 O250 1.289 . S
Mg225 O226 1.926 . S
Mg225 O235 1.984 . S
Mg225 O237 1.988 1_554 S
Mg225 O238 2.061 1_655 S
O226 Mg225 1.926 . S
O226 Mg227 1.986 1_554 S
O226 Mg228 1.917 1_655 S
Mg227 O226 1.986 1_556 S
Mg227 O234 2.042 1_556 S
Mg227 O236 2.041 . S
Mg227 O242 2.038 1_556 S
Mg227 O250 2.238 . S
Mg228 O226 1.917 1_455 S
Mg228 O229 1.917 1_554 S
Mg228 O239 2.107 . S
Mg228 O241 2.079 1_455 S
Mg228 O250 2.106 1_454 S
Mg228 O251 2.078 1_554 S
O229 Mg228 1.917 1_556 S
O229 Mg230 1.926 . S
O229 Mg231 1.986 1_556 S
Mg230 O229 1.926 . S
Mg230 O244 1.984 . S
Mg230 O247 1.988 1_556 S
Mg230 O248 2.061 1_455 S
Mg231 O229 1.986 1_554 S
Mg231 O239 2.238 . S
Mg231 O243 2.042 1_554 S
Mg231 O245 2.041 . S
Mg231 O252 2.038 1_554 S
C232 O238 1.247 . S
C232 O239 1.289 . S
C233 O251 1.245 . S
C233 O252 1.274 . S
O234 C222 1.241 . S
O234 Mg227 2.042 1_554 S
O235 C222 1.280 . S
O235 Mg225 1.984 . S
O236 C223 1.277 . S
O236 Mg227 2.041 . S
O237 C223 1.245 . S
O237 Mg225 1.988 1_556 S
O238 Mg225 2.061 1_455 S
O238 C232 1.247 . S
O239 Mg228 2.107 . S
O239 Mg231 2.238 . S
O239 C232 1.289 . S
C240 O241 1.245 . S
C240 O242 1.274 . S
O241 Mg228 2.079 1_655 S
O241 C240 1.245 . S
O242 Mg227 2.038 1_554 S
O242 C240 1.274 . S
O243 Mg231 2.042 1_556 S
O243 C246 1.241 . S
O244 Mg230 1.984 . S
O244 C246 1.280 . S
O245 Mg231 2.041 . S
O245 C249 1.277 . S
C246 O243 1.241 . S
C246 O244 1.280 . S
O247 Mg230 1.988 1_554 S
O247 C249 1.245 . S
O248 C224 1.247 . S
O248 Mg230 2.061 1_655 S
C249 O245 1.277 . S
C249 O247 1.245 . S
O250 C224 1.289 . S
O250 Mg227 2.238 . S
O250 Mg228 2.106 1_656 S
O251 Mg228 2.078 1_556 S
O251 C233 1.245 . S
O252 Mg231 2.038 1_556 S
O252 C233 1.274 . S
C253 O265 1.241 . S
C253 O266 1.280 . S
C254 O267 1.277 . S
C254 O268 1.245 . S
C255 O279 1.247 . S
C255 O281 1.289 . S
Mg256 O257 1.926 . S
Mg256 O266 1.984 . S
Mg256 O268 1.988 1_554 S
Mg256 O269 2.061 . S
O257 Mg256 1.926 . S
O257 Mg258 1.986 1_554 S
O257 Mg259 1.917 . S
Mg258 O257 1.986 1_556 S
Mg258 O265 2.042 1_556 S
Mg258 O267 2.041 . S
Mg258 O273 2.038 1_556 S
Mg258 O281 2.238 . S
Mg259 O257 1.917 . S
Mg259 O260 1.917 1_554 S
Mg259 O270 2.107 . S
Mg259 O272 2.079 . S
Mg259 O281 2.106 1_554 S
Mg259 O282 2.078 1_554 S
O260 Mg259 1.917 1_556 S
O260 Mg261 1.926 . S
O260 Mg262 1.986 1_556 S
Mg261 O260 1.926 . S
Mg261 O275 1.984 . S
Mg261 O278 1.988 1_556 S
Mg261 O279 2.061 . S
Mg262 O260 1.986 1_554 S
Mg262 O270 2.238 . S
Mg262 O274 2.042 1_554 S
Mg262 O276 2.041 . S
Mg262 O283 2.038 1_554 S
C263 O269 1.247 . S
C263 O270 1.289 . S
C264 O282 1.245 . S
C264 O283 1.274 . S
O265 C253 1.241 . S
O265 Mg258 2.042 1_554 S
O266 C253 1.280 . S
O266 Mg256 1.984 . S
O267 C254 1.277 . S
O267 Mg258 2.041 . S
O268 C254 1.245 . S
O268 Mg256 1.988 1_556 S
O269 Mg256 2.061 . S
O269 C263 1.247 . S
O270 Mg259 2.107 . S
O270 Mg262 2.238 . S
O270 C263 1.289 . S
C271 O272 1.245 . S
C271 O273 1.274 . S
O272 Mg259 2.079 . S
O272 C271 1.245 . S
O273 Mg258 2.038 1_554 S
O273 C271 1.274 . S
O274 Mg262 2.042 1_556 S
O274 C277 1.241 . S
O275 Mg261 1.984 . S
O275 C277 1.280 . S
O276 Mg262 2.041 . S
O276 C280 1.277 . S
C277 O274 1.241 . S
C277 O275 1.280 . S
O278 Mg261 1.988 1_554 S
O278 C280 1.245 . S
O279 C255 1.247 . S
O279 Mg261 2.061 . S
C280 O276 1.277 . S
C280 O278 1.245 . S
O281 C255 1.289 . S
O281 Mg258 2.238 . S
O281 Mg259 2.106 1_556 S
O282 Mg259 2.078 1_556 S
O282 C264 1.245 . S
O283 Mg262 2.038 1_556 S
O283 C264 1.274 . S
C284 O296 1.241 . S
C284 O297 1.280 . S
C285 O298 1.277 . S
C285 O299 1.245 . S
C286 O310 1.247 . S
C286 O312 1.289 . S
Mg287 O288 1.926 . S
Mg287 O297 1.984 . S
Mg287 O299 1.988 . S
Mg287 O300 2.061 1_655 S
O288 Mg287 1.926 . S
O288 Mg289 1.986 . S
O288 Mg290 1.917 1_655 S
Mg289 O288 1.986 . S
Mg289 O296 2.042 . S
Mg289 O298 2.041 . S
Mg289 O304 2.038 . S
Mg289 O312 2.238 . S
Mg290 O288 1.917 1_455 S
Mg290 O291 1.917 . S
Mg290 O301 2.106 . S
Mg290 O303 2.079 1_455 S
Mg290 O312 2.106 1_455 S
Mg290 O313 2.079 . S
O291 Mg290 1.917 . S
O291 Mg292 1.926 . S
O291 Mg293 1.986 . S
Mg292 O291 1.926 . S
Mg292 O306 1.984 . S
Mg292 O309 1.988 . S
Mg292 O310 2.061 1_455 S
Mg293 O291 1.986 . S
Mg293 O301 2.238 . S
Mg293 O305 2.042 . S
Mg293 O307 2.041 . S
Mg293 O314 2.038 . S
C294 O300 1.247 . S
C294 O301 1.289 . S
C295 O313 1.245 . S
C295 O314 1.274 . S
O296 C284 1.241 . S
O296 Mg289 2.042 . S
O297 C284 1.280 . S
O297 Mg287 1.984 . S
O298 C285 1.277 . S
O298 Mg289 2.041 . S
O299 C285 1.245 . S
O299 Mg287 1.988 . S
O300 Mg287 2.061 1_455 S
O300 C294 1.247 . S
O301 Mg290 2.106 . S
O301 Mg293 2.238 . S
O301 C294 1.289 . S
C302 O303 1.245 . S
C302 O304 1.274 . S
O303 Mg290 2.079 1_655 S
O303 C302 1.245 . S
O304 Mg289 2.038 . S
O304 C302 1.274 . S
O305 Mg293 2.042 . S
O305 C308 1.241 . S
O306 Mg292 1.984 . S
O306 C308 1.280 . S
O307 Mg293 2.041 . S
O307 C311 1.277 . S
C308 O305 1.241 . S
C308 O306 1.280 . S
O309 Mg292 1.988 . S
O309 C311 1.245 . S
O310 C286 1.247 . S
O310 Mg292 2.061 1_655 S
C311 O307 1.277 . S
C311 O309 1.245 . S
O312 C286 1.289 . S
O312 Mg289 2.238 . S
O312 Mg290 2.106 1_655 S
O313 Mg290 2.079 . S
O313 C295 1.245 . S
O314 Mg293 2.038 . S
O314 C295 1.274 . S
C315 O327 1.241 . S
C315 O328 1.280 . S
C316 O329 1.277 . S
C316 O330 1.245 . S
C317 O341 1.247 . S
C317 O343 1.289 . S
Mg318 O319 1.926 . S
Mg318 O328 1.984 . S
Mg318 O330 1.988 . S
Mg318 O331 2.061 . S
O319 Mg318 1.926 . S
O319 Mg320 1.986 1_545 S
O319 Mg321 1.919 . S
Mg320 O319 1.986 1_565 S
Mg320 O327 2.042 1_565 S
Mg320 O329 2.041 1_565 S
Mg320 O335 2.038 . S
Mg320 O343 2.238 . S
Mg321 O319 1.919 . S
Mg321 O322 1.915 1_545 S
Mg321 O332 2.107 . S
Mg321 O334 2.077 1_545 S
Mg321 O343 2.106 1_545 S
Mg321 O344 2.080 . S
O322 Mg321 1.915 1_565 S
O322 Mg323 1.926 . S
O322 Mg324 1.986 1_565 S
Mg323 O322 1.926 . S
Mg323 O337 1.984 . S
Mg323 O340 1.988 . S
Mg323 O341 2.061 . S
Mg324 O322 1.986 1_545 S
Mg324 O332 2.238 . S
Mg324 O336 2.042 1_545 S
Mg324 O338 2.041 1_545 S
Mg324 O345 2.038 . S
C325 O331 1.247 . S
C325 O332 1.289 . S
C326 O344 1.245 . S
C326 O345 1.274 . S
O327 C315 1.241 . S
O327 Mg320 2.042 1_545 S
O328 C315 1.280 . S
O328 Mg318 1.984 . S
O329 C316 1.277 . S
O329 Mg320 2.041 1_545 S
O330 C316 1.245 . S
O330 Mg318 1.988 . S
O331 Mg318 2.061 . S
O331 C325 1.247 . S
O332 Mg321 2.107 . S
O332 Mg324 2.238 . S
O332 C325 1.289 . S
C333 O334 1.245 . S
C333 O335 1.274 . S
O334 Mg321 2.077 1_565 S
O334 C333 1.245 . S
O335 Mg320 2.038 . S
O335 C333 1.274 . S
O336 Mg324 2.042 1_565 S
O336 C339 1.241 . S
O337 Mg323 1.984 . S
O337 C339 1.280 . S
O338 Mg324 2.041 1_565 S
O338 C342 1.277 . S
C339 O336 1.241 . S
C339 O337 1.280 . S
O340 Mg323 1.988 . S
O340 C342 1.245 . S
O341 C317 1.247 . S
O341 Mg323 2.061 . S
C342 O338 1.277 . S
C342 O340 1.245 . S
O343 C317 1.289 . S
O343 Mg320 2.238 . S
O343 Mg321 2.106 1_565 S
O344 Mg321 2.080 . S
O344 C326 1.245 . S
O345 Mg324 2.038 . S
O345 C326 1.274 . S
C346 C347 1.387 . S
C346 H350 0.950 . S
C346 C355 1.390 . S
C347 C346 1.387 . S
C347 C349 1.387 . S
H348 C355 0.950 . S
C349 C347 1.387 . S
C349 C351 1.390 . S
C349 H353 0.950 . S
H350 C346 0.950 . S
C351 C349 1.390 . S
C351 C352 1.387 . S
C351 H354 0.950 . S
C352 C351 1.387 . S
C352 C355 1.387 . S
H353 C349 0.950 . S
H354 C351 0.950 . S
C355 C346 1.390 . S
C355 H348 0.950 . S
C355 C352 1.387 . S
C356 C357 1.387 . S
C356 H360 0.950 . S
C356 C365 1.390 . S
C357 C356 1.387 . S
C357 C359 1.387 . S
H358 C365 0.950 . S
C359 C357 1.387 . S
C359 C361 1.390 . S
C359 H363 0.950 . S
H360 C356 0.950 . S
C361 C359 1.390 . S
C361 C362 1.387 . S
C361 H364 0.950 . S
C362 C361 1.387 . S
C362 C365 1.387 . S
H363 C359 0.950 . S
H364 C361 0.950 . S
C365 C356 1.390 . S
C365 H358 0.950 . S
C365 C362 1.387 . S
C366 C367 1.387 . S
C366 H370 0.950 . S
C366 C375 1.390 . S
C367 C366 1.387 . S
C367 C369 1.387 . S
H368 C375 0.950 . S
C369 C367 1.387 . S
C369 C371 1.390 . S
C369 H373 0.950 . S
H370 C366 0.950 . S
C371 C369 1.390 . S
C371 C372 1.387 . S
C371 H374 0.950 . S
C372 C371 1.387 . S
C372 C375 1.387 . S
H373 C369 0.950 . S
H374 C371 0.950 . S
C375 C366 1.390 . S
C375 H368 0.950 . S
C375 C372 1.387 . S
C376 C377 1.387 . S
C376 H380 0.950 . S
C376 C385 1.390 . S
C377 C376 1.387 . S
C377 C379 1.387 . S
H378 C385 0.950 . S
C379 C377 1.387 . S
C379 C381 1.390 . S
C379 H383 0.950 . S
H380 C376 0.950 . S
C381 C379 1.390 . S
C381 C382 1.387 . S
C381 H384 0.950 . S
C382 C381 1.387 . S
C382 C385 1.387 . S
H383 C379 0.950 . S
H384 C381 0.950 . S
C385 C376 1.390 . S
C385 H378 0.950 . S
C385 C382 1.387 . S
C386 C387 1.387 . S
C386 H390 0.950 . S
C386 C395 1.390 . S
C387 C386 1.387 . S
C387 C389 1.387 . S
H388 C395 0.950 . S
C389 C387 1.387 . S
C389 C391 1.390 . S
C389 H393 0.950 . S
H390 C386 0.950 . S
C391 C389 1.390 . S
C391 C392 1.387 . S
C391 H394 0.950 . S
C392 C391 1.387 . S
C392 C395 1.387 . S
H393 C389 0.950 . S
H394 C391 0.950 . S
C395 C386 1.390 . S
C395 H388 0.950 . S
C395 C392 1.387 . S
C396 C397 1.387 . S
C396 H400 0.950 . S
C396 C405 1.390 . S
C397 C396 1.387 . S
C397 C399 1.387 . S
H398 C405 0.950 . S
C399 C397 1.387 . S
C399 C401 1.390 . S
C399 H403 0.950 . S
H400 C396 0.950 . S
C401 C399 1.390 . S
C401 C402 1.387 . S
C401 H404 0.950 . S
C402 C401 1.387 . S
C402 C405 1.387 . S
H403 C399 0.950 . S
H404 C401 0.950 . S
C405 C396 1.390 . S
C405 H398 0.950 . S
C405 C402 1.387 . S
C406 C407 1.387 . S
C406 H410 0.950 . S
C406 C415 1.390 . S
C407 C406 1.387 . S
C407 C409 1.387 . S
H408 C415 0.950 . S
C409 C407 1.387 . S
C409 C411 1.390 . S
C409 H413 0.950 . S
H410 C406 0.950 . S
C411 C409 1.390 . S
C411 C412 1.387 . S
C411 H414 0.950 . S
C412 C411 1.387 . S
C412 C415 1.387 . S
H413 C409 0.950 . S
H414 C411 0.950 . S
C415 C406 1.390 . S
C415 H408 0.950 . S
C415 C412 1.387 . S
C416 C417 1.387 . S
C416 H420 0.950 . S
C416 C425 1.390 . S
C417 C416 1.387 . S
C417 C419 1.387 . S
H418 C425 0.950 . S
C419 C417 1.387 . S
C419 C421 1.390 . S
C419 H423 0.950 . S
H420 C416 0.950 . S
C421 C419 1.390 . S
C421 C422 1.387 . S
C421 H424 0.950 . S
C422 C421 1.387 . S
C422 C425 1.387 . S
H423 C419 0.950 . S
H424 C421 0.950 . S
C425 C416 1.390 . S
C425 H418 0.950 . S
C425 C422 1.387 . S
C426 C427 1.387 . S
C426 H430 0.950 . S
C426 C435 1.390 . S
C427 C426 1.387 . S
C427 C429 1.387 . S
H428 C435 0.950 . S
C429 C427 1.387 . S
C429 C431 1.390 . S
C429 H433 0.950 . S
H430 C426 0.950 . S
C431 C429 1.390 . S
C431 C432 1.387 . S
C431 H434 0.950 . S
C432 C431 1.387 . S
C432 C435 1.387 . S
H433 C429 0.950 . S
H434 C431 0.950 . S
C435 C426 1.390 . S
C435 H428 0.950 . S
C435 C432 1.387 . S
C436 C437 1.387 . S
C436 H440 0.950 . S
C436 C445 1.390 . S
C437 C436 1.387 . S
C437 C439 1.387 . S
H438 C445 0.950 . S
C439 C437 1.387 . S
C439 C441 1.390 . S
C439 H443 0.950 . S
H440 C436 0.950 . S
C441 C439 1.390 . S
C441 C442 1.387 . S
C441 H444 0.950 . S
C442 C441 1.387 . S
C442 C445 1.387 . S
H443 C439 0.950 . S
H444 C441 0.950 . S
C445 C436 1.390 . S
C445 H438 0.950 . S
C445 C442 1.387 . S
C446 C447 1.387 . S
C446 H450 0.950 . S
C446 C455 1.390 . S
C447 C446 1.387 . S
C447 C449 1.387 . S
H448 C455 0.950 . S
C449 C447 1.387 . S
C449 C451 1.390 . S
C449 H453 0.950 . S
H450 C446 0.950 . S
C451 C449 1.390 . S
C451 C452 1.387 . S
C451 H454 0.950 . S
C452 C451 1.387 . S
C452 C455 1.387 . S
H453 C449 0.950 . S
H454 C451 0.950 . S
C455 C446 1.390 . S
C455 H448 0.950 . S
C455 C452 1.387 . S
C456 C457 1.387 . S
C456 H460 0.950 . S
C456 C465 1.390 . S
C457 C456 1.387 . S
C457 C459 1.387 . S
H458 C465 0.950 . S
C459 C457 1.387 . S
C459 C461 1.390 . S
C459 H463 0.950 . S
H460 C456 0.950 . S
C461 C459 1.390 . S
C461 C462 1.387 . S
C461 H464 0.950 . S
C462 C461 1.387 . S
C462 C465 1.387 . S
H463 C459 0.950 . S
H464 C461 0.950 . S
C465 C456 1.390 . S
C465 H458 0.950 . S
C465 C462 1.387 . S
C466 C467 1.387 . S
C466 H470 0.950 . S
C466 C475 1.390 . S
C467 C466 1.387 . S
C467 C469 1.387 . S
H468 C475 0.950 . S
C469 C467 1.387 . S
C469 C471 1.390 . S
C469 H473 0.950 . S
H470 C466 0.950 . S
C471 C469 1.390 . S
C471 C472 1.387 . S
C471 H474 0.950 . S
C472 C471 1.387 . S
C472 C475 1.387 . S
H473 C469 0.950 . S
H474 C471 0.950 . S
C475 C466 1.390 . S
C475 H468 0.950 . S
C475 C472 1.387 . S
C476 C477 1.387 . S
C476 H480 0.950 . S
C476 C485 1.390 . S
C477 C476 1.387 . S
C477 C479 1.387 . S
H478 C485 0.950 . S
C479 C477 1.387 . S
C479 C481 1.390 . S
C479 H483 0.950 . S
H480 C476 0.950 . S
C481 C479 1.390 . S
C481 C482 1.387 . S
C481 H484 0.950 . S
C482 C481 1.387 . S
C482 C485 1.387 . S
H483 C479 0.950 . S
H484 C481 0.950 . S
C485 C476 1.390 . S
C485 H478 0.950 . S
C485 C482 1.387 . S
C486 C487 1.387 . S
C486 H490 0.950 . S
C486 C495 1.390 . S
C487 C486 1.387 . S
C487 C489 1.387 . S
H488 C495 0.950 . S
C489 C487 1.387 . S
C489 C491 1.390 . S
C489 H493 0.950 . S
H490 C486 0.950 . S
C491 C489 1.390 . S
C491 C492 1.387 . S
C491 H494 0.950 . S
C492 C491 1.387 . S
C492 C495 1.387 . S
H493 C489 0.950 . S
H494 C491 0.950 . S
C495 C486 1.390 . S
C495 H488 0.950 . S
C495 C492 1.387 . S
C496 C497 1.387 . S
C496 H500 0.950 . S
C496 C505 1.390 . S
C497 C496 1.387 . S
C497 C499 1.387 . S
H498 C505 0.950 . S
C499 C497 1.387 . S
C499 C501 1.390 . S
C499 H503 0.950 . S
H500 C496 0.950 . S
C501 C499 1.390 . S
C501 C502 1.387 . S
C501 H504 0.950 . S
C502 C501 1.387 . S
C502 C505 1.387 . S
H503 C499 0.950 . S
H504 C501 0.950 . S
C505 C496 1.390 . S
C505 H498 0.950 . S
C505 C502 1.387 . S
C506 C507 1.387 . S
C506 H510 0.950 . S
C506 C515 1.390 . S
C507 C506 1.387 . S
C507 C509 1.387 . S
H508 C515 0.950 . S
C509 C507 1.387 . S
C509 C511 1.390 . S
C509 H513 0.950 . S
H510 C506 0.950 . S
C511 C509 1.390 . S
C511 C512 1.387 . S
C511 H514 0.950 . S
C512 C511 1.387 . S
C512 C515 1.387 . S
H513 C509 0.950 . S
H514 C511 0.950 . S
C515 C506 1.390 . S
C515 H508 0.950 . S
C515 C512 1.387 . S
C516 C517 1.387 . S
C516 H520 0.950 . S
C516 C525 1.390 . S
C517 C516 1.387 . S
C517 C519 1.387 . S
H518 C525 0.950 . S
C519 C517 1.387 . S
C519 C521 1.390 . S
C519 H523 0.950 . S
H520 C516 0.950 . S
C521 C519 1.390 . S
C521 C522 1.387 . S
C521 H524 0.950 . S
C522 C521 1.387 . S
C522 C525 1.387 . S
H523 C519 0.950 . S
H524 C521 0.950 . S
C525 C516 1.390 . S
C525 H518 0.950 . S
C525 C522 1.387 . S
C526 C527 1.387 . S
C526 H530 0.950 . S
C526 C535 1.390 . S
C527 C526 1.387 . S
C527 C529 1.387 . S
H528 C535 0.950 . S
C529 C527 1.387 . S
C529 C531 1.390 . S
C529 H533 0.950 . S
H530 C526 0.950 . S
C531 C529 1.390 . S
C531 C532 1.387 . S
C531 H534 0.950 . S
C532 C531 1.387 . S
C532 C535 1.387 . S
H533 C529 0.950 . S
H534 C531 0.950 . S
C535 C526 1.390 . S
C535 H528 0.950 . S
C535 C532 1.387 . S
C536 C537 1.387 . S
C536 H540 0.950 . S
C536 C545 1.390 . S
C537 C536 1.387 . S
C537 C539 1.387 . S
H538 C545 0.950 . S
C539 C537 1.387 . S
C539 C541 1.390 . S
C539 H543 0.950 . S
H540 C536 0.950 . S
C541 C539 1.390 . S
C541 C542 1.387 . S
C541 H544 0.950 . S
C542 C541 1.387 . S
C542 C545 1.387 . S
H543 C539 0.950 . S
H544 C541 0.950 . S
C545 C536 1.390 . S
C545 H538 0.950 . S
C545 C542 1.387 . S
C546 C547 1.387 . S
C546 H550 0.950 . S
C546 C555 1.390 . S
C547 C546 1.387 . S
C547 C549 1.387 . S
H548 C555 0.950 . S
C549 C547 1.387 . S
C549 C551 1.390 . S
C549 H553 0.950 . S
H550 C546 0.950 . S
C551 C549 1.390 . S
C551 C552 1.387 . S
C551 H554 0.950 . S
C552 C551 1.387 . S
C552 C555 1.387 . S
H553 C549 0.950 . S
H554 C551 0.950 . S
C555 C546 1.390 . S
C555 H548 0.950 . S
C555 C552 1.387 . S
C556 C557 1.387 . S
C556 H560 0.950 . S
C556 C565 1.390 . S
C557 C556 1.387 . S
C557 C559 1.387 . S
H558 C565 0.950 . S
C559 C557 1.387 . S
C559 C561 1.390 . S
C559 H563 0.950 . S
H560 C556 0.950 . S
C561 C559 1.390 . S
C561 C562 1.387 . S
C561 H564 0.950 . S
C562 C561 1.387 . S
C562 C565 1.387 . S
H563 C559 0.950 . S
H564 C561 0.950 . S
C565 C556 1.390 . S
C565 H558 0.950 . S
C565 C562 1.387 . S
C566 C567 1.387 . S
C566 H570 0.950 . S
C566 C575 1.390 . S
C567 C566 1.387 . S
C567 C569 1.387 . S
H568 C575 0.950 . S
C569 C567 1.387 . S
C569 C571 1.390 . S
C569 H573 0.950 . S
H570 C566 0.950 . S
C571 C569 1.390 . S
C571 C572 1.387 . S
C571 H574 0.950 . S
C572 C571 1.387 . S
C572 C575 1.387 . S
H573 C569 0.950 . S
H574 C571 0.950 . S
C575 C566 1.390 . S
C575 H568 0.950 . S
C575 C572 1.387 . S
C576 C577 1.387 . S
C576 H580 0.950 . S
C576 C585 1.390 . S
C577 C576 1.387 . S
C577 C579 1.387 . S
H578 C585 0.950 . S
C579 C577 1.387 . S
C579 C581 1.390 . S
C579 H583 0.950 . S
H580 C576 0.950 . S
C581 C579 1.390 . S
C581 C582 1.387 . S
C581 H584 0.950 . S
C582 C581 1.387 . S
C582 C585 1.387 . S
H583 C579 0.950 . S
H584 C581 0.950 . S
C585 C576 1.390 . S
C585 H578 0.950 . S
C585 C582 1.387 . S
C586 C587 1.387 . S
C586 H590 0.950 . S
C586 C595 1.390 . S
C587 C586 1.387 . S
C587 C589 1.387 . S
H588 C595 0.950 . S
C589 C587 1.387 . S
C589 C591 1.390 . S
C589 H593 0.950 . S
H590 C586 0.950 . S
C591 C589 1.390 . S
C591 C592 1.387 . S
C591 H594 0.950 . S
C592 C591 1.387 . S
C592 C595 1.387 . S
H593 C589 0.950 . S
H594 C591 0.950 . S
C595 C586 1.390 . S
C595 H588 0.950 . S
C595 C592 1.387 . S
C596 C597 1.387 . S
C596 H600 0.950 . S
C596 C605 1.390 . S
C597 C596 1.387 . S
C597 C599 1.387 . S
H598 C605 0.950 . S
C599 C597 1.387 . S
C599 C601 1.390 . S
C599 H603 0.950 . S
H600 C596 0.950 . S
C601 C599 1.390 . S
C601 C602 1.387 . S
C601 H604 0.950 . S
C602 C601 1.387 . S
C602 C605 1.387 . S
H603 C599 0.950 . S
H604 C601 0.950 . S
C605 C596 1.390 . S
C605 H598 0.950 . S
C605 C602 1.387 . S
C606 C607 1.387 . S
C606 H610 0.950 . S
C606 C615 1.390 . S
C607 C606 1.387 . S
C607 C609 1.387 . S
H608 C615 0.950 . S
C609 C607 1.387 . S
C609 C611 1.390 . S
C609 H613 0.950 . S
H610 C606 0.950 . S
C611 C609 1.390 . S
C611 C612 1.387 . S
C611 H614 0.950 . S
C612 C611 1.387 . S
C612 C615 1.387 . S
H613 C609 0.950 . S
H614 C611 0.950 . S
C615 C606 1.390 . S
C615 H608 0.950 . S
C615 C612 1.387 . S
C616 C617 1.387 . S
C616 H620 0.950 . S
C616 C625 1.390 . S
C617 C616 1.387 . S
C617 C619 1.387 . S
H618 C625 0.950 . S
C619 C617 1.387 . S
C619 C621 1.390 . S
C619 H623 0.950 . S
H620 C616 0.950 . S
C621 C619 1.390 . S
C621 C622 1.387 . S
C621 H624 0.950 . S
C622 C621 1.387 . S
C622 C625 1.387 . S
H623 C619 0.950 . S
H624 C621 0.950 . S
C625 C616 1.390 . S
C625 H618 0.950 . S
C625 C622 1.387 . S
C626 C627 1.387 . S
C626 H630 0.950 . S
C626 C635 1.390 . S
C627 C626 1.387 . S
C627 C629 1.387 . S
H628 C635 0.950 . S
C629 C627 1.387 . S
C629 C631 1.390 . S
C629 H633 0.950 . S
H630 C626 0.950 . S
C631 C629 1.390 . S
C631 C632 1.387 . S
C631 H634 0.950 . S
C632 C631 1.387 . S
C632 C635 1.387 . S
H633 C629 0.950 . S
H634 C631 0.950 . S
C635 C626 1.390 . S
C635 H628 0.950 . S
C635 C632 1.387 . S
C636 C637 1.387 . S
C636 H640 0.950 . S
C636 C645 1.390 . S
C637 C636 1.387 . S
C637 C639 1.387 . S
H638 C645 0.950 . S
C639 C637 1.387 . S
C639 C641 1.390 . S
C639 H643 0.950 . S
H640 C636 0.950 . S
C641 C639 1.390 . S
C641 C642 1.387 . S
C641 H644 0.950 . S
C642 C641 1.387 . S
C642 C645 1.387 . S
H643 C639 0.950 . S
H644 C641 0.950 . S
C645 C636 1.390 . S
C645 H638 0.950 . S
C645 C642 1.387 . S
C646 C647 1.387 . S
C646 H650 0.950 . S
C646 C655 1.390 . S
C647 C646 1.387 . S
C647 C649 1.387 . S
H648 C655 0.950 . S
C649 C647 1.387 . S
C649 C651 1.390 . S
C649 H653 0.950 . S
H650 C646 0.950 . S
C651 C649 1.390 . S
C651 C652 1.387 . S
C651 H654 0.950 . S
C652 C651 1.387 . S
C652 C655 1.387 . S
H653 C649 0.950 . S
H654 C651 0.950 . S
C655 C646 1.390 . S
C655 H648 0.950 . S
C655 C652 1.387 . S
C656 C657 1.387 . S
C656 H660 0.950 . S
C656 C665 1.390 . S
C657 C656 1.387 . S
C657 C659 1.387 . S
H658 C665 0.950 . S
C659 C657 1.387 . S
C659 C661 1.390 . S
C659 H663 0.950 . S
H660 C656 0.950 . S
C661 C659 1.390 . S
C661 C662 1.387 . S
C661 H664 0.950 . S
C662 C661 1.387 . S
C662 C665 1.387 . S
H663 C659 0.950 . S
H664 C661 0.950 . S
C665 C656 1.390 . S
C665 H658 0.950 . S
C665 C662 1.387 . S
C666 C667 1.387 . S
C666 H670 0.950 . S
C666 C675 1.390 . S
C667 C666 1.387 . S
C667 C669 1.387 . S
H668 C675 0.950 . S
C669 C667 1.387 . S
C669 C671 1.390 . S
C669 H673 0.950 . S
H670 C666 0.950 . S
C671 C669 1.390 . S
C671 C672 1.387 . S
C671 H674 0.950 . S
C672 C671 1.387 . S
C672 C675 1.387 . S
H673 C669 0.950 . S
H674 C671 0.950 . S
C675 C666 1.390 . S
C675 H668 0.950 . S
C675 C672 1.387 . S
C676 C677 1.387 . S
C676 H680 0.950 . S
C676 C685 1.390 . S
C677 C676 1.387 . S
C677 C679 1.387 . S
H678 C685 0.950 . S
C679 C677 1.387 . S
C679 C681 1.390 . S
C679 H683 0.950 . S
H680 C676 0.950 . S
C681 C679 1.390 . S
C681 C682 1.387 . S
C681 H684 0.950 . S
C682 C681 1.387 . S
C682 C685 1.387 . S
H683 C679 0.950 . S
H684 C681 0.950 . S
C685 C676 1.390 . S
C685 H678 0.950 . S
C685 C682 1.387 . S
C686 C687 1.387 . S
C686 H690 0.950 . S
C686 C695 1.390 . S
C687 C686 1.387 . S
C687 C689 1.387 . S
H688 C695 0.950 . S
C689 C687 1.387 . S
C689 C691 1.390 . S
C689 H693 0.950 . S
H690 C686 0.950 . S
C691 C689 1.390 . S
C691 C692 1.387 . S
C691 H694 0.950 . S
C692 C691 1.387 . S
C692 C695 1.387 . S
H693 C689 0.950 . S
H694 C691 0.950 . S
C695 C686 1.390 . S
C695 H688 0.950 . S
C695 C692 1.387 . S
C696 C697 1.387 . S
C696 H700 0.950 . S
C696 C705 1.390 . S
C697 C696 1.387 . S
C697 C699 1.387 . S
H698 C705 0.950 . S
C699 C697 1.387 . S
C699 C701 1.390 . S
C699 H703 0.950 . S
H700 C696 0.950 . S
C701 C699 1.390 . S
C701 C702 1.387 . S
C701 H704 0.950 . S
C702 C701 1.387 . S
C702 C705 1.387 . S
H703 C699 0.950 . S
H704 C701 0.950 . S
C705 C696 1.390 . S
C705 H698 0.950 . S
C705 C702 1.387 . S
C706 C707 1.387 . S
C706 H710 0.950 . S
C706 C715 1.390 . S
C707 C706 1.387 . S
C707 C709 1.387 . S
H708 C715 0.950 . S
C709 C707 1.387 . S
C709 C711 1.390 . S
C709 H713 0.950 . S
H710 C706 0.950 . S
C711 C709 1.390 . S
C711 C712 1.387 . S
C711 H714 0.950 . S
C712 C711 1.387 . S
C712 C715 1.387 . S
H713 C709 0.950 . S
H714 C711 0.950 . S
C715 C706 1.390 . S
C715 H708 0.950 . S
C715 C712 1.387 . S
C716 C717 1.387 . S
C716 H720 0.950 . S
C716 C725 1.390 . S
C717 C716 1.387 . S
C717 C719 1.387 . S
H718 C725 0.950 . S
C719 C717 1.387 . S
C719 C721 1.390 . S
C719 H723 0.950 . S
H720 C716 0.950 . S
C721 C719 1.390 . S
C721 C722 1.387 . S
C721 H724 0.950 . S
C722 C721 1.387 . S
C722 C725 1.387 . S
H723 C719 0.950 . S
H724 C721 0.950 . S
C725 C716 1.390 . S
C725 H718 0.950 . S
C725 C722 1.387 . S
C726 C727 1.387 . S
C726 H730 0.950 . S
C726 C735 1.390 . S
C727 C726 1.387 . S
C727 C729 1.387 . S
H728 C735 0.950 . S
C729 C727 1.387 . S
C729 C731 1.390 . S
C729 H733 0.950 . S
H730 C726 0.950 . S
C731 C729 1.390 . S
C731 C732 1.387 . S
C731 H734 0.950 . S
C732 C731 1.387 . S
C732 C735 1.387 . S
H733 C729 0.950 . S
H734 C731 0.950 . S
C735 C726 1.390 . S
C735 H728 0.950 . S
C735 C732 1.387 . S
C736 C737 1.387 . S
C736 H740 0.950 . S
C736 C745 1.390 . S
C737 C736 1.387 . S
C737 C739 1.387 . S
H738 C745 0.950 . S
C739 C737 1.387 . S
C739 C741 1.390 . S
C739 H743 0.950 . S
H740 C736 0.950 . S
C741 C739 1.390 . S
C741 C742 1.387 . S
C741 H744 0.950 . S
C742 C741 1.387 . S
C742 C745 1.387 . S
H743 C739 0.950 . S
H744 C741 0.950 . S
C745 C736 1.390 . S
C745 H738 0.950 . S
C745 C742 1.387 . S
C746 C747 1.387 . S
C746 H750 0.950 . S
C746 C755 1.390 . S
C747 C746 1.387 . S
C747 C749 1.387 . S
H748 C755 0.950 . S
C749 C747 1.387 . S
C749 C751 1.390 . S
C749 H753 0.950 . S
H750 C746 0.950 . S
C751 C749 1.390 . S
C751 C752 1.387 . S
C751 H754 0.950 . S
C752 C751 1.387 . S
C752 C755 1.387 . S
H753 C749 0.950 . S
H754 C751 0.950 . S
C755 C746 1.390 . S
C755 H748 0.950 . S
C755 C752 1.387 . S
C756 C757 1.387 . S
C756 H760 0.950 . S
C756 C765 1.390 . S
C757 C756 1.387 . S
C757 C759 1.387 . S
H758 C765 0.950 . S
C759 C757 1.387 . S
C759 C761 1.390 . S
C759 H763 0.950 . S
H760 C756 0.950 . S
C761 C759 1.390 . S
C761 C762 1.387 . S
C761 H764 0.950 . S
C762 C761 1.387 . S
C762 C765 1.387 . S
H763 C759 0.950 . S
H764 C761 0.950 . S
C765 C756 1.390 . S
C765 H758 0.950 . S
C765 C762 1.387 . S
C766 C767 1.387 . S
C766 H770 0.950 . S
C766 C775 1.390 . S
C767 C766 1.387 . S
C767 C769 1.387 . S
H768 C775 0.950 . S
C769 C767 1.387 . S
C769 C771 1.390 . S
C769 H773 0.950 . S
H770 C766 0.950 . S
C771 C769 1.390 . S
C771 C772 1.387 . S
C771 H774 0.950 . S
C772 C771 1.387 . S
C772 C775 1.387 . S
H773 C769 0.950 . S
H774 C771 0.950 . S
C775 C766 1.390 . S
C775 H768 0.950 . S
C775 C772 1.387 . S
C776 C777 1.387 . S
C776 H780 0.950 . S
C776 C785 1.390 . S
C777 C776 1.387 . S
C777 C779 1.387 . S
H778 C785 0.950 . S
C779 C777 1.387 . S
C779 C781 1.390 . S
C779 H783 0.950 . S
H780 C776 0.950 . S
C781 C779 1.390 . S
C781 C782 1.387 . S
C781 H784 0.950 . S
C782 C781 1.387 . S
C782 C785 1.387 . S
H783 C779 0.950 . S
H784 C781 0.950 . S
C785 C776 1.390 . S
C785 H778 0.950 . S
C785 C782 1.387 . S
C786 C787 1.387 . S
C786 H790 0.950 . S
C786 C795 1.390 . S
C787 C786 1.387 . S
C787 C789 1.387 . S
H788 C795 0.950 . S
C789 C787 1.387 . S
C789 C791 1.390 . S
C789 H793 0.950 . S
H790 C786 0.950 . S
C791 C789 1.390 . S
C791 C792 1.387 . S
C791 H794 0.950 . S
C792 C791 1.387 . S
C792 C795 1.387 . S
H793 C789 0.950 . S
H794 C791 0.950 . S
C795 C786 1.390 . S
C795 H788 0.950 . S
C795 C792 1.387 . S
C796 C797 1.387 . S
C796 H800 0.950 . S
C796 C805 1.390 . S
C797 C796 1.387 . S
C797 C799 1.387 . S
H798 C805 0.950 . S
C799 C797 1.387 . S
C799 C801 1.390 . S
C799 H803 0.950 . S
H800 C796 0.950 . S
C801 C799 1.390 . S
C801 C802 1.387 . S
C801 H804 0.950 . S
C802 C801 1.387 . S
C802 C805 1.387 . S
H803 C799 0.950 . S
H804 C801 0.950 . S
C805 C796 1.390 . S
C805 H798 0.950 . S
C805 C802 1.387 . S
C806 C807 1.387 . S
C806 H810 0.950 . S
C806 C815 1.390 . S
C807 C806 1.387 . S
C807 C809 1.387 . S
H808 C815 0.950 . S
C809 C807 1.387 . S
C809 C811 1.390 . S
C809 H813 0.950 . S
H810 C806 0.950 . S
C811 C809 1.390 . S
C811 C812 1.387 . S
C811 H814 0.950 . S
C812 C811 1.387 . S
C812 C815 1.387 . S
H813 C809 0.950 . S
H814 C811 0.950 . S
C815 C806 1.390 . S
C815 H808 0.950 . S
C815 C812 1.387 . S
C816 C817 1.387 . S
C816 H820 0.950 . S
C816 C825 1.390 . S
C817 C816 1.387 . S
C817 C819 1.387 . S
H818 C825 0.950 . S
C819 C817 1.387 . S
C819 C821 1.390 . S
C819 H823 0.950 . S
H820 C816 0.950 . S
C821 C819 1.390 . S
C821 C822 1.387 . S
C821 H824 0.950 . S
C822 C821 1.387 . S
C822 C825 1.387 . S
H823 C819 0.950 . S
H824 C821 0.950 . S
C825 C816 1.390 . S
C825 H818 0.950 . S
C825 C822 1.387 . S
C352 C171 1.627 . S
C347 C9 1.651 . S
C362 C161 1.324 . S
C357 C22 1.320 . S
C372 C162 1.088 . S
C367 C49 1.098 . S
C377 C61 1.268 . S
C382 C184 1.256 . S
C387 C81 1.316 . S
C392 C187 1.320 . S
C402 C170 1.087 . S
C397 C108 1.097 . S
C407 C122 1.268 . S
C412 C160 1.258 . S
C417 C148 1.651 . S
C422 C178 1.626 . S
C432 C191 2.106 . S
C427 C18 2.078 . S
C437 C39 1.503 . S
C442 C240 1.470 . S
C452 C218 2.181 . S
C447 C58 2.153 . S
C462 C232 1.030 . S
C457 C69 1.074 . S
C467 C89 1.061 . S
C472 C193 1.039 . S
C482 C246 1.291 . S
C477 C102 1.333 . S
C487 C139 1.499 . S
C492 C202 1.471 . S
C497 C142 1.344 . S
C502 C223 1.329 . S
C507 C1 1.344 . S
C512 C249 1.325 . S
C517 C98 1.502 . S
C522 C233 1.468 . S
C532 C192 2.182 . S
C527 C119 2.155 . S
C542 C224 1.025 . S
C537 C128 1.076 . S
C547 C159 2.079 . S
C552 C215 2.107 . S
C557 C41 1.337 . S
C562 C222 1.293 . S
C572 C209 1.471 . S
C567 C78 1.500 . S
C577 C28 1.060 . S
C582 C201 1.039 . S
C587 C149 1.651 . S
C592 C264 1.625 . S
C597 C82 1.320 . S
C602 C254 1.324 . S
C612 C255 1.086 . S
C607 C109 1.099 . S
C622 C277 1.257 . S
C617 C121 1.270 . S
C627 C21 1.318 . S
C632 C280 1.321 . S
C642 C263 1.087 . S
C637 C48 1.097 . S
C647 C62 1.267 . S
C652 C253 1.255 . S
C657 C8 1.651 . S
C662 C271 1.625 . S
C667 C158 2.078 . S
C672 C284 2.108 . S
C682 C333 1.466 . S
C677 C99 1.500 . S
C687 C118 2.154 . S
C692 C311 2.179 . S
C697 C129 1.074 . S
C702 C325 1.027 . S
C712 C286 1.039 . S
C707 C29 1.063 . S
C717 C42 1.336 . S
C722 C339 1.289 . S
C732 C295 1.471 . S
C727 C79 1.498 . S
C742 C316 1.327 . S
C737 C2 1.345 . S
C752 C342 1.326 . S
C747 C141 1.345 . S
C757 C38 1.502 . S
C762 C326 1.469 . S
C767 C59 2.155 . S
C772 C285 2.184 . S
C782 C317 1.025 . S
C777 C68 1.076 . S
C787 C19 2.077 . S
C792 C308 2.106 . S
C797 C101 1.337 . S
C802 C315 1.293 . S
C812 C302 1.474 . S
C807 C138 1.501 . S
C822 C294 1.036 . S
C817 C88 1.058 . S
