# Generated by pormake.
# Topology gar, (4,6)-cn, num edge types: 1
# Building blocks:
#     Node 0, Type 0, BuildingBlock: GALJAG_clean_sbu_0, # of connection points: 4
#     Node 1, Type 0, BuildingBlock: GALJAG_clean_sbu_0, # of connection points: 4
#     Node 2, Type 0, BuildingBlock: GALJAG_clean_sbu_0, # of connection points: 4
#     Node 3, Type 0, BuildingBlock: GALJAG_clean_sbu_0, # of connection points: 4
#     Node 4, Type 0, BuildingBlock: GALJAG_clean_sbu_0, # of connection points: 4
#     Node 5, Type 0, BuildingBlock: GALJAG_clean_sbu_0, # of connection points: 4
#     Node 6, Type 0, BuildingBlock: GALJAG_clean_sbu_0, # of connection points: 4
#     Node 7, Type 0, BuildingBlock: GALJAG_clean_sbu_0, # of connection points: 4
#     Node 8, Type 0, BuildingBlock: GALJAG_clean_sbu_0, # of connection points: 4
#     Node 9, Type 0, BuildingBlock: GALJAG_clean_sbu_0, # of connection points: 4
#     Node 10, Type 0, BuildingBlock: GALJAG_clean_sbu_0, # of connection points: 4
#     Node 11, Type 0, BuildingBlock: GALJAG_clean_sbu_0, # of connection points: 4
#     Node 12, Type 0, BuildingBlock: GALJAG_clean_sbu_0, # of connection points: 4
#     Node 13, Type 0, BuildingBlock: GALJAG_clean_sbu_0, # of connection points: 4
#     Node 14, Type 0, BuildingBlock: GALJAG_clean_sbu_0, # of connection points: 4
#     Node 15, Type 0, BuildingBlock: GALJAG_clean_sbu_0, # of connection points: 4
#     Node 16, Type 0, BuildingBlock: GALJAG_clean_sbu_0, # of connection points: 4
#     Node 17, Type 0, BuildingBlock: GALJAG_clean_sbu_0, # of connection points: 4
#     Node 18, Type 0, BuildingBlock: GALJAG_clean_sbu_0, # of connection points: 4
#     Node 19, Type 0, BuildingBlock: GALJAG_clean_sbu_0, # of connection points: 4
#     Node 20, Type 0, BuildingBlock: GALJAG_clean_sbu_0, # of connection points: 4
#     Node 21, Type 0, BuildingBlock: GALJAG_clean_sbu_0, # of connection points: 4
#     Node 22, Type 0, BuildingBlock: GALJAG_clean_sbu_0, # of connection points: 4
#     Node 23, Type 0, BuildingBlock: GALJAG_clean_sbu_0, # of connection points: 4
#     Node 24, Type 1, BuildingBlock: HISSIN_clean_sbu_0, # of connection points: 6
#     Node 25, Type 1, BuildingBlock: HISSIN_clean_sbu_0, # of connection points: 6
#     Node 26, Type 1, BuildingBlock: HISSIN_clean_sbu_0, # of connection points: 6
#     Node 27, Type 1, BuildingBlock: HISSIN_clean_sbu_0, # of connection points: 6
#     Node 28, Type 1, BuildingBlock: HISSIN_clean_sbu_0, # of connection points: 6
#     Node 29, Type 1, BuildingBlock: HISSIN_clean_sbu_0, # of connection points: 6
#     Node 30, Type 1, BuildingBlock: HISSIN_clean_sbu_0, # of connection points: 6
#     Node 31, Type 1, BuildingBlock: HISSIN_clean_sbu_0, # of connection points: 6
#     Node 32, Type 1, BuildingBlock: HISSIN_clean_sbu_0, # of connection points: 6
#     Node 33, Type 1, BuildingBlock: HISSIN_clean_sbu_0, # of connection points: 6
#     Node 34, Type 1, BuildingBlock: HISSIN_clean_sbu_0, # of connection points: 6
#     Node 35, Type 1, BuildingBlock: HISSIN_clean_sbu_0, # of connection points: 6
#     Node 36, Type 1, BuildingBlock: HISSIN_clean_sbu_0, # of connection points: 6
#     Node 37, Type 1, BuildingBlock: HISSIN_clean_sbu_0, # of connection points: 6
#     Node 38, Type 1, BuildingBlock: HISSIN_clean_sbu_0, # of connection points: 6
#     Node 39, Type 1, BuildingBlock: HISSIN_clean_sbu_0, # of connection points: 6
#     Edge 40, Type (0, 1), BuildingBlock: TEMPAE_clean_linker_10, # of connection points: 2
#     Edge 41, Type (0, 1), BuildingBlock: TEMPAE_clean_linker_10, # of connection points: 2
#     Edge 42, Type (0, 1), BuildingBlock: TEMPAE_clean_linker_10, # of connection points: 2
#     Edge 43, Type (0, 1), BuildingBlock: TEMPAE_clean_linker_10, # of connection points: 2
#     Edge 44, Type (0, 1), BuildingBlock: TEMPAE_clean_linker_10, # of connection points: 2
#     Edge 45, Type (0, 1), BuildingBlock: TEMPAE_clean_linker_10, # of connection points: 2
#     Edge 46, Type (0, 1), BuildingBlock: TEMPAE_clean_linker_10, # of connection points: 2
#     Edge 47, Type (0, 1), BuildingBlock: TEMPAE_clean_linker_10, # of connection points: 2
#     Edge 48, Type (0, 1), BuildingBlock: TEMPAE_clean_linker_10, # of connection points: 2
#     Edge 49, Type (0, 1), BuildingBlock: TEMPAE_clean_linker_10, # of connection points: 2
#     Edge 50, Type (0, 1), BuildingBlock: TEMPAE_clean_linker_10, # of connection points: 2
#     Edge 51, Type (0, 1), BuildingBlock: TEMPAE_clean_linker_10, # of connection points: 2
#     Edge 52, Type (0, 1), BuildingBlock: TEMPAE_clean_linker_10, # of connection points: 2
#     Edge 53, Type (0, 1), BuildingBlock: TEMPAE_clean_linker_10, # of connection points: 2
#     Edge 54, Type (0, 1), BuildingBlock: TEMPAE_clean_linker_10, # of connection points: 2
#     Edge 55, Type (0, 1), BuildingBlock: TEMPAE_clean_linker_10, # of connection points: 2
#     Edge 56, Type (0, 1), BuildingBlock: TEMPAE_clean_linker_10, # of connection points: 2
#     Edge 57, Type (0, 1), BuildingBlock: TEMPAE_clean_linker_10, # of connection points: 2
#     Edge 58, Type (0, 1), BuildingBlock: TEMPAE_clean_linker_10, # of connection points: 2
#     Edge 59, Type (0, 1), BuildingBlock: TEMPAE_clean_linker_10, # of connection points: 2
#     Edge 60, Type (0, 1), BuildingBlock: TEMPAE_clean_linker_10, # of connection points: 2
#     Edge 61, Type (0, 1), BuildingBlock: TEMPAE_clean_linker_10, # of connection points: 2
#     Edge 62, Type (0, 1), BuildingBlock: TEMPAE_clean_linker_10, # of connection points: 2
#     Edge 63, Type (0, 1), BuildingBlock: TEMPAE_clean_linker_10, # of connection points: 2
#     Edge 64, Type (0, 1), BuildingBlock: TEMPAE_clean_linker_10, # of connection points: 2
#     Edge 65, Type (0, 1), BuildingBlock: TEMPAE_clean_linker_10, # of connection points: 2
#     Edge 66, Type (0, 1), BuildingBlock: TEMPAE_clean_linker_10, # of connection points: 2
#     Edge 67, Type (0, 1), BuildingBlock: TEMPAE_clean_linker_10, # of connection points: 2
#     Edge 68, Type (0, 1), BuildingBlock: TEMPAE_clean_linker_10, # of connection points: 2
#     Edge 69, Type (0, 1), BuildingBlock: TEMPAE_clean_linker_10, # of connection points: 2
#     Edge 70, Type (0, 1), BuildingBlock: TEMPAE_clean_linker_10, # of connection points: 2
#     Edge 71, Type (0, 1), BuildingBlock: TEMPAE_clean_linker_10, # of connection points: 2
#     Edge 72, Type (0, 1), BuildingBlock: TEMPAE_clean_linker_10, # of connection points: 2
#     Edge 73, Type (0, 1), BuildingBlock: TEMPAE_clean_linker_10, # of connection points: 2
#     Edge 74, Type (0, 1), BuildingBlock: TEMPAE_clean_linker_10, # of connection points: 2
#     Edge 75, Type (0, 1), BuildingBlock: TEMPAE_clean_linker_10, # of connection points: 2
#     Edge 76, Type (0, 1), BuildingBlock: TEMPAE_clean_linker_10, # of connection points: 2
#     Edge 77, Type (0, 1), BuildingBlock: TEMPAE_clean_linker_10, # of connection points: 2
#     Edge 78, Type (0, 1), BuildingBlock: TEMPAE_clean_linker_10, # of connection points: 2
#     Edge 79, Type (0, 1), BuildingBlock: TEMPAE_clean_linker_10, # of connection points: 2
#     Edge 80, Type (0, 1), BuildingBlock: TEMPAE_clean_linker_10, # of connection points: 2
#     Edge 81, Type (0, 1), BuildingBlock: TEMPAE_clean_linker_10, # of connection points: 2
#     Edge 82, Type (0, 1), BuildingBlock: TEMPAE_clean_linker_10, # of connection points: 2
#     Edge 83, Type (0, 1), BuildingBlock: TEMPAE_clean_linker_10, # of connection points: 2
#     Edge 84, Type (0, 1), BuildingBlock: TEMPAE_clean_linker_10, # of connection points: 2
#     Edge 85, Type (0, 1), BuildingBlock: TEMPAE_clean_linker_10, # of connection points: 2
#     Edge 86, Type (0, 1), BuildingBlock: TEMPAE_clean_linker_10, # of connection points: 2
#     Edge 87, Type (0, 1), BuildingBlock: TEMPAE_clean_linker_10, # of connection points: 2
#     Edge 88, Type (0, 1), BuildingBlock: TEMPAE_clean_linker_10, # of connection points: 2
#     Edge 89, Type (0, 1), BuildingBlock: TEMPAE_clean_linker_10, # of connection points: 2
#     Edge 90, Type (0, 1), BuildingBlock: TEMPAE_clean_linker_10, # of connection points: 2
#     Edge 91, Type (0, 1), BuildingBlock: TEMPAE_clean_linker_10, # of connection points: 2
#     Edge 92, Type (0, 1), BuildingBlock: TEMPAE_clean_linker_10, # of connection points: 2
#     Edge 93, Type (0, 1), BuildingBlock: TEMPAE_clean_linker_10, # of connection points: 2
#     Edge 94, Type (0, 1), BuildingBlock: TEMPAE_clean_linker_10, # of connection points: 2
#     Edge 95, Type (0, 1), BuildingBlock: TEMPAE_clean_linker_10, # of connection points: 2
#     Edge 96, Type (0, 1), BuildingBlock: TEMPAE_clean_linker_10, # of connection points: 2
#     Edge 97, Type (0, 1), BuildingBlock: TEMPAE_clean_linker_10, # of connection points: 2
#     Edge 98, Type (0, 1), BuildingBlock: TEMPAE_clean_linker_10, # of connection points: 2
#     Edge 99, Type (0, 1), BuildingBlock: TEMPAE_clean_linker_10, # of connection points: 2
#     Edge 100, Type (0, 1), BuildingBlock: TEMPAE_clean_linker_10, # of connection points: 2
#     Edge 101, Type (0, 1), BuildingBlock: TEMPAE_clean_linker_10, # of connection points: 2
#     Edge 102, Type (0, 1), BuildingBlock: TEMPAE_clean_linker_10, # of connection points: 2
#     Edge 103, Type (0, 1), BuildingBlock: TEMPAE_clean_linker_10, # of connection points: 2
#     Edge 104, Type (0, 1), BuildingBlock: TEMPAE_clean_linker_10, # of connection points: 2
#     Edge 105, Type (0, 1), BuildingBlock: TEMPAE_clean_linker_10, # of connection points: 2
#     Edge 106, Type (0, 1), BuildingBlock: TEMPAE_clean_linker_10, # of connection points: 2
#     Edge 107, Type (0, 1), BuildingBlock: TEMPAE_clean_linker_10, # of connection points: 2
#     Edge 108, Type (0, 1), BuildingBlock: TEMPAE_clean_linker_10, # of connection points: 2
#     Edge 109, Type (0, 1), BuildingBlock: TEMPAE_clean_linker_10, # of connection points: 2
#     Edge 110, Type (0, 1), BuildingBlock: TEMPAE_clean_linker_10, # of connection points: 2
#     Edge 111, Type (0, 1), BuildingBlock: TEMPAE_clean_linker_10, # of connection points: 2
#     Edge 112, Type (0, 1), BuildingBlock: TEMPAE_clean_linker_10, # of connection points: 2
#     Edge 113, Type (0, 1), BuildingBlock: TEMPAE_clean_linker_10, # of connection points: 2
#     Edge 114, Type (0, 1), BuildingBlock: TEMPAE_clean_linker_10, # of connection points: 2
#     Edge 115, Type (0, 1), BuildingBlock: TEMPAE_clean_linker_10, # of connection points: 2
#     Edge 116, Type (0, 1), BuildingBlock: TEMPAE_clean_linker_10, # of connection points: 2
#     Edge 117, Type (0, 1), BuildingBlock: TEMPAE_clean_linker_10, # of connection points: 2
#     Edge 118, Type (0, 1), BuildingBlock: TEMPAE_clean_linker_10, # of connection points: 2
#     Edge 119, Type (0, 1), BuildingBlock: TEMPAE_clean_linker_10, # of connection points: 2
#     Edge 120, Type (0, 1), BuildingBlock: TEMPAE_clean_linker_10, # of connection points: 2
#     Edge 121, Type (0, 1), BuildingBlock: TEMPAE_clean_linker_10, # of connection points: 2
#     Edge 122, Type (0, 1), BuildingBlock: TEMPAE_clean_linker_10, # of connection points: 2
#     Edge 123, Type (0, 1), BuildingBlock: TEMPAE_clean_linker_10, # of connection points: 2
#     Edge 124, Type (0, 1), BuildingBlock: TEMPAE_clean_linker_10, # of connection points: 2
#     Edge 125, Type (0, 1), BuildingBlock: TEMPAE_clean_linker_10, # of connection points: 2
#     Edge 126, Type (0, 1), BuildingBlock: TEMPAE_clean_linker_10, # of connection points: 2
#     Edge 127, Type (0, 1), BuildingBlock: TEMPAE_clean_linker_10, # of connection points: 2
#     Edge 128, Type (0, 1), BuildingBlock: TEMPAE_clean_linker_10, # of connection points: 2
#     Edge 129, Type (0, 1), BuildingBlock: TEMPAE_clean_linker_10, # of connection points: 2
#     Edge 130, Type (0, 1), BuildingBlock: TEMPAE_clean_linker_10, # of connection points: 2
#     Edge 131, Type (0, 1), BuildingBlock: TEMPAE_clean_linker_10, # of connection points: 2
#     Edge 132, Type (0, 1), BuildingBlock: TEMPAE_clean_linker_10, # of connection points: 2
#     Edge 133, Type (0, 1), BuildingBlock: TEMPAE_clean_linker_10, # of connection points: 2
#     Edge 134, Type (0, 1), BuildingBlock: TEMPAE_clean_linker_10, # of connection points: 2
#     Edge 135, Type (0, 1), BuildingBlock: TEMPAE_clean_linker_10, # of connection points: 2
# Relax obj value: 0.190
# Max RMSD: 0.287
# Mean RMSD: 0.159
data_MOF--net-gar--node1-GALJAG_clean_sbu_0--node2-HISSIN_clean_sbu_0--edge1-TEMPAE_clean_linker_10
_symmetry_space_group_name_H-M    P1
_symmetry_Int_Tables_number       1
_symmetry_cell_setting            triclinic
loop_
_symmetry_equiv_pos_as_xyz
'x, y, z'
_cell_length_a     60.413257
_cell_length_b     60.208519
_cell_length_c     58.17111
_cell_angle_alpha  100.18701
_cell_angle_beta   93.305893
_cell_angle_gamma 100.26747
loop_
_atom_site_label
_atom_site_type_symbol
_atom_site_fract_x
_atom_site_fract_y
_atom_site_fract_z
_atom_type_partial_charge
In0 In 0.10198 0.32154 0.40333 0.0
O1 O 0.12555 0.30361 0.38087 0.0
O2 O 0.13795 0.33798 0.39869 0.0
C3 C 0.07317 0.31722 0.36511 0.0
C4 C 0.09702 0.29044 0.43191 0.0
C5 C 0.09343 0.36077 0.42815 0.0
O6 O 0.09256 0.32982 0.36772 0.0
O7 O 0.06843 0.3068 0.38173 0.0
O8 O 0.1131 0.35654 0.42733 0.0
O9 O 0.07808 0.34509 0.41674 0.0
C10 C 0.14163 0.32071 0.38483 0.0
O11 O 0.10827 0.31053 0.43846 0.0
O12 O 0.08877 0.28591 0.41086 0.0
In13 In 0.02916 0.79121 0.67004 0.0
O14 O 0.02882 0.79758 0.63272 0.0
O15 O 0.03274 0.82671 0.66017 0.0
C16 C 0.03574 0.74987 0.64868 0.0
C17 C 0.05917 0.8071 0.70811 0.0
C18 C 0.98851 0.78344 0.6863 0.0
O19 O 0.01669 0.75565 0.64819 0.0
O20 O 0.05172 0.7651 0.6598 0.0
O21 O 1.00272 0.77062 0.68761 0.0
O22 O 0.99474 0.80039 0.67652 0.0
C23 C 0.03165 0.81912 0.63841 0.0
O24 O 0.03826 0.80173 0.70946 0.0
O25 O 0.06497 0.80498 0.68747 0.0
In26 In 0.60637 0.82346 0.91181 0.0
O27 O 0.63132 0.8069 0.89029 0.0
O28 O 0.64134 0.84217 0.90612 0.0
C29 C 0.57387 0.81285 0.87605 0.0
C30 C 0.60177 0.79211 0.9401 0.0
C31 C 0.59904 0.8645 0.93413 0.0
O32 O 0.59442 0.81952 0.87332 0.0
O33 O 0.5698 0.81113 0.89682 0.0
O34 O 0.60961 0.85214 0.94421 0.0
O35 O 0.59237 0.85624 0.91298 0.0
C36 C 0.64623 0.82494 0.89322 0.0
O37 O 0.61682 0.81008 0.94443 0.0
O38 O 0.58933 0.78979 0.92137 0.0
In39 In 0.53022 0.29567 0.16911 0.0
O40 O 0.51538 0.25911 0.1503 0.0
O41 O 0.55113 0.26961 0.15414 0.0
C42 C 0.52964 0.32381 0.13785 0.0
C43 C 0.49283 0.28823 0.1914 0.0
C44 C 0.56473 0.31149 0.20278 0.0
O45 O 0.52395 0.3023 0.13218 0.0
O46 O 0.53522 0.33125 0.15942 0.0
O47 O 0.54477 0.31372 0.20624 0.0
O48 O 0.56725 0.30202 0.18223 0.0
C49 C 0.5343 0.25374 0.14668 0.0
O50 O 0.50886 0.27768 0.19348 0.0
O51 O 0.49566 0.30269 0.17799 0.0
In52 In 0.09605 0.8057 0.12438 0.0
O53 O 0.0834 0.77153 0.09969 0.0
O54 O 0.11578 0.77672 0.1185 0.0
C55 C 0.09939 0.83179 0.09099 0.0
C56 C 0.05525 0.80378 0.14103 0.0
C57 C 0.12535 0.81894 0.16318 0.0
O58 O 0.11018 0.81575 0.09111 0.0
O59 O 0.08752 0.83493 0.10792 0.0
O60 O 0.10745 0.80423 0.16166 0.0
O61 O 0.1286 0.82736 0.14498 0.0
C62 C 0.10068 0.76334 0.10412 0.0
O63 O 0.0696 0.82225 0.14358 0.0
O64 O 0.06129 0.78639 0.12955 0.0
In65 In 0.51699 0.80603 0.43259 0.0
O66 O 0.53362 0.78542 0.40399 0.0
O67 O 0.55443 0.81346 0.42711 0.0
C68 C 0.4813 0.80006 0.401 0.0
C69 C 0.51773 0.78398 0.46892 0.0
C70 C 0.51417 0.84855 0.45349 0.0
O71 O 0.48341 0.78546 0.41372 0.0
O72 O 0.4972 0.81726 0.40411 0.0
O73 O 0.50149 0.83092 0.45768 0.0
O74 O 0.52805 0.84467 0.43853 0.0
C75 C 0.5531 0.79742 0.40967 0.0
O76 O 0.5289 0.80386 0.46955 0.0
O77 O 0.50632 0.77479 0.44964 0.0
In78 In 0.59759 0.31901 0.62269 0.0
O79 O 0.58571 0.28444 0.59842 0.0
O80 O 0.60423 0.28511 0.63085 0.0
C81 C 0.6019 0.3427 0.58734 0.0
C82 C 0.55831 0.31999 0.64223 0.0
C83 C 0.63411 0.33421 0.6539 0.0
O84 O 0.61151 0.32599 0.58837 0.0
O85 O 0.59064 0.34779 0.60439 0.0
O86 O 0.61486 0.33823 0.6582 0.0
O87 O 0.63512 0.32332 0.63348 0.0
C88 C 0.5941 0.27321 0.61189 0.0
O89 O 0.57613 0.33452 0.64979 0.0
O90 O 0.56012 0.30542 0.62433 0.0
In91 In 1.00753 0.30797 0.91675 0.0
O92 O 0.02398 0.30847 0.95291 0.0
O93 O 0.99993 0.27871 0.93672 0.0
C94 C 0.99775 0.34963 0.93224 0.0
C95 C 0.04625 0.30276 0.89769 0.0
C96 C 0.97399 0.29095 0.88257 0.0
O97 O 0.98907 0.33204 0.93989 0.0
O98 O 1.01093 0.34603 0.91655 0.0
O99 O 0.99064 0.3062 0.88062 0.0
O100 O 0.97414 0.2843 0.90197 0.0
C101 C 1.01362 0.28869 0.95426 0.0
O102 O 0.02873 0.28726 0.89361 0.0
O103 O 0.04426 0.3208 0.9115 0.0
In104 In 0.40594 0.06089 0.33911 0.0
O105 O 0.43963 0.06834 0.32341 0.0
O106 O 0.41036 0.05278 0.30015 0.0
C107 C 0.43162 0.06905 0.38028 0.0
C108 C 0.37809 0.09112 0.33767 0.0
C109 C 0.38135 0.01803 0.33263 0.0
O110 O 0.43155 0.08428 0.36791 0.0
O111 O 0.41857 0.05021 0.37206 0.0
O112 O 0.37291 0.03565 0.33863 0.0
O113 O 0.40211 0.02207 0.32977 0.0
C114 C 0.4314 0.06028 0.30253 0.0
O115 O 0.37855 0.07968 0.35379 0.0
O116 O 0.39232 0.08804 0.32301 0.0
In117 In 0.28614 0.20335 0.51635 0.0
O118 O 0.29713 0.23731 0.5435 0.0
O119 O 0.28158 0.20728 0.55512 0.0
C120 C 0.29347 0.2211 0.47679 0.0
C121 C 0.31866 0.17935 0.52425 0.0
C122 C 0.24272 0.18036 0.50903 0.0
O123 O 0.28135 0.22906 0.49195 0.0
O124 O 0.30198 0.20477 0.48182 0.0
O125 O 0.25871 0.17192 0.50022 0.0
O126 O 0.24853 0.20049 0.52078 0.0
C127 C 0.29043 0.22831 0.56059 0.0
O128 O 0.29837 0.16973 0.51776 0.0
O129 O 0.32253 0.20096 0.52637 0.0
In130 In 0.18652 0.03466 0.78622 0.0
O131 O 0.15245 0.02787 0.75892 0.0
O132 O 0.18278 0.0386 0.74554 0.0
C133 C 0.16186 0.03687 0.82883 0.0
C134 C 0.20857 0.9932 0.78453 0.0
C135 C 0.21212 0.08153 0.7892 0.0
O136 O 0.15269 0.03289 0.80789 0.0
O137 O 0.18314 0.03938 0.82844 0.0
O138 O 0.21773 0.06343 0.77839 0.0
O139 O 0.19458 0.07613 0.79945 0.0
C140 C 0.16154 0.03337 0.74102 0.0
O141 O 0.21646 1.01333 0.79611 0.0
O142 O 0.18987 0.99374 0.77365 0.0
In143 In 0.29379 0.97517 0.01459 0.0
O144 O 0.28166 0.9439 0.03086 0.0
O145 O 0.30375 0.97256 0.05227 0.0
C146 C 0.29003 0.94423 0.97349 0.0
C147 C 0.25603 0.99579 0.0202 0.0
C148 C 0.33907 0.99559 0.01803 0.0
O149 O 0.28583 0.93866 0.99292 0.0
O150 O 0.29486 0.96571 0.97434 0.0
O151 O 0.32363 1.00741 0.01831 0.0
O152 O 0.33152 0.97443 0.01591 0.0
C153 C 0.29258 0.95239 0.05059 0.0
O154 O 0.26392 0.99126 1.00061 0.0
O155 O 0.26792 0.99148 0.03673 0.0
In156 In 0.32967 0.39457 0.05171 0.0
O157 O 0.33189 0.3645 0.07131 0.0
O158 O 0.3204 0.39346 0.08912 0.0
C159 C 0.32317 0.37249 1.00621 0.0
C160 C 0.29465 0.41668 0.04865 0.0
C161 C 0.37313 0.41818 0.05703 0.0
O162 O 0.32167 0.3616 0.02298 0.0
O163 O 0.32792 0.39405 1.01254 0.0
O164 O 0.35774 0.42552 0.06808 0.0
O165 O 0.36685 0.39871 0.04401 0.0
C166 C 0.32481 0.37394 0.0899 0.0
O167 O 0.31499 0.42709 0.05219 0.0
O168 O 0.29197 0.39516 0.04707 0.0
In169 In 0.82258 0.13324 0.05069 0.0
O170 O 0.84941 0.11113 0.06033 0.0
O171 O 0.85411 0.1269 0.03117 0.0
C172 C 0.77858 0.1102 0.05161 0.0
C173 C 0.82897 0.16533 0.09115 0.0
C174 C 0.81566 0.1559 0.01542 0.0
O175 O 0.78806 0.128 0.06588 0.0
O176 O 0.7917 0.1026 0.03727 0.0
O177 O 0.82755 0.1653 0.03437 0.0
O178 O 0.80754 0.13478 1.01396 0.0
C179 C 0.86182 0.11488 0.04411 0.0
O180 O 0.82845 0.17026 0.07095 0.0
O181 O 0.82762 0.1441 0.09115 0.0
In182 In 0.21535 0.54847 0.2429 0.0
O183 O 0.24971 0.54495 0.2577 0.0
O184 O 0.22741 0.5143 0.24078 0.0
C185 C 0.23266 0.59158 0.23853 0.0
C186 C 0.1918 0.52988 0.20123 0.0
C187 C 0.19118 0.5533 0.28056 0.0
O188 O 0.24366 0.57556 0.23501 0.0
O189 O 0.21278 0.58577 0.24385 0.0
O190 O 0.18233 0.54971 0.25979 0.0
O191 O 0.21219 0.55416 0.28238 0.0
C192 C 0.24651 0.52343 0.25152 0.0
O193 O 0.1878 0.52183 0.2195 0.0
O194 O 0.20841 0.54638 0.20383 0.0
In195 In 0.82489 0.89798 0.55185 0.0
O196 O 0.82809 0.86884 0.5724 0.0
O197 O 0.81641 0.89794 0.5897 0.0
C198 C 0.82144 0.87495 0.50643 0.0
C199 C 0.78878 0.91894 0.5516 0.0
C200 C 0.86676 0.92502 0.55724 0.0
O201 O 0.81434 0.86515 0.52282 0.0
O202 O 0.8305 0.89579 0.5131 0.0
O203 O 0.84892 0.93172 0.55175 0.0
O204 O 0.86364 0.90455 0.56056 0.0
C205 C 0.82114 0.8786 0.59092 0.0
O206 O 0.8084 0.92935 0.55985 0.0
O207 O 0.78722 0.89774 0.54365 0.0
In208 In 0.93011 0.06914 0.2793 0.0
O209 O 0.96385 0.06995 0.2576 0.0
O210 O 0.93344 0.06485 0.23721 0.0
C211 C 0.95481 0.06931 0.32424 0.0
C212 C 0.90826 0.1108 0.28154 0.0
C213 C 0.9046 0.02233 0.27597 0.0
O214 O 0.9637 0.07766 0.30755 0.0
O215 O 0.93392 0.06178 0.31865 0.0
O216 O 0.89969 0.04022 0.28804 0.0
O217 O 0.92125 0.02797 0.26454 0.0
C218 C 0.95465 0.06659 0.23673 0.0
O219 O 0.9001 0.09068 0.27006 0.0
O220 O 0.92703 0.11008 0.29216 0.0
In221 In 0.32022 0.63143 0.55397 0.0
O222 O 0.3488 0.61238 0.56569 0.0
O223 O 0.34865 0.62011 0.53195 0.0
C224 C 0.27645 0.60807 0.55501 0.0
C225 C 0.32668 0.66388 0.59416 0.0
C226 C 0.3141 0.65437 0.51876 0.0
O227 O 0.2903 0.59952 0.54227 0.0
O228 O 0.2851 0.62712 0.56774 0.0
O229 O 0.32864 0.66237 0.53609 0.0
O230 O 0.30296 0.63455 0.51891 0.0
C231 C 0.35868 0.61196 0.54709 0.0
O232 O 0.32667 0.66864 0.57388 0.0
O233 O 0.32472 0.64263 0.59438 0.0
In234 In 0.43041 0.5697 0.77898 0.0
O235 O 0.39974 0.59101 0.77171 0.0
O236 O 0.42797 0.61083 0.79151 0.0
C237 C 0.40689 0.5223 0.77711 0.0
C238 C 0.45431 0.56712 0.73577 0.0
C239 C 0.45394 0.57209 0.82484 0.0
O240 O 0.39718 0.53838 0.77273 0.0
O241 O 0.42783 0.52985 0.78183 0.0
O242 O 0.46366 0.57578 0.80667 0.0
O243 O 0.43265 0.56847 0.82036 0.0
C244 C 0.40853 0.61132 0.78224 0.0
O245 O 0.46374 0.57384 0.75653 0.0
O246 O 0.43315 0.56194 0.73659 0.0
In247 In 0.71845 0.04576 0.74968 0.0
O248 O 0.75465 0.04478 0.76166 0.0
O249 O 0.73469 1.01418 0.74147 0.0
C250 C 0.72763 0.08676 0.73635 0.0
C251 C 0.68335 0.0244 0.71825 0.0
C252 C 0.70671 0.05279 0.79401 0.0
O253 O 0.74172 0.07353 0.73552 0.0
O254 O 0.70891 0.0789 0.74313 0.0
O255 O 0.70396 0.03297 0.78146 0.0
O256 O 0.71592 0.06879 0.78442 0.0
C257 C 0.75351 0.02401 0.75242 0.0
O258 O 0.68173 0.02872 0.74002 0.0
O259 O 0.70306 0.02994 0.71229 0.0
In260 In 0.79046 0.70166 0.01504 0.0
O261 O 0.80596 0.66945 1.01138 0.0
O262 O 0.82768 0.70157 0.02488 0.0
C263 C 0.74823 0.67551 1.0087 0.0
C264 C 0.79313 0.72674 0.05946 0.0
C265 C 0.79571 0.7184 0.97457 0.0
O266 O 0.76572 0.66804 1.01381 0.0
O267 O 0.75196 0.69621 1.00613 0.0
O268 O 0.78616 0.72801 0.99128 0.0
O269 O 0.8025 0.70067 0.97835 0.0
C270 C 0.82563 0.67999 0.01937 0.0
O271 O 0.80201 0.73516 0.04298 0.0
O272 O 0.78265 0.70632 0.05329 0.0
In273 In 0.90026 0.55949 0.83654 0.0
O274 O 0.87103 0.57657 0.84892 0.0
O275 O 0.88833 0.588 0.8212 0.0
C276 C 0.87866 0.51577 0.83391 0.0
C277 C 0.92493 0.55389 0.79934 0.0
C278 C 0.92619 0.57518 0.87744 0.0
O279 O 0.86885 0.53118 0.82849 0.0
O280 O 0.89939 0.52239 0.84055 0.0
O281 O 0.9292 0.58446 0.85976 0.0
O282 O 0.90949 0.55878 0.87475 0.0
C283 C 0.87238 0.58954 0.83406 0.0
O284 O 0.93374 0.56057 0.82016 0.0
O285 O 0.90363 0.55002 0.79724 0.0
In286 In 0.79186 0.47361 0.51267 0.0
O287 O 0.77931 0.44183 0.52804 0.0
O288 O 0.79775 0.47151 0.55125 0.0
C289 C 0.79038 0.4431 0.47175 0.0
C290 C 0.75413 0.49433 0.5163 0.0
C291 C 0.83725 0.49362 0.51738 0.0
O292 O 0.78538 0.43728 0.49089 0.0
O293 O 0.79512 0.46464 0.47278 0.0
O294 O 0.82203 0.50482 0.51324 0.0
O295 O 0.82944 0.47328 0.51915 0.0
C296 C 0.78774 0.45082 0.54868 0.0
O297 O 0.76893 0.49603 0.53302 0.0
O298 O 0.75908 0.48369 0.49716 0.0
In299 In 0.68585 0.53417 0.28515 0.0
O300 O 0.716 0.51297 0.29481 0.0
O301 O 0.68958 0.49342 0.27211 0.0
C302 C 0.7113 0.58099 0.28851 0.0
C303 C 0.66105 0.53368 0.2401 0.0
C304 C 0.66114 0.53656 0.32768 0.0
O305 O 0.71682 0.56303 0.27727 0.0
O306 O 0.69399 0.57545 0.29905 0.0
O307 O 0.65199 0.53276 0.30675 0.0
O308 O 0.6824 0.53882 0.3273 0.0
C309 C 0.70824 0.49288 0.28306 0.0
O310 O 0.65233 0.52505 0.25672 0.0
O311 O 0.68184 0.54168 0.24581 0.0
Eu312 Eu 0.07024 0.07762 0.04065 0.0
Eu313 Eu 0.04495 0.02526 0.02435 0.0
C314 C 0.07626 0.04995 0.98609 0.0
C315 C 0.08602 0.14231 0.04827 0.0
C316 C 0.07861 0.14374 0.02536 0.0
C317 C 0.08215 0.18187 0.06169 0.0
C318 C 0.07324 0.16408 0.02063 0.0
C319 C 0.0878 0.16148 0.06641 0.0
C320 C 0.07493 0.18329 0.03872 0.0
C321 C 0.09084 0.12057 0.05342 0.0
O322 O 0.08188 0.02237 0.02936 0.0
O323 O 0.09721 0.05811 0.05037 0.0
C324 C 0.09943 0.03732 0.04046 0.0
O325 O 0.05166 0.07132 0.07375 0.0
O326 O 0.02381 0.99824 0.9981 0.0
O327 O 0.0357 0.99074 0.03139 0.0
O328 O 0.03575 0.03315 0.06328 0.0
C329 C 0.03882 0.0528 0.07882 0.0
O330 O 0.03507 0.08225 0.02843 0.0
O331 O 0.01628 0.04476 0.02156 0.0
O332 O 0.06353 0.03139 0.9912 0.0
O333 O 0.07683 0.11015 0.06596 0.0
O334 O 0.09595 0.10635 0.03589 0.0
O335 O 0.07913 0.06962 1.00157 0.0
C336 C 0.03458 0.96248 0.99824 0.0
C337 C 0.02411 0.9404 1.00039 0.0
C338 C 0.06668 0.94736 0.98328 0.0
C339 C 0.03535 0.92207 0.99517 0.0
C340 C 0.05543 0.96573 0.98861 0.0
C341 C 0.05733 0.92562 0.98783 0.0
C342 C 0.02603 0.98229 1.0102 0.0
C343 C 0.01609 0.06688 0.02425 0.0
H344 H 0.07668 0.12907 1.01111 0.0
H345 H 0.08348 0.19649 0.07589 0.0
H346 H 0.06725 0.16462 1.00285 0.0
H347 H 0.0933 0.16057 0.08422 0.0
H348 H 1.00809 0.93768 1.00794 0.0
H349 H 0.08344 0.95061 0.97739 0.0
H350 H 0.02768 0.9057 0.9992 0.0
H351 H 0.0638 0.98277 0.98693 0.0
Eu352 Eu 0.30743 0.80963 0.26517 0.0
Eu353 Eu 0.28456 0.8044 0.31539 0.0
C354 C 0.25514 0.81018 0.27061 0.0
C355 C 0.31921 0.83055 0.20818 0.0
C356 C 0.29712 0.83302 0.20181 0.0
C357 C 0.33334 0.85495 0.18111 0.0
C358 C 0.29316 0.8462 0.18501 0.0
C359 C 0.33725 0.84165 0.19777 0.0
C360 C 0.31123 0.85732 0.17442 0.0
C361 C 0.32385 0.81706 0.22607 0.0
O362 O 0.27729 0.76943 0.29202 0.0
O363 O 0.30527 0.7725 0.2668 0.0
C364 C 0.28958 0.76021 0.27643 0.0
O365 O 0.33644 0.81131 0.29189 0.0
O366 O 0.25804 0.7883 0.33463 0.0
O367 O 0.28564 0.81435 0.35337 0.0
O368 O 0.31755 0.79275 0.31845 0.0
C369 C 0.33625 0.80074 0.3098 0.0
O370 O 0.29907 0.84356 0.28082 0.0
O371 O 0.30375 0.84072 0.3193 0.0
O372 O 0.25937 0.81711 0.2934 0.0
O373 O 0.33228 0.82892 0.24666 0.0
O374 O 0.30836 0.79932 0.22744 0.0
O375 O 0.26973 0.80139 0.25772 0.0
C376 C 0.27271 0.78281 0.37127 0.0
C377 C 0.29378 0.77625 0.3735 0.0
C378 C 0.25931 0.75925 0.39942 0.0
C379 C 0.2977 0.76157 0.38875 0.0
C380 C 0.25548 0.77414 0.38427 0.0
C381 C 0.28052 0.75282 0.40192 0.0
C382 C 0.26859 0.79823 0.35506 0.0
C383 C 0.3037 0.8532 0.30298 0.0
H384 H 0.28293 0.82477 0.20981 0.0
H385 H 0.3477 0.86363 0.1737 0.0
H386 H 0.27592 0.84745 0.18014 0.0
H387 H 0.35443 0.84016 0.20266 0.0
H388 H 0.30729 0.78254 0.36349 0.0
H389 H 0.24557 0.75259 0.40898 0.0
H390 H 0.31433 0.75734 0.39041 0.0
H391 H 0.23903 0.7788 0.38262 0.0
Eu392 Eu 0.57564 0.05345 0.54736 0.0
Eu393 Eu 0.52824 0.05524 0.5729 0.0
C394 C 0.57094 0.04428 0.59948 0.0
C395 C 0.63025 0.03453 0.53138 0.0
C396 C 0.62567 0.0158 0.54287 0.0
C397 C 0.66752 0.0262 0.52511 0.0
C398 C 0.6419 1.00226 0.54535 0.0
C399 C 0.65125 0.03967 0.52259 0.0
C400 C 0.66304 1.00727 0.53646 0.0
C401 C 0.61332 0.04889 0.52877 0.0
O402 O 0.55174 0.08928 0.58595 0.0
O403 O 0.57352 0.0907 0.55498 0.0
C404 C 0.56558 0.10086 0.57371 0.0
O405 O 0.54924 0.05554 0.51907 0.0
O406 O 0.50892 0.06935 0.60067 0.0
O407 O 0.49211 0.04222 0.57241 0.0
O408 O 0.52551 0.07296 0.54242 0.0
C409 C 0.53263 0.06696 0.52179 0.0
O410 O 0.56 0.01759 0.5504 0.0
O411 O 0.52367 0.02251 0.54611 0.0
O412 O 0.54897 0.0378 0.59498 0.0
O413 O 0.59343 0.03802 0.51904 0.0
O414 O 0.61206 0.06448 0.54708 0.0
O415 O 0.58324 0.05587 0.58608 0.0
C416 C 0.47256 0.07155 0.58531 0.0
C417 C 0.47766 0.08898 0.57222 0.0
C418 C 0.43397 0.07786 0.58563 0.0
C419 C 0.46098 0.10058 0.56563 0.0
C420 C 0.45068 0.06615 0.59211 0.0
C421 C 0.43889 0.09502 0.57207 0.0
C422 C 0.48956 0.05788 0.59008 0.0
C423 C 0.5386 1.00914 0.54414 0.0
H424 H 0.60952 1.01163 0.54986 0.0
H425 H 0.68373 0.0308 0.51843 0.0
H426 H 0.63779 0.98771 0.55397 0.0
H427 H 0.65511 0.05417 0.51383 0.0
H428 H 0.49447 0.09337 0.56678 0.0
H429 H 0.41706 0.07305 0.59068 0.0
H430 H 0.46538 0.1139 0.55546 0.0
H431 H 0.4464 0.05258 0.602 0.0
Eu432 Eu 0.28633 0.3082 0.78081 0.0
Eu433 Eu 0.33498 0.29517 0.78499 0.0
C434 C 0.28991 0.25428 0.78558 0.0
C435 C 0.22543 0.31298 0.78934 0.0
C436 C 0.22641 0.31171 0.81324 0.0
C437 C 0.18454 0.30485 0.78727 0.0
C438 C 0.20656 0.30753 0.82419 0.0
C439 C 0.20442 0.30926 0.77638 0.0
C440 C 0.18539 0.30426 0.81138 0.0
C441 C 0.24616 0.31828 0.77783 0.0
O442 O 0.32348 0.28427 0.74652 0.0
O443 O 0.29725 0.30687 0.74425 0.0
C444 C 0.31018 0.29352 0.73409 0.0
O445 O 0.31048 0.34389 0.78646 0.0
O446 O 0.35737 0.27062 0.77777 0.0
O447 O 0.37081 0.30476 0.79752 0.0
O448 O 0.34263 0.33182 0.77548 0.0
C449 C 0.33143 0.34891 0.78057 0.0
O450 O 0.29136 0.30581 0.81897 0.0
O451 O 0.32976 0.30964 0.82227 0.0
O452 O 0.31169 0.26229 0.79246 0.0
O453 O 0.2634 0.33143 0.79103 0.0
O454 O 0.25184 0.30109 0.76401 0.0
O455 O 0.2778 0.26832 0.77788 0.0
C456 C 0.39358 0.28832 0.77077 0.0
C457 C 0.38844 0.2895 0.74723 0.0
C458 C 0.43343 0.29443 0.76487 0.0
C459 C 0.40567 0.29299 0.73256 0.0
C460 C 0.41613 0.29076 0.77951 0.0
C461 C 0.42839 0.29565 0.74124 0.0
C462 C 0.37552 0.28567 0.78642 0.0
C463 C 0.31068 0.3098 0.83188 0.0
H464 H 0.2425 0.31432 0.82354 0.0
H465 H 0.1685 0.302 0.77683 0.0
H466 H 0.20785 0.30748 0.84283 0.0
H467 H 0.20339 0.30994 0.75786 0.0
H468 H 0.37109 0.28785 0.74023 0.0
H469 H 0.45077 0.29674 0.77218 0.0
H470 H 0.40119 0.29353 0.71439 0.0
H471 H 0.42037 0.29015 0.79771 0.0
Eu472 Eu 0.04892 0.0727 0.54491 0.0
Eu473 Eu 0.06571 0.02767 0.52005 0.0
C474 C 0.09512 0.07711 0.52104 0.0
C475 C 0.04278 0.13288 0.55139 0.0
C476 C 0.04671 0.13013 0.5276 0.0
C477 C 0.05115 0.17432 0.55444 0.0
C478 C 0.0533 0.14922 0.51745 0.0
C479 C 0.04475 0.15505 0.56473 0.0
C480 C 0.05602 0.17147 0.53086 0.0
C481 C 0.03984 0.11257 0.5624 0.0
O482 O 0.07478 0.02742 0.55954 0.0
O483 O 0.07139 0.06416 0.57514 0.0
C484 C 0.07808 0.04478 0.5778 0.0
O485 O 0.02295 0.04485 0.5546 0.0
O486 O 0.09263 1.00841 0.51236 0.0
O487 O 0.05882 0.99442 0.49616 0.0
O488 O 0.03109 1.01389 0.52973 0.0
C489 C 0.01815 0.02304 0.54454 0.0
O490 O 0.03106 0.0664 0.50707 0.0
O491 O 0.05112 0.04109 0.48807 0.0
O492 O 0.09593 0.05631 0.5241 0.0
O493 O 0.02439 0.09515 0.55181 0.0
O494 O 0.05874 0.10631 0.5678 0.0
O495 O 0.07628 0.08477 0.52268 0.0
C496 C 0.07893 0.96856 0.5095 0.0
C497 C 0.09017 0.96873 0.5314 0.0
C498 C 0.06141 0.92862 0.50753 0.0
C499 C 0.08661 0.94921 0.5415 0.0
C500 C 0.06514 0.94812 0.4973 0.0
C501 C 0.07162 0.92924 0.53 0.0
C502 C 0.07879 0.99016 0.50095 0.0
C503 C 0.03614 0.05475 0.4871 0.0
H504 H 0.04547 0.11316 0.51704 0.0
H505 H 0.05315 0.19136 0.56508 0.0
H506 H 0.05663 0.14658 0.49916 0.0
H507 H 0.04208 0.15745 0.58319 0.0
H508 H 0.1008 0.98426 0.54136 0.0
H509 H 0.04993 0.91332 0.49825 0.0
H510 H 0.09452 0.95022 0.55895 0.0
H511 H 0.05629 0.9476 0.48042 0.0
Eu512 Eu 0.33358 0.81869 0.78483 0.0
Eu513 Eu 0.28539 0.78734 0.78546 0.0
C514 C 0.30765 0.82605 0.83088 0.0
C515 C 0.39533 0.83901 0.77859 0.0
C516 C 0.39922 0.81663 0.77779 0.0
C517 C 0.43558 0.85289 0.77923 0.0
C518 C 0.42124 0.8126 0.77905 0.0
C519 C 0.41351 0.85695 0.77834 0.0
C520 C 0.43974 0.8309 0.78087 0.0
C521 C 0.37302 0.84411 0.78327 0.0
O522 O 0.27431 0.82228 0.78151 0.0
O523 O 0.3089 0.84449 0.77994 0.0
C524 C 0.28653 0.8428 0.78036 0.0
O525 O 0.32905 0.79329 0.75061 0.0
O526 O 0.26395 0.76706 0.80622 0.0
O527 O 0.25203 0.76868 0.77068 0.0
O528 O 0.29109 0.77909 0.74713 0.0
C529 C 0.31082 0.78039 0.73861 0.0
O530 O 0.34455 0.78333 0.78706 0.0
O531 O 0.31015 0.76164 0.79021 0.0
O532 O 0.28933 0.81456 0.8181 0.0
O533 O 0.35743 0.83857 0.76565 0.0
O534 O 0.36561 0.83818 0.80236 0.0
O535 O 0.32752 0.82522 0.82326 0.0
C536 C 0.22587 0.76924 0.7986 0.0
C537 C 0.22378 0.79236 0.8017 0.0
C538 C 0.18626 0.75857 0.80413 0.0
C539 C 0.20276 0.79839 0.80443 0.0
C540 C 0.2073 0.75248 0.80088 0.0
C541 C 0.18348 0.78139 0.80447 0.0
C542 C 0.24666 0.76263 0.79045 0.0
C543 C 0.33235 0.76299 0.78878 0.0
H544 H 0.38533 0.80255 0.77788 0.0
H545 H 0.44942 0.86724 0.78002 0.0
H546 H 0.42368 0.79548 0.78043 0.0
H547 H 0.41074 0.87431 0.77881 0.0
H548 H 0.23809 0.80557 0.80037 0.0
H549 H 0.17191 0.74513 0.80482 0.0
H550 H 0.20146 0.81611 0.80447 0.0
H551 H 0.20878 0.73459 0.7989 0.0
Eu552 Eu 0.55919 0.04638 0.06308 0.0
Eu553 Eu 0.55811 0.06607 0.01431 0.0
C554 C 0.55213 0.09793 0.06257 0.0
C555 C 0.54708 0.03528 0.12351 0.0
C556 C 0.52937 0.04751 0.12377 0.0
C557 C 0.5416 0.03054 0.16344 0.0
C558 C 0.51772 0.05111 0.14372 0.0
C559 C 0.5532 0.02689 0.14343 0.0
C560 C 0.52366 0.04262 0.16377 0.0
C561 C 0.55914 0.03125 0.1025 0.0
O562 O 0.59437 0.07772 0.0307 0.0
O563 O 0.59557 0.0505 0.05342 0.0
C564 C 0.60603 0.06637 0.04273 0.0
O565 O 0.55461 0.01569 0.03377 0.0
O566 O 0.5665 0.09408 0.99525 0.0
O567 O 0.54872 0.06059 0.97675 0.0
O568 O 0.57233 0.03383 1.00676 0.0
C569 C 0.56516 0.01508 0.01471 0.0
O570 O 0.52249 0.04916 0.05553 0.0
O571 O 0.52207 0.04754 0.01585 0.0
O572 O 0.54544 0.09195 0.04016 0.0
O573 O 0.54666 0.02043 0.0834 0.0
O574 O 0.57364 0.04882 0.09891 0.0
O575 O 0.56172 0.08458 0.07382 0.0
C576 C 0.57696 0.08048 0.95811 0.0
C577 C 0.5941 0.0679 0.96054 0.0
C578 C 0.593 0.09227 0.92396 0.0
C579 C 0.61041 0.06721 0.94459 0.0
C580 C 0.57656 0.09282 0.9399 0.0
C581 C 0.60999 0.07928 0.92603 0.0
C582 C 0.55984 0.08079 0.97487 0.0
C583 C 0.51126 0.04599 0.03473 0.0
H584 H 0.52447 0.05413 0.10848 0.0
H585 H 0.54678 0.02406 0.1787 0.0
H586 H 0.50381 0.06021 0.14329 0.0
H587 H 0.56694 0.01752 0.1435 0.0
H588 H 0.59472 0.0584 0.97468 0.0
H589 H 0.59242 0.102 0.91004 0.0
H590 H 0.62303 0.05678 0.94651 0.0
H591 H 0.56355 0.10281 0.93799 0.0
Eu592 Eu 0.32872 0.31558 0.29449 0.0
Eu593 Eu 0.29712 0.26718 0.26579 0.0
C594 C 0.31151 0.3093 0.23949 0.0
C595 C 0.35382 0.3781 0.30831 0.0
C596 C 0.34827 0.38007 0.28509 0.0
C597 C 0.35242 0.41832 0.32126 0.0
C598 C 0.34418 0.40082 0.28008 0.0
C599 C 0.35657 0.39749 0.32627 0.0
C600 C 0.3454 0.41992 0.29822 0.0
C601 C 0.35324 0.35529 0.31408 0.0
O602 O 0.33246 0.2694 0.25521 0.0
O603 O 0.35031 0.2888 0.29032 0.0
C604 C 0.35067 0.27569 0.26992 0.0
O605 O 0.32049 0.29546 0.32296 0.0
O606 O 0.29465 0.23244 0.24624 0.0
O607 O 0.2642 0.24642 0.25104 0.0
O608 O 0.30709 0.25898 0.30128 0.0
C609 C 0.31363 0.27322 0.32154 0.0
O610 O 0.29271 0.32081 0.29168 0.0
O611 O 0.27717 0.28369 0.29262 0.0
O612 O 0.29485 0.29278 0.24193 0.0
O613 O 0.33438 0.34649 0.3217 0.0
O614 O 0.3604 0.34039 0.29856 0.0
O615 O 0.3281 0.31757 0.25609 0.0
C616 C 0.26358 0.20783 0.25502 0.0
C617 C 0.25752 0.21102 0.27816 0.0
C618 C 0.268 0.16909 0.25745 0.0
C619 C 0.25811 0.19382 0.29128 0.0
C620 C 0.26716 0.1862 0.24424 0.0
C621 C 0.26523 0.1735 0.28157 0.0
C622 C 0.27263 0.22792 0.24498 0.0
C623 C 0.27649 0.30558 0.29704 0.0
H624 H 0.34576 0.36523 0.27098 0.0
H625 H 0.35365 0.43285 0.33554 0.0
H626 H 0.33847 0.40135 0.26222 0.0
H627 H 0.3607 0.3962 0.3443 0.0
H628 H 0.25472 0.22759 0.28693 0.0
H629 H 0.27353 0.1536 0.24943 0.0
H630 H 0.25539 0.1974 0.30967 0.0
H631 H 0.27196 0.18346 0.22644 0.0
Eu632 Eu 0.54843 0.57514 0.04563 0.0
Eu633 Eu 0.56541 0.53093 0.01942 0.0
C634 C 0.59546 0.58099 0.02176 0.0
C635 C 0.54642 0.63709 0.06138 0.0
C636 C 0.56986 0.64487 0.06191 0.0
C637 C 0.54007 0.67033 0.04548 0.0
C638 C 0.57829 0.66484 0.05372 0.0
C639 C 0.53163 0.65037 0.0538 0.0
C640 C 0.56347 0.67734 0.04463 0.0
C641 C 0.53743 0.61366 0.06498 0.0
O642 O 0.58304 0.53606 0.05736 0.0
O643 O 0.56315 0.56117 0.07707 0.0
C644 C 0.57813 0.54748 0.07759 0.0
O645 O 0.51841 0.54647 0.04383 0.0
O646 O 0.59167 0.5109 1.01105 0.0
O647 O 0.55744 0.49814 0.99507 0.0
O648 O 0.53739 0.51666 0.03984 0.0
C649 C 0.51908 0.5249 0.04417 0.0
O650 O 0.54001 0.57583 1.00601 0.0
O651 O 0.54152 0.53874 0.99023 0.0
O652 O 0.58892 0.56032 1.00907 0.0
O653 O 0.52585 0.59987 0.04679 0.0
O654 O 0.55144 0.60363 0.07534 0.0
O655 O 0.58418 0.58856 0.03904 0.0
C656 C 0.57659 0.47103 1.00708 0.0
C657 C 0.56057 0.45175 0.99576 0.0
C658 C 0.58477 0.45022 0.0377 0.0
C659 C 0.5559 0.43231 1.00592 0.0
C660 C 0.58924 0.46978 0.02772 0.0
C661 C 0.56747 0.43172 0.02736 0.0
C662 C 0.57722 0.49315 0.99935 0.0
C663 C 0.53567 0.55846 0.98775 0.0
H664 H 0.58174 0.63497 0.06755 0.0
H665 H 0.5282 0.67946 0.03841 0.0
H666 H 0.5964 0.66999 0.05364 0.0
H667 H 0.51351 0.64459 0.05304 0.0
H668 H 0.55067 0.45228 0.9798 0.0
H669 H 0.59382 0.45019 0.05432 0.0
H670 H 0.54263 0.41811 0.99756 0.0
H671 H 0.60168 0.48435 0.03692 0.0
Eu672 Eu 0.83365 0.31852 0.28244 0.0
Eu673 Eu 0.78561 0.28706 0.28301 0.0
C674 C 0.80807 0.32548 0.32875 0.0
C675 C 0.89474 0.34195 0.27383 0.0
C676 C 0.90045 0.32012 0.27102 0.0
C677 C 0.93399 0.35909 0.27275 0.0
C678 C 0.92302 0.31792 0.27028 0.0
C679 C 0.91142 0.36128 0.27366 0.0
C680 C 0.94012 0.33755 0.27231 0.0
C681 C 0.87228 0.34507 0.28024 0.0
O682 O 0.77419 0.32198 0.27975 0.0
O683 O 0.8087 0.34417 0.27799 0.0
C684 C 0.78636 0.34251 0.27858 0.0
O685 O 0.82956 0.29318 0.2483 0.0
O686 O 0.76384 0.26606 0.30284 0.0
O687 O 0.75222 0.26895 0.26759 0.0
O688 O 0.79164 0.27891 0.24471 0.0
C689 C 0.8114 0.28025 0.23625 0.0
O690 O 0.84482 0.28314 0.2845 0.0
O691 O 0.81044 0.26148 0.28798 0.0
O692 O 0.78972 0.31379 0.31613 0.0
O693 O 0.85599 0.33993 0.26332 0.0
O694 O 0.86626 0.33741 0.29904 0.0
O695 O 0.8279 0.32507 0.32089 0.0
C696 C 0.72578 0.26891 0.29514 0.0
C697 C 0.70502 0.25568 0.28493 0.0
C698 C 0.70663 0.29891 0.31304 0.0
C699 C 0.68527 0.26438 0.28791 0.0
C700 C 0.72644 0.29024 0.30987 0.0
C701 C 0.68595 0.28651 0.30124 0.0
C702 C 0.74663 0.26236 0.28703 0.0
C703 C 0.83264 0.26282 0.28644 0.0
H704 H 0.88767 0.305 0.27104 0.0
H705 H 0.94679 0.37445 0.27398 0.0
H706 H 0.92716 0.30112 0.2701 0.0
H707 H 0.9072 0.37823 0.27568 0.0
H708 H 0.70427 0.23933 0.2733 0.0
H709 H 0.70775 0.31585 0.32364 0.0
H710 H 0.66981 0.25444 0.27815 0.0
H711 H 0.7424 0.30081 0.31778 0.0
Eu712 Eu 0.05708 0.54229 0.56239 0.0
Eu713 Eu 0.05602 0.56256 0.51369 0.0
C714 C 0.05252 0.59455 0.56277 0.0
C715 C 0.04319 0.52973 0.62194 0.0
C716 C 0.02634 0.54305 0.62247 0.0
C717 C 0.03503 0.52216 0.66045 0.0
C718 C 1.0138 0.54582 0.64186 0.0
C719 C 0.04753 0.51937 0.64101 0.0
C720 C 0.01796 0.53535 0.66105 0.0
C721 C 0.05596 0.52632 0.60136 0.0
O722 O 0.09275 0.57253 0.5289 0.0
O723 O 0.09354 0.54641 0.55315 0.0
C724 C 0.10412 0.56162 0.54177 0.0
O725 O 0.0532 0.51187 0.53288 0.0
O726 O 0.06477 0.59062 0.49474 0.0
O727 O 0.04473 0.55804 0.47665 0.0
O728 O 0.06926 0.52991 0.5048 0.0
C729 C 0.06276 0.51124 0.51318 0.0
O730 O 0.02073 0.54642 0.55517 0.0
O731 O 0.02024 0.54369 0.51544 0.0
O732 O 0.04495 0.58885 0.54056 0.0
O733 O 0.04404 0.51576 0.58185 0.0
O734 O 0.07053 0.54415 0.59848 0.0
O735 O 0.06162 0.58057 0.57356 0.0
C736 C 0.07123 0.57746 0.45581 0.0
C737 C 0.08942 0.56599 0.45677 0.0
C738 C 0.0813 0.58649 0.41835 0.0
C739 C 0.10335 0.56454 0.43847 0.0
C740 C 0.06731 0.58786 0.43665 0.0
C741 C 0.0993 0.5746 0.41898 0.0
C742 C 0.05609 0.57803 0.47454 0.0
C743 C 1.00944 0.5428 0.53437 0.0
H744 H 0.02277 0.55113 0.6078 0.0
H745 H 0.03883 0.51414 0.67508 0.0
H746 H 1.0006 0.55584 0.64164 0.0
H747 H 0.06054 0.50908 0.64085 0.0
H748 H 0.09269 0.55796 0.47156 0.0
H749 H 0.07771 0.59422 0.40344 0.0
H750 H 0.11726 0.55553 0.43955 0.0
H751 H 0.05329 0.59675 0.43572 0.0
Eu752 Eu 0.78366 0.80788 0.27908 0.0
Eu753 Eu 0.83308 0.79498 0.28574 0.0
C754 C 0.78765 0.75401 0.28533 0.0
C755 C 0.72261 0.81082 0.28735 0.0
C756 C 0.7244 0.80531 0.30974 0.0
C757 C 0.68199 0.80588 0.28815 0.0
C758 C 0.70512 0.80049 0.32145 0.0
C759 C 0.70133 0.81086 0.27651 0.0
C760 C 0.68371 0.80089 0.31086 0.0
C761 C 0.74287 0.81642 0.27525 0.0
O762 O 0.82436 0.78673 0.24647 0.0
O763 O 0.79384 0.80386 0.24225 0.0
C764 C 0.8093 0.79316 0.23322 0.0
O765 O 0.80688 0.84276 0.27756 0.0
O766 O 0.85531 0.7704 0.27761 0.0
O767 O 0.86851 0.80354 0.29964 0.0
O768 O 0.84194 0.8338 0.28276 0.0
C769 C 0.82922 0.84916 0.27972 0.0
O770 O 0.79017 0.81248 0.31854 0.0
O771 O 0.82566 0.80426 0.3232 0.0
O772 O 0.8096 0.76158 0.29132 0.0
O773 O 0.75985 0.83056 0.28792 0.0
O774 O 0.74913 0.79905 0.26234 0.0
O775 O 0.77533 0.76831 0.27849 0.0
C776 C 0.89204 0.78793 0.27303 0.0
C777 C 0.89246 0.80315 0.25731 0.0
C778 C 0.92588 0.77655 0.25839 0.0
C779 C 0.90955 0.80511 0.24224 0.0
C780 C 0.90882 0.77469 0.27354 0.0
C781 C 0.92638 0.79173 0.2425 0.0
C782 C 0.87332 0.7848 0.28777 0.0
C783 C 0.80776 0.81062 0.33196 0.0
H784 H 0.74074 0.80505 0.3183 0.0
H785 H 0.6657 0.806 0.2794 0.0
H786 H 0.70708 0.79703 0.33902 0.0
H787 H 0.69969 0.81485 0.25912 0.0
H788 H 0.87945 0.81335 0.25655 0.0
H789 H 0.93841 0.76577 0.25878 0.0
H790 H 0.90962 0.81716 0.23044 0.0
H791 H 0.90851 0.76265 0.28539 0.0
Eu792 Eu 0.80002 0.3036 0.75774 0.0
Eu793 Eu 0.77943 0.30113 0.80908 0.0
C794 C 0.75413 0.3199 0.76908 0.0
C795 C 0.81194 0.3234 0.70089 0.0
C796 C 0.80352 0.34343 0.70864 0.0
C797 C 0.81509 0.3337 0.66259 0.0
C798 C 0.80077 0.35847 0.69339 0.0
C799 C 0.81781 0.31868 0.67785 0.0
C800 C 0.80639 0.35369 0.67012 0.0
C801 C 0.8131 0.30666 0.71621 0.0
O802 O 0.78034 0.26513 0.79124 0.0
O803 O 0.77471 0.27064 0.75383 0.0
C804 C 0.77392 0.25694 0.76902 0.0
O805 O 0.82257 0.28491 0.77594 0.0
O806 O 0.75344 0.28562 0.82906 0.0
O807 O 0.78191 0.31092 0.84728 0.0
O808 O 0.81644 0.30053 0.81344 0.0
C809 C 0.82857 0.29009 0.79857 0.0
O810 O 0.8166 0.33617 0.78241 0.0
O811 O 0.79047 0.33899 0.80956 0.0
O812 O 0.75129 0.30614 0.7843 0.0
O813 O 0.82651 0.31377 0.73553 0.0
O814 O 0.7936 0.29511 0.71971 0.0
O815 O 0.77369 0.32545 0.76097 0.0
C816 C 0.7686 0.27973 0.86532 0.0
C817 C 0.77722 0.25988 0.85727 0.0
C818 C 0.7694 0.2708 0.90446 0.0
C819 C 0.78184 0.24555 0.87269 0.0
C820 C 0.76471 0.28508 0.88899 0.0
C821 C 0.77809 0.25087 0.89653 0.0
C822 C 0.76455 0.29531 0.84932 0.0
C823 C 0.80778 0.3482 0.79939 0.0
H824 H 0.79877 0.34726 0.72639 0.0
H825 H 0.81927 0.32934 0.6447 0.0
H826 H 0.79426 0.37382 0.69982 0.0
H827 H 0.82409 0.30315 0.67154 0.0
H828 H 0.7805 0.25551 0.83907 0.0
H829 H 0.76664 0.27565 0.92275 0.0
H830 H 0.78824 0.23023 0.86588 0.0
H831 H 0.75828 0.30045 0.89557 0.0
Eu832 Eu 0.82904 0.81796 0.79483 0.0
Eu833 Eu 0.79383 0.77168 0.76643 0.0
C834 C 0.80901 0.81422 0.74092 0.0
C835 C 0.8587 0.87919 0.80807 0.0
C836 C 0.85461 0.88157 0.7847 0.0
C837 C 0.85873 0.91978 0.82088 0.0
C838 C 0.85188 0.90268 0.77952 0.0
C839 C 0.86151 0.89858 0.82605 0.0
C840 C 0.85301 0.92179 0.79763 0.0
C841 C 0.85648 0.85617 0.81384 0.0
O842 O 0.82798 0.77241 0.7531 0.0
O843 O 0.84843 0.78947 0.78759 0.0
C844 C 0.84699 0.77705 0.76652 0.0
O845 O 0.82092 0.79729 0.823 0.0
O846 O 0.78906 0.73756 0.74485 0.0
O847 O 0.75978 0.75224 0.75398 0.0
O848 O 0.80521 0.76169 0.80059 0.0
C849 C 0.81305 0.77512 0.82101 0.0
O850 O 0.79397 0.82584 0.79473 0.0
O851 O 0.77633 0.78918 0.79505 0.0
O852 O 0.79183 0.79843 0.74382 0.0
O853 O 0.83749 0.84884 0.82214 0.0
O854 O 0.8621 0.84039 0.79807 0.0
O855 O 0.82648 0.82117 0.75671 0.0
C856 C 0.75888 0.71288 0.75513 0.0
C857 C 0.75383 0.71501 0.7786 0.0
C858 C 0.76393 0.67384 0.75518 0.0
C859 C 0.75518 0.69713 0.79061 0.0
C860 C 0.76225 0.69161 0.74306 0.0
C861 C 0.7621 0.67717 0.77949 0.0
C862 C 0.76722 0.73358 0.74571 0.0
C863 C 0.7773 0.81135 0.80044 0.0
H864 H 0.85214 0.8668 0.77052 0.0
H865 H 0.85987 0.9343 0.83515 0.0
H866 H 0.84717 0.90354 0.76149 0.0
H867 H 0.86456 0.89704 0.84419 0.0
H868 H 0.75118 0.73125 0.78836 0.0
H869 H 0.76924 0.65865 0.74608 0.0
H870 H 0.75309 0.69985 0.80917 0.0
H871 H 0.76627 0.68966 0.72498 0.0
Eu872 Eu 0.56814 0.57901 0.53834 0.0
Eu873 Eu 0.5444 0.52596 0.52349 0.0
C874 C 0.57591 0.55082 0.48499 0.0
C875 C 0.57981 0.64275 0.56332 0.0
C876 C 0.55664 0.64312 0.56226 0.0
C877 C 0.58823 0.68424 0.57396 0.0
C878 C 0.54934 0.66406 0.56533 0.0
C879 C 0.59552 0.66326 0.57051 0.0
C880 C 0.56519 0.68484 0.56964 0.0
C881 C 0.58752 0.62183 0.55303 0.0
O882 O 0.58066 0.52266 0.53246 0.0
O883 O 0.59766 0.56068 0.54115 0.0
C884 C 0.59896 0.53879 0.53731 0.0
O885 O 0.54863 0.57266 0.57102 0.0
O886 O 0.52338 0.49964 0.49655 0.0
O887 O 0.53519 0.49091 0.52921 0.0
O888 O 0.53523 0.53384 0.56234 0.0
C889 C 0.5371 0.55388 0.57702 0.0
O890 O 0.53203 0.58238 0.52871 0.0
O891 O 0.51472 0.54447 0.52201 0.0
O892 O 0.56357 0.53229 0.49062 0.0
O893 O 0.58743 0.60615 0.56593 0.0
O894 O 0.57931 0.61321 0.53138 0.0
O895 O 0.57831 0.57077 0.49991 0.0
C896 C 0.53437 0.46383 0.49503 0.0
C897 C 0.52498 0.44151 0.49738 0.0
C898 C 0.56567 0.44982 0.47677 0.0
C899 C 0.53641 0.4236 0.49056 0.0
C900 C 0.55426 0.46777 0.48378 0.0
C901 C 0.55753 0.42778 0.48132 0.0
C902 C 0.52568 0.48316 0.50787 0.0
C903 C 0.51357 0.5664 0.52496 0.0
H904 H 0.5443 0.62731 0.55695 0.0
H905 H 0.60078 0.7 0.57783 0.0
H906 H 0.53149 0.66382 0.56185 0.0
H907 H 0.61347 0.66318 0.57166 0.0
H908 H 0.50972 0.43823 0.50616 0.0
H909 H 0.58168 0.45358 0.46943 0.0
H910 H 0.52967 0.40703 0.49472 0.0
H911 H 0.56179 0.485 0.48189 0.0
Eu912 Eu 0.08373 0.54644 0.02063 0.0
Eu913 Eu 0.04176 0.55637 0.05304 0.0
C914 C 0.08124 0.53345 0.07251 0.0
C915 C 0.13463 0.52296 1.00161 0.0
C916 C 0.1308 0.50749 0.01705 0.0
C917 C 0.17147 0.51308 0.99622 0.0
C918 C 0.14728 0.49504 0.02221 0.0
C919 C 0.15498 0.52558 0.99113 0.0
C920 C 0.16791 0.49782 1.01201 0.0
C921 C 0.11819 0.53762 0.998 0.0
O922 O 0.07314 0.58229 0.06765 0.0
O923 O 0.08775 0.5846 0.03282 0.0
C924 C 0.08537 0.59406 0.05439 0.0
O925 O 0.05636 0.55278 0.99591 0.0
O926 O 0.02733 0.58005 0.0779 0.0
O927 O 1.0075 0.54647 0.06302 0.0
O928 O 0.04002 0.57537 0.02329 0.0
C929 C 0.04301 0.56758 1.00141 0.0
O930 O 0.06264 0.51254 0.02311 0.0
O931 O 0.02912 0.52477 0.02514 0.0
O932 O 0.05995 0.53544 0.07339 0.0
O933 O 0.0974 0.52703 0.99123 0.0
O934 O 0.11924 0.55543 0.01474 0.0
O935 O 0.09373 0.54022 0.05634 0.0
C936 C 0.9885 0.57776 0.06818 0.0
C937 C 0.99124 0.59311 0.05252 0.0
C938 C 0.94966 0.58286 0.07078 0.0
C939 C 0.97342 0.60342 0.0462 0.0
C940 C 0.96757 0.5726 0.07716 0.0
C941 C 0.9524 0.5985 0.05531 0.0
C942 C 1.00734 0.56694 0.07487 0.0
C943 C 0.04055 0.50827 0.01998 0.0
H944 H 0.11518 0.50533 0.02537 0.0
H945 H 0.18728 0.51584 0.98829 0.0
H946 H 0.14387 0.48325 0.03421 0.0
H947 H 0.15831 0.53765 0.97938 0.0
H948 H 1.00725 0.59731 0.04532 0.0
H949 H 0.93362 0.57838 0.07784 0.0
H950 H 0.97628 0.61558 0.03451 0.0
H951 H 0.96506 0.56064 0.08909 0.0
C952 C 0.03548 0.28853 0.99187 0.0
C953 C 0.01915 0.2771 0.97348 0.0
C954 C 0.04409 0.27647 1.00772 0.0
C955 C 0.03629 0.25249 1.00483 0.0
C956 C 0.01837 0.24131 0.9876 0.0
C957 C 1.00995 0.25382 0.97214 0.0
C958 C 0.0628 0.28904 0.02625 0.0
C959 C 1.00949 0.21574 0.98407 0.0
C960 C 0.07619 0.21277 1.01374 0.0
C961 C 0.06826 0.2043 0.03324 0.0
C962 C 0.06685 0.22968 1.00524 0.0
C963 C 0.04922 0.23836 0.01666 0.0
C964 C 0.04245 0.23125 0.03753 0.0
C965 C 0.05207 0.21416 0.0456 0.0
C966 C 0.07471 0.23697 0.98303 0.0
C967 C 0.024 0.24044 0.05037 0.0
H968 H 0.0424 0.30666 0.99316 0.0
H969 H 0.99713 0.245 0.95811 0.0
H970 H 0.06054 0.28297 0.04304 0.0
H971 H 0.07924 0.28556 0.02046 0.0
H972 H 0.06361 0.30793 0.02939 0.0
H973 H 0.99384 0.21025 0.97188 0.0
H974 H 0.02251 0.20636 0.97671 0.0
H975 H 1.00591 0.21057 1.00106 0.0
H976 H 0.08899 0.20534 1.00446 0.0
H977 H 0.04595 0.20755 0.0607 0.0
H978 H 0.07893 0.25599 0.98551 0.0
H979 H 0.06092 0.23085 0.96865 0.0
H980 H 0.08977 0.22995 0.97744 0.0
H981 H 0.02576 0.25922 0.05113 0.0
H982 H 0.02406 0.237 0.06851 0.0
H983 H 1.00735 0.23202 0.04083 0.0
C984 C 0.16334 0.83761 0.18361 0.0
C985 C 0.1422 0.82358 0.18362 0.0
C986 C 0.1808 0.83862 0.20096 0.0
C987 C 0.17693 0.82512 0.21848 0.0
C988 C 0.15507 0.81248 0.21966 0.0
C989 C 0.13792 0.81193 0.20223 0.0
C990 C 0.20385 0.8526 0.19939 0.0
C991 C 0.15027 0.79783 0.23803 0.0
C992 C 0.22632 0.79946 0.23649 0.0
C993 C 0.23406 0.81312 0.25854 0.0
C994 C 0.20752 0.80306 0.22354 0.0
C995 C 0.19635 0.82098 0.23275 0.0
C996 C 0.2038 0.83461 0.25521 0.0
C997 C 0.22258 0.8304 0.26798 0.0
C998 C 0.19985 0.78786 0.19981 0.0
C999 C 0.19237 0.85397 0.2654 0.0
H1000 H 0.16663 0.84685 0.16938 0.0
H1001 H 0.12149 0.80126 0.20247 0.0
H1002 H 0.21135 0.86224 0.21696 0.0
H1003 H 0.21528 0.84089 0.19272 0.0
H1004 H 0.20317 0.86496 0.18739 0.0
H1005 H 0.13186 0.79205 0.23883 0.0
H1006 H 0.15801 0.78237 0.23381 0.0
H1007 H 0.15786 0.80734 0.25561 0.0
H1008 H 0.23508 0.78598 0.22923 0.0
H1009 H 0.22871 0.84112 0.28494 0.0
H1010 H 0.20119 0.7984 0.18594 0.0
H1011 H 0.18186 0.7795 0.19924 0.0
H1012 H 0.21001 0.77425 0.19558 0.0
H1013 H 0.19447 0.86733 0.25436 0.0
H1014 H 0.1994 0.86208 0.28363 0.0
H1015 H 0.17397 0.84761 0.26535 0.0
C1016 C 0.52529 0.89098 0.45823 0.0
C1017 C 0.51381 0.87186 0.46615 0.0
C1018 C 0.52686 0.9132 0.4712 0.0
C1019 C 0.51698 0.91622 0.49273 0.0
C1020 C 0.5047 0.89704 0.50043 0.0
C1021 C 0.50312 0.87502 0.48691 0.0
C1022 C 0.53981 0.93334 0.46228 0.0
C1023 C 0.49416 0.89966 0.52343 0.0
C1024 C 0.54611 0.96939 0.53573 0.0
C1025 C 0.53172 0.98476 0.53299 0.0
C1026 C 0.54092 0.94665 0.52349 0.0
C1027 C 0.52105 0.93929 0.50791 0.0
C1028 C 0.50604 0.95449 0.50569 0.0
C1029 C 0.51149 0.97709 0.51844 0.0
C1030 C 0.55716 0.93076 0.52657 0.0
C1031 C 0.48482 0.94725 0.48904 0.0
H1032 H 0.5334 0.88854 0.44206 0.0
H1033 H 0.49426 0.8602 0.49307 0.0
H1034 H 0.52948 0.94682 0.46214 0.0
H1035 H 0.55532 0.94111 0.47419 0.0
H1036 H 0.54481 0.92824 0.44431 0.0
H1037 H 0.48361 0.88331 0.52593 0.0
H1038 H 0.50765 0.90547 0.53814 0.0
H1039 H 0.48352 0.91298 0.52445 0.0
H1040 H 0.56165 0.97523 0.54718 0.0
H1041 H 0.50037 0.98899 0.51624 0.0
H1042 H 0.565 0.92641 0.50999 0.0
H1043 H 0.548 0.91443 0.53061 0.0
H1044 H 0.57083 0.93859 0.54081 0.0
H1045 H 0.48942 0.94415 0.47071 0.0
H1046 H 0.47402 0.96047 0.49085 0.0
H1047 H 0.4748 0.93088 0.49209 0.0
C1048 C 0.5375 0.3336 0.67611 0.0
C1049 C 0.53769 0.31868 0.65473 0.0
C1050 C 0.51905 0.33082 0.68958 0.0
C1051 C 0.50036 0.31274 0.68139 0.0
C1052 C 0.50006 0.29822 0.65935 0.0
C1053 C 0.51877 0.30135 0.64628 0.0
C1054 C 0.51996 0.34664 0.71301 0.0
C1055 C 0.48033 0.27886 0.64998 0.0
C1056 C 0.46542 0.28913 0.72683 0.0
C1057 C 0.44675 0.29992 0.72574 0.0
C1058 C 0.48297 0.29316 0.71246 0.0
C1059 C 0.48173 0.30821 0.69649 0.0
C1060 C 0.46287 0.31903 0.69514 0.0
C1061 C 0.44564 0.31483 0.70987 0.0
C1062 C 0.50287 0.28133 0.71439 0.0
C1063 C 0.46097 0.33512 0.67825 0.0
H1064 H 0.5521 0.34702 0.6827 0.0
H1065 H 0.51884 0.28979 0.62973 0.0
H1066 H 0.5046 0.35434 0.71411 0.0
H1067 H 0.52034 0.33664 0.72728 0.0
H1068 H 0.53505 0.36072 0.71615 0.0
H1069 H 0.482 0.27021 0.63182 0.0
H1070 H 0.47905 0.26588 0.66145 0.0
H1071 H 0.4643 0.28544 0.65014 0.0
H1072 H 0.46622 0.27732 0.73879 0.0
H1073 H 0.43143 0.32349 0.70916 0.0
H1074 H 0.51871 0.29434 0.71909 0.0
H1075 H 0.50448 0.2706 0.69722 0.0
H1076 H 0.50128 0.27021 0.72778 0.0
H1077 H 0.47531 0.34996 0.6823 0.0
H1078 H 0.44493 0.34172 0.67898 0.0
H1079 H 0.46194 0.32616 0.66006 0.0
C1080 C 0.03655 0.82469 0.59746 0.0
C1081 C 0.03499 0.83418 0.621 0.0
C1082 C 0.0416 0.83882 0.581 0.0
C1083 C 0.04501 0.86296 0.58828 0.0
C1084 C 0.04274 0.87261 0.61186 0.0
C1085 C 0.03782 0.85806 0.62799 0.0
C1086 C 0.04394 0.82797 0.55601 0.0
C1087 C 0.04606 0.8983 0.62017 0.0
C1088 C 0.08133 0.90227 0.55532 0.0
C1089 C 0.06495 0.91018 0.5426 0.0
C1090 C 0.07503 0.88628 0.56971 0.0
C1091 C 0.05182 0.87823 0.57151 0.0
C1092 C 0.03522 0.88558 0.5581 0.0
C1093 C 0.042 0.90145 0.54372 0.0
C1094 C 0.09321 0.8786 0.58358 0.0
C1095 C 1.01032 0.87745 0.55969 0.0
H1096 H 0.03438 0.8062 0.59199 0.0
H1097 H 0.03656 0.86543 0.64616 0.0
H1098 H 0.03275 0.83406 0.5437 0.0
H1099 H 0.06154 0.83324 0.55174 0.0
H1100 H 0.03972 0.80889 0.55295 0.0
H1101 H 0.04258 0.90297 0.63878 0.0
H1102 H 0.0637 0.90642 0.61836 0.0
H1103 H 0.0348 0.90569 0.60914 0.0
H1104 H 0.09907 0.90893 0.55433 0.0
H1105 H 0.02931 0.90783 0.53416 0.0
H1106 H 0.09053 0.85955 0.58032 0.0
H1107 H 0.0923 0.88455 0.60261 0.0
H1108 H 0.11042 0.88541 0.57911 0.0
H1109 H 1.00614 0.85839 0.55647 0.0
H1110 H 0.9996 0.88362 0.54696 0.0
H1111 H 1.00596 0.88377 0.57764 0.0
C1112 C 0.5607 0.81689 0.83581 0.0
C1113 C 0.55573 0.81014 0.85711 0.0
C1114 C 0.54335 0.81821 0.8193 0.0
C1115 C 0.52061 0.81257 0.82427 0.0
C1116 C 0.51552 0.80407 0.84493 0.0
C1117 C 0.53318 0.80301 0.86116 0.0
C1118 C 0.54943 0.82724 0.79742 0.0
C1119 C 0.49145 0.79762 0.85073 0.0
C1120 C 0.47644 0.84451 0.80565 0.0
C1121 C 0.46277 0.82772 0.78828 0.0
C1122 C 0.49617 0.84025 0.81639 0.0
C1123 C 0.50229 0.81855 0.80983 0.0
C1124 C 0.48948 0.80206 0.79128 0.0
C1125 C 0.46988 0.80688 0.78062 0.0
C1126 C 0.50954 0.85842 0.83596 0.0
C1127 C 0.49559 0.77879 0.78372 0.0
H1128 H 0.57814 0.82229 0.83255 0.0
H1129 H 0.52928 0.79757 0.8775 0.0
H1130 H 0.53846 0.81692 0.78184 0.0
H1131 H 0.54669 0.84518 0.79926 0.0
H1132 H 0.56737 0.82713 0.79422 0.0
H1133 H 0.49029 0.78885 0.86602 0.0
H1134 H 0.48414 0.81337 0.85485 0.0
H1135 H 0.48094 0.78616 0.83546 0.0
H1136 H 0.47104 0.86052 0.81202 0.0
H1137 H 0.45963 0.79396 0.76694 0.0
H1138 H 0.52779 0.86116 0.83329 0.0
H1139 H 0.50761 0.85261 0.85293 0.0
H1140 H 0.50389 0.87514 0.83727 0.0
H1141 H 0.51398 0.78051 0.78195 0.0
H1142 H 0.48619 0.76942 0.7668 0.0
H1143 H 0.49153 0.76826 0.7973 0.0
C1144 C 0.55788 0.22617 0.12951 0.0
C1145 C 0.5366 0.23064 0.13486 0.0
C1146 C 0.56033 0.20431 0.11818 0.0
C1147 C 0.54103 0.18653 0.11225 0.0
C1148 C 0.51953 0.19087 0.11783 0.0
C1149 C 0.51755 0.21295 0.12902 0.0
C1150 C 0.58351 0.20031 0.11234 0.0
C1151 C 0.49862 0.17224 0.11188 0.0
C1152 C 0.54391 0.13712 0.06296 0.0
C1153 C 0.54888 0.12039 0.07537 0.0
C1154 C 0.54122 0.1587 0.07478 0.0
C1155 C 0.54331 0.16355 0.09959 0.0
C1156 C 0.54798 0.14663 0.11225 0.0
C1157 C 0.55085 0.12525 0.09996 0.0
C1158 C 0.53641 0.17642 0.06073 0.0
C1159 C 0.55005 0.15115 0.13873 0.0
H1160 H 0.57264 0.23982 0.13403 0.0
H1161 H 0.50108 0.21634 0.13324 0.0
H1162 H 0.5879 0.18616 0.12051 0.0
H1163 H 0.58358 0.19494 0.09309 0.0
H1164 H 0.59683 0.2159 0.11843 0.0
H1165 H 0.48327 0.17825 0.11811 0.0
H1166 H 0.4958 0.16612 0.09261 0.0
H1167 H 0.5009 0.15727 0.11985 0.0
H1168 H 0.54245 0.1335 0.04395 0.0
H1169 H 0.5545 0.1123 0.10964 0.0
H1170 H 0.55005 0.19191 0.06512 0.0
H1171 H 0.52039 0.18193 0.0653 0.0
H1172 H 0.5351 0.16983 0.04152 0.0
H1173 H 0.56424 0.16569 0.14566 0.0
H1174 H 0.55301 0.1359 0.1459 0.0
H1175 H 0.53445 0.15621 0.14531 0.0
C1176 C 0.16322 0.30428 0.35316 0.0
C1177 C 0.16253 0.321 0.37302 0.0
C1178 C 0.18266 0.30466 0.34117 0.0
C1179 C 0.20199 0.32194 0.34955 0.0
C1180 C 0.20139 0.33892 0.36958 0.0
C1181 C 0.18153 0.33836 0.381 0.0
C1182 C 0.18262 0.28637 0.3197 0.0
C1183 C 0.22185 0.35729 0.37923 0.0
C1184 C 0.2554 0.30257 0.33159 0.0
C1185 C 0.25948 0.31283 0.31207 0.0
C1186 C 0.23758 0.3067 0.34495 0.0
C1187 C 0.2232 0.321 0.33819 0.0
C1188 C 0.22791 0.33232 0.31911 0.0
C1189 C 0.24631 0.32828 0.30634 0.0
C1190 C 0.23348 0.29473 0.3655 0.0
C1191 C 0.21274 0.34749 0.3113 0.0
H1192 H 0.14844 0.291 0.34681 0.0
H1193 H 0.18097 0.35133 0.39636 0.0
H1194 H 0.18797 0.29447 0.30469 0.0
H1195 H 0.19491 0.27541 0.32314 0.0
H1196 H 0.16572 0.27517 0.31455 0.0
H1197 H 0.21825 0.3699 0.39426 0.0
H1198 H 0.23574 0.3492 0.38514 0.0
H1199 H 0.22802 0.36664 0.36534 0.0
H1200 H 0.26593 0.29085 0.33612 0.0
H1201 H 0.24962 0.33613 0.29118 0.0
H1202 H 0.21801 0.28117 0.36113 0.0
H1203 H 0.23068 0.30707 0.38113 0.0
H1204 H 0.2478 0.28656 0.37014 0.0
H1205 H 0.19621 0.33674 0.30362 0.0
H1206 H 0.22011 0.357 0.29796 0.0
H1207 H 0.20943 0.36005 0.32648 0.0
C1208 C 0.99054 0.06317 0.21356 0.0
C1209 C 0.96733 0.06461 0.2137 0.0
C1210 C 1.00216 0.06097 0.19244 0.0
C1211 C 0.99102 0.06043 0.16983 0.0
C1212 C 0.96764 0.06206 0.16992 0.0
C1213 C 0.95635 0.06389 0.19124 0.0
C1214 C 0.02669 0.05905 0.19439 0.0
C1215 C 0.95432 0.06204 0.1472 0.0
C1216 C 0.02681 0.07588 0.11734 0.0
C1217 C 0.02706 0.0545 0.10245 0.0
C1218 C 0.01544 0.07798 0.13859 0.0
C1219 C 1.00362 0.05832 0.14652 0.0
C1220 C 1.00395 0.03666 0.13169 0.0
C1221 C 0.01519 0.03506 0.11031 0.0
C1222 C 0.01589 0.10167 0.15258 0.0
C1223 C 0.99228 0.01481 0.13846 0.0
H1224 H 0.9998 0.06355 0.23018 0.0
H1225 H 0.93861 0.06495 0.19025 0.0
H1226 H 0.02903 0.04298 0.18294 0.0
H1227 H 0.03703 0.07361 0.1882 0.0
H1228 H 0.03315 0.05905 0.21266 0.0
H1229 H 0.93664 0.06401 0.14971 0.0
H1230 H 0.9626 0.07624 0.13896 0.0
H1231 H 0.95404 0.04572 0.13475 0.0
H1232 H 0.0354 0.09137 0.11219 0.0
H1233 H 0.0147 0.01826 0.09967 0.0
H1234 H 0.02385 0.10314 0.17058 0.0
H1235 H 0.99836 0.10456 0.15421 0.0
H1236 H 0.02531 0.11541 0.14444 0.0
H1237 H 0.99899 1.01384 0.15635 0.0
H1238 H 0.99448 0.99923 0.12607 0.0
H1239 H 0.97395 0.01481 0.13895 0.0
C1240 C 0.32353 0.68899 0.50032 0.0
C1241 C 0.30971 0.66767 0.50042 0.0
C1242 C 0.31894 0.70235 0.48377 0.0
C1243 C 0.29995 0.69428 0.46702 0.0
C1244 C 0.28609 0.67263 0.46686 0.0
C1245 C 0.29119 0.65954 0.4835 0.0
C1246 C 0.33426 0.72523 0.48438 0.0
C1247 C 0.26562 0.66349 0.44939 0.0
C1248 C 0.27597 0.73921 0.44018 0.0
C1249 C 0.28486 0.73725 0.4183 0.0
C1250 C 0.28045 0.7251 0.45602 0.0
C1251 C 0.29436 0.70874 0.44999 0.0
C1252 C 0.30326 0.70653 0.4279 0.0
C1253 C 0.2983 0.72069 0.41229 0.0
C1254 C 0.27052 0.72789 0.47936 0.0
C1255 C 0.31824 0.68937 0.42084 0.0
H1256 H 0.33789 0.69536 0.51333 0.0
H1257 H 0.2804 0.6431 0.48353 0.0
H1258 H 0.34092 0.72575 0.46706 0.0
H1259 H 0.32456 0.73928 0.48796 0.0
H1260 H 0.34875 0.72868 0.498 0.0
H1261 H 0.25685 0.64613 0.45125 0.0
H1262 H 0.2535 0.67538 0.45176 0.0
H1263 H 0.27063 0.66257 0.43125 0.0
H1264 H 0.26584 0.75213 0.44519 0.0
H1265 H 0.30493 0.7187 0.39528 0.0
H1266 H 0.28429 0.73337 0.49381 0.0
H1267 H 0.26063 0.71119 0.48171 0.0
H1268 H 0.25934 0.74077 0.48103 0.0
H1269 H 0.33348 0.69306 0.43351 0.0
H1270 H 0.32372 0.6897 0.40298 0.0
H1271 H 0.30918 0.67176 0.42131 0.0
C1272 C 0.64195 0.01983 0.70875 0.0
C1273 C 0.66323 0.01777 0.70113 0.0
C1274 C 0.62372 0.01981 0.69273 0.0
C1275 C 0.62684 0.01723 0.66856 0.0
C1276 C 0.64749 1.01234 0.6606 0.0
C1277 C 0.66559 1.01292 0.67705 0.0
C1278 C 0.60202 0.02513 0.70194 0.0
C1279 C 0.6512 1.00871 0.63486 0.0
C1280 C 0.57816 0.0153 0.62328 0.0
C1281 C 0.58277 0.03786 0.61929 0.0
C1282 C 0.5921 1.00821 0.63964 0.0
C1283 C 0.61063 0.02428 0.65244 0.0
C1284 C 0.61448 0.0474 0.64925 0.0
C1285 C 0.60067 0.0538 0.63246 0.0
C1286 C 0.58776 0.98335 0.64224 0.0
C1287 C 0.63368 0.06526 0.66299 0.0
H1288 H 0.63998 0.02339 0.72738 0.0
H1289 H 0.68194 1.01097 0.67109 0.0
H1290 H 0.60132 0.04336 0.70156 0.0
H1291 H 0.58711 1.01431 0.6908 0.0
H1292 H 0.60077 0.02248 0.72029 0.0
H1293 H 0.66625 1.00085 0.63124 0.0
H1294 H 0.63619 0.99754 0.62417 0.0
H1295 H 0.6538 0.02552 0.62909 0.0
H1296 H 0.56447 1.00292 0.61272 0.0
H1297 H 0.60412 0.07125 0.62928 0.0
H1298 H 0.58889 0.98192 0.661 0.0
H1299 H 0.60089 0.97477 0.63393 0.0
H1300 H 0.57093 0.97396 0.63378 0.0
H1301 H 0.63305 0.06559 0.68207 0.0
H1302 H 0.63325 0.08279 0.65964 0.0
H1303 H 0.65007 0.0608 0.65816 0.0
C1304 C 0.32145 0.37497 0.96375 0.0
C1305 C 0.31987 0.36131 0.98101 0.0
C1306 C 0.31892 0.3651 0.93978 0.0
C1307 C 0.31471 0.34088 0.93273 0.0
C1308 C 0.3128 0.32692 0.95004 0.0
C1309 C 0.31541 0.3373 0.97399 0.0
C1310 C 0.32109 0.38068 0.92199 0.0
C1311 C 0.30831 0.30104 0.94324 0.0
C1312 C 0.29147 0.31831 0.86886 0.0
C1313 C 0.31121 0.31566 0.85792 0.0
C1314 C 0.29218 0.32564 0.89331 0.0
C1315 C 0.31313 0.33043 0.90723 0.0
C1316 C 0.33296 0.32698 0.89639 0.0
C1317 C 0.33177 0.31967 0.87195 0.0
C1318 C 0.27062 0.32906 0.90413 0.0
C1319 C 0.35565 0.33183 0.91052 0.0
H1320 H 0.32483 0.39354 0.96897 0.0
H1321 H 0.31413 0.32662 0.98722 0.0
H1322 H 0.33551 0.3779 0.91158 0.0
H1323 H 0.30564 0.37649 0.90956 0.0
H1324 H 0.32377 0.39915 0.93032 0.0
H1325 H 0.30647 0.29259 0.95871 0.0
H1326 H 0.29269 0.29494 0.93112 0.0
H1327 H 0.32239 0.29546 0.93375 0.0
H1328 H 0.27547 0.31522 0.85827 0.0
H1329 H 0.34714 0.31757 0.86379 0.0
H1330 H 0.27153 0.34761 0.91111 0.0
H1331 H 0.26848 0.31997 0.9191 0.0
H1332 H 0.25549 0.32277 0.89129 0.0
H1333 H 0.36049 0.35049 0.91798 0.0
H1334 H 0.36916 0.32666 0.89979 0.0
H1335 H 0.3547 0.3226 0.92544 0.0
C1336 C 0.99011 0.07849 0.35544 0.0
C1337 C 0.96734 0.06772 0.34809 0.0
C1338 C 1.00147 0.07689 0.37747 0.0
C1339 C 0.99045 0.06385 0.39336 0.0
C1340 C 0.96754 0.05283 0.38589 0.0
C1341 C 0.9565 0.05499 0.36399 0.0
C1342 C 0.02553 0.08945 0.38383 0.0
C1343 C 0.95447 0.03841 0.40113 0.0
C1344 C 0.02619 0.04228 0.44157 0.0
C1345 C 0.02472 0.05721 0.46299 0.0
C1346 C 0.0154 0.04417 0.4194 0.0
C1347 C 1.00261 0.06173 0.41746 0.0
C1348 C 1.00132 0.07702 0.43898 0.0
C1349 C 1.01197 0.07452 0.46096 0.0
C1350 C 0.01754 0.02696 0.39785 0.0
C1351 C 0.98857 0.09636 0.43884 0.0
H1352 H 0.99918 0.08845 0.34396 0.0
H1353 H 0.93911 0.04632 0.35918 0.0
H1354 H 0.02685 0.10146 0.4009 0.0
H1355 H 0.03665 0.077 0.38595 0.0
H1356 H 0.03187 0.09935 0.37036 0.0
H1357 H 0.93713 0.03038 0.39306 0.0
H1358 H 0.96353 0.02463 0.40444 0.0
H1359 H 0.95325 0.04919 0.4184 0.0
H1360 H 0.03568 0.02868 0.44209 0.0
H1361 H 1.01038 0.08649 0.47676 0.0
H1362 H 0.02566 0.03598 0.38456 0.0
H1363 H 1.00051 0.01774 0.3899 0.0
H1364 H 0.02763 1.01413 0.40178 0.0
H1365 H 0.99532 0.10711 0.42623 0.0
H1366 H 0.98968 0.1075 0.45642 0.0
H1367 H 0.97052 0.08924 0.43289 0.0
C1368 C 0.3256 0.70434 0.61337 0.0
C1369 C 0.32642 0.68162 0.61551 0.0
C1370 C 0.32323 0.72098 0.63289 0.0
C1371 C 0.3218 0.7149 0.65528 0.0
C1372 C 0.32315 0.69212 0.65767 0.0
C1373 C 0.32535 0.67575 0.63777 0.0
C1374 C 0.32186 0.74499 0.62947 0.0
C1375 C 0.32197 0.68495 0.68123 0.0
C1376 C 0.33497 0.76275 0.70956 0.0
C1377 C 0.31332 0.76502 0.71614 0.0
C1378 C 0.33794 0.74661 0.68988 0.0
C1379 C 0.31883 0.73238 0.67612 0.0
C1380 C 0.29691 0.7349 0.68232 0.0
C1381 C 0.29442 0.75107 0.70227 0.0
C1382 C 0.36161 0.74446 0.68409 0.0
C1383 C 0.27607 0.72026 0.66804 0.0
H1384 H 0.3263 0.70906 0.59625 0.0
H1385 H 0.3259 0.65825 0.63961 0.0
H1386 H 0.30546 0.74917 0.63462 0.0
H1387 H 0.33538 0.75769 0.64094 0.0
H1388 H 0.32352 0.74708 0.61101 0.0
H1389 H 0.32394 0.66682 0.68033 0.0
H1390 H 0.33537 0.69625 0.69408 0.0
H1391 H 0.3055 0.68692 0.68801 0.0
H1392 H 0.34976 0.77319 0.72018 0.0
H1393 H 0.27763 0.75253 0.70717 0.0
H1394 H 0.36398 0.74718 0.66596 0.0
H1395 H 0.36432 0.72684 0.68486 0.0
H1396 H 0.37471 0.75698 0.69633 0.0
H1397 H 0.27627 0.72236 0.64948 0.0
H1398 H 0.26025 0.72469 0.67474 0.0
H1399 H 0.27592 0.70184 0.66827 0.0
C1400 C 0.69766 0.08002 0.82801 0.0
C1401 C 0.69735 0.05731 0.81685 0.0
C1402 C 0.68568 0.08473 0.84764 0.0
C1403 C 0.67328 0.06627 0.85635 0.0
C1404 C 0.67415 0.04332 0.84611 0.0
C1405 C 0.68614 0.0391 0.82638 0.0
C1406 C 0.68514 0.10943 0.85809 0.0
C1407 C 0.66136 0.0232 0.85515 0.0
C1408 C 0.64931 0.07733 0.91526 0.0
C1409 C 0.62667 0.07744 0.90839 0.0
C1410 C 0.66482 0.07395 0.89856 0.0
C1411 C 0.65753 0.07082 0.87447 0.0
C1412 C 0.63487 0.07153 0.86745 0.0
C1413 C 0.6197 0.07472 0.88449 0.0
C1414 C 0.68887 0.07331 0.90664 0.0
C1415 C 0.62652 0.06842 0.84188 0.0
H1416 H 0.70638 0.09417 0.82074 0.0
H1417 H 0.68599 0.02153 0.81787 0.0
H1418 H 0.66807 0.11296 0.85405 0.0
H1419 H 0.68844 0.11262 0.87746 0.0
H1420 H 0.69771 0.12174 0.85108 0.0
H1421 H 0.66579 1.00664 0.84698 0.0
H1422 H 0.66484 0.02566 0.87446 0.0
H1423 H 0.64294 0.02205 0.85133 0.0
H1424 H 0.65489 0.07978 0.93374 0.0
H1425 H 0.60218 0.07444 0.87902 0.0
H1426 H 0.70079 0.08624 0.89973 0.0
H1427 H 0.69273 0.0562 0.89959 0.0
H1428 H 0.69199 0.07671 0.92606 0.0
H1429 H 0.63709 0.08121 0.8335 0.0
H1430 H 0.60863 0.07035 0.83943 0.0
H1431 H 0.628 0.0511 0.83252 0.0
C1432 C 0.32928 0.34279 0.11264 0.0
C1433 C 0.32189 0.36333 0.11106 0.0
C1434 C 0.32705 0.33316 0.133 0.0
C1435 C 0.31703 0.34421 0.15218 0.0
C1436 C 0.30922 0.36474 0.15048 0.0
C1437 C 0.31181 0.37406 0.13004 0.0
C1438 C 0.33579 0.31137 0.13414 0.0
C1439 C 0.29836 0.37707 0.1704 0.0
C1440 C 0.29502 0.31071 0.19897 0.0
C1441 C 0.31251 0.31828 0.21715 0.0
C1442 C 0.29627 0.31888 0.17771 0.0
C1443 C 0.31553 0.33491 0.17442 0.0
C1444 C 0.33324 0.34255 0.19269 0.0
C1445 C 0.33149 0.33423 0.21375 0.0
C1446 C 0.27694 0.31044 0.15878 0.0
C1447 C 0.35411 0.35956 0.19001 0.0
H1448 H 0.33709 0.3344 0.09809 0.0
H1449 H 0.30596 0.38988 0.12898 0.0
H1450 H 0.34943 0.31471 0.14864 0.0
H1451 H 0.3221 0.298 0.138 0.0
H1452 H 0.34253 0.3045 0.11754 0.0
H1453 H 0.29229 0.3923 0.16595 0.0
H1454 H 0.28385 0.36518 0.17514 0.0
H1455 H 0.31067 0.38285 0.18616 0.0
H1456 H 0.28029 0.29841 0.20132 0.0
H1457 H 0.3452 0.34019 0.22754 0.0
H1458 H 0.28312 0.30222 0.14242 0.0
H1459 H 0.26977 0.32519 0.15472 0.0
H1460 H 0.26323 0.29786 0.16392 0.0
H1461 H 0.36236 0.35271 0.17445 0.0
H1462 H 0.36658 0.36344 0.20566 0.0
H1463 H 0.34935 0.37586 0.18705 0.0
C1464 C 0.22402 1.00292 0.04497 0.0
C1465 C 0.23372 1.00337 0.02358 0.0
C1466 C 0.20245 1.00839 0.04831 0.0
C1467 C 0.19004 0.01494 0.03 0.0
C1468 C 0.1999 0.01584 1.00847 0.0
C1469 C 0.2214 1.00988 1.00546 0.0
C1470 C 0.19277 1.00675 0.07143 0.0
C1471 C 0.18763 0.02296 0.98847 0.0
C1472 C 0.12533 1.00874 0.03021 0.0
C1473 C 0.12263 0.0312 0.03969 0.0
C1474 C 0.14696 1.00325 0.02711 0.0
C1475 C 0.16673 0.02057 0.03336 0.0
C1476 C 0.16414 0.04323 0.0431 0.0
C1477 C 0.14231 0.04821 0.04622 0.0
C1478 C 0.14861 0.97879 0.01705 0.0
C1479 C 0.18448 0.06242 0.04982 0.0
H1480 H 0.23312 0.99775 0.0591 0.0
H1481 H 0.22854 1.01026 0.98883 0.0
H1482 H 0.18894 0.02357 0.07956 0.0
H1483 H 0.17663 0.99408 0.06848 0.0
H1484 H 0.20445 1.00148 0.08398 0.0
H1485 H 0.19775 0.02363 0.97317 0.0
H1486 H 0.17144 1.01069 0.98271 0.0
H1487 H 0.18343 0.04015 0.9944 0.0
H1488 H 0.11044 0.99536 0.02491 0.0
H1489 H 0.14069 0.06569 0.05325 0.0
H1490 H 0.15792 0.9717 0.03015 0.0
H1491 H 0.15826 0.97823 1.00137 0.0
H1492 H 0.13176 0.96753 1.01198 0.0
H1493 H 0.19616 0.05815 0.06308 0.0
H1494 H 0.17979 0.07911 0.05709 0.0
H1495 H 0.19386 0.06442 0.03424 0.0
C1496 C 0.72218 0.64104 0.01635 0.0
C1497 C 0.72521 0.66152 1.00759 0.0
C1498 C 0.7005 0.62826 0.01716 0.0
C1499 C 0.68132 0.63587 1.00859 0.0
C1500 C 0.68428 0.65618 0.99904 0.0
C1501 C 0.70621 0.6689 0.99886 0.0
C1502 C 0.69812 0.60697 0.0279 0.0
C1503 C 0.66428 0.66465 0.98935 0.0
C1504 C 0.62726 0.59041 0.99688 0.0
C1505 C 0.61657 0.59589 0.01735 0.0
C1506 C 0.64785 0.60389 0.99327 0.0
C1507 C 0.65822 0.62304 1.01073 0.0
C1508 C 0.64722 0.62896 0.03115 0.0
C1509 C 0.62649 0.61545 0.03411 0.0
C1510 C 0.65877 0.59734 0.97101 0.0
C1511 C 0.65778 0.64903 0.05037 0.0
H1512 H 0.73677 0.63528 0.02323 0.0
H1513 H 0.70846 0.68469 0.992 0.0
H1514 H 0.68831 0.60917 0.04342 0.0
H1515 H 0.68866 0.59187 0.01516 0.0
H1516 H 0.71473 0.60319 0.03348 0.0
H1517 H 0.66949 0.67981 0.98108 0.0
H1518 H 0.65359 0.65074 0.97615 0.0
H1519 H 0.65365 0.66947 1.00364 0.0
H1520 H 0.61962 0.57549 0.98371 0.0
H1521 H 0.6184 0.61988 0.04999 0.0
H1522 H 0.67466 0.59147 0.9752 0.0
H1523 H 0.66329 0.61251 0.96261 0.0
H1524 H 0.64759 0.58339 0.95822 0.0
H1525 H 0.67386 0.64578 0.05809 0.0
H1526 H 0.64654 0.65204 0.0646 0.0
H1527 H 0.6619 0.66494 0.0431 0.0
C1528 C 0.73802 0.46973 0.29844 0.0
C1529 C 0.71975 0.47078 0.28229 0.0
C1530 C 0.74828 0.44955 0.29827 0.0
C1531 C 0.74135 0.42872 0.28093 0.0
C1532 C 0.72308 0.42987 0.26435 0.0
C1533 C 0.71264 0.45002 0.26548 0.0
C1534 C 0.7667 0.45095 0.31735 0.0
C1535 C 0.71408 0.4097 0.24479 0.0
C1536 C 0.78577 0.38551 0.2731 0.0
C1537 C 0.77472 0.36443 0.27869 0.0
C1538 C 0.7754 0.40561 0.2733 0.0
C1539 C 0.75293 0.40637 0.28014 0.0
C1540 C 0.74186 0.38519 0.28621 0.0
C1541 C 0.75239 0.36511 0.28507 0.0
C1542 C 0.7891 0.42614 0.26584 0.0
C1543 C 0.71844 0.38322 0.2942 0.0
H1544 H 0.74432 0.48485 0.31186 0.0
H1545 H 0.69878 0.44947 0.25259 0.0
H1546 H 0.76817 0.43378 0.32105 0.0
H1547 H 0.78304 0.45898 0.31189 0.0
H1548 H 0.76368 0.46198 0.33385 0.0
H1549 H 0.70851 0.41561 0.22876 0.0
H1550 H 0.72676 0.39875 0.2403 0.0
H1551 H 0.69907 0.39905 0.25023 0.0
H1552 H 0.80287 0.38639 0.26813 0.0
H1553 H 0.74291 0.34976 0.28976 0.0
H1554 H 0.80023 0.43672 0.28117 0.0
H1555 H 0.77833 0.43703 0.2589 0.0
H1556 H 0.80017 0.42066 0.25218 0.0
H1557 H 0.7147 0.40016 0.30213 0.0
H1558 H 0.71605 0.37169 0.30717 0.0
H1559 H 0.70604 0.37547 0.27883 0.0
C1560 C 0.87158 0.5259 0.52032 0.0
C1561 C 0.86229 0.5027 0.51987 0.0
C1562 C 0.89531 0.53395 0.52297 0.0
C1563 C 0.91024 0.51845 0.52503 0.0
C1564 C 0.90085 0.49503 0.52446 0.0
C1565 C 0.87721 0.48754 0.52201 0.0
C1566 C 0.90445 0.55907 0.52362 0.0
C1567 C 0.91581 0.47771 0.52635 0.0
C1568 C 0.97171 0.53129 0.50987 0.0
C1569 C 0.984 0.53752 0.53209 0.0
C1570 C 0.94785 0.52567 0.50735 0.0
C1571 C 0.93563 0.52638 0.52749 0.0
C1572 C 0.94789 0.53313 0.54998 0.0
C1573 C 0.97178 0.53849 0.552 0.0
C1574 C 0.93573 0.51838 0.48302 0.0
C1575 C 0.93576 0.5343 0.57199 0.0
H1576 H 0.86033 0.53781 0.51875 0.0
H1577 H 0.87039 0.46956 0.52165 0.0
H1578 H 0.91521 0.56661 0.54025 0.0
H1579 H 0.91527 0.56102 0.50906 0.0
H1580 H 0.89078 0.56903 0.52216 0.0
H1581 H 0.90596 0.46011 0.52552 0.0
H1582 H 0.92708 0.47722 0.51194 0.0
H1583 H 0.92676 0.48288 0.54311 0.0
H1584 H 0.98077 0.53044 0.49429 0.0
H1585 H 0.9809 0.54337 0.56928 0.0
H1586 H 0.92293 0.52911 0.48074 0.0
H1587 H 0.92662 0.50029 0.48056 0.0
H1588 H 0.94748 0.51975 0.46911 0.0
H1589 H 0.92287 0.54526 0.57139 0.0
H1590 H 0.9475 0.54126 0.58809 0.0
H1591 H 0.92674 0.51685 0.57319 0.0
C1592 C 0.3429 0.10506 0.34901 0.0
C1593 C 0.36063 0.10486 0.33447 0.0
C1594 C 0.32484 0.11589 0.34427 0.0
C1595 C 0.3246 0.12664 0.32454 0.0
C1596 C 0.34285 0.12709 0.31028 0.0
C1597 C 0.36064 0.11622 0.31545 0.0
C1598 C 0.30574 0.11525 0.35991 0.0
C1599 C 0.34339 0.13867 0.28922 0.0
C1600 C 0.27301 0.13638 0.29089 0.0
C1601 C 0.27556 0.16032 0.29705 0.0
C1602 C 0.28769 0.1247 0.30144 0.0
C1603 C 0.30537 0.13737 0.31829 0.0
C1604 C 0.30673 0.16122 0.32602 0.0
C1605 C 0.29173 0.17239 0.31536 0.0
C1606 C 0.28563 0.09918 0.29287 0.0
C1607 C 0.32534 0.17535 0.3439 0.0
H1608 H 0.34281 0.09622 0.36371 0.0
H1609 H 0.37433 0.11615 0.3042 0.0
H1610 H 0.30282 0.13289 0.36622 0.0
H1611 H 0.28991 0.10521 0.34977 0.0
H1612 H 0.30911 0.10738 0.37533 0.0
H1613 H 0.35903 0.13782 0.28022 0.0
H1614 H 0.32863 0.13037 0.27643 0.0
H1615 H 0.34221 0.157 0.29468 0.0
H1616 H 0.26049 0.12702 0.2768 0.0
H1617 H 0.2941 0.19095 0.31991 0.0
H1618 H 0.28773 0.09032 0.3078 0.0
H1619 H 0.29922 0.09615 0.28133 0.0
H1620 H 0.26908 0.09133 0.28276 0.0
H1621 H 0.32462 0.16868 0.36049 0.0
H1622 H 0.32416 0.19382 0.34766 0.0
H1623 H 0.34208 0.17395 0.3375 0.0
C1624 C 0.33147 0.14248 0.52694 0.0
C1625 C 0.3364 0.16651 0.52975 0.0
C1626 C 0.34798 0.13025 0.53302 0.0
C1627 C 0.36989 0.14237 0.54222 0.0
C1628 C 0.37503 0.16661 0.5448 0.0
C1629 C 0.35824 0.17838 0.5385 0.0
C1630 C 0.3419 0.1044 0.52989 0.0
C1631 C 0.39817 0.18016 0.55457 0.0
C1632 C 0.40596 0.11451 0.58004 0.0
C1633 C 0.421 0.10686 0.56435 0.0
C1634 C 0.38918 0.12596 0.57302 0.0
C1635 C 0.38731 0.12978 0.5497 0.0
C1636 C 0.40232 0.12193 0.53372 0.0
C1637 C 0.41899 0.11059 0.54124 0.0
C1638 C 0.3736 0.13422 0.59063 0.0
C1639 C 0.4008 0.12553 0.50868 0.0
H1640 H 0.31464 0.13322 0.52016 0.0
H1641 H 0.36216 0.19696 0.54073 0.0
H1642 H 0.3537 0.09636 0.51871 0.0
H1643 H 0.34362 0.09916 0.54716 0.0
H1644 H 0.32436 0.09749 0.52178 0.0
H1645 H 0.39959 0.19888 0.55499 0.0
H1646 H 0.40198 0.1775 0.57266 0.0
H1647 H 0.41123 0.17395 0.54384 0.0
H1648 H 0.40758 0.11188 0.59797 0.0
H1649 H 0.43035 0.10442 0.52893 0.0
H1650 H 0.35576 0.12668 0.58403 0.0
H1651 H 0.37546 0.15318 0.59305 0.0
H1652 H 0.37706 0.12961 0.60798 0.0
H1653 H 0.38374 0.1175 0.4999 0.0
H1654 H 0.41359 0.11816 0.49839 0.0
H1655 H 0.40325 0.14418 0.50838 0.0
C1656 C 0.71897 0.62528 0.30474 0.0
C1657 C 0.72321 0.60631 0.28853 0.0
C1658 C 0.72938 0.64875 0.30471 0.0
C1659 C 0.74444 0.65458 0.28765 0.0
C1660 C 0.74862 0.6355 0.2711 0.0
C1661 C 0.7384 0.61212 0.27188 0.0
C1662 C 0.72423 0.66751 0.32327 0.0
C1663 C 0.76382 0.63979 0.25206 0.0
C1664 C 0.75478 0.71805 0.27482 0.0
C1665 C 0.7765 0.7286 0.2861 0.0
C1666 C 0.74455 0.69453 0.27493 0.0
C1667 C 0.75557 0.68025 0.2871 0.0
C1668 C 0.77738 0.6909 0.29878 0.0
C1669 C 0.78745 0.71429 0.29792 0.0
C1670 C 0.72173 0.68483 0.26163 0.0
C1671 C 0.79021 0.67753 0.31256 0.0
H1672 H 0.70745 0.62177 0.31783 0.0
H1673 H 0.74205 0.59826 0.25895 0.0
H1674 H 0.74019 0.6779 0.33287 0.0
H1675 H 0.71563 0.67927 0.31493 0.0
H1676 H 0.71331 0.6606 0.33609 0.0
H1677 H 0.76507 0.62365 0.23998 0.0
H1678 H 0.75736 0.65148 0.2417 0.0
H1679 H 0.78101 0.64845 0.25997 0.0
H1680 H 0.7457 0.72816 0.26541 0.0
H1681 H 0.80407 0.7215 0.30691 0.0
H1682 H 0.70925 0.67969 0.27389 0.0
H1683 H 0.72263 0.66914 0.24871 0.0
H1684 H 0.71549 0.69735 0.2522 0.0
H1685 H 0.77972 0.67109 0.32593 0.0
H1686 H 0.8064 0.68804 0.32152 0.0
H1687 H 0.79387 0.66231 0.30071 0.0
C1688 C 0.87825 0.47567 0.83975 0.0
C1689 C 0.86696 0.49174 0.83194 0.0
C1690 C 0.86783 0.45246 0.83663 0.0
C1691 C 0.8457 0.44522 0.82525 0.0
C1692 C 0.83395 0.46152 0.81805 0.0
C1693 C 0.84471 0.48465 0.82157 0.0
C1694 C 0.88082 0.43557 0.84469 0.0
C1695 C 0.81038 0.45439 0.80572 0.0
C1696 C 0.83086 0.38408 0.79136 0.0
C1697 C 0.81729 0.37302 0.80634 0.0
C1698 C 0.84003 0.40759 0.7973 0.0
C1699 C 0.83573 0.42035 0.81887 0.0
C1700 C 0.82207 0.40935 0.83413 0.0
C1701 C 0.81286 0.38576 0.8276 0.0
C1702 C 0.8543 0.41878 0.78043 0.0
C1703 C 0.81734 0.42246 0.85736 0.0
H1704 H 0.8954 0.48114 0.84795 0.0
H1705 H 0.83591 0.49707 0.81558 0.0
H1706 H 0.87047 0.42493 0.85537 0.0
H1707 H 0.88471 0.42373 0.82921 0.0
H1708 H 0.89695 0.44427 0.85521 0.0
H1709 H 0.80291 0.46939 0.80295 0.0
H1710 H 0.81084 0.44336 0.78838 0.0
H1711 H 0.79914 0.44407 0.81596 0.0
H1712 H 0.83416 0.3744 0.77477 0.0
H1713 H 0.80242 0.37727 0.83925 0.0
H1714 H 0.87155 0.42626 0.78899 0.0
H1715 H 0.84693 0.43306 0.77547 0.0
H1716 H 0.8557 0.40645 0.76418 0.0
H1717 H 0.83345 0.43011 0.86832 0.0
H1718 H 0.80639 0.41136 0.86722 0.0
H1719 H 0.80897 0.43685 0.85451 0.0
C1720 C 0.11115 0.83983 0.05217 0.0
C1721 C 0.09918 0.84482 0.07181 0.0
C1722 C 0.10943 0.8511 0.03313 0.0
C1723 C 0.09515 0.86741 0.03376 0.0
C1724 C 0.0835 0.87286 0.05386 0.0
C1725 C 0.08576 0.86157 0.07262 0.0
C1726 C 0.1223 0.84495 1.0122 0.0
C1727 C 0.06818 0.8903 0.05543 0.0
C1728 C 0.09324 0.91619 1.003 0.0
C1729 C 0.07183 0.90857 0.99053 0.0
C1730 C 0.10334 0.90142 0.01444 0.0
C1731 C 0.0915 0.87879 1.0136 0.0
C1732 C 0.07203 0.86996 0.99766 0.0
C1733 C 0.06244 0.88501 0.98613 0.0
C1734 C 0.12479 0.91117 0.03031 0.0
C1735 C 0.05941 0.8456 0.99553 0.0
H1736 H 0.12155 0.82683 0.05148 0.0
H1737 H 0.07653 0.86553 0.08779 0.0
H1738 H 0.11103 0.83183 0.99871 0.0
H1739 H 0.12818 0.86011 1.00417 0.0
H1740 H 0.13713 0.8376 0.01703 0.0
H1741 H 0.06037 0.89245 0.07232 0.0
H1742 H 0.07787 0.90728 0.05362 0.0
H1743 H 0.05445 0.88493 0.04094 0.0
H1744 H 0.10091 0.93426 1.00632 0.0
H1745 H 0.04631 0.87883 0.97574 0.0
H1746 H 0.13539 0.89797 0.03096 0.0
H1747 H 0.12043 0.91703 0.04838 0.0
H1748 H 0.13482 0.92614 0.02446 0.0
H1749 H 0.07132 0.83355 0.99555 0.0
H1750 H 0.04766 0.84005 0.97929 0.0
H1751 H 0.04938 0.84444 1.01082 0.0
C1752 C 0.93627 0.2668 0.86751 0.0
C1753 C 0.95474 0.28341 0.86452 0.0
C1754 C 0.91612 0.2629 0.85295 0.0
C1755 C 0.91449 0.27622 0.83539 0.0
C1756 C 0.93385 0.29125 0.8308 0.0
C1757 C 0.95384 0.29458 0.8454 0.0
C1758 C 0.89597 0.24629 0.85797 0.0
C1759 C 0.9328 0.30583 0.81229 0.0
C1760 C 0.86092 0.26918 0.79513 0.0
C1761 C 0.85018 0.28559 0.80779 0.0
C1762 C 0.88171 0.26533 0.80409 0.0
C1763 C 0.89197 0.27856 0.82589 0.0
C1764 C 0.88109 0.29507 0.8387 0.0
C1765 C 0.86027 0.29822 0.82958 0.0
C1766 C 0.89271 0.24728 0.7903 0.0
C1767 C 0.89163 0.30981 0.86189 0.0
H1768 H 0.9371 0.25779 0.88202 0.0
H1769 H 0.96824 0.30718 0.84282 0.0
H1770 H 0.88472 0.25602 0.86832 0.0
H1771 H 0.88604 0.23667 0.84146 0.0
H1772 H 0.90111 0.23383 0.86821 0.0
H1773 H 0.94991 0.31326 0.80803 0.0
H1774 H 0.92295 0.2957 0.79596 0.0
H1775 H 0.92416 0.3202 0.81881 0.0
H1776 H 0.85302 0.25928 0.77835 0.0
H1777 H 0.85212 0.31105 0.83936 0.0
H1778 H 0.896 0.2347 0.80128 0.0
H1779 H 0.90928 0.25539 0.7854 0.0
H1780 H 0.88211 0.23789 0.77406 0.0
H1781 H 0.89445 0.29877 0.87473 0.0
H1782 H 0.88094 0.32197 0.86947 0.0
H1783 H 0.90833 0.3199 0.85957 0.0
C1784 C 0.60302 0.23659 0.62067 0.0
C1785 C 0.59159 0.24804 0.60626 0.0
C1786 C 0.60019 0.21256 0.61591 0.0
C1787 C 0.5854 0.19983 0.59644 0.0
C1788 C 0.57401 0.21133 0.58169 0.0
C1789 C 0.57733 0.23537 0.58673 0.0
C1790 C 0.61276 0.2008 0.63185 0.0
C1791 C 0.558 0.19824 0.56083 0.0
C1792 C 0.58939 0.13849 0.57092 0.0
C1793 C 0.5716 0.12609 0.58064 0.0
C1794 C 0.59449 0.16255 0.57641 0.0
C1795 C 0.58131 0.1744 0.59177 0.0
C1796 C 0.56359 0.16198 0.60196 0.0
C1797 C 0.55901 0.13793 0.59636 0.0
C1798 C 0.61367 0.1753 0.56543 0.0
C1799 C 0.54908 0.17412 0.61828 0.0
H1800 H 0.61414 0.2464 0.63574 0.0
H1801 H 0.56845 0.24421 0.57559 0.0
H1802 H 0.60056 0.18963 0.64044 0.0
H1803 H 0.62276 0.18956 0.62146 0.0
H1804 H 0.62434 0.21327 0.64567 0.0
H1805 H 0.55076 0.20984 0.55091 0.0
H1806 H 0.5669 0.18721 0.54875 0.0
H1807 H 0.54393 0.18675 0.56679 0.0
H1808 H 0.59927 0.1294 0.55888 0.0
H1809 H 0.54517 0.12844 0.60384 0.0
H1810 H 0.62567 0.18725 0.57924 0.0
H1811 H 0.60698 0.18583 0.55385 0.0
H1812 H 0.62307 0.16347 0.5549 0.0
H1813 H 0.55981 0.18585 0.63323 0.0
H1814 H 0.53643 0.1619 0.6253 0.0
H1815 H 0.54002 0.18481 0.60884 0.0
C1816 C 0.5692 0.779 0.37426 0.0
C1817 C 0.57243 0.79419 0.39594 0.0
C1818 C 0.58696 0.77767 0.35988 0.0
C1819 C 0.60839 0.79177 0.36751 0.0
C1820 C 0.61198 0.80635 0.38985 0.0
C1821 C 0.5939 0.80745 0.40378 0.0
C1822 C 0.58252 0.76197 0.33613 0.0
C1823 C 0.63468 0.82148 0.39867 0.0
C1824 C 0.66069 0.78036 0.33803 0.0
C1825 C 0.66343 0.79716 0.32394 0.0
C1826 C 0.6425 0.77797 0.35191 0.0
C1827 C 0.62665 0.79262 0.35154 0.0
C1828 C 0.62889 0.80906 0.33677 0.0
C1829 C 0.64731 0.8112 0.32323 0.0
C1830 C 0.6406 0.76024 0.36745 0.0
C1831 C 0.61224 0.82493 0.33585 0.0
H1832 H 0.5526 0.76872 0.36816 0.0
H1833 H 0.59648 0.81911 0.4206 0.0
H1834 H 0.58373 0.77243 0.32218 0.0
H1835 H 0.59546 0.75101 0.33371 0.0
H1836 H 0.56553 0.7507 0.33368 0.0
H1837 H 0.63511 0.83052 0.41712 0.0
H1838 H 0.64815 0.81109 0.39748 0.0
H1839 H 0.63871 0.83455 0.3875 0.0
H1840 H 0.6729 0.76922 0.33837 0.0
H1841 H 0.64947 0.82441 0.31265 0.0
H1842 H 0.62362 0.74902 0.36415 0.0
H1843 H 0.64262 0.76897 0.38612 0.0
H1844 H 0.65356 0.74929 0.36466 0.0
H1845 H 0.59477 0.81482 0.33199 0.0
H1846 H 0.6156 0.83576 0.32235 0.0
H1847 H 0.61309 0.83641 0.35317 0.0
C1848 C 0.10289 0.27943 0.47097 0.0
C1849 C 0.09283 0.2739 0.44784 0.0
C1850 C 0.09826 0.26412 0.48647 0.0
C1851 C 0.08312 0.24293 0.47862 0.0
C1852 C 0.073 0.23725 0.45525 0.0
C1853 C 0.07805 0.25278 0.44012 0.0
C1854 C 0.10951 0.2706 0.51121 0.0
C1855 C 0.05672 0.21482 0.44625 0.0
C1856 C 0.08362 0.19144 0.5075 0.0
C1857 C 0.06448 0.1914 0.52004 0.0
C1858 C 0.09056 0.2088 0.49486 0.0
C1859 C 0.07791 0.22641 0.49461 0.0
C1860 C 0.05917 0.22703 0.50812 0.0
C1861 C 0.05272 0.20952 0.52082 0.0
C1862 C 0.11081 0.20768 0.48094 0.0
C1863 C 0.04524 0.24552 0.5082 0.0
H1864 H 0.11433 0.29576 0.477 0.0
H1865 H 0.07018 0.24847 0.42227 0.0
H1866 H 0.09652 0.271 0.52392 0.0
H1867 H 0.11937 0.25747 0.51468 0.0
H1868 H 0.12101 0.28766 0.51451 0.0
H1869 H 0.05011 0.21315 0.42768 0.0
H1870 H 0.06521 0.20016 0.44765 0.0
H1871 H 0.04224 0.2134 0.45714 0.0
H1872 H 0.0929 0.17756 0.50722 0.0
H1873 H 0.0379 0.20942 0.53047 0.0
H1874 H 0.12254 0.22457 0.48448 0.0
H1875 H 0.10519 0.20362 0.46192 0.0
H1876 H 0.1202 0.19438 0.48503 0.0
H1877 H 0.0563 0.26278 0.51224 0.0
H1878 H 0.03244 0.2447 0.52114 0.0
H1879 H 0.03637 0.2436 0.4905 0.0
C1880 C 0.60345 0.30932 0.21742 0.0
C1881 C 0.58302 0.31638 0.22189 0.0
C1882 C 0.61949 0.30954 0.2358 0.0
C1883 C 0.61515 0.31745 0.25922 0.0
C1884 C 0.59546 0.32657 0.26371 0.0
C1885 C 0.57941 0.32565 0.24494 0.0
C1886 C 0.64045 0.29995 0.23013 0.0
C1887 C 0.59077 0.33624 0.28829 0.0
C1888 C 0.64419 0.2845 0.29618 0.0
C1889 C 0.6661 0.29774 0.29912 0.0
C1890 C 0.62624 0.29204 0.28558 0.0
C1891 C 0.63026 0.31364 0.27855 0.0
C1892 C 0.65127 0.32871 0.28542 0.0
C1893 C 0.66915 0.32046 0.29531 0.0
C1894 C 0.60391 0.27557 0.27904 0.0
C1895 C 0.65583 0.35251 0.27976 0.0
H1896 H 0.60641 0.30238 0.19961 0.0
H1897 H 0.56371 0.3314 0.24843 0.0
H1898 H 0.65578 0.31299 0.23733 0.0
H1899 H 0.64085 0.28474 0.2384 0.0
H1900 H 0.64128 0.29468 0.21096 0.0
H1901 H 0.57909 0.34856 0.28823 0.0
H1902 H 0.58266 0.32203 0.2966 0.0
H1903 H 0.60659 0.34507 0.29926 0.0
H1904 H 0.6415 0.26732 0.30008 0.0
H1905 H 0.68588 0.33114 0.29783 0.0
H1906 H 0.60223 0.26842 0.25994 0.0
H1907 H 0.58965 0.28457 0.28274 0.0
H1908 H 0.60245 0.26104 0.28862 0.0
H1909 H 0.66393 0.35196 0.26307 0.0
H1910 H 0.66764 0.36452 0.29373 0.0
H1911 H 0.64011 0.3594 0.27783 0.0
C1912 C 0.57968 0.89772 0.9348 0.0
C1913 C 0.5945 0.88671 0.94602 0.0
C1914 C 0.57483 0.91869 0.94586 0.0
C1915 C 0.58528 0.92897 0.96856 0.0
C1916 C 0.60044 0.91805 0.9799 0.0
C1917 C 0.60477 0.89691 0.96852 0.0
C1918 C 0.55839 0.92974 0.93335 0.0
C1919 C 0.61208 0.92872 1.00401 0.0
C1920 C 0.58758 0.99287 0.9879 0.0
C1921 C 0.57004 0.99307 1.00265 0.0
C1922 C 0.59294 0.9721 0.97693 0.0
C1923 C 0.58017 0.95109 0.98048 0.0
C1924 C 0.56227 0.95118 0.99515 0.0
C1925 C 0.55755 0.97221 1.00625 0.0
C1926 C 0.61236 0.97264 0.96166 0.0
C1927 C 0.54804 0.92906 0.99898 0.0
H1928 H 0.57165 0.88982 0.91742 0.0
H1929 H 0.6163 0.88845 0.97718 0.0
H1930 H 0.54404 0.93202 0.94404 0.0
H1931 H 0.56679 0.94707 0.93111 0.0
H1932 H 0.55159 0.91938 0.9158 0.0
H1933 H 0.6238 0.91826 1.01016 0.0
H1934 H 0.62179 0.94617 1.00389 0.0
H1935 H 0.59933 0.93068 0.01682 0.0
H1936 H 0.59742 1.00899 0.98526 0.0
H1937 H 0.54391 0.97233 0.01756 0.0
H1938 H 0.60619 0.96359 0.9435 0.0
H1939 H 0.625 0.96344 0.96829 0.0
H1940 H 0.62089 0.99045 0.9611 0.0
H1941 H 0.54 0.91862 0.98191 0.0
H1942 H 0.53459 0.93213 1.01072 0.0
H1943 H 0.55886 0.91872 1.00675 0.0
C1944 C 0.95213 0.79488 0.69651 0.0
C1945 C 0.96688 0.77942 0.69668 0.0
C1946 C 0.93227 0.792 0.70782 0.0
C1947 C 0.92716 0.77321 0.71949 0.0
C1948 C 0.94167 0.7572 0.71914 0.0
C1949 C 0.96141 0.76051 0.70772 0.0
C1950 C 0.91704 0.80937 0.70779 0.0
C1951 C 0.93663 0.73693 0.73132 0.0
C1952 C 0.88895 0.78286 0.7679 0.0
C1953 C 0.86775 0.77245 0.75611 0.0
C1954 C 0.90865 0.78231 0.75646 0.0
C1955 C 0.90701 0.77095 0.73278 0.0
C1956 C 0.88587 0.75902 0.72133 0.0
C1957 C 0.86643 0.75992 0.73316 0.0
C1958 C 0.93101 0.79511 0.76923 0.0
C1959 C 0.88358 0.74647 0.69617 0.0
H1960 H 0.95633 0.80947 0.68794 0.0
H1961 H 0.97278 0.74847 0.70781 0.0
H1962 H 0.89965 0.80056 0.70065 0.0
H1963 H 0.91608 0.81821 0.72604 0.0
H1964 H 0.92307 0.82254 0.69724 0.0
H1965 H 0.94897 0.72532 0.7282 0.0
H1966 H 0.937 0.74314 0.75049 0.0
H1967 H 0.91942 0.72687 0.7252 0.0
H1968 H 0.89011 0.79247 0.78568 0.0
H1969 H 0.85009 0.75163 0.72404 0.0
H1970 H 0.93728 0.81021 0.76124 0.0
H1971 H 0.94382 0.78396 0.76752 0.0
H1972 H 0.92967 0.80127 0.78817 0.0
H1973 H 0.88691 0.75913 0.68445 0.0
H1974 H 0.86645 0.73585 0.69078 0.0
H1975 H 0.89622 0.73518 0.69349 0.0
C1976 C 0.15998 0.04011 0.87442 0.0
C1977 C 0.149 0.03869 0.85179 0.0
C1978 C 0.14851 0.0418 0.89565 0.0
C1979 C 0.12491 0.04258 0.89548 0.0
C1980 C 0.11377 0.04132 0.87269 0.0
C1981 C 0.12559 0.03927 0.85168 0.0
C1982 C 0.16187 0.0426 0.91857 0.0
C1983 C 0.08902 0.04231 0.87042 0.0
C1984 C 0.08919 0.0269 0.94804 0.0
C1985 C 0.08822 0.04829 0.96254 0.0
C1986 C 0.10081 0.02486 0.92693 0.0
C1987 C 0.1121 0.04459 0.9187 0.0
C1988 C 0.11103 0.06625 0.93315 0.0
C1989 C 0.09959 0.06779 0.95443 0.0
C1990 C 0.10118 1.00117 0.91341 0.0
C1991 C 0.12207 0.08817 0.92606 0.0
H1992 H 0.17787 0.03972 0.87564 0.0
H1993 H 0.1163 0.03833 0.83493 0.0
H1994 H 0.16161 0.05896 0.93073 0.0
H1995 H 0.15399 0.02839 0.92703 0.0
H1996 H 0.17973 0.04119 0.91627 0.0
H1997 H 0.08256 0.04183 0.85204 0.0
H1998 H 0.07912 0.02762 0.87679 0.0
H1999 H 0.08608 0.05829 0.88157 0.0
H2000 H 0.08104 1.01135 0.95342 0.0
H2001 H 0.09954 0.08461 0.96477 0.0
H2002 H 0.11891 0.99892 0.91196 0.0
H2003 H 0.09317 0.99912 0.89532 0.0
H2004 H 0.09222 0.98739 0.9218 0.0
H2005 H 0.14051 0.08879 0.92582 0.0
H2006 H 0.11928 0.10371 0.93812 0.0
H2007 H 0.11535 0.08863 0.90802 0.0
C2008 C 0.79746 0.44834 0.59039 0.0
C2009 C 0.78755 0.43763 0.56785 0.0
C2010 C 0.79937 0.43556 0.60815 0.0
C2011 C 0.7913 0.4115 0.60318 0.0
C2012 C 0.78056 0.40073 0.58069 0.0
C2013 C 0.77877 0.41394 0.5633 0.0
C2014 C 0.81075 0.44769 0.63198 0.0
C2015 C 0.77175 0.37511 0.5747 0.0
C2016 C 0.81895 0.37444 0.63799 0.0
C2017 C 0.80281 0.36921 0.65358 0.0
C2018 C 0.81547 0.38834 0.62167 0.0
C2019 C 0.79538 0.39735 0.62096 0.0
C2020 C 0.77916 0.39245 0.63688 0.0
C2021 C 0.78304 0.3784 0.65298 0.0
C2022 C 0.83321 0.39321 0.60501 0.0
C2023 C 0.75756 0.40177 0.63668 0.0
H2024 H 0.8042 0.46666 0.59403 0.0
H2025 H 0.77109 0.40557 0.54591 0.0
H2026 H 0.79991 0.44335 0.64593 0.0
H2027 H 0.82683 0.44178 0.6352 0.0
H2028 H 0.81452 0.46667 0.63356 0.0
H2029 H 0.76257 0.36961 0.55691 0.0
H2030 H 0.78605 0.36589 0.57547 0.0
H2031 H 0.76022 0.36972 0.58771 0.0
H2032 H 0.83441 0.36769 0.63859 0.0
H2033 H 0.77036 0.37421 0.66478 0.0
H2034 H 0.8392 0.41202 0.607 0.0
H2035 H 0.8258 0.38671 0.58663 0.0
H2036 H 0.848 0.3851 0.608 0.0
H2037 H 0.76146 0.42078 0.63883 0.0
H2038 H 0.74706 0.39708 0.65079 0.0
H2039 H 0.74747 0.39501 0.61952 0.0
C2040 C 0.44433 0.05498 0.41548 0.0
C2041 C 0.44664 0.07222 0.40198 0.0
C2042 C 0.45931 0.0566 0.43522 0.0
C2043 C 0.47711 0.07591 0.44157 0.0
C2044 C 0.47928 0.09366 0.42833 0.0
C2045 C 0.46393 0.09162 0.40864 0.0
C2046 C 0.45631 0.0374 0.44902 0.0
C2047 C 0.49806 0.11449 0.43469 0.0
C2048 C 0.50248 0.08389 0.50407 0.0
C2049 C 0.52051 0.07209 0.50112 0.0
C2050 C 0.48893 0.08645 0.48473 0.0
C2051 C 0.49356 0.07704 0.46187 0.0
C2052 C 0.51251 0.06633 0.4587 0.0
C2053 C 0.52577 0.06396 0.47839 0.0
C2054 C 0.46886 0.09796 0.48887 0.0
C2055 C 0.51801 0.05619 0.43454 0.0
H2056 H 0.43092 0.03998 0.41043 0.0
H2057 H 0.46578 0.10495 0.39819 0.0
H2058 H 0.47145 0.02932 0.44857 0.0
H2059 H 0.45458 0.04436 0.46767 0.0
H2060 H 0.44123 0.02385 0.44207 0.0
H2061 H 0.49689 0.12718 0.42315 0.0
H2062 H 0.49767 0.12305 0.45315 0.0
H2063 H 0.51465 0.10911 0.43331 0.0
H2064 H 0.49838 0.09046 0.52156 0.0
H2065 H 0.53975 0.05498 0.47594 0.0
H2066 H 0.45308 0.0848 0.48498 0.0
H2067 H 0.46792 0.11036 0.47699 0.0
H2068 H 0.46949 0.10719 0.50728 0.0
H2069 H 0.50483 0.04092 0.42687 0.0
H2070 H 0.53467 0.05082 0.43492 0.0
H2071 H 0.51805 0.06879 0.42274 0.0
C2072 C 0.78532 0.72788 0.10134 0.0
C2073 C 0.79564 0.73896 0.08432 0.0
C2074 C 0.7883 0.7383 0.12518 0.0
C2075 C 0.80194 0.76046 0.13237 0.0
C2076 C 0.81218 0.77194 0.11525 0.0
C2077 C 0.80893 0.76105 0.09143 0.0
C2078 C 0.77703 0.7254 0.14273 0.0
C2079 C 0.82679 0.79559 0.12217 0.0
C2080 C 0.79192 0.79202 0.19254 0.0
C2081 C 0.80891 0.78694 0.20718 0.0
C2082 C 0.79005 0.78437 0.16807 0.0
C2083 C 0.80551 0.77129 0.15786 0.0
C2084 C 0.82326 0.76693 0.17241 0.0
C2085 C 0.82474 0.77478 0.19683 0.0
C2086 C 0.77092 0.7895 0.15326 0.0
C2087 C 0.84018 0.75314 0.1623 0.0
H2088 H 0.77504 0.71081 0.09606 0.0
H2089 H 0.81701 0.7697 0.07841 0.0
H2090 H 0.79001 0.72262 0.15566 0.0
H2091 H 0.76593 0.73569 0.15261 0.0
H2092 H 0.76673 0.70842 0.13428 0.0
H2093 H 0.83304 0.80248 0.10675 0.0
H2094 H 0.81713 0.80768 0.13183 0.0
H2095 H 0.84153 0.795 0.13418 0.0
H2096 H 0.77962 0.80147 0.20022 0.0
H2097 H 0.83803 0.77085 0.20786 0.0
H2098 H 0.75887 0.77329 0.14582 0.0
H2099 H 0.77745 0.79699 0.1383 0.0
H2100 H 0.76158 0.80159 0.16349 0.0
H2101 H 0.83154 0.73514 0.15528 0.0
H2102 H 0.8541 0.75298 0.17557 0.0
H2103 H 0.84757 0.76021 0.14748 0.0
C2104 C 0.16047 0.04156 0.69833 0.0
C2105 C 0.1488 0.03432 0.71701 0.0
C2106 C 0.14925 0.04304 0.67623 0.0
C2107 C 0.1252 0.03716 0.67155 0.0
C2108 C 0.11331 0.02975 0.69031 0.0
C2109 C 0.12496 0.02848 0.71231 0.0
C2110 C 0.16341 0.0511 0.65772 0.0
C2111 C 0.08792 0.02311 0.68719 0.0
C2112 C 0.09436 0.06105 0.62154 0.0
C2113 C 0.08986 0.04264 0.6019 0.0
C2114 C 0.10544 0.05949 0.64369 0.0
C2115 C 0.11273 0.03895 0.64745 0.0
C2116 C 0.10815 0.02027 0.62773 0.0
C2117 C 0.09708 0.0223 0.60573 0.0
C2118 C 0.10947 0.08021 0.66328 0.0
C2119 C 0.11507 0.99782 0.6298 0.0
H2120 H 0.17872 0.0463 0.70099 0.0
H2121 H 0.1152 0.02287 0.72599 0.0
H2122 H 0.16031 0.03774 0.64149 0.0
H2123 H 0.15847 0.06679 0.65318 0.0
H2124 H 0.18177 0.05498 0.6635 0.0
H2125 H 0.08081 0.01744 0.70285 0.0
H2126 H 0.08056 0.03793 0.68368 0.0
H2127 H 0.0826 1.00898 0.67175 0.0
H2128 H 0.08925 0.07703 0.61964 0.0
H2129 H 0.09411 1.00768 0.59134 0.0
H2130 H 0.12785 0.08573 0.66863 0.0
H2131 H 0.10124 0.07569 0.67883 0.0
H2132 H 0.1029 0.09491 0.65818 0.0
H2133 H 0.13363 1.00066 0.63399 0.0
H2134 H 0.11029 0.9847 0.61344 0.0
H2135 H 0.10706 0.99096 0.64444 0.0
C2136 C 0.79059 0.40259 0.45209 0.0
C2137 C 0.79221 0.42583 0.4505 0.0
C2138 C 0.79355 0.38605 0.43276 0.0
C2139 C 0.798 0.39273 0.41107 0.0
C2140 C 0.79937 0.41612 0.40923 0.0
C2141 C 0.79661 0.4324 0.42899 0.0
C2142 C 0.79205 0.36139 0.43561 0.0
C2143 C 0.80373 0.42394 0.38636 0.0
C2144 C 0.82464 0.35373 0.36585 0.0
C2145 C 0.80571 0.34155 0.35079 0.0
C2146 C 0.8224 0.3703 0.38558 0.0
C2147 C 0.80076 0.3751 0.39025 0.0
C2148 C 0.78161 0.3628 0.37515 0.0
C2149 C 0.78429 0.34616 0.3558 0.0
C2150 C 0.84323 0.38281 0.40135 0.0
C2151 C 0.75825 0.36744 0.37922 0.0
H2152 H 0.78734 0.39732 0.46865 0.0
H2153 H 0.79793 0.4503 0.42759 0.0
H2154 H 0.77824 0.35008 0.42327 0.0
H2155 H 0.80799 0.3556 0.43123 0.0
H2156 H 0.78887 0.35903 0.45373 0.0
H2157 H 0.80414 0.44265 0.38771 0.0
H2158 H 0.82009 0.4201 0.38072 0.0
H2159 H 0.7904 0.41437 0.37244 0.0
H2160 H 0.84126 0.35045 0.36212 0.0
H2161 H 0.76952 0.33716 0.34421 0.0
H2162 H 0.84123 0.38027 0.41961 0.0
H2163 H 0.84546 0.40155 0.40161 0.0
H2164 H 0.85876 0.37685 0.39563 0.0
H2165 H 0.75385 0.3643 0.39677 0.0
H2166 H 0.74511 0.35652 0.36578 0.0
H2167 H 0.75787 0.38575 0.37896 0.0
C2168 C 0.46892 0.06519 0.28615 0.0
C2169 C 0.44531 0.05905 0.28246 0.0
C2170 C 0.48232 0.0632 0.26725 0.0
C2171 C 0.47182 0.05501 0.24417 0.0
C2172 C 0.44798 0.04913 0.24033 0.0
C2173 C 0.43501 0.05116 0.25955 0.0
C2174 C 0.50771 0.06951 0.27199 0.0
C2175 C 0.43618 0.04047 0.21595 0.0
C2176 C 0.50443 0.06717 0.19248 0.0
C2177 C 0.51096 0.04606 0.18481 0.0
C2178 C 0.49185 0.0704 0.21191 0.0
C2179 C 0.48575 0.05213 0.22402 0.0
C2180 C 0.49253 0.03088 0.21657 0.0
C2181 C 0.505 0.02808 0.19702 0.0
C2182 C 0.48489 0.0933 0.21935 0.0
C2183 C 0.48634 1.01099 0.22907 0.0
H2184 H 0.47695 0.07125 0.30385 0.0
H2185 H 0.41675 0.04644 0.25662 0.0
H2186 H 0.51528 0.05424 0.26596 0.0
H2187 H 0.51454 0.08286 0.26198 0.0
H2188 H 0.51322 0.07606 0.29091 0.0
H2189 H 0.41748 0.03722 0.21591 0.0
H2190 H 0.44123 0.05316 0.2046 0.0
H2191 H 0.44133 0.02425 0.20797 0.0
H2192 H 0.50925 0.08123 0.18333 0.0
H2193 H 0.50971 1.01162 0.191 0.0
H2194 H 0.49135 0.1007 0.23786 0.0
H2195 H 0.46619 0.09089 0.21835 0.0
H2196 H 0.49125 0.10586 0.20825 0.0
H2197 H 0.49245 0.01632 0.24794 0.0
H2198 H 0.49356 0.99586 0.22154 0.0
H2199 H 0.46769 1.00569 0.22795 0.0
C2200 C 0.78643 0.74285 0.94576 0.0
C2201 C 0.79878 0.72693 0.95224 0.0
C2202 C 0.78884 0.75027 0.9242 0.0
C2203 C 0.80433 0.742 0.90897 0.0
C2204 C 0.81713 0.72624 0.91572 0.0
C2205 C 0.81394 0.71869 0.93704 0.0
C2206 C 0.77454 0.76673 0.91755 0.0
C2207 C 0.83388 0.71665 0.90045 0.0
C2208 C 0.79688 0.74506 0.84392 0.0
C2209 C 0.81187 0.76553 0.84298 0.0
C2210 C 0.79426 0.73721 0.86524 0.0
C2211 C 0.80712 0.7499 0.88608 0.0
C2212 C 0.82277 0.77014 0.88506 0.0
C2213 C 0.8248 0.7778 0.86366 0.0
C2214 C 0.77762 0.71541 0.86562 0.0
C2215 C 0.8375 0.78365 0.90662 0.0
H2216 H 0.77456 0.74917 0.95733 0.0
H2217 H 0.82356 0.70636 0.94185 0.0
H2218 H 0.78554 0.78275 0.91489 0.0
H2219 H 0.76424 0.75895 0.90069 0.0
H2220 H 0.76304 0.77131 0.93109 0.0
H2221 H 0.84848 0.71388 0.91136 0.0
H2222 H 0.82548 0.69966 0.89011 0.0
H2223 H 0.84035 0.72787 0.88815 0.0
H2224 H 0.78671 0.73551 0.82813 0.0
H2225 H 0.83658 0.79351 0.86317 0.0
H2226 H 0.76602 0.71851 0.87945 0.0
H2227 H 0.78686 0.70209 0.86989 0.0
H2228 H 0.76737 0.70861 0.8486 0.0
H2229 H 0.82682 0.78972 0.92038 0.0
H2230 H 0.84918 0.79878 0.90287 0.0
H2231 H 0.84764 0.77239 0.91387 0.0
C2232 C 0.89487 0.09772 0.05781 0.0
C2233 C 0.88401 0.10696 0.0407 0.0
C2234 C 0.9163 0.09148 0.05497 0.0
C2235 C 0.92731 0.09418 0.03437 0.0
C2236 C 0.91623 0.1032 0.01695 0.0
C2237 C 0.89501 0.10957 0.02037 0.0
C2238 C 0.92732 0.08222 0.07422 0.0
C2239 C 0.92683 0.10619 0.99455 0.0
C2240 C 0.99187 0.09718 0.03475 0.0
C2241 C 0.99351 0.07452 0.02478 0.0
C2242 C 0.97066 0.10376 0.03799 0.0
C2243 C 0.95022 0.08746 0.0309 0.0
C2244 C 0.95178 0.06472 0.0203 0.0
C2245 C 0.97318 0.05854 0.01756 0.0
C2246 C 0.97015 0.12813 0.04955 0.0
C2247 C 0.93073 0.04671 1.01203 0.0
H2248 H 0.88678 0.09572 0.07366 0.0
H2249 H 0.88697 0.11665 1.00696 0.0
H2250 H 0.93033 0.06473 0.06727 0.0
H2251 H 0.94402 0.09328 0.08068 0.0
H2252 H 0.91687 0.08134 0.08926 0.0
H2253 H 0.91599 0.11298 0.98247 0.0
H2254 H 0.94336 0.11818 0.99864 0.0
H2255 H 0.93008 0.08947 0.98534 0.0
H2256 H 1.00724 0.10973 0.04076 0.0
H2257 H 0.97395 0.04095 1.00992 0.0
H2258 H 0.96157 0.12811 0.06591 0.0
H2259 H 0.96029 0.13621 0.03784 0.0
H2260 H 0.98736 0.13886 0.05394 0.0
H2261 H 0.92089 0.04386 0.02712 0.0
H2262 H 0.93462 0.03003 1.00344 0.0
H2263 H 0.91978 0.05275 0.99942 0.0
C2264 C 0.40491 0.44989 0.07649 0.0
C2265 C 0.39603 0.43216 0.05744 0.0
C2266 C 0.42595 0.46428 0.07617 0.0
C2267 C 0.43798 0.46139 0.05597 0.0
C2268 C 0.42917 0.44327 0.03683 0.0
C2269 C 0.4085 0.42867 0.03797 0.0
C2270 C 0.43507 0.48289 0.09725 0.0
C2271 C 0.44107 0.43992 0.0147 0.0
C2272 C 0.47706 0.514 0.04338 0.0
C2273 C 0.49849 0.50923 0.0485 0.0
C2274 C 0.4573 0.4986 0.04578 0.0
C2275 C 0.45895 0.47817 0.05415 0.0
C2276 C 0.48056 0.47356 0.06 0.0
C2277 C 0.50007 0.48899 0.05679 0.0
C2278 C 0.43465 0.50388 0.03868 0.0
C2279 C 0.4831 0.45229 0.06952 0.0
H2280 H 0.39537 0.45256 0.09163 0.0
H2281 H 0.4016 0.41509 0.02311 0.0
H2282 H 0.45282 0.48216 0.10263 0.0
H2283 H 0.4351 0.50001 0.09269 0.0
H2284 H 0.42491 0.48137 0.11241 0.0
H2285 H 0.43231 0.42467 1.00164 0.0
H2286 H 0.44201 0.45539 1.00659 0.0
H2287 H 0.45865 0.43787 0.01883 0.0
H2288 H 0.47571 0.52947 0.03673 0.0
H2289 H 0.51659 0.48524 0.06089 0.0
H2290 H 0.42423 0.50485 0.05378 0.0
H2291 H 0.42537 0.48983 0.02462 0.0
H2292 H 0.43627 0.52035 0.03223 0.0
H2293 H 0.47362 0.45151 0.08523 0.0
H2294 H 0.50104 0.4518 0.07435 0.0
H2295 H 0.4758 0.43668 0.05626 0.0
C2296 C 0.37827 0.63458 0.76818 0.0
C2297 C 0.39729 0.6336 0.78338 0.0
C2298 C 0.36827 0.65493 0.7686 0.0
C2299 C 0.37623 0.67601 0.78533 0.0
C2300 C 0.39522 0.67493 0.80101 0.0
C2301 C 0.40541 0.6546 0.79957 0.0
C2302 C 0.34897 0.65343 0.75044 0.0
C2303 C 0.40523 0.69537 0.8199 0.0
C2304 C 0.36559 0.73965 0.78083 0.0
C2305 C 0.34376 0.7409 0.78843 0.0
C2306 C 0.37582 0.71936 0.77938 0.0
C2307 C 0.36498 0.69858 0.78642 0.0
C2308 C 0.34306 0.69995 0.79453 0.0
C2309 C 0.33292 0.72022 0.79497 0.0
C2310 C 0.39857 0.72063 0.76982 0.0
C2311 C 0.32971 0.6799 0.8031 0.0
H2312 H 0.3712 0.61927 0.75527 0.0
H2313 H 0.41986 0.65518 0.81173 0.0
H2314 H 0.33301 0.6457 0.75688 0.0
H2315 H 0.34733 0.67052 0.74664 0.0
H2316 H 0.35112 0.64208 0.73379 0.0
H2317 H 0.4124 0.68986 0.8355 0.0
H2318 H 0.41925 0.70619 0.81311 0.0
H2319 H 0.3926 0.70605 0.82553 0.0
H2320 H 0.37485 0.75467 0.77536 0.0
H2321 H 0.3162 0.7198 0.80089 0.0
H2322 H 0.40209 0.70341 0.76262 0.0
H2323 H 0.41186 0.72941 0.7841 0.0
H2324 H 0.3998 0.73103 0.75579 0.0
H2325 H 0.31788 0.66912 0.78842 0.0
H2326 H 0.31941 0.68592 0.81729 0.0
H2327 H 0.3407 0.66906 0.80975 0.0
C2328 C 0.24096 0.57928 0.53681 0.0
C2329 C 0.2516 0.59835 0.55384 0.0
C2330 C 0.21717 0.57177 0.5345 0.0
C2331 C 0.20352 0.58358 0.54953 0.0
C2332 C 0.21429 0.60249 0.56709 0.0
C2333 C 0.23799 0.60957 0.569 0.0
C2334 C 0.20659 0.55151 0.51558 0.0
C2335 C 0.20071 0.61569 0.58358 0.0
C2336 C 0.14117 0.58203 0.53046 0.0
C2337 C 0.12958 0.5666 0.54326 0.0
C2338 C 0.16503 0.58723 0.53192 0.0
C2339 C 0.17799 0.57684 0.54656 0.0
C2340 C 0.16642 0.56099 0.55926 0.0
C2341 C 0.1425 0.55608 0.55746 0.0
C2342 C 0.17641 0.60421 0.51801 0.0
C2343 C 0.17933 0.54944 0.57509 0.0
H2344 H 0.25117 0.57052 0.5249 0.0
H2345 H 0.24587 0.62435 0.58223 0.0
H2346 H 0.1957 0.53839 0.52328 0.0
H2347 H 0.19561 0.55717 0.50269 0.0
H2348 H 0.21943 0.54337 0.50613 0.0
H2349 H 0.21158 0.62944 0.59685 0.0
H2350 H 0.18925 0.62369 0.57344 0.0
H2351 H 0.18998 0.60385 0.59285 0.0
H2352 H 0.13159 0.59025 0.5193 0.0
H2353 H 0.13394 0.54408 0.56742 0.0
H2354 H 0.18834 0.59639 0.50684 0.0
H2355 H 0.18641 0.61947 0.53014 0.0
H2356 H 0.16409 0.61004 0.50663 0.0
H2357 H 0.19139 0.54056 0.56514 0.0
H2358 H 0.168 0.53673 0.58292 0.0
H2359 H 0.18938 0.56257 0.58949 0.0
C2360 C 0.76883 0.98789 0.74835 0.0
C2361 C 0.77211 1.01173 0.75594 0.0
C2362 C 0.7852 0.97556 0.7543 0.0
C2363 C 0.80534 0.98744 0.76804 0.0
C2364 C 0.80935 1.01168 0.77449 0.0
C2365 C 0.7926 0.02356 0.76844 0.0
C2366 C 0.78034 0.94967 0.74704 0.0
C2367 C 0.83077 0.02493 0.78884 0.0
C2368 C 0.82865 0.95093 0.80628 0.0
C2369 C 0.84458 0.94222 0.7925 0.0
C2370 C 0.81669 0.96679 0.79914 0.0
C2371 C 0.82082 0.97414 0.77772 0.0
C2372 C 0.83806 0.96675 0.76459 0.0
C2373 C 0.84972 0.95077 0.77213 0.0
C2374 C 0.79843 0.97429 0.81365 0.0
C2375 C 0.84318 0.97454 0.74187 0.0
H2376 H 0.75306 0.97871 0.73857 0.0
H2377 H 0.79528 0.04206 0.77417 0.0
H2378 H 0.79467 0.94375 0.73834 0.0
H2379 H 0.77833 0.94177 0.76283 0.0
H2380 H 0.76472 0.94326 0.73489 0.0
H2381 H 0.83272 0.04374 0.78951 0.0
H2382 H 0.83052 0.02174 0.80704 0.0
H2383 H 0.84576 0.01905 0.78157 0.0
H2384 H 0.82435 0.94418 0.82187 0.0
H2385 H 0.86221 0.94424 0.76156 0.0
H2386 H 0.78163 0.96687 0.80393 0.0
H2387 H 0.80027 0.99327 0.81684 0.0
H2388 H 0.79875 0.96868 0.83085 0.0
H2389 H 0.82937 0.96594 0.72806 0.0
H2390 H 0.85931 0.97029 0.73585 0.0
H2391 H 0.84409 0.99335 0.74377 0.0
C2392 C 0.74768 0.91863 0.54227 0.0
C2393 C 0.76944 0.93091 0.55073 0.0
C2394 C 0.72945 0.93004 0.54056 0.0
C2395 C 0.73312 0.95429 0.5473 0.0
C2396 C 0.755 0.96671 0.55617 0.0
C2397 C 0.77286 0.95486 0.55784 0.0
C2398 C 0.70633 0.91619 0.53119 0.0
C2399 C 0.75966 0.99258 0.56342 0.0
C2400 C 0.69361 0.98733 0.52056 0.0
C2401 C 0.6804 0.99291 0.53902 0.0
C2402 C 0.71057 0.9745 0.52292 0.0
C2403 C 0.71436 0.96687 0.54422 0.0
C2404 C 0.7008 0.97201 0.56277 0.0
C2405 C 0.68404 0.98502 0.55998 0.0
C2406 C 0.72469 0.96942 0.50273 0.0
C2407 C 0.70427 0.96411 0.58572 0.0
H2408 H 0.74493 0.90011 0.53681 0.0
H2409 H 0.78964 0.96446 0.56439 0.0
H2410 H 0.69381 0.91998 0.54384 0.0
H2411 H 0.70081 0.92112 0.51459 0.0
H2412 H 0.70605 0.89739 0.52779 0.0
H2413 H 0.77746 0.9996 0.57063 0.0
H2414 H 0.75603 1.00043 0.54809 0.0
H2415 H 0.74838 0.99792 0.57687 0.0
H2416 H 0.69065 0.99298 0.50415 0.0
H2417 H 0.6741 0.98944 0.57444 0.0
H2418 H 0.72358 0.9506 0.49749 0.0
H2419 H 0.7427 0.9772 0.50826 0.0
H2420 H 0.71929 0.97618 0.48718 0.0
H2421 H 0.70323 0.94522 0.58251 0.0
H2422 H 0.69161 0.96857 0.59798 0.0
H2423 H 0.72139 0.97215 0.59432 0.0
C2424 C 0.40563 0.48274 0.78981 0.0
C2425 C 0.39524 0.49694 0.77733 0.0
C2426 C 0.39539 0.45943 0.79067 0.0
C2427 C 0.37413 0.44849 0.77788 0.0
C2428 C 0.36374 0.46265 0.76482 0.0
C2429 C 0.37396 0.4863 0.76514 0.0
C2430 C 0.40757 0.44658 0.80568 0.0
C2431 C 0.34164 0.45304 0.75009 0.0
C2432 C 0.36076 0.38009 0.76637 0.0
C2433 C 0.34244 0.37434 0.77975 0.0
C2434 C 0.37059 0.40345 0.76509 0.0
C2435 C 0.36305 0.42273 0.77832 0.0
C2436 C 0.34485 0.41695 0.79226 0.0
C2437 C 0.33471 0.39342 0.79238 0.0
C2438 C 0.38918 0.4071 0.74917 0.0
C2439 C 0.33597 0.43574 0.80751 0.0
H2440 H 0.42191 0.49008 0.79952 0.0
H2441 H 0.3653 0.49636 0.75522 0.0
H2442 H 0.39552 0.43592 0.81494 0.0
H2443 H 0.41653 0.43496 0.79437 0.0
H2444 H 0.42029 0.45845 0.8189 0.0
H2445 H 0.34071 0.46108 0.73436 0.0
H2446 H 0.33902 0.43412 0.74423 0.0
H2447 H 0.32759 0.45712 0.76052 0.0
H2448 H 0.3673 0.36616 0.75628 0.0
H2449 H 0.32078 0.39001 0.80299 0.0
H2450 H 0.40554 0.40706 0.75882 0.0
H2451 H 0.39033 0.42363 0.74296 0.0
H2452 H 0.38659 0.39289 0.73365 0.0
H2453 H 0.34996 0.44992 0.81598 0.0
H2454 H 0.32627 0.4292 0.82138 0.0
H2455 H 0.32452 0.44293 0.79651 0.0
C2456 C 0.22904 0.63173 0.23693 0.0
C2457 C 0.24285 0.61563 0.23858 0.0
C2458 C 0.23835 0.6552 0.24014 0.0
C2459 C 0.26194 0.66263 0.2457 0.0
C2460 C 0.27608 0.64632 0.24618 0.0
C2461 C 0.26634 0.62289 0.24235 0.0
C2462 C 0.22281 0.6721 0.23891 0.0
C2463 C 0.30126 0.65365 0.25239 0.0
C2464 C 0.2863 0.72512 0.24555 0.0
C2465 C 0.28472 0.73513 0.26889 0.0
C2466 C 0.27938 0.70134 0.2377 0.0
C2467 C 0.27127 0.68742 0.25379 0.0
C2468 C 0.27075 0.6974 0.27765 0.0
C2469 C 0.27721 0.72123 0.28484 0.0
C2470 C 0.27974 0.69129 0.21207 0.0
C2471 C 0.26272 0.68302 0.29545 0.0
H2472 H 0.21087 0.62604 0.23375 0.0
H2473 H 0.27701 0.61039 0.24366 0.0
H2474 H 0.22178 0.68175 0.2568 0.0
H2475 H 0.22954 0.68481 0.22814 0.0
H2476 H 0.20546 0.66343 0.23138 0.0
H2477 H 0.31014 0.63889 0.24915 0.0
H2478 H 0.30855 0.66664 0.24218 0.0
H2479 H 0.30462 0.66177 0.27123 0.0
H2480 H 0.29199 0.73599 0.23321 0.0
H2481 H 0.27625 0.72903 0.30296 0.0
H2482 H 0.26215 0.68496 0.20395 0.0
H2483 H 0.28835 0.67635 0.21002 0.0
H2484 H 0.28835 0.7041 0.2023 0.0
H2485 H 0.24448 0.67552 0.29122 0.0
H2486 H 0.2652 0.69321 0.31361 0.0
H2487 H 0.27188 0.66854 0.29483 0.0
C2488 C 0.52843 0.78464 0.511 0.0
C2489 C 0.51927 0.7721 0.48881 0.0
C2490 C 0.53328 0.77339 0.52926 0.0
C2491 C 0.52934 0.74911 0.52493 0.0
C2492 C 0.51842 0.73642 0.50311 0.0
C2493 C 0.51334 0.74814 0.48531 0.0
C2494 C 0.54419 0.78748 0.55253 0.0
C2495 C 0.51394 0.71046 0.49782 0.0
C2496 C 0.57115 0.71774 0.5489 0.0
C2497 C 0.55831 0.70576 0.56376 0.0
C2498 C 0.56241 0.73324 0.53745 0.0
C2499 C 0.54031 0.73701 0.54106 0.0
C2500 C 0.52812 0.72679 0.5578 0.0
C2501 C 0.53724 0.71111 0.56891 0.0
C2502 C 0.57605 0.74384 0.51976 0.0
C2503 C 0.5048 0.73099 0.56266 0.0
H2504 H 0.5326 0.80326 0.51386 0.0
H2505 H 0.50606 0.73846 0.46821 0.0
H2506 H 0.53738 0.77982 0.56728 0.0
H2507 H 0.56263 0.78774 0.55355 0.0
H2508 H 0.5416 0.80553 0.5548 0.0
H2509 H 0.50324 0.70324 0.48106 0.0
H2510 H 0.53023 0.70442 0.49659 0.0
H2511 H 0.50549 0.70349 0.51216 0.0
H2512 H 0.5873 0.71356 0.54452 0.0
H2513 H 0.52736 0.70211 0.58061 0.0
H2514 H 0.57685 0.76268 0.52283 0.0
H2515 H 0.56775 0.73657 0.50182 0.0
H2516 H 0.59359 0.74058 0.52042 0.0
H2517 H 0.50361 0.74917 0.56269 0.0
H2518 H 0.50012 0.72665 0.57975 0.0
H2519 H 0.49228 0.72005 0.54867 0.0
C2520 C 0.6507 0.34997 0.69508 0.0
C2521 C 0.65294 0.3386 0.67236 0.0
C2522 C 0.66684 0.3508 0.71369 0.0
C2523 C 0.68537 0.33972 0.7094 0.0
C2524 C 0.68832 0.32932 0.68626 0.0
C2525 C 0.67211 0.32903 0.66797 0.0
C2526 C 0.66355 0.36261 0.73805 0.0
C2527 C 0.70795 0.31738 0.68098 0.0
C2528 C 0.73861 0.3479 0.74947 0.0
C2529 C 0.73485 0.32764 0.7586 0.0
C2530 C 0.72181 0.35318 0.73493 0.0
C2531 C 0.70101 0.33754 0.72907 0.0
C2532 C 0.69653 0.31795 0.73971 0.0
C2533 C 0.71352 0.31334 0.75461 0.0
C2534 C 0.72704 0.37453 0.72443 0.0
C2535 C 0.67457 0.30078 0.73373 0.0
H2536 H 0.63592 0.35751 0.6985 0.0
H2537 H 0.67392 0.32027 0.65042 0.0
H2538 H 0.65892 0.34956 0.74909 0.0
H2539 H 0.6795 0.37407 0.74644 0.0
H2540 H 0.65003 0.37292 0.73791 0.0
H2541 H 0.70811 0.31073 0.66193 0.0
H2542 H 0.72417 0.32939 0.68733 0.0
H2543 H 0.70708 0.30276 0.69035 0.0
H2544 H 0.75509 0.35912 0.75282 0.0
H2545 H 0.71066 0.29765 0.76163 0.0
H2546 H 0.71223 0.38307 0.72404 0.0
H2547 H 0.73112 0.36971 0.70608 0.0
H2548 H 0.74171 0.38704 0.73433 0.0
H2549 H 0.65998 0.30965 0.73512 0.0
H2550 H 0.67279 0.28788 0.74532 0.0
H2551 H 0.67379 0.29159 0.7153 0.0
C2552 C 1.0049 0.3917 0.93307 0.0
C2553 C 0.9954 0.37305 0.94299 0.0
C2554 C 1.00741 0.41427 0.9455 0.0
C2555 C 1.00035 0.41816 0.96841 0.0
C2556 C 0.98873 0.39956 0.97754 0.0
C2557 C 0.98634 0.37712 0.96464 0.0
C2558 C 0.01958 0.4337 0.93499 0.0
C2559 C 0.98071 0.40307 1.00178 0.0
C2560 C 0.04032 0.46652 1.00866 0.0
C2561 C 0.02883 0.48481 1.00911 0.0
C2562 C 0.03065 0.44448 0.99637 0.0
C2563 C 1.00898 0.44067 0.98409 0.0
C2564 C 0.99679 0.4588 0.98536 0.0
C2565 C 1.00688 0.48075 0.99796 0.0
C2566 C 0.04412 0.42552 0.9957 0.0
C2567 C 0.97365 0.45534 0.97251 0.0
H2568 H 1.0116 0.38861 0.91615 0.0
H2569 H 0.97877 0.36272 0.97227 0.0
H2570 H 1.01084 0.44854 0.9377 0.0
H2571 H 0.03693 0.43964 0.94386 0.0
H2572 H 0.02085 0.42835 0.91591 0.0
H2573 H 0.96827 0.38795 1.00439 0.0
H2574 H 0.99539 0.40577 0.01502 0.0
H2575 H 0.97294 0.41856 1.00509 0.0
H2576 H 0.05717 0.46951 0.01753 0.0
H2577 H 0.99794 0.49488 0.99829 0.0
H2578 H 0.04846 0.42008 0.97754 0.0
H2579 H 0.03393 0.41029 1.0009 0.0
H2580 H 0.06004 0.43098 1.00748 0.0
H2581 H 0.97528 0.45386 0.95343 0.0
H2582 H 0.96499 0.46989 0.97835 0.0
H2583 H 0.96289 0.43916 0.97508 0.0
C2584 C 0.02072 0.7807 0.15275 0.0
C2585 C 0.03404 0.80223 0.15249 0.0
C2586 C 1.00203 0.77876 0.16596 0.0
C2587 C 0.99649 0.79886 0.17904 0.0
C2588 C 1.00923 0.82072 0.17793 0.0
C2589 C 0.02794 0.82214 0.16471 0.0
C2590 C 0.98885 0.75516 0.16678 0.0
C2591 C 1.00365 0.84254 0.19144 0.0
C2592 C 0.93902 0.7951 0.20276 0.0
C2593 C 0.9443 0.7935 0.22615 0.0
C2594 C 0.95583 0.79692 0.18718 0.0
C2595 C 0.9784 0.79694 0.19517 0.0
C2596 C 0.98382 0.79519 0.2187 0.0
C2597 C 0.96671 0.79358 0.23393 0.0
C2598 C 0.94947 0.7988 0.16221 0.0
C2599 C 1.00772 0.79509 0.22782 0.0
H2600 H 0.02539 0.76527 0.1433 0.0
H2601 H 0.03815 0.83883 0.16446 0.0
H2602 H 0.99121 0.75157 0.18474 0.0
H2603 H 0.97053 0.75437 0.16274 0.0
H2604 H 0.99427 0.74141 0.15425 0.0
H2605 H 1.01402 0.8582 0.18716 0.0
H2606 H 0.98553 0.84297 0.18767 0.0
H2607 H 1.00662 0.84303 0.21054 0.0
H2608 H 0.92166 0.7947 0.19654 0.0
H2609 H 0.97096 0.79267 0.25206 0.0
H2610 H 0.95384 0.78428 0.14988 0.0
H2611 H 0.95925 0.81488 0.15823 0.0
H2612 H 0.93117 0.79875 0.15884 0.0
H2613 H 1.01406 0.78075 0.21718 0.0
H2614 H 1.00903 0.79323 0.24649 0.0
H2615 H 0.01899 0.81131 0.22616 0.0
C2616 C 0.52845 0.3293 0.09637 0.0
C2617 C 0.53141 0.33888 0.12038 0.0
C2618 C 0.53247 0.34325 0.07957 0.0
C2619 C 0.53946 0.36728 0.08704 0.0
C2620 C 0.54147 0.37713 0.11122 0.0
C2621 C 0.53748 0.36277 0.12764 0.0
C2622 C 0.53015 0.33219 0.05392 0.0
C2623 C 0.54863 0.40276 0.1198 0.0
C2624 C 0.57568 0.40236 0.05027 0.0
C2625 C 0.55993 0.41319 0.04031 0.0
C2626 C 0.56902 0.38668 0.06487 0.0
C2627 C 0.54615 0.38205 0.06979 0.0
C2628 C 0.53005 0.39246 0.05922 0.0
C2629 C 0.53715 0.40788 0.04449 0.0
C2630 C 0.58661 0.37569 0.07565 0.0
C2631 C 0.50557 0.38814 0.06428 0.0
H2632 H 0.52371 0.31081 0.0907 0.0
H2633 H 0.53965 0.37022 0.1462 0.0
H2634 H 0.51916 0.34057 0.04366 0.0
H2635 H 0.54697 0.33458 0.04699 0.0
H2636 H 0.52298 0.31348 0.05091 0.0
H2637 H 0.54777 0.4078 0.13899 0.0
H2638 H 0.56625 0.40846 0.11578 0.0
H2639 H 0.53777 0.41208 0.11058 0.0
H2640 H 0.59327 0.40648 0.04693 0.0
H2641 H 0.52504 0.41659 0.03707 0.0
H2642 H 0.58112 0.35671 0.07208 0.0
H2643 H 0.58857 0.38153 0.09497 0.0
H2644 H 0.60334 0.38001 0.06886 0.0
H2645 H 0.49874 0.3694 0.06153 0.0
H2646 H 0.4949 0.39601 0.05309 0.0
H2647 H 0.5042 0.39544 0.08293 0.0
C2648 C 0.06242 0.32813 0.32708 0.0
C2649 C 0.05645 0.31657 0.34539 0.0
C2650 C 0.04589 0.3304 0.31014 0.0
C2651 C 0.02295 0.32123 0.31192 0.0
C2652 C 0.01708 0.3082 0.32946 0.0
C2653 C 0.03396 0.30591 0.3459 0.0
C2654 C 0.05282 0.34386 0.29132 0.0
C2655 C 0.99278 0.29817 0.332 0.0
C2656 C 0.97615 0.35169 0.29773 0.0
C2657 C 0.96388 0.33606 0.27852 0.0
C2658 C 0.99643 0.3479 0.30769 0.0
C2659 C 1.00473 0.32803 0.29812 0.0
C2660 C 0.99355 0.31328 0.27748 0.0
C2661 C 0.97308 0.31738 0.26798 0.0
C2662 C 1.00779 0.36405 0.32976 0.0
C2663 C 1.00225 0.29229 0.26642 0.0
H2664 H 0.07988 0.33614 0.32647 0.0
H2665 H 0.02931 0.29679 0.35992 0.0
H2666 H 0.04337 0.33542 0.27417 0.0
H2667 H 0.04879 0.36129 0.2959 0.0
H2668 H 0.07122 0.34577 0.28941 0.0
H2669 H 0.99127 0.28688 0.34524 0.0
H2670 H 0.98352 0.31231 0.33745 0.0
H2671 H 0.98434 0.28806 0.31498 0.0
H2672 H 0.96905 0.366 0.30619 0.0
H2673 H 0.96378 0.30541 0.25295 0.0
H2674 H 0.02612 0.36926 0.32828 0.0
H2675 H 1.00593 0.35512 0.34488 0.0
H2676 H 1.00042 0.3798 0.33361 0.0
H2677 H 0.02092 0.29616 0.26649 0.0
H2678 H 0.99468 0.28561 0.24809 0.0
H2679 H 0.99791 0.27852 0.27672 0.0
C2680 C 0.01999 0.70951 0.62917 0.0
C2681 C 0.03888 0.727 0.6371 0.0
C2682 C 0.0225 0.6877 0.61783 0.0
C2683 C 0.04442 0.68345 0.61407 0.0
C2684 C 0.06358 0.701 0.62217 0.0
C2685 C 0.06058 0.7226 0.63378 0.0
C2686 C 1.0017 0.66927 0.60971 0.0
C2687 C 0.08718 0.6971 0.61819 0.0
C2688 C 0.05185 0.62144 0.60053 0.0
C2689 C 0.05074 0.61732 0.57597 0.0
C2690 C 0.04991 0.64297 0.61323 0.0
C2691 C 0.04716 0.66079 0.60103 0.0
C2692 C 0.04636 0.65682 0.57626 0.0
C2693 C 0.04798 0.63504 0.564 0.0
C2694 C 0.05045 0.64653 0.63963 0.0
C2695 C 0.0437 0.67554 0.56271 0.0
H2696 H 1.00319 0.71284 0.63188 0.0
H2697 H 0.07519 0.73614 0.63989 0.0
H2698 H 1.00028 0.66408 0.59033 0.0
H2699 H 1.00308 0.65375 0.61712 0.0
H2700 H 0.98596 0.67509 0.61492 0.0
H2701 H 0.1003 0.71243 0.62592 0.0
H2702 H 0.09052 0.68233 0.62595 0.0
H2703 H 0.08881 0.69271 0.59909 0.0
H2704 H 0.05385 0.60772 0.60983 0.0
H2705 H 0.04731 0.63197 0.54501 0.0
H2706 H 0.0344 0.65121 0.64531 0.0
H2707 H 0.06429 0.66099 0.64777 0.0
H2708 H 0.05292 0.63094 0.64644 0.0
H2709 H 0.02736 0.68103 0.56572 0.0
H2710 H 0.04426 0.66987 0.54354 0.0
H2711 H 0.05728 0.69082 0.569 0.0
C2712 C 0.66798 0.80944 0.86135 0.0
C2713 C 0.667 0.82611 0.88114 0.0
C2714 C 0.68723 0.81049 0.84904 0.0
C2715 C 0.70613 0.82838 0.85708 0.0
C2716 C 0.70526 0.8453 0.87709 0.0
C2717 C 0.68553 0.8441 0.88879 0.0
C2718 C 0.68742 0.79226 0.82758 0.0
C2719 C 0.72532 0.86427 0.88641 0.0
C2720 C 0.75915 0.80981 0.83696 0.0
C2721 C 0.7618 0.8195 0.81691 0.0
C2722 C 0.74216 0.81421 0.85143 0.0
C2723 C 0.72715 0.82817 0.84523 0.0
C2724 C 0.73066 0.83916 0.82573 0.0
C2725 C 0.74824 0.83484 0.81182 0.0
C2726 C 0.73934 0.80256 0.87233 0.0
C2727 C 0.71483 0.85398 0.8185 0.0
H2728 H 0.65354 0.79568 0.85526 0.0
H2729 H 0.68473 0.857 0.90413 0.0
H2730 H 0.69209 0.80042 0.81241 0.0
H2731 H 0.70029 0.78187 0.83082 0.0
H2732 H 0.67078 0.78049 0.82275 0.0
H2733 H 0.72151 0.87673 0.90146 0.0
H2734 H 0.73968 0.85676 0.89218 0.0
H2735 H 0.7309 0.8737 0.87237 0.0
H2736 H 0.76997 0.79813 0.84092 0.0
H2737 H 0.75044 0.84224 0.79621 0.0
H2738 H 0.72435 0.78839 0.86849 0.0
H2739 H 0.73643 0.81484 0.88795 0.0
H2740 H 0.75431 0.7952 0.8767 0.0
H2741 H 0.69842 0.84289 0.81097 0.0
H2742 H 0.72167 0.8638 0.80517 0.0
H2743 H 0.71145 0.86623 0.83391 0.0
C2744 C 0.45496 0.56143 0.68993 0.0
C2745 C 0.46672 0.56529 0.71258 0.0
C2746 C 0.46602 0.55977 0.66846 0.0
C2747 C 0.48999 0.56143 0.66844 0.0
C2748 C 0.50193 0.56514 0.69124 0.0
C2749 C 0.49049 0.56719 0.71248 0.0
C2750 C 0.4518 0.55636 0.64551 0.0
C2751 C 0.52717 0.56678 0.6933 0.0
C2752 C 0.51617 0.53622 0.61015 0.0
C2753 C 0.52542 0.55568 0.60068 0.0
C2754 C 0.50518 0.53781 0.63169 0.0
C2755 C 0.50235 0.55942 0.64497 0.0
C2756 C 0.51144 0.57908 0.63535 0.0
C2757 C 0.52273 0.57705 0.61404 0.0
C2758 C 0.49656 0.51601 0.64035 0.0
C2759 C 0.50901 0.60265 0.64755 0.0
H2760 H 0.43677 0.5599 0.68889 0.0
H2761 H 0.50036 0.57005 0.72925 0.0
H2762 H 0.45798 0.57035 0.63599 0.0
H2763 H 0.45339 0.53992 0.63422 0.0
H2764 H 0.43367 0.55609 0.64796 0.0
H2765 H 0.53428 0.5689 0.71177 0.0
H2766 H 0.53149 0.55107 0.68293 0.0
H2767 H 0.53539 0.5816 0.6859 0.0
H2768 H 0.51764 0.51942 0.60073 0.0
H2769 H 0.52924 0.59252 0.60759 0.0
H2770 H 0.47797 0.51361 0.64085 0.0
H2771 H 0.50403 0.51727 0.65853 0.0
H2772 H 0.50061 0.5006 0.62908 0.0
H2773 H 0.49087 0.60316 0.64909 0.0
H2774 H 0.51632 0.61634 0.63811 0.0
H2775 H 0.51751 0.60648 0.66561 0.0
C2776 C 0.79789 0.15793 0.97596 0.0
C2777 C 0.81093 0.16896 0.99694 0.0
C2778 C 0.79259 0.17043 0.95881 0.0
C2779 C 0.80041 0.19454 0.9628 0.0
C2780 C 0.81379 0.20569 0.98385 0.0
C2781 C 0.81892 0.19277 1.00062 0.0
C2782 C 0.77841 0.15788 0.93653 0.0
C2783 C 0.8224 0.23136 0.98885 0.0
C2784 C 0.80308 0.22634 0.91166 0.0
C2785 C 0.7835 0.23588 0.91312 0.0
C2786 C 0.80859 0.21254 0.92743 0.0
C2787 C 0.79428 0.20824 0.94523 0.0
C2788 C 0.7744 0.21765 0.9467 0.0
C2789 C 0.76923 0.23127 0.93061 0.0
C2790 C 0.82992 0.20283 0.92526 0.0
C2791 C 0.7587 0.21352 0.96543 0.0
H2792 H 0.79166 0.13953 0.97301 0.0
H2793 H 0.82898 0.20143 0.01681 0.0
H2794 H 0.76244 0.16443 0.93511 0.0
H2795 H 0.7875 0.16115 0.92105 0.0
H2796 H 0.7742 0.13902 0.93578 0.0
H2797 H 0.83292 0.23736 1.00587 0.0
H2798 H 0.83262 0.23638 0.97469 0.0
H2799 H 0.80795 0.24045 0.98916 0.0
H2800 H 0.81439 0.23002 0.89844 0.0
H2801 H 0.75389 0.23824 0.93168 0.0
H2802 H 0.82592 0.18387 0.92361 0.0
H2803 H 0.84164 0.20979 0.94134 0.0
H2804 H 0.83877 0.20697 0.90988 0.0
H2805 H 0.75275 0.19479 0.96425 0.0
H2806 H 0.74376 0.22175 0.96399 0.0
H2807 H 0.76789 0.22038 0.98304 0.0
C2808 C 0.15748 0.50526 0.17744 0.0
C2809 C 0.17606 0.52343 0.17977 0.0
C2810 C 0.14031 0.50177 0.1591 0.0
C2811 C 0.14162 0.51716 0.14324 0.0
C2812 C 0.16095 0.53475 0.14483 0.0
C2813 C 0.17805 0.53748 0.16292 0.0
C2814 C 0.12037 0.48229 0.15734 0.0
C2815 C 0.16298 0.5516 0.12828 0.0
C2816 C 0.10786 0.51014 0.08509 0.0
C2817 C 0.09256 0.52471 0.09104 0.0
C2818 C 0.12254 0.50548 0.10236 0.0
C2819 C 0.1223 0.51631 0.12596 0.0
C2820 C 0.10567 0.52964 0.13223 0.0
C2821 C 0.09073 0.53345 0.11461 0.0
C2822 C 0.13948 0.49055 0.095 0.0
C2823 C 0.10506 0.54173 0.15718 0.0
H2824 H 0.15597 0.49427 0.19038 0.0
H2825 H 0.1924 0.55152 0.16463 0.0
H2826 H 0.10537 0.48927 0.16307 0.0
H2827 H 0.11614 0.47307 0.1389 0.0
H2828 H 0.12361 0.46979 0.16847 0.0
H2829 H 0.1793 0.56405 0.13171 0.0
H2830 H 0.16147 0.54229 0.10986 0.0
H2831 H 0.14903 0.56137 0.13007 0.0
H2832 H 0.109 0.50316 0.06679 0.0
H2833 H 0.07891 0.5448 0.11909 0.0
H2834 H 0.14235 0.47989 0.10821 0.0
H2835 H 0.15588 0.50162 0.09344 0.0
H2836 H 0.13387 0.47906 0.07773 0.0
H2837 H 0.10576 0.5297 0.16947 0.0
H2838 H 0.08966 0.54927 0.15954 0.0
H2839 H 0.1201 0.55578 0.16206 0.0
C2840 C 0.82663 0.87627 0.4643 0.0
C2841 C 0.81878 0.86359 0.48125 0.0
C2842 C 0.82389 0.86637 0.44031 0.0
C2843 C 0.81304 0.84309 0.43289 0.0
C2844 C 0.80511 0.83011 0.4499 0.0
C2845 C 0.80806 0.84052 0.47387 0.0
C2846 C 0.83262 0.88089 0.42288 0.0
C2847 C 0.79353 0.80525 0.44275 0.0
C2848 C 0.79028 0.82612 0.36831 0.0
C2849 C 0.80795 0.81691 0.358 0.0
C2850 C 0.7913 0.83391 0.39273 0.0
C2851 C 0.81041 0.83246 0.40732 0.0
C2852 C 0.82789 0.8224 0.39713 0.0
C2853 C 0.82647 0.8148 0.37269 0.0
C2854 C 0.77226 0.84448 0.40282 0.0
C2855 C 0.84854 0.8204 0.41195 0.0
H2856 H 0.8349 0.89412 0.46978 0.0
H2857 H 0.80189 0.83061 0.48683 0.0
H2858 H 0.84535 0.87307 0.41296 0.0
H2859 H 0.81859 0.88151 0.40997 0.0
H2860 H 0.84048 0.89877 0.43145 0.0
H2861 H 0.78827 0.79752 0.45803 0.0
H2862 H 0.77837 0.80376 0.43045 0.0
H2863 H 0.80502 0.79511 0.43333 0.0
H2864 H 0.77585 0.82781 0.35725 0.0
H2865 H 0.8402 0.80761 0.36506 0.0
H2866 H 0.77849 0.86305 0.40993 0.0
H2867 H 0.76619 0.83639 0.41759 0.0
H2868 H 0.75778 0.84264 0.38952 0.0
H2869 H 0.85831 0.83782 0.41962 0.0
H2870 H 0.85978 0.81056 0.40169 0.0
H2871 H 0.84347 0.81184 0.42675 0.0
C2872 C 0.45418 0.56509 0.86795 0.0
C2873 C 0.46621 0.57101 0.84898 0.0
C2874 C 0.4651 0.56331 0.89007 0.0
C2875 C 0.48918 0.56753 0.89444 0.0
C2876 C 0.50143 0.57365 0.87539 0.0
C2877 C 0.49007 0.57521 0.85339 0.0
C2878 C 0.45061 0.55664 0.90892 0.0
C2879 C 0.52688 0.57853 0.87821 0.0
C2880 C 0.51808 0.58188 0.95984 0.0
C2881 C 0.52392 0.56099 0.96383 0.0
C2882 C 0.50718 0.58424 0.9379 0.0
C2883 C 0.50134 0.56534 0.91848 0.0
C2884 C 0.50718 0.54422 0.92243 0.0
C2885 C 0.51816 0.54236 0.94448 0.0
C2886 C 0.50185 0.60729 0.93554 0.0
C2887 C 0.5017 0.52323 0.90316 0.0
H2888 H 0.43589 0.56159 0.86547 0.0
H2889 H 0.50008 0.57973 0.83945 0.0
H2890 H 0.45436 0.54056 0.91367 0.0
H2891 H 0.45463 0.57021 0.92497 0.0
H2892 H 0.43228 0.55399 0.90335 0.0
H2893 H 0.53428 0.58349 0.86238 0.0
H2894 H 0.5331 0.59261 0.89349 0.0
H2895 H 0.53308 0.5631 0.88179 0.0
H2896 H 0.52209 0.59669 0.97401 0.0
H2897 H 0.52219 0.52596 0.94655 0.0
H2898 H 0.48338 0.60566 0.9316 0.0
H2899 H 0.51015 0.61331 0.92063 0.0
H2900 H 0.50749 0.62051 0.95169 0.0
H2901 H 0.48324 0.51897 0.89802 0.0
H2902 H 0.50707 0.50802 0.90847 0.0
H2903 H 0.51014 0.5268 0.8874 0.0
C2904 C 0.82694 0.20542 0.1107 0.0
C2905 C 0.82845 0.18281 0.11265 0.0
C2906 C 0.82425 0.22176 0.13034 0.0
C2907 C 0.82318 0.21549 0.15266 0.0
C2908 C 0.82522 0.19282 0.15486 0.0
C2909 C 0.82773 0.17675 0.13485 0.0
C2910 C 0.82214 0.24566 0.1271 0.0
C2911 C 0.82444 0.18547 0.17835 0.0
C2912 C 0.83575 0.26324 0.20702 0.0
C2913 C 0.81403 0.26497 0.21376 0.0
C2914 C 0.83893 0.24728 0.18729 0.0
C2915 C 0.81997 0.23269 0.17364 0.0
C2916 C 0.79797 0.23464 0.18 0.0
C2917 C 0.79527 0.25064 0.2 0.0
C2918 C 0.86268 0.24576 0.1813 0.0
C2919 C 0.77727 0.21957 0.16584 0.0
H2920 H 0.82736 0.21029 0.09363 0.0
H2921 H 0.82879 0.15932 0.13653 0.0
H2922 H 0.80563 0.24934 0.13244 0.0
H2923 H 0.8355 0.25859 0.13853 0.0
H2924 H 0.82352 0.2479 0.10866 0.0
H2925 H 0.82689 0.16747 0.1773 0.0
H2926 H 0.83772 0.19698 0.19118 0.0
H2927 H 0.80793 0.18697 0.18526 0.0
H2928 H 0.85045 0.274 0.21754 0.0
H2929 H 0.77843 0.25169 0.20503 0.0
H2930 H 0.8648 0.2487 0.1632 0.0
H2931 H 0.86584 0.22826 0.18188 0.0
H2932 H 0.87565 0.25846 0.19354 0.0
H2933 H 0.77718 0.22179 0.1473 0.0
H2934 H 0.76135 0.22352 0.17272 0.0
H2935 H 0.77764 0.20124 0.16594 0.0
C2936 C 0.18902 0.56272 0.3238 0.0
C2937 C 0.17805 0.55676 0.30105 0.0
C2938 C 0.17674 0.56633 0.34341 0.0
C2939 C 0.15296 0.56376 0.34012 0.0
C2940 C 0.14181 0.55779 0.31719 0.0
C2941 C 0.15452 0.55441 0.2979 0.0
C2942 C 0.18917 0.5728 0.36763 0.0
C2943 C 0.11645 0.55483 0.31304 0.0
C2944 C 0.11859 0.55056 0.39016 0.0
C2945 C 0.11343 0.57205 0.39907 0.0
C2946 C 0.13157 0.54767 0.37106 0.0
C2947 C 0.13963 0.56676 0.36069 0.0
C2948 C 0.13465 0.58856 0.36971 0.0
C2949 C 0.12152 0.59093 0.38879 0.0
C2950 C 0.13643 0.52413 0.36179 0.0
C2951 C 0.14311 0.60932 0.35917 0.0
H2952 H 0.20723 0.56465 0.32628 0.0
H2953 H 0.146 0.54984 0.28032 0.0
H2954 H 0.18542 0.58925 0.37695 0.0
H2955 H 0.18332 0.55949 0.37806 0.0
H2956 H 0.20776 0.57466 0.36713 0.0
H2957 H 0.11043 0.5504 0.29408 0.0
H2958 H 0.10816 0.54101 0.32177 0.0
H2959 H 0.11093 0.57088 0.32087 0.0
H2960 H 0.11209 0.53587 0.39789 0.0
H2961 H 0.11773 0.60761 0.39582 0.0
H2962 H 0.15494 0.52491 0.36218 0.0
H2963 H 0.12934 0.51826 0.34324 0.0
H2964 H 0.12918 0.51115 0.37208 0.0
H2965 H 0.16181 0.61233 0.35963 0.0
H2966 H 0.13809 0.62514 0.36854 0.0
H2967 H 0.13638 0.60622 0.34049 0.0
C2968 C 0.82548 0.84769 0.61404 0.0
C2969 C 0.81854 0.86844 0.61242 0.0
C2970 C 0.8233 0.83829 0.63454 0.0
C2971 C 0.81383 0.84981 0.65388 0.0
C2972 C 0.80656 0.87061 0.65219 0.0
C2973 C 0.80905 0.87967 0.63158 0.0
C2974 C 0.83144 0.81618 0.63564 0.0
C2975 C 0.79634 0.88348 0.67229 0.0
C2976 C 0.79175 0.81675 0.70102 0.0
C2977 C 0.80966 0.82366 0.71882 0.0
C2978 C 0.79285 0.82507 0.67983 0.0
C2979 C 0.81233 0.84064 0.67622 0.0
C2980 C 0.83038 0.84774 0.69415 0.0
C2981 C 0.82882 0.83922 0.71513 0.0
C2982 C 0.77316 0.81716 0.66125 0.0
C2983 C 0.85148 0.86429 0.69116 0.0
H2984 H 0.83282 0.83889 0.59936 0.0
H2985 H 0.80356 0.89567 0.63051 0.0
H2986 H 0.84518 0.81922 0.64999 0.0
H2987 H 0.81751 0.80316 0.63968 0.0
H2988 H 0.83786 0.809 0.61895 0.0
H2989 H 0.79074 0.89896 0.66791 0.0
H2990 H 0.78162 0.87205 0.67728 0.0
H2991 H 0.80888 0.88896 0.68788 0.0
H2992 H 0.77689 0.80473 0.70358 0.0
H2993 H 0.84287 0.84467 0.72858 0.0
H2994 H 0.77883 0.80851 0.64479 0.0
H2995 H 0.7665 0.83221 0.65724 0.0
H2996 H 0.75921 0.80508 0.66671 0.0
H2997 H 0.86403 0.86811 0.70675 0.0
H2998 H 0.84707 0.88068 0.68802 0.0
H2999 H 0.8595 0.85703 0.6756 0.0
C3000 C 0.72525 0.50845 0.54215 0.0
C3001 C 0.7319 0.50205 0.51952 0.0
C3002 C 0.70378 0.51411 0.54571 0.0
C3003 C 0.68838 0.51381 0.52622 0.0
C3004 C 0.69514 0.50772 0.5033 0.0
C3005 C 0.7166 0.50173 0.50025 0.0
C3006 C 0.69745 0.52011 0.57045 0.0
C3007 C 0.67966 0.50749 0.48192 0.0
C3008 C 0.62469 0.50933 0.53369 0.0
C3009 C 0.62199 0.53236 0.53627 0.0
C3010 C 0.64606 0.50311 0.53074 0.0
C3011 C 0.66542 0.52016 0.52985 0.0
C3012 C 0.66279 0.54341 0.53251 0.0
C3013 C 0.64134 0.54919 0.53583 0.0
C3014 C 0.64782 0.47816 0.5283 0.0
C3015 C 0.68262 0.56226 0.53137 0.0
H3016 H 0.7367 0.50857 0.55724 0.0
H3017 H 0.72139 0.49676 0.48268 0.0
H3018 H 0.69369 0.53771 0.57373 0.0
H3019 H 0.68189 0.50814 0.57286 0.0
H3020 H 0.71105 0.51925 0.58377 0.0
H3021 H 0.68751 0.50301 0.46534 0.0
H3022 H 0.66378 0.49487 0.48154 0.0
H3023 H 0.67501 0.52461 0.48271 0.0
H3024 H 0.61002 0.49604 0.53377 0.0
H3025 H 0.63968 0.56701 0.53746 0.0
H3026 H 0.66125 0.47617 0.5412 0.0
H3027 H 0.65261 0.47179 0.51056 0.0
H3028 H 0.63168 0.46722 0.53097 0.0
H3029 H 0.69622 0.56265 0.54517 0.0
H3030 H 0.67791 0.57948 0.53367 0.0
H3031 H 0.68969 0.55877 0.5142 0.0
C3032 C 0.21155 0.14801 0.48974 0.0
C3033 C 0.21952 0.16697 0.50783 0.0
C3034 C 0.19018 0.13413 0.48967 0.0
C3035 C 0.17689 0.13888 0.50858 0.0
C3036 C 0.18472 0.15832 0.52663 0.0
C3037 C 0.20578 0.17232 0.52582 0.0
C3038 C 0.1821 0.11404 0.46971 0.0
C3039 C 0.17142 0.16364 0.54745 0.0
C3040 C 0.11469 0.1113 0.506 0.0
C3041 C 0.11591 0.09239 0.51675 0.0
C3042 C 0.13442 0.12621 0.5025 0.0
C3043 C 0.15578 0.1225 0.51061 0.0
C3044 C 0.15704 0.10345 0.52153 0.0
C3045 C 0.13712 0.08847 0.52415 0.0
C3046 C 0.13238 0.14598 0.49029 0.0
C3047 C 0.1794 0.09924 0.53107 0.0
H3048 H 0.2221 0.14394 0.47572 0.0
H3049 H 0.21197 0.18688 0.53994 0.0
H3050 H 0.18182 0.0977 0.47609 0.0
H3051 H 0.16459 0.11411 0.46286 0.0
H3052 H 0.19312 0.1143 0.45507 0.0
H3053 H 0.17942 0.17991 0.55951 0.0
H3054 H 0.15402 0.16497 0.54152 0.0
H3055 H 0.17001 0.14941 0.5574 0.0
H3056 H 0.09831 0.11435 0.50018 0.0
H3057 H 0.13814 0.07402 0.53268 0.0
H3058 H 0.14339 0.14593 0.47566 0.0
H3059 H 0.13816 0.16252 0.50274 0.0
H3060 H 0.11474 0.1453 0.4832 0.0
H3061 H 0.19063 0.09687 0.51677 0.0
H3062 H 0.17743 0.08384 0.53939 0.0
H3063 H 0.188 0.11442 0.54428 0.0
C3064 C 0.21295 0.95033 0.76698 0.0
C3065 C 0.22001 0.97107 0.78383 0.0
C3066 C 0.22338 0.93018 0.76589 0.0
C3067 C 0.24156 0.92901 0.78255 0.0
C3068 C 0.24844 0.94981 0.79993 0.0
C3069 C 0.23821 0.97 0.80005 0.0
C3070 C 0.21455 0.90999 0.74631 0.0
C3071 C 0.26678 0.95116 0.81908 0.0
C3072 C 0.25259 0.86544 0.78689 0.0
C3073 C 0.27488 0.86471 0.78036 0.0
C3074 C 0.24206 0.88552 0.78802 0.0
C3075 C 0.25309 0.90664 0.78178 0.0
C3076 C 0.2755 0.90582 0.77479 0.0
C3077 C 0.28588 0.88573 0.77462 0.0
C3078 C 0.21877 0.88364 0.79637 0.0
C3079 C 0.28912 0.92631 0.76718 0.0
H3080 H 0.19915 0.94982 0.75402 0.0
H3081 H 0.24447 0.9851 0.8135 0.0
H3082 H 0.2278 0.89998 0.74107 0.0
H3083 H 0.2005 0.89846 0.75224 0.0
H3084 H 0.20775 0.91568 0.73064 0.0
H3085 H 0.26371 0.96217 0.83557 0.0
H3086 H 0.26822 0.93398 0.82276 0.0
H3087 H 0.28317 0.9592 0.8137 0.0
H3088 H 0.24317 0.85015 0.79173 0.0
H3089 H 0.30295 0.88657 0.76955 0.0
H3090 H 0.20614 0.87494 0.78144 0.0
H3091 H 0.21477 0.90065 0.80354 0.0
H3092 H 0.21695 0.8729 0.81009 0.0
H3093 H 0.27825 0.93689 0.75986 0.0
H3094 H 0.30044 0.92083 0.75378 0.0
H3095 H 0.29998 0.93719 0.78254 0.0
C3096 C 0.37917 0.98949 0.0188 0.0
C3097 C 0.36408 1.00491 0.02029 0.0
C3098 C 0.40278 0.99716 0.02122 0.0
C3099 C 0.41201 0.02101 0.02531 0.0
C3100 C 0.39692 0.03676 0.02676 0.0
C3101 C 0.37321 0.02856 0.02422 0.0
C3102 C 0.41791 0.97959 0.01943 0.0
C3103 C 0.40587 0.06231 0.0311 0.0
C3104 C 0.47372 0.03858 0.05224 0.0
C3105 C 0.48579 0.04057 0.03249 0.0
C3106 C 0.44984 0.03296 0.05027 0.0
C3107 C 0.4374 0.02916 0.028 0.0
C3108 C 0.44946 0.03156 1.00808 0.0
C3109 C 0.47334 0.0372 1.01054 0.0
C3110 C 0.43791 0.03059 0.07206 0.0
C3111 C 0.43714 0.02768 0.98396 0.0
H3112 H 0.37249 0.97117 0.01576 0.0
H3113 H 0.36184 0.04067 0.02545 0.0
H3114 H 0.42893 0.98153 1.00503 0.0
H3115 H 0.4291 0.98246 0.03591 0.0
H3116 H 0.40817 0.96167 0.01611 0.0
H3117 H 0.39211 0.07237 0.03168 0.0
H3118 H 0.41666 0.0677 0.04797 0.0
H3119 H 0.41663 0.06665 0.01709 0.0
H3120 H 0.48294 0.04118 0.06934 0.0
H3121 H 0.48227 0.03872 0.99509 0.0
H3122 H 0.42901 1.01255 0.07066 0.0
H3123 H 0.42496 0.04158 0.07377 0.0
H3124 H 0.44977 0.0354 0.08823 0.0
H3125 H 0.42821 1.00952 0.97889 0.0
H3126 H 0.44874 0.03151 0.97043 0.0
H3127 H 0.42417 0.03861 0.98406 0.0
C3128 C 0.8565 0.61557 0.81167 0.0
C3129 C 0.8553 0.60358 0.83026 0.0
C3130 C 0.8393 0.62707 0.80613 0.0
C3131 C 0.8205 0.62669 0.81961 0.0
C3132 C 0.81948 0.61519 0.83884 0.0
C3133 C 0.83691 0.60368 0.84392 0.0
C3134 C 0.84108 0.63926 0.78553 0.0
C3135 C 0.79979 0.61466 0.8537 0.0
C3136 C 0.78918 0.67418 0.81207 0.0
C3137 C 0.77279 0.66304 0.79361 0.0
C3138 C 0.80386 0.66217 0.82196 0.0
C3139 C 0.80203 0.6384 0.81325 0.0
C3140 C 0.78435 0.62667 0.79595 0.0
C3141 C 0.76995 0.63918 0.78624 0.0
C3142 C 0.82257 0.67532 0.84024 0.0
C3143 C 0.78182 0.60128 0.7863 0.0
H3144 H 0.87066 0.61551 0.80105 0.0
H3145 H 0.83592 0.59439 0.85829 0.0
H3146 H 0.82659 0.63163 0.77219 0.0
H3147 H 0.84033 0.65767 0.79131 0.0
H3148 H 0.85697 0.63818 0.77707 0.0
H3149 H 0.802 0.60577 0.86862 0.0
H3150 H 0.79758 0.63242 0.86072 0.0
H3151 H 0.784 0.6057 0.84276 0.0
H3152 H 0.79184 0.69269 0.81752 0.0
H3153 H 0.75728 0.63053 0.772 0.0
H3154 H 0.83914 0.67538 0.83294 0.0
H3155 H 0.82283 0.66682 0.85566 0.0
H3156 H 0.82078 0.69344 0.84615 0.0
H3157 H 0.79576 0.59837 0.7752 0.0
H3158 H 0.7655 0.59417 0.77547 0.0
H3159 H 0.783 0.59161 0.80074 0.0
C3160 C 0.84064 0.64382 0.01911 0.0
C3161 C 0.84455 0.66791 0.02276 0.0
C3162 C 0.85813 0.63212 0.02342 0.0
C3163 C 0.88012 0.64481 0.03142 0.0
C3164 C 0.88428 0.66912 0.0346 0.0
C3165 C 0.86643 0.68038 0.03033 0.0
C3166 C 0.85296 0.60621 0.01995 0.0
C3167 C 0.90753 0.68325 0.04288 0.0
C3168 C 0.91969 0.6176 0.06602 0.0
C3169 C 0.9336 0.60997 0.04899 0.0
C3170 C 0.90217 0.6288 0.06047 0.0
C3171 C 0.89853 0.63271 0.03737 0.0
C3172 C 0.91247 0.62506 0.02007 0.0
C3173 C 0.92974 0.6137 0.02606 0.0
C3174 C 0.88763 0.6366 0.0794 0.0
C3175 C 0.90918 0.62893 0.99526 0.0
H3176 H 0.82376 0.63408 1.01328 0.0
H3177 H 0.86957 0.699 0.03311 0.0
H3178 H 0.86433 0.59877 1.00775 0.0
H3179 H 0.85608 0.6008 0.03693 0.0
H3180 H 0.83518 0.59885 1.01287 0.0
H3181 H 0.90822 0.70189 0.04339 0.0
H3182 H 0.9127 0.68079 0.06073 0.0
H3183 H 0.92006 0.6774 0.03117 0.0
H3184 H 0.92272 0.61515 0.08386 0.0
H3185 H 0.94015 0.60758 1.01268 0.0
H3186 H 0.86961 0.62885 0.07389 0.0
H3187 H 0.88915 0.65554 0.08218 0.0
H3188 H 0.89236 0.63185 0.09637 0.0
H3189 H 0.89193 0.62043 0.98738 0.0
H3190 H 0.92164 0.62219 0.98396 0.0
H3191 H 0.91077 0.64758 0.99529 0.0
C3192 C 0.24006 0.11237 0.77297 0.0
C3193 C 0.22425 0.1068 0.78915 0.0
C3194 C 0.25056 0.13567 0.77214 0.0
C3195 C 0.24603 0.15495 0.78818 0.0
C3196 C 0.23033 0.14937 0.80477 0.0
C3197 C 0.21968 0.12596 0.80486 0.0
C3198 C 0.26645 0.13967 0.75361 0.0
C3199 C 0.22474 0.16834 0.82278 0.0
C3200 C 0.28919 0.21472 0.79889 0.0
C3201 C 0.2787 0.22884 0.78637 0.0
C3202 C 0.27893 0.19137 0.79982 0.0
C3203 C 0.2574 0.18057 0.78753 0.0
C3204 C 0.24686 0.19468 0.77466 0.0
C3205 C 0.25726 0.21814 0.77446 0.0
C3206 C 0.29124 0.17821 0.81435 0.0
C3207 C 0.22439 0.18484 0.76069 0.0
H3208 H 0.24401 0.09837 0.76043 0.0
H3209 H 0.20771 0.12267 0.81758 0.0
H3210 H 0.26041 0.15121 0.74277 0.0
H3211 H 0.28346 0.14839 0.76201 0.0
H3212 H 0.26798 0.12341 0.74192 0.0
H3213 H 0.21332 0.16162 0.83532 0.0
H3214 H 0.24049 0.17878 0.83277 0.0
H3215 H 0.2165 0.17999 0.8139 0.0
H3216 H 0.30556 0.22204 0.80839 0.0
H3217 H 0.24852 0.2281 0.76451 0.0
H3218 H 0.29516 0.16285 0.80295 0.0
H3219 H 0.28028 0.17201 0.82747 0.0
H3220 H 0.30726 0.1888 0.82367 0.0
H3221 H 0.2256 0.169 0.74815 0.0
H3222 H 0.21854 0.1972 0.75076 0.0
H3223 H 0.21146 0.17991 0.77259 0.0
C3224 C 0.34529 0.99076 0.3339 0.0
C3225 C 0.36809 0.99449 0.32945 0.0
C3226 C 0.33258 0.96838 0.33092 0.0
C3227 C 0.34299 0.94945 0.32325 0.0
C3228 C 0.36602 0.95316 0.31884 0.0
C3229 C 0.37831 0.97566 0.32203 0.0
C3230 C 0.30806 0.96499 0.33581 0.0
C3231 C 0.37766 0.93335 0.31056 0.0
C3232 C 0.32006 0.8891 0.33197 0.0
C3233 C 0.31078 0.87844 0.3092 0.0
C3234 C 0.32962 0.91261 0.33716 0.0
C3235 C 0.32981 0.92566 0.31916 0.0
C3236 C 0.31927 0.91529 0.29652 0.0
C3237 C 0.30988 0.89178 0.29181 0.0
C3238 C 0.34061 0.92318 0.36155 0.0
C3239 C 0.31904 0.9287 0.27691 0.0
H3240 H 0.33736 1.00531 0.33971 0.0
H3241 H 0.39594 0.97851 0.31859 0.0
H3242 H 0.29722 0.95603 0.31961 0.0
H3243 H 0.30504 0.95392 0.3491 0.0
H3244 H 0.30268 0.98152 0.34224 0.0
H3245 H 0.39577 0.9392 0.30827 0.0
H3246 H 0.37649 0.9216 0.32332 0.0
H3247 H 0.3691 0.92326 0.29355 0.0
H3248 H 0.32071 0.87892 0.34552 0.0
H3249 H 0.3025 0.88373 0.27423 0.0
H3250 H 0.33495 0.93949 0.36813 0.0
H3251 H 0.35921 0.92735 0.36106 0.0
H3252 H 0.33678 0.91145 0.37416 0.0
H3253 H 0.3129 0.9449 0.28274 0.0
H3254 H 0.30821 0.91871 0.26105 0.0
H3255 H 0.33649 0.93346 0.27199 0.0
C3256 C 0.61329 0.34679 0.54735 0.0
C3257 C 0.6021 0.35414 0.56695 0.0
C3258 C 0.61165 0.35628 0.52706 0.0
C3259 C 0.59821 0.37318 0.52639 0.0
C3260 C 0.58751 0.38114 0.5465 0.0
C3261 C 0.5897 0.37159 0.56652 0.0
C3262 C 0.62368 0.34753 0.5063 0.0
C3263 C 0.57316 0.39937 0.54679 0.0
C3264 C 0.59502 0.4188 0.49231 0.0
C3265 C 0.57273 0.41096 0.48198 0.0
C3266 C 0.60605 0.40449 0.50351 0.0
C3267 C 0.59417 0.38239 0.50483 0.0
C3268 C 0.57397 0.37295 0.49018 0.0
C3269 C 0.56353 0.38739 0.47858 0.0
C3270 C 0.62864 0.41443 0.51722 0.0
C3271 C 0.56147 0.34888 0.48996 0.0
H3272 H 0.62295 0.33328 0.54765 0.0
H3273 H 0.58114 0.37739 0.58168 0.0
H3274 H 0.61245 0.33236 0.49521 0.0
H3275 H 0.6282 0.36069 0.49533 0.0
H3276 H 0.63929 0.34193 0.5121 0.0
H3277 H 0.56583 0.40333 0.56377 0.0
H3278 H 0.58348 0.4155 0.54353 0.0
H3279 H 0.55908 0.39363 0.53267 0.0
H3280 H 0.60281 0.43679 0.49447 0.0
H3281 H 0.54684 0.38091 0.46946 0.0
H3282 H 0.63836 0.40083 0.51937 0.0
H3283 H 0.62595 0.42342 0.53492 0.0
H3284 H 0.63879 0.42713 0.50839 0.0
H3285 H 0.57339 0.33686 0.48997 0.0
H3286 H 0.54888 0.34258 0.47444 0.0
H3287 H 0.55239 0.34876 0.50601 0.0
C3288 C 0.45582 0.81812 0.37853 0.0
C3289 C 0.46118 0.79819 0.38483 0.0
C3290 C 0.43585 0.81724 0.36471 0.0
C3291 C 0.42126 0.79579 0.35651 0.0
C3292 C 0.42712 0.77542 0.36189 0.0
C3293 C 0.44694 0.77691 0.37635 0.0
C3294 C 0.42988 0.8394 0.35983 0.0
C3295 C 0.4122 0.7522 0.35287 0.0
C3296 C 0.35964 0.79827 0.34533 0.0
C3297 C 0.35775 0.79825 0.32123 0.0
C3298 C 0.38015 0.79697 0.35693 0.0
C3299 C 0.39906 0.79509 0.34396 0.0
C3300 C 0.39704 0.79424 0.31944 0.0
C3301 C 0.37641 0.79618 0.30837 0.0
C3302 C 0.38178 0.7985 0.38321 0.0
C3303 C 0.41674 0.79166 0.30502 0.0
H3304 H 0.46682 0.83461 0.38519 0.0
H3305 H 0.45125 0.76148 0.38109 0.0
H3306 H 0.42662 0.83839 0.34069 0.0
H3307 H 0.41414 0.8422 0.36788 0.0
H3308 H 0.44346 0.85454 0.36689 0.0
H3309 H 0.42039 0.73789 0.35644 0.0
H3310 H 0.39616 0.75114 0.36133 0.0
H3311 H 0.40782 0.74983 0.33369 0.0
H3312 H 0.34527 0.80014 0.35531 0.0
H3313 H 0.37483 0.79593 0.28966 0.0
H3314 H 0.39411 0.81415 0.3918 0.0
H3315 H 0.38804 0.78349 0.38785 0.0
H3316 H 0.36528 0.79921 0.39053 0.0
H3317 H 0.43019 0.80725 0.31003 0.0
H3318 H 0.41179 0.78907 0.2859 0.0
H3319 H 0.42412 0.77686 0.30858 0.0
C3320 C 0.12137 0.73072 0.10094 0.0
C3321 C 0.1023 0.73938 0.09464 0.0
C3322 C 0.12208 0.70735 0.09399 0.0
C3323 C 0.10321 0.69241 0.08058 0.0
C3324 C 0.08431 0.70127 0.07338 0.0
C3325 C 0.08411 0.72469 0.08047 0.0
C3326 C 0.14258 0.6985 0.10179 0.0
C3327 C 0.06385 0.68583 0.05905 0.0
C3328 C 0.10443 0.63252 0.04783 0.0
C3329 C 0.09348 0.619 0.06266 0.0
C3330 C 0.10896 0.65659 0.05403 0.0
C3331 C 0.10228 0.66725 0.07549 0.0
C3332 C 0.09253 0.65367 0.09117 0.0
C3333 C 0.08831 0.62968 0.08459 0.0
C3334 C 0.11967 0.67056 0.03702 0.0
C3335 C 0.08524 0.66445 0.11427 0.0
H3336 H 0.13552 0.74207 0.11183 0.0
H3337 H 0.06937 0.73134 0.07551 0.0
H3338 H 0.13806 0.68741 0.1148 0.0
H3339 H 0.14846 0.68778 0.0867 0.0
H3340 H 0.15674 0.71267 0.10992 0.0
H3341 H 0.05112 0.69564 0.05377 0.0
H3342 H 0.06898 0.67582 0.04301 0.0
H3343 H 0.05575 0.67331 0.06939 0.0
H3344 H 0.10866 0.62438 0.03093 0.0
H3345 H 0.08001 0.61936 0.09626 0.0
H3346 H 0.13343 0.68459 0.04627 0.0
H3347 H 0.10683 0.67869 0.02904 0.0
H3348 H 0.12665 0.65984 0.02272 0.0
H3349 H 0.09921 0.67777 0.12424 0.0
H3350 H 0.07981 0.65156 0.12534 0.0
H3351 H 0.07091 0.67306 0.11094 0.0
C3352 C 0.06695 0.28246 0.86736 0.0
C3353 C 0.06706 0.30048 0.88629 0.0
C3354 C 0.08614 0.28118 0.85512 0.0
C3355 C 0.10589 0.2982 0.86222 0.0
C3356 C 0.10635 0.31592 0.8819 0.0
C3357 C 0.08685 0.31693 0.89363 0.0
C3358 C 0.08501 0.26216 0.83409 0.0
C3359 C 0.12724 0.33421 0.89014 0.0
C3360 C 0.16209 0.28814 0.84106 0.0
C3361 C 0.16437 0.30133 0.8234 0.0
C3362 C 0.14296 0.28664 0.85365 0.0
C3363 C 0.12563 0.29839 0.84824 0.0
C3364 C 0.1275 0.31116 0.83 0.0
C3365 C 0.14692 0.31259 0.8179 0.0
C3366 C 0.14152 0.27296 0.87309 0.0
C3367 C 0.10925 0.32379 0.82365 0.0
H3368 H 0.05164 0.26972 0.86165 0.0
H3369 H 0.087 0.3308 0.90837 0.0
H3370 H 0.08668 0.26962 0.818 0.0
H3371 H 0.09924 0.25301 0.83578 0.0
H3372 H 0.06889 0.24946 0.83178 0.0
H3373 H 0.12531 0.34582 0.9067 0.0
H3374 H 0.14206 0.32613 0.89293 0.0
H3375 H 0.13094 0.34473 0.87648 0.0
H3376 H 0.17536 0.27911 0.84515 0.0
H3377 H 0.14869 0.32311 0.80456 0.0
H3378 H 0.1257 0.25984 0.8701 0.0
H3379 H 0.141 0.28453 0.89009 0.0
H3380 H 0.15609 0.26417 0.87454 0.0
H3381 H 0.09268 0.31183 0.81991 0.0
H3382 H 0.11271 0.33182 0.80811 0.0
H3383 H 0.10778 0.33748 0.83867 0.0
C3384 C 0.61182 0.77954 0.97744 0.0
C3385 C 0.59831 0.7756 0.95615 0.0
C3386 C 0.60794 0.76446 0.99327 0.0
C3387 C 0.59016 0.74506 0.9876 0.0
C3388 C 0.57669 0.74086 0.96597 0.0
C3389 C 0.58093 0.75619 0.95051 0.0
C3390 C 0.62267 0.76942 0.01614 0.0
C3391 C 0.55762 0.72028 0.95927 0.0
C3392 C 0.5887 0.69321 0.01644 0.0
C3393 C 0.57218 0.69609 0.03214 0.0
C3394 C 0.59544 0.70952 1.00252 0.0
C3395 C 0.58534 0.72915 1.00427 0.0
C3396 C 0.56933 0.73265 0.02074 0.0
C3397 C 0.56293 0.71605 0.03448 0.0
C3398 C 0.6126 0.7052 0.98519 0.0
C3399 C 0.55831 0.75347 0.02318 0.0
H3400 H 0.62527 0.79454 0.98186 0.0
H3401 H 0.57046 0.75308 0.93406 0.0
H3402 H 0.61217 0.77198 0.03106 0.0
H3403 H 0.63073 0.75453 0.01781 0.0
H3404 H 0.63612 0.78495 0.01767 0.0
H3405 H 0.54896 0.7193 0.94165 0.0
H3406 H 0.56417 0.70421 0.95936 0.0
H3407 H 0.54498 0.72107 0.97235 0.0
H3408 H 0.59571 0.67768 0.01427 0.0
H3409 H 0.55038 0.71849 0.0468 0.0
H3410 H 0.62633 0.72051 0.98717 0.0
H3411 H 0.60439 0.70211 0.96705 0.0
H3412 H 0.62019 0.69011 0.98737 0.0
H3413 H 0.57135 0.76942 0.02589 0.0
H3414 H 0.54752 0.75452 0.03801 0.0
H3415 H 0.54768 0.7528 1.00678 0.0
C3416 C 0.06851 0.80793 0.75059 0.0
C3417 C 0.07567 0.81177 0.72886 0.0
C3418 C 0.08414 0.80671 0.76888 0.0
C3419 C 0.10731 0.80943 0.7652 0.0
C3420 C 0.11476 0.81598 0.74429 0.0
C3421 C 0.09879 0.81698 0.72628 0.0
C3422 C 0.07561 0.80026 0.79114 0.0
C3423 C 0.13944 0.81962 0.73992 0.0
C3424 C 0.15629 0.80876 0.80836 0.0
C3425 C 0.16068 0.78673 0.80005 0.0
C3426 C 0.13768 0.81607 0.79859 0.0
C3427 C 0.12308 0.80085 0.78041 0.0
C3428 C 0.12587 0.77779 0.77404 0.0
C3429 C 0.14469 0.77106 0.78383 0.0
C3430 C 0.135 0.84065 0.80625 0.0
C3431 C 0.11035 0.76079 0.75505 0.0
H3432 H 0.05061 0.80422 0.75278 0.0
H3433 H 0.10438 0.82038 0.70964 0.0
H3434 H 0.07445 0.78151 0.79017 0.0
H3435 H 0.08734 0.80931 0.80668 0.0
H3436 H 0.05856 0.80427 0.79368 0.0
H3437 H 0.1427 0.8277 0.72438 0.0
H3438 H 0.14996 0.83063 0.75544 0.0
H3439 H 0.14495 0.80279 0.73689 0.0
H3440 H 0.16817 0.82081 0.8214 0.0
H3441 H 0.14778 0.75404 0.77708 0.0
H3442 H 0.11695 0.84213 0.80561 0.0
H3443 H 0.14332 0.85122 0.79422 0.0
H3444 H 0.14307 0.84794 0.8243 0.0
H3445 H 0.09241 0.76107 0.75795 0.0
H3446 H 0.11317 0.74294 0.75423 0.0
H3447 H 0.11331 0.76562 0.73777 0.0
C3448 C 0.106 0.39856 0.45523 0.0
C3449 C 0.08877 0.38261 0.44089 0.0
C3450 C 0.10184 0.41957 0.4671 0.0
C3451 C 0.08 0.42473 0.46432 0.0
C3452 C 0.06255 0.40869 0.44983 0.0
C3453 C 0.06713 0.38773 0.43835 0.0
C3454 C 0.12079 0.43624 0.48259 0.0
C3455 C 0.0391 0.41372 0.44635 0.0
C3456 C 0.06325 0.46954 0.51087 0.0
C3457 C 0.06678 0.48903 0.50046 0.0
C3458 C 0.06753 0.44848 0.49929 0.0
C3459 C 0.07535 0.44689 0.47672 0.0
C3460 C 0.07878 0.46643 0.46601 0.0
C3461 C 0.07453 0.48732 0.47807 0.0
C3462 C 0.06384 0.428 0.51129 0.0
C3463 C 0.08696 0.46527 0.44185 0.0
H3464 H 0.12274 0.39461 0.45723 0.0
H3465 H 0.0538 0.37545 0.42718 0.0
H3466 H 0.12399 0.45276 0.47628 0.0
H3467 H 0.11591 0.43999 0.50077 0.0
H3468 H 0.13675 0.42951 0.48301 0.0
H3469 H 0.02749 0.39948 0.4343 0.0
H3470 H 0.03184 0.41669 0.46347 0.0
H3471 H 0.03989 0.42967 0.4391 0.0
H3472 H 0.05736 0.47074 0.52822 0.0
H3473 H 0.07724 0.50231 0.46988 0.0
H3474 H 0.07985 0.42162 0.51325 0.0
H3475 H 0.05131 0.41376 0.50039 0.0
H3476 H 0.05775 0.43215 0.52891 0.0
H3477 H 0.10367 0.46007 0.44178 0.0
H3478 H 0.08851 0.48198 0.4359 0.0
H3479 H 0.07511 0.45203 0.42899 0.0
C3480 C 0.46981 0.26693 0.21758 0.0
C3481 C 0.47243 0.28398 0.20382 0.0
C3482 C 0.45056 0.26278 0.22967 0.0
C3483 C 0.4337 0.2761 0.22796 0.0
C3484 C 0.43624 0.29329 0.21403 0.0
C3485 C 0.4556 0.29699 0.20206 0.0
C3486 C 0.44826 0.24425 0.24428 0.0
C3487 C 0.41857 0.30787 0.21187 0.0
C3488 C 0.37316 0.25768 0.23995 0.0
C3489 C 0.37254 0.27205 0.26157 0.0
C3490 C 0.39342 0.25761 0.22944 0.0
C3491 C 0.41338 0.27238 0.24082 0.0
C3492 C 0.41318 0.28559 0.26345 0.0
C3493 C 0.39272 0.28517 0.27365 0.0
C3494 C 0.39312 0.243 0.20544 0.0
C3495 C 0.43418 0.30152 0.27612 0.0
H3496 H 0.4828 0.2568 0.21892 0.0
H3497 H 0.45762 0.31017 0.19143 0.0
H3498 H 0.44703 0.25187 0.26287 0.0
H3499 H 0.43248 0.23145 0.2382 0.0
H3500 H 0.46276 0.23518 0.24345 0.0
H3501 H 0.42317 0.32053 0.20035 0.0
H3502 H 0.40209 0.29674 0.20464 0.0
H3503 H 0.4162 0.31733 0.22945 0.0
H3504 H 0.35764 0.24727 0.23068 0.0
H3505 H 0.39238 0.29624 0.29043 0.0
H3506 H 0.40751 0.23381 0.20471 0.0
H3507 H 0.39496 0.2542 0.19216 0.0
H3508 H 0.37715 0.23016 0.20052 0.0
H3509 H 0.44871 0.29255 0.2758 0.0
H3510 H 0.43184 0.30838 0.29466 0.0
H3511 H 0.4386 0.31624 0.26705 0.0
C3512 C 0.65938 0.54004 0.37327 0.0
C3513 C 0.64833 0.53848 0.35064 0.0
C3514 C 0.64796 0.54185 0.39452 0.0
C3515 C 0.62436 0.54257 0.39436 0.0
C3516 C 0.61314 0.54112 0.37157 0.0
C3517 C 0.62491 0.53899 0.35054 0.0
C3518 C 0.6614 0.54289 0.41746 0.0
C3519 C 0.58836 0.54197 0.36932 0.0
C3520 C 0.58898 0.52737 0.44728 0.0
C3521 C 0.58789 0.54886 0.46149 0.0
C3522 C 0.60052 0.52514 0.42612 0.0
C3523 C 0.61164 0.54477 0.41761 0.0
C3524 C 0.61047 0.56652 0.43178 0.0
C3525 C 0.59909 0.56826 0.45307 0.0
C3526 C 0.60098 0.50137 0.41287 0.0
C3527 C 0.62138 0.58834 0.42439 0.0
H3528 H 0.67727 0.5397 0.37446 0.0
H3529 H 0.61557 0.53793 0.33378 0.0
H3530 H 0.66101 0.55925 0.42955 0.0
H3531 H 0.65366 0.52868 0.426 0.0
H3532 H 0.67929 0.54163 0.41516 0.0
H3533 H 0.5818 0.5412 0.35091 0.0
H3534 H 0.57856 0.52739 0.37596 0.0
H3535 H 0.58538 0.55805 0.38027 0.0
H3536 H 0.58094 0.5119 0.45288 0.0
H3537 H 0.59893 0.58515 0.46319 0.0
H3538 H 0.61873 0.49917 0.41147 0.0
H3539 H 0.59295 0.49909 0.39475 0.0
H3540 H 0.59208 0.48769 0.42143 0.0
H3541 H 0.63982 0.58896 0.42399 0.0
H3542 H 0.61866 0.60396 0.43636 0.0
H3543 H 0.61448 0.5886 0.40636 0.0
C3544 C 0.27992 0.91723 0.06736 0.0
C3545 C 0.2932 0.93928 0.06978 0.0
C3546 C 0.28149 0.904 0.08477 0.0
C3547 C 0.29682 0.91297 0.105 0.0
C3548 C 0.30987 0.93544 0.10779 0.0
C3549 C 0.30785 0.94836 0.09018 0.0
C3550 C 0.26715 0.88019 0.08126 0.0
C3551 C 0.32648 0.94558 0.12905 0.0
C3552 C 0.29095 0.88546 0.15895 0.0
C3553 C 0.30714 0.87132 0.15645 0.0
C3554 C 0.28721 0.89893 0.14223 0.0
C3555 C 0.3001 0.89843 0.12264 0.0
C3556 C 0.3164 0.88415 0.11996 0.0
C3557 C 0.31962 0.8707 0.1368 0.0
C3558 C 0.26959 0.91384 0.14561 0.0
C3559 C 0.33053 0.88317 0.09935 0.0
H3560 H 0.26852 0.91016 0.05166 0.0
H3561 H 0.31816 0.96538 0.09214 0.0
H3562 H 0.27816 0.86719 0.07969 0.0
H3563 H 0.25749 0.87833 0.09669 0.0
H3564 H 0.25507 0.8763 0.06529 0.0
H3565 H 0.33456 0.96367 0.12911 0.0
H3566 H 0.31788 0.94498 0.14533 0.0
H3567 H 0.3399 0.93522 0.12951 0.0
H3568 H 0.28142 0.8863 0.1742 0.0
H3569 H 0.33186 0.85953 0.13445 0.0
H3570 H 0.25709 0.90959 0.12999 0.0
H3571 H 0.27769 0.93219 0.14741 0.0
H3572 H 0.26048 0.91173 0.16137 0.0
H3573 H 0.31943 0.87748 0.0827 0.0
H3574 H 0.34257 0.87128 0.0999 0.0
H3575 H 0.34026 0.90057 0.09906 0.0
C3576 C 0.96355 0.59536 0.8984 0.0
C3577 C 0.94282 0.58048 0.89819 0.0
C3578 C 0.98113 0.59708 0.91588 0.0
C3579 C 0.9778 0.58355 0.93339 0.0
C3580 C 0.95638 0.56973 0.93416 0.0
C3581 C 0.93913 0.56839 0.91654 0.0
C3582 C 1.00362 0.61232 0.91479 0.0
C3583 C 0.95209 0.55525 0.95276 0.0
C3584 C 0.02598 0.56108 0.96005 0.0
C3585 C 0.0292 0.57415 0.98284 0.0
C3586 C 1.01 0.56476 0.94338 0.0
C3587 C 0.99709 0.58202 0.94965 0.0
C3588 C 1.00129 0.59624 0.97215 0.0
C3589 C 0.0173 0.5921 0.9885 0.0
C3590 C 1.00597 0.54924 0.91951 0.0
C3591 C 0.98806 0.61496 0.97943 0.0
H3592 H 0.96645 0.60482 0.88429 0.0
H3593 H 0.92306 0.55699 0.91654 0.0
H3594 H 1.01002 0.62284 0.93233 0.0
H3595 H 0.01618 0.60149 0.90936 0.0
H3596 H 1.00257 0.62398 0.90211 0.0
H3597 H 0.93408 0.54674 0.95185 0.0
H3598 H 0.96257 0.54177 0.95058 0.0
H3599 H 0.95704 0.56598 0.97049 0.0
H3600 H 0.03511 0.5472 0.95556 0.0
H3601 H 0.01993 0.60252 1.00599 0.0
H3602 H 1.00659 0.55961 0.9055 0.0
H3603 H 0.98886 0.5383 0.91755 0.0
H3604 H 0.01857 0.53787 0.91679 0.0
H3605 H 0.98699 0.6253 0.96554 0.0
H3606 H 0.99567 0.62664 0.99606 0.0
H3607 H 0.97054 0.60709 0.98198 0.0
C3608 C 0.28329 0.22969 0.60256 0.0
C3609 C 0.29321 0.24073 0.58533 0.0
C3610 C 0.28649 0.24026 0.62632 0.0
C3611 C 0.30006 0.26248 0.6332 0.0
C3612 C 0.30984 0.27395 0.61587 0.0
C3613 C 0.30625 0.26295 0.59209 0.0
C3614 C 0.27562 0.22742 0.64413 0.0
C3615 C 0.32447 0.29761 0.62251 0.0
C3616 C 0.29186 0.29352 0.69416 0.0
C3617 C 0.30901 0.28781 0.70804 0.0
C3618 C 0.28934 0.28628 0.66964 0.0
C3619 C 0.30441 0.27314 0.65866 0.0
C3620 C 0.32239 0.26828 0.67246 0.0
C3621 C 0.32441 0.27557 0.69694 0.0
C3622 C 0.26991 0.2918 0.6556 0.0
C3623 C 0.33896 0.25449 0.6615 0.0
H3624 H 0.27311 0.21255 0.59751 0.0
H3625 H 0.314 0.27156 0.57888 0.0
H3626 H 0.28887 0.2243 0.65653 0.0
H3627 H 0.26501 0.2379 0.65457 0.0
H3628 H 0.2649 0.21061 0.63583 0.0
H3629 H 0.33003 0.30462 0.60692 0.0
H3630 H 0.31515 0.30964 0.6328 0.0
H3631 H 0.33965 0.29694 0.63385 0.0
H3632 H 0.27989 0.303 0.70251 0.0
H3633 H 0.33785 0.27122 0.70742 0.0
H3634 H 0.25755 0.27573 0.64844 0.0
H3635 H 0.27598 0.29927 0.64047 0.0
H3636 H 0.26106 0.30401 0.66635 0.0
H3637 H 0.33017 0.23652 0.65459 0.0
H3638 H 0.35329 0.25421 0.67424 0.0
H3639 H 0.3458 0.26164 0.64648 0.0
C3640 C 0.62572 0.52385 0.20884 0.0
C3641 C 0.64837 0.53505 0.21622 0.0
C3642 C 0.6142 0.52526 0.18682 0.0
C3643 C 0.62491 0.53853 0.17094 0.0
C3644 C 0.64771 0.54996 0.17843 0.0
C3645 C 0.65892 0.548 0.20033 0.0
C3646 C 0.59029 0.51226 0.18046 0.0
C3647 C 0.66047 0.56464 0.16321 0.0
C3648 C 0.60301 0.5279 0.10337 0.0
C3649 C 0.58985 0.54495 0.10155 0.0
C3650 C 0.61393 0.52547 0.12527 0.0
C3651 C 0.61251 0.54055 0.14691 0.0
C3652 C 0.59934 0.55784 0.14516 0.0
C3653 C 0.5883 0.55967 0.12309 0.0
C3654 C 0.62709 0.50643 0.12519 0.0
C3655 C 0.59702 0.57483 0.16682 0.0
H3656 H 0.61686 0.5137 0.2203 0.0
H3657 H 0.67621 0.55699 0.20515 0.0
H3658 H 0.57887 0.52445 0.17845 0.0
H3659 H 0.58912 0.50037 0.16334 0.0
H3660 H 0.58421 0.50218 0.19388 0.0
H3661 H 0.67776 0.57291 0.17124 0.0
H3662 H 0.66176 0.55401 0.14589 0.0
H3663 H 0.65112 0.57826 0.16002 0.0
H3664 H 0.60472 0.51612 0.08748 0.0
H3665 H 0.57853 0.57306 0.12274 0.0
H3666 H 0.62065 0.4955 0.13777 0.0
H3667 H 0.6451 0.51384 0.13105 0.0
H3668 H 0.62603 0.49539 0.10755 0.0
H3669 H 0.58915 0.56559 0.18009 0.0
H3670 H 0.58664 0.58746 0.16305 0.0
H3671 H 0.61399 0.58429 0.17473 0.0
C3672 C 0.29562 0.93323 0.9306 0.0
C3673 C 0.29136 0.92678 0.9522 0.0
C3674 C 0.29837 0.91688 0.9109 0.0
C3675 C 0.29712 0.89353 0.91286 0.0
C3676 C 0.29269 0.88696 0.93461 0.0
C3677 C 0.28976 0.90357 0.95389 0.0
C3678 C 0.30269 0.9246 0.88797 0.0
C3679 C 0.29128 0.86235 0.93759 0.0
C3680 C 0.28375 0.84677 0.85773 0.0
C3681 C 0.30522 0.84225 0.85281 0.0
C3682 C 0.28094 0.86343 0.87701 0.0
C3683 C 0.30001 0.87586 0.89213 0.0
C3684 C 0.32171 0.87117 0.88755 0.0
C3685 C 0.32408 0.85455 0.86789 0.0
C3686 C 0.25752 0.86795 0.88098 0.0
C3687 C 0.34247 0.88383 0.90335 0.0
H3688 H 0.29696 0.9511 0.92913 0.0
H3689 H 0.28662 0.8984 0.97052 0.0
H3690 H 0.31915 0.92093 0.88245 0.0
H3691 H 0.28946 0.91482 0.87403 0.0
H3692 H 0.30289 0.94326 0.88919 0.0
H3693 H 0.28799 0.86004 0.9557 0.0
H3694 H 0.27759 0.85092 0.92518 0.0
H3695 H 0.30731 0.85665 0.9334 0.0
H3696 H 0.26901 0.83764 0.84614 0.0
H3697 H 0.34074 0.85135 0.86425 0.0
H3698 H 0.25705 0.88624 0.88068 0.0
H3699 H 0.25309 0.8648 0.89851 0.0
H3700 H 0.24445 0.85696 0.86751 0.0
H3701 H 0.3446 0.90255 0.90353 0.0
H3702 H 0.35807 0.87795 0.8977 0.0
H3703 H 0.34046 0.88134 0.92162 0.0
C3704 C 0.96213 0.55454 0.78263 0.0
C3705 C 0.93851 0.55095 0.77909 0.0
C3706 C 0.97528 0.55192 0.76359 0.0
C3707 C 0.96454 0.54565 0.74048 0.0
C3708 C 0.94069 0.54199 0.7368 0.0
C3709 C 0.92795 0.54465 0.75618 0.0
C3710 C 1.00067 0.55587 0.76819 0.0
C3711 C 0.92865 0.53536 0.71239 0.0
C3712 C 0.99903 0.55943 0.69052 0.0
C3713 C 1.00439 0.53803 0.68152 0.0
C3714 C 0.98603 0.56214 0.70968 0.0
C3715 C 0.97827 0.54301 0.72013 0.0
C3716 C 0.98367 0.52139 0.71119 0.0
C3717 C 0.99664 0.51915 0.69197 0.0
C3718 C 0.98063 0.58548 0.71876 0.0
C3719 C 0.97569 0.50061 0.72189 0.0
H3720 H 0.97037 0.55938 0.80032 0.0
H3721 H 0.90969 0.54188 0.75337 0.0
H3722 H 1.00688 0.54014 0.76058 0.0
H3723 H 1.00864 0.56987 0.75951 0.0
H3724 H 1.00638 0.56051 0.78722 0.0
H3725 H 0.91001 0.53309 0.71254 0.0
H3726 H 0.93444 0.54877 0.70206 0.0
H3727 H 0.93286 0.51908 0.7032 0.0
H3728 H 1.00523 0.57415 0.68274 0.0
H3729 H 1.00044 0.5025 0.68489 0.0
H3730 H 0.98743 0.5915 0.73739 0.0
H3731 H 0.96206 0.58429 0.71808 0.0
H3732 H 0.98777 0.59854 0.70853 0.0
H3733 H 0.98196 0.50414 0.74073 0.0
H3734 H 0.98151 0.48507 0.71299 0.0
H3735 H 0.95696 0.49686 0.72087 0.0
C3736 C 0.2834 0.24351 0.44637 0.0
C3737 C 0.29707 0.22946 0.45449 0.0
C3738 C 0.28609 0.25035 0.42458 0.0
C3739 C 0.30308 0.24326 0.41076 0.0
C3740 C 0.3172 0.22945 0.41916 0.0
C3741 C 0.31387 0.22255 0.44074 0.0
C3742 C 0.27053 0.26488 0.41617 0.0
C3743 C 0.33566 0.22166 0.40522 0.0
C3744 C 0.29795 0.24353 0.34501 0.0
C3745 C 0.31202 0.2645 0.34394 0.0
C3746 C 0.2948 0.23643 0.36663 0.0
C3747 C 0.30625 0.25043 0.38762 0.0
C3748 C 0.32084 0.27132 0.38654 0.0
C3749 C 0.32344 0.27814 0.36482 0.0
C3750 C 0.27906 0.21406 0.36707 0.0
C3751 C 0.33364 0.2866 0.40841 0.0
H3752 H 0.27029 0.24879 0.45682 0.0
H3753 H 0.32452 0.21169 0.44689 0.0
H3754 H 0.28053 0.28125 0.4131 0.0
H3755 H 0.26116 0.25577 0.39917 0.0
H3756 H 0.25813 0.26892 0.4289 0.0
H3757 H 0.34694 0.21351 0.41545 0.0
H3758 H 0.32791 0.20895 0.3894 0.0
H3759 H 0.34605 0.23634 0.39926 0.0
H3760 H 0.28888 0.23298 0.32906 0.0
H3761 H 0.33442 0.29432 0.36424 0.0
H3762 H 0.26712 0.21656 0.38067 0.0
H3763 H 0.289 0.20139 0.37164 0.0
H3764 H 0.26913 0.2067 0.34995 0.0
H3765 H 0.32159 0.29222 0.42086 0.0
H3766 H 0.34466 0.30211 0.40457 0.0
H3767 H 0.34428 0.27685 0.41735 0.0
C3768 C 0.39016 0.60379 0.52183 0.0
C3769 C 0.38086 0.60411 0.5435 0.0
C3770 C 0.41144 0.59769 0.51821 0.0
C3771 C 0.42422 0.59178 0.53669 0.0
C3772 C 0.41488 0.59193 0.55861 0.0
C3773 C 0.39343 0.598 0.56172 0.0
C3774 C 0.42034 0.59771 0.49449 0.0
C3775 C 0.42769 0.58588 0.57894 0.0
C3776 C 0.47064 0.55642 0.52177 0.0
C3777 C 0.49065 0.5732 0.52618 0.0
C3778 C 0.44914 0.56219 0.52496 0.0
C3779 C 0.4472 0.5854 0.533 0.0
C3780 C 0.4673 0.60247 0.53726 0.0
C3781 C 0.48859 0.59623 0.53377 0.0
C3782 C 0.42843 0.54331 0.51994 0.0
C3783 C 0.46637 0.6274 0.54591 0.0
H3784 H 0.3808 0.60849 0.50756 0.0
H3785 H 0.38665 0.59828 0.57859 0.0
H3786 H 0.43658 0.61011 0.49629 0.0
H3787 H 0.42376 0.58047 0.48719 0.0
H3788 H 0.40834 0.60235 0.48178 0.0
H3789 H 0.41826 0.5867 0.59482 0.0
H3790 H 0.43123 0.56829 0.57398 0.0
H3791 H 0.44422 0.59785 0.58338 0.0
H3792 H 0.47174 0.53855 0.51604 0.0
H3793 H 0.50372 0.60945 0.53752 0.0
H3794 H 0.41637 0.54705 0.50668 0.0
H3795 H 0.41969 0.54252 0.53612 0.0
H3796 H 0.43257 0.52619 0.51339 0.0
H3797 H 0.45547 0.63343 0.53326 0.0
H3798 H 0.48337 0.63867 0.54838 0.0
H3799 H 0.45872 0.62935 0.56286 0.0
C3800 C 0.90874 0.93392 0.56827 0.0
C3801 C 0.88942 0.93975 0.55822 0.0
C3802 C 0.9303 0.94755 0.56833 0.0
C3803 C 0.93261 0.96714 0.55761 0.0
C3804 C 0.91309 0.97316 0.54765 0.0
C3805 C 0.89178 0.95956 0.5483 0.0
C3806 C 0.95062 0.94079 0.57954 0.0
C3807 C 0.91477 0.99359 0.5356 0.0
C3808 C 0.98536 1.0145 0.56857 0.0
C3809 C 0.99694 1.00825 0.54894 0.0
C3810 C 0.96486 1.0008 0.57218 0.0
C3811 C 0.95544 0.98066 0.55548 0.0
C3812 C 0.96722 0.97416 0.5358 0.0
C3813 C 0.98787 0.98786 0.53291 0.0
C3814 C 0.95309 1.00805 0.59366 0.0
C3815 C 0.95764 0.95311 0.51731 0.0
H3816 H 0.90702 0.9187 0.57607 0.0
H3817 H 0.87694 0.96413 0.54039 0.0
H3818 H 0.96181 0.93563 0.56592 0.0
H3819 H 0.96058 0.95569 0.5922 0.0
H3820 H 0.94582 0.92629 0.58884 0.0
H3821 H 0.89795 0.99622 0.52912 0.0
H3822 H 0.92342 1.00945 0.54781 0.0
H3823 H 0.92506 0.99111 0.52048 0.0
H3824 H 0.99232 0.03011 0.58114 0.0
H3825 H 0.99658 0.9829 0.51761 0.0
H3826 H 0.94904 0.99354 0.60307 0.0
H3827 H 0.93688 1.01276 0.58835 0.0
H3828 H 0.9635 0.02298 0.60595 0.0
H3829 H 0.95425 0.93766 0.52542 0.0
H3830 H 0.96917 0.95007 0.50337 0.0
H3831 H 0.94128 0.95512 0.50901 0.0
C3832 C 0.90459 0.1539 0.29908 0.0
C3833 C 0.89708 0.13312 0.28237 0.0
C3834 C 0.89448 0.17427 0.30024 0.0
C3835 C 0.8762 0.17563 0.28381 0.0
C3836 C 0.86885 0.15479 0.26659 0.0
C3837 C 0.87877 0.13439 0.26638 0.0
C3838 C 0.90373 0.1945 0.31963 0.0
C3839 C 0.8503 0.15364 0.24772 0.0
C3840 C 0.83305 0.22005 0.29284 0.0
C3841 C 0.84401 0.24069 0.28627 0.0
C3842 C 0.84309 0.19974 0.29257 0.0
C3843 C 0.86506 0.19825 0.28466 0.0
C3844 C 0.87604 0.21896 0.27759 0.0
C3845 C 0.86589 0.23931 0.27883 0.0
C3846 C 0.82962 0.1797 0.30106 0.0
C3847 C 0.89887 0.22007 0.26826 0.0
H3848 H 0.91849 0.15427 0.31185 0.0
H3849 H 0.87217 0.11927 0.25305 0.0
H3850 H 0.91719 0.20626 0.31314 0.0
H3851 H 0.89046 0.20424 0.32552 0.0
H3852 H 0.91136 0.18897 0.33499 0.0
H3853 H 0.85269 0.14208 0.23131 0.0
H3854 H 0.83389 0.14641 0.25365 0.0
H3855 H 0.84941 0.17082 0.24371 0.0
H3856 H 0.81629 0.21971 0.29863 0.0
H3857 H 0.87525 0.25427 0.27334 0.0
H3858 H 0.84066 0.1695 0.30877 0.0
H3859 H 0.81871 0.1683 0.28603 0.0
H3860 H 0.81842 0.18559 0.31438 0.0
H3861 H 0.91211 0.22842 0.28273 0.0
H3862 H 0.90049 0.23074 0.25447 0.0
H3863 H 0.90214 0.2028 0.26084 0.0
C3864 C 0.74216 0.08332 0.03263 0.0
C3865 C 0.75363 0.10095 0.05075 0.0
C3866 C 0.71832 0.07632 0.0309 0.0
C3867 C 0.70544 0.08718 0.04762 0.0
C3868 C 0.71704 0.10464 0.06618 0.0
C3869 C 0.74078 0.11123 0.06751 0.0
C3870 C 0.70685 0.0576 1.01084 0.0
C3871 C 0.70431 0.11684 0.08445 0.0
C3872 C 0.64284 0.08794 0.03205 0.0
C3873 C 0.63147 0.07132 0.0437 0.0
C3874 C 0.66668 0.09288 0.03279 0.0
C3875 C 0.67986 0.08096 0.04547 0.0
C3876 C 0.6685 0.06393 0.057 0.0
C3877 C 0.64461 0.05936 0.056 0.0
C3878 C 0.6778 0.11119 0.02022 0.0
C3879 C 0.68163 0.05066 0.07065 0.0
H3880 H 0.75176 0.07531 0.01948 0.0
H3881 H 0.74929 0.12491 0.08159 0.0
H3882 H 0.69601 0.04377 0.01764 0.0
H3883 H 0.6957 0.06468 0.99939 0.0
H3884 H 0.71917 0.04995 1.00003 0.0
H3885 H 0.71576 0.12953 0.0982 0.0
H3886 H 0.69271 0.12596 0.07594 0.0
H3887 H 0.69379 0.10418 0.093 0.0
H3888 H 0.63309 0.09728 0.02234 0.0
H3889 H 0.63622 0.04639 0.065 0.0
H3890 H 0.68905 0.104 1.00769 0.0
H3891 H 0.68849 0.12543 0.03308 0.0
H3892 H 0.66529 0.11837 1.01046 0.0
H3893 H 0.69308 0.04226 0.05927 0.0
H3894 H 0.67043 0.03729 0.07777 0.0
H3895 H 0.69237 0.06262 0.08546 0.0
C3896 C 0.28428 0.5215 0.26971 0.0
C3897 C 0.26359 0.51013 0.25729 0.0
C3898 C 0.30023 0.50912 0.27659 0.0
C3899 C 0.29531 0.48484 0.2709 0.0
C3900 C 0.27471 0.4733 0.25781 0.0
C3901 C 0.25906 0.48612 0.25115 0.0
C3902 C 0.32204 0.52197 0.29049 0.0
C3903 C 0.26893 0.44737 0.2514 0.0
C3904 C 0.34002 0.4483 0.2727 0.0
C3905 C 0.33608 0.43995 0.29341 0.0
C3906 C 0.32764 0.46393 0.26565 0.0
C3907 C 0.31102 0.47132 0.27971 0.0
C3908 C 0.30806 0.46416 0.30141 0.0
C3909 C 0.32062 0.44853 0.30799 0.0
C3910 C 0.33139 0.47142 0.24251 0.0
C3911 C 0.29054 0.47179 0.31693 0.0
H3912 H 0.28787 0.54011 0.27443 0.0
H3913 H 0.24311 0.47731 0.24149 0.0
H3914 H 0.32259 0.51798 0.3084 0.0
H3915 H 0.3367 0.51636 0.28217 0.0
H3916 H 0.32397 0.54088 0.29203 0.0
H3917 H 0.25267 0.44112 0.24027 0.0
H3918 H 0.28249 0.4407 0.24188 0.0
H3919 H 0.26773 0.44002 0.26759 0.0
H3920 H 0.35215 0.44189 0.26153 0.0
H3921 H 0.31727 0.44192 0.32387 0.0
H3922 H 0.3331 0.49033 0.24459 0.0
H3923 H 0.31654 0.46345 0.22973 0.0
H3924 H 0.34668 0.46634 0.23507 0.0
H3925 H 0.29224 0.49075 0.31988 0.0
H3926 H 0.2919 0.46649 0.33423 0.0
H3927 H 0.27339 0.46417 0.30814 0.0
C3928 C 0.25337 0.41606 0.04051 0.0
C3929 C 0.27557 0.42859 0.04539 0.0
C3930 C 0.23528 0.42692 0.03599 0.0
C3931 C 0.23948 0.45089 0.03634 0.0
C3932 C 0.2618 0.4637 0.04177 0.0
C3933 C 0.27957 0.4524 0.04623 0.0
C3934 C 0.21173 0.41267 0.03033 0.0
C3935 C 0.26698 0.48929 0.04237 0.0
C3936 C 0.19832 0.47555 1.00082 0.0
C3937 C 0.18585 0.48526 0.01819 0.0
C3938 C 0.21566 0.46416 1.00648 0.0
C3939 C 0.22071 0.46243 0.03011 0.0
C3940 C 0.20804 0.472 0.04771 0.0
C3941 C 0.19077 0.4833 0.04155 0.0
C3942 C 0.22867 0.45406 0.98716 0.0
C3943 C 0.21292 0.47059 0.07311 0.0
H3944 H 0.25016 0.39765 0.03985 0.0
H3945 H 0.29668 0.46219 0.05001 0.0
H3946 H 0.20008 0.41988 0.04235 0.0
H3947 H 0.20532 0.41324 1.01222 0.0
H3948 H 0.21114 0.39442 0.03177 0.0
H3949 H 0.28506 0.49691 0.04784 0.0
H3950 H 0.26268 0.4928 0.02473 0.0
H3951 H 0.25648 0.49807 0.05465 0.0
H3952 H 0.19441 0.47671 0.9827 0.0
H3953 H 0.18141 0.491 0.05514 0.0
H3954 H 0.22735 0.43536 0.98666 0.0
H3955 H 0.24684 0.4621 0.99068 0.0
H3956 H 0.22247 0.4566 0.96964 0.0
H3957 H 0.21178 0.45238 0.07489 0.0
H3958 H 0.20106 0.47826 0.08456 0.0
H3959 H 0.23041 0.47969 0.07949 0.0
C3960 C 0.89543 0.97825 0.25854 0.0
C3961 C 0.89286 0.99699 0.27607 0.0
C3962 C 0.88513 0.95475 0.25863 0.0
C3963 C 0.87205 0.94864 0.27711 0.0
C3964 C 0.86963 0.96748 0.29501 0.0
C3965 C 0.87957 0.99091 0.29413 0.0
C3966 C 0.88821 0.93629 0.23858 0.0
C3967 C 0.85671 0.96286 0.3156 0.0
C3968 C 0.82835 0.8896 0.26936 0.0
C3969 C 0.84034 0.87455 0.27883 0.0
C3970 C 0.8383 0.91299 0.26838 0.0
C3971 C 0.86107 0.92293 0.2777 0.0
C3972 C 0.87317 0.90791 0.28755 0.0
C3973 C 0.863 0.88437 0.28769 0.0
C3974 C 0.82428 0.92711 0.257 0.0
C3975 C 0.89707 0.91685 0.29838 0.0
H3976 H 0.90546 0.98197 0.24435 0.0
H3977 H 0.87729 1.00458 0.30809 0.0
H3978 H 0.89771 0.92419 0.24517 0.0
H3979 H 0.8715 0.92621 0.23058 0.0
H3980 H 0.89746 0.94348 0.22476 0.0
H3981 H 0.85696 0.97878 0.32869 0.0
H3982 H 0.83889 0.95483 0.30944 0.0
H3983 H 0.86401 0.95052 0.32437 0.0
H3984 H 0.81099 0.88295 0.26225 0.0
H3985 H 0.87289 0.87367 0.29527 0.0
H3986 H 0.83327 0.93398 0.24288 0.0
H3987 H 0.82184 0.94206 0.27009 0.0
H3988 H 0.80743 0.91701 0.2494 0.0
H3989 H 0.90806 0.92198 0.28485 0.0
H3990 H 0.90408 0.90387 0.30645 0.0
H3991 H 0.8977 0.93242 0.31205 0.0
C3992 C 0.75601 0.12078 0.73151 0.0
C3993 C 0.73354 0.11084 0.73338 0.0
C3994 C 0.76259 0.14467 0.73378 0.0
C3995 C 0.74626 0.15876 0.73799 0.0
C3996 C 0.72326 0.14861 0.73792 0.0
C3997 C 0.71717 0.12472 0.7356 0.0
C3998 C 0.78725 0.15491 0.73351 0.0
C3999 C 0.70534 0.16306 0.7422 0.0
C4000 C 0.76544 0.21718 0.77714 0.0
C4001 C 0.76659 0.23188 0.7609 0.0
C4002 C 0.75897 0.19334 0.76981 0.0
C4003 C 0.75355 0.18398 0.74562 0.0
C4004 C 0.75469 0.19868 0.7291 0.0
C4005 C 0.76118 0.22252 0.73694 0.0
C4006 C 0.75788 0.17819 0.788 0.0
C4007 C 0.74902 0.18923 0.70319 0.0
H4008 H 0.76869 0.11008 0.72968 0.0
H4009 H 0.69972 0.11706 0.73682 0.0
H4010 H 0.7893 0.16844 0.72268 0.0
H4011 H 0.79447 0.16314 0.75163 0.0
H4012 H 0.79714 0.1417 0.72663 0.0
H4013 H 0.688 0.15252 0.73844 0.0
H4014 H 0.70748 0.17198 0.76082 0.0
H4015 H 0.70704 0.17646 0.73123 0.0
H4016 H 0.76959 0.22426 0.79567 0.0
H4017 H 0.7621 0.23378 0.72427 0.0
H4018 H 0.76922 0.16566 0.78417 0.0
H4019 H 0.74047 0.16821 0.78735 0.0
H4020 H 0.76283 0.18821 0.80608 0.0
H4021 H 0.76004 0.1769 0.69705 0.0
H4022 H 0.75109 0.20297 0.69258 0.0
H4023 H 0.73133 0.17963 0.69989 0.0
loop_
_geom_bond_atom_site_label_1
_geom_bond_atom_site_label_2
_geom_bond_distance
_geom_bond_site_symmetry_2
_ccdc_geom_bond_type
In0 O1 2.294 . S
In0 O2 2.326 . S
In0 O6 2.266 . S
In0 O7 2.326 . S
In0 O8 2.266 . S
In0 O9 2.326 . S
In0 O11 2.294 . S
In0 O12 2.326 . S
O1 In0 2.294 . S
O1 C10 1.240 . S
O2 In0 2.326 . S
O2 C10 1.252 . S
C3 O6 1.252 . S
C3 O7 1.260 . S
C4 O11 1.240 . S
C4 O12 1.252 . S
C5 O8 1.252 . S
C5 O9 1.260 . S
O6 In0 2.266 . S
O6 C3 1.252 . S
O7 In0 2.326 . S
O7 C3 1.260 . S
O8 In0 2.266 . S
O8 C5 1.252 . S
O9 In0 2.326 . S
O9 C5 1.260 . S
C10 O1 1.240 . S
C10 O2 1.252 . S
O11 In0 2.294 . S
O11 C4 1.240 . S
O12 In0 2.326 . S
O12 C4 1.252 . S
In13 O14 2.294 . S
In13 O15 2.326 . S
In13 O19 2.266 1_455 S
In13 O20 2.326 1_455 S
In13 O21 2.264 1_455 S
In13 O22 2.322 1_455 S
In13 O24 2.296 . S
In13 O25 2.330 . S
O14 In13 2.294 . S
O14 C23 1.240 . S
O15 In13 2.326 . S
O15 C23 1.252 . S
C16 O19 1.252 . S
C16 O20 1.260 . S
C17 O24 1.240 . S
C17 O25 1.252 . S
C18 O21 1.252 . S
C18 O22 1.260 . S
O19 In13 2.266 1_655 S
O19 C16 1.252 . S
O20 In13 2.326 1_655 S
O20 C16 1.260 . S
O21 In13 2.264 1_655 S
O21 C18 1.252 . S
O22 In13 2.322 1_655 S
O22 C18 1.260 . S
C23 O14 1.240 . S
C23 O15 1.252 . S
O24 In13 2.296 . S
O24 C17 1.240 . S
O25 In13 2.330 . S
O25 C17 1.252 . S
In26 O27 2.294 . S
In26 O28 2.326 . S
In26 O32 2.266 . S
In26 O33 2.326 . S
In26 O34 2.266 . S
In26 O35 2.326 . S
In26 O37 2.294 . S
In26 O38 2.326 . S
O27 In26 2.294 . S
O27 C36 1.240 . S
O28 In26 2.326 . S
O28 C36 1.252 . S
C29 O32 1.252 . S
C29 O33 1.260 . S
C30 O37 1.240 . S
C30 O38 1.252 . S
C31 O34 1.252 . S
C31 O35 1.260 . S
O32 In26 2.266 . S
O32 C29 1.252 . S
O33 In26 2.326 . S
O33 C29 1.260 . S
O34 In26 2.266 . S
O34 C31 1.252 . S
O35 In26 2.326 . S
O35 C31 1.260 . S
C36 O27 1.240 . S
C36 O28 1.252 . S
O37 In26 2.294 . S
O37 C30 1.240 . S
O38 In26 2.326 . S
O38 C30 1.252 . S
In39 O40 2.294 . S
In39 O41 2.326 . S
In39 O45 2.266 . S
In39 O46 2.326 . S
In39 O47 2.266 . S
In39 O48 2.326 . S
In39 O50 2.294 . S
In39 O51 2.326 . S
O40 In39 2.294 . S
O40 C49 1.240 . S
O41 In39 2.326 . S
O41 C49 1.252 . S
C42 O45 1.252 . S
C42 O46 1.260 . S
C43 O50 1.240 . S
C43 O51 1.252 . S
C44 O47 1.252 . S
C44 O48 1.260 . S
O45 In39 2.266 . S
O45 C42 1.252 . S
O46 In39 2.326 . S
O46 C42 1.260 . S
O47 In39 2.266 . S
O47 C44 1.252 . S
O48 In39 2.326 . S
O48 C44 1.260 . S
C49 O40 1.240 . S
C49 O41 1.252 . S
O50 In39 2.294 . S
O50 C43 1.240 . S
O51 In39 2.326 . S
O51 C43 1.252 . S
In52 O53 2.294 . S
In52 O54 2.326 . S
In52 O58 2.266 . S
In52 O59 2.326 . S
In52 O60 2.266 . S
In52 O61 2.326 . S
In52 O63 2.294 . S
In52 O64 2.326 . S
O53 In52 2.294 . S
O53 C62 1.240 . S
O54 In52 2.326 . S
O54 C62 1.252 . S
C55 O58 1.252 . S
C55 O59 1.260 . S
C56 O63 1.240 . S
C56 O64 1.252 . S
C57 O60 1.252 . S
C57 O61 1.260 . S
O58 In52 2.266 . S
O58 C55 1.252 . S
O59 In52 2.326 . S
O59 C55 1.260 . S
O60 In52 2.266 . S
O60 C57 1.252 . S
O61 In52 2.326 . S
O61 C57 1.260 . S
C62 O53 1.240 . S
C62 O54 1.252 . S
O63 In52 2.294 . S
O63 C56 1.240 . S
O64 In52 2.326 . S
O64 C56 1.252 . S
In65 O66 2.294 . S
In65 O67 2.326 . S
In65 O71 2.266 . S
In65 O72 2.326 . S
In65 O73 2.266 . S
In65 O74 2.326 . S
In65 O76 2.294 . S
In65 O77 2.326 . S
O66 In65 2.294 . S
O66 C75 1.240 . S
O67 In65 2.326 . S
O67 C75 1.252 . S
C68 O71 1.252 . S
C68 O72 1.260 . S
C69 O76 1.240 . S
C69 O77 1.252 . S
C70 O73 1.252 . S
C70 O74 1.260 . S
O71 In65 2.266 . S
O71 C68 1.252 . S
O72 In65 2.326 . S
O72 C68 1.260 . S
O73 In65 2.266 . S
O73 C70 1.252 . S
O74 In65 2.326 . S
O74 C70 1.260 . S
C75 O66 1.240 . S
C75 O67 1.252 . S
O76 In65 2.294 . S
O76 C69 1.240 . S
O77 In65 2.326 . S
O77 C69 1.252 . S
In78 O79 2.294 . S
In78 O80 2.326 . S
In78 O84 2.266 . S
In78 O85 2.326 . S
In78 O86 2.266 . S
In78 O87 2.326 . S
In78 O89 2.294 . S
In78 O90 2.326 . S
O79 In78 2.294 . S
O79 C88 1.240 . S
O80 In78 2.326 . S
O80 C88 1.252 . S
C81 O84 1.252 . S
C81 O85 1.260 . S
C82 O89 1.240 . S
C82 O90 1.252 . S
C83 O86 1.252 . S
C83 O87 1.260 . S
O84 In78 2.266 . S
O84 C81 1.252 . S
O85 In78 2.326 . S
O85 C81 1.260 . S
O86 In78 2.266 . S
O86 C83 1.252 . S
O87 In78 2.326 . S
O87 C83 1.260 . S
C88 O79 1.240 . S
C88 O80 1.252 . S
O89 In78 2.294 . S
O89 C82 1.240 . S
O90 In78 2.326 . S
O90 C82 1.252 . S
In91 O92 2.294 . S
In91 O93 2.326 . S
In91 O97 2.266 . S
In91 O98 2.326 . S
In91 O99 2.266 1_455 S
In91 O100 2.326 1_455 S
In91 O102 2.294 . S
In91 O103 2.326 . S
O92 In91 2.294 . S
O92 C101 1.240 . S
O93 In91 2.326 . S
O93 C101 1.252 . S
C94 O97 1.252 . S
C94 O98 1.260 . S
C95 O102 1.240 . S
C95 O103 1.252 . S
C96 O99 1.252 . S
C96 O100 1.260 . S
O97 In91 2.266 . S
O97 C94 1.252 . S
O98 In91 2.326 . S
O98 C94 1.260 . S
O99 In91 2.266 1_655 S
O99 C96 1.252 . S
O100 In91 2.326 1_655 S
O100 C96 1.260 . S
C101 O92 1.240 . S
C101 O93 1.252 . S
O102 In91 2.294 . S
O102 C95 1.240 . S
O103 In91 2.326 . S
O103 C95 1.252 . S
In104 O105 2.294 . S
In104 O106 2.326 . S
In104 O110 2.266 . S
In104 O111 2.326 . S
In104 O112 2.266 1_545 S
In104 O113 2.326 1_545 S
In104 O115 2.294 . S
In104 O116 2.326 . S
O105 In104 2.294 . S
O105 C114 1.240 . S
O106 In104 2.326 . S
O106 C114 1.252 . S
C107 O110 1.252 . S
C107 O111 1.260 . S
C108 O115 1.240 . S
C108 O116 1.252 . S
C109 O112 1.252 . S
C109 O113 1.260 . S
O110 In104 2.266 . S
O110 C107 1.252 . S
O111 In104 2.326 . S
O111 C107 1.260 . S
O112 In104 2.266 1_565 S
O112 C109 1.252 . S
O113 In104 2.326 1_565 S
O113 C109 1.260 . S
C114 O105 1.240 . S
C114 O106 1.252 . S
O115 In104 2.294 . S
O115 C108 1.240 . S
O116 In104 2.326 . S
O116 C108 1.252 . S
In117 O118 2.294 . S
In117 O119 2.326 . S
In117 O123 2.266 . S
In117 O124 2.326 . S
In117 O125 2.266 . S
In117 O126 2.326 . S
In117 O128 2.294 . S
In117 O129 2.326 . S
O118 In117 2.294 . S
O118 C127 1.240 . S
O119 In117 2.326 . S
O119 C127 1.252 . S
C120 O123 1.252 . S
C120 O124 1.260 . S
C121 O128 1.240 . S
C121 O129 1.252 . S
C122 O125 1.252 . S
C122 O126 1.260 . S
O123 In117 2.266 . S
O123 C120 1.252 . S
O124 In117 2.326 . S
O124 C120 1.260 . S
O125 In117 2.266 . S
O125 C122 1.252 . S
O126 In117 2.326 . S
O126 C122 1.260 . S
C127 O118 1.240 . S
C127 O119 1.252 . S
O128 In117 2.294 . S
O128 C121 1.240 . S
O129 In117 2.326 . S
O129 C121 1.252 . S
In130 O131 2.294 . S
In130 O132 2.326 . S
In130 O136 2.266 . S
In130 O137 2.326 . S
In130 O138 2.266 . S
In130 O139 2.326 . S
In130 O141 2.294 1_545 S
In130 O142 2.326 1_545 S
O131 In130 2.294 . S
O131 C140 1.240 . S
O132 In130 2.326 . S
O132 C140 1.252 . S
C133 O136 1.252 . S
C133 O137 1.260 . S
C134 O141 1.240 . S
C134 O142 1.252 . S
C135 O138 1.252 . S
C135 O139 1.260 . S
O136 In130 2.266 . S
O136 C133 1.252 . S
O137 In130 2.326 . S
O137 C133 1.260 . S
O138 In130 2.266 . S
O138 C135 1.252 . S
O139 In130 2.326 . S
O139 C135 1.260 . S
C140 O131 1.240 . S
C140 O132 1.252 . S
O141 In130 2.294 1_565 S
O141 C134 1.240 . S
O142 In130 2.326 1_565 S
O142 C134 1.252 . S
In143 O144 2.294 . S
In143 O145 2.326 . S
In143 O149 2.266 1_554 S
In143 O150 2.326 1_554 S
In143 O151 2.266 . S
In143 O152 2.326 . S
In143 O154 2.294 . S
In143 O155 2.326 . S
O144 In143 2.294 . S
O144 C153 1.240 . S
O145 In143 2.326 . S
O145 C153 1.252 . S
C146 O149 1.252 . S
C146 O150 1.260 . S
C147 O154 1.240 . S
C147 O155 1.252 . S
C148 O151 1.252 . S
C148 O152 1.260 . S
O149 In143 2.266 1_556 S
O149 C146 1.252 . S
O150 In143 2.326 1_556 S
O150 C146 1.260 . S
O151 In143 2.266 . S
O151 C148 1.252 . S
O152 In143 2.326 . S
O152 C148 1.260 . S
C153 O144 1.240 . S
C153 O145 1.252 . S
O154 In143 2.294 . S
O154 C147 1.240 . S
O155 In143 2.326 . S
O155 C147 1.252 . S
In156 O157 2.294 . S
In156 O158 2.326 . S
In156 O162 2.266 1_554 S
In156 O163 2.326 1_554 S
In156 O164 2.266 . S
In156 O165 2.326 . S
In156 O167 2.294 . S
In156 O168 2.326 . S
O157 In156 2.294 . S
O157 C166 1.240 . S
O158 In156 2.326 . S
O158 C166 1.252 . S
C159 O162 1.252 . S
C159 O163 1.260 . S
C160 O167 1.240 . S
C160 O168 1.252 . S
C161 O164 1.252 . S
C161 O165 1.260 . S
O162 In156 2.266 1_556 S
O162 C159 1.252 . S
O163 In156 2.326 1_556 S
O163 C159 1.260 . S
O164 In156 2.266 . S
O164 C161 1.252 . S
O165 In156 2.326 . S
O165 C161 1.260 . S
C166 O157 1.240 . S
C166 O158 1.252 . S
O167 In156 2.294 . S
O167 C160 1.240 . S
O168 In156 2.326 . S
O168 C160 1.252 . S
In169 O170 2.294 . S
In169 O171 2.326 . S
In169 O175 2.266 . S
In169 O176 2.326 . S
In169 O177 2.266 . S
In169 O178 2.326 1_554 S
In169 O180 2.294 . S
In169 O181 2.326 . S
O170 In169 2.294 . S
O170 C179 1.240 . S
O171 In169 2.326 . S
O171 C179 1.252 . S
C172 O175 1.252 . S
C172 O176 1.260 . S
C173 O180 1.240 . S
C173 O181 1.252 . S
C174 O177 1.252 1_556 S
C174 O178 1.260 . S
O175 In169 2.266 . S
O175 C172 1.252 . S
O176 In169 2.326 . S
O176 C172 1.260 . S
O177 In169 2.266 . S
O177 C174 1.252 1_554 S
O178 In169 2.326 1_556 S
O178 C174 1.260 . S
C179 O170 1.240 . S
C179 O171 1.252 . S
O180 In169 2.294 . S
O180 C173 1.240 . S
O181 In169 2.326 . S
O181 C173 1.252 . S
In182 O183 2.294 . S
In182 O184 2.326 . S
In182 O188 2.266 . S
In182 O189 2.326 . S
In182 O190 2.266 . S
In182 O191 2.326 . S
In182 O193 2.294 . S
In182 O194 2.326 . S
O183 In182 2.294 . S
O183 C192 1.240 . S
O184 In182 2.326 . S
O184 C192 1.252 . S
C185 O188 1.252 . S
C185 O189 1.260 . S
C186 O193 1.240 . S
C186 O194 1.252 . S
C187 O190 1.252 . S
C187 O191 1.260 . S
O188 In182 2.266 . S
O188 C185 1.252 . S
O189 In182 2.326 . S
O189 C185 1.260 . S
O190 In182 2.266 . S
O190 C187 1.252 . S
O191 In182 2.326 . S
O191 C187 1.260 . S
C192 O183 1.240 . S
C192 O184 1.252 . S
O193 In182 2.294 . S
O193 C186 1.240 . S
O194 In182 2.326 . S
O194 C186 1.252 . S
In195 O196 2.294 . S
In195 O197 2.326 . S
In195 O201 2.266 . S
In195 O202 2.326 . S
In195 O203 2.266 . S
In195 O204 2.326 . S
In195 O206 2.294 . S
In195 O207 2.326 . S
O196 In195 2.294 . S
O196 C205 1.240 . S
O197 In195 2.326 . S
O197 C205 1.252 . S
C198 O201 1.252 . S
C198 O202 1.260 . S
C199 O206 1.240 . S
C199 O207 1.252 . S
C200 O203 1.252 . S
C200 O204 1.260 . S
O201 In195 2.266 . S
O201 C198 1.252 . S
O202 In195 2.326 . S
O202 C198 1.260 . S
O203 In195 2.266 . S
O203 C200 1.252 . S
O204 In195 2.326 . S
O204 C200 1.260 . S
C205 O196 1.240 . S
C205 O197 1.252 . S
O206 In195 2.294 . S
O206 C199 1.240 . S
O207 In195 2.326 . S
O207 C199 1.252 . S
In208 O209 2.294 . S
In208 O210 2.326 . S
In208 O214 2.266 . S
In208 O215 2.326 . S
In208 O216 2.266 . S
In208 O217 2.326 . S
In208 O219 2.294 . S
In208 O220 2.326 . S
O209 In208 2.294 . S
O209 C218 1.240 . S
O210 In208 2.326 . S
O210 C218 1.252 . S
C211 O214 1.252 . S
C211 O215 1.260 . S
C212 O219 1.240 . S
C212 O220 1.252 . S
C213 O216 1.252 . S
C213 O217 1.260 . S
O214 In208 2.266 . S
O214 C211 1.252 . S
O215 In208 2.326 . S
O215 C211 1.260 . S
O216 In208 2.266 . S
O216 C213 1.252 . S
O217 In208 2.326 . S
O217 C213 1.260 . S
C218 O209 1.240 . S
C218 O210 1.252 . S
O219 In208 2.294 . S
O219 C212 1.240 . S
O220 In208 2.326 . S
O220 C212 1.252 . S
In221 O222 2.294 . S
In221 O223 2.326 . S
In221 O227 2.266 . S
In221 O228 2.326 . S
In221 O229 2.266 . S
In221 O230 2.326 . S
In221 O232 2.294 . S
In221 O233 2.326 . S
O222 In221 2.294 . S
O222 C231 1.240 . S
O223 In221 2.326 . S
O223 C231 1.252 . S
C224 O227 1.252 . S
C224 O228 1.260 . S
C225 O232 1.240 . S
C225 O233 1.252 . S
C226 O229 1.252 . S
C226 O230 1.260 . S
O227 In221 2.266 . S
O227 C224 1.252 . S
O228 In221 2.326 . S
O228 C224 1.260 . S
O229 In221 2.266 . S
O229 C226 1.252 . S
O230 In221 2.326 . S
O230 C226 1.260 . S
C231 O222 1.240 . S
C231 O223 1.252 . S
O232 In221 2.294 . S
O232 C225 1.240 . S
O233 In221 2.326 . S
O233 C225 1.252 . S
In234 O235 2.294 . S
In234 O236 2.326 . S
In234 O240 2.266 . S
In234 O241 2.326 . S
In234 O242 2.266 . S
In234 O243 2.326 . S
In234 O245 2.294 . S
In234 O246 2.326 . S
O235 In234 2.294 . S
O235 C244 1.240 . S
O236 In234 2.326 . S
O236 C244 1.252 . S
C237 O240 1.252 . S
C237 O241 1.260 . S
C238 O245 1.240 . S
C238 O246 1.252 . S
C239 O242 1.252 . S
C239 O243 1.260 . S
O240 In234 2.266 . S
O240 C237 1.252 . S
O241 In234 2.326 . S
O241 C237 1.260 . S
O242 In234 2.266 . S
O242 C239 1.252 . S
O243 In234 2.326 . S
O243 C239 1.260 . S
C244 O235 1.240 . S
C244 O236 1.252 . S
O245 In234 2.294 . S
O245 C238 1.240 . S
O246 In234 2.326 . S
O246 C238 1.252 . S
In247 O248 2.294 . S
In247 O249 2.326 . S
In247 O253 2.266 . S
In247 O254 2.326 . S
In247 O255 2.266 . S
In247 O256 2.326 . S
In247 O258 2.294 . S
In247 O259 2.326 . S
O248 In247 2.294 . S
O248 C257 1.240 . S
O249 In247 2.326 . S
O249 C257 1.252 . S
C250 O253 1.252 . S
C250 O254 1.260 . S
C251 O258 1.240 . S
C251 O259 1.252 . S
C252 O255 1.252 . S
C252 O256 1.260 . S
O253 In247 2.266 . S
O253 C250 1.252 . S
O254 In247 2.326 . S
O254 C250 1.260 . S
O255 In247 2.266 . S
O255 C252 1.252 . S
O256 In247 2.326 . S
O256 C252 1.260 . S
C257 O248 1.240 . S
C257 O249 1.252 . S
O258 In247 2.294 . S
O258 C251 1.240 . S
O259 In247 2.326 . S
O259 C251 1.252 . S
In260 O261 2.294 . S
In260 O262 2.326 . S
In260 O266 2.266 . S
In260 O267 2.326 . S
In260 O268 2.266 1_554 S
In260 O269 2.326 1_554 S
In260 O271 2.294 . S
In260 O272 2.326 . S
O261 In260 2.294 . S
O261 C270 1.240 . S
O262 In260 2.326 . S
O262 C270 1.252 . S
C263 O266 1.252 . S
C263 O267 1.260 . S
C264 O271 1.240 . S
C264 O272 1.252 . S
C265 O268 1.252 . S
C265 O269 1.260 . S
O266 In260 2.266 . S
O266 C263 1.252 . S
O267 In260 2.326 . S
O267 C263 1.260 . S
O268 In260 2.266 1_556 S
O268 C265 1.252 . S
O269 In260 2.326 1_556 S
O269 C265 1.260 . S
C270 O261 1.240 . S
C270 O262 1.252 . S
O271 In260 2.294 . S
O271 C264 1.240 . S
O272 In260 2.326 . S
O272 C264 1.252 . S
In273 O274 2.294 . S
In273 O275 2.326 . S
In273 O279 2.266 . S
In273 O280 2.326 . S
In273 O281 2.266 . S
In273 O282 2.326 . S
In273 O284 2.294 . S
In273 O285 2.326 . S
O274 In273 2.294 . S
O274 C283 1.240 . S
O275 In273 2.326 . S
O275 C283 1.252 . S
C276 O279 1.252 . S
C276 O280 1.260 . S
C277 O284 1.240 . S
C277 O285 1.252 . S
C278 O281 1.252 . S
C278 O282 1.260 . S
O279 In273 2.266 . S
O279 C276 1.252 . S
O280 In273 2.326 . S
O280 C276 1.260 . S
O281 In273 2.266 . S
O281 C278 1.252 . S
O282 In273 2.326 . S
O282 C278 1.260 . S
C283 O274 1.240 . S
C283 O275 1.252 . S
O284 In273 2.294 . S
O284 C277 1.240 . S
O285 In273 2.326 . S
O285 C277 1.252 . S
In286 O287 2.294 . S
In286 O288 2.326 . S
In286 O292 2.266 . S
In286 O293 2.326 . S
In286 O294 2.266 . S
In286 O295 2.326 . S
In286 O297 2.294 . S
In286 O298 2.326 . S
O287 In286 2.294 . S
O287 C296 1.240 . S
O288 In286 2.326 . S
O288 C296 1.252 . S
C289 O292 1.252 . S
C289 O293 1.260 . S
C290 O297 1.240 . S
C290 O298 1.252 . S
C291 O294 1.252 . S
C291 O295 1.260 . S
O292 In286 2.266 . S
O292 C289 1.252 . S
O293 In286 2.326 . S
O293 C289 1.260 . S
O294 In286 2.266 . S
O294 C291 1.252 . S
O295 In286 2.326 . S
O295 C291 1.260 . S
C296 O287 1.240 . S
C296 O288 1.252 . S
O297 In286 2.294 . S
O297 C290 1.240 . S
O298 In286 2.326 . S
O298 C290 1.252 . S
In299 O300 2.294 . S
In299 O301 2.326 . S
In299 O305 2.266 . S
In299 O306 2.326 . S
In299 O307 2.266 . S
In299 O308 2.326 . S
In299 O310 2.294 . S
In299 O311 2.326 . S
O300 In299 2.294 . S
O300 C309 1.240 . S
O301 In299 2.326 . S
O301 C309 1.252 . S
C302 O305 1.252 . S
C302 O306 1.260 . S
C303 O310 1.240 . S
C303 O311 1.252 . S
C304 O307 1.252 . S
C304 O308 1.260 . S
O305 In299 2.266 . S
O305 C302 1.252 . S
O306 In299 2.326 . S
O306 C302 1.260 . S
O307 In299 2.266 . S
O307 C304 1.252 . S
O308 In299 2.326 . S
O308 C304 1.260 . S
C309 O300 1.240 . S
C309 O301 1.252 . S
O310 In299 2.294 . S
O310 C303 1.240 . S
O311 In299 2.326 . S
O311 C303 1.252 . S
Eu312 C321 2.828 . S
Eu312 O323 2.392 . S
Eu312 O325 2.418 . S
Eu312 O330 2.373 . S
Eu312 O333 2.488 . S
Eu312 O334 2.471 . S
Eu312 O335 2.349 . S
Eu313 O322 2.373 . S
Eu313 O326 2.488 1_545 S
Eu313 O327 2.471 1_545 S
Eu313 O328 2.349 . S
Eu313 O331 2.392 . S
Eu313 O332 2.418 1_554 S
Eu313 C342 2.828 1_545 S
C314 O332 1.244 . S
C314 O335 1.265 1_556 S
C315 C316 1.379 1_554 S
C315 C319 1.373 . S
C315 C321 1.505 . S
C316 C315 1.379 1_556 S
C316 C318 1.369 . S
C316 H344 0.930 . S
C317 C319 1.383 . S
C317 C320 1.382 . S
C317 H345 0.930 . S
C318 C316 1.369 . S
C318 C320 1.392 1_556 S
C318 H346 0.930 . S
C319 C315 1.373 . S
C319 C317 1.383 . S
C319 H347 0.931 . S
C320 C317 1.382 . S
C320 C318 1.392 1_554 S
C321 Eu312 2.828 . S
C321 C315 1.505 . S
C321 O333 1.249 . S
C321 O334 1.244 . S
O322 Eu313 2.373 . S
O322 C324 1.258 . S
O323 Eu312 2.392 . S
O323 C324 1.242 . S
C324 O322 1.258 . S
C324 O323 1.242 . S
O325 Eu312 2.418 . S
O325 C329 1.244 . S
O326 Eu313 2.488 1_565 S
O326 C342 1.249 . S
O327 Eu313 2.471 1_565 S
O327 C342 1.244 . S
O328 Eu313 2.349 . S
O328 C329 1.265 . S
C329 O325 1.244 . S
C329 O328 1.265 . S
O330 Eu312 2.373 . S
O330 C343 1.258 . S
O331 Eu313 2.392 . S
O331 C343 1.242 . S
O332 Eu313 2.418 1_556 S
O332 C314 1.244 . S
O333 Eu312 2.488 . S
O333 C321 1.249 . S
O334 Eu312 2.471 . S
O334 C321 1.244 . S
O335 Eu312 2.349 . S
O335 C314 1.265 1_554 S
C336 C337 1.379 . S
C336 C340 1.373 . S
C336 C342 1.505 . S
C337 C336 1.379 . S
C337 C339 1.369 . S
C337 H348 0.930 . S
C338 C340 1.383 . S
C338 C341 1.382 . S
C338 H349 0.930 . S
C339 C337 1.369 . S
C339 C341 1.392 . S
C339 H350 0.930 . S
C340 C336 1.373 . S
C340 C338 1.383 . S
C340 H351 0.931 . S
C341 C338 1.382 . S
C341 C339 1.392 . S
C342 Eu313 2.828 1_565 S
C342 O326 1.249 . S
C342 O327 1.244 . S
C342 C336 1.505 . S
C343 O330 1.258 . S
C343 O331 1.242 . S
H344 C316 0.930 . S
H345 C317 0.930 . S
H346 C318 0.930 . S
H347 C319 0.931 . S
H348 C337 0.930 . S
H349 C338 0.930 . S
H350 C339 0.930 . S
H351 C340 0.931 . S
Eu352 C361 2.828 . S
Eu352 O363 2.392 . S
Eu352 O365 2.418 . S
Eu352 O370 2.373 . S
Eu352 O373 2.488 . S
Eu352 O374 2.471 . S
Eu352 O375 2.349 . S
Eu353 O362 2.373 . S
Eu353 O366 2.488 . S
Eu353 O367 2.471 . S
Eu353 O368 2.349 . S
Eu353 O371 2.392 . S
Eu353 O372 2.418 . S
Eu353 C382 2.828 . S
C354 O372 1.244 . S
C354 O375 1.265 . S
C355 C356 1.379 . S
C355 C359 1.373 . S
C355 C361 1.505 . S
C356 C355 1.379 . S
C356 C358 1.369 . S
C356 H384 0.930 . S
C357 C359 1.383 . S
C357 C360 1.382 . S
C357 H385 0.930 . S
C358 C356 1.369 . S
C358 C360 1.392 . S
C358 H386 0.930 . S
C359 C355 1.373 . S
C359 C357 1.383 . S
C359 H387 0.931 . S
C360 C357 1.382 . S
C360 C358 1.392 . S
C361 Eu352 2.828 . S
C361 C355 1.505 . S
C361 O373 1.249 . S
C361 O374 1.244 . S
O362 Eu353 2.373 . S
O362 C364 1.258 . S
O363 Eu352 2.392 . S
O363 C364 1.242 . S
C364 O362 1.258 . S
C364 O363 1.242 . S
O365 Eu352 2.418 . S
O365 C369 1.244 . S
O366 Eu353 2.488 . S
O366 C382 1.249 . S
O367 Eu353 2.471 . S
O367 C382 1.244 . S
O368 Eu353 2.349 . S
O368 C369 1.265 . S
C369 O365 1.244 . S
C369 O368 1.265 . S
O370 Eu352 2.373 . S
O370 C383 1.258 . S
O371 Eu353 2.392 . S
O371 C383 1.242 . S
O372 Eu353 2.418 . S
O372 C354 1.244 . S
O373 Eu352 2.488 . S
O373 C361 1.249 . S
O374 Eu352 2.471 . S
O374 C361 1.244 . S
O375 Eu352 2.349 . S
O375 C354 1.265 . S
C376 C377 1.379 . S
C376 C380 1.373 . S
C376 C382 1.505 . S
C377 C376 1.379 . S
C377 C379 1.369 . S
C377 H388 0.930 . S
C378 C380 1.383 . S
C378 C381 1.382 . S
C378 H389 0.930 . S
C379 C377 1.369 . S
C379 C381 1.392 . S
C379 H390 0.930 . S
C380 C376 1.373 . S
C380 C378 1.383 . S
C380 H391 0.931 . S
C381 C378 1.382 . S
C381 C379 1.392 . S
C382 Eu353 2.828 . S
C382 O366 1.249 . S
C382 O367 1.244 . S
C382 C376 1.505 . S
C383 O370 1.258 . S
C383 O371 1.242 . S
H384 C356 0.930 . S
H385 C357 0.930 . S
H386 C358 0.930 . S
H387 C359 0.931 . S
H388 C377 0.930 . S
H389 C378 0.930 . S
H390 C379 0.930 . S
H391 C380 0.931 . S
Eu392 C401 2.828 . S
Eu392 O403 2.392 . S
Eu392 O405 2.418 . S
Eu392 O410 2.373 1_545 S
Eu392 O413 2.488 . S
Eu392 O414 2.471 . S
Eu392 O415 2.349 . S
Eu393 O402 2.373 . S
Eu393 O406 2.488 . S
Eu393 O407 2.471 . S
Eu393 O408 2.349 . S
Eu393 O411 2.392 1_545 S
Eu393 O412 2.418 . S
Eu393 C422 2.828 . S
C394 O412 1.244 . S
C394 O415 1.265 . S
C395 C396 1.379 . S
C395 C399 1.373 . S
C395 C401 1.505 1_565 S
C396 C395 1.379 . S
C396 C398 1.369 . S
C396 H424 0.930 . S
C397 C399 1.383 . S
C397 C400 1.382 . S
C397 H425 0.930 . S
C398 C396 1.369 . S
C398 C400 1.392 . S
C398 H426 0.930 . S
C399 C395 1.373 . S
C399 C397 1.383 . S
C399 H427 0.931 . S
C400 C397 1.382 . S
C400 C398 1.392 . S
C401 Eu392 2.828 . S
C401 C395 1.505 1_545 S
C401 O413 1.249 . S
C401 O414 1.244 . S
O402 Eu393 2.373 . S
O402 C404 1.258 . S
O403 Eu392 2.392 . S
O403 C404 1.242 . S
C404 O402 1.258 . S
C404 O403 1.242 . S
O405 Eu392 2.418 . S
O405 C409 1.244 . S
O406 Eu393 2.488 . S
O406 C422 1.249 . S
O407 Eu393 2.471 . S
O407 C422 1.244 . S
O408 Eu393 2.349 . S
O408 C409 1.265 . S
C409 O405 1.244 . S
C409 O408 1.265 . S
O410 Eu392 2.373 1_565 S
O410 C423 1.258 . S
O411 Eu393 2.392 1_565 S
O411 C423 1.242 . S
O412 Eu393 2.418 . S
O412 C394 1.244 . S
O413 Eu392 2.488 . S
O413 C401 1.249 . S
O414 Eu392 2.471 . S
O414 C401 1.244 . S
O415 Eu392 2.349 . S
O415 C394 1.265 . S
C416 C417 1.379 . S
C416 C420 1.373 . S
C416 C422 1.505 . S
C417 C416 1.379 . S
C417 C419 1.369 . S
C417 H428 0.930 . S
C418 C420 1.383 . S
C418 C421 1.382 . S
C418 H429 0.930 . S
C419 C417 1.369 . S
C419 C421 1.392 . S
C419 H430 0.930 . S
C420 C416 1.373 . S
C420 C418 1.383 . S
C420 H431 0.931 . S
C421 C418 1.382 . S
C421 C419 1.392 . S
C422 Eu393 2.828 . S
C422 O406 1.249 . S
C422 O407 1.244 . S
C422 C416 1.505 . S
C423 O410 1.258 . S
C423 O411 1.242 . S
H424 C396 0.930 . S
H425 C397 0.930 . S
H426 C398 0.930 . S
H427 C399 0.931 . S
H428 C417 0.930 . S
H429 C418 0.930 . S
H430 C419 0.930 . S
H431 C420 0.931 . S
Eu432 C441 2.828 . S
Eu432 O443 2.392 . S
Eu432 O445 2.418 . S
Eu432 O450 2.373 . S
Eu432 O453 2.488 . S
Eu432 O454 2.471 . S
Eu432 O455 2.349 . S
Eu433 O442 2.373 . S
Eu433 O446 2.488 . S
Eu433 O447 2.471 . S
Eu433 O448 2.349 . S
Eu433 O451 2.392 . S
Eu433 O452 2.418 . S
Eu433 C462 2.828 . S
C434 O452 1.244 . S
C434 O455 1.265 . S
C435 C436 1.379 . S
C435 C439 1.373 . S
C435 C441 1.505 . S
C436 C435 1.379 . S
C436 C438 1.369 . S
C436 H464 0.930 . S
C437 C439 1.383 . S
C437 C440 1.382 . S
C437 H465 0.930 . S
C438 C436 1.369 . S
C438 C440 1.392 . S
C438 H466 0.930 . S
C439 C435 1.373 . S
C439 C437 1.383 . S
C439 H467 0.931 . S
C440 C437 1.382 . S
C440 C438 1.392 . S
C441 Eu432 2.828 . S
C441 C435 1.505 . S
C441 O453 1.249 . S
C441 O454 1.244 . S
O442 Eu433 2.373 . S
O442 C444 1.258 . S
O443 Eu432 2.392 . S
O443 C444 1.242 . S
C444 O442 1.258 . S
C444 O443 1.242 . S
O445 Eu432 2.418 . S
O445 C449 1.244 . S
O446 Eu433 2.488 . S
O446 C462 1.249 . S
O447 Eu433 2.471 . S
O447 C462 1.244 . S
O448 Eu433 2.349 . S
O448 C449 1.265 . S
C449 O445 1.244 . S
C449 O448 1.265 . S
O450 Eu432 2.373 . S
O450 C463 1.258 . S
O451 Eu433 2.392 . S
O451 C463 1.242 . S
O452 Eu433 2.418 . S
O452 C434 1.244 . S
O453 Eu432 2.488 . S
O453 C441 1.249 . S
O454 Eu432 2.471 . S
O454 C441 1.244 . S
O455 Eu432 2.349 . S
O455 C434 1.265 . S
C456 C457 1.379 . S
C456 C460 1.373 . S
C456 C462 1.505 . S
C457 C456 1.379 . S
C457 C459 1.369 . S
C457 H468 0.930 . S
C458 C460 1.383 . S
C458 C461 1.382 . S
C458 H469 0.930 . S
C459 C457 1.369 . S
C459 C461 1.392 . S
C459 H470 0.930 . S
C460 C456 1.373 . S
C460 C458 1.383 . S
C460 H471 0.931 . S
C461 C458 1.382 . S
C461 C459 1.392 . S
C462 Eu433 2.828 . S
C462 O446 1.249 . S
C462 O447 1.244 . S
C462 C456 1.505 . S
C463 O450 1.258 . S
C463 O451 1.242 . S
H464 C436 0.930 . S
H465 C437 0.930 . S
H466 C438 0.930 . S
H467 C439 0.931 . S
H468 C457 0.930 . S
H469 C458 0.930 . S
H470 C459 0.930 . S
H471 C460 0.931 . S
Eu472 C481 2.828 . S
Eu472 O483 2.392 . S
Eu472 O485 2.418 . S
Eu472 O490 2.373 . S
Eu472 O493 2.488 . S
Eu472 O494 2.471 . S
Eu472 O495 2.349 . S
Eu473 O482 2.368 1_565 S
Eu473 O486 2.525 . S
Eu473 O487 2.507 . S
Eu473 O488 2.330 1_565 S
Eu473 O491 2.365 1_565 S
Eu473 O492 2.402 1_565 S
Eu473 C502 2.868 . S
C474 O492 1.244 . S
C474 O495 1.265 . S
C475 C476 1.379 . S
C475 C479 1.373 . S
C475 C481 1.505 . S
C476 C475 1.379 . S
C476 C478 1.369 . S
C476 H504 0.930 . S
C477 C479 1.383 . S
C477 C480 1.382 . S
C477 H505 0.930 . S
C478 C476 1.369 . S
C478 C480 1.392 . S
C478 H506 0.930 . S
C479 C475 1.373 . S
C479 C477 1.383 . S
C479 H507 0.931 . S
C480 C477 1.382 . S
C480 C478 1.392 . S
C481 Eu472 2.828 . S
C481 C475 1.505 . S
C481 O493 1.249 . S
C481 O494 1.244 . S
O482 Eu473 2.368 1_545 S
O482 C484 1.258 . S
O483 Eu472 2.392 . S
O483 C484 1.242 . S
C484 O482 1.258 . S
C484 O483 1.242 . S
O485 Eu472 2.418 . S
O485 C489 1.244 . S
O486 Eu473 2.525 . S
O486 C502 1.249 . S
O487 Eu473 2.507 . S
O487 C502 1.244 . S
O488 Eu473 2.330 1_545 S
O488 C489 1.265 . S
C489 O485 1.244 . S
C489 O488 1.265 . S
O490 Eu472 2.373 . S
O490 C503 1.258 . S
O491 Eu473 2.365 1_545 S
O491 C503 1.242 . S
O492 Eu473 2.402 1_545 S
O492 C474 1.244 . S
O493 Eu472 2.488 . S
O493 C481 1.249 . S
O494 Eu472 2.471 . S
O494 C481 1.244 . S
O495 Eu472 2.349 . S
O495 C474 1.265 . S
C496 C497 1.379 . S
C496 C500 1.373 . S
C496 C502 1.505 . S
C497 C496 1.379 . S
C497 C499 1.369 . S
C497 H508 0.930 . S
C498 C500 1.383 . S
C498 C501 1.382 . S
C498 H509 0.930 . S
C499 C497 1.369 . S
C499 C501 1.392 . S
C499 H510 0.930 . S
C500 C496 1.373 . S
C500 C498 1.383 . S
C500 H511 0.931 . S
C501 C498 1.382 . S
C501 C499 1.392 . S
C502 Eu473 2.868 . S
C502 O486 1.249 . S
C502 O487 1.244 . S
C502 C496 1.505 . S
C503 O490 1.258 . S
C503 O491 1.242 . S
H504 C476 0.930 . S
H505 C477 0.930 . S
H506 C478 0.930 . S
H507 C479 0.931 . S
H508 C497 0.930 . S
H509 C498 0.930 . S
H510 C499 0.930 . S
H511 C500 0.931 . S
Eu512 C521 2.828 . S
Eu512 O523 2.392 . S
Eu512 O525 2.418 . S
Eu512 O530 2.373 . S
Eu512 O533 2.488 . S
Eu512 O534 2.471 . S
Eu512 O535 2.349 . S
Eu513 O522 2.373 . S
Eu513 O526 2.488 . S
Eu513 O527 2.471 . S
Eu513 O528 2.349 . S
Eu513 O531 2.392 . S
Eu513 O532 2.418 . S
Eu513 C542 2.828 . S
C514 O532 1.244 . S
C514 O535 1.265 . S
C515 C516 1.379 . S
C515 C519 1.373 . S
C515 C521 1.505 . S
C516 C515 1.379 . S
C516 C518 1.369 . S
C516 H544 0.930 . S
C517 C519 1.383 . S
C517 C520 1.382 . S
C517 H545 0.930 . S
C518 C516 1.369 . S
C518 C520 1.392 . S
C518 H546 0.930 . S
C519 C515 1.373 . S
C519 C517 1.383 . S
C519 H547 0.931 . S
C520 C517 1.382 . S
C520 C518 1.392 . S
C521 Eu512 2.828 . S
C521 C515 1.505 . S
C521 O533 1.249 . S
C521 O534 1.244 . S
O522 Eu513 2.373 . S
O522 C524 1.258 . S
O523 Eu512 2.392 . S
O523 C524 1.242 . S
C524 O522 1.258 . S
C524 O523 1.242 . S
O525 Eu512 2.418 . S
O525 C529 1.244 . S
O526 Eu513 2.488 . S
O526 C542 1.249 . S
O527 Eu513 2.471 . S
O527 C542 1.244 . S
O528 Eu513 2.349 . S
O528 C529 1.265 . S
C529 O525 1.244 . S
C529 O528 1.265 . S
O530 Eu512 2.373 . S
O530 C543 1.258 . S
O531 Eu513 2.392 . S
O531 C543 1.242 . S
O532 Eu513 2.418 . S
O532 C514 1.244 . S
O533 Eu512 2.488 . S
O533 C521 1.249 . S
O534 Eu512 2.471 . S
O534 C521 1.244 . S
O535 Eu512 2.349 . S
O535 C514 1.265 . S
C536 C537 1.379 . S
C536 C540 1.373 . S
C536 C542 1.505 . S
C537 C536 1.379 . S
C537 C539 1.369 . S
C537 H548 0.930 . S
C538 C540 1.383 . S
C538 C541 1.382 . S
C538 H549 0.930 . S
C539 C537 1.369 . S
C539 C541 1.392 . S
C539 H550 0.930 . S
C540 C536 1.373 . S
C540 C538 1.383 . S
C540 H551 0.931 . S
C541 C538 1.382 . S
C541 C539 1.392 . S
C542 Eu513 2.828 . S
C542 O526 1.249 . S
C542 O527 1.244 . S
C542 C536 1.505 . S
C543 O530 1.258 . S
C543 O531 1.242 . S
H544 C516 0.930 . S
H545 C517 0.930 . S
H546 C518 0.930 . S
H547 C519 0.931 . S
H548 C537 0.930 . S
H549 C538 0.930 . S
H550 C539 0.930 . S
H551 C540 0.931 . S
Eu552 C561 2.828 . S
Eu552 O563 2.392 . S
Eu552 O565 2.418 . S
Eu552 O570 2.373 . S
Eu552 O573 2.488 . S
Eu552 O574 2.471 . S
Eu552 O575 2.349 . S
Eu553 O562 2.378 . S
Eu553 O566 2.488 . S
Eu553 O567 2.471 . S
Eu553 O568 2.349 . S
Eu553 O571 2.392 . S
Eu553 O572 2.418 1_556 S
Eu553 C582 2.828 . S
C554 O572 1.244 . S
C554 O575 1.265 . S
C555 C556 1.379 . S
C555 C559 1.373 . S
C555 C561 1.505 . S
C556 C555 1.379 . S
C556 C558 1.369 . S
C556 H584 0.930 . S
C557 C559 1.391 . S
C557 C560 1.403 . S
C557 H585 0.902 1_545 S
C558 C556 1.369 . S
C558 C560 1.392 . S
C558 H586 0.930 . S
C559 C555 1.373 . S
C559 C557 1.391 . S
C559 H587 0.931 1_545 S
C560 C557 1.403 . S
C560 C558 1.392 . S
C561 Eu552 2.828 . S
C561 C555 1.505 . S
C561 O573 1.249 . S
C561 O574 1.244 . S
O562 Eu553 2.378 . S
O562 C564 1.246 1_556 S
O563 Eu552 2.392 . S
O563 C564 1.242 . S
C564 O562 1.246 1_554 S
C564 O563 1.242 . S
O565 Eu552 2.418 . S
O565 C569 1.272 . S
O566 Eu553 2.488 . S
O566 C582 1.249 . S
O567 Eu553 2.471 . S
O567 C582 1.244 . S
O568 Eu553 2.349 . S
O568 C569 1.254 1_556 S
C569 O565 1.272 . S
C569 O568 1.254 1_554 S
O570 Eu552 2.373 . S
O570 C583 1.258 . S
O571 Eu553 2.392 . S
O571 C583 1.242 1_556 S
O572 Eu553 2.418 1_554 S
O572 C554 1.244 . S
O573 Eu552 2.488 . S
O573 C561 1.249 . S
O574 Eu552 2.471 . S
O574 C561 1.244 . S
O575 Eu552 2.349 . S
O575 C554 1.265 . S
C576 C577 1.379 . S
C576 C580 1.373 . S
C576 C582 1.505 . S
C577 C576 1.379 . S
C577 C579 1.369 . S
C577 H588 0.930 . S
C578 C580 1.383 . S
C578 C581 1.382 . S
C578 H589 0.930 . S
C579 C577 1.369 . S
C579 C581 1.392 . S
C579 H590 0.930 . S
C580 C576 1.373 . S
C580 C578 1.383 . S
C580 H591 0.931 . S
C581 C578 1.382 . S
C581 C579 1.392 . S
C582 Eu553 2.828 . S
C582 O566 1.249 . S
C582 O567 1.244 . S
C582 C576 1.505 . S
C583 O570 1.258 . S
C583 O571 1.242 1_554 S
H584 C556 0.930 . S
H585 C557 0.902 1_565 S
H586 C558 0.930 . S
H587 C559 0.931 1_565 S
H588 C577 0.930 . S
H589 C578 0.930 . S
H590 C579 0.930 . S
H591 C580 0.931 . S
Eu592 C601 2.828 . S
Eu592 O603 2.392 . S
Eu592 O605 2.418 . S
Eu592 O610 2.373 . S
Eu592 O613 2.488 . S
Eu592 O614 2.471 . S
Eu592 O615 2.349 . S
Eu593 O602 2.373 . S
Eu593 O606 2.488 . S
Eu593 O607 2.471 . S
Eu593 O608 2.349 . S
Eu593 O611 2.392 . S
Eu593 O612 2.418 . S
Eu593 C622 2.828 . S
C594 O612 1.244 . S
C594 O615 1.265 . S
C595 C596 1.379 . S
C595 C599 1.373 . S
C595 C601 1.505 . S
C596 C595 1.379 . S
C596 C598 1.369 . S
C596 H624 0.930 . S
C597 C599 1.383 . S
C597 C600 1.382 . S
C597 H625 0.930 . S
C598 C596 1.369 . S
C598 C600 1.392 . S
C598 H626 0.930 . S
C599 C595 1.373 . S
C599 C597 1.383 . S
C599 H627 0.931 . S
C600 C597 1.382 . S
C600 C598 1.392 . S
C601 Eu592 2.828 . S
C601 C595 1.505 . S
C601 O613 1.249 . S
C601 O614 1.244 . S
O602 Eu593 2.373 . S
O602 C604 1.258 . S
O603 Eu592 2.392 . S
O603 C604 1.242 . S
C604 O602 1.258 . S
C604 O603 1.242 . S
O605 Eu592 2.418 . S
O605 C609 1.244 . S
O606 Eu593 2.488 . S
O606 C622 1.249 . S
O607 Eu593 2.471 . S
O607 C622 1.244 . S
O608 Eu593 2.349 . S
O608 C609 1.265 . S
C609 O605 1.244 . S
C609 O608 1.265 . S
O610 Eu592 2.373 . S
O610 C623 1.258 . S
O611 Eu593 2.392 . S
O611 C623 1.242 . S
O612 Eu593 2.418 . S
O612 C594 1.244 . S
O613 Eu592 2.488 . S
O613 C601 1.249 . S
O614 Eu592 2.471 . S
O614 C601 1.244 . S
O615 Eu592 2.349 . S
O615 C594 1.265 . S
C616 C617 1.379 . S
C616 C620 1.373 . S
C616 C622 1.505 . S
C617 C616 1.379 . S
C617 C619 1.369 . S
C617 H628 0.930 . S
C618 C620 1.383 . S
C618 C621 1.382 . S
C618 H629 0.930 . S
C619 C617 1.369 . S
C619 C621 1.392 . S
C619 H630 0.930 . S
C620 C616 1.373 . S
C620 C618 1.383 . S
C620 H631 0.931 . S
C621 C618 1.382 . S
C621 C619 1.392 . S
C622 Eu593 2.828 . S
C622 O606 1.249 . S
C622 O607 1.244 . S
C622 C616 1.505 . S
C623 O610 1.258 . S
C623 O611 1.242 . S
H624 C596 0.930 . S
H625 C597 0.930 . S
H626 C598 0.930 . S
H627 C599 0.931 . S
H628 C617 0.930 . S
H629 C618 0.930 . S
H630 C619 0.930 . S
H631 C620 0.931 . S
Eu632 C641 2.828 . S
Eu632 O643 2.392 . S
Eu632 O645 2.418 . S
Eu632 O650 2.373 1_554 S
Eu632 O653 2.488 . S
Eu632 O654 2.471 . S
Eu632 O655 2.349 . S
Eu633 O642 2.373 1_556 S
Eu633 O646 2.488 1_556 S
Eu633 O647 2.471 1_556 S
Eu633 O648 2.349 1_556 S
Eu633 O651 2.392 . S
Eu633 O652 2.418 1_556 S
Eu633 C662 2.828 1_556 S
C634 O652 1.243 . S
C634 O655 1.265 . S
C635 C636 1.379 . S
C635 C639 1.373 . S
C635 C641 1.505 1_556 S
C636 C635 1.379 . S
C636 C638 1.369 . S
C636 H664 0.930 . S
C637 C639 1.383 . S
C637 C640 1.382 . S
C637 H665 0.930 . S
C638 C636 1.369 . S
C638 C640 1.392 . S
C638 H666 0.930 . S
C639 C635 1.373 . S
C639 C637 1.383 . S
C639 H667 0.931 1_556 S
C640 C637 1.382 . S
C640 C638 1.392 . S
C641 Eu632 2.828 . S
C641 C635 1.505 1_554 S
C641 O653 1.249 . S
C641 O654 1.244 . S
O642 Eu633 2.373 1_554 S
O642 C644 1.258 . S
O643 Eu632 2.392 . S
O643 C644 1.242 . S
C644 O642 1.258 . S
C644 O643 1.242 . S
O645 Eu632 2.418 . S
O645 C649 1.244 . S
O646 Eu633 2.488 1_554 S
O646 C662 1.249 . S
O647 Eu633 2.471 1_554 S
O647 C662 1.244 . S
O648 Eu633 2.349 1_554 S
O648 C649 1.265 . S
C649 O645 1.244 . S
C649 O648 1.265 . S
O650 Eu632 2.373 1_556 S
O650 C663 1.258 . S
O651 Eu633 2.392 . S
O651 C663 1.242 . S
O652 Eu633 2.418 1_554 S
O652 C634 1.243 . S
O653 Eu632 2.488 . S
O653 C641 1.249 . S
O654 Eu632 2.471 . S
O654 C641 1.244 . S
O655 Eu632 2.349 . S
O655 C634 1.265 . S
C656 C657 1.379 . S
C656 C660 1.373 . S
C656 C662 1.505 . S
C657 C656 1.379 . S
C657 C659 1.369 . S
C657 H668 0.930 . S
C658 C660 1.383 . S
C658 C661 1.382 . S
C658 H669 0.930 . S
C659 C657 1.369 . S
C659 C661 1.392 . S
C659 H670 0.930 . S
C660 C656 1.373 . S
C660 C658 1.383 . S
C660 H671 0.931 . S
C661 C658 1.382 . S
C661 C659 1.392 . S
C662 Eu633 2.828 1_554 S
C662 O646 1.249 . S
C662 O647 1.244 . S
C662 C656 1.505 . S
C663 O650 1.258 . S
C663 O651 1.242 . S
H664 C636 0.930 . S
H665 C637 0.930 . S
H666 C638 0.930 . S
H667 C639 0.931 1_554 S
H668 C657 0.930 . S
H669 C658 0.930 . S
H670 C659 0.930 . S
H671 C660 0.931 . S
Eu672 C681 2.828 . S
Eu672 O683 2.392 . S
Eu672 O685 2.418 . S
Eu672 O690 2.373 . S
Eu672 O693 2.488 . S
Eu672 O694 2.471 . S
Eu672 O695 2.349 . S
Eu673 O682 2.373 . S
Eu673 O686 2.488 . S
Eu673 O687 2.471 . S
Eu673 O688 2.349 . S
Eu673 O691 2.392 . S
Eu673 O692 2.418 . S
Eu673 C702 2.828 . S
C674 O692 1.244 . S
C674 O695 1.265 . S
C675 C676 1.379 . S
C675 C679 1.373 . S
C675 C681 1.505 . S
C676 C675 1.379 . S
C676 C678 1.369 . S
C676 H704 0.930 . S
C677 C679 1.383 . S
C677 C680 1.382 . S
C677 H705 0.930 . S
C678 C676 1.369 . S
C678 C680 1.392 . S
C678 H706 0.930 . S
C679 C675 1.373 . S
C679 C677 1.383 . S
C679 H707 0.931 . S
C680 C677 1.382 . S
C680 C678 1.392 . S
C681 Eu672 2.828 . S
C681 C675 1.505 . S
C681 O693 1.249 . S
C681 O694 1.244 . S
O682 Eu673 2.373 . S
O682 C684 1.258 . S
O683 Eu672 2.392 . S
O683 C684 1.242 . S
C684 O682 1.258 . S
C684 O683 1.242 . S
O685 Eu672 2.418 . S
O685 C689 1.244 . S
O686 Eu673 2.488 . S
O686 C702 1.249 . S
O687 Eu673 2.471 . S
O687 C702 1.244 . S
O688 Eu673 2.349 . S
O688 C689 1.265 . S
C689 O685 1.244 . S
C689 O688 1.265 . S
O690 Eu672 2.373 . S
O690 C703 1.258 . S
O691 Eu673 2.392 . S
O691 C703 1.242 . S
O692 Eu673 2.418 . S
O692 C674 1.244 . S
O693 Eu672 2.488 . S
O693 C681 1.249 . S
O694 Eu672 2.471 . S
O694 C681 1.244 . S
O695 Eu672 2.349 . S
O695 C674 1.265 . S
C696 C697 1.379 . S
C696 C700 1.373 . S
C696 C702 1.505 . S
C697 C696 1.379 . S
C697 C699 1.369 . S
C697 H708 0.930 . S
C698 C700 1.383 . S
C698 C701 1.382 . S
C698 H709 0.930 . S
C699 C697 1.369 . S
C699 C701 1.392 . S
C699 H710 0.930 . S
C700 C696 1.373 . S
C700 C698 1.383 . S
C700 H711 0.931 . S
C701 C698 1.382 . S
C701 C699 1.392 . S
C702 Eu673 2.828 . S
C702 O686 1.249 . S
C702 O687 1.244 . S
C702 C696 1.505 . S
C703 O690 1.258 . S
C703 O691 1.242 . S
H704 C676 0.930 . S
H705 C677 0.930 . S
H706 C678 0.930 . S
H707 C679 0.931 . S
H708 C697 0.930 . S
H709 C698 0.930 . S
H710 C699 0.930 . S
H711 C700 0.931 . S
Eu712 C721 2.828 . S
Eu712 O723 2.392 . S
Eu712 O725 2.418 . S
Eu712 O730 2.373 . S
Eu712 O733 2.488 . S
Eu712 O734 2.471 . S
Eu712 O735 2.349 . S
Eu713 O722 2.373 . S
Eu713 O726 2.488 . S
Eu713 O727 2.471 . S
Eu713 O728 2.349 . S
Eu713 O731 2.392 1_455 S
Eu713 O732 2.418 . S
Eu713 C742 2.828 . S
C714 O732 1.244 . S
C714 O735 1.265 . S
C715 C716 1.379 1_455 S
C715 C719 1.373 . S
C715 C721 1.505 . S
C716 C715 1.379 1_655 S
C716 C718 1.369 . S
C716 H744 0.930 . S
C717 C719 1.383 1_655 S
C717 C720 1.382 . S
C717 H745 0.930 . S
C718 C716 1.369 . S
C718 C720 1.392 . S
C718 H746 0.930 . S
C719 C715 1.373 . S
C719 C717 1.383 1_455 S
C719 H747 0.931 . S
C720 C717 1.382 . S
C720 C718 1.392 . S
C721 Eu712 2.828 . S
C721 C715 1.505 . S
C721 O733 1.249 . S
C721 O734 1.244 . S
O722 Eu713 2.373 . S
O722 C724 1.258 . S
O723 Eu712 2.392 . S
O723 C724 1.242 . S
C724 O722 1.258 . S
C724 O723 1.242 . S
O725 Eu712 2.418 . S
O725 C729 1.244 . S
O726 Eu713 2.488 . S
O726 C742 1.249 . S
O727 Eu713 2.471 . S
O727 C742 1.244 . S
O728 Eu713 2.349 . S
O728 C729 1.265 . S
C729 O725 1.244 . S
C729 O728 1.265 . S
O730 Eu712 2.373 . S
O730 C743 1.258 1_455 S
O731 Eu713 2.392 1_655 S
O731 C743 1.242 . S
O732 Eu713 2.418 . S
O732 C714 1.244 . S
O733 Eu712 2.488 . S
O733 C721 1.249 . S
O734 Eu712 2.471 . S
O734 C721 1.244 . S
O735 Eu712 2.349 . S
O735 C714 1.265 . S
C736 C737 1.379 . S
C736 C740 1.373 . S
C736 C742 1.505 . S
C737 C736 1.379 . S
C737 C739 1.369 . S
C737 H748 0.930 . S
C738 C740 1.383 . S
C738 C741 1.382 . S
C738 H749 0.930 . S
C739 C737 1.369 . S
C739 C741 1.392 . S
C739 H750 0.930 . S
C740 C736 1.373 . S
C740 C738 1.383 . S
C740 H751 0.931 . S
C741 C738 1.382 . S
C741 C739 1.392 . S
C742 Eu713 2.828 . S
C742 O726 1.249 . S
C742 O727 1.244 . S
C742 C736 1.505 . S
C743 O730 1.258 1_655 S
C743 O731 1.242 . S
H744 C716 0.930 . S
H745 C717 0.930 . S
H746 C718 0.930 . S
H747 C719 0.931 . S
H748 C737 0.930 . S
H749 C738 0.930 . S
H750 C739 0.930 . S
H751 C740 0.931 . S
Eu752 C761 2.828 . S
Eu752 O763 2.392 . S
Eu752 O765 2.418 . S
Eu752 O770 2.373 . S
Eu752 O773 2.488 . S
Eu752 O774 2.471 . S
Eu752 O775 2.349 . S
Eu753 O762 2.373 . S
Eu753 O766 2.488 . S
Eu753 O767 2.471 . S
Eu753 O768 2.349 . S
Eu753 O771 2.392 . S
Eu753 O772 2.418 . S
Eu753 C782 2.828 . S
C754 O772 1.244 . S
C754 O775 1.265 . S
C755 C756 1.379 . S
C755 C759 1.373 . S
C755 C761 1.505 . S
C756 C755 1.379 . S
C756 C758 1.369 . S
C756 H784 0.930 . S
C757 C759 1.383 . S
C757 C760 1.382 . S
C757 H785 0.930 . S
C758 C756 1.369 . S
C758 C760 1.392 . S
C758 H786 0.930 . S
C759 C755 1.373 . S
C759 C757 1.383 . S
C759 H787 0.931 . S
C760 C757 1.382 . S
C760 C758 1.392 . S
C761 Eu752 2.828 . S
C761 C755 1.505 . S
C761 O773 1.249 . S
C761 O774 1.244 . S
O762 Eu753 2.373 . S
O762 C764 1.258 . S
O763 Eu752 2.392 . S
O763 C764 1.242 . S
C764 O762 1.258 . S
C764 O763 1.242 . S
O765 Eu752 2.418 . S
O765 C769 1.244 . S
O766 Eu753 2.488 . S
O766 C782 1.249 . S
O767 Eu753 2.471 . S
O767 C782 1.244 . S
O768 Eu753 2.349 . S
O768 C769 1.265 . S
C769 O765 1.244 . S
C769 O768 1.265 . S
O770 Eu752 2.373 . S
O770 C783 1.258 . S
O771 Eu753 2.392 . S
O771 C783 1.242 . S
O772 Eu753 2.418 . S
O772 C754 1.244 . S
O773 Eu752 2.488 . S
O773 C761 1.249 . S
O774 Eu752 2.471 . S
O774 C761 1.244 . S
O775 Eu752 2.349 . S
O775 C754 1.265 . S
C776 C777 1.379 . S
C776 C780 1.373 . S
C776 C782 1.505 . S
C777 C776 1.379 . S
C777 C779 1.369 . S
C777 H788 0.930 . S
C778 C780 1.383 . S
C778 C781 1.382 . S
C778 H789 0.930 . S
C779 C777 1.369 . S
C779 C781 1.392 . S
C779 H790 0.930 . S
C780 C776 1.373 . S
C780 C778 1.383 . S
C780 H791 0.931 . S
C781 C778 1.382 . S
C781 C779 1.392 . S
C782 Eu753 2.828 . S
C782 O766 1.249 . S
C782 O767 1.244 . S
C782 C776 1.505 . S
C783 O770 1.258 . S
C783 O771 1.242 . S
H784 C756 0.930 . S
H785 C757 0.930 . S
H786 C758 0.930 . S
H787 C759 0.931 . S
H788 C777 0.930 . S
H789 C778 0.930 . S
H790 C779 0.930 . S
H791 C780 0.931 . S
Eu792 C801 2.828 . S
Eu792 O803 2.392 . S
Eu792 O805 2.418 . S
Eu792 O810 2.373 . S
Eu792 O813 2.488 . S
Eu792 O814 2.471 . S
Eu792 O815 2.349 . S
Eu793 O802 2.373 . S
Eu793 O806 2.488 . S
Eu793 O807 2.471 . S
Eu793 O808 2.349 . S
Eu793 O811 2.392 . S
Eu793 O812 2.418 . S
Eu793 C822 2.828 . S
C794 O812 1.244 . S
C794 O815 1.265 . S
C795 C796 1.379 . S
C795 C799 1.373 . S
C795 C801 1.505 . S
C796 C795 1.379 . S
C796 C798 1.369 . S
C796 H824 0.930 . S
C797 C799 1.383 . S
C797 C800 1.382 . S
C797 H825 0.930 . S
C798 C796 1.369 . S
C798 C800 1.392 . S
C798 H826 0.930 . S
C799 C795 1.373 . S
C799 C797 1.383 . S
C799 H827 0.931 . S
C800 C797 1.382 . S
C800 C798 1.392 . S
C801 Eu792 2.828 . S
C801 C795 1.505 . S
C801 O813 1.249 . S
C801 O814 1.244 . S
O802 Eu793 2.373 . S
O802 C804 1.258 . S
O803 Eu792 2.392 . S
O803 C804 1.242 . S
C804 O802 1.258 . S
C804 O803 1.242 . S
O805 Eu792 2.418 . S
O805 C809 1.244 . S
O806 Eu793 2.488 . S
O806 C822 1.249 . S
O807 Eu793 2.471 . S
O807 C822 1.244 . S
O808 Eu793 2.349 . S
O808 C809 1.265 . S
C809 O805 1.244 . S
C809 O808 1.265 . S
O810 Eu792 2.373 . S
O810 C823 1.258 . S
O811 Eu793 2.392 . S
O811 C823 1.242 . S
O812 Eu793 2.418 . S
O812 C794 1.244 . S
O813 Eu792 2.488 . S
O813 C801 1.249 . S
O814 Eu792 2.471 . S
O814 C801 1.244 . S
O815 Eu792 2.349 . S
O815 C794 1.265 . S
C816 C817 1.379 . S
C816 C820 1.373 . S
C816 C822 1.505 . S
C817 C816 1.379 . S
C817 C819 1.369 . S
C817 H828 0.930 . S
C818 C820 1.383 . S
C818 C821 1.382 . S
C818 H829 0.930 . S
C819 C817 1.369 . S
C819 C821 1.392 . S
C819 H830 0.930 . S
C820 C816 1.373 . S
C820 C818 1.383 . S
C820 H831 0.931 . S
C821 C818 1.382 . S
C821 C819 1.392 . S
C822 Eu793 2.828 . S
C822 O806 1.249 . S
C822 O807 1.244 . S
C822 C816 1.505 . S
C823 O810 1.258 . S
C823 O811 1.242 . S
H824 C796 0.930 . S
H825 C797 0.930 . S
H826 C798 0.930 . S
H827 C799 0.931 . S
H828 C817 0.930 . S
H829 C818 0.930 . S
H830 C819 0.930 . S
H831 C820 0.931 . S
Eu832 C841 2.828 . S
Eu832 O843 2.392 . S
Eu832 O845 2.418 . S
Eu832 O850 2.373 . S
Eu832 O853 2.488 . S
Eu832 O854 2.471 . S
Eu832 O855 2.349 . S
Eu833 O842 2.373 . S
Eu833 O846 2.488 . S
Eu833 O847 2.471 . S
Eu833 O848 2.349 . S
Eu833 O851 2.392 . S
Eu833 O852 2.418 . S
Eu833 C862 2.828 . S
C834 O852 1.244 . S
C834 O855 1.265 . S
C835 C836 1.379 . S
C835 C839 1.373 . S
C835 C841 1.505 . S
C836 C835 1.379 . S
C836 C838 1.369 . S
C836 H864 0.930 . S
C837 C839 1.383 . S
C837 C840 1.382 . S
C837 H865 0.930 . S
C838 C836 1.369 . S
C838 C840 1.392 . S
C838 H866 0.930 . S
C839 C835 1.373 . S
C839 C837 1.383 . S
C839 H867 0.931 . S
C840 C837 1.382 . S
C840 C838 1.392 . S
C841 Eu832 2.828 . S
C841 C835 1.505 . S
C841 O853 1.249 . S
C841 O854 1.244 . S
O842 Eu833 2.373 . S
O842 C844 1.258 . S
O843 Eu832 2.392 . S
O843 C844 1.242 . S
C844 O842 1.258 . S
C844 O843 1.242 . S
O845 Eu832 2.418 . S
O845 C849 1.244 . S
O846 Eu833 2.488 . S
O846 C862 1.249 . S
O847 Eu833 2.471 . S
O847 C862 1.244 . S
O848 Eu833 2.349 . S
O848 C849 1.265 . S
C849 O845 1.244 . S
C849 O848 1.265 . S
O850 Eu832 2.373 . S
O850 C863 1.258 . S
O851 Eu833 2.392 . S
O851 C863 1.242 . S
O852 Eu833 2.418 . S
O852 C834 1.244 . S
O853 Eu832 2.488 . S
O853 C841 1.249 . S
O854 Eu832 2.471 . S
O854 C841 1.244 . S
O855 Eu832 2.349 . S
O855 C834 1.265 . S
C856 C857 1.379 . S
C856 C860 1.373 . S
C856 C862 1.505 . S
C857 C856 1.379 . S
C857 C859 1.369 . S
C857 H868 0.930 . S
C858 C860 1.383 . S
C858 C861 1.382 . S
C858 H869 0.930 . S
C859 C857 1.369 . S
C859 C861 1.392 . S
C859 H870 0.930 . S
C860 C856 1.373 . S
C860 C858 1.383 . S
C860 H871 0.931 . S
C861 C858 1.382 . S
C861 C859 1.392 . S
C862 Eu833 2.828 . S
C862 O846 1.249 . S
C862 O847 1.244 . S
C862 C856 1.505 . S
C863 O850 1.258 . S
C863 O851 1.242 . S
H864 C836 0.930 . S
H865 C837 0.930 . S
H866 C838 0.930 . S
H867 C839 0.931 . S
H868 C857 0.930 . S
H869 C858 0.930 . S
H870 C859 0.930 . S
H871 C860 0.931 . S
Eu872 C881 2.828 . S
Eu872 O883 2.392 . S
Eu872 O885 2.418 . S
Eu872 O890 2.373 . S
Eu872 O893 2.488 . S
Eu872 O894 2.471 . S
Eu872 O895 2.349 . S
Eu873 O882 2.373 . S
Eu873 O886 2.488 . S
Eu873 O887 2.471 . S
Eu873 O888 2.349 . S
Eu873 O891 2.392 . S
Eu873 O892 2.418 . S
Eu873 C902 2.828 . S
C874 O892 1.244 . S
C874 O895 1.265 . S
C875 C876 1.379 . S
C875 C879 1.373 . S
C875 C881 1.505 . S
C876 C875 1.379 . S
C876 C878 1.369 . S
C876 H904 0.930 . S
C877 C879 1.383 . S
C877 C880 1.382 . S
C877 H905 0.930 . S
C878 C876 1.369 . S
C878 C880 1.392 . S
C878 H906 0.930 . S
C879 C875 1.373 . S
C879 C877 1.383 . S
C879 H907 0.931 . S
C880 C877 1.382 . S
C880 C878 1.392 . S
C881 Eu872 2.828 . S
C881 C875 1.505 . S
C881 O893 1.249 . S
C881 O894 1.244 . S
O882 Eu873 2.373 . S
O882 C884 1.258 . S
O883 Eu872 2.392 . S
O883 C884 1.242 . S
C884 O882 1.258 . S
C884 O883 1.242 . S
O885 Eu872 2.418 . S
O885 C889 1.244 . S
O886 Eu873 2.488 . S
O886 C902 1.249 . S
O887 Eu873 2.471 . S
O887 C902 1.244 . S
O888 Eu873 2.349 . S
O888 C889 1.265 . S
C889 O885 1.244 . S
C889 O888 1.265 . S
O890 Eu872 2.373 . S
O890 C903 1.258 . S
O891 Eu873 2.392 . S
O891 C903 1.242 . S
O892 Eu873 2.418 . S
O892 C874 1.244 . S
O893 Eu872 2.488 . S
O893 C881 1.249 . S
O894 Eu872 2.471 . S
O894 C881 1.244 . S
O895 Eu872 2.349 . S
O895 C874 1.265 . S
C896 C897 1.379 . S
C896 C900 1.373 . S
C896 C902 1.505 . S
C897 C896 1.379 . S
C897 C899 1.369 . S
C897 H908 0.930 . S
C898 C900 1.383 . S
C898 C901 1.382 . S
C898 H909 0.930 . S
C899 C897 1.369 . S
C899 C901 1.392 . S
C899 H910 0.930 . S
C900 C896 1.373 . S
C900 C898 1.383 . S
C900 H911 0.931 . S
C901 C898 1.382 . S
C901 C899 1.392 . S
C902 Eu873 2.828 . S
C902 O886 1.249 . S
C902 O887 1.244 . S
C902 C896 1.505 . S
C903 O890 1.258 . S
C903 O891 1.242 . S
H904 C876 0.930 . S
H905 C877 0.930 . S
H906 C878 0.930 . S
H907 C879 0.931 . S
H908 C897 0.930 . S
H909 C898 0.930 . S
H910 C899 0.930 . S
H911 C900 0.931 . S
Eu912 C921 2.828 . S
Eu912 O923 2.392 . S
Eu912 O925 2.418 1_554 S
Eu912 O930 2.373 . S
Eu912 O933 2.488 1_554 S
Eu912 O934 2.471 . S
Eu912 O935 2.349 . S
Eu913 O922 2.382 . S
Eu913 O926 2.467 1_455 S
Eu913 O927 2.449 1_455 S
Eu913 O928 2.362 . S
Eu913 O931 2.407 . S
Eu913 O932 2.432 . S
Eu913 C942 2.803 1_455 S
C914 O932 1.244 . S
C914 O935 1.265 . S
C915 C916 1.379 . S
C915 C919 1.373 1_554 S
C915 C921 1.505 . S
C916 C915 1.379 . S
C916 C918 1.369 . S
C916 H944 0.930 . S
C917 C919 1.383 . S
C917 C920 1.382 1_556 S
C917 H945 0.930 . S
C918 C916 1.369 . S
C918 C920 1.392 . S
C918 H946 0.930 . S
C919 C915 1.373 1_556 S
C919 C917 1.383 . S
C919 H947 0.931 . S
C920 C917 1.382 1_554 S
C920 C918 1.392 . S
C921 Eu912 2.828 . S
C921 C915 1.505 . S
C921 O933 1.249 1_554 S
C921 O934 1.244 . S
O922 Eu913 2.382 . S
O922 C924 1.258 . S
O923 Eu912 2.392 . S
O923 C924 1.242 . S
C924 O922 1.258 . S
C924 O923 1.242 . S
O925 Eu912 2.418 1_556 S
O925 C929 1.244 . S
O926 Eu913 2.467 1_655 S
O926 C942 1.249 . S
O927 Eu913 2.449 1_655 S
O927 C942 1.244 . S
O928 Eu913 2.362 . S
O928 C929 1.265 1_554 S
C929 O925 1.244 . S
C929 O928 1.265 1_556 S
O930 Eu912 2.373 . S
O930 C943 1.258 . S
O931 Eu913 2.407 . S
O931 C943 1.242 . S
O932 Eu913 2.432 . S
O932 C914 1.244 . S
O933 Eu912 2.488 1_556 S
O933 C921 1.249 1_556 S
O934 Eu912 2.471 . S
O934 C921 1.244 . S
O935 Eu912 2.349 . S
O935 C914 1.265 . S
C936 C937 1.379 . S
C936 C940 1.373 . S
C936 C942 1.505 . S
C937 C936 1.379 . S
C937 C939 1.369 . S
C937 H948 0.930 . S
C938 C940 1.383 . S
C938 C941 1.382 . S
C938 H949 0.930 . S
C939 C937 1.369 . S
C939 C941 1.392 . S
C939 H950 0.930 . S
C940 C936 1.373 . S
C940 C938 1.383 . S
C940 H951 0.931 . S
C941 C938 1.382 . S
C941 C939 1.392 . S
C942 Eu913 2.803 1_655 S
C942 O926 1.249 . S
C942 O927 1.244 . S
C942 C936 1.505 . S
C943 O930 1.258 . S
C943 O931 1.242 . S
H944 C916 0.930 . S
H945 C917 0.930 . S
H946 C918 0.930 . S
H947 C919 0.931 . S
H948 C937 0.930 . S
H949 C938 0.930 . S
H950 C939 0.930 . S
H951 C940 0.931 . S
C952 C953 1.391 . S
C952 C954 1.394 . S
C952 H968 0.931 . S
C953 C952 1.391 . S
C953 C957 1.376 1_455 S
C954 C952 1.394 . S
C954 C955 1.369 . S
C954 C958 1.531 . S
C955 C954 1.369 . S
C955 C956 1.410 . S
C955 C963 1.503 . S
C956 C955 1.410 . S
C956 C957 1.392 1_455 S
C956 C959 1.511 1_455 S
C957 C953 1.376 1_655 S
C957 C956 1.392 1_655 S
C957 H969 0.929 . S
C958 C954 1.531 . S
C958 H970 0.960 . S
C958 H971 0.962 . S
C958 H972 0.960 . S
C959 C956 1.511 1_655 S
C959 H973 0.961 . S
C959 H974 0.961 . S
C959 H975 0.961 . S
C960 C961 1.370 . S
C960 C962 1.363 . S
C960 H976 0.931 . S
C961 C960 1.370 . S
C961 C965 1.408 1_556 S
C962 C960 1.363 . S
C962 C963 1.370 . S
C962 C966 1.524 . S
C963 C955 1.503 . S
C963 C962 1.370 . S
C963 C964 1.403 . S
C964 C963 1.403 . S
C964 C965 1.404 1_556 S
C964 C967 1.539 1_556 S
C965 C961 1.408 1_554 S
C965 C964 1.404 1_554 S
C965 H977 0.930 . S
C966 C962 1.524 . S
C966 H978 0.956 . S
C966 H979 0.961 . S
C966 H980 0.961 . S
C967 C964 1.539 1_554 S
C967 H981 0.958 . S
C967 H982 0.961 1_455 S
C967 H983 0.960 1_454 S
H968 C952 0.931 . S
H969 C957 0.929 . S
H970 C958 0.960 . S
H971 C958 0.962 . S
H972 C958 0.960 . S
H973 C959 0.961 . S
H974 C959 0.961 . S
H975 C959 0.961 . S
H976 C960 0.931 . S
H977 C965 0.930 . S
H978 C966 0.956 . S
H979 C966 0.961 . S
H980 C966 0.961 . S
H981 C967 0.958 . S
H982 C967 0.961 1_655 S
H983 C967 0.960 1_656 S
C984 C985 1.391 . S
C984 C986 1.394 . S
C984 H1000 0.931 . S
C985 C984 1.391 . S
C985 C989 1.376 . S
C986 C984 1.394 . S
C986 C987 1.369 . S
C986 C990 1.531 . S
C987 C986 1.369 . S
C987 C988 1.410 . S
C987 C995 1.503 . S
C988 C987 1.410 . S
C988 C989 1.392 . S
C988 C991 1.511 . S
C989 C985 1.376 . S
C989 C988 1.392 . S
C989 H1001 0.929 . S
C990 C986 1.531 . S
C990 H1002 0.960 . S
C990 H1003 0.962 . S
C990 H1004 0.960 . S
C991 C988 1.511 . S
C991 H1005 0.961 . S
C991 H1006 0.961 . S
C991 H1007 0.961 . S
C992 C993 1.370 . S
C992 C994 1.363 . S
C992 H1008 0.931 . S
C993 C992 1.370 . S
C993 C997 1.408 . S
C994 C992 1.363 . S
C994 C995 1.370 . S
C994 C998 1.524 . S
C995 C987 1.503 . S
C995 C994 1.370 . S
C995 C996 1.403 . S
C996 C995 1.403 . S
C996 C997 1.404 . S
C996 C999 1.539 . S
C997 C993 1.408 . S
C997 C996 1.404 . S
C997 H1009 0.930 . S
C998 C994 1.524 . S
C998 H1010 0.956 . S
C998 H1011 0.961 . S
C998 H1012 0.961 . S
C999 C996 1.539 . S
C999 H1013 0.958 . S
C999 H1014 0.961 . S
C999 H1015 0.960 . S
H1000 C984 0.931 . S
H1001 C989 0.929 . S
H1002 C990 0.960 . S
H1003 C990 0.962 . S
H1004 C990 0.960 . S
H1005 C991 0.961 . S
H1006 C991 0.961 . S
H1007 C991 0.961 . S
H1008 C992 0.931 . S
H1009 C997 0.930 . S
H1010 C998 0.956 . S
H1011 C998 0.961 . S
H1012 C998 0.961 . S
H1013 C999 0.958 . S
H1014 C999 0.961 . S
H1015 C999 0.960 . S
C1016 C1017 1.391 . S
C1016 C1018 1.394 . S
C1016 H1032 0.931 . S
C1017 C1016 1.391 . S
C1017 C1021 1.376 . S
C1018 C1016 1.394 . S
C1018 C1019 1.369 . S
C1018 C1022 1.531 . S
C1019 C1018 1.369 . S
C1019 C1020 1.410 . S
C1019 C1027 1.503 . S
C1020 C1019 1.410 . S
C1020 C1021 1.392 . S
C1020 C1023 1.511 . S
C1021 C1017 1.376 . S
C1021 C1020 1.392 . S
C1021 H1033 0.929 . S
C1022 C1018 1.531 . S
C1022 H1034 0.960 . S
C1022 H1035 0.962 . S
C1022 H1036 0.960 . S
C1023 C1020 1.511 . S
C1023 H1037 0.961 . S
C1023 H1038 0.961 . S
C1023 H1039 0.961 . S
C1024 C1025 1.370 . S
C1024 C1026 1.363 . S
C1024 H1040 0.931 . S
C1025 C1024 1.370 . S
C1025 C1029 1.408 . S
C1026 C1024 1.363 . S
C1026 C1027 1.370 . S
C1026 C1030 1.524 . S
C1027 C1019 1.503 . S
C1027 C1026 1.370 . S
C1027 C1028 1.403 . S
C1028 C1027 1.403 . S
C1028 C1029 1.404 . S
C1028 C1031 1.539 . S
C1029 C1025 1.408 . S
C1029 C1028 1.404 . S
C1029 H1041 0.930 . S
C1030 C1026 1.524 . S
C1030 H1042 0.956 . S
C1030 H1043 0.961 . S
C1030 H1044 0.961 . S
C1031 C1028 1.539 . S
C1031 H1045 0.958 . S
C1031 H1046 0.961 . S
C1031 H1047 0.960 . S
H1032 C1016 0.931 . S
H1033 C1021 0.929 . S
H1034 C1022 0.960 . S
H1035 C1022 0.962 . S
H1036 C1022 0.960 . S
H1037 C1023 0.961 . S
H1038 C1023 0.961 . S
H1039 C1023 0.961 . S
H1040 C1024 0.931 . S
H1041 C1029 0.930 . S
H1042 C1030 0.956 . S
H1043 C1030 0.961 . S
H1044 C1030 0.961 . S
H1045 C1031 0.958 . S
H1046 C1031 0.961 . S
H1047 C1031 0.960 . S
C1048 C1049 1.391 . S
C1048 C1050 1.394 . S
C1048 H1064 0.931 . S
C1049 C1048 1.391 . S
C1049 C1053 1.376 . S
C1050 C1048 1.394 . S
C1050 C1051 1.369 . S
C1050 C1054 1.531 . S
C1051 C1050 1.369 . S
C1051 C1052 1.410 . S
C1051 C1059 1.503 . S
C1052 C1051 1.410 . S
C1052 C1053 1.392 . S
C1052 C1055 1.511 . S
C1053 C1049 1.376 . S
C1053 C1052 1.392 . S
C1053 H1065 0.929 . S
C1054 C1050 1.531 . S
C1054 H1066 0.960 . S
C1054 H1067 0.962 . S
C1054 H1068 0.960 . S
C1055 C1052 1.511 . S
C1055 H1069 0.961 . S
C1055 H1070 0.961 . S
C1055 H1071 0.961 . S
C1056 C1057 1.370 . S
C1056 C1058 1.363 . S
C1056 H1072 0.931 . S
C1057 C1056 1.370 . S
C1057 C1061 1.408 . S
C1058 C1056 1.363 . S
C1058 C1059 1.370 . S
C1058 C1062 1.524 . S
C1059 C1051 1.503 . S
C1059 C1058 1.370 . S
C1059 C1060 1.403 . S
C1060 C1059 1.403 . S
C1060 C1061 1.404 . S
C1060 C1063 1.539 . S
C1061 C1057 1.408 . S
C1061 C1060 1.404 . S
C1061 H1073 0.930 . S
C1062 C1058 1.524 . S
C1062 H1074 0.956 . S
C1062 H1075 0.961 . S
C1062 H1076 0.961 . S
C1063 C1060 1.539 . S
C1063 H1077 0.958 . S
C1063 H1078 0.961 . S
C1063 H1079 0.960 . S
H1064 C1048 0.931 . S
H1065 C1053 0.929 . S
H1066 C1054 0.960 . S
H1067 C1054 0.962 . S
H1068 C1054 0.960 . S
H1069 C1055 0.961 . S
H1070 C1055 0.961 . S
H1071 C1055 0.961 . S
H1072 C1056 0.931 . S
H1073 C1061 0.930 . S
H1074 C1062 0.956 . S
H1075 C1062 0.961 . S
H1076 C1062 0.961 . S
H1077 C1063 0.958 . S
H1078 C1063 0.961 . S
H1079 C1063 0.960 . S
C1080 C1081 1.391 . S
C1080 C1082 1.394 . S
C1080 H1096 0.931 . S
C1081 C1080 1.391 . S
C1081 C1085 1.376 . S
C1082 C1080 1.394 . S
C1082 C1083 1.369 . S
C1082 C1086 1.531 . S
C1083 C1082 1.369 . S
C1083 C1084 1.410 . S
C1083 C1091 1.503 . S
C1084 C1083 1.410 . S
C1084 C1085 1.392 . S
C1084 C1087 1.511 . S
C1085 C1081 1.376 . S
C1085 C1084 1.392 . S
C1085 H1097 0.929 1_455 S
C1086 C1082 1.531 . S
C1086 H1098 0.960 . S
C1086 H1099 0.962 . S
C1086 H1100 0.960 . S
C1087 C1084 1.511 . S
C1087 H1101 0.961 1_455 S
C1087 H1102 0.961 . S
C1087 H1103 0.961 1_455 S
C1088 C1089 1.370 . S
C1088 C1090 1.363 . S
C1088 H1104 0.931 . S
C1089 C1088 1.370 . S
C1089 C1093 1.408 . S
C1090 C1088 1.363 . S
C1090 C1091 1.370 . S
C1090 C1094 1.524 . S
C1091 C1083 1.503 . S
C1091 C1090 1.370 . S
C1091 C1092 1.403 . S
C1092 C1091 1.403 . S
C1092 C1093 1.404 . S
C1092 C1095 1.539 . S
C1093 C1089 1.408 . S
C1093 C1092 1.404 . S
C1093 H1105 0.930 . S
C1094 C1090 1.524 . S
C1094 H1106 0.956 . S
C1094 H1107 0.961 . S
C1094 H1108 0.961 . S
C1095 C1092 1.539 . S
C1095 H1109 0.958 . S
C1095 H1110 0.961 . S
C1095 H1111 0.960 . S
H1096 C1080 0.931 . S
H1097 C1085 0.929 1_655 S
H1098 C1086 0.960 . S
H1099 C1086 0.962 . S
H1100 C1086 0.960 . S
H1101 C1087 0.961 1_655 S
H1102 C1087 0.961 . S
H1103 C1087 0.961 1_655 S
H1104 C1088 0.931 . S
H1105 C1093 0.930 . S
H1106 C1094 0.956 . S
H1107 C1094 0.961 . S
H1108 C1094 0.961 . S
H1109 C1095 0.958 . S
H1110 C1095 0.961 . S
H1111 C1095 0.960 . S
C1112 C1113 1.391 . S
C1112 C1114 1.394 . S
C1112 H1128 0.931 . S
C1113 C1112 1.391 . S
C1113 C1117 1.376 . S
C1114 C1112 1.394 . S
C1114 C1115 1.369 . S
C1114 C1118 1.531 . S
C1115 C1114 1.369 . S
C1115 C1116 1.410 . S
C1115 C1123 1.503 . S
C1116 C1115 1.410 . S
C1116 C1117 1.392 . S
C1116 C1119 1.511 . S
C1117 C1113 1.376 . S
C1117 C1116 1.392 . S
C1117 H1129 0.929 . S
C1118 C1114 1.531 . S
C1118 H1130 0.960 . S
C1118 H1131 0.962 . S
C1118 H1132 0.960 . S
C1119 C1116 1.511 . S
C1119 H1133 0.961 . S
C1119 H1134 0.961 . S
C1119 H1135 0.961 . S
C1120 C1121 1.370 . S
C1120 C1122 1.363 . S
C1120 H1136 0.931 . S
C1121 C1120 1.370 . S
C1121 C1125 1.408 . S
C1122 C1120 1.363 . S
C1122 C1123 1.370 . S
C1122 C1126 1.524 . S
C1123 C1115 1.503 . S
C1123 C1122 1.370 . S
C1123 C1124 1.403 . S
C1124 C1123 1.403 . S
C1124 C1125 1.404 . S
C1124 C1127 1.539 . S
C1125 C1121 1.408 . S
C1125 C1124 1.404 . S
C1125 H1137 0.930 . S
C1126 C1122 1.524 . S
C1126 H1138 0.956 . S
C1126 H1139 0.961 . S
C1126 H1140 0.961 . S
C1127 C1124 1.539 . S
C1127 H1141 0.958 . S
C1127 H1142 0.961 . S
C1127 H1143 0.960 . S
H1128 C1112 0.931 . S
H1129 C1117 0.929 . S
H1130 C1118 0.960 . S
H1131 C1118 0.962 . S
H1132 C1118 0.960 . S
H1133 C1119 0.961 . S
H1134 C1119 0.961 . S
H1135 C1119 0.961 . S
H1136 C1120 0.931 . S
H1137 C1125 0.930 . S
H1138 C1126 0.956 . S
H1139 C1126 0.961 . S
H1140 C1126 0.961 . S
H1141 C1127 0.958 . S
H1142 C1127 0.961 . S
H1143 C1127 0.960 . S
C1144 C1145 1.391 . S
C1144 C1146 1.394 . S
C1144 H1160 0.931 . S
C1145 C1144 1.391 . S
C1145 C1149 1.376 . S
C1146 C1144 1.394 . S
C1146 C1147 1.369 . S
C1146 C1150 1.531 . S
C1147 C1146 1.369 . S
C1147 C1148 1.410 . S
C1147 C1155 1.503 . S
C1148 C1147 1.410 . S
C1148 C1149 1.392 . S
C1148 C1151 1.511 . S
C1149 C1145 1.376 . S
C1149 C1148 1.392 . S
C1149 H1161 0.929 . S
C1150 C1146 1.531 . S
C1150 H1162 0.960 . S
C1150 H1163 0.962 . S
C1150 H1164 0.960 . S
C1151 C1148 1.511 . S
C1151 H1165 0.961 . S
C1151 H1166 0.961 . S
C1151 H1167 0.961 . S
C1152 C1153 1.370 . S
C1152 C1154 1.363 . S
C1152 H1168 0.931 . S
C1153 C1152 1.370 . S
C1153 C1157 1.408 . S
C1154 C1152 1.363 . S
C1154 C1155 1.370 . S
C1154 C1158 1.524 . S
C1155 C1147 1.503 . S
C1155 C1154 1.370 . S
C1155 C1156 1.403 . S
C1156 C1155 1.403 . S
C1156 C1157 1.404 . S
C1156 C1159 1.539 . S
C1157 C1153 1.408 . S
C1157 C1156 1.404 . S
C1157 H1169 0.930 . S
C1158 C1154 1.524 . S
C1158 H1170 0.956 . S
C1158 H1171 0.961 . S
C1158 H1172 0.961 . S
C1159 C1156 1.539 . S
C1159 H1173 0.958 . S
C1159 H1174 0.961 . S
C1159 H1175 0.960 . S
H1160 C1144 0.931 . S
H1161 C1149 0.929 . S
H1162 C1150 0.960 . S
H1163 C1150 0.962 . S
H1164 C1150 0.960 . S
H1165 C1151 0.961 . S
H1166 C1151 0.961 . S
H1167 C1151 0.961 . S
H1168 C1152 0.931 . S
H1169 C1157 0.930 . S
H1170 C1158 0.956 . S
H1171 C1158 0.961 . S
H1172 C1158 0.961 . S
H1173 C1159 0.958 . S
H1174 C1159 0.961 . S
H1175 C1159 0.960 . S
C1176 C1177 1.391 . S
C1176 C1178 1.394 . S
C1176 H1192 0.931 . S
C1177 C1176 1.391 . S
C1177 C1181 1.376 . S
C1178 C1176 1.394 . S
C1178 C1179 1.369 . S
C1178 C1182 1.531 . S
C1179 C1178 1.369 . S
C1179 C1180 1.410 . S
C1179 C1187 1.503 . S
C1180 C1179 1.410 . S
C1180 C1181 1.392 . S
C1180 C1183 1.511 . S
C1181 C1177 1.376 . S
C1181 C1180 1.392 . S
C1181 H1193 0.929 . S
C1182 C1178 1.531 . S
C1182 H1194 0.960 . S
C1182 H1195 0.962 . S
C1182 H1196 0.960 . S
C1183 C1180 1.511 . S
C1183 H1197 0.961 . S
C1183 H1198 0.961 . S
C1183 H1199 0.961 . S
C1184 C1185 1.370 . S
C1184 C1186 1.363 . S
C1184 H1200 0.931 . S
C1185 C1184 1.370 . S
C1185 C1189 1.408 . S
C1186 C1184 1.363 . S
C1186 C1187 1.370 . S
C1186 C1190 1.524 . S
C1187 C1179 1.503 . S
C1187 C1186 1.370 . S
C1187 C1188 1.403 . S
C1188 C1187 1.403 . S
C1188 C1189 1.404 . S
C1188 C1191 1.539 . S
C1189 C1185 1.408 . S
C1189 C1188 1.404 . S
C1189 H1201 0.930 . S
C1190 C1186 1.524 . S
C1190 H1202 0.956 . S
C1190 H1203 0.961 . S
C1190 H1204 0.961 . S
C1191 C1188 1.539 . S
C1191 H1205 0.958 . S
C1191 H1206 0.961 . S
C1191 H1207 0.960 . S
H1192 C1176 0.931 . S
H1193 C1181 0.929 . S
H1194 C1182 0.960 . S
H1195 C1182 0.962 . S
H1196 C1182 0.960 . S
H1197 C1183 0.961 . S
H1198 C1183 0.961 . S
H1199 C1183 0.961 . S
H1200 C1184 0.931 . S
H1201 C1189 0.930 . S
H1202 C1190 0.956 . S
H1203 C1190 0.961 . S
H1204 C1190 0.961 . S
H1205 C1191 0.958 . S
H1206 C1191 0.961 . S
H1207 C1191 0.960 . S
C1208 C1209 1.391 . S
C1208 C1210 1.394 . S
C1208 H1224 0.931 . S
C1209 C1208 1.391 . S
C1209 C1213 1.376 . S
C1210 C1208 1.394 . S
C1210 C1211 1.369 . S
C1210 C1214 1.531 1_655 S
C1211 C1210 1.369 . S
C1211 C1212 1.410 . S
C1211 C1219 1.503 1_655 S
C1212 C1211 1.410 . S
C1212 C1213 1.392 . S
C1212 C1215 1.511 . S
C1213 C1209 1.376 . S
C1213 C1212 1.392 . S
C1213 H1225 0.929 . S
C1214 C1210 1.531 1_455 S
C1214 H1226 0.960 . S
C1214 H1227 0.962 . S
C1214 H1228 0.960 . S
C1215 C1212 1.511 . S
C1215 H1229 0.961 . S
C1215 H1230 0.961 . S
C1215 H1231 0.961 . S
C1216 C1217 1.370 . S
C1216 C1218 1.363 . S
C1216 H1232 0.931 . S
C1217 C1216 1.370 . S
C1217 C1221 1.408 . S
C1218 C1216 1.363 . S
C1218 C1219 1.370 . S
C1218 C1222 1.524 . S
C1219 C1211 1.503 1_455 S
C1219 C1218 1.370 . S
C1219 C1220 1.403 1_455 S
C1220 C1219 1.403 1_655 S
C1220 C1221 1.404 1_655 S
C1220 C1223 1.539 . S
C1221 C1217 1.408 . S
C1221 C1220 1.404 1_455 S
C1221 H1233 0.930 . S
C1222 C1218 1.524 . S
C1222 H1234 0.956 . S
C1222 H1235 0.961 . S
C1222 H1236 0.961 . S
C1223 C1220 1.539 . S
C1223 H1237 0.958 . S
C1223 H1238 0.961 . S
C1223 H1239 0.960 . S
H1224 C1208 0.931 . S
H1225 C1213 0.929 . S
H1226 C1214 0.960 . S
H1227 C1214 0.962 . S
H1228 C1214 0.960 . S
H1229 C1215 0.961 . S
H1230 C1215 0.961 . S
H1231 C1215 0.961 . S
H1232 C1216 0.931 . S
H1233 C1221 0.930 . S
H1234 C1222 0.956 . S
H1235 C1222 0.961 . S
H1236 C1222 0.961 . S
H1237 C1223 0.958 . S
H1238 C1223 0.961 . S
H1239 C1223 0.960 . S
C1240 C1241 1.391 . S
C1240 C1242 1.394 . S
C1240 H1256 0.931 . S
C1241 C1240 1.391 . S
C1241 C1245 1.376 . S
C1242 C1240 1.394 . S
C1242 C1243 1.369 . S
C1242 C1246 1.531 . S
C1243 C1242 1.369 . S
C1243 C1244 1.410 . S
C1243 C1251 1.503 . S
C1244 C1243 1.410 . S
C1244 C1245 1.392 . S
C1244 C1247 1.511 . S
C1245 C1241 1.376 . S
C1245 C1244 1.392 . S
C1245 H1257 0.929 . S
C1246 C1242 1.531 . S
C1246 H1258 0.960 . S
C1246 H1259 0.962 . S
C1246 H1260 0.960 . S
C1247 C1244 1.511 . S
C1247 H1261 0.961 . S
C1247 H1262 0.961 . S
C1247 H1263 0.961 . S
C1248 C1249 1.370 . S
C1248 C1250 1.363 . S
C1248 H1264 0.931 . S
C1249 C1248 1.370 . S
C1249 C1253 1.408 . S
C1250 C1248 1.363 . S
C1250 C1251 1.370 . S
C1250 C1254 1.524 . S
C1251 C1243 1.503 . S
C1251 C1250 1.370 . S
C1251 C1252 1.403 . S
C1252 C1251 1.403 . S
C1252 C1253 1.404 . S
C1252 C1255 1.539 . S
C1253 C1249 1.408 . S
C1253 C1252 1.404 . S
C1253 H1265 0.930 . S
C1254 C1250 1.524 . S
C1254 H1266 0.956 . S
C1254 H1267 0.961 . S
C1254 H1268 0.961 . S
C1255 C1252 1.539 . S
C1255 H1269 0.958 . S
C1255 H1270 0.961 . S
C1255 H1271 0.960 . S
H1256 C1240 0.931 . S
H1257 C1245 0.929 . S
H1258 C1246 0.960 . S
H1259 C1246 0.962 . S
H1260 C1246 0.960 . S
H1261 C1247 0.961 . S
H1262 C1247 0.961 . S
H1263 C1247 0.961 . S
H1264 C1248 0.931 . S
H1265 C1253 0.930 . S
H1266 C1254 0.956 . S
H1267 C1254 0.961 . S
H1268 C1254 0.961 . S
H1269 C1255 0.958 . S
H1270 C1255 0.961 . S
H1271 C1255 0.960 . S
C1272 C1273 1.391 . S
C1272 C1274 1.394 . S
C1272 H1288 0.931 . S
C1273 C1272 1.391 . S
C1273 C1277 1.376 . S
C1274 C1272 1.394 . S
C1274 C1275 1.369 . S
C1274 C1278 1.531 . S
C1275 C1274 1.369 . S
C1275 C1276 1.410 . S
C1275 C1283 1.503 . S
C1276 C1275 1.410 . S
C1276 C1277 1.392 . S
C1276 C1279 1.511 . S
C1277 C1273 1.376 . S
C1277 C1276 1.392 . S
C1277 H1289 0.929 . S
C1278 C1274 1.531 . S
C1278 H1290 0.960 . S
C1278 H1291 0.962 . S
C1278 H1292 0.960 . S
C1279 C1276 1.511 . S
C1279 H1293 0.961 . S
C1279 H1294 0.961 . S
C1279 H1295 0.961 . S
C1280 C1281 1.370 . S
C1280 C1282 1.363 . S
C1280 H1296 0.931 1_545 S
C1281 C1280 1.370 . S
C1281 C1285 1.408 . S
C1282 C1280 1.363 . S
C1282 C1283 1.370 . S
C1282 C1286 1.536 . S
C1283 C1275 1.503 . S
C1283 C1282 1.370 . S
C1283 C1284 1.403 . S
C1284 C1283 1.403 . S
C1284 C1285 1.404 . S
C1284 C1287 1.539 . S
C1285 C1281 1.408 . S
C1285 C1284 1.404 . S
C1285 H1297 0.930 . S
C1286 C1282 1.536 . S
C1286 H1298 0.953 1_545 S
C1286 H1299 0.962 . S
C1286 H1300 0.951 1_545 S
C1287 C1284 1.539 . S
C1287 H1301 0.958 . S
C1287 H1302 0.961 . S
C1287 H1303 0.960 . S
H1288 C1272 0.931 . S
H1289 C1277 0.929 . S
H1290 C1278 0.960 . S
H1291 C1278 0.962 . S
H1292 C1278 0.960 . S
H1293 C1279 0.961 . S
H1294 C1279 0.961 . S
H1295 C1279 0.961 . S
H1296 C1280 0.931 1_565 S
H1297 C1285 0.930 . S
H1298 C1286 0.953 1_565 S
H1299 C1286 0.962 . S
H1300 C1286 0.951 1_565 S
H1301 C1287 0.958 . S
H1302 C1287 0.961 . S
H1303 C1287 0.960 . S
C1304 C1305 1.391 . S
C1304 C1306 1.394 . S
C1304 H1320 0.931 . S
C1305 C1304 1.391 . S
C1305 C1309 1.376 . S
C1306 C1304 1.394 . S
C1306 C1307 1.369 . S
C1306 C1310 1.531 . S
C1307 C1306 1.369 . S
C1307 C1308 1.410 . S
C1307 C1315 1.503 . S
C1308 C1307 1.410 . S
C1308 C1309 1.392 . S
C1308 C1311 1.511 . S
C1309 C1305 1.376 . S
C1309 C1308 1.392 . S
C1309 H1321 0.929 . S
C1310 C1306 1.531 . S
C1310 H1322 0.960 . S
C1310 H1323 0.962 . S
C1310 H1324 0.960 . S
C1311 C1308 1.511 . S
C1311 H1325 0.961 . S
C1311 H1326 0.961 . S
C1311 H1327 0.961 . S
C1312 C1313 1.370 . S
C1312 C1314 1.363 . S
C1312 H1328 0.931 . S
C1313 C1312 1.370 . S
C1313 C1317 1.408 . S
C1314 C1312 1.363 . S
C1314 C1315 1.370 . S
C1314 C1318 1.524 . S
C1315 C1307 1.503 . S
C1315 C1314 1.370 . S
C1315 C1316 1.403 . S
C1316 C1315 1.403 . S
C1316 C1317 1.404 . S
C1316 C1319 1.539 . S
C1317 C1313 1.408 . S
C1317 C1316 1.404 . S
C1317 H1329 0.930 . S
C1318 C1314 1.524 . S
C1318 H1330 0.956 . S
C1318 H1331 0.961 . S
C1318 H1332 0.961 . S
C1319 C1316 1.539 . S
C1319 H1333 0.958 . S
C1319 H1334 0.961 . S
C1319 H1335 0.960 . S
H1320 C1304 0.931 . S
H1321 C1309 0.929 . S
H1322 C1310 0.960 . S
H1323 C1310 0.962 . S
H1324 C1310 0.960 . S
H1325 C1311 0.961 . S
H1326 C1311 0.961 . S
H1327 C1311 0.961 . S
H1328 C1312 0.931 . S
H1329 C1317 0.930 . S
H1330 C1318 0.956 . S
H1331 C1318 0.961 . S
H1332 C1318 0.961 . S
H1333 C1319 0.958 . S
H1334 C1319 0.961 . S
H1335 C1319 0.960 . S
C1336 C1337 1.391 . S
C1336 C1338 1.394 . S
C1336 H1352 0.931 . S
C1337 C1336 1.391 . S
C1337 C1341 1.376 . S
C1338 C1336 1.394 . S
C1338 C1339 1.369 . S
C1338 C1342 1.531 1_655 S
C1339 C1338 1.369 . S
C1339 C1340 1.410 . S
C1339 C1347 1.503 1_655 S
C1340 C1339 1.410 . S
C1340 C1341 1.392 . S
C1340 C1343 1.511 . S
C1341 C1337 1.376 . S
C1341 C1340 1.392 . S
C1341 H1353 0.929 . S
C1342 C1338 1.531 1_455 S
C1342 H1354 0.960 . S
C1342 H1355 0.973 . S
C1342 H1356 0.960 . S
C1343 C1340 1.511 . S
C1343 H1357 0.961 . S
C1343 H1358 0.961 . S
C1343 H1359 0.961 . S
C1344 C1345 1.370 . S
C1344 C1346 1.363 1_455 S
C1344 H1360 0.929 . S
C1345 C1344 1.370 . S
C1345 C1349 1.408 . S
C1346 C1344 1.363 1_655 S
C1346 C1347 1.370 1_655 S
C1346 C1350 1.524 . S
C1347 C1339 1.503 1_455 S
C1347 C1346 1.370 1_455 S
C1347 C1348 1.403 . S
C1348 C1347 1.403 . S
C1348 C1349 1.404 . S
C1348 C1351 1.539 . S
C1349 C1345 1.408 . S
C1349 C1348 1.404 . S
C1349 H1361 0.930 . S
C1350 C1346 1.524 . S
C1350 H1362 0.956 . S
C1350 H1363 0.961 . S
C1350 H1364 0.961 . S
C1351 C1348 1.539 . S
C1351 H1365 0.958 . S
C1351 H1366 0.961 . S
C1351 H1367 0.960 . S
H1352 C1336 0.931 . S
H1353 C1341 0.929 . S
H1354 C1342 0.960 . S
H1355 C1342 0.973 . S
H1356 C1342 0.960 . S
H1357 C1343 0.961 . S
H1358 C1343 0.961 . S
H1359 C1343 0.961 . S
H1360 C1344 0.929 . S
H1361 C1349 0.930 . S
H1362 C1350 0.956 . S
H1363 C1350 0.961 . S
H1364 C1350 0.961 . S
H1365 C1351 0.958 . S
H1366 C1351 0.961 . S
H1367 C1351 0.960 . S
C1368 C1369 1.391 . S
C1368 C1370 1.394 . S
C1368 H1384 0.931 . S
C1369 C1368 1.391 . S
C1369 C1373 1.376 . S
C1370 C1368 1.394 . S
C1370 C1371 1.369 . S
C1370 C1374 1.531 . S
C1371 C1370 1.369 . S
C1371 C1372 1.410 . S
C1371 C1379 1.503 . S
C1372 C1371 1.410 . S
C1372 C1373 1.392 . S
C1372 C1375 1.511 . S
C1373 C1369 1.376 . S
C1373 C1372 1.392 . S
C1373 H1385 0.929 . S
C1374 C1370 1.531 . S
C1374 H1386 0.960 . S
C1374 H1387 0.962 . S
C1374 H1388 0.960 . S
C1375 C1372 1.511 . S
C1375 H1389 0.961 . S
C1375 H1390 0.961 . S
C1375 H1391 0.961 . S
C1376 C1377 1.370 . S
C1376 C1378 1.363 . S
C1376 H1392 0.931 . S
C1377 C1376 1.370 . S
C1377 C1381 1.408 . S
C1378 C1376 1.363 . S
C1378 C1379 1.370 . S
C1378 C1382 1.524 . S
C1379 C1371 1.503 . S
C1379 C1378 1.370 . S
C1379 C1380 1.403 . S
C1380 C1379 1.403 . S
C1380 C1381 1.404 . S
C1380 C1383 1.539 . S
C1381 C1377 1.408 . S
C1381 C1380 1.404 . S
C1381 H1393 0.930 . S
C1382 C1378 1.524 . S
C1382 H1394 0.956 . S
C1382 H1395 0.961 . S
C1382 H1396 0.961 . S
C1383 C1380 1.539 . S
C1383 H1397 0.958 . S
C1383 H1398 0.961 . S
C1383 H1399 0.960 . S
H1384 C1368 0.931 . S
H1385 C1373 0.929 . S
H1386 C1374 0.960 . S
H1387 C1374 0.962 . S
H1388 C1374 0.960 . S
H1389 C1375 0.961 . S
H1390 C1375 0.961 . S
H1391 C1375 0.961 . S
H1392 C1376 0.931 . S
H1393 C1381 0.930 . S
H1394 C1382 0.956 . S
H1395 C1382 0.961 . S
H1396 C1382 0.961 . S
H1397 C1383 0.958 . S
H1398 C1383 0.961 . S
H1399 C1383 0.960 . S
C1400 C1401 1.391 . S
C1400 C1402 1.394 . S
C1400 H1416 0.931 . S
C1401 C1400 1.391 . S
C1401 C1405 1.376 . S
C1402 C1400 1.394 . S
C1402 C1403 1.369 . S
C1402 C1406 1.531 . S
C1403 C1402 1.369 . S
C1403 C1404 1.410 . S
C1403 C1411 1.503 . S
C1404 C1403 1.410 . S
C1404 C1405 1.392 . S
C1404 C1407 1.511 . S
C1405 C1401 1.376 . S
C1405 C1404 1.392 . S
C1405 H1417 0.929 . S
C1406 C1402 1.531 . S
C1406 H1418 0.960 . S
C1406 H1419 0.962 . S
C1406 H1420 0.960 . S
C1407 C1404 1.511 . S
C1407 H1421 0.961 . S
C1407 H1422 0.961 . S
C1407 H1423 0.961 . S
C1408 C1409 1.370 . S
C1408 C1410 1.363 . S
C1408 H1424 0.931 . S
C1409 C1408 1.370 . S
C1409 C1413 1.408 . S
C1410 C1408 1.363 . S
C1410 C1411 1.370 . S
C1410 C1414 1.524 . S
C1411 C1403 1.503 . S
C1411 C1410 1.370 . S
C1411 C1412 1.403 . S
C1412 C1411 1.403 . S
C1412 C1413 1.404 . S
C1412 C1415 1.539 . S
C1413 C1409 1.408 . S
C1413 C1412 1.404 . S
C1413 H1425 0.930 . S
C1414 C1410 1.524 . S
C1414 H1426 0.956 . S
C1414 H1427 0.961 . S
C1414 H1428 0.961 . S
C1415 C1412 1.539 . S
C1415 H1429 0.958 . S
C1415 H1430 0.961 . S
C1415 H1431 0.960 . S
H1416 C1400 0.931 . S
H1417 C1405 0.929 . S
H1418 C1406 0.960 . S
H1419 C1406 0.962 . S
H1420 C1406 0.960 . S
H1421 C1407 0.961 . S
H1422 C1407 0.961 . S
H1423 C1407 0.961 . S
H1424 C1408 0.931 . S
H1425 C1413 0.930 . S
H1426 C1414 0.956 . S
H1427 C1414 0.961 . S
H1428 C1414 0.961 . S
H1429 C1415 0.958 . S
H1430 C1415 0.961 . S
H1431 C1415 0.960 . S
C1432 C1433 1.391 . S
C1432 C1434 1.394 . S
C1432 H1448 0.931 . S
C1433 C1432 1.391 . S
C1433 C1437 1.376 . S
C1434 C1432 1.394 . S
C1434 C1435 1.369 . S
C1434 C1438 1.531 . S
C1435 C1434 1.369 . S
C1435 C1436 1.410 . S
C1435 C1443 1.503 . S
C1436 C1435 1.410 . S
C1436 C1437 1.392 . S
C1436 C1439 1.511 . S
C1437 C1433 1.376 . S
C1437 C1436 1.392 . S
C1437 H1449 0.929 . S
C1438 C1434 1.531 . S
C1438 H1450 0.960 . S
C1438 H1451 0.962 . S
C1438 H1452 0.960 . S
C1439 C1436 1.511 . S
C1439 H1453 0.961 . S
C1439 H1454 0.961 . S
C1439 H1455 0.961 . S
C1440 C1441 1.370 . S
C1440 C1442 1.363 . S
C1440 H1456 0.931 . S
C1441 C1440 1.370 . S
C1441 C1445 1.408 . S
C1442 C1440 1.363 . S
C1442 C1443 1.370 . S
C1442 C1446 1.524 . S
C1443 C1435 1.503 . S
C1443 C1442 1.370 . S
C1443 C1444 1.403 . S
C1444 C1443 1.403 . S
C1444 C1445 1.404 . S
C1444 C1447 1.539 . S
C1445 C1441 1.408 . S
C1445 C1444 1.404 . S
C1445 H1457 0.930 . S
C1446 C1442 1.524 . S
C1446 H1458 0.956 . S
C1446 H1459 0.961 . S
C1446 H1460 0.961 . S
C1447 C1444 1.539 . S
C1447 H1461 0.958 . S
C1447 H1462 0.961 . S
C1447 H1463 0.960 . S
H1448 C1432 0.931 . S
H1449 C1437 0.929 . S
H1450 C1438 0.960 . S
H1451 C1438 0.962 . S
H1452 C1438 0.960 . S
H1453 C1439 0.961 . S
H1454 C1439 0.961 . S
H1455 C1439 0.961 . S
H1456 C1440 0.931 . S
H1457 C1445 0.930 . S
H1458 C1446 0.956 . S
H1459 C1446 0.961 . S
H1460 C1446 0.961 . S
H1461 C1447 0.958 . S
H1462 C1447 0.961 . S
H1463 C1447 0.960 . S
C1464 C1465 1.391 . S
C1464 C1466 1.394 . S
C1464 H1480 0.931 . S
C1465 C1464 1.391 . S
C1465 C1469 1.376 . S
C1466 C1464 1.394 . S
C1466 C1467 1.369 . S
C1466 C1470 1.531 . S
C1467 C1466 1.369 . S
C1467 C1468 1.410 1_565 S
C1467 C1475 1.503 1_565 S
C1468 C1467 1.410 1_545 S
C1468 C1469 1.392 1_545 S
C1468 C1471 1.511 . S
C1469 C1465 1.376 . S
C1469 C1468 1.392 1_565 S
C1469 H1481 0.929 1_565 S
C1470 C1466 1.531 . S
C1470 H1482 0.960 . S
C1470 H1483 0.962 . S
C1470 H1484 0.960 . S
C1471 C1468 1.511 . S
C1471 H1485 0.961 . S
C1471 H1486 0.961 . S
C1471 H1487 0.961 . S
C1472 C1473 1.370 . S
C1472 C1474 1.363 . S
C1472 H1488 0.931 . S
C1473 C1472 1.370 . S
C1473 C1477 1.408 . S
C1474 C1472 1.363 . S
C1474 C1475 1.370 . S
C1474 C1478 1.524 1_544 S
C1475 C1467 1.503 1_545 S
C1475 C1474 1.370 . S
C1475 C1476 1.403 . S
C1476 C1475 1.403 . S
C1476 C1477 1.404 . S
C1476 C1479 1.539 . S
C1477 C1473 1.408 . S
C1477 C1476 1.404 . S
C1477 H1489 0.930 . S
C1478 C1474 1.524 1_566 S
C1478 H1490 0.956 . S
C1478 H1491 0.961 1_565 S
C1478 H1492 0.961 . S
C1479 C1476 1.539 . S
C1479 H1493 0.959 1_545 S
C1479 H1494 0.961 . S
C1479 H1495 0.960 . S
H1480 C1464 0.931 . S
H1481 C1469 0.929 1_545 S
H1482 C1470 0.960 . S
H1483 C1470 0.962 . S
H1484 C1470 0.960 . S
H1485 C1471 0.961 . S
H1486 C1471 0.961 . S
H1487 C1471 0.961 . S
H1488 C1472 0.931 . S
H1489 C1477 0.930 . S
H1490 C1478 0.956 . S
H1491 C1478 0.961 1_545 S
H1492 C1478 0.961 . S
H1493 C1479 0.959 1_565 S
H1494 C1479 0.961 . S
H1495 C1479 0.960 . S
C1496 C1497 1.391 . S
C1496 C1498 1.394 . S
C1496 H1512 0.931 . S
C1497 C1496 1.391 . S
C1497 C1501 1.376 1_554 S
C1498 C1496 1.394 . S
C1498 C1499 1.369 . S
C1498 C1502 1.531 . S
C1499 C1498 1.369 . S
C1499 C1500 1.410 1_554 S
C1499 C1507 1.503 . S
C1500 C1499 1.410 1_556 S
C1500 C1501 1.392 . S
C1500 C1503 1.511 . S
C1501 C1497 1.376 1_556 S
C1501 C1500 1.392 . S
C1501 H1513 0.929 . S
C1502 C1498 1.531 . S
C1502 H1514 0.960 . S
C1502 H1515 0.962 . S
C1502 H1516 0.960 . S
C1503 C1500 1.511 . S
C1503 H1517 0.961 . S
C1503 H1518 0.961 . S
C1503 H1519 0.961 . S
C1504 C1505 1.370 1_556 S
C1504 C1506 1.363 . S
C1504 H1520 0.931 . S
C1505 C1504 1.370 1_554 S
C1505 C1509 1.408 . S
C1506 C1504 1.363 . S
C1506 C1507 1.370 1_556 S
C1506 C1510 1.524 . S
C1507 C1499 1.503 . S
C1507 C1506 1.370 1_554 S
C1507 C1508 1.403 . S
C1508 C1507 1.403 . S
C1508 C1509 1.404 . S
C1508 C1511 1.539 . S
C1509 C1505 1.408 . S
C1509 C1508 1.404 . S
C1509 H1521 0.930 . S
C1510 C1506 1.524 . S
C1510 H1522 0.956 1_556 S
C1510 H1523 0.961 . S
C1510 H1524 0.961 . S
C1511 C1508 1.539 . S
C1511 H1525 0.958 . S
C1511 H1526 0.961 . S
C1511 H1527 0.960 . S
H1512 C1496 0.931 . S
H1513 C1501 0.929 . S
H1514 C1502 0.960 . S
H1515 C1502 0.962 . S
H1516 C1502 0.960 . S
H1517 C1503 0.961 . S
H1518 C1503 0.961 . S
H1519 C1503 0.961 . S
H1520 C1504 0.931 . S
H1521 C1509 0.930 . S
H1522 C1510 0.956 1_554 S
H1523 C1510 0.961 . S
H1524 C1510 0.961 . S
H1525 C1511 0.958 . S
H1526 C1511 0.961 . S
H1527 C1511 0.960 . S
C1528 C1529 1.391 . S
C1528 C1530 1.394 . S
C1528 H1544 0.931 . S
C1529 C1528 1.391 . S
C1529 C1533 1.376 . S
C1530 C1528 1.394 . S
C1530 C1531 1.369 . S
C1530 C1534 1.531 . S
C1531 C1530 1.369 . S
C1531 C1532 1.410 . S
C1531 C1539 1.503 . S
C1532 C1531 1.410 . S
C1532 C1533 1.392 . S
C1532 C1535 1.511 . S
C1533 C1529 1.376 . S
C1533 C1532 1.392 . S
C1533 H1545 0.929 . S
C1534 C1530 1.531 . S
C1534 H1546 0.960 . S
C1534 H1547 0.962 . S
C1534 H1548 0.960 . S
C1535 C1532 1.511 . S
C1535 H1549 0.961 . S
C1535 H1550 0.961 . S
C1535 H1551 0.961 . S
C1536 C1537 1.370 . S
C1536 C1538 1.363 . S
C1536 H1552 0.931 . S
C1537 C1536 1.370 . S
C1537 C1541 1.408 . S
C1538 C1536 1.363 . S
C1538 C1539 1.370 . S
C1538 C1542 1.524 . S
C1539 C1531 1.503 . S
C1539 C1538 1.370 . S
C1539 C1540 1.403 . S
C1540 C1539 1.403 . S
C1540 C1541 1.404 . S
C1540 C1543 1.539 . S
C1541 C1537 1.408 . S
C1541 C1540 1.404 . S
C1541 H1553 0.930 . S
C1542 C1538 1.524 . S
C1542 H1554 0.956 . S
C1542 H1555 0.961 . S
C1542 H1556 0.961 . S
C1543 C1540 1.539 . S
C1543 H1557 0.958 . S
C1543 H1558 0.961 . S
C1543 H1559 0.960 . S
H1544 C1528 0.931 . S
H1545 C1533 0.929 . S
H1546 C1534 0.960 . S
H1547 C1534 0.962 . S
H1548 C1534 0.960 . S
H1549 C1535 0.961 . S
H1550 C1535 0.961 . S
H1551 C1535 0.961 . S
H1552 C1536 0.931 . S
H1553 C1541 0.930 . S
H1554 C1542 0.956 . S
H1555 C1542 0.961 . S
H1556 C1542 0.961 . S
H1557 C1543 0.958 . S
H1558 C1543 0.961 . S
H1559 C1543 0.960 . S
C1560 C1561 1.391 . S
C1560 C1562 1.394 . S
C1560 H1576 0.931 . S
C1561 C1560 1.391 . S
C1561 C1565 1.376 . S
C1562 C1560 1.394 . S
C1562 C1563 1.369 . S
C1562 C1566 1.531 . S
C1563 C1562 1.369 . S
C1563 C1564 1.410 . S
C1563 C1571 1.503 . S
C1564 C1563 1.410 . S
C1564 C1565 1.392 . S
C1564 C1567 1.511 . S
C1565 C1561 1.376 . S
C1565 C1564 1.392 . S
C1565 H1577 0.929 . S
C1566 C1562 1.531 . S
C1566 H1578 0.960 . S
C1566 H1579 0.962 . S
C1566 H1580 0.960 . S
C1567 C1564 1.511 . S
C1567 H1581 0.961 . S
C1567 H1582 0.961 . S
C1567 H1583 0.961 . S
C1568 C1569 1.370 . S
C1568 C1570 1.363 . S
C1568 H1584 0.931 . S
C1569 C1568 1.370 . S
C1569 C1573 1.408 . S
C1570 C1568 1.363 . S
C1570 C1571 1.370 . S
C1570 C1574 1.524 . S
C1571 C1563 1.503 . S
C1571 C1570 1.370 . S
C1571 C1572 1.403 . S
C1572 C1571 1.403 . S
C1572 C1573 1.404 . S
C1572 C1575 1.539 . S
C1573 C1569 1.408 . S
C1573 C1572 1.404 . S
C1573 H1585 0.930 . S
C1574 C1570 1.524 . S
C1574 H1586 0.956 . S
C1574 H1587 0.961 . S
C1574 H1588 0.961 . S
C1575 C1572 1.539 . S
C1575 H1589 0.958 . S
C1575 H1590 0.961 . S
C1575 H1591 0.960 . S
H1576 C1560 0.931 . S
H1577 C1565 0.929 . S
H1578 C1566 0.960 . S
H1579 C1566 0.962 . S
H1580 C1566 0.960 . S
H1581 C1567 0.961 . S
H1582 C1567 0.961 . S
H1583 C1567 0.961 . S
H1584 C1568 0.931 . S
H1585 C1573 0.930 . S
H1586 C1574 0.956 . S
H1587 C1574 0.961 . S
H1588 C1574 0.961 . S
H1589 C1575 0.958 . S
H1590 C1575 0.961 . S
H1591 C1575 0.960 . S
C1592 C1593 1.391 . S
C1592 C1594 1.394 . S
C1592 H1608 0.931 . S
C1593 C1592 1.391 . S
C1593 C1597 1.376 . S
C1594 C1592 1.394 . S
C1594 C1595 1.369 . S
C1594 C1598 1.531 . S
C1595 C1594 1.369 . S
C1595 C1596 1.410 . S
C1595 C1603 1.503 . S
C1596 C1595 1.410 . S
C1596 C1597 1.392 . S
C1596 C1599 1.511 . S
C1597 C1593 1.376 . S
C1597 C1596 1.392 . S
C1597 H1609 0.929 . S
C1598 C1594 1.531 . S
C1598 H1610 0.960 . S
C1598 H1611 0.962 . S
C1598 H1612 0.960 . S
C1599 C1596 1.511 . S
C1599 H1613 0.961 . S
C1599 H1614 0.961 . S
C1599 H1615 0.961 . S
C1600 C1601 1.370 . S
C1600 C1602 1.363 . S
C1600 H1616 0.931 . S
C1601 C1600 1.370 . S
C1601 C1605 1.408 . S
C1602 C1600 1.363 . S
C1602 C1603 1.370 . S
C1602 C1606 1.524 . S
C1603 C1595 1.503 . S
C1603 C1602 1.370 . S
C1603 C1604 1.403 . S
C1604 C1603 1.403 . S
C1604 C1605 1.404 . S
C1604 C1607 1.539 . S
C1605 C1601 1.408 . S
C1605 C1604 1.404 . S
C1605 H1617 0.930 . S
C1606 C1602 1.524 . S
C1606 H1618 0.956 . S
C1606 H1619 0.961 . S
C1606 H1620 0.961 . S
C1607 C1604 1.539 . S
C1607 H1621 0.958 . S
C1607 H1622 0.961 . S
C1607 H1623 0.960 . S
H1608 C1592 0.931 . S
H1609 C1597 0.929 . S
H1610 C1598 0.960 . S
H1611 C1598 0.962 . S
H1612 C1598 0.960 . S
H1613 C1599 0.961 . S
H1614 C1599 0.961 . S
H1615 C1599 0.961 . S
H1616 C1600 0.931 . S
H1617 C1605 0.930 . S
H1618 C1606 0.956 . S
H1619 C1606 0.961 . S
H1620 C1606 0.961 . S
H1621 C1607 0.958 . S
H1622 C1607 0.961 . S
H1623 C1607 0.960 . S
C1624 C1625 1.391 . S
C1624 C1626 1.394 . S
C1624 H1640 0.931 . S
C1625 C1624 1.391 . S
C1625 C1629 1.376 . S
C1626 C1624 1.394 . S
C1626 C1627 1.369 . S
C1626 C1630 1.531 . S
C1627 C1626 1.369 . S
C1627 C1628 1.410 . S
C1627 C1635 1.503 . S
C1628 C1627 1.410 . S
C1628 C1629 1.392 . S
C1628 C1631 1.511 . S
C1629 C1625 1.376 . S
C1629 C1628 1.392 . S
C1629 H1641 0.929 . S
C1630 C1626 1.531 . S
C1630 H1642 0.960 . S
C1630 H1643 0.962 . S
C1630 H1644 0.960 . S
C1631 C1628 1.511 . S
C1631 H1645 0.961 . S
C1631 H1646 0.961 . S
C1631 H1647 0.961 . S
C1632 C1633 1.370 . S
C1632 C1634 1.363 . S
C1632 H1648 0.931 . S
C1633 C1632 1.370 . S
C1633 C1637 1.408 . S
C1634 C1632 1.363 . S
C1634 C1635 1.370 . S
C1634 C1638 1.524 . S
C1635 C1627 1.503 . S
C1635 C1634 1.370 . S
C1635 C1636 1.403 . S
C1636 C1635 1.403 . S
C1636 C1637 1.404 . S
C1636 C1639 1.539 . S
C1637 C1633 1.408 . S
C1637 C1636 1.404 . S
C1637 H1649 0.930 . S
C1638 C1634 1.524 . S
C1638 H1650 0.956 . S
C1638 H1651 0.961 . S
C1638 H1652 0.961 . S
C1639 C1636 1.539 . S
C1639 H1653 0.958 . S
C1639 H1654 0.961 . S
C1639 H1655 0.960 . S
H1640 C1624 0.931 . S
H1641 C1629 0.929 . S
H1642 C1630 0.960 . S
H1643 C1630 0.962 . S
H1644 C1630 0.960 . S
H1645 C1631 0.961 . S
H1646 C1631 0.961 . S
H1647 C1631 0.961 . S
H1648 C1632 0.931 . S
H1649 C1637 0.930 . S
H1650 C1638 0.956 . S
H1651 C1638 0.961 . S
H1652 C1638 0.961 . S
H1653 C1639 0.958 . S
H1654 C1639 0.961 . S
H1655 C1639 0.960 . S
C1656 C1657 1.391 . S
C1656 C1658 1.394 . S
C1656 H1672 0.931 . S
C1657 C1656 1.391 . S
C1657 C1661 1.376 . S
C1658 C1656 1.394 . S
C1658 C1659 1.369 . S
C1658 C1662 1.531 . S
C1659 C1658 1.369 . S
C1659 C1660 1.410 . S
C1659 C1667 1.503 . S
C1660 C1659 1.410 . S
C1660 C1661 1.392 . S
C1660 C1663 1.511 . S
C1661 C1657 1.376 . S
C1661 C1660 1.392 . S
C1661 H1673 0.929 . S
C1662 C1658 1.531 . S
C1662 H1674 0.960 . S
C1662 H1675 0.962 . S
C1662 H1676 0.960 . S
C1663 C1660 1.511 . S
C1663 H1677 0.961 . S
C1663 H1678 0.961 . S
C1663 H1679 0.961 . S
C1664 C1665 1.370 . S
C1664 C1666 1.363 . S
C1664 H1680 0.931 . S
C1665 C1664 1.370 . S
C1665 C1669 1.408 . S
C1666 C1664 1.363 . S
C1666 C1667 1.370 . S
C1666 C1670 1.524 . S
C1667 C1659 1.503 . S
C1667 C1666 1.370 . S
C1667 C1668 1.403 . S
C1668 C1667 1.403 . S
C1668 C1669 1.404 . S
C1668 C1671 1.539 . S
C1669 C1665 1.408 . S
C1669 C1668 1.404 . S
C1669 H1681 0.930 . S
C1670 C1666 1.524 . S
C1670 H1682 0.956 . S
C1670 H1683 0.961 . S
C1670 H1684 0.961 . S
C1671 C1668 1.539 . S
C1671 H1685 0.958 . S
C1671 H1686 0.961 . S
C1671 H1687 0.960 . S
H1672 C1656 0.931 . S
H1673 C1661 0.929 . S
H1674 C1662 0.960 . S
H1675 C1662 0.962 . S
H1676 C1662 0.960 . S
H1677 C1663 0.961 . S
H1678 C1663 0.961 . S
H1679 C1663 0.961 . S
H1680 C1664 0.931 . S
H1681 C1669 0.930 . S
H1682 C1670 0.956 . S
H1683 C1670 0.961 . S
H1684 C1670 0.961 . S
H1685 C1671 0.958 . S
H1686 C1671 0.961 . S
H1687 C1671 0.960 . S
C1688 C1689 1.391 . S
C1688 C1690 1.394 . S
C1688 H1704 0.931 . S
C1689 C1688 1.391 . S
C1689 C1693 1.376 . S
C1690 C1688 1.394 . S
C1690 C1691 1.369 . S
C1690 C1694 1.531 . S
C1691 C1690 1.369 . S
C1691 C1692 1.410 . S
C1691 C1699 1.503 . S
C1692 C1691 1.410 . S
C1692 C1693 1.392 . S
C1692 C1695 1.511 . S
C1693 C1689 1.376 . S
C1693 C1692 1.392 . S
C1693 H1705 0.929 . S
C1694 C1690 1.531 . S
C1694 H1706 0.960 . S
C1694 H1707 0.962 . S
C1694 H1708 0.960 . S
C1695 C1692 1.511 . S
C1695 H1709 0.961 . S
C1695 H1710 0.961 . S
C1695 H1711 0.961 . S
C1696 C1697 1.370 . S
C1696 C1698 1.363 . S
C1696 H1712 0.931 . S
C1697 C1696 1.370 . S
C1697 C1701 1.408 . S
C1698 C1696 1.363 . S
C1698 C1699 1.370 . S
C1698 C1702 1.524 . S
C1699 C1691 1.503 . S
C1699 C1698 1.370 . S
C1699 C1700 1.403 . S
C1700 C1699 1.403 . S
C1700 C1701 1.404 . S
C1700 C1703 1.539 . S
C1701 C1697 1.408 . S
C1701 C1700 1.404 . S
C1701 H1713 0.930 . S
C1702 C1698 1.524 . S
C1702 H1714 0.956 . S
C1702 H1715 0.961 . S
C1702 H1716 0.961 . S
C1703 C1700 1.539 . S
C1703 H1717 0.958 . S
C1703 H1718 0.961 . S
C1703 H1719 0.960 . S
H1704 C1688 0.931 . S
H1705 C1693 0.929 . S
H1706 C1694 0.960 . S
H1707 C1694 0.962 . S
H1708 C1694 0.960 . S
H1709 C1695 0.961 . S
H1710 C1695 0.961 . S
H1711 C1695 0.961 . S
H1712 C1696 0.931 . S
H1713 C1701 0.930 . S
H1714 C1702 0.956 . S
H1715 C1702 0.961 . S
H1716 C1702 0.961 . S
H1717 C1703 0.958 . S
H1718 C1703 0.961 . S
H1719 C1703 0.960 . S
C1720 C1721 1.391 . S
C1720 C1722 1.394 . S
C1720 H1736 0.931 . S
C1721 C1720 1.391 . S
C1721 C1725 1.376 . S
C1722 C1720 1.394 . S
C1722 C1723 1.369 . S
C1722 C1726 1.531 . S
C1723 C1722 1.369 . S
C1723 C1724 1.410 . S
C1723 C1731 1.503 . S
C1724 C1723 1.410 . S
C1724 C1725 1.392 . S
C1724 C1727 1.511 . S
C1725 C1721 1.376 . S
C1725 C1724 1.392 . S
C1725 H1737 0.929 . S
C1726 C1722 1.531 . S
C1726 H1738 0.960 . S
C1726 H1739 0.962 . S
C1726 H1740 0.960 . S
C1727 C1724 1.511 . S
C1727 H1741 0.961 . S
C1727 H1742 0.961 . S
C1727 H1743 0.961 . S
C1728 C1729 1.370 . S
C1728 C1730 1.363 . S
C1728 H1744 0.931 . S
C1729 C1728 1.370 . S
C1729 C1733 1.408 . S
C1730 C1728 1.363 . S
C1730 C1731 1.370 . S
C1730 C1734 1.524 . S
C1731 C1723 1.503 . S
C1731 C1730 1.370 . S
C1731 C1732 1.403 . S
C1732 C1731 1.403 . S
C1732 C1733 1.404 . S
C1732 C1735 1.539 . S
C1733 C1729 1.408 . S
C1733 C1732 1.404 . S
C1733 H1745 0.930 . S
C1734 C1730 1.524 . S
C1734 H1746 0.956 . S
C1734 H1747 0.961 . S
C1734 H1748 0.961 . S
C1735 C1732 1.539 . S
C1735 H1749 0.958 . S
C1735 H1750 0.961 . S
C1735 H1751 0.960 . S
H1736 C1720 0.931 . S
H1737 C1725 0.929 . S
H1738 C1726 0.960 . S
H1739 C1726 0.962 . S
H1740 C1726 0.960 . S
H1741 C1727 0.961 . S
H1742 C1727 0.961 . S
H1743 C1727 0.961 . S
H1744 C1728 0.931 . S
H1745 C1733 0.930 . S
H1746 C1734 0.956 . S
H1747 C1734 0.961 . S
H1748 C1734 0.961 . S
H1749 C1735 0.958 . S
H1750 C1735 0.961 . S
H1751 C1735 0.960 . S
C1752 C1753 1.391 . S
C1752 C1754 1.394 . S
C1752 H1768 0.931 . S
C1753 C1752 1.391 . S
C1753 C1757 1.376 . S
C1754 C1752 1.394 . S
C1754 C1755 1.369 . S
C1754 C1758 1.531 . S
C1755 C1754 1.369 . S
C1755 C1756 1.410 . S
C1755 C1763 1.503 . S
C1756 C1755 1.410 . S
C1756 C1757 1.392 . S
C1756 C1759 1.511 . S
C1757 C1753 1.376 . S
C1757 C1756 1.392 . S
C1757 H1769 0.929 . S
C1758 C1754 1.531 . S
C1758 H1770 0.960 . S
C1758 H1771 0.962 . S
C1758 H1772 0.960 . S
C1759 C1756 1.511 . S
C1759 H1773 0.961 . S
C1759 H1774 0.961 . S
C1759 H1775 0.961 . S
C1760 C1761 1.370 . S
C1760 C1762 1.363 . S
C1760 H1776 0.931 . S
C1761 C1760 1.370 . S
C1761 C1765 1.408 . S
C1762 C1760 1.363 . S
C1762 C1763 1.370 . S
C1762 C1766 1.524 . S
C1763 C1755 1.503 . S
C1763 C1762 1.370 . S
C1763 C1764 1.403 . S
C1764 C1763 1.403 . S
C1764 C1765 1.404 . S
C1764 C1767 1.539 . S
C1765 C1761 1.408 . S
C1765 C1764 1.404 . S
C1765 H1777 0.930 . S
C1766 C1762 1.524 . S
C1766 H1778 0.956 . S
C1766 H1779 0.961 . S
C1766 H1780 0.961 . S
C1767 C1764 1.539 . S
C1767 H1781 0.958 . S
C1767 H1782 0.961 . S
C1767 H1783 0.960 . S
H1768 C1752 0.931 . S
H1769 C1757 0.929 . S
H1770 C1758 0.960 . S
H1771 C1758 0.962 . S
H1772 C1758 0.960 . S
H1773 C1759 0.961 . S
H1774 C1759 0.961 . S
H1775 C1759 0.961 . S
H1776 C1760 0.931 . S
H1777 C1765 0.930 . S
H1778 C1766 0.956 . S
H1779 C1766 0.961 . S
H1780 C1766 0.961 . S
H1781 C1767 0.958 . S
H1782 C1767 0.961 . S
H1783 C1767 0.960 . S
C1784 C1785 1.391 . S
C1784 C1786 1.394 . S
C1784 H1800 0.931 . S
C1785 C1784 1.391 . S
C1785 C1789 1.376 . S
C1786 C1784 1.394 . S
C1786 C1787 1.369 . S
C1786 C1790 1.531 . S
C1787 C1786 1.369 . S
C1787 C1788 1.410 . S
C1787 C1795 1.503 . S
C1788 C1787 1.410 . S
C1788 C1789 1.392 . S
C1788 C1791 1.511 . S
C1789 C1785 1.376 . S
C1789 C1788 1.392 . S
C1789 H1801 0.929 . S
C1790 C1786 1.531 . S
C1790 H1802 0.960 . S
C1790 H1803 0.962 . S
C1790 H1804 0.960 . S
C1791 C1788 1.511 . S
C1791 H1805 0.961 . S
C1791 H1806 0.961 . S
C1791 H1807 0.961 . S
C1792 C1793 1.370 . S
C1792 C1794 1.363 . S
C1792 H1808 0.931 . S
C1793 C1792 1.370 . S
C1793 C1797 1.408 . S
C1794 C1792 1.363 . S
C1794 C1795 1.370 . S
C1794 C1798 1.524 . S
C1795 C1787 1.503 . S
C1795 C1794 1.370 . S
C1795 C1796 1.403 . S
C1796 C1795 1.403 . S
C1796 C1797 1.404 . S
C1796 C1799 1.539 . S
C1797 C1793 1.408 . S
C1797 C1796 1.404 . S
C1797 H1809 0.930 . S
C1798 C1794 1.524 . S
C1798 H1810 0.956 . S
C1798 H1811 0.961 . S
C1798 H1812 0.961 . S
C1799 C1796 1.539 . S
C1799 H1813 0.958 . S
C1799 H1814 0.961 . S
C1799 H1815 0.960 . S
H1800 C1784 0.931 . S
H1801 C1789 0.929 . S
H1802 C1790 0.960 . S
H1803 C1790 0.962 . S
H1804 C1790 0.960 . S
H1805 C1791 0.961 . S
H1806 C1791 0.961 . S
H1807 C1791 0.961 . S
H1808 C1792 0.931 . S
H1809 C1797 0.930 . S
H1810 C1798 0.956 . S
H1811 C1798 0.961 . S
H1812 C1798 0.961 . S
H1813 C1799 0.958 . S
H1814 C1799 0.961 . S
H1815 C1799 0.960 . S
C1816 C1817 1.391 . S
C1816 C1818 1.394 . S
C1816 H1832 0.931 . S
C1817 C1816 1.391 . S
C1817 C1821 1.376 . S
C1818 C1816 1.394 . S
C1818 C1819 1.369 . S
C1818 C1822 1.531 . S
C1819 C1818 1.369 . S
C1819 C1820 1.410 . S
C1819 C1827 1.503 . S
C1820 C1819 1.410 . S
C1820 C1821 1.392 . S
C1820 C1823 1.511 . S
C1821 C1817 1.376 . S
C1821 C1820 1.392 . S
C1821 H1833 0.929 . S
C1822 C1818 1.531 . S
C1822 H1834 0.960 . S
C1822 H1835 0.962 . S
C1822 H1836 0.960 . S
C1823 C1820 1.511 . S
C1823 H1837 0.961 . S
C1823 H1838 0.961 . S
C1823 H1839 0.961 . S
C1824 C1825 1.370 . S
C1824 C1826 1.363 . S
C1824 H1840 0.931 . S
C1825 C1824 1.370 . S
C1825 C1829 1.408 . S
C1826 C1824 1.363 . S
C1826 C1827 1.370 . S
C1826 C1830 1.524 . S
C1827 C1819 1.503 . S
C1827 C1826 1.370 . S
C1827 C1828 1.403 . S
C1828 C1827 1.403 . S
C1828 C1829 1.404 . S
C1828 C1831 1.539 . S
C1829 C1825 1.408 . S
C1829 C1828 1.404 . S
C1829 H1841 0.930 . S
C1830 C1826 1.524 . S
C1830 H1842 0.956 . S
C1830 H1843 0.961 . S
C1830 H1844 0.961 . S
C1831 C1828 1.539 . S
C1831 H1845 0.958 . S
C1831 H1846 0.961 . S
C1831 H1847 0.960 . S
H1832 C1816 0.931 . S
H1833 C1821 0.929 . S
H1834 C1822 0.960 . S
H1835 C1822 0.962 . S
H1836 C1822 0.960 . S
H1837 C1823 0.961 . S
H1838 C1823 0.961 . S
H1839 C1823 0.961 . S
H1840 C1824 0.931 . S
H1841 C1829 0.930 . S
H1842 C1830 0.956 . S
H1843 C1830 0.961 . S
H1844 C1830 0.961 . S
H1845 C1831 0.958 . S
H1846 C1831 0.961 . S
H1847 C1831 0.960 . S
C1848 C1849 1.391 . S
C1848 C1850 1.394 . S
C1848 H1864 0.931 . S
C1849 C1848 1.391 . S
C1849 C1853 1.376 . S
C1850 C1848 1.394 . S
C1850 C1851 1.369 . S
C1850 C1854 1.531 . S
C1851 C1850 1.369 . S
C1851 C1852 1.410 . S
C1851 C1859 1.503 . S
C1852 C1851 1.410 . S
C1852 C1853 1.392 . S
C1852 C1855 1.511 . S
C1853 C1849 1.376 . S
C1853 C1852 1.392 . S
C1853 H1865 0.929 . S
C1854 C1850 1.531 . S
C1854 H1866 0.960 . S
C1854 H1867 0.962 . S
C1854 H1868 0.960 . S
C1855 C1852 1.511 . S
C1855 H1869 0.961 . S
C1855 H1870 0.961 . S
C1855 H1871 0.961 . S
C1856 C1857 1.370 . S
C1856 C1858 1.363 . S
C1856 H1872 0.931 . S
C1857 C1856 1.370 . S
C1857 C1861 1.408 . S
C1858 C1856 1.363 . S
C1858 C1859 1.370 . S
C1858 C1862 1.524 . S
C1859 C1851 1.503 . S
C1859 C1858 1.370 . S
C1859 C1860 1.403 . S
C1860 C1859 1.403 . S
C1860 C1861 1.404 . S
C1860 C1863 1.539 . S
C1861 C1857 1.408 . S
C1861 C1860 1.404 . S
C1861 H1873 0.930 . S
C1862 C1858 1.524 . S
C1862 H1874 0.956 . S
C1862 H1875 0.961 . S
C1862 H1876 0.961 . S
C1863 C1860 1.539 . S
C1863 H1877 0.958 . S
C1863 H1878 0.961 . S
C1863 H1879 0.960 . S
H1864 C1848 0.931 . S
H1865 C1853 0.929 . S
H1866 C1854 0.960 . S
H1867 C1854 0.962 . S
H1868 C1854 0.960 . S
H1869 C1855 0.961 . S
H1870 C1855 0.961 . S
H1871 C1855 0.961 . S
H1872 C1856 0.931 . S
H1873 C1861 0.930 . S
H1874 C1862 0.956 . S
H1875 C1862 0.961 . S
H1876 C1862 0.961 . S
H1877 C1863 0.958 . S
H1878 C1863 0.961 . S
H1879 C1863 0.960 . S
C1880 C1881 1.391 . S
C1880 C1882 1.394 . S
C1880 H1896 0.931 . S
C1881 C1880 1.391 . S
C1881 C1885 1.376 . S
C1882 C1880 1.394 . S
C1882 C1883 1.369 . S
C1882 C1886 1.531 . S
C1883 C1882 1.369 . S
C1883 C1884 1.410 . S
C1883 C1891 1.503 . S
C1884 C1883 1.410 . S
C1884 C1885 1.392 . S
C1884 C1887 1.511 . S
C1885 C1881 1.376 . S
C1885 C1884 1.392 . S
C1885 H1897 0.929 . S
C1886 C1882 1.531 . S
C1886 H1898 0.960 . S
C1886 H1899 0.962 . S
C1886 H1900 0.960 . S
C1887 C1884 1.511 . S
C1887 H1901 0.961 . S
C1887 H1902 0.961 . S
C1887 H1903 0.961 . S
C1888 C1889 1.370 . S
C1888 C1890 1.363 . S
C1888 H1904 0.931 . S
C1889 C1888 1.370 . S
C1889 C1893 1.408 . S
C1890 C1888 1.363 . S
C1890 C1891 1.370 . S
C1890 C1894 1.524 . S
C1891 C1883 1.503 . S
C1891 C1890 1.370 . S
C1891 C1892 1.403 . S
C1892 C1891 1.403 . S
C1892 C1893 1.404 . S
C1892 C1895 1.539 . S
C1893 C1889 1.408 . S
C1893 C1892 1.404 . S
C1893 H1905 0.930 . S
C1894 C1890 1.524 . S
C1894 H1906 0.956 . S
C1894 H1907 0.961 . S
C1894 H1908 0.961 . S
C1895 C1892 1.539 . S
C1895 H1909 0.958 . S
C1895 H1910 0.961 . S
C1895 H1911 0.960 . S
H1896 C1880 0.931 . S
H1897 C1885 0.929 . S
H1898 C1886 0.960 . S
H1899 C1886 0.962 . S
H1900 C1886 0.960 . S
H1901 C1887 0.961 . S
H1902 C1887 0.961 . S
H1903 C1887 0.961 . S
H1904 C1888 0.931 . S
H1905 C1893 0.930 . S
H1906 C1894 0.956 . S
H1907 C1894 0.961 . S
H1908 C1894 0.961 . S
H1909 C1895 0.958 . S
H1910 C1895 0.961 . S
H1911 C1895 0.960 . S
C1912 C1913 1.391 . S
C1912 C1914 1.394 . S
C1912 H1928 0.931 . S
C1913 C1912 1.391 . S
C1913 C1917 1.376 . S
C1914 C1912 1.394 . S
C1914 C1915 1.369 . S
C1914 C1918 1.531 . S
C1915 C1914 1.369 . S
C1915 C1916 1.410 . S
C1915 C1923 1.503 . S
C1916 C1915 1.410 . S
C1916 C1917 1.392 . S
C1916 C1919 1.511 . S
C1917 C1913 1.376 . S
C1917 C1916 1.392 . S
C1917 H1929 0.929 . S
C1918 C1914 1.531 . S
C1918 H1930 0.960 . S
C1918 H1931 0.962 . S
C1918 H1932 0.960 . S
C1919 C1916 1.511 . S
C1919 H1933 0.961 . S
C1919 H1934 0.961 . S
C1919 H1935 0.961 . S
C1920 C1921 1.370 . S
C1920 C1922 1.363 . S
C1920 H1936 0.931 . S
C1921 C1920 1.370 . S
C1921 C1925 1.408 . S
C1922 C1920 1.363 . S
C1922 C1923 1.370 . S
C1922 C1926 1.524 . S
C1923 C1915 1.503 . S
C1923 C1922 1.370 . S
C1923 C1924 1.403 . S
C1924 C1923 1.403 . S
C1924 C1925 1.404 . S
C1924 C1927 1.538 . S
C1925 C1921 1.408 . S
C1925 C1924 1.404 . S
C1925 H1937 0.930 1_556 S
C1926 C1922 1.524 . S
C1926 H1938 0.956 . S
C1926 H1939 0.961 . S
C1926 H1940 0.961 . S
C1927 C1924 1.538 . S
C1927 H1941 0.958 . S
C1927 H1942 0.963 1_556 S
C1927 H1943 0.959 . S
H1928 C1912 0.931 . S
H1929 C1917 0.929 . S
H1930 C1918 0.960 . S
H1931 C1918 0.962 . S
H1932 C1918 0.960 . S
H1933 C1919 0.961 . S
H1934 C1919 0.961 . S
H1935 C1919 0.961 . S
H1936 C1920 0.931 . S
H1937 C1925 0.930 1_554 S
H1938 C1926 0.956 . S
H1939 C1926 0.961 . S
H1940 C1926 0.961 . S
H1941 C1927 0.958 . S
H1942 C1927 0.963 1_554 S
H1943 C1927 0.959 . S
C1944 C1945 1.391 . S
C1944 C1946 1.394 . S
C1944 H1960 0.931 . S
C1945 C1944 1.391 . S
C1945 C1949 1.376 . S
C1946 C1944 1.394 . S
C1946 C1947 1.369 . S
C1946 C1950 1.531 . S
C1947 C1946 1.369 . S
C1947 C1948 1.410 . S
C1947 C1955 1.503 . S
C1948 C1947 1.410 . S
C1948 C1949 1.392 . S
C1948 C1951 1.511 . S
C1949 C1945 1.376 . S
C1949 C1948 1.392 . S
C1949 H1961 0.929 . S
C1950 C1946 1.531 . S
C1950 H1962 0.960 . S
C1950 H1963 0.962 . S
C1950 H1964 0.960 . S
C1951 C1948 1.511 . S
C1951 H1965 0.961 . S
C1951 H1966 0.961 . S
C1951 H1967 0.961 . S
C1952 C1953 1.370 . S
C1952 C1954 1.363 . S
C1952 H1968 0.931 . S
C1953 C1952 1.370 . S
C1953 C1957 1.408 . S
C1954 C1952 1.363 . S
C1954 C1955 1.370 . S
C1954 C1958 1.524 . S
C1955 C1947 1.503 . S
C1955 C1954 1.370 . S
C1955 C1956 1.403 . S
C1956 C1955 1.403 . S
C1956 C1957 1.404 . S
C1956 C1959 1.539 . S
C1957 C1953 1.408 . S
C1957 C1956 1.404 . S
C1957 H1969 0.930 . S
C1958 C1954 1.524 . S
C1958 H1970 0.956 . S
C1958 H1971 0.961 . S
C1958 H1972 0.961 . S
C1959 C1956 1.539 . S
C1959 H1973 0.958 . S
C1959 H1974 0.961 . S
C1959 H1975 0.960 . S
H1960 C1944 0.931 . S
H1961 C1949 0.929 . S
H1962 C1950 0.960 . S
H1963 C1950 0.962 . S
H1964 C1950 0.960 . S
H1965 C1951 0.961 . S
H1966 C1951 0.961 . S
H1967 C1951 0.961 . S
H1968 C1952 0.931 . S
H1969 C1957 0.930 . S
H1970 C1958 0.956 . S
H1971 C1958 0.961 . S
H1972 C1958 0.961 . S
H1973 C1959 0.958 . S
H1974 C1959 0.961 . S
H1975 C1959 0.960 . S
C1976 C1977 1.391 . S
C1976 C1978 1.394 . S
C1976 H1992 0.931 . S
C1977 C1976 1.391 . S
C1977 C1981 1.376 . S
C1978 C1976 1.394 . S
C1978 C1979 1.369 . S
C1978 C1982 1.531 . S
C1979 C1978 1.369 . S
C1979 C1980 1.410 . S
C1979 C1987 1.503 . S
C1980 C1979 1.410 . S
C1980 C1981 1.392 . S
C1980 C1983 1.511 . S
C1981 C1977 1.376 . S
C1981 C1980 1.392 . S
C1981 H1993 0.929 . S
C1982 C1978 1.531 . S
C1982 H1994 0.960 . S
C1982 H1995 0.962 . S
C1982 H1996 0.960 . S
C1983 C1980 1.511 . S
C1983 H1997 0.961 1_545 S
C1983 H1998 0.956 1_545 S
C1983 H1999 0.961 . S
C1984 C1985 1.370 . S
C1984 C1986 1.363 . S
C1984 H2000 0.931 . S
C1985 C1984 1.370 . S
C1985 C1989 1.408 . S
C1986 C1984 1.363 . S
C1986 C1987 1.370 . S
C1986 C1990 1.524 . S
C1987 C1979 1.503 . S
C1987 C1986 1.370 . S
C1987 C1988 1.403 . S
C1988 C1987 1.403 . S
C1988 C1989 1.404 . S
C1988 C1991 1.539 . S
C1989 C1985 1.408 . S
C1989 C1988 1.404 . S
C1989 H2001 0.930 . S
C1990 C1986 1.524 . S
C1990 H2002 0.956 . S
C1990 H2003 0.961 1_545 S
C1990 H2004 0.983 . S
C1991 C1988 1.539 . S
C1991 H2005 0.958 . S
C1991 H2006 0.961 . S
C1991 H2007 0.960 . S
H1992 C1976 0.931 . S
H1993 C1981 0.929 . S
H1994 C1982 0.960 . S
H1995 C1982 0.962 . S
H1996 C1982 0.960 . S
H1997 C1983 0.961 1_565 S
H1998 C1983 0.956 1_565 S
H1999 C1983 0.961 . S
H2000 C1984 0.931 . S
H2001 C1989 0.930 . S
H2002 C1990 0.956 . S
H2003 C1990 0.961 1_565 S
H2004 C1990 0.983 . S
H2005 C1991 0.958 . S
H2006 C1991 0.961 . S
H2007 C1991 0.960 . S
C2008 C2009 1.391 . S
C2008 C2010 1.394 . S
C2008 H2024 0.931 . S
C2009 C2008 1.391 . S
C2009 C2013 1.376 . S
C2010 C2008 1.394 . S
C2010 C2011 1.369 . S
C2010 C2014 1.531 . S
C2011 C2010 1.369 . S
C2011 C2012 1.410 . S
C2011 C2019 1.503 . S
C2012 C2011 1.410 . S
C2012 C2013 1.392 . S
C2012 C2015 1.511 . S
C2013 C2009 1.376 . S
C2013 C2012 1.392 . S
C2013 H2025 0.929 . S
C2014 C2010 1.531 . S
C2014 H2026 0.960 . S
C2014 H2027 0.962 . S
C2014 H2028 0.960 . S
C2015 C2012 1.511 . S
C2015 H2029 0.961 . S
C2015 H2030 0.961 . S
C2015 H2031 0.961 . S
C2016 C2017 1.370 . S
C2016 C2018 1.363 . S
C2016 H2032 0.931 . S
C2017 C2016 1.370 . S
C2017 C2021 1.408 . S
C2018 C2016 1.363 . S
C2018 C2019 1.370 . S
C2018 C2022 1.524 . S
C2019 C2011 1.503 . S
C2019 C2018 1.370 . S
C2019 C2020 1.403 . S
C2020 C2019 1.403 . S
C2020 C2021 1.404 . S
C2020 C2023 1.539 . S
C2021 C2017 1.408 . S
C2021 C2020 1.404 . S
C2021 H2033 0.930 . S
C2022 C2018 1.524 . S
C2022 H2034 0.956 . S
C2022 H2035 0.961 . S
C2022 H2036 0.961 . S
C2023 C2020 1.539 . S
C2023 H2037 0.958 . S
C2023 H2038 0.961 . S
C2023 H2039 0.960 . S
H2024 C2008 0.931 . S
H2025 C2013 0.929 . S
H2026 C2014 0.960 . S
H2027 C2014 0.962 . S
H2028 C2014 0.960 . S
H2029 C2015 0.961 . S
H2030 C2015 0.961 . S
H2031 C2015 0.961 . S
H2032 C2016 0.931 . S
H2033 C2021 0.930 . S
H2034 C2022 0.956 . S
H2035 C2022 0.961 . S
H2036 C2022 0.961 . S
H2037 C2023 0.958 . S
H2038 C2023 0.961 . S
H2039 C2023 0.960 . S
C2040 C2041 1.391 1_565 S
C2040 C2042 1.394 . S
C2040 H2056 0.931 . S
C2041 C2040 1.391 1_545 S
C2041 C2045 1.376 . S
C2042 C2040 1.394 . S
C2042 C2043 1.369 1_565 S
C2042 C2046 1.531 . S
C2043 C2042 1.369 1_545 S
C2043 C2044 1.410 . S
C2043 C2051 1.503 . S
C2044 C2043 1.410 . S
C2044 C2045 1.392 . S
C2044 C2047 1.511 . S
C2045 C2041 1.376 . S
C2045 C2044 1.392 . S
C2045 H2057 0.929 . S
C2046 C2042 1.531 . S
C2046 H2058 0.960 . S
C2046 H2059 0.962 . S
C2046 H2060 0.960 . S
C2047 C2044 1.511 . S
C2047 H2061 0.961 . S
C2047 H2062 0.961 . S
C2047 H2063 0.961 . S
C2048 C2049 1.370 . S
C2048 C2050 1.363 . S
C2048 H2064 0.931 . S
C2049 C2048 1.370 . S
C2049 C2053 1.408 . S
C2050 C2048 1.363 . S
C2050 C2051 1.370 . S
C2050 C2054 1.524 . S
C2051 C2043 1.503 . S
C2051 C2050 1.370 . S
C2051 C2052 1.403 . S
C2052 C2051 1.403 . S
C2052 C2053 1.404 . S
C2052 C2055 1.539 1_545 S
C2053 C2049 1.408 . S
C2053 C2052 1.404 . S
C2053 H2065 0.930 1_545 S
C2054 C2050 1.524 . S
C2054 H2066 0.956 . S
C2054 H2067 0.961 . S
C2054 H2068 0.961 . S
C2055 C2052 1.539 1_565 S
C2055 H2069 0.958 . S
C2055 H2070 0.961 . S
C2055 H2071 0.960 . S
H2056 C2040 0.931 . S
H2057 C2045 0.929 . S
H2058 C2046 0.960 . S
H2059 C2046 0.962 . S
H2060 C2046 0.960 . S
H2061 C2047 0.961 . S
H2062 C2047 0.961 . S
H2063 C2047 0.961 . S
H2064 C2048 0.931 . S
H2065 C2053 0.930 1_565 S
H2066 C2054 0.956 . S
H2067 C2054 0.961 . S
H2068 C2054 0.961 . S
H2069 C2055 0.958 . S
H2070 C2055 0.961 . S
H2071 C2055 0.960 . S
C2072 C2073 1.391 . S
C2072 C2074 1.394 . S
C2072 H2088 0.931 . S
C2073 C2072 1.391 . S
C2073 C2077 1.376 . S
C2074 C2072 1.394 . S
C2074 C2075 1.369 . S
C2074 C2078 1.531 . S
C2075 C2074 1.369 . S
C2075 C2076 1.410 . S
C2075 C2083 1.503 . S
C2076 C2075 1.410 . S
C2076 C2077 1.392 . S
C2076 C2079 1.511 . S
C2077 C2073 1.376 . S
C2077 C2076 1.392 . S
C2077 H2089 0.929 . S
C2078 C2074 1.531 . S
C2078 H2090 0.960 . S
C2078 H2091 0.962 . S
C2078 H2092 0.960 . S
C2079 C2076 1.511 . S
C2079 H2093 0.961 . S
C2079 H2094 0.961 . S
C2079 H2095 0.961 . S
C2080 C2081 1.370 . S
C2080 C2082 1.363 . S
C2080 H2096 0.931 . S
C2081 C2080 1.370 . S
C2081 C2085 1.408 . S
C2082 C2080 1.363 . S
C2082 C2083 1.370 . S
C2082 C2086 1.524 . S
C2083 C2075 1.503 . S
C2083 C2082 1.370 . S
C2083 C2084 1.403 . S
C2084 C2083 1.403 . S
C2084 C2085 1.404 . S
C2084 C2087 1.539 . S
C2085 C2081 1.408 . S
C2085 C2084 1.404 . S
C2085 H2097 0.930 . S
C2086 C2082 1.524 . S
C2086 H2098 0.956 . S
C2086 H2099 0.961 . S
C2086 H2100 0.961 . S
C2087 C2084 1.539 . S
C2087 H2101 0.958 . S
C2087 H2102 0.961 . S
C2087 H2103 0.960 . S
H2088 C2072 0.931 . S
H2089 C2077 0.929 . S
H2090 C2078 0.960 . S
H2091 C2078 0.962 . S
H2092 C2078 0.960 . S
H2093 C2079 0.961 . S
H2094 C2079 0.961 . S
H2095 C2079 0.961 . S
H2096 C2080 0.931 . S
H2097 C2085 0.930 . S
H2098 C2086 0.956 . S
H2099 C2086 0.961 . S
H2100 C2086 0.961 . S
H2101 C2087 0.958 . S
H2102 C2087 0.961 . S
H2103 C2087 0.960 . S
C2104 C2105 1.391 1_565 S
C2104 C2106 1.394 . S
C2104 H2120 0.931 . S
C2105 C2104 1.391 1_545 S
C2105 C2109 1.376 . S
C2106 C2104 1.394 . S
C2106 C2107 1.369 1_565 S
C2106 C2110 1.531 . S
C2107 C2106 1.369 1_545 S
C2107 C2108 1.410 . S
C2107 C2115 1.503 . S
C2108 C2107 1.410 . S
C2108 C2109 1.392 . S
C2108 C2111 1.511 . S
C2109 C2105 1.376 . S
C2109 C2108 1.392 . S
C2109 H2121 0.929 . S
C2110 C2106 1.531 . S
C2110 H2122 0.960 . S
C2110 H2123 0.958 . S
C2110 H2124 0.960 . S
C2111 C2108 1.511 . S
C2111 H2125 0.961 . S
C2111 H2126 0.961 . S
C2111 H2127 0.961 . S
C2112 C2113 1.370 . S
C2112 C2114 1.363 . S
C2112 H2128 0.931 . S
C2113 C2112 1.370 . S
C2113 C2117 1.437 . S
C2114 C2112 1.363 . S
C2114 C2115 1.370 . S
C2114 C2118 1.524 . S
C2115 C2107 1.503 . S
C2115 C2114 1.370 . S
C2115 C2116 1.403 1_545 S
C2116 C2115 1.403 1_565 S
C2116 C2117 1.390 1_565 S
C2116 C2119 1.539 . S
C2117 C2113 1.437 . S
C2117 C2116 1.390 1_545 S
C2117 H2129 0.917 1_545 S
C2118 C2114 1.524 . S
C2118 H2130 0.956 . S
C2118 H2131 0.961 . S
C2118 H2132 0.961 . S
C2119 C2116 1.539 . S
C2119 H2133 0.958 . S
C2119 H2134 0.961 . S
C2119 H2135 0.960 . S
H2120 C2104 0.931 . S
H2121 C2109 0.929 . S
H2122 C2110 0.960 . S
H2123 C2110 0.958 . S
H2124 C2110 0.960 . S
H2125 C2111 0.961 . S
H2126 C2111 0.961 . S
H2127 C2111 0.961 . S
H2128 C2112 0.931 . S
H2129 C2117 0.917 1_565 S
H2130 C2118 0.956 . S
H2131 C2118 0.961 . S
H2132 C2118 0.961 . S
H2133 C2119 0.958 . S
H2134 C2119 0.961 . S
H2135 C2119 0.960 . S
C2136 C2137 1.391 . S
C2136 C2138 1.394 . S
C2136 H2152 0.931 . S
C2137 C2136 1.391 . S
C2137 C2141 1.376 . S
C2138 C2136 1.394 . S
C2138 C2139 1.369 . S
C2138 C2142 1.531 . S
C2139 C2138 1.369 . S
C2139 C2140 1.410 . S
C2139 C2147 1.503 . S
C2140 C2139 1.410 . S
C2140 C2141 1.392 . S
C2140 C2143 1.511 . S
C2141 C2137 1.376 . S
C2141 C2140 1.392 . S
C2141 H2153 0.929 . S
C2142 C2138 1.531 . S
C2142 H2154 0.960 . S
C2142 H2155 0.962 . S
C2142 H2156 0.960 . S
C2143 C2140 1.511 . S
C2143 H2157 0.961 . S
C2143 H2158 0.961 . S
C2143 H2159 0.961 . S
C2144 C2145 1.370 . S
C2144 C2146 1.363 . S
C2144 H2160 0.931 . S
C2145 C2144 1.370 . S
C2145 C2149 1.408 . S
C2146 C2144 1.363 . S
C2146 C2147 1.370 . S
C2146 C2150 1.524 . S
C2147 C2139 1.503 . S
C2147 C2146 1.370 . S
C2147 C2148 1.403 . S
C2148 C2147 1.403 . S
C2148 C2149 1.404 . S
C2148 C2151 1.539 . S
C2149 C2145 1.408 . S
C2149 C2148 1.404 . S
C2149 H2161 0.930 . S
C2150 C2146 1.524 . S
C2150 H2162 0.956 . S
C2150 H2163 0.961 . S
C2150 H2164 0.961 . S
C2151 C2148 1.539 . S
C2151 H2165 0.958 . S
C2151 H2166 0.961 . S
C2151 H2167 0.960 . S
H2152 C2136 0.931 . S
H2153 C2141 0.929 . S
H2154 C2142 0.960 . S
H2155 C2142 0.962 . S
H2156 C2142 0.960 . S
H2157 C2143 0.961 . S
H2158 C2143 0.961 . S
H2159 C2143 0.961 . S
H2160 C2144 0.931 . S
H2161 C2149 0.930 . S
H2162 C2150 0.956 . S
H2163 C2150 0.961 . S
H2164 C2150 0.961 . S
H2165 C2151 0.958 . S
H2166 C2151 0.961 . S
H2167 C2151 0.960 . S
C2168 C2169 1.391 1_565 S
C2168 C2170 1.394 . S
C2168 H2184 0.931 . S
C2169 C2168 1.391 1_545 S
C2169 C2173 1.376 . S
C2170 C2168 1.394 . S
C2170 C2171 1.369 1_565 S
C2170 C2174 1.531 . S
C2171 C2170 1.369 1_545 S
C2171 C2172 1.410 . S
C2171 C2179 1.503 . S
C2172 C2171 1.410 . S
C2172 C2173 1.392 . S
C2172 C2175 1.511 . S
C2173 C2169 1.376 . S
C2173 C2172 1.392 . S
C2173 H2185 0.929 . S
C2174 C2170 1.531 . S
C2174 H2186 0.960 . S
C2174 H2187 0.962 . S
C2174 H2188 0.960 . S
C2175 C2172 1.511 . S
C2175 H2189 0.961 . S
C2175 H2190 0.961 . S
C2175 H2191 0.961 . S
C2176 C2177 1.370 . S
C2176 C2178 1.363 . S
C2176 H2192 0.931 . S
C2177 C2176 1.370 . S
C2177 C2181 1.408 1_545 S
C2178 C2176 1.363 . S
C2178 C2179 1.370 . S
C2178 C2182 1.524 . S
C2179 C2171 1.503 . S
C2179 C2178 1.370 . S
C2179 C2180 1.403 1_545 S
C2180 C2179 1.403 1_565 S
C2180 C2181 1.404 . S
C2180 C2183 1.539 . S
C2181 C2177 1.408 1_565 S
C2181 C2180 1.404 . S
C2181 H2193 0.930 . S
C2182 C2178 1.524 . S
C2182 H2194 0.956 . S
C2182 H2195 0.961 . S
C2182 H2196 0.961 . S
C2183 C2180 1.539 . S
C2183 H2197 0.958 . S
C2183 H2198 0.961 . S
C2183 H2199 0.960 . S
H2184 C2168 0.931 . S
H2185 C2173 0.929 . S
H2186 C2174 0.960 . S
H2187 C2174 0.962 . S
H2188 C2174 0.960 . S
H2189 C2175 0.961 . S
H2190 C2175 0.961 . S
H2191 C2175 0.961 . S
H2192 C2176 0.931 . S
H2193 C2181 0.930 . S
H2194 C2182 0.956 . S
H2195 C2182 0.961 . S
H2196 C2182 0.961 . S
H2197 C2183 0.958 . S
H2198 C2183 0.961 . S
H2199 C2183 0.960 . S
C2200 C2201 1.391 . S
C2200 C2202 1.394 . S
C2200 H2216 0.931 . S
C2201 C2200 1.391 . S
C2201 C2205 1.376 . S
C2202 C2200 1.394 . S
C2202 C2203 1.369 . S
C2202 C2206 1.531 . S
C2203 C2202 1.369 . S
C2203 C2204 1.410 . S
C2203 C2211 1.503 . S
C2204 C2203 1.410 . S
C2204 C2205 1.392 . S
C2204 C2207 1.511 . S
C2205 C2201 1.376 . S
C2205 C2204 1.392 . S
C2205 H2217 0.929 . S
C2206 C2202 1.531 . S
C2206 H2218 0.960 . S
C2206 H2219 0.962 . S
C2206 H2220 0.960 . S
C2207 C2204 1.511 . S
C2207 H2221 0.961 . S
C2207 H2222 0.961 . S
C2207 H2223 0.961 . S
C2208 C2209 1.370 . S
C2208 C2210 1.363 . S
C2208 H2224 0.931 . S
C2209 C2208 1.370 . S
C2209 C2213 1.408 . S
C2210 C2208 1.363 . S
C2210 C2211 1.370 . S
C2210 C2214 1.524 . S
C2211 C2203 1.503 . S
C2211 C2210 1.370 . S
C2211 C2212 1.403 . S
C2212 C2211 1.403 . S
C2212 C2213 1.404 . S
C2212 C2215 1.539 . S
C2213 C2209 1.408 . S
C2213 C2212 1.404 . S
C2213 H2225 0.930 . S
C2214 C2210 1.524 . S
C2214 H2226 0.956 . S
C2214 H2227 0.961 . S
C2214 H2228 0.961 . S
C2215 C2212 1.539 . S
C2215 H2229 0.958 . S
C2215 H2230 0.961 . S
C2215 H2231 0.960 . S
H2216 C2200 0.931 . S
H2217 C2205 0.929 . S
H2218 C2206 0.960 . S
H2219 C2206 0.962 . S
H2220 C2206 0.960 . S
H2221 C2207 0.961 . S
H2222 C2207 0.961 . S
H2223 C2207 0.961 . S
H2224 C2208 0.931 . S
H2225 C2213 0.930 . S
H2226 C2214 0.956 . S
H2227 C2214 0.961 . S
H2228 C2214 0.961 . S
H2229 C2215 0.958 . S
H2230 C2215 0.961 . S
H2231 C2215 0.960 . S
C2232 C2233 1.391 . S
C2232 C2234 1.394 . S
C2232 H2248 0.931 . S
C2233 C2232 1.391 . S
C2233 C2237 1.376 . S
C2234 C2232 1.394 . S
C2234 C2235 1.369 . S
C2234 C2238 1.531 . S
C2235 C2234 1.369 . S
C2235 C2236 1.410 . S
C2235 C2243 1.503 . S
C2236 C2235 1.410 . S
C2236 C2237 1.392 . S
C2236 C2239 1.511 1_554 S
C2237 C2233 1.376 . S
C2237 C2236 1.392 . S
C2237 H2249 0.929 . S
C2238 C2234 1.531 . S
C2238 H2250 0.960 . S
C2238 H2251 0.962 . S
C2238 H2252 0.960 . S
C2239 C2236 1.511 1_556 S
C2239 H2253 0.961 . S
C2239 H2254 0.961 . S
C2239 H2255 0.961 . S
C2240 C2241 1.370 . S
C2240 C2242 1.363 . S
C2240 H2256 0.931 . S
C2241 C2240 1.370 . S
C2241 C2245 1.408 . S
C2242 C2240 1.363 . S
C2242 C2243 1.370 . S
C2242 C2246 1.524 . S
C2243 C2235 1.503 . S
C2243 C2242 1.370 . S
C2243 C2244 1.403 . S
C2244 C2243 1.403 . S
C2244 C2245 1.404 . S
C2244 C2247 1.539 1_554 S
C2245 C2241 1.408 . S
C2245 C2244 1.404 . S
C2245 H2257 0.930 1_554 S
C2246 C2242 1.524 . S
C2246 H2258 0.956 . S
C2246 H2259 0.961 . S
C2246 H2260 0.961 . S
C2247 C2244 1.539 1_556 S
C2247 H2261 0.958 . S
C2247 H2262 0.961 . S
C2247 H2263 0.960 . S
H2248 C2232 0.931 . S
H2249 C2237 0.929 . S
H2250 C2238 0.960 . S
H2251 C2238 0.962 . S
H2252 C2238 0.960 . S
H2253 C2239 0.961 . S
H2254 C2239 0.961 . S
H2255 C2239 0.961 . S
H2256 C2240 0.931 . S
H2257 C2245 0.930 1_556 S
H2258 C2246 0.956 . S
H2259 C2246 0.961 . S
H2260 C2246 0.961 . S
H2261 C2247 0.958 . S
H2262 C2247 0.961 . S
H2263 C2247 0.960 . S
C2264 C2265 1.391 . S
C2264 C2266 1.394 . S
C2264 H2280 0.931 . S
C2265 C2264 1.391 . S
C2265 C2269 1.376 . S
C2266 C2264 1.394 . S
C2266 C2267 1.369 . S
C2266 C2270 1.531 . S
C2267 C2266 1.369 . S
C2267 C2268 1.410 . S
C2267 C2275 1.503 . S
C2268 C2267 1.410 . S
C2268 C2269 1.392 . S
C2268 C2271 1.511 1_554 S
C2269 C2265 1.376 . S
C2269 C2268 1.392 . S
C2269 H2281 0.929 1_554 S
C2270 C2266 1.531 . S
C2270 H2282 0.960 . S
C2270 H2283 0.962 . S
C2270 H2284 0.960 . S
C2271 C2268 1.511 1_556 S
C2271 H2285 0.961 . S
C2271 H2286 0.961 . S
C2271 H2287 0.961 . S
C2272 C2273 1.370 . S
C2272 C2274 1.363 . S
C2272 H2288 0.931 1_554 S
C2273 C2272 1.370 . S
C2273 C2277 1.408 . S
C2274 C2272 1.363 . S
C2274 C2275 1.370 . S
C2274 C2278 1.524 1_554 S
C2275 C2267 1.503 . S
C2275 C2274 1.370 . S
C2275 C2276 1.403 . S
C2276 C2275 1.403 . S
C2276 C2277 1.404 . S
C2276 C2279 1.539 . S
C2277 C2273 1.408 . S
C2277 C2276 1.404 . S
C2277 H2289 0.930 . S
C2278 C2274 1.524 1_556 S
C2278 H2290 0.956 1_556 S
C2278 H2291 0.961 . S
C2278 H2292 0.961 . S
C2279 C2276 1.539 . S
C2279 H2293 0.958 . S
C2279 H2294 0.961 . S
C2279 H2295 0.960 . S
H2280 C2264 0.931 . S
H2281 C2269 0.929 1_556 S
H2282 C2270 0.960 . S
H2283 C2270 0.962 . S
H2284 C2270 0.960 . S
H2285 C2271 0.961 . S
H2286 C2271 0.961 . S
H2287 C2271 0.961 . S
H2288 C2272 0.931 1_556 S
H2289 C2277 0.930 . S
H2290 C2278 0.956 1_554 S
H2291 C2278 0.961 . S
H2292 C2278 0.961 . S
H2293 C2279 0.958 . S
H2294 C2279 0.961 . S
H2295 C2279 0.960 . S
C2296 C2297 1.391 . S
C2296 C2298 1.394 . S
C2296 H2312 0.931 . S
C2297 C2296 1.391 . S
C2297 C2301 1.376 . S
C2298 C2296 1.394 . S
C2298 C2299 1.369 . S
C2298 C2302 1.531 . S
C2299 C2298 1.369 . S
C2299 C2300 1.410 . S
C2299 C2307 1.503 . S
C2300 C2299 1.410 . S
C2300 C2301 1.392 . S
C2300 C2303 1.511 . S
C2301 C2297 1.376 . S
C2301 C2300 1.392 . S
C2301 H2313 0.929 . S
C2302 C2298 1.531 . S
C2302 H2314 0.960 . S
C2302 H2315 0.962 . S
C2302 H2316 0.960 . S
C2303 C2300 1.511 . S
C2303 H2317 0.961 . S
C2303 H2318 0.961 . S
C2303 H2319 0.961 . S
C2304 C2305 1.370 . S
C2304 C2306 1.363 . S
C2304 H2320 0.931 . S
C2305 C2304 1.370 . S
C2305 C2309 1.408 . S
C2306 C2304 1.363 . S
C2306 C2307 1.370 . S
C2306 C2310 1.524 . S
C2307 C2299 1.503 . S
C2307 C2306 1.370 . S
C2307 C2308 1.403 . S
C2308 C2307 1.403 . S
C2308 C2309 1.404 . S
C2308 C2311 1.539 . S
C2309 C2305 1.408 . S
C2309 C2308 1.404 . S
C2309 H2321 0.930 . S
C2310 C2306 1.524 . S
C2310 H2322 0.956 . S
C2310 H2323 0.961 . S
C2310 H2324 0.961 . S
C2311 C2308 1.539 . S
C2311 H2325 0.958 . S
C2311 H2326 0.961 . S
C2311 H2327 0.960 . S
H2312 C2296 0.931 . S
H2313 C2301 0.929 . S
H2314 C2302 0.960 . S
H2315 C2302 0.962 . S
H2316 C2302 0.960 . S
H2317 C2303 0.961 . S
H2318 C2303 0.961 . S
H2319 C2303 0.961 . S
H2320 C2304 0.931 . S
H2321 C2309 0.930 . S
H2322 C2310 0.956 . S
H2323 C2310 0.961 . S
H2324 C2310 0.961 . S
H2325 C2311 0.958 . S
H2326 C2311 0.961 . S
H2327 C2311 0.960 . S
C2328 C2329 1.391 . S
C2328 C2330 1.394 . S
C2328 H2344 0.931 . S
C2329 C2328 1.391 . S
C2329 C2333 1.376 . S
C2330 C2328 1.394 . S
C2330 C2331 1.369 . S
C2330 C2334 1.531 . S
C2331 C2330 1.369 . S
C2331 C2332 1.410 . S
C2331 C2339 1.503 . S
C2332 C2331 1.410 . S
C2332 C2333 1.392 . S
C2332 C2335 1.511 . S
C2333 C2329 1.376 . S
C2333 C2332 1.392 . S
C2333 H2345 0.929 . S
C2334 C2330 1.531 . S
C2334 H2346 0.960 . S
C2334 H2347 0.962 . S
C2334 H2348 0.960 . S
C2335 C2332 1.511 . S
C2335 H2349 0.961 . S
C2335 H2350 0.961 . S
C2335 H2351 0.961 . S
C2336 C2337 1.370 . S
C2336 C2338 1.363 . S
C2336 H2352 0.931 . S
C2337 C2336 1.370 . S
C2337 C2341 1.408 . S
C2338 C2336 1.363 . S
C2338 C2339 1.370 . S
C2338 C2342 1.524 . S
C2339 C2331 1.503 . S
C2339 C2338 1.370 . S
C2339 C2340 1.403 . S
C2340 C2339 1.403 . S
C2340 C2341 1.404 . S
C2340 C2343 1.539 . S
C2341 C2337 1.408 . S
C2341 C2340 1.404 . S
C2341 H2353 0.930 . S
C2342 C2338 1.524 . S
C2342 H2354 0.956 . S
C2342 H2355 0.961 . S
C2342 H2356 0.961 . S
C2343 C2340 1.539 . S
C2343 H2357 0.958 . S
C2343 H2358 0.961 . S
C2343 H2359 0.960 . S
H2344 C2328 0.931 . S
H2345 C2333 0.929 . S
H2346 C2334 0.960 . S
H2347 C2334 0.962 . S
H2348 C2334 0.960 . S
H2349 C2335 0.961 . S
H2350 C2335 0.961 . S
H2351 C2335 0.961 . S
H2352 C2336 0.931 . S
H2353 C2341 0.930 . S
H2354 C2342 0.956 . S
H2355 C2342 0.961 . S
H2356 C2342 0.961 . S
H2357 C2343 0.958 . S
H2358 C2343 0.961 . S
H2359 C2343 0.960 . S
C2360 C2361 1.391 1_565 S
C2360 C2362 1.394 . S
C2360 H2376 0.931 . S
C2361 C2360 1.391 1_545 S
C2361 C2365 1.376 . S
C2362 C2360 1.394 . S
C2362 C2363 1.369 . S
C2362 C2366 1.531 . S
C2363 C2362 1.369 . S
C2363 C2364 1.410 . S
C2363 C2371 1.503 . S
C2364 C2363 1.410 . S
C2364 C2365 1.392 1_565 S
C2364 C2367 1.511 1_565 S
C2365 C2361 1.376 . S
C2365 C2364 1.392 1_545 S
C2365 H2377 0.929 . S
C2366 C2362 1.531 . S
C2366 H2378 0.960 . S
C2366 H2379 0.962 . S
C2366 H2380 0.960 . S
C2367 C2364 1.511 1_545 S
C2367 H2381 0.961 . S
C2367 H2382 0.961 1_545 S
C2367 H2383 0.961 . S
C2368 C2369 1.370 . S
C2368 C2370 1.363 . S
C2368 H2384 0.931 . S
C2369 C2368 1.370 . S
C2369 C2373 1.408 . S
C2370 C2368 1.363 . S
C2370 C2371 1.370 . S
C2370 C2374 1.524 . S
C2371 C2363 1.503 . S
C2371 C2370 1.370 . S
C2371 C2372 1.403 . S
C2372 C2371 1.403 . S
C2372 C2373 1.404 . S
C2372 C2375 1.539 . S
C2373 C2369 1.408 . S
C2373 C2372 1.404 . S
C2373 H2385 0.930 . S
C2374 C2370 1.524 . S
C2374 H2386 0.956 . S
C2374 H2387 0.961 . S
C2374 H2388 0.961 . S
C2375 C2372 1.539 . S
C2375 H2389 0.958 . S
C2375 H2390 0.961 . S
C2375 H2391 0.960 . S
H2376 C2360 0.931 . S
H2377 C2365 0.929 . S
H2378 C2366 0.960 . S
H2379 C2366 0.962 . S
H2380 C2366 0.960 . S
H2381 C2367 0.961 . S
H2382 C2367 0.961 1_565 S
H2383 C2367 0.961 . S
H2384 C2368 0.931 . S
H2385 C2373 0.930 . S
H2386 C2374 0.956 . S
H2387 C2374 0.961 . S
H2388 C2374 0.961 . S
H2389 C2375 0.958 . S
H2390 C2375 0.961 . S
H2391 C2375 0.960 . S
C2392 C2393 1.391 . S
C2392 C2394 1.394 . S
C2392 H2408 0.931 . S
C2393 C2392 1.391 . S
C2393 C2397 1.376 . S
C2394 C2392 1.394 . S
C2394 C2395 1.369 . S
C2394 C2398 1.531 . S
C2395 C2394 1.369 . S
C2395 C2396 1.410 . S
C2395 C2403 1.503 . S
C2396 C2395 1.410 . S
C2396 C2397 1.392 . S
C2396 C2399 1.511 . S
C2397 C2393 1.376 . S
C2397 C2396 1.392 . S
C2397 H2409 0.929 . S
C2398 C2394 1.531 . S
C2398 H2410 0.960 . S
C2398 H2411 0.962 . S
C2398 H2412 0.960 . S
C2399 C2396 1.511 . S
C2399 H2413 0.961 . S
C2399 H2414 0.961 . S
C2399 H2415 0.961 . S
C2400 C2401 1.370 . S
C2400 C2402 1.363 . S
C2400 H2416 0.931 . S
C2401 C2400 1.370 . S
C2401 C2405 1.408 . S
C2402 C2400 1.363 . S
C2402 C2403 1.370 . S
C2402 C2406 1.524 . S
C2403 C2395 1.503 . S
C2403 C2402 1.370 . S
C2403 C2404 1.403 . S
C2404 C2403 1.403 . S
C2404 C2405 1.404 . S
C2404 C2407 1.539 . S
C2405 C2401 1.408 . S
C2405 C2404 1.404 . S
C2405 H2417 0.930 . S
C2406 C2402 1.524 . S
C2406 H2418 0.956 . S
C2406 H2419 0.961 . S
C2406 H2420 0.961 . S
C2407 C2404 1.539 . S
C2407 H2421 0.958 . S
C2407 H2422 0.961 . S
C2407 H2423 0.960 . S
H2408 C2392 0.931 . S
H2409 C2397 0.929 . S
H2410 C2398 0.960 . S
H2411 C2398 0.962 . S
H2412 C2398 0.960 . S
H2413 C2399 0.961 . S
H2414 C2399 0.961 . S
H2415 C2399 0.961 . S
H2416 C2400 0.931 . S
H2417 C2405 0.930 . S
H2418 C2406 0.956 . S
H2419 C2406 0.961 . S
H2420 C2406 0.961 . S
H2421 C2407 0.958 . S
H2422 C2407 0.961 . S
H2423 C2407 0.960 . S
C2424 C2425 1.391 . S
C2424 C2426 1.394 . S
C2424 H2440 0.931 . S
C2425 C2424 1.391 . S
C2425 C2429 1.376 . S
C2426 C2424 1.394 . S
C2426 C2427 1.369 . S
C2426 C2430 1.531 . S
C2427 C2426 1.369 . S
C2427 C2428 1.410 . S
C2427 C2435 1.503 . S
C2428 C2427 1.410 . S
C2428 C2429 1.392 . S
C2428 C2431 1.511 . S
C2429 C2425 1.376 . S
C2429 C2428 1.392 . S
C2429 H2441 0.929 . S
C2430 C2426 1.531 . S
C2430 H2442 0.960 . S
C2430 H2443 0.962 . S
C2430 H2444 0.960 . S
C2431 C2428 1.511 . S
C2431 H2445 0.961 . S
C2431 H2446 0.961 . S
C2431 H2447 0.961 . S
C2432 C2433 1.370 . S
C2432 C2434 1.363 . S
C2432 H2448 0.931 . S
C2433 C2432 1.370 . S
C2433 C2437 1.408 . S
C2434 C2432 1.363 . S
C2434 C2435 1.370 . S
C2434 C2438 1.524 . S
C2435 C2427 1.503 . S
C2435 C2434 1.370 . S
C2435 C2436 1.403 . S
C2436 C2435 1.403 . S
C2436 C2437 1.404 . S
C2436 C2439 1.539 . S
C2437 C2433 1.408 . S
C2437 C2436 1.404 . S
C2437 H2449 0.930 . S
C2438 C2434 1.524 . S
C2438 H2450 0.956 . S
C2438 H2451 0.961 . S
C2438 H2452 0.961 . S
C2439 C2436 1.539 . S
C2439 H2453 0.958 . S
C2439 H2454 0.961 . S
C2439 H2455 0.960 . S
H2440 C2424 0.931 . S
H2441 C2429 0.929 . S
H2442 C2430 0.960 . S
H2443 C2430 0.962 . S
H2444 C2430 0.960 . S
H2445 C2431 0.961 . S
H2446 C2431 0.961 . S
H2447 C2431 0.961 . S
H2448 C2432 0.931 . S
H2449 C2437 0.930 . S
H2450 C2438 0.956 . S
H2451 C2438 0.961 . S
H2452 C2438 0.961 . S
H2453 C2439 0.958 . S
H2454 C2439 0.961 . S
H2455 C2439 0.960 . S
C2456 C2457 1.391 . S
C2456 C2458 1.394 . S
C2456 H2472 0.931 . S
C2457 C2456 1.391 . S
C2457 C2461 1.376 . S
C2458 C2456 1.394 . S
C2458 C2459 1.369 . S
C2458 C2462 1.531 . S
C2459 C2458 1.369 . S
C2459 C2460 1.410 . S
C2459 C2467 1.503 . S
C2460 C2459 1.410 . S
C2460 C2461 1.392 . S
C2460 C2463 1.511 . S
C2461 C2457 1.376 . S
C2461 C2460 1.392 . S
C2461 H2473 0.929 . S
C2462 C2458 1.531 . S
C2462 H2474 0.960 . S
C2462 H2475 0.962 . S
C2462 H2476 0.960 . S
C2463 C2460 1.511 . S
C2463 H2477 0.961 . S
C2463 H2478 0.961 . S
C2463 H2479 0.961 . S
C2464 C2465 1.370 . S
C2464 C2466 1.363 . S
C2464 H2480 0.931 . S
C2465 C2464 1.370 . S
C2465 C2469 1.408 . S
C2466 C2464 1.363 . S
C2466 C2467 1.370 . S
C2466 C2470 1.524 . S
C2467 C2459 1.503 . S
C2467 C2466 1.370 . S
C2467 C2468 1.403 . S
C2468 C2467 1.403 . S
C2468 C2469 1.404 . S
C2468 C2471 1.539 . S
C2469 C2465 1.408 . S
C2469 C2468 1.404 . S
C2469 H2481 0.930 . S
C2470 C2466 1.524 . S
C2470 H2482 0.956 . S
C2470 H2483 0.961 . S
C2470 H2484 0.961 . S
C2471 C2468 1.539 . S
C2471 H2485 0.958 . S
C2471 H2486 0.961 . S
C2471 H2487 0.960 . S
H2472 C2456 0.931 . S
H2473 C2461 0.929 . S
H2474 C2462 0.960 . S
H2475 C2462 0.962 . S
H2476 C2462 0.960 . S
H2477 C2463 0.961 . S
H2478 C2463 0.961 . S
H2479 C2463 0.961 . S
H2480 C2464 0.931 . S
H2481 C2469 0.930 . S
H2482 C2470 0.956 . S
H2483 C2470 0.961 . S
H2484 C2470 0.961 . S
H2485 C2471 0.958 . S
H2486 C2471 0.961 . S
H2487 C2471 0.960 . S
C2488 C2489 1.391 . S
C2488 C2490 1.394 . S
C2488 H2504 0.931 . S
C2489 C2488 1.391 . S
C2489 C2493 1.376 . S
C2490 C2488 1.394 . S
C2490 C2491 1.369 . S
C2490 C2494 1.531 . S
C2491 C2490 1.369 . S
C2491 C2492 1.410 . S
C2491 C2499 1.503 . S
C2492 C2491 1.410 . S
C2492 C2493 1.392 . S
C2492 C2495 1.511 . S
C2493 C2489 1.376 . S
C2493 C2492 1.392 . S
C2493 H2505 0.929 . S
C2494 C2490 1.531 . S
C2494 H2506 0.960 . S
C2494 H2507 0.962 . S
C2494 H2508 0.960 . S
C2495 C2492 1.511 . S
C2495 H2509 0.961 . S
C2495 H2510 0.961 . S
C2495 H2511 0.961 . S
C2496 C2497 1.370 . S
C2496 C2498 1.363 . S
C2496 H2512 0.931 . S
C2497 C2496 1.370 . S
C2497 C2501 1.408 . S
C2498 C2496 1.363 . S
C2498 C2499 1.370 . S
C2498 C2502 1.524 . S
C2499 C2491 1.503 . S
C2499 C2498 1.370 . S
C2499 C2500 1.403 . S
C2500 C2499 1.403 . S
C2500 C2501 1.404 . S
C2500 C2503 1.539 . S
C2501 C2497 1.408 . S
C2501 C2500 1.404 . S
C2501 H2513 0.930 . S
C2502 C2498 1.524 . S
C2502 H2514 0.956 . S
C2502 H2515 0.961 . S
C2502 H2516 0.961 . S
C2503 C2500 1.539 . S
C2503 H2517 0.958 . S
C2503 H2518 0.961 . S
C2503 H2519 0.960 . S
H2504 C2488 0.931 . S
H2505 C2493 0.929 . S
H2506 C2494 0.960 . S
H2507 C2494 0.962 . S
H2508 C2494 0.960 . S
H2509 C2495 0.961 . S
H2510 C2495 0.961 . S
H2511 C2495 0.961 . S
H2512 C2496 0.931 . S
H2513 C2501 0.930 . S
H2514 C2502 0.956 . S
H2515 C2502 0.961 . S
H2516 C2502 0.961 . S
H2517 C2503 0.958 . S
H2518 C2503 0.961 . S
H2519 C2503 0.960 . S
C2520 C2521 1.391 . S
C2520 C2522 1.394 . S
C2520 H2536 0.931 . S
C2521 C2520 1.391 . S
C2521 C2525 1.376 . S
C2522 C2520 1.394 . S
C2522 C2523 1.369 . S
C2522 C2526 1.531 . S
C2523 C2522 1.369 . S
C2523 C2524 1.410 . S
C2523 C2531 1.503 . S
C2524 C2523 1.410 . S
C2524 C2525 1.392 . S
C2524 C2527 1.511 . S
C2525 C2521 1.376 . S
C2525 C2524 1.392 . S
C2525 H2537 0.929 . S
C2526 C2522 1.531 . S
C2526 H2538 0.960 . S
C2526 H2539 0.962 . S
C2526 H2540 0.960 . S
C2527 C2524 1.511 . S
C2527 H2541 0.961 . S
C2527 H2542 0.961 . S
C2527 H2543 0.961 . S
C2528 C2529 1.370 . S
C2528 C2530 1.363 . S
C2528 H2544 0.931 . S
C2529 C2528 1.370 . S
C2529 C2533 1.408 . S
C2530 C2528 1.363 . S
C2530 C2531 1.370 . S
C2530 C2534 1.524 . S
C2531 C2523 1.503 . S
C2531 C2530 1.370 . S
C2531 C2532 1.403 . S
C2532 C2531 1.403 . S
C2532 C2533 1.404 . S
C2532 C2535 1.539 . S
C2533 C2529 1.408 . S
C2533 C2532 1.404 . S
C2533 H2545 0.930 . S
C2534 C2530 1.524 . S
C2534 H2546 0.956 . S
C2534 H2547 0.961 . S
C2534 H2548 0.961 . S
C2535 C2532 1.539 . S
C2535 H2549 0.958 . S
C2535 H2550 0.961 . S
C2535 H2551 0.960 . S
H2536 C2520 0.931 . S
H2537 C2525 0.929 . S
H2538 C2526 0.960 . S
H2539 C2526 0.962 . S
H2540 C2526 0.960 . S
H2541 C2527 0.961 . S
H2542 C2527 0.961 . S
H2543 C2527 0.961 . S
H2544 C2528 0.931 . S
H2545 C2533 0.930 . S
H2546 C2534 0.956 . S
H2547 C2534 0.961 . S
H2548 C2534 0.961 . S
H2549 C2535 0.958 . S
H2550 C2535 0.961 . S
H2551 C2535 0.960 . S
C2552 C2553 1.391 1_655 S
C2552 C2554 1.394 . S
C2552 H2568 0.931 . S
C2553 C2552 1.391 1_455 S
C2553 C2557 1.376 . S
C2554 C2552 1.394 . S
C2554 C2555 1.369 1_655 S
C2554 C2558 1.531 . S
C2555 C2554 1.369 1_455 S
C2555 C2556 1.410 . S
C2555 C2563 1.503 . S
C2556 C2555 1.410 . S
C2556 C2557 1.392 . S
C2556 C2559 1.511 . S
C2557 C2553 1.376 . S
C2557 C2556 1.392 . S
C2557 H2569 0.929 . S
C2558 C2554 1.531 . S
C2558 H2570 0.960 . S
C2558 H2571 0.962 . S
C2558 H2572 0.960 . S
C2559 C2556 1.511 . S
C2559 H2573 0.961 . S
C2559 H2574 0.967 . S
C2559 H2575 0.961 1_556 S
C2560 C2561 1.370 . S
C2560 C2562 1.363 1_554 S
C2560 H2576 0.941 . S
C2561 C2560 1.370 . S
C2561 C2565 1.408 . S
C2562 C2560 1.363 1_556 S
C2562 C2563 1.370 . S
C2562 C2566 1.524 . S
C2563 C2555 1.503 . S
C2563 C2562 1.370 . S
C2563 C2564 1.403 1_556 S
C2564 C2563 1.403 1_554 S
C2564 C2565 1.404 . S
C2564 C2567 1.539 1_455 S
C2565 C2561 1.408 . S
C2565 C2564 1.404 . S
C2565 H2577 0.930 . S
C2566 C2562 1.524 . S
C2566 H2578 0.956 . S
C2566 H2579 0.961 . S
C2566 H2580 0.961 . S
C2567 C2564 1.539 1_655 S
C2567 H2581 0.958 . S
C2567 H2582 0.961 . S
C2567 H2583 0.960 . S
H2568 C2552 0.931 . S
H2569 C2557 0.929 . S
H2570 C2558 0.960 . S
H2571 C2558 0.962 . S
H2572 C2558 0.960 . S
H2573 C2559 0.961 . S
H2574 C2559 0.967 . S
H2575 C2559 0.961 1_554 S
H2576 C2560 0.941 . S
H2577 C2565 0.930 . S
H2578 C2566 0.956 . S
H2579 C2566 0.961 . S
H2580 C2566 0.961 . S
H2581 C2567 0.958 . S
H2582 C2567 0.961 . S
H2583 C2567 0.960 . S
C2584 C2585 1.391 . S
C2584 C2586 1.394 1_455 S
C2584 H2600 0.931 . S
C2585 C2584 1.391 . S
C2585 C2589 1.376 . S
C2586 C2584 1.394 1_655 S
C2586 C2587 1.369 . S
C2586 C2590 1.531 . S
C2587 C2586 1.369 . S
C2587 C2588 1.410 1_655 S
C2587 C2595 1.503 . S
C2588 C2587 1.410 1_455 S
C2588 C2589 1.392 . S
C2588 C2591 1.511 . S
C2589 C2585 1.376 . S
C2589 C2588 1.392 . S
C2589 H2601 0.929 . S
C2590 C2586 1.531 . S
C2590 H2602 0.960 . S
C2590 H2603 0.962 . S
C2590 H2604 0.960 . S
C2591 C2588 1.511 . S
C2591 H2605 0.961 . S
C2591 H2606 0.961 1_455 S
C2591 H2607 0.961 . S
C2592 C2593 1.370 . S
C2592 C2594 1.363 . S
C2592 H2608 0.931 . S
C2593 C2592 1.370 . S
C2593 C2597 1.408 . S
C2594 C2592 1.363 . S
C2594 C2595 1.370 . S
C2594 C2598 1.524 . S
C2595 C2587 1.503 . S
C2595 C2594 1.370 . S
C2595 C2596 1.403 . S
C2596 C2595 1.403 . S
C2596 C2597 1.404 . S
C2596 C2599 1.539 . S
C2597 C2593 1.408 . S
C2597 C2596 1.404 . S
C2597 H2609 0.930 . S
C2598 C2594 1.524 . S
C2598 H2610 0.956 . S
C2598 H2611 0.961 . S
C2598 H2612 0.961 . S
C2599 C2596 1.539 . S
C2599 H2613 0.958 . S
C2599 H2614 0.961 . S
C2599 H2615 0.960 . S
H2600 C2584 0.931 . S
H2601 C2589 0.929 . S
H2602 C2590 0.960 . S
H2603 C2590 0.962 . S
H2604 C2590 0.960 . S
H2605 C2591 0.961 . S
H2606 C2591 0.961 1_655 S
H2607 C2591 0.961 . S
H2608 C2592 0.931 . S
H2609 C2597 0.930 . S
H2610 C2598 0.956 . S
H2611 C2598 0.961 . S
H2612 C2598 0.961 . S
H2613 C2599 0.958 . S
H2614 C2599 0.961 . S
H2615 C2599 0.960 . S
C2616 C2617 1.391 . S
C2616 C2618 1.394 . S
C2616 H2632 0.931 . S
C2617 C2616 1.391 . S
C2617 C2621 1.376 . S
C2618 C2616 1.394 . S
C2618 C2619 1.369 . S
C2618 C2622 1.531 . S
C2619 C2618 1.369 . S
C2619 C2620 1.410 . S
C2619 C2627 1.503 . S
C2620 C2619 1.410 . S
C2620 C2621 1.392 . S
C2620 C2623 1.511 . S
C2621 C2617 1.376 . S
C2621 C2620 1.392 . S
C2621 H2633 0.929 . S
C2622 C2618 1.531 . S
C2622 H2634 0.960 . S
C2622 H2635 0.962 . S
C2622 H2636 0.960 . S
C2623 C2620 1.511 . S
C2623 H2637 0.961 . S
C2623 H2638 0.961 . S
C2623 H2639 0.961 . S
C2624 C2625 1.370 . S
C2624 C2626 1.363 . S
C2624 H2640 0.931 . S
C2625 C2624 1.370 . S
C2625 C2629 1.408 . S
C2626 C2624 1.363 . S
C2626 C2627 1.370 . S
C2626 C2630 1.524 . S
C2627 C2619 1.503 . S
C2627 C2626 1.370 . S
C2627 C2628 1.403 . S
C2628 C2627 1.403 . S
C2628 C2629 1.404 . S
C2628 C2631 1.539 . S
C2629 C2625 1.408 . S
C2629 C2628 1.404 . S
C2629 H2641 0.930 . S
C2630 C2626 1.524 . S
C2630 H2642 0.956 . S
C2630 H2643 0.961 . S
C2630 H2644 0.961 . S
C2631 C2628 1.539 . S
C2631 H2645 0.958 . S
C2631 H2646 0.961 . S
C2631 H2647 0.960 . S
H2632 C2616 0.931 . S
H2633 C2621 0.929 . S
H2634 C2622 0.960 . S
H2635 C2622 0.962 . S
H2636 C2622 0.960 . S
H2637 C2623 0.961 . S
H2638 C2623 0.961 . S
H2639 C2623 0.961 . S
H2640 C2624 0.931 . S
H2641 C2629 0.930 . S
H2642 C2630 0.956 . S
H2643 C2630 0.961 . S
H2644 C2630 0.961 . S
H2645 C2631 0.958 . S
H2646 C2631 0.961 . S
H2647 C2631 0.960 . S
C2648 C2649 1.391 . S
C2648 C2650 1.394 . S
C2648 H2664 0.931 . S
C2649 C2648 1.391 . S
C2649 C2653 1.376 . S
C2650 C2648 1.394 . S
C2650 C2651 1.369 . S
C2650 C2654 1.531 . S
C2651 C2650 1.369 . S
C2651 C2652 1.410 . S
C2651 C2659 1.503 1_455 S
C2652 C2651 1.410 . S
C2652 C2653 1.392 . S
C2652 C2655 1.511 1_455 S
C2653 C2649 1.376 . S
C2653 C2652 1.392 . S
C2653 H2665 0.929 . S
C2654 C2650 1.531 . S
C2654 H2666 0.960 . S
C2654 H2667 0.962 . S
C2654 H2668 0.960 . S
C2655 C2652 1.511 1_655 S
C2655 H2669 0.961 . S
C2655 H2670 0.961 . S
C2655 H2671 0.961 . S
C2656 C2657 1.370 . S
C2656 C2658 1.363 . S
C2656 H2672 0.931 . S
C2657 C2656 1.370 . S
C2657 C2661 1.408 . S
C2658 C2656 1.363 . S
C2658 C2659 1.370 . S
C2658 C2662 1.524 1_655 S
C2659 C2651 1.503 1_655 S
C2659 C2658 1.370 . S
C2659 C2660 1.403 . S
C2660 C2659 1.403 . S
C2660 C2661 1.404 . S
C2660 C2663 1.539 . S
C2661 C2657 1.408 . S
C2661 C2660 1.404 . S
C2661 H2673 0.930 . S
C2662 C2658 1.524 1_455 S
C2662 H2674 0.956 . S
C2662 H2675 0.961 . S
C2662 H2676 0.961 . S
C2663 C2660 1.539 . S
C2663 H2677 0.958 . S
C2663 H2678 0.961 . S
C2663 H2679 0.960 . S
H2664 C2648 0.931 . S
H2665 C2653 0.929 . S
H2666 C2654 0.960 . S
H2667 C2654 0.962 . S
H2668 C2654 0.960 . S
H2669 C2655 0.961 . S
H2670 C2655 0.961 . S
H2671 C2655 0.961 . S
H2672 C2656 0.931 . S
H2673 C2661 0.930 . S
H2674 C2662 0.956 . S
H2675 C2662 0.961 . S
H2676 C2662 0.961 . S
H2677 C2663 0.958 . S
H2678 C2663 0.961 . S
H2679 C2663 0.960 . S
C2680 C2681 1.391 . S
C2680 C2682 1.394 . S
C2680 H2696 0.931 . S
C2681 C2680 1.391 . S
C2681 C2685 1.376 1_655 S
C2682 C2680 1.394 . S
C2682 C2683 1.369 1_655 S
C2682 C2686 1.531 . S
C2683 C2682 1.369 1_455 S
C2683 C2684 1.410 . S
C2683 C2691 1.503 . S
C2684 C2683 1.410 . S
C2684 C2685 1.392 . S
C2684 C2687 1.511 . S
C2685 C2681 1.376 1_455 S
C2685 C2684 1.392 . S
C2685 H2697 0.929 . S
C2686 C2682 1.531 . S
C2686 H2698 0.960 . S
C2686 H2699 0.962 . S
C2686 H2700 0.960 . S
C2687 C2684 1.511 . S
C2687 H2701 0.961 . S
C2687 H2702 0.961 . S
C2687 H2703 0.961 . S
C2688 C2689 1.370 . S
C2688 C2690 1.363 . S
C2688 H2704 0.931 . S
C2689 C2688 1.370 . S
C2689 C2693 1.408 . S
C2690 C2688 1.363 . S
C2690 C2691 1.370 . S
C2690 C2694 1.524 1_455 S
C2691 C2683 1.503 . S
C2691 C2690 1.370 . S
C2691 C2692 1.403 . S
C2692 C2691 1.403 . S
C2692 C2693 1.404 . S
C2692 C2695 1.539 . S
C2693 C2689 1.408 . S
C2693 C2692 1.404 . S
C2693 H2705 0.930 . S
C2694 C2690 1.524 1_655 S
C2694 H2706 0.956 . S
C2694 H2707 0.961 . S
C2694 H2708 0.961 . S
C2695 C2692 1.539 . S
C2695 H2709 0.958 . S
C2695 H2710 0.961 . S
C2695 H2711 0.960 . S
H2696 C2680 0.931 . S
H2697 C2685 0.929 . S
H2698 C2686 0.960 . S
H2699 C2686 0.962 . S
H2700 C2686 0.960 . S
H2701 C2687 0.961 . S
H2702 C2687 0.961 . S
H2703 C2687 0.961 . S
H2704 C2688 0.931 . S
H2705 C2693 0.930 . S
H2706 C2694 0.956 . S
H2707 C2694 0.961 . S
H2708 C2694 0.961 . S
H2709 C2695 0.958 . S
H2710 C2695 0.961 . S
H2711 C2695 0.960 . S
C2712 C2713 1.391 . S
C2712 C2714 1.394 . S
C2712 H2728 0.931 . S
C2713 C2712 1.391 . S
C2713 C2717 1.376 . S
C2714 C2712 1.394 . S
C2714 C2715 1.369 . S
C2714 C2718 1.531 . S
C2715 C2714 1.369 . S
C2715 C2716 1.410 . S
C2715 C2723 1.503 . S
C2716 C2715 1.410 . S
C2716 C2717 1.392 . S
C2716 C2719 1.511 . S
C2717 C2713 1.376 . S
C2717 C2716 1.392 . S
C2717 H2729 0.929 . S
C2718 C2714 1.531 . S
C2718 H2730 0.960 . S
C2718 H2731 0.962 . S
C2718 H2732 0.960 . S
C2719 C2716 1.511 . S
C2719 H2733 0.961 . S
C2719 H2734 0.961 . S
C2719 H2735 0.961 . S
C2720 C2721 1.370 . S
C2720 C2722 1.363 . S
C2720 H2736 0.931 . S
C2721 C2720 1.370 . S
C2721 C2725 1.408 . S
C2722 C2720 1.363 . S
C2722 C2723 1.370 . S
C2722 C2726 1.524 . S
C2723 C2715 1.503 . S
C2723 C2722 1.370 . S
C2723 C2724 1.403 . S
C2724 C2723 1.403 . S
C2724 C2725 1.404 . S
C2724 C2727 1.539 . S
C2725 C2721 1.408 . S
C2725 C2724 1.404 . S
C2725 H2737 0.930 . S
C2726 C2722 1.524 . S
C2726 H2738 0.956 . S
C2726 H2739 0.961 . S
C2726 H2740 0.961 . S
C2727 C2724 1.539 . S
C2727 H2741 0.958 . S
C2727 H2742 0.961 . S
C2727 H2743 0.960 . S
H2728 C2712 0.931 . S
H2729 C2717 0.929 . S
H2730 C2718 0.960 . S
H2731 C2718 0.962 . S
H2732 C2718 0.960 . S
H2733 C2719 0.961 . S
H2734 C2719 0.961 . S
H2735 C2719 0.961 . S
H2736 C2720 0.931 . S
H2737 C2725 0.930 . S
H2738 C2726 0.956 . S
H2739 C2726 0.961 . S
H2740 C2726 0.961 . S
H2741 C2727 0.958 . S
H2742 C2727 0.961 . S
H2743 C2727 0.960 . S
C2744 C2745 1.391 . S
C2744 C2746 1.394 . S
C2744 H2760 0.931 . S
C2745 C2744 1.391 . S
C2745 C2749 1.376 . S
C2746 C2744 1.394 . S
C2746 C2747 1.369 . S
C2746 C2750 1.531 . S
C2747 C2746 1.369 . S
C2747 C2748 1.410 . S
C2747 C2755 1.503 . S
C2748 C2747 1.410 . S
C2748 C2749 1.392 . S
C2748 C2751 1.511 . S
C2749 C2745 1.376 . S
C2749 C2748 1.392 . S
C2749 H2761 0.929 . S
C2750 C2746 1.531 . S
C2750 H2762 0.960 . S
C2750 H2763 0.962 . S
C2750 H2764 0.960 . S
C2751 C2748 1.511 . S
C2751 H2765 0.961 . S
C2751 H2766 0.961 . S
C2751 H2767 0.961 . S
C2752 C2753 1.370 . S
C2752 C2754 1.363 . S
C2752 H2768 0.931 . S
C2753 C2752 1.370 . S
C2753 C2757 1.408 . S
C2754 C2752 1.363 . S
C2754 C2755 1.370 . S
C2754 C2758 1.524 . S
C2755 C2747 1.503 . S
C2755 C2754 1.370 . S
C2755 C2756 1.403 . S
C2756 C2755 1.403 . S
C2756 C2757 1.404 . S
C2756 C2759 1.539 . S
C2757 C2753 1.408 . S
C2757 C2756 1.404 . S
C2757 H2769 0.930 . S
C2758 C2754 1.524 . S
C2758 H2770 0.956 . S
C2758 H2771 0.961 . S
C2758 H2772 0.961 . S
C2759 C2756 1.539 . S
C2759 H2773 0.958 . S
C2759 H2774 0.961 . S
C2759 H2775 0.960 . S
H2760 C2744 0.931 . S
H2761 C2749 0.929 . S
H2762 C2750 0.960 . S
H2763 C2750 0.962 . S
H2764 C2750 0.960 . S
H2765 C2751 0.961 . S
H2766 C2751 0.961 . S
H2767 C2751 0.961 . S
H2768 C2752 0.931 . S
H2769 C2757 0.930 . S
H2770 C2758 0.956 . S
H2771 C2758 0.961 . S
H2772 C2758 0.961 . S
H2773 C2759 0.958 . S
H2774 C2759 0.961 . S
H2775 C2759 0.960 . S
C2776 C2777 1.391 . S
C2776 C2778 1.394 . S
C2776 H2792 0.931 . S
C2777 C2776 1.391 . S
C2777 C2781 1.376 . S
C2778 C2776 1.394 . S
C2778 C2779 1.369 . S
C2778 C2782 1.531 . S
C2779 C2778 1.369 . S
C2779 C2780 1.410 . S
C2779 C2787 1.503 . S
C2780 C2779 1.410 . S
C2780 C2781 1.392 . S
C2780 C2783 1.511 . S
C2781 C2777 1.376 . S
C2781 C2780 1.392 . S
C2781 H2793 0.929 1_556 S
C2782 C2778 1.531 . S
C2782 H2794 0.960 . S
C2782 H2795 0.962 . S
C2782 H2796 0.960 . S
C2783 C2780 1.511 . S
C2783 H2797 0.961 . S
C2783 H2798 0.961 . S
C2783 H2799 0.961 . S
C2784 C2785 1.370 . S
C2784 C2786 1.363 . S
C2784 H2800 0.931 . S
C2785 C2784 1.370 . S
C2785 C2789 1.408 . S
C2786 C2784 1.363 . S
C2786 C2787 1.370 . S
C2786 C2790 1.524 . S
C2787 C2779 1.503 . S
C2787 C2786 1.370 . S
C2787 C2788 1.403 . S
C2788 C2787 1.403 . S
C2788 C2789 1.404 . S
C2788 C2791 1.539 . S
C2789 C2785 1.408 . S
C2789 C2788 1.404 . S
C2789 H2801 0.930 . S
C2790 C2786 1.524 . S
C2790 H2802 0.956 . S
C2790 H2803 0.961 . S
C2790 H2804 0.961 . S
C2791 C2788 1.539 . S
C2791 H2805 0.958 . S
C2791 H2806 0.961 . S
C2791 H2807 0.960 . S
H2792 C2776 0.931 . S
H2793 C2781 0.929 1_554 S
H2794 C2782 0.960 . S
H2795 C2782 0.962 . S
H2796 C2782 0.960 . S
H2797 C2783 0.961 . S
H2798 C2783 0.961 . S
H2799 C2783 0.961 . S
H2800 C2784 0.931 . S
H2801 C2789 0.930 . S
H2802 C2790 0.956 . S
H2803 C2790 0.961 . S
H2804 C2790 0.961 . S
H2805 C2791 0.958 . S
H2806 C2791 0.961 . S
H2807 C2791 0.960 . S
C2808 C2809 1.391 . S
C2808 C2810 1.394 . S
C2808 H2824 0.931 . S
C2809 C2808 1.391 . S
C2809 C2813 1.376 . S
C2810 C2808 1.394 . S
C2810 C2811 1.369 . S
C2810 C2814 1.531 . S
C2811 C2810 1.369 . S
C2811 C2812 1.410 . S
C2811 C2819 1.503 . S
C2812 C2811 1.410 . S
C2812 C2813 1.392 . S
C2812 C2815 1.511 . S
C2813 C2809 1.376 . S
C2813 C2812 1.392 . S
C2813 H2825 0.929 . S
C2814 C2810 1.531 . S
C2814 H2826 0.960 . S
C2814 H2827 0.962 . S
C2814 H2828 0.960 . S
C2815 C2812 1.511 . S
C2815 H2829 0.961 . S
C2815 H2830 0.961 . S
C2815 H2831 0.961 . S
C2816 C2817 1.370 . S
C2816 C2818 1.363 . S
C2816 H2832 0.931 . S
C2817 C2816 1.370 . S
C2817 C2821 1.408 . S
C2818 C2816 1.363 . S
C2818 C2819 1.370 . S
C2818 C2822 1.524 . S
C2819 C2811 1.503 . S
C2819 C2818 1.370 . S
C2819 C2820 1.403 . S
C2820 C2819 1.403 . S
C2820 C2821 1.404 . S
C2820 C2823 1.539 . S
C2821 C2817 1.408 . S
C2821 C2820 1.404 . S
C2821 H2833 0.930 . S
C2822 C2818 1.524 . S
C2822 H2834 0.956 . S
C2822 H2835 0.961 . S
C2822 H2836 0.961 . S
C2823 C2820 1.539 . S
C2823 H2837 0.958 . S
C2823 H2838 0.961 . S
C2823 H2839 0.960 . S
H2824 C2808 0.931 . S
H2825 C2813 0.929 . S
H2826 C2814 0.960 . S
H2827 C2814 0.962 . S
H2828 C2814 0.960 . S
H2829 C2815 0.961 . S
H2830 C2815 0.961 . S
H2831 C2815 0.961 . S
H2832 C2816 0.931 . S
H2833 C2821 0.930 . S
H2834 C2822 0.956 . S
H2835 C2822 0.961 . S
H2836 C2822 0.961 . S
H2837 C2823 0.958 . S
H2838 C2823 0.961 . S
H2839 C2823 0.960 . S
C2840 C2841 1.391 . S
C2840 C2842 1.394 . S
C2840 H2856 0.931 . S
C2841 C2840 1.391 . S
C2841 C2845 1.376 . S
C2842 C2840 1.394 . S
C2842 C2843 1.369 . S
C2842 C2846 1.531 . S
C2843 C2842 1.369 . S
C2843 C2844 1.410 . S
C2843 C2851 1.503 . S
C2844 C2843 1.410 . S
C2844 C2845 1.392 . S
C2844 C2847 1.511 . S
C2845 C2841 1.376 . S
C2845 C2844 1.392 . S
C2845 H2857 0.929 . S
C2846 C2842 1.531 . S
C2846 H2858 0.960 . S
C2846 H2859 0.962 . S
C2846 H2860 0.960 . S
C2847 C2844 1.511 . S
C2847 H2861 0.961 . S
C2847 H2862 0.961 . S
C2847 H2863 0.961 . S
C2848 C2849 1.370 . S
C2848 C2850 1.363 . S
C2848 H2864 0.931 . S
C2849 C2848 1.370 . S
C2849 C2853 1.408 . S
C2850 C2848 1.363 . S
C2850 C2851 1.370 . S
C2850 C2854 1.524 . S
C2851 C2843 1.503 . S
C2851 C2850 1.370 . S
C2851 C2852 1.403 . S
C2852 C2851 1.403 . S
C2852 C2853 1.404 . S
C2852 C2855 1.539 . S
C2853 C2849 1.408 . S
C2853 C2852 1.404 . S
C2853 H2865 0.930 . S
C2854 C2850 1.524 . S
C2854 H2866 0.956 . S
C2854 H2867 0.961 . S
C2854 H2868 0.961 . S
C2855 C2852 1.539 . S
C2855 H2869 0.958 . S
C2855 H2870 0.961 . S
C2855 H2871 0.960 . S
H2856 C2840 0.931 . S
H2857 C2845 0.929 . S
H2858 C2846 0.960 . S
H2859 C2846 0.962 . S
H2860 C2846 0.960 . S
H2861 C2847 0.961 . S
H2862 C2847 0.961 . S
H2863 C2847 0.961 . S
H2864 C2848 0.931 . S
H2865 C2853 0.930 . S
H2866 C2854 0.956 . S
H2867 C2854 0.961 . S
H2868 C2854 0.961 . S
H2869 C2855 0.958 . S
H2870 C2855 0.961 . S
H2871 C2855 0.960 . S
C2872 C2873 1.391 . S
C2872 C2874 1.394 . S
C2872 H2888 0.931 . S
C2873 C2872 1.391 . S
C2873 C2877 1.376 . S
C2874 C2872 1.394 . S
C2874 C2875 1.369 . S
C2874 C2878 1.531 . S
C2875 C2874 1.369 . S
C2875 C2876 1.410 . S
C2875 C2883 1.503 . S
C2876 C2875 1.410 . S
C2876 C2877 1.392 . S
C2876 C2879 1.511 . S
C2877 C2873 1.376 . S
C2877 C2876 1.392 . S
C2877 H2889 0.929 . S
C2878 C2874 1.531 . S
C2878 H2890 0.960 . S
C2878 H2891 0.962 . S
C2878 H2892 0.960 . S
C2879 C2876 1.511 . S
C2879 H2893 0.961 . S
C2879 H2894 0.961 . S
C2879 H2895 0.961 . S
C2880 C2881 1.370 . S
C2880 C2882 1.363 . S
C2880 H2896 0.931 . S
C2881 C2880 1.370 . S
C2881 C2885 1.408 . S
C2882 C2880 1.363 . S
C2882 C2883 1.370 . S
C2882 C2886 1.524 . S
C2883 C2875 1.503 . S
C2883 C2882 1.370 . S
C2883 C2884 1.403 . S
C2884 C2883 1.403 . S
C2884 C2885 1.404 . S
C2884 C2887 1.539 . S
C2885 C2881 1.408 . S
C2885 C2884 1.404 . S
C2885 H2897 0.930 . S
C2886 C2882 1.524 . S
C2886 H2898 0.956 . S
C2886 H2899 0.961 . S
C2886 H2900 0.961 . S
C2887 C2884 1.539 . S
C2887 H2901 0.958 . S
C2887 H2902 0.961 . S
C2887 H2903 0.960 . S
H2888 C2872 0.931 . S
H2889 C2877 0.929 . S
H2890 C2878 0.960 . S
H2891 C2878 0.962 . S
H2892 C2878 0.960 . S
H2893 C2879 0.961 . S
H2894 C2879 0.961 . S
H2895 C2879 0.961 . S
H2896 C2880 0.931 . S
H2897 C2885 0.930 . S
H2898 C2886 0.956 . S
H2899 C2886 0.961 . S
H2900 C2886 0.961 . S
H2901 C2887 0.958 . S
H2902 C2887 0.961 . S
H2903 C2887 0.960 . S
C2904 C2905 1.391 . S
C2904 C2906 1.394 . S
C2904 H2920 0.931 . S
C2905 C2904 1.391 . S
C2905 C2909 1.376 . S
C2906 C2904 1.394 . S
C2906 C2907 1.369 . S
C2906 C2910 1.531 . S
C2907 C2906 1.369 . S
C2907 C2908 1.410 . S
C2907 C2915 1.503 . S
C2908 C2907 1.410 . S
C2908 C2909 1.392 . S
C2908 C2911 1.511 . S
C2909 C2905 1.376 . S
C2909 C2908 1.392 . S
C2909 H2921 0.929 . S
C2910 C2906 1.531 . S
C2910 H2922 0.960 . S
C2910 H2923 0.962 . S
C2910 H2924 0.960 . S
C2911 C2908 1.511 . S
C2911 H2925 0.961 . S
C2911 H2926 0.961 . S
C2911 H2927 0.961 . S
C2912 C2913 1.370 . S
C2912 C2914 1.363 . S
C2912 H2928 0.931 . S
C2913 C2912 1.370 . S
C2913 C2917 1.408 . S
C2914 C2912 1.363 . S
C2914 C2915 1.370 . S
C2914 C2918 1.524 . S
C2915 C2907 1.503 . S
C2915 C2914 1.370 . S
C2915 C2916 1.403 . S
C2916 C2915 1.403 . S
C2916 C2917 1.404 . S
C2916 C2919 1.539 . S
C2917 C2913 1.408 . S
C2917 C2916 1.404 . S
C2917 H2929 0.930 . S
C2918 C2914 1.524 . S
C2918 H2930 0.956 . S
C2918 H2931 0.961 . S
C2918 H2932 0.961 . S
C2919 C2916 1.539 . S
C2919 H2933 0.958 . S
C2919 H2934 0.961 . S
C2919 H2935 0.960 . S
H2920 C2904 0.931 . S
H2921 C2909 0.929 . S
H2922 C2910 0.960 . S
H2923 C2910 0.962 . S
H2924 C2910 0.960 . S
H2925 C2911 0.961 . S
H2926 C2911 0.961 . S
H2927 C2911 0.961 . S
H2928 C2912 0.931 . S
H2929 C2917 0.930 . S
H2930 C2918 0.956 . S
H2931 C2918 0.961 . S
H2932 C2918 0.961 . S
H2933 C2919 0.958 . S
H2934 C2919 0.961 . S
H2935 C2919 0.960 . S
C2936 C2937 1.391 . S
C2936 C2938 1.394 . S
C2936 H2952 0.931 . S
C2937 C2936 1.391 . S
C2937 C2941 1.376 . S
C2938 C2936 1.394 . S
C2938 C2939 1.369 . S
C2938 C2942 1.531 . S
C2939 C2938 1.369 . S
C2939 C2940 1.410 . S
C2939 C2947 1.503 . S
C2940 C2939 1.410 . S
C2940 C2941 1.392 . S
C2940 C2943 1.511 . S
C2941 C2937 1.376 . S
C2941 C2940 1.392 . S
C2941 H2953 0.929 . S
C2942 C2938 1.531 . S
C2942 H2954 0.960 . S
C2942 H2955 0.962 . S
C2942 H2956 0.960 . S
C2943 C2940 1.511 . S
C2943 H2957 0.961 . S
C2943 H2958 0.961 . S
C2943 H2959 0.961 . S
C2944 C2945 1.370 . S
C2944 C2946 1.363 . S
C2944 H2960 0.931 . S
C2945 C2944 1.370 . S
C2945 C2949 1.408 . S
C2946 C2944 1.363 . S
C2946 C2947 1.370 . S
C2946 C2950 1.524 . S
C2947 C2939 1.503 . S
C2947 C2946 1.370 . S
C2947 C2948 1.403 . S
C2948 C2947 1.403 . S
C2948 C2949 1.404 . S
C2948 C2951 1.539 . S
C2949 C2945 1.408 . S
C2949 C2948 1.404 . S
C2949 H2961 0.930 . S
C2950 C2946 1.524 . S
C2950 H2962 0.956 . S
C2950 H2963 0.961 . S
C2950 H2964 0.961 . S
C2951 C2948 1.539 . S
C2951 H2965 0.958 . S
C2951 H2966 0.961 . S
C2951 H2967 0.960 . S
H2952 C2936 0.931 . S
H2953 C2941 0.929 . S
H2954 C2942 0.960 . S
H2955 C2942 0.962 . S
H2956 C2942 0.960 . S
H2957 C2943 0.961 . S
H2958 C2943 0.961 . S
H2959 C2943 0.961 . S
H2960 C2944 0.931 . S
H2961 C2949 0.930 . S
H2962 C2950 0.956 . S
H2963 C2950 0.961 . S
H2964 C2950 0.961 . S
H2965 C2951 0.958 . S
H2966 C2951 0.961 . S
H2967 C2951 0.960 . S
C2968 C2969 1.391 . S
C2968 C2970 1.394 . S
C2968 H2984 0.931 . S
C2969 C2968 1.391 . S
C2969 C2973 1.376 . S
C2970 C2968 1.394 . S
C2970 C2971 1.369 . S
C2970 C2974 1.531 . S
C2971 C2970 1.369 . S
C2971 C2972 1.410 . S
C2971 C2979 1.503 . S
C2972 C2971 1.410 . S
C2972 C2973 1.392 . S
C2972 C2975 1.511 . S
C2973 C2969 1.376 . S
C2973 C2972 1.392 . S
C2973 H2985 0.929 . S
C2974 C2970 1.531 . S
C2974 H2986 0.960 . S
C2974 H2987 0.962 . S
C2974 H2988 0.960 . S
C2975 C2972 1.511 . S
C2975 H2989 0.961 . S
C2975 H2990 0.961 . S
C2975 H2991 0.961 . S
C2976 C2977 1.370 . S
C2976 C2978 1.363 . S
C2976 H2992 0.931 . S
C2977 C2976 1.370 . S
C2977 C2981 1.408 . S
C2978 C2976 1.363 . S
C2978 C2979 1.370 . S
C2978 C2982 1.524 . S
C2979 C2971 1.503 . S
C2979 C2978 1.370 . S
C2979 C2980 1.403 . S
C2980 C2979 1.403 . S
C2980 C2981 1.404 . S
C2980 C2983 1.539 . S
C2981 C2977 1.408 . S
C2981 C2980 1.404 . S
C2981 H2993 0.930 . S
C2982 C2978 1.524 . S
C2982 H2994 0.956 . S
C2982 H2995 0.961 . S
C2982 H2996 0.961 . S
C2983 C2980 1.539 . S
C2983 H2997 0.958 . S
C2983 H2998 0.961 . S
C2983 H2999 0.960 . S
H2984 C2968 0.931 . S
H2985 C2973 0.929 . S
H2986 C2974 0.960 . S
H2987 C2974 0.962 . S
H2988 C2974 0.960 . S
H2989 C2975 0.961 . S
H2990 C2975 0.961 . S
H2991 C2975 0.961 . S
H2992 C2976 0.931 . S
H2993 C2981 0.930 . S
H2994 C2982 0.956 . S
H2995 C2982 0.961 . S
H2996 C2982 0.961 . S
H2997 C2983 0.958 . S
H2998 C2983 0.961 . S
H2999 C2983 0.960 . S
C3000 C3001 1.391 . S
C3000 C3002 1.394 . S
C3000 H3016 0.931 . S
C3001 C3000 1.391 . S
C3001 C3005 1.376 . S
C3002 C3000 1.394 . S
C3002 C3003 1.369 . S
C3002 C3006 1.531 . S
C3003 C3002 1.369 . S
C3003 C3004 1.410 . S
C3003 C3011 1.503 . S
C3004 C3003 1.410 . S
C3004 C3005 1.392 . S
C3004 C3007 1.511 . S
C3005 C3001 1.376 . S
C3005 C3004 1.392 . S
C3005 H3017 0.929 . S
C3006 C3002 1.531 . S
C3006 H3018 0.960 . S
C3006 H3019 0.962 . S
C3006 H3020 0.960 . S
C3007 C3004 1.511 . S
C3007 H3021 0.961 . S
C3007 H3022 0.961 . S
C3007 H3023 0.961 . S
C3008 C3009 1.370 . S
C3008 C3010 1.363 . S
C3008 H3024 0.931 . S
C3009 C3008 1.370 . S
C3009 C3013 1.408 . S
C3010 C3008 1.363 . S
C3010 C3011 1.370 . S
C3010 C3014 1.524 . S
C3011 C3003 1.503 . S
C3011 C3010 1.370 . S
C3011 C3012 1.403 . S
C3012 C3011 1.403 . S
C3012 C3013 1.404 . S
C3012 C3015 1.539 . S
C3013 C3009 1.408 . S
C3013 C3012 1.404 . S
C3013 H3025 0.930 . S
C3014 C3010 1.524 . S
C3014 H3026 0.956 . S
C3014 H3027 0.961 . S
C3014 H3028 0.961 . S
C3015 C3012 1.539 . S
C3015 H3029 0.958 . S
C3015 H3030 0.961 . S
C3015 H3031 0.960 . S
H3016 C3000 0.931 . S
H3017 C3005 0.929 . S
H3018 C3006 0.960 . S
H3019 C3006 0.962 . S
H3020 C3006 0.960 . S
H3021 C3007 0.961 . S
H3022 C3007 0.961 . S
H3023 C3007 0.961 . S
H3024 C3008 0.931 . S
H3025 C3013 0.930 . S
H3026 C3014 0.956 . S
H3027 C3014 0.961 . S
H3028 C3014 0.961 . S
H3029 C3015 0.958 . S
H3030 C3015 0.961 . S
H3031 C3015 0.960 . S
C3032 C3033 1.391 . S
C3032 C3034 1.394 . S
C3032 H3048 0.931 . S
C3033 C3032 1.391 . S
C3033 C3037 1.376 . S
C3034 C3032 1.394 . S
C3034 C3035 1.369 . S
C3034 C3038 1.531 . S
C3035 C3034 1.369 . S
C3035 C3036 1.410 . S
C3035 C3043 1.503 . S
C3036 C3035 1.410 . S
C3036 C3037 1.392 . S
C3036 C3039 1.511 . S
C3037 C3033 1.376 . S
C3037 C3036 1.392 . S
C3037 H3049 0.929 . S
C3038 C3034 1.531 . S
C3038 H3050 0.960 . S
C3038 H3051 0.962 . S
C3038 H3052 0.960 . S
C3039 C3036 1.511 . S
C3039 H3053 0.961 . S
C3039 H3054 0.961 . S
C3039 H3055 0.961 . S
C3040 C3041 1.370 . S
C3040 C3042 1.363 . S
C3040 H3056 0.931 . S
C3041 C3040 1.370 . S
C3041 C3045 1.408 . S
C3042 C3040 1.363 . S
C3042 C3043 1.370 . S
C3042 C3046 1.524 . S
C3043 C3035 1.503 . S
C3043 C3042 1.370 . S
C3043 C3044 1.403 . S
C3044 C3043 1.403 . S
C3044 C3045 1.404 . S
C3044 C3047 1.539 . S
C3045 C3041 1.408 . S
C3045 C3044 1.404 . S
C3045 H3057 0.930 . S
C3046 C3042 1.524 . S
C3046 H3058 0.956 . S
C3046 H3059 0.961 . S
C3046 H3060 0.961 . S
C3047 C3044 1.539 . S
C3047 H3061 0.958 . S
C3047 H3062 0.961 . S
C3047 H3063 0.960 . S
H3048 C3032 0.931 . S
H3049 C3037 0.929 . S
H3050 C3038 0.960 . S
H3051 C3038 0.962 . S
H3052 C3038 0.960 . S
H3053 C3039 0.961 . S
H3054 C3039 0.961 . S
H3055 C3039 0.961 . S
H3056 C3040 0.931 . S
H3057 C3045 0.930 . S
H3058 C3046 0.956 . S
H3059 C3046 0.961 . S
H3060 C3046 0.961 . S
H3061 C3047 0.958 . S
H3062 C3047 0.961 . S
H3063 C3047 0.960 . S
C3064 C3065 1.391 . S
C3064 C3066 1.394 . S
C3064 H3080 0.931 . S
C3065 C3064 1.391 . S
C3065 C3069 1.376 . S
C3066 C3064 1.394 . S
C3066 C3067 1.369 . S
C3066 C3070 1.531 . S
C3067 C3066 1.369 . S
C3067 C3068 1.410 . S
C3067 C3075 1.503 . S
C3068 C3067 1.410 . S
C3068 C3069 1.392 . S
C3068 C3071 1.511 . S
C3069 C3065 1.376 . S
C3069 C3068 1.392 . S
C3069 H3081 0.929 . S
C3070 C3066 1.531 . S
C3070 H3082 0.960 . S
C3070 H3083 0.962 . S
C3070 H3084 0.960 . S
C3071 C3068 1.511 . S
C3071 H3085 0.961 . S
C3071 H3086 0.961 . S
C3071 H3087 0.961 . S
C3072 C3073 1.370 . S
C3072 C3074 1.363 . S
C3072 H3088 0.931 . S
C3073 C3072 1.370 . S
C3073 C3077 1.408 . S
C3074 C3072 1.363 . S
C3074 C3075 1.370 . S
C3074 C3078 1.524 . S
C3075 C3067 1.503 . S
C3075 C3074 1.370 . S
C3075 C3076 1.403 . S
C3076 C3075 1.403 . S
C3076 C3077 1.404 . S
C3076 C3079 1.539 . S
C3077 C3073 1.408 . S
C3077 C3076 1.404 . S
C3077 H3089 0.930 . S
C3078 C3074 1.524 . S
C3078 H3090 0.956 . S
C3078 H3091 0.961 . S
C3078 H3092 0.961 . S
C3079 C3076 1.539 . S
C3079 H3093 0.958 . S
C3079 H3094 0.961 . S
C3079 H3095 0.960 . S
H3080 C3064 0.931 . S
H3081 C3069 0.929 . S
H3082 C3070 0.960 . S
H3083 C3070 0.962 . S
H3084 C3070 0.960 . S
H3085 C3071 0.961 . S
H3086 C3071 0.961 . S
H3087 C3071 0.961 . S
H3088 C3072 0.931 . S
H3089 C3077 0.930 . S
H3090 C3078 0.956 . S
H3091 C3078 0.961 . S
H3092 C3078 0.961 . S
H3093 C3079 0.958 . S
H3094 C3079 0.961 . S
H3095 C3079 0.960 . S
C3096 C3097 1.391 1_556 S
C3096 C3098 1.394 . S
C3096 H3112 0.931 . S
C3097 C3096 1.391 1_554 S
C3097 C3101 1.376 . S
C3098 C3096 1.394 . S
C3098 C3099 1.369 1_556 S
C3098 C3102 1.531 . S
C3099 C3098 1.369 1_554 S
C3099 C3100 1.410 1_565 S
C3099 C3107 1.503 1_565 S
C3100 C3099 1.410 1_545 S
C3100 C3101 1.392 1_545 S
C3100 C3103 1.511 . S
C3101 C3097 1.376 . S
C3101 C3100 1.392 1_565 S
C3101 H3113 0.929 1_565 S
C3102 C3098 1.531 . S
C3102 H3114 0.960 . S
C3102 H3115 0.962 . S
C3102 H3116 0.960 . S
C3103 C3100 1.511 . S
C3103 H3117 0.961 . S
C3103 H3118 0.961 . S
C3103 H3119 0.961 . S
C3104 C3105 1.370 . S
C3104 C3106 1.362 1_545 S
C3104 H3120 0.931 . S
C3105 C3104 1.370 . S
C3105 C3109 1.408 1_554 S
C3106 C3104 1.362 1_565 S
C3106 C3107 1.368 1_565 S
C3106 C3110 1.527 . S
C3107 C3099 1.503 1_545 S
C3107 C3106 1.368 1_545 S
C3107 C3108 1.403 1_554 S
C3108 C3107 1.403 1_556 S
C3108 C3109 1.404 . S
C3108 C3111 1.539 . S
C3109 C3105 1.408 1_556 S
C3109 C3108 1.404 . S
C3109 H3121 0.930 . S
C3110 C3106 1.527 . S
C3110 H3122 0.956 . S
C3110 H3123 0.961 . S
C3110 H3124 0.961 . S
C3111 C3108 1.539 . S
C3111 H3125 0.958 . S
C3111 H3126 0.961 . S
C3111 H3127 0.960 . S
H3112 C3096 0.931 . S
H3113 C3101 0.929 1_545 S
H3114 C3102 0.960 . S
H3115 C3102 0.962 . S
H3116 C3102 0.960 . S
H3117 C3103 0.961 . S
H3118 C3103 0.961 . S
H3119 C3103 0.961 . S
H3120 C3104 0.931 . S
H3121 C3109 0.930 . S
H3122 C3110 0.956 . S
H3123 C3110 0.961 . S
H3124 C3110 0.961 . S
H3125 C3111 0.958 . S
H3126 C3111 0.961 . S
H3127 C3111 0.960 . S
C3128 C3129 1.391 . S
C3128 C3130 1.394 . S
C3128 H3144 0.931 . S
C3129 C3128 1.391 . S
C3129 C3133 1.376 . S
C3130 C3128 1.394 . S
C3130 C3131 1.369 . S
C3130 C3134 1.531 . S
C3131 C3130 1.369 . S
C3131 C3132 1.410 . S
C3131 C3139 1.503 . S
C3132 C3131 1.410 . S
C3132 C3133 1.392 . S
C3132 C3135 1.511 . S
C3133 C3129 1.376 . S
C3133 C3132 1.392 . S
C3133 H3145 0.929 . S
C3134 C3130 1.531 . S
C3134 H3146 0.960 . S
C3134 H3147 0.962 . S
C3134 H3148 0.960 . S
C3135 C3132 1.511 . S
C3135 H3149 0.961 . S
C3135 H3150 0.961 . S
C3135 H3151 0.961 . S
C3136 C3137 1.370 . S
C3136 C3138 1.363 . S
C3136 H3152 0.931 . S
C3137 C3136 1.370 . S
C3137 C3141 1.408 . S
C3138 C3136 1.363 . S
C3138 C3139 1.370 . S
C3138 C3142 1.524 . S
C3139 C3131 1.503 . S
C3139 C3138 1.370 . S
C3139 C3140 1.403 . S
C3140 C3139 1.403 . S
C3140 C3141 1.404 . S
C3140 C3143 1.539 . S
C3141 C3137 1.408 . S
C3141 C3140 1.404 . S
C3141 H3153 0.930 . S
C3142 C3138 1.524 . S
C3142 H3154 0.956 . S
C3142 H3155 0.961 . S
C3142 H3156 0.961 . S
C3143 C3140 1.539 . S
C3143 H3157 0.958 . S
C3143 H3158 0.961 . S
C3143 H3159 0.960 . S
H3144 C3128 0.931 . S
H3145 C3133 0.929 . S
H3146 C3134 0.960 . S
H3147 C3134 0.962 . S
H3148 C3134 0.960 . S
H3149 C3135 0.961 . S
H3150 C3135 0.961 . S
H3151 C3135 0.961 . S
H3152 C3136 0.931 . S
H3153 C3141 0.930 . S
H3154 C3142 0.956 . S
H3155 C3142 0.961 . S
H3156 C3142 0.961 . S
H3157 C3143 0.958 . S
H3158 C3143 0.961 . S
H3159 C3143 0.960 . S
C3160 C3161 1.391 . S
C3160 C3162 1.394 . S
C3160 H3176 0.931 . S
C3161 C3160 1.391 . S
C3161 C3165 1.376 . S
C3162 C3160 1.394 . S
C3162 C3163 1.369 . S
C3162 C3166 1.531 . S
C3163 C3162 1.369 . S
C3163 C3164 1.410 . S
C3163 C3171 1.503 . S
C3164 C3163 1.410 . S
C3164 C3165 1.392 . S
C3164 C3167 1.511 . S
C3165 C3161 1.376 . S
C3165 C3164 1.392 . S
C3165 H3177 0.929 . S
C3166 C3162 1.531 . S
C3166 H3178 0.960 . S
C3166 H3179 0.962 . S
C3166 H3180 0.960 . S
C3167 C3164 1.511 . S
C3167 H3181 0.961 . S
C3167 H3182 0.961 . S
C3167 H3183 0.961 1_554 S
C3168 C3169 1.370 . S
C3168 C3170 1.363 . S
C3168 H3184 0.931 . S
C3169 C3168 1.370 . S
C3169 C3173 1.408 . S
C3170 C3168 1.363 . S
C3170 C3171 1.370 . S
C3170 C3174 1.524 . S
C3171 C3163 1.503 . S
C3171 C3170 1.370 . S
C3171 C3172 1.403 . S
C3172 C3171 1.403 . S
C3172 C3173 1.404 . S
C3172 C3175 1.539 . S
C3173 C3169 1.408 . S
C3173 C3172 1.404 . S
C3173 H3185 0.930 . S
C3174 C3170 1.524 . S
C3174 H3186 0.956 . S
C3174 H3187 0.961 . S
C3174 H3188 0.961 . S
C3175 C3172 1.539 . S
C3175 H3189 0.958 . S
C3175 H3190 0.961 . S
C3175 H3191 0.960 . S
H3176 C3160 0.931 . S
H3177 C3165 0.929 . S
H3178 C3166 0.960 . S
H3179 C3166 0.962 . S
H3180 C3166 0.960 . S
H3181 C3167 0.961 . S
H3182 C3167 0.961 . S
H3183 C3167 0.961 1_556 S
H3184 C3168 0.931 . S
H3185 C3173 0.930 . S
H3186 C3174 0.956 . S
H3187 C3174 0.961 . S
H3188 C3174 0.961 . S
H3189 C3175 0.958 . S
H3190 C3175 0.961 . S
H3191 C3175 0.960 . S
C3192 C3193 1.391 . S
C3192 C3194 1.394 . S
C3192 H3208 0.931 . S
C3193 C3192 1.391 . S
C3193 C3197 1.376 . S
C3194 C3192 1.394 . S
C3194 C3195 1.369 . S
C3194 C3198 1.531 . S
C3195 C3194 1.369 . S
C3195 C3196 1.410 . S
C3195 C3203 1.503 . S
C3196 C3195 1.410 . S
C3196 C3197 1.392 . S
C3196 C3199 1.511 . S
C3197 C3193 1.376 . S
C3197 C3196 1.392 . S
C3197 H3209 0.929 . S
C3198 C3194 1.531 . S
C3198 H3210 0.960 . S
C3198 H3211 0.962 . S
C3198 H3212 0.960 . S
C3199 C3196 1.511 . S
C3199 H3213 0.961 . S
C3199 H3214 0.961 . S
C3199 H3215 0.961 . S
C3200 C3201 1.370 . S
C3200 C3202 1.363 . S
C3200 H3216 0.931 . S
C3201 C3200 1.370 . S
C3201 C3205 1.408 . S
C3202 C3200 1.363 . S
C3202 C3203 1.370 . S
C3202 C3206 1.524 . S
C3203 C3195 1.503 . S
C3203 C3202 1.370 . S
C3203 C3204 1.403 . S
C3204 C3203 1.403 . S
C3204 C3205 1.404 . S
C3204 C3207 1.539 . S
C3205 C3201 1.408 . S
C3205 C3204 1.404 . S
C3205 H3217 0.930 . S
C3206 C3202 1.524 . S
C3206 H3218 0.956 . S
C3206 H3219 0.961 . S
C3206 H3220 0.961 . S
C3207 C3204 1.539 . S
C3207 H3221 0.958 . S
C3207 H3222 0.961 . S
C3207 H3223 0.960 . S
H3208 C3192 0.931 . S
H3209 C3197 0.929 . S
H3210 C3198 0.960 . S
H3211 C3198 0.962 . S
H3212 C3198 0.960 . S
H3213 C3199 0.961 . S
H3214 C3199 0.961 . S
H3215 C3199 0.961 . S
H3216 C3200 0.931 . S
H3217 C3205 0.930 . S
H3218 C3206 0.956 . S
H3219 C3206 0.961 . S
H3220 C3206 0.961 . S
H3221 C3207 0.958 . S
H3222 C3207 0.961 . S
H3223 C3207 0.960 . S
C3224 C3225 1.391 . S
C3224 C3226 1.394 . S
C3224 H3240 0.931 . S
C3225 C3224 1.391 . S
C3225 C3229 1.376 . S
C3226 C3224 1.394 . S
C3226 C3227 1.369 . S
C3226 C3230 1.531 . S
C3227 C3226 1.369 . S
C3227 C3228 1.410 . S
C3227 C3235 1.503 . S
C3228 C3227 1.410 . S
C3228 C3229 1.392 . S
C3228 C3231 1.511 . S
C3229 C3225 1.376 . S
C3229 C3228 1.392 . S
C3229 H3241 0.929 . S
C3230 C3226 1.531 . S
C3230 H3242 0.960 . S
C3230 H3243 0.962 . S
C3230 H3244 0.960 . S
C3231 C3228 1.511 . S
C3231 H3245 0.961 . S
C3231 H3246 0.961 . S
C3231 H3247 0.961 . S
C3232 C3233 1.370 . S
C3232 C3234 1.363 . S
C3232 H3248 0.931 . S
C3233 C3232 1.370 . S
C3233 C3237 1.408 . S
C3234 C3232 1.363 . S
C3234 C3235 1.370 . S
C3234 C3238 1.524 . S
C3235 C3227 1.503 . S
C3235 C3234 1.370 . S
C3235 C3236 1.403 . S
C3236 C3235 1.403 . S
C3236 C3237 1.404 . S
C3236 C3239 1.539 . S
C3237 C3233 1.408 . S
C3237 C3236 1.404 . S
C3237 H3249 0.930 . S
C3238 C3234 1.524 . S
C3238 H3250 0.956 . S
C3238 H3251 0.961 . S
C3238 H3252 0.961 . S
C3239 C3236 1.539 . S
C3239 H3253 0.958 . S
C3239 H3254 0.961 . S
C3239 H3255 0.960 . S
H3240 C3224 0.931 . S
H3241 C3229 0.929 . S
H3242 C3230 0.960 . S
H3243 C3230 0.962 . S
H3244 C3230 0.960 . S
H3245 C3231 0.961 . S
H3246 C3231 0.961 . S
H3247 C3231 0.961 . S
H3248 C3232 0.931 . S
H3249 C3237 0.930 . S
H3250 C3238 0.956 . S
H3251 C3238 0.961 . S
H3252 C3238 0.961 . S
H3253 C3239 0.958 . S
H3254 C3239 0.961 . S
H3255 C3239 0.960 . S
C3256 C3257 1.391 . S
C3256 C3258 1.394 . S
C3256 H3272 0.931 . S
C3257 C3256 1.391 . S
C3257 C3261 1.376 . S
C3258 C3256 1.394 . S
C3258 C3259 1.369 . S
C3258 C3262 1.531 . S
C3259 C3258 1.369 . S
C3259 C3260 1.410 . S
C3259 C3267 1.503 . S
C3260 C3259 1.410 . S
C3260 C3261 1.392 . S
C3260 C3263 1.511 . S
C3261 C3257 1.376 . S
C3261 C3260 1.392 . S
C3261 H3273 0.929 . S
C3262 C3258 1.531 . S
C3262 H3274 0.960 . S
C3262 H3275 0.962 . S
C3262 H3276 0.960 . S
C3263 C3260 1.511 . S
C3263 H3277 0.961 . S
C3263 H3278 0.961 . S
C3263 H3279 0.961 . S
C3264 C3265 1.370 . S
C3264 C3266 1.363 . S
C3264 H3280 0.931 . S
C3265 C3264 1.370 . S
C3265 C3269 1.408 . S
C3266 C3264 1.363 . S
C3266 C3267 1.370 . S
C3266 C3270 1.524 . S
C3267 C3259 1.503 . S
C3267 C3266 1.370 . S
C3267 C3268 1.403 . S
C3268 C3267 1.403 . S
C3268 C3269 1.404 . S
C3268 C3271 1.539 . S
C3269 C3265 1.408 . S
C3269 C3268 1.404 . S
C3269 H3281 0.930 . S
C3270 C3266 1.524 . S
C3270 H3282 0.956 . S
C3270 H3283 0.961 . S
C3270 H3284 0.961 . S
C3271 C3268 1.539 . S
C3271 H3285 0.958 . S
C3271 H3286 0.961 . S
C3271 H3287 0.960 . S
H3272 C3256 0.931 . S
H3273 C3261 0.929 . S
H3274 C3262 0.960 . S
H3275 C3262 0.962 . S
H3276 C3262 0.960 . S
H3277 C3263 0.961 . S
H3278 C3263 0.961 . S
H3279 C3263 0.961 . S
H3280 C3264 0.931 . S
H3281 C3269 0.930 . S
H3282 C3270 0.956 . S
H3283 C3270 0.961 . S
H3284 C3270 0.961 . S
H3285 C3271 0.958 . S
H3286 C3271 0.961 . S
H3287 C3271 0.960 . S
C3288 C3289 1.391 . S
C3288 C3290 1.394 . S
C3288 H3304 0.931 . S
C3289 C3288 1.391 . S
C3289 C3293 1.376 . S
C3290 C3288 1.394 . S
C3290 C3291 1.369 . S
C3290 C3294 1.531 . S
C3291 C3290 1.369 . S
C3291 C3292 1.410 . S
C3291 C3299 1.503 . S
C3292 C3291 1.410 . S
C3292 C3293 1.392 . S
C3292 C3295 1.511 . S
C3293 C3289 1.376 . S
C3293 C3292 1.392 . S
C3293 H3305 0.929 . S
C3294 C3290 1.531 . S
C3294 H3306 0.960 . S
C3294 H3307 0.962 . S
C3294 H3308 0.960 . S
C3295 C3292 1.511 . S
C3295 H3309 0.961 . S
C3295 H3310 0.961 . S
C3295 H3311 0.961 . S
C3296 C3297 1.370 . S
C3296 C3298 1.363 . S
C3296 H3312 0.931 . S
C3297 C3296 1.370 . S
C3297 C3301 1.408 . S
C3298 C3296 1.363 . S
C3298 C3299 1.370 . S
C3298 C3302 1.524 . S
C3299 C3291 1.503 . S
C3299 C3298 1.370 . S
C3299 C3300 1.403 . S
C3300 C3299 1.403 . S
C3300 C3301 1.404 . S
C3300 C3303 1.539 . S
C3301 C3297 1.408 . S
C3301 C3300 1.404 . S
C3301 H3313 0.930 . S
C3302 C3298 1.524 . S
C3302 H3314 0.956 . S
C3302 H3315 0.961 . S
C3302 H3316 0.961 . S
C3303 C3300 1.539 . S
C3303 H3317 0.958 . S
C3303 H3318 0.961 . S
C3303 H3319 0.960 . S
H3304 C3288 0.931 . S
H3305 C3293 0.929 . S
H3306 C3294 0.960 . S
H3307 C3294 0.962 . S
H3308 C3294 0.960 . S
H3309 C3295 0.961 . S
H3310 C3295 0.961 . S
H3311 C3295 0.961 . S
H3312 C3296 0.931 . S
H3313 C3301 0.930 . S
H3314 C3302 0.956 . S
H3315 C3302 0.961 . S
H3316 C3302 0.961 . S
H3317 C3303 0.958 . S
H3318 C3303 0.961 . S
H3319 C3303 0.960 . S
C3320 C3321 1.391 . S
C3320 C3322 1.394 . S
C3320 H3336 0.931 . S
C3321 C3320 1.391 . S
C3321 C3325 1.376 . S
C3322 C3320 1.394 . S
C3322 C3323 1.369 . S
C3322 C3326 1.531 . S
C3323 C3322 1.369 . S
C3323 C3324 1.410 . S
C3323 C3331 1.503 . S
C3324 C3323 1.410 . S
C3324 C3325 1.392 . S
C3324 C3327 1.511 . S
C3325 C3321 1.376 . S
C3325 C3324 1.392 . S
C3325 H3337 0.929 . S
C3326 C3322 1.531 . S
C3326 H3338 0.960 . S
C3326 H3339 0.962 . S
C3326 H3340 0.960 . S
C3327 C3324 1.511 . S
C3327 H3341 0.961 . S
C3327 H3342 0.961 . S
C3327 H3343 0.961 . S
C3328 C3329 1.370 . S
C3328 C3330 1.363 . S
C3328 H3344 0.931 . S
C3329 C3328 1.370 . S
C3329 C3333 1.408 . S
C3330 C3328 1.363 . S
C3330 C3331 1.370 . S
C3330 C3334 1.524 . S
C3331 C3323 1.503 . S
C3331 C3330 1.370 . S
C3331 C3332 1.403 . S
C3332 C3331 1.403 . S
C3332 C3333 1.404 . S
C3332 C3335 1.539 . S
C3333 C3329 1.408 . S
C3333 C3332 1.404 . S
C3333 H3345 0.930 . S
C3334 C3330 1.524 . S
C3334 H3346 0.956 . S
C3334 H3347 0.961 . S
C3334 H3348 0.961 . S
C3335 C3332 1.539 . S
C3335 H3349 0.958 . S
C3335 H3350 0.961 . S
C3335 H3351 0.960 . S
H3336 C3320 0.931 . S
H3337 C3325 0.929 . S
H3338 C3326 0.960 . S
H3339 C3326 0.962 . S
H3340 C3326 0.960 . S
H3341 C3327 0.961 . S
H3342 C3327 0.961 . S
H3343 C3327 0.961 . S
H3344 C3328 0.931 . S
H3345 C3333 0.930 . S
H3346 C3334 0.956 . S
H3347 C3334 0.961 . S
H3348 C3334 0.961 . S
H3349 C3335 0.958 . S
H3350 C3335 0.961 . S
H3351 C3335 0.960 . S
C3352 C3353 1.391 . S
C3352 C3354 1.394 . S
C3352 H3368 0.931 . S
C3353 C3352 1.391 . S
C3353 C3357 1.376 . S
C3354 C3352 1.394 . S
C3354 C3355 1.369 . S
C3354 C3358 1.531 . S
C3355 C3354 1.369 . S
C3355 C3356 1.410 . S
C3355 C3363 1.503 . S
C3356 C3355 1.410 . S
C3356 C3357 1.392 . S
C3356 C3359 1.511 . S
C3357 C3353 1.376 . S
C3357 C3356 1.392 . S
C3357 H3369 0.929 . S
C3358 C3354 1.531 . S
C3358 H3370 0.960 . S
C3358 H3371 0.962 . S
C3358 H3372 0.960 . S
C3359 C3356 1.511 . S
C3359 H3373 0.961 . S
C3359 H3374 0.961 . S
C3359 H3375 0.961 . S
C3360 C3361 1.370 . S
C3360 C3362 1.363 . S
C3360 H3376 0.931 . S
C3361 C3360 1.370 . S
C3361 C3365 1.408 . S
C3362 C3360 1.363 . S
C3362 C3363 1.370 . S
C3362 C3366 1.524 . S
C3363 C3355 1.503 . S
C3363 C3362 1.370 . S
C3363 C3364 1.403 . S
C3364 C3363 1.403 . S
C3364 C3365 1.404 . S
C3364 C3367 1.539 . S
C3365 C3361 1.408 . S
C3365 C3364 1.404 . S
C3365 H3377 0.930 . S
C3366 C3362 1.524 . S
C3366 H3378 0.956 . S
C3366 H3379 0.961 . S
C3366 H3380 0.961 . S
C3367 C3364 1.539 . S
C3367 H3381 0.958 . S
C3367 H3382 0.961 . S
C3367 H3383 0.960 . S
H3368 C3352 0.931 . S
H3369 C3357 0.929 . S
H3370 C3358 0.960 . S
H3371 C3358 0.962 . S
H3372 C3358 0.960 . S
H3373 C3359 0.961 . S
H3374 C3359 0.961 . S
H3375 C3359 0.961 . S
H3376 C3360 0.931 . S
H3377 C3365 0.930 . S
H3378 C3366 0.956 . S
H3379 C3366 0.961 . S
H3380 C3366 0.961 . S
H3381 C3367 0.958 . S
H3382 C3367 0.961 . S
H3383 C3367 0.960 . S
C3384 C3385 1.391 . S
C3384 C3386 1.394 . S
C3384 H3400 0.931 . S
C3385 C3384 1.391 . S
C3385 C3389 1.376 . S
C3386 C3384 1.394 . S
C3386 C3387 1.369 . S
C3386 C3390 1.531 . S
C3387 C3386 1.369 . S
C3387 C3388 1.410 . S
C3387 C3395 1.503 . S
C3388 C3387 1.410 . S
C3388 C3389 1.392 . S
C3388 C3391 1.511 . S
C3389 C3385 1.376 . S
C3389 C3388 1.392 . S
C3389 H3401 0.929 . S
C3390 C3386 1.531 . S
C3390 H3402 0.960 . S
C3390 H3403 0.962 . S
C3390 H3404 0.960 . S
C3391 C3388 1.511 . S
C3391 H3405 0.961 . S
C3391 H3406 0.961 . S
C3391 H3407 0.961 . S
C3392 C3393 1.370 . S
C3392 C3394 1.363 . S
C3392 H3408 0.931 . S
C3393 C3392 1.370 . S
C3393 C3397 1.408 . S
C3394 C3392 1.363 . S
C3394 C3395 1.370 . S
C3394 C3398 1.524 . S
C3395 C3387 1.503 . S
C3395 C3394 1.370 . S
C3395 C3396 1.403 . S
C3396 C3395 1.403 . S
C3396 C3397 1.404 . S
C3396 C3399 1.539 . S
C3397 C3393 1.408 . S
C3397 C3396 1.404 . S
C3397 H3409 0.930 . S
C3398 C3394 1.524 . S
C3398 H3410 0.956 . S
C3398 H3411 0.961 . S
C3398 H3412 0.961 . S
C3399 C3396 1.539 . S
C3399 H3413 0.958 . S
C3399 H3414 0.961 . S
C3399 H3415 0.960 . S
H3400 C3384 0.931 . S
H3401 C3389 0.929 . S
H3402 C3390 0.960 . S
H3403 C3390 0.962 . S
H3404 C3390 0.960 . S
H3405 C3391 0.961 . S
H3406 C3391 0.961 . S
H3407 C3391 0.961 . S
H3408 C3392 0.931 . S
H3409 C3397 0.930 . S
H3410 C3398 0.956 . S
H3411 C3398 0.961 . S
H3412 C3398 0.961 . S
H3413 C3399 0.958 . S
H3414 C3399 0.961 . S
H3415 C3399 0.960 . S
C3416 C3417 1.391 . S
C3416 C3418 1.394 . S
C3416 H3432 0.931 . S
C3417 C3416 1.391 . S
C3417 C3421 1.376 . S
C3418 C3416 1.394 . S
C3418 C3419 1.369 . S
C3418 C3422 1.531 . S
C3419 C3418 1.369 . S
C3419 C3420 1.410 . S
C3419 C3427 1.503 . S
C3420 C3419 1.410 . S
C3420 C3421 1.392 . S
C3420 C3423 1.511 . S
C3421 C3417 1.376 . S
C3421 C3420 1.392 . S
C3421 H3433 0.929 . S
C3422 C3418 1.531 . S
C3422 H3434 0.960 . S
C3422 H3435 0.962 . S
C3422 H3436 0.960 . S
C3423 C3420 1.511 . S
C3423 H3437 0.961 . S
C3423 H3438 0.961 . S
C3423 H3439 0.961 . S
C3424 C3425 1.370 . S
C3424 C3426 1.363 . S
C3424 H3440 0.931 . S
C3425 C3424 1.370 . S
C3425 C3429 1.408 . S
C3426 C3424 1.363 . S
C3426 C3427 1.370 . S
C3426 C3430 1.524 . S
C3427 C3419 1.503 . S
C3427 C3426 1.370 . S
C3427 C3428 1.403 . S
C3428 C3427 1.403 . S
C3428 C3429 1.404 . S
C3428 C3431 1.539 . S
C3429 C3425 1.408 . S
C3429 C3428 1.404 . S
C3429 H3441 0.930 . S
C3430 C3426 1.524 . S
C3430 H3442 0.956 . S
C3430 H3443 0.961 . S
C3430 H3444 0.961 . S
C3431 C3428 1.539 . S
C3431 H3445 0.958 . S
C3431 H3446 0.961 . S
C3431 H3447 0.960 . S
H3432 C3416 0.931 . S
H3433 C3421 0.929 . S
H3434 C3422 0.960 . S
H3435 C3422 0.962 . S
H3436 C3422 0.960 . S
H3437 C3423 0.961 . S
H3438 C3423 0.961 . S
H3439 C3423 0.961 . S
H3440 C3424 0.931 . S
H3441 C3429 0.930 . S
H3442 C3430 0.956 . S
H3443 C3430 0.961 . S
H3444 C3430 0.961 . S
H3445 C3431 0.958 . S
H3446 C3431 0.961 . S
H3447 C3431 0.960 . S
C3448 C3449 1.391 . S
C3448 C3450 1.394 . S
C3448 H3464 0.931 . S
C3449 C3448 1.391 . S
C3449 C3453 1.376 . S
C3450 C3448 1.394 . S
C3450 C3451 1.369 . S
C3450 C3454 1.531 . S
C3451 C3450 1.369 . S
C3451 C3452 1.410 . S
C3451 C3459 1.503 . S
C3452 C3451 1.410 . S
C3452 C3453 1.392 . S
C3452 C3455 1.511 . S
C3453 C3449 1.376 . S
C3453 C3452 1.392 . S
C3453 H3465 0.929 . S
C3454 C3450 1.531 . S
C3454 H3466 0.960 . S
C3454 H3467 0.962 . S
C3454 H3468 0.960 . S
C3455 C3452 1.511 . S
C3455 H3469 0.961 . S
C3455 H3470 0.961 . S
C3455 H3471 0.961 . S
C3456 C3457 1.370 . S
C3456 C3458 1.363 . S
C3456 H3472 0.931 . S
C3457 C3456 1.370 . S
C3457 C3461 1.408 . S
C3458 C3456 1.363 . S
C3458 C3459 1.370 . S
C3458 C3462 1.524 . S
C3459 C3451 1.503 . S
C3459 C3458 1.370 . S
C3459 C3460 1.403 . S
C3460 C3459 1.403 . S
C3460 C3461 1.404 . S
C3460 C3463 1.539 . S
C3461 C3457 1.408 . S
C3461 C3460 1.404 . S
C3461 H3473 0.930 . S
C3462 C3458 1.524 . S
C3462 H3474 0.956 . S
C3462 H3475 0.961 . S
C3462 H3476 0.961 . S
C3463 C3460 1.539 . S
C3463 H3477 0.958 . S
C3463 H3478 0.961 . S
C3463 H3479 0.960 . S
H3464 C3448 0.931 . S
H3465 C3453 0.929 . S
H3466 C3454 0.960 . S
H3467 C3454 0.962 . S
H3468 C3454 0.960 . S
H3469 C3455 0.961 . S
H3470 C3455 0.961 . S
H3471 C3455 0.961 . S
H3472 C3456 0.931 . S
H3473 C3461 0.930 . S
H3474 C3462 0.956 . S
H3475 C3462 0.961 . S
H3476 C3462 0.961 . S
H3477 C3463 0.958 . S
H3478 C3463 0.961 . S
H3479 C3463 0.960 . S
C3480 C3481 1.391 . S
C3480 C3482 1.394 . S
C3480 H3496 0.931 . S
C3481 C3480 1.391 . S
C3481 C3485 1.376 . S
C3482 C3480 1.394 . S
C3482 C3483 1.369 . S
C3482 C3486 1.531 . S
C3483 C3482 1.369 . S
C3483 C3484 1.410 . S
C3483 C3491 1.503 . S
C3484 C3483 1.410 . S
C3484 C3485 1.392 . S
C3484 C3487 1.511 . S
C3485 C3481 1.376 . S
C3485 C3484 1.392 . S
C3485 H3497 0.929 . S
C3486 C3482 1.531 . S
C3486 H3498 0.960 . S
C3486 H3499 0.962 . S
C3486 H3500 0.960 . S
C3487 C3484 1.511 . S
C3487 H3501 0.961 . S
C3487 H3502 0.961 . S
C3487 H3503 0.961 . S
C3488 C3489 1.370 . S
C3488 C3490 1.363 . S
C3488 H3504 0.931 . S
C3489 C3488 1.370 . S
C3489 C3493 1.408 . S
C3490 C3488 1.363 . S
C3490 C3491 1.370 . S
C3490 C3494 1.524 . S
C3491 C3483 1.503 . S
C3491 C3490 1.370 . S
C3491 C3492 1.403 . S
C3492 C3491 1.403 . S
C3492 C3493 1.404 . S
C3492 C3495 1.539 . S
C3493 C3489 1.408 . S
C3493 C3492 1.404 . S
C3493 H3505 0.930 . S
C3494 C3490 1.524 . S
C3494 H3506 0.956 . S
C3494 H3507 0.961 . S
C3494 H3508 0.961 . S
C3495 C3492 1.539 . S
C3495 H3509 0.958 . S
C3495 H3510 0.961 . S
C3495 H3511 0.960 . S
H3496 C3480 0.931 . S
H3497 C3485 0.929 . S
H3498 C3486 0.960 . S
H3499 C3486 0.962 . S
H3500 C3486 0.960 . S
H3501 C3487 0.961 . S
H3502 C3487 0.961 . S
H3503 C3487 0.961 . S
H3504 C3488 0.931 . S
H3505 C3493 0.930 . S
H3506 C3494 0.956 . S
H3507 C3494 0.961 . S
H3508 C3494 0.961 . S
H3509 C3495 0.958 . S
H3510 C3495 0.961 . S
H3511 C3495 0.960 . S
C3512 C3513 1.391 . S
C3512 C3514 1.394 . S
C3512 H3528 0.931 . S
C3513 C3512 1.391 . S
C3513 C3517 1.376 . S
C3514 C3512 1.394 . S
C3514 C3515 1.369 . S
C3514 C3518 1.531 . S
C3515 C3514 1.369 . S
C3515 C3516 1.410 . S
C3515 C3523 1.503 . S
C3516 C3515 1.410 . S
C3516 C3517 1.392 . S
C3516 C3519 1.511 . S
C3517 C3513 1.376 . S
C3517 C3516 1.392 . S
C3517 H3529 0.929 . S
C3518 C3514 1.531 . S
C3518 H3530 0.960 . S
C3518 H3531 0.962 . S
C3518 H3532 0.960 . S
C3519 C3516 1.511 . S
C3519 H3533 0.961 . S
C3519 H3534 0.961 . S
C3519 H3535 0.961 . S
C3520 C3521 1.370 . S
C3520 C3522 1.363 . S
C3520 H3536 0.931 . S
C3521 C3520 1.370 . S
C3521 C3525 1.408 . S
C3522 C3520 1.363 . S
C3522 C3523 1.370 . S
C3522 C3526 1.524 . S
C3523 C3515 1.503 . S
C3523 C3522 1.370 . S
C3523 C3524 1.403 . S
C3524 C3523 1.403 . S
C3524 C3525 1.404 . S
C3524 C3527 1.539 . S
C3525 C3521 1.408 . S
C3525 C3524 1.404 . S
C3525 H3537 0.930 . S
C3526 C3522 1.524 . S
C3526 H3538 0.956 . S
C3526 H3539 0.961 . S
C3526 H3540 0.961 . S
C3527 C3524 1.539 . S
C3527 H3541 0.958 . S
C3527 H3542 0.961 . S
C3527 H3543 0.960 . S
H3528 C3512 0.931 . S
H3529 C3517 0.929 . S
H3530 C3518 0.960 . S
H3531 C3518 0.962 . S
H3532 C3518 0.960 . S
H3533 C3519 0.961 . S
H3534 C3519 0.961 . S
H3535 C3519 0.961 . S
H3536 C3520 0.931 . S
H3537 C3525 0.930 . S
H3538 C3526 0.956 . S
H3539 C3526 0.961 . S
H3540 C3526 0.961 . S
H3541 C3527 0.958 . S
H3542 C3527 0.961 . S
H3543 C3527 0.960 . S
C3544 C3545 1.391 . S
C3544 C3546 1.394 . S
C3544 H3560 0.931 . S
C3545 C3544 1.391 . S
C3545 C3549 1.376 . S
C3546 C3544 1.394 . S
C3546 C3547 1.369 . S
C3546 C3550 1.531 . S
C3547 C3546 1.369 . S
C3547 C3548 1.410 . S
C3547 C3555 1.503 . S
C3548 C3547 1.410 . S
C3548 C3549 1.392 . S
C3548 C3551 1.511 . S
C3549 C3545 1.376 . S
C3549 C3548 1.392 . S
C3549 H3561 0.929 . S
C3550 C3546 1.531 . S
C3550 H3562 0.960 . S
C3550 H3563 0.962 . S
C3550 H3564 0.960 . S
C3551 C3548 1.511 . S
C3551 H3565 0.961 . S
C3551 H3566 0.961 . S
C3551 H3567 0.961 . S
C3552 C3553 1.370 . S
C3552 C3554 1.363 . S
C3552 H3568 0.931 . S
C3553 C3552 1.370 . S
C3553 C3557 1.408 . S
C3554 C3552 1.363 . S
C3554 C3555 1.370 . S
C3554 C3558 1.524 . S
C3555 C3547 1.503 . S
C3555 C3554 1.370 . S
C3555 C3556 1.403 . S
C3556 C3555 1.403 . S
C3556 C3557 1.404 . S
C3556 C3559 1.539 . S
C3557 C3553 1.408 . S
C3557 C3556 1.404 . S
C3557 H3569 0.930 . S
C3558 C3554 1.524 . S
C3558 H3570 0.956 . S
C3558 H3571 0.961 . S
C3558 H3572 0.961 . S
C3559 C3556 1.539 . S
C3559 H3573 0.958 . S
C3559 H3574 0.961 . S
C3559 H3575 0.960 . S
H3560 C3544 0.931 . S
H3561 C3549 0.929 . S
H3562 C3550 0.960 . S
H3563 C3550 0.962 . S
H3564 C3550 0.960 . S
H3565 C3551 0.961 . S
H3566 C3551 0.961 . S
H3567 C3551 0.961 . S
H3568 C3552 0.931 . S
H3569 C3557 0.930 . S
H3570 C3558 0.956 . S
H3571 C3558 0.961 . S
H3572 C3558 0.961 . S
H3573 C3559 0.958 . S
H3574 C3559 0.961 . S
H3575 C3559 0.960 . S
C3576 C3577 1.391 . S
C3576 C3578 1.394 . S
C3576 H3592 0.931 . S
C3577 C3576 1.391 . S
C3577 C3581 1.376 . S
C3578 C3576 1.394 . S
C3578 C3579 1.369 . S
C3578 C3582 1.531 1_655 S
C3579 C3578 1.369 . S
C3579 C3580 1.410 . S
C3579 C3587 1.503 . S
C3580 C3579 1.410 . S
C3580 C3581 1.392 . S
C3580 C3583 1.511 . S
C3581 C3577 1.376 . S
C3581 C3580 1.392 . S
C3581 H3593 0.929 . S
C3582 C3578 1.531 1_455 S
C3582 H3594 0.960 . S
C3582 H3595 0.962 . S
C3582 H3596 0.960 . S
C3583 C3580 1.511 . S
C3583 H3597 0.961 . S
C3583 H3598 0.961 . S
C3583 H3599 0.961 . S
C3584 C3585 1.370 . S
C3584 C3586 1.363 1_455 S
C3584 H3600 0.931 . S
C3585 C3584 1.370 . S
C3585 C3589 1.408 1_455 S
C3586 C3584 1.363 1_655 S
C3586 C3587 1.370 . S
C3586 C3590 1.524 . S
C3587 C3579 1.503 . S
C3587 C3586 1.370 . S
C3587 C3588 1.403 . S
C3588 C3587 1.403 . S
C3588 C3589 1.404 . S
C3588 C3591 1.539 . S
C3589 C3585 1.408 1_655 S
C3589 C3588 1.404 . S
C3589 H3601 0.930 . S
C3590 C3586 1.524 . S
C3590 H3602 0.956 . S
C3590 H3603 0.961 . S
C3590 H3604 0.961 . S
C3591 C3588 1.539 . S
C3591 H3605 0.958 . S
C3591 H3606 0.961 . S
C3591 H3607 0.960 . S
H3592 C3576 0.931 . S
H3593 C3581 0.929 . S
H3594 C3582 0.960 . S
H3595 C3582 0.962 . S
H3596 C3582 0.960 . S
H3597 C3583 0.961 . S
H3598 C3583 0.961 . S
H3599 C3583 0.961 . S
H3600 C3584 0.931 . S
H3601 C3589 0.930 . S
H3602 C3590 0.956 . S
H3603 C3590 0.961 . S
H3604 C3590 0.961 . S
H3605 C3591 0.958 . S
H3606 C3591 0.961 . S
H3607 C3591 0.960 . S
C3608 C3609 1.391 . S
C3608 C3610 1.394 . S
C3608 H3624 0.931 . S
C3609 C3608 1.391 . S
C3609 C3613 1.376 . S
C3610 C3608 1.394 . S
C3610 C3611 1.369 . S
C3610 C3614 1.531 . S
C3611 C3610 1.369 . S
C3611 C3612 1.410 . S
C3611 C3619 1.503 . S
C3612 C3611 1.410 . S
C3612 C3613 1.392 . S
C3612 C3615 1.511 . S
C3613 C3609 1.376 . S
C3613 C3612 1.392 . S
C3613 H3625 0.929 . S
C3614 C3610 1.531 . S
C3614 H3626 0.960 . S
C3614 H3627 0.962 . S
C3614 H3628 0.960 . S
C3615 C3612 1.511 . S
C3615 H3629 0.961 . S
C3615 H3630 0.961 . S
C3615 H3631 0.961 . S
C3616 C3617 1.370 . S
C3616 C3618 1.363 . S
C3616 H3632 0.931 . S
C3617 C3616 1.370 . S
C3617 C3621 1.408 . S
C3618 C3616 1.363 . S
C3618 C3619 1.370 . S
C3618 C3622 1.524 . S
C3619 C3611 1.503 . S
C3619 C3618 1.370 . S
C3619 C3620 1.403 . S
C3620 C3619 1.403 . S
C3620 C3621 1.404 . S
C3620 C3623 1.539 . S
C3621 C3617 1.408 . S
C3621 C3620 1.404 . S
C3621 H3633 0.930 . S
C3622 C3618 1.524 . S
C3622 H3634 0.956 . S
C3622 H3635 0.961 . S
C3622 H3636 0.961 . S
C3623 C3620 1.539 . S
C3623 H3637 0.958 . S
C3623 H3638 0.961 . S
C3623 H3639 0.960 . S
H3624 C3608 0.931 . S
H3625 C3613 0.929 . S
H3626 C3614 0.960 . S
H3627 C3614 0.962 . S
H3628 C3614 0.960 . S
H3629 C3615 0.961 . S
H3630 C3615 0.961 . S
H3631 C3615 0.961 . S
H3632 C3616 0.931 . S
H3633 C3621 0.930 . S
H3634 C3622 0.956 . S
H3635 C3622 0.961 . S
H3636 C3622 0.961 . S
H3637 C3623 0.958 . S
H3638 C3623 0.961 . S
H3639 C3623 0.960 . S
C3640 C3641 1.391 . S
C3640 C3642 1.394 . S
C3640 H3656 0.931 . S
C3641 C3640 1.391 . S
C3641 C3645 1.376 . S
C3642 C3640 1.394 . S
C3642 C3643 1.369 . S
C3642 C3646 1.531 . S
C3643 C3642 1.369 . S
C3643 C3644 1.410 . S
C3643 C3651 1.503 . S
C3644 C3643 1.410 . S
C3644 C3645 1.392 . S
C3644 C3647 1.511 . S
C3645 C3641 1.376 . S
C3645 C3644 1.392 . S
C3645 H3657 0.929 . S
C3646 C3642 1.531 . S
C3646 H3658 0.960 . S
C3646 H3659 0.962 . S
C3646 H3660 0.960 . S
C3647 C3644 1.511 . S
C3647 H3661 0.961 . S
C3647 H3662 0.961 . S
C3647 H3663 0.961 . S
C3648 C3649 1.370 . S
C3648 C3650 1.363 . S
C3648 H3664 0.931 . S
C3649 C3648 1.370 . S
C3649 C3653 1.408 . S
C3650 C3648 1.363 . S
C3650 C3651 1.370 . S
C3650 C3654 1.524 . S
C3651 C3643 1.503 . S
C3651 C3650 1.370 . S
C3651 C3652 1.403 . S
C3652 C3651 1.403 . S
C3652 C3653 1.404 . S
C3652 C3655 1.539 . S
C3653 C3649 1.408 . S
C3653 C3652 1.404 . S
C3653 H3665 0.930 . S
C3654 C3650 1.524 . S
C3654 H3666 0.956 . S
C3654 H3667 0.961 . S
C3654 H3668 0.961 . S
C3655 C3652 1.539 . S
C3655 H3669 0.958 . S
C3655 H3670 0.961 . S
C3655 H3671 0.960 . S
H3656 C3640 0.931 . S
H3657 C3645 0.929 . S
H3658 C3646 0.960 . S
H3659 C3646 0.962 . S
H3660 C3646 0.960 . S
H3661 C3647 0.961 . S
H3662 C3647 0.961 . S
H3663 C3647 0.961 . S
H3664 C3648 0.931 . S
H3665 C3653 0.930 . S
H3666 C3654 0.956 . S
H3667 C3654 0.961 . S
H3668 C3654 0.961 . S
H3669 C3655 0.958 . S
H3670 C3655 0.961 . S
H3671 C3655 0.960 . S
C3672 C3673 1.391 . S
C3672 C3674 1.394 . S
C3672 H3688 0.931 . S
C3673 C3672 1.391 . S
C3673 C3677 1.376 . S
C3674 C3672 1.394 . S
C3674 C3675 1.369 . S
C3674 C3678 1.531 . S
C3675 C3674 1.369 . S
C3675 C3676 1.410 . S
C3675 C3683 1.503 . S
C3676 C3675 1.410 . S
C3676 C3677 1.392 . S
C3676 C3679 1.511 . S
C3677 C3673 1.376 . S
C3677 C3676 1.392 . S
C3677 H3689 0.929 . S
C3678 C3674 1.531 . S
C3678 H3690 0.960 . S
C3678 H3691 0.962 . S
C3678 H3692 0.960 . S
C3679 C3676 1.511 . S
C3679 H3693 0.961 . S
C3679 H3694 0.961 . S
C3679 H3695 0.961 . S
C3680 C3681 1.370 . S
C3680 C3682 1.363 . S
C3680 H3696 0.931 . S
C3681 C3680 1.370 . S
C3681 C3685 1.408 . S
C3682 C3680 1.363 . S
C3682 C3683 1.370 . S
C3682 C3686 1.524 . S
C3683 C3675 1.503 . S
C3683 C3682 1.370 . S
C3683 C3684 1.403 . S
C3684 C3683 1.403 . S
C3684 C3685 1.404 . S
C3684 C3687 1.539 . S
C3685 C3681 1.408 . S
C3685 C3684 1.404 . S
C3685 H3697 0.930 . S
C3686 C3682 1.524 . S
C3686 H3698 0.956 . S
C3686 H3699 0.961 . S
C3686 H3700 0.961 . S
C3687 C3684 1.539 . S
C3687 H3701 0.958 . S
C3687 H3702 0.961 . S
C3687 H3703 0.960 . S
H3688 C3672 0.931 . S
H3689 C3677 0.929 . S
H3690 C3678 0.960 . S
H3691 C3678 0.962 . S
H3692 C3678 0.960 . S
H3693 C3679 0.961 . S
H3694 C3679 0.961 . S
H3695 C3679 0.961 . S
H3696 C3680 0.931 . S
H3697 C3685 0.930 . S
H3698 C3686 0.956 . S
H3699 C3686 0.961 . S
H3700 C3686 0.961 . S
H3701 C3687 0.958 . S
H3702 C3687 0.961 . S
H3703 C3687 0.960 . S
C3704 C3705 1.391 . S
C3704 C3706 1.394 . S
C3704 H3720 0.931 . S
C3705 C3704 1.391 . S
C3705 C3709 1.376 . S
C3706 C3704 1.394 . S
C3706 C3707 1.369 . S
C3706 C3710 1.531 . S
C3707 C3706 1.369 . S
C3707 C3708 1.410 . S
C3707 C3715 1.503 . S
C3708 C3707 1.410 . S
C3708 C3709 1.392 . S
C3708 C3711 1.511 . S
C3709 C3705 1.376 . S
C3709 C3708 1.392 . S
C3709 H3721 0.929 . S
C3710 C3706 1.531 . S
C3710 H3722 0.960 . S
C3710 H3723 0.962 . S
C3710 H3724 0.960 . S
C3711 C3708 1.511 . S
C3711 H3725 0.961 . S
C3711 H3726 0.961 . S
C3711 H3727 0.961 . S
C3712 C3713 1.370 . S
C3712 C3714 1.363 . S
C3712 H3728 0.931 . S
C3713 C3712 1.370 . S
C3713 C3717 1.408 . S
C3714 C3712 1.363 . S
C3714 C3715 1.370 . S
C3714 C3718 1.524 . S
C3715 C3707 1.503 . S
C3715 C3714 1.370 . S
C3715 C3716 1.403 . S
C3716 C3715 1.403 . S
C3716 C3717 1.404 . S
C3716 C3719 1.539 . S
C3717 C3713 1.408 . S
C3717 C3716 1.404 . S
C3717 H3729 0.930 . S
C3718 C3714 1.524 . S
C3718 H3730 0.956 . S
C3718 H3731 0.961 . S
C3718 H3732 0.961 . S
C3719 C3716 1.539 . S
C3719 H3733 0.958 . S
C3719 H3734 0.961 . S
C3719 H3735 0.960 . S
H3720 C3704 0.931 . S
H3721 C3709 0.929 . S
H3722 C3710 0.960 . S
H3723 C3710 0.962 . S
H3724 C3710 0.960 . S
H3725 C3711 0.961 . S
H3726 C3711 0.961 . S
H3727 C3711 0.961 . S
H3728 C3712 0.931 . S
H3729 C3717 0.930 . S
H3730 C3718 0.956 . S
H3731 C3718 0.961 . S
H3732 C3718 0.961 . S
H3733 C3719 0.958 . S
H3734 C3719 0.961 . S
H3735 C3719 0.960 . S
C3736 C3737 1.391 . S
C3736 C3738 1.394 . S
C3736 H3752 0.931 . S
C3737 C3736 1.391 . S
C3737 C3741 1.376 . S
C3738 C3736 1.394 . S
C3738 C3739 1.369 . S
C3738 C3742 1.531 . S
C3739 C3738 1.369 . S
C3739 C3740 1.410 . S
C3739 C3747 1.503 . S
C3740 C3739 1.410 . S
C3740 C3741 1.392 . S
C3740 C3743 1.511 . S
C3741 C3737 1.376 . S
C3741 C3740 1.392 . S
C3741 H3753 0.929 . S
C3742 C3738 1.531 . S
C3742 H3754 0.960 . S
C3742 H3755 0.962 . S
C3742 H3756 0.960 . S
C3743 C3740 1.511 . S
C3743 H3757 0.961 . S
C3743 H3758 0.961 . S
C3743 H3759 0.961 . S
C3744 C3745 1.370 . S
C3744 C3746 1.363 . S
C3744 H3760 0.931 . S
C3745 C3744 1.370 . S
C3745 C3749 1.408 . S
C3746 C3744 1.363 . S
C3746 C3747 1.370 . S
C3746 C3750 1.524 . S
C3747 C3739 1.503 . S
C3747 C3746 1.370 . S
C3747 C3748 1.403 . S
C3748 C3747 1.403 . S
C3748 C3749 1.404 . S
C3748 C3751 1.539 . S
C3749 C3745 1.408 . S
C3749 C3748 1.404 . S
C3749 H3761 0.930 . S
C3750 C3746 1.524 . S
C3750 H3762 0.956 . S
C3750 H3763 0.961 . S
C3750 H3764 0.961 . S
C3751 C3748 1.539 . S
C3751 H3765 0.958 . S
C3751 H3766 0.961 . S
C3751 H3767 0.960 . S
H3752 C3736 0.931 . S
H3753 C3741 0.929 . S
H3754 C3742 0.960 . S
H3755 C3742 0.962 . S
H3756 C3742 0.960 . S
H3757 C3743 0.961 . S
H3758 C3743 0.961 . S
H3759 C3743 0.961 . S
H3760 C3744 0.931 . S
H3761 C3749 0.930 . S
H3762 C3750 0.956 . S
H3763 C3750 0.961 . S
H3764 C3750 0.961 . S
H3765 C3751 0.958 . S
H3766 C3751 0.961 . S
H3767 C3751 0.960 . S
C3768 C3769 1.391 . S
C3768 C3770 1.394 . S
C3768 H3784 0.931 . S
C3769 C3768 1.391 . S
C3769 C3773 1.376 . S
C3770 C3768 1.394 . S
C3770 C3771 1.369 . S
C3770 C3774 1.531 . S
C3771 C3770 1.369 . S
C3771 C3772 1.410 . S
C3771 C3779 1.503 . S
C3772 C3771 1.410 . S
C3772 C3773 1.392 . S
C3772 C3775 1.511 . S
C3773 C3769 1.376 . S
C3773 C3772 1.392 . S
C3773 H3785 0.929 . S
C3774 C3770 1.531 . S
C3774 H3786 0.960 . S
C3774 H3787 0.962 . S
C3774 H3788 0.960 . S
C3775 C3772 1.511 . S
C3775 H3789 0.961 . S
C3775 H3790 0.961 . S
C3775 H3791 0.961 . S
C3776 C3777 1.370 . S
C3776 C3778 1.363 . S
C3776 H3792 0.931 . S
C3777 C3776 1.370 . S
C3777 C3781 1.408 . S
C3778 C3776 1.363 . S
C3778 C3779 1.370 . S
C3778 C3782 1.524 . S
C3779 C3771 1.503 . S
C3779 C3778 1.370 . S
C3779 C3780 1.403 . S
C3780 C3779 1.403 . S
C3780 C3781 1.404 . S
C3780 C3783 1.539 . S
C3781 C3777 1.408 . S
C3781 C3780 1.404 . S
C3781 H3793 0.930 . S
C3782 C3778 1.524 . S
C3782 H3794 0.956 . S
C3782 H3795 0.961 . S
C3782 H3796 0.961 . S
C3783 C3780 1.539 . S
C3783 H3797 0.958 . S
C3783 H3798 0.961 . S
C3783 H3799 0.960 . S
H3784 C3768 0.931 . S
H3785 C3773 0.929 . S
H3786 C3774 0.960 . S
H3787 C3774 0.962 . S
H3788 C3774 0.960 . S
H3789 C3775 0.961 . S
H3790 C3775 0.961 . S
H3791 C3775 0.961 . S
H3792 C3776 0.931 . S
H3793 C3781 0.930 . S
H3794 C3782 0.956 . S
H3795 C3782 0.961 . S
H3796 C3782 0.961 . S
H3797 C3783 0.958 . S
H3798 C3783 0.961 . S
H3799 C3783 0.960 . S
C3800 C3801 1.391 . S
C3800 C3802 1.394 . S
C3800 H3816 0.931 . S
C3801 C3800 1.391 . S
C3801 C3805 1.376 . S
C3802 C3800 1.394 . S
C3802 C3803 1.369 . S
C3802 C3806 1.531 . S
C3803 C3802 1.369 . S
C3803 C3804 1.410 . S
C3803 C3811 1.503 . S
C3804 C3803 1.410 . S
C3804 C3805 1.392 . S
C3804 C3807 1.511 . S
C3805 C3801 1.376 . S
C3805 C3804 1.392 . S
C3805 H3817 0.929 . S
C3806 C3802 1.531 . S
C3806 H3818 0.960 . S
C3806 H3819 0.962 . S
C3806 H3820 0.960 . S
C3807 C3804 1.511 . S
C3807 H3821 0.961 . S
C3807 H3822 0.961 . S
C3807 H3823 0.961 . S
C3808 C3809 1.370 . S
C3808 C3810 1.363 . S
C3808 H3824 0.931 . S
C3809 C3808 1.370 . S
C3809 C3813 1.408 . S
C3810 C3808 1.363 . S
C3810 C3811 1.370 . S
C3810 C3814 1.524 . S
C3811 C3803 1.503 . S
C3811 C3810 1.370 . S
C3811 C3812 1.403 . S
C3812 C3811 1.403 . S
C3812 C3813 1.404 . S
C3812 C3815 1.539 . S
C3813 C3809 1.408 . S
C3813 C3812 1.404 . S
C3813 H3825 0.930 . S
C3814 C3810 1.524 . S
C3814 H3826 0.956 . S
C3814 H3827 0.961 . S
C3814 H3828 0.961 . S
C3815 C3812 1.539 . S
C3815 H3829 0.958 . S
C3815 H3830 0.961 . S
C3815 H3831 0.960 . S
H3816 C3800 0.931 . S
H3817 C3805 0.929 . S
H3818 C3806 0.960 . S
H3819 C3806 0.962 . S
H3820 C3806 0.960 . S
H3821 C3807 0.961 . S
H3822 C3807 0.961 . S
H3823 C3807 0.961 . S
H3824 C3808 0.931 . S
H3825 C3813 0.930 . S
H3826 C3814 0.956 . S
H3827 C3814 0.961 . S
H3828 C3814 0.961 . S
H3829 C3815 0.958 . S
H3830 C3815 0.961 . S
H3831 C3815 0.960 . S
C3832 C3833 1.391 . S
C3832 C3834 1.394 . S
C3832 H3848 0.931 . S
C3833 C3832 1.391 . S
C3833 C3837 1.376 . S
C3834 C3832 1.394 . S
C3834 C3835 1.369 . S
C3834 C3838 1.531 . S
C3835 C3834 1.369 . S
C3835 C3836 1.410 . S
C3835 C3843 1.503 . S
C3836 C3835 1.410 . S
C3836 C3837 1.392 . S
C3836 C3839 1.511 . S
C3837 C3833 1.376 . S
C3837 C3836 1.392 . S
C3837 H3849 0.929 . S
C3838 C3834 1.531 . S
C3838 H3850 0.960 . S
C3838 H3851 0.962 . S
C3838 H3852 0.960 . S
C3839 C3836 1.511 . S
C3839 H3853 0.961 . S
C3839 H3854 0.961 . S
C3839 H3855 0.961 . S
C3840 C3841 1.370 . S
C3840 C3842 1.363 . S
C3840 H3856 0.931 . S
C3841 C3840 1.370 . S
C3841 C3845 1.408 . S
C3842 C3840 1.363 . S
C3842 C3843 1.370 . S
C3842 C3846 1.524 . S
C3843 C3835 1.503 . S
C3843 C3842 1.370 . S
C3843 C3844 1.403 . S
C3844 C3843 1.403 . S
C3844 C3845 1.404 . S
C3844 C3847 1.539 . S
C3845 C3841 1.408 . S
C3845 C3844 1.404 . S
C3845 H3857 0.930 . S
C3846 C3842 1.524 . S
C3846 H3858 0.956 . S
C3846 H3859 0.961 . S
C3846 H3860 0.961 . S
C3847 C3844 1.539 . S
C3847 H3861 0.958 . S
C3847 H3862 0.961 . S
C3847 H3863 0.960 . S
H3848 C3832 0.931 . S
H3849 C3837 0.929 . S
H3850 C3838 0.960 . S
H3851 C3838 0.962 . S
H3852 C3838 0.960 . S
H3853 C3839 0.961 . S
H3854 C3839 0.961 . S
H3855 C3839 0.961 . S
H3856 C3840 0.931 . S
H3857 C3845 0.930 . S
H3858 C3846 0.956 . S
H3859 C3846 0.961 . S
H3860 C3846 0.961 . S
H3861 C3847 0.958 . S
H3862 C3847 0.961 . S
H3863 C3847 0.960 . S
C3864 C3865 1.391 1_556 S
C3864 C3866 1.394 . S
C3864 H3880 0.931 . S
C3865 C3864 1.391 1_554 S
C3865 C3869 1.376 . S
C3866 C3864 1.394 . S
C3866 C3867 1.369 1_556 S
C3866 C3870 1.531 . S
C3867 C3866 1.369 1_554 S
C3867 C3868 1.410 . S
C3867 C3875 1.503 . S
C3868 C3867 1.410 . S
C3868 C3869 1.392 . S
C3868 C3871 1.511 . S
C3869 C3865 1.376 . S
C3869 C3868 1.392 . S
C3869 H3881 0.929 . S
C3870 C3866 1.531 . S
C3870 H3882 0.960 . S
C3870 H3883 0.962 . S
C3870 H3884 0.960 . S
C3871 C3868 1.511 . S
C3871 H3885 0.961 . S
C3871 H3886 0.961 . S
C3871 H3887 0.961 . S
C3872 C3873 1.370 . S
C3872 C3874 1.363 . S
C3872 H3888 0.931 . S
C3873 C3872 1.370 . S
C3873 C3877 1.408 . S
C3874 C3872 1.363 . S
C3874 C3875 1.370 . S
C3874 C3878 1.524 . S
C3875 C3867 1.503 . S
C3875 C3874 1.370 . S
C3875 C3876 1.403 . S
C3876 C3875 1.403 . S
C3876 C3877 1.404 . S
C3876 C3879 1.534 1_554 S
C3877 C3873 1.408 . S
C3877 C3876 1.404 . S
C3877 H3889 0.930 . S
C3878 C3874 1.524 . S
C3878 H3890 0.956 . S
C3878 H3891 0.961 . S
C3878 H3892 0.961 . S
C3879 C3876 1.534 1_556 S
C3879 H3893 0.992 . S
C3879 H3894 0.947 1_556 S
C3879 H3895 0.947 1_556 S
H3880 C3864 0.931 . S
H3881 C3869 0.929 . S
H3882 C3870 0.960 . S
H3883 C3870 0.962 . S
H3884 C3870 0.960 . S
H3885 C3871 0.961 . S
H3886 C3871 0.961 . S
H3887 C3871 0.961 . S
H3888 C3872 0.931 . S
H3889 C3877 0.930 . S
H3890 C3878 0.956 . S
H3891 C3878 0.961 . S
H3892 C3878 0.961 . S
H3893 C3879 0.992 . S
H3894 C3879 0.947 1_554 S
H3895 C3879 0.947 1_554 S
C3896 C3897 1.391 . S
C3896 C3898 1.394 . S
C3896 H3912 0.931 . S
C3897 C3896 1.391 . S
C3897 C3901 1.376 . S
C3898 C3896 1.394 . S
C3898 C3899 1.369 . S
C3898 C3902 1.531 . S
C3899 C3898 1.369 . S
C3899 C3900 1.410 . S
C3899 C3907 1.503 . S
C3900 C3899 1.410 . S
C3900 C3901 1.392 . S
C3900 C3903 1.511 . S
C3901 C3897 1.376 . S
C3901 C3900 1.392 . S
C3901 H3913 0.929 . S
C3902 C3898 1.531 . S
C3902 H3914 0.960 . S
C3902 H3915 0.962 . S
C3902 H3916 0.960 . S
C3903 C3900 1.511 . S
C3903 H3917 0.961 . S
C3903 H3918 0.961 . S
C3903 H3919 0.961 . S
C3904 C3905 1.370 . S
C3904 C3906 1.363 . S
C3904 H3920 0.931 . S
C3905 C3904 1.370 . S
C3905 C3909 1.408 . S
C3906 C3904 1.363 . S
C3906 C3907 1.370 . S
C3906 C3910 1.524 . S
C3907 C3899 1.503 . S
C3907 C3906 1.370 . S
C3907 C3908 1.403 . S
C3908 C3907 1.403 . S
C3908 C3909 1.404 . S
C3908 C3911 1.539 . S
C3909 C3905 1.408 . S
C3909 C3908 1.404 . S
C3909 H3921 0.930 . S
C3910 C3906 1.524 . S
C3910 H3922 0.956 . S
C3910 H3923 0.961 . S
C3910 H3924 0.961 . S
C3911 C3908 1.539 . S
C3911 H3925 0.958 . S
C3911 H3926 0.961 . S
C3911 H3927 0.960 . S
H3912 C3896 0.931 . S
H3913 C3901 0.929 . S
H3914 C3902 0.960 . S
H3915 C3902 0.962 . S
H3916 C3902 0.960 . S
H3917 C3903 0.961 . S
H3918 C3903 0.961 . S
H3919 C3903 0.961 . S
H3920 C3904 0.931 . S
H3921 C3909 0.930 . S
H3922 C3910 0.956 . S
H3923 C3910 0.961 . S
H3924 C3910 0.961 . S
H3925 C3911 0.958 . S
H3926 C3911 0.961 . S
H3927 C3911 0.960 . S
C3928 C3929 1.391 . S
C3928 C3930 1.394 . S
C3928 H3944 0.931 . S
C3929 C3928 1.391 . S
C3929 C3933 1.376 . S
C3930 C3928 1.394 . S
C3930 C3931 1.369 . S
C3930 C3934 1.531 . S
C3931 C3930 1.369 . S
C3931 C3932 1.410 . S
C3931 C3939 1.503 . S
C3932 C3931 1.410 . S
C3932 C3933 1.392 . S
C3932 C3935 1.511 . S
C3933 C3929 1.376 . S
C3933 C3932 1.392 . S
C3933 H3945 0.929 . S
C3934 C3930 1.531 . S
C3934 H3946 0.960 . S
C3934 H3947 0.962 . S
C3934 H3948 0.960 . S
C3935 C3932 1.511 . S
C3935 H3949 0.961 . S
C3935 H3950 0.961 . S
C3935 H3951 0.961 . S
C3936 C3937 1.370 1_556 S
C3936 C3938 1.363 . S
C3936 H3952 0.931 . S
C3937 C3936 1.370 1_554 S
C3937 C3941 1.408 . S
C3938 C3936 1.363 . S
C3938 C3939 1.370 1_556 S
C3938 C3942 1.524 . S
C3939 C3931 1.503 . S
C3939 C3938 1.370 1_554 S
C3939 C3940 1.403 . S
C3940 C3939 1.403 . S
C3940 C3941 1.404 . S
C3940 C3943 1.539 . S
C3941 C3937 1.408 . S
C3941 C3940 1.404 . S
C3941 H3953 0.930 . S
C3942 C3938 1.524 . S
C3942 H3954 0.956 . S
C3942 H3955 0.961 . S
C3942 H3956 0.961 . S
C3943 C3940 1.539 . S
C3943 H3957 0.958 . S
C3943 H3958 0.961 . S
C3943 H3959 0.960 . S
H3944 C3928 0.931 . S
H3945 C3933 0.929 . S
H3946 C3934 0.960 . S
H3947 C3934 0.962 . S
H3948 C3934 0.960 . S
H3949 C3935 0.961 . S
H3950 C3935 0.961 . S
H3951 C3935 0.961 . S
H3952 C3936 0.931 . S
H3953 C3941 0.930 . S
H3954 C3942 0.956 . S
H3955 C3942 0.961 . S
H3956 C3942 0.961 . S
H3957 C3943 0.958 . S
H3958 C3943 0.961 . S
H3959 C3943 0.960 . S
C3960 C3961 1.391 . S
C3960 C3962 1.394 . S
C3960 H3976 0.931 . S
C3961 C3960 1.391 . S
C3961 C3965 1.376 . S
C3962 C3960 1.394 . S
C3962 C3963 1.369 . S
C3962 C3966 1.531 . S
C3963 C3962 1.369 . S
C3963 C3964 1.410 . S
C3963 C3971 1.503 . S
C3964 C3963 1.410 . S
C3964 C3965 1.392 . S
C3964 C3967 1.511 . S
C3965 C3961 1.376 . S
C3965 C3964 1.392 . S
C3965 H3977 0.929 . S
C3966 C3962 1.531 . S
C3966 H3978 0.960 . S
C3966 H3979 0.962 . S
C3966 H3980 0.960 . S
C3967 C3964 1.511 . S
C3967 H3981 0.961 . S
C3967 H3982 0.961 . S
C3967 H3983 0.961 . S
C3968 C3969 1.370 . S
C3968 C3970 1.363 . S
C3968 H3984 0.931 . S
C3969 C3968 1.370 . S
C3969 C3973 1.408 . S
C3970 C3968 1.363 . S
C3970 C3971 1.370 . S
C3970 C3974 1.524 . S
C3971 C3963 1.503 . S
C3971 C3970 1.370 . S
C3971 C3972 1.403 . S
C3972 C3971 1.403 . S
C3972 C3973 1.404 . S
C3972 C3975 1.539 . S
C3973 C3969 1.408 . S
C3973 C3972 1.404 . S
C3973 H3985 0.930 . S
C3974 C3970 1.524 . S
C3974 H3986 0.956 . S
C3974 H3987 0.961 . S
C3974 H3988 0.961 . S
C3975 C3972 1.539 . S
C3975 H3989 0.958 . S
C3975 H3990 0.961 . S
C3975 H3991 0.960 . S
H3976 C3960 0.931 . S
H3977 C3965 0.929 . S
H3978 C3966 0.960 . S
H3979 C3966 0.962 . S
H3980 C3966 0.960 . S
H3981 C3967 0.961 . S
H3982 C3967 0.961 . S
H3983 C3967 0.961 . S
H3984 C3968 0.931 . S
H3985 C3973 0.930 . S
H3986 C3974 0.956 . S
H3987 C3974 0.961 . S
H3988 C3974 0.961 . S
H3989 C3975 0.958 . S
H3990 C3975 0.961 . S
H3991 C3975 0.960 . S
C3992 C3993 1.391 . S
C3992 C3994 1.394 . S
C3992 H4008 0.931 . S
C3993 C3992 1.391 . S
C3993 C3997 1.376 . S
C3994 C3992 1.394 . S
C3994 C3995 1.369 . S
C3994 C3998 1.531 . S
C3995 C3994 1.369 . S
C3995 C3996 1.410 . S
C3995 C4003 1.503 . S
C3996 C3995 1.410 . S
C3996 C3997 1.392 . S
C3996 C3999 1.511 . S
C3997 C3993 1.376 . S
C3997 C3996 1.392 . S
C3997 H4009 0.929 . S
C3998 C3994 1.531 . S
C3998 H4010 0.960 . S
C3998 H4011 0.962 . S
C3998 H4012 0.960 . S
C3999 C3996 1.511 . S
C3999 H4013 0.961 . S
C3999 H4014 0.961 . S
C3999 H4015 0.961 . S
C4000 C4001 1.370 . S
C4000 C4002 1.363 . S
C4000 H4016 0.931 . S
C4001 C4000 1.370 . S
C4001 C4005 1.408 . S
C4002 C4000 1.363 . S
C4002 C4003 1.370 . S
C4002 C4006 1.524 . S
C4003 C3995 1.503 . S
C4003 C4002 1.370 . S
C4003 C4004 1.403 . S
C4004 C4003 1.403 . S
C4004 C4005 1.404 . S
C4004 C4007 1.539 . S
C4005 C4001 1.408 . S
C4005 C4004 1.404 . S
C4005 H4017 0.930 . S
C4006 C4002 1.524 . S
C4006 H4018 0.956 . S
C4006 H4019 0.961 . S
C4006 H4020 0.961 . S
C4007 C4004 1.539 . S
C4007 H4021 0.958 . S
C4007 H4022 0.961 . S
C4007 H4023 0.960 . S
H4008 C3992 0.931 . S
H4009 C3997 0.929 . S
H4010 C3998 0.960 . S
H4011 C3998 0.962 . S
H4012 C3998 0.960 . S
H4013 C3999 0.961 . S
H4014 C3999 0.961 . S
H4015 C3999 0.961 . S
H4016 C4000 0.931 . S
H4017 C4005 0.930 . S
H4018 C4006 0.956 . S
H4019 C4006 0.961 . S
H4020 C4006 0.961 . S
H4021 C4007 0.958 . S
H4022 C4007 0.961 . S
H4023 C4007 0.960 . S
C953 C101 1.071 . S
C961 C320 1.091 1_556 S
C985 C57 1.453 . S
C993 C354 1.483 . S
C1017 C70 0.584 . S
C1025 C423 0.554 . S
C1057 C461 0.831 . S
C1049 C82 0.825 . S
C1081 C23 1.512 . S
C1089 C501 1.485 . S
C1121 C520 0.311 . S
C1113 C29 0.385 . S
C1153 C554 1.125 . S
C1145 C49 1.107 . S
C1177 C10 1.727 . S
C1185 C623 1.734 . S
C1217 C329 2.440 . S
C1209 C218 2.470 . S
C1241 C226 1.228 . S
C1249 C381 1.165 . S
C1281 C394 1.387 . S
C1273 C251 1.371 . S
C1313 C463 1.252 . S
C1305 C159 1.258 . S
C1337 C211 1.902 . S
C1345 C503 1.905 . S
C1377 C529 1.867 . S
C1369 C225 1.839 . S
C1409 C581 0.283 . S
C1401 C252 0.198 . S
C1441 C594 2.194 . S
C1433 C166 2.203 . S
C1473 C324 2.365 . S
C1465 C147 2.384 . S
C1497 C263 1.915 . S
C1505 C634 1.953 . S
C1537 C684 2.640 . S
C1529 C309 2.654 . S
C1569 C743 1.378 . S
C1561 C291 1.372 . S
C1593 C108 1.595 . S
C1601 C621 1.551 . S
C1625 C121 1.521 . S
C1633 C421 1.488 . S
C1657 C302 2.359 . S
C1665 C754 2.348 . S
C1697 C823 0.844 . S
C1689 C276 0.822 . S
C1729 C341 1.170 . S
C1721 C55 1.157 . S
C1761 C809 1.617 . S
C1753 C96 1.626 . S
C1785 C88 0.843 . S
C1793 C404 0.860 . S
C1817 C75 1.125 . S
C1825 C760 1.107 . S
C1857 C480 1.507 . S
C1849 C4 1.493 . S
C1881 C44 0.518 . S
C1889 C701 0.526 . S
C1921 C569 1.532 1_566 S
C1913 C31 1.538 . S
C1953 C844 1.781 . S
C1945 C18 1.785 . S
C1985 C314 2.547 . S
C1977 C133 2.577 . S
C2017 C800 1.097 . S
C2009 C296 1.140 . S
C2041 C107 1.613 . S
C2049 C409 1.599 . S
C2073 C264 1.586 . S
C2081 C764 1.600 . S
C2105 C140 2.114 . S
C2113 C484 2.130 . S
C2145 C674 1.973 . S
C2137 C289 2.005 . S
C2169 C114 0.506 . S
C2177 C560 0.547 . S
C2201 C265 2.391 . S
C2209 C849 2.382 . S
C2233 C179 2.676 . S
C2241 C343 2.657 1_655 S
C2265 C161 2.187 . S
C2273 C649 2.194 . S
C2297 C244 2.956 . S
C2305 C543 2.949 . S
C2329 C224 1.862 . S
C2337 C724 1.869 . S
C2369 C840 1.505 . S
C2361 C257 1.544 . S
C2393 C199 1.552 . S
C2401 C400 1.530 . S
C2433 C449 2.698 . S
C2425 C237 2.730 . S
C2465 C364 1.103 . S
C2457 C185 1.099 . S
C2489 C69 1.078 . S
C2497 C880 1.090 . S
C2529 C794 1.472 . S
C2521 C83 1.461 . S
C2553 C94 0.519 . S
C2561 C943 0.598 . S
C2585 C56 0.843 . S
C2593 C781 0.838 . S
C2617 C42 1.550 . S
C2625 C661 1.496 . S
C2657 C680 0.322 . S
C2649 C3 0.374 . S
C2689 C714 1.134 . S
C2681 C16 1.048 . S
C2721 C863 1.734 . S
C2713 C36 1.729 . S
C2753 C889 2.435 . S
C2745 C238 2.471 . S
C2777 C174 1.156 . S
C2785 C821 1.193 . S
C2817 C914 1.386 . S
C2809 C186 1.371 . S
C2849 C783 1.246 . S
C2841 C198 1.248 . S
C2881 C663 1.909 . S
C2873 C239 1.890 . S
C2905 C173 1.852 . S
C2913 C689 1.865 . S
C2945 C741 0.325 . S
C2937 C187 0.250 . S
C2969 C205 2.201 . S
C2977 C834 2.189 . S
C3009 C884 2.354 . S
C3001 C290 2.386 . S
C3033 C122 1.881 . S
C3041 C474 1.957 . S
C3073 C524 2.656 . S
C3065 C134 2.656 . S
C3105 C583 1.377 . S
C3097 C148 1.376 . S
C3137 C861 1.558 . S
C3129 C283 1.553 . S
C3161 C270 1.497 . S
C3169 C941 1.489 . S
C3201 C434 2.353 . S
C3193 C135 2.351 . S
C3233 C383 0.840 . S
C3225 C109 0.814 . S
C3257 C81 1.155 . S
C3265 C901 1.170 . S
C3297 C369 1.607 . S
C3289 C68 1.610 . S
C3321 C62 0.854 . S
C3329 C924 0.841 . S
C3353 C95 1.126 . S
C3361 C440 1.107 . S
C3385 C30 1.499 . S
C3393 C640 1.502 . S
C3425 C541 0.489 . S
C3417 C17 0.490 . S
C3449 C5 1.561 . S
C3457 C729 1.557 . S
C3481 C43 1.761 . S
C3489 C604 1.760 . S
C3521 C874 2.544 . S
C3513 C304 2.577 . S
C3545 C153 1.087 . S
C3553 C360 1.119 . S
C3585 C929 1.611 . S
C3577 C278 1.614 . S
C3609 C127 1.582 . S
C3617 C444 1.599 . S
C3641 C303 2.090 . S
C3649 C644 2.120 . S
C3681 C514 1.979 . S
C3673 C146 2.013 . S
C3705 C277 0.503 . S
C3713 C720 0.546 . S
C3745 C609 2.377 . S
C3737 C120 2.393 . S
C3777 C903 2.649 . S
C3769 C231 2.681 . S
C3809 C489 2.194 1_665 S
C3801 C200 2.174 . S
C3833 C212 2.963 . S
C3841 C703 2.949 . S
C3873 C564 1.869 . S
C3865 C172 1.870 . S
C3897 C192 1.499 . S
C3905 C600 1.527 . S
C3929 C160 1.562 . S
C3937 C920 1.529 . S
C3969 C769 2.708 . S
C3961 C213 2.734 1_565 S
C4001 C804 1.086 . S
C3993 C250 1.107 . S
