# Generated by pormake.
# Topology tph, (6,8)-cn, num edge types: 1
# Building blocks:
#     Node 0, Type 0, BuildingBlock: IZENUY_clean_sbu_0, # of connection points: 6
#     Node 1, Type 0, BuildingBlock: IZENUY_clean_sbu_0, # of connection points: 6
#     Node 2, Type 0, BuildingBlock: IZENUY_clean_sbu_0, # of connection points: 6
#     Node 3, Type 0, BuildingBlock: IZENUY_clean_sbu_0, # of connection points: 6
#     Node 4, Type 0, BuildingBlock: IZENUY_clean_sbu_0, # of connection points: 6
#     Node 5, Type 0, BuildingBlock: IZENUY_clean_sbu_0, # of connection points: 6
#     Node 6, Type 0, BuildingBlock: IZENUY_clean_sbu_0, # of connection points: 6
#     Node 7, Type 0, BuildingBlock: IZENUY_clean_sbu_0, # of connection points: 6
#     Node 8, Type 0, BuildingBlock: IZENUY_clean_sbu_0, # of connection points: 6
#     Node 9, Type 0, BuildingBlock: IZENUY_clean_sbu_0, # of connection points: 6
#     Node 10, Type 0, BuildingBlock: IZENUY_clean_sbu_0, # of connection points: 6
#     Node 11, Type 0, BuildingBlock: IZENUY_clean_sbu_0, # of connection points: 6
#     Node 12, Type 0, BuildingBlock: IZENUY_clean_sbu_0, # of connection points: 6
#     Node 13, Type 0, BuildingBlock: IZENUY_clean_sbu_0, # of connection points: 6
#     Node 14, Type 0, BuildingBlock: IZENUY_clean_sbu_0, # of connection points: 6
#     Node 15, Type 0, BuildingBlock: IZENUY_clean_sbu_0, # of connection points: 6
#     Node 16, Type 1, BuildingBlock: TAGTUT_clean_sbu_3, # of connection points: 8
#     Node 17, Type 1, BuildingBlock: TAGTUT_clean_sbu_3, # of connection points: 8
#     Node 18, Type 1, BuildingBlock: TAGTUT_clean_sbu_3, # of connection points: 8
#     Node 19, Type 1, BuildingBlock: TAGTUT_clean_sbu_3, # of connection points: 8
#     Node 20, Type 1, BuildingBlock: TAGTUT_clean_sbu_3, # of connection points: 8
#     Node 21, Type 1, BuildingBlock: TAGTUT_clean_sbu_3, # of connection points: 8
#     Node 22, Type 1, BuildingBlock: TAGTUT_clean_sbu_3, # of connection points: 8
#     Node 23, Type 1, BuildingBlock: TAGTUT_clean_sbu_3, # of connection points: 8
#     Node 24, Type 1, BuildingBlock: TAGTUT_clean_sbu_3, # of connection points: 8
#     Node 25, Type 1, BuildingBlock: TAGTUT_clean_sbu_3, # of connection points: 8
#     Node 26, Type 1, BuildingBlock: TAGTUT_clean_sbu_3, # of connection points: 8
#     Node 27, Type 1, BuildingBlock: TAGTUT_clean_sbu_3, # of connection points: 8
#     Edge 28, Type (0, 1), BuildingBlock: KIFKEQ_clean_linker_1, # of connection points: 2
#     Edge 29, Type (0, 1), BuildingBlock: KIFKEQ_clean_linker_1, # of connection points: 2
#     Edge 30, Type (0, 1), BuildingBlock: KIFKEQ_clean_linker_1, # of connection points: 2
#     Edge 31, Type (0, 1), BuildingBlock: KIFKEQ_clean_linker_1, # of connection points: 2
#     Edge 32, Type (0, 1), BuildingBlock: KIFKEQ_clean_linker_1, # of connection points: 2
#     Edge 33, Type (0, 1), BuildingBlock: KIFKEQ_clean_linker_1, # of connection points: 2
#     Edge 34, Type (0, 1), BuildingBlock: KIFKEQ_clean_linker_1, # of connection points: 2
#     Edge 35, Type (0, 1), BuildingBlock: KIFKEQ_clean_linker_1, # of connection points: 2
#     Edge 36, Type (0, 1), BuildingBlock: KIFKEQ_clean_linker_1, # of connection points: 2
#     Edge 37, Type (0, 1), BuildingBlock: KIFKEQ_clean_linker_1, # of connection points: 2
#     Edge 38, Type (0, 1), BuildingBlock: KIFKEQ_clean_linker_1, # of connection points: 2
#     Edge 39, Type (0, 1), BuildingBlock: KIFKEQ_clean_linker_1, # of connection points: 2
#     Edge 40, Type (0, 1), BuildingBlock: KIFKEQ_clean_linker_1, # of connection points: 2
#     Edge 41, Type (0, 1), BuildingBlock: KIFKEQ_clean_linker_1, # of connection points: 2
#     Edge 42, Type (0, 1), BuildingBlock: KIFKEQ_clean_linker_1, # of connection points: 2
#     Edge 43, Type (0, 1), BuildingBlock: KIFKEQ_clean_linker_1, # of connection points: 2
#     Edge 44, Type (0, 1), BuildingBlock: KIFKEQ_clean_linker_1, # of connection points: 2
#     Edge 45, Type (0, 1), BuildingBlock: KIFKEQ_clean_linker_1, # of connection points: 2
#     Edge 46, Type (0, 1), BuildingBlock: KIFKEQ_clean_linker_1, # of connection points: 2
#     Edge 47, Type (0, 1), BuildingBlock: KIFKEQ_clean_linker_1, # of connection points: 2
#     Edge 48, Type (0, 1), BuildingBlock: KIFKEQ_clean_linker_1, # of connection points: 2
#     Edge 49, Type (0, 1), BuildingBlock: KIFKEQ_clean_linker_1, # of connection points: 2
#     Edge 50, Type (0, 1), BuildingBlock: KIFKEQ_clean_linker_1, # of connection points: 2
#     Edge 51, Type (0, 1), BuildingBlock: KIFKEQ_clean_linker_1, # of connection points: 2
#     Edge 52, Type (0, 1), BuildingBlock: KIFKEQ_clean_linker_1, # of connection points: 2
#     Edge 53, Type (0, 1), BuildingBlock: KIFKEQ_clean_linker_1, # of connection points: 2
#     Edge 54, Type (0, 1), BuildingBlock: KIFKEQ_clean_linker_1, # of connection points: 2
#     Edge 55, Type (0, 1), BuildingBlock: KIFKEQ_clean_linker_1, # of connection points: 2
#     Edge 56, Type (0, 1), BuildingBlock: KIFKEQ_clean_linker_1, # of connection points: 2
#     Edge 57, Type (0, 1), BuildingBlock: KIFKEQ_clean_linker_1, # of connection points: 2
#     Edge 58, Type (0, 1), BuildingBlock: KIFKEQ_clean_linker_1, # of connection points: 2
#     Edge 59, Type (0, 1), BuildingBlock: KIFKEQ_clean_linker_1, # of connection points: 2
#     Edge 60, Type (0, 1), BuildingBlock: KIFKEQ_clean_linker_1, # of connection points: 2
#     Edge 61, Type (0, 1), BuildingBlock: KIFKEQ_clean_linker_1, # of connection points: 2
#     Edge 62, Type (0, 1), BuildingBlock: KIFKEQ_clean_linker_1, # of connection points: 2
#     Edge 63, Type (0, 1), BuildingBlock: KIFKEQ_clean_linker_1, # of connection points: 2
#     Edge 64, Type (0, 1), BuildingBlock: KIFKEQ_clean_linker_1, # of connection points: 2
#     Edge 65, Type (0, 1), BuildingBlock: KIFKEQ_clean_linker_1, # of connection points: 2
#     Edge 66, Type (0, 1), BuildingBlock: KIFKEQ_clean_linker_1, # of connection points: 2
#     Edge 67, Type (0, 1), BuildingBlock: KIFKEQ_clean_linker_1, # of connection points: 2
#     Edge 68, Type (0, 1), BuildingBlock: KIFKEQ_clean_linker_1, # of connection points: 2
#     Edge 69, Type (0, 1), BuildingBlock: KIFKEQ_clean_linker_1, # of connection points: 2
#     Edge 70, Type (0, 1), BuildingBlock: KIFKEQ_clean_linker_1, # of connection points: 2
#     Edge 71, Type (0, 1), BuildingBlock: KIFKEQ_clean_linker_1, # of connection points: 2
#     Edge 72, Type (0, 1), BuildingBlock: KIFKEQ_clean_linker_1, # of connection points: 2
#     Edge 73, Type (0, 1), BuildingBlock: KIFKEQ_clean_linker_1, # of connection points: 2
#     Edge 74, Type (0, 1), BuildingBlock: KIFKEQ_clean_linker_1, # of connection points: 2
#     Edge 75, Type (0, 1), BuildingBlock: KIFKEQ_clean_linker_1, # of connection points: 2
#     Edge 76, Type (0, 1), BuildingBlock: KIFKEQ_clean_linker_1, # of connection points: 2
#     Edge 77, Type (0, 1), BuildingBlock: KIFKEQ_clean_linker_1, # of connection points: 2
#     Edge 78, Type (0, 1), BuildingBlock: KIFKEQ_clean_linker_1, # of connection points: 2
#     Edge 79, Type (0, 1), BuildingBlock: KIFKEQ_clean_linker_1, # of connection points: 2
#     Edge 80, Type (0, 1), BuildingBlock: KIFKEQ_clean_linker_1, # of connection points: 2
#     Edge 81, Type (0, 1), BuildingBlock: KIFKEQ_clean_linker_1, # of connection points: 2
#     Edge 82, Type (0, 1), BuildingBlock: KIFKEQ_clean_linker_1, # of connection points: 2
#     Edge 83, Type (0, 1), BuildingBlock: KIFKEQ_clean_linker_1, # of connection points: 2
#     Edge 84, Type (0, 1), BuildingBlock: KIFKEQ_clean_linker_1, # of connection points: 2
#     Edge 85, Type (0, 1), BuildingBlock: KIFKEQ_clean_linker_1, # of connection points: 2
#     Edge 86, Type (0, 1), BuildingBlock: KIFKEQ_clean_linker_1, # of connection points: 2
#     Edge 87, Type (0, 1), BuildingBlock: KIFKEQ_clean_linker_1, # of connection points: 2
#     Edge 88, Type (0, 1), BuildingBlock: KIFKEQ_clean_linker_1, # of connection points: 2
#     Edge 89, Type (0, 1), BuildingBlock: KIFKEQ_clean_linker_1, # of connection points: 2
#     Edge 90, Type (0, 1), BuildingBlock: KIFKEQ_clean_linker_1, # of connection points: 2
#     Edge 91, Type (0, 1), BuildingBlock: KIFKEQ_clean_linker_1, # of connection points: 2
#     Edge 92, Type (0, 1), BuildingBlock: KIFKEQ_clean_linker_1, # of connection points: 2
#     Edge 93, Type (0, 1), BuildingBlock: KIFKEQ_clean_linker_1, # of connection points: 2
#     Edge 94, Type (0, 1), BuildingBlock: KIFKEQ_clean_linker_1, # of connection points: 2
#     Edge 95, Type (0, 1), BuildingBlock: KIFKEQ_clean_linker_1, # of connection points: 2
#     Edge 96, Type (0, 1), BuildingBlock: KIFKEQ_clean_linker_1, # of connection points: 2
#     Edge 97, Type (0, 1), BuildingBlock: KIFKEQ_clean_linker_1, # of connection points: 2
#     Edge 98, Type (0, 1), BuildingBlock: KIFKEQ_clean_linker_1, # of connection points: 2
#     Edge 99, Type (0, 1), BuildingBlock: KIFKEQ_clean_linker_1, # of connection points: 2
#     Edge 100, Type (0, 1), BuildingBlock: KIFKEQ_clean_linker_1, # of connection points: 2
#     Edge 101, Type (0, 1), BuildingBlock: KIFKEQ_clean_linker_1, # of connection points: 2
#     Edge 102, Type (0, 1), BuildingBlock: KIFKEQ_clean_linker_1, # of connection points: 2
#     Edge 103, Type (0, 1), BuildingBlock: KIFKEQ_clean_linker_1, # of connection points: 2
#     Edge 104, Type (0, 1), BuildingBlock: KIFKEQ_clean_linker_1, # of connection points: 2
#     Edge 105, Type (0, 1), BuildingBlock: KIFKEQ_clean_linker_1, # of connection points: 2
#     Edge 106, Type (0, 1), BuildingBlock: KIFKEQ_clean_linker_1, # of connection points: 2
#     Edge 107, Type (0, 1), BuildingBlock: KIFKEQ_clean_linker_1, # of connection points: 2
#     Edge 108, Type (0, 1), BuildingBlock: KIFKEQ_clean_linker_1, # of connection points: 2
#     Edge 109, Type (0, 1), BuildingBlock: KIFKEQ_clean_linker_1, # of connection points: 2
#     Edge 110, Type (0, 1), BuildingBlock: KIFKEQ_clean_linker_1, # of connection points: 2
#     Edge 111, Type (0, 1), BuildingBlock: KIFKEQ_clean_linker_1, # of connection points: 2
#     Edge 112, Type (0, 1), BuildingBlock: KIFKEQ_clean_linker_1, # of connection points: 2
#     Edge 113, Type (0, 1), BuildingBlock: KIFKEQ_clean_linker_1, # of connection points: 2
#     Edge 114, Type (0, 1), BuildingBlock: KIFKEQ_clean_linker_1, # of connection points: 2
#     Edge 115, Type (0, 1), BuildingBlock: KIFKEQ_clean_linker_1, # of connection points: 2
#     Edge 116, Type (0, 1), BuildingBlock: KIFKEQ_clean_linker_1, # of connection points: 2
#     Edge 117, Type (0, 1), BuildingBlock: KIFKEQ_clean_linker_1, # of connection points: 2
#     Edge 118, Type (0, 1), BuildingBlock: KIFKEQ_clean_linker_1, # of connection points: 2
#     Edge 119, Type (0, 1), BuildingBlock: KIFKEQ_clean_linker_1, # of connection points: 2
#     Edge 120, Type (0, 1), BuildingBlock: KIFKEQ_clean_linker_1, # of connection points: 2
#     Edge 121, Type (0, 1), BuildingBlock: KIFKEQ_clean_linker_1, # of connection points: 2
#     Edge 122, Type (0, 1), BuildingBlock: KIFKEQ_clean_linker_1, # of connection points: 2
#     Edge 123, Type (0, 1), BuildingBlock: KIFKEQ_clean_linker_1, # of connection points: 2
# Relax obj value: 0.180
# Max RMSD: 0.260
# Mean RMSD: 0.252
data_MOF--net-tph--node1-IZENUY_clean_sbu_0--node2-TAGTUT_clean_sbu_3--edge1-KIFKEQ_clean_linker_1
_symmetry_space_group_name_H-M    P1
_symmetry_Int_Tables_number       1
_symmetry_cell_setting            triclinic
loop_
_symmetry_equiv_pos_as_xyz
'x, y, z'
_cell_length_a     48.089868
_cell_length_b     48.141132
_cell_length_c     48.08304
_cell_angle_alpha  89.42049
_cell_angle_beta   89.994821
_cell_angle_gamma 89.397047
loop_
_atom_site_label
_atom_site_type_symbol
_atom_site_fract_x
_atom_site_fract_y
_atom_site_fract_z
_atom_type_partial_charge
Fe0 Fe 0.19872 0.20657 0.15639 0.0
Fe1 Fe 0.16319 0.21326 0.20838 0.0
O2 O 0.18841 0.19433 0.1895 0.0
Fe3 Fe 0.20302 0.16332 0.20326 0.0
O4 O 0.19127 0.14333 0.17379 0.0
O5 O 0.20694 0.17216 0.14212 0.0
O6 O 0.16398 0.20246 0.14331 0.0
C7 C 0.1431 0.2147 0.15334 0.0
C8 C 0.24856 0.19036 0.17619 0.0
O9 O 0.14412 0.22578 0.17714 0.0
C10 C 0.2002 0.19346 0.25073 0.0
O11 O 0.19262 0.24359 0.16414 0.0
O12 O 0.18512 0.24349 0.20904 0.0
O13 O 0.23753 0.16904 0.18727 0.0
O14 O 0.23388 0.21071 0.16807 0.0
C15 C 0.14585 0.16027 0.2177 0.0
O16 O 0.17706 0.20366 0.24289 0.0
O17 O 0.21568 0.18081 0.2338 0.0
C18 C 0.19201 0.25622 0.18714 0.0
O19 O 0.14006 0.18428 0.20868 0.0
O20 O 0.1709 0.15236 0.22114 0.0
C21 C 0.19883 0.14823 0.14919 0.0
Fe22 Fe 0.4549 0.56317 0.10174 0.0
Fe23 Fe 0.44938 0.60145 0.05083 0.0
O24 O 0.43587 0.5747 0.07223 0.0
Fe25 Fe 0.40332 0.55992 0.06476 0.0
O26 O 0.38967 0.57033 0.09782 0.0
O27 O 0.42404 0.55378 0.12295 0.0
O28 O 0.45207 0.5971 0.11679 0.0
C29 C 0.45987 0.61919 0.10512 0.0
C30 C 0.43754 0.51365 0.08185 0.0
O31 O 0.46673 0.61958 0.07965 0.0
C32 C 0.42324 0.56537 0.01227 0.0
O33 O 0.48954 0.57075 0.08648 0.0
O34 O 0.47995 0.58084 0.04297 0.0
O35 O 0.41361 0.52459 0.07753 0.0
O36 O 0.45803 0.52862 0.08791 0.0
C37 C 0.39499 0.61773 0.05402 0.0
O38 O 0.43357 0.58863 0.0185 0.0
O39 O 0.4147 0.54899 0.03085 0.0
C40 C 0.49738 0.5738 0.06137 0.0
O41 O 0.42009 0.62371 0.05745 0.0
O42 O 0.38739 0.5927 0.05113 0.0
C43 C 0.39962 0.56379 0.12109 0.0
Fe44 Fe 0.78947 0.3002 0.1489 0.0
Fe45 Fe 0.83721 0.29836 0.19105 0.0
O46 O 0.80682 0.31437 0.17769 0.0
Fe47 Fe 0.79383 0.3446 0.19326 0.0
O48 O 0.79832 0.36386 0.16163 0.0
O49 O 0.77648 0.33448 0.13505 0.0
O50 O 0.81984 0.30456 0.12728 0.0
C51 C 0.84269 0.29246 0.13221 0.0
C52 C 0.74478 0.31499 0.17981 0.0
O53 O 0.84876 0.2844 0.15682 0.0
C54 C 0.80939 0.31852 0.23989 0.0
O55 O 0.7993 0.26354 0.15792 0.0
O56 O 0.81829 0.26723 0.19935 0.0
O57 O 0.75698 0.33744 0.18556 0.0
O58 O 0.75806 0.29514 0.16898 0.0
C59 C 0.85229 0.35214 0.19397 0.0
O60 O 0.83132 0.30982 0.22773 0.0
O61 O 0.7889 0.3264 0.2256 0.0
C62 C 0.80694 0.25263 0.18102 0.0
O63 O 0.85754 0.32888 0.18329 0.0
O64 O 0.82832 0.35757 0.20364 0.0
C65 C 0.78434 0.35911 0.14022 0.0
Fe66 Fe 0.55001 0.93999 0.10664 0.0
Fe67 Fe 0.57033 0.89523 0.06561 0.0
O68 O 0.57462 0.92748 0.08218 0.0
Fe69 Fe 0.60469 0.94718 0.075 0.0
O70 O 0.61612 0.94228 0.1103 0.0
O71 O 0.57653 0.9558 0.12923 0.0
O72 O 0.55399 0.90984 0.12826 0.0
C73 C 0.55344 0.88484 0.12132 0.0
C74 C 0.56362 0.98916 0.084 0.0
O75 O 0.55461 0.87758 0.09604 0.0
C76 C 0.59082 0.93211 0.0229 0.0
O77 O 0.51969 0.92523 0.08888 0.0
O78 O 0.53695 0.9054 0.05147 0.0
O79 O 0.58863 0.98083 0.08319 0.0
O80 O 0.54438 0.97183 0.08689 0.0
C81 C 0.62615 0.89309 0.07467 0.0
O82 O 0.58593 0.90769 0.03227 0.0
O83 O 0.59422 0.95216 0.03929 0.0
C84 C 0.51643 0.91406 0.06532 0.0
O85 O 0.60301 0.88221 0.0791 0.0
O86 O 0.62738 0.91774 0.06575 0.0
C87 C 0.60198 0.94881 0.13136 0.0
Fe88 Fe 0.1929 0.8417 0.28732 0.0
Fe89 Fe 0.18622 0.80319 0.33777 0.0
O90 O 0.17526 0.81458 0.30456 0.0
Fe91 Fe 0.14649 0.7988 0.2888 0.0
O92 O 0.12772 0.83104 0.2878 0.0
O93 O 0.16118 0.85583 0.26923 0.0
O94 O 0.18529 0.86556 0.31511 0.0
C95 C 0.19315 0.86165 0.33985 0.0
C96 C 0.18337 0.80851 0.24337 0.0
O97 O 0.19921 0.83738 0.34861 0.0
C98 C 0.16917 0.75311 0.31164 0.0
O99 O 0.22758 0.83231 0.30249 0.0
O100 O 0.21971 0.7929 0.32453 0.0
O101 O 0.15928 0.80369 0.2529 0.0
O102 O 0.20153 0.81943 0.25851 0.0
C103 C 0.13054 0.80305 0.34528 0.0
O104 O 0.17477 0.76683 0.3333 0.0
O105 O 0.16384 0.76557 0.28915 0.0
C106 C 0.23655 0.81016 0.31443 0.0
O107 O 0.15335 0.81321 0.35262 0.0
O108 O 0.12813 0.7915 0.32182 0.0
C109 C 0.13544 0.85189 0.2741 0.0
Fe110 Fe 0.10712 0.54855 0.94423 0.0
Fe111 Fe 0.06463 0.56208 0.89812 0.0
O112 O 0.08215 0.57127 0.92889 0.0
Fe113 Fe 0.07548 0.60387 0.94428 0.0
O114 O 0.11077 0.61399 0.93796 0.0
O115 O 0.12915 0.57675 0.95757 0.0
O116 O 0.12836 0.54975 0.91376 0.0
C117 C 0.12071 0.5454 0.88923 0.0
C118 C 0.08275 0.56732 0.9911 0.0
O119 O 0.09513 0.54407 0.88267 0.0
C120 C 0.02295 0.58836 0.93205 0.0
O121 O 0.09052 0.51642 0.93247 0.0
O122 O 0.05119 0.53061 0.91377 0.0
O123 O 0.08335 0.59159 0.9803 0.0
O124 O 0.08709 0.54634 0.97613 0.0
C125 C 0.07358 0.61687 0.8868 0.0
O126 O 0.03143 0.57944 0.90855 0.0
O127 O 0.03992 0.59503 0.95073 0.0
C128 C 0.0665 0.51132 0.9231 0.0
O129 O 0.07719 0.59217 0.87978 0.0
O130 O 0.06628 0.62258 0.91143 0.0
C131 C 0.13169 0.60081 0.94692 0.0
Fe132 Fe 0.80323 0.64759 0.3149 0.0
Fe133 Fe 0.84838 0.69133 0.31203 0.0
O134 O 0.81755 0.67868 0.32695 0.0
Fe135 Fe 0.80103 0.69687 0.35408 0.0
O136 O 0.76987 0.7018 0.33347 0.0
O137 O 0.76645 0.65774 0.32288 0.0
O138 O 0.79807 0.66236 0.28084 0.0
C139 C 0.81823 0.66912 0.26562 0.0
C140 C 0.79567 0.63998 0.36982 0.0
O141 O 0.8408 0.67754 0.27655 0.0
C142 C 0.85461 0.70228 0.37018 0.0
O143 O 0.83722 0.63169 0.30453 0.0
O144 O 0.86747 0.66034 0.32209 0.0
O145 O 0.78699 0.66501 0.37125 0.0
O146 O 0.80811 0.63159 0.34845 0.0
C147 C 0.82204 0.74019 0.31846 0.0
O148 O 0.86126 0.70724 0.34494 0.0
O149 O 0.8311 0.69266 0.37609 0.0
C150 C 0.8619 0.63693 0.31231 0.0
O151 O 0.83102 0.72282 0.30125 0.0
O152 O 0.81262 0.7319 0.34188 0.0
C153 C 0.75516 0.68156 0.32628 0.0
Fe154 Fe 0.89905 0.94276 0.94175 0.0
Fe155 Fe 0.94644 0.94075 0.89957 0.0
O156 O 0.93182 0.92973 0.93154 0.0
Fe157 Fe 0.94996 0.90511 0.95244 0.0
O158 O 0.92233 0.88092 0.9499 0.0
O159 O 0.88725 0.90946 0.95756 0.0
O160 O 0.883 0.9304 0.91079 0.0
C161 C 0.88935 0.93713 0.88648 0.0
C162 C 0.9245 0.94103 0.9922 0.0
O163 O 0.91269 0.94829 0.88164 0.0
C164 C 0.994 0.93409 0.9349 0.0
O165 O 0.90561 0.97817 0.92704 0.0
O166 O 0.94904 0.97579 0.91201 0.0
O167 O 0.93698 0.91856 0.98603 0.0
O168 O 0.91253 0.95554 0.97387 0.0
C169 C 0.95451 0.88499 0.89807 0.0
O170 O 0.98309 0.93485 0.91079 0.0
O171 O 0.97927 0.92808 0.95568 0.0
C172 C 0.92854 0.98982 0.92066 0.0
O173 O 0.9439 0.90612 0.88642 0.0
O174 O 0.96501 0.88647 0.92229 0.0
C175 C 0.8968 0.88511 0.95334 0.0
Fe176 Fe 0.40128 0.44822 0.44236 0.0
Fe177 Fe 0.44685 0.4394 0.39869 0.0
O178 O 0.43113 0.43012 0.43064 0.0
Fe179 Fe 0.44526 0.40208 0.45043 0.0
O180 O 0.41393 0.38299 0.44688 0.0
O181 O 0.3845 0.41665 0.4574 0.0
O182 O 0.3821 0.44053 0.41149 0.0
C183 C 0.38934 0.44602 0.38708 0.0
C184 C 0.42732 0.44008 0.492 0.0
O185 O 0.4144 0.45173 0.38141 0.0
C186 C 0.49305 0.4259 0.43388 0.0
O187 O 0.41303 0.48251 0.42853 0.0
O188 O 0.45465 0.47353 0.41119 0.0
O189 O 0.43448 0.41581 0.48464 0.0
O190 O 0.41805 0.45727 0.47442 0.0
C191 C 0.44695 0.3832 0.39563 0.0
O192 O 0.48242 0.42852 0.40974 0.0
O193 O 0.47791 0.41993 0.45445 0.0
C194 C 0.43687 0.49064 0.42025 0.0
O195 O 0.43921 0.40588 0.38488 0.0
O196 O 0.45763 0.38243 0.41976 0.0
C197 C 0.3896 0.3913 0.45169 0.0
Fe198 Fe 0.29465 0.80113 0.64687 0.0
Fe199 Fe 0.2972 0.84146 0.69531 0.0
O200 O 0.31115 0.81316 0.67706 0.0
Fe201 Fe 0.34177 0.79681 0.68939 0.0
O202 O 0.3234 0.7649 0.69532 0.0
O203 O 0.30455 0.76394 0.65353 0.0
O204 O 0.263 0.79409 0.66566 0.0
C205 C 0.24919 0.81232 0.67833 0.0
C206 C 0.34788 0.79452 0.63036 0.0
O207 O 0.26065 0.83437 0.68647 0.0
C208 C 0.3553 0.85052 0.69637 0.0
O209 O 0.28188 0.83638 0.63534 0.0
O210 O 0.30129 0.86379 0.66582 0.0
O211 O 0.35376 0.78518 0.65451 0.0
O212 O 0.32535 0.80739 0.6262 0.0
C213 C 0.31313 0.8113 0.73946 0.0
O214 O 0.33137 0.85422 0.70695 0.0
O215 O 0.36126 0.8283 0.68391 0.0
C216 C 0.28913 0.86057 0.64302 0.0
O217 O 0.2925 0.82015 0.72592 0.0
O218 O 0.33558 0.80543 0.72666 0.0
C219 C 0.31191 0.75163 0.67606 0.0
Fe220 Fe 0.0717 0.3936 0.56369 0.0
Fe221 Fe 0.10305 0.44776 0.57313 0.0
O222 O 0.07486 0.42569 0.58088 0.0
Fe223 Fe 0.05076 0.43536 0.60695 0.0
O224 O 0.05996 0.40564 0.62759 0.0
O225 O 0.05803 0.37451 0.59455 0.0
O226 O 0.10531 0.38236 0.57579 0.0
C227 C 0.12773 0.39496 0.57238 0.0
C228 C 0.01713 0.40835 0.56663 0.0
O229 O 0.12782 0.41983 0.56377 0.0
C230 C 0.05797 0.48554 0.58344 0.0
O231 O 0.08566 0.40728 0.53003 0.0
O232 O 0.09173 0.45195 0.53771 0.0
O233 O 0.02111 0.41757 0.59092 0.0
O234 O 0.03736 0.40244 0.55104 0.0
C235 C 0.10211 0.44939 0.62954 0.0
O236 O 0.08379 0.48002 0.58147 0.0
O237 O 0.04085 0.46633 0.58782 0.0
C238 C 0.0898 0.43198 0.52106 0.0
O239 O 0.11588 0.44392 0.60805 0.0
O240 O 0.07621 0.45414 0.62826 0.0
C241 C 0.0609 0.38082 0.62 0.0
Fe242 Fe 0.95658 0.06295 0.60384 0.0
Fe243 Fe 0.95107 0.09897 0.55116 0.0
O244 O 0.93706 0.07396 0.5744 0.0
Fe245 Fe 0.90353 0.06033 0.56945 0.0
O246 O 0.89206 0.07277 0.60279 0.0
O247 O 0.92641 0.05415 0.62604 0.0
O248 O 0.95426 0.09737 0.61755 0.0
C249 C 0.96132 0.1191 0.60463 0.0
C250 C 0.93754 0.0137 0.5858 0.0
O251 O 0.96828 0.11858 0.57914 0.0
C252 C 0.92197 0.06166 0.51568 0.0
O253 O 0.99084 0.06995 0.58837 0.0
O254 O 0.98164 0.07753 0.54449 0.0
O255 O 0.91361 0.02522 0.58309 0.0
O256 O 0.95885 0.02803 0.59062 0.0
C257 C 0.89688 0.11751 0.55493 0.0
O258 O 0.935 0.08407 0.51984 0.0
O259 O 0.91229 0.04759 0.53556 0.0
C260 C 0.99894 0.07168 0.56338 0.0
O261 O 0.9224 0.12249 0.55602 0.0
O262 O 0.88793 0.09281 0.55521 0.0
C263 C 0.90251 0.06531 0.62553 0.0
Fe264 Fe 0.69176 0.70337 0.66039 0.0
Fe265 Fe 0.70208 0.66381 0.70963 0.0
O266 O 0.68256 0.69082 0.69365 0.0
Fe267 Fe 0.65341 0.70524 0.71082 0.0
O268 O 0.6695 0.73892 0.71168 0.0
O269 O 0.68009 0.73941 0.66717 0.0
O270 O 0.72543 0.71353 0.6724 0.0
C271 C 0.74305 0.6964 0.68175 0.0
C272 C 0.6358 0.70314 0.65498 0.0
O273 O 0.73544 0.67427 0.694 0.0
C274 C 0.64643 0.65021 0.72072 0.0
O275 O 0.70513 0.6697 0.64763 0.0
O276 O 0.69511 0.64046 0.68142 0.0
O277 O 0.63398 0.71411 0.67875 0.0
O278 O 0.65864 0.69362 0.64649 0.0
C279 C 0.69155 0.69481 0.75507 0.0
O280 O 0.6719 0.64823 0.72729 0.0
O281 O 0.63622 0.67223 0.71053 0.0
C282 C 0.70092 0.64513 0.6563 0.0
O283 O 0.71015 0.68541 0.73913 0.0
O284 O 0.66704 0.69881 0.74609 0.0
C285 C 0.67666 0.75201 0.69003 0.0
Fe286 Fe 0.69377 0.34425 0.78711 0.0
Fe287 Fe 0.6885 0.30414 0.83634 0.0
O288 O 0.67554 0.31778 0.80477 0.0
Fe289 Fe 0.64415 0.30532 0.79103 0.0
O290 O 0.62842 0.33917 0.79312 0.0
O291 O 0.66208 0.36103 0.77163 0.0
O292 O 0.68953 0.3674 0.81621 0.0
C293 C 0.69839 0.36173 0.84028 0.0
C294 C 0.67858 0.31307 0.74337 0.0
O295 O 0.70443 0.33695 0.84738 0.0
C296 C 0.66549 0.25684 0.80973 0.0
O297 O 0.72877 0.33249 0.79966 0.0
O298 O 0.71993 0.29243 0.81964 0.0
O299 O 0.65467 0.31062 0.75436 0.0
O300 O 0.69866 0.3223 0.75726 0.0
C301 C 0.63365 0.30803 0.84879 0.0
O302 O 0.67437 0.26898 0.83124 0.0
O303 O 0.65798 0.27061 0.78862 0.0
C304 C 0.73725 0.30943 0.81003 0.0
O305 O 0.65792 0.31545 0.85462 0.0
O306 O 0.62808 0.29805 0.82516 0.0
C307 C 0.63705 0.36007 0.78011 0.0
Fe308 Fe 0.60535 0.05373 0.45298 0.0
Fe309 Fe 0.56679 0.06526 0.40316 0.0
O310 O 0.58097 0.07531 0.43531 0.0
Fe311 Fe 0.57164 0.10774 0.44973 0.0
O312 O 0.60671 0.1193 0.44605 0.0
O313 O 0.62513 0.08308 0.46762 0.0
O314 O 0.62898 0.05585 0.42472 0.0
C315 C 0.62421 0.05257 0.39935 0.0
C316 C 0.57688 0.07196 0.49742 0.0
O317 O 0.59957 0.04866 0.39056 0.0
C318 C 0.52126 0.08961 0.43346 0.0
O319 O 0.59114 0.02073 0.44019 0.0
O320 O 0.55336 0.03336 0.41764 0.0
O321 O 0.57732 0.09613 0.48638 0.0
O322 O 0.58271 0.051 0.48295 0.0
C323 C 0.57375 0.12028 0.392 0.0
O324 O 0.53199 0.08122 0.41065 0.0
O325 O 0.53629 0.09715 0.45341 0.0
C326 C 0.56826 0.01472 0.42872 0.0
O327 O 0.57953 0.09572 0.38596 0.0
O328 O 0.56424 0.12589 0.41595 0.0
C329 C 0.62744 0.10701 0.45652 0.0
Fe330 Fe 0.30027 0.14739 0.8098 0.0
Fe331 Fe 0.34599 0.19061 0.81146 0.0
O332 O 0.31373 0.1783 0.82338 0.0
Fe333 Fe 0.29486 0.19641 0.84901 0.0
O334 O 0.26554 0.20132 0.82584 0.0
O335 O 0.26298 0.15731 0.81531 0.0
O336 O 0.2978 0.16273 0.77568 0.0
C337 C 0.31916 0.16962 0.76221 0.0
C338 C 0.28881 0.13935 0.86401 0.0
O339 O 0.34096 0.17756 0.77506 0.0
C340 C 0.34682 0.20171 0.87025 0.0
O341 O 0.33482 0.13145 0.80161 0.0
O342 O 0.3636 0.15911 0.82261 0.0
O343 O 0.2798 0.16433 0.86495 0.0
O344 O 0.30257 0.13101 0.84341 0.0
C345 C 0.31939 0.23986 0.8159 0.0
O346 O 0.3564 0.20576 0.84576 0.0
O347 O 0.32272 0.19238 0.87356 0.0
C348 C 0.3588 0.13614 0.81152 0.0
O349 O 0.33043 0.22266 0.79971 0.0
O350 O 0.30732 0.23147 0.83801 0.0
C351 C 0.25127 0.18099 0.81814 0.0
C352 C 0.05251 0.21389 0.87994 0.0
C353 C 0.02896 0.24494 0.98307 0.0
C354 C 0.94555 0.24255 0.95855 0.0
Mg355 Mg 0.01647 0.22075 0.82443 0.0
Mg356 Mg 0.97895 0.27663 0.81401 0.0
O357 O 0.98441 0.24502 0.8363 0.0
Mg358 Mg 0.99457 0.2506 0.87629 0.0
O359 O 0.00698 0.25225 0.91615 0.0
Mg360 Mg 0.00295 0.21224 0.92802 0.0
Mg361 Mg 0.99259 0.27844 0.94046 0.0
C362 C 0.93699 0.2875 0.86346 0.0
O363 O 0.01016 0.29662 0.87173 0.0
O364 O 0.99245 0.21492 0.78387 0.0
O365 O 0.00126 0.31402 0.91456 0.0
O366 O 0.039 0.25612 0.8008 0.0
O367 O 0.96907 0.25517 0.77602 0.0
O368 O 0.01754 0.29674 0.80631 0.0
O369 O 0.97991 0.20619 0.88608 0.0
O370 O 0.99293 0.18533 0.84694 0.0
C371 C 0.98136 0.18448 0.87095 0.0
C372 C 0.97661 0.23063 0.76886 0.0
O373 O 0.94982 0.27046 0.88021 0.0
O374 O 0.02625 0.22318 0.96812 0.0
O375 O 0.94674 0.29474 0.83961 0.0
O376 O 0.96177 0.22182 0.95348 0.0
O377 O 0.01791 0.26843 0.97644 0.0
O378 O 0.95114 0.26695 0.94993 0.0
O379 O 0.03689 0.23099 0.8665 0.0
O380 O 0.04481 0.20423 0.90371 0.0
C381 C 0.03756 0.28233 0.79652 0.0
C382 C 0.00913 0.31684 0.8892 0.0
C383 C 0.55519 0.71725 0.38335 0.0
C384 C 0.52235 0.74011 0.48603 0.0
C385 C 0.4424 0.74183 0.45407 0.0
Mg386 Mg 0.52522 0.72761 0.32569 0.0
Mg387 Mg 0.48336 0.78047 0.31363 0.0
O388 O 0.49073 0.74941 0.33586 0.0
Mg389 Mg 0.49736 0.75347 0.37683 0.0
O390 O 0.5066 0.75277 0.41762 0.0
Mg391 Mg 0.50147 0.71217 0.42642 0.0
Mg392 Mg 0.49138 0.77763 0.44266 0.0
C393 C 0.43851 0.78813 0.3613 0.0
O394 O 0.51279 0.79999 0.37625 0.0
O395 O 0.50634 0.72252 0.28242 0.0
O396 O 0.50329 0.8143 0.42008 0.0
O397 O 0.54713 0.76591 0.30614 0.0
O398 O 0.47769 0.75908 0.27452 0.0
O399 O 0.52062 0.80373 0.3103 0.0
O400 O 0.48299 0.70846 0.38231 0.0
O401 O 0.50207 0.68974 0.34448 0.0
C402 C 0.48773 0.68738 0.3669 0.0
C403 C 0.48964 0.73651 0.26672 0.0
O404 O 0.45167 0.77191 0.37858 0.0
O405 O 0.52034 0.71968 0.46927 0.0
O406 O 0.44851 0.79551 0.33761 0.0
O407 O 0.45844 0.721 0.4488 0.0
O408 O 0.51335 0.76458 0.47995 0.0
O409 O 0.44909 0.76651 0.44731 0.0
O410 O 0.54087 0.73552 0.36996 0.0
O411 O 0.54538 0.70569 0.40545 0.0
C412 C 0.54308 0.79198 0.30237 0.0
C413 C 0.51212 0.81878 0.39528 0.0
C414 C 0.98381 0.81547 0.63589 0.0
C415 C 0.97859 0.76775 0.73599 0.0
C416 C 0.03452 0.71053 0.70706 0.0
Mg417 Mg 0.00165 0.79035 0.57701 0.0
Mg418 Mg 0.99231 0.72547 0.56091 0.0
O419 O 0.00748 0.74975 0.58631 0.0
Mg420 Mg 0.99537 0.74952 0.62641 0.0
O421 O 0.98546 0.75357 0.66699 0.0
Mg422 Mg 0.01878 0.77482 0.67975 0.0
Mg423 Mg 0.97561 0.72349 0.6894 0.0
C424 C 0.00655 0.68363 0.61047 0.0
O425 O 0.95185 0.73144 0.62011 0.0
O426 O 0.0227 0.78217 0.53544 0.0
O427 O 0.94518 0.70768 0.66054 0.0
O428 O 0.96008 0.78263 0.55175 0.0
O429 O 0.01608 0.73741 0.52439 0.0
O430 O 0.95044 0.73754 0.55391 0.0
O431 O 0.03731 0.76674 0.63645 0.0
O432 O 0.04356 0.79609 0.60075 0.0
C433 C 0.05193 0.78482 0.62367 0.0
C434 C 0.02534 0.76172 0.51874 0.0
O435 O 0.00948 0.70278 0.62882 0.0
O436 O 0.99697 0.78031 0.72136 0.0
O437 O 0.99903 0.68849 0.58527 0.0
O438 O 0.03982 0.73607 0.7016 0.0
O439 O 0.96603 0.74602 0.72743 0.0
O440 O 0.01192 0.69959 0.69901 0.0
O441 O 0.98089 0.79453 0.61994 0.0
O442 O 0.9962 0.81292 0.65946 0.0
C443 C 0.9443 0.76211 0.54598 0.0
C444 C 0.93812 0.71441 0.63554 0.0
C445 C 0.86905 0.99302 0.18717 0.0
C446 C 0.76814 0.98426 0.23629 0.0
C447 C 0.79969 0.0381 0.29283 0.0
Mg448 Mg 0.9264 0.01118 0.21421 0.0
Mg449 Mg 0.94263 0.99624 0.27905 0.0
O450 O 0.91656 0.0119 0.25497 0.0
Mg451 Mg 0.87694 0.99931 0.25365 0.0
O452 O 0.83695 0.98929 0.24808 0.0
Mg453 Mg 0.8236 0.02407 0.22808 0.0
Mg454 Mg 0.81635 0.98057 0.27968 0.0
C455 C 0.89186 0.00649 0.32021 0.0
O456 O 0.88312 0.95336 0.27014 0.0
O457 O 0.96614 0.03425 0.22563 0.0
O458 O 0.84317 0.94765 0.2945 0.0
O459 O 0.95305 0.97041 0.21892 0.0
O460 O 0.9763 0.02455 0.27039 0.0
O461 O 0.95458 0.95679 0.26336 0.0
O462 O 0.86576 0.04303 0.23799 0.0
O463 O 0.90121 0.05251 0.20987 0.0
C464 C 0.8779 0.0594 0.2209 0.0
C465 C 0.98157 0.03683 0.24721 0.0
O466 O 0.87385 0.01058 0.30066 0.0
O467 O 0.78228 0.00174 0.22186 0.0
O468 O 0.91719 0.99906 0.31582 0.0
O469 O 0.80198 0.04266 0.26673 0.0
O470 O 0.77728 0.97315 0.25892 0.0
O471 O 0.81064 0.01663 0.30412 0.0
O472 O 0.88458 0.98854 0.20834 0.0
O473 O 0.84513 0.00491 0.18949 0.0
C474 C 0.96089 0.95319 0.23793 0.0
C475 C 0.86736 0.93926 0.28679 0.0
C476 C 0.22018 0.87563 0.05086 0.0
C477 C 0.24462 0.98001 0.03409 0.0
C478 C 0.24018 0.96087 0.94868 0.0
Mg479 Mg 0.22769 0.82246 0.01425 0.0
Mg480 Mg 0.28093 0.81457 0.97377 0.0
O481 O 0.24954 0.83624 0.98108 0.0
Mg482 Mg 0.25467 0.87618 0.99236 0.0
O483 O 0.25512 0.91546 0.00664 0.0
Mg484 Mg 0.21426 0.92557 0.00461 0.0
Mg485 Mg 0.27936 0.94243 0.99396 0.0
C486 C 0.29038 0.86685 0.93411 0.0
O487 O 0.30154 0.87269 0.00574 0.0
O488 O 0.222 0.7818 0.99116 0.0
O489 O 0.31626 0.91678 0.998 0.0
O490 O 0.26535 0.7993 0.03496 0.0
O491 O 0.25996 0.77603 0.96428 0.0
O492 O 0.30395 0.80698 0.01095 0.0
O493 O 0.20942 0.88485 0.97992 0.0
O494 O 0.18987 0.84484 0.99261 0.0
C495 C 0.18803 0.86936 0.98187 0.0
C496 C 0.23683 0.76738 0.97431 0.0
O497 O 0.27325 0.88296 0.94734 0.0
O498 O 0.22367 0.96427 0.03024 0.0
O499 O 0.29713 0.84232 0.94265 0.0
O500 O 0.22036 0.95342 0.96484 0.0
O501 O 0.26826 0.9758 0.02238 0.0
O502 O 0.26536 0.95409 0.9537 0.0
O503 O 0.23748 0.86402 0.03447 0.0
O504 O 0.20896 0.89911 0.04463 0.0
C505 C 0.2916 0.79619 0.03175 0.0
C506 C 0.32089 0.89106 0.0039 0.0
C507 C 0.1284 0.44959 0.21574 0.0
C508 C 0.02321 0.45834 0.24625 0.0
C509 C 0.03864 0.54403 0.2519 0.0
Mg510 Mg 0.18034 0.48864 0.22537 0.0
Mg511 Mg 0.1872 0.52617 0.28086 0.0
O512 O 0.16462 0.5181 0.2505 0.0
Mg513 Mg 0.12569 0.50329 0.25574 0.0
O514 O 0.08744 0.48662 0.25639 0.0
Mg515 Mg 0.07531 0.49359 0.21677 0.0
Mg516 Mg 0.06107 0.49466 0.28343 0.0
C517 C 0.13075 0.55829 0.29565 0.0
O518 O 0.13172 0.48514 0.3014 0.0
O519 O 0.21827 0.51647 0.21915 0.0
O520 O 0.08771 0.48645 0.31855 0.0
O521 O 0.20641 0.46671 0.26078 0.0
O522 O 0.22365 0.54123 0.25823 0.0
O523 O 0.19944 0.4884 0.30082 0.0
O524 O 0.11483 0.52036 0.21176 0.0
O525 O 0.1554 0.51145 0.1908 0.0
C526 C 0.13037 0.52091 0.19001 0.0
C527 C 0.23153 0.53411 0.23377 0.0
O528 O 0.11572 0.54467 0.2783 0.0
O529 O 0.03798 0.46527 0.22515 0.0
O530 O 0.15651 0.55263 0.30053 0.0
O531 O 0.0456 0.53119 0.22957 0.0
O532 O 0.02811 0.46707 0.27085 0.0
O533 O 0.04707 0.53586 0.27573 0.0
O534 O 0.14016 0.46431 0.23423 0.0
O535 O 0.10404 0.45587 0.20648 0.0
C536 C 0.21055 0.46879 0.28699 0.0
C537 C 0.11394 0.48219 0.32141 0.0
C538 C 0.6936 0.63339 0.019 0.0
C539 C 0.7415 0.73126 0.03467 0.0
C540 C 0.79699 0.70719 0.97377 0.0
Mg541 Mg 0.71821 0.57755 0.99437 0.0
Mg542 Mg 0.78347 0.55777 0.00104 0.0
O543 O 0.75898 0.58609 0.99118 0.0
Mg544 Mg 0.75998 0.62461 0.00705 0.0
O545 O 0.75594 0.66389 0.02037 0.0
Mg546 Mg 0.73344 0.68036 0.98881 0.0
Mg547 Mg 0.78649 0.6846 0.03107 0.0
C548 C 0.82464 0.60746 0.98741 0.0
O549 O 0.77921 0.6147 0.05131 0.0
O550 O 0.72577 0.53961 0.96672 0.0
O551 O 0.80311 0.65415 0.05977 0.0
O552 O 0.72591 0.54801 0.03267 0.0
O553 O 0.77038 0.52617 0.97235 0.0
O554 O 0.77148 0.54491 0.04157 0.0
O555 O 0.7421 0.63962 0.96584 0.0
O556 O 0.71247 0.60597 0.95562 0.0
C557 C 0.72414 0.62908 0.94963 0.0
C558 C 0.74629 0.5233 0.96146 0.0
O559 O 0.80622 0.62689 0.99085 0.0
O560 O 0.72803 0.71931 0.01518 0.0
O561 O 0.81999 0.58164 0.99222 0.0
O562 O 0.77107 0.70338 0.96941 0.0
O563 O 0.76409 0.72122 0.04502 0.0
O564 O 0.80916 0.6967 0.995 0.0
O565 O 0.71489 0.61729 0.02081 0.0
O566 O 0.69572 0.65804 0.00884 0.0
C567 C 0.74636 0.53904 0.04748 0.0
C568 C 0.79617 0.62919 0.06609 0.0
C569 C 0.19388 0.1332 0.52171 0.0
C570 C 0.23975 0.23225 0.53902 0.0
C571 C 0.28918 0.21475 0.47136 0.0
Mg572 Mg 0.2192 0.07936 0.49283 0.0
Mg573 Mg 0.28524 0.06203 0.49019 0.0
O574 O 0.25894 0.09018 0.48694 0.0
Mg575 Mg 0.25951 0.12834 0.50427 0.0
O576 O 0.25503 0.1668 0.51963 0.0
Mg577 Mg 0.22871 0.1837 0.49157 0.0
Mg578 Mg 0.28621 0.18824 0.5271 0.0
C579 C 0.32302 0.11501 0.4783 0.0
O580 O 0.2822 0.11822 0.54711 0.0
O581 O 0.22517 0.04251 0.46348 0.0
O582 O 0.30621 0.15795 0.5539 0.0
O583 O 0.2315 0.04905 0.52955 0.0
O584 O 0.27058 0.03236 0.46005 0.0
O585 O 0.27797 0.04477 0.53028 0.0
O586 O 0.23771 0.14455 0.46498 0.0
O587 O 0.21022 0.10876 0.45549 0.0
C588 C 0.21977 0.13288 0.44944 0.0
C589 C 0.2452 0.02799 0.45351 0.0
O590 O 0.30443 0.13333 0.4851 0.0
O591 O 0.22378 0.22014 0.52161 0.0
O592 O 0.31952 0.08868 0.48055 0.0
O593 O 0.26299 0.21044 0.47038 0.0
O594 O 0.26462 0.22388 0.54428 0.0
O595 O 0.30452 0.20236 0.48926 0.0
O596 O 0.21586 0.11803 0.52055 0.0
O597 O 0.19413 0.1586 0.51355 0.0
C598 C 0.25406 0.03921 0.54029 0.0
C599 C 0.29981 0.13299 0.5609 0.0
C600 C 0.3767 0.55664 0.71527 0.0
C601 C 0.48023 0.5313 0.74388 0.0
C602 C 0.45567 0.44893 0.73992 0.0
Mg603 Mg 0.32132 0.52313 0.72513 0.0
Mg604 Mg 0.31394 0.48353 0.77972 0.0
O605 O 0.33385 0.4892 0.74691 0.0
Mg606 Mg 0.37402 0.49871 0.75158 0.0
O607 O 0.41384 0.51052 0.7523 0.0
Mg608 Mg 0.42404 0.50684 0.71189 0.0
Mg609 Mg 0.43863 0.49491 0.77763 0.0
C610 C 0.36322 0.44063 0.78799 0.0
O611 O 0.371 0.51358 0.79746 0.0
O612 O 0.27926 0.50169 0.72114 0.0
O613 O 0.41417 0.50375 0.814 0.0
O614 O 0.3005 0.54452 0.76295 0.0
O615 O 0.27418 0.47619 0.76043 0.0
O616 O 0.31021 0.52141 0.80185 0.0
O617 O 0.38143 0.48517 0.70698 0.0
O618 O 0.34201 0.50086 0.68752 0.0
C619 C 0.3658 0.48857 0.68564 0.0
C620 C 0.26492 0.48587 0.73722 0.0
O621 O 0.37912 0.45363 0.77059 0.0
O622 O 0.46482 0.52914 0.7222 0.0
O623 O 0.33957 0.45026 0.79592 0.0
O624 O 0.44941 0.46557 0.71983 0.0
O625 O 0.47401 0.52003 0.7673 0.0
O626 O 0.44775 0.45376 0.76471 0.0
O627 O 0.36416 0.5415 0.73321 0.0
O628 O 0.39999 0.54869 0.70485 0.0
C629 C 0.29871 0.54191 0.78935 0.0
C630 C 0.389 0.51218 0.81729 0.0
C631 C 0.71647 0.37265 0.54959 0.0
C632 C 0.74195 0.47775 0.53768 0.0
C633 C 0.74396 0.4607 0.45168 0.0
Mg634 Mg 0.7276 0.32018 0.51161 0.0
Mg635 Mg 0.78451 0.31527 0.47584 0.0
O636 O 0.75148 0.33548 0.48076 0.0
Mg637 Mg 0.75499 0.37484 0.4938 0.0
O638 O 0.75426 0.41364 0.5092 0.0
Mg639 Mg 0.71375 0.42394 0.5042 0.0
Mg640 Mg 0.77957 0.44088 0.49975 0.0
C641 C 0.79423 0.36817 0.43756 0.0
O642 O 0.80096 0.37082 0.50967 0.0
O643 O 0.7243 0.28114 0.48528 0.0
O644 O 0.81618 0.41507 0.50472 0.0
O645 O 0.76408 0.29666 0.53405 0.0
O646 O 0.76569 0.27653 0.4635 0.0
O647 O 0.8045 0.30719 0.51466 0.0
O648 O 0.7105 0.38361 0.4786 0.0
O649 O 0.69115 0.34281 0.48866 0.0
C650 C 0.68936 0.36765 0.47881 0.0
C651 C 0.74129 0.26783 0.46955 0.0
O652 O 0.77581 0.38316 0.45035 0.0
O653 O 0.72131 0.46251 0.53099 0.0
O654 O 0.80211 0.344 0.4462 0.0
O655 O 0.72276 0.45243 0.46551 0.0
O656 O 0.76668 0.47299 0.52873 0.0
O657 O 0.76868 0.45448 0.45914 0.0
O658 O 0.73507 0.36119 0.53444 0.0
O659 O 0.70598 0.39642 0.54303 0.0
C660 C 0.79061 0.29469 0.53342 0.0
C661 C 0.82042 0.38909 0.50961 0.0
C662 C 0.63032 0.0219 0.69313 0.0
C663 C 0.73277 0.03127 0.7343 0.0
C664 C 0.71191 0.9676 0.78766 0.0
Mg665 Mg 0.57499 0.99613 0.72003 0.0
Mg666 Mg 0.56131 0.99604 0.78684 0.0
O667 O 0.58727 0.98827 0.75934 0.0
Mg668 Mg 0.62616 0.00341 0.75855 0.0
O669 O 0.66549 0.01684 0.75291 0.0
Mg670 Mg 0.67974 0.9873 0.72717 0.0
Mg671 Mg 0.68913 0.02591 0.78207 0.0
C672 C 0.61427 0.97977 0.82344 0.0
O673 O 0.61786 0.04487 0.78133 0.0
O674 O 0.53722 0.9686 0.72814 0.0
O675 O 0.65927 0.05305 0.80227 0.0
O676 O 0.54636 0.03403 0.73396 0.0
O677 O 0.52785 0.96931 0.77396 0.0
O678 O 0.54787 0.03771 0.78023 0.0
O679 O 0.63897 0.9641 0.73633 0.0
O680 O 0.6022 0.95784 0.70882 0.0
C681 C 0.62627 0.95023 0.71778 0.0
C682 C 0.52261 0.96131 0.7492 0.0
O683 O 0.63208 0.98394 0.80368 0.0
O684 O 0.71899 0.01309 0.72086 0.0
O685 O 0.5881 0.98463 0.82093 0.0
O686 O 0.70563 0.96472 0.76196 0.0
O687 O 0.72464 0.04067 0.75788 0.0
O688 O 0.70298 0.98824 0.80161 0.0
O689 O 0.61535 0.02158 0.71523 0.0
O690 O 0.65501 0.01147 0.69314 0.0
C691 C 0.53946 0.04644 0.75656 0.0
C692 C 0.63343 0.0588 0.7979 0.0
C693 C 0.47331 0.31426 0.13728 0.0
C694 C 0.46352 0.26454 0.23551 0.0
C695 C 0.53234 0.21743 0.2139 0.0
Mg696 Mg 0.49781 0.29147 0.08022 0.0
Mg697 Mg 0.5017 0.22567 0.06402 0.0
O698 O 0.50851 0.25223 0.09059 0.0
Mg699 Mg 0.4936 0.24996 0.12959 0.0
O700 O 0.48013 0.25197 0.16911 0.0
Mg701 Mg 0.50833 0.27822 0.18442 0.0
Mg702 Mg 0.47463 0.21974 0.19045 0.0
C703 C 0.5186 0.18701 0.11508 0.0
O704 O 0.45383 0.22562 0.12024 0.0
O705 O 0.52352 0.28674 0.04048 0.0
O706 O 0.44912 0.19958 0.15952 0.0
O707 O 0.45929 0.27707 0.05252 0.0
O708 O 0.5268 0.24138 0.03042 0.0
O709 O 0.45975 0.23063 0.0518 0.0
O710 O 0.53203 0.27273 0.14292 0.0
O711 O 0.53695 0.30236 0.10711 0.0
C712 C 0.54523 0.29227 0.13066 0.0
C713 C 0.5319 0.2669 0.02489 0.0
O714 O 0.51431 0.20581 0.13356 0.0
O715 O 0.48051 0.28062 0.22276 0.0
O716 O 0.51384 0.19061 0.08905 0.0
O717 O 0.53269 0.24361 0.20897 0.0
O718 O 0.45772 0.24005 0.22711 0.0
O719 O 0.51355 0.20216 0.20362 0.0
O720 O 0.47345 0.29302 0.12139 0.0
O721 O 0.48381 0.31268 0.16172 0.0
C722 C 0.44865 0.25385 0.04504 0.0
C723 C 0.44212 0.20612 0.13443 0.0
H724 H 0.03602 0.32993 0.62912 0.0
H725 H 0.09779 0.38555 0.66114 0.0
H726 H 0.03868 0.30263 0.67271 0.0
H727 H 0.10042 0.3587 0.70414 0.0
H728 H 0.04864 0.33692 0.78549 0.0
H729 H 0.06101 0.35654 0.74021 0.0
H730 H 0.07143 0.27403 0.70728 0.0
H731 H 0.05974 0.25428 0.75268 0.0
C732 C 0.05076 0.33573 0.64502 0.0
C733 C 0.0664 0.35999 0.64204 0.0
C734 C 0.05229 0.32023 0.66992 0.0
C735 C 0.06947 0.32892 0.69191 0.0
C736 C 0.08675 0.35179 0.68775 0.0
C737 C 0.08525 0.36709 0.66311 0.0
C738 C 0.05462 0.32298 0.76892 0.0
C739 C 0.05321 0.2941 0.77275 0.0
C740 C 0.06155 0.33418 0.74294 0.0
C741 C 0.06677 0.31672 0.72018 0.0
C742 C 0.06722 0.28788 0.72442 0.0
C743 C 0.06088 0.27666 0.75057 0.0
H744 H 0.62805 0.67158 0.60964 0.0
H745 H 0.59281 0.74105 0.6542 0.0
H746 H 0.59626 0.68037 0.57145 0.0
H747 H 0.56016 0.7496 0.61582 0.0
H748 H 0.54356 0.77751 0.52284 0.0
H749 H 0.5657 0.76713 0.56758 0.0
H750 H 0.54847 0.67994 0.557 0.0
H751 H 0.52731 0.6901 0.51217 0.0
C752 C 0.61305 0.68842 0.61147 0.0
C753 C 0.61304 0.70581 0.6347 0.0
C754 C 0.59466 0.69334 0.58966 0.0
C755 C 0.57578 0.71576 0.59059 0.0
C756 C 0.57473 0.73235 0.61448 0.0
C757 C 0.59318 0.72731 0.6365 0.0
C758 C 0.54441 0.75618 0.5302 0.0
C759 C 0.53432 0.73455 0.51375 0.0
C760 C 0.5568 0.75027 0.55592 0.0
C761 C 0.55901 0.72268 0.56564 0.0
C762 C 0.54756 0.70132 0.54979 0.0
C763 C 0.53552 0.70716 0.52406 0.0
H764 H 0.91635 0.13795 0.63105 0.0
H765 H 0.00177 0.15785 0.61279 0.0
H766 H 0.91533 0.17283 0.66744 0.0
H767 H 0.00076 0.19305 0.6496 0.0
H768 H 0.97638 0.25915 0.71968 0.0
H769 H 0.96934 0.23957 0.6731 0.0
H770 H 0.95203 0.15977 0.71063 0.0
H771 H 0.95983 0.17892 0.75673 0.0
C772 C 0.93457 0.15063 0.63422 0.0
C773 C 0.95928 0.1452 0.61968 0.0
C774 C 0.93391 0.17057 0.65487 0.0
C775 C 0.95801 0.18525 0.66126 0.0
C776 C 0.9819 0.18201 0.6447 0.0
C777 C 0.98254 0.16195 0.62382 0.0
C778 C 0.97051 0.23759 0.71781 0.0
C779 C 0.96845 0.22042 0.74154 0.0
C780 C 0.96669 0.22647 0.69133 0.0
C781 C 0.96002 0.19837 0.68859 0.0
C782 C 0.95689 0.18161 0.71242 0.0
C783 C 0.96137 0.19248 0.73867 0.0
H784 H 0.35712 0.82304 0.58237 0.0
H785 H 0.3716 0.74339 0.62184 0.0
H786 H 0.37625 0.80552 0.53913 0.0
H787 H 0.38919 0.72495 0.57803 0.0
H788 H 0.44726 0.71219 0.50205 0.0
H789 H 0.42428 0.7233 0.54554 0.0
H790 H 0.36771 0.77844 0.50125 0.0
H791 H 0.39229 0.76867 0.45808 0.0
C792 C 0.36457 0.80173 0.58174 0.0
C793 C 0.36321 0.78472 0.60555 0.0
C794 C 0.37507 0.79141 0.55674 0.0
C795 C 0.38384 0.76346 0.55454 0.0
C796 C 0.38294 0.74659 0.57869 0.0
C797 C 0.37297 0.75717 0.60395 0.0
C798 C 0.42918 0.72583 0.50145 0.0
C799 C 0.42156 0.73954 0.47659 0.0
C800 C 0.41606 0.73246 0.52658 0.0
C801 C 0.39457 0.75257 0.52737 0.0
C802 C 0.38492 0.76378 0.50186 0.0
C803 C 0.39853 0.75767 0.47688 0.0
H804 H 0.03152 0.65214 0.87097 0.0
H805 H 0.11521 0.62671 0.85038 0.0
H806 H 0.02754 0.67605 0.82566 0.0
H807 H 0.11135 0.65093 0.80535 0.0
H808 H 0.07479 0.73159 0.74153 0.0
H809 H 0.08813 0.71286 0.78733 0.0
H810 H 0.04072 0.63921 0.77182 0.0
H811 H 0.02776 0.65723 0.726 0.0
C812 C 0.04942 0.6527 0.85729 0.0
C813 C 0.07374 0.63783 0.86418 0.0
C814 C 0.04707 0.66611 0.83133 0.0
C815 C 0.06917 0.66519 0.81216 0.0
C816 C 0.09415 0.65202 0.81986 0.0
C817 C 0.09633 0.63828 0.84559 0.0
C818 C 0.06799 0.71096 0.74738 0.0
C819 C 0.04993 0.69608 0.73 0.0
C820 C 0.0754 0.70046 0.77375 0.0
C821 C 0.06484 0.67498 0.78316 0.0
C822 C 0.04873 0.65913 0.76508 0.0
C823 C 0.04156 0.66941 0.73872 0.0
H824 H 0.86477 0.67601 0.41903 0.0
H825 H 0.87976 0.75293 0.37519 0.0
H826 H 0.88346 0.69554 0.46139 0.0
H827 H 0.89734 0.7734 0.41816 0.0
H828 H 0.95291 0.7884 0.49656 0.0
H829 H 0.93209 0.77551 0.45243 0.0
H830 H 0.87175 0.72585 0.49663 0.0
H831 H 0.89385 0.7375 0.54053 0.0
C832 C 0.87244 0.6971 0.41847 0.0
C833 C 0.87113 0.71281 0.39376 0.0
C834 C 0.88266 0.7086 0.44294 0.0
C835 C 0.89127 0.73647 0.4437 0.0
C836 C 0.89098 0.75191 0.41857 0.0
C837 C 0.88112 0.74014 0.39382 0.0
C838 C 0.93444 0.77568 0.49689 0.0
C839 C 0.92493 0.76405 0.52208 0.0
C840 C 0.92263 0.76799 0.47144 0.0
C841 C 0.90073 0.74879 0.47064 0.0
C842 C 0.8893 0.73975 0.49616 0.0
C843 C 0.90149 0.74696 0.5215 0.0
H844 H 0.91538 0.86691 0.86296 0.0
H845 H 0.99579 0.8452 0.8972 0.0
H846 H 0.9199 0.83005 0.8291 0.0
H847 H 1.00038 0.80779 0.8631 0.0
H848 H 0.01472 0.79689 0.76694 0.0
H849 H 0.00764 0.81636 0.81256 0.0
H850 H 0.92586 0.7802 0.81632 0.0
H851 H 0.93299 0.76044 0.76991 0.0
C852 C 0.9338 0.85374 0.86355 0.0
C853 C 0.95561 0.85921 0.88206 0.0
C854 C 0.9362 0.83238 0.84442 0.0
C855 C 0.96062 0.81627 0.84325 0.0
C856 C 0.98144 0.82015 0.86344 0.0
C857 C 0.97886 0.84145 0.8829 0.0
C858 C 0.99522 0.79288 0.77746 0.0
C859 C 0.97409 0.7777 0.76456 0.0
C860 C 0.99141 0.80363 0.8039 0.0
C861 C 0.96626 0.79971 0.81808 0.0
C862 C 0.94547 0.78352 0.80578 0.0
C863 C 0.94946 0.77235 0.77926 0.0
H864 H 0.1237 0.83402 0.39133 0.0
H865 H 0.08989 0.76364 0.3482 0.0
H866 H 0.09491 0.82361 0.43131 0.0
H867 H 0.06018 0.75352 0.38838 0.0
H868 H 0.04795 0.72482 0.48158 0.0
H869 H 0.06862 0.73591 0.43629 0.0
H870 H 0.048 0.82263 0.44786 0.0
H871 H 0.02848 0.81184 0.49305 0.0
C872 C 0.1096 0.81665 0.3902 0.0
C873 C 0.10913 0.79953 0.36679 0.0
C874 C 0.09296 0.81076 0.41307 0.0
C875 C 0.07536 0.78766 0.41302 0.0
C876 C 0.07381 0.77127 0.38905 0.0
C877 C 0.09052 0.77724 0.36599 0.0
C878 C 0.0479 0.7462 0.47434 0.0
C879 C 0.03727 0.76753 0.49111 0.0
C880 C 0.05941 0.75252 0.44834 0.0
C881 C 0.06012 0.78019 0.43868 0.0
C882 C 0.0483 0.80121 0.45499 0.0
C883 C 0.0372 0.795 0.48096 0.0
H884 H 0.63173 0.03463 0.34482 0.0
H885 H 0.67188 0.07828 0.41168 0.0
H886 H 0.67497 0.03814 0.3174 0.0
H887 H 0.71345 0.08273 0.38446 0.0
H888 H 0.79216 0.04078 0.34884 0.0
H889 H 0.74796 0.04792 0.37228 0.0
H890 H 0.70942 0.07101 0.29414 0.0
H891 H 0.7538 0.06371 0.2705 0.0
C892 C 0.64946 0.0452 0.35348 0.0
C893 C 0.6485 0.05555 0.38065 0.0
C894 C 0.67407 0.04745 0.3378 0.0
C895 C 0.69772 0.06037 0.34906 0.0
C896 C 0.6959 0.07211 0.37545 0.0
C897 C 0.67185 0.06953 0.39104 0.0
C898 C 0.77454 0.04833 0.3368 0.0
C899 C 0.77653 0.0516 0.30786 0.0
C900 C 0.74911 0.05227 0.35017 0.0
C901 C 0.72509 0.05956 0.3349 0.0
C902 C 0.72749 0.06491 0.30629 0.0
C903 C 0.75306 0.06123 0.29291 0.0
H904 H 0.23465 0.1305 0.87899 0.0
H905 H 0.31801 0.09767 0.88779 0.0
H906 H 0.2159 0.08598 0.89561 0.0
H907 H 0.29964 0.05382 0.90481 0.0
H908 H 0.20537 0.0053 0.95519 0.0
H909 H 0.21375 0.05157 0.9358 0.0
H910 H 0.27503 0.01677 0.88012 0.0
H911 H 0.26724 0.97077 0.90004 0.0
C912 C 0.24892 0.11416 0.88554 0.0
C913 C 0.27775 0.1174 0.88224 0.0
C914 C 0.23822 0.08861 0.89468 0.0
C915 C 0.25629 0.06611 0.90054 0.0
C916 C 0.28514 0.0704 0.89948 0.0
C917 C 0.29572 0.09567 0.89029 0.0
C918 C 0.21967 0.00734 0.93789 0.0
C919 C 0.23595 0.9845 0.92932 0.0
C920 C 0.22466 0.03393 0.927 0.0
C921 C 0.2458 0.0379 0.90724 0.0
C922 C 0.25928 0.01445 0.89606 0.0
C923 C 0.25451 0.98802 0.9071 0.0
H924 H 0.34762 0.48321 0.3898 0.0
H925 H 0.3791 0.41569 0.34029 0.0
H926 H 0.30388 0.48256 0.3644 0.0
H927 H 0.3347 0.4145 0.3148 0.0
H928 H 0.25696 0.44809 0.26114 0.0
H929 H 0.30239 0.44086 0.28289 0.0
H930 H 0.26488 0.45062 0.36384 0.0
H931 H 0.2197 0.45852 0.34213 0.0
C932 C 0.34531 0.46864 0.37292 0.0
C933 C 0.36675 0.44977 0.36669 0.0
C934 C 0.32008 0.46788 0.35871 0.0
C935 C 0.31546 0.44793 0.33809 0.0
C936 C 0.33755 0.43001 0.33067 0.0
C937 C 0.36303 0.43086 0.34499 0.0
C938 C 0.2582 0.44762 0.28363 0.0
C939 C 0.23473 0.45427 0.29991 0.0
C940 C 0.28435 0.44368 0.29608 0.0
C941 C 0.28742 0.44613 0.32502 0.0
C942 C 0.26338 0.44955 0.34139 0.0
C943 C 0.23738 0.45368 0.32899 0.0
H944 H 0.66817 0.40839 0.8497 0.0
H945 H 0.7449 0.36655 0.87177 0.0
H946 H 0.68021 0.44702 0.87944 0.0
H947 H 0.75837 0.40607 0.89977 0.0
H948 H 0.76381 0.46991 0.9684 0.0
H949 H 0.75185 0.4302 0.93996 0.0
H950 H 0.70744 0.48518 0.88312 0.0
H951 H 0.71758 0.52421 0.91305 0.0
C952 C 0.68779 0.40772 0.8608 0.0
C953 C 0.70558 0.38465 0.85868 0.0
C954 C 0.69492 0.42997 0.87762 0.0
C955 C 0.72049 0.43002 0.89195 0.0
C956 C 0.7383 0.40672 0.88961 0.0
C957 C 0.73071 0.38409 0.87345 0.0
C958 C 0.7516 0.47332 0.94971 0.0
C959 C 0.74148 0.4999 0.94283 0.0
C960 C 0.74482 0.45062 0.93327 0.0
C961 C 0.72844 0.45424 0.90917 0.0
C962 C 0.71932 0.48126 0.90189 0.0
C963 C 0.72538 0.50374 0.91881 0.0
H964 H 0.63552 0.91043 0.15469 0.0
H965 H 0.60283 0.99339 0.16579 0.0
H966 H 0.67122 0.91883 0.18939 0.0
H967 H 0.63888 0.00205 0.20068 0.0
H968 H 0.73637 0.015 0.20062 0.0
H969 H 0.68925 0.00603 0.18548 0.0
H970 H 0.68705 0.93248 0.23761 0.0
H971 H 0.73464 0.94146 0.25301 0.0
C972 C 0.63543 0.93011 0.16548 0.0
C973 C 0.61692 0.95144 0.15759 0.0
C974 C 0.65571 0.93487 0.18543 0.0
C975 C 0.65798 0.96121 0.19736 0.0
C976 C 0.63758 0.98163 0.19154 0.0
C977 C 0.61696 0.97669 0.17178 0.0
C978 C 0.72588 0.99694 0.20899 0.0
C979 C 0.7394 0.97861 0.22758 0.0
C980 C 0.69867 0.99213 0.20072 0.0
C981 C 0.68444 0.96875 0.21065 0.0
C982 C 0.69759 0.95075 0.22982 0.0
C983 C 0.72482 0.95578 0.23841 0.0
H984 H 0.24303 0.14176 0.11485 0.0
H985 H 0.16824 0.1014 0.14274 0.0
H986 H 0.25581 0.10104 0.08819 0.0
H987 H 0.1796 0.06127 0.11424 0.0
H988 H 0.21772 0.98206 0.08351 0.0
H989 H 0.20727 0.02283 0.11119 0.0
H990 H 0.24912 0.07431 0.05014 0.0
H991 H 0.26141 0.03292 0.02392 0.0
C992 C 0.22895 0.12432 0.11463 0.0
C993 C 0.2046 0.12465 0.13072 0.0
C994 C 0.2362 0.10092 0.09922 0.0
C995 C 0.21889 0.07751 0.09893 0.0
C996 C 0.19397 0.07841 0.11443 0.0
C997 C 0.18716 0.10154 0.13051 0.0
C998 C 0.22501 0.00213 0.07638 0.0
C999 C 0.24051 0.00445 0.05179 0.0
C1000 C 0.21868 0.02564 0.092 0.0
C1001 C 0.22692 0.05223 0.08289 0.0
C1002 C 0.24276 0.05433 0.05826 0.0
C1003 C 0.2498 0.03062 0.0431 0.0
H1004 H 0.36012 0.60272 0.12951 0.0
H1005 H 0.39582 0.52842 0.16643 0.0
H1006 H 0.32124 0.60047 0.16181 0.0
H1007 H 0.35647 0.52618 0.19913 0.0
H1008 H 0.28111 0.54237 0.26037 0.0
H1009 H 0.32598 0.55356 0.2384 0.0
H1010 H 0.28499 0.56082 0.15874 0.0
H1011 H 0.24077 0.54916 0.18037 0.0
C1012 C 0.35994 0.58624 0.14502 0.0
C1013 C 0.38065 0.56542 0.14517 0.0
C1014 C 0.33772 0.58501 0.16352 0.0
C1015 C 0.33568 0.56294 0.18262 0.0
C1016 C 0.35766 0.54346 0.18459 0.0
C1017 C 0.38011 0.54471 0.16594 0.0
C1018 C 0.28176 0.54696 0.23828 0.0
C1019 C 0.25755 0.54511 0.22201 0.0
C1020 C 0.30737 0.55307 0.22574 0.0
C1021 C 0.30886 0.55811 0.19694 0.0
C1022 C 0.28439 0.55731 0.18103 0.0
C1023 C 0.25909 0.55062 0.19337 0.0
H1024 H 0.77132 0.36905 0.08475 0.0
H1025 H 0.76629 0.4047 0.16672 0.0
H1026 H 0.75485 0.41365 0.06463 0.0
H1027 H 0.75006 0.44838 0.14693 0.0
H1028 H 0.77494 0.5272 0.09492 0.0
H1029 H 0.77827 0.48191 0.1179 0.0
H1030 H 0.71392 0.45076 0.06431 0.0
H1031 H 0.71026 0.49642 0.04153 0.0
C1032 C 0.76626 0.38614 0.0984 0.0
C1033 C 0.77084 0.38368 0.12714 0.0
C1034 C 0.75676 0.41155 0.087 0.0
C1035 C 0.75164 0.43455 0.1043 0.0
C1036 C 0.75435 0.43122 0.1331 0.0
C1037 C 0.76378 0.40617 0.14435 0.0
C1038 C 0.76077 0.51101 0.0888 0.0
C1039 C 0.74218 0.51541 0.06669 0.0
C1040 C 0.76278 0.48502 0.10177 0.0
C1041 C 0.74656 0.46275 0.0926 0.0
C1042 C 0.72682 0.46752 0.07155 0.0
C1043 C 0.72441 0.49377 0.05891 0.0
H1044 H 0.40039 0.66116 0.01906 0.0
H1045 H 0.34698 0.62818 0.08308 0.0
H1046 H 0.37493 0.70497 0.01975 0.0
H1047 H 0.32174 0.67281 0.08478 0.0
H1048 H 0.26805 0.74967 0.05401 0.0
H1049 H 0.29129 0.70504 0.06111 0.0
H1050 H 0.37083 0.7442 0.04854 0.0
H1051 H 0.3474 0.78859 0.04008 0.0
C1052 C 0.38283 0.66329 0.03305 0.0
C1053 C 0.37544 0.64131 0.05083 0.0
C1054 C 0.36855 0.68859 0.03388 0.0
C1055 C 0.34676 0.69287 0.05295 0.0
C1056 C 0.33847 0.67034 0.06991 0.0
C1057 C 0.35269 0.64471 0.06881 0.0
C1058 C 0.29057 0.74899 0.05373 0.0
C1059 C 0.30588 0.77267 0.04611 0.0
C1060 C 0.30392 0.72324 0.05765 0.0
C1061 C 0.33289 0.72074 0.05443 0.0
C1062 C 0.34837 0.74511 0.05008 0.0
C1063 C 0.33501 0.77071 0.04571 0.0
H1064 H 0.34363 0.38091 0.48518 0.0
H1065 H 0.38692 0.35347 0.41167 0.0
H1066 H 0.31522 0.33848 0.48398 0.0
H1067 H 0.35917 0.3117 0.41057 0.0
H1068 H 0.34274 0.22585 0.4563 0.0
H1069 H 0.3623 0.27177 0.44755 0.0
H1070 H 0.28025 0.3086 0.45186 0.0
H1071 H 0.26049 0.26259 0.45987 0.0
C1072 C 0.34647 0.36634 0.46838 0.0
C1073 C 0.36767 0.37025 0.44872 0.0
C1074 C 0.33035 0.34209 0.46769 0.0
C1075 C 0.33541 0.32166 0.44739 0.0
C1076 C 0.35512 0.32684 0.42664 0.0
C1077 C 0.37093 0.35082 0.42727 0.0
C1078 C 0.32878 0.24358 0.45438 0.0
C1079 C 0.30009 0.24049 0.45848 0.0
C1080 C 0.33996 0.2699 0.4496 0.0
C1081 C 0.32275 0.29374 0.44939 0.0
C1082 C 0.29394 0.29058 0.45217 0.0
C1083 C 0.28266 0.26416 0.4563 0.0
H1084 H 0.6006 0.38811 0.81167 0.0
H1085 H 0.62305 0.3729 0.72633 0.0
H1086 H 0.55572 0.40677 0.79677 0.0
H1087 H 0.57753 0.39123 0.71112 0.0
H1088 H 0.49815 0.45186 0.70216 0.0
H1089 H 0.54473 0.43225 0.70888 0.0
H1090 H 0.51468 0.3835 0.77825 0.0
H1091 H 0.46836 0.40348 0.77196 0.0
C1092 C 0.5962 0.3897 0.7896 0.0
C1093 C 0.61535 0.37949 0.77013 0.0
C1094 C 0.57028 0.39981 0.78105 0.0
C1095 C 0.56268 0.39963 0.75281 0.0
C1096 C 0.58269 0.39145 0.73304 0.0
C1097 C 0.60887 0.38136 0.74167 0.0
C1098 C 0.50119 0.4361 0.71814 0.0
C1099 C 0.47957 0.4295 0.73679 0.0
C1100 C 0.52803 0.42507 0.72214 0.0
C1101 C 0.53362 0.40713 0.74473 0.0
C1102 C 0.51125 0.39806 0.76125 0.0
C1103 C 0.48456 0.40916 0.75737 0.0
H1104 H 0.66575 0.11623 0.49767 0.0
H1105 H 0.64847 0.13002 0.41051 0.0
H1106 H 0.70243 0.15143 0.49531 0.0
H1107 H 0.68518 0.16436 0.40798 0.0
H1108 H 0.69414 0.25597 0.44235 0.0
H1109 H 0.67491 0.21005 0.43485 0.0
H1110 H 0.74871 0.17212 0.4705 0.0
H1111 H 0.76839 0.2186 0.47731 0.0
C1112 C 0.67069 0.12588 0.47785 0.0
C1113 C 0.65421 0.12103 0.45441 0.0
C1114 C 0.69165 0.14584 0.47642 0.0
C1115 C 0.69618 0.16075 0.45152 0.0
C1116 C 0.68183 0.15331 0.42742 0.0
C1117 C 0.66083 0.1338 0.42893 0.0
C1118 C 0.70658 0.23778 0.44768 0.0
C1119 C 0.7327 0.24052 0.46005 0.0
C1120 C 0.69569 0.21155 0.4434 0.0
C1121 C 0.71048 0.18764 0.45202 0.0
C1122 C 0.7371 0.19031 0.46357 0.0
C1123 C 0.74835 0.21672 0.46724 0.0
H1124 H 0.86847 0.61161 0.26209 0.0
H1125 H 0.90988 0.62576 0.34009 0.0
H1126 H 0.91165 0.59302 0.24265 0.0
H1127 H 0.95254 0.60564 0.32162 0.0
H1128 H 0.03302 0.59238 0.28034 0.0
H1129 H 0.98931 0.61501 0.29289 0.0
H1130 H 0.94501 0.55831 0.24 0.0
H1131 H 0.98904 0.53725 0.22614 0.0
C1132 C 0.88661 0.60979 0.27538 0.0
C1133 C 0.88577 0.61988 0.3027 0.0
C1134 C 0.91152 0.59928 0.2642 0.0
C1135 C 0.9361 0.59821 0.28023 0.0
C1136 C 0.93457 0.60696 0.30811 0.0
C1137 C 0.90991 0.61799 0.31901 0.0
C1138 C 0.01399 0.58565 0.27052 0.0
C1139 C 0.0145 0.56332 0.25199 0.0
C1140 C 0.98874 0.59812 0.27822 0.0
C1141 C 0.9632 0.58798 0.26832 0.0
C1142 C 0.964 0.56691 0.24815 0.0
C1143 C 0.98938 0.55491 0.23993 0.0
H1144 H 0.13926 0.35925 0.61405 0.0
H1145 H 0.1732 0.39336 0.5381 0.0
H1146 H 0.17371 0.32178 0.61319 0.0
H1147 H 0.20777 0.35546 0.53708 0.0
H1148 H 0.26796 0.28016 0.54814 0.0
H1149 H 0.24788 0.32486 0.56295 0.0
H1150 H 0.16805 0.28581 0.57334 0.0
H1151 H 0.18778 0.24176 0.55804 0.0
C1152 C 0.1548 0.3592 0.59771 0.0
C1153 C 0.15344 0.37869 0.57584 0.0
C1154 C 0.17447 0.33784 0.59726 0.0
C1155 C 0.19294 0.33558 0.57484 0.0
C1156 C 0.19373 0.35691 0.55464 0.0
C1157 C 0.174 0.37851 0.55516 0.0
C1158 C 0.24629 0.28116 0.55426 0.0
C1159 C 0.22929 0.25771 0.55206 0.0
C1160 C 0.23487 0.30663 0.56255 0.0
C1161 C 0.20657 0.3086 0.56944 0.0
C1162 C 0.19005 0.28473 0.56853 0.0
C1163 C 0.20124 0.25959 0.55966 0.0
H1164 H 0.62179 0.63743 0.7697 0.0
H1165 H 0.62829 0.61314 0.68388 0.0
H1166 H 0.58286 0.60561 0.77629 0.0
H1167 H 0.59005 0.58065 0.69038 0.0
H1168 H 0.49734 0.56395 0.70063 0.0
H1169 H 0.54076 0.5889 0.6964 0.0
H1170 H 0.56655 0.55775 0.77709 0.0
H1171 H 0.52267 0.53321 0.7817 0.0
C1172 C 0.61534 0.62451 0.75259 0.0
C1173 C 0.6277 0.62733 0.72639 0.0
C1174 C 0.59317 0.60635 0.75628 0.0
C1175 C 0.5832 0.59093 0.73373 0.0
C1176 C 0.59694 0.59267 0.70797 0.0
C1177 C 0.61892 0.61094 0.70428 0.0
C1178 C 0.51225 0.56235 0.71747 0.0
C1179 C 0.50651 0.54666 0.74152 0.0
C1180 C 0.53726 0.57645 0.71494 0.0
C1181 C 0.55718 0.57503 0.73631 0.0
C1182 C 0.5515 0.55934 0.76037 0.0
C1183 C 0.52637 0.5453 0.76298 0.0
H1184 H 0.36235 0.87784 0.74501 0.0
H1185 H 0.39961 0.86453 0.66455 0.0
H1186 H 0.403 0.90358 0.75956 0.0
H1187 H 0.43934 0.89221 0.67798 0.0
H1188 H 0.51988 0.91633 0.71619 0.0
H1189 H 0.47885 0.88988 0.70433 0.0
H1190 H 0.42883 0.94333 0.75677 0.0
H1191 H 0.47059 0.96818 0.77019 0.0
C1192 C 0.37904 0.88105 0.73023 0.0
C1193 C 0.37807 0.86913 0.70375 0.0
C1194 C 0.40234 0.89593 0.73849 0.0
C1195 C 0.42481 0.89982 0.72013 0.0
C1196 C 0.423 0.88893 0.6931 0.0
C1197 C 0.40008 0.87337 0.68518 0.0
C1198 C 0.5001 0.92203 0.72542 0.0
C1199 C 0.49823 0.94407 0.74412 0.0
C1200 C 0.47646 0.90717 0.71837 0.0
C1201 C 0.45023 0.91467 0.72913 0.0
C1202 C 0.4486 0.9366 0.74829 0.0
C1203 C 0.47247 0.95093 0.75598 0.0
H1204 H 0.51528 0.88316 0.16199 0.0
H1205 H 0.59035 0.84303 0.13328 0.0
H1206 H 0.52079 0.86089 0.20731 0.0
H1207 H 0.59652 0.82098 0.17924 0.0
H1208 H 0.57219 0.76771 0.2601 0.0
H1209 H 0.57707 0.78794 0.21384 0.0
H1210 H 0.55286 0.86811 0.24584 0.0
H1211 H 0.54702 0.84771 0.292 0.0
C1212 C 0.53256 0.86884 0.16525 0.0
C1213 C 0.5522 0.86448 0.14418 0.0
C1214 C 0.53612 0.85659 0.19136 0.0
C1215 C 0.55966 0.83998 0.19719 0.0
C1216 C 0.57832 0.83391 0.17546 0.0
C1217 C 0.57461 0.84615 0.14908 0.0
C1218 C 0.56906 0.78991 0.25762 0.0
C1219 C 0.55845 0.80599 0.27963 0.0
C1220 C 0.57166 0.80145 0.23093 0.0
C1221 C 0.56414 0.82931 0.22598 0.0
C1222 C 0.55771 0.84626 0.24884 0.0
C1223 C 0.55482 0.8347 0.27541 0.0
H1224 H 0.12207 0.26487 0.13703 0.0
H1225 H 0.11316 0.17657 0.12657 0.0
H1226 H 0.09202 0.27343 0.09667 0.0
H1227 H 0.08194 0.18479 0.08738 0.0
H1228 H 0.06735 0.20546 0.99712 0.0
H1229 H 0.09095 0.19916 0.04131 0.0
H1230 H 0.04786 0.27118 0.07374 0.0
H1231 H 0.02496 0.27813 0.02881 0.0
C1232 C 0.11269 0.2474 0.1267 0.0
C1233 C 0.11973 0.22012 0.13459 0.0
C1234 C 0.09557 0.25222 0.10359 0.0
C1235 C 0.0851 0.22976 0.08839 0.0
C1236 C 0.09037 0.20253 0.09805 0.0
C1237 C 0.10787 0.19777 0.12068 0.0
C1238 C 0.06295 0.22 0.01364 0.0
C1239 C 0.04429 0.24224 0.00953 0.0
C1240 C 0.07626 0.21624 0.03912 0.0
C1241 C 0.07089 0.23435 0.06131 0.0
C1242 C 0.05252 0.25691 0.05707 0.0
C1243 C 0.03944 0.2609 0.03135 0.0
H1244 H 0.50043 0.65871 0.10399 0.0
H1245 H 0.42411 0.63529 0.14484 0.0
H1246 H 0.50713 0.69531 0.1386 0.0
H1247 H 0.43047 0.67176 0.17886 0.0
H1248 H 0.44415 0.74494 0.23324 0.0
H1249 H 0.43582 0.72411 0.18767 0.0
H1250 H 0.51726 0.68552 0.19059 0.0
H1251 H 0.52547 0.70592 0.23587 0.0
C1252 C 0.4848 0.66194 0.11989 0.0
C1253 C 0.46207 0.64407 0.12224 0.0
C1254 C 0.48858 0.68276 0.13959 0.0
C1255 C 0.46931 0.68623 0.16135 0.0
C1256 C 0.44547 0.66973 0.16217 0.0
C1257 C 0.44201 0.64868 0.14292 0.0
C1258 C 0.46036 0.73235 0.22388 0.0
C1259 C 0.48518 0.72652 0.23826 0.0
C1260 C 0.45565 0.72057 0.19785 0.0
C1261 C 0.47596 0.70334 0.18568 0.0
C1262 C 0.50142 0.69902 0.19934 0.0
C1263 C 0.50592 0.71034 0.22545 0.0
H1264 H 0.86943 0.24246 0.12481 0.0
H1265 H 0.85194 0.32105 0.08438 0.0
H1266 H 0.8901 0.22502 0.08182 0.0
H1267 H 0.87396 0.30464 0.04211 0.0
H1268 H 0.89477 0.26808 0.96172 0.0
H1269 H 0.86856 0.27709 0.00409 0.0
H1270 H 0.92659 0.22543 0.05061 0.0
H1271 H 0.95133 0.21499 0.00779 0.0
C1272 C 0.87071 0.25624 0.1069 0.0
C1273 C 0.85922 0.28316 0.10795 0.0
C1274 C 0.88247 0.24624 0.08214 0.0
C1275 C 0.88342 0.26312 0.05798 0.0
C1276 C 0.87285 0.29048 0.05968 0.0
C1277 C 0.86061 0.30018 0.08415 0.0
C1278 C 0.90114 0.25776 0.98085 0.0
C1279 C 0.92495 0.24067 0.98136 0.0
C1280 C 0.88652 0.26341 0.00538 0.0
C1281 C 0.89589 0.25286 0.03127 0.0
C1282 C 0.91851 0.234 0.03131 0.0
C1283 C 0.93269 0.22779 0.00661 0.0
H1284 H 0.60752 0.11814 0.3472 0.0
H1285 H 0.54227 0.16823 0.38362 0.0
H1286 H 0.60332 0.14423 0.30384 0.0
H1287 H 0.53839 0.1949 0.3398 0.0
H1288 H 0.55134 0.24598 0.25872 0.0
H1289 H 0.5656 0.22641 0.3037 0.0
H1290 H 0.56217 0.14396 0.26963 0.0
H1291 H 0.54729 0.16337 0.22483 0.0
C1292 C 0.5926 0.13515 0.34614 0.0
C1293 C 0.5749 0.14084 0.36878 0.0
C1294 C 0.59021 0.15003 0.32121 0.0
C1295 C 0.57027 0.17128 0.31825 0.0
C1296 C 0.554 0.17859 0.34153 0.0
C1297 C 0.55625 0.16342 0.36664 0.0
C1298 C 0.55447 0.22371 0.26052 0.0
C1299 C 0.54833 0.20622 0.23803 0.0
C1300 C 0.56225 0.21254 0.28645 0.0
C1301 C 0.56475 0.18368 0.29027 0.0
C1302 C 0.5605 0.16632 0.2673 0.0
C1303 C 0.55213 0.17743 0.24156 0.0
H1304 H 0.32815 0.19811 0.92351 0.0
H1305 H 0.39797 0.22795 0.87557 0.0
H1306 H 0.34869 0.21534 0.96548 0.0
H1307 H 0.4195 0.24446 0.91871 0.0
H1308 H 0.44199 0.28867 0.99991 0.0
H1309 H 0.41696 0.27799 0.95691 0.0
H1310 H 0.38488 0.20369 0.99593 0.0
H1311 H 0.40906 0.2148 0.03858 0.0
C1312 C 0.34816 0.20812 0.92182 0.0
C1313 C 0.36143 0.21134 0.89584 0.0
C1314 C 0.36005 0.21799 0.9462 0.0
C1315 C 0.38594 0.23116 0.94579 0.0
C1316 C 0.39937 0.23465 0.91986 0.0
C1317 C 0.38722 0.22488 0.89513 0.0
C1318 C 0.42861 0.27072 0.99957 0.0
C1319 C 0.42723 0.25277 0.02282 0.0
C1320 C 0.41477 0.26423 0.97471 0.0
C1321 C 0.39908 0.23976 0.97264 0.0
C1322 C 0.39644 0.22285 0.99657 0.0
C1323 C 0.41025 0.22927 0.02122 0.0
H1324 H 0.40304 0.3716 0.3637 0.0
H1325 H 0.48258 0.33847 0.39024 0.0
H1326 H 0.39948 0.33545 0.32903 0.0
H1327 H 0.47958 0.30256 0.35439 0.0
H1328 H 0.46395 0.2391 0.28643 0.0
H1329 H 0.45454 0.26178 0.33118 0.0
H1330 H 0.42882 0.33633 0.28693 0.0
H1331 H 0.43841 0.3139 0.24292 0.0
C1332 C 0.41958 0.35619 0.36234 0.0
C1333 C 0.44337 0.35802 0.3791 0.0
C1334 C 0.41748 0.33549 0.34258 0.0
C1335 C 0.43949 0.31661 0.33865 0.0
C1336 C 0.46226 0.31685 0.35708 0.0
C1337 C 0.46411 0.33743 0.37741 0.0
C1338 C 0.45534 0.25998 0.28652 0.0
C1339 C 0.45164 0.27486 0.26149 0.0
C1340 C 0.45025 0.27299 0.31198 0.0
C1341 C 0.44092 0.30075 0.3125 0.0
C1342 C 0.43557 0.31478 0.28725 0.0
C1343 C 0.44108 0.30203 0.26203 0.0
H1344 H 0.58861 0.27399 0.8532 0.0
H1345 H 0.63416 0.33729 0.89649 0.0
H1346 H 0.56111 0.26532 0.89518 0.0
H1347 H 0.60735 0.32825 0.93829 0.0
H1348 H 0.54178 0.31875 0.00405 0.0
H1349 H 0.56156 0.33093 0.95917 0.0
H1350 H 0.57301 0.24388 0.94079 0.0
H1351 H 0.55253 0.23149 0.98553 0.0
C1352 C 0.59233 0.2864 0.87147 0.0
C1353 C 0.61365 0.30609 0.87177 0.0
C1354 C 0.57686 0.28124 0.89552 0.0
C1355 C 0.58238 0.29588 0.92003 0.0
C1356 C 0.60252 0.31675 0.91968 0.0
C1357 C 0.61797 0.32182 0.89579 0.0
C1358 C 0.54859 0.30214 0.99054 0.0
C1359 C 0.54575 0.27412 0.99847 0.0
C1360 C 0.55985 0.30917 0.96479 0.0
C1361 C 0.56867 0.28836 0.94647 0.0
C1362 C 0.5659 0.26034 0.95433 0.0
C1363 C 0.55453 0.25327 0.9801 0.0
H1364 H 0.16492 0.51082 0.89111 0.0
H1365 H 0.12743 0.57691 0.84247 0.0
H1366 H 0.2086 0.51693 0.86642 0.0
H1367 H 0.17172 0.58412 0.81826 0.0
H1368 H 0.25198 0.56402 0.76521 0.0
H1369 H 0.20649 0.56575 0.78702 0.0
H1370 H 0.2446 0.55083 0.86723 0.0
H1371 H 0.29011 0.54778 0.84519 0.0
C1372 C 0.16594 0.52619 0.87452 0.0
C1373 C 0.14288 0.5432 0.86841 0.0
C1374 C 0.19111 0.53021 0.86083 0.0
C1375 C 0.19399 0.55173 0.84107 0.0
C1376 C 0.17029 0.56751 0.83353 0.0
C1377 C 0.14485 0.5632 0.84709 0.0
C1378 C 0.25087 0.56217 0.78765 0.0
C1379 C 0.27467 0.55509 0.80342 0.0
C1380 C 0.22462 0.56297 0.80015 0.0
C1381 C 0.22178 0.55723 0.82868 0.0
C1382 C 0.24599 0.55413 0.84496 0.0
C1383 C 0.27217 0.55292 0.83244 0.0
H1384 H 0.74162 0.63092 0.38425 0.0
H1385 H 0.82502 0.59846 0.39389 0.0
H1386 H 0.72287 0.58618 0.39994 0.0
H1387 H 0.80664 0.55436 0.41032 0.0
H1388 H 0.77451 0.47095 0.40526 0.0
H1389 H 0.78365 0.51706 0.38627 0.0
H1390 H 0.7187 0.5515 0.43799 0.0
H1391 H 0.70891 0.50509 0.45619 0.0
C1392 C 0.75589 0.6146 0.39091 0.0
C1393 C 0.78473 0.61804 0.38809 0.0
C1394 C 0.74519 0.5889 0.39952 0.0
C1395 C 0.76327 0.56642 0.40542 0.0
C1396 C 0.79212 0.5709 0.40492 0.0
C1397 C 0.80271 0.59633 0.39613 0.0
C1398 C 0.76134 0.48818 0.41157 0.0
C1399 C 0.74117 0.48448 0.43231 0.0
C1400 C 0.7669 0.51469 0.40115 0.0
C1401 C 0.75269 0.53808 0.41156 0.0
C1402 C 0.73023 0.53396 0.42978 0.0
C1403 C 0.72441 0.50728 0.43998 0.0
H1404 H 0.84828 0.89951 0.88675 0.0
H1405 H 0.87943 0.96911 0.83913 0.0
H1406 H 0.80542 0.90068 0.85997 0.0
H1407 H 0.83616 0.96983 0.81166 0.0
H1408 H 0.75755 0.94999 0.75914 0.0
H1409 H 0.8032 0.93842 0.77886 0.0
H1410 H 0.76815 0.94114 0.86139 0.0
H1411 H 0.7227 0.95354 0.84181 0.0
C1412 C 0.84621 0.91474 0.8701 0.0
C1413 C 0.86708 0.93457 0.86536 0.0
C1414 C 0.82161 0.91535 0.85481 0.0
C1415 C 0.81732 0.93554 0.83406 0.0
C1416 C 0.83903 0.95399 0.82759 0.0
C1417 C 0.86379 0.95356 0.8432 0.0
C1418 C 0.75934 0.94714 0.78145 0.0
C1419 C 0.7364 0.95239 0.79896 0.0
C1420 C 0.78559 0.94096 0.79269 0.0
C1421 C 0.78923 0.93914 0.8216 0.0
C1422 C 0.7659 0.94234 0.83899 0.0
C1423 C 0.73983 0.94922 0.82782 0.0
H1424 H 0.22215 0.86271 0.38881 0.0
H1425 H 0.17908 0.91586 0.32956 0.0
H1426 H 0.23531 0.90347 0.41539 0.0
H1427 H 0.19248 0.95648 0.356 0.0
H1428 H 0.19535 0.0177 0.42884 0.0
H1429 H 0.18251 0.97745 0.40173 0.0
H1430 H 0.26617 0.9448 0.40942 0.0
H1431 H 0.27912 0.98508 0.43692 0.0
C1432 C 0.21535 0.88304 0.38154 0.0
C1433 C 0.19957 0.88604 0.35706 0.0
C1434 C 0.22313 0.90638 0.39662 0.0
C1435 C 0.21507 0.93314 0.38765 0.0
C1436 C 0.19886 0.9361 0.36349 0.0
C1437 C 0.19125 0.91282 0.34832 0.0
C1438 C 0.21112 0.00206 0.42466 0.0
C1439 C 0.23828 0.0046 0.43511 0.0
C1440 C 0.20374 0.97904 0.40902 0.0
C1441 C 0.2233 0.95794 0.40358 0.0
C1442 C 0.25059 0.96062 0.4136 0.0
C1443 C 0.25805 0.9838 0.42912 0.0
H1444 H 0.09859 0.49068 0.66798 0.0
H1445 H 0.14036 0.41339 0.64892 0.0
H1446 H 0.13306 0.49929 0.70458 0.0
H1447 H 0.17398 0.42143 0.68559 0.0
H1448 H 0.23131 0.51833 0.70519 0.0
H1449 H 0.18429 0.50857 0.68992 0.0
H1450 H 0.18564 0.4317 0.73703 0.0
H1451 H 0.233 0.44163 0.75273 0.0
C1452 C 0.11441 0.47508 0.67247 0.0
C1453 C 0.11731 0.45163 0.65567 0.0
C1454 C 0.13401 0.47994 0.6933 0.0
C1455 C 0.15613 0.46104 0.6977 0.0
C1456 C 0.15699 0.43617 0.68282 0.0
C1457 C 0.13793 0.43168 0.66171 0.0
C1458 C 0.22151 0.49946 0.71252 0.0
C1459 C 0.23597 0.48035 0.72953 0.0
C1460 C 0.1944 0.49417 0.70425 0.0
C1461 C 0.18137 0.46951 0.71252 0.0
C1462 C 0.19529 0.45096 0.7306 0.0
C1463 C 0.22236 0.4565 0.73931 0.0
H1464 H 0.72676 0.64465 0.60538 0.0
H1465 H 0.68691 0.59121 0.66583 0.0
H1466 H 0.7371 0.60422 0.57657 0.0
H1467 H 0.69755 0.55105 0.63733 0.0
H1468 H 0.6939 0.4908 0.56501 0.0
H1469 H 0.68373 0.53174 0.59247 0.0
H1470 H 0.76706 0.56131 0.57831 0.0
H1471 H 0.7773 0.5203 0.55035 0.0
C1472 C 0.72009 0.62435 0.61245 0.0
C1473 C 0.70603 0.62115 0.6379 0.0
C1474 C 0.72624 0.60119 0.59608 0.0
C1475 C 0.7182 0.57446 0.60473 0.0
C1476 C 0.7038 0.57139 0.62997 0.0
C1477 C 0.69783 0.59442 0.64637 0.0
C1478 C 0.71016 0.50593 0.56774 0.0
C1479 C 0.73647 0.50218 0.55548 0.0
C1480 C 0.70431 0.52938 0.5836 0.0
C1481 C 0.72458 0.54975 0.58756 0.0
C1482 C 0.75093 0.54608 0.57537 0.0
C1483 C 0.75686 0.52247 0.55957 0.0
H1484 H 0.89986 0.02587 0.66674 0.0
H1485 H 0.86291 0.10329 0.6386 0.0
H1486 H 0.86149 0.01977 0.69973 0.0
H1487 H 0.82483 0.09734 0.67165 0.0
H1488 H 0.7627 0.07905 0.74285 0.0
H1489 H 0.80877 0.09012 0.72356 0.0
H1490 H 0.81135 0.01053 0.68303 0.0
H1491 H 0.76579 0.99976 0.70156 0.0
C1492 C 0.88411 0.04203 0.66835 0.0
C1493 C 0.88405 0.06485 0.64997 0.0
C1494 C 0.86213 0.03851 0.68708 0.0
C1495 C 0.84011 0.05798 0.68799 0.0
C1496 C 0.84157 0.08211 0.67149 0.0
C1497 C 0.86325 0.08541 0.65249 0.0
C1498 C 0.77323 0.064 0.72986 0.0
C1499 C 0.76045 0.03876 0.72334 0.0
C1500 C 0.79955 0.07026 0.71897 0.0
C1501 C 0.8137 0.051 0.70213 0.0
C1502 C 0.80116 0.02555 0.69634 0.0
C1503 C 0.77483 0.01959 0.70663 0.0
H1504 H 0.26705 0.86772 0.58982 0.0
H1505 H 0.28917 0.91248 0.66406 0.0
H1506 H 0.2539 0.91223 0.5673 0.0
H1507 H 0.27573 0.95566 0.64217 0.0
H1508 H 0.29191 0.02679 0.58037 0.0
H1509 H 0.29724 0.98279 0.60511 0.0
H1510 H 0.22022 0.95419 0.56977 0.0
H1511 H 0.21496 0.99859 0.54467 0.0
C1512 C 0.26896 0.88682 0.60134 0.0
C1513 C 0.27978 0.88643 0.6285 0.0
C1514 C 0.26124 0.91223 0.58859 0.0
C1515 C 0.26414 0.93748 0.60292 0.0
C1516 C 0.2738 0.93673 0.63036 0.0
C1517 C 0.28158 0.91174 0.64287 0.0
C1518 C 0.27569 0.01145 0.57851 0.0
C1519 C 0.25292 0.01624 0.56082 0.0
C1520 C 0.27879 0.98615 0.59256 0.0
C1521 C 0.25926 0.96488 0.58917 0.0
C1522 C 0.23575 0.97007 0.57249 0.0
C1523 C 0.23248 0.99566 0.55859 0.0
H1524 H 0.90544 0.16452 0.52545 0.0
H1525 H 0.84637 0.12575 0.58064 0.0
H1526 H 0.87905 0.20762 0.5268 0.0
H1527 H 0.82001 0.16968 0.58299 0.0
H1528 H 0.76698 0.24612 0.55037 0.0
H1529 H 0.79126 0.20217 0.55802 0.0
H1530 H 0.86981 0.24497 0.55658 0.0
H1531 H 0.84548 0.28876 0.5474 0.0
C1532 C 0.88661 0.16526 0.53781 0.0
C1533 C 0.87788 0.14177 0.55282 0.0
C1534 C 0.87167 0.19016 0.539 0.0
C1535 C 0.84774 0.19254 0.55565 0.0
C1536 C 0.83837 0.16868 0.56998 0.0
C1537 C 0.85329 0.14345 0.5685 0.0
C1538 C 0.78939 0.24634 0.55263 0.0
C1539 C 0.80435 0.27094 0.54791 0.0
C1540 C 0.80336 0.22098 0.55691 0.0
C1541 C 0.83259 0.21976 0.55699 0.0
C1542 C 0.84732 0.24491 0.55554 0.0
C1543 C 0.83339 0.27016 0.55075 0.0
H1544 H 0.90862 0.83897 0.92436 0.0
H1545 H 0.84417 0.87563 0.97529 0.0
H1546 H 0.88305 0.7961 0.9222 0.0
H1547 H 0.81826 0.83177 0.9732 0.0
H1548 H 0.77225 0.7525 0.94937 0.0
H1549 H 0.79408 0.79729 0.94038 0.0
H1550 H 0.87438 0.76082 0.95922 0.0
H1551 H 0.85265 0.71619 0.96843 0.0
C1552 C 0.88889 0.83789 0.93519 0.0
C1553 C 0.87876 0.86052 0.95072 0.0
C1554 C 0.87423 0.81324 0.9338 0.0
C1555 C 0.84893 0.81039 0.94786 0.0
C1556 C 0.83779 0.83346 0.96211 0.0
C1557 C 0.8526 0.85847 0.96346 0.0
C1558 C 0.79469 0.75376 0.95061 0.0
C1559 C 0.81077 0.73073 0.95963 0.0
C1560 C 0.80708 0.77957 0.94592 0.0
C1561 C 0.83581 0.78266 0.94955 0.0
C1562 C 0.85214 0.75909 0.95624 0.0
C1563 C 0.83975 0.73344 0.96135 0.0
H1564 H 0.12799 0.90855 0.26612 0.0
H1565 H 0.09226 0.82886 0.24801 0.0
H1566 H 0.08499 0.93157 0.24934 0.0
H1567 H 0.04984 0.85153 0.23169 0.0
H1568 H 0.97059 0.90245 0.26169 0.0
H1569 H 0.01524 0.87785 0.2634 0.0
H1570 H 0.05 0.93759 0.20599 0.0
H1571 H 0.00499 0.96187 0.20369 0.0
C1572 C 0.11136 0.89608 0.25785 0.0
C1573 C 0.11321 0.86699 0.2588 0.0
C1574 C 0.08679 0.90916 0.24829 0.0
C1575 C 0.06397 0.8932 0.23963 0.0
C1576 C 0.06689 0.86428 0.23861 0.0
C1577 C 0.0912 0.85136 0.24798 0.0
C1578 C 0.98742 0.90965 0.24856 0.0
C1579 C 0.98418 0.93383 0.23231 0.0
C1580 C 0.01304 0.89574 0.24969 0.0
C1581 C 0.03614 0.90605 0.23504 0.0
C1582 C 0.03257 0.92936 0.2176 0.0
C1583 C 0.00669 0.94292 0.21596 0.0
H1584 H 0.16868 0.6029 0.98995 0.0
H1585 H 0.15305 0.63302 0.9065 0.0
H1586 H 0.20398 0.63878 0.99583 0.0
H1587 H 0.18807 0.66862 0.91223 0.0
H1588 H 0.25214 0.73325 0.93126 0.0
H1589 H 0.23681 0.6854 0.92362 0.0
H1590 H 0.18807 0.68897 0.99898 0.0
H1591 H 0.20294 0.73614 0.00647 0.0
C1592 C 0.17365 0.61644 0.97255 0.0
C1593 C 0.15798 0.6158 0.94803 0.0
C1594 C 0.19371 0.63695 0.97589 0.0
C1595 C 0.19834 0.65669 0.95462 0.0
C1596 C 0.185 0.65368 0.92892 0.0
C1597 C 0.16481 0.63348 0.92573 0.0
C1598 C 0.23827 0.72364 0.94618 0.0
C1599 C 0.22824 0.73861 0.9691 0.0
C1600 C 0.22974 0.69629 0.94195 0.0
C1601 C 0.21159 0.68342 0.96092 0.0
C1602 C 0.20252 0.69811 0.98432 0.0
C1603 C 0.21062 0.72539 0.98829 0.0
H1604 H 0.36872 0.11334 0.76066 0.0
H1605 H 0.405 0.12362 0.84182 0.0
H1606 H 0.41307 0.09579 0.74312 0.0
H1607 H 0.44881 0.10436 0.82516 0.0
H1608 H 0.5319 0.0926 0.78822 0.0
H1609 H 0.4875 0.11448 0.79964 0.0
H1610 H 0.44649 0.06159 0.74045 0.0
H1611 H 0.49124 0.04143 0.72783 0.0
C1612 C 0.38597 0.11086 0.77501 0.0
C1613 C 0.38334 0.11957 0.8027 0.0
C1614 C 0.41157 0.10092 0.76493 0.0
C1615 C 0.43509 0.099 0.78244 0.0
C1616 C 0.43175 0.10637 0.81058 0.0
C1617 C 0.4064 0.11689 0.82042 0.0
C1618 C 0.51349 0.08656 0.77689 0.0
C1619 C 0.51513 0.06555 0.75692 0.0
C1620 C 0.4878 0.09859 0.78388 0.0
C1621 C 0.46289 0.08928 0.77175 0.0
C1622 C 0.46494 0.06956 0.75033 0.0
C1623 C 0.49076 0.05806 0.74284 0.0
H1624 H 0.67318 0.89794 0.04325 0.0
H1625 H 0.63494 0.8476 0.10722 0.0
H1626 H 0.70929 0.86227 0.03731 0.0
H1627 H 0.671 0.81218 0.1014 0.0
H1628 H 0.74444 0.75412 0.0866 0.0
H1629 H 0.72401 0.79876 0.10112 0.0
H1630 H 0.69665 0.81448 0.01681 0.0
H1631 H 0.71635 0.7702 0.00257 0.0
C1632 C 0.67301 0.87969 0.05662 0.0
C1633 C 0.65102 0.87511 0.07524 0.0
C1634 C 0.69362 0.85936 0.05323 0.0
C1635 C 0.69268 0.83449 0.06875 0.0
C1636 C 0.67226 0.83124 0.08931 0.0
C1637 C 0.65148 0.85134 0.09241 0.0
C1638 C 0.73432 0.76738 0.07125 0.0
C1639 C 0.73144 0.75864 0.04364 0.0
C1640 C 0.7228 0.79283 0.07948 0.0
C1641 C 0.70904 0.81004 0.05999 0.0
C1642 C 0.70753 0.80181 0.03215 0.0
C1643 C 0.71843 0.77629 0.0241 0.0
H1644 H 0.14827 0.10643 0.23742 0.0
H1645 H 0.09071 0.1728 0.2154 0.0
H1646 H 0.10882 0.07582 0.24686 0.0
H1647 H 0.05195 0.14251 0.225 0.0
H1648 H 0.99487 0.07144 0.20434 0.0
H1649 H 0.0356 0.10033 0.1996 0.0
H1650 H 0.0656 0.07133 0.27951 0.0
H1651 H 0.02458 0.04188 0.28439 0.0
C1652 C 0.12732 0.11454 0.23485 0.0
C1653 C 0.12264 0.14192 0.22537 0.0
C1654 C 0.10484 0.09711 0.24038 0.0
C1655 C 0.07748 0.10683 0.23633 0.0
C1656 C 0.07288 0.13442 0.22783 0.0
C1657 C 0.09516 0.15176 0.2224 0.0
C1658 C 0.01006 0.0711 0.22097 0.0
C1659 C 0.00638 0.05446 0.24483 0.0
C1660 C 0.03334 0.08775 0.21826 0.0
C1661 C 0.05355 0.08813 0.23929 0.0
C1662 C 0.05028 0.07125 0.263 0.0
C1663 C 0.02675 0.05462 0.26584 0.0
H1664 H 0.86066 0.37896 0.24254 0.0
H1665 H 0.89705 0.36444 0.16193 0.0
H1666 H 0.90225 0.40325 0.25695 0.0
H1667 H 0.93788 0.39069 0.17523 0.0
H1668 H 0.01932 0.41358 0.21278 0.0
H1669 H 0.97762 0.38807 0.20098 0.0
H1670 H 0.92919 0.44194 0.25445 0.0
H1671 H 0.97151 0.46573 0.26778 0.0
C1672 C 0.87736 0.38172 0.22766 0.0
C1673 C 0.87578 0.36997 0.20114 0.0
C1674 C 0.90125 0.39571 0.23585 0.0
C1675 C 0.92379 0.39889 0.21742 0.0
C1676 C 0.92148 0.38801 0.1904 0.0
C1677 C 0.89793 0.3733 0.18254 0.0
C1678 C 0.99974 0.41953 0.22229 0.0
C1679 C 0.99851 0.44138 0.24128 0.0
C1680 C 0.9757 0.40522 0.21525 0.0
C1681 C 0.94969 0.4131 0.22633 0.0
C1682 C 0.94872 0.43485 0.24574 0.0
C1683 C 0.97296 0.44859 0.2534 0.0
H1684 H 0.2133 0.13966 0.82844 0.0
H1685 H 0.21948 0.22824 0.81559 0.0
H1686 H 0.16431 0.14541 0.8414 0.0
H1687 H 0.17085 0.234 0.82856 0.0
H1688 H 0.07746 0.23536 0.83346 0.0
H1689 H 0.12335 0.22516 0.81487 0.0
H1690 H 0.1373 0.16507 0.88077 0.0
H1691 H 0.09078 0.17498 0.89922 0.0
C1692 C 0.2041 0.16028 0.82775 0.0
C1693 C 0.22041 0.18348 0.82085 0.0
C1694 C 0.17607 0.16362 0.83555 0.0
C1695 C 0.16353 0.1902 0.83624 0.0
C1696 C 0.17958 0.21318 0.82808 0.0
C1697 C 0.20758 0.20988 0.82062 0.0
C1698 C 0.09001 0.21966 0.84386 0.0
C1699 C 0.08016 0.20601 0.8679 0.0
C1700 C 0.11657 0.21397 0.83327 0.0
C1701 C 0.13426 0.19439 0.84633 0.0
C1702 C 0.12421 0.1801 0.86996 0.0
C1703 C 0.09755 0.18591 0.88067 0.0
H1704 H 0.48755 0.51338 0.4109 0.0
H1705 H 0.40121 0.53614 0.42266 0.0
H1706 H 0.49847 0.56127 0.39981 0.0
H1707 H 0.41239 0.58468 0.41138 0.0
H1708 H 0.50072 0.63739 0.34355 0.0
H1709 H 0.48725 0.59125 0.35904 0.0
H1710 H 0.44064 0.62689 0.42685 0.0
H1711 H 0.4541 0.67351 0.41125 0.0
C1712 C 0.47084 0.52864 0.41131 0.0
C1713 C 0.44337 0.52071 0.41732 0.0
C1714 C 0.47715 0.55616 0.40481 0.0
C1715 C 0.45624 0.57672 0.40417 0.0
C1716 C 0.42897 0.56927 0.41165 0.0
C1717 C 0.42256 0.54148 0.41812 0.0
C1718 C 0.48756 0.63555 0.36174 0.0
C1719 C 0.47868 0.65928 0.37621 0.0
C1720 C 0.47994 0.60901 0.37072 0.0
C1721 C 0.46307 0.60535 0.39435 0.0
C1722 C 0.45359 0.62903 0.40854 0.0
C1723 C 0.46144 0.65571 0.39966 0.0
H1724 H 0.75713 0.27561 0.85134 0.0
H1725 H 0.78381 0.33633 0.79053 0.0
H1726 H 0.80334 0.27355 0.87082 0.0
H1727 H 0.83111 0.3328 0.8088 0.0
H1728 H 0.89617 0.25198 0.87828 0.0
H1729 H 0.84747 0.25739 0.86599 0.0
H1730 H 0.86153 0.34351 0.84403 0.0
H1731 H 0.91077 0.33715 0.85459 0.0
C1732 C 0.77309 0.28809 0.8416 0.0
C1733 C 0.76669 0.306 0.81908 0.0
C1734 C 0.79983 0.28686 0.85287 0.0
C1735 C 0.82138 0.30297 0.84162 0.0
C1736 C 0.81511 0.3205 0.81864 0.0
C1737 C 0.78804 0.32223 0.80775 0.0
C1738 C 0.88858 0.27235 0.87193 0.0
C1739 C 0.90723 0.29416 0.86753 0.0
C1740 C 0.86054 0.2755 0.86456 0.0
C1741 C 0.85032 0.30078 0.8532 0.0
C1742 C 0.8686 0.32342 0.85165 0.0
C1743 C 0.89676 0.32004 0.8584 0.0
H1744 H 0.6039 0.97027 0.42655 0.0
H1745 H 0.5174 0.99308 0.41665 0.0
H1746 H 0.59375 0.92332 0.41164 0.0
H1747 H 0.50681 0.94571 0.40313 0.0
H1748 H 0.49463 0.86326 0.36331 0.0
H1749 H 0.51024 0.91134 0.36864 0.0
H1750 H 0.57327 0.88278 0.42676 0.0
H1751 H 0.55844 0.83538 0.42026 0.0
C1752 C 0.58258 0.96507 0.42179 0.0
C1753 C 0.56141 0.98535 0.4231 0.0
C1754 C 0.57671 0.9381 0.41311 0.0
C1755 C 0.54941 0.9305 0.406 0.0
C1756 C 0.52819 0.95079 0.40774 0.0
C1757 C 0.53416 0.97789 0.41596 0.0
C1758 C 0.51258 0.86738 0.37619 0.0
C1759 C 0.52565 0.84574 0.39107 0.0
C1760 C 0.52121 0.89492 0.37976 0.0
C1761 C 0.54281 0.9012 0.39853 0.0
C1762 C 0.55687 0.87905 0.41189 0.0
C1763 C 0.54841 0.85174 0.40815 0.0
H1764 H 0.21864 0.76531 0.6774 0.0
H1765 H 0.21106 0.85482 0.67683 0.0
H1766 H 0.16908 0.76163 0.66791 0.0
H1767 H 0.16122 0.85109 0.66717 0.0
H1768 H 0.0886 0.82456 0.6055 0.0
H1769 H 0.13493 0.83376 0.62416 0.0
H1770 H 0.12222 0.77197 0.68847 0.0
H1771 H 0.07644 0.76254 0.66991 0.0
C1772 C 0.20622 0.78418 0.67581 0.0
C1773 C 0.21865 0.81032 0.67781 0.0
C1774 C 0.17786 0.78209 0.67044 0.0
C1775 C 0.1614 0.80611 0.66666 0.0
C1776 C 0.17354 0.83229 0.66981 0.0
C1777 C 0.20195 0.83439 0.67561 0.0
C1778 C 0.09558 0.81319 0.6238 0.0
C1779 C 0.07888 0.79264 0.63603 0.0
C1780 C 0.12199 0.81861 0.63459 0.0
C1781 C 0.13214 0.80345 0.65767 0.0
C1782 C 0.115 0.78377 0.67052 0.0
C1783 C 0.08869 0.77845 0.65987 0.0
H1784 H 0.08815 0.53301 0.57642 0.0
H1785 H 0.00795 0.50354 0.60377 0.0
H1786 H 0.07505 0.58001 0.59007 0.0
H1787 H 0.99537 0.55011 0.61837 0.0
H1788 H 0.97135 0.64199 0.60187 0.0
H1789 H 0.98345 0.5932 0.59788 0.0
H1790 H 0.06581 0.60993 0.62931 0.0
H1791 H 0.05353 0.65947 0.63248 0.0
C1792 C 0.0677 0.53656 0.58524 0.0
C1793 C 0.04902 0.51453 0.58871 0.0
C1794 C 0.06038 0.56342 0.59352 0.0
C1795 C 0.03426 0.56882 0.60563 0.0
C1796 C 0.01556 0.54679 0.60892 0.0
C1797 C 0.02275 0.52005 0.60039 0.0
C1798 C 0.99173 0.63503 0.60883 0.0
C1799 C 0.01155 0.65429 0.61746 0.0
C1800 C 0.99873 0.60704 0.60653 0.0
C1801 C 0.02578 0.59765 0.61283 0.0
C1802 C 0.04496 0.61664 0.62375 0.0
C1803 C 0.03786 0.64485 0.62608 0.0
H1804 H 0.75976 0.72271 0.63457 0.0
H1805 H 0.79019 0.67287 0.70358 0.0
H1806 H 0.80542 0.72142 0.61331 0.0
H1807 H 0.83656 0.67298 0.68317 0.0
H1808 H 0.91478 0.66379 0.64193 0.0
H1809 H 0.86502 0.65625 0.64715 0.0
H1810 H 0.84911 0.74058 0.61889 0.0
H1811 H 0.89856 0.7472 0.61209 0.0
C1812 C 0.77643 0.71197 0.64553 0.0
C1813 C 0.77158 0.6982 0.67099 0.0
C1814 C 0.8026 0.7111 0.63321 0.0
C1815 C 0.82469 0.69695 0.64633 0.0
C1816 C 0.81986 0.68345 0.67202 0.0
C1817 C 0.79347 0.68379 0.68406 0.0
C1818 C 0.9004 0.68011 0.63552 0.0
C1819 C 0.91024 0.70619 0.62712 0.0
C1820 C 0.87199 0.67604 0.63898 0.0
C1821 C 0.85319 0.69822 0.63469 0.0
C1822 C 0.86293 0.72306 0.62263 0.0
C1823 C 0.89134 0.72688 0.61856 0.0
H1824 H 0.97987 0.98109 0.56719 0.0
H1825 H 0.90213 0.97776 0.61188 0.0
H1826 H 0.98803 0.93165 0.57717 0.0
H1827 H 0.91083 0.92841 0.62271 0.0
H1828 H 0.97015 0.85967 0.66842 0.0
H1829 H 0.95524 0.90625 0.65353 0.0
H1830 H 0.96094 0.88158 0.56775 0.0
H1831 H 0.97491 0.83462 0.58252 0.0
C1832 C 0.96436 0.96964 0.5788 0.0
C1833 C 0.94031 0.98317 0.58865 0.0
C1834 C 0.96901 0.94141 0.58446 0.0
C1835 C 0.95009 0.92632 0.60074 0.0
C1836 C 0.92571 0.93964 0.61009 0.0
C1837 C 0.92066 0.96775 0.60376 0.0
C1838 C 0.96804 0.86407 0.64638 0.0
C1839 C 0.97392 0.84342 0.62667 0.0
C1840 C 0.95933 0.89067 0.63791 0.0
C1841 C 0.95691 0.89741 0.60953 0.0
C1842 C 0.96263 0.87684 0.58977 0.0
C1843 C 0.97065 0.84998 0.59825 0.0
H1844 H 0.80586 0.22328 0.22944 0.0
H1845 H 0.81547 0.21323 0.14086 0.0
H1846 H 0.82011 0.17518 0.23706 0.0
H1847 H 0.82959 0.16464 0.14845 0.0
H1848 H 0.83085 0.08267 0.24311 0.0
H1849 H 0.80861 0.12676 0.23098 0.0
H1850 H 0.87129 0.14124 0.16833 0.0
H1851 H 0.89326 0.09666 0.18007 0.0
C1852 C 0.81033 0.21052 0.21152 0.0
C1853 C 0.80945 0.22206 0.18456 0.0
C1854 C 0.81848 0.18288 0.21588 0.0
C1855 C 0.82623 0.16601 0.1934 0.0
C1856 C 0.82407 0.17714 0.16625 0.0
C1857 C 0.81559 0.20486 0.16186 0.0
C1858 C 0.83975 0.09502 0.22651 0.0
C1859 C 0.86394 0.08601 0.21266 0.0
C1860 C 0.82704 0.12045 0.21964 0.0
C1861 C 0.83815 0.13767 0.19871 0.0
C1862 C 0.86195 0.12839 0.18433 0.0
C1863 C 0.87472 0.10291 0.19126 0.0
H1864 H 0.46691 0.92086 0.09289 0.0
H1865 H 0.50166 0.89199 0.01531 0.0
H1866 H 0.42061 0.90796 0.07714 0.0
H1867 H 0.45547 0.87878 0.99986 0.0
H1868 H 0.36491 0.90228 0.97147 0.0
H1869 H 0.41327 0.90408 0.98611 0.0
H1870 H 0.39113 0.86718 0.06525 0.0
H1871 H 0.3423 0.86548 0.05031 0.0
C1872 C 0.46471 0.91183 0.07248 0.0
C1873 C 0.48803 0.90773 0.05529 0.0
C1874 C 0.43822 0.90404 0.06363 0.0
C1875 C 0.4344 0.8921 0.03735 0.0
C1876 C 0.4577 0.888 0.02019 0.0
C1877 C 0.48418 0.89567 0.02905 0.0
C1878 C 0.37059 0.89361 0.9916 0.0
C1879 C 0.35005 0.88366 0.00976 0.0
C1880 C 0.39828 0.8947 1.00004 0.0
C1881 C 0.40598 0.88615 0.027 0.0
C1882 C 0.3857 0.87428 0.04449 0.0
C1883 C 0.3579 0.87289 0.03584 0.0
H1884 H 0.18229 0.29173 0.14339 0.0
H1885 H 0.19937 0.28984 0.23164 0.0
H1886 H 0.17162 0.34137 0.14595 0.0
H1887 H 0.18859 0.33925 0.23418 0.0
H1888 H 0.10964 0.41086 0.17889 0.0
H1889 H 0.1313 0.36618 0.16808 0.0
H1890 H 0.20183 0.38659 0.21928 0.0
H1891 H 0.18017 0.4309 0.23038 0.0
C1892 C 0.1845 0.30204 0.16318 0.0
C1893 C 0.19146 0.28687 0.1874 0.0
C1894 C 0.17814 0.33039 0.16466 0.0
C1895 C 0.17902 0.34409 0.19028 0.0
C1896 C 0.18791 0.32931 0.21408 0.0
C1897 C 0.19398 0.30098 0.21267 0.0
C1898 C 0.12997 0.40603 0.18746 0.0
C1899 C 0.14297 0.42434 0.20582 0.0
C1900 C 0.14247 0.38051 0.18111 0.0
C1901 C 0.16817 0.37284 0.19304 0.0
C1902 C 0.18186 0.39181 0.21008 0.0
C1903 C 0.16942 0.41726 0.21638 0.0
H1904 H 0.54242 0.56884 0.09662 0.0
H1905 H 0.52075 0.58497 0.01067 0.0
H1906 H 0.59073 0.58095 0.08642 0.0
H1907 H 0.56873 0.5971 0.00074 0.0
H1908 H 0.68041 0.58564 0.04779 0.0
H1909 H 0.634 0.5675 0.05785 0.0
H1910 H 0.59703 0.63812 0.01534 0.0
H1911 H 0.64307 0.65628 0.00542 0.0
C1912 C 0.54798 0.57444 0.07548 0.0
C1913 C 0.52751 0.57619 0.05457 0.0
C1914 C 0.57569 0.58138 0.06966 0.0
C1915 C 0.58344 0.59044 0.04287 0.0
C1916 C 0.56331 0.59072 0.0217 0.0
C1917 C 0.53578 0.58357 0.02742 0.0
C1918 C 0.66237 0.5973 0.04061 0.0
C1919 C 0.66554 0.62243 0.02575 0.0
C1920 C 0.6358 0.58694 0.04647 0.0
C1921 C 0.61184 0.60126 0.03721 0.0
C1922 C 0.61506 0.62638 0.02244 0.0
C1923 C 0.64151 0.6369 0.01692 0.0
H1924 H 0.85958 0.75967 0.28094 0.0
H1925 H 0.80467 0.78711 0.34652 0.0
H1926 H 0.87775 0.80587 0.27606 0.0
H1927 H 0.82161 0.83449 0.34023 0.0
H1928 H 0.87912 0.89802 0.25078 0.0
H1929 H 0.86905 0.84929 0.25888 0.0
H1930 H 0.8577 0.86544 0.34656 0.0
H1931 H 0.86607 0.91461 0.33771 0.0
C1932 C 0.85083 0.77576 0.29399 0.0
C1933 C 0.83033 0.76959 0.31401 0.0
C1934 C 0.86135 0.8025 0.29109 0.0
C1935 C 0.85129 0.82429 0.30762 0.0
C1936 C 0.83043 0.81826 0.32744 0.0
C1937 C 0.8203 0.79116 0.33081 0.0
C1938 C 0.8757 0.89087 0.27194 0.0
C1939 C 0.8736 0.90998 0.29363 0.0
C1940 C 0.86959 0.86285 0.27668 0.0
C1941 C 0.8618 0.85323 0.30338 0.0
C1942 C 0.86261 0.87206 0.32557 0.0
C1943 C 0.86814 0.90016 0.32068 0.0
H1944 H 0.0299 0.90789 0.89969 0.0
H1945 H 0.02638 0.95052 0.97818 0.0
H1946 H 0.07782 0.8931 0.90974 0.0
H1947 H 0.07467 0.93647 0.98773 0.0
H1948 H 0.17201 0.92397 0.97587 0.0
H1949 H 0.12639 0.94251 0.96258 0.0
H1950 H 0.09593 0.85918 0.95359 0.0
H1951 H 0.14139 0.8404 0.96787 0.0
C1952 C 0.03967 0.9149 0.91863 0.0
C1953 C 0.02449 0.93061 0.93805 0.0
C1954 C 0.06695 0.90615 0.9245 0.0
C1955 C 0.07981 0.91354 0.94956 0.0
C1956 C 0.06523 0.93057 0.96824 0.0
C1957 C 0.0377 0.9387 0.96272 0.0
C1958 C 0.15568 0.90952 0.97115 0.0
C1959 C 0.1604 0.88064 0.97315 0.0
C1960 C 0.12954 0.9202 0.96353 0.0
C1961 C 0.10774 0.90228 0.95697 0.0
C1962 C 0.1125 0.87344 0.95839 0.0
C1963 C 0.13845 0.86272 0.96671 0.0
H1964 H 0.19324 0.70783 0.33734 0.0
H1965 H 0.11925 0.7357 0.29421 0.0
H1966 H 0.17453 0.66081 0.33987 0.0
H1967 H 0.09964 0.68957 0.29821 0.0
H1968 H 0.10215 0.59823 0.26743 0.0
H1969 H 0.10639 0.64743 0.27642 0.0
H1970 H 0.14225 0.62863 0.35706 0.0
H1971 H 0.13925 0.5792 0.34712 0.0
C1972 C 0.17285 0.70386 0.32875 0.0
C1973 C 0.15807 0.72494 0.31481 0.0
C1974 C 0.16185 0.67709 0.33051 0.0
C1975 C 0.13553 0.67122 0.31901 0.0
C1976 C 0.12019 0.69301 0.30663 0.0
C1977 C 0.13146 0.71944 0.30428 0.0
C1978 C 0.10968 0.60463 0.2876 0.0
C1979 C 0.12087 0.58507 0.30635 0.0
C1980 C 0.11233 0.63296 0.29279 0.0
C1981 C 0.12569 0.64209 0.31711 0.0
C1982 C 0.13291 0.62234 0.33766 0.0
C1983 C 0.1307 0.59403 0.33222 0.0
H1984 H 0.97981 0.59078 0.89432 0.0
H1985 H 0.99859 0.60067 0.98153 0.0
H1986 H 0.93118 0.60304 0.90359 0.0
H1987 H 0.95037 0.61222 0.99079 0.0
H1988 H 0.86463 0.64532 0.00207 0.0
H1989 H 0.91289 0.64567 0.98504 0.0
H1990 H 0.89278 0.58152 0.92627 0.0
H1991 H 0.84519 0.58175 0.9428 0.0
C1992 C 0.97358 0.5954 0.91543 0.0
C1993 C 0.9931 0.59455 0.93715 0.0
C1994 C 0.94576 0.60256 0.92076 0.0
C1995 C 0.93685 0.60889 0.94795 0.0
C1996 C 0.9565 0.60819 0.96953 0.0
C1997 C 0.98418 0.60116 0.96421 0.0
C1998 C 0.87052 0.63205 0.98494 0.0
C1999 C 0.85144 0.61335 0.97388 0.0
C2000 C 0.89812 0.63197 0.97535 0.0
C2001 C 0.90685 0.61329 0.95452 0.0
C2002 C 0.88694 0.5963 0.94212 0.0
C2003 C 0.85964 0.59631 0.95173 0.0
H2004 H 0.23289 0.81055 0.21592 0.0
H2005 H 0.1441 0.80887 0.20222 0.0
H2006 H 0.24004 0.82262 0.1672 0.0
H2007 H 0.15135 0.82076 0.15328 0.0
H2008 H 0.24628 0.83084 0.07458 0.0
H2009 H 0.23564 0.80792 0.11854 0.0
H2010 H 0.16702 0.86505 0.13099 0.0
H2011 H 0.17726 0.88766 0.0865 0.0
C2012 C 0.21496 0.81203 0.20233 0.0
C2013 C 0.18794 0.80899 0.21298 0.0
C2014 C 0.21905 0.81889 0.17438 0.0
C2015 C 0.19621 0.823 0.15652 0.0
C2016 C 0.1693 0.81812 0.1667 0.0
C2017 C 0.1652 0.81101 0.19465 0.0
C2018 C 0.22858 0.83821 0.08637 0.0
C2019 C 0.21259 0.86106 0.07698 0.0
C2020 C 0.22262 0.82517 0.11168 0.0
C2021 C 0.20051 0.83467 0.12821 0.0
C2022 C 0.18398 0.85702 0.11851 0.0
C2023 C 0.19001 0.87015 0.09316 0.0
H2024 H 0.23747 0.15822 0.27592 0.0
H2025 H 0.17516 0.22091 0.29399 0.0
H2026 H 0.24036 0.14638 0.32523 0.0
H2027 H 0.17875 0.20924 0.34369 0.0
H2028 H 0.22642 0.18704 0.43249 0.0
H2029 H 0.22231 0.20563 0.38492 0.0
H2030 H 0.19589 0.12544 0.35652 0.0
H2031 H 0.19934 0.10692 0.40381 0.0
C2032 C 0.22488 0.16998 0.29041 0.0
C2033 C 0.2059 0.1904 0.28093 0.0
C2034 C 0.22645 0.16303 0.31862 0.0
C2035 C 0.20954 0.17671 0.33802 0.0
C2036 C 0.19193 0.1984 0.32899 0.0
C2037 C 0.18994 0.20505 0.30061 0.0
C2038 C 0.21926 0.17353 0.41618 0.0
C2039 C 0.21331 0.14547 0.42192 0.0
C2040 C 0.21692 0.18419 0.38904 0.0
C2041 C 0.20912 0.16681 0.36721 0.0
C2042 C 0.20217 0.13913 0.37308 0.0
C2043 C 0.20398 0.12863 0.40019 0.0
H2044 H 0.41648 0.51468 0.98884 0.0
H2045 H 0.4124 0.6026 0.9705 0.0
H2046 H 0.40131 0.50466 0.94175 0.0
H2047 H 0.39571 0.59281 0.92384 0.0
H2048 H 0.40653 0.56155 0.83398 0.0
H2049 H 0.41184 0.57624 0.88172 0.0
H2050 H 0.36453 0.50517 0.90954 0.0
H2051 H 0.36063 0.48988 0.8612 0.0
C2052 C 0.41225 0.53186 0.97468 0.0
C2053 C 0.41604 0.55938 0.98315 0.0
C2054 C 0.40308 0.52617 0.9478 0.0
C2055 C 0.39697 0.54791 0.9289 0.0
C2056 C 0.40057 0.57549 0.93759 0.0
C2057 C 0.41026 0.58114 0.96432 0.0
C2058 C 0.39639 0.54971 0.8503 0.0
C2059 C 0.38298 0.52482 0.84415 0.0
C2060 C 0.39945 0.55806 0.87776 0.0
C2061 C 0.38902 0.54169 0.8997 0.0
C2062 C 0.37342 0.51793 0.89322 0.0
C2063 C 0.37065 0.50941 0.86559 0.0
H2064 H 0.78564 0.36597 0.25825 0.0
H2065 H 0.83724 0.29712 0.28582 0.0
H2066 H 0.7871 0.38582 0.3041 0.0
H2067 H 0.83743 0.31632 0.3329 0.0
H2068 H 0.84457 0.35966 0.41319 0.0
H2069 H 0.85179 0.35122 0.36377 0.0
H2070 H 0.76749 0.37899 0.34735 0.0
H2071 H 0.761 0.38848 0.39639 0.0
C2072 C 0.79697 0.35474 0.27435 0.0
C2073 C 0.81078 0.3295 0.26855 0.0
C2074 C 0.7978 0.36624 0.30078 0.0
C2075 C 0.812 0.35264 0.32255 0.0
C2076 C 0.82648 0.32765 0.31664 0.0
C2077 C 0.82614 0.31637 0.28978 0.0
C2078 C 0.8281 0.3652 0.39872 0.0
C2079 C 0.8022 0.3747 0.40862 0.0
C2080 C 0.83201 0.35977 0.37046 0.0
C2081 C 0.81 0.36351 0.35151 0.0
C2082 C 0.78506 0.37583 0.36113 0.0
C2083 C 0.78132 0.38161 0.38935 0.0
H2084 H 0.07748 0.40143 0.47431 0.0
H2085 H 0.12101 0.47441 0.50122 0.0
H2086 H 0.09006 0.41232 0.426 0.0
H2087 H 0.13465 0.48442 0.45382 0.0
H2088 H 0.11707 0.51602 0.36514 0.0
H2089 H 0.11415 0.50217 0.4137 0.0
H2090 H 0.12486 0.41614 0.39055 0.0
H2091 H 0.12678 0.43045 0.34145 0.0
C2092 C 0.08989 0.41961 0.46996 0.0
C2093 C 0.09766 0.43734 0.49159 0.0
C2094 C 0.0974 0.42574 0.4423 0.0
C2095 C 0.11322 0.44949 0.43578 0.0
C2096 C 0.12186 0.46641 0.45772 0.0
C2097 C 0.114 0.4606 0.48507 0.0
C2098 C 0.12003 0.49428 0.37059 0.0
C2099 C 0.12285 0.47438 0.3497 0.0
C2100 C 0.11817 0.4862 0.3985 0.0
C2101 C 0.11903 0.4579 0.40629 0.0
C2102 C 0.12367 0.43806 0.38538 0.0
C2103 C 0.12543 0.44624 0.35731 0.0
H2104 H 0.29528 0.1239 0.74102 0.0
H2105 H 0.34691 0.19297 0.71737 0.0
H2106 H 0.29548 0.10746 0.69367 0.0
H2107 H 0.34588 0.17738 0.66897 0.0
H2108 H 0.35038 0.14042 0.5849 0.0
H2109 H 0.35872 0.14559 0.63459 0.0
H2110 H 0.27536 0.11698 0.65129 0.0
H2111 H 0.26783 0.11065 0.60183 0.0
C2112 C 0.30645 0.13585 0.7255 0.0
C2113 C 0.32063 0.16015 0.73289 0.0
C2114 C 0.30649 0.12638 0.69817 0.0
C2115 C 0.32027 0.14116 0.67704 0.0
C2116 C 0.33521 0.16513 0.68457 0.0
C2117 C 0.33565 0.17433 0.71228 0.0
C2118 C 0.33437 0.13397 0.59938 0.0
C2119 C 0.30849 0.12495 0.58943 0.0
C2120 C 0.33889 0.13757 0.62789 0.0
C2121 C 0.31751 0.13255 0.64722 0.0
C2122 C 0.29253 0.12102 0.63733 0.0
C2123 C 0.28819 0.11705 0.60881 0.0
H2124 H 0.43044 0.40526 0.53776 0.0
H2125 H 0.41726 0.49117 0.51377 0.0
H2126 H 0.41735 0.41655 0.58564 0.0
H2127 H 0.40429 0.50224 0.56124 0.0
H2128 H 0.41203 0.45701 0.67382 0.0
H2129 H 0.43048 0.44509 0.62801 0.0
H2130 H 0.36229 0.48972 0.58911 0.0
H2131 H 0.3439 0.50173 0.63466 0.0
C2132 C 0.42533 0.42659 0.54276 0.0
C2133 C 0.42454 0.44721 0.52183 0.0
C2134 C 0.41779 0.43304 0.57016 0.0
C2135 C 0.40926 0.46017 0.57702 0.0
C2136 C 0.41014 0.48102 0.55644 0.0
C2137 C 0.41775 0.47466 0.52924 0.0
C2138 C 0.40096 0.46427 0.65549 0.0
C2139 C 0.37652 0.48045 0.65793 0.0
C2140 C 0.41149 0.45731 0.62928 0.0
C2141 C 0.39798 0.46667 0.60499 0.0
C2142 C 0.37341 0.48257 0.60746 0.0
C2143 C 0.36276 0.48929 0.63359 0.0
H2144 H 0.59608 0.10866 0.53579 0.0
H2145 H 0.56075 0.027 0.52837 0.0
H2146 H 0.60603 0.09928 0.58497 0.0
H2147 H 0.57005 0.01799 0.57779 0.0
H2148 H 0.57576 0.02381 0.67543 0.0
H2149 H 0.55838 0.03852 0.6295 0.0
H2150 H 0.64166 0.06025 0.60488 0.0
H2151 H 0.65917 0.04478 0.65019 0.0
C2152 C 0.58964 0.08906 0.54484 0.0
C2153 C 0.57761 0.06856 0.52817 0.0
C2154 C 0.59552 0.08364 0.57295 0.0
C2155 C 0.58887 0.05789 0.58515 0.0
C2156 C 0.57523 0.03808 0.56897 0.0
C2157 C 0.56994 0.04323 0.54069 0.0
C2158 C 0.59031 0.0319 0.66031 0.0
C2159 C 0.6189 0.03294 0.66644 0.0
C2160 C 0.58035 0.04026 0.63402 0.0
C2161 C 0.59867 0.05062 0.6137 0.0
C2162 C 0.62704 0.05258 0.62021 0.0
C2163 C 0.63706 0.04357 0.64612 0.0
H2164 H 0.7245 0.72951 0.32489 0.0
H2165 H 0.71619 0.64083 0.33554 0.0
H2166 H 0.67585 0.73605 0.33713 0.0
H2167 H 0.66704 0.64739 0.34764 0.0
H2168 H 0.58264 0.73964 0.33883 0.0
H2169 H 0.62892 0.72882 0.32176 0.0
H2170 H 0.63887 0.66655 0.38633 0.0
H2171 H 0.59187 0.67705 0.4032 0.0
C2172 C 0.71214 0.71131 0.32935 0.0
C2173 C 0.72438 0.68463 0.32914 0.0
C2174 C 0.68411 0.71506 0.33634 0.0
C2175 C 0.66737 0.69228 0.34353 0.0
C2176 C 0.67934 0.66546 0.34253 0.0
C2177 C 0.70745 0.66166 0.33524 0.0
C2178 C 0.59443 0.72341 0.34931 0.0
C2179 C 0.5833 0.7093 0.3725 0.0
C2180 C 0.6212 0.71732 0.33958 0.0
C2181 C 0.63789 0.69692 0.35271 0.0
C2182 C 0.62659 0.68223 0.3755 0.0
C2183 C 0.59966 0.68839 0.38532 0.0
H2184 H 0.8926 0.02777 0.89701 0.0
H2185 H 0.97091 0.02041 0.9403 0.0
H2186 H 0.90205 0.07706 0.8872 0.0
H2187 H 0.97989 0.06965 0.93138 0.0
H2188 H 0.97449 0.16635 0.92496 0.0
H2189 H 0.95773 0.12086 0.94081 0.0
H2190 H 0.94433 0.09716 0.85563 0.0
H2191 H 0.96181 0.14207 0.83972 0.0
C2192 C 0.91134 0.03693 0.90518 0.0
C2193 C 0.93099 0.0204 0.91949 0.0
C2194 C 0.91684 0.065 0.89944 0.0
C2195 C 0.94171 0.07713 0.90857 0.0
C2196 C 0.96049 0.06093 0.92432 0.0
C2197 C 0.95535 0.03279 0.92938 0.0
C2198 C 0.96782 0.1515 0.90965 0.0
C2199 C 0.96974 0.15774 0.88107 0.0
C2200 C 0.95821 0.12551 0.91873 0.0
C2201 C 0.94956 0.10559 0.89944 0.0
C2202 C 0.95057 0.11222 0.87096 0.0
C2203 C 0.96082 0.13785 0.86187 0.0
H2204 H 0.25766 0.77837 0.35672 0.0
H2205 H 0.28248 0.83628 0.29243 0.0
H2206 H 0.30478 0.77608 0.37401 0.0
H2207 H 0.33053 0.83264 0.30867 0.0
H2208 H 0.41214 0.83739 0.35131 0.0
H2209 H 0.36262 0.84401 0.34242 0.0
H2210 H 0.34847 0.75857 0.36685 0.0
H2211 H 0.39767 0.75285 0.37733 0.0
C2212 C 0.27335 0.79025 0.34584 0.0
C2213 C 0.26621 0.80737 0.32293 0.0
C2214 C 0.3006 0.78887 0.35582 0.0
C2215 C 0.32187 0.80409 0.3429 0.0
C2216 C 0.31479 0.821 0.3197 0.0
C2217 C 0.28726 0.82285 0.31004 0.0
C2218 C 0.39814 0.82045 0.35588 0.0
C2219 C 0.4087 0.79469 0.36525 0.0
C2220 C 0.36978 0.824 0.35016 0.0
C2221 C 0.35132 0.80165 0.35305 0.0
C2222 C 0.36172 0.77645 0.36444 0.0
C2223 C 0.39004 0.77312 0.37072 0.0
H2224 H 0.10169 0.46892 0.91007 0.0
H2225 H 0.01459 0.48884 0.91987 0.0
H2226 H 0.08994 0.42298 0.89377 0.0
H2227 H 0.00258 0.44203 0.9055 0.0
H2228 H 0.98338 0.36196 0.86552 0.0
H2229 H 0.99858 0.41007 0.87022 0.0
H2230 H 0.07533 0.38038 0.90767 0.0
H2231 H 0.06067 0.33295 0.90108 0.0
C2232 C 0.07998 0.46315 0.90945 0.0
C2233 C 0.05906 0.48234 0.91667 0.0
C2234 C 0.07316 0.43672 0.90001 0.0
C2235 C 0.04522 0.42841 0.89822 0.0
C2236 C 0.02431 0.44764 0.90588 0.0
C2237 C 0.03115 0.47438 0.91463 0.0
C2238 C 0.00406 0.36596 0.87335 0.0
C2239 C 0.02118 0.34391 0.88234 0.0
C2240 C 0.01257 0.3935 0.87676 0.0
C2241 C 0.03804 0.39944 0.88994 0.0
C2242 C 0.0558 0.37704 0.89713 0.0
C2243 C 0.04749 0.34967 0.89323 0.0
H2244 H 0.71186 0.26931 0.18112 0.0
H2245 H 0.70847 0.35896 0.17644 0.0
H2246 H 0.6618 0.26766 0.17323 0.0
H2247 H 0.65827 0.35722 0.16827 0.0
H2248 H 0.56913 0.27359 0.17886 0.0
H2249 H 0.61597 0.28193 0.19541 0.0
H2250 H 0.62948 0.33891 0.12699 0.0
H2251 H 0.58231 0.33056 0.11012 0.0
C2252 C 0.70032 0.28866 0.17889 0.0
C2253 C 0.71407 0.31423 0.17942 0.0
C2254 C 0.67167 0.28773 0.17444 0.0
C2255 C 0.65621 0.31233 0.17004 0.0
C2256 C 0.66976 0.33797 0.17145 0.0
C2257 C 0.69841 0.33893 0.17638 0.0
C2258 C 0.58179 0.28827 0.16749 0.0
C2259 C 0.57199 0.30113 0.14289 0.0
C2260 C 0.60871 0.29295 0.17699 0.0
C2261 C 0.62643 0.31079 0.16232 0.0
C2262 C 0.61617 0.3251 0.13876 0.0
C2263 C 0.5892 0.32024 0.12906 0.0
H2264 H 0.51339 0.0169 0.08529 0.0
H2265 H 0.60144 0.02795 0.0988 0.0
H2266 H 0.50475 0.0646 0.10019 0.0
H2267 H 0.59274 0.07471 0.11486 0.0
H2268 H 0.56863 0.1669 0.1012 0.0
H2269 H 0.5804 0.11811 0.09625 0.0
H2270 H 0.50444 0.09592 0.13886 0.0
H2271 H 0.4924 0.14537 0.14288 0.0
C2272 C 0.53087 0.0295 0.09137 0.0
C2273 C 0.55811 0.01872 0.09042 0.0
C2274 C 0.5259 0.05667 0.10037 0.0
C2275 C 0.54805 0.0735 0.10894 0.0
C2276 C 0.57522 0.06256 0.10808 0.0
C2277 C 0.5802 0.03568 0.09872 0.0
C2278 C 0.55514 0.15156 0.11064 0.0
C2279 C 0.52989 0.15969 0.12276 0.0
C2280 C 0.56174 0.12352 0.10766 0.0
C2281 C 0.54315 0.10298 0.11676 0.0
C2282 C 0.51894 0.11123 0.13113 0.0
C2283 C 0.51231 0.13946 0.13403 0.0
H2284 H 0.26514 0.20732 0.12523 0.0
H2285 H 0.2945 0.16625 0.19999 0.0
H2286 H 0.31082 0.20238 0.1043 0.0
H2287 H 0.34101 0.16287 0.17991 0.0
H2288 H 0.42161 0.15449 0.14427 0.0
H2289 H 0.3722 0.14427 0.14738 0.0
H2290 H 0.35325 0.22384 0.10879 0.0
H2291 H 0.40237 0.23305 0.10433 0.0
C2292 C 0.28163 0.19764 0.13737 0.0
C2293 C 0.27667 0.18787 0.16454 0.0
C2294 C 0.30778 0.19466 0.1253 0.0
C2295 C 0.32979 0.18245 0.14038 0.0
C2296 C 0.32451 0.17196 0.16738 0.0
C2297 C 0.29805 0.1743 0.17919 0.0
C2298 C 0.40679 0.16908 0.13521 0.0
C2299 C 0.4156 0.19488 0.12481 0.0
C2300 C 0.37849 0.16346 0.1374 0.0
C2301 C 0.35871 0.18379 0.12963 0.0
C2302 C 0.36776 0.20772 0.11531 0.0
C2303 C 0.39608 0.21306 0.11262 0.0
H2304 H 0.39789 0.47248 0.07811 0.0
H2305 H 0.48581 0.48496 0.09126 0.0
H2306 H 0.40443 0.4226 0.08827 0.0
H2307 H 0.49191 0.43583 0.10161 0.0
H2308 H 0.47915 0.36367 0.16347 0.0
H2309 H 0.4688 0.41002 0.14604 0.0
H2310 H 0.43742 0.376 0.06975 0.0
H2311 H 0.44829 0.32872 0.08707 0.0
C2312 C 0.41859 0.46464 0.08272 0.0
C2313 C 0.44122 0.48293 0.08426 0.0
C2314 C 0.4223 0.43609 0.08842 0.0
C2315 C 0.44863 0.42549 0.09595 0.0
C2316 C 0.47136 0.44351 0.09609 0.0
C2317 C 0.46777 0.47174 0.09019 0.0
C2318 C 0.46991 0.36575 0.143 0.0
C2319 C 0.46477 0.34226 0.12662 0.0
C2320 C 0.46403 0.39244 0.13303 0.0
C2321 C 0.45249 0.39659 0.10652 0.0
C2322 C 0.44629 0.37329 0.09032 0.0
C2323 C 0.4526 0.3463 0.1002 0.0
H2324 H 0.3228 0.71391 0.63479 0.0
H2325 H 0.30635 0.72038 0.72271 0.0
H2326 H 0.33554 0.66472 0.64132 0.0
H2327 H 0.31915 0.67181 0.72932 0.0
H2328 H 0.32789 0.5798 0.73333 0.0
H2329 H 0.30717 0.62425 0.72034 0.0
H2330 H 0.37504 0.6393 0.66353 0.0
H2331 H 0.39554 0.59418 0.67609 0.0
C2332 C 0.32111 0.70462 0.65532 0.0
C2333 C 0.31345 0.72093 0.67823 0.0
C2334 C 0.32878 0.67658 0.65915 0.0
C2335 C 0.32856 0.66429 0.68589 0.0
C2336 C 0.31933 0.68036 0.70841 0.0
C2337 C 0.31199 0.70828 0.70464 0.0
C2338 C 0.33829 0.5923 0.71781 0.0
C2339 C 0.36351 0.5833 0.70593 0.0
C2340 C 0.32643 0.61796 0.71043 0.0
C2341 C 0.33948 0.63552 0.691 0.0
C2342 C 0.36425 0.6262 0.67836 0.0
C2343 C 0.37614 0.60041 0.68576 0.0
H2344 H 0.00113 0.38613 0.51703 0.0
H2345 H 0.96863 0.4132 0.59622 0.0
H2346 H 0.95452 0.37311 0.50269 0.0
H2347 H 0.92194 0.40058 0.58159 0.0
H2348 H 0.8418 0.36188 0.5552 0.0
H2349 H 0.891 0.36138 0.56917 0.0
H2350 H 0.91283 0.39964 0.49057 0.0
H2351 H 0.86417 0.39996 0.47691 0.0
C2352 C 0.98407 0.38936 0.53139 0.0
C2353 C 0.98864 0.401 0.5577 0.0
C2354 C 0.95735 0.3818 0.52317 0.0
C2355 C 0.93454 0.38568 0.54103 0.0
C2356 C 0.93914 0.39686 0.56752 0.0
C2357 C 0.96587 0.40446 0.57575 0.0
C2358 C 0.85737 0.36915 0.54065 0.0
C2359 C 0.84943 0.38093 0.51503 0.0
C2360 C 0.88541 0.36924 0.54872 0.0
C2361 C 0.90576 0.3808 0.5311 0.0
C2362 C 0.89781 0.39041 0.50456 0.0
C2363 C 0.86994 0.3906 0.49671 0.0
H2364 H 0.66926 0.78822 0.64625 0.0
H2365 H 0.68181 0.78497 0.73522 0.0
H2366 H 0.66172 0.83853 0.64867 0.0
H2367 H 0.67427 0.83492 0.73759 0.0
H2368 H 0.60535 0.91384 0.67977 0.0
H2369 H 0.62291 0.86735 0.66944 0.0
H2370 H 0.6934 0.88062 0.72313 0.0
H2371 H 0.67585 0.92687 0.73373 0.0
C2372 C 0.67093 0.7983 0.66621 0.0
C2373 C 0.67591 0.78267 0.69059 0.0
C2374 C 0.66645 0.82703 0.66759 0.0
C2375 C 0.66734 0.8406 0.69331 0.0
C2376 C 0.67374 0.82511 0.71743 0.0
C2377 C 0.67786 0.79645 0.7161 0.0
C2378 C 0.62486 0.90706 0.68899 0.0
C2379 C 0.63896 0.92397 0.70791 0.0
C2380 C 0.635 0.88048 0.68291 0.0
C2381 C 0.65937 0.87029 0.69571 0.0
C2382 C 0.67436 0.88782 0.71326 0.0
C2383 C 0.6643 0.91437 0.71926 0.0
H2384 H 0.02567 0.07198 0.51276 0.0
H2385 H 0.04065 0.07904 0.60104 0.0
H2386 H 0.07428 0.08405 0.50363 0.0
H2387 H 0.08874 0.09163 0.59172 0.0
H2388 H 0.15392 0.15565 0.55473 0.0
H2389 H 0.10793 0.13692 0.56554 0.0
H2390 H 0.12612 0.06503 0.51563 0.0
H2391 H 0.17224 0.08338 0.50538 0.0
C2392 C 0.03937 0.07565 0.5302 0.0
C2393 C 0.02916 0.07459 0.55762 0.0
C2394 C 0.06716 0.08255 0.52496 0.0
C2395 C 0.08512 0.08902 0.54698 0.0
C2396 C 0.07525 0.08697 0.57437 0.0
C2397 C 0.0477 0.07957 0.57966 0.0
C2398 C 0.14821 0.13568 0.54638 0.0
C2399 C 0.16688 0.12083 0.52953 0.0
C2400 C 0.12196 0.12496 0.55259 0.0
C2401 C 0.11354 0.0995 0.54144 0.0
C2402 C 0.13214 0.08466 0.52452 0.0
C2403 C 0.15867 0.09507 0.51889 0.0
H2404 H 0.35957 0.26036 0.78185 0.0
H2405 H 0.29789 0.28643 0.84178 0.0
H2406 H 0.37648 0.30716 0.77818 0.0
H2407 H 0.31374 0.33432 0.83665 0.0
H2408 H 0.35675 0.41551 0.83836 0.0
H2409 H 0.3483 0.36622 0.84628 0.0
H2410 H 0.36808 0.35037 0.76005 0.0
H2411 H 0.3781 0.39927 0.75296 0.0
C2412 C 0.34911 0.27625 0.79389 0.0
C2413 C 0.32709 0.26951 0.81201 0.0
C2414 C 0.3589 0.30334 0.79168 0.0
C2415 C 0.34663 0.3249 0.80702 0.0
C2416 C 0.32423 0.3183 0.82488 0.0
C2417 C 0.31477 0.29088 0.82756 0.0
C2418 C 0.36049 0.40116 0.82151 0.0
C2419 C 0.36834 0.41114 0.79512 0.0
C2420 C 0.35499 0.37296 0.82583 0.0
C2421 C 0.35664 0.35413 0.80367 0.0
C2422 C 0.36666 0.36394 0.7778 0.0
C2423 C 0.37272 0.39207 0.77368 0.0
H2424 H 0.52433 0.43922 0.47901 0.0
H2425 H 0.53031 0.4042 0.3969 0.0
H2426 H 0.5734 0.42752 0.4874 0.0
H2427 H 0.57912 0.39169 0.40574 0.0
H2428 H 0.64496 0.33784 0.46085 0.0
H2429 H 0.59894 0.35527 0.44705 0.0
H2430 H 0.62489 0.43914 0.46258 0.0
H2431 H 0.67127 0.42197 0.47544 0.0
C2432 C 0.53627 0.42945 0.46262 0.0
C2433 C 0.52355 0.42277 0.43726 0.0
C2434 C 0.56429 0.42277 0.46743 0.0
C2435 C 0.57991 0.40863 0.44725 0.0
C2436 C 0.56746 0.40258 0.42161 0.0
C2437 C 0.53963 0.40992 0.41651 0.0
C2438 C 0.64097 0.36002 0.46113 0.0
C2439 C 0.66182 0.37847 0.46942 0.0
C2440 C 0.61468 0.36997 0.45309 0.0
C2441 C 0.60845 0.39852 0.45377 0.0
C2442 C 0.62922 0.41703 0.46191 0.0
C2443 C 0.65577 0.40715 0.46926 0.0
H2444 H 0.6918 0.21286 0.83508 0.0
H2445 H 0.617 0.23647 0.79091 0.0
H2446 H 0.67558 0.16505 0.83806 0.0
H2447 H 0.59966 0.18949 0.79555 0.0
H2448 H 0.60355 0.09728 0.76908 0.0
H2449 H 0.60682 0.14686 0.776 0.0
H2450 H 0.64561 0.13201 0.8561 0.0
H2451 H 0.64392 0.08218 0.84797 0.0
C2452 C 0.67178 0.20776 0.82628 0.0
C2453 C 0.65604 0.22798 0.81208 0.0
C2454 C 0.66215 0.1805 0.82834 0.0
C2455 C 0.63619 0.1732 0.81696 0.0
C2456 C 0.61999 0.19401 0.80394 0.0
C2457 C 0.62996 0.22096 0.80122 0.0
C2458 C 0.61166 0.10462 0.78867 0.0
C2459 C 0.62395 0.08605 0.80775 0.0
C2460 C 0.61371 0.1332 0.79268 0.0
C2461 C 0.62749 0.14361 0.81622 0.0
C2462 C 0.63598 0.12479 0.83719 0.0
C2463 C 0.63452 0.09623 0.83283 0.0
H2464 H 0.48251 0.10074 0.3924 0.0
H2465 H 0.49204 0.09181 0.48137 0.0
H2466 H 0.43405 0.11576 0.39917 0.0
H2467 H 0.44415 0.10618 0.48808 0.0
H2468 H 0.36417 0.14698 0.50027 0.0
H2469 H 0.41301 0.14553 0.48558 0.0
H2470 H 0.39025 0.09701 0.41408 0.0
H2471 H 0.34184 0.09928 0.4284 0.0
C2472 C 0.47416 0.10158 0.4133 0.0
C2473 C 0.49106 0.09507 0.43632 0.0
C2474 C 0.44652 0.11043 0.41723 0.0
C2475 C 0.43535 0.11283 0.44425 0.0
C2476 C 0.45222 0.10557 0.46706 0.0
C2477 C 0.47962 0.09688 0.46316 0.0
C2478 C 0.36959 0.13723 0.48077 0.0
C2479 C 0.34945 0.12321 0.46546 0.0
C2480 C 0.39755 0.13595 0.47254 0.0
C2481 C 0.40565 0.12049 0.44901 0.0
C2482 C 0.3849 0.10909 0.43223 0.0
C2483 C 0.35711 0.1104 0.44043 0.0
H2484 H 0.72656 0.30847 0.71371 0.0
H2485 H 0.63753 0.31704 0.70405 0.0
H2486 H 0.73271 0.31777 0.66431 0.0
H2487 H 0.64372 0.32606 0.65435 0.0
H2488 H 0.6748 0.38829 0.58519 0.0
H2489 H 0.66299 0.36706 0.62981 0.0
H2490 H 0.72488 0.3029 0.61646 0.0
H2491 H 0.73714 0.32442 0.57221 0.0
C2492 C 0.70825 0.31163 0.70087 0.0
C2493 C 0.6816 0.31231 0.71282 0.0
C2494 C 0.71176 0.31683 0.67252 0.0
C2495 C 0.6887 0.32295 0.65549 0.0
C2496 C 0.66189 0.32177 0.66706 0.0
C2497 C 0.65834 0.31634 0.69546 0.0
C2498 C 0.68567 0.36947 0.5916 0.0
C2499 C 0.70711 0.3582 0.5752 0.0
C2500 C 0.67871 0.35714 0.61706 0.0
C2501 C 0.69307 0.33334 0.62669 0.0
C2502 C 0.71363 0.32138 0.60972 0.0
C2503 C 0.72056 0.33367 0.58428 0.0
H2504 H 0.65266 0.6976 0.79643 0.0
H2505 H 0.74111 0.68835 0.78257 0.0
H2506 H 0.6593 0.68604 0.84545 0.0
H2507 H 0.74761 0.67679 0.83167 0.0
H2508 H 0.68145 0.61869 0.91359 0.0
H2509 H 0.67298 0.64045 0.86826 0.0
H2510 H 0.74306 0.69429 0.88061 0.0
H2511 H 0.75169 0.67252 0.9258 0.0
C2512 C 0.67361 0.69374 0.80391 0.0
C2513 C 0.69635 0.69361 0.78548 0.0
C2514 C 0.67733 0.6869 0.83197 0.0
C2515 C 0.70389 0.68017 0.84226 0.0
C2516 C 0.72689 0.68197 0.82431 0.0
C2517 C 0.72315 0.68853 0.79617 0.0
C2518 C 0.69486 0.63537 0.90679 0.0
C2519 C 0.71728 0.64379 0.92329 0.0
C2520 C 0.6899 0.64797 0.88091 0.0
C2521 C 0.7074 0.66905 0.87092 0.0
C2522 C 0.72936 0.67798 0.88773 0.0
C2523 C 0.73416 0.66558 0.91368 0.0
H2524 H 0.89583 0.0143 0.50024 0.0
H2525 H 0.9305 0.09003 0.4665 0.0
H2526 H 0.88054 0.00128 0.45415 0.0
H2527 H 0.91562 0.07645 0.41996 0.0
H2528 H 0.8699 0.05416 0.34158 0.0
H2529 H 0.87352 0.0683 0.3904 0.0
H2530 H 0.90418 0.98623 0.41228 0.0
H2531 H 0.90043 0.9724 0.36396 0.0
C2532 C 0.90037 0.02815 0.48297 0.0
C2533 C 0.91463 0.05317 0.48709 0.0
C2534 C 0.8915 0.02065 0.45653 0.0
C2535 C 0.89672 0.03788 0.43345 0.0
C2536 C 0.91087 0.06296 0.43745 0.0
C2537 C 0.91978 0.07053 0.46403 0.0
C2538 C 0.87626 0.03895 0.35715 0.0
C2539 C 0.8848 0.01222 0.34927 0.0
C2540 C 0.8788 0.04712 0.38492 0.0
C2541 C 0.88955 0.0285 0.40507 0.0
C2542 C 0.89571 0.00104 0.39735 0.0
C2543 C 0.89347 0.99305 0.36971 0.0
H2544 H 0.35699 0.82957 0.77038 0.0
H2545 H 0.26954 0.81096 0.77527 0.0
H2546 H 0.35439 0.85221 0.81554 0.0
H2547 H 0.26703 0.83242 0.82079 0.0
H2548 H 0.25888 0.88762 0.89135 0.0
H2549 H 0.26701 0.87643 0.84253 0.0
H2550 H 0.34896 0.84503 0.86363 0.0
H2551 H 0.34112 0.85735 0.91181 0.0
C2552 C 0.33742 0.82952 0.78152 0.0
C2553 C 0.3135 0.81831 0.76936 0.0
C2554 C 0.33582 0.84278 0.80732 0.0
C2555 C 0.31032 0.84483 0.82166 0.0
C2556 C 0.28681 0.83222 0.81003 0.0
C2557 C 0.28835 0.81932 0.78418 0.0
C2558 C 0.27916 0.87982 0.88521 0.0
C2559 C 0.29926 0.8731 0.90537 0.0
C2560 C 0.28362 0.87269 0.85735 0.0
C2561 C 0.30823 0.8587 0.84927 0.0
C2562 C 0.32967 0.8555 0.86892 0.0
C2563 C 0.32526 0.86278 0.89663 0.0
H2564 H 0.60209 0.89306 0.98296 0.0
H2565 H 0.5955 0.98164 0.9953 0.0
H2566 H 0.61617 0.90125 0.93478 0.0
H2567 H 0.60869 0.98981 0.94721 0.0
H2568 H 0.64613 0.00239 0.86438 0.0
H2569 H 0.64513 0.98833 0.91356 0.0
H2570 H 0.59659 0.91654 0.89212 0.0
H2571 H 0.59847 0.93028 0.84343 0.0
C2572 C 0.60335 0.91426 0.97535 0.0
C2573 C 0.59749 0.93666 0.99302 0.0
C2574 C 0.61154 0.91899 0.94772 0.0
C2575 C 0.61388 0.94624 0.93701 0.0
C2576 C 0.60787 0.96856 0.95476 0.0
C2577 C 0.59989 0.96385 0.98234 0.0
C2578 C 0.63649 0.98294 0.8702 0.0
C2579 C 0.62266 0.96721 0.85022 0.0
C2580 C 0.63538 0.97511 0.89839 0.0
C2581 C 0.62025 0.95154 0.907 0.0
C2582 C 0.60858 0.93465 0.88648 0.0
C2583 C 0.60973 0.94246 0.85847 0.0
H2584 H 0.78857 0.62617 0.24562 0.0
H2585 H 0.84729 0.68863 0.22002 0.0
H2586 H 0.78744 0.60808 0.19898 0.0
H2587 H 0.84487 0.67156 0.17229 0.0
H2588 H 0.84707 0.63166 0.09023 0.0
H2589 H 0.85527 0.6372 0.13989 0.0
H2590 H 0.76912 0.61757 0.15592 0.0
H2591 H 0.76171 0.61059 0.10655 0.0
C2592 C 0.80094 0.63643 0.22982 0.0
C2593 C 0.81764 0.65929 0.23646 0.0
C2594 C 0.80025 0.62597 0.2029 0.0
C2595 C 0.81577 0.63837 0.18148 0.0
C2596 C 0.83288 0.66106 0.1882 0.0
C2597 C 0.83406 0.67118 0.21548 0.0
C2598 C 0.83035 0.62712 0.10464 0.0
C2599 C 0.8038 0.62052 0.09459 0.0
C2600 C 0.83482 0.63099 0.13308 0.0
C2601 C 0.8127 0.62879 0.15209 0.0
C2602 C 0.78683 0.61942 0.14217 0.0
C2603 C 0.78253 0.61507 0.11375 0.0
H2604 H 0.95799 0.93363 0.03843 0.0
H2605 H 0.87735 0.96388 0.01191 0.0
H2606 H 0.94714 0.94754 0.08629 0.0
H2607 H 0.86584 0.97599 0.05905 0.0
H2608 H 0.85757 0.01986 0.13853 0.0
H2609 H 0.87426 0.00849 0.09235 0.0
H2610 H 0.92054 0.93851 0.1265 0.0
H2611 H 0.9052 0.95135 0.17313 0.0
C2612 C 0.93796 0.94306 0.0429 0.0
C2613 C 0.91875 0.94816 0.02144 0.0
C2614 C 0.93162 0.95091 0.07027 0.0
C2615 C 0.90574 0.96344 0.07662 0.0
C2616 C 0.88637 0.96749 0.05505 0.0
C2617 C 0.8929 0.96031 0.0279 0.0
C2618 C 0.87137 0.00211 0.13613 0.0
C2619 C 0.87976 0.98624 0.15929 0.0
C2620 C 0.88087 0.99541 0.10961 0.0
C2621 C 0.89832 0.97212 0.10542 0.0
C2622 C 0.9073 0.95667 0.12881 0.0
C2623 C 0.89833 0.96386 0.15552 0.0
H2624 H 0.06851 0.52135 0.02175 0.0
H2625 H 0.09989 0.60455 0.0301 0.0
H2626 H 0.07623 0.51296 0.07153 0.0
H2627 H 0.10815 0.59585 0.07968 0.0
H2628 H 0.15956 0.54659 0.14909 0.0
H2629 H 0.14382 0.5605 0.10271 0.0
H2630 H 0.06136 0.53167 0.12203 0.0
H2631 H 0.07697 0.51837 0.16908 0.0
C2632 C 0.07663 0.53799 0.03428 0.0
C2633 C 0.0836 0.56362 0.02189 0.0
C2634 C 0.08095 0.5332 0.0628 0.0
C2635 C 0.09289 0.55371 0.07949 0.0
C2636 C 0.09899 0.57964 0.06733 0.0
C2637 C 0.09411 0.58465 0.03894 0.0
C2638 C 0.13795 0.54352 0.14363 0.0
C2639 C 0.11953 0.53133 0.16281 0.0
C2640 C 0.12893 0.55162 0.11708 0.0
C2641 C 0.10136 0.5472 0.1087 0.0
C2642 C 0.08274 0.5353 0.12792 0.0
C2643 C 0.09164 0.52781 0.15488 0.0
loop_
_geom_bond_atom_site_label_1
_geom_bond_atom_site_label_2
_geom_bond_distance
_geom_bond_site_symmetry_2
_ccdc_geom_bond_type
Fe0 O2 1.918 . S
Fe0 O5 1.997 . S
Fe0 O6 2.002 . S
Fe0 O11 1.976 . S
Fe0 O14 1.996 . S
Fe1 O2 1.918 . S
Fe1 O9 1.997 . S
Fe1 O12 1.996 . S
Fe1 O16 1.976 . S
Fe1 O19 2.002 . S
O2 Fe0 1.918 . S
O2 Fe1 1.918 . S
O2 Fe3 1.918 . S
Fe3 O2 1.918 . S
Fe3 O4 2.002 . S
Fe3 O13 1.976 . S
Fe3 O17 1.996 . S
Fe3 O20 1.997 . S
O4 Fe3 2.002 . S
O4 C21 1.295 . S
O5 Fe0 1.997 . S
O5 C21 1.235 . S
O6 Fe0 2.002 . S
O6 C7 1.295 . S
C7 O6 1.295 . S
C7 O9 1.235 . S
C8 O13 1.287 . S
C8 O14 1.255 . S
O9 Fe1 1.997 . S
O9 C7 1.235 . S
C10 O16 1.287 . S
C10 O17 1.255 . S
O11 Fe0 1.976 . S
O11 C18 1.287 . S
O12 Fe1 1.996 . S
O12 C18 1.255 . S
O13 Fe3 1.976 . S
O13 C8 1.287 . S
O14 Fe0 1.996 . S
O14 C8 1.255 . S
C15 O19 1.295 . S
C15 O20 1.235 . S
O16 Fe1 1.976 . S
O16 C10 1.287 . S
O17 Fe3 1.996 . S
O17 C10 1.255 . S
C18 O11 1.287 . S
C18 O12 1.255 . S
O19 Fe1 2.002 . S
O19 C15 1.295 . S
O20 Fe3 1.997 . S
O20 C15 1.235 . S
C21 O4 1.295 . S
C21 O5 1.235 . S
Fe22 O24 1.918 . S
Fe22 O27 1.997 . S
Fe22 O28 2.002 . S
Fe22 O33 1.976 . S
Fe22 O36 1.996 . S
Fe23 O24 1.918 . S
Fe23 O31 1.997 . S
Fe23 O34 1.996 . S
Fe23 O38 1.976 . S
Fe23 O41 2.002 . S
O24 Fe22 1.918 . S
O24 Fe23 1.918 . S
O24 Fe25 1.918 . S
Fe25 O24 1.918 . S
Fe25 O26 2.002 . S
Fe25 O35 1.976 . S
Fe25 O39 1.996 . S
Fe25 O42 1.997 . S
O26 Fe25 2.002 . S
O26 C43 1.295 . S
O27 Fe22 1.997 . S
O27 C43 1.235 . S
O28 Fe22 2.002 . S
O28 C29 1.295 . S
C29 O28 1.295 . S
C29 O31 1.235 . S
C30 O35 1.287 . S
C30 O36 1.255 . S
O31 Fe23 1.997 . S
O31 C29 1.235 . S
C32 O38 1.287 . S
C32 O39 1.255 . S
O33 Fe22 1.976 . S
O33 C40 1.287 . S
O34 Fe23 1.996 . S
O34 C40 1.255 . S
O35 Fe25 1.976 . S
O35 C30 1.287 . S
O36 Fe22 1.996 . S
O36 C30 1.255 . S
C37 O41 1.295 . S
C37 O42 1.235 . S
O38 Fe23 1.976 . S
O38 C32 1.287 . S
O39 Fe25 1.996 . S
O39 C32 1.255 . S
C40 O33 1.287 . S
C40 O34 1.255 . S
O41 Fe23 2.002 . S
O41 C37 1.295 . S
O42 Fe25 1.997 . S
O42 C37 1.235 . S
C43 O26 1.295 . S
C43 O27 1.235 . S
Fe44 O46 1.918 . S
Fe44 O49 1.997 . S
Fe44 O50 2.002 . S
Fe44 O55 1.976 . S
Fe44 O58 1.996 . S
Fe45 O46 1.918 . S
Fe45 O53 1.997 . S
Fe45 O56 1.996 . S
Fe45 O60 1.976 . S
Fe45 O63 2.002 . S
O46 Fe44 1.918 . S
O46 Fe45 1.918 . S
O46 Fe47 1.918 . S
Fe47 O46 1.918 . S
Fe47 O48 2.002 . S
Fe47 O57 1.976 . S
Fe47 O61 1.996 . S
Fe47 O64 1.997 . S
O48 Fe47 2.002 . S
O48 C65 1.295 . S
O49 Fe44 1.997 . S
O49 C65 1.235 . S
O50 Fe44 2.002 . S
O50 C51 1.295 . S
C51 O50 1.295 . S
C51 O53 1.235 . S
C52 O57 1.287 . S
C52 O58 1.255 . S
O53 Fe45 1.997 . S
O53 C51 1.235 . S
C54 O60 1.287 . S
C54 O61 1.255 . S
O55 Fe44 1.976 . S
O55 C62 1.287 . S
O56 Fe45 1.996 . S
O56 C62 1.255 . S
O57 Fe47 1.976 . S
O57 C52 1.287 . S
O58 Fe44 1.996 . S
O58 C52 1.255 . S
C59 O63 1.295 . S
C59 O64 1.235 . S
O60 Fe45 1.976 . S
O60 C54 1.287 . S
O61 Fe47 1.996 . S
O61 C54 1.255 . S
C62 O55 1.287 . S
C62 O56 1.255 . S
O63 Fe45 2.002 . S
O63 C59 1.295 . S
O64 Fe47 1.997 . S
O64 C59 1.235 . S
C65 O48 1.295 . S
C65 O49 1.235 . S
Fe66 O68 1.918 . S
Fe66 O71 1.997 . S
Fe66 O72 2.002 . S
Fe66 O77 1.976 . S
Fe66 O80 1.996 . S
Fe67 O68 1.918 . S
Fe67 O75 1.997 . S
Fe67 O78 1.996 . S
Fe67 O82 1.976 . S
Fe67 O85 2.002 . S
O68 Fe66 1.918 . S
O68 Fe67 1.918 . S
O68 Fe69 1.918 . S
Fe69 O68 1.918 . S
Fe69 O70 2.002 . S
Fe69 O79 1.976 . S
Fe69 O83 1.996 . S
Fe69 O86 1.997 . S
O70 Fe69 2.002 . S
O70 C87 1.295 . S
O71 Fe66 1.997 . S
O71 C87 1.235 . S
O72 Fe66 2.002 . S
O72 C73 1.295 . S
C73 O72 1.295 . S
C73 O75 1.235 . S
C74 O79 1.287 . S
C74 O80 1.255 . S
O75 Fe67 1.997 . S
O75 C73 1.235 . S
C76 O82 1.287 . S
C76 O83 1.255 . S
O77 Fe66 1.976 . S
O77 C84 1.287 . S
O78 Fe67 1.996 . S
O78 C84 1.255 . S
O79 Fe69 1.976 . S
O79 C74 1.287 . S
O80 Fe66 1.996 . S
O80 C74 1.255 . S
C81 O85 1.295 . S
C81 O86 1.235 . S
O82 Fe67 1.976 . S
O82 C76 1.287 . S
O83 Fe69 1.996 . S
O83 C76 1.255 . S
C84 O77 1.287 . S
C84 O78 1.255 . S
O85 Fe67 2.002 . S
O85 C81 1.295 . S
O86 Fe69 1.997 . S
O86 C81 1.235 . S
C87 O70 1.295 . S
C87 O71 1.235 . S
Fe88 O90 1.918 . S
Fe88 O93 1.997 . S
Fe88 O94 2.002 . S
Fe88 O99 1.976 . S
Fe88 O102 1.996 . S
Fe89 O90 1.918 . S
Fe89 O97 1.997 . S
Fe89 O100 1.996 . S
Fe89 O104 1.976 . S
Fe89 O107 2.002 . S
O90 Fe88 1.918 . S
O90 Fe89 1.918 . S
O90 Fe91 1.918 . S
Fe91 O90 1.918 . S
Fe91 O92 2.002 . S
Fe91 O101 1.976 . S
Fe91 O105 1.996 . S
Fe91 O108 1.997 . S
O92 Fe91 2.002 . S
O92 C109 1.295 . S
O93 Fe88 1.997 . S
O93 C109 1.235 . S
O94 Fe88 2.002 . S
O94 C95 1.295 . S
C95 O94 1.295 . S
C95 O97 1.235 . S
C96 O101 1.287 . S
C96 O102 1.255 . S
O97 Fe89 1.997 . S
O97 C95 1.235 . S
C98 O104 1.287 . S
C98 O105 1.255 . S
O99 Fe88 1.976 . S
O99 C106 1.287 . S
O100 Fe89 1.996 . S
O100 C106 1.255 . S
O101 Fe91 1.976 . S
O101 C96 1.287 . S
O102 Fe88 1.996 . S
O102 C96 1.255 . S
C103 O107 1.295 . S
C103 O108 1.235 . S
O104 Fe89 1.976 . S
O104 C98 1.287 . S
O105 Fe91 1.996 . S
O105 C98 1.255 . S
C106 O99 1.287 . S
C106 O100 1.255 . S
O107 Fe89 2.002 . S
O107 C103 1.295 . S
O108 Fe91 1.997 . S
O108 C103 1.235 . S
C109 O92 1.295 . S
C109 O93 1.235 . S
Fe110 O112 1.918 . S
Fe110 O115 1.997 . S
Fe110 O116 2.002 . S
Fe110 O121 1.976 . S
Fe110 O124 1.996 . S
Fe111 O112 1.918 . S
Fe111 O119 1.997 . S
Fe111 O122 1.996 . S
Fe111 O126 1.976 . S
Fe111 O129 2.002 . S
O112 Fe110 1.918 . S
O112 Fe111 1.918 . S
O112 Fe113 1.918 . S
Fe113 O112 1.918 . S
Fe113 O114 2.002 . S
Fe113 O123 1.976 . S
Fe113 O127 1.996 . S
Fe113 O130 1.997 . S
O114 Fe113 2.002 . S
O114 C131 1.295 . S
O115 Fe110 1.997 . S
O115 C131 1.235 . S
O116 Fe110 2.002 . S
O116 C117 1.295 . S
C117 O116 1.295 . S
C117 O119 1.235 . S
C118 O123 1.287 . S
C118 O124 1.255 . S
O119 Fe111 1.997 . S
O119 C117 1.235 . S
C120 O126 1.287 . S
C120 O127 1.255 . S
O121 Fe110 1.976 . S
O121 C128 1.287 . S
O122 Fe111 1.996 . S
O122 C128 1.255 . S
O123 Fe113 1.976 . S
O123 C118 1.287 . S
O124 Fe110 1.996 . S
O124 C118 1.255 . S
C125 O129 1.295 . S
C125 O130 1.235 . S
O126 Fe111 1.976 . S
O126 C120 1.287 . S
O127 Fe113 1.996 . S
O127 C120 1.255 . S
C128 O121 1.287 . S
C128 O122 1.255 . S
O129 Fe111 2.002 . S
O129 C125 1.295 . S
O130 Fe113 1.997 . S
O130 C125 1.235 . S
C131 O114 1.295 . S
C131 O115 1.235 . S
Fe132 O134 1.918 . S
Fe132 O137 1.997 . S
Fe132 O138 2.002 . S
Fe132 O143 1.976 . S
Fe132 O146 1.996 . S
Fe133 O134 1.918 . S
Fe133 O141 1.997 . S
Fe133 O144 1.996 . S
Fe133 O148 1.976 . S
Fe133 O151 2.002 . S
O134 Fe132 1.918 . S
O134 Fe133 1.918 . S
O134 Fe135 1.918 . S
Fe135 O134 1.918 . S
Fe135 O136 2.002 . S
Fe135 O145 1.976 . S
Fe135 O149 1.996 . S
Fe135 O152 1.997 . S
O136 Fe135 2.002 . S
O136 C153 1.295 . S
O137 Fe132 1.997 . S
O137 C153 1.235 . S
O138 Fe132 2.002 . S
O138 C139 1.295 . S
C139 O138 1.295 . S
C139 O141 1.235 . S
C140 O145 1.287 . S
C140 O146 1.255 . S
O141 Fe133 1.997 . S
O141 C139 1.235 . S
C142 O148 1.287 . S
C142 O149 1.255 . S
O143 Fe132 1.976 . S
O143 C150 1.287 . S
O144 Fe133 1.996 . S
O144 C150 1.255 . S
O145 Fe135 1.976 . S
O145 C140 1.287 . S
O146 Fe132 1.996 . S
O146 C140 1.255 . S
C147 O151 1.295 . S
C147 O152 1.235 . S
O148 Fe133 1.976 . S
O148 C142 1.287 . S
O149 Fe135 1.996 . S
O149 C142 1.255 . S
C150 O143 1.287 . S
C150 O144 1.255 . S
O151 Fe133 2.002 . S
O151 C147 1.295 . S
O152 Fe135 1.997 . S
O152 C147 1.235 . S
C153 O136 1.295 . S
C153 O137 1.235 . S
Fe154 O156 1.918 . S
Fe154 O159 1.997 . S
Fe154 O160 2.002 . S
Fe154 O165 1.976 . S
Fe154 O168 1.996 . S
Fe155 O156 1.918 . S
Fe155 O163 1.997 . S
Fe155 O166 1.996 . S
Fe155 O170 1.976 . S
Fe155 O173 2.002 . S
O156 Fe154 1.918 . S
O156 Fe155 1.918 . S
O156 Fe157 1.918 . S
Fe157 O156 1.918 . S
Fe157 O158 2.002 . S
Fe157 O167 1.976 . S
Fe157 O171 1.996 . S
Fe157 O174 1.997 . S
O158 Fe157 2.002 . S
O158 C175 1.295 . S
O159 Fe154 1.997 . S
O159 C175 1.235 . S
O160 Fe154 2.002 . S
O160 C161 1.295 . S
C161 O160 1.295 . S
C161 O163 1.235 . S
C162 O167 1.287 . S
C162 O168 1.255 . S
O163 Fe155 1.997 . S
O163 C161 1.235 . S
C164 O170 1.287 . S
C164 O171 1.255 . S
O165 Fe154 1.976 . S
O165 C172 1.287 . S
O166 Fe155 1.996 . S
O166 C172 1.255 . S
O167 Fe157 1.976 . S
O167 C162 1.287 . S
O168 Fe154 1.996 . S
O168 C162 1.255 . S
C169 O173 1.295 . S
C169 O174 1.235 . S
O170 Fe155 1.976 . S
O170 C164 1.287 . S
O171 Fe157 1.996 . S
O171 C164 1.255 . S
C172 O165 1.287 . S
C172 O166 1.255 . S
O173 Fe155 2.002 . S
O173 C169 1.295 . S
O174 Fe157 1.997 . S
O174 C169 1.235 . S
C175 O158 1.295 . S
C175 O159 1.235 . S
Fe176 O178 1.918 . S
Fe176 O181 1.997 . S
Fe176 O182 2.002 . S
Fe176 O187 1.976 . S
Fe176 O190 1.996 . S
Fe177 O178 1.918 . S
Fe177 O185 1.997 . S
Fe177 O188 1.996 . S
Fe177 O192 1.976 . S
Fe177 O195 2.002 . S
O178 Fe176 1.918 . S
O178 Fe177 1.918 . S
O178 Fe179 1.918 . S
Fe179 O178 1.918 . S
Fe179 O180 2.002 . S
Fe179 O189 1.976 . S
Fe179 O193 1.996 . S
Fe179 O196 1.997 . S
O180 Fe179 2.002 . S
O180 C197 1.295 . S
O181 Fe176 1.997 . S
O181 C197 1.235 . S
O182 Fe176 2.002 . S
O182 C183 1.295 . S
C183 O182 1.295 . S
C183 O185 1.235 . S
C184 O189 1.287 . S
C184 O190 1.255 . S
O185 Fe177 1.997 . S
O185 C183 1.235 . S
C186 O192 1.287 . S
C186 O193 1.255 . S
O187 Fe176 1.976 . S
O187 C194 1.287 . S
O188 Fe177 1.996 . S
O188 C194 1.255 . S
O189 Fe179 1.976 . S
O189 C184 1.287 . S
O190 Fe176 1.996 . S
O190 C184 1.255 . S
C191 O195 1.295 . S
C191 O196 1.235 . S
O192 Fe177 1.976 . S
O192 C186 1.287 . S
O193 Fe179 1.996 . S
O193 C186 1.255 . S
C194 O187 1.287 . S
C194 O188 1.255 . S
O195 Fe177 2.002 . S
O195 C191 1.295 . S
O196 Fe179 1.997 . S
O196 C191 1.235 . S
C197 O180 1.295 . S
C197 O181 1.235 . S
Fe198 O200 1.918 . S
Fe198 O203 1.997 . S
Fe198 O204 2.002 . S
Fe198 O209 1.976 . S
Fe198 O212 1.996 . S
Fe199 O200 1.918 . S
Fe199 O207 1.997 . S
Fe199 O210 1.996 . S
Fe199 O214 1.976 . S
Fe199 O217 2.002 . S
O200 Fe198 1.918 . S
O200 Fe199 1.918 . S
O200 Fe201 1.918 . S
Fe201 O200 1.918 . S
Fe201 O202 2.002 . S
Fe201 O211 1.976 . S
Fe201 O215 1.996 . S
Fe201 O218 1.997 . S
O202 Fe201 2.002 . S
O202 C219 1.295 . S
O203 Fe198 1.997 . S
O203 C219 1.235 . S
O204 Fe198 2.002 . S
O204 C205 1.295 . S
C205 O204 1.295 . S
C205 O207 1.235 . S
C206 O211 1.287 . S
C206 O212 1.255 . S
O207 Fe199 1.997 . S
O207 C205 1.235 . S
C208 O214 1.287 . S
C208 O215 1.255 . S
O209 Fe198 1.976 . S
O209 C216 1.287 . S
O210 Fe199 1.996 . S
O210 C216 1.255 . S
O211 Fe201 1.976 . S
O211 C206 1.287 . S
O212 Fe198 1.996 . S
O212 C206 1.255 . S
C213 O217 1.295 . S
C213 O218 1.235 . S
O214 Fe199 1.976 . S
O214 C208 1.287 . S
O215 Fe201 1.996 . S
O215 C208 1.255 . S
C216 O209 1.287 . S
C216 O210 1.255 . S
O217 Fe199 2.002 . S
O217 C213 1.295 . S
O218 Fe201 1.997 . S
O218 C213 1.235 . S
C219 O202 1.295 . S
C219 O203 1.235 . S
Fe220 O222 1.918 . S
Fe220 O225 1.997 . S
Fe220 O226 2.002 . S
Fe220 O231 1.976 . S
Fe220 O234 1.996 . S
Fe221 O222 1.918 . S
Fe221 O229 1.997 . S
Fe221 O232 1.996 . S
Fe221 O236 1.976 . S
Fe221 O239 2.002 . S
O222 Fe220 1.918 . S
O222 Fe221 1.918 . S
O222 Fe223 1.918 . S
Fe223 O222 1.918 . S
Fe223 O224 2.002 . S
Fe223 O233 1.976 . S
Fe223 O237 1.996 . S
Fe223 O240 1.997 . S
O224 Fe223 2.002 . S
O224 C241 1.295 . S
O225 Fe220 1.997 . S
O225 C241 1.235 . S
O226 Fe220 2.002 . S
O226 C227 1.295 . S
C227 O226 1.295 . S
C227 O229 1.235 . S
C228 O233 1.287 . S
C228 O234 1.255 . S
O229 Fe221 1.997 . S
O229 C227 1.235 . S
C230 O236 1.287 . S
C230 O237 1.255 . S
O231 Fe220 1.976 . S
O231 C238 1.287 . S
O232 Fe221 1.996 . S
O232 C238 1.255 . S
O233 Fe223 1.976 . S
O233 C228 1.287 . S
O234 Fe220 1.996 . S
O234 C228 1.255 . S
C235 O239 1.295 . S
C235 O240 1.235 . S
O236 Fe221 1.976 . S
O236 C230 1.287 . S
O237 Fe223 1.996 . S
O237 C230 1.255 . S
C238 O231 1.287 . S
C238 O232 1.255 . S
O239 Fe221 2.002 . S
O239 C235 1.295 . S
O240 Fe223 1.997 . S
O240 C235 1.235 . S
C241 O224 1.295 . S
C241 O225 1.235 . S
Fe242 O244 1.918 . S
Fe242 O247 1.997 . S
Fe242 O248 2.002 . S
Fe242 O253 1.976 . S
Fe242 O256 1.996 . S
Fe243 O244 1.918 . S
Fe243 O251 1.997 . S
Fe243 O254 1.996 . S
Fe243 O258 1.976 . S
Fe243 O261 2.002 . S
O244 Fe242 1.918 . S
O244 Fe243 1.918 . S
O244 Fe245 1.918 . S
Fe245 O244 1.918 . S
Fe245 O246 2.002 . S
Fe245 O255 1.976 . S
Fe245 O259 1.996 . S
Fe245 O262 1.997 . S
O246 Fe245 2.002 . S
O246 C263 1.295 . S
O247 Fe242 1.997 . S
O247 C263 1.235 . S
O248 Fe242 2.002 . S
O248 C249 1.295 . S
C249 O248 1.295 . S
C249 O251 1.235 . S
C250 O255 1.287 . S
C250 O256 1.255 . S
O251 Fe243 1.997 . S
O251 C249 1.235 . S
C252 O258 1.287 . S
C252 O259 1.255 . S
O253 Fe242 1.976 . S
O253 C260 1.287 . S
O254 Fe243 1.996 . S
O254 C260 1.255 . S
O255 Fe245 1.976 . S
O255 C250 1.287 . S
O256 Fe242 1.996 . S
O256 C250 1.255 . S
C257 O261 1.295 . S
C257 O262 1.235 . S
O258 Fe243 1.976 . S
O258 C252 1.287 . S
O259 Fe245 1.996 . S
O259 C252 1.255 . S
C260 O253 1.287 . S
C260 O254 1.255 . S
O261 Fe243 2.002 . S
O261 C257 1.295 . S
O262 Fe245 1.997 . S
O262 C257 1.235 . S
C263 O246 1.295 . S
C263 O247 1.235 . S
Fe264 O266 1.918 . S
Fe264 O269 1.997 . S
Fe264 O270 2.002 . S
Fe264 O275 1.976 . S
Fe264 O278 1.996 . S
Fe265 O266 1.918 . S
Fe265 O273 1.997 . S
Fe265 O276 1.996 . S
Fe265 O280 1.976 . S
Fe265 O283 2.002 . S
O266 Fe264 1.918 . S
O266 Fe265 1.918 . S
O266 Fe267 1.918 . S
Fe267 O266 1.918 . S
Fe267 O268 2.002 . S
Fe267 O277 1.976 . S
Fe267 O281 1.996 . S
Fe267 O284 1.997 . S
O268 Fe267 2.002 . S
O268 C285 1.295 . S
O269 Fe264 1.997 . S
O269 C285 1.235 . S
O270 Fe264 2.002 . S
O270 C271 1.295 . S
C271 O270 1.295 . S
C271 O273 1.235 . S
C272 O277 1.287 . S
C272 O278 1.255 . S
O273 Fe265 1.997 . S
O273 C271 1.235 . S
C274 O280 1.287 . S
C274 O281 1.255 . S
O275 Fe264 1.976 . S
O275 C282 1.287 . S
O276 Fe265 1.996 . S
O276 C282 1.255 . S
O277 Fe267 1.976 . S
O277 C272 1.287 . S
O278 Fe264 1.996 . S
O278 C272 1.255 . S
C279 O283 1.295 . S
C279 O284 1.235 . S
O280 Fe265 1.976 . S
O280 C274 1.287 . S
O281 Fe267 1.996 . S
O281 C274 1.255 . S
C282 O275 1.287 . S
C282 O276 1.255 . S
O283 Fe265 2.002 . S
O283 C279 1.295 . S
O284 Fe267 1.997 . S
O284 C279 1.235 . S
C285 O268 1.295 . S
C285 O269 1.235 . S
Fe286 O288 1.918 . S
Fe286 O291 1.997 . S
Fe286 O292 2.002 . S
Fe286 O297 1.976 . S
Fe286 O300 1.996 . S
Fe287 O288 1.918 . S
Fe287 O295 1.997 . S
Fe287 O298 1.996 . S
Fe287 O302 1.976 . S
Fe287 O305 2.002 . S
O288 Fe286 1.918 . S
O288 Fe287 1.918 . S
O288 Fe289 1.918 . S
Fe289 O288 1.918 . S
Fe289 O290 2.002 . S
Fe289 O299 1.976 . S
Fe289 O303 1.996 . S
Fe289 O306 1.997 . S
O290 Fe289 2.002 . S
O290 C307 1.295 . S
O291 Fe286 1.997 . S
O291 C307 1.235 . S
O292 Fe286 2.002 . S
O292 C293 1.295 . S
C293 O292 1.295 . S
C293 O295 1.235 . S
C294 O299 1.287 . S
C294 O300 1.255 . S
O295 Fe287 1.997 . S
O295 C293 1.235 . S
C296 O302 1.287 . S
C296 O303 1.255 . S
O297 Fe286 1.976 . S
O297 C304 1.287 . S
O298 Fe287 1.996 . S
O298 C304 1.255 . S
O299 Fe289 1.976 . S
O299 C294 1.287 . S
O300 Fe286 1.996 . S
O300 C294 1.255 . S
C301 O305 1.295 . S
C301 O306 1.235 . S
O302 Fe287 1.976 . S
O302 C296 1.287 . S
O303 Fe289 1.996 . S
O303 C296 1.255 . S
C304 O297 1.287 . S
C304 O298 1.255 . S
O305 Fe287 2.002 . S
O305 C301 1.295 . S
O306 Fe289 1.997 . S
O306 C301 1.235 . S
C307 O290 1.295 . S
C307 O291 1.235 . S
Fe308 O310 1.918 . S
Fe308 O313 1.997 . S
Fe308 O314 2.002 . S
Fe308 O319 1.976 . S
Fe308 O322 1.996 . S
Fe309 O310 1.918 . S
Fe309 O317 1.997 . S
Fe309 O320 1.996 . S
Fe309 O324 1.976 . S
Fe309 O327 2.002 . S
O310 Fe308 1.918 . S
O310 Fe309 1.918 . S
O310 Fe311 1.918 . S
Fe311 O310 1.918 . S
Fe311 O312 2.002 . S
Fe311 O321 1.976 . S
Fe311 O325 1.996 . S
Fe311 O328 1.997 . S
O312 Fe311 2.002 . S
O312 C329 1.295 . S
O313 Fe308 1.997 . S
O313 C329 1.235 . S
O314 Fe308 2.002 . S
O314 C315 1.295 . S
C315 O314 1.295 . S
C315 O317 1.235 . S
C316 O321 1.287 . S
C316 O322 1.255 . S
O317 Fe309 1.997 . S
O317 C315 1.235 . S
C318 O324 1.287 . S
C318 O325 1.255 . S
O319 Fe308 1.976 . S
O319 C326 1.287 . S
O320 Fe309 1.996 . S
O320 C326 1.255 . S
O321 Fe311 1.976 . S
O321 C316 1.287 . S
O322 Fe308 1.996 . S
O322 C316 1.255 . S
C323 O327 1.295 . S
C323 O328 1.235 . S
O324 Fe309 1.976 . S
O324 C318 1.287 . S
O325 Fe311 1.996 . S
O325 C318 1.255 . S
C326 O319 1.287 . S
C326 O320 1.255 . S
O327 Fe309 2.002 . S
O327 C323 1.295 . S
O328 Fe311 1.997 . S
O328 C323 1.235 . S
C329 O312 1.295 . S
C329 O313 1.235 . S
Fe330 O332 1.918 . S
Fe330 O335 1.997 . S
Fe330 O336 2.002 . S
Fe330 O341 1.976 . S
Fe330 O344 1.996 . S
Fe331 O332 1.918 . S
Fe331 O339 1.997 . S
Fe331 O342 1.996 . S
Fe331 O346 1.976 . S
Fe331 O349 2.002 . S
O332 Fe330 1.918 . S
O332 Fe331 1.918 . S
O332 Fe333 1.918 . S
Fe333 O332 1.918 . S
Fe333 O334 2.002 . S
Fe333 O343 1.976 . S
Fe333 O347 1.996 . S
Fe333 O350 1.997 . S
O334 Fe333 2.002 . S
O334 C351 1.295 . S
O335 Fe330 1.997 . S
O335 C351 1.235 . S
O336 Fe330 2.002 . S
O336 C337 1.295 . S
C337 O336 1.295 . S
C337 O339 1.235 . S
C338 O343 1.287 . S
C338 O344 1.255 . S
O339 Fe331 1.997 . S
O339 C337 1.235 . S
C340 O346 1.287 . S
C340 O347 1.255 . S
O341 Fe330 1.976 . S
O341 C348 1.287 . S
O342 Fe331 1.996 . S
O342 C348 1.255 . S
O343 Fe333 1.976 . S
O343 C338 1.287 . S
O344 Fe330 1.996 . S
O344 C338 1.255 . S
C345 O349 1.295 . S
C345 O350 1.235 . S
O346 Fe331 1.976 . S
O346 C340 1.287 . S
O347 Fe333 1.996 . S
O347 C340 1.255 . S
C348 O341 1.287 . S
C348 O342 1.255 . S
O349 Fe331 2.002 . S
O349 C345 1.295 . S
O350 Fe333 1.997 . S
O350 C345 1.235 . S
C351 O334 1.295 . S
C351 O335 1.235 . S
C352 O379 1.312 . S
C352 O380 1.208 . S
C353 O374 1.331 . S
C353 O377 1.244 . S
C354 O376 1.264 . S
C354 O378 1.273 . S
Mg355 O357 1.936 1_455 S
Mg355 O364 2.081 1_455 S
Mg355 O366 2.023 . S
Mg355 O370 2.031 . S
Mg355 O379 2.291 . S
Mg356 O357 1.963 . S
Mg356 O367 1.942 . S
Mg356 O368 1.955 1_655 S
Mg356 O375 1.986 . S
O357 Mg355 1.936 1_655 S
O357 Mg356 1.963 . S
O357 Mg358 1.924 . S
Mg358 O357 1.924 . S
Mg358 O359 1.906 1_655 S
Mg358 O363 2.002 1_655 S
Mg358 O369 2.119 . S
Mg358 O373 2.050 . S
Mg358 O379 2.080 1_655 S
O359 Mg358 1.906 1_455 S
O359 Mg360 1.936 . S
O359 Mg361 1.963 1_455 S
Mg360 O359 1.936 . S
Mg360 O369 2.291 1_455 S
Mg360 O374 2.081 . S
Mg360 O376 2.023 1_455 S
Mg360 O380 2.031 . S
Mg361 O359 1.963 1_655 S
Mg361 O365 1.986 1_655 S
Mg361 O377 1.942 1_655 S
Mg361 O378 1.955 . S
C362 O373 1.191 . S
C362 O375 1.307 . S
O363 Mg358 2.002 1_455 S
O363 C382 1.191 . S
O364 Mg355 2.081 1_655 S
O364 C372 1.331 . S
O365 Mg361 1.986 1_455 S
O365 C382 1.307 . S
O366 Mg355 2.023 . S
O366 C381 1.264 . S
O367 Mg356 1.942 . S
O367 C372 1.244 . S
O368 Mg356 1.955 1_455 S
O368 C381 1.273 . S
O369 Mg358 2.119 . S
O369 Mg360 2.291 1_655 S
O369 C371 1.312 . S
O370 Mg355 2.031 . S
O370 C371 1.209 1_455 S
C371 O369 1.312 . S
C371 O370 1.209 1_655 S
C372 O364 1.331 . S
C372 O367 1.244 . S
O373 Mg358 2.050 . S
O373 C362 1.191 . S
O374 C353 1.331 . S
O374 Mg360 2.081 . S
O375 Mg356 1.986 . S
O375 C362 1.307 . S
O376 C354 1.264 . S
O376 Mg360 2.023 1_655 S
O377 C353 1.244 . S
O377 Mg361 1.942 1_455 S
O378 C354 1.273 . S
O378 Mg361 1.955 . S
O379 C352 1.312 . S
O379 Mg355 2.291 . S
O379 Mg358 2.080 1_455 S
O380 C352 1.208 . S
O380 Mg360 2.031 . S
C381 O366 1.264 . S
C381 O368 1.273 . S
C382 O363 1.191 . S
C382 O365 1.307 . S
C383 O410 1.312 . S
C383 O411 1.208 . S
C384 O405 1.331 . S
C384 O408 1.244 . S
C385 O407 1.264 . S
C385 O409 1.273 . S
Mg386 O388 1.936 . S
Mg386 O395 2.081 . S
Mg386 O397 2.023 . S
Mg386 O401 2.031 . S
Mg386 O410 2.291 . S
Mg387 O388 1.963 . S
Mg387 O398 1.942 . S
Mg387 O399 1.955 . S
Mg387 O406 1.986 . S
O388 Mg386 1.936 . S
O388 Mg387 1.963 . S
O388 Mg389 1.915 . S
Mg389 O388 1.915 . S
Mg389 O390 1.915 . S
Mg389 O394 2.013 . S
Mg389 O400 2.114 . S
Mg389 O404 2.013 . S
Mg389 O410 2.114 . S
O390 Mg389 1.915 . S
O390 Mg391 1.936 . S
O390 Mg392 1.963 . S
Mg391 O390 1.936 . S
Mg391 O400 2.291 . S
Mg391 O405 2.081 . S
Mg391 O407 2.023 . S
Mg391 O411 2.031 . S
Mg392 O390 1.963 . S
Mg392 O396 1.986 . S
Mg392 O408 1.942 . S
Mg392 O409 1.955 . S
C393 O404 1.191 . S
C393 O406 1.307 . S
O394 Mg389 2.013 . S
O394 C413 1.191 . S
O395 Mg386 2.081 . S
O395 C403 1.331 . S
O396 Mg392 1.986 . S
O396 C413 1.307 . S
O397 Mg386 2.023 . S
O397 C412 1.264 . S
O398 Mg387 1.942 . S
O398 C403 1.244 . S
O399 Mg387 1.955 . S
O399 C412 1.273 . S
O400 Mg389 2.114 . S
O400 Mg391 2.291 . S
O400 C402 1.312 . S
O401 Mg386 2.031 . S
O401 C402 1.208 . S
C402 O400 1.312 . S
C402 O401 1.208 . S
C403 O395 1.331 . S
C403 O398 1.244 . S
O404 Mg389 2.013 . S
O404 C393 1.191 . S
O405 C384 1.331 . S
O405 Mg391 2.081 . S
O406 Mg387 1.986 . S
O406 C393 1.307 . S
O407 C385 1.264 . S
O407 Mg391 2.023 . S
O408 C384 1.244 . S
O408 Mg392 1.942 . S
O409 C385 1.273 . S
O409 Mg392 1.955 . S
O410 C383 1.312 . S
O410 Mg386 2.291 . S
O410 Mg389 2.114 . S
O411 C383 1.208 . S
O411 Mg391 2.031 . S
C412 O397 1.264 . S
C412 O399 1.273 . S
C413 O394 1.191 . S
C413 O396 1.307 . S
C414 O441 1.312 . S
C414 O442 1.212 . S
C415 O436 1.331 . S
C415 O439 1.244 . S
C416 O438 1.264 . S
C416 O440 1.273 . S
Mg417 O419 1.936 . S
Mg417 O426 2.081 . S
Mg417 O428 2.023 1_455 S
Mg417 O432 2.031 . S
Mg417 O441 2.291 1_455 S
Mg418 O419 1.963 1_655 S
Mg418 O429 1.942 1_655 S
Mg418 O430 1.955 . S
Mg418 O437 1.986 1_655 S
O419 Mg417 1.936 . S
O419 Mg418 1.963 1_455 S
O419 Mg420 1.915 1_455 S
Mg420 O419 1.915 1_655 S
Mg420 O421 1.915 . S
Mg420 O425 2.013 . S
Mg420 O431 2.114 1_655 S
Mg420 O435 2.013 1_655 S
Mg420 O441 2.114 . S
O421 Mg420 1.915 . S
O421 Mg422 1.936 1_655 S
O421 Mg423 1.963 . S
Mg422 O421 1.936 1_455 S
Mg422 O431 2.291 . S
Mg422 O436 2.081 1_455 S
Mg422 O438 2.023 . S
Mg422 O442 2.028 1_455 S
Mg423 O421 1.963 . S
Mg423 O427 1.986 . S
Mg423 O439 1.942 . S
Mg423 O440 1.955 1_655 S
C424 O435 1.191 . S
C424 O437 1.307 . S
O425 Mg420 2.013 . S
O425 C444 1.191 . S
O426 Mg417 2.081 . S
O426 C434 1.331 . S
O427 Mg423 1.986 . S
O427 C444 1.307 . S
O428 Mg417 2.023 1_655 S
O428 C443 1.264 . S
O429 Mg418 1.942 1_455 S
O429 C434 1.244 . S
O430 Mg418 1.955 . S
O430 C443 1.273 . S
O431 Mg420 2.114 1_455 S
O431 Mg422 2.291 . S
O431 C433 1.312 . S
O432 Mg417 2.031 . S
O432 C433 1.208 . S
C433 O431 1.312 . S
C433 O432 1.208 . S
C434 O426 1.331 . S
C434 O429 1.244 . S
O435 Mg420 2.013 1_455 S
O435 C424 1.191 . S
O436 C415 1.331 . S
O436 Mg422 2.081 1_655 S
O437 Mg418 1.986 1_455 S
O437 C424 1.307 . S
O438 C416 1.264 . S
O438 Mg422 2.023 . S
O439 C415 1.244 . S
O439 Mg423 1.942 . S
O440 C416 1.273 . S
O440 Mg423 1.955 1_455 S
O441 C414 1.312 . S
O441 Mg417 2.291 1_655 S
O441 Mg420 2.114 . S
O442 C414 1.212 . S
O442 Mg422 2.028 1_655 S
C443 O428 1.264 . S
C443 O430 1.273 . S
C444 O425 1.191 . S
C444 O427 1.307 . S
C445 O472 1.312 . S
C445 O473 1.208 . S
C446 O467 1.331 . S
C446 O470 1.244 . S
C447 O469 1.264 . S
C447 O471 1.273 . S
Mg448 O450 1.936 . S
Mg448 O457 2.081 . S
Mg448 O459 2.023 1_545 S
Mg448 O463 2.031 . S
Mg448 O472 2.291 1_545 S
Mg449 O450 1.963 1_565 S
Mg449 O460 1.942 1_565 S
Mg449 O461 1.955 . S
Mg449 O468 1.986 1_565 S
O450 Mg448 1.936 . S
O450 Mg449 1.963 1_545 S
O450 Mg451 1.915 1_545 S
Mg451 O450 1.915 1_565 S
Mg451 O452 1.915 . S
Mg451 O456 2.013 . S
Mg451 O462 2.114 1_565 S
Mg451 O466 2.013 1_565 S
Mg451 O472 2.114 . S
O452 Mg451 1.915 . S
O452 Mg453 1.936 1_565 S
O452 Mg454 1.963 . S
Mg453 O452 1.936 1_545 S
Mg453 O462 2.291 . S
Mg453 O467 2.081 1_545 S
Mg453 O469 2.023 . S
Mg453 O473 2.031 1_545 S
Mg454 O452 1.963 . S
Mg454 O458 1.986 . S
Mg454 O470 1.942 . S
Mg454 O471 1.955 1_565 S
C455 O466 1.191 . S
C455 O468 1.307 . S
O456 Mg451 2.013 . S
O456 C475 1.191 . S
O457 Mg448 2.081 . S
O457 C465 1.331 . S
O458 Mg454 1.986 . S
O458 C475 1.307 . S
O459 Mg448 2.023 1_565 S
O459 C474 1.264 . S
O460 Mg449 1.942 1_545 S
O460 C465 1.244 . S
O461 Mg449 1.955 . S
O461 C474 1.273 . S
O462 Mg451 2.114 1_545 S
O462 Mg453 2.291 . S
O462 C464 1.312 . S
O463 Mg448 2.031 . S
O463 C464 1.208 . S
C464 O462 1.312 . S
C464 O463 1.208 . S
C465 O457 1.331 . S
C465 O460 1.244 . S
O466 Mg451 2.013 1_545 S
O466 C455 1.191 . S
O467 C446 1.331 . S
O467 Mg453 2.081 1_565 S
O468 Mg449 1.986 1_545 S
O468 C455 1.307 . S
O469 C447 1.264 . S
O469 Mg453 2.023 . S
O470 C446 1.244 . S
O470 Mg454 1.942 . S
O471 C447 1.273 . S
O471 Mg454 1.955 1_545 S
O472 C445 1.312 . S
O472 Mg448 2.291 1_565 S
O472 Mg451 2.114 . S
O473 C445 1.208 . S
O473 Mg453 2.031 1_565 S
C474 O459 1.264 . S
C474 O461 1.273 . S
C475 O456 1.191 . S
C475 O458 1.307 . S
C476 O503 1.312 . S
C476 O504 1.208 . S
C477 O498 1.331 . S
C477 O501 1.244 . S
C478 O500 1.264 . S
C478 O502 1.273 . S
Mg479 O481 1.936 1_554 S
Mg479 O488 2.081 1_554 S
Mg479 O490 2.023 . S
Mg479 O494 2.029 1_554 S
Mg479 O503 2.291 . S
Mg480 O481 1.963 . S
Mg480 O491 1.942 . S
Mg480 O492 1.955 1_556 S
Mg480 O499 1.986 . S
O481 Mg479 1.936 1_556 S
O481 Mg480 1.963 . S
O481 Mg482 1.915 . S
Mg482 O481 1.915 . S
Mg482 O483 1.915 1_556 S
Mg482 O487 2.013 1_556 S
Mg482 O493 2.114 . S
Mg482 O497 2.013 . S
Mg482 O503 2.114 1_556 S
O483 Mg482 1.915 1_554 S
O483 Mg484 1.936 . S
O483 Mg485 1.963 1_554 S
Mg484 O483 1.936 . S
Mg484 O493 2.291 1_554 S
Mg484 O498 2.081 . S
Mg484 O500 2.023 1_554 S
Mg484 O504 2.031 . S
Mg485 O483 1.963 1_556 S
Mg485 O489 1.986 1_556 S
Mg485 O501 1.942 1_556 S
Mg485 O502 1.955 . S
C486 O497 1.191 . S
C486 O499 1.307 . S
O487 Mg482 2.013 1_554 S
O487 C506 1.191 . S
O488 Mg479 2.081 1_556 S
O488 C496 1.331 . S
O489 Mg485 1.986 1_554 S
O489 C506 1.307 . S
O490 Mg479 2.023 . S
O490 C505 1.264 . S
O491 Mg480 1.942 . S
O491 C496 1.244 . S
O492 Mg480 1.955 1_554 S
O492 C505 1.273 . S
O493 Mg482 2.114 . S
O493 Mg484 2.291 1_556 S
O493 C495 1.312 . S
O494 Mg479 2.029 1_556 S
O494 C495 1.210 . S
C495 O493 1.312 . S
C495 O494 1.210 . S
C496 O488 1.331 . S
C496 O491 1.244 . S
O497 Mg482 2.013 . S
O497 C486 1.191 . S
O498 C477 1.331 . S
O498 Mg484 2.081 . S
O499 Mg480 1.986 . S
O499 C486 1.307 . S
O500 C478 1.264 . S
O500 Mg484 2.023 1_556 S
O501 C477 1.244 . S
O501 Mg485 1.942 1_554 S
O502 C478 1.273 . S
O502 Mg485 1.955 . S
O503 C476 1.312 . S
O503 Mg479 2.291 . S
O503 Mg482 2.114 1_554 S
O504 C476 1.208 . S
O504 Mg484 2.031 . S
C505 O490 1.264 . S
C505 O492 1.273 . S
C506 O487 1.191 . S
C506 O489 1.307 . S
C507 O534 1.312 . S
C507 O535 1.208 . S
C508 O529 1.331 . S
C508 O532 1.244 . S
C509 O531 1.264 . S
C509 O533 1.273 . S
Mg510 O512 1.936 . S
Mg510 O519 2.081 . S
Mg510 O521 2.023 . S
Mg510 O525 2.031 . S
Mg510 O534 2.291 . S
Mg511 O512 1.963 . S
Mg511 O522 1.942 . S
Mg511 O523 1.955 . S
Mg511 O530 1.986 . S
O512 Mg510 1.936 . S
O512 Mg511 1.963 . S
O512 Mg513 1.915 . S
Mg513 O512 1.915 . S
Mg513 O514 1.915 . S
Mg513 O518 2.013 . S
Mg513 O524 2.114 . S
Mg513 O528 2.013 . S
Mg513 O534 2.114 . S
O514 Mg513 1.915 . S
O514 Mg515 1.936 . S
O514 Mg516 1.963 . S
Mg515 O514 1.936 . S
Mg515 O524 2.291 . S
Mg515 O529 2.081 . S
Mg515 O531 2.023 . S
Mg515 O535 2.031 . S
Mg516 O514 1.963 . S
Mg516 O520 1.986 . S
Mg516 O532 1.942 . S
Mg516 O533 1.955 . S
C517 O528 1.191 . S
C517 O530 1.307 . S
O518 Mg513 2.013 . S
O518 C537 1.191 . S
O519 Mg510 2.081 . S
O519 C527 1.331 . S
O520 Mg516 1.986 . S
O520 C537 1.307 . S
O521 Mg510 2.023 . S
O521 C536 1.264 . S
O522 Mg511 1.942 . S
O522 C527 1.244 . S
O523 Mg511 1.955 . S
O523 C536 1.273 . S
O524 Mg513 2.114 . S
O524 Mg515 2.291 . S
O524 C526 1.312 . S
O525 Mg510 2.031 . S
O525 C526 1.208 . S
C526 O524 1.312 . S
C526 O525 1.208 . S
C527 O519 1.331 . S
C527 O522 1.244 . S
O528 Mg513 2.013 . S
O528 C517 1.191 . S
O529 C508 1.331 . S
O529 Mg515 2.081 . S
O530 Mg511 1.986 . S
O530 C517 1.307 . S
O531 C509 1.264 . S
O531 Mg515 2.023 . S
O532 C508 1.244 . S
O532 Mg516 1.942 . S
O533 C509 1.273 . S
O533 Mg516 1.955 . S
O534 C507 1.312 . S
O534 Mg510 2.291 . S
O534 Mg513 2.114 . S
O535 C507 1.208 . S
O535 Mg515 2.031 . S
C536 O521 1.264 . S
C536 O523 1.273 . S
C537 O518 1.191 . S
C537 O520 1.307 . S
C538 O565 1.312 . S
C538 O566 1.208 . S
C539 O560 1.331 . S
C539 O563 1.244 . S
C540 O562 1.264 . S
C540 O564 1.273 . S
Mg541 O543 1.936 . S
Mg541 O550 2.081 . S
Mg541 O552 2.023 1_556 S
Mg541 O556 2.031 . S
Mg541 O565 2.291 1_556 S
Mg542 O543 1.963 1_554 S
Mg542 O553 1.942 1_554 S
Mg542 O554 1.955 . S
Mg542 O561 1.986 1_554 S
O543 Mg541 1.936 . S
O543 Mg542 1.963 1_556 S
O543 Mg544 1.915 1_556 S
Mg544 O543 1.915 1_554 S
Mg544 O545 1.915 . S
Mg544 O549 2.013 . S
Mg544 O555 2.114 1_554 S
Mg544 O559 2.013 1_554 S
Mg544 O565 2.114 . S
O545 Mg544 1.915 . S
O545 Mg546 1.936 1_554 S
O545 Mg547 1.963 . S
Mg546 O545 1.936 1_556 S
Mg546 O555 2.291 . S
Mg546 O560 2.081 1_556 S
Mg546 O562 2.023 . S
Mg546 O566 2.031 1_556 S
Mg547 O545 1.963 . S
Mg547 O551 1.986 . S
Mg547 O563 1.942 . S
Mg547 O564 1.955 1_554 S
C548 O559 1.191 . S
C548 O561 1.307 . S
O549 Mg544 2.013 . S
O549 C568 1.191 . S
O550 Mg541 2.081 . S
O550 C558 1.331 . S
O551 Mg547 1.986 . S
O551 C568 1.307 . S
O552 Mg541 2.023 1_554 S
O552 C567 1.264 . S
O553 Mg542 1.942 1_556 S
O553 C558 1.244 . S
O554 Mg542 1.955 . S
O554 C567 1.273 . S
O555 Mg544 2.114 1_556 S
O555 Mg546 2.291 . S
O555 C557 1.312 . S
O556 Mg541 2.031 . S
O556 C557 1.208 . S
C557 O555 1.312 . S
C557 O556 1.208 . S
C558 O550 1.331 . S
C558 O553 1.244 . S
O559 Mg544 2.013 1_556 S
O559 C548 1.191 . S
O560 C539 1.331 . S
O560 Mg546 2.081 1_554 S
O561 Mg542 1.986 1_556 S
O561 C548 1.307 . S
O562 C540 1.264 . S
O562 Mg546 2.023 . S
O563 C539 1.244 . S
O563 Mg547 1.942 . S
O564 C540 1.273 . S
O564 Mg547 1.955 1_556 S
O565 C538 1.312 . S
O565 Mg541 2.291 1_554 S
O565 Mg544 2.114 . S
O566 C538 1.208 . S
O566 Mg546 2.031 1_554 S
C567 O552 1.264 . S
C567 O554 1.273 . S
C568 O549 1.191 . S
C568 O551 1.307 . S
C569 O596 1.312 . S
C569 O597 1.208 . S
C570 O591 1.331 . S
C570 O594 1.244 . S
C571 O593 1.264 . S
C571 O595 1.273 . S
Mg572 O574 1.936 . S
Mg572 O581 2.081 . S
Mg572 O583 2.023 . S
Mg572 O587 2.031 . S
Mg572 O596 2.291 . S
Mg573 O574 1.963 . S
Mg573 O584 1.942 . S
Mg573 O585 1.955 . S
Mg573 O592 1.986 . S
O574 Mg572 1.936 . S
O574 Mg573 1.963 . S
O574 Mg575 1.915 . S
Mg575 O574 1.915 . S
Mg575 O576 1.915 . S
Mg575 O580 2.013 . S
Mg575 O586 2.114 . S
Mg575 O590 2.013 . S
Mg575 O596 2.114 . S
O576 Mg575 1.915 . S
O576 Mg577 1.936 . S
O576 Mg578 1.963 . S
Mg577 O576 1.936 . S
Mg577 O586 2.291 . S
Mg577 O591 2.081 . S
Mg577 O593 2.023 . S
Mg577 O597 2.031 . S
Mg578 O576 1.963 . S
Mg578 O582 1.986 . S
Mg578 O594 1.942 . S
Mg578 O595 1.955 . S
C579 O590 1.191 . S
C579 O592 1.307 . S
O580 Mg575 2.013 . S
O580 C599 1.191 . S
O581 Mg572 2.081 . S
O581 C589 1.331 . S
O582 Mg578 1.986 . S
O582 C599 1.307 . S
O583 Mg572 2.023 . S
O583 C598 1.264 . S
O584 Mg573 1.942 . S
O584 C589 1.244 . S
O585 Mg573 1.955 . S
O585 C598 1.273 . S
O586 Mg575 2.114 . S
O586 Mg577 2.291 . S
O586 C588 1.312 . S
O587 Mg572 2.031 . S
O587 C588 1.208 . S
C588 O586 1.312 . S
C588 O587 1.208 . S
C589 O581 1.331 . S
C589 O584 1.244 . S
O590 Mg575 2.013 . S
O590 C579 1.191 . S
O591 C570 1.331 . S
O591 Mg577 2.081 . S
O592 Mg573 1.986 . S
O592 C579 1.307 . S
O593 C571 1.264 . S
O593 Mg577 2.023 . S
O594 C570 1.244 . S
O594 Mg578 1.942 . S
O595 C571 1.273 . S
O595 Mg578 1.955 . S
O596 C569 1.312 . S
O596 Mg572 2.291 . S
O596 Mg575 2.114 . S
O597 C569 1.208 . S
O597 Mg577 2.031 . S
C598 O583 1.264 . S
C598 O585 1.273 . S
C599 O580 1.191 . S
C599 O582 1.307 . S
C600 O627 1.312 . S
C600 O628 1.208 . S
C601 O622 1.331 . S
C601 O625 1.244 . S
C602 O624 1.264 . S
C602 O626 1.273 . S
Mg603 O605 1.936 . S
Mg603 O612 2.081 . S
Mg603 O614 2.023 . S
Mg603 O618 2.031 . S
Mg603 O627 2.291 . S
Mg604 O605 1.963 . S
Mg604 O615 1.942 . S
Mg604 O616 1.955 . S
Mg604 O623 1.986 . S
O605 Mg603 1.936 . S
O605 Mg604 1.963 . S
O605 Mg606 1.915 . S
Mg606 O605 1.915 . S
Mg606 O607 1.915 . S
Mg606 O611 2.013 . S
Mg606 O617 2.114 . S
Mg606 O621 2.013 . S
Mg606 O627 2.114 . S
O607 Mg606 1.915 . S
O607 Mg608 1.936 . S
O607 Mg609 1.963 . S
Mg608 O607 1.936 . S
Mg608 O617 2.291 . S
Mg608 O622 2.081 . S
Mg608 O624 2.023 . S
Mg608 O628 2.031 . S
Mg609 O607 1.963 . S
Mg609 O613 1.986 . S
Mg609 O625 1.942 . S
Mg609 O626 1.955 . S
C610 O621 1.191 . S
C610 O623 1.307 . S
O611 Mg606 2.013 . S
O611 C630 1.191 . S
O612 Mg603 2.081 . S
O612 C620 1.331 . S
O613 Mg609 1.986 . S
O613 C630 1.307 . S
O614 Mg603 2.023 . S
O614 C629 1.264 . S
O615 Mg604 1.942 . S
O615 C620 1.244 . S
O616 Mg604 1.955 . S
O616 C629 1.273 . S
O617 Mg606 2.114 . S
O617 Mg608 2.291 . S
O617 C619 1.312 . S
O618 Mg603 2.031 . S
O618 C619 1.208 . S
C619 O617 1.312 . S
C619 O618 1.208 . S
C620 O612 1.331 . S
C620 O615 1.244 . S
O621 Mg606 2.013 . S
O621 C610 1.191 . S
O622 C601 1.331 . S
O622 Mg608 2.081 . S
O623 Mg604 1.986 . S
O623 C610 1.307 . S
O624 C602 1.264 . S
O624 Mg608 2.023 . S
O625 C601 1.244 . S
O625 Mg609 1.942 . S
O626 C602 1.273 . S
O626 Mg609 1.955 . S
O627 C600 1.312 . S
O627 Mg603 2.291 . S
O627 Mg606 2.114 . S
O628 C600 1.208 . S
O628 Mg608 2.031 . S
C629 O614 1.264 . S
C629 O616 1.273 . S
C630 O611 1.191 . S
C630 O613 1.307 . S
C631 O658 1.312 . S
C631 O659 1.208 . S
C632 O653 1.331 . S
C632 O656 1.244 . S
C633 O655 1.264 . S
C633 O657 1.273 . S
Mg634 O636 1.936 . S
Mg634 O643 2.081 . S
Mg634 O645 2.023 . S
Mg634 O649 2.031 . S
Mg634 O658 2.291 . S
Mg635 O636 1.963 . S
Mg635 O646 1.942 . S
Mg635 O647 1.955 . S
Mg635 O654 1.986 . S
O636 Mg634 1.936 . S
O636 Mg635 1.963 . S
O636 Mg637 1.915 . S
Mg637 O636 1.915 . S
Mg637 O638 1.915 . S
Mg637 O642 2.013 . S
Mg637 O648 2.114 . S
Mg637 O652 2.013 . S
Mg637 O658 2.114 . S
O638 Mg637 1.915 . S
O638 Mg639 1.936 . S
O638 Mg640 1.963 . S
Mg639 O638 1.936 . S
Mg639 O648 2.291 . S
Mg639 O653 2.081 . S
Mg639 O655 2.023 . S
Mg639 O659 2.031 . S
Mg640 O638 1.963 . S
Mg640 O644 1.986 . S
Mg640 O656 1.942 . S
Mg640 O657 1.955 . S
C641 O652 1.191 . S
C641 O654 1.307 . S
O642 Mg637 2.013 . S
O642 C661 1.191 . S
O643 Mg634 2.081 . S
O643 C651 1.331 . S
O644 Mg640 1.986 . S
O644 C661 1.307 . S
O645 Mg634 2.023 . S
O645 C660 1.264 . S
O646 Mg635 1.942 . S
O646 C651 1.244 . S
O647 Mg635 1.955 . S
O647 C660 1.273 . S
O648 Mg637 2.114 . S
O648 Mg639 2.291 . S
O648 C650 1.312 . S
O649 Mg634 2.031 . S
O649 C650 1.208 . S
C650 O648 1.312 . S
C650 O649 1.208 . S
C651 O643 1.331 . S
C651 O646 1.244 . S
O652 Mg637 2.013 . S
O652 C641 1.191 . S
O653 C632 1.331 . S
O653 Mg639 2.081 . S
O654 Mg635 1.986 . S
O654 C641 1.307 . S
O655 C633 1.264 . S
O655 Mg639 2.023 . S
O656 C632 1.244 . S
O656 Mg640 1.942 . S
O657 C633 1.273 . S
O657 Mg640 1.955 . S
O658 C631 1.312 . S
O658 Mg634 2.291 . S
O658 Mg637 2.114 . S
O659 C631 1.208 . S
O659 Mg639 2.031 . S
C660 O645 1.264 . S
C660 O647 1.273 . S
C661 O642 1.191 . S
C661 O644 1.307 . S
C662 O689 1.312 . S
C662 O690 1.208 . S
C663 O684 1.331 . S
C663 O687 1.244 . S
C664 O686 1.264 . S
C664 O688 1.273 . S
Mg665 O667 1.936 . S
Mg665 O674 2.081 . S
Mg665 O676 2.023 1_565 S
Mg665 O680 2.031 . S
Mg665 O689 2.291 1_565 S
Mg666 O667 1.963 1_545 S
Mg666 O677 1.942 1_545 S
Mg666 O678 1.955 . S
Mg666 O685 1.986 1_545 S
O667 Mg665 1.936 . S
O667 Mg666 1.963 1_565 S
O667 Mg668 1.915 1_565 S
Mg668 O667 1.915 1_545 S
Mg668 O669 1.915 . S
Mg668 O673 2.013 . S
Mg668 O679 2.114 1_545 S
Mg668 O683 2.013 1_545 S
Mg668 O689 2.114 . S
O669 Mg668 1.915 . S
O669 Mg670 1.936 1_545 S
O669 Mg671 1.963 . S
Mg670 O669 1.936 1_565 S
Mg670 O679 2.291 . S
Mg670 O684 2.081 1_565 S
Mg670 O686 2.023 . S
Mg670 O690 2.031 1_565 S
Mg671 O669 1.963 . S
Mg671 O675 1.986 . S
Mg671 O687 1.942 . S
Mg671 O688 1.955 1_545 S
C672 O683 1.191 . S
C672 O685 1.307 . S
O673 Mg668 2.013 . S
O673 C692 1.191 . S
O674 Mg665 2.081 . S
O674 C682 1.331 . S
O675 Mg671 1.986 . S
O675 C692 1.307 . S
O676 Mg665 2.023 1_545 S
O676 C691 1.264 . S
O677 Mg666 1.942 1_565 S
O677 C682 1.244 . S
O678 Mg666 1.955 . S
O678 C691 1.273 . S
O679 Mg668 2.114 1_565 S
O679 Mg670 2.291 . S
O679 C681 1.312 . S
O680 Mg665 2.031 . S
O680 C681 1.208 . S
C681 O679 1.312 . S
C681 O680 1.208 . S
C682 O674 1.331 . S
C682 O677 1.244 . S
O683 Mg668 2.013 1_565 S
O683 C672 1.191 . S
O684 C663 1.331 . S
O684 Mg670 2.081 1_545 S
O685 Mg666 1.986 1_565 S
O685 C672 1.307 . S
O686 C664 1.264 . S
O686 Mg670 2.023 . S
O687 C663 1.244 . S
O687 Mg671 1.942 . S
O688 C664 1.273 . S
O688 Mg671 1.955 1_565 S
O689 C662 1.312 . S
O689 Mg665 2.291 1_545 S
O689 Mg668 2.114 . S
O690 C662 1.208 . S
O690 Mg670 2.031 1_545 S
C691 O676 1.264 . S
C691 O678 1.273 . S
C692 O673 1.191 . S
C692 O675 1.307 . S
C693 O720 1.312 . S
C693 O721 1.208 . S
C694 O715 1.331 . S
C694 O718 1.244 . S
C695 O717 1.264 . S
C695 O719 1.273 . S
Mg696 O698 1.936 . S
Mg696 O705 2.081 . S
Mg696 O707 2.023 . S
Mg696 O711 2.031 . S
Mg696 O720 2.291 . S
Mg697 O698 1.963 . S
Mg697 O708 1.942 . S
Mg697 O709 1.955 . S
Mg697 O716 1.986 . S
O698 Mg696 1.936 . S
O698 Mg697 1.963 . S
O698 Mg699 1.915 . S
Mg699 O698 1.915 . S
Mg699 O700 1.915 . S
Mg699 O704 2.013 . S
Mg699 O710 2.114 . S
Mg699 O714 2.013 . S
Mg699 O720 2.114 . S
O700 Mg699 1.915 . S
O700 Mg701 1.936 . S
O700 Mg702 1.963 . S
Mg701 O700 1.936 . S
Mg701 O710 2.291 . S
Mg701 O715 2.081 . S
Mg701 O717 2.023 . S
Mg701 O721 2.031 . S
Mg702 O700 1.963 . S
Mg702 O706 1.986 . S
Mg702 O718 1.942 . S
Mg702 O719 1.955 . S
C703 O714 1.191 . S
C703 O716 1.307 . S
O704 Mg699 2.013 . S
O704 C723 1.191 . S
O705 Mg696 2.081 . S
O705 C713 1.331 . S
O706 Mg702 1.986 . S
O706 C723 1.307 . S
O707 Mg696 2.023 . S
O707 C722 1.264 . S
O708 Mg697 1.942 . S
O708 C713 1.244 . S
O709 Mg697 1.955 . S
O709 C722 1.273 . S
O710 Mg699 2.114 . S
O710 Mg701 2.291 . S
O710 C712 1.312 . S
O711 Mg696 2.031 . S
O711 C712 1.208 . S
C712 O710 1.312 . S
C712 O711 1.208 . S
C713 O705 1.331 . S
C713 O708 1.244 . S
O714 Mg699 2.013 . S
O714 C703 1.191 . S
O715 C694 1.331 . S
O715 Mg701 2.081 . S
O716 Mg697 1.986 . S
O716 C703 1.307 . S
O717 C695 1.264 . S
O717 Mg701 2.023 . S
O718 C694 1.244 . S
O718 Mg702 1.942 . S
O719 C695 1.273 . S
O719 Mg702 1.955 . S
O720 C693 1.312 . S
O720 Mg696 2.291 . S
O720 Mg699 2.114 . S
O721 C693 1.208 . S
O721 Mg701 2.031 . S
C722 O707 1.264 . S
C722 O709 1.273 . S
C723 O704 1.191 . S
C723 O706 1.307 . S
H724 C732 0.950 . S
H725 C737 0.950 . S
H726 C734 0.950 . S
H727 C736 0.950 . S
H728 C738 0.950 . S
H729 C740 0.950 . S
H730 C742 0.950 . S
H731 C743 0.950 . S
C732 H724 0.950 . S
C732 C733 1.386 . S
C732 C734 1.391 . S
C733 C732 1.386 . S
C733 C737 1.393 . S
C734 H726 0.950 . S
C734 C732 1.391 . S
C734 C735 1.400 . S
C735 C734 1.400 . S
C735 C736 1.398 . S
C735 C741 1.491 . S
C736 H727 0.950 . S
C736 C735 1.398 . S
C736 C737 1.391 . S
C737 H725 0.950 . S
C737 C733 1.393 . S
C737 C736 1.391 . S
C738 H728 0.950 . S
C738 C739 1.386 . S
C738 C740 1.391 . S
C739 C738 1.386 . S
C739 C743 1.393 . S
C740 H729 0.950 . S
C740 C738 1.391 . S
C740 C741 1.400 . S
C741 C735 1.491 . S
C741 C740 1.400 . S
C741 C742 1.398 . S
C742 H730 0.950 . S
C742 C741 1.398 . S
C742 C743 1.391 . S
C743 H731 0.950 . S
C743 C739 1.393 . S
C743 C742 1.391 . S
H744 C752 0.950 . S
H745 C757 0.950 . S
H746 C754 0.950 . S
H747 C756 0.950 . S
H748 C758 0.950 . S
H749 C760 0.950 . S
H750 C762 0.950 . S
H751 C763 0.950 . S
C752 H744 0.950 . S
C752 C753 1.386 . S
C752 C754 1.391 . S
C753 C752 1.386 . S
C753 C757 1.393 . S
C754 H746 0.950 . S
C754 C752 1.391 . S
C754 C755 1.400 . S
C755 C754 1.400 . S
C755 C756 1.398 . S
C755 C761 1.491 . S
C756 H747 0.950 . S
C756 C755 1.398 . S
C756 C757 1.391 . S
C757 H745 0.950 . S
C757 C753 1.393 . S
C757 C756 1.391 . S
C758 H748 0.950 . S
C758 C759 1.386 . S
C758 C760 1.391 . S
C759 C758 1.386 . S
C759 C763 1.393 . S
C760 H749 0.950 . S
C760 C758 1.391 . S
C760 C761 1.400 . S
C761 C755 1.491 . S
C761 C760 1.400 . S
C761 C762 1.398 . S
C762 H750 0.950 . S
C762 C761 1.398 . S
C762 C763 1.391 . S
C763 H751 0.950 . S
C763 C759 1.393 . S
C763 C762 1.391 . S
H764 C772 0.950 . S
H765 C777 0.950 . S
H766 C774 0.950 . S
H767 C776 0.950 . S
H768 C778 0.950 . S
H769 C780 0.950 . S
H770 C782 0.950 . S
H771 C783 0.950 . S
C772 H764 0.950 . S
C772 C773 1.386 . S
C772 C774 1.391 . S
C773 C772 1.386 . S
C773 C777 1.393 . S
C774 H766 0.950 . S
C774 C772 1.391 . S
C774 C775 1.400 . S
C775 C774 1.400 . S
C775 C776 1.398 . S
C775 C781 1.491 . S
C776 H767 0.950 . S
C776 C775 1.398 . S
C776 C777 1.391 . S
C777 H765 0.950 . S
C777 C773 1.393 . S
C777 C776 1.391 . S
C778 H768 0.950 . S
C778 C779 1.386 . S
C778 C780 1.391 . S
C779 C778 1.386 . S
C779 C783 1.393 . S
C780 H769 0.950 . S
C780 C778 1.391 . S
C780 C781 1.400 . S
C781 C775 1.491 . S
C781 C780 1.400 . S
C781 C782 1.398 . S
C782 H770 0.950 . S
C782 C781 1.398 . S
C782 C783 1.391 . S
C783 H771 0.950 . S
C783 C779 1.393 . S
C783 C782 1.391 . S
H784 C792 0.950 . S
H785 C797 0.950 . S
H786 C794 0.950 . S
H787 C796 0.950 . S
H788 C798 0.950 . S
H789 C800 0.950 . S
H790 C802 0.950 . S
H791 C803 0.950 . S
C792 H784 0.950 . S
C792 C793 1.386 . S
C792 C794 1.391 . S
C793 C792 1.386 . S
C793 C797 1.393 . S
C794 H786 0.950 . S
C794 C792 1.391 . S
C794 C795 1.400 . S
C795 C794 1.400 . S
C795 C796 1.398 . S
C795 C801 1.491 . S
C796 H787 0.950 . S
C796 C795 1.398 . S
C796 C797 1.391 . S
C797 H785 0.950 . S
C797 C793 1.393 . S
C797 C796 1.391 . S
C798 H788 0.950 . S
C798 C799 1.386 . S
C798 C800 1.391 . S
C799 C798 1.386 . S
C799 C803 1.393 . S
C800 H789 0.950 . S
C800 C798 1.391 . S
C800 C801 1.400 . S
C801 C795 1.491 . S
C801 C800 1.400 . S
C801 C802 1.398 . S
C802 H790 0.950 . S
C802 C801 1.398 . S
C802 C803 1.391 . S
C803 H791 0.950 . S
C803 C799 1.393 . S
C803 C802 1.391 . S
H804 C812 0.950 . S
H805 C817 0.950 . S
H806 C814 0.950 . S
H807 C816 0.950 . S
H808 C818 0.950 . S
H809 C820 0.950 . S
H810 C822 0.950 . S
H811 C823 0.950 . S
C812 H804 0.950 . S
C812 C813 1.386 . S
C812 C814 1.391 . S
C813 C812 1.386 . S
C813 C817 1.393 . S
C814 H806 0.950 . S
C814 C812 1.391 . S
C814 C815 1.400 . S
C815 C814 1.400 . S
C815 C816 1.398 . S
C815 C821 1.491 . S
C816 H807 0.950 . S
C816 C815 1.398 . S
C816 C817 1.391 . S
C817 H805 0.950 . S
C817 C813 1.393 . S
C817 C816 1.391 . S
C818 H808 0.950 . S
C818 C819 1.386 . S
C818 C820 1.391 . S
C819 C818 1.386 . S
C819 C823 1.393 . S
C820 H809 0.950 . S
C820 C818 1.391 . S
C820 C821 1.400 . S
C821 C815 1.491 . S
C821 C820 1.400 . S
C821 C822 1.398 . S
C822 H810 0.950 . S
C822 C821 1.398 . S
C822 C823 1.391 . S
C823 H811 0.950 . S
C823 C819 1.393 . S
C823 C822 1.391 . S
H824 C832 0.950 . S
H825 C837 0.950 . S
H826 C834 0.950 . S
H827 C836 0.950 . S
H828 C838 0.950 . S
H829 C840 0.950 . S
H830 C842 0.950 . S
H831 C843 0.950 . S
C832 H824 0.950 . S
C832 C833 1.386 . S
C832 C834 1.391 . S
C833 C832 1.386 . S
C833 C837 1.393 . S
C834 H826 0.950 . S
C834 C832 1.391 . S
C834 C835 1.400 . S
C835 C834 1.400 . S
C835 C836 1.398 . S
C835 C841 1.491 . S
C836 H827 0.950 . S
C836 C835 1.398 . S
C836 C837 1.391 . S
C837 H825 0.950 . S
C837 C833 1.393 . S
C837 C836 1.391 . S
C838 H828 0.950 . S
C838 C839 1.386 . S
C838 C840 1.391 . S
C839 C838 1.386 . S
C839 C843 1.393 . S
C840 H829 0.950 . S
C840 C838 1.391 . S
C840 C841 1.400 . S
C841 C835 1.491 . S
C841 C840 1.400 . S
C841 C842 1.398 . S
C842 H830 0.950 . S
C842 C841 1.398 . S
C842 C843 1.391 . S
C843 H831 0.950 . S
C843 C839 1.393 . S
C843 C842 1.391 . S
H844 C852 0.950 . S
H845 C857 0.950 . S
H846 C854 0.950 . S
H847 C856 0.950 . S
H848 C858 0.950 . S
H849 C860 0.950 . S
H850 C862 0.950 . S
H851 C863 0.950 . S
C852 H844 0.950 . S
C852 C853 1.386 . S
C852 C854 1.391 . S
C853 C852 1.386 . S
C853 C857 1.393 . S
C854 H846 0.950 . S
C854 C852 1.391 . S
C854 C855 1.400 . S
C855 C854 1.400 . S
C855 C856 1.398 . S
C855 C861 1.491 . S
C856 H847 0.950 . S
C856 C855 1.398 . S
C856 C857 1.391 . S
C857 H845 0.950 . S
C857 C853 1.393 . S
C857 C856 1.391 . S
C858 H848 0.950 . S
C858 C859 1.386 . S
C858 C860 1.391 . S
C859 C858 1.386 . S
C859 C863 1.393 . S
C860 H849 0.950 . S
C860 C858 1.391 . S
C860 C861 1.400 . S
C861 C855 1.491 . S
C861 C860 1.400 . S
C861 C862 1.398 . S
C862 H850 0.950 . S
C862 C861 1.398 . S
C862 C863 1.391 . S
C863 H851 0.950 . S
C863 C859 1.393 . S
C863 C862 1.391 . S
H864 C872 0.950 . S
H865 C877 0.950 . S
H866 C874 0.950 . S
H867 C876 0.950 . S
H868 C878 0.950 . S
H869 C880 0.950 . S
H870 C882 0.950 . S
H871 C883 0.950 . S
C872 H864 0.950 . S
C872 C873 1.386 . S
C872 C874 1.391 . S
C873 C872 1.386 . S
C873 C877 1.393 . S
C874 H866 0.950 . S
C874 C872 1.391 . S
C874 C875 1.400 . S
C875 C874 1.400 . S
C875 C876 1.398 . S
C875 C881 1.491 . S
C876 H867 0.950 . S
C876 C875 1.398 . S
C876 C877 1.391 . S
C877 H865 0.950 . S
C877 C873 1.393 . S
C877 C876 1.391 . S
C878 H868 0.950 . S
C878 C879 1.386 . S
C878 C880 1.391 . S
C879 C878 1.386 . S
C879 C883 1.393 . S
C880 H869 0.950 . S
C880 C878 1.391 . S
C880 C881 1.400 . S
C881 C875 1.491 . S
C881 C880 1.400 . S
C881 C882 1.398 . S
C882 H870 0.950 . S
C882 C881 1.398 . S
C882 C883 1.391 . S
C883 H871 0.950 . S
C883 C879 1.393 . S
C883 C882 1.391 . S
H884 C892 0.950 . S
H885 C897 0.950 . S
H886 C894 0.950 . S
H887 C896 0.950 . S
H888 C898 0.950 . S
H889 C900 0.950 . S
H890 C902 0.950 . S
H891 C903 0.950 . S
C892 H884 0.950 . S
C892 C893 1.386 . S
C892 C894 1.391 . S
C893 C892 1.386 . S
C893 C897 1.393 . S
C894 H886 0.950 . S
C894 C892 1.391 . S
C894 C895 1.400 . S
C895 C894 1.400 . S
C895 C896 1.398 . S
C895 C901 1.491 . S
C896 H887 0.950 . S
C896 C895 1.398 . S
C896 C897 1.391 . S
C897 H885 0.950 . S
C897 C893 1.393 . S
C897 C896 1.391 . S
C898 H888 0.950 . S
C898 C899 1.386 . S
C898 C900 1.391 . S
C899 C898 1.386 . S
C899 C903 1.393 . S
C900 H889 0.950 . S
C900 C898 1.391 . S
C900 C901 1.400 . S
C901 C895 1.491 . S
C901 C900 1.400 . S
C901 C902 1.398 . S
C902 H890 0.950 . S
C902 C901 1.398 . S
C902 C903 1.391 . S
C903 H891 0.950 . S
C903 C899 1.393 . S
C903 C902 1.391 . S
H904 C912 0.950 . S
H905 C917 0.950 . S
H906 C914 0.950 . S
H907 C916 0.950 . S
H908 C918 0.950 . S
H909 C920 0.950 . S
H910 C922 0.950 . S
H911 C923 0.950 . S
C912 H904 0.950 . S
C912 C913 1.386 . S
C912 C914 1.391 . S
C913 C912 1.386 . S
C913 C917 1.393 . S
C914 H906 0.950 . S
C914 C912 1.391 . S
C914 C915 1.400 . S
C915 C914 1.400 . S
C915 C916 1.398 . S
C915 C921 1.491 . S
C916 H907 0.950 . S
C916 C915 1.398 . S
C916 C917 1.391 . S
C917 H905 0.950 . S
C917 C913 1.393 . S
C917 C916 1.391 . S
C918 H908 0.950 . S
C918 C919 1.386 . S
C918 C920 1.391 1_565 S
C919 C918 1.386 . S
C919 C923 1.393 1_565 S
C920 H909 0.950 . S
C920 C918 1.391 1_545 S
C920 C921 1.400 . S
C921 C915 1.491 . S
C921 C920 1.400 . S
C921 C922 1.398 . S
C922 H910 0.950 . S
C922 C921 1.398 . S
C922 C923 1.391 . S
C923 H911 0.950 . S
C923 C919 1.393 1_545 S
C923 C922 1.391 . S
H924 C932 0.950 . S
H925 C937 0.950 . S
H926 C934 0.950 . S
H927 C936 0.950 . S
H928 C938 0.950 . S
H929 C940 0.950 . S
H930 C942 0.950 . S
H931 C943 0.950 . S
C932 H924 0.950 . S
C932 C933 1.386 . S
C932 C934 1.391 . S
C933 C932 1.386 . S
C933 C937 1.393 . S
C934 H926 0.950 . S
C934 C932 1.391 . S
C934 C935 1.400 . S
C935 C934 1.400 . S
C935 C936 1.398 . S
C935 C941 1.491 . S
C936 H927 0.950 . S
C936 C935 1.398 . S
C936 C937 1.391 . S
C937 H925 0.950 . S
C937 C933 1.393 . S
C937 C936 1.391 . S
C938 H928 0.950 . S
C938 C939 1.386 . S
C938 C940 1.391 . S
C939 C938 1.386 . S
C939 C943 1.393 . S
C940 H929 0.950 . S
C940 C938 1.391 . S
C940 C941 1.400 . S
C941 C935 1.491 . S
C941 C940 1.400 . S
C941 C942 1.398 . S
C942 H930 0.950 . S
C942 C941 1.398 . S
C942 C943 1.391 . S
C943 H931 0.950 . S
C943 C939 1.393 . S
C943 C942 1.391 . S
H944 C952 0.950 . S
H945 C957 0.950 . S
H946 C954 0.950 . S
H947 C956 0.950 . S
H948 C958 0.950 . S
H949 C960 0.950 . S
H950 C962 0.950 . S
H951 C963 0.950 . S
C952 H944 0.950 . S
C952 C953 1.386 . S
C952 C954 1.391 . S
C953 C952 1.386 . S
C953 C957 1.393 . S
C954 H946 0.950 . S
C954 C952 1.391 . S
C954 C955 1.400 . S
C955 C954 1.400 . S
C955 C956 1.398 . S
C955 C961 1.491 . S
C956 H947 0.950 . S
C956 C955 1.398 . S
C956 C957 1.391 . S
C957 H945 0.950 . S
C957 C953 1.393 . S
C957 C956 1.391 . S
C958 H948 0.950 . S
C958 C959 1.386 . S
C958 C960 1.391 . S
C959 C958 1.386 . S
C959 C963 1.393 . S
C960 H949 0.950 . S
C960 C958 1.391 . S
C960 C961 1.400 . S
C961 C955 1.491 . S
C961 C960 1.400 . S
C961 C962 1.398 . S
C962 H950 0.950 . S
C962 C961 1.398 . S
C962 C963 1.391 . S
C963 H951 0.950 . S
C963 C959 1.393 . S
C963 C962 1.391 . S
H964 C972 0.950 . S
H965 C977 0.950 . S
H966 C974 0.950 . S
H967 C976 0.950 . S
H968 C978 0.950 . S
H969 C980 0.950 . S
H970 C982 0.950 . S
H971 C983 0.950 . S
C972 H964 0.950 . S
C972 C973 1.386 . S
C972 C974 1.391 . S
C973 C972 1.386 . S
C973 C977 1.393 . S
C974 H966 0.950 . S
C974 C972 1.391 . S
C974 C975 1.400 . S
C975 C974 1.400 . S
C975 C976 1.398 . S
C975 C981 1.491 . S
C976 H967 0.950 . S
C976 C975 1.398 . S
C976 C977 1.391 . S
C977 H965 0.950 . S
C977 C973 1.393 . S
C977 C976 1.391 . S
C978 H968 0.950 . S
C978 C979 1.386 . S
C978 C980 1.391 . S
C979 C978 1.386 . S
C979 C983 1.393 . S
C980 H969 0.950 . S
C980 C978 1.391 . S
C980 C981 1.400 . S
C981 C975 1.491 . S
C981 C980 1.400 . S
C981 C982 1.398 . S
C982 H970 0.950 . S
C982 C981 1.398 . S
C982 C983 1.391 . S
C983 H971 0.950 . S
C983 C979 1.393 . S
C983 C982 1.391 . S
H984 C992 0.950 . S
H985 C997 0.950 . S
H986 C994 0.950 . S
H987 C996 0.950 . S
H988 C998 0.950 . S
H989 C1000 0.950 . S
H990 C1002 0.950 . S
H991 C1003 0.950 . S
C992 H984 0.950 . S
C992 C993 1.386 . S
C992 C994 1.391 . S
C993 C992 1.386 . S
C993 C997 1.393 . S
C994 H986 0.950 . S
C994 C992 1.391 . S
C994 C995 1.400 . S
C995 C994 1.400 . S
C995 C996 1.398 . S
C995 C1001 1.491 . S
C996 H987 0.950 . S
C996 C995 1.398 . S
C996 C997 1.391 . S
C997 H985 0.950 . S
C997 C993 1.393 . S
C997 C996 1.391 . S
C998 H988 0.950 . S
C998 C999 1.386 . S
C998 C1000 1.391 1_565 S
C999 C998 1.386 . S
C999 C1003 1.393 1_565 S
C1000 H989 0.950 . S
C1000 C998 1.391 1_545 S
C1000 C1001 1.400 . S
C1001 C995 1.491 . S
C1001 C1000 1.400 . S
C1001 C1002 1.398 . S
C1002 H990 0.950 . S
C1002 C1001 1.398 . S
C1002 C1003 1.391 . S
C1003 H991 0.950 . S
C1003 C999 1.393 1_545 S
C1003 C1002 1.391 . S
H1004 C1012 0.950 . S
H1005 C1017 0.950 . S
H1006 C1014 0.950 . S
H1007 C1016 0.950 . S
H1008 C1018 0.950 . S
H1009 C1020 0.950 . S
H1010 C1022 0.950 . S
H1011 C1023 0.950 . S
C1012 H1004 0.950 . S
C1012 C1013 1.386 . S
C1012 C1014 1.391 . S
C1013 C1012 1.386 . S
C1013 C1017 1.393 . S
C1014 H1006 0.950 . S
C1014 C1012 1.391 . S
C1014 C1015 1.400 . S
C1015 C1014 1.400 . S
C1015 C1016 1.398 . S
C1015 C1021 1.491 . S
C1016 H1007 0.950 . S
C1016 C1015 1.398 . S
C1016 C1017 1.391 . S
C1017 H1005 0.950 . S
C1017 C1013 1.393 . S
C1017 C1016 1.391 . S
C1018 H1008 0.950 . S
C1018 C1019 1.386 . S
C1018 C1020 1.391 . S
C1019 C1018 1.386 . S
C1019 C1023 1.393 . S
C1020 H1009 0.950 . S
C1020 C1018 1.391 . S
C1020 C1021 1.400 . S
C1021 C1015 1.491 . S
C1021 C1020 1.400 . S
C1021 C1022 1.398 . S
C1022 H1010 0.950 . S
C1022 C1021 1.398 . S
C1022 C1023 1.391 . S
C1023 H1011 0.950 . S
C1023 C1019 1.393 . S
C1023 C1022 1.391 . S
H1024 C1032 0.950 . S
H1025 C1037 0.950 . S
H1026 C1034 0.950 . S
H1027 C1036 0.950 . S
H1028 C1038 0.950 . S
H1029 C1040 0.950 . S
H1030 C1042 0.950 . S
H1031 C1043 0.950 . S
C1032 H1024 0.950 . S
C1032 C1033 1.386 . S
C1032 C1034 1.391 . S
C1033 C1032 1.386 . S
C1033 C1037 1.393 . S
C1034 H1026 0.950 . S
C1034 C1032 1.391 . S
C1034 C1035 1.400 . S
C1035 C1034 1.400 . S
C1035 C1036 1.398 . S
C1035 C1041 1.491 . S
C1036 H1027 0.950 . S
C1036 C1035 1.398 . S
C1036 C1037 1.391 . S
C1037 H1025 0.950 . S
C1037 C1033 1.393 . S
C1037 C1036 1.391 . S
C1038 H1028 0.950 . S
C1038 C1039 1.386 . S
C1038 C1040 1.391 . S
C1039 C1038 1.386 . S
C1039 C1043 1.393 . S
C1040 H1029 0.950 . S
C1040 C1038 1.391 . S
C1040 C1041 1.400 . S
C1041 C1035 1.491 . S
C1041 C1040 1.400 . S
C1041 C1042 1.398 . S
C1042 H1030 0.950 . S
C1042 C1041 1.398 . S
C1042 C1043 1.391 . S
C1043 H1031 0.950 . S
C1043 C1039 1.393 . S
C1043 C1042 1.391 . S
H1044 C1052 0.950 . S
H1045 C1057 0.950 . S
H1046 C1054 0.950 . S
H1047 C1056 0.950 . S
H1048 C1058 0.950 . S
H1049 C1060 0.950 . S
H1050 C1062 0.950 . S
H1051 C1063 0.950 . S
C1052 H1044 0.950 . S
C1052 C1053 1.386 . S
C1052 C1054 1.391 . S
C1053 C1052 1.386 . S
C1053 C1057 1.393 . S
C1054 H1046 0.950 . S
C1054 C1052 1.391 . S
C1054 C1055 1.400 . S
C1055 C1054 1.400 . S
C1055 C1056 1.398 . S
C1055 C1061 1.491 . S
C1056 H1047 0.950 . S
C1056 C1055 1.398 . S
C1056 C1057 1.391 . S
C1057 H1045 0.950 . S
C1057 C1053 1.393 . S
C1057 C1056 1.391 . S
C1058 H1048 0.950 . S
C1058 C1059 1.386 . S
C1058 C1060 1.391 . S
C1059 C1058 1.386 . S
C1059 C1063 1.393 . S
C1060 H1049 0.950 . S
C1060 C1058 1.391 . S
C1060 C1061 1.400 . S
C1061 C1055 1.491 . S
C1061 C1060 1.400 . S
C1061 C1062 1.398 . S
C1062 H1050 0.950 . S
C1062 C1061 1.398 . S
C1062 C1063 1.391 . S
C1063 H1051 0.950 . S
C1063 C1059 1.393 . S
C1063 C1062 1.391 . S
H1064 C1072 0.950 . S
H1065 C1077 0.950 . S
H1066 C1074 0.950 . S
H1067 C1076 0.950 . S
H1068 C1078 0.950 . S
H1069 C1080 0.950 . S
H1070 C1082 0.950 . S
H1071 C1083 0.950 . S
C1072 H1064 0.950 . S
C1072 C1073 1.386 . S
C1072 C1074 1.391 . S
C1073 C1072 1.386 . S
C1073 C1077 1.393 . S
C1074 H1066 0.950 . S
C1074 C1072 1.391 . S
C1074 C1075 1.400 . S
C1075 C1074 1.400 . S
C1075 C1076 1.398 . S
C1075 C1081 1.491 . S
C1076 H1067 0.950 . S
C1076 C1075 1.398 . S
C1076 C1077 1.391 . S
C1077 H1065 0.950 . S
C1077 C1073 1.393 . S
C1077 C1076 1.391 . S
C1078 H1068 0.950 . S
C1078 C1079 1.386 . S
C1078 C1080 1.391 . S
C1079 C1078 1.386 . S
C1079 C1083 1.393 . S
C1080 H1069 0.950 . S
C1080 C1078 1.391 . S
C1080 C1081 1.400 . S
C1081 C1075 1.491 . S
C1081 C1080 1.400 . S
C1081 C1082 1.398 . S
C1082 H1070 0.950 . S
C1082 C1081 1.398 . S
C1082 C1083 1.391 . S
C1083 H1071 0.950 . S
C1083 C1079 1.393 . S
C1083 C1082 1.391 . S
H1084 C1092 0.950 . S
H1085 C1097 0.950 . S
H1086 C1094 0.950 . S
H1087 C1096 0.950 . S
H1088 C1098 0.950 . S
H1089 C1100 0.950 . S
H1090 C1102 0.950 . S
H1091 C1103 0.950 . S
C1092 H1084 0.950 . S
C1092 C1093 1.386 . S
C1092 C1094 1.391 . S
C1093 C1092 1.386 . S
C1093 C1097 1.393 . S
C1094 H1086 0.950 . S
C1094 C1092 1.391 . S
C1094 C1095 1.400 . S
C1095 C1094 1.400 . S
C1095 C1096 1.398 . S
C1095 C1101 1.491 . S
C1096 H1087 0.950 . S
C1096 C1095 1.398 . S
C1096 C1097 1.391 . S
C1097 H1085 0.950 . S
C1097 C1093 1.393 . S
C1097 C1096 1.391 . S
C1098 H1088 0.950 . S
C1098 C1099 1.386 . S
C1098 C1100 1.391 . S
C1099 C1098 1.386 . S
C1099 C1103 1.393 . S
C1100 H1089 0.950 . S
C1100 C1098 1.391 . S
C1100 C1101 1.400 . S
C1101 C1095 1.491 . S
C1101 C1100 1.400 . S
C1101 C1102 1.398 . S
C1102 H1090 0.950 . S
C1102 C1101 1.398 . S
C1102 C1103 1.391 . S
C1103 H1091 0.950 . S
C1103 C1099 1.393 . S
C1103 C1102 1.391 . S
H1104 C1112 0.950 . S
H1105 C1117 0.950 . S
H1106 C1114 0.950 . S
H1107 C1116 0.950 . S
H1108 C1118 0.950 . S
H1109 C1120 0.950 . S
H1110 C1122 0.950 . S
H1111 C1123 0.950 . S
C1112 H1104 0.950 . S
C1112 C1113 1.386 . S
C1112 C1114 1.391 . S
C1113 C1112 1.386 . S
C1113 C1117 1.393 . S
C1114 H1106 0.950 . S
C1114 C1112 1.391 . S
C1114 C1115 1.400 . S
C1115 C1114 1.400 . S
C1115 C1116 1.398 . S
C1115 C1121 1.491 . S
C1116 H1107 0.950 . S
C1116 C1115 1.398 . S
C1116 C1117 1.391 . S
C1117 H1105 0.950 . S
C1117 C1113 1.393 . S
C1117 C1116 1.391 . S
C1118 H1108 0.950 . S
C1118 C1119 1.386 . S
C1118 C1120 1.391 . S
C1119 C1118 1.386 . S
C1119 C1123 1.393 . S
C1120 H1109 0.950 . S
C1120 C1118 1.391 . S
C1120 C1121 1.400 . S
C1121 C1115 1.491 . S
C1121 C1120 1.400 . S
C1121 C1122 1.398 . S
C1122 H1110 0.950 . S
C1122 C1121 1.398 . S
C1122 C1123 1.391 . S
C1123 H1111 0.950 . S
C1123 C1119 1.393 . S
C1123 C1122 1.391 . S
H1124 C1132 0.950 . S
H1125 C1137 0.950 . S
H1126 C1134 0.950 . S
H1127 C1136 0.950 . S
H1128 C1138 0.950 . S
H1129 C1140 0.950 . S
H1130 C1142 0.950 . S
H1131 C1143 0.950 . S
C1132 H1124 0.950 . S
C1132 C1133 1.386 . S
C1132 C1134 1.391 . S
C1133 C1132 1.386 . S
C1133 C1137 1.393 . S
C1134 H1126 0.950 . S
C1134 C1132 1.391 . S
C1134 C1135 1.400 . S
C1135 C1134 1.400 . S
C1135 C1136 1.398 . S
C1135 C1141 1.491 . S
C1136 H1127 0.950 . S
C1136 C1135 1.398 . S
C1136 C1137 1.391 . S
C1137 H1125 0.950 . S
C1137 C1133 1.393 . S
C1137 C1136 1.391 . S
C1138 H1128 0.950 . S
C1138 C1139 1.386 . S
C1138 C1140 1.391 1_455 S
C1139 C1138 1.386 . S
C1139 C1143 1.393 1_455 S
C1140 H1129 0.950 . S
C1140 C1138 1.391 1_655 S
C1140 C1141 1.400 . S
C1141 C1135 1.491 . S
C1141 C1140 1.400 . S
C1141 C1142 1.398 . S
C1142 H1130 0.950 . S
C1142 C1141 1.398 . S
C1142 C1143 1.391 . S
C1143 H1131 0.950 . S
C1143 C1139 1.393 1_655 S
C1143 C1142 1.391 . S
H1144 C1152 0.950 . S
H1145 C1157 0.950 . S
H1146 C1154 0.950 . S
H1147 C1156 0.950 . S
H1148 C1158 0.950 . S
H1149 C1160 0.950 . S
H1150 C1162 0.950 . S
H1151 C1163 0.950 . S
C1152 H1144 0.950 . S
C1152 C1153 1.386 . S
C1152 C1154 1.391 . S
C1153 C1152 1.386 . S
C1153 C1157 1.393 . S
C1154 H1146 0.950 . S
C1154 C1152 1.391 . S
C1154 C1155 1.400 . S
C1155 C1154 1.400 . S
C1155 C1156 1.398 . S
C1155 C1161 1.491 . S
C1156 H1147 0.950 . S
C1156 C1155 1.398 . S
C1156 C1157 1.391 . S
C1157 H1145 0.950 . S
C1157 C1153 1.393 . S
C1157 C1156 1.391 . S
C1158 H1148 0.950 . S
C1158 C1159 1.386 . S
C1158 C1160 1.391 . S
C1159 C1158 1.386 . S
C1159 C1163 1.393 . S
C1160 H1149 0.950 . S
C1160 C1158 1.391 . S
C1160 C1161 1.400 . S
C1161 C1155 1.491 . S
C1161 C1160 1.400 . S
C1161 C1162 1.398 . S
C1162 H1150 0.950 . S
C1162 C1161 1.398 . S
C1162 C1163 1.391 . S
C1163 H1151 0.950 . S
C1163 C1159 1.393 . S
C1163 C1162 1.391 . S
H1164 C1172 0.950 . S
H1165 C1177 0.950 . S
H1166 C1174 0.950 . S
H1167 C1176 0.950 . S
H1168 C1178 0.950 . S
H1169 C1180 0.950 . S
H1170 C1182 0.950 . S
H1171 C1183 0.950 . S
C1172 H1164 0.950 . S
C1172 C1173 1.386 . S
C1172 C1174 1.391 . S
C1173 C1172 1.386 . S
C1173 C1177 1.393 . S
C1174 H1166 0.950 . S
C1174 C1172 1.391 . S
C1174 C1175 1.400 . S
C1175 C1174 1.400 . S
C1175 C1176 1.398 . S
C1175 C1181 1.491 . S
C1176 H1167 0.950 . S
C1176 C1175 1.398 . S
C1176 C1177 1.391 . S
C1177 H1165 0.950 . S
C1177 C1173 1.393 . S
C1177 C1176 1.391 . S
C1178 H1168 0.950 . S
C1178 C1179 1.386 . S
C1178 C1180 1.391 . S
C1179 C1178 1.386 . S
C1179 C1183 1.393 . S
C1180 H1169 0.950 . S
C1180 C1178 1.391 . S
C1180 C1181 1.400 . S
C1181 C1175 1.491 . S
C1181 C1180 1.400 . S
C1181 C1182 1.398 . S
C1182 H1170 0.950 . S
C1182 C1181 1.398 . S
C1182 C1183 1.391 . S
C1183 H1171 0.950 . S
C1183 C1179 1.393 . S
C1183 C1182 1.391 . S
H1184 C1192 0.950 . S
H1185 C1197 0.950 . S
H1186 C1194 0.950 . S
H1187 C1196 0.950 . S
H1188 C1198 0.950 . S
H1189 C1200 0.950 . S
H1190 C1202 0.950 . S
H1191 C1203 0.950 . S
C1192 H1184 0.950 . S
C1192 C1193 1.386 . S
C1192 C1194 1.391 . S
C1193 C1192 1.386 . S
C1193 C1197 1.393 . S
C1194 H1186 0.950 . S
C1194 C1192 1.391 . S
C1194 C1195 1.400 . S
C1195 C1194 1.400 . S
C1195 C1196 1.398 . S
C1195 C1201 1.491 . S
C1196 H1187 0.950 . S
C1196 C1195 1.398 . S
C1196 C1197 1.391 . S
C1197 H1185 0.950 . S
C1197 C1193 1.393 . S
C1197 C1196 1.391 . S
C1198 H1188 0.950 . S
C1198 C1199 1.386 . S
C1198 C1200 1.391 . S
C1199 C1198 1.386 . S
C1199 C1203 1.393 . S
C1200 H1189 0.950 . S
C1200 C1198 1.391 . S
C1200 C1201 1.400 . S
C1201 C1195 1.491 . S
C1201 C1200 1.400 . S
C1201 C1202 1.398 . S
C1202 H1190 0.950 . S
C1202 C1201 1.398 . S
C1202 C1203 1.391 . S
C1203 H1191 0.950 . S
C1203 C1199 1.393 . S
C1203 C1202 1.391 . S
H1204 C1212 0.950 . S
H1205 C1217 0.950 . S
H1206 C1214 0.950 . S
H1207 C1216 0.950 . S
H1208 C1218 0.950 . S
H1209 C1220 0.950 . S
H1210 C1222 0.950 . S
H1211 C1223 0.950 . S
C1212 H1204 0.950 . S
C1212 C1213 1.386 . S
C1212 C1214 1.391 . S
C1213 C1212 1.386 . S
C1213 C1217 1.393 . S
C1214 H1206 0.950 . S
C1214 C1212 1.391 . S
C1214 C1215 1.400 . S
C1215 C1214 1.400 . S
C1215 C1216 1.398 . S
C1215 C1221 1.491 . S
C1216 H1207 0.950 . S
C1216 C1215 1.398 . S
C1216 C1217 1.391 . S
C1217 H1205 0.950 . S
C1217 C1213 1.393 . S
C1217 C1216 1.391 . S
C1218 H1208 0.950 . S
C1218 C1219 1.386 . S
C1218 C1220 1.391 . S
C1219 C1218 1.386 . S
C1219 C1223 1.393 . S
C1220 H1209 0.950 . S
C1220 C1218 1.391 . S
C1220 C1221 1.400 . S
C1221 C1215 1.491 . S
C1221 C1220 1.400 . S
C1221 C1222 1.398 . S
C1222 H1210 0.950 . S
C1222 C1221 1.398 . S
C1222 C1223 1.391 . S
C1223 H1211 0.950 . S
C1223 C1219 1.393 . S
C1223 C1222 1.391 . S
H1224 C1232 0.950 . S
H1225 C1237 0.950 . S
H1226 C1234 0.950 . S
H1227 C1236 0.950 . S
H1228 C1238 0.950 . S
H1229 C1240 0.950 . S
H1230 C1242 0.950 . S
H1231 C1243 0.950 . S
C1232 H1224 0.950 . S
C1232 C1233 1.386 . S
C1232 C1234 1.391 . S
C1233 C1232 1.386 . S
C1233 C1237 1.393 . S
C1234 H1226 0.950 . S
C1234 C1232 1.391 . S
C1234 C1235 1.400 . S
C1235 C1234 1.400 . S
C1235 C1236 1.398 . S
C1235 C1241 1.491 . S
C1236 H1227 0.950 . S
C1236 C1235 1.398 . S
C1236 C1237 1.391 . S
C1237 H1225 0.950 . S
C1237 C1233 1.393 . S
C1237 C1236 1.391 . S
C1238 H1228 0.950 . S
C1238 C1239 1.386 . S
C1238 C1240 1.391 1_556 S
C1239 C1238 1.386 . S
C1239 C1243 1.393 1_556 S
C1240 H1229 0.950 . S
C1240 C1238 1.391 1_554 S
C1240 C1241 1.400 . S
C1241 C1235 1.491 . S
C1241 C1240 1.400 . S
C1241 C1242 1.398 . S
C1242 H1230 0.950 . S
C1242 C1241 1.398 . S
C1242 C1243 1.391 . S
C1243 H1231 0.950 . S
C1243 C1239 1.393 1_554 S
C1243 C1242 1.391 . S
H1244 C1252 0.950 . S
H1245 C1257 0.950 . S
H1246 C1254 0.950 . S
H1247 C1256 0.950 . S
H1248 C1258 0.950 . S
H1249 C1260 0.950 . S
H1250 C1262 0.950 . S
H1251 C1263 0.950 . S
C1252 H1244 0.950 . S
C1252 C1253 1.386 . S
C1252 C1254 1.391 . S
C1253 C1252 1.386 . S
C1253 C1257 1.393 . S
C1254 H1246 0.950 . S
C1254 C1252 1.391 . S
C1254 C1255 1.400 . S
C1255 C1254 1.400 . S
C1255 C1256 1.398 . S
C1255 C1261 1.491 . S
C1256 H1247 0.950 . S
C1256 C1255 1.398 . S
C1256 C1257 1.391 . S
C1257 H1245 0.950 . S
C1257 C1253 1.393 . S
C1257 C1256 1.391 . S
C1258 H1248 0.950 . S
C1258 C1259 1.386 . S
C1258 C1260 1.391 . S
C1259 C1258 1.386 . S
C1259 C1263 1.393 . S
C1260 H1249 0.950 . S
C1260 C1258 1.391 . S
C1260 C1261 1.400 . S
C1261 C1255 1.491 . S
C1261 C1260 1.400 . S
C1261 C1262 1.398 . S
C1262 H1250 0.950 . S
C1262 C1261 1.398 . S
C1262 C1263 1.391 . S
C1263 H1251 0.950 . S
C1263 C1259 1.393 . S
C1263 C1262 1.391 . S
H1264 C1272 0.950 . S
H1265 C1277 0.950 . S
H1266 C1274 0.950 . S
H1267 C1276 0.950 . S
H1268 C1278 0.950 . S
H1269 C1280 0.950 . S
H1270 C1282 0.950 . S
H1271 C1283 0.950 . S
C1272 H1264 0.950 . S
C1272 C1273 1.386 . S
C1272 C1274 1.391 . S
C1273 C1272 1.386 . S
C1273 C1277 1.393 . S
C1274 H1266 0.950 . S
C1274 C1272 1.391 . S
C1274 C1275 1.400 . S
C1275 C1274 1.400 . S
C1275 C1276 1.398 . S
C1275 C1281 1.491 . S
C1276 H1267 0.950 . S
C1276 C1275 1.398 . S
C1276 C1277 1.391 . S
C1277 H1265 0.950 . S
C1277 C1273 1.393 . S
C1277 C1276 1.391 . S
C1278 H1268 0.950 . S
C1278 C1279 1.386 . S
C1278 C1280 1.391 1_556 S
C1279 C1278 1.386 . S
C1279 C1283 1.393 1_556 S
C1280 H1269 0.950 . S
C1280 C1278 1.391 1_554 S
C1280 C1281 1.400 . S
C1281 C1275 1.491 . S
C1281 C1280 1.400 . S
C1281 C1282 1.398 . S
C1282 H1270 0.950 . S
C1282 C1281 1.398 . S
C1282 C1283 1.391 . S
C1283 H1271 0.950 . S
C1283 C1279 1.393 1_554 S
C1283 C1282 1.391 . S
H1284 C1292 0.950 . S
H1285 C1297 0.950 . S
H1286 C1294 0.950 . S
H1287 C1296 0.950 . S
H1288 C1298 0.950 . S
H1289 C1300 0.950 . S
H1290 C1302 0.950 . S
H1291 C1303 0.950 . S
C1292 H1284 0.950 . S
C1292 C1293 1.386 . S
C1292 C1294 1.391 . S
C1293 C1292 1.386 . S
C1293 C1297 1.393 . S
C1294 H1286 0.950 . S
C1294 C1292 1.391 . S
C1294 C1295 1.400 . S
C1295 C1294 1.400 . S
C1295 C1296 1.398 . S
C1295 C1301 1.491 . S
C1296 H1287 0.950 . S
C1296 C1295 1.398 . S
C1296 C1297 1.391 . S
C1297 H1285 0.950 . S
C1297 C1293 1.393 . S
C1297 C1296 1.391 . S
C1298 H1288 0.950 . S
C1298 C1299 1.386 . S
C1298 C1300 1.391 . S
C1299 C1298 1.386 . S
C1299 C1303 1.393 . S
C1300 H1289 0.950 . S
C1300 C1298 1.391 . S
C1300 C1301 1.400 . S
C1301 C1295 1.491 . S
C1301 C1300 1.400 . S
C1301 C1302 1.398 . S
C1302 H1290 0.950 . S
C1302 C1301 1.398 . S
C1302 C1303 1.391 . S
C1303 H1291 0.950 . S
C1303 C1299 1.393 . S
C1303 C1302 1.391 . S
H1304 C1312 0.950 . S
H1305 C1317 0.950 . S
H1306 C1314 0.950 . S
H1307 C1316 0.950 . S
H1308 C1318 0.950 1_554 S
H1309 C1320 0.950 . S
H1310 C1322 0.950 . S
H1311 C1323 0.950 . S
C1312 H1304 0.950 . S
C1312 C1313 1.386 . S
C1312 C1314 1.391 . S
C1313 C1312 1.386 . S
C1313 C1317 1.393 . S
C1314 H1306 0.950 . S
C1314 C1312 1.391 . S
C1314 C1315 1.400 . S
C1315 C1314 1.400 . S
C1315 C1316 1.398 . S
C1315 C1321 1.491 . S
C1316 H1307 0.950 . S
C1316 C1315 1.398 . S
C1316 C1317 1.391 . S
C1317 H1305 0.950 . S
C1317 C1313 1.393 . S
C1317 C1316 1.391 . S
C1318 H1308 0.950 1_556 S
C1318 C1319 1.386 1_556 S
C1318 C1320 1.391 . S
C1319 C1318 1.386 1_554 S
C1319 C1323 1.393 . S
C1320 H1309 0.950 . S
C1320 C1318 1.391 . S
C1320 C1321 1.400 . S
C1321 C1315 1.491 . S
C1321 C1320 1.400 . S
C1321 C1322 1.398 . S
C1322 H1310 0.950 . S
C1322 C1321 1.398 . S
C1322 C1323 1.391 1_556 S
C1323 H1311 0.950 . S
C1323 C1319 1.393 . S
C1323 C1322 1.391 1_554 S
H1324 C1332 0.950 . S
H1325 C1337 0.950 . S
H1326 C1334 0.950 . S
H1327 C1336 0.950 . S
H1328 C1338 0.950 . S
H1329 C1340 0.950 . S
H1330 C1342 0.950 . S
H1331 C1343 0.950 . S
C1332 H1324 0.950 . S
C1332 C1333 1.386 . S
C1332 C1334 1.391 . S
C1333 C1332 1.386 . S
C1333 C1337 1.393 . S
C1334 H1326 0.950 . S
C1334 C1332 1.391 . S
C1334 C1335 1.400 . S
C1335 C1334 1.400 . S
C1335 C1336 1.398 . S
C1335 C1341 1.491 . S
C1336 H1327 0.950 . S
C1336 C1335 1.398 . S
C1336 C1337 1.391 . S
C1337 H1325 0.950 . S
C1337 C1333 1.393 . S
C1337 C1336 1.391 . S
C1338 H1328 0.950 . S
C1338 C1339 1.386 . S
C1338 C1340 1.391 . S
C1339 C1338 1.386 . S
C1339 C1343 1.393 . S
C1340 H1329 0.950 . S
C1340 C1338 1.391 . S
C1340 C1341 1.400 . S
C1341 C1335 1.491 . S
C1341 C1340 1.400 . S
C1341 C1342 1.398 . S
C1342 H1330 0.950 . S
C1342 C1341 1.398 . S
C1342 C1343 1.391 . S
C1343 H1331 0.950 . S
C1343 C1339 1.393 . S
C1343 C1342 1.391 . S
H1344 C1352 0.950 . S
H1345 C1357 0.950 . S
H1346 C1354 0.950 . S
H1347 C1356 0.950 . S
H1348 C1358 0.950 . S
H1349 C1360 0.950 . S
H1350 C1362 0.950 . S
H1351 C1363 0.950 . S
C1352 H1344 0.950 . S
C1352 C1353 1.386 . S
C1352 C1354 1.391 . S
C1353 C1352 1.386 . S
C1353 C1357 1.393 . S
C1354 H1346 0.950 . S
C1354 C1352 1.391 . S
C1354 C1355 1.400 . S
C1355 C1354 1.400 . S
C1355 C1356 1.398 . S
C1355 C1361 1.491 . S
C1356 H1347 0.950 . S
C1356 C1355 1.398 . S
C1356 C1357 1.391 . S
C1357 H1345 0.950 . S
C1357 C1353 1.393 . S
C1357 C1356 1.391 . S
C1358 H1348 0.950 . S
C1358 C1359 1.386 . S
C1358 C1360 1.391 1_554 S
C1359 C1358 1.386 . S
C1359 C1363 1.393 1_554 S
C1360 H1349 0.950 . S
C1360 C1358 1.391 1_556 S
C1360 C1361 1.400 . S
C1361 C1355 1.491 . S
C1361 C1360 1.400 . S
C1361 C1362 1.398 . S
C1362 H1350 0.950 . S
C1362 C1361 1.398 . S
C1362 C1363 1.391 . S
C1363 H1351 0.950 . S
C1363 C1359 1.393 1_556 S
C1363 C1362 1.391 . S
H1364 C1372 0.950 . S
H1365 C1377 0.950 . S
H1366 C1374 0.950 . S
H1367 C1376 0.950 . S
H1368 C1378 0.950 . S
H1369 C1380 0.950 . S
H1370 C1382 0.950 . S
H1371 C1383 0.950 . S
C1372 H1364 0.950 . S
C1372 C1373 1.386 . S
C1372 C1374 1.391 . S
C1373 C1372 1.386 . S
C1373 C1377 1.393 . S
C1374 H1366 0.950 . S
C1374 C1372 1.391 . S
C1374 C1375 1.400 . S
C1375 C1374 1.400 . S
C1375 C1376 1.398 . S
C1375 C1381 1.491 . S
C1376 H1367 0.950 . S
C1376 C1375 1.398 . S
C1376 C1377 1.391 . S
C1377 H1365 0.950 . S
C1377 C1373 1.393 . S
C1377 C1376 1.391 . S
C1378 H1368 0.950 . S
C1378 C1379 1.386 . S
C1378 C1380 1.391 . S
C1379 C1378 1.386 . S
C1379 C1383 1.393 . S
C1380 H1369 0.950 . S
C1380 C1378 1.391 . S
C1380 C1381 1.400 . S
C1381 C1375 1.491 . S
C1381 C1380 1.400 . S
C1381 C1382 1.398 . S
C1382 H1370 0.950 . S
C1382 C1381 1.398 . S
C1382 C1383 1.391 . S
C1383 H1371 0.950 . S
C1383 C1379 1.393 . S
C1383 C1382 1.391 . S
H1384 C1392 0.950 . S
H1385 C1397 0.950 . S
H1386 C1394 0.950 . S
H1387 C1396 0.950 . S
H1388 C1398 0.950 . S
H1389 C1400 0.950 . S
H1390 C1402 0.950 . S
H1391 C1403 0.950 . S
C1392 H1384 0.950 . S
C1392 C1393 1.386 . S
C1392 C1394 1.391 . S
C1393 C1392 1.386 . S
C1393 C1397 1.393 . S
C1394 H1386 0.950 . S
C1394 C1392 1.391 . S
C1394 C1395 1.400 . S
C1395 C1394 1.400 . S
C1395 C1396 1.398 . S
C1395 C1401 1.491 . S
C1396 H1387 0.950 . S
C1396 C1395 1.398 . S
C1396 C1397 1.391 . S
C1397 H1385 0.950 . S
C1397 C1393 1.393 . S
C1397 C1396 1.391 . S
C1398 H1388 0.950 . S
C1398 C1399 1.386 . S
C1398 C1400 1.391 . S
C1399 C1398 1.386 . S
C1399 C1403 1.393 . S
C1400 H1389 0.950 . S
C1400 C1398 1.391 . S
C1400 C1401 1.400 . S
C1401 C1395 1.491 . S
C1401 C1400 1.400 . S
C1401 C1402 1.398 . S
C1402 H1390 0.950 . S
C1402 C1401 1.398 . S
C1402 C1403 1.391 . S
C1403 H1391 0.950 . S
C1403 C1399 1.393 . S
C1403 C1402 1.391 . S
H1404 C1412 0.950 . S
H1405 C1417 0.950 . S
H1406 C1414 0.950 . S
H1407 C1416 0.950 . S
H1408 C1418 0.950 . S
H1409 C1420 0.950 . S
H1410 C1422 0.950 . S
H1411 C1423 0.950 . S
C1412 H1404 0.950 . S
C1412 C1413 1.386 . S
C1412 C1414 1.391 . S
C1413 C1412 1.386 . S
C1413 C1417 1.393 . S
C1414 H1406 0.950 . S
C1414 C1412 1.391 . S
C1414 C1415 1.400 . S
C1415 C1414 1.400 . S
C1415 C1416 1.398 . S
C1415 C1421 1.491 . S
C1416 H1407 0.950 . S
C1416 C1415 1.398 . S
C1416 C1417 1.391 . S
C1417 H1405 0.950 . S
C1417 C1413 1.393 . S
C1417 C1416 1.391 . S
C1418 H1408 0.950 . S
C1418 C1419 1.386 . S
C1418 C1420 1.391 . S
C1419 C1418 1.386 . S
C1419 C1423 1.393 . S
C1420 H1409 0.950 . S
C1420 C1418 1.391 . S
C1420 C1421 1.400 . S
C1421 C1415 1.491 . S
C1421 C1420 1.400 . S
C1421 C1422 1.398 . S
C1422 H1410 0.950 . S
C1422 C1421 1.398 . S
C1422 C1423 1.391 . S
C1423 H1411 0.950 . S
C1423 C1419 1.393 . S
C1423 C1422 1.391 . S
H1424 C1432 0.950 . S
H1425 C1437 0.950 . S
H1426 C1434 0.950 . S
H1427 C1436 0.950 . S
H1428 C1438 0.950 1_545 S
H1429 C1440 0.950 . S
H1430 C1442 0.950 . S
H1431 C1443 0.950 1_545 S
C1432 H1424 0.950 . S
C1432 C1433 1.386 . S
C1432 C1434 1.391 . S
C1433 C1432 1.386 . S
C1433 C1437 1.393 . S
C1434 H1426 0.950 . S
C1434 C1432 1.391 . S
C1434 C1435 1.400 . S
C1435 C1434 1.400 . S
C1435 C1436 1.398 . S
C1435 C1441 1.491 . S
C1436 H1427 0.950 . S
C1436 C1435 1.398 . S
C1436 C1437 1.391 . S
C1437 H1425 0.950 . S
C1437 C1433 1.393 . S
C1437 C1436 1.391 . S
C1438 H1428 0.950 1_565 S
C1438 C1439 1.386 1_565 S
C1438 C1440 1.391 . S
C1439 C1438 1.386 1_545 S
C1439 C1443 1.393 1_545 S
C1440 H1429 0.950 . S
C1440 C1438 1.391 . S
C1440 C1441 1.400 . S
C1441 C1435 1.491 . S
C1441 C1440 1.400 . S
C1441 C1442 1.398 . S
C1442 H1430 0.950 . S
C1442 C1441 1.398 . S
C1442 C1443 1.391 . S
C1443 H1431 0.950 1_565 S
C1443 C1439 1.393 1_565 S
C1443 C1442 1.391 . S
H1444 C1452 0.950 . S
H1445 C1457 0.950 . S
H1446 C1454 0.950 . S
H1447 C1456 0.950 . S
H1448 C1458 0.950 . S
H1449 C1460 0.950 . S
H1450 C1462 0.950 . S
H1451 C1463 0.950 . S
C1452 H1444 0.950 . S
C1452 C1453 1.386 . S
C1452 C1454 1.391 . S
C1453 C1452 1.386 . S
C1453 C1457 1.393 . S
C1454 H1446 0.950 . S
C1454 C1452 1.391 . S
C1454 C1455 1.400 . S
C1455 C1454 1.400 . S
C1455 C1456 1.398 . S
C1455 C1461 1.491 . S
C1456 H1447 0.950 . S
C1456 C1455 1.398 . S
C1456 C1457 1.391 . S
C1457 H1445 0.950 . S
C1457 C1453 1.393 . S
C1457 C1456 1.391 . S
C1458 H1448 0.950 . S
C1458 C1459 1.386 . S
C1458 C1460 1.391 . S
C1459 C1458 1.386 . S
C1459 C1463 1.393 . S
C1460 H1449 0.950 . S
C1460 C1458 1.391 . S
C1460 C1461 1.400 . S
C1461 C1455 1.491 . S
C1461 C1460 1.400 . S
C1461 C1462 1.398 . S
C1462 H1450 0.950 . S
C1462 C1461 1.398 . S
C1462 C1463 1.391 . S
C1463 H1451 0.950 . S
C1463 C1459 1.393 . S
C1463 C1462 1.391 . S
H1464 C1472 0.950 . S
H1465 C1477 0.950 . S
H1466 C1474 0.950 . S
H1467 C1476 0.950 . S
H1468 C1478 0.950 . S
H1469 C1480 0.950 . S
H1470 C1482 0.950 . S
H1471 C1483 0.950 . S
C1472 H1464 0.950 . S
C1472 C1473 1.386 . S
C1472 C1474 1.391 . S
C1473 C1472 1.386 . S
C1473 C1477 1.393 . S
C1474 H1466 0.950 . S
C1474 C1472 1.391 . S
C1474 C1475 1.400 . S
C1475 C1474 1.400 . S
C1475 C1476 1.398 . S
C1475 C1481 1.491 . S
C1476 H1467 0.950 . S
C1476 C1475 1.398 . S
C1476 C1477 1.391 . S
C1477 H1465 0.950 . S
C1477 C1473 1.393 . S
C1477 C1476 1.391 . S
C1478 H1468 0.950 . S
C1478 C1479 1.386 . S
C1478 C1480 1.391 . S
C1479 C1478 1.386 . S
C1479 C1483 1.393 . S
C1480 H1469 0.950 . S
C1480 C1478 1.391 . S
C1480 C1481 1.400 . S
C1481 C1475 1.491 . S
C1481 C1480 1.400 . S
C1481 C1482 1.398 . S
C1482 H1470 0.950 . S
C1482 C1481 1.398 . S
C1482 C1483 1.391 . S
C1483 H1471 0.950 . S
C1483 C1479 1.393 . S
C1483 C1482 1.391 . S
H1484 C1492 0.950 . S
H1485 C1497 0.950 . S
H1486 C1494 0.950 . S
H1487 C1496 0.950 . S
H1488 C1498 0.950 . S
H1489 C1500 0.950 . S
H1490 C1502 0.950 . S
H1491 C1503 0.950 . S
C1492 H1484 0.950 . S
C1492 C1493 1.386 . S
C1492 C1494 1.391 . S
C1493 C1492 1.386 . S
C1493 C1497 1.393 . S
C1494 H1486 0.950 . S
C1494 C1492 1.391 . S
C1494 C1495 1.400 . S
C1495 C1494 1.400 . S
C1495 C1496 1.398 . S
C1495 C1501 1.491 . S
C1496 H1487 0.950 . S
C1496 C1495 1.398 . S
C1496 C1497 1.391 . S
C1497 H1485 0.950 . S
C1497 C1493 1.393 . S
C1497 C1496 1.391 . S
C1498 H1488 0.950 . S
C1498 C1499 1.386 . S
C1498 C1500 1.391 . S
C1499 C1498 1.386 . S
C1499 C1503 1.393 . S
C1500 H1489 0.950 . S
C1500 C1498 1.391 . S
C1500 C1501 1.400 . S
C1501 C1495 1.491 . S
C1501 C1500 1.400 . S
C1501 C1502 1.398 . S
C1502 H1490 0.950 . S
C1502 C1501 1.398 . S
C1502 C1503 1.391 . S
C1503 H1491 0.950 . S
C1503 C1499 1.393 . S
C1503 C1502 1.391 . S
H1504 C1512 0.950 . S
H1505 C1517 0.950 . S
H1506 C1514 0.950 . S
H1507 C1516 0.950 . S
H1508 C1518 0.950 . S
H1509 C1520 0.950 . S
H1510 C1522 0.950 . S
H1511 C1523 0.950 . S
C1512 H1504 0.950 . S
C1512 C1513 1.386 . S
C1512 C1514 1.391 . S
C1513 C1512 1.386 . S
C1513 C1517 1.393 . S
C1514 H1506 0.950 . S
C1514 C1512 1.391 . S
C1514 C1515 1.400 . S
C1515 C1514 1.400 . S
C1515 C1516 1.398 . S
C1515 C1521 1.491 . S
C1516 H1507 0.950 . S
C1516 C1515 1.398 . S
C1516 C1517 1.391 . S
C1517 H1505 0.950 . S
C1517 C1513 1.393 . S
C1517 C1516 1.391 . S
C1518 H1508 0.950 . S
C1518 C1519 1.386 . S
C1518 C1520 1.391 1_545 S
C1519 C1518 1.386 . S
C1519 C1523 1.393 1_545 S
C1520 H1509 0.950 . S
C1520 C1518 1.391 1_565 S
C1520 C1521 1.400 . S
C1521 C1515 1.491 . S
C1521 C1520 1.400 . S
C1521 C1522 1.398 . S
C1522 H1510 0.950 . S
C1522 C1521 1.398 . S
C1522 C1523 1.391 . S
C1523 H1511 0.950 . S
C1523 C1519 1.393 1_565 S
C1523 C1522 1.391 . S
H1524 C1532 0.950 . S
H1525 C1537 0.950 . S
H1526 C1534 0.950 . S
H1527 C1536 0.950 . S
H1528 C1538 0.950 . S
H1529 C1540 0.950 . S
H1530 C1542 0.950 . S
H1531 C1543 0.950 . S
C1532 H1524 0.950 . S
C1532 C1533 1.386 . S
C1532 C1534 1.391 . S
C1533 C1532 1.386 . S
C1533 C1537 1.393 . S
C1534 H1526 0.950 . S
C1534 C1532 1.391 . S
C1534 C1535 1.400 . S
C1535 C1534 1.400 . S
C1535 C1536 1.398 . S
C1535 C1541 1.491 . S
C1536 H1527 0.950 . S
C1536 C1535 1.398 . S
C1536 C1537 1.391 . S
C1537 H1525 0.950 . S
C1537 C1533 1.393 . S
C1537 C1536 1.391 . S
C1538 H1528 0.950 . S
C1538 C1539 1.386 . S
C1538 C1540 1.391 . S
C1539 C1538 1.386 . S
C1539 C1543 1.393 . S
C1540 H1529 0.950 . S
C1540 C1538 1.391 . S
C1540 C1541 1.400 . S
C1541 C1535 1.491 . S
C1541 C1540 1.400 . S
C1541 C1542 1.398 . S
C1542 H1530 0.950 . S
C1542 C1541 1.398 . S
C1542 C1543 1.391 . S
C1543 H1531 0.950 . S
C1543 C1539 1.393 . S
C1543 C1542 1.391 . S
H1544 C1552 0.950 . S
H1545 C1557 0.950 . S
H1546 C1554 0.950 . S
H1547 C1556 0.950 . S
H1548 C1558 0.950 . S
H1549 C1560 0.950 . S
H1550 C1562 0.950 . S
H1551 C1563 0.950 . S
C1552 H1544 0.950 . S
C1552 C1553 1.386 . S
C1552 C1554 1.391 . S
C1553 C1552 1.386 . S
C1553 C1557 1.393 . S
C1554 H1546 0.950 . S
C1554 C1552 1.391 . S
C1554 C1555 1.400 . S
C1555 C1554 1.400 . S
C1555 C1556 1.398 . S
C1555 C1561 1.491 . S
C1556 H1547 0.950 . S
C1556 C1555 1.398 . S
C1556 C1557 1.391 . S
C1557 H1545 0.950 . S
C1557 C1553 1.393 . S
C1557 C1556 1.391 . S
C1558 H1548 0.950 . S
C1558 C1559 1.386 . S
C1558 C1560 1.391 . S
C1559 C1558 1.386 . S
C1559 C1563 1.393 . S
C1560 H1549 0.950 . S
C1560 C1558 1.391 . S
C1560 C1561 1.400 . S
C1561 C1555 1.491 . S
C1561 C1560 1.400 . S
C1561 C1562 1.398 . S
C1562 H1550 0.950 . S
C1562 C1561 1.398 . S
C1562 C1563 1.391 . S
C1563 H1551 0.950 . S
C1563 C1559 1.393 . S
C1563 C1562 1.391 . S
H1564 C1572 0.950 . S
H1565 C1577 0.950 . S
H1566 C1574 0.950 . S
H1567 C1576 0.950 . S
H1568 C1578 0.950 . S
H1569 C1580 0.950 . S
H1570 C1582 0.950 . S
H1571 C1583 0.950 . S
C1572 H1564 0.950 . S
C1572 C1573 1.386 . S
C1572 C1574 1.391 . S
C1573 C1572 1.386 . S
C1573 C1577 1.393 . S
C1574 H1566 0.950 . S
C1574 C1572 1.391 . S
C1574 C1575 1.400 . S
C1575 C1574 1.400 . S
C1575 C1576 1.398 . S
C1575 C1581 1.491 . S
C1576 H1567 0.950 . S
C1576 C1575 1.398 . S
C1576 C1577 1.391 . S
C1577 H1565 0.950 . S
C1577 C1573 1.393 . S
C1577 C1576 1.391 . S
C1578 H1568 0.950 . S
C1578 C1579 1.386 . S
C1578 C1580 1.391 1_655 S
C1579 C1578 1.386 . S
C1579 C1583 1.393 1_655 S
C1580 H1569 0.950 . S
C1580 C1578 1.391 1_455 S
C1580 C1581 1.400 . S
C1581 C1575 1.491 . S
C1581 C1580 1.400 . S
C1581 C1582 1.398 . S
C1582 H1570 0.950 . S
C1582 C1581 1.398 . S
C1582 C1583 1.391 . S
C1583 H1571 0.950 . S
C1583 C1579 1.393 1_455 S
C1583 C1582 1.391 . S
H1584 C1592 0.950 . S
H1585 C1597 0.950 . S
H1586 C1594 0.950 . S
H1587 C1596 0.950 . S
H1588 C1598 0.950 . S
H1589 C1600 0.950 . S
H1590 C1602 0.950 . S
H1591 C1603 0.950 . S
C1592 H1584 0.950 . S
C1592 C1593 1.386 . S
C1592 C1594 1.391 . S
C1593 C1592 1.386 . S
C1593 C1597 1.393 . S
C1594 H1586 0.950 . S
C1594 C1592 1.391 . S
C1594 C1595 1.400 . S
C1595 C1594 1.400 . S
C1595 C1596 1.398 . S
C1595 C1601 1.491 . S
C1596 H1587 0.950 . S
C1596 C1595 1.398 . S
C1596 C1597 1.391 . S
C1597 H1585 0.950 . S
C1597 C1593 1.393 . S
C1597 C1596 1.391 . S
C1598 H1588 0.950 . S
C1598 C1599 1.386 . S
C1598 C1600 1.391 . S
C1599 C1598 1.386 . S
C1599 C1603 1.393 . S
C1600 H1589 0.950 . S
C1600 C1598 1.391 . S
C1600 C1601 1.400 . S
C1601 C1595 1.491 . S
C1601 C1600 1.400 . S
C1601 C1602 1.398 . S
C1602 H1590 0.950 . S
C1602 C1601 1.398 . S
C1602 C1603 1.391 . S
C1603 H1591 0.950 . S
C1603 C1599 1.393 . S
C1603 C1602 1.391 . S
H1604 C1612 0.950 . S
H1605 C1617 0.950 . S
H1606 C1614 0.950 . S
H1607 C1616 0.950 . S
H1608 C1618 0.950 . S
H1609 C1620 0.950 . S
H1610 C1622 0.950 . S
H1611 C1623 0.950 . S
C1612 H1604 0.950 . S
C1612 C1613 1.386 . S
C1612 C1614 1.391 . S
C1613 C1612 1.386 . S
C1613 C1617 1.393 . S
C1614 H1606 0.950 . S
C1614 C1612 1.391 . S
C1614 C1615 1.400 . S
C1615 C1614 1.400 . S
C1615 C1616 1.398 . S
C1615 C1621 1.491 . S
C1616 H1607 0.950 . S
C1616 C1615 1.398 . S
C1616 C1617 1.391 . S
C1617 H1605 0.950 . S
C1617 C1613 1.393 . S
C1617 C1616 1.391 . S
C1618 H1608 0.950 . S
C1618 C1619 1.386 . S
C1618 C1620 1.391 . S
C1619 C1618 1.386 . S
C1619 C1623 1.393 . S
C1620 H1609 0.950 . S
C1620 C1618 1.391 . S
C1620 C1621 1.400 . S
C1621 C1615 1.491 . S
C1621 C1620 1.400 . S
C1621 C1622 1.398 . S
C1622 H1610 0.950 . S
C1622 C1621 1.398 . S
C1622 C1623 1.391 . S
C1623 H1611 0.950 . S
C1623 C1619 1.393 . S
C1623 C1622 1.391 . S
H1624 C1632 0.950 . S
H1625 C1637 0.950 . S
H1626 C1634 0.950 . S
H1627 C1636 0.950 . S
H1628 C1638 0.950 . S
H1629 C1640 0.950 . S
H1630 C1642 0.950 . S
H1631 C1643 0.950 . S
C1632 H1624 0.950 . S
C1632 C1633 1.386 . S
C1632 C1634 1.391 . S
C1633 C1632 1.386 . S
C1633 C1637 1.393 . S
C1634 H1626 0.950 . S
C1634 C1632 1.391 . S
C1634 C1635 1.400 . S
C1635 C1634 1.400 . S
C1635 C1636 1.398 . S
C1635 C1641 1.491 . S
C1636 H1627 0.950 . S
C1636 C1635 1.398 . S
C1636 C1637 1.391 . S
C1637 H1625 0.950 . S
C1637 C1633 1.393 . S
C1637 C1636 1.391 . S
C1638 H1628 0.950 . S
C1638 C1639 1.386 . S
C1638 C1640 1.391 . S
C1639 C1638 1.386 . S
C1639 C1643 1.393 . S
C1640 H1629 0.950 . S
C1640 C1638 1.391 . S
C1640 C1641 1.400 . S
C1641 C1635 1.491 . S
C1641 C1640 1.400 . S
C1641 C1642 1.398 . S
C1642 H1630 0.950 . S
C1642 C1641 1.398 . S
C1642 C1643 1.391 . S
C1643 H1631 0.950 . S
C1643 C1639 1.393 . S
C1643 C1642 1.391 . S
H1644 C1652 0.950 . S
H1645 C1657 0.950 . S
H1646 C1654 0.950 . S
H1647 C1656 0.950 . S
H1648 C1658 0.950 . S
H1649 C1660 0.950 . S
H1650 C1662 0.950 . S
H1651 C1663 0.950 1_655 S
C1652 H1644 0.950 . S
C1652 C1653 1.386 . S
C1652 C1654 1.391 . S
C1653 C1652 1.386 . S
C1653 C1657 1.393 . S
C1654 H1646 0.950 . S
C1654 C1652 1.391 . S
C1654 C1655 1.400 . S
C1655 C1654 1.400 . S
C1655 C1656 1.398 . S
C1655 C1661 1.491 . S
C1656 H1647 0.950 . S
C1656 C1655 1.398 . S
C1656 C1657 1.391 . S
C1657 H1645 0.950 . S
C1657 C1653 1.393 . S
C1657 C1656 1.391 . S
C1658 H1648 0.950 . S
C1658 C1659 1.386 1_455 S
C1658 C1660 1.391 . S
C1659 C1658 1.386 1_655 S
C1659 C1663 1.393 1_655 S
C1660 H1649 0.950 . S
C1660 C1658 1.391 . S
C1660 C1661 1.400 . S
C1661 C1655 1.491 . S
C1661 C1660 1.400 . S
C1661 C1662 1.398 . S
C1662 H1650 0.950 . S
C1662 C1661 1.398 . S
C1662 C1663 1.391 . S
C1663 H1651 0.950 1_455 S
C1663 C1659 1.393 1_455 S
C1663 C1662 1.391 . S
H1664 C1672 0.950 . S
H1665 C1677 0.950 . S
H1666 C1674 0.950 . S
H1667 C1676 0.950 . S
H1668 C1678 0.950 . S
H1669 C1680 0.950 . S
H1670 C1682 0.950 . S
H1671 C1683 0.950 . S
C1672 H1664 0.950 . S
C1672 C1673 1.386 . S
C1672 C1674 1.391 . S
C1673 C1672 1.386 . S
C1673 C1677 1.393 . S
C1674 H1666 0.950 . S
C1674 C1672 1.391 . S
C1674 C1675 1.400 . S
C1675 C1674 1.400 . S
C1675 C1676 1.398 . S
C1675 C1681 1.491 . S
C1676 H1667 0.950 . S
C1676 C1675 1.398 . S
C1676 C1677 1.391 . S
C1677 H1665 0.950 . S
C1677 C1673 1.393 . S
C1677 C1676 1.391 . S
C1678 H1668 0.950 . S
C1678 C1679 1.386 . S
C1678 C1680 1.391 1_455 S
C1679 C1678 1.386 . S
C1679 C1683 1.393 1_455 S
C1680 H1669 0.950 . S
C1680 C1678 1.391 1_655 S
C1680 C1681 1.400 . S
C1681 C1675 1.491 . S
C1681 C1680 1.400 . S
C1681 C1682 1.398 . S
C1682 H1670 0.950 . S
C1682 C1681 1.398 . S
C1682 C1683 1.391 . S
C1683 H1671 0.950 . S
C1683 C1679 1.393 1_655 S
C1683 C1682 1.391 . S
H1684 C1692 0.950 . S
H1685 C1697 0.950 . S
H1686 C1694 0.950 . S
H1687 C1696 0.950 . S
H1688 C1698 0.950 . S
H1689 C1700 0.950 . S
H1690 C1702 0.950 . S
H1691 C1703 0.950 . S
C1692 H1684 0.950 . S
C1692 C1693 1.386 . S
C1692 C1694 1.391 . S
C1693 C1692 1.386 . S
C1693 C1697 1.393 . S
C1694 H1686 0.950 . S
C1694 C1692 1.391 . S
C1694 C1695 1.400 . S
C1695 C1694 1.400 . S
C1695 C1696 1.398 . S
C1695 C1701 1.491 . S
C1696 H1687 0.950 . S
C1696 C1695 1.398 . S
C1696 C1697 1.391 . S
C1697 H1685 0.950 . S
C1697 C1693 1.393 . S
C1697 C1696 1.391 . S
C1698 H1688 0.950 . S
C1698 C1699 1.386 . S
C1698 C1700 1.391 . S
C1699 C1698 1.386 . S
C1699 C1703 1.393 . S
C1700 H1689 0.950 . S
C1700 C1698 1.391 . S
C1700 C1701 1.400 . S
C1701 C1695 1.491 . S
C1701 C1700 1.400 . S
C1701 C1702 1.398 . S
C1702 H1690 0.950 . S
C1702 C1701 1.398 . S
C1702 C1703 1.391 . S
C1703 H1691 0.950 . S
C1703 C1699 1.393 . S
C1703 C1702 1.391 . S
H1704 C1712 0.950 . S
H1705 C1717 0.950 . S
H1706 C1714 0.950 . S
H1707 C1716 0.950 . S
H1708 C1718 0.950 . S
H1709 C1720 0.950 . S
H1710 C1722 0.950 . S
H1711 C1723 0.950 . S
C1712 H1704 0.950 . S
C1712 C1713 1.386 . S
C1712 C1714 1.391 . S
C1713 C1712 1.386 . S
C1713 C1717 1.393 . S
C1714 H1706 0.950 . S
C1714 C1712 1.391 . S
C1714 C1715 1.400 . S
C1715 C1714 1.400 . S
C1715 C1716 1.398 . S
C1715 C1721 1.491 . S
C1716 H1707 0.950 . S
C1716 C1715 1.398 . S
C1716 C1717 1.391 . S
C1717 H1705 0.950 . S
C1717 C1713 1.393 . S
C1717 C1716 1.391 . S
C1718 H1708 0.950 . S
C1718 C1719 1.386 . S
C1718 C1720 1.391 . S
C1719 C1718 1.386 . S
C1719 C1723 1.393 . S
C1720 H1709 0.950 . S
C1720 C1718 1.391 . S
C1720 C1721 1.400 . S
C1721 C1715 1.491 . S
C1721 C1720 1.400 . S
C1721 C1722 1.398 . S
C1722 H1710 0.950 . S
C1722 C1721 1.398 . S
C1722 C1723 1.391 . S
C1723 H1711 0.950 . S
C1723 C1719 1.393 . S
C1723 C1722 1.391 . S
H1724 C1732 0.950 . S
H1725 C1737 0.950 . S
H1726 C1734 0.950 . S
H1727 C1736 0.950 . S
H1728 C1738 0.950 . S
H1729 C1740 0.950 . S
H1730 C1742 0.950 . S
H1731 C1743 0.950 . S
C1732 H1724 0.950 . S
C1732 C1733 1.386 . S
C1732 C1734 1.391 . S
C1733 C1732 1.386 . S
C1733 C1737 1.393 . S
C1734 H1726 0.950 . S
C1734 C1732 1.391 . S
C1734 C1735 1.400 . S
C1735 C1734 1.400 . S
C1735 C1736 1.398 . S
C1735 C1741 1.491 . S
C1736 H1727 0.950 . S
C1736 C1735 1.398 . S
C1736 C1737 1.391 . S
C1737 H1725 0.950 . S
C1737 C1733 1.393 . S
C1737 C1736 1.391 . S
C1738 H1728 0.950 . S
C1738 C1739 1.386 . S
C1738 C1740 1.391 . S
C1739 C1738 1.386 . S
C1739 C1743 1.393 . S
C1740 H1729 0.950 . S
C1740 C1738 1.391 . S
C1740 C1741 1.400 . S
C1741 C1735 1.491 . S
C1741 C1740 1.400 . S
C1741 C1742 1.398 . S
C1742 H1730 0.950 . S
C1742 C1741 1.398 . S
C1742 C1743 1.391 . S
C1743 H1731 0.950 . S
C1743 C1739 1.393 . S
C1743 C1742 1.391 . S
H1744 C1752 0.950 . S
H1745 C1757 0.950 . S
H1746 C1754 0.950 . S
H1747 C1756 0.950 . S
H1748 C1758 0.950 . S
H1749 C1760 0.950 . S
H1750 C1762 0.950 . S
H1751 C1763 0.950 . S
C1752 H1744 0.950 . S
C1752 C1753 1.386 . S
C1752 C1754 1.391 . S
C1753 C1752 1.386 . S
C1753 C1757 1.393 . S
C1754 H1746 0.950 . S
C1754 C1752 1.391 . S
C1754 C1755 1.400 . S
C1755 C1754 1.400 . S
C1755 C1756 1.398 . S
C1755 C1761 1.491 . S
C1756 H1747 0.950 . S
C1756 C1755 1.398 . S
C1756 C1757 1.391 . S
C1757 H1745 0.950 . S
C1757 C1753 1.393 . S
C1757 C1756 1.391 . S
C1758 H1748 0.950 . S
C1758 C1759 1.386 . S
C1758 C1760 1.391 . S
C1759 C1758 1.386 . S
C1759 C1763 1.393 . S
C1760 H1749 0.950 . S
C1760 C1758 1.391 . S
C1760 C1761 1.400 . S
C1761 C1755 1.491 . S
C1761 C1760 1.400 . S
C1761 C1762 1.398 . S
C1762 H1750 0.950 . S
C1762 C1761 1.398 . S
C1762 C1763 1.391 . S
C1763 H1751 0.950 . S
C1763 C1759 1.393 . S
C1763 C1762 1.391 . S
H1764 C1772 0.950 . S
H1765 C1777 0.950 . S
H1766 C1774 0.950 . S
H1767 C1776 0.950 . S
H1768 C1778 0.950 . S
H1769 C1780 0.950 . S
H1770 C1782 0.950 . S
H1771 C1783 0.950 . S
C1772 H1764 0.950 . S
C1772 C1773 1.386 . S
C1772 C1774 1.391 . S
C1773 C1772 1.386 . S
C1773 C1777 1.393 . S
C1774 H1766 0.950 . S
C1774 C1772 1.391 . S
C1774 C1775 1.400 . S
C1775 C1774 1.400 . S
C1775 C1776 1.398 . S
C1775 C1781 1.491 . S
C1776 H1767 0.950 . S
C1776 C1775 1.398 . S
C1776 C1777 1.391 . S
C1777 H1765 0.950 . S
C1777 C1773 1.393 . S
C1777 C1776 1.391 . S
C1778 H1768 0.950 . S
C1778 C1779 1.386 . S
C1778 C1780 1.391 . S
C1779 C1778 1.386 . S
C1779 C1783 1.393 . S
C1780 H1769 0.950 . S
C1780 C1778 1.391 . S
C1780 C1781 1.400 . S
C1781 C1775 1.491 . S
C1781 C1780 1.400 . S
C1781 C1782 1.398 . S
C1782 H1770 0.950 . S
C1782 C1781 1.398 . S
C1782 C1783 1.391 . S
C1783 H1771 0.950 . S
C1783 C1779 1.393 . S
C1783 C1782 1.391 . S
H1784 C1792 0.950 . S
H1785 C1797 0.950 . S
H1786 C1794 0.950 . S
H1787 C1796 0.950 . S
H1788 C1798 0.950 . S
H1789 C1800 0.950 . S
H1790 C1802 0.950 . S
H1791 C1803 0.950 . S
C1792 H1784 0.950 . S
C1792 C1793 1.386 . S
C1792 C1794 1.391 . S
C1793 C1792 1.386 . S
C1793 C1797 1.393 . S
C1794 H1786 0.950 . S
C1794 C1792 1.391 . S
C1794 C1795 1.400 . S
C1795 C1794 1.400 . S
C1795 C1796 1.398 . S
C1795 C1801 1.491 . S
C1796 H1787 0.950 . S
C1796 C1795 1.398 . S
C1796 C1797 1.391 . S
C1797 H1785 0.950 . S
C1797 C1793 1.393 . S
C1797 C1796 1.391 . S
C1798 H1788 0.950 . S
C1798 C1799 1.386 . S
C1798 C1800 1.391 . S
C1799 C1798 1.386 . S
C1799 C1803 1.393 . S
C1800 H1789 0.950 . S
C1800 C1798 1.391 . S
C1800 C1801 1.400 . S
C1801 C1795 1.491 . S
C1801 C1800 1.400 . S
C1801 C1802 1.398 . S
C1802 H1790 0.950 . S
C1802 C1801 1.398 . S
C1802 C1803 1.391 . S
C1803 H1791 0.950 . S
C1803 C1799 1.393 . S
C1803 C1802 1.391 . S
H1804 C1812 0.950 . S
H1805 C1817 0.950 . S
H1806 C1814 0.950 . S
H1807 C1816 0.950 . S
H1808 C1818 0.950 . S
H1809 C1820 0.950 . S
H1810 C1822 0.950 . S
H1811 C1823 0.950 . S
C1812 H1804 0.950 . S
C1812 C1813 1.386 . S
C1812 C1814 1.391 . S
C1813 C1812 1.386 . S
C1813 C1817 1.393 . S
C1814 H1806 0.950 . S
C1814 C1812 1.391 . S
C1814 C1815 1.400 . S
C1815 C1814 1.400 . S
C1815 C1816 1.398 . S
C1815 C1821 1.491 . S
C1816 H1807 0.950 . S
C1816 C1815 1.398 . S
C1816 C1817 1.391 . S
C1817 H1805 0.950 . S
C1817 C1813 1.393 . S
C1817 C1816 1.391 . S
C1818 H1808 0.950 . S
C1818 C1819 1.386 . S
C1818 C1820 1.391 . S
C1819 C1818 1.386 . S
C1819 C1823 1.393 . S
C1820 H1809 0.950 . S
C1820 C1818 1.391 . S
C1820 C1821 1.400 . S
C1821 C1815 1.491 . S
C1821 C1820 1.400 . S
C1821 C1822 1.398 . S
C1822 H1810 0.950 . S
C1822 C1821 1.398 . S
C1822 C1823 1.391 . S
C1823 H1811 0.950 . S
C1823 C1819 1.393 . S
C1823 C1822 1.391 . S
H1824 C1832 0.950 . S
H1825 C1837 0.950 . S
H1826 C1834 0.950 . S
H1827 C1836 0.950 . S
H1828 C1838 0.950 . S
H1829 C1840 0.950 . S
H1830 C1842 0.950 . S
H1831 C1843 0.950 1_455 S
C1832 H1824 0.950 . S
C1832 C1833 1.386 . S
C1832 C1834 1.391 . S
C1833 C1832 1.386 . S
C1833 C1837 1.393 . S
C1834 H1826 0.950 . S
C1834 C1832 1.391 . S
C1834 C1835 1.400 . S
C1835 C1834 1.400 . S
C1835 C1836 1.398 . S
C1835 C1841 1.491 . S
C1836 H1827 0.950 . S
C1836 C1835 1.398 . S
C1836 C1837 1.391 . S
C1837 H1825 0.950 . S
C1837 C1833 1.393 . S
C1837 C1836 1.391 . S
C1838 H1828 0.950 . S
C1838 C1839 1.386 . S
C1838 C1840 1.391 . S
C1839 C1838 1.386 . S
C1839 C1843 1.393 . S
C1840 H1829 0.950 . S
C1840 C1838 1.391 . S
C1840 C1841 1.400 . S
C1841 C1835 1.491 . S
C1841 C1840 1.400 . S
C1841 C1842 1.398 . S
C1842 H1830 0.950 . S
C1842 C1841 1.398 . S
C1842 C1843 1.391 . S
C1843 H1831 0.950 1_655 S
C1843 C1839 1.393 . S
C1843 C1842 1.391 . S
H1844 C1852 0.950 . S
H1845 C1857 0.950 . S
H1846 C1854 0.950 . S
H1847 C1856 0.950 . S
H1848 C1858 0.950 . S
H1849 C1860 0.950 . S
H1850 C1862 0.950 . S
H1851 C1863 0.950 . S
C1852 H1844 0.950 . S
C1852 C1853 1.386 . S
C1852 C1854 1.391 . S
C1853 C1852 1.386 . S
C1853 C1857 1.393 . S
C1854 H1846 0.950 . S
C1854 C1852 1.391 . S
C1854 C1855 1.400 . S
C1855 C1854 1.400 . S
C1855 C1856 1.398 . S
C1855 C1861 1.491 . S
C1856 H1847 0.950 . S
C1856 C1855 1.398 . S
C1856 C1857 1.391 . S
C1857 H1845 0.950 . S
C1857 C1853 1.393 . S
C1857 C1856 1.391 . S
C1858 H1848 0.950 . S
C1858 C1859 1.386 . S
C1858 C1860 1.391 . S
C1859 C1858 1.386 . S
C1859 C1863 1.393 . S
C1860 H1849 0.950 . S
C1860 C1858 1.391 . S
C1860 C1861 1.400 . S
C1861 C1855 1.491 . S
C1861 C1860 1.400 . S
C1861 C1862 1.398 . S
C1862 H1850 0.950 . S
C1862 C1861 1.398 . S
C1862 C1863 1.391 . S
C1863 H1851 0.950 . S
C1863 C1859 1.393 . S
C1863 C1862 1.391 . S
H1864 C1872 0.950 . S
H1865 C1877 0.950 . S
H1866 C1874 0.950 . S
H1867 C1876 0.950 . S
H1868 C1878 0.950 . S
H1869 C1880 0.950 . S
H1870 C1882 0.950 . S
H1871 C1883 0.950 . S
C1872 H1864 0.950 . S
C1872 C1873 1.386 . S
C1872 C1874 1.391 . S
C1873 C1872 1.386 . S
C1873 C1877 1.393 . S
C1874 H1866 0.950 . S
C1874 C1872 1.391 . S
C1874 C1875 1.400 . S
C1875 C1874 1.400 . S
C1875 C1876 1.398 . S
C1875 C1881 1.491 . S
C1876 H1867 0.950 . S
C1876 C1875 1.398 . S
C1876 C1877 1.391 . S
C1877 H1865 0.950 . S
C1877 C1873 1.393 . S
C1877 C1876 1.391 . S
C1878 H1868 0.950 . S
C1878 C1879 1.386 . S
C1878 C1880 1.391 . S
C1879 C1878 1.386 . S
C1879 C1883 1.393 . S
C1880 H1869 0.950 . S
C1880 C1878 1.391 . S
C1880 C1881 1.400 . S
C1881 C1875 1.491 . S
C1881 C1880 1.400 . S
C1881 C1882 1.398 . S
C1882 H1870 0.950 . S
C1882 C1881 1.398 . S
C1882 C1883 1.391 . S
C1883 H1871 0.950 . S
C1883 C1879 1.393 . S
C1883 C1882 1.391 . S
H1884 C1892 0.950 . S
H1885 C1897 0.950 . S
H1886 C1894 0.950 . S
H1887 C1896 0.950 . S
H1888 C1898 0.950 . S
H1889 C1900 0.950 . S
H1890 C1902 0.950 . S
H1891 C1903 0.950 . S
C1892 H1884 0.950 . S
C1892 C1893 1.386 . S
C1892 C1894 1.391 . S
C1893 C1892 1.386 . S
C1893 C1897 1.393 . S
C1894 H1886 0.950 . S
C1894 C1892 1.391 . S
C1894 C1895 1.400 . S
C1895 C1894 1.400 . S
C1895 C1896 1.398 . S
C1895 C1901 1.491 . S
C1896 H1887 0.950 . S
C1896 C1895 1.398 . S
C1896 C1897 1.391 . S
C1897 H1885 0.950 . S
C1897 C1893 1.393 . S
C1897 C1896 1.391 . S
C1898 H1888 0.950 . S
C1898 C1899 1.386 . S
C1898 C1900 1.391 . S
C1899 C1898 1.386 . S
C1899 C1903 1.393 . S
C1900 H1889 0.950 . S
C1900 C1898 1.391 . S
C1900 C1901 1.400 . S
C1901 C1895 1.491 . S
C1901 C1900 1.400 . S
C1901 C1902 1.398 . S
C1902 H1890 0.950 . S
C1902 C1901 1.398 . S
C1902 C1903 1.391 . S
C1903 H1891 0.950 . S
C1903 C1899 1.393 . S
C1903 C1902 1.391 . S
H1904 C1912 0.950 . S
H1905 C1917 0.950 . S
H1906 C1914 0.950 . S
H1907 C1916 0.950 . S
H1908 C1918 0.950 . S
H1909 C1920 0.950 . S
H1910 C1922 0.950 . S
H1911 C1923 0.950 . S
C1912 H1904 0.950 . S
C1912 C1913 1.386 . S
C1912 C1914 1.391 . S
C1913 C1912 1.386 . S
C1913 C1917 1.393 . S
C1914 H1906 0.950 . S
C1914 C1912 1.391 . S
C1914 C1915 1.400 . S
C1915 C1914 1.400 . S
C1915 C1916 1.398 . S
C1915 C1921 1.491 . S
C1916 H1907 0.950 . S
C1916 C1915 1.398 . S
C1916 C1917 1.391 . S
C1917 H1905 0.950 . S
C1917 C1913 1.393 . S
C1917 C1916 1.391 . S
C1918 H1908 0.950 . S
C1918 C1919 1.386 . S
C1918 C1920 1.391 . S
C1919 C1918 1.386 . S
C1919 C1923 1.393 . S
C1920 H1909 0.950 . S
C1920 C1918 1.391 . S
C1920 C1921 1.400 . S
C1921 C1915 1.491 . S
C1921 C1920 1.400 . S
C1921 C1922 1.398 . S
C1922 H1910 0.950 . S
C1922 C1921 1.398 . S
C1922 C1923 1.391 . S
C1923 H1911 0.950 . S
C1923 C1919 1.393 . S
C1923 C1922 1.391 . S
H1924 C1932 0.950 . S
H1925 C1937 0.950 . S
H1926 C1934 0.950 . S
H1927 C1936 0.950 . S
H1928 C1938 0.950 . S
H1929 C1940 0.950 . S
H1930 C1942 0.950 . S
H1931 C1943 0.950 . S
C1932 H1924 0.950 . S
C1932 C1933 1.386 . S
C1932 C1934 1.391 . S
C1933 C1932 1.386 . S
C1933 C1937 1.393 . S
C1934 H1926 0.950 . S
C1934 C1932 1.391 . S
C1934 C1935 1.400 . S
C1935 C1934 1.400 . S
C1935 C1936 1.398 . S
C1935 C1941 1.491 . S
C1936 H1927 0.950 . S
C1936 C1935 1.398 . S
C1936 C1937 1.391 . S
C1937 H1925 0.950 . S
C1937 C1933 1.393 . S
C1937 C1936 1.391 . S
C1938 H1928 0.950 . S
C1938 C1939 1.386 . S
C1938 C1940 1.391 . S
C1939 C1938 1.386 . S
C1939 C1943 1.393 . S
C1940 H1929 0.950 . S
C1940 C1938 1.391 . S
C1940 C1941 1.400 . S
C1941 C1935 1.491 . S
C1941 C1940 1.400 . S
C1941 C1942 1.398 . S
C1942 H1930 0.950 . S
C1942 C1941 1.398 . S
C1942 C1943 1.391 . S
C1943 H1931 0.950 . S
C1943 C1939 1.393 . S
C1943 C1942 1.391 . S
H1944 C1952 0.950 . S
H1945 C1957 0.950 . S
H1946 C1954 0.950 . S
H1947 C1956 0.950 . S
H1948 C1958 0.950 . S
H1949 C1960 0.950 . S
H1950 C1962 0.950 . S
H1951 C1963 0.950 . S
C1952 H1944 0.950 . S
C1952 C1953 1.386 . S
C1952 C1954 1.391 . S
C1953 C1952 1.386 . S
C1953 C1957 1.393 . S
C1954 H1946 0.950 . S
C1954 C1952 1.391 . S
C1954 C1955 1.400 . S
C1955 C1954 1.400 . S
C1955 C1956 1.398 . S
C1955 C1961 1.491 . S
C1956 H1947 0.950 . S
C1956 C1955 1.398 . S
C1956 C1957 1.391 . S
C1957 H1945 0.950 . S
C1957 C1953 1.393 . S
C1957 C1956 1.391 . S
C1958 H1948 0.950 . S
C1958 C1959 1.386 . S
C1958 C1960 1.391 . S
C1959 C1958 1.386 . S
C1959 C1963 1.393 . S
C1960 H1949 0.950 . S
C1960 C1958 1.391 . S
C1960 C1961 1.400 . S
C1961 C1955 1.491 . S
C1961 C1960 1.400 . S
C1961 C1962 1.398 . S
C1962 H1950 0.950 . S
C1962 C1961 1.398 . S
C1962 C1963 1.391 . S
C1963 H1951 0.950 . S
C1963 C1959 1.393 . S
C1963 C1962 1.391 . S
H1964 C1972 0.950 . S
H1965 C1977 0.950 . S
H1966 C1974 0.950 . S
H1967 C1976 0.950 . S
H1968 C1978 0.950 . S
H1969 C1980 0.950 . S
H1970 C1982 0.950 . S
H1971 C1983 0.950 . S
C1972 H1964 0.950 . S
C1972 C1973 1.386 . S
C1972 C1974 1.391 . S
C1973 C1972 1.386 . S
C1973 C1977 1.393 . S
C1974 H1966 0.950 . S
C1974 C1972 1.391 . S
C1974 C1975 1.400 . S
C1975 C1974 1.400 . S
C1975 C1976 1.398 . S
C1975 C1981 1.491 . S
C1976 H1967 0.950 . S
C1976 C1975 1.398 . S
C1976 C1977 1.391 . S
C1977 H1965 0.950 . S
C1977 C1973 1.393 . S
C1977 C1976 1.391 . S
C1978 H1968 0.950 . S
C1978 C1979 1.386 . S
C1978 C1980 1.391 . S
C1979 C1978 1.386 . S
C1979 C1983 1.393 . S
C1980 H1969 0.950 . S
C1980 C1978 1.391 . S
C1980 C1981 1.400 . S
C1981 C1975 1.491 . S
C1981 C1980 1.400 . S
C1981 C1982 1.398 . S
C1982 H1970 0.950 . S
C1982 C1981 1.398 . S
C1982 C1983 1.391 . S
C1983 H1971 0.950 . S
C1983 C1979 1.393 . S
C1983 C1982 1.391 . S
H1984 C1992 0.950 . S
H1985 C1997 0.950 . S
H1986 C1994 0.950 . S
H1987 C1996 0.950 . S
H1988 C1998 0.950 1_554 S
H1989 C2000 0.950 . S
H1990 C2002 0.950 . S
H1991 C2003 0.950 . S
C1992 H1984 0.950 . S
C1992 C1993 1.386 . S
C1992 C1994 1.391 . S
C1993 C1992 1.386 . S
C1993 C1997 1.393 . S
C1994 H1986 0.950 . S
C1994 C1992 1.391 . S
C1994 C1995 1.400 . S
C1995 C1994 1.400 . S
C1995 C1996 1.398 . S
C1995 C2001 1.491 . S
C1996 H1987 0.950 . S
C1996 C1995 1.398 . S
C1996 C1997 1.391 . S
C1997 H1985 0.950 . S
C1997 C1993 1.393 . S
C1997 C1996 1.391 . S
C1998 H1988 0.950 1_556 S
C1998 C1999 1.386 . S
C1998 C2000 1.391 . S
C1999 C1998 1.386 . S
C1999 C2003 1.393 . S
C2000 H1989 0.950 . S
C2000 C1998 1.391 . S
C2000 C2001 1.400 . S
C2001 C1995 1.491 . S
C2001 C2000 1.400 . S
C2001 C2002 1.398 . S
C2002 H1990 0.950 . S
C2002 C2001 1.398 . S
C2002 C2003 1.391 . S
C2003 H1991 0.950 . S
C2003 C1999 1.393 . S
C2003 C2002 1.391 . S
H2004 C2012 0.950 . S
H2005 C2017 0.950 . S
H2006 C2014 0.950 . S
H2007 C2016 0.950 . S
H2008 C2018 0.950 . S
H2009 C2020 0.950 . S
H2010 C2022 0.950 . S
H2011 C2023 0.950 . S
C2012 H2004 0.950 . S
C2012 C2013 1.386 . S
C2012 C2014 1.391 . S
C2013 C2012 1.386 . S
C2013 C2017 1.393 . S
C2014 H2006 0.950 . S
C2014 C2012 1.391 . S
C2014 C2015 1.400 . S
C2015 C2014 1.400 . S
C2015 C2016 1.398 . S
C2015 C2021 1.491 . S
C2016 H2007 0.950 . S
C2016 C2015 1.398 . S
C2016 C2017 1.391 . S
C2017 H2005 0.950 . S
C2017 C2013 1.393 . S
C2017 C2016 1.391 . S
C2018 H2008 0.950 . S
C2018 C2019 1.386 . S
C2018 C2020 1.391 . S
C2019 C2018 1.386 . S
C2019 C2023 1.393 . S
C2020 H2009 0.950 . S
C2020 C2018 1.391 . S
C2020 C2021 1.400 . S
C2021 C2015 1.491 . S
C2021 C2020 1.400 . S
C2021 C2022 1.398 . S
C2022 H2010 0.950 . S
C2022 C2021 1.398 . S
C2022 C2023 1.391 . S
C2023 H2011 0.950 . S
C2023 C2019 1.393 . S
C2023 C2022 1.391 . S
H2024 C2032 0.950 . S
H2025 C2037 0.950 . S
H2026 C2034 0.950 . S
H2027 C2036 0.950 . S
H2028 C2038 0.950 . S
H2029 C2040 0.950 . S
H2030 C2042 0.950 . S
H2031 C2043 0.950 . S
C2032 H2024 0.950 . S
C2032 C2033 1.386 . S
C2032 C2034 1.391 . S
C2033 C2032 1.386 . S
C2033 C2037 1.393 . S
C2034 H2026 0.950 . S
C2034 C2032 1.391 . S
C2034 C2035 1.400 . S
C2035 C2034 1.400 . S
C2035 C2036 1.398 . S
C2035 C2041 1.491 . S
C2036 H2027 0.950 . S
C2036 C2035 1.398 . S
C2036 C2037 1.391 . S
C2037 H2025 0.950 . S
C2037 C2033 1.393 . S
C2037 C2036 1.391 . S
C2038 H2028 0.950 . S
C2038 C2039 1.386 . S
C2038 C2040 1.391 . S
C2039 C2038 1.386 . S
C2039 C2043 1.393 . S
C2040 H2029 0.950 . S
C2040 C2038 1.391 . S
C2040 C2041 1.400 . S
C2041 C2035 1.491 . S
C2041 C2040 1.400 . S
C2041 C2042 1.398 . S
C2042 H2030 0.950 . S
C2042 C2041 1.398 . S
C2042 C2043 1.391 . S
C2043 H2031 0.950 . S
C2043 C2039 1.393 . S
C2043 C2042 1.391 . S
H2044 C2052 0.950 . S
H2045 C2057 0.950 . S
H2046 C2054 0.950 . S
H2047 C2056 0.950 . S
H2048 C2058 0.950 . S
H2049 C2060 0.950 . S
H2050 C2062 0.950 . S
H2051 C2063 0.950 . S
C2052 H2044 0.950 . S
C2052 C2053 1.386 . S
C2052 C2054 1.391 . S
C2053 C2052 1.386 . S
C2053 C2057 1.393 . S
C2054 H2046 0.950 . S
C2054 C2052 1.391 . S
C2054 C2055 1.400 . S
C2055 C2054 1.400 . S
C2055 C2056 1.398 . S
C2055 C2061 1.491 . S
C2056 H2047 0.950 . S
C2056 C2055 1.398 . S
C2056 C2057 1.391 . S
C2057 H2045 0.950 . S
C2057 C2053 1.393 . S
C2057 C2056 1.391 . S
C2058 H2048 0.950 . S
C2058 C2059 1.386 . S
C2058 C2060 1.391 . S
C2059 C2058 1.386 . S
C2059 C2063 1.393 . S
C2060 H2049 0.950 . S
C2060 C2058 1.391 . S
C2060 C2061 1.400 . S
C2061 C2055 1.491 . S
C2061 C2060 1.400 . S
C2061 C2062 1.398 . S
C2062 H2050 0.950 . S
C2062 C2061 1.398 . S
C2062 C2063 1.391 . S
C2063 H2051 0.950 . S
C2063 C2059 1.393 . S
C2063 C2062 1.391 . S
H2064 C2072 0.950 . S
H2065 C2077 0.950 . S
H2066 C2074 0.950 . S
H2067 C2076 0.950 . S
H2068 C2078 0.950 . S
H2069 C2080 0.950 . S
H2070 C2082 0.950 . S
H2071 C2083 0.950 . S
C2072 H2064 0.950 . S
C2072 C2073 1.386 . S
C2072 C2074 1.391 . S
C2073 C2072 1.386 . S
C2073 C2077 1.393 . S
C2074 H2066 0.950 . S
C2074 C2072 1.391 . S
C2074 C2075 1.400 . S
C2075 C2074 1.400 . S
C2075 C2076 1.398 . S
C2075 C2081 1.491 . S
C2076 H2067 0.950 . S
C2076 C2075 1.398 . S
C2076 C2077 1.391 . S
C2077 H2065 0.950 . S
C2077 C2073 1.393 . S
C2077 C2076 1.391 . S
C2078 H2068 0.950 . S
C2078 C2079 1.386 . S
C2078 C2080 1.391 . S
C2079 C2078 1.386 . S
C2079 C2083 1.393 . S
C2080 H2069 0.950 . S
C2080 C2078 1.391 . S
C2080 C2081 1.400 . S
C2081 C2075 1.491 . S
C2081 C2080 1.400 . S
C2081 C2082 1.398 . S
C2082 H2070 0.950 . S
C2082 C2081 1.398 . S
C2082 C2083 1.391 . S
C2083 H2071 0.950 . S
C2083 C2079 1.393 . S
C2083 C2082 1.391 . S
H2084 C2092 0.950 . S
H2085 C2097 0.950 . S
H2086 C2094 0.950 . S
H2087 C2096 0.950 . S
H2088 C2098 0.950 . S
H2089 C2100 0.950 . S
H2090 C2102 0.950 . S
H2091 C2103 0.950 . S
C2092 H2084 0.950 . S
C2092 C2093 1.386 . S
C2092 C2094 1.391 . S
C2093 C2092 1.386 . S
C2093 C2097 1.393 . S
C2094 H2086 0.950 . S
C2094 C2092 1.391 . S
C2094 C2095 1.400 . S
C2095 C2094 1.400 . S
C2095 C2096 1.398 . S
C2095 C2101 1.491 . S
C2096 H2087 0.950 . S
C2096 C2095 1.398 . S
C2096 C2097 1.391 . S
C2097 H2085 0.950 . S
C2097 C2093 1.393 . S
C2097 C2096 1.391 . S
C2098 H2088 0.950 . S
C2098 C2099 1.386 . S
C2098 C2100 1.391 . S
C2099 C2098 1.386 . S
C2099 C2103 1.393 . S
C2100 H2089 0.950 . S
C2100 C2098 1.391 . S
C2100 C2101 1.400 . S
C2101 C2095 1.491 . S
C2101 C2100 1.400 . S
C2101 C2102 1.398 . S
C2102 H2090 0.950 . S
C2102 C2101 1.398 . S
C2102 C2103 1.391 . S
C2103 H2091 0.950 . S
C2103 C2099 1.393 . S
C2103 C2102 1.391 . S
H2104 C2112 0.950 . S
H2105 C2117 0.950 . S
H2106 C2114 0.950 . S
H2107 C2116 0.950 . S
H2108 C2118 0.950 . S
H2109 C2120 0.950 . S
H2110 C2122 0.950 . S
H2111 C2123 0.950 . S
C2112 H2104 0.950 . S
C2112 C2113 1.386 . S
C2112 C2114 1.391 . S
C2113 C2112 1.386 . S
C2113 C2117 1.393 . S
C2114 H2106 0.950 . S
C2114 C2112 1.391 . S
C2114 C2115 1.400 . S
C2115 C2114 1.400 . S
C2115 C2116 1.398 . S
C2115 C2121 1.491 . S
C2116 H2107 0.950 . S
C2116 C2115 1.398 . S
C2116 C2117 1.391 . S
C2117 H2105 0.950 . S
C2117 C2113 1.393 . S
C2117 C2116 1.391 . S
C2118 H2108 0.950 . S
C2118 C2119 1.386 . S
C2118 C2120 1.391 . S
C2119 C2118 1.386 . S
C2119 C2123 1.393 . S
C2120 H2109 0.950 . S
C2120 C2118 1.391 . S
C2120 C2121 1.400 . S
C2121 C2115 1.491 . S
C2121 C2120 1.400 . S
C2121 C2122 1.398 . S
C2122 H2110 0.950 . S
C2122 C2121 1.398 . S
C2122 C2123 1.391 . S
C2123 H2111 0.950 . S
C2123 C2119 1.393 . S
C2123 C2122 1.391 . S
H2124 C2132 0.950 . S
H2125 C2137 0.950 . S
H2126 C2134 0.950 . S
H2127 C2136 0.950 . S
H2128 C2138 0.950 . S
H2129 C2140 0.950 . S
H2130 C2142 0.950 . S
H2131 C2143 0.950 . S
C2132 H2124 0.950 . S
C2132 C2133 1.386 . S
C2132 C2134 1.391 . S
C2133 C2132 1.386 . S
C2133 C2137 1.393 . S
C2134 H2126 0.950 . S
C2134 C2132 1.391 . S
C2134 C2135 1.400 . S
C2135 C2134 1.400 . S
C2135 C2136 1.398 . S
C2135 C2141 1.491 . S
C2136 H2127 0.950 . S
C2136 C2135 1.398 . S
C2136 C2137 1.391 . S
C2137 H2125 0.950 . S
C2137 C2133 1.393 . S
C2137 C2136 1.391 . S
C2138 H2128 0.950 . S
C2138 C2139 1.386 . S
C2138 C2140 1.391 . S
C2139 C2138 1.386 . S
C2139 C2143 1.393 . S
C2140 H2129 0.950 . S
C2140 C2138 1.391 . S
C2140 C2141 1.400 . S
C2141 C2135 1.491 . S
C2141 C2140 1.400 . S
C2141 C2142 1.398 . S
C2142 H2130 0.950 . S
C2142 C2141 1.398 . S
C2142 C2143 1.391 . S
C2143 H2131 0.950 . S
C2143 C2139 1.393 . S
C2143 C2142 1.391 . S
H2144 C2152 0.950 . S
H2145 C2157 0.950 . S
H2146 C2154 0.950 . S
H2147 C2156 0.950 . S
H2148 C2158 0.950 . S
H2149 C2160 0.950 . S
H2150 C2162 0.950 . S
H2151 C2163 0.950 . S
C2152 H2144 0.950 . S
C2152 C2153 1.386 . S
C2152 C2154 1.391 . S
C2153 C2152 1.386 . S
C2153 C2157 1.393 . S
C2154 H2146 0.950 . S
C2154 C2152 1.391 . S
C2154 C2155 1.400 . S
C2155 C2154 1.400 . S
C2155 C2156 1.398 . S
C2155 C2161 1.491 . S
C2156 H2147 0.950 . S
C2156 C2155 1.398 . S
C2156 C2157 1.391 . S
C2157 H2145 0.950 . S
C2157 C2153 1.393 . S
C2157 C2156 1.391 . S
C2158 H2148 0.950 . S
C2158 C2159 1.386 . S
C2158 C2160 1.391 . S
C2159 C2158 1.386 . S
C2159 C2163 1.393 . S
C2160 H2149 0.950 . S
C2160 C2158 1.391 . S
C2160 C2161 1.400 . S
C2161 C2155 1.491 . S
C2161 C2160 1.400 . S
C2161 C2162 1.398 . S
C2162 H2150 0.950 . S
C2162 C2161 1.398 . S
C2162 C2163 1.391 . S
C2163 H2151 0.950 . S
C2163 C2159 1.393 . S
C2163 C2162 1.391 . S
H2164 C2172 0.950 . S
H2165 C2177 0.950 . S
H2166 C2174 0.950 . S
H2167 C2176 0.950 . S
H2168 C2178 0.950 . S
H2169 C2180 0.950 . S
H2170 C2182 0.950 . S
H2171 C2183 0.950 . S
C2172 H2164 0.950 . S
C2172 C2173 1.386 . S
C2172 C2174 1.391 . S
C2173 C2172 1.386 . S
C2173 C2177 1.393 . S
C2174 H2166 0.950 . S
C2174 C2172 1.391 . S
C2174 C2175 1.400 . S
C2175 C2174 1.400 . S
C2175 C2176 1.398 . S
C2175 C2181 1.491 . S
C2176 H2167 0.950 . S
C2176 C2175 1.398 . S
C2176 C2177 1.391 . S
C2177 H2165 0.950 . S
C2177 C2173 1.393 . S
C2177 C2176 1.391 . S
C2178 H2168 0.950 . S
C2178 C2179 1.386 . S
C2178 C2180 1.391 . S
C2179 C2178 1.386 . S
C2179 C2183 1.393 . S
C2180 H2169 0.950 . S
C2180 C2178 1.391 . S
C2180 C2181 1.400 . S
C2181 C2175 1.491 . S
C2181 C2180 1.400 . S
C2181 C2182 1.398 . S
C2182 H2170 0.950 . S
C2182 C2181 1.398 . S
C2182 C2183 1.391 . S
C2183 H2171 0.950 . S
C2183 C2179 1.393 . S
C2183 C2182 1.391 . S
H2184 C2192 0.950 . S
H2185 C2197 0.950 . S
H2186 C2194 0.950 . S
H2187 C2196 0.950 . S
H2188 C2198 0.950 . S
H2189 C2200 0.950 . S
H2190 C2202 0.950 . S
H2191 C2203 0.950 . S
C2192 H2184 0.950 . S
C2192 C2193 1.386 . S
C2192 C2194 1.391 . S
C2193 C2192 1.386 . S
C2193 C2197 1.393 . S
C2194 H2186 0.950 . S
C2194 C2192 1.391 . S
C2194 C2195 1.400 . S
C2195 C2194 1.400 . S
C2195 C2196 1.398 . S
C2195 C2201 1.491 . S
C2196 H2187 0.950 . S
C2196 C2195 1.398 . S
C2196 C2197 1.391 . S
C2197 H2185 0.950 . S
C2197 C2193 1.393 . S
C2197 C2196 1.391 . S
C2198 H2188 0.950 . S
C2198 C2199 1.386 . S
C2198 C2200 1.391 . S
C2199 C2198 1.386 . S
C2199 C2203 1.393 . S
C2200 H2189 0.950 . S
C2200 C2198 1.391 . S
C2200 C2201 1.400 . S
C2201 C2195 1.491 . S
C2201 C2200 1.400 . S
C2201 C2202 1.398 . S
C2202 H2190 0.950 . S
C2202 C2201 1.398 . S
C2202 C2203 1.391 . S
C2203 H2191 0.950 . S
C2203 C2199 1.393 . S
C2203 C2202 1.391 . S
H2204 C2212 0.950 . S
H2205 C2217 0.950 . S
H2206 C2214 0.950 . S
H2207 C2216 0.950 . S
H2208 C2218 0.950 . S
H2209 C2220 0.950 . S
H2210 C2222 0.950 . S
H2211 C2223 0.950 . S
C2212 H2204 0.950 . S
C2212 C2213 1.386 . S
C2212 C2214 1.391 . S
C2213 C2212 1.386 . S
C2213 C2217 1.393 . S
C2214 H2206 0.950 . S
C2214 C2212 1.391 . S
C2214 C2215 1.400 . S
C2215 C2214 1.400 . S
C2215 C2216 1.398 . S
C2215 C2221 1.491 . S
C2216 H2207 0.950 . S
C2216 C2215 1.398 . S
C2216 C2217 1.391 . S
C2217 H2205 0.950 . S
C2217 C2213 1.393 . S
C2217 C2216 1.391 . S
C2218 H2208 0.950 . S
C2218 C2219 1.386 . S
C2218 C2220 1.391 . S
C2219 C2218 1.386 . S
C2219 C2223 1.393 . S
C2220 H2209 0.950 . S
C2220 C2218 1.391 . S
C2220 C2221 1.400 . S
C2221 C2215 1.491 . S
C2221 C2220 1.400 . S
C2221 C2222 1.398 . S
C2222 H2210 0.950 . S
C2222 C2221 1.398 . S
C2222 C2223 1.391 . S
C2223 H2211 0.950 . S
C2223 C2219 1.393 . S
C2223 C2222 1.391 . S
H2224 C2232 0.950 . S
H2225 C2237 0.950 . S
H2226 C2234 0.950 . S
H2227 C2236 0.950 . S
H2228 C2238 0.926 1_655 S
H2229 C2240 0.950 . S
H2230 C2242 0.950 . S
H2231 C2243 0.950 . S
C2232 H2224 0.950 . S
C2232 C2233 1.386 . S
C2232 C2234 1.391 . S
C2233 C2232 1.386 . S
C2233 C2237 1.393 . S
C2234 H2226 0.950 . S
C2234 C2232 1.391 . S
C2234 C2235 1.400 . S
C2235 C2234 1.400 . S
C2235 C2236 1.398 . S
C2235 C2241 1.491 . S
C2236 H2227 0.950 . S
C2236 C2235 1.398 . S
C2236 C2237 1.391 . S
C2237 H2225 0.950 . S
C2237 C2233 1.393 . S
C2237 C2236 1.391 . S
C2238 H2228 0.926 1_455 S
C2238 C2239 1.386 . S
C2238 C2240 1.391 . S
C2239 C2238 1.386 . S
C2239 C2243 1.393 . S
C2240 H2229 0.950 . S
C2240 C2238 1.391 . S
C2240 C2241 1.400 . S
C2241 C2235 1.491 . S
C2241 C2240 1.400 . S
C2241 C2242 1.398 . S
C2242 H2230 0.950 . S
C2242 C2241 1.398 . S
C2242 C2243 1.391 . S
C2243 H2231 0.950 . S
C2243 C2239 1.393 . S
C2243 C2242 1.391 . S
H2244 C2252 0.950 . S
H2245 C2257 0.950 . S
H2246 C2254 0.950 . S
H2247 C2256 0.950 . S
H2248 C2258 0.950 . S
H2249 C2260 0.950 . S
H2250 C2262 0.950 . S
H2251 C2263 0.950 . S
C2252 H2244 0.950 . S
C2252 C2253 1.386 . S
C2252 C2254 1.391 . S
C2253 C2252 1.386 . S
C2253 C2257 1.393 . S
C2254 H2246 0.950 . S
C2254 C2252 1.391 . S
C2254 C2255 1.400 . S
C2255 C2254 1.400 . S
C2255 C2256 1.398 . S
C2255 C2261 1.491 . S
C2256 H2247 0.950 . S
C2256 C2255 1.398 . S
C2256 C2257 1.391 . S
C2257 H2245 0.950 . S
C2257 C2253 1.393 . S
C2257 C2256 1.391 . S
C2258 H2248 0.950 . S
C2258 C2259 1.386 . S
C2258 C2260 1.391 . S
C2259 C2258 1.386 . S
C2259 C2263 1.393 . S
C2260 H2249 0.950 . S
C2260 C2258 1.391 . S
C2260 C2261 1.400 . S
C2261 C2255 1.491 . S
C2261 C2260 1.400 . S
C2261 C2262 1.398 . S
C2262 H2250 0.950 . S
C2262 C2261 1.398 . S
C2262 C2263 1.391 . S
C2263 H2251 0.950 . S
C2263 C2259 1.393 . S
C2263 C2262 1.391 . S
H2264 C2272 0.950 . S
H2265 C2277 0.950 . S
H2266 C2274 0.950 . S
H2267 C2276 0.950 . S
H2268 C2278 0.950 . S
H2269 C2280 0.950 . S
H2270 C2282 0.950 . S
H2271 C2283 0.950 . S
C2272 H2264 0.950 . S
C2272 C2273 1.386 . S
C2272 C2274 1.391 . S
C2273 C2272 1.386 . S
C2273 C2277 1.393 . S
C2274 H2266 0.950 . S
C2274 C2272 1.391 . S
C2274 C2275 1.400 . S
C2275 C2274 1.400 . S
C2275 C2276 1.398 . S
C2275 C2281 1.491 . S
C2276 H2267 0.950 . S
C2276 C2275 1.398 . S
C2276 C2277 1.391 . S
C2277 H2265 0.950 . S
C2277 C2273 1.393 . S
C2277 C2276 1.391 . S
C2278 H2268 0.950 . S
C2278 C2279 1.386 . S
C2278 C2280 1.391 . S
C2279 C2278 1.386 . S
C2279 C2283 1.393 . S
C2280 H2269 0.950 . S
C2280 C2278 1.391 . S
C2280 C2281 1.400 . S
C2281 C2275 1.491 . S
C2281 C2280 1.400 . S
C2281 C2282 1.398 . S
C2282 H2270 0.950 . S
C2282 C2281 1.398 . S
C2282 C2283 1.391 . S
C2283 H2271 0.950 . S
C2283 C2279 1.393 . S
C2283 C2282 1.391 . S
H2284 C2292 0.950 . S
H2285 C2297 0.950 . S
H2286 C2294 0.950 . S
H2287 C2296 0.950 . S
H2288 C2298 0.950 . S
H2289 C2300 0.950 . S
H2290 C2302 0.950 . S
H2291 C2303 0.950 . S
C2292 H2284 0.950 . S
C2292 C2293 1.386 . S
C2292 C2294 1.391 . S
C2293 C2292 1.386 . S
C2293 C2297 1.393 . S
C2294 H2286 0.950 . S
C2294 C2292 1.391 . S
C2294 C2295 1.400 . S
C2295 C2294 1.400 . S
C2295 C2296 1.398 . S
C2295 C2301 1.491 . S
C2296 H2287 0.950 . S
C2296 C2295 1.398 . S
C2296 C2297 1.391 . S
C2297 H2285 0.950 . S
C2297 C2293 1.393 . S
C2297 C2296 1.391 . S
C2298 H2288 0.950 . S
C2298 C2299 1.386 . S
C2298 C2300 1.391 . S
C2299 C2298 1.386 . S
C2299 C2303 1.393 . S
C2300 H2289 0.950 . S
C2300 C2298 1.391 . S
C2300 C2301 1.400 . S
C2301 C2295 1.491 . S
C2301 C2300 1.400 . S
C2301 C2302 1.398 . S
C2302 H2290 0.950 . S
C2302 C2301 1.398 . S
C2302 C2303 1.391 . S
C2303 H2291 0.950 . S
C2303 C2299 1.393 . S
C2303 C2302 1.391 . S
H2304 C2312 0.950 . S
H2305 C2317 0.950 . S
H2306 C2314 0.950 . S
H2307 C2316 0.950 . S
H2308 C2318 0.950 . S
H2309 C2320 0.950 . S
H2310 C2322 0.950 . S
H2311 C2323 0.950 . S
C2312 H2304 0.950 . S
C2312 C2313 1.386 . S
C2312 C2314 1.391 . S
C2313 C2312 1.386 . S
C2313 C2317 1.393 . S
C2314 H2306 0.950 . S
C2314 C2312 1.391 . S
C2314 C2315 1.400 . S
C2315 C2314 1.400 . S
C2315 C2316 1.398 . S
C2315 C2321 1.491 . S
C2316 H2307 0.950 . S
C2316 C2315 1.398 . S
C2316 C2317 1.391 . S
C2317 H2305 0.950 . S
C2317 C2313 1.393 . S
C2317 C2316 1.391 . S
C2318 H2308 0.950 . S
C2318 C2319 1.386 . S
C2318 C2320 1.391 . S
C2319 C2318 1.386 . S
C2319 C2323 1.393 . S
C2320 H2309 0.950 . S
C2320 C2318 1.391 . S
C2320 C2321 1.400 . S
C2321 C2315 1.491 . S
C2321 C2320 1.400 . S
C2321 C2322 1.398 . S
C2322 H2310 0.950 . S
C2322 C2321 1.398 . S
C2322 C2323 1.391 . S
C2323 H2311 0.950 . S
C2323 C2319 1.393 . S
C2323 C2322 1.391 . S
H2324 C2332 0.950 . S
H2325 C2337 0.950 . S
H2326 C2334 0.950 . S
H2327 C2336 0.950 . S
H2328 C2338 0.950 . S
H2329 C2340 0.950 . S
H2330 C2342 0.950 . S
H2331 C2343 0.950 . S
C2332 H2324 0.950 . S
C2332 C2333 1.386 . S
C2332 C2334 1.391 . S
C2333 C2332 1.386 . S
C2333 C2337 1.393 . S
C2334 H2326 0.950 . S
C2334 C2332 1.391 . S
C2334 C2335 1.400 . S
C2335 C2334 1.400 . S
C2335 C2336 1.398 . S
C2335 C2341 1.491 . S
C2336 H2327 0.950 . S
C2336 C2335 1.398 . S
C2336 C2337 1.391 . S
C2337 H2325 0.950 . S
C2337 C2333 1.393 . S
C2337 C2336 1.391 . S
C2338 H2328 0.950 . S
C2338 C2339 1.386 . S
C2338 C2340 1.391 . S
C2339 C2338 1.386 . S
C2339 C2343 1.393 . S
C2340 H2329 0.950 . S
C2340 C2338 1.391 . S
C2340 C2341 1.400 . S
C2341 C2335 1.491 . S
C2341 C2340 1.400 . S
C2341 C2342 1.398 . S
C2342 H2330 0.950 . S
C2342 C2341 1.398 . S
C2342 C2343 1.391 . S
C2343 H2331 0.950 . S
C2343 C2339 1.393 . S
C2343 C2342 1.391 . S
H2344 C2352 0.950 . S
H2345 C2357 0.950 . S
H2346 C2354 0.950 . S
H2347 C2356 0.950 . S
H2348 C2358 0.950 . S
H2349 C2360 0.950 . S
H2350 C2362 0.950 . S
H2351 C2363 0.950 . S
C2352 H2344 0.950 . S
C2352 C2353 1.386 . S
C2352 C2354 1.391 . S
C2353 C2352 1.386 . S
C2353 C2357 1.393 . S
C2354 H2346 0.950 . S
C2354 C2352 1.391 . S
C2354 C2355 1.400 . S
C2355 C2354 1.400 . S
C2355 C2356 1.398 . S
C2355 C2361 1.491 . S
C2356 H2347 0.950 . S
C2356 C2355 1.398 . S
C2356 C2357 1.391 . S
C2357 H2345 0.950 . S
C2357 C2353 1.393 . S
C2357 C2356 1.391 . S
C2358 H2348 0.950 . S
C2358 C2359 1.386 . S
C2358 C2360 1.391 . S
C2359 C2358 1.386 . S
C2359 C2363 1.393 . S
C2360 H2349 0.950 . S
C2360 C2358 1.391 . S
C2360 C2361 1.400 . S
C2361 C2355 1.491 . S
C2361 C2360 1.400 . S
C2361 C2362 1.398 . S
C2362 H2350 0.950 . S
C2362 C2361 1.398 . S
C2362 C2363 1.391 . S
C2363 H2351 0.950 . S
C2363 C2359 1.393 . S
C2363 C2362 1.391 . S
H2364 C2372 0.950 . S
H2365 C2377 0.950 . S
H2366 C2374 0.950 . S
H2367 C2376 0.950 . S
H2368 C2378 0.950 . S
H2369 C2380 0.950 . S
H2370 C2382 0.950 . S
H2371 C2383 0.950 . S
C2372 H2364 0.950 . S
C2372 C2373 1.386 . S
C2372 C2374 1.391 . S
C2373 C2372 1.386 . S
C2373 C2377 1.393 . S
C2374 H2366 0.950 . S
C2374 C2372 1.391 . S
C2374 C2375 1.400 . S
C2375 C2374 1.400 . S
C2375 C2376 1.398 . S
C2375 C2381 1.491 . S
C2376 H2367 0.950 . S
C2376 C2375 1.398 . S
C2376 C2377 1.391 . S
C2377 H2365 0.950 . S
C2377 C2373 1.393 . S
C2377 C2376 1.391 . S
C2378 H2368 0.950 . S
C2378 C2379 1.386 . S
C2378 C2380 1.391 . S
C2379 C2378 1.386 . S
C2379 C2383 1.393 . S
C2380 H2369 0.950 . S
C2380 C2378 1.391 . S
C2380 C2381 1.400 . S
C2381 C2375 1.491 . S
C2381 C2380 1.400 . S
C2381 C2382 1.398 . S
C2382 H2370 0.950 . S
C2382 C2381 1.398 . S
C2382 C2383 1.391 . S
C2383 H2371 0.950 . S
C2383 C2379 1.393 . S
C2383 C2382 1.391 . S
H2384 C2392 0.950 . S
H2385 C2397 0.950 . S
H2386 C2394 0.950 . S
H2387 C2396 0.950 . S
H2388 C2398 0.950 . S
H2389 C2400 0.950 . S
H2390 C2402 0.950 . S
H2391 C2403 0.950 . S
C2392 H2384 0.950 . S
C2392 C2393 1.386 . S
C2392 C2394 1.391 . S
C2393 C2392 1.386 . S
C2393 C2397 1.393 . S
C2394 H2386 0.950 . S
C2394 C2392 1.391 . S
C2394 C2395 1.400 . S
C2395 C2394 1.400 . S
C2395 C2396 1.398 . S
C2395 C2401 1.491 . S
C2396 H2387 0.950 . S
C2396 C2395 1.398 . S
C2396 C2397 1.391 . S
C2397 H2385 0.950 . S
C2397 C2393 1.393 . S
C2397 C2396 1.391 . S
C2398 H2388 0.950 . S
C2398 C2399 1.386 . S
C2398 C2400 1.391 . S
C2399 C2398 1.386 . S
C2399 C2403 1.393 . S
C2400 H2389 0.950 . S
C2400 C2398 1.391 . S
C2400 C2401 1.400 . S
C2401 C2395 1.491 . S
C2401 C2400 1.400 . S
C2401 C2402 1.398 . S
C2402 H2390 0.950 . S
C2402 C2401 1.398 . S
C2402 C2403 1.391 . S
C2403 H2391 0.950 . S
C2403 C2399 1.393 . S
C2403 C2402 1.391 . S
H2404 C2412 0.950 . S
H2405 C2417 0.950 . S
H2406 C2414 0.950 . S
H2407 C2416 0.950 . S
H2408 C2418 0.950 . S
H2409 C2420 0.950 . S
H2410 C2422 0.950 . S
H2411 C2423 0.950 . S
C2412 H2404 0.950 . S
C2412 C2413 1.386 . S
C2412 C2414 1.391 . S
C2413 C2412 1.386 . S
C2413 C2417 1.393 . S
C2414 H2406 0.950 . S
C2414 C2412 1.391 . S
C2414 C2415 1.400 . S
C2415 C2414 1.400 . S
C2415 C2416 1.398 . S
C2415 C2421 1.491 . S
C2416 H2407 0.950 . S
C2416 C2415 1.398 . S
C2416 C2417 1.391 . S
C2417 H2405 0.950 . S
C2417 C2413 1.393 . S
C2417 C2416 1.391 . S
C2418 H2408 0.950 . S
C2418 C2419 1.386 . S
C2418 C2420 1.391 . S
C2419 C2418 1.386 . S
C2419 C2423 1.393 . S
C2420 H2409 0.950 . S
C2420 C2418 1.391 . S
C2420 C2421 1.400 . S
C2421 C2415 1.491 . S
C2421 C2420 1.400 . S
C2421 C2422 1.398 . S
C2422 H2410 0.950 . S
C2422 C2421 1.398 . S
C2422 C2423 1.391 . S
C2423 H2411 0.950 . S
C2423 C2419 1.393 . S
C2423 C2422 1.391 . S
H2424 C2432 0.950 . S
H2425 C2437 0.950 . S
H2426 C2434 0.950 . S
H2427 C2436 0.950 . S
H2428 C2438 0.950 . S
H2429 C2440 0.950 . S
H2430 C2442 0.950 . S
H2431 C2443 0.950 . S
C2432 H2424 0.950 . S
C2432 C2433 1.386 . S
C2432 C2434 1.391 . S
C2433 C2432 1.386 . S
C2433 C2437 1.393 . S
C2434 H2426 0.950 . S
C2434 C2432 1.391 . S
C2434 C2435 1.400 . S
C2435 C2434 1.400 . S
C2435 C2436 1.398 . S
C2435 C2441 1.491 . S
C2436 H2427 0.950 . S
C2436 C2435 1.398 . S
C2436 C2437 1.391 . S
C2437 H2425 0.950 . S
C2437 C2433 1.393 . S
C2437 C2436 1.391 . S
C2438 H2428 0.950 . S
C2438 C2439 1.386 . S
C2438 C2440 1.391 . S
C2439 C2438 1.386 . S
C2439 C2443 1.393 . S
C2440 H2429 0.950 . S
C2440 C2438 1.391 . S
C2440 C2441 1.400 . S
C2441 C2435 1.491 . S
C2441 C2440 1.400 . S
C2441 C2442 1.398 . S
C2442 H2430 0.950 . S
C2442 C2441 1.398 . S
C2442 C2443 1.391 . S
C2443 H2431 0.950 . S
C2443 C2439 1.393 . S
C2443 C2442 1.391 . S
H2444 C2452 0.950 . S
H2445 C2457 0.950 . S
H2446 C2454 0.950 . S
H2447 C2456 0.950 . S
H2448 C2458 0.950 . S
H2449 C2460 0.950 . S
H2450 C2462 0.950 . S
H2451 C2463 0.950 . S
C2452 H2444 0.950 . S
C2452 C2453 1.386 . S
C2452 C2454 1.391 . S
C2453 C2452 1.386 . S
C2453 C2457 1.393 . S
C2454 H2446 0.950 . S
C2454 C2452 1.391 . S
C2454 C2455 1.400 . S
C2455 C2454 1.400 . S
C2455 C2456 1.398 . S
C2455 C2461 1.491 . S
C2456 H2447 0.950 . S
C2456 C2455 1.398 . S
C2456 C2457 1.391 . S
C2457 H2445 0.950 . S
C2457 C2453 1.393 . S
C2457 C2456 1.391 . S
C2458 H2448 0.950 . S
C2458 C2459 1.386 . S
C2458 C2460 1.391 . S
C2459 C2458 1.386 . S
C2459 C2463 1.393 . S
C2460 H2449 0.950 . S
C2460 C2458 1.391 . S
C2460 C2461 1.400 . S
C2461 C2455 1.491 . S
C2461 C2460 1.400 . S
C2461 C2462 1.398 . S
C2462 H2450 0.950 . S
C2462 C2461 1.398 . S
C2462 C2463 1.391 . S
C2463 H2451 0.950 . S
C2463 C2459 1.393 . S
C2463 C2462 1.391 . S
H2464 C2472 0.950 . S
H2465 C2477 0.950 . S
H2466 C2474 0.950 . S
H2467 C2476 0.950 . S
H2468 C2478 0.950 . S
H2469 C2480 0.950 . S
H2470 C2482 0.950 . S
H2471 C2483 0.950 . S
C2472 H2464 0.950 . S
C2472 C2473 1.386 . S
C2472 C2474 1.391 . S
C2473 C2472 1.386 . S
C2473 C2477 1.393 . S
C2474 H2466 0.950 . S
C2474 C2472 1.391 . S
C2474 C2475 1.400 . S
C2475 C2474 1.400 . S
C2475 C2476 1.398 . S
C2475 C2481 1.491 . S
C2476 H2467 0.950 . S
C2476 C2475 1.398 . S
C2476 C2477 1.391 . S
C2477 H2465 0.950 . S
C2477 C2473 1.393 . S
C2477 C2476 1.391 . S
C2478 H2468 0.950 . S
C2478 C2479 1.386 . S
C2478 C2480 1.391 . S
C2479 C2478 1.386 . S
C2479 C2483 1.393 . S
C2480 H2469 0.950 . S
C2480 C2478 1.391 . S
C2480 C2481 1.400 . S
C2481 C2475 1.491 . S
C2481 C2480 1.400 . S
C2481 C2482 1.398 . S
C2482 H2470 0.950 . S
C2482 C2481 1.398 . S
C2482 C2483 1.391 . S
C2483 H2471 0.950 . S
C2483 C2479 1.393 . S
C2483 C2482 1.391 . S
H2484 C2492 0.950 . S
H2485 C2497 0.950 . S
H2486 C2494 0.950 . S
H2487 C2496 0.950 . S
H2488 C2498 0.950 . S
H2489 C2500 0.950 . S
H2490 C2502 0.950 . S
H2491 C2503 0.950 . S
C2492 H2484 0.950 . S
C2492 C2493 1.386 . S
C2492 C2494 1.391 . S
C2493 C2492 1.386 . S
C2493 C2497 1.393 . S
C2494 H2486 0.950 . S
C2494 C2492 1.391 . S
C2494 C2495 1.400 . S
C2495 C2494 1.400 . S
C2495 C2496 1.398 . S
C2495 C2501 1.491 . S
C2496 H2487 0.950 . S
C2496 C2495 1.398 . S
C2496 C2497 1.391 . S
C2497 H2485 0.950 . S
C2497 C2493 1.393 . S
C2497 C2496 1.391 . S
C2498 H2488 0.950 . S
C2498 C2499 1.386 . S
C2498 C2500 1.391 . S
C2499 C2498 1.386 . S
C2499 C2503 1.393 . S
C2500 H2489 0.950 . S
C2500 C2498 1.391 . S
C2500 C2501 1.400 . S
C2501 C2495 1.491 . S
C2501 C2500 1.400 . S
C2501 C2502 1.398 . S
C2502 H2490 0.950 . S
C2502 C2501 1.398 . S
C2502 C2503 1.391 . S
C2503 H2491 0.950 . S
C2503 C2499 1.393 . S
C2503 C2502 1.391 . S
H2504 C2512 0.950 . S
H2505 C2517 0.950 . S
H2506 C2514 0.950 . S
H2507 C2516 0.950 . S
H2508 C2518 0.950 . S
H2509 C2520 0.950 . S
H2510 C2522 0.950 . S
H2511 C2523 0.950 . S
C2512 H2504 0.950 . S
C2512 C2513 1.386 . S
C2512 C2514 1.391 . S
C2513 C2512 1.386 . S
C2513 C2517 1.393 . S
C2514 H2506 0.950 . S
C2514 C2512 1.391 . S
C2514 C2515 1.400 . S
C2515 C2514 1.400 . S
C2515 C2516 1.398 . S
C2515 C2521 1.491 . S
C2516 H2507 0.950 . S
C2516 C2515 1.398 . S
C2516 C2517 1.391 . S
C2517 H2505 0.950 . S
C2517 C2513 1.393 . S
C2517 C2516 1.391 . S
C2518 H2508 0.950 . S
C2518 C2519 1.386 . S
C2518 C2520 1.391 . S
C2519 C2518 1.386 . S
C2519 C2523 1.393 . S
C2520 H2509 0.950 . S
C2520 C2518 1.391 . S
C2520 C2521 1.400 . S
C2521 C2515 1.491 . S
C2521 C2520 1.400 . S
C2521 C2522 1.398 . S
C2522 H2510 0.950 . S
C2522 C2521 1.398 . S
C2522 C2523 1.391 . S
C2523 H2511 0.950 . S
C2523 C2519 1.393 . S
C2523 C2522 1.391 . S
H2524 C2532 0.950 . S
H2525 C2537 0.950 . S
H2526 C2534 0.950 . S
H2527 C2536 0.950 . S
H2528 C2538 0.950 . S
H2529 C2540 0.950 . S
H2530 C2542 0.950 . S
H2531 C2543 0.950 . S
C2532 H2524 0.950 . S
C2532 C2533 1.386 . S
C2532 C2534 1.391 . S
C2533 C2532 1.386 . S
C2533 C2537 1.393 . S
C2534 H2526 0.950 . S
C2534 C2532 1.391 . S
C2534 C2535 1.400 . S
C2535 C2534 1.400 . S
C2535 C2536 1.398 . S
C2535 C2541 1.491 . S
C2536 H2527 0.950 . S
C2536 C2535 1.398 . S
C2536 C2537 1.391 . S
C2537 H2525 0.950 . S
C2537 C2533 1.393 . S
C2537 C2536 1.391 . S
C2538 H2528 0.950 . S
C2538 C2539 1.386 . S
C2538 C2540 1.391 . S
C2539 C2538 1.386 . S
C2539 C2543 1.393 . S
C2540 H2529 0.950 . S
C2540 C2538 1.391 . S
C2540 C2541 1.400 . S
C2541 C2535 1.491 . S
C2541 C2540 1.400 . S
C2541 C2542 1.398 . S
C2542 H2530 0.950 . S
C2542 C2541 1.398 . S
C2542 C2543 1.391 . S
C2543 H2531 0.950 . S
C2543 C2539 1.393 . S
C2543 C2542 1.391 . S
H2544 C2552 0.950 . S
H2545 C2557 0.950 . S
H2546 C2554 0.950 . S
H2547 C2556 0.950 . S
H2548 C2558 0.950 . S
H2549 C2560 0.950 . S
H2550 C2562 0.950 . S
H2551 C2563 0.950 . S
C2552 H2544 0.950 . S
C2552 C2553 1.386 . S
C2552 C2554 1.391 . S
C2553 C2552 1.386 . S
C2553 C2557 1.393 . S
C2554 H2546 0.950 . S
C2554 C2552 1.391 . S
C2554 C2555 1.400 . S
C2555 C2554 1.400 . S
C2555 C2556 1.398 . S
C2555 C2561 1.491 . S
C2556 H2547 0.950 . S
C2556 C2555 1.398 . S
C2556 C2557 1.391 . S
C2557 H2545 0.950 . S
C2557 C2553 1.393 . S
C2557 C2556 1.391 . S
C2558 H2548 0.950 . S
C2558 C2559 1.386 . S
C2558 C2560 1.391 . S
C2559 C2558 1.386 . S
C2559 C2563 1.393 . S
C2560 H2549 0.950 . S
C2560 C2558 1.391 . S
C2560 C2561 1.400 . S
C2561 C2555 1.491 . S
C2561 C2560 1.400 . S
C2561 C2562 1.398 . S
C2562 H2550 0.950 . S
C2562 C2561 1.398 . S
C2562 C2563 1.391 . S
C2563 H2551 0.950 . S
C2563 C2559 1.393 . S
C2563 C2562 1.391 . S
H2564 C2572 0.950 . S
H2565 C2577 0.950 . S
H2566 C2574 0.950 . S
H2567 C2576 0.950 . S
H2568 C2578 0.950 1_545 S
H2569 C2580 0.950 . S
H2570 C2582 0.950 . S
H2571 C2583 0.950 . S
C2572 H2564 0.950 . S
C2572 C2573 1.386 . S
C2572 C2574 1.391 . S
C2573 C2572 1.386 . S
C2573 C2577 1.393 . S
C2574 H2566 0.950 . S
C2574 C2572 1.391 . S
C2574 C2575 1.400 . S
C2575 C2574 1.400 . S
C2575 C2576 1.398 . S
C2575 C2581 1.491 . S
C2576 H2567 0.950 . S
C2576 C2575 1.398 . S
C2576 C2577 1.391 . S
C2577 H2565 0.950 . S
C2577 C2573 1.393 . S
C2577 C2576 1.391 . S
C2578 H2568 0.950 1_565 S
C2578 C2579 1.386 . S
C2578 C2580 1.391 . S
C2579 C2578 1.386 . S
C2579 C2583 1.393 . S
C2580 H2569 0.950 . S
C2580 C2578 1.391 . S
C2580 C2581 1.400 . S
C2581 C2575 1.491 . S
C2581 C2580 1.400 . S
C2581 C2582 1.398 . S
C2582 H2570 0.950 . S
C2582 C2581 1.398 . S
C2582 C2583 1.391 . S
C2583 H2571 0.950 . S
C2583 C2579 1.393 . S
C2583 C2582 1.391 . S
H2584 C2592 0.950 . S
H2585 C2597 0.950 . S
H2586 C2594 0.950 . S
H2587 C2596 0.950 . S
H2588 C2598 0.950 . S
H2589 C2600 0.950 . S
H2590 C2602 0.950 . S
H2591 C2603 0.950 . S
C2592 H2584 0.950 . S
C2592 C2593 1.386 . S
C2592 C2594 1.391 . S
C2593 C2592 1.386 . S
C2593 C2597 1.393 . S
C2594 H2586 0.950 . S
C2594 C2592 1.391 . S
C2594 C2595 1.400 . S
C2595 C2594 1.400 . S
C2595 C2596 1.398 . S
C2595 C2601 1.491 . S
C2596 H2587 0.950 . S
C2596 C2595 1.398 . S
C2596 C2597 1.391 . S
C2597 H2585 0.950 . S
C2597 C2593 1.393 . S
C2597 C2596 1.391 . S
C2598 H2588 0.950 . S
C2598 C2599 1.386 . S
C2598 C2600 1.391 . S
C2599 C2598 1.386 . S
C2599 C2603 1.393 . S
C2600 H2589 0.950 . S
C2600 C2598 1.391 . S
C2600 C2601 1.400 . S
C2601 C2595 1.491 . S
C2601 C2600 1.400 . S
C2601 C2602 1.398 . S
C2602 H2590 0.950 . S
C2602 C2601 1.398 . S
C2602 C2603 1.391 . S
C2603 H2591 0.950 . S
C2603 C2599 1.393 . S
C2603 C2602 1.391 . S
H2604 C2612 0.950 . S
H2605 C2617 0.950 . S
H2606 C2614 0.950 . S
H2607 C2616 0.950 . S
H2608 C2618 0.950 . S
H2609 C2620 0.950 . S
H2610 C2622 0.950 . S
H2611 C2623 0.950 . S
C2612 H2604 0.950 . S
C2612 C2613 1.386 . S
C2612 C2614 1.391 . S
C2613 C2612 1.386 . S
C2613 C2617 1.393 . S
C2614 H2606 0.950 . S
C2614 C2612 1.391 . S
C2614 C2615 1.400 . S
C2615 C2614 1.400 . S
C2615 C2616 1.398 . S
C2615 C2621 1.491 . S
C2616 H2607 0.950 . S
C2616 C2615 1.398 . S
C2616 C2617 1.391 . S
C2617 H2605 0.950 . S
C2617 C2613 1.393 . S
C2617 C2616 1.391 . S
C2618 H2608 0.950 . S
C2618 C2619 1.386 . S
C2618 C2620 1.391 . S
C2619 C2618 1.386 . S
C2619 C2623 1.393 . S
C2620 H2609 0.950 . S
C2620 C2618 1.391 . S
C2620 C2621 1.400 . S
C2621 C2615 1.491 . S
C2621 C2620 1.400 . S
C2621 C2622 1.398 . S
C2622 H2610 0.950 . S
C2622 C2621 1.398 . S
C2622 C2623 1.391 . S
C2623 H2611 0.950 . S
C2623 C2619 1.393 . S
C2623 C2622 1.391 . S
H2624 C2632 0.950 . S
H2625 C2637 0.950 . S
H2626 C2634 0.950 . S
H2627 C2636 0.950 . S
H2628 C2638 0.950 . S
H2629 C2640 0.950 . S
H2630 C2642 0.950 . S
H2631 C2643 0.950 . S
C2632 H2624 0.950 . S
C2632 C2633 1.386 . S
C2632 C2634 1.391 . S
C2633 C2632 1.386 . S
C2633 C2637 1.393 . S
C2634 H2626 0.950 . S
C2634 C2632 1.391 . S
C2634 C2635 1.400 . S
C2635 C2634 1.400 . S
C2635 C2636 1.398 . S
C2635 C2641 1.491 . S
C2636 H2627 0.950 . S
C2636 C2635 1.398 . S
C2636 C2637 1.391 . S
C2637 H2625 0.950 . S
C2637 C2633 1.393 . S
C2637 C2636 1.391 . S
C2638 H2628 0.950 . S
C2638 C2639 1.386 . S
C2638 C2640 1.391 . S
C2639 C2638 1.386 . S
C2639 C2643 1.393 . S
C2640 H2629 0.950 . S
C2640 C2638 1.391 . S
C2640 C2641 1.400 . S
C2641 C2635 1.491 . S
C2641 C2640 1.400 . S
C2641 C2642 1.398 . S
C2642 H2630 0.950 . S
C2642 C2641 1.398 . S
C2642 C2643 1.391 . S
C2643 H2631 0.950 . S
C2643 C2639 1.393 . S
C2643 C2642 1.391 . S
C739 C381 1.127 . S
C733 C241 1.206 . S
C759 C384 1.490 . S
C753 C272 1.597 . S
C779 C372 1.049 . S
C773 C249 1.070 . S
C793 C206 1.760 . S
C799 C385 1.641 . S
C819 C416 1.168 . S
C813 C125 1.205 . S
C833 C142 1.776 . S
C839 C443 1.644 . S
C859 C415 1.016 . S
C853 C169 1.059 . S
C873 C103 1.652 . S
C879 C434 1.549 . S
C893 C315 1.225 . S
C899 C447 1.143 . S
C913 C338 1.701 . S
C919 C478 1.570 . S
C939 C536 1.180 . S
C933 C183 1.218 . S
C959 C558 1.588 . S
C953 C293 1.686 . S
C979 C446 1.011 . S
C973 C87 1.062 . S
C999 C477 1.568 . S
C993 C21 1.668 . S
C1013 C43 1.054 . S
C1019 C527 1.038 . S
C1033 C65 1.747 . S
C1039 C567 1.620 . S
C1053 C37 1.223 . S
C1059 C505 1.181 . S
C1079 C571 1.167 . S
C1073 C197 1.247 . S
C1093 C307 1.780 . S
C1099 C602 1.665 . S
C1119 C651 1.000 . S
C1113 C329 1.060 . S
C1133 C150 1.733 . S
C1139 C509 1.592 . S
C1159 C570 0.988 . S
C1153 C227 1.023 . S
C1179 C601 1.490 . S
C1173 C274 1.600 . S
C1199 C682 1.507 . S
C1193 C208 1.621 . S
C1213 C73 1.200 . S
C1219 C412 1.148 . S
C1233 C7 1.610 . S
C1239 C353 1.508 . S
C1259 C403 1.052 . S
C1253 C29 1.073 . S
C1273 C51 1.772 . S
C1279 C354 1.645 . S
C1293 C323 1.205 . S
C1299 C695 1.166 . S
C1313 C340 1.757 . S
C1319 C722 1.628 . S
C1339 C694 1.050 . S
C1333 C191 1.070 . S
C1353 C301 1.635 . S
C1359 C713 1.531 . S
C1373 C117 1.209 . S
C1379 C629 1.174 . S
C1399 C633 1.566 . S
C1393 C140 1.705 . S
C1419 C664 1.169 . S
C1413 C161 1.205 . S
C1439 C589 1.581 . S
C1433 C95 1.681 . S
C1459 C620 1.006 . S
C1453 C235 1.067 . S
C1473 C282 1.631 . S
C1479 C632 1.530 . S
C1493 C263 1.059 . S
C1499 C663 1.035 . S
C1519 C598 1.567 . S
C1513 C216 1.706 . S
C1533 C257 1.222 . S
C1539 C660 1.183 . S
C1559 C540 1.198 . S
C1553 C175 1.237 . S
C1573 C109 1.755 . S
C1579 C474 1.634 . S
C1593 C131 1.050 . S
C1599 C496 1.038 . S
C1613 C348 1.749 . S
C1619 C691 1.607 . S
C1633 C81 1.045 . S
C1639 C539 1.004 . S
C1653 C15 1.639 . S
C1659 C465 1.544 . S
C1679 C508 1.540 . S
C1673 C59 1.649 . S
C1699 C352 1.479 . S
C1693 C351 1.429 . S
C1719 C402 1.902 . S
C1713 C194 1.876 . S
C1739 C362 1.275 . S
C1733 C304 1.324 . S
C1759 C413 1.766 . S
C1753 C326 1.784 1_565 S
C1779 C433 1.459 . S
C1773 C205 1.400 . S
C1793 C230 1.758 . S
C1799 C424 1.737 . S
C1813 C271 1.337 . S
C1819 C444 1.316 . S
C1833 C250 1.830 1_565 S
C1839 C414 1.857 . S
C1859 C464 1.398 . S
C1853 C62 1.382 . S
C1879 C506 1.742 . S
C1873 C84 1.756 . S
C1893 C18 1.342 . S
C1899 C507 1.380 . S
C1919 C538 1.847 . S
C1913 C40 1.849 . S
C1933 C147 1.378 . S
C1939 C475 1.347 . S
C1959 C495 1.869 . S
C1953 C164 1.865 1_455 S
C1979 C517 1.275 . S
C1973 C98 1.327 . S
C1993 C120 1.785 1_655 S
C1999 C548 1.770 . S
C2019 C476 1.342 . S
C2013 C96 1.326 . S
C2033 C10 1.337 . S
C2039 C588 1.348 . S
C2053 C32 1.746 1_556 S
C2059 C630 1.724 . S
C2073 C54 1.387 . S
C2079 C641 1.341 . S
C2099 C537 1.778 . S
C2093 C238 1.798 . S
C2119 C599 1.387 . S
C2113 C337 1.421 . S
C2133 C184 1.850 . S
C2139 C619 1.852 . S
C2159 C662 1.875 . S
C2153 C316 1.876 . S
C2179 C383 1.483 . S
C2173 C153 1.454 . S
C2193 C172 1.884 1_545 S
C2199 C371 1.890 . S
C2213 C106 1.341 . S
C2219 C393 1.298 . S
C2233 C128 1.777 . S
C2239 C382 1.762 . S
C2259 C712 1.394 . S
C2253 C52 1.384 . S
C2279 C703 1.725 . S
C2273 C74 1.761 1_545 S
C2293 C8 1.311 . S
C2299 C723 1.270 . S
C2313 C30 1.836 . S
C2319 C693 1.860 . S
C2333 C219 1.412 . S
C2339 C600 1.444 . S
C2359 C661 1.718 . S
C2353 C228 1.750 1_655 S
C2379 C681 1.435 . S
C2373 C285 1.374 . S
C2393 C260 1.829 1_455 S
C2399 C569 1.837 . S
C2419 C610 1.364 . S
C2413 C345 1.392 . S
C2433 C186 1.877 . S
C2439 C650 1.899 . S
C2459 C692 1.274 . S
C2453 C296 1.327 . S
C2473 C318 1.808 . S
C2479 C579 1.791 . S
C2493 C294 1.332 . S
C2499 C631 1.356 . S
C2513 C279 1.351 . S
C2519 C557 1.411 . S
C2539 C455 1.745 . S
C2533 C252 1.775 . S
C2553 C213 1.403 . S
C2559 C486 1.377 . S
C2573 C76 1.794 1_556 S
C2579 C672 1.770 . S
C2593 C139 1.426 . S
C2599 C568 1.394 . S
C2619 C445 1.844 . S
C2613 C162 1.827 1_554 S
C2633 C118 1.857 1_554 S
C2639 C526 1.861 . S
