# Generated by pormake.
# Topology gar, (4,6)-cn, num edge types: 1
# Building blocks:
#     Node 0, Type 0, BuildingBlock: NAHDIM_clean_sbu_0, # of connection points: 4
#     Node 1, Type 0, BuildingBlock: NAHDIM_clean_sbu_0, # of connection points: 4
#     Node 2, Type 0, BuildingBlock: NAHDIM_clean_sbu_0, # of connection points: 4
#     Node 3, Type 0, BuildingBlock: NAHDIM_clean_sbu_0, # of connection points: 4
#     Node 4, Type 0, BuildingBlock: NAHDIM_clean_sbu_0, # of connection points: 4
#     Node 5, Type 0, BuildingBlock: NAHDIM_clean_sbu_0, # of connection points: 4
#     Node 6, Type 0, BuildingBlock: NAHDIM_clean_sbu_0, # of connection points: 4
#     Node 7, Type 0, BuildingBlock: NAHDIM_clean_sbu_0, # of connection points: 4
#     Node 8, Type 0, BuildingBlock: NAHDIM_clean_sbu_0, # of connection points: 4
#     Node 9, Type 0, BuildingBlock: NAHDIM_clean_sbu_0, # of connection points: 4
#     Node 10, Type 0, BuildingBlock: NAHDIM_clean_sbu_0, # of connection points: 4
#     Node 11, Type 0, BuildingBlock: NAHDIM_clean_sbu_0, # of connection points: 4
#     Node 12, Type 0, BuildingBlock: NAHDIM_clean_sbu_0, # of connection points: 4
#     Node 13, Type 0, BuildingBlock: NAHDIM_clean_sbu_0, # of connection points: 4
#     Node 14, Type 0, BuildingBlock: NAHDIM_clean_sbu_0, # of connection points: 4
#     Node 15, Type 0, BuildingBlock: NAHDIM_clean_sbu_0, # of connection points: 4
#     Node 16, Type 0, BuildingBlock: NAHDIM_clean_sbu_0, # of connection points: 4
#     Node 17, Type 0, BuildingBlock: NAHDIM_clean_sbu_0, # of connection points: 4
#     Node 18, Type 0, BuildingBlock: NAHDIM_clean_sbu_0, # of connection points: 4
#     Node 19, Type 0, BuildingBlock: NAHDIM_clean_sbu_0, # of connection points: 4
#     Node 20, Type 0, BuildingBlock: NAHDIM_clean_sbu_0, # of connection points: 4
#     Node 21, Type 0, BuildingBlock: NAHDIM_clean_sbu_0, # of connection points: 4
#     Node 22, Type 0, BuildingBlock: NAHDIM_clean_sbu_0, # of connection points: 4
#     Node 23, Type 0, BuildingBlock: NAHDIM_clean_sbu_0, # of connection points: 4
#     Node 24, Type 1, BuildingBlock: KUMBOL_clean_sbu_1, # of connection points: 6
#     Node 25, Type 1, BuildingBlock: KUMBOL_clean_sbu_1, # of connection points: 6
#     Node 26, Type 1, BuildingBlock: KUMBOL_clean_sbu_1, # of connection points: 6
#     Node 27, Type 1, BuildingBlock: KUMBOL_clean_sbu_1, # of connection points: 6
#     Node 28, Type 1, BuildingBlock: KUMBOL_clean_sbu_1, # of connection points: 6
#     Node 29, Type 1, BuildingBlock: KUMBOL_clean_sbu_1, # of connection points: 6
#     Node 30, Type 1, BuildingBlock: KUMBOL_clean_sbu_1, # of connection points: 6
#     Node 31, Type 1, BuildingBlock: KUMBOL_clean_sbu_1, # of connection points: 6
#     Node 32, Type 1, BuildingBlock: KUMBOL_clean_sbu_1, # of connection points: 6
#     Node 33, Type 1, BuildingBlock: KUMBOL_clean_sbu_1, # of connection points: 6
#     Node 34, Type 1, BuildingBlock: KUMBOL_clean_sbu_1, # of connection points: 6
#     Node 35, Type 1, BuildingBlock: KUMBOL_clean_sbu_1, # of connection points: 6
#     Node 36, Type 1, BuildingBlock: KUMBOL_clean_sbu_1, # of connection points: 6
#     Node 37, Type 1, BuildingBlock: KUMBOL_clean_sbu_1, # of connection points: 6
#     Node 38, Type 1, BuildingBlock: KUMBOL_clean_sbu_1, # of connection points: 6
#     Node 39, Type 1, BuildingBlock: KUMBOL_clean_sbu_1, # of connection points: 6
#     Edge 40, Type (0, 1), BuildingBlock: UVAHIK_clean_linker_0, # of connection points: 2
#     Edge 41, Type (0, 1), BuildingBlock: UVAHIK_clean_linker_0, # of connection points: 2
#     Edge 42, Type (0, 1), BuildingBlock: UVAHIK_clean_linker_0, # of connection points: 2
#     Edge 43, Type (0, 1), BuildingBlock: UVAHIK_clean_linker_0, # of connection points: 2
#     Edge 44, Type (0, 1), BuildingBlock: UVAHIK_clean_linker_0, # of connection points: 2
#     Edge 45, Type (0, 1), BuildingBlock: UVAHIK_clean_linker_0, # of connection points: 2
#     Edge 46, Type (0, 1), BuildingBlock: UVAHIK_clean_linker_0, # of connection points: 2
#     Edge 47, Type (0, 1), BuildingBlock: UVAHIK_clean_linker_0, # of connection points: 2
#     Edge 48, Type (0, 1), BuildingBlock: UVAHIK_clean_linker_0, # of connection points: 2
#     Edge 49, Type (0, 1), BuildingBlock: UVAHIK_clean_linker_0, # of connection points: 2
#     Edge 50, Type (0, 1), BuildingBlock: UVAHIK_clean_linker_0, # of connection points: 2
#     Edge 51, Type (0, 1), BuildingBlock: UVAHIK_clean_linker_0, # of connection points: 2
#     Edge 52, Type (0, 1), BuildingBlock: UVAHIK_clean_linker_0, # of connection points: 2
#     Edge 53, Type (0, 1), BuildingBlock: UVAHIK_clean_linker_0, # of connection points: 2
#     Edge 54, Type (0, 1), BuildingBlock: UVAHIK_clean_linker_0, # of connection points: 2
#     Edge 55, Type (0, 1), BuildingBlock: UVAHIK_clean_linker_0, # of connection points: 2
#     Edge 56, Type (0, 1), BuildingBlock: UVAHIK_clean_linker_0, # of connection points: 2
#     Edge 57, Type (0, 1), BuildingBlock: UVAHIK_clean_linker_0, # of connection points: 2
#     Edge 58, Type (0, 1), BuildingBlock: UVAHIK_clean_linker_0, # of connection points: 2
#     Edge 59, Type (0, 1), BuildingBlock: UVAHIK_clean_linker_0, # of connection points: 2
#     Edge 60, Type (0, 1), BuildingBlock: UVAHIK_clean_linker_0, # of connection points: 2
#     Edge 61, Type (0, 1), BuildingBlock: UVAHIK_clean_linker_0, # of connection points: 2
#     Edge 62, Type (0, 1), BuildingBlock: UVAHIK_clean_linker_0, # of connection points: 2
#     Edge 63, Type (0, 1), BuildingBlock: UVAHIK_clean_linker_0, # of connection points: 2
#     Edge 64, Type (0, 1), BuildingBlock: UVAHIK_clean_linker_0, # of connection points: 2
#     Edge 65, Type (0, 1), BuildingBlock: UVAHIK_clean_linker_0, # of connection points: 2
#     Edge 66, Type (0, 1), BuildingBlock: UVAHIK_clean_linker_0, # of connection points: 2
#     Edge 67, Type (0, 1), BuildingBlock: UVAHIK_clean_linker_0, # of connection points: 2
#     Edge 68, Type (0, 1), BuildingBlock: UVAHIK_clean_linker_0, # of connection points: 2
#     Edge 69, Type (0, 1), BuildingBlock: UVAHIK_clean_linker_0, # of connection points: 2
#     Edge 70, Type (0, 1), BuildingBlock: UVAHIK_clean_linker_0, # of connection points: 2
#     Edge 71, Type (0, 1), BuildingBlock: UVAHIK_clean_linker_0, # of connection points: 2
#     Edge 72, Type (0, 1), BuildingBlock: UVAHIK_clean_linker_0, # of connection points: 2
#     Edge 73, Type (0, 1), BuildingBlock: UVAHIK_clean_linker_0, # of connection points: 2
#     Edge 74, Type (0, 1), BuildingBlock: UVAHIK_clean_linker_0, # of connection points: 2
#     Edge 75, Type (0, 1), BuildingBlock: UVAHIK_clean_linker_0, # of connection points: 2
#     Edge 76, Type (0, 1), BuildingBlock: UVAHIK_clean_linker_0, # of connection points: 2
#     Edge 77, Type (0, 1), BuildingBlock: UVAHIK_clean_linker_0, # of connection points: 2
#     Edge 78, Type (0, 1), BuildingBlock: UVAHIK_clean_linker_0, # of connection points: 2
#     Edge 79, Type (0, 1), BuildingBlock: UVAHIK_clean_linker_0, # of connection points: 2
#     Edge 80, Type (0, 1), BuildingBlock: UVAHIK_clean_linker_0, # of connection points: 2
#     Edge 81, Type (0, 1), BuildingBlock: UVAHIK_clean_linker_0, # of connection points: 2
#     Edge 82, Type (0, 1), BuildingBlock: UVAHIK_clean_linker_0, # of connection points: 2
#     Edge 83, Type (0, 1), BuildingBlock: UVAHIK_clean_linker_0, # of connection points: 2
#     Edge 84, Type (0, 1), BuildingBlock: UVAHIK_clean_linker_0, # of connection points: 2
#     Edge 85, Type (0, 1), BuildingBlock: UVAHIK_clean_linker_0, # of connection points: 2
#     Edge 86, Type (0, 1), BuildingBlock: UVAHIK_clean_linker_0, # of connection points: 2
#     Edge 87, Type (0, 1), BuildingBlock: UVAHIK_clean_linker_0, # of connection points: 2
#     Edge 88, Type (0, 1), BuildingBlock: UVAHIK_clean_linker_0, # of connection points: 2
#     Edge 89, Type (0, 1), BuildingBlock: UVAHIK_clean_linker_0, # of connection points: 2
#     Edge 90, Type (0, 1), BuildingBlock: UVAHIK_clean_linker_0, # of connection points: 2
#     Edge 91, Type (0, 1), BuildingBlock: UVAHIK_clean_linker_0, # of connection points: 2
#     Edge 92, Type (0, 1), BuildingBlock: UVAHIK_clean_linker_0, # of connection points: 2
#     Edge 93, Type (0, 1), BuildingBlock: UVAHIK_clean_linker_0, # of connection points: 2
#     Edge 94, Type (0, 1), BuildingBlock: UVAHIK_clean_linker_0, # of connection points: 2
#     Edge 95, Type (0, 1), BuildingBlock: UVAHIK_clean_linker_0, # of connection points: 2
#     Edge 96, Type (0, 1), BuildingBlock: UVAHIK_clean_linker_0, # of connection points: 2
#     Edge 97, Type (0, 1), BuildingBlock: UVAHIK_clean_linker_0, # of connection points: 2
#     Edge 98, Type (0, 1), BuildingBlock: UVAHIK_clean_linker_0, # of connection points: 2
#     Edge 99, Type (0, 1), BuildingBlock: UVAHIK_clean_linker_0, # of connection points: 2
#     Edge 100, Type (0, 1), BuildingBlock: UVAHIK_clean_linker_0, # of connection points: 2
#     Edge 101, Type (0, 1), BuildingBlock: UVAHIK_clean_linker_0, # of connection points: 2
#     Edge 102, Type (0, 1), BuildingBlock: UVAHIK_clean_linker_0, # of connection points: 2
#     Edge 103, Type (0, 1), BuildingBlock: UVAHIK_clean_linker_0, # of connection points: 2
#     Edge 104, Type (0, 1), BuildingBlock: UVAHIK_clean_linker_0, # of connection points: 2
#     Edge 105, Type (0, 1), BuildingBlock: UVAHIK_clean_linker_0, # of connection points: 2
#     Edge 106, Type (0, 1), BuildingBlock: UVAHIK_clean_linker_0, # of connection points: 2
#     Edge 107, Type (0, 1), BuildingBlock: UVAHIK_clean_linker_0, # of connection points: 2
#     Edge 108, Type (0, 1), BuildingBlock: UVAHIK_clean_linker_0, # of connection points: 2
#     Edge 109, Type (0, 1), BuildingBlock: UVAHIK_clean_linker_0, # of connection points: 2
#     Edge 110, Type (0, 1), BuildingBlock: UVAHIK_clean_linker_0, # of connection points: 2
#     Edge 111, Type (0, 1), BuildingBlock: UVAHIK_clean_linker_0, # of connection points: 2
#     Edge 112, Type (0, 1), BuildingBlock: UVAHIK_clean_linker_0, # of connection points: 2
#     Edge 113, Type (0, 1), BuildingBlock: UVAHIK_clean_linker_0, # of connection points: 2
#     Edge 114, Type (0, 1), BuildingBlock: UVAHIK_clean_linker_0, # of connection points: 2
#     Edge 115, Type (0, 1), BuildingBlock: UVAHIK_clean_linker_0, # of connection points: 2
#     Edge 116, Type (0, 1), BuildingBlock: UVAHIK_clean_linker_0, # of connection points: 2
#     Edge 117, Type (0, 1), BuildingBlock: UVAHIK_clean_linker_0, # of connection points: 2
#     Edge 118, Type (0, 1), BuildingBlock: UVAHIK_clean_linker_0, # of connection points: 2
#     Edge 119, Type (0, 1), BuildingBlock: UVAHIK_clean_linker_0, # of connection points: 2
#     Edge 120, Type (0, 1), BuildingBlock: UVAHIK_clean_linker_0, # of connection points: 2
#     Edge 121, Type (0, 1), BuildingBlock: UVAHIK_clean_linker_0, # of connection points: 2
#     Edge 122, Type (0, 1), BuildingBlock: UVAHIK_clean_linker_0, # of connection points: 2
#     Edge 123, Type (0, 1), BuildingBlock: UVAHIK_clean_linker_0, # of connection points: 2
#     Edge 124, Type (0, 1), BuildingBlock: UVAHIK_clean_linker_0, # of connection points: 2
#     Edge 125, Type (0, 1), BuildingBlock: UVAHIK_clean_linker_0, # of connection points: 2
#     Edge 126, Type (0, 1), BuildingBlock: UVAHIK_clean_linker_0, # of connection points: 2
#     Edge 127, Type (0, 1), BuildingBlock: UVAHIK_clean_linker_0, # of connection points: 2
#     Edge 128, Type (0, 1), BuildingBlock: UVAHIK_clean_linker_0, # of connection points: 2
#     Edge 129, Type (0, 1), BuildingBlock: UVAHIK_clean_linker_0, # of connection points: 2
#     Edge 130, Type (0, 1), BuildingBlock: UVAHIK_clean_linker_0, # of connection points: 2
#     Edge 131, Type (0, 1), BuildingBlock: UVAHIK_clean_linker_0, # of connection points: 2
#     Edge 132, Type (0, 1), BuildingBlock: UVAHIK_clean_linker_0, # of connection points: 2
#     Edge 133, Type (0, 1), BuildingBlock: UVAHIK_clean_linker_0, # of connection points: 2
#     Edge 134, Type (0, 1), BuildingBlock: UVAHIK_clean_linker_0, # of connection points: 2
#     Edge 135, Type (0, 1), BuildingBlock: UVAHIK_clean_linker_0, # of connection points: 2
# Relax obj value: 0.070
# Max RMSD: 0.187
# Mean RMSD: 0.133
data_MOF--net-gar--node1-NAHDIM_clean_sbu_0--node2-KUMBOL_clean_sbu_1--edge1-UVAHIK_clean_linker_0
_symmetry_space_group_name_H-M    P1
_symmetry_Int_Tables_number       1
_symmetry_cell_setting            triclinic
loop_
_symmetry_equiv_pos_as_xyz
'x, y, z'
_cell_length_a     77.873453
_cell_length_b     76.486701
_cell_length_c     70.412721
_cell_angle_alpha  95.891435
_cell_angle_beta   96.145953
_cell_angle_gamma 101.19934
loop_
_atom_site_label
_atom_site_type_symbol
_atom_site_fract_x
_atom_site_fract_y
_atom_site_fract_z
_atom_type_partial_charge
C0 C 0.07177 0.29796 0.34224 0.0
O1 O 0.07363 0.30298 0.36089 0.0
O2 O 0.03286 0.27233 0.36407 0.0
Zn3 Zn 0.03385 0.29444 0.34913 0.0
O4 O 0.03831 0.31804 0.36894 0.0
C5 C 0.9946 0.28136 0.33594 0.0
O6 O 0.99675 0.26989 0.3482 0.0
O7 O 0.05599 0.29406 0.33319 0.0
C8 C 0.0254 0.32544 0.37251 0.0
O9 O 0.00956 0.31783 0.36379 0.0
C10 C 0.02855 0.27175 0.381 0.0
O11 O 0.02423 0.28596 0.38978 0.0
O12 O 0.00837 0.29245 0.33281 0.0
C13 C 0.97236 0.74311 0.69625 0.0
O14 O 0.96905 0.73447 0.67871 0.0
O15 O 0.0072 0.71981 0.67166 0.0
Zn16 Zn 0.01024 0.74597 0.68676 0.0
O17 O 0.01011 0.76474 0.66713 0.0
C18 C 0.04843 0.74575 0.69532 0.0
O19 O 0.04447 0.73727 0.67773 0.0
O20 O 0.98868 0.7488 0.70337 0.0
C21 C 0.0189 0.78084 0.67171 0.0
O22 O 0.02869 0.78495 0.68857 0.0
C23 C 0.00603 0.71657 0.65329 0.0
O24 O 0.00524 0.72995 0.64315 0.0
O25 O 0.03601 0.75134 0.70317 0.0
C26 C 0.57074 0.79348 0.84274 0.0
O27 O 0.57104 0.79291 0.86135 0.0
O28 O 0.53227 0.77221 0.86361 0.0
Zn29 Zn 0.53358 0.79456 0.84887 0.0
O30 O 0.53803 0.81809 0.86865 0.0
C31 C 0.49434 0.78196 0.83589 0.0
O32 O 0.49646 0.77065 0.84834 0.0
O33 O 0.55601 0.79461 0.83322 0.0
C34 C 0.52497 0.82467 0.87345 0.0
O35 O 0.50897 0.81613 0.86609 0.0
C36 C 0.52966 0.77204 0.88118 0.0
O37 O 0.52743 0.78688 0.89087 0.0
O38 O 0.50815 0.79287 0.83255 0.0
C39 C 0.47354 0.25068 0.19638 0.0
O40 O 0.47313 0.25597 0.1792 0.0
O41 O 0.50578 0.21918 0.16987 0.0
Zn42 Zn 0.50904 0.2446 0.18622 0.0
O43 O 0.50862 0.26444 0.16772 0.0
C44 C 0.54735 0.24378 0.19512 0.0
O45 O 0.54359 0.23524 0.17757 0.0
O46 O 0.48726 0.24502 0.20295 0.0
C47 C 0.51869 0.28001 0.17171 0.0
O48 O 0.53 0.28325 0.18753 0.0
C49 C 0.50926 0.21727 0.1525 0.0
O50 O 0.51405 0.23181 0.1443 0.0
O51 O 0.53485 0.24952 0.20271 0.0
C52 C 0.00953 0.78468 0.12295 0.0
O53 O 0.00633 0.787 0.10478 0.0
O54 O 0.04011 0.75778 0.09646 0.0
Zn55 Zn 0.04456 0.78412 0.11122 0.0
O56 O 0.04105 0.80537 0.09457 0.0
C57 C 0.08035 0.77847 0.12544 0.0
O58 O 0.07613 0.76587 0.11062 0.0
O59 O 0.02506 0.7831 0.1294 0.0
C60 C 0.05278 0.81826 0.0906 0.0
O61 O 0.06947 0.81826 0.09591 0.0
C62 C 0.04358 0.75152 0.08006 0.0
O63 O 0.05047 0.76282 0.06872 0.0
O64 O 0.06947 0.78876 0.12844 0.0
C65 C 0.53403 0.76564 0.41837 0.0
O66 O 0.53789 0.77159 0.43682 0.0
O67 O 0.49703 0.73422 0.44096 0.0
Zn68 Zn 0.49793 0.75896 0.42877 0.0
O69 O 0.50349 0.78423 0.44687 0.0
C70 C 0.45947 0.74958 0.41113 0.0
O71 O 0.45715 0.73949 0.42504 0.0
O72 O 0.51787 0.75974 0.41152 0.0
C73 C 0.49245 0.79468 0.44576 0.0
O74 O 0.47707 0.78833 0.43532 0.0
C75 C 0.49972 0.73062 0.45831 0.0
O76 O 0.50286 0.74394 0.47241 0.0
O77 O 0.47503 0.75816 0.40994 0.0
C78 C 0.51066 0.28492 0.62325 0.0
O79 O 0.50781 0.2878 0.60522 0.0
O80 O 0.54113 0.25902 0.59617 0.0
Zn81 Zn 0.54588 0.28486 0.61232 0.0
O82 O 0.54481 0.30853 0.59896 0.0
C83 C 0.5818 0.27973 0.62528 0.0
O84 O 0.57898 0.26981 0.60844 0.0
O85 O 0.52607 0.28318 0.62988 0.0
C86 C 0.54537 0.31232 0.5817 0.0
O87 O 0.54746 0.2999 0.56833 0.0
C88 C 0.54516 0.25264 0.58009 0.0
O89 O 0.55343 0.26374 0.5694 0.0
O90 O 0.56988 0.28804 0.63009 0.0
C91 C 0.03433 0.26584 0.91785 0.0
O92 O 0.03827 0.27114 0.93643 0.0
O93 O -0.00115 0.23489 0.94094 0.0
Zn94 Zn -0.00152 0.25943 0.92857 0.0
O95 O 0.00414 0.28477 0.94659 0.0
C96 C 0.95972 0.24964 0.91118 0.0
O97 O 0.95743 0.23937 0.92494 0.0
O98 O 0.01812 0.26047 0.91093 0.0
C99 C 0.99285 0.295 0.94638 0.0
O100 O 0.97715 0.28849 0.93669 0.0
C101 C 0.99465 0.22917 0.95669 0.0
O102 O 0.98844 0.23975 0.9689 0.0
O103 O 0.97526 0.25837 0.9101 0.0
C104 C 0.36339 0.04913 0.29494 0.0
O105 O 0.37999 0.05136 0.30239 0.0
O106 O 0.38273 0.01535 0.26957 0.0
Zn107 Zn 0.36663 0.01449 0.28891 0.0
O108 O 0.37959 0.01635 0.31413 0.0
C109 C 0.35053 0.98013 0.27102 0.0
O110 O 0.36141 0.98393 0.25832 0.0
O111 O 0.35474 0.03371 0.28789 0.0
C112 C 0.38737 0.00363 0.31683 0.0
O113 O 0.38558 0.99011 0.30316 0.0
C114 C 0.39943 0.01872 0.27196 0.0
O115 O 0.40828 0.02374 0.28925 0.0
O116 O 0.34973 0.99197 0.28462 0.0
C117 C 0.29325 0.14645 0.50292 0.0
O118 O 0.29661 0.16317 0.49919 0.0
O119 O 0.2649 0.17096 0.53198 0.0
Zn120 Zn 0.25986 0.15525 0.50601 0.0
O121 O 0.26349 0.16951 0.48361 0.0
C122 C 0.22334 0.14403 0.51201 0.0
O123 O 0.22747 0.15875 0.52432 0.0
O124 O 0.27784 0.13957 0.50636 0.0
C125 C 0.25325 0.17879 0.47628 0.0
O126 O 0.23857 0.17992 0.48348 0.0
C127 C 0.26101 0.18628 0.53537 0.0
O128 O 0.25348 0.19325 0.52125 0.0
O129 O 0.23501 0.13969 0.50219 0.0
C130 C 0.14226 0.99813 0.78345 0.0
O131 O 0.12524 0.9942 0.78458 0.0
O132 O 0.12036 0.0303 0.75802 0.0
Zn133 Zn 0.13474 0.03267 0.78402 0.0
O134 O 0.12023 0.02818 0.80552 0.0
C135 C 0.14499 0.06983 0.78105 0.0
O136 O 0.12965 0.0662 0.77015 0.0
O137 O 0.14972 0.01434 0.78289 0.0
C138 C 0.109 0.03725 0.81027 0.0
O139 O 0.10601 0.05024 0.80037 0.0
C140 C 0.10401 0.02373 0.75327 0.0
O141 O 0.09452 0.01701 0.76616 0.0
O142 O 0.15018 0.05743 0.78933 0.0
C143 C 0.24753 0.93369 0.9845 0.0
O144 O 0.24514 0.91668 0.97745 0.0
O145 O 0.27647 0.91405 0.01731 0.0
Zn146 Zn 0.2803 0.92809 0.99571 0.0
O147 O 0.27913 0.91291 0.97123 0.0
C148 C 0.3139 0.9442 0.01542 0.0
O149 O 0.30898 0.93442 0.02893 0.0
O150 O 0.26242 0.94189 0.99312 0.0
C151 C 0.29265 0.90786 0.96611 0.0
O152 O 0.30776 0.91204 0.97742 0.0
C153 C 0.28014 0.89863 0.01691 0.0
O154 O 0.28526 0.89135 0.00136 0.0
O155 O 0.30318 0.9442 0.00061 0.0
C156 C 0.24756 0.39234 0.03059 0.0
O157 O 0.24387 0.3747 0.02741 0.0
O158 O 0.28054 0.37344 0.0572 0.0
Zn159 Zn 0.28178 0.38538 0.03306 0.0
O160 O 0.27615 0.3676 0.00843 0.0
C161 C 0.31954 0.39983 0.0431 0.0
O162 O 0.31878 0.38665 0.05376 0.0
O163 O 0.26359 0.40055 0.03325 0.0
C164 C 0.28872 0.36441 -0.00063 0.0
O165 O 0.30503 0.37159 0.00693 0.0
C166 C 0.28348 0.35795 0.0593 0.0
O167 O 0.28812 0.34842 0.04485 0.0
O168 O 0.30549 0.40188 0.03344 0.0
C169 C 0.79475 0.10866 0.04914 0.0
O170 O 0.79715 0.12628 0.05152 0.0
O171 O 0.76564 0.13112 0.06522 0.0
Zn172 Zn 0.76182 0.11401 0.04199 0.0
O173 O 0.76493 0.12793 0.01999 0.0
C174 C 0.72885 0.09881 0.05283 0.0
O175 O 0.735 0.10884 0.06934 0.0
O176 O 0.77934 0.09931 0.04441 0.0
C177 C 0.75171 0.12924 0.00852 0.0
O178 O 0.73581 0.12064 0.01047 0.0
C179 C 0.76059 0.14583 0.06482 0.0
O180 O 0.75272 0.14953 0.04873 0.0
O181 O 0.73833 0.09877 0.03931 0.0
C182 C 0.17446 0.49639 0.2315 0.0
O183 O 0.15742 0.49347 0.23252 0.0
O184 O 0.1519 0.53193 0.22195 0.0
Zn185 Zn 0.17031 0.53033 0.24253 0.0
O186 O 0.15999 0.52543 0.26629 0.0
C187 C 0.1892 0.56316 0.23474 0.0
O188 O 0.18128 0.55777 0.2171 0.0
O189 O 0.18336 0.51229 0.23462 0.0
C190 C 0.1516 0.53718 0.27194 0.0
O191 O 0.15084 0.55076 0.26207 0.0
C192 C 0.13577 0.52435 0.22043 0.0
O193 O 0.13004 0.51385 0.23305 0.0
O194 O 0.18655 0.55317 0.24781 0.0
C195 C 0.7472 0.89437 0.53254 0.0
O196 O 0.74351 0.87674 0.5312 0.0
O197 O 0.77998 0.87429 0.5574 0.0
Zn198 Zn 0.78117 0.88685 0.53332 0.0
O199 O 0.77504 0.87027 0.508 0.0
C200 C 0.81934 0.89932 0.54143 0.0
O201 O 0.81857 0.88497 0.55034 0.0
O202 O 0.76322 0.90244 0.53373 0.0
C203 C 0.78542 0.86107 0.50118 0.0
O204 O 0.80083 0.86149 0.511 0.0
C205 C 0.7818 0.85835 0.55917 0.0
O206 O 0.78498 0.84825 0.54425 0.0
O207 O 0.80513 0.90275 0.53349 0.0
C208 C 0.90292 0.04693 0.25649 0.0
O209 O 0.91971 0.05089 0.26358 0.0
O210 O 0.92377 0.00961 0.23177 0.0
Zn211 Zn 0.90997 0.01169 0.25439 0.0
O212 O 0.92528 0.0177 0.28032 0.0
C213 C 0.89625 0.97363 0.24728 0.0
O214 O 0.91066 0.97372 0.23911 0.0
O215 O 0.89555 0.03059 0.25116 0.0
C216 C 0.93613 0.00816 0.28565 0.0
O217 O 0.9382 0.99468 0.27358 0.0
C218 C 0.93781 0.0207 0.23019 0.0
O219 O 0.94431 0.03381 0.24418 0.0
O220 O 0.89317 0.98837 0.25467 0.0
C221 C 0.29437 0.61243 0.55146 0.0
O222 O 0.29651 0.62998 0.55223 0.0
O223 O 0.26501 0.63476 0.56744 0.0
Zn224 Zn 0.26128 0.61701 0.54483 0.0
O225 O 0.26441 0.63029 0.5224 0.0
C226 C 0.22865 0.60035 0.55572 0.0
O227 O 0.2346 0.60984 0.57258 0.0
O228 O 0.27901 0.60277 0.54802 0.0
C229 C 0.25151 0.63007 0.50973 0.0
O230 O 0.23594 0.62023 0.51092 0.0
C231 C 0.258 0.64832 0.5672 0.0
O232 O 0.24738 0.65 0.552 0.0
O233 O 0.23807 0.60137 0.54215 0.0
C234 C 0.40299 0.54613 0.75584 0.0
O235 O 0.42007 0.54988 0.76152 0.0
O236 O 0.42267 0.50985 0.73123 0.0
Zn237 Zn 0.40946 0.51104 0.75433 0.0
O238 O 0.42491 0.5169 0.78016 0.0
C239 C 0.39592 0.47282 0.74725 0.0
O240 O 0.41056 0.47282 0.73954 0.0
O241 O 0.39508 0.52983 0.75169 0.0
C242 C 0.43633 0.50791 0.78532 0.0
O243 O 0.43906 0.4949 0.77306 0.0
C244 C 0.43835 0.51805 0.73037 0.0
O245 O 0.44766 0.52781 0.74586 0.0
O246 O 0.39272 0.48762 0.75431 0.0
C247 C 0.67508 0.99608 0.73332 0.0
O248 O 0.65807 0.9942 0.73414 0.0
O249 O 0.65432 0.03198 0.72604 0.0
Zn250 Zn 0.67324 0.03046 0.74599 0.0
O251 O 0.66342 0.02659 0.77025 0.0
C252 C 0.69173 0.06283 0.73654 0.0
O253 O 0.68297 0.05725 0.71929 0.0
O254 O 0.68501 0.01144 0.73766 0.0
C255 C 0.65515 0.03855 0.7756 0.0
O256 O 0.65464 0.05199 0.76546 0.0
C257 C 0.63822 0.02471 0.72564 0.0
O258 O 0.63301 0.015 0.73911 0.0
O259 O 0.68991 0.05299 0.74987 0.0
C260 C 0.79412 0.64734 0.00216 0.0
O261 O 0.79723 0.6639 -0.00209 0.0
O262 O 0.76329 0.66958 0.03184 0.0
Zn263 Zn 0.76026 0.65526 0.00563 0.0
O264 O 0.76419 0.67124 0.9846 0.0
C265 C 0.72304 0.64508 0.00674 0.0
O266 O 0.72574 0.66194 0.01439 0.0
O267 O 0.77887 0.64044 0.00601 0.0
C268 C 0.75226 0.67671 0.97451 0.0
O269 O 0.73579 0.6722 0.97776 0.0
C270 C 0.76307 0.68618 0.03511 0.0
O271 O 0.76101 0.69537 0.02056 0.0
O272 O 0.73599 0.6389 0.00129 0.0
C273 C 0.8631 0.54836 0.79319 0.0
O274 O 0.88033 0.55089 0.79736 0.0
O275 O 0.88287 0.51554 0.76967 0.0
Zn276 Zn 0.86716 0.51422 0.7895 0.0
O277 O 0.88061 0.51683 0.81485 0.0
C278 C 0.8517 0.4796 0.77163 0.0
O279 O 0.86239 0.48353 0.75879 0.0
O280 O 0.85403 0.53265 0.78855 0.0
C281 C 0.88823 0.50413 0.8183 0.0
O282 O 0.88627 0.49008 0.80523 0.0
C283 C 0.89956 0.51831 0.77194 0.0
O284 O 0.90852 0.52243 0.78924 0.0
O285 O 0.85103 0.49128 0.78543 0.0
C286 C 0.74827 0.43565 0.48705 0.0
O287 O 0.74707 0.4188 0.48008 0.0
O288 O 0.77649 0.41599 0.51906 0.0
Zn289 Zn 0.78115 0.43167 0.49882 0.0
O290 O 0.78079 0.41772 0.47391 0.0
C291 C 0.815 0.44589 0.51823 0.0
O292 O 0.81046 0.43418 0.53013 0.0
O293 O 0.76269 0.44471 0.49607 0.0
C294 C 0.79387 0.41212 0.46833 0.0
O295 O 0.80902 0.41544 0.47958 0.0
C296 C 0.78 0.40046 0.51782 0.0
O297 O 0.78631 0.39431 0.50254 0.0
O298 O 0.80375 0.44804 0.50483 0.0
C299 C 0.64264 0.49775 0.28407 0.0
O300 O 0.62607 0.4941 0.28721 0.0
O301 O 0.62036 0.53056 0.25711 0.0
Zn302 Zn 0.63493 0.53246 0.28301 0.0
O303 O 0.62044 0.52814 0.30466 0.0
C304 C 0.64568 0.5697 0.28008 0.0
O305 O 0.63029 0.56625 0.26928 0.0
O306 O 0.64962 0.51369 0.28163 0.0
C307 C 0.60939 0.53729 0.30979 0.0
O308 O 0.60649 0.55053 0.30024 0.0
C309 C 0.60417 0.52333 0.25211 0.0
O310 O 0.59497 0.51543 0.26458 0.0
O311 O 0.65072 0.5572 0.28833 0.0
C312 C 0.97999 0.96658 0.98376 0.0
C313 C 0.96338 0.95148 0.00686 0.0
C314 C 0.97358 0.96715 0.00156 0.0
C315 C 0.95958 0.93544 0.99413 0.0
C316 C 0.97591 0.95052 0.97085 0.0
C317 C 0.96572 0.935 0.97615 0.0
N318 N 0.98998 0.98175 0.97896 0.0
C319 C 0.99523 0.98208 0.96109 0.0
C320 C 0.98189 0.95062 0.9528 0.0
C321 C 0.99148 0.96651 0.94786 0.0
Gd322 Gd 0.03985 0.0277 0.02755 0.0
Gd323 Gd 0.99212 0.00765 0.00049 0.0
N324 N 0.97697 0.98301 0.01346 0.0
C325 C 0.95696 0.95246 0.02466 0.0
C326 C 0.96993 0.98419 0.03035 0.0
C327 C 0.96019 0.96889 0.03641 0.0
H328 H 0.97113 0.99693 0.03889 0.0
H329 H 0.9548 0.96989 0.04992 0.0
H330 H 0.05993 0.03948 0.99014 0.0
H331 H 0.0016 0.99446 0.95657 0.0
H332 H 0.0781 0.0664 0.98041 0.0
H333 H 0.94912 0.9407 0.02926 0.0
H334 H 0.95166 0.92334 -0.00206 0.0
H335 H 0.03276 0.03907 0.07353 0.0
H336 H 0.97884 0.93862 0.94242 0.0
H337 H 0.99566 0.96688 0.9337 0.0
H338 H 0.08322 0.11148 0.03445 0.0
H339 H 0.96242 0.92258 0.96638 0.0
H340 H 0.05661 0.09441 0.08973 0.0
H341 H 0.0398 0.06578 0.09756 0.0
N342 N 0.04335 0.05274 0.05108 0.0
C343 C 0.05309 0.06827 0.04665 0.0
C344 C 0.03891 0.05167 0.06926 0.0
C345 C 0.05288 0.08287 0.07873 0.0
C346 C 0.04333 0.06675 0.08319 0.0
C347 C 0.05812 0.08373 0.0604 0.0
H348 H 0.07282 0.11126 0.06619 0.0
N349 N 0.0549 0.05311 0.01609 0.0
C350 C 0.05915 0.06841 0.02876 0.0
C351 C 0.07663 0.08329 0.00637 0.0
C352 C 0.07013 0.08396 0.02418 0.0
C353 C 0.06206 0.05208 -0.00076 0.0
C354 C 0.07266 0.06723 0.99391 0.0
O355 O 0.0098 0.98747 0.00738 0.0
O356 O 0.02677 0.00083 0.03563 0.0
O357 O 0.06274 0.01724 0.02136 0.0
O358 O 0.06205 0.0312 0.04975 0.0
O359 O 0.99222 0.02168 0.03051 0.0
O360 O 0.01889 0.01845 0.04616 0.0
O361 O 0.02735 0.04643 0.0098 0.0
O362 O 0.99756 0.03791 0.01089 0.0
O363 O 0.96377 0.00406 0.99493 0.0
O364 O 0.98002 0.01388 0.97353 0.0
O365 O 0.03724 0.01146 -0.00165 0.0
O366 O 0.01299 0.0193 0.98327 0.0
C367 C 0.01931 0.98627 0.02374 0.0
C368 C 0.00289 0.02153 0.04631 0.0
C369 C 0.08116 0.01084 0.04731 0.0
C370 C 0.10653 0.99745 0.04533 0.0
C371 C 0.09251 0.99734 0.0744 0.0
C372 C 0.08015 0.00631 0.06607 0.0
C373 C 0.10591 0.99314 0.06416 0.0
C374 C 0.09408 0.00602 0.03696 0.0
C375 C 0.07088 0.02265 0.03875 0.0
C376 C 0.07474 0.09945 0.03768 0.0
C377 C 0.06878 0.09932 0.05575 0.0
H378 H 0.08511 0.09495 0.00236 0.0
C379 C 0.01149 0.05016 0.00865 0.0
C380 C 0.0283 0.0148 0.98277 0.0
C381 C 0.9528 0.02266 0.9739 0.0
C382 C 0.93234 0.04097 0.98342 0.0
C383 C 0.93835 0.03784 0.95028 0.0
C384 C 0.94986 0.0266 0.95494 0.0
C385 C 0.92957 0.04501 0.96445 0.0
C386 C 0.94409 0.02999 0.98814 0.0
C387 C 0.96415 0.01008 0.97828 0.0
H388 H 0.09197 0.99405 0.08894 0.0
H389 H 0.07024 0.0101 0.07439 0.0
H390 H 0.11573 0.98664 0.07085 0.0
H391 H 0.0951 0.0099 0.02262 0.0
H392 H 0.93597 0.04072 0.93561 0.0
H393 H 0.95632 0.0208 0.94371 0.0
H394 H 0.92022 0.05324 0.9605 0.0
H395 H 0.94613 0.02694 0.00282 0.0
C396 C 0.29789 0.73539 0.21741 0.0
C397 C 0.27437 0.7222 0.19149 0.0
C398 C 0.2816 0.73547 0.20724 0.0
C399 C 0.28362 0.70879 0.18627 0.0
C400 C 0.30734 0.72211 0.21201 0.0
C401 C 0.30008 0.70876 0.19648 0.0
N402 N 0.30428 0.74806 0.23287 0.0
C403 C 0.32049 0.74881 0.24283 0.0
C404 C 0.32377 0.72255 0.22249 0.0
C405 C 0.33044 0.73607 0.23784 0.0
Gd406 Gd 0.25852 0.76705 0.29176 0.0
Gd407 Gd 0.28609 0.76817 0.24093 0.0
N408 N 0.27265 0.74827 0.21309 0.0
C409 C 0.25802 0.72278 0.18146 0.0
C410 C 0.25723 0.7495 0.20261 0.0
C411 C 0.24956 0.73664 0.18688 0.0
H412 H 0.25082 0.76045 0.20601 0.0
H413 H 0.23715 0.7375 0.17887 0.0
H414 H 0.2959 0.77557 0.32524 0.0
H415 H 0.32594 0.75934 0.2545 0.0
H416 H 0.31158 0.79985 0.34975 0.0
H417 H 0.25199 0.71279 0.16933 0.0
H418 H 0.2782 0.6984 0.17431 0.0
H419 H 0.21869 0.77557 0.28138 0.0
H420 H 0.33146 0.71261 0.21877 0.0
H421 H 0.34325 0.73668 0.24585 0.0
H422 H 0.27197 0.8403 0.35499 0.0
H423 H 0.30708 0.69836 0.19224 0.0
H424 H 0.21562 0.82403 0.3159 0.0
H425 H 0.20195 0.79869 0.2907 0.0
N426 N 0.2414 0.78752 0.30135 0.0
C427 C 0.24899 0.80105 0.31548 0.0
C428 C 0.2247 0.78647 0.29254 0.0
C429 C 0.22294 0.81381 0.31201 0.0
C430 C 0.21519 0.79954 0.29777 0.0
C431 C 0.24006 0.81473 0.32104 0.0
H432 H 0.24194 0.83965 0.33958 0.0
N433 N 0.27401 0.78786 0.31835 0.0
C434 C 0.2659 0.80137 0.32408 0.0
C435 C 0.29113 0.8151 0.34756 0.0
C436 C 0.27431 0.81545 0.33864 0.0
C437 C 0.28993 0.7869 0.32804 0.0
C438 C 0.29883 0.80059 0.34245 0.0
O439 O 0.27538 0.73955 0.2447 0.0
O440 O 0.26705 0.75674 0.26591 0.0
O441 O 0.25874 0.74486 0.30825 0.0
O442 O 0.23379 0.75073 0.29714 0.0
O443 O 0.25776 0.77406 0.23818 0.0
O444 O 0.24095 0.76386 0.26274 0.0
O445 O 0.26396 0.79335 0.2808 0.0
O446 O 0.28756 0.78642 0.26854 0.0
O447 O 0.28548 0.78937 0.22298 0.0
O448 O 0.31037 0.78232 0.23246 0.0
O449 O 0.28613 0.76004 0.29501 0.0
O450 O 0.30286 0.76962 0.27034 0.0
C451 C 0.26685 0.7405 0.2591 0.0
C452 C 0.24266 0.77002 0.24581 0.0
C453 C 0.23653 0.74115 0.32811 0.0
C454 C 0.24269 0.7333 0.3603 0.0
C455 C 0.22005 0.75037 0.35336 0.0
C456 C 0.22347 0.74997 0.33428 0.0
C457 C 0.22971 0.74222 0.36641 0.0
C458 C 0.2458 0.73255 0.34111 0.0
C459 C 0.24178 0.74183 0.30878 0.0
C460 C 0.26563 0.82931 0.34398 0.0
C461 C 0.24852 0.82893 0.33524 0.0
H462 H 0.29806 0.82568 0.35874 0.0
C463 C 0.27736 0.79786 0.27142 0.0
C464 C 0.30122 0.76353 0.28733 0.0
C465 C 0.30732 0.79256 0.20202 0.0
C466 C 0.30169 0.80133 0.17024 0.0
C467 C 0.32797 0.7898 0.17892 0.0
C468 C 0.32305 0.78788 0.1972 0.0
C469 C 0.31732 0.79646 0.16543 0.0
C470 C 0.29676 0.79935 0.18847 0.0
C471 C 0.30228 0.7916 0.22141 0.0
H472 H 0.20999 0.75714 0.3581 0.0
H473 H 0.21613 0.75675 0.32451 0.0
H474 H 0.22687 0.74262 0.38115 0.0
H475 H 0.25587 0.7257 0.33642 0.0
H476 H 0.34017 0.78638 0.1753 0.0
H477 H 0.33165 0.78296 0.20757 0.0
H478 H 0.32155 0.79835 0.15148 0.0
H479 H 0.28481 0.8034 0.19216 0.0
C480 C 0.56422 0.06083 0.48734 0.0
C481 C 0.58676 0.07852 0.51237 0.0
C482 C 0.57341 0.06309 0.50594 0.0
C483 C 0.59087 0.09156 0.5 0.0
C484 C 0.5686 0.07388 0.47487 0.0
C485 C 0.58185 0.08924 0.48133 0.0
N486 N 0.55129 0.04587 0.48137 0.0
C487 C 0.54337 0.04258 0.46268 0.0
C488 C 0.55975 0.071 0.45609 0.0
C489 C 0.54724 0.05521 0.44994 0.0
Gd490 Gd 0.49879 0.01923 0.52486 0.0
Gd491 Gd 0.54773 0.02542 0.50413 0.0
N492 N 0.56899 0.0505 0.51791 0.0
C493 C 0.59547 0.08047 0.53117 0.0
C494 C 0.57775 0.05203 0.53599 0.0
C495 C 0.59099 0.06714 0.54299 0.0
H496 H 0.57481 0.04136 0.54475 0.0
H497 H 0.59787 0.0684 0.55741 0.0
H498 H 0.47096 0.00129 0.48554 0.0
H499 H 0.53444 0.03007 0.4571 0.0
H500 H 0.44944 0.97296 0.47375 0.0
H501 H 0.60575 0.09216 0.53664 0.0
H502 H 0.60106 0.10351 0.50473 0.0
H503 H 0.51029 0.01781 0.57312 0.0
H504 H 0.5628 0.08068 0.44609 0.0
H505 H 0.54079 0.05258 0.43523 0.0
H506 H 0.45207 0.93802 0.52631 0.0
H507 H 0.58531 0.09938 0.47193 0.0
H508 H 0.48784 0.96543 0.58511 0.0
H509 H 0.50613 0.99572 0.59577 0.0
N510 N 0.49679 -0.00043 0.54857 0.0
C511 C 0.48583 0.98323 0.54261 0.0
C512 C 0.50338 0.00432 0.56762 0.0
C513 C 0.49025 0.97486 0.57473 0.0
C514 C 0.50063 0.99192 0.58079 0.0
C515 C 0.48234 0.97047 0.5556 0.0
H516 H 0.46766 0.94416 0.55924 0.0
N517 N 0.47975 0.99233 0.51169 0.0
C518 C 0.47691 0.97965 0.52385 0.0
C519 C 0.45485 0.96087 0.49948 0.0
C520 C 0.46448 0.96342 0.51789 0.0
C521 C 0.46957 0.99046 0.49428 0.0
C522 C 0.45725 0.97456 0.48773 0.0
O523 O 0.54003 0.05198 0.51615 0.0
O524 O 0.5151 0.04766 0.53277 0.0
O525 O 0.47734 0.03141 0.51336 0.0
O526 O 0.47817 0.02323 0.54189 0.0
O527 O 0.54121 0.01517 0.53151 0.0
O528 O 0.52246 0.02896 0.54711 0.0
O529 O 0.5051 0.99527 0.50618 0.0
O530 O 0.53521 0.99835 0.51313 0.0
O531 O 0.57345 0.01816 0.50988 0.0
O532 O 0.55821 0.01184 0.48095 0.0
O533 O 0.50806 0.03194 0.49972 0.0
O534 O 0.52396 0.01603 0.48264 0.0
C535 C 0.52868 0.0581 0.52677 0.0
C536 C 0.53803 0.02506 0.54635 0.0
C537 C 0.4635 0.04676 0.53653 0.0
C538 C 0.44053 0.06424 0.53502 0.0
C539 C 0.46374 0.07068 0.56215 0.0
C540 C 0.47133 0.05704 0.55413 0.0
C541 C 0.44836 0.07423 0.55269 0.0
C542 C 0.44811 0.0505 0.52693 0.0
C543 C 0.47 0.03092 0.52913 0.0
C544 C 0.46155 0.95056 0.53065 0.0
C545 C 0.47046 0.95405 0.54942 0.0
H546 H 0.44515 0.94863 0.49445 0.0
C547 C 0.51937 0.98828 0.50702 0.0
C548 C 0.50974 0.02235 0.48401 0.0
C549 C 0.58659 0.00318 0.48451 0.0
C550 C 0.61134 0.98827 0.4892 0.0
C551 C 0.60111 0.99439 0.45729 0.0
C552 C 0.58808 0.00218 0.46473 0.0
C553 C 0.61268 0.98743 0.46944 0.0
C554 C 0.59834 0.99625 0.49679 0.0
C555 C 0.57257 0.0112 0.49201 0.0
H556 H 0.46965 0.07835 0.57586 0.0
H557 H 0.48308 0.05427 0.56191 0.0
H558 H 0.44246 0.08469 0.55922 0.0
H559 H 0.44181 0.04248 0.51349 0.0
H560 H 0.60218 0.99364 0.44204 0.0
H561 H 0.57919 0.00746 0.45502 0.0
H562 H 0.6226 0.98121 0.46341 0.0
H563 H 0.59721 0.99674 0.51204 0.0
C564 C 0.22847 0.28985 0.72641 0.0
C565 C 0.209 0.26294 0.70903 0.0
C566 C 0.22085 0.27169 0.72533 0.0
C567 C 0.20509 0.27261 0.69378 0.0
C568 C 0.22441 0.29961 0.71116 0.0
C569 C 0.21281 0.29087 0.69482 0.0
N570 N 0.23965 0.298 0.74242 0.0
C571 C 0.24608 0.31612 0.74465 0.0
C572 C 0.23194 0.31796 0.71289 0.0
C573 C 0.24266 0.32627 0.7298 0.0
Gd574 Gd 0.29513 0.26729 0.77129 0.0
Gd575 Gd 0.2451 0.27922 0.7659 0.0
N576 N 0.2252 0.26252 0.74008 0.0
C577 C 0.2015 0.2447 0.70851 0.0
C578 C 0.21758 0.24488 0.73988 0.0
C579 C 0.20572 0.23566 0.72406 0.0
H580 H 0.22031 0.23798 0.75208 0.0
H581 H 0.19975 0.22163 0.72393 0.0
H582 H 0.31997 0.30807 0.7843 0.0
H583 H 0.25357 0.32298 0.75797 0.0
H584 H 0.33993 0.32512 0.81278 0.0
H585 H 0.19231 0.23752 0.69627 0.0
H586 H 0.19607 0.26609 0.68113 0.0
H587 H 0.28886 0.22328 0.77901 0.0
H588 H 0.2292 0.3259 0.70147 0.0
H589 H 0.24809 0.34057 0.73154 0.0
H590 H 0.34001 0.28248 0.85827 0.0
H591 H 0.20958 0.29816 0.68297 0.0
H592 H 0.31002 0.22176 0.83711 0.0
H593 H 0.29399 0.20617 0.80591 0.0
N594 N 0.29961 0.2489 0.79545 0.0
C595 C 0.3094 0.25762 0.81215 0.0
C596 C 0.29485 0.23054 0.79284 0.0
C597 C 0.30721 0.22951 0.82554 0.0
C598 C 0.29813 0.22066 0.80797 0.0
C599 C 0.3134 0.24813 0.82765 0.0
H600 H 0.32721 0.25025 0.85647 0.0
N601 N 0.31314 0.28466 0.79791 0.0
C602 C 0.31663 0.27591 0.81327 0.0
C603 C 0.33614 0.30302 0.82965 0.0
C604 C 0.32801 0.285 0.82974 0.0
C605 C 0.32194 0.30181 0.79718 0.0
C606 C 0.3333 0.31137 0.81319 0.0
O607 O 0.25669 0.27155 0.73829 0.0
O608 O 0.2756 0.25258 0.74617 0.0
O609 O 0.31388 0.27653 0.75142 0.0
O610 O 0.31793 0.25547 0.76837 0.0
O611 O 0.24666 0.25222 0.77556 0.0
O612 O 0.2722 0.24309 0.7669 0.0
O613 O 0.28736 0.28545 0.79502 0.0
O614 O 0.25852 0.2721 0.79318 0.0
O615 O 0.2185 0.2727 0.77421 0.0
O616 O 0.23537 0.29903 0.78381 0.0
O617 O 0.2882 0.28982 0.75592 0.0
O618 O 0.26876 0.30247 0.77216 0.0
C619 C 0.26623 0.25959 0.73342 0.0
C620 C 0.25636 0.24008 0.77265 0.0
C621 C 0.33191 0.25653 0.7402 0.0
C622 C 0.35679 0.25614 0.72167 0.0
C623 C 0.33361 0.22945 0.71984 0.0
C624 C 0.32488 0.23852 0.73268 0.0
C625 C 0.34948 0.23814 0.71444 0.0
C626 C 0.3479 0.26537 0.73454 0.0
C627 C 0.32397 0.2654 0.75569 0.0
C628 C 0.33138 0.2757 0.84545 0.0
C629 C 0.32407 0.25734 0.84442 0.0
H630 H 0.34502 0.31043 0.842 0.0
C631 C 0.27278 0.28225 0.80296 0.0
C632 C 0.28329 0.30396 0.76389 0.0
C633 C 0.20483 0.2954 0.78931 0.0
C634 C 0.17845 0.29305 0.80587 0.0
C635 C 0.1899 0.32043 0.79257 0.0
C636 C 0.20349 0.31291 0.786 0.0
C637 C 0.17754 0.31064 0.80253 0.0
C638 C 0.19211 0.28541 0.79915 0.0
C639 C 0.22041 0.28812 0.78473 0.0
H640 H 0.3282 0.21551 0.71429 0.0
H641 H 0.31288 0.23133 0.73715 0.0
H642 H 0.35618 0.23076 0.70468 0.0
H643 H 0.35365 0.27916 0.74054 0.0
H644 H 0.18909 0.33402 0.79022 0.0
H645 H 0.21316 0.32092 0.77871 0.0
H646 H 0.16731 0.31686 0.80781 0.0
H647 H 0.1932 0.27202 0.80216 0.0
C648 C 0.00332 0.06648 0.56265 0.0
C649 C 0.03032 0.08587 0.57941 0.0
C650 C 0.0214 0.07325 0.56374 0.0
C651 C 0.02096 0.09123 0.59419 0.0
C652 C 0.99392 0.07183 0.5775 0.0
C653 C 0.00285 0.08414 0.5933 0.0
N654 N 0.99495 0.05473 0.54708 0.0
C655 C 0.97714 0.04837 0.54513 0.0
C656 C 0.97577 0.06475 0.57595 0.0
C657 C 0.96734 0.05305 0.55965 0.0
Gd658 Gd 0.02659 -0.00131 0.51861 0.0
Gd659 Gd 0.0129 0.04818 0.52379 0.0
N660 N 0.03036 0.06709 0.54975 0.0
C661 C 0.04847 0.09247 0.57992 0.0
C662 C 0.04784 0.07395 0.54978 0.0
C663 C 0.05723 0.08657 0.56496 0.0
H664 H 0.05443 0.0701 0.53785 0.0
H665 H 0.07117 0.09192 0.565 0.0
H666 H 0.9844 0.9776 0.50477 0.0
H667 H 0.97034 0.04006 0.53221 0.0
H668 H 0.96678 0.95758 0.47689 0.0
H669 H 0.0558 0.10219 0.5917 0.0
H670 H 0.02763 0.10079 0.60643 0.0
H671 H 0.06861 0.00643 0.50904 0.0
H672 H 0.9681 0.06846 0.5871 0.0
H673 H 0.95324 0.04784 0.55812 0.0
H674 H 0.00925 0.94825 0.43432 0.0
H675 H 0.99584 0.08838 0.60485 0.0
H676 H 0.06965 0.9777 0.4539 0.0
H677 H 0.08519 0.99797 0.48285 0.0
N678 N 0.04375 0.99184 0.49464 0.0
C679 C 0.03497 0.98046 0.479 0.0
C680 C 0.06158 0.998 0.49624 0.0
C681 C 0.06225 0.98155 0.46524 0.0
C682 C 0.07106 0.99305 0.48153 0.0
C683 C 0.044 0.97505 0.46383 0.0
H684 H 0.04131 0.95909 0.436 0.0
N685 N 0.00836 0.98025 0.49263 0.0
C686 C 0.0168 0.97438 0.47802 0.0
C687 C 0.9891 0.9568 0.46144 0.0
C688 C 0.00733 0.96269 0.4619 0.0
C689 C 0.99075 0.97401 0.49259 0.0
C690 C 0.9808 0.96239 0.47692 0.0
O691 O 0.02117 0.03737 0.55174 0.0
O692 O 0.03986 0.01855 0.54402 0.0
O693 O 0.01767 0.97546 0.53456 0.0
O694 O 0.04428 0.98164 0.52657 0.0
O695 O 0.03758 0.04525 0.51022 0.0
O696 O 0.0488 0.02316 0.52458 0.0
O697 O 0.01957 0.01068 0.49097 0.0
O698 O -0.00035 0.02832 0.49821 0.0
O699 O 0.02217 0.06955 0.5064 0.0
O700 O 0.99762 0.06835 0.51833 0.0
O701 O 0.00268 0.00255 0.53296 0.0
O702 O 0.99052 0.02369 0.51796 0.0
C703 C 0.03222 0.02705 0.55668 0.0
C704 C 0.05064 0.03733 0.51525 0.0
C705 C 0.03863 0.95578 0.54391 0.0
C706 C 0.03368 0.92874 0.56062 0.0
C707 C 0.06255 0.94022 0.5515 0.0
C708 C 0.0563 0.95408 0.54361 0.0
C709 C 0.05138 0.92767 0.55987 0.0
C710 C 0.02721 0.94297 0.55265 0.0
C711 C 0.0331 0.9711 0.53492 0.0
C712 C 0.01632 0.95723 0.44682 0.0
C713 C 0.03458 0.9634 0.44777 0.0
H714 H 0.98135 0.94778 0.44933 0.0
C715 C 0.00758 0.01992 0.48568 0.0
C716 C 0.98901 0.00916 0.52682 0.0
C717 C 0.00112 0.0852 0.49186 0.0
C718 C 0.0025 0.11031 0.47251 0.0
C719 C 0.97571 0.08726 0.46958 0.0
C720 C 0.98368 0.0783 0.4832 0.0
C721 C 0.98501 0.10314 0.4643 0.0
C722 C 0.01057 0.10131 0.4864 0.0
C723 C 0.00866 0.07704 0.50823 0.0
H724 H 0.07618 0.93921 0.55112 0.0
H725 H 0.0655 0.96354 0.53723 0.0
H726 H 0.05663 0.91703 0.56593 0.0
H727 H 0.01358 0.94398 0.5532 0.0
H728 H 0.96216 0.08199 0.46325 0.0
H729 H 0.97601 0.06621 0.48731 0.0
H730 H 0.97846 0.10997 0.45387 0.0
H731 H 0.02391 0.107 0.49322 0.0
C732 C 0.23347 0.72508 0.80269 0.0
C733 C 0.21354 0.70647 0.77608 0.0
C734 C 0.22979 0.71822 0.78327 0.0
C735 C 0.20074 0.70236 0.78844 0.0
C736 C 0.22106 0.71992 0.81535 0.0
C737 C 0.20451 0.70903 0.80803 0.0
N738 N 0.24966 0.7355 0.80946 0.0
C739 C 0.25502 0.73904 0.82887 0.0
C740 C 0.22592 0.72516 0.83513 0.0
C741 C 0.24311 0.73437 0.84194 0.0
Gd742 Gd 0.27254 0.79525 0.76167 0.0
Gd743 Gd 0.2677 0.74351 0.78552 0.0
N744 N 0.24245 0.72223 0.77161 0.0
C745 C 0.21086 0.69871 0.75682 0.0
C746 C 0.24039 0.71368 0.75327 0.0
C747 C 0.22449 0.70207 0.74548 0.0
H748 H 0.25105 0.71569 0.74474 0.0
H749 H 0.22281 0.69561 0.73079 0.0
H750 H 0.28714 0.82674 0.79936 0.0
H751 H 0.26847 0.74562 0.8344 0.0
H752 H 0.3133 0.85117 0.81022 0.0
H753 H 0.19856 0.68963 0.75078 0.0
H754 H 0.18812 0.69353 0.78312 0.0
H755 H 0.27587 0.78045 0.71415 0.0
H756 H 0.21678 0.72143 0.8453 0.0
H757 H 0.24727 0.73772 0.85726 0.0
H758 H 0.34803 0.85009 0.75801 0.0
H759 H 0.19475 0.70517 0.81752 0.0
H760 H 0.32555 0.80795 0.70189 0.0
H761 H 0.2978 0.78552 0.69209 0.0
N762 N 0.29163 0.79839 0.73784 0.0
C763 C 0.30637 0.81169 0.7431 0.0
C764 C 0.2882 0.7896 0.71944 0.0
C765 C 0.31612 0.80547 0.71206 0.0
C766 C 0.30051 0.79274 0.7065 0.0
C767 C 0.31907 0.81538 0.73035 0.0
H768 H 0.34401 0.83198 0.72638 0.0
N769 N 0.29633 0.81864 0.77329 0.0
C770 C 0.30863 0.82219 0.76106 0.0
C771 C 0.32537 0.84653 0.78451 0.0
C772 C 0.32362 0.83621 0.76652 0.0
C773 C 0.29758 0.82905 0.79047 0.0
C774 C 0.31223 0.84302 0.79647 0.0
O775 O 0.24301 0.75022 0.76811 0.0
O776 O 0.24625 0.78161 0.7712 0.0
O777 O 0.26099 0.81849 0.7702 0.0
O778 O 0.25824 0.80606 0.73987 0.0
O779 O 0.27822 0.75558 0.76018 0.0
O780 O 0.2639 0.77084 0.74044 0.0
O781 O 0.29899 0.79093 0.77711 0.0
O782 O 0.29525 0.76184 0.78685 0.0
O783 O 0.27614 0.71915 0.77451 0.0
O784 O 0.28541 0.73228 0.80372 0.0
O785 O 0.26879 0.77836 0.78448 0.0
O786 O 0.26942 0.7653 0.80991 0.0
C787 C 0.23649 0.76503 0.76647 0.0
C788 C 0.26841 0.75586 0.74405 0.0
C789 C 0.24463 0.83146 0.74508 0.0
C790 C 0.23064 0.85692 0.75052 0.0
C791 C 0.22987 0.8426 0.71804 0.0
C792 C 0.23937 0.8305 0.72516 0.0
C793 C 0.22553 0.85579 0.73065 0.0
C794 C 0.24018 0.84475 0.75781 0.0
C795 C 0.25486 0.81861 0.7521 0.0
C796 C 0.33639 0.83946 0.75398 0.0
C797 C 0.33412 0.8291 0.73599 0.0
H798 H 0.33671 0.85738 0.78921 0.0
C799 C 0.30523 0.77753 0.78435 0.0
C800 C 0.26969 0.78022 0.80302 0.0
C801 C 0.28683 0.70182 0.7978 0.0
C802 C 0.30095 0.67622 0.79653 0.0
C803 C 0.28579 0.68321 0.82377 0.0
C804 C 0.28133 0.69785 0.81554 0.0
C805 C 0.29574 0.67253 0.81441 0.0
C806 C 0.29636 0.69075 0.78819 0.0
C807 C 0.28577 0.71897 0.79079 0.0
H808 H 0.2259 0.84178 0.70271 0.0
H809 H 0.24263 0.82042 0.71499 0.0
H810 H 0.21817 0.86516 0.72492 0.0
H811 H 0.24414 0.84572 0.77318 0.0
H812 H 0.28191 0.68043 0.83764 0.0
H813 H 0.27421 0.70643 0.82336 0.0
H814 H 0.29953 0.66149 0.82116 0.0
H815 H 0.30106 0.69402 0.77475 0.0
C816 C 0.55684 0.99161 0.07055 0.0
C817 C 0.57085 0.01558 0.09605 0.0
C818 C 0.55754 0.00846 0.08045 0.0
C819 C 0.58338 0.0055 0.1016 0.0
C820 C 0.56924 0.98134 0.07633 0.0
C821 C 0.58254 0.98841 0.0918 0.0
N822 N 0.54413 0.98532 0.05524 0.0
C823 C 0.54243 0.96837 0.04594 0.0
C824 C 0.56791 0.96424 0.06637 0.0
C825 C 0.55433 0.95766 0.05126 0.0
Gd826 Gd 0.52615 0.03309 0.99588 0.0
Gd827 Gd 0.5253 0.00478 0.04693 0.0
N828 N 0.54561 0.01819 0.07426 0.0
C829 C 0.57128 0.0327 0.10549 0.0
C830 C 0.54561 0.03462 0.08391 0.0
C831 C 0.5585 0.04218 0.0995 0.0
H832 H 0.53576 0.04202 0.07974 0.0
H833 H 0.55858 0.05533 0.10687 0.0
H834 H 0.51977 -0.00125 0.95864 0.0
H835 H 0.53173 0.96284 0.03456 0.0
H836 H 0.49608 0.98374 0.93313 0.0
H837 H 0.58133 0.03866 0.11748 0.0
H838 H 0.59376 0.0108 0.11347 0.0
H839 H 0.51885 0.07397 0.00718 0.0
H840 H 0.57716 0.95593 0.07039 0.0
H841 H 0.55298 0.9443 0.04372 0.0
H842 H 0.45459 0.02261 0.93244 0.0
H843 H 0.59226 0.98077 0.09631 0.0
H844 H 0.47053 0.07826 0.97456 0.0
H845 H 0.49604 0.09143 -0.00063 0.0
N846 N 0.50642 0.05131 0.98711 0.0
C847 C 0.49294 0.04414 0.97297 0.0
C848 C 0.50782 0.06817 0.99635 0.0
C849 C 0.48057 0.07062 0.97788 0.0
C850 C 0.49493 0.07809 0.99191 0.0
C851 C 0.47948 0.05346 0.96812 0.0
H852 H 0.45489 0.05227 0.94992 0.0
N853 N 0.50643 0.01937 0.96793 0.0
C854 C 0.49281 0.02751 0.96321 0.0
C855 C 0.48009 0.00341 0.93772 0.0
C856 C 0.47916 0.01968 0.94818 0.0
C857 C 0.50814 0.00434 0.95659 0.0
C858 C 0.49484 0.99592 0.94168 0.0
O859 O 0.55293 0.01903 0.04534 0.0
O860 O 0.53644 0.02244 0.02047 0.0
O861 O 0.54722 0.03247 0.97868 0.0
O862 O 0.54431 0.05792 0.99299 0.0
O863 O 0.51856 0.03312 0.04878 0.0
O864 O 0.53006 0.05054 0.02522 0.0
O865 O 0.5004 0.0274 0.00702 0.0
O866 O 0.50672 0.00296 0.01946 0.0
O867 O 0.50534 0.00642 0.06584 0.0
O868 O 0.51058 0.98051 0.0555 0.0
O869 O 0.52954 0.00377 0.99137 0.0
O870 O 0.52649 0.98761 0.01832 0.0
C871 C 0.55219 0.02553 0.0294 0.0
C872 C 0.5235 0.04875 0.04187 0.0
C873 C 0.55484 0.05757 0.96251 0.0
C874 C 0.56122 0.05365 0.9295 0.0
C875 C 0.55528 0.08204 0.94308 0.0
C876 C 0.55307 0.07525 0.96052 0.0
C877 C 0.55923 0.07128 0.92757 0.0
C878 C 0.55919 0.04698 0.94701 0.0
C879 C 0.55232 0.04987 0.98052 0.0
C880 C 0.4653 0.02853 0.94377 0.0
C881 C 0.46549 0.04543 0.95369 0.0
H882 H 0.46984 0.9969 0.92612 0.0
C883 C 0.49575 0.01366 0.01631 0.0
C884 C 0.52899 0.98897 2e-05 0.0
C885 C 0.50157 0.98394 0.08638 0.0
C886 C 0.48967 0.98702 0.11653 0.0
C887 C 0.50924 0.9664 0.11165 0.0
C888 C 0.51073 0.9712 0.09318 0.0
C889 C 0.49881 0.97438 0.1234 0.0
C890 C 0.49094 0.99163 0.09806 0.0
C891 C 0.50234 0.98923 0.06708 0.0
H892 H 0.55397 0.09568 0.94158 0.0
H893 H 0.54996 0.08378 0.97237 0.0
H894 H 0.56111 0.07685 0.91422 0.0
H895 H 0.56084 0.0334 0.94845 0.0
H896 H 0.51617 0.95651 0.11686 0.0
H897 H 0.51894 0.96493 0.08429 0.0
H898 H 0.49771 0.97059 0.1377 0.0
H899 H 0.48373 0.00137 0.09284 0.0
C900 C 0.3248 0.31098 0.30465 0.0
C901 C 0.34066 0.32793 0.28219 0.0
C902 C 0.32507 0.31735 0.28683 0.0
C903 C 0.35601 0.33186 0.29557 0.0
C904 C 0.34015 0.31531 0.31826 0.0
C905 C 0.35575 0.3256 0.31355 0.0
N906 N 0.3093 0.30165 0.30915 0.0
C907 C 0.30819 0.29717 0.32734 0.0
C908 C 0.33922 0.30984 0.33654 0.0
C909 C 0.32314 0.30084 0.34113 0.0
Gd910 Gd 0.2644 0.25097 0.25859 0.0
Gd911 Gd 0.28463 0.29924 0.28583 0.0
N912 N 0.30994 0.31373 0.27427 0.0
C913 C 0.34021 0.33471 0.26445 0.0
C914 C 0.30919 0.32112 0.25744 0.0
C915 C 0.32437 0.33137 0.25207 0.0
H916 H 0.29683 0.31945 0.24834 0.0
H917 H 0.32375 0.337 0.23859 0.0
H918 H 0.25411 0.23037 0.29804 0.0
H919 H 0.29568 0.2917 0.33174 0.0
H920 H 0.22779 0.21405 0.30946 0.0
H921 H 0.35189 0.34291 0.26039 0.0
H922 H 0.36806 0.34005 0.29229 0.0
H923 H 0.25103 0.25981 0.21469 0.0
H924 H 0.35069 0.31303 0.34742 0.0
H925 H 0.32212 0.29725 0.3555 0.0
H926 H 0.18201 0.2085 0.2568 0.0
H927 H 0.36761 0.32911 0.32388 0.0
H928 H 0.19654 0.23478 0.20025 0.0
H929 H 0.22398 0.25246 0.19142 0.0
N930 N 0.23878 0.24783 0.23707 0.0
C931 C 0.22409 0.23748 0.24202 0.0
C932 C 0.23898 0.25293 0.21909 0.0
C933 C 0.20831 0.23837 0.21072 0.0
C934 C 0.22373 0.24845 0.20571 0.0
C935 C 0.20834 0.23272 0.22901 0.0
H936 H 0.18107 0.21842 0.22467 0.0
N937 N 0.24044 0.23538 0.272 0.0
C938 C 0.22481 0.23146 0.26009 0.0
C939 C 0.21059 0.21518 0.28378 0.0
C940 C 0.20954 0.22108 0.26563 0.0
C941 C 0.24166 0.22881 0.28929 0.0
C942 C 0.22673 0.21902 0.29563 0.0
O943 O 0.30266 0.28573 0.26822 0.0
O944 O 0.29378 0.25569 0.27021 0.0
O945 O 0.26017 0.22228 0.2515 0.0
O946 O 0.27232 0.23978 0.23215 0.0
O947 O 0.26915 0.29766 0.25641 0.0
O948 O 0.2759 0.27239 0.24153 0.0
O949 O 0.24484 0.2694 0.26414 0.0
O950 O 0.25729 0.2867 0.29265 0.0
O951 O 0.27582 0.32356 0.28047 0.0
O952 O 0.28893 0.32141 0.30865 0.0
O953 O 0.27809 0.25106 0.28867 0.0
O954 O 0.27483 0.27801 0.30435 0.0
C955 C 0.30606 0.26947 0.26759 0.0
C956 C 0.27167 0.28804 0.24082 0.0
C957 C 0.28153 0.21249 0.23417 0.0
C958 C 0.29715 0.19069 0.2461 0.0
C959 C 0.30398 0.20275 0.21672 0.0
C960 C 0.29123 0.2132 0.21845 0.0
C961 C 0.307 0.1915 0.23056 0.0
C962 C 0.28454 0.2011 0.2479 0.0
C963 C 0.26814 0.22337 0.23616 0.0
C964 C 0.1938 0.21659 0.2528 0.0
C965 C 0.19324 0.22225 0.23451 0.0
H966 H 0.19913 0.20728 0.2886 0.0
C967 C 0.2432 0.27887 0.28039 0.0
C968 C 0.27772 0.26165 0.30454 0.0
C969 C 0.26882 0.34084 0.30713 0.0
C970 C 0.25108 0.36337 0.30436 0.0
C971 C 0.25699 0.3526 0.33514 0.0
C972 C 0.26701 0.3413 0.32683 0.0
C973 C 0.24911 0.36371 0.32399 0.0
C974 C 0.26054 0.35161 0.296 0.0
C975 C 0.28087 0.33111 0.29817 0.0
H976 H 0.31139 0.20325 0.20456 0.0
H977 H 0.28893 0.22179 0.20754 0.0
H978 H 0.31665 0.18317 0.22896 0.0
H979 H 0.27703 0.20011 0.26001 0.0
H980 H 0.25577 0.35314 0.35034 0.0
H981 H 0.27358 0.33329 0.33585 0.0
H982 H 0.24206 0.37297 0.33083 0.0
H983 H 0.26206 0.35135 0.28084 0.0
C984 C 0.50254 0.56451 0.06343 0.0
C985 C 0.52971 0.58156 0.0823 0.0
C986 C 0.52085 0.57034 0.06558 0.0
C987 C 0.52003 0.58665 0.09689 0.0
C988 C 0.49282 0.56959 0.07809 0.0
C989 C 0.50167 0.58064 0.09482 0.0
N990 N 0.49424 0.55401 0.04697 0.0
C991 C 0.47631 0.54845 0.04408 0.0
C992 C 0.47446 0.56353 0.07543 0.0
C993 C 0.46618 0.55295 0.05834 0.0
Gd994 Gd 0.52656 0.49863 0.01815 0.0
Gd995 Gd 0.51262 0.5479 0.02404 0.0
N996 N 0.52998 0.56489 0.05139 0.0
C997 C 0.54804 0.58747 0.08376 0.0
C998 C 0.54771 0.5711 0.05243 0.0
C999 C 0.55704 0.58233 0.0687 0.0
H1000 H 0.55465 0.56762 0.04067 0.0
H1001 H 0.57116 0.58713 0.06955 0.0
H1002 H 0.48393 0.47837 0.00457 0.0
H1003 H 0.46974 0.54095 0.03059 0.0
H1004 H 0.46556 0.45957 0.97646 0.0
H1005 H 0.55532 0.59618 0.09634 0.0
H1006 H 0.52662 0.59528 0.10983 0.0
H1007 H 0.56841 0.50249 0.00924 0.0
H1008 H 0.46654 0.56712 0.08638 0.0
H1009 H 0.45197 0.54847 0.05602 0.0
H1010 H 0.5071 0.44868 0.93334 0.0
H1011 H 0.4944 0.58472 0.10621 0.0
H1012 H 0.56838 0.47396 0.95375 0.0
H1013 H 0.58469 0.49287 0.98323 0.0
N1014 N 0.54319 0.49022 0.99421 0.0
C1015 C 0.534 0.47945 0.97838 0.0
C1016 C 0.56116 0.49489 0.99615 0.0
C1017 C 0.56117 0.47844 0.965 0.0
C1018 C 0.57042 0.48917 0.98157 0.0
C1019 C 0.54275 0.47336 0.96327 0.0
H1020 H 0.5394 0.45753 0.93527 0.0
N1021 N 0.50772 0.48058 0.99214 0.0
C1022 C 0.51576 0.47442 0.97733 0.0
C1023 C 0.48755 0.45815 0.96067 0.0
C1024 C 0.50586 0.46321 0.96109 0.0
C1025 C 0.49003 0.47489 0.9922 0.0
C1026 C 0.47964 0.46387 0.97639 0.0
O1027 O 0.52004 0.53555 0.05108 0.0
O1028 O 0.54041 0.51878 0.04321 0.0
O1029 O 0.51716 0.47554 0.03425 0.0
O1030 O 0.54389 0.48145 0.0267 0.0
O1031 O 0.53724 0.54547 0.0104 0.0
O1032 O 0.5494 0.52276 0.02246 0.0
O1033 O 0.51955 0.51085 0.99072 0.0
O1034 O 0.49957 0.52854 -0.00206 0.0
O1035 O 0.52225 0.56971 0.00725 0.0
O1036 O 0.49804 0.56883 0.0197 0.0
O1037 O 0.50261 0.50257 0.0326 0.0
O1038 O 0.49028 0.52357 0.01755 0.0
C1039 C 0.53254 0.5269 0.05588 0.0
C1040 C 0.55079 0.53802 0.01487 0.0
C1041 C 0.53778 0.4554 0.04365 0.0
C1042 C 0.53298 0.42889 0.06128 0.0
C1043 C 0.56102 0.43858 0.0495 0.0
C1044 C 0.55495 0.45266 0.04189 0.0
C1045 C 0.55018 0.42683 0.05906 0.0
C1046 C 0.52665 0.44333 0.05353 0.0
C1047 C 0.53249 0.47095 0.0348 0.0
C1048 C 0.51451 0.45728 0.94593 0.0
C1049 C 0.5329 0.46232 0.94702 0.0
H1050 H 0.47947 0.44954 0.94847 0.0
C1051 C 0.50743 0.51997 0.98545 0.0
C1052 C 0.48886 0.50913 0.02651 0.0
C1053 C 0.50135 0.58607 0.99352 0.0
C1054 C 0.50298 0.61106 0.97389 0.0
C1055 C 0.47545 0.58935 0.9727 0.0
C1056 C 0.4835 0.58001 0.98585 0.0
C1057 C 0.48508 0.60472 0.96677 0.0
C1058 C 0.51112 0.60174 0.98745 0.0
C1059 C 0.50902 0.57752 0.00956 0.0
H1060 H 0.57428 0.43678 0.04797 0.0
H1061 H 0.56391 0.46144 0.03453 0.0
H1062 H 0.55531 0.41601 0.06488 0.0
H1063 H 0.51341 0.44512 0.0552 0.0
H1064 H 0.4616 0.58475 0.96721 0.0
H1065 H 0.47558 0.56828 0.9904 0.0
H1066 H 0.47847 0.61181 0.95666 0.0
H1067 H 0.5248 0.6068 0.99346 0.0
C1068 C 0.73192 0.23008 0.30127 0.0
C1069 C 0.71397 0.207 0.27679 0.0
C1070 C 0.72937 0.22035 0.28291 0.0
C1071 C 0.70112 0.20353 0.2892 0.0
C1072 C 0.71917 0.22614 0.31392 0.0
C1073 C 0.70374 0.21301 0.30771 0.0
N1074 N 0.74718 0.24253 0.30718 0.0
C1075 C 0.751 0.25019 0.32598 0.0
C1076 C 0.72257 0.23499 0.33274 0.0
C1077 C 0.73863 0.24689 0.33884 0.0
Gd1078 Gd 0.77187 0.29383 0.26253 0.0
Gd1079 Gd 0.76742 0.24474 0.28451 0.0
N1080 N 0.7421 0.22367 0.27116 0.0
C1081 C 0.7121 0.19721 0.25848 0.0
C1082 C 0.74077 0.2136 0.25371 0.0
C1083 C 0.72561 0.20046 0.24694 0.0
H1084 H 0.75143 0.21574 0.24509 0.0
H1085 H 0.72444 0.19269 0.23295 0.0
H1086 H 0.78868 0.32101 0.30338 0.0
H1087 H 0.76381 0.25822 0.33161 0.0
H1088 H 0.81481 0.34527 0.31502 0.0
H1089 H 0.70045 0.18687 0.25327 0.0
H1090 H 0.68924 0.19328 0.28475 0.0
H1091 H 0.7751 0.28074 0.21528 0.0
H1092 H 0.71317 0.23221 0.34288 0.0
H1093 H 0.74173 0.25314 0.35364 0.0
H1094 H 0.8467 0.35039 0.26056 0.0
H1095 H 0.69387 0.20984 0.31727 0.0
H1096 H 0.8234 0.31116 0.2024 0.0
H1097 H 0.79619 0.28794 0.19246 0.0
N1098 N 0.79096 0.29822 0.23902 0.0
C1099 C 0.80543 0.31177 0.24454 0.0
C1100 C 0.78731 0.29014 0.22038 0.0
C1101 C 0.81438 0.30771 0.21278 0.0
C1102 C 0.79909 0.29452 0.20714 0.0
C1103 C 0.8176 0.3167 0.23154 0.0
H1104 H 0.84191 0.3345 0.2277 0.0
N1105 N 0.79636 0.31602 0.27571 0.0
C1106 C 0.80805 0.32105 0.26318 0.0
C1107 C 0.82543 0.3437 0.28801 0.0
C1108 C 0.82299 0.33503 0.26912 0.0
C1109 C 0.79845 0.32464 0.29397 0.0
C1110 C 0.8131 0.3385 0.30047 0.0
O1111 O 0.74299 0.24987 0.2658 0.0
O1112 O 0.74537 0.28052 0.27133 0.0
O1113 O 0.7639 0.31954 0.26865 0.0
O1114 O 0.75759 0.30414 0.2397 0.0
O1115 O 0.77898 0.2515 0.25779 0.0
O1116 O 0.76334 0.26897 0.24177 0.0
O1117 O 0.79872 0.28789 0.27482 0.0
O1118 O 0.79567 0.26019 0.28691 0.0
O1119 O 0.77779 0.22056 0.2765 0.0
O1120 O 0.77553 0.22955 0.30658 0.0
O1121 O 0.7617 0.28638 0.28939 0.0
O1122 O 0.77688 0.26943 0.30591 0.0
C1123 C 0.7358 0.26418 0.26555 0.0
C1124 C 0.76954 0.25432 0.24241 0.0
C1125 C 0.74765 0.33227 0.24367 0.0
C1126 C 0.73422 0.35828 0.24894 0.0
C1127 C 0.7346 0.3445 0.21643 0.0
C1128 C 0.74335 0.33188 0.2237 0.0
C1129 C 0.73006 0.35765 0.22896 0.0
C1130 C 0.74301 0.34556 0.25635 0.0
C1131 C 0.75647 0.31845 0.25093 0.0
C1132 C 0.83514 0.33972 0.25621 0.0
C1133 C 0.83245 0.33061 0.23751 0.0
H1134 H 0.83678 0.35445 0.29312 0.0
C1135 C 0.80539 0.27524 0.28288 0.0
C1136 C 0.77159 0.28449 0.30472 0.0
C1137 C 0.78705 0.20269 0.30136 0.0
C1138 C 0.80369 0.17909 0.29712 0.0
C1139 C 0.7935 0.18593 0.32784 0.0
C1140 C 0.78585 0.19925 0.32048 0.0
C1141 C 0.80249 0.17596 0.31627 0.0
C1142 C 0.79583 0.19236 0.28957 0.0
C1143 C 0.78012 0.21782 0.29449 0.0
H1144 H 0.73129 0.34406 0.20104 0.0
H1145 H 0.74673 0.32178 0.21364 0.0
H1146 H 0.7232 0.36733 0.22307 0.0
H1147 H 0.74613 0.34601 0.27179 0.0
H1148 H 0.79264 0.18348 0.34261 0.0
H1149 H 0.77917 0.20701 0.32988 0.0
H1150 H 0.8086 0.16582 0.32228 0.0
H1151 H 0.79708 0.195 0.27489 0.0
C1152 C 0.0581 0.49256 0.57016 0.0
C1153 C 0.07132 0.51616 0.59631 0.0
C1154 C 0.05818 0.50902 0.58058 0.0
C1155 C 0.08448 0.50662 0.6013 0.0
C1156 C 0.07104 0.48273 0.57546 0.0
C1157 C 0.08432 0.48994 0.59093 0.0
N1158 N 0.04535 0.48613 0.55493 0.0
C1159 C 0.044 0.46933 0.54541 0.0
C1160 C 0.0702 0.4659 0.56513 0.0
C1161 C 0.05648 0.45907 0.55022 0.0
Gd1162 Gd 0.02623 0.5336 0.49601 0.0
Gd1163 Gd 0.02594 0.50519 0.54711 0.0
N1164 N 0.04563 0.51826 0.57495 0.0
C1165 C 0.07088 0.53273 0.60652 0.0
C1166 C 0.04467 0.534 0.58543 0.0
C1167 C 0.05736 0.54156 0.6012 0.0
H1168 H 0.03412 0.54081 0.58183 0.0
H1169 H 0.0567 0.55419 0.60926 0.0
H1170 H 0.02014 0.50032 0.45786 0.0
H1171 H 0.0332 0.46358 0.53423 0.0
H1172 H 0.99621 0.48532 0.43246 0.0
H1173 H 0.08077 0.53868 0.61867 0.0
H1174 H 0.09478 0.51198 0.61323 0.0
H1175 H 0.01891 0.57446 0.50817 0.0
H1176 H 0.07988 0.45793 0.56876 0.0
H1177 H 0.05545 0.44586 0.54246 0.0
H1178 H 0.95402 0.52342 0.43366 0.0
H1179 H 0.09447 0.48266 0.59506 0.0
H1180 H 0.97021 0.57879 0.47628 0.0
H1181 H 0.99593 0.59185 0.50087 0.0
N1182 N 0.00645 0.55196 0.48774 0.0
C1183 C 0.99282 0.54486 0.47374 0.0
C1184 C 0.00784 0.56872 0.49728 0.0
C1185 C 0.98034 0.57118 0.47931 0.0
C1186 C 0.99484 0.5786 0.49319 0.0
C1187 C 0.97922 0.55412 0.46931 0.0
H1188 H 0.95434 0.55288 0.45163 0.0
N1189 N 0.00647 0.52035 0.46796 0.0
C1190 C 0.99268 0.52836 0.46371 0.0
C1191 C 0.9799 0.50453 0.43795 0.0
C1192 C 0.97889 0.52058 0.4488 0.0
C1193 C 0.00833 0.50568 0.45615 0.0
C1194 C 0.9949 0.49729 0.44134 0.0
O1195 O 0.05342 0.51981 0.5454 0.0
O1196 O 0.03685 0.52282 0.52037 0.0
O1197 O 0.04738 0.53276 0.47896 0.0
O1198 O 0.04448 0.55832 0.49297 0.0
O1199 O 0.01984 0.53381 0.54946 0.0
O1200 O 0.03029 0.5512 0.52531 0.0
O1201 O 0.00081 0.52824 0.50793 0.0
O1202 O 0.00712 0.50365 0.51995 0.0
O1203 O 0.00547 0.50634 0.56544 0.0
O1204 O 0.01169 0.48073 0.55579 0.0
O1205 O 0.02859 0.50393 0.49105 0.0
O1206 O 0.02715 0.48815 0.5184 0.0
C1207 C 0.05261 0.52612 0.52933 0.0
C1208 C 0.02438 0.54933 0.54226 0.0
C1209 C 0.05581 0.55783 0.46292 0.0
C1210 C 0.06301 0.55395 0.43024 0.0
C1211 C 0.05801 0.58271 0.44391 0.0
C1212 C 0.05496 0.57577 0.46111 0.0
C1213 C 0.06191 0.57184 0.42847 0.0
C1214 C 0.06016 0.54711 0.44751 0.0
C1215 C 0.05266 0.55013 0.48081 0.0
C1216 C 0.96485 0.52932 0.44487 0.0
C1217 C 0.96505 0.5461 0.45506 0.0
H1218 H 0.96954 0.49804 0.42645 0.0
C1219 C 0.99619 0.51442 0.51713 0.0
C1220 C 0.02867 0.48926 0.49982 0.0
C1221 C 0.00185 0.48409 0.58627 0.0
C1222 C 0.98964 0.48747 0.61623 0.0
C1223 C 0.00891 0.46647 0.61171 0.0
C1224 C 0.01069 0.47119 0.59326 0.0
C1225 C -0.00151 0.47468 0.62327 0.0
C1226 C 0.9912 0.492 0.59776 0.0
C1227 C 0.0029 0.48921 0.56692 0.0
H1228 H 0.05742 0.59656 0.44256 0.0
H1229 H 0.05196 0.58442 0.47292 0.0
H1230 H 0.06442 0.57748 0.41529 0.0
H1231 H 0.06121 0.53333 0.4488 0.0
H1232 H 0.01559 0.45646 0.61705 0.0
H1233 H 0.01887 0.46472 0.58453 0.0
H1234 H 0.99715 0.47093 0.63755 0.0
H1235 H 0.98418 0.50183 0.59241 0.0
C1236 C 0.7285 0.79026 0.22563 0.0
C1237 C 0.70988 0.76259 0.20893 0.0
C1238 C 0.72171 0.77195 0.22495 0.0
C1239 C 0.70516 0.77181 0.19357 0.0
C1240 C 0.72381 0.79954 0.21021 0.0
C1241 C 0.71214 0.79021 0.19418 0.0
N1242 N 0.73992 0.79891 0.24123 0.0
C1243 C 0.74663 0.81692 0.24264 0.0
C1244 C 0.73102 0.81793 0.21135 0.0
C1245 C 0.74242 0.82667 0.22769 0.0
Gd1246 Gd 0.79329 0.76512 0.27097 0.0
Gd1247 Gd 0.74585 0.78131 0.26551 0.0
N1248 N 0.72703 0.76323 0.23972 0.0
C1249 C 0.70319 0.74422 0.20883 0.0
C1250 C 0.71993 0.74556 0.2401 0.0
C1251 C 0.7081 0.73572 0.22457 0.0
H1252 H 0.72296 0.73916 0.25255 0.0
H1253 H 0.70262 0.72163 0.22486 0.0
H1254 H 0.81446 0.80795 0.28528 0.0
H1255 H 0.75486 0.82391 0.2555 0.0
H1256 H 0.83423 0.82528 0.31332 0.0
H1257 H 0.69403 0.73655 0.19682 0.0
H1258 H 0.69615 0.76481 0.18111 0.0
H1259 H 0.7845 0.72229 0.28009 0.0
H1260 H 0.72777 0.82553 0.1998 0.0
H1261 H 0.74783 0.84094 0.22885 0.0
H1262 H 0.84228 0.78127 0.35551 0.0
H1263 H 0.70841 0.79711 0.1822 0.0
H1264 H 0.8125 0.72016 0.33525 0.0
H1265 H 0.79243 0.70489 0.30614 0.0
N1266 N 0.79922 0.74726 0.2948 0.0
C1267 C 0.81034 0.75596 0.31061 0.0
C1268 C 0.79284 0.72917 0.29299 0.0
C1269 C 0.80885 0.72792 0.324 0.0
C1270 C 0.79748 0.71924 0.3076 0.0
C1271 C 0.81547 0.74648 0.32565 0.0
H1272 H 0.83114 0.74868 0.35347 0.0
N1273 N 0.81101 0.7834 0.29732 0.0
C1274 C 0.81652 0.77449 0.31185 0.0
C1275 C 0.83431 0.80232 0.32865 0.0
C1276 C 0.82814 0.78379 0.32803 0.0
C1277 C 0.81761 0.80127 0.29745 0.0
C1278 C 0.82913 0.81106 0.31322 0.0
O1279 O 0.75731 0.7742 0.23784 0.0
O1280 O 0.77311 0.7529 0.2456 0.0
O1281 O 0.81542 0.77368 0.25445 0.0
O1282 O 0.81148 0.74785 0.26514 0.0
O1283 O 0.74759 0.75588 0.27916 0.0
O1284 O 0.76853 0.74346 0.26444 0.0
O1285 O 0.78137 0.77178 0.29841 0.0
O1286 O 0.76599 0.79354 0.29107 0.0
O1287 O 0.72272 0.77345 0.28106 0.0
O1288 O 0.7302 0.80054 0.27326 0.0
O1289 O 0.79137 0.79024 0.25723 0.0
O1290 O 0.7706 0.80301 0.2716 0.0
C1291 C 0.76618 0.76179 0.2329 0.0
C1292 C 0.75487 0.74218 0.27417 0.0
C1293 C 0.83164 0.75167 0.24164 0.0
C1294 C 0.8583 0.75464 0.22523 0.0
C1295 C 0.83943 0.72531 0.2251 0.0
C1296 C 0.82807 0.73303 0.23573 0.0
C1297 C 0.85446 0.73596 0.22003 0.0
C1298 C 0.84681 0.76253 0.23607 0.0
C1299 C 0.82143 0.75908 0.25618 0.0
C1300 C 0.83334 0.77434 0.34297 0.0
C1301 C 0.82701 0.75576 0.3418 0.0
H1302 H 0.84331 0.80994 0.3408 0.0
C1303 C 0.77337 0.78481 0.30361 0.0
C1304 C 0.78455 0.80417 0.26236 0.0
C1305 C 0.70393 0.79536 0.28914 0.0
C1306 C 0.67797 0.79095 0.30648 0.0
C1307 C 0.68657 0.81853 0.29247 0.0
C1308 C 0.70075 0.81235 0.28574 0.0
C1309 C 0.67527 0.80795 0.30275 0.0
C1310 C 0.69237 0.78456 0.29963 0.0
C1311 C 0.71907 0.7894 0.28102 0.0
H1312 H 0.83674 0.7109 0.22106 0.0
H1313 H 0.8168 0.72427 0.23989 0.0
H1314 H 0.8632 0.72959 0.212 0.0
H1315 H 0.85 0.77686 0.24076 0.0
H1316 H 0.68432 0.83162 0.2897 0.0
H1317 H 0.70918 0.82094 0.27769 0.0
H1318 H 0.66436 0.81309 0.30791 0.0
H1319 H 0.69454 0.77145 0.30246 0.0
C1320 C 0.79813 0.23452 0.71823 0.0
C1321 C 0.77518 0.22163 0.69166 0.0
C1322 C 0.78226 0.23491 0.70743 0.0
C1323 C 0.78408 0.20773 0.68721 0.0
C1324 C 0.80735 0.22086 0.7135 0.0
C1325 C 0.80015 0.20737 0.69807 0.0
N1326 N 0.80443 0.24741 0.73352 0.0
C1327 C 0.8205 0.24812 0.74379 0.0
C1328 C 0.82354 0.22118 0.72443 0.0
C1329 C 0.83023 0.235 0.73947 0.0
Gd1330 Gd 0.75896 0.26728 0.7922 0.0
Gd1331 Gd 0.78635 0.26794 0.74063 0.0
N1332 N 0.77369 0.24825 0.71249 0.0
C1333 C 0.75942 0.2228 0.68076 0.0
C1334 C 0.75907 0.25018 0.70106 0.0
C1335 C 0.75151 0.23733 0.68527 0.0
H1336 H 0.75326 0.26171 0.70385 0.0
H1337 H 0.73965 0.2387 0.67653 0.0
H1338 H 0.7965 0.27566 0.82542 0.0
H1339 H 0.82601 0.25889 0.75519 0.0
H1340 H 0.81232 0.29982 0.85001 0.0
H1341 H 0.7535 0.21283 0.66857 0.0
H1342 H 0.77875 0.1973 0.67527 0.0
H1343 H 0.7188 0.27528 0.78306 0.0
H1344 H 0.83106 0.21097 0.72122 0.0
H1345 H 0.84291 0.23557 0.74776 0.0
H1346 H 0.77269 0.34016 0.85607 0.0
H1347 H 0.80695 0.19666 0.69436 0.0
H1348 H 0.7159 0.32365 0.81786 0.0
H1349 H 0.702 0.2982 0.79288 0.0
N1350 N 0.74182 0.28751 0.80245 0.0
C1351 C 0.74953 0.30108 0.81647 0.0
C1352 C 0.72492 0.28625 0.7941 0.0
C1353 C 0.72326 0.31354 0.81372 0.0
C1354 C 0.71537 0.2992 0.79962 0.0
C1355 C 0.74055 0.31462 0.82235 0.0
H1356 H 0.74247 0.33941 0.84113 0.0
N1357 N 0.77462 0.28802 0.8188 0.0
C1358 C 0.76653 0.30147 0.82476 0.0
C1359 C 0.79188 0.31509 0.84812 0.0
C1360 C 0.77501 0.31547 0.83938 0.0
C1361 C 0.79057 0.287 0.82835 0.0
C1362 C 0.79955 0.30061 0.84281 0.0
O1363 O 0.77538 0.23953 0.74486 0.0
O1364 O 0.76759 0.25691 0.7664 0.0
O1365 O 0.75924 0.24512 0.80874 0.0
O1366 O 0.73426 0.25049 0.79705 0.0
O1367 O 0.75752 0.27233 0.73752 0.0
O1368 O 0.74121 0.26476 0.76346 0.0
O1369 O 0.76348 0.29319 0.78041 0.0
O1370 O 0.78711 0.28658 0.76789 0.0
O1371 O 0.78561 0.28856 0.72179 0.0
O1372 O 0.81063 0.28244 0.73262 0.0
O1373 O 0.78669 0.26059 0.79499 0.0
O1374 O 0.80322 0.2702 0.77016 0.0
C1375 C 0.7671 0.24066 0.75946 0.0
C1376 C 0.74267 0.26929 0.74577 0.0
C1377 C 0.73654 0.24096 0.82808 0.0
C1378 C 0.74231 0.23375 0.86067 0.0
C1379 C 0.71766 0.24777 0.85188 0.0
C1380 C 0.72198 0.24789 0.83314 0.0
C1381 C 0.72781 0.24082 0.86564 0.0
C1382 C 0.74647 0.23374 0.84186 0.0
C1383 C 0.74223 0.24179 0.80892 0.0
C1384 C 0.76631 0.32924 0.845 0.0
C1385 C 0.74909 0.32879 0.83654 0.0
H1386 H 0.79885 0.32559 0.85936 0.0
C1387 C 0.77656 0.29772 0.77055 0.0
C1388 C 0.80171 0.26419 0.7872 0.0
C1389 C 0.80901 0.29359 0.70253 0.0
C1390 C 0.80502 0.30273 0.6706 0.0
C1391 C 0.8333 0.29691 0.68334 0.0
C1392 C 0.82661 0.29289 0.70032 0.0
C1393 C 0.8226 0.30186 0.66854 0.0
C1394 C 0.79826 0.29846 0.68755 0.0
C1395 C 0.80261 0.29148 0.72119 0.0
H1396 H 0.70641 0.25306 0.85575 0.0
H1397 H 0.71406 0.25353 0.82275 0.0
H1398 H 0.72408 0.2406 0.88002 0.0
H1399 H 0.7577 0.22833 0.83801 0.0
H1400 H 0.84694 0.29663 0.68184 0.0
H1401 H 0.83534 0.28967 0.71188 0.0
H1402 H 0.82827 0.30562 0.65578 0.0
H1403 H 0.78479 0.29946 0.68924 0.0
C1404 C 0.82003 0.81353 0.80862 0.0
C1405 C 0.83558 0.83225 0.78739 0.0
C1406 C 0.82035 0.82047 0.79115 0.0
C1407 C 0.85043 0.83706 0.80147 0.0
C1408 C 0.83483 0.8186 0.82291 0.0
C1409 C 0.85003 0.83033 0.81922 0.0
N1410 N 0.80513 0.80221 0.8118 0.0
C1411 C 0.80393 0.79608 0.82926 0.0
C1412 C 0.83382 0.81197 0.84065 0.0
C1413 C 0.81827 0.80075 0.84386 0.0
Gd1414 Gd 0.76284 0.74901 0.75707 0.0
Gd1415 Gd 0.78131 0.79693 0.78702 0.0
N1416 N 0.80573 0.81571 0.77784 0.0
C1417 C 0.83536 0.83902 0.76966 0.0
C1418 C 0.80518 0.82293 0.76092 0.0
C1419 C 0.82004 0.83441 0.75641 0.0
H1420 H 0.79324 0.8202 0.75101 0.0
H1421 H 0.81958 0.83992 0.74285 0.0
H1422 H 0.75246 0.72912 0.79678 0.0
H1423 H 0.79173 0.78816 0.83228 0.0
H1424 H 0.7259 0.71397 0.80883 0.0
H1425 H 0.84681 0.84806 0.76619 0.0
H1426 H 0.86223 0.84614 0.79886 0.0
H1427 H 0.74938 0.75953 0.71385 0.0
H1428 H 0.84486 0.81568 0.85205 0.0
H1429 H 0.81723 0.79591 0.85769 0.0
H1430 H 0.67973 0.71028 0.757 0.0
H1431 H 0.86151 0.83436 0.83004 0.0
H1432 H 0.69428 0.7364 0.70036 0.0
H1433 H 0.7219 0.75337 0.69114 0.0
N1434 N 0.73719 0.74727 0.7361 0.0
C1435 C 0.72228 0.73757 0.7414 0.0
C1436 C 0.73726 0.75283 0.71832 0.0
C1437 C 0.70624 0.73942 0.71055 0.0
C1438 C 0.72177 0.74908 0.70531 0.0
C1439 C 0.70633 0.73355 0.72876 0.0
H1440 H 0.67873 0.72033 0.72494 0.0
N1441 N 0.73872 0.735 0.77126 0.0
C1442 C 0.72298 0.73161 0.75955 0.0
C1443 C 0.70858 0.7159 0.78352 0.0
C1444 C 0.70754 0.72184 0.76537 0.0
C1445 C 0.73992 0.72827 0.78845 0.0
C1446 C 0.72485 0.71908 0.79506 0.0
O1447 O 0.80358 0.7855 0.77446 0.0
O1448 O 0.79293 0.7555 0.76175 0.0
O1449 O 0.75939 0.72016 0.75314 0.0
O1450 O 0.76641 0.7352 0.72974 0.0
O1451 O 0.76879 0.79578 0.75614 0.0
O1452 O 0.77567 0.77055 0.74087 0.0
O1453 O 0.74378 0.76816 0.76186 0.0
O1454 O 0.75519 0.78017 0.79219 0.0
O1455 O 0.76835 0.81923 0.78299 0.0
O1456 O 0.77855 0.81473 0.81168 0.0
O1457 O 0.77779 0.7481 0.78653 0.0
O1458 O 0.77234 0.7735 0.80257 0.0
C1459 C 0.80595 0.76977 0.76659 0.0
C1460 C 0.77242 0.78669 0.74069 0.0
C1461 C 0.77878 0.70984 0.73328 0.0
C1462 C 0.79733 0.69013 0.74491 0.0
C1463 C 0.80149 0.70217 0.71482 0.0
C1464 C 0.78767 0.71114 0.71697 0.0
C1465 C 0.80639 0.69172 0.72878 0.0
C1466 C 0.78367 0.69923 0.74711 0.0
C1467 C 0.76467 0.7197 0.73618 0.0
C1468 C 0.69164 0.71793 0.75281 0.0
C1469 C 0.69107 0.72366 0.73453 0.0
H1470 H 0.697 0.70842 0.78853 0.0
C1471 C 0.74148 0.77549 0.77886 0.0
C1472 C 0.77809 0.75856 0.80266 0.0
C1473 C 0.77519 0.84419 0.80778 0.0
C1474 C 0.76828 0.87317 0.80408 0.0
C1475 C 0.78563 0.86918 0.83328 0.0
C1476 C 0.78453 0.85122 0.82609 0.0
C1477 C 0.77732 0.88013 0.82238 0.0
C1478 C 0.76733 0.85536 0.79676 0.0
C1479 C 0.77079 0.82484 0.80145 0.0
H1480 H 0.80833 0.70322 0.70226 0.0
H1481 H 0.78402 0.71917 0.706 0.0
H1482 H 0.81688 0.68453 0.72674 0.0
H1483 H 0.77689 0.69799 0.75974 0.0
H1484 H 0.7925 0.87446 0.8475 0.0
H1485 H 0.79042 0.84275 0.83513 0.0
H1486 H 0.77774 0.89389 0.82826 0.0
H1487 H 0.75959 0.84999 0.78291 0.0
C1488 C 0.47955 0.46812 0.4811 0.0
C1489 C 0.46325 0.4524 0.504 0.0
C1490 C 0.47368 0.46813 0.49911 0.0
C1491 C 0.45901 0.43671 0.49073 0.0
C1492 C 0.47522 0.4524 0.46772 0.0
C1493 C 0.46496 0.43671 0.47266 0.0
N1494 N 0.48942 0.48351 0.47665 0.0
C1495 C 0.495 0.4842 0.45896 0.0
C1496 C 0.48116 0.45295 0.44968 0.0
C1497 C 0.49105 0.46894 0.44527 0.0
Gd1498 Gd 0.54009 0.52682 0.52964 0.0
Gd1499 Gd 0.49367 0.50864 0.49999 0.0
N1500 N 0.47795 0.48354 0.5117 0.0
C1501 C 0.45708 0.45301 0.52195 0.0
C1502 C 0.47106 0.48444 0.52868 0.0
C1503 C 0.46087 0.46915 0.53426 0.0
H1504 H 0.47274 0.49703 0.53764 0.0
H1505 H 0.45559 0.46994 0.54787 0.0
H1506 H 0.56004 0.53821 0.49095 0.0
H1507 H 0.50188 0.49668 0.45506 0.0
H1508 H 0.57703 0.56498 0.48028 0.0
H1509 H 0.44899 0.44123 0.52622 0.0
H1510 H 0.45098 0.42453 0.49425 0.0
H1511 H 0.53306 0.53912 0.57481 0.0
H1512 H 0.47802 0.44117 0.43898 0.0
H1513 H 0.49541 0.46959 0.43122 0.0
H1514 H 0.58521 0.61 0.53485 0.0
H1515 H 0.46146 0.42453 0.46253 0.0
H1516 H 0.56002 0.59376 0.5913 0.0
H1517 H 0.54162 0.5659 0.59913 0.0
N1518 N 0.54579 0.55191 0.55313 0.0
C1519 C 0.55597 0.56705 0.54853 0.0
C1520 C 0.54056 0.55137 0.571 0.0
C1521 C 0.55604 0.58213 0.58044 0.0
C1522 C 0.5456 0.56645 0.5849 0.0
C1523 C 0.56132 0.5826 0.56208 0.0
H1524 H 0.57617 0.61008 0.56725 0.0
N1525 N 0.55607 0.55165 0.51752 0.0
C1526 C 0.56114 0.56696 0.5302 0.0
C1527 C 0.57707 0.58186 0.50671 0.0
C1528 C 0.57174 0.58249 0.52508 0.0
C1529 C 0.56222 0.55069 0.5001 0.0
C1530 C 0.5724 0.56583 0.49424 0.0
O1531 O 0.50953 0.487 0.50681 0.0
O1532 O 0.52546 0.4998 0.53563 0.0
O1533 O 0.56371 0.51674 0.52564 0.0
O1534 O 0.55839 0.52576 0.55476 0.0
O1535 O 0.49415 0.52315 0.53015 0.0
O1536 O 0.51853 0.51643 0.54654 0.0
O1537 O 0.52465 0.54877 0.52332 0.0
O1538 O 0.50733 0.53661 0.49481 0.0
O1539 O 0.46923 0.51718 0.5033 0.0
O1540 O 0.47549 0.50893 0.4744 0.0
O1541 O 0.53909 0.51237 0.49936 0.0
O1542 O 0.51503 0.5199 0.48346 0.0
C1543 C 0.51894 0.48553 0.52307 0.0
C1544 C 0.50343 0.52143 0.54633 0.0
C1545 C 0.58489 0.51434 0.55248 0.0
C1546 C 0.61245 0.50589 0.54753 0.0
C1547 C 0.60329 0.50714 0.57938 0.0
C1548 C 0.5879 0.51232 0.57209 0.0
C1549 C 0.61561 0.50393 0.56713 0.0
C1550 C 0.5972 0.51115 0.54035 0.0
C1551 C 0.56866 0.51886 0.5442 0.0
C1552 C 0.577 0.59801 0.53853 0.0
C1553 C 0.57187 0.59804 0.55699 0.0
H1554 H 0.58519 0.5935 0.50223 0.0
C1555 C 0.51508 0.55069 0.50734 0.0
C1556 C 0.53007 0.51484 0.48334 0.0
C1557 C 0.44789 0.51857 0.47623 0.0
C1558 C 0.42268 0.53179 0.48058 0.0
C1559 C 0.428 0.52174 0.44841 0.0
C1560 C 0.44304 0.51621 0.45618 0.0
C1561 C 0.41791 0.52974 0.46058 0.0
C1562 C 0.43748 0.52608 0.48833 0.0
C1563 C 0.46452 0.51492 0.4847 0.0
H1564 H 0.60557 0.50541 0.59444 0.0
H1565 H 0.5783 0.5145 0.58166 0.0
H1566 H 0.62736 0.4996 0.57281 0.0
H1567 H 0.59492 0.51268 0.52518 0.0
H1568 H 0.42432 0.52008 0.43297 0.0
H1569 H 0.45101 0.51047 0.44656 0.0
H1570 H 0.40639 0.53421 0.45447 0.0
H1571 H 0.44121 0.52817 0.50382 0.0
C1572 C 0.06521 0.55782 0.98554 0.0
C1573 C 0.08803 0.57727 0.00901 0.0
C1574 C 0.07498 0.56137 0.00386 0.0
C1575 C 0.0908 0.58981 0.99585 0.0
C1576 C 0.06853 0.57018 0.97211 0.0
C1577 C 0.08106 0.58629 0.97749 0.0
N1578 N 0.0531 0.54208 0.98058 0.0
C1579 C 0.04542 0.53716 0.96189 0.0
C1580 C 0.05948 0.56581 0.95344 0.0
C1581 C 0.04816 0.54909 0.94823 0.0
Gd1582 Gd 0.99797 0.51957 0.02929 0.0
Gd1583 Gd 0.04891 0.52457 0.00602 0.0
N1584 N 0.07181 0.54932 0.01665 0.0
C1585 C 0.09791 0.58015 0.02729 0.0
C1586 C 0.08185 0.55168 0.03417 0.0
C1587 C 0.09493 0.5672 0.03983 0.0
H1588 H 0.07991 0.54155 0.04369 0.0
H1589 H 0.10275 0.56913 0.05384 0.0
H1590 H 0.97139 0.50504 0.98798 0.0
H1591 H 0.03733 0.52398 0.95718 0.0
H1592 H 0.95026 0.47748 0.97278 0.0
H1593 H 0.10802 0.5922 0.03176 0.0
H1594 H 0.1006 0.60218 -0.00034 0.0
H1595 H 0.00367 0.51541 0.07774 0.0
H1596 H 0.06165 0.57497 0.94276 0.0
H1597 H 0.04169 0.54529 0.93358 0.0
H1598 H 0.94751 0.43865 0.02216 0.0
H1599 H 0.08359 0.59598 0.9674 0.0
H1600 H 0.97866 0.46216 0.0845 0.0
H1601 H 0.99659 0.4919 0.09832 0.0
N1602 N 0.99197 0.49863 0.05146 0.0
C1603 C 0.98077 0.48287 0.04386 0.0
C1604 C 0.99681 0.50223 0.071 0.0
C1605 C 0.98222 0.47229 0.07512 0.0
C1606 C 0.99241 0.48902 0.08296 0.0
C1607 C 0.97587 0.46918 0.05547 0.0
H1608 H 0.96046 0.44245 0.05607 0.0
N1609 N 0.9772 0.49448 0.014 0.0
C1610 C 0.97308 0.4808 0.02473 0.0
C1611 C 0.95285 0.46365 -0.00224 0.0
C1612 C 0.96087 0.46492 0.01677 0.0
C1613 C 0.96878 0.49369 0.99583 0.0
C1614 C 0.95668 0.47818 0.98733 0.0
O1615 O 0.04436 0.55145 0.02121 0.0
O1616 O 0.01545 0.54771 0.03018 0.0
O1617 O 0.9746 0.53065 0.01971 0.0
O1618 O 0.98461 0.53156 0.05021 0.0
O1619 O 0.03197 0.5209 0.02815 0.0
O1620 O 0.02003 0.52438 0.05368 0.0
O1621 O 0.00432 0.49479 0.01136 0.0
O1622 O 0.03487 0.49851 0.0163 0.0
O1623 O 0.07173 0.51404 0.01645 0.0
O1624 O 0.05792 0.50543 0.98719 0.0
O1625 O 0.00821 0.5313 0.00341 0.0
O1626 O 0.02484 0.51715 0.98483 0.0
C1627 C 0.03098 0.5578 0.02794 0.0
C1628 C 0.03442 0.52378 0.04668 0.0
C1629 C 0.96038 0.54606 0.04445 0.0
C1630 C 0.93491 0.55968 0.03881 0.0
C1631 C 0.95095 0.56336 0.07089 0.0
C1632 C 0.9625 0.55319 0.06402 0.0
C1633 C 0.93719 0.56657 0.05837 0.0
C1634 C 0.94656 0.54947 0.03176 0.0
C1635 C 0.97324 0.5359 0.03762 0.0
C1636 C 0.95677 0.45098 0.02807 0.0
C1637 C 0.9642 0.45312 0.04737 0.0
H1638 H 0.94342 0.45166 0.99115 0.0
C1639 C 0.01897 0.48842 0.00992 0.0
C1640 C 0.00985 0.52181 0.98736 0.0
C1641 C 0.08794 0.50394 0.99223 0.0
C1642 C 0.11417 0.49126 0.99285 0.0
C1643 C 0.10629 0.50748 0.96652 0.0
C1644 C 0.09154 0.51065 0.97489 0.0
C1645 C 0.11751 0.49767 0.97537 0.0
C1646 C 0.09945 0.49447 0.00129 0.0
C1647 C 0.07124 0.5045 -0.00022 0.0
H1648 H 0.95271 0.56879 0.08594 0.0
H1649 H 0.97318 0.55103 0.0741 0.0
H1650 H 0.92829 0.57451 0.06393 0.0
H1651 H 0.94482 0.54423 0.01662 0.0
H1652 H 0.10886 0.51234 0.95298 0.0
H1653 H 0.08271 0.51787 0.96755 0.0
H1654 H 0.12872 0.49497 0.96855 0.0
H1655 H 0.09657 0.48896 0.01448 0.0
C1656 C 0.99317 0.20543 0.9796 0.0
C1657 C 0.99676 0.21075 0.96159 0.0
C1658 C 0.99496 0.18839 0.98453 0.0
C1659 C 0.01341 0.14722 0.96885 0.0
H1660 H 0.98523 0.12642 0.0062 0.0
C1661 C 0.02374 0.08026 -0.00232 0.0
C1662 C 0.00946 0.06847 0.00341 0.0
C1663 C 0.02223 0.09733 0.99269 0.0
C1664 C 0.99312 0.13177 0.99556 0.0
H1665 H 0.00521 0.20169 0.93465 0.0
H1666 H 0.00784 0.17194 0.94285 0.0
H1667 H 0.98225 0.15545 -0.00306 0.0
H1668 H 0.98207 0.06588 0.00793 0.0
H1669 H 0.97923 0.09535 -0.00108 0.0
H1670 H 0.0237 0.12312 0.9669 0.0
C1671 C 0.00394 0.18107 0.95353 0.0
C1672 C 0.99164 0.14884 0.9904 0.0
C1673 C 0.00229 0.19826 0.94866 0.0
C1674 C 0.99346 0.07445 0.00375 0.0
C1675 C 0.9919 0.09158 -0.00133 0.0
C1676 C 0.01477 0.13006 0.97389 0.0
C1677 C 0.00025 0.17568 0.97159 0.0
C1678 C 0.00178 0.15707 0.97696 0.0
C1679 C 0.00626 0.10344 0.99299 0.0
C1680 C 0.00468 0.12192 0.98741 0.0
H1681 H 0.98901 0.21453 0.99013 0.0
H1682 H 0.99236 0.18539 -0.00125 0.0
H1683 H 0.02173 0.15279 0.95868 0.0
H1684 H 0.03623 0.07628 -0.00318 0.0
H1685 H 0.0338 0.10581 0.98877 0.0
C1686 C 0.10679 0.76581 0.13607 0.0
C1687 C 0.09711 0.77945 0.13872 0.0
C1688 C 0.12216 0.76577 0.14839 0.0
C1689 C 0.15828 0.79422 0.18366 0.0
H1690 H 0.16478 0.74824 0.19836 0.0
C1691 C 0.21913 0.78735 0.23718 0.0
C1692 C 0.22611 0.77182 0.23409 0.0
C1693 C 0.20336 0.78895 0.22629 0.0
C1694 C 0.16344 0.7612 0.19424 0.0
H1695 H 0.09659 0.80409 0.15661 0.0
H1696 H 0.12374 0.80416 0.17814 0.0
H1697 H 0.13785 0.75014 0.17851 0.0
H1698 H 0.22186 0.74567 0.21743 0.0
H1699 H 0.19477 0.7485 0.19809 0.0
H1700 H 0.18405 0.80524 0.19918 0.0
C1701 C 0.11923 0.79339 0.16639 0.0
C1702 C 0.14783 0.76231 0.18283 0.0
C1703 C 0.10359 0.79332 0.15407 0.0
C1704 C 0.21691 0.75787 0.21999 0.0
C1705 C 0.2012 0.75947 0.20905 0.0
C1706 C 0.17402 0.79311 0.19502 0.0
C1707 C 0.12864 0.77945 0.16385 0.0
C1708 C 0.14502 0.77877 0.17713 0.0
C1709 C 0.19405 0.77502 0.21201 0.0
C1710 C 0.17698 0.77651 0.20036 0.0
H1711 H 0.10241 0.75487 0.12446 0.0
H1712 H 0.12909 0.75497 0.14564 0.0
H1713 H 0.15675 0.80713 0.17951 0.0
H1714 H 0.22587 0.79824 0.24811 0.0
H1715 H 0.19833 0.80103 0.22935 0.0
C1716 C 0.51244 0.82258 0.46634 0.0
C1717 C 0.49675 0.81429 0.45416 0.0
C1718 C 0.516 0.84126 0.47302 0.0
C1719 C 0.50245 0.88397 0.46078 0.0
H1720 H 0.52389 0.90433 0.51249 0.0
C1721 C 0.50227 0.95793 0.49026 0.0
C1722 C 0.51747 0.96833 0.50175 0.0
C1723 C 0.50057 0.93933 0.48508 0.0
C1724 C 0.51803 0.89894 0.49791 0.0
H1725 H 0.47251 0.81965 0.4399 0.0
H1726 H 0.4786 0.85137 0.45127 0.0
H1727 H 0.51999 0.87194 0.50259 0.0
H1728 H 0.54279 0.96684 0.51687 0.0
H1729 H 0.53981 0.93448 0.50795 0.0
H1730 H 0.50034 0.91078 0.45604 0.0
C1731 C 0.48837 0.84373 0.4556 0.0
C1732 C 0.51581 0.88026 0.4922 0.0
C1733 C 0.48478 0.82526 0.44916 0.0
C1734 C 0.53087 0.9594 0.50799 0.0
C1735 C 0.52911 0.94072 0.50297 0.0
C1736 C 0.50459 0.90253 0.46648 0.0
C1737 C 0.50409 0.85223 0.46748 0.0
C1738 C 0.50774 0.87238 0.47357 0.0
C1739 C 0.51398 0.93034 0.49127 0.0
C1740 C 0.51223 0.91039 0.48521 0.0
H1741 H 0.52201 0.8147 0.4706 0.0
H1742 H 0.52827 0.84717 0.48214 0.0
H1743 H 0.49662 0.87872 0.44615 0.0
H1744 H 0.49174 0.96423 0.48494 0.0
H1745 H 0.48862 0.93194 0.47625 0.0
C1746 C 0.49766 0.27839 0.65392 0.0
C1747 C 0.49598 0.28382 0.63543 0.0
C1748 C 0.48357 0.27721 0.66501 0.0
C1749 C 0.44145 0.29292 0.66956 0.0
H1750 H 0.4304 0.25226 0.69792 0.0
C1751 C 0.37435 0.27303 0.69909 0.0
C1752 C 0.37394 0.26462 0.71587 0.0
C1753 C 0.39019 0.27762 0.6912 0.0
C1754 C 0.43343 0.26391 0.6904 0.0
H1755 H 0.47804 0.29234 0.61425 0.0
H1756 H 0.4537 0.29029 0.63342 0.0
H1757 H 0.45597 0.25547 0.68049 0.0
H1758 H 0.38976 0.25498 0.73802 0.0
H1759 H 0.41754 0.26338 0.72466 0.0
H1760 H 0.41879 0.30126 0.67932 0.0
C1761 C 0.46591 0.28708 0.63951 0.0
C1762 C 0.44815 0.26573 0.68032 0.0
C1763 C 0.4799 0.28813 0.62841 0.0
C1764 C 0.38978 0.26161 0.72514 0.0
C1765 C 0.40564 0.26621 0.71731 0.0
C1766 C 0.42674 0.29113 0.67968 0.0
C1767 C 0.46749 0.28159 0.65797 0.0
C1768 C 0.45229 0.28016 0.66958 0.0
C1769 C 0.406 0.27379 0.69988 0.0
C1770 C 0.42239 0.27649 0.69013 0.0
H1771 H 0.50981 0.27493 0.6598 0.0
H1772 H 0.48536 0.27305 0.6792 0.0
H1773 H 0.44435 0.30439 0.66174 0.0
H1774 H 0.36224 0.27523 0.69153 0.0
H1775 H 0.3898 0.28328 0.67773 0.0
C1776 C 0.01082 0.79163 0.63943 0.0
C1777 C 0.01746 0.79533 0.65916 0.0
C1778 C 0.00996 0.80574 0.6281 0.0
C1779 C 0.02779 0.85563 0.62945 0.0
H1780 H 0.99256 0.8515 0.58509 0.0
C1781 C 0.02327 0.91737 0.59034 0.0
C1782 C 0.02304 0.91469 0.57026 0.0
C1783 C 0.01949 0.90269 0.60079 0.0
C1784 C 0.00249 0.85288 0.59745 0.0
H1785 H 0.02778 0.8169 0.6824 0.0
H1786 H 0.02556 0.84103 0.6633 0.0
H1787 H 0.99259 0.82612 0.60366 0.0
H1788 H 0.01792 0.89447 0.54538 0.0
H1789 H 0.01084 0.86887 0.56346 0.0
H1790 H 0.03757 0.88235 0.62343 0.0
C1791 C 0.02169 0.8274 0.6561 0.0
C1792 C 0.00261 0.83822 0.60809 0.0
C1793 C 0.02283 0.81343 0.66723 0.0
C1794 C 0.0177 0.89702 0.56077 0.0
C1795 C 0.01381 0.88231 0.5712 0.0
C1796 C 0.02749 0.87027 0.61905 0.0
C1797 C 0.01552 0.82394 0.63623 0.0
C1798 C 0.01526 0.83935 0.62437 0.0
C1799 C 0.01544 0.88487 0.59146 0.0
C1800 C 0.01486 0.86921 0.60289 0.0
H1801 H 0.00656 0.77786 0.63268 0.0
H1802 H 0.00525 0.80231 0.61289 0.0
H1803 H 0.03817 0.85711 0.64136 0.0
H1804 H 0.02777 0.93074 0.59813 0.0
H1805 H 0.02062 0.90526 0.61633 0.0
C1806 C 0.47084 0.79745 0.82027 0.0
C1807 C 0.47571 0.78228 0.82741 0.0
C1808 C 0.45284 0.79782 0.81473 0.0
C1809 C 0.40691 0.77393 0.82174 0.0
H1810 H 0.3908 0.79982 0.78122 0.0
C1811 C 0.33196 0.76487 0.79536 0.0
C1812 C 0.32502 0.77945 0.78938 0.0
C1813 C 0.35026 0.76599 0.79946 0.0
C1814 C 0.395 0.79264 0.79274 0.0
H1815 H 0.46507 0.7553 0.83326 0.0
H1816 H 0.43443 0.75569 0.82325 0.0
H1817 H 0.42237 0.80034 0.78872 0.0
H1818 H 0.33271 0.8068 0.78321 0.0
H1819 H 0.36454 0.80887 0.79046 0.0
H1820 H 0.37976 0.76624 0.82589 0.0
C1821 C 0.44423 0.76766 0.82247 0.0
C1822 C 0.41326 0.79294 0.79708 0.0
C1823 C 0.46204 0.76735 0.82809 0.0
C1824 C 0.33728 0.79524 0.78767 0.0
C1825 C 0.35571 0.79638 0.79178 0.0
C1826 C 0.38876 0.77361 0.81741 0.0
C1827 C 0.43911 0.78301 0.81611 0.0
C1828 C 0.4196 0.78341 0.81156 0.0
C1829 C 0.36259 0.78177 0.79785 0.0
C1830 C 0.38233 0.78279 0.80271 0.0
H1831 H 0.48087 0.80928 0.81961 0.0
H1832 H 0.44968 0.80997 0.80999 0.0
H1833 H 0.41095 0.76682 0.83339 0.0
H1834 H 0.32324 0.75231 0.79674 0.0
H1835 H 0.35473 0.75422 0.80364 0.0
C1836 C 0.50483 0.18305 0.14987 0.0
C1837 C 0.50944 0.19921 0.14187 0.0
C1838 C 0.50586 0.16641 0.13976 0.0
C1839 C 0.52806 0.14718 0.10044 0.0
H1840 H 0.49187 0.10423 0.09862 0.0
C1841 C 0.52902 0.08278 0.04915 0.0
C1842 C 0.52171 0.06568 0.05387 0.0
C1843 C 0.5272 0.0986 0.06014 0.0
C1844 C 0.50232 0.11594 0.09912 0.0
H1845 H 0.51854 0.21017 0.11662 0.0
H1846 H 0.52034 0.18158 0.0993 0.0
H1847 H 0.4894 0.13202 0.11751 0.0
H1848 H 0.50686 0.05223 0.07448 0.0
H1849 H 0.50453 0.07956 0.09413 0.0
H1850 H 0.54129 0.1313 0.08258 0.0
C1851 C 0.51608 0.18165 0.11345 0.0
C1852 C 0.50083 0.132 0.11001 0.0
C1853 C 0.51492 0.19814 0.12342 0.0
C1854 C 0.51271 0.06504 0.07023 0.0
C1855 C 0.51118 0.08088 0.08147 0.0
C1856 C 0.52968 0.13113 0.08978 0.0
C1857 C 0.51172 0.16548 0.12144 0.0
C1858 C 0.51357 0.14796 0.11066 0.0
C1859 C 0.51835 0.09803 0.07665 0.0
C1860 C 0.51675 0.11517 0.08868 0.0
H1861 H 0.50058 0.18326 0.16403 0.0
H1862 H 0.50245 0.15432 0.14649 0.0
H1863 H 0.53836 0.15901 0.10081 0.0
H1864 H 0.5363 0.08406 0.03694 0.0
H1865 H 0.53267 0.1113 0.05546 0.0
C1866 C 0.08825 0.28556 0.31559 0.0
C1867 C 0.08826 0.29671 0.33287 0.0
C1868 C 0.10434 0.28343 0.30866 0.0
C1869 C 0.15357 0.29099 0.32604 0.0
H1870 H 0.15846 0.28176 0.27202 0.0
C1871 C 0.22321 0.29198 0.30184 0.0
C1872 C 0.22506 0.28086 0.28523 0.0
C1873 C 0.20642 0.29373 0.30669 0.0
C1874 C 0.15743 0.28415 0.28723 0.0
H1875 H 0.1056 0.31502 0.35563 0.0
H1876 H 0.13292 0.31192 0.34351 0.0
H1877 H 0.12985 0.28496 0.28162 0.0
H1878 H 0.20995 0.26336 0.26047 0.0
H1879 H 0.18097 0.26561 0.26926 0.0
H1880 H 0.18091 0.29005 0.33181 0.0
C1881 C 0.12073 0.30414 0.33551 0.0
C1882 C 0.14083 0.28601 0.29278 0.0
C1883 C 0.10483 0.3061 0.34245 0.0
C1884 C 0.20935 0.27177 0.27354 0.0
C1885 C 0.19252 0.27331 0.27852 0.0
C1886 C 0.17007 0.28914 0.32053 0.0
C1887 C 0.12098 0.29246 0.31872 0.0
C1888 C 0.13856 0.2897 0.31235 0.0
C1889 C 0.19063 0.28428 0.29529 0.0
C1890 C 0.17252 0.28585 0.301 0.0
H1891 H 0.07588 0.27799 0.30775 0.0
H1892 H 0.10368 0.27427 0.2957 0.0
H1893 H 0.15262 0.29323 0.34128 0.0
H1894 H 0.2348 0.2995 0.31119 0.0
H1895 H 0.20594 0.30274 0.31942 0.0
C1896 C 0.942 0.00402 0.19899 0.0
C1897 C 0.94573 0.01987 0.21201 0.0
C1898 C 0.94874 0.00364 0.18132 0.0
C1899 C 0.98149 0.03068 0.15434 0.0
H1900 H 0.95374 -0.00026 0.11008 0.0
C1901 C 0.99078 0.03642 0.07368 0.0
C1902 C 0.99564 0.02119 0.06475 0.0
C1903 C 0.98495 0.03618 0.09183 0.0
C1904 C 0.96158 0.00844 0.12237 0.0
H1905 H 0.95941 0.04775 0.21674 0.0
H1906 H 0.97036 0.04746 0.18578 0.0
H1907 H 0.94318 -0.00064 0.14146 0.0
H1908 H -0.00164 0.99389 0.06748 0.0
H1909 H 0.98715 0.99314 0.09873 0.0
H1910 H -0.0006 0.04026 0.13474 0.0
C1911 C 0.96284 0.03503 0.18928 0.0
C1912 C 0.95567 0.00812 0.14044 0.0
C1913 C 0.95644 0.03527 0.20709 0.0
C1914 C 0.99448 0.00572 0.07408 0.0
C1915 C 0.98811 0.00528 0.09188 0.0
C1916 C 0.98713 0.03129 0.13617 0.0
C1917 C 0.95906 0.01924 0.17605 0.0
C1918 C 0.96554 0.01923 0.15676 0.0
C1919 C 0.98344 0.02055 0.10096 0.0
C1920 C 0.97724 0.02017 0.12007 0.0
H1921 H 0.93387 0.99187 0.20245 0.0
H1922 H 0.94582 0.99108 0.17185 0.0
H1923 H 0.98977 0.03911 0.16649 0.0
H1924 H 0.99192 0.04858 0.06684 0.0
H1925 H 0.9815 0.04813 0.09868 0.0
C1926 C 0.26756 0.65659 0.49661 0.0
C1927 C 0.25405 0.64111 0.49409 0.0
C1928 C 0.26994 0.66716 0.48173 0.0
C1929 C 0.24601 0.67572 0.43675 0.0
H1930 H 0.2925 0.69867 0.42635 0.0
C1931 C 0.25292 0.70597 0.36892 0.0
C1932 C 0.25252 0.72414 0.37373 0.0
C1933 C 0.25912 0.69629 0.3829 0.0
C1934 C 0.27954 0.69218 0.42915 0.0
H1935 H 0.23266 0.62426 0.47424 0.0
H1936 H 0.23725 0.64217 0.44795 0.0
H1937 H 0.28979 0.68036 0.45305 0.0
H1938 H 0.26036 0.74712 0.39578 0.0
H1939 H 0.27106 0.72998 0.42045 0.0
H1940 H 0.23581 0.68717 0.41272 0.0
C1941 C 0.24567 0.64656 0.46154 0.0
C1942 C 0.27792 0.6819 0.44444 0.0
C1943 C 0.24307 0.63623 0.47653 0.0
C1944 C 0.26023 0.733 0.39198 0.0
C1945 C 0.26661 0.72334 0.40591 0.0
C1946 C 0.24766 0.68563 0.42141 0.0
C1947 C 0.25902 0.66222 0.46403 0.0
C1948 C 0.2611 0.67348 0.44827 0.0
C1949 C 0.26513 0.70477 0.40169 0.0
C1950 C 0.26436 0.69381 0.41749 0.0
H1951 H 0.27608 0.66071 0.51018 0.0
H1952 H 0.28012 0.6793 0.4842 0.0
H1953 H 0.23287 0.66993 0.43965 0.0
H1954 H 0.24713 0.69891 0.35487 0.0
H1955 H 0.2577 0.68189 0.37956 0.0
C1956 C 0.62904 0.04052 0.69889 0.0
C1957 C 0.62634 0.02523 0.70847 0.0
C1958 C 0.61981 0.04025 0.68087 0.0
C1959 C 0.58082 0.0156 0.64849 0.0
H1960 H 0.60489 0.03973 0.60987 0.0
C1961 C 0.55261 0.00896 0.56933 0.0
C1962 C 0.54868 0.02514 0.56441 0.0
C1963 C 0.56332 0.00886 0.5863 0.0
C1964 C 0.59816 0.033 0.62064 0.0
H1965 H 0.61213 0.99775 0.70721 0.0
H1966 H 0.59618 0.99703 0.67528 0.0
H1967 H 0.62124 0.03903 0.64139 0.0
H1968 H 0.55273 0.05387 0.57241 0.0
H1969 H 0.57211 0.05378 0.60241 0.0
H1970 H 0.55791 0.00919 0.62745 0.0
C1971 C 0.60505 0.00938 0.68189 0.0
C1972 C 0.60737 0.03265 0.63859 0.0
C1973 C 0.61405 0.00978 0.70013 0.0
C1974 C 0.55561 0.04131 0.57633 0.0
C1975 C 0.56674 0.04128 0.59314 0.0
C1976 C 0.57175 0.01569 0.63048 0.0
C1977 C 0.608 0.02456 0.67206 0.0
C1978 C 0.59867 0.02415 0.65273 0.0
C1979 C 0.5704 0.02501 0.59819 0.0
C1980 C 0.58035 0.02455 0.61667 0.0
H1981 H 0.63856 0.05255 0.7052 0.0
H1982 H 0.62204 0.05227 0.67379 0.0
H1983 H 0.57374 0.00919 0.65919 0.0
H1984 H 0.54721 0.99639 0.56015 0.0
H1985 H 0.566 0.99624 0.59024 0.0
C1986 C 0.29813 0.35775 0.96716 0.0
C1987 C 0.28521 0.35467 0.97958 0.0
C1988 C 0.29491 0.34953 0.94814 0.0
C1989 C 0.2683 0.3111 0.91535 0.0
H1990 H 0.28348 0.34063 0.87618 0.0
C1991 C 0.25815 0.28462 0.83314 0.0
C1992 C 0.27261 0.29006 0.82316 0.0
C1993 C 0.25818 0.29207 0.85223 0.0
C1994 C 0.27929 0.33214 0.88693 0.0
H1995 H 0.25883 0.34019 0.98189 0.0
H1996 H 0.2533 0.32537 0.94848 0.0
H1997 H 0.28594 0.35428 0.90941 0.0
H1998 H 0.29824 0.30783 0.82543 0.0
H1999 H 0.2985 0.32044 0.85855 0.0
H2000 H 0.26188 0.28887 0.89277 0.0
C2001 C 0.26589 0.33433 0.95355 0.0
C2002 C 0.28067 0.33998 0.90599 0.0
C2003 C 0.26903 0.34285 0.97262 0.0
C2004 C 0.28701 0.30313 0.83268 0.0
C2005 C 0.28705 0.31055 0.85167 0.0
C2006 C 0.26692 0.3032 0.89619 0.0
C2007 C 0.27874 0.33781 0.94102 0.0
C2008 C 0.27554 0.32952 0.92052 0.0
C2009 C 0.27261 0.30521 0.86169 0.0
C2010 C 0.27273 0.31359 0.88182 0.0
H2011 H 0.31069 0.36685 0.972 0.0
H2012 H 0.30518 0.35233 0.93898 0.0
H2013 H 0.26431 0.30266 0.92622 0.0
H2014 H 0.2468 0.27461 0.82623 0.0
H2015 H 0.24679 0.28775 0.85946 0.0
C2016 C 0.95813 0.00152 0.31116 0.0
C2017 C 0.94527 0.01126 0.3057 0.0
C2018 C 0.96593 0.00346 0.33031 0.0
C2019 C 0.97243 0.0327 0.37736 0.0
H2020 H 0.98058 0.98945 0.3979 0.0
C2021 C 0.98859 0.02925 0.45902 0.0
C2022 C 0.0015 0.0196 0.46484 0.0
C2023 C 0.98261 0.02895 0.43952 0.0
C2024 C 0.9786 0.0017 0.39235 0.0
H2025 H 0.93076 0.03101 0.31609 0.0
H2026 H 0.94411 0.03416 0.34954 0.0
H2027 H 0.96856 0.9878 0.36425 0.0
H2028 H 0.01866 0.00263 0.45437 0.0
H2029 H 0.00789 0.00172 0.4204 0.0
H2030 H 0.98218 0.04649 0.40568 0.0
C2031 C 0.9484 0.02519 0.33898 0.0
C2032 C 0.97172 0.00078 0.373 0.0
C2033 C 0.94067 0.02333 0.31978 0.0
C2034 C 0.00844 0.00987 0.45055 0.0
C2035 C 0.00229 0.00939 0.43102 0.0
C2036 C 0.97922 0.0336 0.39677 0.0
C2037 C 0.96099 0.0151 0.34457 0.0
C2038 C 0.96854 0.01626 0.3652 0.0
C2039 C 0.98926 0.0189 0.42526 0.0
C2040 C 0.98239 0.0181 0.40451 0.0
H2041 H 0.96209 0.99221 0.30067 0.0
H2042 H 0.97583 0.99575 0.33393 0.0
H2043 H 0.97041 0.04496 0.37185 0.0
H2044 H 0.98299 0.03702 0.46955 0.0
H2045 H 0.97248 0.03633 0.43563 0.0
C2046 C 0.2475 0.67033 0.58907 0.0
C2047 C 0.26057 0.66086 0.58476 0.0
C2048 C 0.24878 0.67986 0.60726 0.0
C2049 C 0.27931 0.70034 0.64999 0.0
H2050 H 0.23768 0.69088 0.6762 0.0
C2051 C 0.27949 0.73127 0.72707 0.0
C2052 C 0.26655 0.74163 0.72825 0.0
C2053 C 0.27845 0.71877 0.711 0.0
C2054 C 0.24937 0.69351 0.669 0.0
H2055 H 0.28577 0.6548 0.59515 0.0
H2056 H 0.28805 0.67162 0.62689 0.0
H2057 H 0.23705 0.67576 0.64371 0.0
H2058 H 0.24199 0.74669 0.71463 0.0
H2059 H 0.24017 0.72474 0.68638 0.0
H2060 H 0.29153 0.71832 0.6751 0.0
C2061 C 0.2768 0.67155 0.61637 0.0
C2062 C 0.24897 0.68505 0.65048 0.0
C2063 C 0.27545 0.66192 0.59831 0.0
C2064 C 0.25216 0.73887 0.71376 0.0
C2065 C 0.25102 0.72623 0.69783 0.0
C2066 C 0.27972 0.70877 0.6685 0.0
C2067 C 0.26323 0.68013 0.62112 0.0
C2068 C 0.26384 0.68869 0.64078 0.0
C2069 C 0.2644 0.71648 0.69615 0.0
C2070 C 0.26466 0.70561 0.67794 0.0
H2071 H 0.23593 0.66964 0.57878 0.0
H2072 H 0.23832 0.68668 0.61066 0.0
H2073 H 0.29088 0.70332 0.64266 0.0
H2074 H 0.29069 0.73327 0.73818 0.0
H2075 H 0.28885 0.71129 0.70988 0.0
C2076 C 0.64807 0.02501 0.8053 0.0
C2077 C 0.64455 0.03627 0.79147 0.0
C2078 C 0.6376 0.02265 0.8201 0.0
C2079 C 0.60757 0.04533 0.84528 0.0
H2080 H 0.59275 -0.00018 0.86474 0.0
C2081 C 0.5575 0.04143 0.89484 0.0
C2082 C 0.5662 0.04251 0.91353 0.0
C2083 C 0.56441 0.03403 0.87924 0.0
C2084 C 0.5968 0.0125 0.85926 0.0
H2085 H 0.62708 0.05333 0.78168 0.0
H2086 H 0.60853 0.04881 0.80701 0.0
H2087 H 0.61133 0.00144 0.83849 0.0
H2088 H 0.58755 0.03479 0.93096 0.0
H2089 H 0.59998 0.02234 0.90342 0.0
H2090 H 0.59299 0.05636 0.86565 0.0
C2091 C 0.61967 0.04225 0.80691 0.0
C2092 C 0.60748 0.0135 0.84446 0.0
C2093 C 0.63027 0.04485 0.79238 0.0
C2094 C 0.58072 0.03423 0.91661 0.0
C2095 C 0.58771 0.02693 0.90094 0.0
C2096 C 0.5968 0.04426 0.85969 0.0
C2097 C 0.62337 0.03137 0.82109 0.0
C2098 C 0.61275 0.02994 0.83721 0.0
C2099 C 0.58017 0.02783 0.88219 0.0
C2100 C 0.59116 0.02786 0.86659 0.0
H2101 H 0.65903 0.01823 0.80481 0.0
H2102 H 0.64085 0.01433 0.83095 0.0
H2103 H 0.6119 0.05829 0.8405 0.0
H2104 H 0.54602 0.04732 0.89223 0.0
H2105 H 0.55846 0.0348 0.86479 0.0
C2106 C 0.28679 0.33474 0.08137 0.0
C2107 C 0.28169 0.35089 0.07796 0.0
C2108 C 0.28528 0.32827 0.09911 0.0
C2109 C 0.26209 0.33115 0.14195 0.0
H2110 H 0.30116 0.31322 0.16613 0.0
C2111 C 0.2653 0.31121 0.21961 0.0
C2112 C 0.27182 0.29563 0.22231 0.0
C2113 C 0.26605 0.31837 0.20211 0.0
C2114 C 0.29005 0.318 0.15949 0.0
H2115 H 0.27078 0.37281 0.09045 0.0
H2116 H 0.26815 0.36147 0.12136 0.0
H2117 H 0.30319 0.32454 0.1352 0.0
H2118 H 0.28405 0.27526 0.20867 0.0
H2119 H 0.28506 0.2875 0.17834 0.0
H2120 H 0.24888 0.32443 0.16623 0.0
C2121 C 0.27324 0.35379 0.11029 0.0
C2122 C 0.29122 0.32448 0.14176 0.0
C2123 C 0.27487 0.36032 0.09261 0.0
C2124 C 0.27891 0.28729 0.20713 0.0
C2125 C 0.27964 0.2944 0.18974 0.0
C2126 C 0.26088 0.32458 0.1597 0.0
C2127 C 0.27852 0.33774 0.11377 0.0
C2128 C 0.27723 0.33103 0.13273 0.0
C2129 C 0.27339 0.31011 0.18705 0.0
C2130 C 0.2748 0.3178 0.1686 0.0
H2131 H 0.29206 0.32713 0.07039 0.0
H2132 H 0.28928 0.31575 0.10131 0.0
H2133 H 0.25103 0.33598 0.13526 0.0
H2134 H 0.25974 0.31791 0.23103 0.0
H2135 H 0.26121 0.33055 0.20051 0.0
C2136 C 0.2345 0.95819 -0.00197 0.0
C2137 C 0.23274 0.94265 0.98491 0.0
C2138 C 0.22014 0.96594 0.00016 0.0
C2139 C 0.17856 0.97275 0.98116 0.0
H2140 H 0.16861 0.97148 0.03394 0.0
C2141 C 0.11673 0.98387 0.01635 0.0
C2142 C 0.12072 0.99433 0.03444 0.0
C2143 C 0.13028 0.98084 0.00595 0.0
C2144 C 0.17142 0.97209 0.01924 0.0
H2145 H 0.21508 0.92345 0.96309 0.0
H2146 H 0.18952 0.93732 0.96699 0.0
H2147 H 0.19215 0.95783 0.02326 0.0
H2148 H 0.1412 0.01173 0.05492 0.0
H2149 H 0.16516 0.00611 0.03682 0.0
H2150 H 0.1575 0.98702 0.97732 0.0
C2151 C 0.20216 0.94335 0.97538 0.0
C2152 C 0.18465 0.96417 0.01314 0.0
C2153 C 0.21661 0.93542 0.97331 0.0
C2154 C 0.1381 0.00302 0.04134 0.0
C2155 C 0.15162 0.00015 0.03087 0.0
C2156 C 0.16509 0.98067 0.98731 0.0
C2157 C 0.20388 0.95833 0.98916 0.0
C2158 C 0.18849 0.9648 0.99425 0.0
C2159 C 0.14778 0.98839 0.01362 0.0
C2160 C 0.16183 0.98065 0.00651 0.0
H2161 H 0.24676 0.96395 0.00728 0.0
H2162 H 0.2215 0.97746 0.01098 0.0
H2163 H 0.18156 0.97325 0.96653 0.0
H2164 H 0.10321 0.97754 0.01066 0.0
H2165 H 0.12721 0.97162 0.99272 0.0
C2166 C 0.70282 0.61466 0.00245 0.0
C2167 C 0.70524 0.63347 0.00515 0.0
C2168 C 0.68606 0.60385 0.00231 0.0
C2169 C 0.64195 0.60643 0.01731 0.0
H2170 H 0.62738 0.55958 0.98688 0.0
C2171 C 0.57036 0.56459 0.00465 0.0
C2172 C 0.56855 0.54802 0.01212 0.0
C2173 C 0.58703 0.57459 0.00295 0.0
C2174 C 0.63137 0.57264 0.99545 0.0
H2175 H 0.69189 0.65571 0.00893 0.0
H2176 H 0.66272 0.63705 0.00784 0.0
H2177 H 0.65635 0.57812 0.98483 0.0
H2178 H 0.58319 0.52939 0.02411 0.0
H2179 H 0.61219 0.5463 0.01977 0.0
H2180 H 0.61661 0.60108 0.0273 0.0
C2181 C 0.67375 0.63049 0.00659 0.0
C2182 C 0.64798 0.58324 0.99441 0.0
C2183 C 0.6905 0.64125 0.00706 0.0
C2184 C 0.58391 0.54167 0.01762 0.0
C2185 C 0.60056 0.55143 0.01535 0.0
C2186 C 0.62524 0.59601 0.01801 0.0
C2187 C 0.6713 0.61164 0.00458 0.0
C2188 C 0.65353 0.60029 0.00538 0.0
C2189 C 0.60224 0.56805 0.00822 0.0
C2190 C 0.61986 0.57902 0.00716 0.0
H2191 H 0.71395 0.60826 0.00101 0.0
H2192 H 0.68481 0.58942 0.00094 0.0
H2193 H 0.64582 0.61923 0.02637 0.0
H2194 H 0.55892 0.57009 0.00042 0.0
H2195 H 0.58807 0.58745 -0.00248 0.0
C2196 C 0.64607 0.46646 0.28838 0.0
C2197 C 0.65304 0.48353 0.28345 0.0
C2198 C 0.65592 0.453 0.28772 0.0
C2199 C 0.69238 0.43977 0.26467 0.0
H2200 H 0.69408 0.40813 0.30423 0.0
C2201 C 0.73758 0.39033 0.26145 0.0
C2202 C 0.72908 0.37244 0.26151 0.0
C2203 C 0.72981 0.40429 0.26822 0.0
C2204 C 0.69368 0.41687 0.2931 0.0
H2205 H 0.6758 0.49989 0.27405 0.0
H2206 H 0.69295 0.47648 0.27294 0.0
H2207 H 0.67686 0.43172 0.30711 0.0
H2208 H 0.70665 0.35489 0.26994 0.0
H2209 H 0.69289 0.37942 0.28183 0.0
H2210 H 0.70897 0.42498 0.25054 0.0
C2211 C 0.67985 0.47344 0.27719 0.0
C2212 C 0.68379 0.4303 0.29468 0.0
C2213 C 0.67005 0.48689 0.27792 0.0
C2214 C 0.71348 0.36866 0.26998 0.0
C2215 C 0.70562 0.38268 0.27672 0.0
C2216 C 0.70227 0.42647 0.26314 0.0
C2217 C 0.67287 0.45633 0.282 0.0
C2218 C 0.68313 0.44193 0.2805 0.0
C2219 C 0.71329 0.40056 0.27494 0.0
C2220 C 0.70314 0.41496 0.27737 0.0
H2221 H 0.633 0.46346 0.29273 0.0
H2222 H 0.65012 0.4399 0.29131 0.0
H2223 H 0.69178 0.4482 0.25326 0.0
H2224 H 0.74959 0.39347 0.25489 0.0
H2225 H 0.73617 0.41798 0.26704 0.0
C2226 C 0.84676 0.44961 0.53044 0.0
C2227 C 0.83355 0.45305 0.51705 0.0
C2228 C 0.86437 0.45457 0.52771 0.0
C2229 C 0.89305 0.48728 0.50705 0.0
H2230 H 0.92585 0.45515 0.51051 0.0
C2231 C 0.96548 0.51269 0.50251 0.0
C2232 C 0.97738 0.50687 0.5156 0.0
C2233 C 0.94788 0.50417 0.49943 0.0
C2234 C 0.91681 0.46425 0.50962 0.0
H2235 H 0.82823 0.46434 0.49037 0.0
H2236 H 0.85897 0.47302 0.48585 0.0
H2237 H 0.89452 0.4436 0.51188 0.0
H2238 H 0.98032 0.48765 0.53558 0.0
H2239 H 0.94915 0.47403 0.53194 0.0
H2240 H 0.9151 0.50818 0.50599 0.0
C2241 C 0.85566 0.46655 0.49836 0.0
C2242 C 0.89902 0.45764 0.51034 0.0
C2243 C 0.83815 0.4617 0.50109 0.0
C2244 C 0.97135 0.49263 0.52579 0.0
C2245 C 0.95359 0.48454 0.5233 0.0
C2246 C 0.9108 0.49394 0.50667 0.0
C2247 C 0.8688 0.46297 0.51162 0.0
C2248 C 0.88719 0.46925 0.50935 0.0
C2249 C 0.94175 0.49022 0.51002 0.0
C2250 C 0.92285 0.48256 0.50828 0.0
H2251 H 0.84351 0.44289 0.54279 0.0
H2252 H 0.87453 0.45205 0.53824 0.0
H2253 H 0.88401 0.4964 0.50641 0.0
H2254 H 0.96974 0.52348 0.49422 0.0
H2255 H 0.93908 0.50857 0.48881 0.0
C2256 C 0.3376 0.06123 0.28414 0.0
C2257 C 0.35442 0.06407 0.29472 0.0
C2258 C 0.32856 0.07501 0.28383 0.0
C2259 C 0.32549 0.11853 0.30746 0.0
H2260 H 0.3074 0.12481 0.25562 0.0
C2261 C 0.31419 0.18067 0.27307 0.0
C2262 C 0.29894 0.17798 0.2598 0.0
C2263 C 0.31678 0.16723 0.28428 0.0
C2264 C 0.31197 0.1229 0.27021 0.0
H2265 H 0.37505 0.08325 0.31346 0.0
H2266 H 0.35917 0.10794 0.31241 0.0
H2267 H 0.32218 0.10027 0.26044 0.0
H2268 H 0.27354 0.16073 0.24898 0.0
H2269 H 0.2785 0.13669 0.26796 0.0
H2270 H 0.31619 0.14222 0.31686 0.0
C2271 C 0.353 0.09483 0.30474 0.0
C2272 C 0.3205 0.10899 0.27294 0.0
C2273 C 0.3621 0.08089 0.30514 0.0
C2274 C 0.2855 0.16274 0.25906 0.0
C2275 C 0.28816 0.14924 0.27009 0.0
C2276 C 0.3171 0.13276 0.30466 0.0
C2277 C 0.33628 0.09193 0.29389 0.0
C2278 C 0.32729 0.10671 0.29154 0.0
C2279 C 0.30424 0.15106 0.28187 0.0
C2280 C 0.31034 0.1349 0.286 0.0
H2281 H 0.33137 0.04838 0.27592 0.0
H2282 H 0.31562 0.07252 0.27547 0.0
H2283 H 0.33066 0.11683 0.3219 0.0
H2284 H 0.32443 0.19265 0.27397 0.0
H2285 H 0.32934 0.16868 0.29319 0.0
C2286 C 0.30519 0.11973 0.51142 0.0
C2287 C 0.30737 0.13603 0.50353 0.0
C2288 C 0.3188 0.11022 0.51253 0.0
C2289 C 0.35948 0.10469 0.49227 0.0
H2290 H 0.37086 0.08641 0.54039 0.0
C2291 C 0.42475 0.08205 0.51428 0.0
C2292 C 0.42408 0.06801 0.52565 0.0
C2293 C 0.40943 0.08816 0.50864 0.0
C2294 C 0.36764 0.0911 0.52671 0.0
H2295 H 0.32541 0.15501 0.49032 0.0
H2296 H 0.34914 0.13836 0.49223 0.0
H2297 H 0.34643 0.10186 0.53678 0.0
H2298 H 0.40711 0.04854 0.53922 0.0
H2299 H 0.38015 0.05899 0.52916 0.0
H2300 H 0.38096 0.09414 0.48235 0.0
C2301 C 0.33689 0.13291 0.49748 0.0
C2302 C 0.35367 0.10001 0.52467 0.0
C2303 C 0.32334 0.14249 0.49651 0.0
C2304 C 0.40781 0.05938 0.53038 0.0
C2305 C 0.39248 0.06547 0.52477 0.0
C2306 C 0.37348 0.09572 0.49429 0.0
C2307 C 0.33481 0.11673 0.50563 0.0
C2308 C 0.34945 0.10694 0.50747 0.0
C2309 C 0.39325 0.08037 0.51446 0.0
C2310 C 0.37773 0.08886 0.51157 0.0
H2311 H 0.29307 0.11442 0.51699 0.0
H2312 H 0.31676 0.09772 0.51874 0.0
H2313 H 0.35642 0.10976 0.47877 0.0
H2314 H 0.43727 0.0889 0.51063 0.0
H2315 H 0.41048 0.09969 0.50078 0.0
C2316 C 0.6708 0.59392 0.29682 0.0
C2317 C 0.65735 0.58755 0.28134 0.0
C2318 C 0.68174 0.61092 0.29768 0.0
C2319 C 0.6847 0.65366 0.27555 0.0
H2320 H 0.73411 0.66195 0.29666 0.0
C2321 C 0.73985 0.7111 0.26062 0.0
C2322 C 0.74546 0.72419 0.27669 0.0
C2323 C 0.72957 0.69445 0.26255 0.0
C2324 C 0.7203 0.65975 0.29084 0.0
H2325 H 0.64508 0.59364 0.25439 0.0
H2326 H 0.66454 0.62263 0.25531 0.0
H2327 H 0.71494 0.63262 0.29718 0.0
H2328 H 0.74569 0.73016 0.30745 0.0
H2329 H 0.72835 0.70037 0.31104 0.0
H2330 H 0.69047 0.68056 0.26834 0.0
C2331 C 0.6663 0.61505 0.26728 0.0
C2332 C 0.70926 0.64304 0.29124 0.0
C2333 C 0.65517 0.59831 0.26665 0.0
C2334 C 0.74135 0.7202 0.29489 0.0
C2335 C 0.73154 0.70328 0.29694 0.0
C2336 C 0.69581 0.67018 0.27482 0.0
C2337 C 0.67965 0.6217 0.28288 0.0
C2338 C 0.69132 0.63972 0.28343 0.0
C2339 C 0.72534 0.69046 0.2807 0.0
C2340 C 0.71365 0.67327 0.28238 0.0
H2341 H 0.6727 0.5859 0.30838 0.0
H2342 H 0.69168 0.61564 0.31006 0.0
H2343 H 0.67091 0.65187 0.26986 0.0
H2344 H 0.7428 0.71405 0.24644 0.0
H2345 H 0.72478 0.68472 0.24988 0.0
C2346 C 0.83457 0.457 0.78856 0.0
C2347 C 0.84345 0.46106 0.77271 0.0
C2348 C 0.82877 0.43934 0.79133 0.0
C2349 C 0.83586 0.39459 0.77991 0.0
H2350 H 0.78623 0.38006 0.78531 0.0
C2351 C 0.79803 0.32283 0.76201 0.0
C2352 C 0.7843 0.31676 0.7725 0.0
C2353 C 0.80695 0.34056 0.76548 0.0
C2354 C 0.80022 0.38396 0.78438 0.0
H2355 H 0.85275 0.45005 0.74698 0.0
H2356 H 0.84191 0.41879 0.75161 0.0
H2357 H 0.7987 0.41143 0.78438 0.0
H2358 H 0.7692 0.32433 0.79514 0.0
H2359 H 0.78558 0.35487 0.80217 0.0
H2360 H 0.8373 0.36699 0.77966 0.0
C2361 C 0.84001 0.42945 0.76206 0.0
C2362 C 0.80727 0.40184 0.78369 0.0
C2363 C 0.84593 0.44721 0.7593 0.0
C2364 C 0.77966 0.3286 0.78669 0.0
C2365 C 0.78904 0.34611 0.79075 0.0
C2366 C 0.82885 0.37665 0.78084 0.0
C2367 C 0.83161 0.42556 0.7782 0.0
C2368 C 0.82494 0.40709 0.78091 0.0
C2369 C 0.80257 0.35225 0.77998 0.0
C2370 C 0.81085 0.37122 0.78246 0.0
H2371 H 0.83255 0.46743 0.79919 0.0
H2372 H 0.82226 0.43642 0.80385 0.0
H2373 H 0.84964 0.39865 0.77803 0.0
H2374 H 0.80205 0.31389 0.75136 0.0
H2375 H 0.81709 0.34513 0.75665 0.0
C2376 C 0.06119 0.84641 0.07466 0.0
C2377 C 0.04801 0.83395 0.08124 0.0
C2378 C 0.05749 0.86188 0.06722 0.0
C2379 C 0.02034 0.88444 0.04978 0.0
H2380 H 0.05808 0.92675 0.05854 0.0
C2381 C 0.01338 0.95179 0.01828 0.0
C2382 C 0.02194 0.96824 0.02928 0.0
C2383 C 0.01596 0.93515 0.02391 0.0
C2384 C 0.04723 0.91521 0.05605 0.0
H2385 H 0.02024 0.82825 0.08459 0.0
H2386 H 0.01379 0.85534 0.07204 0.0
H2387 H 0.06317 0.89906 0.06971 0.0
H2388 H 0.04025 0.97958 0.05498 0.0
H2389 H 0.04472 0.95106 0.06465 0.0
H2390 H 0.00426 0.90098 0.03664 0.0
C2391 C 0.02708 0.85304 0.07234 0.0
C2392 C 0.05027 0.899 0.06225 0.0
C2393 C 0.03079 0.8374 0.07966 0.0
C2394 C 0.0333 0.96737 0.04601 0.0
C2395 C 0.036 0.95082 0.05154 0.0
C2396 C 0.01728 0.90074 0.0436 0.0
C2397 C 0.04044 0.86578 0.06621 0.0
C2398 C 0.03692 0.8832 0.0593 0.0
C2399 C 0.02742 0.93431 0.04063 0.0
C2400 C 0.03064 0.91653 0.04671 0.0
H2401 H 0.07459 0.84431 0.07537 0.0
H2402 H 0.06816 0.87078 0.06223 0.0
H2403 H 0.00965 0.87274 0.0469 0.0
H2404 H 0.00472 0.95169 0.0052 0.0
H2405 H 0.00918 0.92293 0.01486 0.0
C2406 C 0.92731 0.24089 0.89825 0.0
C2407 C 0.94415 0.2514 0.8975 0.0
C2408 C 0.91253 0.24256 0.88583 0.0
C2409 C 0.89567 0.27301 0.85311 0.0
H2410 H 0.85937 0.23042 0.83506 0.0
C2411 C 0.83491 0.27279 0.79624 0.0
C2412 C 0.8184 0.26283 0.79921 0.0
C2413 C 0.85052 0.27172 0.80772 0.0
C2414 C 0.86925 0.24252 0.8401 0.0
H2415 H 0.9584 0.27211 0.88287 0.0
H2416 H 0.93268 0.2749 0.86103 0.0
H2417 H 0.88586 0.22797 0.85538 0.0
H2418 H 0.80558 0.24391 0.8168 0.0
H2419 H 0.83265 0.2421 0.83678 0.0
H2420 H 0.87898 0.28749 0.83754 0.0
C2421 C 0.93086 0.26541 0.87141 0.0
C2422 C 0.88454 0.24113 0.85186 0.0
C2423 C 0.9457 0.26371 0.88388 0.0
C2424 C 0.818 0.25177 0.81402 0.0
C2425 C 0.8336 0.25064 0.82543 0.0
C2426 C 0.88037 0.27439 0.84122 0.0
C2427 C 0.91399 0.2548 0.87213 0.0
C2428 C 0.89797 0.25636 0.85879 0.0
C2429 C 0.85014 0.26058 0.82248 0.0
C2430 C 0.86681 0.25918 0.83468 0.0
H2431 H 0.92547 0.23132 0.90855 0.0
H2432 H 0.89985 0.23437 0.88723 0.0
H2433 H 0.90551 0.28513 0.85823 0.0
H2434 H 0.8358 0.28159 0.78512 0.0
H2435 H 0.86294 0.27949 0.80485 0.0
C2436 C 0.54465 0.22572 0.55562 0.0
C2437 C 0.54208 0.23265 0.57417 0.0
C2438 C 0.54269 0.20711 0.55024 0.0
C2439 C 0.52839 0.16144 0.56842 0.0
H2440 H 0.54882 0.14486 0.52398 0.0
C2441 C 0.51832 0.08486 0.54253 0.0
C2442 C 0.53077 0.07811 0.53231 0.0
C2443 C 0.51955 0.10342 0.54722 0.0
C2444 C 0.54323 0.14907 0.53666 0.0
H2445 H 0.53535 0.225 0.60161 0.0
H2446 H 0.53285 0.19307 0.59291 0.0
H2447 H 0.55168 0.17661 0.53306 0.0
H2448 H 0.55423 0.08641 0.51893 0.0
H2449 H 0.55709 0.11844 0.52794 0.0
H2450 H 0.52114 0.13389 0.5728 0.0
C2451 C 0.53579 0.20167 0.58194 0.0
C2452 C 0.54454 0.16765 0.54177 0.0
C2453 C 0.53737 0.22028 0.58714 0.0
C2454 C 0.54454 0.09078 0.52703 0.0
C2455 C 0.54598 0.10941 0.53201 0.0
C2456 C 0.5275 0.14293 0.56361 0.0
C2457 C 0.53847 0.19454 0.56334 0.0
C2458 C 0.53708 0.17438 0.55775 0.0
C2459 C 0.53346 0.11618 0.54221 0.0
C2460 C 0.53478 0.13626 0.54754 0.0
H2461 H 0.54821 0.23472 0.54511 0.0
H2462 H 0.54446 0.20278 0.53562 0.0
H2463 H 0.52202 0.16538 0.58058 0.0
H2464 H 0.50732 0.07578 0.54675 0.0
H2465 H 0.50924 0.10764 0.55454 0.0
C2466 C 0.54535 0.75741 0.38684 0.0
C2467 C 0.54848 0.76593 0.40597 0.0
C2468 C 0.55924 0.75778 0.37552 0.0
C2469 C 0.60427 0.78402 0.37265 0.0
H2470 H 0.6094 0.74265 0.33867 0.0
C2471 C 0.66766 0.78586 0.33808 0.0
C2472 C 0.66555 0.78087 0.31809 0.0
C2473 C 0.65353 0.7814 0.34865 0.0
C2474 C 0.6081 0.75434 0.34804 0.0
H2475 H 0.56883 0.7814 0.42809 0.0
H2476 H 0.59277 0.78203 0.4086 0.0
H2477 H 0.58399 0.74059 0.35682 0.0
H2478 H 0.64726 0.76664 0.2936 0.0
H2479 H 0.62256 0.75845 0.31213 0.0
H2480 H 0.62821 0.79782 0.36401 0.0
C2481 C 0.57961 0.7752 0.40216 0.0
C2482 C 0.59349 0.75319 0.35839 0.0
C2483 C 0.56583 0.77473 0.41344 0.0
C2484 C 0.64935 0.77027 0.30908 0.0
C2485 C 0.63518 0.76571 0.31969 0.0
C2486 C 0.61881 0.78514 0.36244 0.0
C2487 C 0.57657 0.76684 0.383 0.0
C2488 C 0.5915 0.76799 0.37104 0.0
C2489 C 0.63687 0.77193 0.33947 0.0
C2490 C 0.6211 0.77029 0.35016 0.0
H2491 H 0.53217 0.75043 0.38061 0.0
H2492 H 0.55635 0.75127 0.36081 0.0
H2493 H 0.603 0.79587 0.38178 0.0
H2494 H 0.67987 0.79436 0.34531 0.0
H2495 H 0.65542 0.78615 0.3639 0.0
C2496 C 0.03315 0.23989 0.38215 0.0
C2497 C 0.02808 0.25522 0.39077 0.0
C2498 C 0.03245 0.22442 0.39155 0.0
C2499 C 0.01113 0.20236 0.43054 0.0
H2500 H 0.04639 0.17303 0.42797 0.0
C2501 C 0.00992 0.14396 0.47624 0.0
C2502 C 0.01155 0.1275 0.46656 0.0
C2503 C 0.01434 0.15994 0.46802 0.0
C2504 C 0.03639 0.18103 0.42878 0.0
H2505 H 0.01851 0.2662 0.41627 0.0
H2506 H 0.01747 0.23962 0.43256 0.0
H2507 H 0.04885 0.19966 0.41104 0.0
H2508 H 0.01968 0.1149 0.4411 0.0
H2509 H 0.02767 0.14278 0.4268 0.0
H2510 H -0.00137 0.18384 0.44816 0.0
C2511 C 0.02173 0.2393 0.41841 0.0
C2512 C 0.03775 0.1963 0.41899 0.0
C2513 C 0.02245 0.25469 0.40907 0.0
C2514 C 0.01859 0.12747 0.449 0.0
C2515 C 0.02311 0.14347 0.4408 0.0
C2516 C 0.00983 0.18723 0.44037 0.0
C2517 C 0.02658 0.22385 0.40979 0.0
C2518 C 0.02516 0.20726 0.4198 0.0
C2519 C 0.02043 0.15984 0.44985 0.0
C2520 C 0.02244 0.17634 0.43973 0.0
H2521 H 0.0376 0.23978 0.36809 0.0
H2522 H 0.03618 0.2128 0.38433 0.0
H2523 H 0.00089 0.21009 0.43117 0.0
H2524 H 0.00429 0.14433 0.48966 0.0
H2525 H 0.01238 0.17232 0.4756 0.0
C2526 C 0.57706 0.2352 0.19773 0.0
C2527 C 0.56602 0.2461 0.20511 0.0
C2528 C 0.59485 0.23743 0.20542 0.0
C2529 C 0.62937 0.25984 0.24748 0.0
H2530 H 0.6611 0.24743 0.21189 0.0
C2531 C 0.70709 0.27533 0.26618 0.0
C2532 C 0.71612 0.2619 0.25999 0.0
C2533 C 0.68879 0.27351 0.26066 0.0
C2534 C 0.65248 0.2508 0.22215 0.0
H2535 H 0.56556 0.26792 0.22708 0.0
H2536 H 0.59688 0.27217 0.24038 0.0
H2537 H 0.63011 0.24503 0.20038 0.0
H2538 H 0.7125 0.23594 0.24293 0.0
H2539 H 0.68082 0.23296 0.23295 0.0
H2540 H 0.65223 0.26624 0.26909 0.0
C2541 C 0.59158 0.26159 0.22862 0.0
C2542 C 0.63446 0.24934 0.21554 0.0
C2543 C 0.57351 0.2592 0.22095 0.0
C2544 C 0.70614 0.24655 0.24811 0.0
C2545 C 0.6879 0.2449 0.24226 0.0
C2546 C 0.64754 0.26157 0.25404 0.0
C2547 C 0.60273 0.25088 0.22077 0.0
C2548 C 0.62237 0.25353 0.22807 0.0
C2549 C 0.67886 0.25837 0.24838 0.0
C2550 C 0.6594 0.25686 0.24153 0.0
H2551 H 0.57194 0.22476 0.18576 0.0
H2552 H 0.60241 0.22836 0.1992 0.0
H2553 H 0.62077 0.26313 0.25779 0.0
H2554 H 0.71419 0.28734 0.27538 0.0
H2555 H 0.68248 0.28425 0.26565 0.0
C2556 C 0.5434 0.85032 0.89779 0.0
C2557 C 0.52718 0.8418 0.88679 0.0
C2558 C 0.54477 0.86631 0.91037 0.0
C2559 C 0.52227 0.90477 0.91895 0.0
H2560 H 0.54717 0.91194 0.9707 0.0
C2561 C 0.51513 0.96379 0.97398 0.0
C2562 C 0.52955 0.97213 0.98774 0.0
C2563 C 0.51558 0.94801 0.96212 0.0
C2564 C 0.54034 0.91037 0.95622 0.0
H2565 H 0.49974 0.84372 0.88059 0.0
H2566 H 0.50217 0.87121 0.90207 0.0
H2567 H 0.54728 0.8848 0.94912 0.0
H2568 H 0.5556 0.97028 0.00028 0.0
H2569 H 0.55676 0.94304 0.97922 0.0
H2570 H 0.5155 0.93027 0.92569 0.0
C2571 C 0.5139 0.86572 0.90102 0.0
C2572 C 0.5404 0.8947 0.9438 0.0
C2573 C 0.51249 0.84978 0.88871 0.0
C2574 C 0.54434 0.96416 0.98967 0.0
C2575 C 0.5449 0.94844 0.97765 0.0
C2576 C 0.52233 0.92044 0.93124 0.0
C2577 C 0.53002 0.87432 0.91205 0.0
C2578 C 0.53115 0.89154 0.92505 0.0
C2579 C 0.53056 0.94012 0.96352 0.0
C2580 C 0.53115 0.92347 0.95021 0.0
H2581 H 0.55499 0.84459 0.89677 0.0
H2582 H 0.55744 0.87255 0.91855 0.0
H2583 H 0.51527 0.90306 0.90452 0.0
H2584 H 0.50339 0.96942 0.97251 0.0
H2585 H 0.50401 0.94191 0.95196 0.0
C2586 C 0.95807 0.75927 0.72273 0.0
C2587 C 0.95677 0.74623 0.7066 0.0
C2588 C 0.94274 0.76265 0.73062 0.0
C2589 C 0.89266 0.75418 0.71741 0.0
H2590 H 0.89185 0.77041 0.77117 0.0
C2591 C 0.82587 0.75369 0.74794 0.0
C2592 C 0.82412 0.76796 0.76151 0.0
C2593 C 0.84241 0.75201 0.74234 0.0
C2594 C 0.89179 0.76601 0.75605 0.0
H2595 H 0.93784 0.72603 0.68704 0.0
H2596 H 0.91191 0.73136 0.70077 0.0
H2597 H 0.91959 0.76563 0.75996 0.0
H2598 H 0.83923 0.79154 0.77999 0.0
H2599 H 0.86809 0.78845 0.77048 0.0
H2600 H 0.86498 0.75434 0.71345 0.0
C2601 C 0.92453 0.73962 0.7071 0.0
C2602 C 0.90785 0.76326 0.74954 0.0
C2603 C 0.93967 0.73638 0.69922 0.0
C2604 C 0.8398 0.78038 0.76948 0.0
C2605 C 0.85649 0.77853 0.76406 0.0
C2606 C 0.8767 0.75676 0.72391 0.0
C2607 C 0.92553 0.7531 0.72271 0.0
C2608 C 0.90862 0.75702 0.73005 0.0
C2609 C 0.85812 0.76439 0.75016 0.0
C2610 C 0.87578 0.76252 0.74339 0.0
H2611 H 0.97088 0.76722 0.72895 0.0
H2612 H 0.9444 0.77315 0.74262 0.0
H2613 H 0.89239 0.75004 0.7022 0.0
H2614 H 0.81433 0.7438 0.74129 0.0
H2615 H 0.84284 0.74077 0.73185 0.0
C2616 C 0.10522 0.02155 0.8395 0.0
C2617 C 0.09997 0.03355 0.8273 0.0
C2618 C 0.09722 0.01855 0.85602 0.0
C2619 C 0.07153 0.03943 0.88964 0.0
H2620 H 0.06189 0.99218 0.90651 0.0
C2621 C 0.02944 0.02431 0.95008 0.0
C2622 C 0.03614 0.01521 0.96459 0.0
C2623 C 0.03715 0.02561 0.93319 0.0
C2624 C 0.06466 0.00546 0.90203 0.0
H2625 H 0.0819 0.05141 0.82259 0.0
H2626 H 0.06765 0.04588 0.85119 0.0
H2627 H 0.0751 0.99616 0.87686 0.0
H2628 H 0.05584 -0.00014 0.97258 0.0
H2629 H 0.06936 0.00207 0.94278 0.0
H2630 H 0.0609 0.04868 0.91464 0.0
C2631 C 0.07824 0.0391 0.84823 0.0
C2632 C 0.07223 0.00776 0.88508 0.0
C2633 C 0.08633 0.0422 0.83177 0.0
C2634 C 0.05047 0.00703 0.96166 0.0
C2635 C 0.05813 0.00821 0.94461 0.0
C2636 C 0.06387 0.0371 0.90645 0.0
C2637 C 0.08372 0.02739 0.86067 0.0
C2638 C 0.07568 0.02478 0.87865 0.0
C2639 C 0.05168 0.01776 0.93036 0.0
C2640 C 0.06028 0.02009 0.91277 0.0
H2641 H 0.11575 0.0147 0.83649 0.0
H2642 H 0.10192 0.00962 0.86539 0.0
H2643 H 0.07438 0.05279 0.88537 0.0
H2644 H 0.01839 0.03076 0.95187 0.0
H2645 H 0.03175 0.03282 0.92233 0.0
C2646 C 0.78722 0.37582 0.53543 0.0
C2647 C 0.7789 0.39044 0.53442 0.0
C2648 C 0.78735 0.36716 0.55183 0.0
C2649 C 0.76429 0.35734 0.59259 0.0
H2650 H 0.809 0.34675 0.61264 0.0
C2651 C 0.78602 0.324 0.66108 0.0
C2652 C 0.79444 0.30986 0.65582 0.0
C2653 C 0.77971 0.33364 0.64706 0.0
C2654 C 0.79646 0.34969 0.60716 0.0
H2655 H 0.76389 0.40732 0.54943 0.0
H2656 H 0.76401 0.3919 0.57815 0.0
H2657 H 0.80808 0.36579 0.58702 0.0
H2658 H 0.80082 0.29316 0.63193 0.0
H2659 H 0.78997 0.31019 0.60745 0.0
H2660 H 0.75275 0.34084 0.61279 0.0
C2661 C 0.7704 0.38726 0.56625 0.0
C2662 C 0.79593 0.36051 0.59259 0.0
C2663 C 0.77039 0.39604 0.54988 0.0
C2664 C 0.7947 0.30424 0.6363 0.0
C2665 C 0.7884 0.31384 0.62235 0.0
C2666 C 0.76484 0.34647 0.60733 0.0
C2667 C 0.77908 0.37292 0.56738 0.0
C2668 C 0.77978 0.36387 0.58473 0.0
C2669 C 0.78179 0.32913 0.6278 0.0
C2670 C 0.78086 0.34214 0.61412 0.0
H2671 H 0.79395 0.37129 0.52377 0.0
H2672 H 0.79395 0.35596 0.55237 0.0
H2673 H 0.75171 0.3599 0.58671 0.0
H2674 H 0.78566 0.32856 0.67609 0.0
H2675 H 0.77469 0.34548 0.65142 0.0
C2676 C 0.41335 0.99543 0.33427 0.0
C2677 C 0.40022 0.00562 0.33385 0.0
C2678 C 0.42611 0.9981 0.3502 0.0
C2679 C 0.4473 0.02917 0.39216 0.0
H2680 H 0.45052 0.98589 0.41554 0.0
C2681 C 0.48446 0.03142 0.46664 0.0
C2682 C 0.49637 0.01987 0.46755 0.0
C2683 C 0.47198 0.02942 0.45061 0.0
C2684 C 0.4498 0.99801 0.40903 0.0
H2685 H 0.39013 0.02678 0.34925 0.0
H2686 H 0.41233 0.03114 0.37732 0.0
H2687 H 0.43151 0.98374 0.38522 0.0
H2688 H 0.50455 0.99693 0.45324 0.0
H2689 H 0.48291 0.99373 0.4248 0.0
H2690 H 0.46573 0.04344 0.41592 0.0
C2691 C 0.41285 0.02134 0.36524 0.0
C2692 C 0.43908 0.99678 0.39177 0.0
C2693 C 0.40011 0.01869 0.34934 0.0
C2694 C 0.49553 0.00608 0.4526 0.0
C2695 C 0.4831 0.00413 0.43654 0.0
C2696 C 0.45814 0.0304 0.40939 0.0
C2697 C 0.42573 0.01091 0.36578 0.0
C2698 C 0.43782 0.01233 0.3833 0.0
C2699 C 0.47146 0.01596 0.43539 0.0
C2700 C 0.45943 0.0148 0.41784 0.0
H2701 H 0.41386 0.98555 0.32227 0.0
H2702 H 0.43617 0.9901 0.35046 0.0
H2703 H 0.44639 0.04127 0.38569 0.0
H2704 H 0.48496 0.04217 0.4781 0.0
H2705 H 0.46291 0.03851 0.44999 0.0
C2706 C 0.76446 0.68434 0.07047 0.0
C2707 C 0.76434 0.69474 0.05519 0.0
C2708 C 0.76491 0.69213 0.08938 0.0
C2709 C 0.76164 0.73592 0.11842 0.0
H2710 H 0.77431 0.70991 0.16029 0.0
C2711 C 0.75566 0.76072 0.19758 0.0
C2712 C 0.76678 0.75594 0.21232 0.0
C2713 C 0.75561 0.75386 0.17835 0.0
C2714 C 0.7711 0.71766 0.14888 0.0
H2715 H 0.76506 0.72165 0.04784 0.0
H2716 H 0.7672 0.73554 0.08061 0.0
H2717 H 0.77546 0.69766 0.12796 0.0
H2718 H 0.78768 0.74141 0.21826 0.0
H2719 H 0.78848 0.73054 0.18503 0.0
H2720 H 0.75906 0.75679 0.13985 0.0
C2721 C 0.76607 0.72117 0.07831 0.0
C2722 C 0.77126 0.71029 0.12995 0.0
C2723 C 0.7651 0.71323 0.0593 0.0
C2724 C 0.77858 0.74502 0.20733 0.0
C2725 C 0.7789 0.73859 0.18815 0.0
C2726 C 0.7622 0.74363 0.13744 0.0
C2727 C 0.7658 0.71075 0.09378 0.0
C2728 C 0.76629 0.71911 0.11424 0.0
C2729 C 0.76713 0.74252 0.17336 0.0
C2730 C 0.7668 0.73456 0.15298 0.0
H2731 H 0.76386 0.67002 0.06783 0.0
H2732 H 0.76416 0.6832 0.10031 0.0
H2733 H 0.75733 0.74327 0.10716 0.0
H2734 H 0.74676 0.76948 0.20083 0.0
H2735 H 0.74624 0.75719 0.16754 0.0
C2736 C 0.10616 0.03183 0.71995 0.0
C2737 C 0.09585 0.0241 0.73337 0.0
C2738 C 0.09863 0.03233 0.70116 0.0
C2739 C 0.0604 0.01063 0.66518 0.0
H2740 H 0.07498 0.05258 0.63959 0.0
C2741 C 0.04347 0.01128 0.5832 0.0
C2742 C 0.03822 0.02665 0.57726 0.0
C2743 C 0.04975 0.01089 0.60248 0.0
C2744 C 0.07067 0.04082 0.64659 0.0
H2745 H 0.06949 0.01097 0.73757 0.0
H2746 H 0.05628 0.01198 0.70474 0.0
H2747 H 0.08702 0.05241 0.67297 0.0
H2748 H 0.03539 0.05348 0.58703 0.0
H2749 H 0.04666 0.05312 0.62049 0.0
H2750 H 0.04389 -0.00086 0.6388 0.0
C2751 C 0.07026 0.01744 0.70872 0.0
C2752 C 0.07771 0.04064 0.66565 0.0
C2753 C 0.07781 0.01694 0.72756 0.0
C2754 C 0.03927 0.04153 0.59105 0.0
C2755 C 0.04586 0.04132 0.61026 0.0
C2756 C 0.05339 0.0108 0.64608 0.0
C2757 C 0.08059 0.02513 0.69529 0.0
C2758 C 0.07271 0.02551 0.67517 0.0
C2759 C 0.05121 0.026 0.6162 0.0
C2760 C 0.05847 0.02588 0.63656 0.0
H2761 H 0.12011 0.03749 0.72391 0.0
H2762 H 0.10704 0.03812 0.69114 0.0
H2763 H 0.05639 -0.00131 0.672 0.0
H2764 H 0.04267 -0.0005 0.57292 0.0
H2765 H 0.05384 -0.0011 0.60657 0.0
C2766 C 0.79925 0.38484 0.44972 0.0
C2767 C 0.79059 0.39926 0.45096 0.0
C2768 C 0.79398 0.37114 0.43441 0.0
C2769 C 0.77391 0.36274 0.38505 0.0
H2770 H 0.76812 0.31254 0.39298 0.0
C2771 C 0.75853 0.30723 0.3222 0.0
C2772 C 0.77059 0.29573 0.3224 0.0
C2773 C 0.75761 0.31833 0.33867 0.0
C2774 C 0.76967 0.32653 0.39069 0.0
H2775 H 0.77006 0.41113 0.43735 0.0
H2776 H 0.76116 0.38733 0.41031 0.0
H2777 H 0.77312 0.33574 0.42085 0.0
H2778 H 0.79091 0.28652 0.33981 0.0
H2779 H 0.78942 0.30632 0.36889 0.0
H2780 H 0.77107 0.35371 0.35502 0.0
C2781 C 0.77183 0.38655 0.4212 0.0
C2782 C 0.77253 0.3397 0.40649 0.0
C2783 C 0.77697 0.40012 0.43654 0.0
C2784 C 0.78148 0.29523 0.33941 0.0
C2785 C 0.78052 0.30638 0.35598 0.0
C2786 C 0.77107 0.34962 0.36931 0.0
C2787 C 0.78019 0.3719 0.42017 0.0
C2788 C 0.77511 0.35787 0.40372 0.0
C2789 C 0.76874 0.31814 0.35556 0.0
C2790 C 0.76936 0.3315 0.37208 0.0
H2791 H 0.80957 0.38382 0.4609 0.0
H2792 H 0.80072 0.36 0.43365 0.0
H2793 H 0.77601 0.37672 0.38266 0.0
H2794 H 0.74989 0.30786 0.30928 0.0
H2795 H 0.74843 0.32731 0.33813 0.0
C2796 C 0.39842 0.00716 0.23781 0.0
C2797 C 0.40838 0.01641 0.25497 0.0
C2798 C 0.40606 0.0059 0.22103 0.0
C2799 C 0.4419 0.02846 0.19776 0.0
H2800 H 0.43321 0.983 0.16472 0.0
C2801 C 0.48637 0.00657 0.14548 0.0
C2802 C 0.47863 0.99543 0.12852 0.0
C2803 C 0.47574 0.0133 0.1578 0.0
C2804 C 0.43533 0.99589 0.17354 0.0
H2805 H 0.43432 0.03079 0.26842 0.0
H2806 H 0.44793 0.02845 0.23866 0.0
H2807 H 0.41996 0.98476 0.19435 0.0
H2808 H 0.45426 0.98366 0.10991 0.0
H2809 H 0.43543 0.99491 0.132 0.0
H2810 H 0.45804 0.0393 0.17723 0.0
C2811 C 0.43406 0.02254 0.23833 0.0
C2812 C 0.42793 0.99685 0.19056 0.0
C2813 C 0.42637 0.02376 0.25529 0.0
C2814 C 0.46032 0.99206 0.12319 0.0
C2815 C 0.44965 -0.00142 0.13565 0.0
C2816 C 0.44943 0.02747 0.18073 0.0
C2817 C 0.42383 0.01383 0.22107 0.0
C2818 C 0.43143 0.01305 0.20295 0.0
C2819 C 0.45731 0.00866 0.15335 0.0
C2820 C 0.44647 0.01107 0.16876 0.0
H2821 H 0.38456 0.00113 0.23716 0.0
H2822 H 0.39791 -0.00086 0.2079 0.0
H2823 H 0.44442 0.04118 0.20697 0.0
H2824 H 0.50055 0.00954 0.14949 0.0
H2825 H 0.48189 0.02095 0.17147 0.0
C2826 C 0.77426 0.6911 0.95416 0.0
C2827 C 0.75679 0.68715 0.95849 0.0
C2828 C 0.77825 0.69981 0.93815 0.0
C2829 C 0.75643 0.70716 0.89128 0.0
H2830 H 0.7992 0.74264 0.89014 0.0
C2831 C 0.76474 0.75292 0.83245 0.0
C2832 C 0.77806 0.7507 0.82097 0.0
C2833 C 0.76404 0.74562 0.84972 0.0
C2834 C 0.78734 0.73257 0.89028 0.0
H2835 H 0.73 0.69004 0.94991 0.0
H2836 H 0.73697 0.70542 0.92227 0.0
H2837 H 0.79383 0.72974 0.92006 0.0
H2838 H 0.80157 0.73986 0.81896 0.0
H2839 H 0.80058 0.72728 0.84991 0.0
H2840 H 0.74966 0.71045 0.86178 0.0
C2841 C 0.74754 0.70142 0.93095 0.0
C2842 C 0.78423 0.7252 0.90735 0.0
C2843 C 0.74355 0.6927 0.94689 0.0
C2844 C 0.79106 0.74149 0.82745 0.0
C2845 C 0.79057 0.73449 0.84513 0.0
C2846 C 0.75944 0.71463 0.8744 0.0
C2847 C 0.76486 0.70475 0.92611 0.0
C2848 C 0.76862 0.71252 0.90808 0.0
C2849 C 0.77685 0.73627 0.85618 0.0
C2850 C 0.77483 0.72746 0.87376 0.0
H2851 H 0.7848 0.6871 0.96288 0.0
H2852 H 0.7917 0.70211 0.93484 0.0
H2853 H 0.74449 0.69712 0.89113 0.0
H2854 H 0.75452 0.75994 0.82782 0.0
H2855 H 0.75335 0.74715 0.858 0.0
C2856 C 0.80748 0.0814 0.05002 0.0
C2857 C 0.80976 0.09994 0.04889 0.0
C2858 C 0.82112 0.07259 0.04672 0.0
C2859 C 0.85489 0.07523 0.01702 0.0
H2860 H 0.88181 0.05133 0.05191 0.0
C2861 C 0.9204 0.06497 0.00042 0.0
C2862 C 0.92178 0.04695 -0.0022 0.0
C2863 C 0.90762 0.06998 0.01085 0.0
C2864 C 0.87423 0.05783 0.04207 0.0
H2865 H 0.82802 0.12401 0.04443 0.0
H2866 H 0.85175 0.10851 0.03839 0.0
H2867 H 0.85582 0.06196 0.0619 0.0
H2868 H 0.91244 0.02029 0.00544 0.0
H2869 H 0.88962 0.0291 0.02348 0.0
H2870 H 0.87315 0.07152 -0.00269 0.0
C2871 C 0.83951 0.10091 0.04196 0.0
C2872 C 0.85947 0.06377 0.0477 0.0
C2873 C 0.82602 0.10974 0.04547 0.0
C2874 C 0.91145 0.03428 0.00728 0.0
C2875 C 0.89851 0.03928 0.01761 0.0
C2876 C 0.86949 0.06933 0.01144 0.0
C2877 C 0.83693 0.08228 0.04208 0.0
C2878 C 0.85024 0.07307 0.0354 0.0
C2879 C 0.89597 0.05694 0.01849 0.0
C2880 C 0.87965 0.06128 0.02421 0.0
H2881 H 0.79499 0.07365 0.05275 0.0
H2882 H 0.81903 0.05817 0.04679 0.0
H2883 H 0.84761 0.08211 0.00728 0.0
H2884 H 0.92853 0.07495 0.99351 0.0
H2885 H 0.90599 0.08378 0.01177 0.0
C2886 C 0.33765 0.42526 0.02952 0.0
C2887 C 0.33669 0.41165 0.0416 0.0
C2888 C 0.35389 0.43621 0.02787 0.0
C2889 C 0.39925 0.45184 0.05312 0.0
H2890 H 0.41038 0.46448 0.00326 0.0
C2891 C 0.46933 0.48578 0.04133 0.0
C2892 C 0.47109 0.49926 0.02911 0.0
C2893 C 0.45274 0.47555 0.04285 0.0
C2894 C 0.40739 0.46127 0.01732 0.0
H2895 H 0.35206 0.39882 0.06133 0.0
H2896 H 0.38037 0.41781 0.05833 0.0
H2897 H 0.38182 0.44562 0.00579 0.0
H2898 H 0.45677 0.51244 0.00875 0.0
H2899 H 0.42772 0.49489 0.01183 0.0
H2900 H 0.42478 0.46742 0.06467 0.0
C2901 C 0.36854 0.42018 0.05033 0.0
C2902 C 0.39102 0.45044 0.01877 0.0
C2903 C 0.35232 0.40923 0.05198 0.0
C2904 C 0.45585 0.50236 0.01853 0.0
C2905 C 0.43922 0.49213 0.0201 0.0
C2906 C 0.41558 0.46265 0.05167 0.0
C2907 C 0.36953 0.43382 0.03828 0.0
C2908 C 0.3868 0.44553 0.03669 0.0
C2909 C 0.43749 0.47856 0.03224 0.0
C2910 C 0.41989 0.46744 0.03376 0.0
H2911 H 0.32586 0.42747 0.0213 0.0
H2912 H 0.35416 0.44671 0.01862 0.0
H2913 H 0.3963 0.44858 0.06718 0.0
H2914 H 0.48081 0.48293 0.04956 0.0
H2915 H 0.45193 0.46501 0.05209 0.0
C2916 C 0.40071 0.57778 0.76527 0.0
C2917 C 0.39294 0.5606 0.75571 0.0
C2918 C 0.3909 0.59115 0.76662 0.0
C2919 C 0.35193 0.6063 0.74659 0.0
H2920 H 0.354 0.62889 0.79892 0.0
C2921 C 0.30494 0.65165 0.77249 0.0
C2922 C 0.31224 0.66561 0.78731 0.0
C2923 C 0.31531 0.64002 0.76561 0.0
C2924 C 0.35352 0.62298 0.78417 0.0
H2925 H 0.36907 0.54415 0.73924 0.0
H2926 H 0.35189 0.56777 0.74154 0.0
H2927 H 0.37077 0.60581 0.79253 0.0
H2928 H 0.33607 0.67968 0.80551 0.0
H2929 H 0.35441 0.65966 0.79323 0.0
H2930 H 0.33454 0.6236 0.73832 0.0
C2931 C 0.36557 0.57076 0.74801 0.0
C2932 C 0.36305 0.6097 0.78054 0.0
C2933 C 0.37536 0.55726 0.74682 0.0
C2934 C 0.33023 0.66873 0.79425 0.0
C2935 C 0.34062 0.65727 0.78727 0.0
C2936 C 0.3424 0.61976 0.75022 0.0
C2937 C 0.37318 0.58768 0.75831 0.0
C2938 C 0.36251 0.60137 0.76174 0.0
C2939 C 0.3331 0.64236 0.77348 0.0
C2940 C 0.34327 0.62834 0.76906 0.0
H2941 H 0.41422 0.58077 0.77224 0.0
H2942 H 0.39709 0.60417 0.7745 0.0
H2943 H 0.35132 0.60001 0.73197 0.0
H2944 H 0.29105 0.64924 0.76693 0.0
H2945 H 0.30916 0.62866 0.75498 0.0
C2946 C 0.19771 0.59424 0.56312 0.0
C2947 C 0.2103 0.59075 0.55123 0.0
C2948 C 0.17985 0.5876 0.55683 0.0
C2949 C 0.14851 0.55379 0.52505 0.0
H2950 H 0.11967 0.58983 0.52326 0.0
C2951 C 0.07586 0.53025 0.50851 0.0
C2952 C 0.06751 0.53732 0.52318 0.0
C2953 C 0.09223 0.53945 0.50514 0.0
C2954 C 0.12761 0.57968 0.52354 0.0
H2955 H 0.21442 0.57655 0.52426 0.0
H2956 H 0.18321 0.56482 0.5135 0.0
H2957 H 0.15131 0.59902 0.53427 0.0
H2958 H 0.06851 0.55933 0.54536 0.0
H2959 H 0.09763 0.57505 0.54045 0.0
H2960 H 0.12493 0.53428 0.51573 0.0
C2961 C 0.18716 0.57282 0.52747 0.0
C2962 C 0.14556 0.5849 0.52995 0.0
C2963 C 0.20494 0.57954 0.53365 0.0
C2964 C 0.07493 0.55396 0.53385 0.0
C2965 C 0.09145 0.56299 0.5308 0.0
C2966 C 0.13054 0.54853 0.51896 0.0
C2967 C 0.17457 0.57731 0.53875 0.0
C2968 C 0.15594 0.57191 0.53117 0.0
C2969 C 0.10063 0.5553 0.51713 0.0
C2970 C 0.11985 0.56138 0.51869 0.0
H2971 H 0.20156 0.6028 0.57676 0.0
H2972 H 0.17015 0.59087 0.56579 0.0
H2973 H 0.15646 0.54366 0.52586 0.0
H2974 H 0.07017 0.51722 0.50037 0.0
H2975 H 0.09893 0.53342 0.49432 0.0
C2976 C 0.67545 0.96566 0.74134 0.0
C2977 C 0.68319 0.98052 0.73288 0.0
C2978 C 0.68508 0.9528 0.74558 0.0
C2979 C 0.71997 0.93103 0.73655 0.0
H2980 H 0.72707 0.93113 0.79199 0.0
C2981 C 0.76511 0.89149 0.77748 0.0
C2982 C 0.7584 0.88389 0.79311 0.0
C2983 C 0.75578 0.90214 0.76736 0.0
C2984 C 0.72501 0.93083 0.77648 0.0
H2985 H 0.70628 0.99318 0.72085 0.0
H2986 H 0.72307 0.97007 0.72787 0.0
H2987 H 0.71123 0.95235 0.77838 0.0
H2988 H 0.73636 0.87956 0.80955 0.0
H2989 H 0.71979 0.89808 0.79171 0.0
H2990 H 0.73347 0.90916 0.73468 0.0
C2991 C 0.70966 0.9686 0.73127 0.0
C2992 C 0.71612 0.943 0.76878 0.0
C2993 C 0.70012 0.98169 0.72729 0.0
C2994 C 0.74186 0.88591 0.79786 0.0
C2995 C 0.73246 0.89637 0.78766 0.0
C2996 C 0.72882 0.91868 0.74429 0.0
C2997 C 0.70235 0.95453 0.74107 0.0
C2998 C 0.71326 0.94286 0.74881 0.0
C2999 C 0.73965 0.90504 0.7728 0.0
C3000 C 0.73103 0.9183 0.76429 0.0
H3001 H 0.66254 0.9647 0.74606 0.0
H3002 H 0.6794 0.94198 0.75328 0.0
H3003 H 0.71783 0.93096 0.72108 0.0
H3004 H 0.77773 0.88956 0.77349 0.0
H3005 H 0.76149 0.90867 0.7559 0.0
C3006 C 0.71515 0.89526 0.52842 0.0
C3007 C 0.73284 0.90451 0.532 0.0
C3008 C 0.70151 0.90467 0.5271 0.0
C3009 C 0.69034 0.94895 0.53889 0.0
H3010 H 0.65328 0.9314 0.49603 0.0
C3011 C 0.64019 0.98962 0.50884 0.0
C3012 C 0.62319 0.97998 0.50137 0.0
C3013 C 0.65289 0.98066 0.51641 0.0
C3014 C 0.66332 0.9363 0.5083 0.0
H3015 H 0.7501 0.93092 0.53753 0.0
H3016 H 0.72617 0.94739 0.53509 0.0
H3017 H 0.6771 0.91545 0.50127 0.0
H3018 H 0.60559 0.95391 0.49681 0.0
H3019 H 0.62765 0.93819 0.51028 0.0
H3020 H 0.67659 0.9701 0.54559 0.0
C3021 C 0.7229 0.93284 0.53343 0.0
C3022 C 0.67701 0.92718 0.51127 0.0
C3023 C 0.73659 0.9234 0.53468 0.0
C3024 C 0.61864 0.96155 0.50265 0.0
C3025 C 0.6313 0.95259 0.51017 0.0
C3026 C 0.67658 0.95814 0.5359 0.0
C3027 C 0.70522 0.92355 0.52936 0.0
C3028 C 0.69067 0.93336 0.52658 0.0
C3029 C 0.64875 0.96192 0.51639 0.0
C3030 C 0.66291 0.95187 0.52057 0.0
H3031 H 0.7118 0.88072 0.52635 0.0
H3032 H 0.68802 0.89713 0.52421 0.0
H3033 H 0.70063 0.95396 0.5509 0.0
H3034 H 0.64392 0.00385 0.50777 0.0
H3035 H 0.66622 0.98821 0.52102 0.0
C3036 C 0.368 0.45588 0.7568 0.0
C3037 C 0.38348 0.45579 0.74821 0.0
C3038 C 0.35645 0.4398 0.75819 0.0
C3039 C 0.34316 0.39265 0.73698 0.0
H3040 H 0.32582 0.38505 0.78575 0.0
C3041 C 0.30778 0.32318 0.75086 0.0
C3042 C 0.2938 0.32185 0.76207 0.0
C3043 C 0.31808 0.33982 0.74916 0.0
C3044 C 0.33028 0.38705 0.77193 0.0
H3045 H 0.39889 0.43877 0.73417 0.0
H3046 H 0.37867 0.41065 0.73662 0.0
H3047 H 0.34497 0.41357 0.78253 0.0
H3048 H 0.27983 0.33704 0.78051 0.0
H3049 H 0.29734 0.36634 0.77676 0.0
H3050 H 0.32837 0.36633 0.72622 0.0
C3051 C 0.37546 0.4232 0.74216 0.0
C3052 C 0.34131 0.40336 0.77012 0.0
C3053 C 0.38706 0.43929 0.74084 0.0
C3054 C 0.29035 0.33762 0.77156 0.0
C3055 C 0.30053 0.35439 0.7696 0.0
C3056 C 0.332 0.37643 0.73871 0.0
C3057 C 0.36009 0.42331 0.75094 0.0
C3058 C 0.34798 0.40624 0.75269 0.0
C3059 C 0.31452 0.35567 0.75835 0.0
C3060 C 0.32559 0.37334 0.75628 0.0
H3061 H 0.36482 0.46838 0.76256 0.0
H3062 H 0.34459 0.44026 0.76481 0.0
H3063 H 0.34791 0.39462 0.72329 0.0
H3064 H 0.31094 0.31133 0.74345 0.0
H3065 H 0.329 0.34021 0.74079 0.0
C3066 C 0.20311 0.59306 0.22644 0.0
C3067 C 0.19954 0.58136 0.24023 0.0
C3068 C 0.21159 0.61085 0.23233 0.0
C3069 C 0.23578 0.64183 0.27482 0.0
H3070 H 0.21595 0.67648 0.24793 0.0
C3071 C 0.26941 0.71327 0.2735 0.0
C3072 C 0.25899 0.72509 0.26753 0.0
C3073 C 0.26135 0.69659 0.27776 0.0
C3074 C 0.22123 0.667 0.25606 0.0
H3075 H 0.20243 0.57871 0.27084 0.0
H3076 H 0.21638 0.60965 0.281 0.0
H3077 H 0.20518 0.64492 0.23737 0.0
H3078 H 0.23256 0.73018 0.26287 0.0
H3079 H 0.21844 0.70143 0.2715 0.0
H3080 H 0.25148 0.66406 0.29388 0.0
C3081 C 0.21322 0.60515 0.2657 0.0
C3082 C 0.21544 0.64891 0.24957 0.0
C3083 C 0.20505 0.58744 0.25984 0.0
C3084 C 0.24074 0.72115 0.26768 0.0
C3085 C 0.23271 0.70472 0.27253 0.0
C3086 C 0.24131 0.65997 0.28161 0.0
C3087 C 0.21627 0.61708 0.25206 0.0
C3088 C 0.22288 0.63621 0.25868 0.0
C3089 C 0.24283 0.69177 0.27591 0.0
C3090 C 0.23435 0.67271 0.27201 0.0
H3091 H 0.19905 0.58862 0.21123 0.0
H3092 H 0.2141 0.6198 0.22151 0.0
H3093 H 0.24179 0.63225 0.28204 0.0
H3094 H 0.2836 0.71645 0.27355 0.0
H3095 H 0.26952 0.68691 0.28036 0.0
C3096 C 0.50406 0.70845 0.48206 0.0
C3097 C 0.5003 0.71175 0.46286 0.0
C3098 C 0.50545 0.69122 0.48666 0.0
C3099 C 0.50934 0.64473 0.4641 0.0
H3100 H 0.50205 0.63241 0.51507 0.0
C3101 C 0.50576 0.57155 0.48414 0.0
C3102 C 0.51384 0.56925 0.50239 0.0
C3103 C 0.50431 0.58872 0.47933 0.0
C3104 C 0.50431 0.6356 0.5008 0.0
H3105 H 0.49475 0.69875 0.43344 0.0
H3106 H 0.49653 0.66873 0.44132 0.0
H3107 H 0.49822 0.66156 0.50664 0.0
H3108 H 0.5268 0.58382 0.52982 0.0
H3109 H 0.52414 0.61363 0.52154 0.0
H3110 H 0.51482 0.61833 0.45822 0.0
C3111 C 0.49892 0.67958 0.45302 0.0
C3112 C 0.50218 0.65257 0.49587 0.0
C3113 C 0.4977 0.69694 0.44841 0.0
C3114 C 0.52046 0.58486 0.51565 0.0
C3115 C 0.51884 0.60205 0.51089 0.0
C3116 C 0.51117 0.62764 0.46895 0.0
C3117 C 0.50296 0.67629 0.47229 0.0
C3118 C 0.50477 0.65767 0.47742 0.0
C3119 C 0.51072 0.60433 0.49262 0.0
C3120 C 0.5088 0.62275 0.48744 0.0
H3121 H 0.50621 0.71934 0.49373 0.0
H3122 H 0.5089 0.68985 0.50164 0.0
H3123 H 0.51185 0.64779 0.44988 0.0
H3124 H 0.50046 0.56002 0.47343 0.0
H3125 H 0.49782 0.58968 0.46521 0.0
C3126 C 0.60978 0.26883 0.63346 0.0
C3127 C 0.59841 0.28029 0.63845 0.0
C3128 C 0.62527 0.26874 0.64551 0.0
C3129 C 0.64825 0.28269 0.69596 0.0
H3130 H 0.68831 0.27193 0.67224 0.0
C3131 C 0.717 0.28444 0.74001 0.0
C3132 C 0.72608 0.27104 0.73418 0.0
C3133 C 0.70148 0.28634 0.72891 0.0
C3134 C 0.67722 0.27477 0.67918 0.0
H3135 H 0.59471 0.3008 0.66034 0.0
H3136 H 0.62207 0.30101 0.68127 0.0
H3137 H 0.66184 0.27456 0.6521 0.0
H3138 H 0.72533 0.24838 0.71285 0.0
H3139 H 0.69861 0.25183 0.69326 0.0
H3140 H 0.66395 0.28313 0.7231 0.0
C3141 C 0.61879 0.29179 0.66806 0.0
C3142 C 0.6619 0.27626 0.66756 0.0
C3143 C 0.6031 0.29177 0.65598 0.0
C3144 C 0.71907 0.2593 0.71729 0.0
C3145 C 0.70364 0.26123 0.70613 0.0
C3146 C 0.66369 0.28134 0.70761 0.0
C3147 C 0.63018 0.28026 0.66299 0.0
C3148 C 0.64699 0.27994 0.67569 0.0
C3149 C 0.69465 0.27488 0.71167 0.0
C3150 C 0.67834 0.2771 0.69939 0.0
H3151 H 0.60664 0.25965 0.62021 0.0
H3152 H 0.63326 0.25931 0.64114 0.0
H3153 H 0.63712 0.28539 0.70289 0.0
H3154 H 0.72209 0.29368 0.75299 0.0
H3155 H 0.69506 0.29706 0.73365 0.0
C3156 C 0.01399 0.32353 0.96434 0.0
C3157 C 0.9971 0.31451 0.95522 0.0
C3158 C 0.01749 0.3422 0.97104 0.0
C3159 C -0.00052 0.3837 0.96344 0.0
H3160 H 0.02921 0.4055 0.01086 0.0
C3161 C 0.00129 0.4577 0.99477 0.0
C3162 C 0.01731 0.46855 0.00403 0.0
C3163 C -0.00031 0.43915 0.98925 0.0
C3164 C 0.02099 0.39973 -0.00256 0.0
H3165 H 0.97063 0.31849 0.94676 0.0
H3166 H 0.97662 0.35023 0.95827 0.0
H3167 H 0.02533 0.37316 0.00081 0.0
H3168 H 0.04436 0.46789 0.01455 0.0
H3169 H 0.04163 0.43571 0.00491 0.0
H3170 H 0.9951 0.41007 0.95994 0.0
C3171 C 0.98736 0.34319 0.96002 0.0
C3172 C 0.01877 0.38106 0.99165 0.0
C3173 C 0.98387 0.32472 0.9535 0.0
C3174 C 0.03174 0.46011 0.00752 0.0
C3175 C 0.03013 0.44151 0.00208 0.0
C3176 C 0.00168 0.40226 0.9692 0.0
C3177 C 0.00427 0.35244 0.96866 0.0
C3178 C 0.00775 0.37263 0.97463 0.0
C3179 C 0.01408 0.43064 0.99275 0.0
C3180 C 0.0123 0.41068 0.98643 0.0
H3181 H 0.02458 0.31627 0.96599 0.0
H3182 H 0.03071 0.34869 0.97761 0.0
H3183 H 0.99126 0.37804 0.94999 0.0
H3184 H 0.98993 0.46358 0.99155 0.0
H3185 H 0.987 0.43143 0.98235 0.0
C3186 C 0.97878 0.78796 0.12834 0.0
C3187 C 0.995 0.78391 0.13538 0.0
C3188 C 0.96487 0.78707 0.13956 0.0
C3189 C 0.94796 0.7669 0.18171 0.0
H3190 H 0.91717 0.80103 0.17891 0.0
C3191 C 0.89127 0.76374 0.22864 0.0
C3192 C 0.87474 0.76503 0.21936 0.0
C3193 C 0.90669 0.7687 0.2201 0.0
C3194 C 0.92555 0.79131 0.17981 0.0
H3195 H 0.00911 0.7757 0.16001 0.0
H3196 H 0.98486 0.77417 0.17965 0.0
H3197 H 0.94238 0.80394 0.16075 0.0
H3198 H 0.86153 0.77319 0.19422 0.0
H3199 H 0.8884 0.78202 0.17931 0.0
H3200 H 0.93107 0.75414 0.20056 0.0
C3201 C 0.98287 0.77796 0.16531 0.0
C3202 C 0.94006 0.79295 0.16932 0.0
C3203 C 0.99687 0.77895 0.15408 0.0
C3204 C 0.87413 0.77241 0.2019 0.0
C3205 C 0.88957 0.77737 0.19331 0.0
C3206 C 0.9335 0.76528 0.19221 0.0
C3207 C 0.96662 0.78202 0.15823 0.0
C3208 C 0.95146 0.7807 0.17001 0.0
C3209 C 0.90601 0.77492 0.20192 0.0
C3210 C 0.92199 0.7774 0.19139 0.0
H3211 H 0.97675 0.79182 0.11403 0.0
H3212 H 0.95258 0.79003 0.13339 0.0
H3213 H 0.95614 0.75698 0.1824 0.0
H3214 H 0.89211 0.75787 0.24198 0.0
H3215 H 0.91909 0.767 0.22745 0.0
C3216 C 0.52692 0.31237 0.16616 0.0
C3217 C 0.51754 0.29479 0.15941 0.0
C3218 C 0.52608 0.32657 0.15524 0.0
C3219 C 0.50104 0.34026 0.11205 0.0
H3220 H 0.54206 0.37931 0.11921 0.0
C3221 C 0.51453 0.39841 0.06294 0.0
C3222 C 0.52279 0.41564 0.07226 0.0
C3223 C 0.51097 0.38367 0.07344 0.0
C3224 C 0.53037 0.36866 0.11716 0.0
H3225 H 0.4998 0.27856 0.1355 0.0
H3226 H 0.49878 0.30324 0.11602 0.0
H3227 H 0.54255 0.35355 0.13642 0.0
H3228 H 0.53321 0.43089 0.10005 0.0
H3229 H 0.52681 0.40541 0.11838 0.0
H3230 H 0.48933 0.35539 0.09191 0.0
C3231 C 0.50655 0.30617 0.13008 0.0
C3232 C 0.53058 0.35376 0.12718 0.0
C3233 C 0.50722 0.29189 0.14122 0.0
C3234 C 0.5264 0.41794 0.09246 0.0
C3235 C 0.52302 0.40323 0.10293 0.0
C3236 C 0.50096 0.35513 0.10171 0.0
C3237 C 0.51607 0.32381 0.13687 0.0
C3238 C 0.51585 0.33934 0.12513 0.0
C3239 C 0.51592 0.38573 0.09352 0.0
C3240 C 0.51556 0.36969 0.10434 0.0
H3241 H 0.53488 0.31531 0.18013 0.0
H3242 H 0.53321 0.33984 0.1615 0.0
H3243 H 0.48932 0.32967 0.11002 0.0
H3244 H 0.51212 0.39605 0.04735 0.0
H3245 H 0.50558 0.37044 0.06565 0.0
C3246 C 0.97111 0.29676 0.32018 0.0
C3247 C 0.97598 0.28162 0.32737 0.0
C3248 C 0.95312 0.29704 0.31446 0.0
C3249 C 0.90717 0.27309 0.3211 0.0
H3250 H 0.89121 0.29813 0.27973 0.0
C3251 C 0.83235 0.26301 0.29397 0.0
C3252 C 0.82525 0.27731 0.28745 0.0
C3253 C 0.85067 0.26435 0.2982 0.0
C3254 C 0.89536 0.29119 0.29149 0.0
H3255 H 0.96537 0.25461 0.33316 0.0
H3256 H 0.93475 0.25487 0.32287 0.0
H3257 H 0.9228 0.29902 0.28777 0.0
H3258 H 0.83273 0.30432 0.28028 0.0
H3259 H 0.86459 0.30685 0.28789 0.0
H3260 H 0.87998 0.26531 0.32501 0.0
C3261 C 0.94454 0.26687 0.32217 0.0
C3262 C 0.91364 0.2917 0.29613 0.0
C3263 C 0.96233 0.26664 0.32795 0.0
C3264 C 0.8374 0.293 0.28523 0.0
C3265 C 0.85585 0.29439 0.28953 0.0
C3266 C 0.88903 0.27258 0.31649 0.0
C3267 C 0.93942 0.28218 0.31571 0.0
C3268 C 0.91991 0.28246 0.31091 0.0
C3269 C 0.86288 0.2801 0.29625 0.0
C3270 C 0.88264 0.28142 0.30145 0.0
H3271 H 0.98111 0.30864 0.31961 0.0
H3272 H 0.94994 0.30917 0.30965 0.0
H3273 H 0.91119 0.2662 0.33296 0.0
H3274 H 0.82373 0.25051 0.29573 0.0
H3275 H 0.85523 0.25278 0.30281 0.0
C3276 C 0.01104 0.6844 0.65291 0.0
C3277 C 0.00669 0.69841 0.64307 0.0
C3278 C 0.0126 0.66794 0.64274 0.0
C3279 C 0.00168 0.64096 0.59294 0.0
H3280 H 0.03513 0.61399 0.61323 0.0
C3281 C 0.00622 0.57172 0.55247 0.0
C3282 C 0.02237 0.56606 0.55408 0.0
C3283 C 0.00414 0.58736 0.56367 0.0
C3284 C 0.02583 0.62136 0.60709 0.0
H3285 H 0.00045 0.70567 0.61455 0.0
H3286 H 0.00341 0.67769 0.59711 0.0
H3287 H 0.03199 0.64164 0.63168 0.0
H3288 H 0.04907 0.5725 0.5687 0.0
H3289 H 0.04576 0.5999 0.58789 0.0
H3290 H 0.99607 0.62131 0.568 0.0
C3291 C 0.00534 0.679 0.61268 0.0
C3292 C 0.0238 0.63724 0.61796 0.0
C3293 C 0.00377 0.69531 0.62279 0.0
C3294 C 0.03645 0.57649 0.56713 0.0
C3295 C 0.03442 0.5922 0.57831 0.0
C3296 C 0.00384 0.62523 0.582 0.0
C3297 C 0.00983 0.66492 0.62235 0.0
C3298 C 0.01171 0.64745 0.61109 0.0
C3299 C 0.0182 0.59801 0.57686 0.0
C3300 C 0.01595 0.61502 0.58879 0.0
H3301 H 0.01349 0.68621 0.66849 0.0
H3302 H 0.01589 0.65756 0.65094 0.0
H3303 H 0.99195 0.64797 0.58703 0.0
H3304 H 0.99512 0.56397 0.54254 0.0
H3305 H 0.99131 0.59087 0.56211 0.0
C3306 C 0.603 0.79169 0.84603 0.0
C3307 C 0.58756 0.79238 0.83387 0.0
C3308 C 0.61881 0.79 0.83877 0.0
C3309 C 0.6432 0.79338 0.79504 0.0
H3310 H 0.67291 0.76727 0.82366 0.0
C3311 C 0.70874 0.77549 0.76942 0.0
C3312 C 0.72333 0.77716 0.78373 0.0
C3313 C 0.69195 0.7774 0.77432 0.0
C3314 C 0.66496 0.77478 0.8155 0.0
H3315 H 0.57736 0.79215 0.80398 0.0
H3316 H 0.60502 0.78902 0.79117 0.0
H3317 H 0.64464 0.77021 0.8337 0.0
H3318 H 0.7312 0.78206 0.81459 0.0
H3319 H 0.70226 0.78504 0.82303 0.0
H3320 H 0.66369 0.79754 0.77659 0.0
C3321 C 0.60481 0.78989 0.80658 0.0
C3322 C 0.64856 0.77656 0.82136 0.0
C3323 C 0.5888 0.79162 0.81393 0.0
C3324 C 0.72044 0.78066 0.80306 0.0
C3325 C 0.70368 0.78229 0.80795 0.0
C3326 C 0.65964 0.79143 0.78905 0.0
C3327 C 0.62013 0.78877 0.81888 0.0
C3328 C 0.63737 0.78615 0.8115 0.0
C3329 C 0.68904 0.78072 0.79372 0.0
C3330 C 0.67097 0.78229 0.79935 0.0
H3331 H 0.60296 0.7924 0.86146 0.0
H3332 H 0.63014 0.7898 0.84902 0.0
H3333 H 0.63527 0.80096 0.78698 0.0
H3334 H 0.71032 0.77285 0.75437 0.0
H3335 H 0.68114 0.77595 0.76286 0.0
C3336 C 0.46303 0.52577 0.71044 0.0
C3337 C 0.44548 0.51753 0.71166 0.0
C3338 C 0.4694 0.52596 0.69258 0.0
C3339 C 0.45873 0.50442 0.64142 0.0
H3340 H 0.49207 0.54638 0.63204 0.0
C3341 C 0.49416 0.50579 0.57379 0.0
C3342 C 0.49536 0.52116 0.56429 0.0
C3343 C 0.48777 0.5055 0.59153 0.0
C3344 C 0.48262 0.53466 0.63439 0.0
H3345 H 0.4209 0.50287 0.69505 0.0
H3346 H 0.43173 0.50367 0.66405 0.0
H3347 H 0.48171 0.54532 0.66348 0.0
H3348 H 0.49164 0.54853 0.56606 0.0
H3349 H 0.48072 0.54824 0.5976 0.0
H3350 H 0.45934 0.49399 0.61217 0.0
C3351 C 0.4408 0.50965 0.67683 0.0
C3352 C 0.47686 0.5339 0.65252 0.0
C3353 C 0.43452 0.50929 0.69467 0.0
C3354 C 0.49037 0.5364 0.57297 0.0
C3355 C 0.48435 0.53627 0.59105 0.0
C3356 C 0.46443 0.50522 0.62331 0.0
C3357 C 0.45831 0.51806 0.67548 0.0
C3358 C 0.46481 0.51877 0.6563 0.0
C3359 C 0.4829 0.52075 0.60046 0.0
C3360 C 0.47646 0.52032 0.61958 0.0
H3361 H 0.47186 0.53215 0.72327 0.0
H3362 H 0.48305 0.53226 0.69223 0.0
H3363 H 0.44968 0.49242 0.64375 0.0
H3364 H 0.49817 0.49395 0.56742 0.0
H3365 H 0.48704 0.49343 0.59848 0.0
C3366 C 0.74852 0.13296 0.9741 0.0
C3367 C 0.75433 0.14043 0.99316 0.0
C3368 C 0.7518 0.14331 0.95927 0.0
C3369 C 0.77753 0.1867 0.94819 0.0
H3370 H 0.74052 0.17764 0.90479 0.0
C3371 C 0.75735 0.23345 0.89381 0.0
C3372 C 0.75245 0.22533 0.87468 0.0
C3373 C 0.76403 0.22393 0.90773 0.0
C3374 C 0.75113 0.18008 0.91666 0.0
H3375 H 0.76773 0.16432 0.01222 0.0
H3376 H 0.77233 0.18304 0.98632 0.0
H3377 H 0.7375 0.15948 0.93079 0.0
H3378 H 0.75242 0.20177 0.85462 0.0
H3379 H 0.76378 0.1851 0.87905 0.0
H3380 H 0.7903 0.20848 0.93425 0.0
C3381 C 0.76602 0.169 0.98262 0.0
C3382 C 0.74944 0.16965 0.93157 0.0
C3383 C 0.76323 0.15841 -0.00256 0.0
C3384 C 0.75601 0.20832 0.86929 0.0
C3385 C 0.76259 0.19882 0.8832 0.0
C3386 C 0.779 0.1975 0.93333 0.0
C3387 C 0.76037 0.16153 0.96334 0.0
C3388 C 0.76262 0.17273 0.9475 0.0
C3389 C 0.76568 0.20619 0.90261 0.0
C3390 C 0.76579 0.19413 0.91748 0.0
H3391 H 0.74185 0.11899 0.97065 0.0
H3392 H 0.74767 0.13697 0.9446 0.0
H3393 H 0.78801 0.18933 0.96017 0.0
H3394 H 0.75511 0.24673 0.89816 0.0
H3395 H 0.7663 0.22979 0.92269 0.0
C3396 C 0.12838 0.5412 0.19379 0.0
C3397 C 0.12444 0.52581 0.20305 0.0
C3398 C 0.12008 0.54155 0.17542 0.0
C3399 C 0.08269 0.51829 0.13958 0.0
H3400 H 0.11206 0.54063 0.10375 0.0
C3401 C 0.05985 0.51224 0.05969 0.0
C3402 C 0.05125 0.52663 0.05856 0.0
C3403 C 0.07299 0.51292 0.07494 0.0
C3404 C 0.1039 0.53423 0.11366 0.0
H3405 H 0.10831 0.49907 0.20113 0.0
H3406 H 0.09395 0.49945 0.16868 0.0
H3407 H 0.12499 0.53979 0.13687 0.0
H3408 H 0.05008 0.55342 0.07085 0.0
H3409 H 0.07359 0.55482 0.0974 0.0
H3410 H 0.06171 0.5126 0.11621 0.0
C3411 C 0.10326 0.51135 0.17568 0.0
C3412 C 0.11112 0.53392 0.13257 0.0
C3413 C 0.1114 0.51112 0.19423 0.0
C3414 C 0.05682 0.54232 0.07159 0.0
C3415 C 0.07023 0.54315 0.08656 0.0
C3416 C 0.07559 0.51838 0.12066 0.0
C3417 C 0.10791 0.5264 0.16593 0.0
C3418 C 0.10049 0.52617 0.14576 0.0
C3419 C 0.07765 0.5281 0.0888 0.0
C3420 C 0.08612 0.52649 0.10777 0.0
H3421 H 0.13832 0.55277 0.2005 0.0
H3422 H 0.12351 0.55354 0.1685 0.0
H3423 H 0.07413 0.51247 0.14944 0.0
H3424 H 0.05534 0.4999 0.04993 0.0
H3425 H 0.07839 0.50109 0.07684 0.0
C3426 C 0.77701 0.83389 0.47654 0.0
C3427 C 0.78163 0.85262 0.48104 0.0
C3428 C 0.77484 0.82597 0.45734 0.0
C3429 C 0.79002 0.83543 0.41093 0.0
H3430 H 0.75326 0.7943 0.3889 0.0
C3431 C 0.77737 0.8103 0.32977 0.0
C3432 C 0.77497 0.79175 0.32421 0.0
C3433 C 0.77805 0.81708 0.34907 0.0
C3434 C 0.76371 0.80566 0.39496 0.0
H3435 H 0.78734 0.87788 0.46938 0.0
H3436 H 0.78378 0.86416 0.43586 0.0
H3437 H 0.75372 0.80767 0.42219 0.0
H3438 H 0.77141 0.76567 0.33436 0.0
H3439 H 0.77215 0.77755 0.36833 0.0
H3440 H 0.79994 0.83356 0.38376 0.0
C3441 C 0.7818 0.8555 0.44702 0.0
C3442 C 0.76396 0.81333 0.41399 0.0
C3443 C 0.78372 0.86338 0.46615 0.0
C3444 C 0.77335 0.78005 0.33834 0.0
C3445 C 0.77364 0.78683 0.3577 0.0
C3446 C 0.78973 0.82783 0.39196 0.0
C3447 C 0.77761 0.83668 0.44238 0.0
C3448 C 0.77709 0.82837 0.42217 0.0
C3449 C 0.77602 0.80544 0.36325 0.0
C3450 C 0.77655 0.81292 0.38371 0.0
H3451 H 0.77534 0.82539 0.48789 0.0
H3452 H 0.77166 0.81145 0.45428 0.0
H3453 H 0.80054 0.84675 0.41688 0.0
H3454 H 0.77877 0.81962 0.31916 0.0
H3455 H 0.77983 0.83147 0.35287 0.0
C3456 C 0.45921 0.50242 0.81062 0.0
C3457 C 0.4454 0.51108 0.80539 0.0
C3458 C 0.46699 0.50438 0.82977 0.0
C3459 C 0.47125 0.53216 0.87744 0.0
H3460 H 0.48267 0.48961 0.8969 0.0
C3461 C 0.48748 0.52803 0.95878 0.0
C3462 C 0.50118 0.51937 0.96462 0.0
C3463 C 0.48147 0.52759 0.93927 0.0
C3464 C 0.47977 0.50168 0.89166 0.0
H3465 H 0.42916 0.52893 0.81621 0.0
H3466 H 0.44246 0.53206 0.84966 0.0
H3467 H 0.47087 0.4881 0.8632 0.0
H3468 H 0.5196 0.50387 0.95422 0.0
H3469 H 0.50891 0.50285 0.9202 0.0
H3470 H 0.4799 0.54563 0.90607 0.0
C3471 C 0.44752 0.52396 0.83892 0.0
C3472 C 0.47301 0.50084 0.87228 0.0
C3473 C 0.43982 0.5221 0.81972 0.0
C3474 C 0.50881 0.51038 0.95036 0.0
C3475 C 0.50269 0.50983 0.9308 0.0
C3476 C 0.47794 0.53297 0.89686 0.0
C3477 C 0.46107 0.51494 0.84426 0.0
C3478 C 0.46863 0.51605 0.86488 0.0
C3479 C 0.48894 0.51843 0.92501 0.0
C3480 C 0.48224 0.51773 0.90423 0.0
H3481 H 0.46393 0.49395 0.79992 0.0
H3482 H 0.47763 0.49753 0.83323 0.0
H3483 H 0.46828 0.54422 0.87224 0.0
H3484 H 0.48129 0.53517 0.96929 0.0
H3485 H 0.47074 0.5342 0.93537 0.0
C3486 C 0.7714 0.15369 0.09953 0.0
C3487 C 0.76219 0.15766 0.08279 0.0
C3488 C 0.77187 0.16396 0.11703 0.0
C3489 C 0.76666 0.20763 0.13813 0.0
H3490 H 0.75853 0.18334 0.18317 0.0
C3491 C 0.75541 0.24347 0.2091 0.0
C3492 C 0.76753 0.24201 0.22479 0.0
C3493 C 0.75405 0.23236 0.19196 0.0
C3494 C 0.76087 0.19016 0.17065 0.0
H3495 H 0.74663 0.17559 0.07098 0.0
H3496 H 0.74736 0.19359 0.10183 0.0
H3497 H 0.75759 0.1656 0.15199 0.0
H3498 H 0.78718 0.22746 0.23538 0.0
H3499 H 0.78454 0.20776 0.2052 0.0
H3500 H 0.76973 0.23216 0.1568 0.0
C3501 C 0.75427 0.18259 0.10127 0.0
C3502 C 0.76039 0.18013 0.15295 0.0
C3503 C 0.75384 0.17232 0.0837 0.0
C3504 C 0.77781 0.22887 0.22339 0.0
C3505 C 0.77627 0.2176 0.20629 0.0
C3506 C 0.76698 0.21763 0.15577 0.0
C3507 C 0.76315 0.17833 0.11804 0.0
C3508 C 0.76333 0.18883 0.13661 0.0
C3509 C 0.76461 0.21956 0.19047 0.0
C3510 C 0.76409 0.20891 0.17203 0.0
H3511 H 0.77808 0.14251 0.09919 0.0
H3512 H 0.77906 0.16067 0.12976 0.0
H3513 H 0.76925 0.21457 0.12575 0.0
H3514 H 0.74714 0.25332 0.20997 0.0
H3515 H 0.74487 0.23383 0.17982 0.0
C3516 C 0.12734 0.54323 0.28987 0.0
C3517 C 0.14175 0.53495 0.28839 0.0
C3518 C 0.11763 0.54096 0.30518 0.0
C3519 C 0.10821 0.51346 0.34445 0.0
H3520 H 0.09321 0.55622 0.36504 0.0
C3521 C 0.08252 0.53463 0.41725 0.0
C3522 C 0.06785 0.54269 0.41431 0.0
C3523 C 0.08942 0.52737 0.40147 0.0
C3524 C 0.09718 0.54414 0.35928 0.0
H3525 H 0.15746 0.51781 0.30157 0.0
H3526 H 0.14083 0.51447 0.32905 0.0
H3527 H 0.11111 0.5578 0.33898 0.0
H3528 H 0.04732 0.5472 0.39326 0.0
H3529 H 0.05946 0.5346 0.36564 0.0
H3530 H 0.09462 0.50017 0.36576 0.0
C3531 C 0.13676 0.52228 0.31805 0.0
C3532 C 0.10739 0.54501 0.34435 0.0
C3533 C 0.14633 0.52431 0.30245 0.0
C3534 C 0.05889 0.54142 0.39573 0.0
C3535 C 0.06566 0.53402 0.38003 0.0
C3536 C 0.09811 0.51267 0.35976 0.0
C3537 C 0.1224 0.53072 0.31959 0.0
C3538 C 0.11267 0.52962 0.33644 0.0
C3539 C 0.08158 0.52807 0.38277 0.0
C3540 C 0.09225 0.52797 0.36688 0.0
H3541 H 0.12338 0.55126 0.27904 0.0
H3542 H 0.10635 0.54726 0.30571 0.0
H3543 H 0.11217 0.50141 0.33863 0.0
H3544 H 0.0895 0.53534 0.43156 0.0
H3545 H 0.1018 0.52295 0.4038 0.0
C3546 C 0.77486 0.86122 0.59326 0.0
C3547 C 0.78029 0.85127 0.57792 0.0
C3548 C 0.7733 0.85448 0.61089 0.0
C3549 C 0.76942 0.81193 0.63301 0.0
H3550 H 0.78324 0.84405 0.68086 0.0
C3551 C 0.77923 0.78619 0.7067 0.0
C3552 C 0.77255 0.7945 0.72223 0.0
C3553 C 0.77936 0.79327 0.6892 0.0
C3554 C 0.77914 0.83495 0.66761 0.0
H3555 H 0.78852 0.82648 0.56921 0.0
H3556 H 0.7862 0.8149 0.59999 0.0
H3557 H 0.78536 0.8561 0.65021 0.0
H3558 H 0.7607 0.81683 0.73145 0.0
H3559 H 0.76109 0.82934 0.70081 0.0
H3560 H 0.76355 0.79075 0.65047 0.0
C3561 C 0.78275 0.82776 0.59832 0.0
C3562 C 0.78032 0.84184 0.65001 0.0
C3563 C 0.7842 0.83446 0.58066 0.0
C3564 C 0.76602 0.81015 0.71982 0.0
C3565 C 0.76629 0.81733 0.70229 0.0
C3566 C 0.76836 0.80504 0.65059 0.0
C3567 C 0.77722 0.83764 0.61367 0.0
C3568 C 0.77559 0.83041 0.63246 0.0
C3569 C 0.77291 0.80892 0.68676 0.0
C3570 C 0.77331 0.81644 0.6681 0.0
H3571 H 0.77166 0.87419 0.59163 0.0
H3572 H 0.76877 0.86238 0.62224 0.0
H3573 H 0.76528 0.80275 0.61983 0.0
H3574 H 0.78446 0.77418 0.70803 0.0
H3575 H 0.78478 0.78661 0.67763 0.0
C3576 C 0.71707 0.43514 0.47475 0.0
C3577 C 0.73266 0.44336 0.48688 0.0
C3578 C 0.70182 0.44188 0.47613 0.0
C3579 C 0.68137 0.4621 0.51199 0.0
H3580 H 0.65773 0.48672 0.47486 0.0
C3581 C 0.64247 0.50975 0.53807 0.0
C3582 C 0.62454 0.50171 0.53415 0.0
C3583 C 0.65419 0.50426 0.52641 0.0
C3584 C 0.66422 0.47971 0.48514 0.0
H3585 H 0.7449 0.46511 0.50955 0.0
H3586 H 0.71827 0.47658 0.51203 0.0
H3587 H 0.68113 0.47121 0.46547 0.0
H3588 H 0.60426 0.48311 0.51431 0.0
H3589 H 0.62511 0.47294 0.49426 0.0
H3590 H 0.66524 0.47106 0.5319 0.0
C3591 C 0.71791 0.46516 0.5014 0.0
C3592 C 0.6773 0.47081 0.47979 0.0
C3593 C 0.73307 0.45861 0.49993 0.0
C3594 C 0.61816 0.4893 0.51757 0.0
C3595 C 0.62993 0.48371 0.50599 0.0
C3596 C 0.66848 0.47097 0.5173 0.0
C3597 C 0.70223 0.45663 0.48978 0.0
C3598 C 0.6862 0.46252 0.49346 0.0
C3599 C 0.648 0.49059 0.51098 0.0
C3600 C 0.66033 0.48027 0.50411 0.0
H3601 H 0.71659 0.42338 0.46457 0.0
H3602 H 0.68965 0.43522 0.46719 0.0
H3603 H 0.68818 0.45565 0.52261 0.0
H3604 H 0.64744 0.51965 0.55056 0.0
H3605 H 0.66822 0.50954 0.53038 0.0
C3606 C 0.19497 0.13452 0.52508 0.0
C3607 C 0.2055 0.13247 0.51037 0.0
C3608 C 0.17817 0.12373 0.524 0.0
C3609 C 0.149 0.08145 0.49835 0.0
H3610 H 0.11352 0.10127 0.52296 0.0
C3611 C 0.07297 0.05013 0.49478 0.0
C3612 C 0.06859 0.04645 0.51298 0.0
C3613 C 0.08984 0.05969 0.4929 0.0
C3614 C 0.12333 0.09562 0.51602 0.0
H3615 H 0.20659 0.11756 0.4828 0.0
H3616 H 0.17685 0.09914 0.48043 0.0
H3617 H 0.14217 0.12039 0.52171 0.0
H3618 H 0.07808 0.04958 0.54342 0.0
H3619 H 0.1073 0.06722 0.54028 0.0
H3620 H 0.12953 0.05678 0.49214 0.0
C3621 C 0.18177 0.10877 0.49314 0.0
C3622 C 0.13983 0.10648 0.51543 0.0
C3623 C 0.1988 0.1194 0.49442 0.0
C3624 C 0.08128 0.05223 0.52924 0.0
C3625 C 0.09789 0.0623 0.52746 0.0
C3626 C 0.13229 0.07068 0.49858 0.0
C3627 C 0.1712 0.11079 0.50795 0.0
C3628 C 0.15309 0.09948 0.507 0.0
C3629 C 0.10227 0.06613 0.5093 0.0
C3630 C 0.11948 0.07763 0.50774 0.0
H3631 H 0.1998 0.14432 0.53769 0.0
H3632 H 0.17079 0.12543 0.536 0.0
H3633 H 0.15883 0.07545 0.4919 0.0
H3634 H 0.06335 0.04564 0.48207 0.0
H3635 H 0.09301 0.06253 0.47878 0.0
C3636 C 0.17042 0.98787 0.77997 0.0
C3637 C 0.15264 0.98393 0.78306 0.0
C3638 C 0.18029 0.97449 0.77967 0.0
C3639 C 0.18191 0.93018 0.79501 0.0
H3640 H 0.21153 0.92698 0.75444 0.0
C3641 C 0.20956 0.86802 0.77019 0.0
C3642 C 0.2259 0.87114 0.76318 0.0
C3643 C 0.20247 0.88249 0.77706 0.0
C3644 C 0.20362 0.92791 0.76612 0.0
H3645 H 0.13123 0.96291 0.78829 0.0
H3646 H 0.14849 0.93948 0.78761 0.0
H3647 H 0.19482 0.95066 0.75653 0.0
H3648 H 0.24838 0.89126 0.75904 0.0
H3649 H 0.23622 0.91666 0.77147 0.0
H3650 H 0.19045 0.90702 0.80423 0.0
C3651 C 0.15482 0.95297 0.78565 0.0
C3652 C 0.194 0.94144 0.76725 0.0
C3653 C 0.14492 0.96635 0.78588 0.0
C3654 C 0.2358 0.88868 0.76458 0.0
C3655 C 0.22876 0.90314 0.77148 0.0
C3656 C 0.19156 0.91657 0.79385 0.0
C3657 C 0.17259 0.95692 0.7825 0.0
C3658 C 0.18301 0.94269 0.78167 0.0
C3659 C 0.21165 0.90019 0.77684 0.0
C3660 C 0.20249 0.91532 0.77936 0.0
H3661 H 0.17674 0.00128 0.77774 0.0
H3662 H 0.19401 0.97795 0.77737 0.0
H3663 H 0.17365 0.93094 0.80638 0.0
H3664 H 0.2017 0.8545 0.76893 0.0
H3665 H 0.18923 0.87982 0.78101 0.0
C3666 C 0.34537 0.94947 0.02943 0.0
C3667 C 0.33244 0.95214 0.0152 0.0
C3668 C 0.36312 0.9551 0.02764 0.0
C3669 C 0.39246 0.98777 0.00744 0.0
H3670 H 0.42507 0.95552 0.01193 0.0
C3671 C 0.46501 0.01185 0.00174 0.0
C3672 C 0.47693 0.00625 0.01501 0.0
C3673 C 0.44731 0.00369 -0.00077 0.0
C3674 C 0.4161 0.96466 0.0108 0.0
H3675 H 0.32775 0.96303 0.98816 0.0
H3676 H 0.35878 0.97294 0.98527 0.0
H3677 H 0.39369 0.94419 0.01312 0.0
H3678 H 0.47984 0.98777 0.03581 0.0
H3679 H 0.44857 0.97473 0.03299 0.0
H3680 H 0.41466 0.00847 0.00612 0.0
C3681 C 0.35513 0.96649 -0.00232 0.0
C3682 C 0.39827 0.95819 0.01142 0.0
C3683 C 0.33745 0.96089 -0.00056 0.0
C3684 C 0.47086 0.99255 0.02586 0.0
C3685 C 0.45303 0.98481 0.02387 0.0
C3686 C 0.41026 0.99431 0.00714 0.0
C3687 C 0.36798 0.96349 0.01169 0.0
C3688 C 0.38649 0.96981 0.00998 0.0
C3689 C 0.44115 0.9903 0.01048 0.0
C3690 C 0.42223 0.98287 0.00908 0.0
H3691 H 0.34181 0.9427 0.04166 0.0
H3692 H 0.37304 0.95299 0.0387 0.0
H3693 H 0.38344 0.99688 0.0064 0.0
H3694 H 0.46931 0.0222 0.99292 0.0
H3695 H 0.43846 0.0079 0.9885 0.0
C3696 C 0.86354 0.58095 0.79963 0.0
C3697 C 0.85403 0.56326 0.79463 0.0
C3698 C 0.85459 0.595 0.80062 0.0
C3699 C 0.81418 0.60528 0.77921 0.0
H3700 H 0.82914 0.64913 0.81497 0.0
C3701 C 0.78729 0.66539 0.76385 0.0
C3702 C 0.80117 0.67811 0.75897 0.0
C3703 C 0.7909 0.65262 0.77547 0.0
C3704 C 0.82464 0.6368 0.8052 0.0
H3705 H 0.82784 0.54613 0.78729 0.0
H3706 H 0.81235 0.57061 0.78928 0.0
H3707 H 0.84124 0.62262 0.82108 0.0
H3708 H 0.82937 0.68873 0.76365 0.0
H3709 H 0.8358 0.66594 0.78376 0.0
H3710 H 0.79821 0.61949 0.7629 0.0
C3711 C 0.82663 0.57367 0.79226 0.0
C3712 C 0.83161 0.6218 0.80855 0.0
C3713 C 0.83552 0.5597 0.7911 0.0
C3714 C 0.81856 0.6788 0.76702 0.0
C3715 C 0.82217 0.66605 0.77877 0.0
C3716 C 0.80708 0.62011 0.77602 0.0
C3717 C 0.83609 0.59141 0.79672 0.0
C3718 C 0.82682 0.60618 0.79522 0.0
C3719 C 0.80841 0.65246 0.7823 0.0
C3720 C 0.81269 0.63609 0.78866 0.0
H3721 H 0.87783 0.58395 0.80243 0.0
H3722 H 0.86217 0.60865 0.80374 0.0
H3723 H 0.81057 0.59353 0.76848 0.0
H3724 H 0.77375 0.66467 0.75778 0.0
H3725 H 0.78018 0.64209 0.77796 0.0
C3726 C 0.80631 0.62102 0.01125 0.0
C3727 C 0.80832 0.63705 0.00286 0.0
C3728 C 0.81989 0.61152 0.01235 0.0
C3729 C 0.85991 0.60501 0.99143 0.0
H3730 H 0.87093 0.58674 0.03964 0.0
C3731 C 0.92274 0.57777 0.0154 0.0
C3732 C 0.92006 0.56337 0.02633 0.0
C3733 C 0.90846 0.58509 0.00869 0.0
C3734 C 0.86782 0.59151 0.02598 0.0
H3735 H 0.82601 0.65559 0.9888 0.0
H3736 H 0.84977 0.63893 0.99075 0.0
H3737 H 0.84765 0.60368 0.03646 0.0
H3738 H 0.90065 0.54427 0.03751 0.0
H3739 H 0.87563 0.55676 0.0255 0.0
H3740 H 0.8805 0.59302 0.98119 0.0
C3741 C 0.83765 0.6337 0.99638 0.0
C3742 C 0.85452 0.60124 0.02418 0.0
C3743 C 0.8241 0.64329 0.99539 0.0
C3744 C 0.90289 0.55531 0.02897 0.0
C3745 C 0.88867 0.56257 0.02228 0.0
C3746 C 0.87334 0.59528 0.99327 0.0
C3747 C 0.83572 0.6178 0.005 0.0
C3748 C 0.85027 0.60793 0.00684 0.0
C3749 C 0.89146 0.57809 0.01301 0.0
C3750 C 0.87723 0.58826 0.0105 0.0
H3751 H 0.79433 0.6159 0.01717 0.0
H3752 H 0.81796 0.5992 0.01891 0.0
H3753 H 0.85686 0.60997 0.97787 0.0
H3754 H 0.93599 0.58426 0.01347 0.0
H3755 H 0.91094 0.59707 0.00159 0.0
C3756 C 0.17025 0.09395 0.79752 0.0
C3757 C 0.15658 0.08769 0.78223 0.0
C3758 C 0.18141 0.11076 0.79813 0.0
C3759 C 0.18529 0.15324 0.77548 0.0
H3760 H 0.235 0.15943 0.79447 0.0
C3761 C 0.23847 0.21049 0.75817 0.0
C3762 C 0.24801 0.22162 0.77442 0.0
C3763 C 0.22789 0.19403 0.76021 0.0
C3764 C 0.22112 0.15783 0.78923 0.0
H3765 H 0.14401 0.09386 0.75548 0.0
H3766 H 0.16383 0.12258 0.75598 0.0
H3767 H 0.2149 0.13099 0.79622 0.0
H3768 H 0.2548 0.22444 0.80534 0.0
H3769 H 0.2369 0.19497 0.80887 0.0
H3770 H 0.19182 0.17984 0.76767 0.0
C3771 C 0.16562 0.11502 0.76796 0.0
C3772 C 0.20956 0.14163 0.79034 0.0
C3773 C 0.15429 0.09845 0.76758 0.0
C3774 C 0.24761 0.21583 0.79265 0.0
C3775 C 0.23739 0.19912 0.79465 0.0
C3776 C 0.19691 0.16924 0.77401 0.0
C3777 C 0.17931 0.12146 0.78325 0.0
C3778 C 0.19151 0.13905 0.78328 0.0
C3779 C 0.22712 0.18833 0.77849 0.0
C3780 C 0.21491 0.17158 0.78071 0.0
H3781 H 0.17222 0.08592 0.80906 0.0
H3782 H 0.1916 0.11537 0.81029 0.0
H3783 H 0.17144 0.152 0.7704 0.0
H3784 H 0.23859 0.21489 0.74402 0.0
H3785 H 0.2201 0.18585 0.74757 0.0
C3786 C 0.34552 0.94762 0.2595 0.0
C3787 C 0.34262 0.96156 0.27252 0.0
C3788 C 0.34003 0.92991 0.26268 0.0
C3789 C 0.30719 0.90216 0.2835 0.0
H3790 H 0.33804 0.86796 0.28201 0.0
C3791 C 0.27976 0.82894 0.28665 0.0
C3792 C 0.28538 0.81686 0.27352 0.0
C3793 C 0.28889 0.84654 0.29067 0.0
C3794 C 0.32933 0.87741 0.28242 0.0
H3795 H 0.33153 0.96811 0.29882 0.0
H3796 H 0.32184 0.93713 0.30411 0.0
H3797 H 0.35015 0.89967 0.28036 0.0
H3798 H 0.30474 0.81361 0.25428 0.0
H3799 H 0.31944 0.84501 0.25942 0.0
H3800 H 0.28615 0.88013 0.28419 0.0
C3801 C 0.3284 0.93998 0.29162 0.0
C3802 C 0.33624 0.8954 0.28154 0.0
C3803 C 0.33382 0.95761 0.28845 0.0
C3804 C 0.29997 0.82275 0.26411 0.0
C3805 C 0.30866 0.84059 0.2675 0.0
C3806 C 0.30024 0.88422 0.28405 0.0
C3807 C 0.33161 0.92613 0.27884 0.0
C3808 C 0.32506 0.90768 0.2817 0.0
C3809 C 0.30318 0.85257 0.28085 0.0
C3810 C 0.31118 0.87167 0.28309 0.0
H3811 H 0.35232 0.95037 0.24716 0.0
H3812 H 0.34221 0.91919 0.25251 0.0
H3813 H 0.29843 0.91157 0.2835 0.0
H3814 H 0.26862 0.8248 0.29425 0.0
H3815 H 0.2846 0.85546 0.30128 0.0
C3816 C 0.54641 0.34596 0.58957 0.0
C3817 C 0.54272 0.33027 0.5762 0.0
C3818 C 0.54405 0.36265 0.58389 0.0
C3819 C 0.53426 0.38531 0.53889 0.0
H3820 H 0.52736 0.42305 0.57652 0.0
C3821 C 0.51339 0.45117 0.51688 0.0
C3822 C 0.52126 0.46746 0.52854 0.0
C3823 C 0.51579 0.43448 0.52251 0.0
C3824 C 0.52936 0.41273 0.56575 0.0
H3825 H 0.53321 0.32009 0.54633 0.0
H3826 H 0.52808 0.34832 0.53677 0.0
H3827 H 0.53182 0.3947 0.58671 0.0
H3828 H 0.53818 0.47856 0.5553 0.0
H3829 H 0.54236 0.44988 0.56489 0.0
H3830 H 0.53124 0.40338 0.51788 0.0
C3831 C 0.5336 0.34831 0.55151 0.0
C3832 C 0.53206 0.39628 0.57166 0.0
C3833 C 0.53639 0.33182 0.55708 0.0
C3834 C 0.53168 0.46644 0.54592 0.0
C3835 C 0.53404 0.44984 0.55154 0.0
C3836 C 0.53124 0.40165 0.53295 0.0
C3837 C 0.53749 0.36423 0.56469 0.0
C3838 C 0.53463 0.38212 0.55839 0.0
C3839 C 0.52613 0.43351 0.54001 0.0
C3840 C 0.52882 0.41572 0.54627 0.0
H3841 H 0.55145 0.34542 0.6044 0.0
H3842 H 0.54766 0.37432 0.59466 0.0
H3843 H 0.5366 0.37533 0.52799 0.0
H3844 H 0.50534 0.45125 0.50339 0.0
H3845 H 0.50932 0.42229 0.51323 0.0
C3846 C 0.42705 0.74091 0.39838 0.0
C3847 C 0.44389 0.75133 0.39748 0.0
C3848 C 0.41225 0.74255 0.38598 0.0
C3849 C 0.39529 0.77276 0.35312 0.0
H3850 H 0.35898 0.73008 0.33541 0.0
C3851 C 0.33439 0.77213 0.29635 0.0
C3852 C 0.31788 0.76222 0.29941 0.0
C3853 C 0.35001 0.77116 0.30784 0.0
C3854 C 0.36887 0.74221 0.34035 0.0
H3855 H 0.45813 0.77189 0.38266 0.0
H3856 H 0.43235 0.77463 0.36086 0.0
H3857 H 0.38559 0.72775 0.35563 0.0
H3858 H 0.30509 0.74349 0.31718 0.0
H3859 H 0.33222 0.74178 0.33719 0.0
H3860 H 0.37849 0.78714 0.33754 0.0
C3861 C 0.43055 0.76522 0.37132 0.0
C3862 C 0.38422 0.74089 0.35205 0.0
C3863 C 0.44543 0.76355 0.38376 0.0
C3864 C 0.3175 0.75129 0.31433 0.0
C3865 C 0.33313 0.75023 0.32575 0.0
C3866 C 0.37992 0.77406 0.34129 0.0
C3867 C 0.41369 0.75467 0.37217 0.0
C3868 C 0.39763 0.75615 0.35886 0.0
C3869 C 0.34966 0.76013 0.3227 0.0
C3870 C 0.36637 0.75882 0.33488 0.0
H3871 H 0.42522 0.73142 0.40876 0.0
H3872 H 0.39956 0.73442 0.38749 0.0
H3873 H 0.40512 0.7849 0.35814 0.0
H3874 H 0.33527 0.78086 0.28516 0.0
H3875 H 0.36242 0.77888 0.3049 0.0
C3876 C 0.04339 0.72467 0.05559 0.0
C3877 C 0.04125 0.73157 0.07433 0.0
C3878 C 0.04201 0.70612 0.05034 0.0
C3879 C 0.02774 0.66064 0.06771 0.0
H3880 H 0.05296 0.64472 0.02695 0.0
C3881 C 0.019 0.58454 0.04083 0.0
C3882 C 0.03289 0.57779 0.03338 0.0
C3883 C 0.02006 0.60306 0.04542 0.0
C3884 C 0.04598 0.64879 0.03857 0.0
H3885 H 0.03596 0.72394 0.10223 0.0
H3886 H 0.0342 0.69198 0.0935 0.0
H3887 H 0.05493 0.6766 0.03588 0.0
H3888 H 0.05892 0.58597 0.02513 0.0
H3889 H 0.06107 0.61815 0.03353 0.0
H3890 H 0.01959 0.63292 0.07114 0.0
C3891 C 0.03645 0.7007 0.08247 0.0
C3892 C 0.04684 0.66731 0.04353 0.0
C3893 C 0.03758 0.71924 0.08762 0.0
C3894 C 0.04796 0.59042 0.03081 0.0
C3895 C 0.04909 0.60906 0.03553 0.0
C3896 C 0.02711 0.64217 0.06296 0.0
C3897 C 0.03869 0.69368 0.06371 0.0
C3898 C 0.03771 0.67369 0.05822 0.0
C3899 C 0.03513 0.61578 0.04297 0.0
C3900 C 0.03615 0.63579 0.04823 0.0
H3901 H 0.04616 0.73363 0.04485 0.0
H3902 H 0.04344 0.70161 0.03563 0.0
H3903 H 0.02017 0.66455 0.07883 0.0
H3904 H 0.00703 0.5755 0.04303 0.0
H3905 H 0.00876 0.60732 0.05062 0.0
C3906 C 0.0456 0.2578 0.88624 0.0
C3907 C 0.04876 0.2662 0.90542 0.0
C3908 C 0.0595 0.25822 0.87491 0.0
C3909 C 0.10426 0.28483 0.87207 0.0
H3910 H 0.11 0.24385 0.8379 0.0
C3911 C 0.16759 0.2884 0.83741 0.0
C3912 C 0.16551 0.2836 0.8174 0.0
C3913 C 0.15357 0.2834 0.84798 0.0
C3914 C 0.10852 0.25543 0.84732 0.0
H3915 H 0.06913 0.28148 0.92763 0.0
H3916 H 0.09306 0.28225 0.9081 0.0
H3917 H 0.08458 0.24125 0.85612 0.0
H3918 H 0.14756 0.26888 0.79288 0.0
H3919 H 0.12294 0.26 0.81138 0.0
H3920 H 0.12798 0.29906 0.86341 0.0
C3921 C 0.07989 0.27544 0.90165 0.0
C3922 C 0.09392 0.25397 0.85771 0.0
C3923 C 0.06612 0.27491 0.91294 0.0
C3924 C 0.14953 0.27261 0.80834 0.0
C3925 C 0.13543 0.26757 0.81894 0.0
C3926 C 0.11878 0.28625 0.86182 0.0
C3927 C 0.07683 0.26723 0.88243 0.0
C3928 C 0.09173 0.26863 0.87043 0.0
C3929 C 0.13704 0.27362 0.83877 0.0
C3930 C 0.12129 0.27156 0.84948 0.0
H3931 H 0.03242 0.25086 0.87999 0.0
H3932 H 0.0566 0.2518 0.86016 0.0
H3933 H 0.10282 0.29657 0.88125 0.0
H3934 H 0.17976 0.29692 0.84471 0.0
H3935 H 0.15544 0.28794 0.86328 0.0
C3936 C 0.52609 0.75569 0.91022 0.0
C3937 C 0.529 0.7554 0.89082 0.0
C3938 C 0.52532 0.74028 0.91952 0.0
C3939 C 0.53654 0.69466 0.91628 0.0
H3940 H 0.50326 0.687 0.9533 0.0
C3941 C 0.51635 0.62699 0.94796 0.0
C3942 C 0.51237 0.62766 0.96699 0.0
C3943 C 0.52091 0.6428 0.93947 0.0
C3944 C 0.51286 0.68902 0.94326 0.0
H3945 H 0.5335 0.73837 0.86607 0.0
H3946 H 0.5319 0.71133 0.88222 0.0
H3947 H 0.50534 0.71329 0.93637 0.0
H3948 H 0.51058 0.64547 0.99227 0.0
H3949 H 0.51875 0.67316 0.97764 0.0
H3950 H 0.54368 0.67 0.92296 0.0
C3951 C 0.53042 0.72363 0.89035 0.0
C3952 C 0.51405 0.70418 0.93347 0.0
C3953 C 0.53123 0.73915 0.88101 0.0
C3954 C 0.51386 0.64455 0.97769 0.0
C3955 C 0.51829 0.66039 0.96916 0.0
C3956 C 0.53525 0.67937 0.92603 0.0
C3957 C 0.52734 0.72392 0.90977 0.0
C3958 C 0.52597 0.70736 0.91987 0.0
C3959 C 0.52133 0.65973 0.94972 0.0
C3960 C 0.52342 0.67635 0.93975 0.0
H3961 H 0.52441 0.76792 0.91834 0.0
H3962 H 0.52329 0.74129 0.93453 0.0
H3963 H 0.54603 0.69664 0.90612 0.0
H3964 H 0.51497 0.61413 0.93928 0.0
H3965 H 0.52304 0.64166 0.92449 0.0
C3966 C 0.07863 0.73823 0.69683 0.0
C3967 C 0.0672 0.74815 0.7051 0.0
C3968 C 0.09639 0.74042 0.70461 0.0
C3969 C 0.13012 0.76066 0.74818 0.0
H3970 H 0.16266 0.7512 0.7123 0.0
C3971 C 0.2079 0.7763 0.76765 0.0
C3972 C 0.21687 0.76301 0.76095 0.0
C3973 C 0.18962 0.77467 0.76209 0.0
C3974 C 0.1538 0.75375 0.72262 0.0
H3975 H 0.06606 0.7682 0.72872 0.0
H3976 H 0.09731 0.77243 0.74217 0.0
H3977 H 0.13177 0.74904 0.70054 0.0
H3978 H 0.2133 0.73758 0.74291 0.0
H3979 H 0.18168 0.73498 0.73278 0.0
H3980 H 0.15271 0.7661 0.77013 0.0
C3981 C 0.09235 0.76263 0.72962 0.0
C3982 C 0.13584 0.7524 0.71587 0.0
C3983 C 0.07431 0.76027 0.72185 0.0
C3984 C 0.20692 0.74803 0.74851 0.0
C3985 C 0.18874 0.74661 0.74259 0.0
C3986 C 0.14825 0.76232 0.7549 0.0
C3987 C 0.10386 0.75288 0.72097 0.0
C3988 C 0.12346 0.75549 0.72849 0.0
C3989 C 0.17975 0.75992 0.74923 0.0
C3990 C 0.16037 0.75864 0.74225 0.0
H3991 H 0.07383 0.72856 0.68412 0.0
H3992 H 0.10423 0.73206 0.69768 0.0
H3993 H 0.1213 0.76308 0.75857 0.0
H3994 H 0.21501 0.78802 0.77729 0.0
H3995 H 0.18331 0.78526 0.76749 0.0
C3996 C 0.0137 0.35185 0.38586 0.0
C3997 C 0.02756 0.34244 0.38608 0.0
C3998 C 0.01476 0.36736 0.39874 0.0
C3999 C 0.04592 0.40315 0.43337 0.0
H4000 H 0.00217 0.41161 0.45041 0.0
C4001 C 0.0429 0.46305 0.49134 0.0
C4002 C 0.02921 0.47229 0.48763 0.0
C4003 C 0.04335 0.44704 0.47975 0.0
C4004 C 0.01452 0.4096 0.44571 0.0
H4005 H 0.05365 0.34239 0.4002 0.0
H4006 H 0.05541 0.36938 0.42312 0.0
H4007 H 0.0021 0.38434 0.42937 0.0
H4008 H 0.00477 0.47146 0.4695 0.0
H4009 H 0.00553 0.44376 0.44921 0.0
H4010 H 0.0583 0.42846 0.4501 0.0
C4011 C 0.04373 0.36483 0.41267 0.0
C4012 C 0.0145 0.39388 0.4335 0.0
C4013 C 0.04272 0.34926 0.39954 0.0
C4014 C 0.01575 0.46494 0.47238 0.0
C4015 C 0.01608 0.44888 0.46092 0.0
C4016 C 0.04596 0.41887 0.44577 0.0
C4017 C 0.02964 0.37405 0.41261 0.0
C4018 C 0.03013 0.39047 0.42679 0.0
C4019 C 0.02993 0.43967 0.46433 0.0
C4020 C 0.0302 0.42248 0.4519 0.0
H4021 H 0.00188 0.34726 0.3756 0.0
H4022 H 0.00382 0.37418 0.39764 0.0
H4023 H 0.05824 0.40124 0.42854 0.0
H4024 H 0.05337 0.46831 0.50312 0.0
H4025 H 0.05411 0.44029 0.48304 0.0
C4026 C 0.45072 0.23972 0.21896 0.0
C4027 C 0.45828 0.25259 0.20759 0.0
C4028 C 0.43486 0.24102 0.22685 0.0
C4029 C 0.39671 0.26595 0.22156 0.0
H4030 H 0.38263 0.24385 0.26607 0.0
C4031 C 0.33553 0.2808 0.25595 0.0
C4032 C 0.32384 0.26672 0.26229 0.0
C4033 C 0.35194 0.27859 0.25053 0.0
C4034 C 0.38626 0.25004 0.25353 0.0
H4035 H 0.45528 0.27743 0.19678 0.0
H4036 H 0.42902 0.28035 0.21117 0.0
H4037 H 0.41098 0.24128 0.25513 0.0
H4038 H 0.32086 0.23898 0.26772 0.0
H4039 H 0.34953 0.23509 0.25825 0.0
H4040 H 0.37224 0.27498 0.22012 0.0
C4041 C 0.43443 0.26861 0.21335 0.0
C4042 C 0.40267 0.24853 0.24714 0.0
C4043 C 0.44989 0.2671 0.20521 0.0
C4044 C 0.32937 0.25025 0.26305 0.0
C4045 C 0.34596 0.24804 0.25768 0.0
C4046 C 0.38056 0.26767 0.22808 0.0
C4047 C 0.42611 0.25537 0.22387 0.0
C4048 C 0.40837 0.25657 0.23101 0.0
C4049 C 0.35751 0.26215 0.2511 0.0
C4050 C 0.37495 0.25983 0.24422 0.0
H4051 H 0.45661 0.22823 0.22106 0.0
H4052 H 0.42919 0.23039 0.23475 0.0
H4053 H 0.3998 0.27189 0.20873 0.0
H4054 H 0.33191 0.29362 0.2548 0.0
H4055 H 0.36033 0.28993 0.24585 0.0
C4056 C 0.58741 0.54255 0.33214 0.0
C4057 C 0.6005 0.5334 0.3269 0.0
C4058 C 0.57951 0.53928 0.34869 0.0
C4059 C 0.573 0.50697 0.38468 0.0
H4060 H 0.56364 0.54804 0.41583 0.0
C4061 C 0.55203 0.50624 0.46211 0.0
C4062 C 0.53793 0.51477 0.46508 0.0
C4063 C 0.55965 0.5072 0.44496 0.0
C4064 C 0.5661 0.53642 0.40722 0.0
H4065 H 0.61543 0.51346 0.33482 0.0
H4066 H 0.60195 0.50807 0.36387 0.0
H4067 H 0.57668 0.55231 0.38634 0.0
H4068 H 0.52058 0.5307 0.45227 0.0
H4069 H 0.53382 0.53234 0.42274 0.0
H4070 H 0.56256 0.49118 0.40596 0.0
C4071 C 0.59753 0.51754 0.35504 0.0
C4072 C 0.57348 0.53884 0.39025 0.0
C4073 C 0.60535 0.52072 0.33842 0.0
C4074 C 0.53142 0.52395 0.4505 0.0
C4075 C 0.53907 0.52501 0.43358 0.0
C4076 C 0.56572 0.50457 0.40181 0.0
C4077 C 0.58462 0.52688 0.36048 0.0
C4078 C 0.57688 0.52414 0.37865 0.0
C4079 C 0.5534 0.51689 0.43071 0.0
C4080 C 0.56203 0.51927 0.41312 0.0
H4081 H 0.58329 0.5523 0.3235 0.0
H4082 H 0.56936 0.54648 0.35224 0.0
H4083 H 0.57529 0.49532 0.376 0.0
H4084 H 0.55726 0.49903 0.47307 0.0
H4085 H 0.57072 0.50082 0.44307 0.0
C4086 C 0.27826 0.89918 0.05201 0.0
C4087 C 0.28026 0.88984 0.03438 0.0
C4088 C 0.27893 0.89096 0.06874 0.0
C4089 C 0.29509 0.85423 0.08882 0.0
H4090 H 0.25778 0.85332 0.12142 0.0
C4091 C 0.28673 0.80232 0.13761 0.0
C4092 C 0.29141 0.81 0.15683 0.0
C4093 C 0.2808 0.8124 0.12397 0.0
C4094 C 0.26822 0.85358 0.11238 0.0
H4095 H 0.2846 0.86477 0.02032 0.0
H4096 H 0.28546 0.85031 0.04944 0.0
H4097 H 0.25893 0.8722 0.09512 0.0
H4098 H 0.29157 0.83312 0.17753 0.0
H4099 H 0.28162 0.85103 0.15336 0.0
H4100 H 0.30422 0.83544 0.10561 0.0
C4101 C 0.28361 0.86404 0.05038 0.0
C4102 C 0.26899 0.86441 0.09756 0.0
C4103 C 0.28299 0.87224 0.03371 0.0
C4104 C 0.28814 0.82705 0.16267 0.0
C4105 C 0.28235 0.83723 0.14895 0.0
C4106 C 0.29424 0.8434 0.1034 0.0
C4107 C 0.28162 0.87334 0.06799 0.0
C4108 C 0.28214 0.86431 0.08535 0.0
C4109 C 0.27978 0.8303 0.12944 0.0
C4110 C 0.28051 0.84256 0.11483 0.0
H4111 H 0.27638 0.9129 0.05295 0.0
H4112 H 0.27755 0.8984 0.08225 0.0
H4113 H 0.30563 0.85436 0.07991 0.0
H4114 H 0.28881 0.78902 0.13298 0.0
H4115 H 0.27862 0.80684 0.10891 0.0
C4116 C 0.91468 0.49694 0.83595 0.0
C4117 C 0.90113 0.5066 0.83543 0.0
C4118 C 0.92761 0.50019 0.85181 0.0
C4119 C 0.94799 0.53225 0.894 0.0
H4120 H 0.95601 0.48939 0.91555 0.0
C4121 C 0.98576 0.53286 0.96922 0.0
C4122 C 0.99756 0.52115 0.97009 0.0
C4123 C 0.97444 0.53224 0.95236 0.0
C4124 C 0.95405 0.50146 0.90956 0.0
H4125 H 0.89032 0.52724 0.8507 0.0
H4126 H 0.91274 0.5325 0.87877 0.0
H4127 H 0.93601 0.48643 0.88597 0.0
H4128 H 0.00708 0.49984 0.95431 0.0
H4129 H 0.98775 0.49917 0.92478 0.0
H4130 H 0.96612 0.54725 0.91777 0.0
C4131 C 0.91354 0.52276 0.86677 0.0
C4132 C 0.94268 0.49976 0.89267 0.0
C4133 C 0.90068 0.5196 0.85086 0.0
C4134 C -0.00193 0.509 0.95396 0.0
C4135 C 0.98697 0.50853 0.93713 0.0
C4136 C 0.9595 0.53396 0.91094 0.0
C4137 C 0.927 0.51298 0.86736 0.0
C4138 C 0.93959 0.51511 0.88478 0.0
C4139 C 0.97496 0.51999 0.93628 0.0
C4140 C 0.96262 0.51853 0.91874 0.0
H4141 H 0.91547 0.48711 0.82402 0.0
H4142 H 0.93806 0.49267 0.85197 0.0
H4143 H 0.94575 0.54424 0.88803 0.0
H4144 H 0.98524 0.5424 0.98152 0.0
H4145 H 0.96513 0.54107 0.952 0.0
C4146 C 0.25182 0.20673 0.56055 0.0
C4147 C 0.26294 0.1951 0.5554 0.0
C4148 C 0.25271 0.21418 0.57969 0.0
C4149 C 0.28155 0.22584 0.62588 0.0
H4150 H 0.23765 0.22353 0.6478 0.0
C4151 C 0.27862 0.24299 0.70738 0.0
C4152 C 0.26628 0.25318 0.71275 0.0
C4153 C 0.27876 0.23658 0.68809 0.0
C4154 C 0.25 0.2245 0.64182 0.0
H4155 H 0.28405 0.18252 0.56613 0.0
H4156 H 0.28592 0.19595 0.59962 0.0
H4157 H 0.23708 0.21103 0.61434 0.0
H4158 H 0.24488 0.26515 0.70167 0.0
H4159 H 0.24459 0.25338 0.6681 0.0
H4160 H 0.29448 0.2393 0.65339 0.0
C4161 C 0.27641 0.19915 0.58884 0.0
C4162 C 0.24967 0.21731 0.62268 0.0
C4163 C 0.27529 0.19141 0.56971 0.0
C4164 C 0.25425 0.25702 0.69822 0.0
C4165 C 0.25414 0.2503 0.67893 0.0
C4166 C 0.28188 0.23306 0.64504 0.0
C4167 C 0.26495 0.21041 0.59406 0.0
C4168 C 0.26543 0.21794 0.61448 0.0
C4169 C 0.26638 0.23996 0.67365 0.0
C4170 C 0.26609 0.2325 0.65322 0.0
H4171 H 0.24209 0.20973 0.54987 0.0
H4172 H 0.24382 0.22292 0.58326 0.0
H4173 H 0.29389 0.22668 0.61988 0.0
H4174 H 0.28825 0.23993 0.71808 0.0
H4175 H 0.28834 0.22862 0.68455 0.0
C4176 C 0.60535 0.53445 0.21995 0.0
C4177 C 0.59591 0.52411 0.23233 0.0
C4178 C 0.59776 0.5352 0.20124 0.0
C4179 C 0.56344 0.51035 0.1628 0.0
H4180 H 0.56963 0.55571 0.14167 0.0
C4181 C 0.52847 0.51775 0.0882 0.0
C4182 C 0.53894 0.52757 0.07635 0.0
C4183 C 0.5349 0.51758 0.10749 0.0
C4184 C 0.56792 0.54292 0.14731 0.0
H4185 H 0.57099 0.50659 0.23477 0.0
H4186 H 0.55772 0.50786 0.20198 0.0
H4187 H 0.58168 0.5549 0.17497 0.0
H4188 H 0.56406 0.54503 0.07497 0.0
H4189 H 0.5752 0.54527 0.10892 0.0
H4190 H 0.54981 0.49833 0.13509 0.0
C4191 C 0.57107 0.51529 0.20678 0.0
C4192 C 0.57481 0.54246 0.16638 0.0
C4193 C 0.57863 0.51462 0.22559 0.0
C4194 C 0.55578 0.53746 0.084 0.0
C4195 C 0.56208 0.53761 0.10339 0.0
C4196 C 0.55655 0.51081 0.14372 0.0
C4197 C 0.58056 0.52558 0.1944 0.0
C4198 C 0.57272 0.52615 0.17432 0.0
C4199 C 0.55179 0.5275 0.11531 0.0
C4200 C 0.55877 0.52709 0.13573 0.0
H4201 H 0.61868 0.54198 0.22468 0.0
H4202 H 0.6055 0.5431 0.19201 0.0
H4203 H 0.56184 0.49754 0.1684 0.0
H4204 H 0.51547 0.50993 0.08242 0.0
H4205 H 0.52661 0.50976 0.11632 0.0
C4206 C 0.28812 0.90339 0.93083 0.0
C4207 C 0.29065 0.89624 0.94815 0.0
C4208 C 0.28406 0.89204 0.91354 0.0
C4209 C 0.26547 0.84576 0.89268 0.0
H4210 H 0.2946 0.85722 0.8524 0.0
C4211 C 0.25605 0.80343 0.81813 0.0
C4212 C 0.27127 0.79689 0.81524 0.0
C4213 C 0.25678 0.81722 0.83292 0.0
C4214 C 0.28627 0.85405 0.86347 0.0
H4215 H 0.29039 0.87209 0.96172 0.0
H4216 H 0.28332 0.85196 0.93123 0.0
H4217 H 0.29893 0.87787 0.88213 0.0
H4218 H 0.29899 0.79896 0.82488 0.0
H4219 H 0.30056 0.82385 0.85024 0.0
H4220 H 0.25319 0.82161 0.87408 0.0
C4221 C 0.2846 0.86629 0.93098 0.0
C4222 C 0.28869 0.8658 0.88037 0.0
C4223 C 0.28889 0.87771 0.94827 0.0
C4224 C 0.28728 0.80431 0.82678 0.0
C4225 C 0.28814 0.81839 0.84117 0.0
C4226 C 0.26292 0.83407 0.87563 0.0
C4227 C 0.28221 0.87342 0.91352 0.0
C4228 C 0.27854 0.86157 0.89521 0.0
C4229 C 0.27282 0.82464 0.84456 0.0
C4230 C 0.27358 0.83803 0.86115 0.0
H4231 H 0.28907 0.91771 0.93072 0.0
H4232 H 0.28212 0.89775 0.90021 0.0
H4233 H 0.25744 0.84236 0.90395 0.0
H4234 H 0.24348 0.79726 0.80965 0.0
H4235 H 0.24483 0.82181 0.83555 0.0
C4236 C 0.92637 0.52339 0.7551 0.0
C4237 C 0.90838 0.51609 0.75483 0.0
C4238 C 0.93402 0.52221 0.73811 0.0
C4239 C 0.92795 0.49669 0.6903 0.0
H4240 H 0.95764 0.53943 0.677 0.0
C4241 C 0.96024 0.49242 0.62278 0.0
C4242 C 0.97857 0.49602 0.62804 0.0
C4243 C 0.94952 0.49879 0.63529 0.0
C4244 C 0.94917 0.52751 0.68049 0.0
H4245 H 0.8845 0.50092 0.73707 0.0
H4246 H 0.89781 0.49888 0.70772 0.0
H4247 H 0.94406 0.54106 0.70677 0.0
H4248 H 0.00045 0.51042 0.64888 0.0
H4249 H 0.98172 0.52159 0.67093 0.0
H4250 H 0.93336 0.48299 0.66442 0.0
C4251 C 0.90598 0.50563 0.72086 0.0
C4252 C 0.94165 0.52837 0.69754 0.0
C4253 C 0.89836 0.50691 0.73767 0.0
C4254 C 0.98626 0.5073 0.64493 0.0
C4255 C 0.97559 0.51388 0.6573 0.0
C4256 C 0.93536 0.49586 0.67326 0.0
C4257 C 0.92375 0.51354 0.72086 0.0
C4258 C 0.93132 0.51286 0.70271 0.0
C4259 C 0.95715 0.50894 0.65297 0.0
C4260 C 0.94635 0.51115 0.66848 0.0
H4261 H 0.93436 0.53037 0.76823 0.0
H4262 H 0.94788 0.52812 0.73841 0.0
H4263 H 0.9201 0.48454 0.69408 0.0
H4264 H 0.95421 0.4839 0.60957 0.0
H4265 H 0.9353 0.49491 0.63173 0.0
C4266 C 0.26808 0.18095 0.4466 0.0
C4267 C 0.25782 0.18798 0.4595 0.0
C4268 C 0.2721 0.18935 0.43044 0.0
C4269 C 0.27611 0.23241 0.41078 0.0
H4270 H 0.26699 0.20306 0.36104 0.0
C4271 C 0.27158 0.2622 0.33882 0.0
C4272 C 0.27833 0.25415 0.32318 0.0
C4273 C 0.2712 0.25468 0.35606 0.0
C4274 C 0.26992 0.21142 0.37484 0.0
H4275 H 0.24418 0.20955 0.466 0.0
H4276 H 0.25157 0.22452 0.43793 0.0
H4277 H 0.26229 0.18892 0.3901 0.0
H4278 H 0.29031 0.23205 0.31357 0.0
H4279 H 0.28955 0.21882 0.34371 0.0
H4280 H 0.28367 0.25493 0.39553 0.0
C4281 C 0.25632 0.2124 0.44023 0.0
C4282 C 0.26717 0.20332 0.39148 0.0
C4283 C 0.25198 0.20379 0.45618 0.0
C4284 C 0.28495 0.23853 0.32531 0.0
C4285 C 0.28447 0.23093 0.34256 0.0
C4286 C 0.27896 0.24052 0.39414 0.0
C4287 C 0.26626 0.20516 0.42708 0.0
C4288 C 0.27004 0.21374 0.40959 0.0
C4289 C 0.27742 0.23882 0.35807 0.0
C4290 C 0.2757 0.23014 0.37594 0.0
H4291 H 0.27273 0.16876 0.4488 0.0
H4292 H 0.27986 0.18353 0.42061 0.0
H4293 H 0.27866 0.24074 0.4246 0.0
H4294 H 0.26619 0.27413 0.33763 0.0
H4295 H 0.26546 0.26098 0.3676 0.0
C4296 C 0.32479 0.61278 0.54485 0.0
C4297 C 0.30942 0.60385 0.55116 0.0
C4298 C 0.33795 0.60356 0.54114 0.0
C4299 C 0.35964 0.56846 0.54972 0.0
H4300 H 0.36515 0.56692 0.49547 0.0
C4301 C 0.40455 0.53068 0.50738 0.0
C4302 C 0.41257 0.54028 0.4936 0.0
C4303 C 0.39353 0.53821 0.51856 0.0
C4304 C 0.36382 0.5674 0.51067 0.0
H4305 H 0.29594 0.57889 0.55983 0.0
H4306 H 0.31944 0.56273 0.55353 0.0
H4307 H 0.34138 0.57944 0.50738 0.0
H4308 H 0.4177 0.56575 0.48224 0.0
H4309 H 0.39847 0.57913 0.502 0.0
H4310 H 0.38248 0.5567 0.55296 0.0
C4311 C 0.32111 0.57677 0.55145 0.0
C4312 C 0.35021 0.57435 0.51738 0.0
C4313 C 0.30778 0.58595 0.55493 0.0
C4314 C 0.41101 0.55802 0.49235 0.0
C4315 C 0.40023 0.56564 0.5037 0.0
C4316 C 0.37342 0.56148 0.54297 0.0
C4317 C 0.33593 0.58546 0.544 0.0
C4318 C 0.34843 0.57541 0.53698 0.0
C4319 C 0.39071 0.5554 0.51605 0.0
C4320 C 0.37586 0.56153 0.52352 0.0
H4321 H 0.3262 0.6265 0.54164 0.0
H4322 H 0.34939 0.6103 0.53526 0.0
H4323 H 0.3582 0.5692 0.5649 0.0
H4324 H 0.4061 0.51707 0.50873 0.0
H4325 H 0.38632 0.5302 0.5281 0.0
C4326 C 0.83748 0.926 0.52984 0.0
C4327 C 0.83657 0.91111 0.54015 0.0
C4328 C 0.85377 0.93692 0.52832 0.0
C4329 C 0.90163 0.93708 0.53284 0.0
H4330 H 0.90655 0.98877 0.53593 0.0
C4331 C 0.96941 0.98519 0.54079 0.0
C4332 C 0.9712 -0.00087 0.52912 0.0
C4333 C 0.95283 0.97476 0.54198 0.0
C4334 C 0.90532 0.97434 0.53485 0.0
H4335 H 0.8521 0.89615 0.5571 0.0
H4336 H 0.88045 0.91535 0.55471 0.0
H4337 H 0.87794 0.96994 0.53847 0.0
H4338 H 0.95686 0.01296 0.50947 0.0
H4339 H 0.92781 0.99494 0.51189 0.0
H4340 H 0.92907 0.94152 0.52945 0.0
C4341 C 0.8686 0.91842 0.54752 0.0
C4342 C 0.88894 0.96354 0.53628 0.0
C4343 C 0.85232 0.90747 0.549 0.0
C4344 C 0.95594 0.00256 0.51887 0.0
C4345 C 0.9393 0.9922 0.5202 0.0
C4346 C 0.91802 0.94788 0.53152 0.0
C4347 C 0.86954 0.93325 0.5371 0.0
C4348 C 0.88691 0.94477 0.53536 0.0
C4349 C 0.9376 0.97808 0.53162 0.0
C4350 C 0.92006 0.96663 0.5326 0.0
H4351 H 0.8256 0.92915 0.52278 0.0
H4352 H 0.854 0.94808 0.51998 0.0
H4353 H 0.90048 0.92265 0.53168 0.0
H4354 H 0.98086 0.98214 0.54888 0.0
H4355 H 0.95192 0.96412 0.55108 0.0
C4356 C 0.87477 0.05741 0.24776 0.0
C4357 C 0.89253 0.06116 0.25619 0.0
C4358 C 0.86476 0.07075 0.24883 0.0
C4359 C 0.86304 0.11138 0.27988 0.0
H4360 H 0.83229 0.12228 0.23759 0.0
C4361 C 0.8323 0.17209 0.29051 0.0
C4362 C 0.81394 0.1688 0.28571 0.0
C4363 C 0.84186 0.15984 0.2834 0.0
C4364 C 0.84078 0.11928 0.24951 0.0
H4365 H 0.91384 0.08197 0.2717 0.0
H4366 H 0.89642 0.10506 0.2736 0.0
H4367 H 0.84877 0.09826 0.23211 0.0
H4368 H 0.79117 0.15105 0.2689 0.0
H4369 H 0.80794 0.12931 0.25645 0.0
H4370 H 0.85508 0.13204 0.29737 0.0
C4371 C 0.8902 0.09182 0.26631 0.0
C4372 C 0.85014 0.10556 0.2464 0.0
C4373 C 0.90019 0.07859 0.26514 0.0
C4374 C 0.80538 0.15381 0.27259 0.0
C4375 C 0.81496 0.14143 0.26552 0.0
C4376 C 0.85375 0.12498 0.28297 0.0
C4377 C 0.87232 0.08796 0.25849 0.0
C4378 C 0.86156 0.10172 0.26154 0.0
C4379 C 0.83317 0.14396 0.27159 0.0
C4380 C 0.84275 0.1293 0.26779 0.0
H4381 H 0.86852 0.0441 0.24067 0.0
H4382 H 0.85098 0.06743 0.24273 0.0
H4383 H 0.87137 0.10837 0.29193 0.0
H4384 H 0.83908 0.1836 0.30066 0.0
H4385 H 0.85594 0.1623 0.28799 0.0
C4386 C 0.7044 0.07837 0.03132 0.0
C4387 C 0.71033 0.0897 0.04873 0.0
C4388 C 0.68651 0.07183 0.02577 0.0
C4389 C 0.64523 0.08428 0.02973 0.0
H4390 H 0.62434 0.03368 0.01591 0.0
C4391 C 0.57456 0.0533 0.03421 0.0
C4392 C 0.56711 0.03675 0.02337 0.0
C4393 C 0.59107 0.06237 0.0312 0.0
C4394 C 0.63002 0.04792 0.01905 0.0
H4395 H 0.70245 0.10226 0.07456 0.0
H4396 H 0.67085 0.09067 0.06468 0.0
H4397 H 0.65596 0.04297 0.02539 0.0
H4398 H 0.56967 0.01685 0.0003 0.0
H4399 H 0.59842 0.03313 0.99431 0.0
H4400 H 0.61929 0.08929 0.02359 0.0
C4401 C 0.6802 0.08714 0.05537 0.0
C4402 C 0.64804 0.05313 0.02477 0.0
C4403 C 0.69818 0.09361 0.06104 0.0
C4404 C 0.5754 0.02982 0.00856 0.0
C4405 C 0.59174 0.03907 0.00524 0.0
C4406 C 0.62721 0.07911 0.02371 0.0
C4407 C 0.67436 0.07662 0.03751 0.0
C4408 C 0.65559 0.07126 0.03063 0.0
C4409 C 0.60018 0.05479 0.01739 0.0
C4410 C 0.61939 0.06082 0.01892 0.0
H4411 H 0.71353 0.07509 0.02161 0.0
H4412 H 0.68211 0.06367 0.01195 0.0
H4413 H 0.65106 0.0984 0.0339 0.0
H4414 H 0.56815 0.05858 0.0458 0.0
H4415 H 0.5973 0.07435 0.04095 0.0
C4416 C 0.2015 0.48433 0.2284 0.0
C4417 C 0.18394 0.4818 0.23239 0.0
C4418 C 0.21189 0.47223 0.23354 0.0
C4419 C 0.21699 0.44523 0.27069 0.0
H4420 H 0.23432 0.4114 0.23657 0.0
C4421 C 0.22793 0.37997 0.2941 0.0
C4422 C 0.24471 0.3763 0.29282 0.0
C4423 C 0.22264 0.39334 0.28441 0.0
C4424 C 0.22977 0.42099 0.2462 0.0
H4425 H 0.16314 0.46447 0.24394 0.0
H4426 H 0.18135 0.44345 0.253 0.0
H4427 H 0.22206 0.43563 0.22344 0.0
H4428 H 0.26883 0.38295 0.2797 0.0
H4429 H 0.25937 0.40629 0.26262 0.0
H4430 H 0.22397 0.43042 0.29332 0.0
C4431 C 0.18697 0.45469 0.24584 0.0
C4432 C 0.22291 0.43477 0.23876 0.0
C4433 C 0.17655 0.46657 0.24048 0.0
C4434 C 0.25576 0.3855 0.28087 0.0
C4435 C 0.25042 0.39881 0.27111 0.0
C4436 C 0.2238 0.43157 0.27809 0.0
C4437 C 0.20476 0.45778 0.24288 0.0
C4438 C 0.21582 0.44636 0.2509 0.0
C4439 C 0.23409 0.40318 0.27339 0.0
C4440 C 0.22946 0.41892 0.26574 0.0
H4441 H 0.20742 0.49609 0.22221 0.0
H4442 H 0.22564 0.47466 0.2312 0.0
H4443 H 0.21172 0.45432 0.28022 0.0
H4444 H 0.21907 0.37275 0.30285 0.0
H4445 H 0.20979 0.39637 0.28595 0.0
C4446 C 0.21636 0.39418 0.02098 0.0
C4447 C 0.23325 0.40242 0.03029 0.0
C4448 C 0.20295 0.40385 0.0197 0.0
C4449 C 0.18717 0.44246 0.04027 0.0
H4450 H 0.16401 0.44049 0.98829 0.0
C4451 C 0.1393 0.4881 0.01625 0.0
C4452 C 0.12552 0.48028 0.00159 0.0
C4453 C 0.15158 0.47816 0.02262 0.0
C4454 C 0.1701 0.44094 0.00295 0.0
H4455 H 0.24925 0.42698 0.04633 0.0
H4456 H 0.22553 0.44391 0.04425 0.0
H4457 H 0.18763 0.42439 0.99401 0.0
H4458 H 0.11256 0.45593 0.98309 0.0
H4459 H 0.13374 0.43834 0.99446 0.0
H4460 H 0.16945 0.45906 0.04915 0.0
C4461 C 0.22281 0.42999 0.03787 0.0
C4462 C 0.18369 0.4318 0.00618 0.0
C4463 C 0.23635 0.42037 0.03891 0.0
C4464 C 0.12332 0.46217 0.99426 0.0
C4465 C 0.13545 0.45221 0.00071 0.0
C4466 C 0.17339 0.45158 0.03704 0.0
C4467 C 0.20611 0.42187 0.02791 0.0
C4468 C 0.19222 0.43231 0.02486 0.0
C4469 C 0.1501 0.46031 0.01437 0.0
C4470 C 0.1646 0.45071 0.01833 0.0
H4471 H 0.21359 0.38039 0.01422 0.0
H4472 H 0.19012 0.39729 0.01206 0.0
H4473 H 0.19361 0.44302 0.05481 0.0
H4474 H 0.14101 0.50208 0.02209 0.0
H4475 H 0.16272 0.48475 0.03316 0.0
C4476 C 0.86888 0.95642 0.25769 0.0
C4477 C 0.8839 0.95656 0.24821 0.0
C4478 C 0.85736 0.94025 0.25885 0.0
C4479 C 0.84308 0.89382 0.23554 0.0
H4480 H 0.82717 0.88418 0.28449 0.0
C4481 C 0.80798 0.82353 0.2479 0.0
C4482 C 0.79437 0.82207 0.25959 0.0
C4483 C 0.81815 0.84027 0.24619 0.0
C4484 C 0.83124 0.88677 0.27064 0.0
H4485 H 0.89857 0.93988 0.23246 0.0
H4486 H 0.87841 0.91165 0.23452 0.0
H4487 H 0.8464 0.91289 0.2821 0.0
H4488 H 0.78082 0.83708 0.27877 0.0
H4489 H 0.79807 0.86642 0.27507 0.0
H4490 H 0.82787 0.86785 0.22398 0.0
C4491 C 0.87552 0.92407 0.24091 0.0
C4492 C 0.8423 0.90318 0.26931 0.0
C4493 C 0.8871 0.94023 0.23982 0.0
C4494 C 0.79101 0.83776 0.26938 0.0
C4495 C 0.80107 0.85456 0.26749 0.0
C4496 C 0.83192 0.87748 0.23683 0.0
C4497 C 0.86057 0.92394 0.25047 0.0
C4498 C 0.84843 0.90679 0.25178 0.0
C4499 C 0.81484 0.85598 0.25597 0.0
C4500 C 0.826 0.8737 0.25443 0.0
H4501 H 0.86603 0.96879 0.26427 0.0
H4502 H 0.84582 0.94053 0.26613 0.0
H4503 H 0.84741 0.89637 0.22178 0.0
H4504 H 0.81101 0.8117 0.24027 0.0
H4505 H 0.82886 0.84083 0.23751 0.0
C4506 C 0.70475 0.09274 0.72751 0.0
C4507 C 0.70162 0.08124 0.74159 0.0
C4508 C 0.71282 0.1107 0.73305 0.0
C4509 C 0.73657 0.14235 0.77534 0.0
H4510 H 0.71649 0.17649 0.74788 0.0
C4511 C 0.76949 0.2138 0.7745 0.0
C4512 C 0.75908 0.22538 0.76789 0.0
C4513 C 0.7614 0.19716 0.77881 0.0
C4514 C 0.7218 0.16713 0.75617 0.0
H4515 H 0.70459 0.07923 0.77234 0.0
H4516 H 0.7177 0.11036 0.78186 0.0
H4517 H 0.70627 0.14484 0.73734 0.0
H4518 H 0.73267 0.23028 0.76231 0.0
H4519 H 0.71841 0.20154 0.77099 0.0
H4520 H 0.75161 0.16471 0.79464 0.0
C4521 C 0.71467 0.10561 0.76662 0.0
C4522 C 0.71635 0.14901 0.74969 0.0
C4523 C 0.70698 0.08774 0.76111 0.0
C4524 C 0.74079 0.22134 0.76753 0.0
C4525 C 0.7327 0.20495 0.77242 0.0
C4526 C 0.74167 0.16048 0.78217 0.0
C4527 C 0.71746 0.11729 0.75271 0.0
C4528 C 0.72387 0.13649 0.75904 0.0
C4529 C 0.74287 0.19216 0.77635 0.0
C4530 C 0.73462 0.17305 0.77238 0.0
H4531 H 0.70072 0.08796 0.71236 0.0
H4532 H 0.71507 0.11948 0.72203 0.0
H4533 H 0.7427 0.13293 0.78271 0.0
H4534 H 0.78373 0.2171 0.77498 0.0
H4535 H 0.76963 0.18764 0.78187 0.0
loop_
_geom_bond_atom_site_label_1
_geom_bond_atom_site_label_2
_geom_bond_distance
_geom_bond_site_symmetry_2
_ccdc_geom_bond_type
C0 O1 1.160 . S
C0 O7 1.185 . S
O1 C0 1.160 . S
O2 Zn3 1.899 . S
O2 C10 1.284 . S
Zn3 O2 1.899 . S
Zn3 O4 2.032 . S
Zn3 O7 2.086 . S
Zn3 O12 1.977 . S
O4 Zn3 2.032 . S
O4 C8 1.278 . S
C5 O6 1.203 . S
C5 O12 1.267 1_655 S
O6 C5 1.203 . S
O7 C0 1.185 . S
O7 Zn3 2.086 . S
C8 O4 1.278 . S
C8 O9 1.211 . S
O9 C8 1.211 . S
C10 O2 1.284 . S
C10 O11 1.273 . S
O11 C10 1.273 . S
O12 Zn3 1.977 . S
O12 C5 1.267 1_455 S
C13 O14 1.160 . S
C13 O20 1.185 . S
O14 C13 1.160 . S
O15 Zn16 1.899 . S
O15 C23 1.284 . S
Zn16 O15 1.899 . S
Zn16 O17 2.032 . S
Zn16 O20 2.086 1_455 S
Zn16 O25 1.977 . S
O17 Zn16 2.032 . S
O17 C21 1.278 . S
C18 O19 1.203 . S
C18 O25 1.267 . S
O19 C18 1.203 . S
O20 C13 1.185 . S
O20 Zn16 2.086 1_655 S
C21 O17 1.278 . S
C21 O22 1.211 . S
O22 C21 1.211 . S
C23 O15 1.284 . S
C23 O24 1.273 . S
O24 C23 1.273 . S
O25 Zn16 1.977 . S
O25 C18 1.267 . S
C26 O27 1.160 . S
C26 O33 1.185 . S
O27 C26 1.160 . S
O28 Zn29 1.899 . S
O28 C36 1.284 . S
Zn29 O28 1.899 . S
Zn29 O30 2.032 . S
Zn29 O33 2.086 . S
Zn29 O38 1.977 . S
O30 Zn29 2.032 . S
O30 C34 1.278 . S
C31 O32 1.203 . S
C31 O38 1.267 . S
O32 C31 1.203 . S
O33 C26 1.185 . S
O33 Zn29 2.086 . S
C34 O30 1.278 . S
C34 O35 1.211 . S
O35 C34 1.211 . S
C36 O28 1.284 . S
C36 O37 1.273 . S
O37 C36 1.273 . S
O38 Zn29 1.977 . S
O38 C31 1.267 . S
C39 O40 1.160 . S
C39 O46 1.185 . S
O40 C39 1.160 . S
O41 Zn42 1.899 . S
O41 C49 1.284 . S
Zn42 O41 1.899 . S
Zn42 O43 2.032 . S
Zn42 O46 2.086 . S
Zn42 O51 1.977 . S
O43 Zn42 2.032 . S
O43 C47 1.278 . S
C44 O45 1.203 . S
C44 O51 1.267 . S
O45 C44 1.203 . S
O46 C39 1.185 . S
O46 Zn42 2.086 . S
C47 O43 1.278 . S
C47 O48 1.211 . S
O48 C47 1.211 . S
C49 O41 1.284 . S
C49 O50 1.273 . S
O50 C49 1.273 . S
O51 Zn42 1.977 . S
O51 C44 1.267 . S
C52 O53 1.160 . S
C52 O59 1.185 . S
O53 C52 1.160 . S
O54 Zn55 1.899 . S
O54 C62 1.284 . S
Zn55 O54 1.899 . S
Zn55 O56 2.032 . S
Zn55 O59 2.086 . S
Zn55 O64 1.977 . S
O56 Zn55 2.032 . S
O56 C60 1.278 . S
C57 O58 1.203 . S
C57 O64 1.267 . S
O58 C57 1.203 . S
O59 C52 1.185 . S
O59 Zn55 2.086 . S
C60 O56 1.278 . S
C60 O61 1.211 . S
O61 C60 1.211 . S
C62 O54 1.284 . S
C62 O63 1.273 . S
O63 C62 1.273 . S
O64 Zn55 1.977 . S
O64 C57 1.267 . S
C65 O66 1.160 . S
C65 O72 1.185 . S
O66 C65 1.160 . S
O67 Zn68 1.899 . S
O67 C75 1.284 . S
Zn68 O67 1.899 . S
Zn68 O69 2.032 . S
Zn68 O72 2.086 . S
Zn68 O77 1.977 . S
O69 Zn68 2.032 . S
O69 C73 1.278 . S
C70 O71 1.203 . S
C70 O77 1.267 . S
O71 C70 1.203 . S
O72 C65 1.185 . S
O72 Zn68 2.086 . S
C73 O69 1.278 . S
C73 O74 1.211 . S
O74 C73 1.211 . S
C75 O67 1.284 . S
C75 O76 1.273 . S
O76 C75 1.273 . S
O77 Zn68 1.977 . S
O77 C70 1.267 . S
C78 O79 1.160 . S
C78 O85 1.185 . S
O79 C78 1.160 . S
O80 Zn81 1.899 . S
O80 C88 1.284 . S
Zn81 O80 1.899 . S
Zn81 O82 2.032 . S
Zn81 O85 2.086 . S
Zn81 O90 1.977 . S
O82 Zn81 2.032 . S
O82 C86 1.278 . S
C83 O84 1.203 . S
C83 O90 1.267 . S
O84 C83 1.203 . S
O85 C78 1.185 . S
O85 Zn81 2.086 . S
C86 O82 1.278 . S
C86 O87 1.211 . S
O87 C86 1.211 . S
C88 O80 1.284 . S
C88 O89 1.273 . S
O89 C88 1.273 . S
O90 Zn81 1.977 . S
O90 C83 1.267 . S
C91 O92 1.160 . S
C91 O98 1.185 . S
O92 C91 1.160 . S
O93 Zn94 1.900 . S
O93 C101 1.285 1_455 S
Zn94 O93 1.900 . S
Zn94 O95 2.032 . S
Zn94 O98 2.086 . S
Zn94 O103 1.977 1_455 S
O95 Zn94 2.032 . S
O95 C99 1.278 . S
C96 O97 1.203 . S
C96 O103 1.267 . S
O97 C96 1.203 . S
O98 C91 1.185 . S
O98 Zn94 2.086 . S
C99 O95 1.278 . S
C99 O100 1.211 1_455 S
O100 C99 1.211 1_655 S
C101 O93 1.285 1_655 S
C101 O102 1.273 . S
O102 C101 1.273 . S
O103 Zn94 1.977 1_655 S
O103 C96 1.267 . S
C104 O105 1.160 . S
C104 O111 1.185 . S
O105 C104 1.160 . S
O106 Zn107 1.899 . S
O106 C114 1.284 . S
Zn107 O106 1.899 . S
Zn107 O108 2.032 . S
Zn107 O111 2.086 . S
Zn107 O116 1.977 1_545 S
O108 Zn107 2.032 . S
O108 C112 1.278 . S
C109 O110 1.203 . S
C109 O116 1.267 . S
O110 C109 1.203 . S
O111 C104 1.185 . S
O111 Zn107 2.086 . S
C112 O108 1.278 . S
C112 O113 1.211 1_545 S
O113 C112 1.211 1_565 S
C114 O106 1.284 . S
C114 O115 1.273 . S
O115 C114 1.273 . S
O116 Zn107 1.977 1_565 S
O116 C109 1.267 . S
C117 O118 1.160 . S
C117 O124 1.185 . S
O118 C117 1.160 . S
O119 Zn120 1.899 . S
O119 C127 1.284 . S
Zn120 O119 1.899 . S
Zn120 O121 2.032 . S
Zn120 O124 2.086 . S
Zn120 O129 1.977 . S
O121 Zn120 2.032 . S
O121 C125 1.278 . S
C122 O123 1.203 . S
C122 O129 1.267 . S
O123 C122 1.203 . S
O124 C117 1.185 . S
O124 Zn120 2.086 . S
C125 O121 1.278 . S
C125 O126 1.211 . S
O126 C125 1.211 . S
C127 O119 1.284 . S
C127 O128 1.273 . S
O128 C127 1.273 . S
O129 Zn120 1.977 . S
O129 C122 1.267 . S
C130 O131 1.173 . S
C130 O137 1.131 1_565 S
O131 C130 1.173 . S
O132 Zn133 1.899 . S
O132 C140 1.284 . S
Zn133 O132 1.899 . S
Zn133 O134 2.032 . S
Zn133 O137 2.086 . S
Zn133 O142 1.977 . S
O134 Zn133 2.032 . S
O134 C138 1.278 . S
C135 O136 1.203 . S
C135 O142 1.267 . S
O136 C135 1.203 . S
O137 C130 1.131 1_545 S
O137 Zn133 2.086 . S
C138 O134 1.278 . S
C138 O139 1.211 . S
O139 C138 1.211 . S
C140 O132 1.284 . S
C140 O141 1.273 . S
O141 C140 1.273 . S
O142 Zn133 1.977 . S
O142 C135 1.267 . S
C143 O144 1.160 . S
C143 O150 1.185 1_554 S
O144 C143 1.160 . S
O145 Zn146 1.899 . S
O145 C153 1.284 . S
Zn146 O145 1.899 . S
Zn146 O147 2.032 1_554 S
Zn146 O150 2.086 1_554 S
Zn146 O155 1.982 . S
O147 Zn146 2.032 1_556 S
O147 C151 1.278 . S
C148 O149 1.203 . S
C148 O155 1.271 . S
O149 C148 1.203 . S
O150 C143 1.185 1_556 S
O150 Zn146 2.086 1_556 S
C151 O147 1.278 . S
C151 O152 1.211 . S
O152 C151 1.211 . S
C153 O145 1.284 . S
C153 O154 1.273 . S
O154 C153 1.273 . S
O155 Zn146 1.982 . S
O155 C148 1.271 . S
C156 O157 1.160 . S
C156 O163 1.185 . S
O157 C156 1.160 . S
O158 Zn159 1.899 . S
O158 C166 1.284 . S
Zn159 O158 1.899 . S
Zn159 O160 2.032 . S
Zn159 O163 2.086 . S
Zn159 O168 1.977 . S
O160 Zn159 2.032 . S
O160 C164 1.278 . S
C161 O162 1.203 . S
C161 O168 1.267 . S
O162 C161 1.203 . S
O163 C156 1.185 . S
O163 Zn159 2.086 . S
C164 O160 1.278 . S
C164 O165 1.211 . S
O165 C164 1.211 . S
C166 O158 1.284 . S
C166 O167 1.273 . S
O167 C166 1.273 . S
O168 Zn159 1.977 . S
O168 C161 1.267 . S
C169 O170 1.160 . S
C169 O176 1.185 . S
O170 C169 1.160 . S
O171 Zn172 1.899 . S
O171 C179 1.284 . S
Zn172 O171 1.899 . S
Zn172 O173 2.032 . S
Zn172 O176 2.086 . S
Zn172 O181 1.977 . S
O173 Zn172 2.032 . S
O173 C177 1.278 . S
C174 O175 1.203 . S
C174 O181 1.267 . S
O175 C174 1.203 . S
O176 C169 1.185 . S
O176 Zn172 2.086 . S
C177 O173 1.278 . S
C177 O178 1.211 . S
O178 C177 1.211 . S
C179 O171 1.284 . S
C179 O180 1.273 . S
O180 C179 1.273 . S
O181 Zn172 1.977 . S
O181 C174 1.267 . S
C182 O183 1.160 . S
C182 O189 1.185 . S
O183 C182 1.160 . S
O184 Zn185 1.899 . S
O184 C192 1.284 . S
Zn185 O184 1.899 . S
Zn185 O186 2.032 . S
Zn185 O189 2.086 . S
Zn185 O194 1.977 . S
O186 Zn185 2.032 . S
O186 C190 1.278 . S
C187 O188 1.203 . S
C187 O194 1.267 . S
O188 C187 1.203 . S
O189 C182 1.185 . S
O189 Zn185 2.086 . S
C190 O186 1.278 . S
C190 O191 1.211 . S
O191 C190 1.211 . S
C192 O184 1.284 . S
C192 O193 1.273 . S
O193 C192 1.273 . S
O194 Zn185 1.977 . S
O194 C187 1.267 . S
C195 O196 1.160 . S
C195 O202 1.185 . S
O196 C195 1.160 . S
O197 Zn198 1.899 . S
O197 C205 1.284 . S
Zn198 O197 1.899 . S
Zn198 O199 2.032 . S
Zn198 O202 2.086 . S
Zn198 O207 1.977 . S
O199 Zn198 2.032 . S
O199 C203 1.278 . S
C200 O201 1.203 . S
C200 O207 1.267 . S
O201 C200 1.203 . S
O202 C195 1.185 . S
O202 Zn198 2.086 . S
C203 O199 1.278 . S
C203 O204 1.211 . S
O204 C203 1.211 . S
C205 O197 1.284 . S
C205 O206 1.273 . S
O206 C205 1.273 . S
O207 Zn198 1.977 . S
O207 C200 1.267 . S
C208 O209 1.160 . S
C208 O215 1.185 . S
O209 C208 1.160 . S
O210 Zn211 1.899 . S
O210 C218 1.284 . S
Zn211 O210 1.899 . S
Zn211 O212 2.032 . S
Zn211 O215 2.086 . S
Zn211 O220 1.977 1_545 S
O212 Zn211 2.032 . S
O212 C216 1.278 . S
C213 O214 1.203 . S
C213 O220 1.267 . S
O214 C213 1.203 . S
O215 C208 1.185 . S
O215 Zn211 2.086 . S
C216 O212 1.278 . S
C216 O217 1.211 1_545 S
O217 C216 1.211 1_565 S
C218 O210 1.284 . S
C218 O219 1.273 . S
O219 C218 1.273 . S
O220 Zn211 1.977 1_565 S
O220 C213 1.267 . S
C221 O222 1.160 . S
C221 O228 1.185 . S
O222 C221 1.160 . S
O223 Zn224 1.899 . S
O223 C231 1.284 . S
Zn224 O223 1.899 . S
Zn224 O225 2.032 . S
Zn224 O228 2.086 . S
Zn224 O233 1.977 . S
O225 Zn224 2.032 . S
O225 C229 1.278 . S
C226 O227 1.203 . S
C226 O233 1.267 . S
O227 C226 1.203 . S
O228 C221 1.185 . S
O228 Zn224 2.086 . S
C229 O225 1.278 . S
C229 O230 1.211 . S
O230 C229 1.211 . S
C231 O223 1.284 . S
C231 O232 1.273 . S
O232 C231 1.273 . S
O233 Zn224 1.977 . S
O233 C226 1.267 . S
C234 O235 1.160 . S
C234 O241 1.185 . S
O235 C234 1.160 . S
O236 Zn237 1.899 . S
O236 C244 1.284 . S
Zn237 O236 1.899 . S
Zn237 O238 2.032 . S
Zn237 O241 2.086 . S
Zn237 O246 1.977 . S
O238 Zn237 2.032 . S
O238 C242 1.278 . S
C239 O240 1.203 . S
C239 O246 1.267 . S
O240 C239 1.203 . S
O241 C234 1.185 . S
O241 Zn237 2.086 . S
C242 O238 1.278 . S
C242 O243 1.211 . S
O243 C242 1.211 . S
C244 O236 1.284 . S
C244 O245 1.273 . S
O245 C244 1.273 . S
O246 Zn237 1.977 . S
O246 C239 1.267 . S
C247 O248 1.154 1_545 S
C247 O254 1.185 . S
O248 C247 1.154 1_565 S
O249 Zn250 1.899 . S
O249 C257 1.284 . S
Zn250 O249 1.899 . S
Zn250 O251 2.032 . S
Zn250 O254 2.086 . S
Zn250 O259 1.977 . S
O251 Zn250 2.032 . S
O251 C255 1.278 . S
C252 O253 1.203 . S
C252 O259 1.267 . S
O253 C252 1.203 . S
O254 C247 1.185 . S
O254 Zn250 2.086 . S
C255 O251 1.278 . S
C255 O256 1.211 . S
O256 C255 1.211 . S
C257 O249 1.284 . S
C257 O258 1.273 . S
O258 C257 1.273 . S
O259 Zn250 1.977 . S
O259 C252 1.267 . S
C260 O261 1.160 . S
C260 O267 1.185 . S
O261 C260 1.160 . S
O262 Zn263 1.899 . S
O262 C270 1.284 . S
Zn263 O262 1.899 . S
Zn263 O264 2.032 1_554 S
Zn263 O267 2.086 . S
Zn263 O272 1.977 . S
O264 Zn263 2.032 1_556 S
O264 C268 1.278 . S
C265 O266 1.203 . S
C265 O272 1.267 . S
O266 C265 1.203 . S
O267 C260 1.185 . S
O267 Zn263 2.086 . S
C268 O264 1.278 . S
C268 O269 1.211 . S
O269 C268 1.211 . S
C270 O262 1.284 . S
C270 O271 1.273 . S
O271 C270 1.273 . S
O272 Zn263 1.977 . S
O272 C265 1.267 . S
C273 O274 1.160 . S
C273 O280 1.185 . S
O274 C273 1.160 . S
O275 Zn276 1.899 . S
O275 C283 1.284 . S
Zn276 O275 1.899 . S
Zn276 O277 2.032 . S
Zn276 O280 2.086 . S
Zn276 O285 1.977 . S
O277 Zn276 2.032 . S
O277 C281 1.278 . S
C278 O279 1.203 . S
C278 O285 1.267 . S
O279 C278 1.203 . S
O280 C273 1.185 . S
O280 Zn276 2.086 . S
C281 O277 1.278 . S
C281 O282 1.211 . S
O282 C281 1.211 . S
C283 O275 1.284 . S
C283 O284 1.273 . S
O284 C283 1.273 . S
O285 Zn276 1.977 . S
O285 C278 1.267 . S
C286 O287 1.160 . S
C286 O293 1.185 . S
O287 C286 1.160 . S
O288 Zn289 1.899 . S
O288 C296 1.284 . S
Zn289 O288 1.899 . S
Zn289 O290 2.032 . S
Zn289 O293 2.086 . S
Zn289 O298 1.977 . S
O290 Zn289 2.032 . S
O290 C294 1.278 . S
C291 O292 1.203 . S
C291 O298 1.267 . S
O292 C291 1.203 . S
O293 C286 1.185 . S
O293 Zn289 2.086 . S
C294 O290 1.278 . S
C294 O295 1.211 . S
O295 C294 1.211 . S
C296 O288 1.284 . S
C296 O297 1.273 . S
O297 C296 1.273 . S
O298 Zn289 1.977 . S
O298 C291 1.267 . S
C299 O300 1.160 . S
C299 O306 1.185 . S
O300 C299 1.160 . S
O301 Zn302 1.899 . S
O301 C309 1.284 . S
Zn302 O301 1.899 . S
Zn302 O303 2.032 . S
Zn302 O306 2.086 . S
Zn302 O311 1.977 . S
O303 Zn302 2.032 . S
O303 C307 1.278 . S
C304 O305 1.203 . S
C304 O311 1.267 . S
O305 C304 1.203 . S
O306 C299 1.185 . S
O306 Zn302 2.086 . S
C307 O303 1.278 . S
C307 O308 1.211 . S
O308 C307 1.211 . S
C309 O301 1.284 . S
C309 O310 1.273 . S
O310 C309 1.273 . S
O311 Zn302 1.977 . S
O311 C304 1.267 . S
C312 C314 1.446 . S
C312 C316 1.415 . S
C312 N318 1.369 . S
C313 C314 1.412 1_554 S
C313 C315 1.417 1_554 S
C313 C325 1.422 . S
C314 C312 1.446 . S
C314 C313 1.412 1_556 S
C314 N324 1.346 1_556 S
C315 C313 1.417 1_556 S
C315 C317 1.329 . S
C315 H334 0.930 . S
C316 C312 1.415 . S
C316 C317 1.437 . S
C316 C320 1.413 . S
C317 C315 1.329 . S
C317 C316 1.437 . S
C317 H339 0.929 . S
N318 C312 1.369 . S
N318 C319 1.338 . S
N318 Gd323 2.622 1_566 S
C319 N318 1.338 . S
C319 C321 1.378 . S
C319 H331 0.929 . S
C320 C316 1.413 . S
C320 C321 1.348 . S
C320 H336 0.931 . S
C321 C319 1.378 . S
C321 C320 1.348 . S
C321 H337 0.930 . S
Gd322 N342 2.622 . S
Gd322 N349 2.570 . S
Gd322 O356 2.353 1_545 S
Gd322 O357 2.468 . S
Gd322 O358 2.427 . S
Gd322 O360 2.388 . S
Gd322 O361 2.386 . S
Gd322 O365 2.280 1_554 S
Gd322 C375 2.805 . S
Gd323 N318 2.622 1_544 S
Gd323 N324 2.570 1_545 S
Gd323 O355 2.386 1_645 S
Gd323 O359 2.307 1_655 S
Gd323 O362 2.353 1_655 S
Gd323 O363 2.468 . S
Gd323 O364 2.427 1_554 S
Gd323 O366 2.388 1_654 S
Gd323 C387 2.805 1_554 S
N324 C314 1.346 1_554 S
N324 Gd323 2.570 1_565 S
N324 C326 1.343 . S
C325 C313 1.422 . S
C325 C327 1.321 . S
C325 H333 0.931 . S
C326 N324 1.343 . S
C326 C327 1.390 . S
C326 H328 0.931 . S
C327 C325 1.321 . S
C327 C326 1.390 . S
C327 H329 0.930 . S
H328 C326 0.931 . S
H329 C327 0.930 . S
H330 C353 0.931 1_556 S
H331 C319 0.929 . S
H332 C354 0.984 . S
H333 C325 0.931 . S
H334 C315 0.930 . S
H335 C344 0.929 . S
H336 C320 0.931 . S
H337 C321 0.930 . S
H338 C376 0.930 . S
H339 C317 0.929 . S
H340 C345 0.931 . S
H341 C346 0.930 . S
N342 Gd322 2.622 . S
N342 C343 1.369 . S
N342 C344 1.338 . S
C343 N342 1.369 . S
C343 C347 1.415 . S
C343 C350 1.422 . S
C344 H335 0.929 . S
C344 N342 1.338 . S
C344 C346 1.378 . S
C345 H340 0.931 . S
C345 C346 1.348 . S
C345 C347 1.413 . S
C346 H341 0.930 . S
C346 C344 1.378 . S
C346 C345 1.348 . S
C347 C343 1.415 . S
C347 C345 1.413 . S
C347 C377 1.437 . S
H348 C377 0.929 . S
N349 Gd322 2.570 . S
N349 C350 1.359 . S
N349 C353 1.343 . S
C350 C343 1.422 . S
C350 N349 1.359 . S
C350 C352 1.421 . S
C351 C352 1.422 . S
C351 C354 1.294 1_554 S
C351 H378 0.931 . S
C352 C350 1.421 . S
C352 C351 1.422 . S
C352 C376 1.417 . S
C353 H330 0.931 1_554 S
C353 N349 1.343 . S
C353 C354 1.367 1_554 S
C354 H332 0.984 . S
C354 C351 1.294 1_556 S
C354 C353 1.367 1_556 S
O355 Gd323 2.386 1_465 S
O355 C367 1.265 . S
O356 Gd322 2.353 1_565 S
O356 C367 1.242 . S
O357 Gd322 2.468 . S
O357 C375 1.263 . S
O358 Gd322 2.427 . S
O358 C375 1.252 . S
O359 Gd323 2.307 1_455 S
O359 C368 1.261 . S
O360 Gd322 2.388 . S
O360 C368 1.252 . S
O361 Gd322 2.386 . S
O361 C379 1.265 . S
O362 Gd323 2.353 1_455 S
O362 C379 1.242 . S
O363 Gd323 2.468 . S
O363 C387 1.263 1_554 S
O364 Gd323 2.427 1_556 S
O364 C387 1.252 . S
O365 Gd322 2.280 1_556 S
O365 C380 1.285 . S
O366 Gd323 2.388 1_456 S
O366 C380 1.252 . S
C367 O355 1.265 . S
C367 O356 1.242 . S
C368 O359 1.261 . S
C368 O360 1.252 . S
C369 C372 1.394 . S
C369 C374 1.370 . S
C369 C375 1.500 . S
C370 C373 1.383 . S
C370 C374 1.395 1_565 S
C371 C372 1.396 . S
C371 C373 1.365 1_545 S
C371 H388 0.929 . S
C372 C369 1.394 . S
C372 C371 1.396 . S
C372 H389 0.930 . S
C373 C370 1.383 . S
C373 C371 1.365 1_565 S
C373 H390 0.931 . S
C374 C369 1.370 . S
C374 C370 1.395 1_545 S
C374 H391 0.930 . S
C375 Gd322 2.805 . S
C375 O357 1.263 . S
C375 O358 1.252 . S
C375 C369 1.500 . S
C376 H338 0.930 . S
C376 C352 1.417 . S
C376 C377 1.329 . S
C377 C347 1.437 . S
C377 H348 0.929 . S
C377 C376 1.329 . S
H378 C351 0.931 . S
C379 O361 1.265 . S
C379 O362 1.242 . S
C380 O365 1.285 . S
C380 O366 1.252 . S
C381 C384 1.394 . S
C381 C386 1.370 1_556 S
C381 C387 1.500 . S
C382 C385 1.383 1_554 S
C382 C386 1.395 . S
C383 C384 1.396 . S
C383 C385 1.365 . S
C383 H392 0.929 . S
C384 C381 1.394 . S
C384 C383 1.396 . S
C384 H393 0.930 . S
C385 C382 1.383 1_556 S
C385 C383 1.365 . S
C385 H394 0.931 . S
C386 C381 1.370 1_554 S
C386 C382 1.395 . S
C386 H395 0.930 . S
C387 Gd323 2.805 1_556 S
C387 O363 1.263 1_556 S
C387 O364 1.252 . S
C387 C381 1.500 . S
H388 C371 0.929 . S
H389 C372 0.930 . S
H390 C373 0.931 . S
H391 C374 0.930 . S
H392 C383 0.929 . S
H393 C384 0.930 . S
H394 C385 0.931 . S
H395 C386 0.930 . S
C396 C398 1.422 . S
C396 C400 1.415 . S
C396 N402 1.369 . S
C397 C398 1.421 . S
C397 C399 1.417 . S
C397 C409 1.422 . S
C398 C396 1.422 . S
C398 C397 1.421 . S
C398 N408 1.359 . S
C399 C397 1.417 . S
C399 C401 1.329 . S
C399 H418 0.930 . S
C400 C396 1.415 . S
C400 C401 1.437 . S
C400 C404 1.413 . S
C401 C399 1.329 . S
C401 C400 1.437 . S
C401 H423 0.929 . S
N402 C396 1.369 . S
N402 C403 1.338 . S
N402 Gd407 2.622 . S
C403 N402 1.338 . S
C403 C405 1.378 . S
C403 H415 0.929 . S
C404 C400 1.413 . S
C404 C405 1.348 . S
C404 H420 0.931 . S
C405 C403 1.378 . S
C405 C404 1.348 . S
C405 H421 0.930 . S
Gd406 N426 2.622 . S
Gd406 N433 2.570 . S
Gd406 O440 2.353 . S
Gd406 O441 2.468 . S
Gd406 O442 2.427 . S
Gd406 O444 2.388 . S
Gd406 O445 2.386 . S
Gd406 O449 2.307 . S
Gd406 C459 2.805 . S
Gd407 N402 2.622 . S
Gd407 N408 2.570 . S
Gd407 O439 2.386 . S
Gd407 O443 2.307 . S
Gd407 O446 2.353 . S
Gd407 O447 2.468 . S
Gd407 O448 2.427 . S
Gd407 O450 2.388 . S
Gd407 C471 2.805 . S
N408 C398 1.359 . S
N408 Gd407 2.570 . S
N408 C410 1.343 . S
C409 C397 1.422 . S
C409 C411 1.321 . S
C409 H417 0.931 . S
C410 N408 1.343 . S
C410 C411 1.390 . S
C410 H412 0.931 . S
C411 C409 1.321 . S
C411 C410 1.390 . S
C411 H413 0.930 . S
H412 C410 0.931 . S
H413 C411 0.930 . S
H414 C437 0.931 . S
H415 C403 0.929 . S
H416 C438 0.930 . S
H417 C409 0.931 . S
H418 C399 0.930 . S
H419 C428 0.929 . S
H420 C404 0.931 . S
H421 C405 0.930 . S
H422 C460 0.930 . S
H423 C401 0.929 . S
H424 C429 0.931 . S
H425 C430 0.930 . S
N426 Gd406 2.622 . S
N426 C427 1.369 . S
N426 C428 1.338 . S
C427 N426 1.369 . S
C427 C431 1.415 . S
C427 C434 1.422 . S
C428 H419 0.929 . S
C428 N426 1.338 . S
C428 C430 1.378 . S
C429 H424 0.931 . S
C429 C430 1.348 . S
C429 C431 1.413 . S
C430 H425 0.930 . S
C430 C428 1.378 . S
C430 C429 1.348 . S
C431 C427 1.415 . S
C431 C429 1.413 . S
C431 C461 1.437 . S
H432 C461 0.929 . S
N433 Gd406 2.570 . S
N433 C434 1.359 . S
N433 C437 1.343 . S
C434 C427 1.422 . S
C434 N433 1.359 . S
C434 C436 1.421 . S
C435 C436 1.422 . S
C435 C438 1.321 . S
C435 H462 0.931 . S
C436 C434 1.421 . S
C436 C435 1.422 . S
C436 C460 1.417 . S
C437 H414 0.931 . S
C437 N433 1.343 . S
C437 C438 1.390 . S
C438 H416 0.930 . S
C438 C435 1.321 . S
C438 C437 1.390 . S
O439 Gd407 2.386 . S
O439 C451 1.265 . S
O440 Gd406 2.353 . S
O440 C451 1.242 . S
O441 Gd406 2.468 . S
O441 C459 1.263 . S
O442 Gd406 2.427 . S
O442 C459 1.252 . S
O443 Gd407 2.307 . S
O443 C452 1.261 . S
O444 Gd406 2.388 . S
O444 C452 1.252 . S
O445 Gd406 2.386 . S
O445 C463 1.265 . S
O446 Gd407 2.353 . S
O446 C463 1.242 . S
O447 Gd407 2.468 . S
O447 C471 1.263 . S
O448 Gd407 2.427 . S
O448 C471 1.252 . S
O449 Gd406 2.307 . S
O449 C464 1.261 . S
O450 Gd407 2.388 . S
O450 C464 1.252 . S
C451 O439 1.265 . S
C451 O440 1.242 . S
C452 O443 1.261 . S
C452 O444 1.252 . S
C453 C456 1.394 . S
C453 C458 1.370 . S
C453 C459 1.500 . S
C454 C457 1.383 . S
C454 C458 1.395 . S
C455 C456 1.396 . S
C455 C457 1.365 . S
C455 H472 0.929 . S
C456 C453 1.394 . S
C456 C455 1.396 . S
C456 H473 0.930 . S
C457 C454 1.383 . S
C457 C455 1.365 . S
C457 H474 0.931 . S
C458 C453 1.370 . S
C458 C454 1.395 . S
C458 H475 0.930 . S
C459 Gd406 2.805 . S
C459 O441 1.263 . S
C459 O442 1.252 . S
C459 C453 1.500 . S
C460 H422 0.930 . S
C460 C436 1.417 . S
C460 C461 1.329 . S
C461 C431 1.437 . S
C461 H432 0.929 . S
C461 C460 1.329 . S
H462 C435 0.931 . S
C463 O445 1.265 . S
C463 O446 1.242 . S
C464 O449 1.261 . S
C464 O450 1.252 . S
C465 C468 1.394 . S
C465 C470 1.370 . S
C465 C471 1.500 . S
C466 C469 1.383 . S
C466 C470 1.395 . S
C467 C468 1.396 . S
C467 C469 1.365 . S
C467 H476 0.929 . S
C468 C465 1.394 . S
C468 C467 1.396 . S
C468 H477 0.930 . S
C469 C466 1.383 . S
C469 C467 1.365 . S
C469 H478 0.931 . S
C470 C465 1.370 . S
C470 C466 1.395 . S
C470 H479 0.930 . S
C471 Gd407 2.805 . S
C471 O447 1.263 . S
C471 O448 1.252 . S
C471 C465 1.500 . S
H472 C455 0.929 . S
H473 C456 0.930 . S
H474 C457 0.931 . S
H475 C458 0.930 . S
H476 C467 0.929 . S
H477 C468 0.930 . S
H478 C469 0.931 . S
H479 C470 0.930 . S
C480 C482 1.422 . S
C480 C484 1.415 . S
C480 N486 1.369 . S
C481 C482 1.421 . S
C481 C483 1.417 . S
C481 C493 1.422 . S
C482 C480 1.422 . S
C482 C481 1.421 . S
C482 N492 1.359 . S
C483 C481 1.417 . S
C483 C485 1.329 . S
C483 H502 0.930 . S
C484 C480 1.415 . S
C484 C485 1.437 . S
C484 C488 1.413 . S
C485 C483 1.329 . S
C485 C484 1.437 . S
C485 H507 0.929 . S
N486 C480 1.369 . S
N486 C487 1.338 . S
N486 Gd491 2.622 . S
C487 N486 1.338 . S
C487 C489 1.378 . S
C487 H499 0.929 . S
C488 C484 1.413 . S
C488 C489 1.348 . S
C488 H504 0.931 . S
C489 C487 1.378 . S
C489 C488 1.348 . S
C489 H505 0.930 . S
Gd490 N510 2.638 . S
Gd490 N517 2.570 1_545 S
Gd490 O524 2.353 . S
Gd490 O525 2.468 . S
Gd490 O526 2.427 . S
Gd490 O528 2.388 . S
Gd490 O529 2.386 1_545 S
Gd490 O533 2.307 . S
Gd490 C543 2.805 . S
Gd491 N486 2.622 . S
Gd491 N492 2.570 . S
Gd491 O523 2.386 . S
Gd491 O527 2.307 . S
Gd491 O530 2.353 1_545 S
Gd491 O531 2.468 . S
Gd491 O532 2.427 . S
Gd491 O534 2.388 . S
Gd491 C555 2.805 . S
N492 C482 1.359 . S
N492 Gd491 2.570 . S
N492 C494 1.343 . S
C493 C481 1.422 . S
C493 C495 1.321 . S
C493 H501 0.931 . S
C494 N492 1.343 . S
C494 C495 1.390 . S
C494 H496 0.931 . S
C495 C493 1.321 . S
C495 C494 1.390 . S
C495 H497 0.930 . S
H496 C494 0.931 . S
H497 C495 0.930 . S
H498 C521 0.931 1_545 S
H499 C487 0.929 . S
H500 C522 0.930 . S
H501 C493 0.931 . S
H502 C483 0.930 . S
H503 C512 0.929 . S
H504 C488 0.931 . S
H505 C489 0.930 . S
H506 C544 0.930 . S
H507 C485 0.929 . S
H508 C513 0.931 . S
H509 C514 0.930 . S
N510 Gd490 2.638 . S
N510 C511 1.352 1_545 S
N510 C512 1.337 . S
C511 N510 1.352 1_565 S
C511 C515 1.415 . S
C511 C518 1.422 . S
C512 H503 0.929 . S
C512 N510 1.337 . S
C512 C514 1.378 1_545 S
C513 H508 0.931 . S
C513 C514 1.348 . S
C513 C515 1.413 . S
C514 H509 0.930 . S
C514 C512 1.378 1_565 S
C514 C513 1.348 . S
C515 C511 1.415 . S
C515 C513 1.413 . S
C515 C545 1.437 . S
H516 C545 0.929 . S
N517 Gd490 2.570 1_565 S
N517 C518 1.359 . S
N517 C521 1.343 . S
C518 C511 1.422 . S
C518 N517 1.359 . S
C518 C520 1.421 . S
C519 C520 1.422 . S
C519 C522 1.321 . S
C519 H546 0.931 . S
C520 C518 1.421 . S
C520 C519 1.422 . S
C520 C544 1.417 . S
C521 H498 0.931 1_565 S
C521 N517 1.343 . S
C521 C522 1.390 . S
C522 H500 0.930 . S
C522 C519 1.321 . S
C522 C521 1.390 . S
O523 Gd491 2.386 . S
O523 C535 1.265 . S
O524 Gd490 2.353 . S
O524 C535 1.242 . S
O525 Gd490 2.468 . S
O525 C543 1.263 . S
O526 Gd490 2.427 . S
O526 C543 1.252 . S
O527 Gd491 2.307 . S
O527 C536 1.261 . S
O528 Gd490 2.388 . S
O528 C536 1.252 . S
O529 Gd490 2.386 1_565 S
O529 C547 1.265 . S
O530 Gd491 2.353 1_565 S
O530 C547 1.242 . S
O531 Gd491 2.468 . S
O531 C555 1.263 . S
O532 Gd491 2.427 . S
O532 C555 1.252 . S
O533 Gd490 2.307 . S
O533 C548 1.261 . S
O534 Gd491 2.388 . S
O534 C548 1.252 . S
C535 O523 1.265 . S
C535 O524 1.242 . S
C536 O527 1.261 . S
C536 O528 1.252 . S
C537 C540 1.394 . S
C537 C542 1.370 . S
C537 C543 1.500 . S
C538 C541 1.383 . S
C538 C542 1.395 . S
C539 C540 1.396 . S
C539 C541 1.365 . S
C539 H556 0.929 . S
C540 C537 1.394 . S
C540 C539 1.396 . S
C540 H557 0.930 . S
C541 C538 1.383 . S
C541 C539 1.365 . S
C541 H558 0.931 . S
C542 C537 1.370 . S
C542 C538 1.395 . S
C542 H559 0.930 . S
C543 Gd490 2.805 . S
C543 O525 1.263 . S
C543 O526 1.252 . S
C543 C537 1.500 . S
C544 H506 0.930 . S
C544 C520 1.417 . S
C544 C545 1.329 . S
C545 C515 1.437 . S
C545 H516 0.929 . S
C545 C544 1.329 . S
H546 C519 0.931 . S
C547 O529 1.265 . S
C547 O530 1.242 . S
C548 O533 1.261 . S
C548 O534 1.252 . S
C549 C552 1.394 . S
C549 C554 1.371 . S
C549 C555 1.499 1_565 S
C550 C553 1.383 . S
C550 C554 1.395 . S
C551 C552 1.396 . S
C551 C553 1.365 . S
C551 H560 0.929 . S
C552 C549 1.394 . S
C552 C551 1.396 . S
C552 H561 0.953 . S
C553 C550 1.383 . S
C553 C551 1.365 . S
C553 H562 0.931 . S
C554 C549 1.371 . S
C554 C550 1.395 . S
C554 H563 0.930 . S
C555 Gd491 2.805 . S
C555 O531 1.263 . S
C555 O532 1.252 . S
C555 C549 1.499 1_545 S
H556 C539 0.929 . S
H557 C540 0.930 . S
H558 C541 0.931 . S
H559 C542 0.930 . S
H560 C551 0.929 . S
H561 C552 0.953 . S
H562 C553 0.931 . S
H563 C554 0.930 . S
C564 C566 1.422 . S
C564 C568 1.415 . S
C564 N570 1.369 . S
C565 C566 1.421 . S
C565 C567 1.417 . S
C565 C577 1.422 . S
C566 C564 1.422 . S
C566 C565 1.421 . S
C566 N576 1.359 . S
C567 C565 1.417 . S
C567 C569 1.329 . S
C567 H586 0.930 . S
C568 C564 1.415 . S
C568 C569 1.437 . S
C568 C572 1.413 . S
C569 C567 1.329 . S
C569 C568 1.437 . S
C569 H591 0.929 . S
N570 C564 1.369 . S
N570 C571 1.338 . S
N570 Gd575 2.622 . S
C571 N570 1.338 . S
C571 C573 1.378 . S
C571 H583 0.929 . S
C572 C568 1.413 . S
C572 C573 1.348 . S
C572 H588 0.931 . S
C573 C571 1.378 . S
C573 C572 1.348 . S
C573 H589 0.930 . S
Gd574 N594 2.622 . S
Gd574 N601 2.570 . S
Gd574 O608 2.353 . S
Gd574 O609 2.468 . S
Gd574 O610 2.427 . S
Gd574 O612 2.388 . S
Gd574 O613 2.386 . S
Gd574 O617 2.307 . S
Gd574 C627 2.805 . S
Gd575 N570 2.622 . S
Gd575 N576 2.570 . S
Gd575 O607 2.386 . S
Gd575 O611 2.307 . S
Gd575 O614 2.353 . S
Gd575 O615 2.468 . S
Gd575 O616 2.427 . S
Gd575 O618 2.388 . S
Gd575 C639 2.805 . S
N576 C566 1.359 . S
N576 Gd575 2.570 . S
N576 C578 1.343 . S
C577 C565 1.422 . S
C577 C579 1.321 . S
C577 H585 0.931 . S
C578 N576 1.343 . S
C578 C579 1.390 . S
C578 H580 0.931 . S
C579 C577 1.321 . S
C579 C578 1.390 . S
C579 H581 0.930 . S
H580 C578 0.931 . S
H581 C579 0.930 . S
H582 C605 0.931 . S
H583 C571 0.929 . S
H584 C606 0.930 . S
H585 C577 0.931 . S
H586 C567 0.930 . S
H587 C596 0.929 . S
H588 C572 0.931 . S
H589 C573 0.930 . S
H590 C628 0.930 . S
H591 C569 0.929 . S
H592 C597 0.931 . S
H593 C598 0.930 . S
N594 Gd574 2.622 . S
N594 C595 1.369 . S
N594 C596 1.338 . S
C595 N594 1.369 . S
C595 C599 1.415 . S
C595 C602 1.422 . S
C596 H587 0.929 . S
C596 N594 1.338 . S
C596 C598 1.378 . S
C597 H592 0.931 . S
C597 C598 1.348 . S
C597 C599 1.413 . S
C598 H593 0.930 . S
C598 C596 1.378 . S
C598 C597 1.348 . S
C599 C595 1.415 . S
C599 C597 1.413 . S
C599 C629 1.437 . S
H600 C629 0.929 . S
N601 Gd574 2.570 . S
N601 C602 1.359 . S
N601 C605 1.343 . S
C602 C595 1.422 . S
C602 N601 1.359 . S
C602 C604 1.421 . S
C603 C604 1.422 . S
C603 C606 1.321 . S
C603 H630 0.931 . S
C604 C602 1.421 . S
C604 C603 1.422 . S
C604 C628 1.417 . S
C605 H582 0.931 . S
C605 N601 1.343 . S
C605 C606 1.390 . S
C606 H584 0.930 . S
C606 C603 1.321 . S
C606 C605 1.390 . S
O607 Gd575 2.386 . S
O607 C619 1.265 . S
O608 Gd574 2.353 . S
O608 C619 1.242 . S
O609 Gd574 2.468 . S
O609 C627 1.263 . S
O610 Gd574 2.427 . S
O610 C627 1.252 . S
O611 Gd575 2.307 . S
O611 C620 1.261 . S
O612 Gd574 2.388 . S
O612 C620 1.252 . S
O613 Gd574 2.386 . S
O613 C631 1.265 . S
O614 Gd575 2.353 . S
O614 C631 1.242 . S
O615 Gd575 2.468 . S
O615 C639 1.263 . S
O616 Gd575 2.427 . S
O616 C639 1.252 . S
O617 Gd574 2.307 . S
O617 C632 1.261 . S
O618 Gd575 2.388 . S
O618 C632 1.252 . S
C619 O607 1.265 . S
C619 O608 1.242 . S
C620 O611 1.261 . S
C620 O612 1.252 . S
C621 C624 1.394 . S
C621 C626 1.370 . S
C621 C627 1.500 . S
C622 C625 1.383 . S
C622 C626 1.395 . S
C623 C624 1.396 . S
C623 C625 1.365 . S
C623 H640 0.929 . S
C624 C621 1.394 . S
C624 C623 1.396 . S
C624 H641 0.930 . S
C625 C622 1.383 . S
C625 C623 1.365 . S
C625 H642 0.931 . S
C626 C621 1.370 . S
C626 C622 1.395 . S
C626 H643 0.930 . S
C627 Gd574 2.805 . S
C627 O609 1.263 . S
C627 O610 1.252 . S
C627 C621 1.500 . S
C628 H590 0.930 . S
C628 C604 1.417 . S
C628 C629 1.329 . S
C629 C599 1.437 . S
C629 H600 0.929 . S
C629 C628 1.329 . S
H630 C603 0.931 . S
C631 O613 1.265 . S
C631 O614 1.242 . S
C632 O617 1.261 . S
C632 O618 1.252 . S
C633 C636 1.394 . S
C633 C638 1.370 . S
C633 C639 1.500 . S
C634 C637 1.383 . S
C634 C638 1.395 . S
C635 C636 1.396 . S
C635 C637 1.365 . S
C635 H644 0.929 . S
C636 C633 1.394 . S
C636 C635 1.396 . S
C636 H645 0.930 . S
C637 C634 1.383 . S
C637 C635 1.365 . S
C637 H646 0.931 . S
C638 C633 1.370 . S
C638 C634 1.395 . S
C638 H647 0.930 . S
C639 Gd575 2.805 . S
C639 O615 1.263 . S
C639 O616 1.252 . S
C639 C633 1.500 . S
H640 C623 0.929 . S
H641 C624 0.930 . S
H642 C625 0.931 . S
H643 C626 0.930 . S
H644 C635 0.929 . S
H645 C636 0.930 . S
H646 C637 0.931 . S
H647 C638 0.930 . S
C648 C650 1.422 . S
C648 C652 1.415 1_455 S
C648 N654 1.369 1_455 S
C649 C650 1.421 . S
C649 C651 1.417 . S
C649 C661 1.422 . S
C650 C648 1.422 . S
C650 C649 1.421 . S
C650 N660 1.359 . S
C651 C649 1.417 . S
C651 C653 1.329 . S
C651 H670 0.930 . S
C652 C648 1.415 1_655 S
C652 C653 1.437 1_655 S
C652 C656 1.413 . S
C653 C651 1.329 . S
C653 C652 1.437 1_455 S
C653 H675 0.929 1_455 S
N654 C648 1.369 1_655 S
N654 C655 1.338 . S
N654 Gd659 2.622 1_655 S
C655 N654 1.338 . S
C655 C657 1.378 . S
C655 H667 0.929 . S
C656 C652 1.413 . S
C656 C657 1.348 . S
C656 H672 0.931 . S
C657 C655 1.378 . S
C657 C656 1.348 . S
C657 H673 0.930 . S
Gd658 N678 2.626 . S
Gd658 N685 2.577 . S
Gd658 O692 2.349 1_565 S
Gd658 O693 2.477 . S
Gd658 O694 2.436 . S
Gd658 O696 2.381 1_565 S
Gd658 O697 2.380 1_565 S
Gd658 O701 2.303 1_565 S
Gd658 C711 2.815 . S
Gd659 N654 2.622 1_455 S
Gd659 N660 2.570 . S
Gd659 O691 2.386 . S
Gd659 O695 2.307 . S
Gd659 O698 2.353 . S
Gd659 O699 2.468 . S
Gd659 O700 2.427 1_455 S
Gd659 O702 2.388 1_455 S
Gd659 C723 2.805 . S
N660 C650 1.359 . S
N660 Gd659 2.570 . S
N660 C662 1.343 . S
C661 C649 1.422 . S
C661 C663 1.321 . S
C661 H669 0.931 . S
C662 N660 1.343 . S
C662 C663 1.390 . S
C662 H664 0.931 . S
C663 C661 1.321 . S
C663 C662 1.390 . S
C663 H665 0.930 . S
H664 C662 0.931 . S
H665 C663 0.930 . S
H666 C689 0.931 . S
H667 C655 0.929 . S
H668 C690 0.930 . S
H669 C661 0.931 . S
H670 C651 0.930 . S
H671 C680 0.929 1_545 S
H672 C656 0.931 . S
H673 C657 0.930 . S
H674 C712 0.930 . S
H675 C653 0.929 1_655 S
H676 C681 0.931 . S
H677 C682 0.930 . S
N678 Gd658 2.626 . S
N678 C679 1.369 . S
N678 C680 1.338 . S
C679 N678 1.369 . S
C679 C683 1.415 . S
C679 C686 1.422 . S
C680 H671 0.929 1_565 S
C680 N678 1.338 . S
C680 C682 1.378 . S
C681 H676 0.931 . S
C681 C682 1.348 . S
C681 C683 1.413 . S
C682 H677 0.930 . S
C682 C680 1.378 . S
C682 C681 1.348 . S
C683 C679 1.415 . S
C683 C681 1.413 . S
C683 C713 1.437 . S
H684 C713 0.929 . S
N685 Gd658 2.577 . S
N685 C686 1.359 . S
N685 C689 1.343 1_455 S
C686 C679 1.422 . S
C686 N685 1.359 . S
C686 C688 1.421 . S
C687 C688 1.422 1_655 S
C687 C690 1.321 . S
C687 H714 0.931 . S
C688 C686 1.421 . S
C688 C687 1.422 1_455 S
C688 C712 1.417 . S
C689 H666 0.931 . S
C689 N685 1.343 1_655 S
C689 C690 1.390 . S
C690 H668 0.930 . S
C690 C687 1.321 . S
C690 C689 1.390 . S
O691 Gd659 2.386 . S
O691 C703 1.265 . S
O692 Gd658 2.349 1_545 S
O692 C703 1.242 . S
O693 Gd658 2.477 . S
O693 C711 1.263 . S
O694 Gd658 2.436 . S
O694 C711 1.252 . S
O695 Gd659 2.307 . S
O695 C704 1.261 . S
O696 Gd658 2.381 1_545 S
O696 C704 1.252 . S
O697 Gd658 2.380 1_545 S
O697 C715 1.265 . S
O698 Gd659 2.353 . S
O698 C715 1.242 . S
O699 Gd659 2.468 . S
O699 C723 1.263 . S
O700 Gd659 2.427 1_655 S
O700 C723 1.252 1_655 S
O701 Gd658 2.303 1_545 S
O701 C716 1.261 1_455 S
O702 Gd659 2.388 1_655 S
O702 C716 1.252 . S
C703 O691 1.265 . S
C703 O692 1.242 . S
C704 O695 1.261 . S
C704 O696 1.252 . S
C705 C708 1.394 . S
C705 C710 1.370 . S
C705 C711 1.500 . S
C706 C709 1.383 . S
C706 C710 1.395 . S
C707 C708 1.396 . S
C707 C709 1.365 . S
C707 H724 0.929 . S
C708 C705 1.394 . S
C708 C707 1.396 . S
C708 H725 0.930 . S
C709 C706 1.383 . S
C709 C707 1.365 . S
C709 H726 0.931 . S
C710 C705 1.370 . S
C710 C706 1.395 . S
C710 H727 0.930 . S
C711 Gd658 2.815 . S
C711 O693 1.263 . S
C711 O694 1.252 . S
C711 C705 1.500 . S
C712 H674 0.930 . S
C712 C688 1.417 . S
C712 C713 1.329 . S
C713 C683 1.437 . S
C713 H684 0.929 . S
C713 C712 1.329 . S
H714 C687 0.931 . S
C715 O697 1.265 . S
C715 O698 1.242 . S
C716 O701 1.261 1_655 S
C716 O702 1.252 . S
C717 C720 1.394 1_455 S
C717 C722 1.370 . S
C717 C723 1.500 . S
C718 C721 1.383 1_455 S
C718 C722 1.395 . S
C719 C720 1.396 . S
C719 C721 1.365 . S
C719 H728 0.929 . S
C720 C717 1.394 1_655 S
C720 C719 1.396 . S
C720 H729 0.930 . S
C721 C718 1.383 1_655 S
C721 C719 1.365 . S
C721 H730 0.931 . S
C722 C717 1.370 . S
C722 C718 1.395 . S
C722 H731 0.930 . S
C723 Gd659 2.805 . S
C723 O699 1.263 . S
C723 O700 1.252 1_455 S
C723 C717 1.500 . S
H724 C707 0.929 . S
H725 C708 0.930 . S
H726 C709 0.931 . S
H727 C710 0.930 . S
H728 C719 0.929 . S
H729 C720 0.930 . S
H730 C721 0.931 . S
H731 C722 0.930 . S
C732 C734 1.422 . S
C732 C736 1.415 . S
C732 N738 1.369 . S
C733 C734 1.421 . S
C733 C735 1.417 . S
C733 C745 1.422 . S
C734 C732 1.422 . S
C734 C733 1.421 . S
C734 N744 1.359 . S
C735 C733 1.417 . S
C735 C737 1.329 . S
C735 H754 0.930 . S
C736 C732 1.415 . S
C736 C737 1.437 . S
C736 C740 1.413 . S
C737 C735 1.329 . S
C737 C736 1.437 . S
C737 H759 0.929 . S
N738 C732 1.369 . S
N738 C739 1.338 . S
N738 Gd743 2.622 . S
C739 N738 1.338 . S
C739 C741 1.378 . S
C739 H751 0.929 . S
C740 C736 1.413 . S
C740 C741 1.348 . S
C740 H756 0.931 . S
C741 C739 1.378 . S
C741 C740 1.348 . S
C741 H757 0.930 . S
Gd742 N762 2.622 . S
Gd742 N769 2.570 . S
Gd742 O776 2.353 . S
Gd742 O777 2.468 . S
Gd742 O778 2.427 . S
Gd742 O780 2.388 . S
Gd742 O781 2.386 . S
Gd742 O785 2.307 . S
Gd742 C795 2.805 . S
Gd743 N738 2.622 . S
Gd743 N744 2.570 . S
Gd743 O775 2.386 . S
Gd743 O779 2.307 . S
Gd743 O782 2.353 . S
Gd743 O783 2.468 . S
Gd743 O784 2.427 . S
Gd743 O786 2.388 . S
Gd743 C807 2.805 . S
N744 C734 1.359 . S
N744 Gd743 2.570 . S
N744 C746 1.343 . S
C745 C733 1.422 . S
C745 C747 1.321 . S
C745 H753 0.931 . S
C746 N744 1.343 . S
C746 C747 1.390 . S
C746 H748 0.931 . S
C747 C745 1.321 . S
C747 C746 1.390 . S
C747 H749 0.930 . S
H748 C746 0.931 . S
H749 C747 0.930 . S
H750 C773 0.931 . S
H751 C739 0.929 . S
H752 C774 0.930 . S
H753 C745 0.931 . S
H754 C735 0.930 . S
H755 C764 0.929 . S
H756 C740 0.931 . S
H757 C741 0.930 . S
H758 C796 0.930 . S
H759 C737 0.929 . S
H760 C765 0.931 . S
H761 C766 0.930 . S
N762 Gd742 2.622 . S
N762 C763 1.369 . S
N762 C764 1.338 . S
C763 N762 1.369 . S
C763 C767 1.415 . S
C763 C770 1.422 . S
C764 H755 0.929 . S
C764 N762 1.338 . S
C764 C766 1.378 . S
C765 H760 0.931 . S
C765 C766 1.348 . S
C765 C767 1.413 . S
C766 H761 0.930 . S
C766 C764 1.378 . S
C766 C765 1.348 . S
C767 C763 1.415 . S
C767 C765 1.413 . S
C767 C797 1.437 . S
H768 C797 0.929 . S
N769 Gd742 2.570 . S
N769 C770 1.359 . S
N769 C773 1.343 . S
C770 C763 1.422 . S
C770 N769 1.359 . S
C770 C772 1.421 . S
C771 C772 1.422 . S
C771 C774 1.321 . S
C771 H798 0.931 . S
C772 C770 1.421 . S
C772 C771 1.422 . S
C772 C796 1.417 . S
C773 H750 0.931 . S
C773 N769 1.343 . S
C773 C774 1.390 . S
C774 H752 0.930 . S
C774 C771 1.321 . S
C774 C773 1.390 . S
O775 Gd743 2.386 . S
O775 C787 1.265 . S
O776 Gd742 2.353 . S
O776 C787 1.242 . S
O777 Gd742 2.468 . S
O777 C795 1.263 . S
O778 Gd742 2.427 . S
O778 C795 1.252 . S
O779 Gd743 2.307 . S
O779 C788 1.261 . S
O780 Gd742 2.388 . S
O780 C788 1.252 . S
O781 Gd742 2.386 . S
O781 C799 1.265 . S
O782 Gd743 2.353 . S
O782 C799 1.242 . S
O783 Gd743 2.468 . S
O783 C807 1.263 . S
O784 Gd743 2.427 . S
O784 C807 1.252 . S
O785 Gd742 2.307 . S
O785 C800 1.261 . S
O786 Gd743 2.388 . S
O786 C800 1.252 . S
C787 O775 1.265 . S
C787 O776 1.242 . S
C788 O779 1.261 . S
C788 O780 1.252 . S
C789 C792 1.394 . S
C789 C794 1.370 . S
C789 C795 1.500 . S
C790 C793 1.383 . S
C790 C794 1.395 . S
C791 C792 1.396 . S
C791 C793 1.365 . S
C791 H808 0.929 . S
C792 C789 1.394 . S
C792 C791 1.396 . S
C792 H809 0.930 . S
C793 C790 1.383 . S
C793 C791 1.365 . S
C793 H810 0.931 . S
C794 C789 1.370 . S
C794 C790 1.395 . S
C794 H811 0.930 . S
C795 Gd742 2.805 . S
C795 O777 1.263 . S
C795 O778 1.252 . S
C795 C789 1.500 . S
C796 H758 0.930 . S
C796 C772 1.417 . S
C796 C797 1.329 . S
C797 C767 1.437 . S
C797 H768 0.929 . S
C797 C796 1.329 . S
H798 C771 0.931 . S
C799 O781 1.265 . S
C799 O782 1.242 . S
C800 O785 1.261 . S
C800 O786 1.252 . S
C801 C804 1.394 . S
C801 C806 1.370 . S
C801 C807 1.500 . S
C802 C805 1.383 . S
C802 C806 1.395 . S
C803 C804 1.396 . S
C803 C805 1.365 . S
C803 H812 0.929 . S
C804 C801 1.394 . S
C804 C803 1.396 . S
C804 H813 0.930 . S
C805 C802 1.383 . S
C805 C803 1.365 . S
C805 H814 0.931 . S
C806 C801 1.370 . S
C806 C802 1.395 . S
C806 H815 0.930 . S
C807 Gd743 2.805 . S
C807 O783 1.263 . S
C807 O784 1.252 . S
C807 C801 1.500 . S
H808 C791 0.929 . S
H809 C792 0.930 . S
H810 C793 0.931 . S
H811 C794 0.930 . S
H812 C803 0.929 . S
H813 C804 0.930 . S
H814 C805 0.931 . S
H815 C806 0.930 . S
C816 C818 1.422 1_565 S
C816 C820 1.415 . S
C816 N822 1.369 . S
C817 C818 1.421 . S
C817 C819 1.417 . S
C817 C829 1.422 . S
C818 C816 1.422 1_545 S
C818 C817 1.421 . S
C818 N828 1.359 . S
C819 C817 1.417 . S
C819 C821 1.329 1_545 S
C819 H838 0.930 . S
C820 C816 1.415 . S
C820 C821 1.437 . S
C820 C824 1.413 . S
C821 C819 1.329 1_565 S
C821 C820 1.437 . S
C821 H843 0.929 . S
N822 C816 1.369 . S
N822 C823 1.338 . S
N822 Gd827 2.622 1_565 S
C823 N822 1.338 . S
C823 C825 1.378 . S
C823 H835 0.929 . S
C824 C820 1.413 . S
C824 C825 1.348 . S
C824 H840 0.931 . S
C825 C823 1.378 . S
C825 C824 1.348 . S
C825 H841 0.930 . S
Gd826 N846 2.622 . S
Gd826 N853 2.570 . S
Gd826 O860 2.353 1_556 S
Gd826 O861 2.468 . S
Gd826 O862 2.427 . S
Gd826 O864 2.388 1_556 S
Gd826 O865 2.386 1_556 S
Gd826 O869 2.307 1_556 S
Gd826 C879 2.805 . S
Gd827 N822 2.622 1_545 S
Gd827 N828 2.570 . S
Gd827 O859 2.386 . S
Gd827 O863 2.307 . S
Gd827 O866 2.353 . S
Gd827 O867 2.468 . S
Gd827 O868 2.427 1_545 S
Gd827 O870 2.388 1_545 S
Gd827 C891 2.805 1_545 S
N828 C818 1.359 . S
N828 Gd827 2.570 . S
N828 C830 1.343 . S
C829 C817 1.422 . S
C829 C831 1.321 . S
C829 H837 0.931 . S
C830 N828 1.343 . S
C830 C831 1.390 . S
C830 H832 0.931 . S
C831 C829 1.321 . S
C831 C830 1.390 . S
C831 H833 0.930 . S
H832 C830 0.931 . S
H833 C831 0.930 . S
H834 C857 0.931 1_565 S
H835 C823 0.929 . S
H836 C858 0.930 . S
H837 C829 0.931 . S
H838 C819 0.930 . S
H839 C848 0.929 1_554 S
H840 C824 0.931 . S
H841 C825 0.930 . S
H842 C880 0.930 . S
H843 C821 0.929 . S
H844 C849 0.931 . S
H845 C850 0.930 . S
N846 Gd826 2.622 . S
N846 C847 1.369 . S
N846 C848 1.338 . S
C847 N846 1.369 . S
C847 C851 1.415 . S
C847 C854 1.422 . S
C848 H839 0.929 1_556 S
C848 N846 1.338 . S
C848 C850 1.378 . S
C849 H844 0.931 . S
C849 C850 1.348 . S
C849 C851 1.413 . S
C850 H845 0.930 . S
C850 C848 1.378 . S
C850 C849 1.348 . S
C851 C847 1.415 . S
C851 C849 1.413 . S
C851 C881 1.437 . S
H852 C881 0.929 . S
N853 Gd826 2.570 . S
N853 C854 1.359 . S
N853 C857 1.343 . S
C854 C847 1.422 . S
C854 N853 1.359 . S
C854 C856 1.421 . S
C855 C856 1.422 . S
C855 C858 1.321 1_545 S
C855 H882 0.931 1_545 S
C856 C854 1.421 . S
C856 C855 1.422 . S
C856 C880 1.417 . S
C857 H834 0.931 1_545 S
C857 N853 1.343 . S
C857 C858 1.390 1_545 S
C858 H836 0.930 . S
C858 C855 1.321 1_565 S
C858 C857 1.390 1_565 S
O859 Gd827 2.386 . S
O859 C871 1.265 . S
O860 Gd826 2.353 1_554 S
O860 C871 1.242 . S
O861 Gd826 2.468 . S
O861 C879 1.263 . S
O862 Gd826 2.427 . S
O862 C879 1.252 . S
O863 Gd827 2.307 . S
O863 C872 1.261 . S
O864 Gd826 2.388 1_554 S
O864 C872 1.252 . S
O865 Gd826 2.386 1_554 S
O865 C883 1.265 . S
O866 Gd827 2.353 . S
O866 C883 1.242 . S
O867 Gd827 2.468 . S
O867 C891 1.263 1_545 S
O868 Gd827 2.427 1_565 S
O868 C891 1.252 . S
O869 Gd826 2.307 1_554 S
O869 C884 1.261 1_545 S
O870 Gd827 2.388 1_565 S
O870 C884 1.252 . S
C871 O859 1.265 . S
C871 O860 1.242 . S
C872 O863 1.261 . S
C872 O864 1.252 . S
C873 C876 1.394 . S
C873 C878 1.370 . S
C873 C879 1.500 . S
C874 C877 1.383 . S
C874 C878 1.395 . S
C875 C876 1.396 . S
C875 C877 1.365 . S
C875 H892 0.929 . S
C876 C873 1.394 . S
C876 C875 1.396 . S
C876 H893 0.930 . S
C877 C874 1.383 . S
C877 C875 1.365 . S
C877 H894 0.931 . S
C878 C873 1.370 . S
C878 C874 1.395 . S
C878 H895 0.930 . S
C879 Gd826 2.805 . S
C879 O861 1.263 . S
C879 O862 1.252 . S
C879 C873 1.500 . S
C880 H842 0.930 . S
C880 C856 1.417 . S
C880 C881 1.329 . S
C881 C851 1.437 . S
C881 H852 0.929 . S
C881 C880 1.329 . S
H882 C855 0.931 1_565 S
C883 O865 1.265 . S
C883 O866 1.242 . S
C884 O869 1.261 1_565 S
C884 O870 1.252 . S
C885 C888 1.394 . S
C885 C890 1.370 1_565 S
C885 C891 1.500 . S
C886 C889 1.346 1_545 S
C886 C890 1.405 . S
C887 C888 1.396 . S
C887 C889 1.365 . S
C887 H896 0.929 . S
C888 C885 1.394 . S
C888 C887 1.396 . S
C888 H897 0.930 . S
C889 C886 1.346 1_565 S
C889 C887 1.365 . S
C889 H898 0.931 . S
C890 C885 1.370 1_545 S
C890 C886 1.405 . S
C890 H899 0.930 . S
C891 Gd827 2.805 1_565 S
C891 O867 1.263 1_565 S
C891 O868 1.252 . S
C891 C885 1.500 . S
H892 C875 0.929 . S
H893 C876 0.930 . S
H894 C877 0.931 . S
H895 C878 0.930 . S
H896 C887 0.929 . S
H897 C888 0.930 . S
H898 C889 0.931 . S
H899 C890 0.930 . S
C900 C902 1.422 . S
C900 C904 1.415 . S
C900 N906 1.369 . S
C901 C902 1.421 . S
C901 C903 1.417 . S
C901 C913 1.422 . S
C902 C900 1.422 . S
C902 C901 1.421 . S
C902 N912 1.359 . S
C903 C901 1.417 . S
C903 C905 1.329 . S
C903 H922 0.930 . S
C904 C900 1.415 . S
C904 C905 1.437 . S
C904 C908 1.413 . S
C905 C903 1.329 . S
C905 C904 1.437 . S
C905 H927 0.929 . S
N906 C900 1.369 . S
N906 C907 1.338 . S
N906 Gd911 2.622 . S
C907 N906 1.338 . S
C907 C909 1.378 . S
C907 H919 0.929 . S
C908 C904 1.413 . S
C908 C909 1.348 . S
C908 H924 0.931 . S
C909 C907 1.378 . S
C909 C908 1.348 . S
C909 H925 0.930 . S
Gd910 N930 2.622 . S
Gd910 N937 2.570 . S
Gd910 O944 2.353 . S
Gd910 O945 2.468 . S
Gd910 O946 2.427 . S
Gd910 O948 2.388 . S
Gd910 O949 2.386 . S
Gd910 O953 2.307 . S
Gd910 C963 2.805 . S
Gd911 N906 2.622 . S
Gd911 N912 2.570 . S
Gd911 O943 2.386 . S
Gd911 O947 2.307 . S
Gd911 O950 2.353 . S
Gd911 O951 2.468 . S
Gd911 O952 2.427 . S
Gd911 O954 2.388 . S
Gd911 C975 2.805 . S
N912 C902 1.359 . S
N912 Gd911 2.570 . S
N912 C914 1.343 . S
C913 C901 1.422 . S
C913 C915 1.321 . S
C913 H921 0.931 . S
C914 N912 1.343 . S
C914 C915 1.390 . S
C914 H916 0.931 . S
C915 C913 1.321 . S
C915 C914 1.390 . S
C915 H917 0.930 . S
H916 C914 0.931 . S
H917 C915 0.930 . S
H918 C941 0.931 . S
H919 C907 0.929 . S
H920 C942 0.930 . S
H921 C913 0.931 . S
H922 C903 0.930 . S
H923 C932 0.929 . S
H924 C908 0.931 . S
H925 C909 0.930 . S
H926 C964 0.930 . S
H927 C905 0.929 . S
H928 C933 0.931 . S
H929 C934 0.930 . S
N930 Gd910 2.622 . S
N930 C931 1.369 . S
N930 C932 1.338 . S
C931 N930 1.369 . S
C931 C935 1.415 . S
C931 C938 1.422 . S
C932 H923 0.929 . S
C932 N930 1.338 . S
C932 C934 1.378 . S
C933 H928 0.931 . S
C933 C934 1.348 . S
C933 C935 1.413 . S
C934 H929 0.930 . S
C934 C932 1.378 . S
C934 C933 1.348 . S
C935 C931 1.415 . S
C935 C933 1.413 . S
C935 C965 1.437 . S
H936 C965 0.929 . S
N937 Gd910 2.570 . S
N937 C938 1.359 . S
N937 C941 1.343 . S
C938 C931 1.422 . S
C938 N937 1.359 . S
C938 C940 1.421 . S
C939 C940 1.422 . S
C939 C942 1.321 . S
C939 H966 0.931 . S
C940 C938 1.421 . S
C940 C939 1.422 . S
C940 C964 1.417 . S
C941 H918 0.931 . S
C941 N937 1.343 . S
C941 C942 1.390 . S
C942 H920 0.930 . S
C942 C939 1.321 . S
C942 C941 1.390 . S
O943 Gd911 2.386 . S
O943 C955 1.265 . S
O944 Gd910 2.353 . S
O944 C955 1.242 . S
O945 Gd910 2.468 . S
O945 C963 1.263 . S
O946 Gd910 2.427 . S
O946 C963 1.252 . S
O947 Gd911 2.307 . S
O947 C956 1.261 . S
O948 Gd910 2.388 . S
O948 C956 1.252 . S
O949 Gd910 2.386 . S
O949 C967 1.265 . S
O950 Gd911 2.353 . S
O950 C967 1.242 . S
O951 Gd911 2.468 . S
O951 C975 1.263 . S
O952 Gd911 2.427 . S
O952 C975 1.252 . S
O953 Gd910 2.307 . S
O953 C968 1.261 . S
O954 Gd911 2.388 . S
O954 C968 1.252 . S
C955 O943 1.265 . S
C955 O944 1.242 . S
C956 O947 1.261 . S
C956 O948 1.252 . S
C957 C960 1.394 . S
C957 C962 1.370 . S
C957 C963 1.500 . S
C958 C961 1.383 . S
C958 C962 1.395 . S
C959 C960 1.396 . S
C959 C961 1.365 . S
C959 H976 0.929 . S
C960 C957 1.394 . S
C960 C959 1.396 . S
C960 H977 0.930 . S
C961 C958 1.383 . S
C961 C959 1.365 . S
C961 H978 0.931 . S
C962 C957 1.370 . S
C962 C958 1.395 . S
C962 H979 0.930 . S
C963 Gd910 2.805 . S
C963 O945 1.263 . S
C963 O946 1.252 . S
C963 C957 1.500 . S
C964 H926 0.930 . S
C964 C940 1.417 . S
C964 C965 1.329 . S
C965 C935 1.437 . S
C965 H936 0.929 . S
C965 C964 1.329 . S
H966 C939 0.931 . S
C967 O949 1.265 . S
C967 O950 1.242 . S
C968 O953 1.261 . S
C968 O954 1.252 . S
C969 C972 1.394 . S
C969 C974 1.370 . S
C969 C975 1.500 . S
C970 C973 1.383 . S
C970 C974 1.395 . S
C971 C972 1.396 . S
C971 C973 1.365 . S
C971 H980 0.929 . S
C972 C969 1.394 . S
C972 C971 1.396 . S
C972 H981 0.930 . S
C973 C970 1.383 . S
C973 C971 1.365 . S
C973 H982 0.931 . S
C974 C969 1.370 . S
C974 C970 1.395 . S
C974 H983 0.930 . S
C975 Gd911 2.805 . S
C975 O951 1.263 . S
C975 O952 1.252 . S
C975 C969 1.500 . S
H976 C959 0.929 . S
H977 C960 0.930 . S
H978 C961 0.931 . S
H979 C962 0.930 . S
H980 C971 0.929 . S
H981 C972 0.930 . S
H982 C973 0.931 . S
H983 C974 0.930 . S
C984 C986 1.422 . S
C984 C988 1.415 . S
C984 N990 1.369 . S
C985 C986 1.421 . S
C985 C987 1.417 . S
C985 C997 1.422 . S
C986 C984 1.422 . S
C986 C985 1.421 . S
C986 N996 1.359 . S
C987 C985 1.417 . S
C987 C989 1.329 . S
C987 H1006 0.930 . S
C988 C984 1.415 . S
C988 C989 1.437 . S
C988 C992 1.413 . S
C989 C987 1.329 . S
C989 C988 1.437 . S
C989 H1011 0.929 . S
N990 C984 1.369 . S
N990 C991 1.338 . S
N990 Gd995 2.622 . S
C991 N990 1.338 . S
C991 C993 1.378 . S
C991 H1003 0.929 . S
C992 C988 1.413 . S
C992 C993 1.348 . S
C992 H1008 0.931 . S
C993 C991 1.378 . S
C993 C992 1.348 . S
C993 H1009 0.930 . S
Gd994 N1014 2.622 1_554 S
Gd994 N1021 2.570 1_554 S
Gd994 O1028 2.353 . S
Gd994 O1029 2.468 . S
Gd994 O1030 2.427 . S
Gd994 O1032 2.388 . S
Gd994 O1033 2.386 1_554 S
Gd994 O1037 2.307 . S
Gd994 C1047 2.805 . S
Gd995 N990 2.622 . S
Gd995 N996 2.570 . S
Gd995 O1027 2.386 . S
Gd995 O1031 2.307 . S
Gd995 O1034 2.353 1_554 S
Gd995 O1035 2.468 . S
Gd995 O1036 2.427 . S
Gd995 O1038 2.388 . S
Gd995 C1059 2.805 . S
N996 C986 1.359 . S
N996 Gd995 2.570 . S
N996 C998 1.343 . S
C997 C985 1.422 . S
C997 C999 1.321 . S
C997 H1005 0.931 . S
C998 N996 1.343 . S
C998 C999 1.390 . S
C998 H1000 0.931 . S
C999 C997 1.321 . S
C999 C998 1.390 . S
C999 H1001 0.930 . S
H1000 C998 0.931 . S
H1001 C999 0.930 . S
H1002 C1025 0.931 1_554 S
H1003 C991 0.929 . S
H1004 C1026 0.930 . S
H1005 C997 0.931 . S
H1006 C987 0.930 . S
H1007 C1016 0.929 1_554 S
H1008 C992 0.931 . S
H1009 C993 0.930 . S
H1010 C1048 0.930 . S
H1011 C989 0.929 . S
H1012 C1017 0.931 . S
H1013 C1018 0.930 . S
N1014 Gd994 2.622 1_556 S
N1014 C1015 1.369 . S
N1014 C1016 1.338 . S
C1015 N1014 1.369 . S
C1015 C1019 1.415 . S
C1015 C1022 1.422 . S
C1016 H1007 0.929 1_556 S
C1016 N1014 1.338 . S
C1016 C1018 1.378 . S
C1017 H1012 0.931 . S
C1017 C1018 1.348 . S
C1017 C1019 1.413 . S
C1018 H1013 0.930 . S
C1018 C1016 1.378 . S
C1018 C1017 1.348 . S
C1019 C1015 1.415 . S
C1019 C1017 1.413 . S
C1019 C1049 1.437 . S
H1020 C1049 0.929 . S
N1021 Gd994 2.570 1_556 S
N1021 C1022 1.359 . S
N1021 C1025 1.343 . S
C1022 C1015 1.422 . S
C1022 N1021 1.359 . S
C1022 C1024 1.421 . S
C1023 C1024 1.422 . S
C1023 C1026 1.321 . S
C1023 H1050 0.931 . S
C1024 C1022 1.421 . S
C1024 C1023 1.422 . S
C1024 C1048 1.417 . S
C1025 H1002 0.931 1_556 S
C1025 N1021 1.343 . S
C1025 C1026 1.390 . S
C1026 H1004 0.930 . S
C1026 C1023 1.321 . S
C1026 C1025 1.390 . S
O1027 Gd995 2.386 . S
O1027 C1039 1.265 . S
O1028 Gd994 2.353 . S
O1028 C1039 1.242 . S
O1029 Gd994 2.468 . S
O1029 C1047 1.263 . S
O1030 Gd994 2.427 . S
O1030 C1047 1.252 . S
O1031 Gd995 2.307 . S
O1031 C1040 1.261 . S
O1032 Gd994 2.388 . S
O1032 C1040 1.252 . S
O1033 Gd994 2.386 1_556 S
O1033 C1051 1.265 . S
O1034 Gd995 2.353 1_556 S
O1034 C1051 1.242 . S
O1035 Gd995 2.468 . S
O1035 C1059 1.263 . S
O1036 Gd995 2.427 . S
O1036 C1059 1.252 . S
O1037 Gd994 2.307 . S
O1037 C1052 1.261 . S
O1038 Gd995 2.388 . S
O1038 C1052 1.252 . S
C1039 O1027 1.265 . S
C1039 O1028 1.242 . S
C1040 O1031 1.261 . S
C1040 O1032 1.252 . S
C1041 C1044 1.394 . S
C1041 C1046 1.370 . S
C1041 C1047 1.500 . S
C1042 C1045 1.383 . S
C1042 C1046 1.395 . S
C1043 C1044 1.396 . S
C1043 C1045 1.365 . S
C1043 H1060 0.929 . S
C1044 C1041 1.394 . S
C1044 C1043 1.396 . S
C1044 H1061 0.930 . S
C1045 C1042 1.383 . S
C1045 C1043 1.365 . S
C1045 H1062 0.931 . S
C1046 C1041 1.370 . S
C1046 C1042 1.395 . S
C1046 H1063 0.930 . S
C1047 Gd994 2.805 . S
C1047 O1029 1.263 . S
C1047 O1030 1.252 . S
C1047 C1041 1.500 . S
C1048 H1010 0.930 . S
C1048 C1024 1.417 . S
C1048 C1049 1.329 . S
C1049 C1019 1.437 . S
C1049 H1020 0.929 . S
C1049 C1048 1.329 . S
H1050 C1023 0.931 . S
C1051 O1033 1.265 . S
C1051 O1034 1.242 . S
C1052 O1037 1.261 . S
C1052 O1038 1.252 . S
C1053 C1056 1.394 . S
C1053 C1058 1.370 . S
C1053 C1059 1.500 1_556 S
C1054 C1057 1.383 . S
C1054 C1058 1.395 . S
C1055 C1056 1.396 . S
C1055 C1057 1.365 . S
C1055 H1064 0.929 . S
C1056 C1053 1.394 . S
C1056 C1055 1.396 . S
C1056 H1065 0.930 1_556 S
C1057 C1054 1.383 . S
C1057 C1055 1.365 . S
C1057 H1066 0.931 . S
C1058 C1053 1.370 . S
C1058 C1054 1.395 . S
C1058 H1067 0.930 . S
C1059 Gd995 2.805 . S
C1059 O1035 1.263 . S
C1059 O1036 1.252 . S
C1059 C1053 1.500 1_554 S
H1060 C1043 0.929 . S
H1061 C1044 0.930 . S
H1062 C1045 0.931 . S
H1063 C1046 0.930 . S
H1064 C1055 0.929 . S
H1065 C1056 0.930 1_554 S
H1066 C1057 0.931 . S
H1067 C1058 0.930 . S
C1068 C1070 1.422 . S
C1068 C1072 1.415 . S
C1068 N1074 1.369 . S
C1069 C1070 1.421 . S
C1069 C1071 1.417 . S
C1069 C1081 1.422 . S
C1070 C1068 1.422 . S
C1070 C1069 1.421 . S
C1070 N1080 1.359 . S
C1071 C1069 1.417 . S
C1071 C1073 1.329 . S
C1071 H1090 0.930 . S
C1072 C1068 1.415 . S
C1072 C1073 1.437 . S
C1072 C1076 1.413 . S
C1073 C1071 1.329 . S
C1073 C1072 1.437 . S
C1073 H1095 0.929 . S
N1074 C1068 1.369 . S
N1074 C1075 1.338 . S
N1074 Gd1079 2.622 . S
C1075 N1074 1.338 . S
C1075 C1077 1.378 . S
C1075 H1087 0.929 . S
C1076 C1072 1.413 . S
C1076 C1077 1.348 . S
C1076 H1092 0.931 . S
C1077 C1075 1.378 . S
C1077 C1076 1.348 . S
C1077 H1093 0.930 . S
Gd1078 N1098 2.622 . S
Gd1078 N1105 2.570 . S
Gd1078 O1112 2.353 . S
Gd1078 O1113 2.468 . S
Gd1078 O1114 2.427 . S
Gd1078 O1116 2.388 . S
Gd1078 O1117 2.386 . S
Gd1078 O1121 2.307 . S
Gd1078 C1131 2.805 . S
Gd1079 N1074 2.622 . S
Gd1079 N1080 2.570 . S
Gd1079 O1111 2.386 . S
Gd1079 O1115 2.307 . S
Gd1079 O1118 2.353 . S
Gd1079 O1119 2.468 . S
Gd1079 O1120 2.427 . S
Gd1079 O1122 2.388 . S
Gd1079 C1143 2.805 . S
N1080 C1070 1.359 . S
N1080 Gd1079 2.570 . S
N1080 C1082 1.343 . S
C1081 C1069 1.422 . S
C1081 C1083 1.321 . S
C1081 H1089 0.931 . S
C1082 N1080 1.343 . S
C1082 C1083 1.390 . S
C1082 H1084 0.931 . S
C1083 C1081 1.321 . S
C1083 C1082 1.390 . S
C1083 H1085 0.930 . S
H1084 C1082 0.931 . S
H1085 C1083 0.930 . S
H1086 C1109 0.931 . S
H1087 C1075 0.929 . S
H1088 C1110 0.930 . S
H1089 C1081 0.931 . S
H1090 C1071 0.930 . S
H1091 C1100 0.929 . S
H1092 C1076 0.931 . S
H1093 C1077 0.930 . S
H1094 C1132 0.930 . S
H1095 C1073 0.929 . S
H1096 C1101 0.931 . S
H1097 C1102 0.930 . S
N1098 Gd1078 2.622 . S
N1098 C1099 1.369 . S
N1098 C1100 1.338 . S
C1099 N1098 1.369 . S
C1099 C1103 1.415 . S
C1099 C1106 1.422 . S
C1100 H1091 0.929 . S
C1100 N1098 1.338 . S
C1100 C1102 1.378 . S
C1101 H1096 0.931 . S
C1101 C1102 1.348 . S
C1101 C1103 1.413 . S
C1102 H1097 0.930 . S
C1102 C1100 1.378 . S
C1102 C1101 1.348 . S
C1103 C1099 1.415 . S
C1103 C1101 1.413 . S
C1103 C1133 1.437 . S
H1104 C1133 0.929 . S
N1105 Gd1078 2.570 . S
N1105 C1106 1.359 . S
N1105 C1109 1.343 . S
C1106 C1099 1.422 . S
C1106 N1105 1.359 . S
C1106 C1108 1.421 . S
C1107 C1108 1.422 . S
C1107 C1110 1.321 . S
C1107 H1134 0.931 . S
C1108 C1106 1.421 . S
C1108 C1107 1.422 . S
C1108 C1132 1.417 . S
C1109 H1086 0.931 . S
C1109 N1105 1.343 . S
C1109 C1110 1.390 . S
C1110 H1088 0.930 . S
C1110 C1107 1.321 . S
C1110 C1109 1.390 . S
O1111 Gd1079 2.386 . S
O1111 C1123 1.265 . S
O1112 Gd1078 2.353 . S
O1112 C1123 1.242 . S
O1113 Gd1078 2.468 . S
O1113 C1131 1.263 . S
O1114 Gd1078 2.427 . S
O1114 C1131 1.252 . S
O1115 Gd1079 2.307 . S
O1115 C1124 1.261 . S
O1116 Gd1078 2.388 . S
O1116 C1124 1.252 . S
O1117 Gd1078 2.386 . S
O1117 C1135 1.265 . S
O1118 Gd1079 2.353 . S
O1118 C1135 1.242 . S
O1119 Gd1079 2.468 . S
O1119 C1143 1.263 . S
O1120 Gd1079 2.427 . S
O1120 C1143 1.252 . S
O1121 Gd1078 2.307 . S
O1121 C1136 1.261 . S
O1122 Gd1079 2.388 . S
O1122 C1136 1.252 . S
C1123 O1111 1.265 . S
C1123 O1112 1.242 . S
C1124 O1115 1.261 . S
C1124 O1116 1.252 . S
C1125 C1128 1.394 . S
C1125 C1130 1.370 . S
C1125 C1131 1.500 . S
C1126 C1129 1.383 . S
C1126 C1130 1.395 . S
C1127 C1128 1.396 . S
C1127 C1129 1.365 . S
C1127 H1144 0.929 . S
C1128 C1125 1.394 . S
C1128 C1127 1.396 . S
C1128 H1145 0.930 . S
C1129 C1126 1.383 . S
C1129 C1127 1.365 . S
C1129 H1146 0.931 . S
C1130 C1125 1.370 . S
C1130 C1126 1.395 . S
C1130 H1147 0.930 . S
C1131 Gd1078 2.805 . S
C1131 O1113 1.263 . S
C1131 O1114 1.252 . S
C1131 C1125 1.500 . S
C1132 H1094 0.930 . S
C1132 C1108 1.417 . S
C1132 C1133 1.329 . S
C1133 C1103 1.437 . S
C1133 H1104 0.929 . S
C1133 C1132 1.329 . S
H1134 C1107 0.931 . S
C1135 O1117 1.265 . S
C1135 O1118 1.242 . S
C1136 O1121 1.261 . S
C1136 O1122 1.252 . S
C1137 C1140 1.394 . S
C1137 C1142 1.370 . S
C1137 C1143 1.500 . S
C1138 C1141 1.383 . S
C1138 C1142 1.395 . S
C1139 C1140 1.396 . S
C1139 C1141 1.365 . S
C1139 H1148 0.929 . S
C1140 C1137 1.394 . S
C1140 C1139 1.396 . S
C1140 H1149 0.930 . S
C1141 C1138 1.383 . S
C1141 C1139 1.365 . S
C1141 H1150 0.931 . S
C1142 C1137 1.370 . S
C1142 C1138 1.395 . S
C1142 H1151 0.930 . S
C1143 Gd1079 2.805 . S
C1143 O1119 1.263 . S
C1143 O1120 1.252 . S
C1143 C1137 1.500 . S
H1144 C1127 0.929 . S
H1145 C1128 0.930 . S
H1146 C1129 0.931 . S
H1147 C1130 0.930 . S
H1148 C1139 0.929 . S
H1149 C1140 0.930 . S
H1150 C1141 0.931 . S
H1151 C1142 0.930 . S
C1152 C1154 1.422 . S
C1152 C1156 1.415 . S
C1152 N1158 1.369 . S
C1153 C1154 1.421 . S
C1153 C1155 1.417 . S
C1153 C1165 1.422 . S
C1154 C1152 1.422 . S
C1154 C1153 1.421 . S
C1154 N1164 1.359 . S
C1155 C1153 1.417 . S
C1155 C1157 1.329 . S
C1155 H1174 0.930 . S
C1156 C1152 1.415 . S
C1156 C1157 1.437 . S
C1156 C1160 1.413 . S
C1157 C1155 1.329 . S
C1157 C1156 1.437 . S
C1157 H1179 0.929 . S
N1158 C1152 1.369 . S
N1158 C1159 1.338 . S
N1158 Gd1163 2.622 . S
C1159 N1158 1.338 . S
C1159 C1161 1.378 . S
C1159 H1171 0.929 . S
C1160 C1156 1.413 . S
C1160 C1161 1.348 . S
C1160 H1176 0.931 . S
C1161 C1159 1.378 . S
C1161 C1160 1.348 . S
C1161 H1177 0.930 . S
Gd1162 N1182 2.622 . S
Gd1162 N1189 2.544 1_455 S
Gd1162 O1196 2.353 . S
Gd1162 O1197 2.468 . S
Gd1162 O1198 2.427 . S
Gd1162 O1200 2.388 . S
Gd1162 O1201 2.386 1_455 S
Gd1162 O1205 2.307 . S
Gd1162 C1215 2.805 . S
Gd1163 N1158 2.622 . S
Gd1163 N1164 2.570 . S
Gd1163 O1195 2.386 . S
Gd1163 O1199 2.307 . S
Gd1163 O1202 2.353 1_455 S
Gd1163 O1203 2.468 . S
Gd1163 O1204 2.427 . S
Gd1163 O1206 2.388 . S
Gd1163 C1227 2.805 . S
N1164 C1154 1.359 . S
N1164 Gd1163 2.570 . S
N1164 C1166 1.343 . S
C1165 C1153 1.422 . S
C1165 C1167 1.321 . S
C1165 H1173 0.931 . S
C1166 N1164 1.343 . S
C1166 C1167 1.390 . S
C1166 H1168 0.931 . S
C1167 C1165 1.321 . S
C1167 C1166 1.390 . S
C1167 H1169 0.930 . S
H1168 C1166 0.931 . S
H1169 C1167 0.930 . S
H1170 C1193 0.931 1_455 S
H1171 C1159 0.929 . S
H1172 C1194 0.930 . S
H1173 C1165 0.931 . S
H1174 C1155 0.930 . S
H1175 C1184 0.929 . S
H1176 C1160 0.931 . S
H1177 C1161 0.930 . S
H1178 C1216 0.930 . S
H1179 C1157 0.929 . S
H1180 C1185 0.931 . S
H1181 C1186 0.930 . S
N1182 Gd1162 2.622 . S
N1182 C1183 1.369 1_455 S
N1182 C1184 1.338 . S
C1183 N1182 1.369 1_655 S
C1183 C1187 1.415 . S
C1183 C1190 1.422 . S
C1184 H1175 0.929 . S
C1184 N1182 1.338 . S
C1184 C1186 1.378 1_455 S
C1185 H1180 0.931 . S
C1185 C1186 1.348 . S
C1185 C1187 1.413 . S
C1186 H1181 0.930 . S
C1186 C1184 1.378 1_655 S
C1186 C1185 1.348 . S
C1187 C1183 1.415 . S
C1187 C1185 1.413 . S
C1187 C1217 1.437 . S
H1188 C1217 0.929 . S
N1189 Gd1162 2.544 1_655 S
N1189 C1190 1.397 . S
N1189 C1193 1.337 . S
C1190 C1183 1.422 . S
C1190 N1189 1.397 . S
C1190 C1192 1.421 . S
C1191 C1192 1.422 . S
C1191 C1194 1.321 . S
C1191 H1218 0.931 . S
C1192 C1190 1.421 . S
C1192 C1191 1.422 . S
C1192 C1216 1.417 . S
C1193 H1170 0.931 1_655 S
C1193 N1189 1.337 . S
C1193 C1194 1.390 . S
C1194 H1172 0.930 . S
C1194 C1191 1.321 . S
C1194 C1193 1.390 . S
O1195 Gd1163 2.386 . S
O1195 C1207 1.265 . S
O1196 Gd1162 2.353 . S
O1196 C1207 1.242 . S
O1197 Gd1162 2.468 . S
O1197 C1215 1.263 . S
O1198 Gd1162 2.427 . S
O1198 C1215 1.252 . S
O1199 Gd1163 2.307 . S
O1199 C1208 1.261 . S
O1200 Gd1162 2.388 . S
O1200 C1208 1.252 . S
O1201 Gd1162 2.386 1_655 S
O1201 C1219 1.265 . S
O1202 Gd1163 2.353 1_655 S
O1202 C1219 1.242 . S
O1203 Gd1163 2.468 . S
O1203 C1227 1.263 . S
O1204 Gd1163 2.427 . S
O1204 C1227 1.252 . S
O1205 Gd1162 2.307 . S
O1205 C1220 1.261 . S
O1206 Gd1163 2.388 . S
O1206 C1220 1.252 . S
C1207 O1195 1.265 . S
C1207 O1196 1.242 . S
C1208 O1199 1.261 . S
C1208 O1200 1.252 . S
C1209 C1212 1.394 . S
C1209 C1214 1.370 . S
C1209 C1215 1.500 . S
C1210 C1213 1.383 . S
C1210 C1214 1.395 . S
C1211 C1212 1.396 . S
C1211 C1213 1.365 . S
C1211 H1228 0.929 . S
C1212 C1209 1.394 . S
C1212 C1211 1.396 . S
C1212 H1229 0.930 . S
C1213 C1210 1.383 . S
C1213 C1211 1.365 . S
C1213 H1230 0.931 . S
C1214 C1209 1.370 . S
C1214 C1210 1.395 . S
C1214 H1231 0.930 . S
C1215 Gd1162 2.805 . S
C1215 O1197 1.263 . S
C1215 O1198 1.252 . S
C1215 C1209 1.500 . S
C1216 H1178 0.930 . S
C1216 C1192 1.417 . S
C1216 C1217 1.329 . S
C1217 C1187 1.437 . S
C1217 H1188 0.929 . S
C1217 C1216 1.329 . S
H1218 C1191 0.931 . S
C1219 O1201 1.265 . S
C1219 O1202 1.242 . S
C1220 O1205 1.261 . S
C1220 O1206 1.252 . S
C1221 C1224 1.394 . S
C1221 C1226 1.370 . S
C1221 C1227 1.500 1_655 S
C1222 C1225 1.383 . S
C1222 C1226 1.395 . S
C1223 C1224 1.396 . S
C1223 C1225 1.365 . S
C1223 H1232 0.929 . S
C1224 C1221 1.394 . S
C1224 C1223 1.396 . S
C1224 H1233 0.930 . S
C1225 C1222 1.383 . S
C1225 C1223 1.365 . S
C1225 H1234 0.931 . S
C1226 C1221 1.370 . S
C1226 C1222 1.395 . S
C1226 H1235 0.930 . S
C1227 Gd1163 2.805 . S
C1227 O1203 1.263 . S
C1227 O1204 1.252 . S
C1227 C1221 1.500 1_455 S
H1228 C1211 0.929 . S
H1229 C1212 0.930 . S
H1230 C1213 0.931 . S
H1231 C1214 0.930 . S
H1232 C1223 0.929 . S
H1233 C1224 0.930 . S
H1234 C1225 0.931 . S
H1235 C1226 0.930 . S
C1236 C1238 1.422 . S
C1236 C1240 1.415 . S
C1236 N1242 1.369 . S
C1237 C1238 1.421 . S
C1237 C1239 1.417 . S
C1237 C1249 1.422 . S
C1238 C1236 1.422 . S
C1238 C1237 1.421 . S
C1238 N1248 1.359 . S
C1239 C1237 1.417 . S
C1239 C1241 1.329 . S
C1239 H1258 0.930 . S
C1240 C1236 1.415 . S
C1240 C1241 1.437 . S
C1240 C1244 1.413 . S
C1241 C1239 1.329 . S
C1241 C1240 1.437 . S
C1241 H1263 0.929 . S
N1242 C1236 1.369 . S
N1242 C1243 1.338 . S
N1242 Gd1247 2.622 . S
C1243 N1242 1.338 . S
C1243 C1245 1.378 . S
C1243 H1255 0.929 . S
C1244 C1240 1.413 . S
C1244 C1245 1.348 . S
C1244 H1260 0.931 . S
C1245 C1243 1.378 . S
C1245 C1244 1.348 . S
C1245 H1261 0.930 . S
Gd1246 N1266 2.622 . S
Gd1246 N1273 2.570 . S
Gd1246 O1280 2.353 . S
Gd1246 O1281 2.468 . S
Gd1246 O1282 2.427 . S
Gd1246 O1284 2.388 . S
Gd1246 O1285 2.386 . S
Gd1246 O1289 2.307 . S
Gd1246 C1299 2.805 . S
Gd1247 N1242 2.622 . S
Gd1247 N1248 2.570 . S
Gd1247 O1279 2.386 . S
Gd1247 O1283 2.307 . S
Gd1247 O1286 2.353 . S
Gd1247 O1287 2.468 . S
Gd1247 O1288 2.427 . S
Gd1247 O1290 2.388 . S
Gd1247 C1311 2.805 . S
N1248 C1238 1.359 . S
N1248 Gd1247 2.570 . S
N1248 C1250 1.343 . S
C1249 C1237 1.422 . S
C1249 C1251 1.321 . S
C1249 H1257 0.931 . S
C1250 N1248 1.343 . S
C1250 C1251 1.390 . S
C1250 H1252 0.931 . S
C1251 C1249 1.321 . S
C1251 C1250 1.390 . S
C1251 H1253 0.930 . S
H1252 C1250 0.931 . S
H1253 C1251 0.930 . S
H1254 C1277 0.931 . S
H1255 C1243 0.929 . S
H1256 C1278 0.930 . S
H1257 C1249 0.931 . S
H1258 C1239 0.930 . S
H1259 C1268 0.929 . S
H1260 C1244 0.931 . S
H1261 C1245 0.930 . S
H1262 C1300 0.930 . S
H1263 C1241 0.929 . S
H1264 C1269 0.931 . S
H1265 C1270 0.930 . S
N1266 Gd1246 2.622 . S
N1266 C1267 1.369 . S
N1266 C1268 1.338 . S
C1267 N1266 1.369 . S
C1267 C1271 1.415 . S
C1267 C1274 1.422 . S
C1268 H1259 0.929 . S
C1268 N1266 1.338 . S
C1268 C1270 1.378 . S
C1269 H1264 0.931 . S
C1269 C1270 1.348 . S
C1269 C1271 1.413 . S
C1270 H1265 0.930 . S
C1270 C1268 1.378 . S
C1270 C1269 1.348 . S
C1271 C1267 1.415 . S
C1271 C1269 1.413 . S
C1271 C1301 1.437 . S
H1272 C1301 0.929 . S
N1273 Gd1246 2.570 . S
N1273 C1274 1.359 . S
N1273 C1277 1.343 . S
C1274 C1267 1.422 . S
C1274 N1273 1.359 . S
C1274 C1276 1.421 . S
C1275 C1276 1.422 . S
C1275 C1278 1.321 . S
C1275 H1302 0.931 . S
C1276 C1274 1.421 . S
C1276 C1275 1.422 . S
C1276 C1300 1.417 . S
C1277 H1254 0.931 . S
C1277 N1273 1.343 . S
C1277 C1278 1.390 . S
C1278 H1256 0.930 . S
C1278 C1275 1.321 . S
C1278 C1277 1.390 . S
O1279 Gd1247 2.386 . S
O1279 C1291 1.265 . S
O1280 Gd1246 2.353 . S
O1280 C1291 1.242 . S
O1281 Gd1246 2.468 . S
O1281 C1299 1.263 . S
O1282 Gd1246 2.427 . S
O1282 C1299 1.252 . S
O1283 Gd1247 2.307 . S
O1283 C1292 1.261 . S
O1284 Gd1246 2.388 . S
O1284 C1292 1.252 . S
O1285 Gd1246 2.386 . S
O1285 C1303 1.265 . S
O1286 Gd1247 2.353 . S
O1286 C1303 1.242 . S
O1287 Gd1247 2.468 . S
O1287 C1311 1.263 . S
O1288 Gd1247 2.427 . S
O1288 C1311 1.252 . S
O1289 Gd1246 2.307 . S
O1289 C1304 1.261 . S
O1290 Gd1247 2.388 . S
O1290 C1304 1.252 . S
C1291 O1279 1.265 . S
C1291 O1280 1.242 . S
C1292 O1283 1.261 . S
C1292 O1284 1.252 . S
C1293 C1296 1.394 . S
C1293 C1298 1.370 . S
C1293 C1299 1.500 . S
C1294 C1297 1.383 . S
C1294 C1298 1.395 . S
C1295 C1296 1.396 . S
C1295 C1297 1.365 . S
C1295 H1312 0.929 . S
C1296 C1293 1.394 . S
C1296 C1295 1.396 . S
C1296 H1313 0.930 . S
C1297 C1294 1.383 . S
C1297 C1295 1.365 . S
C1297 H1314 0.931 . S
C1298 C1293 1.370 . S
C1298 C1294 1.395 . S
C1298 H1315 0.930 . S
C1299 Gd1246 2.805 . S
C1299 O1281 1.263 . S
C1299 O1282 1.252 . S
C1299 C1293 1.500 . S
C1300 H1262 0.930 . S
C1300 C1276 1.417 . S
C1300 C1301 1.329 . S
C1301 C1271 1.437 . S
C1301 H1272 0.929 . S
C1301 C1300 1.329 . S
H1302 C1275 0.931 . S
C1303 O1285 1.265 . S
C1303 O1286 1.242 . S
C1304 O1289 1.261 . S
C1304 O1290 1.252 . S
C1305 C1308 1.394 . S
C1305 C1310 1.370 . S
C1305 C1311 1.500 . S
C1306 C1309 1.383 . S
C1306 C1310 1.395 . S
C1307 C1308 1.396 . S
C1307 C1309 1.365 . S
C1307 H1316 0.929 . S
C1308 C1305 1.394 . S
C1308 C1307 1.396 . S
C1308 H1317 0.930 . S
C1309 C1306 1.383 . S
C1309 C1307 1.365 . S
C1309 H1318 0.931 . S
C1310 C1305 1.370 . S
C1310 C1306 1.395 . S
C1310 H1319 0.930 . S
C1311 Gd1247 2.805 . S
C1311 O1287 1.263 . S
C1311 O1288 1.252 . S
C1311 C1305 1.500 . S
H1312 C1295 0.929 . S
H1313 C1296 0.930 . S
H1314 C1297 0.931 . S
H1315 C1298 0.930 . S
H1316 C1307 0.929 . S
H1317 C1308 0.930 . S
H1318 C1309 0.931 . S
H1319 C1310 0.930 . S
C1320 C1322 1.422 . S
C1320 C1324 1.415 . S
C1320 N1326 1.369 . S
C1321 C1322 1.421 . S
C1321 C1323 1.417 . S
C1321 C1333 1.422 . S
C1322 C1320 1.422 . S
C1322 C1321 1.421 . S
C1322 N1332 1.359 . S
C1323 C1321 1.417 . S
C1323 C1325 1.329 . S
C1323 H1342 0.930 . S
C1324 C1320 1.415 . S
C1324 C1325 1.437 . S
C1324 C1328 1.413 . S
C1325 C1323 1.329 . S
C1325 C1324 1.437 . S
C1325 H1347 0.929 . S
N1326 C1320 1.369 . S
N1326 C1327 1.338 . S
N1326 Gd1331 2.622 . S
C1327 N1326 1.338 . S
C1327 C1329 1.378 . S
C1327 H1339 0.929 . S
C1328 C1324 1.413 . S
C1328 C1329 1.348 . S
C1328 H1344 0.931 . S
C1329 C1327 1.378 . S
C1329 C1328 1.348 . S
C1329 H1345 0.930 . S
Gd1330 N1350 2.622 . S
Gd1330 N1357 2.570 . S
Gd1330 O1364 2.353 . S
Gd1330 O1365 2.468 . S
Gd1330 O1366 2.427 . S
Gd1330 O1368 2.388 . S
Gd1330 O1369 2.386 . S
Gd1330 O1373 2.307 . S
Gd1330 C1383 2.805 . S
Gd1331 N1326 2.622 . S
Gd1331 N1332 2.570 . S
Gd1331 O1363 2.386 . S
Gd1331 O1367 2.307 . S
Gd1331 O1370 2.353 . S
Gd1331 O1371 2.468 . S
Gd1331 O1372 2.427 . S
Gd1331 O1374 2.388 . S
Gd1331 C1395 2.805 . S
N1332 C1322 1.359 . S
N1332 Gd1331 2.570 . S
N1332 C1334 1.343 . S
C1333 C1321 1.422 . S
C1333 C1335 1.321 . S
C1333 H1341 0.931 . S
C1334 N1332 1.343 . S
C1334 C1335 1.390 . S
C1334 H1336 0.931 . S
C1335 C1333 1.321 . S
C1335 C1334 1.390 . S
C1335 H1337 0.930 . S
H1336 C1334 0.931 . S
H1337 C1335 0.930 . S
H1338 C1361 0.931 . S
H1339 C1327 0.929 . S
H1340 C1362 0.930 . S
H1341 C1333 0.931 . S
H1342 C1323 0.930 . S
H1343 C1352 0.929 . S
H1344 C1328 0.931 . S
H1345 C1329 0.930 . S
H1346 C1384 0.930 . S
H1347 C1325 0.929 . S
H1348 C1353 0.931 . S
H1349 C1354 0.930 . S
N1350 Gd1330 2.622 . S
N1350 C1351 1.369 . S
N1350 C1352 1.338 . S
C1351 N1350 1.369 . S
C1351 C1355 1.415 . S
C1351 C1358 1.422 . S
C1352 H1343 0.929 . S
C1352 N1350 1.338 . S
C1352 C1354 1.378 . S
C1353 H1348 0.931 . S
C1353 C1354 1.348 . S
C1353 C1355 1.413 . S
C1354 H1349 0.930 . S
C1354 C1352 1.378 . S
C1354 C1353 1.348 . S
C1355 C1351 1.415 . S
C1355 C1353 1.413 . S
C1355 C1385 1.437 . S
H1356 C1385 0.929 . S
N1357 Gd1330 2.570 . S
N1357 C1358 1.359 . S
N1357 C1361 1.343 . S
C1358 C1351 1.422 . S
C1358 N1357 1.359 . S
C1358 C1360 1.421 . S
C1359 C1360 1.422 . S
C1359 C1362 1.321 . S
C1359 H1386 0.931 . S
C1360 C1358 1.421 . S
C1360 C1359 1.422 . S
C1360 C1384 1.417 . S
C1361 H1338 0.931 . S
C1361 N1357 1.343 . S
C1361 C1362 1.390 . S
C1362 H1340 0.930 . S
C1362 C1359 1.321 . S
C1362 C1361 1.390 . S
O1363 Gd1331 2.386 . S
O1363 C1375 1.265 . S
O1364 Gd1330 2.353 . S
O1364 C1375 1.242 . S
O1365 Gd1330 2.468 . S
O1365 C1383 1.263 . S
O1366 Gd1330 2.427 . S
O1366 C1383 1.252 . S
O1367 Gd1331 2.307 . S
O1367 C1376 1.261 . S
O1368 Gd1330 2.388 . S
O1368 C1376 1.252 . S
O1369 Gd1330 2.386 . S
O1369 C1387 1.265 . S
O1370 Gd1331 2.353 . S
O1370 C1387 1.242 . S
O1371 Gd1331 2.468 . S
O1371 C1395 1.263 . S
O1372 Gd1331 2.427 . S
O1372 C1395 1.252 . S
O1373 Gd1330 2.307 . S
O1373 C1388 1.261 . S
O1374 Gd1331 2.388 . S
O1374 C1388 1.252 . S
C1375 O1363 1.265 . S
C1375 O1364 1.242 . S
C1376 O1367 1.261 . S
C1376 O1368 1.252 . S
C1377 C1380 1.394 . S
C1377 C1382 1.370 . S
C1377 C1383 1.500 . S
C1378 C1381 1.383 . S
C1378 C1382 1.395 . S
C1379 C1380 1.396 . S
C1379 C1381 1.365 . S
C1379 H1396 0.929 . S
C1380 C1377 1.394 . S
C1380 C1379 1.396 . S
C1380 H1397 0.930 . S
C1381 C1378 1.383 . S
C1381 C1379 1.365 . S
C1381 H1398 0.931 . S
C1382 C1377 1.370 . S
C1382 C1378 1.395 . S
C1382 H1399 0.930 . S
C1383 Gd1330 2.805 . S
C1383 O1365 1.263 . S
C1383 O1366 1.252 . S
C1383 C1377 1.500 . S
C1384 H1346 0.930 . S
C1384 C1360 1.417 . S
C1384 C1385 1.329 . S
C1385 C1355 1.437 . S
C1385 H1356 0.929 . S
C1385 C1384 1.329 . S
H1386 C1359 0.931 . S
C1387 O1369 1.265 . S
C1387 O1370 1.242 . S
C1388 O1373 1.261 . S
C1388 O1374 1.252 . S
C1389 C1392 1.394 . S
C1389 C1394 1.370 . S
C1389 C1395 1.500 . S
C1390 C1393 1.383 . S
C1390 C1394 1.395 . S
C1391 C1392 1.396 . S
C1391 C1393 1.365 . S
C1391 H1400 0.929 . S
C1392 C1389 1.394 . S
C1392 C1391 1.396 . S
C1392 H1401 0.930 . S
C1393 C1390 1.383 . S
C1393 C1391 1.365 . S
C1393 H1402 0.931 . S
C1394 C1389 1.370 . S
C1394 C1390 1.395 . S
C1394 H1403 0.930 . S
C1395 Gd1331 2.805 . S
C1395 O1371 1.263 . S
C1395 O1372 1.252 . S
C1395 C1389 1.500 . S
H1396 C1379 0.929 . S
H1397 C1380 0.930 . S
H1398 C1381 0.931 . S
H1399 C1382 0.930 . S
H1400 C1391 0.929 . S
H1401 C1392 0.930 . S
H1402 C1393 0.931 . S
H1403 C1394 0.930 . S
C1404 C1406 1.422 . S
C1404 C1408 1.415 . S
C1404 N1410 1.369 . S
C1405 C1406 1.421 . S
C1405 C1407 1.417 . S
C1405 C1417 1.422 . S
C1406 C1404 1.422 . S
C1406 C1405 1.421 . S
C1406 N1416 1.359 . S
C1407 C1405 1.417 . S
C1407 C1409 1.329 . S
C1407 H1426 0.930 . S
C1408 C1404 1.415 . S
C1408 C1409 1.437 . S
C1408 C1412 1.413 . S
C1409 C1407 1.329 . S
C1409 C1408 1.437 . S
C1409 H1431 0.929 . S
N1410 C1404 1.369 . S
N1410 C1411 1.338 . S
N1410 Gd1415 2.622 . S
C1411 N1410 1.338 . S
C1411 C1413 1.378 . S
C1411 H1423 0.929 . S
C1412 C1408 1.413 . S
C1412 C1413 1.348 . S
C1412 H1428 0.931 . S
C1413 C1411 1.378 . S
C1413 C1412 1.348 . S
C1413 H1429 0.930 . S
Gd1414 N1434 2.622 . S
Gd1414 N1441 2.570 . S
Gd1414 O1448 2.353 . S
Gd1414 O1449 2.468 . S
Gd1414 O1450 2.427 . S
Gd1414 O1452 2.388 . S
Gd1414 O1453 2.386 . S
Gd1414 O1457 2.307 . S
Gd1414 C1467 2.805 . S
Gd1415 N1410 2.622 . S
Gd1415 N1416 2.570 . S
Gd1415 O1447 2.386 . S
Gd1415 O1451 2.307 . S
Gd1415 O1454 2.353 . S
Gd1415 O1455 2.468 . S
Gd1415 O1456 2.427 . S
Gd1415 O1458 2.388 . S
Gd1415 C1479 2.805 . S
N1416 C1406 1.359 . S
N1416 Gd1415 2.570 . S
N1416 C1418 1.343 . S
C1417 C1405 1.422 . S
C1417 C1419 1.321 . S
C1417 H1425 0.931 . S
C1418 N1416 1.343 . S
C1418 C1419 1.390 . S
C1418 H1420 0.931 . S
C1419 C1417 1.321 . S
C1419 C1418 1.390 . S
C1419 H1421 0.930 . S
H1420 C1418 0.931 . S
H1421 C1419 0.930 . S
H1422 C1445 0.931 . S
H1423 C1411 0.929 . S
H1424 C1446 0.930 . S
H1425 C1417 0.931 . S
H1426 C1407 0.930 . S
H1427 C1436 0.929 . S
H1428 C1412 0.931 . S
H1429 C1413 0.930 . S
H1430 C1468 0.930 . S
H1431 C1409 0.929 . S
H1432 C1437 0.931 . S
H1433 C1438 0.930 . S
N1434 Gd1414 2.622 . S
N1434 C1435 1.369 . S
N1434 C1436 1.338 . S
C1435 N1434 1.369 . S
C1435 C1439 1.415 . S
C1435 C1442 1.422 . S
C1436 H1427 0.929 . S
C1436 N1434 1.338 . S
C1436 C1438 1.378 . S
C1437 H1432 0.931 . S
C1437 C1438 1.348 . S
C1437 C1439 1.413 . S
C1438 H1433 0.930 . S
C1438 C1436 1.378 . S
C1438 C1437 1.348 . S
C1439 C1435 1.415 . S
C1439 C1437 1.413 . S
C1439 C1469 1.437 . S
H1440 C1469 0.929 . S
N1441 Gd1414 2.570 . S
N1441 C1442 1.359 . S
N1441 C1445 1.343 . S
C1442 C1435 1.422 . S
C1442 N1441 1.359 . S
C1442 C1444 1.421 . S
C1443 C1444 1.422 . S
C1443 C1446 1.321 . S
C1443 H1470 0.931 . S
C1444 C1442 1.421 . S
C1444 C1443 1.422 . S
C1444 C1468 1.417 . S
C1445 H1422 0.931 . S
C1445 N1441 1.343 . S
C1445 C1446 1.390 . S
C1446 H1424 0.930 . S
C1446 C1443 1.321 . S
C1446 C1445 1.390 . S
O1447 Gd1415 2.386 . S
O1447 C1459 1.265 . S
O1448 Gd1414 2.353 . S
O1448 C1459 1.242 . S
O1449 Gd1414 2.468 . S
O1449 C1467 1.263 . S
O1450 Gd1414 2.427 . S
O1450 C1467 1.252 . S
O1451 Gd1415 2.307 . S
O1451 C1460 1.261 . S
O1452 Gd1414 2.388 . S
O1452 C1460 1.252 . S
O1453 Gd1414 2.386 . S
O1453 C1471 1.265 . S
O1454 Gd1415 2.353 . S
O1454 C1471 1.242 . S
O1455 Gd1415 2.468 . S
O1455 C1479 1.263 . S
O1456 Gd1415 2.427 . S
O1456 C1479 1.252 . S
O1457 Gd1414 2.307 . S
O1457 C1472 1.261 . S
O1458 Gd1415 2.388 . S
O1458 C1472 1.252 . S
C1459 O1447 1.265 . S
C1459 O1448 1.242 . S
C1460 O1451 1.261 . S
C1460 O1452 1.252 . S
C1461 C1464 1.394 . S
C1461 C1466 1.370 . S
C1461 C1467 1.500 . S
C1462 C1465 1.383 . S
C1462 C1466 1.395 . S
C1463 C1464 1.396 . S
C1463 C1465 1.365 . S
C1463 H1480 0.929 . S
C1464 C1461 1.394 . S
C1464 C1463 1.396 . S
C1464 H1481 0.930 . S
C1465 C1462 1.383 . S
C1465 C1463 1.365 . S
C1465 H1482 0.931 . S
C1466 C1461 1.370 . S
C1466 C1462 1.395 . S
C1466 H1483 0.930 . S
C1467 Gd1414 2.805 . S
C1467 O1449 1.263 . S
C1467 O1450 1.252 . S
C1467 C1461 1.500 . S
C1468 H1430 0.930 . S
C1468 C1444 1.417 . S
C1468 C1469 1.329 . S
C1469 C1439 1.437 . S
C1469 H1440 0.929 . S
C1469 C1468 1.329 . S
H1470 C1443 0.931 . S
C1471 O1453 1.265 . S
C1471 O1454 1.242 . S
C1472 O1457 1.261 . S
C1472 O1458 1.252 . S
C1473 C1476 1.394 . S
C1473 C1478 1.370 . S
C1473 C1479 1.500 . S
C1474 C1477 1.383 . S
C1474 C1478 1.395 . S
C1475 C1476 1.396 . S
C1475 C1477 1.365 . S
C1475 H1484 0.929 . S
C1476 C1473 1.394 . S
C1476 C1475 1.396 . S
C1476 H1485 0.930 . S
C1477 C1474 1.383 . S
C1477 C1475 1.365 . S
C1477 H1486 0.931 . S
C1478 C1473 1.370 . S
C1478 C1474 1.395 . S
C1478 H1487 0.930 . S
C1479 Gd1415 2.805 . S
C1479 O1455 1.263 . S
C1479 O1456 1.252 . S
C1479 C1473 1.500 . S
H1480 C1463 0.929 . S
H1481 C1464 0.930 . S
H1482 C1465 0.931 . S
H1483 C1466 0.930 . S
H1484 C1475 0.929 . S
H1485 C1476 0.930 . S
H1486 C1477 0.931 . S
H1487 C1478 0.930 . S
C1488 C1490 1.422 . S
C1488 C1492 1.415 . S
C1488 N1494 1.369 . S
C1489 C1490 1.421 . S
C1489 C1491 1.417 . S
C1489 C1501 1.422 . S
C1490 C1488 1.422 . S
C1490 C1489 1.421 . S
C1490 N1500 1.359 . S
C1491 C1489 1.417 . S
C1491 C1493 1.329 . S
C1491 H1510 0.930 . S
C1492 C1488 1.415 . S
C1492 C1493 1.437 . S
C1492 C1496 1.413 . S
C1493 C1491 1.329 . S
C1493 C1492 1.437 . S
C1493 H1515 0.929 . S
N1494 C1488 1.369 . S
N1494 C1495 1.338 . S
N1494 Gd1499 2.622 . S
C1495 N1494 1.338 . S
C1495 C1497 1.378 . S
C1495 H1507 0.929 . S
C1496 C1492 1.413 . S
C1496 C1497 1.348 . S
C1496 H1512 0.931 . S
C1497 C1495 1.378 . S
C1497 C1496 1.348 . S
C1497 H1513 0.930 . S
Gd1498 N1518 2.622 . S
Gd1498 N1525 2.570 . S
Gd1498 O1532 2.353 . S
Gd1498 O1533 2.468 . S
Gd1498 O1534 2.427 . S
Gd1498 O1536 2.388 . S
Gd1498 O1537 2.386 . S
Gd1498 O1541 2.307 . S
Gd1498 C1551 2.805 . S
Gd1499 N1494 2.622 . S
Gd1499 N1500 2.570 . S
Gd1499 O1531 2.386 . S
Gd1499 O1535 2.307 . S
Gd1499 O1538 2.353 . S
Gd1499 O1539 2.468 . S
Gd1499 O1540 2.427 . S
Gd1499 O1542 2.388 . S
Gd1499 C1563 2.805 . S
N1500 C1490 1.359 . S
N1500 Gd1499 2.570 . S
N1500 C1502 1.343 . S
C1501 C1489 1.422 . S
C1501 C1503 1.321 . S
C1501 H1509 0.931 . S
C1502 N1500 1.343 . S
C1502 C1503 1.390 . S
C1502 H1504 0.931 . S
C1503 C1501 1.321 . S
C1503 C1502 1.390 . S
C1503 H1505 0.930 . S
H1504 C1502 0.931 . S
H1505 C1503 0.930 . S
H1506 C1529 0.931 . S
H1507 C1495 0.929 . S
H1508 C1530 0.930 . S
H1509 C1501 0.931 . S
H1510 C1491 0.930 . S
H1511 C1520 0.929 . S
H1512 C1496 0.931 . S
H1513 C1497 0.930 . S
H1514 C1552 0.930 . S
H1515 C1493 0.929 . S
H1516 C1521 0.931 . S
H1517 C1522 0.930 . S
N1518 Gd1498 2.622 . S
N1518 C1519 1.369 . S
N1518 C1520 1.338 . S
C1519 N1518 1.369 . S
C1519 C1523 1.415 . S
C1519 C1526 1.422 . S
C1520 H1511 0.929 . S
C1520 N1518 1.338 . S
C1520 C1522 1.378 . S
C1521 H1516 0.931 . S
C1521 C1522 1.348 . S
C1521 C1523 1.413 . S
C1522 H1517 0.930 . S
C1522 C1520 1.378 . S
C1522 C1521 1.348 . S
C1523 C1519 1.415 . S
C1523 C1521 1.413 . S
C1523 C1553 1.437 . S
H1524 C1553 0.929 . S
N1525 Gd1498 2.570 . S
N1525 C1526 1.359 . S
N1525 C1529 1.343 . S
C1526 C1519 1.422 . S
C1526 N1525 1.359 . S
C1526 C1528 1.421 . S
C1527 C1528 1.422 . S
C1527 C1530 1.321 . S
C1527 H1554 0.931 . S
C1528 C1526 1.421 . S
C1528 C1527 1.422 . S
C1528 C1552 1.417 . S
C1529 H1506 0.931 . S
C1529 N1525 1.343 . S
C1529 C1530 1.390 . S
C1530 H1508 0.930 . S
C1530 C1527 1.321 . S
C1530 C1529 1.390 . S
O1531 Gd1499 2.386 . S
O1531 C1543 1.265 . S
O1532 Gd1498 2.353 . S
O1532 C1543 1.242 . S
O1533 Gd1498 2.468 . S
O1533 C1551 1.263 . S
O1534 Gd1498 2.427 . S
O1534 C1551 1.252 . S
O1535 Gd1499 2.307 . S
O1535 C1544 1.261 . S
O1536 Gd1498 2.388 . S
O1536 C1544 1.252 . S
O1537 Gd1498 2.386 . S
O1537 C1555 1.265 . S
O1538 Gd1499 2.353 . S
O1538 C1555 1.242 . S
O1539 Gd1499 2.468 . S
O1539 C1563 1.263 . S
O1540 Gd1499 2.427 . S
O1540 C1563 1.252 . S
O1541 Gd1498 2.307 . S
O1541 C1556 1.261 . S
O1542 Gd1499 2.388 . S
O1542 C1556 1.252 . S
C1543 O1531 1.265 . S
C1543 O1532 1.242 . S
C1544 O1535 1.261 . S
C1544 O1536 1.252 . S
C1545 C1548 1.394 . S
C1545 C1550 1.370 . S
C1545 C1551 1.500 . S
C1546 C1549 1.383 . S
C1546 C1550 1.395 . S
C1547 C1548 1.396 . S
C1547 C1549 1.365 . S
C1547 H1564 0.929 . S
C1548 C1545 1.394 . S
C1548 C1547 1.396 . S
C1548 H1565 0.930 . S
C1549 C1546 1.383 . S
C1549 C1547 1.365 . S
C1549 H1566 0.931 . S
C1550 C1545 1.370 . S
C1550 C1546 1.395 . S
C1550 H1567 0.930 . S
C1551 Gd1498 2.805 . S
C1551 O1533 1.263 . S
C1551 O1534 1.252 . S
C1551 C1545 1.500 . S
C1552 H1514 0.930 . S
C1552 C1528 1.417 . S
C1552 C1553 1.329 . S
C1553 C1523 1.437 . S
C1553 H1524 0.929 . S
C1553 C1552 1.329 . S
H1554 C1527 0.931 . S
C1555 O1537 1.265 . S
C1555 O1538 1.242 . S
C1556 O1541 1.261 . S
C1556 O1542 1.252 . S
C1557 C1560 1.394 . S
C1557 C1562 1.370 . S
C1557 C1563 1.500 . S
C1558 C1561 1.383 . S
C1558 C1562 1.395 . S
C1559 C1560 1.396 . S
C1559 C1561 1.365 . S
C1559 H1568 0.929 . S
C1560 C1557 1.394 . S
C1560 C1559 1.396 . S
C1560 H1569 0.930 . S
C1561 C1558 1.383 . S
C1561 C1559 1.365 . S
C1561 H1570 0.931 . S
C1562 C1557 1.370 . S
C1562 C1558 1.395 . S
C1562 H1571 0.930 . S
C1563 Gd1499 2.805 . S
C1563 O1539 1.263 . S
C1563 O1540 1.252 . S
C1563 C1557 1.500 . S
H1564 C1547 0.929 . S
H1565 C1548 0.930 . S
H1566 C1549 0.931 . S
H1567 C1550 0.930 . S
H1568 C1559 0.929 . S
H1569 C1560 0.930 . S
H1570 C1561 0.931 . S
H1571 C1562 0.930 . S
C1572 C1574 1.422 1_556 S
C1572 C1576 1.415 . S
C1572 N1578 1.369 . S
C1573 C1574 1.421 . S
C1573 C1575 1.417 1_554 S
C1573 C1585 1.422 . S
C1574 C1572 1.422 1_554 S
C1574 C1573 1.421 . S
C1574 N1584 1.359 . S
C1575 C1573 1.417 1_556 S
C1575 C1577 1.329 . S
C1575 H1594 0.930 1_556 S
C1576 C1572 1.415 . S
C1576 C1577 1.437 . S
C1576 C1580 1.413 . S
C1577 C1575 1.329 . S
C1577 C1576 1.437 . S
C1577 H1599 0.929 . S
N1578 C1572 1.369 . S
N1578 C1579 1.338 . S
N1578 Gd1583 2.622 1_556 S
C1579 N1578 1.338 . S
C1579 C1581 1.378 . S
C1579 H1591 0.929 . S
C1580 C1576 1.413 . S
C1580 C1581 1.348 . S
C1580 H1596 0.931 . S
C1581 C1579 1.378 . S
C1581 C1580 1.348 . S
C1581 H1597 0.930 . S
Gd1582 N1602 2.622 1_455 S
Gd1582 N1609 2.570 1_455 S
Gd1582 O1616 2.353 . S
Gd1582 O1617 2.468 1_455 S
Gd1582 O1618 2.427 1_455 S
Gd1582 O1620 2.388 . S
Gd1582 O1621 2.386 . S
Gd1582 O1625 2.255 1_554 S
Gd1582 C1635 2.805 1_455 S
Gd1583 N1578 2.622 1_554 S
Gd1583 N1584 2.570 . S
Gd1583 O1615 2.386 . S
Gd1583 O1619 2.307 . S
Gd1583 O1622 2.353 . S
Gd1583 O1623 2.468 . S
Gd1583 O1624 2.427 1_554 S
Gd1583 O1626 2.388 1_554 S
Gd1583 C1647 2.805 1_554 S
N1584 C1574 1.359 . S
N1584 Gd1583 2.570 . S
N1584 C1586 1.343 . S
C1585 C1573 1.422 . S
C1585 C1587 1.321 . S
C1585 H1593 0.931 . S
C1586 N1584 1.343 . S
C1586 C1587 1.390 . S
C1586 H1588 0.931 . S
C1587 C1585 1.321 . S
C1587 C1586 1.390 . S
C1587 H1589 0.930 . S
H1588 C1586 0.931 . S
H1589 C1587 0.930 . S
H1590 C1613 0.931 1_556 S
H1591 C1579 0.929 . S
H1592 C1614 0.930 . S
H1593 C1585 0.931 . S
H1594 C1575 0.930 1_554 S
H1595 C1604 0.914 1_455 S
H1596 C1580 0.931 . S
H1597 C1581 0.930 . S
H1598 C1636 0.930 . S
H1599 C1577 0.929 . S
H1600 C1605 0.931 . S
H1601 C1606 0.930 1_455 S
N1602 Gd1582 2.622 1_655 S
N1602 C1603 1.369 . S
N1602 C1604 1.348 . S
C1603 N1602 1.369 . S
C1603 C1607 1.415 . S
C1603 C1610 1.422 . S
C1604 H1595 0.914 1_655 S
C1604 N1602 1.348 . S
C1604 C1606 1.383 . S
C1605 H1600 0.931 . S
C1605 C1606 1.348 . S
C1605 C1607 1.413 . S
C1606 H1601 0.930 1_655 S
C1606 C1604 1.383 . S
C1606 C1605 1.348 . S
C1607 C1603 1.415 . S
C1607 C1605 1.413 . S
C1607 C1637 1.437 . S
H1608 C1637 0.929 . S
N1609 Gd1582 2.570 1_655 S
N1609 C1610 1.359 . S
N1609 C1613 1.343 . S
C1610 C1603 1.422 . S
C1610 N1609 1.359 . S
C1610 C1612 1.421 . S
C1611 C1612 1.422 . S
C1611 C1614 1.321 1_554 S
C1611 H1638 0.941 . S
C1612 C1610 1.421 . S
C1612 C1611 1.422 . S
C1612 C1636 1.417 . S
C1613 H1590 0.931 1_554 S
C1613 N1609 1.343 . S
C1613 C1614 1.390 1_554 S
C1614 H1592 0.930 . S
C1614 C1611 1.321 1_556 S
C1614 C1613 1.390 1_556 S
O1615 Gd1583 2.386 . S
O1615 C1627 1.265 . S
O1616 Gd1582 2.353 . S
O1616 C1627 1.242 . S
O1617 Gd1582 2.468 1_655 S
O1617 C1635 1.263 . S
O1618 Gd1582 2.427 1_655 S
O1618 C1635 1.252 . S
O1619 Gd1583 2.307 . S
O1619 C1628 1.261 . S
O1620 Gd1582 2.388 . S
O1620 C1628 1.252 . S
O1621 Gd1582 2.386 . S
O1621 C1639 1.265 . S
O1622 Gd1583 2.353 . S
O1622 C1639 1.242 . S
O1623 Gd1583 2.468 . S
O1623 C1647 1.263 1_554 S
O1624 Gd1583 2.427 1_556 S
O1624 C1647 1.252 . S
O1625 Gd1582 2.255 1_556 S
O1625 C1640 1.311 . S
O1626 Gd1583 2.388 1_556 S
O1626 C1640 1.252 . S
C1627 O1615 1.265 . S
C1627 O1616 1.242 . S
C1628 O1619 1.261 . S
C1628 O1620 1.252 . S
C1629 C1632 1.394 . S
C1629 C1634 1.370 . S
C1629 C1635 1.500 . S
C1630 C1633 1.383 . S
C1630 C1634 1.395 . S
C1631 C1632 1.396 . S
C1631 C1633 1.365 . S
C1631 H1648 0.929 . S
C1632 C1629 1.394 . S
C1632 C1631 1.396 . S
C1632 H1649 0.930 . S
C1633 C1630 1.383 . S
C1633 C1631 1.365 . S
C1633 H1650 0.931 . S
C1634 C1629 1.370 . S
C1634 C1630 1.395 . S
C1634 H1651 0.930 . S
C1635 Gd1582 2.805 1_655 S
C1635 O1617 1.263 . S
C1635 O1618 1.252 . S
C1635 C1629 1.500 . S
C1636 H1598 0.930 . S
C1636 C1612 1.417 . S
C1636 C1637 1.329 . S
C1637 C1607 1.437 . S
C1637 H1608 0.929 . S
C1637 C1636 1.329 . S
H1638 C1611 0.941 . S
C1639 O1621 1.265 . S
C1639 O1622 1.242 . S
C1640 O1625 1.311 . S
C1640 O1626 1.252 . S
C1641 C1644 1.394 . S
C1641 C1646 1.370 1_556 S
C1641 C1647 1.500 . S
C1642 C1645 1.383 1_554 S
C1642 C1646 1.395 . S
C1643 C1644 1.396 . S
C1643 C1645 1.365 . S
C1643 H1652 0.929 . S
C1644 C1641 1.394 . S
C1644 C1643 1.396 . S
C1644 H1653 0.930 . S
C1645 C1642 1.383 1_556 S
C1645 C1643 1.365 . S
C1645 H1654 0.931 . S
C1646 C1641 1.370 1_554 S
C1646 C1642 1.395 . S
C1646 H1655 0.930 . S
C1647 Gd1583 2.805 1_556 S
C1647 O1623 1.263 1_556 S
C1647 O1624 1.252 . S
C1647 C1641 1.500 . S
H1648 C1631 0.929 . S
H1649 C1632 0.930 . S
H1650 C1633 0.931 . S
H1651 C1634 0.930 . S
H1652 C1643 0.929 . S
H1653 C1644 0.930 . S
H1654 C1645 0.931 . S
H1655 C1646 0.930 . S
C1656 C1657 1.349 . S
C1656 C1658 1.327 . S
C1656 H1681 0.950 . S
C1657 C1656 1.349 . S
C1657 C1673 1.349 1_655 S
C1658 C1656 1.327 . S
C1658 C1677 1.429 1_655 S
C1658 H1682 0.950 . S
C1659 C1676 1.574 . S
C1659 C1678 1.368 . S
C1659 H1683 0.949 . S
H1660 C1664 0.949 . S
C1661 C1662 1.349 1_556 S
C1661 C1663 1.327 . S
C1661 H1684 0.950 . S
C1662 C1661 1.349 1_554 S
C1662 C1674 1.349 . S
C1663 C1661 1.327 . S
C1663 C1679 1.429 . S
C1663 H1685 0.950 . S
C1664 H1660 0.949 . S
C1664 C1672 1.574 1_554 S
C1664 C1680 1.368 1_654 S
H1665 C1673 0.950 . S
H1666 C1671 0.950 . S
H1667 C1672 0.949 1_554 S
H1668 C1674 0.936 1_655 S
H1669 C1675 0.950 1_655 S
H1670 C1676 0.949 . S
C1671 H1666 0.950 . S
C1671 C1673 1.327 . S
C1671 C1677 1.429 . S
C1672 C1664 1.574 1_556 S
C1672 H1667 0.949 1_556 S
C1672 C1678 1.368 1_655 S
C1673 C1657 1.349 1_455 S
C1673 H1665 0.950 . S
C1673 C1671 1.327 . S
C1674 C1662 1.349 . S
C1674 H1668 0.936 1_455 S
C1674 C1675 1.327 . S
C1675 H1669 0.950 1_455 S
C1675 C1674 1.327 . S
C1675 C1679 1.429 1_554 S
C1676 C1659 1.574 . S
C1676 H1670 0.949 . S
C1676 C1680 1.368 . S
C1677 C1658 1.429 1_455 S
C1677 C1671 1.429 . S
C1677 C1678 1.523 . S
C1678 C1659 1.368 . S
C1678 C1672 1.368 1_455 S
C1678 C1677 1.523 . S
C1679 C1663 1.429 . S
C1679 C1675 1.429 1_556 S
C1679 C1680 1.523 . S
C1680 C1664 1.368 1_456 S
C1680 C1676 1.368 . S
C1680 C1679 1.523 . S
H1681 C1656 0.950 . S
H1682 C1658 0.950 . S
H1683 C1659 0.949 . S
H1684 C1661 0.950 . S
H1685 C1663 0.950 . S
C1686 C1687 1.349 . S
C1686 C1688 1.327 . S
C1686 H1711 0.950 . S
C1687 C1686 1.349 . S
C1687 C1703 1.349 . S
C1688 C1686 1.327 . S
C1688 C1707 1.429 . S
C1688 H1712 0.950 . S
C1689 C1706 1.574 . S
C1689 C1708 1.368 . S
C1689 H1713 0.949 . S
H1690 C1694 0.949 . S
C1691 C1692 1.349 . S
C1691 C1693 1.327 . S
C1691 H1714 0.950 . S
C1692 C1691 1.349 . S
C1692 C1704 1.349 . S
C1693 C1691 1.327 . S
C1693 C1709 1.429 . S
C1693 H1715 0.950 . S
C1694 H1690 0.949 . S
C1694 C1702 1.574 . S
C1694 C1710 1.368 . S
H1695 C1703 0.950 . S
H1696 C1701 0.950 . S
H1697 C1702 0.949 . S
H1698 C1704 0.950 . S
H1699 C1705 0.950 . S
H1700 C1706 0.949 . S
C1701 H1696 0.950 . S
C1701 C1703 1.327 . S
C1701 C1707 1.429 . S
C1702 C1694 1.574 . S
C1702 H1697 0.949 . S
C1702 C1708 1.368 . S
C1703 C1687 1.349 . S
C1703 H1695 0.950 . S
C1703 C1701 1.327 . S
C1704 C1692 1.349 . S
C1704 H1698 0.950 . S
C1704 C1705 1.327 . S
C1705 H1699 0.950 . S
C1705 C1704 1.327 . S
C1705 C1709 1.429 . S
C1706 C1689 1.574 . S
C1706 H1700 0.949 . S
C1706 C1710 1.368 . S
C1707 C1688 1.429 . S
C1707 C1701 1.429 . S
C1707 C1708 1.523 . S
C1708 C1689 1.368 . S
C1708 C1702 1.368 . S
C1708 C1707 1.523 . S
C1709 C1693 1.429 . S
C1709 C1705 1.429 . S
C1709 C1710 1.523 . S
C1710 C1694 1.368 . S
C1710 C1706 1.368 . S
C1710 C1709 1.523 . S
H1711 C1686 0.950 . S
H1712 C1688 0.950 . S
H1713 C1689 0.949 . S
H1714 C1691 0.950 . S
H1715 C1693 0.950 . S
C1716 C1717 1.349 . S
C1716 C1718 1.327 . S
C1716 H1741 0.950 . S
C1717 C1716 1.349 . S
C1717 C1733 1.349 . S
C1718 C1716 1.327 . S
C1718 C1737 1.429 . S
C1718 H1742 0.950 . S
C1719 C1736 1.574 . S
C1719 C1738 1.368 . S
C1719 H1743 0.949 . S
H1720 C1724 0.949 . S
C1721 C1722 1.349 . S
C1721 C1723 1.327 . S
C1721 H1744 0.950 . S
C1722 C1721 1.349 . S
C1722 C1734 1.349 . S
C1723 C1721 1.327 . S
C1723 C1739 1.429 . S
C1723 H1745 0.950 . S
C1724 H1720 0.949 . S
C1724 C1732 1.574 . S
C1724 C1740 1.368 . S
H1725 C1733 0.950 . S
H1726 C1731 0.950 . S
H1727 C1732 0.949 . S
H1728 C1734 0.950 . S
H1729 C1735 0.950 . S
H1730 C1736 0.949 . S
C1731 H1726 0.950 . S
C1731 C1733 1.327 . S
C1731 C1737 1.429 . S
C1732 C1724 1.574 . S
C1732 H1727 0.949 . S
C1732 C1738 1.368 . S
C1733 C1717 1.349 . S
C1733 H1725 0.950 . S
C1733 C1731 1.327 . S
C1734 C1722 1.349 . S
C1734 H1728 0.950 . S
C1734 C1735 1.327 . S
C1735 H1729 0.950 . S
C1735 C1734 1.327 . S
C1735 C1739 1.429 . S
C1736 C1719 1.574 . S
C1736 H1730 0.949 . S
C1736 C1740 1.368 . S
C1737 C1718 1.429 . S
C1737 C1731 1.429 . S
C1737 C1738 1.523 . S
C1738 C1719 1.368 . S
C1738 C1732 1.368 . S
C1738 C1737 1.523 . S
C1739 C1723 1.429 . S
C1739 C1735 1.429 . S
C1739 C1740 1.523 . S
C1740 C1724 1.368 . S
C1740 C1736 1.368 . S
C1740 C1739 1.523 . S
H1741 C1716 0.950 . S
H1742 C1718 0.950 . S
H1743 C1719 0.949 . S
H1744 C1721 0.950 . S
H1745 C1723 0.950 . S
C1746 C1747 1.349 . S
C1746 C1748 1.327 . S
C1746 H1771 0.950 . S
C1747 C1746 1.349 . S
C1747 C1763 1.349 . S
C1748 C1746 1.327 . S
C1748 C1767 1.429 . S
C1748 H1772 0.950 . S
C1749 C1766 1.574 . S
C1749 C1768 1.368 . S
C1749 H1773 0.949 . S
H1750 C1754 0.949 . S
C1751 C1752 1.349 . S
C1751 C1753 1.327 . S
C1751 H1774 0.950 . S
C1752 C1751 1.349 . S
C1752 C1764 1.349 . S
C1753 C1751 1.327 . S
C1753 C1769 1.429 . S
C1753 H1775 0.950 . S
C1754 H1750 0.949 . S
C1754 C1762 1.574 . S
C1754 C1770 1.368 . S
H1755 C1763 0.950 . S
H1756 C1761 0.950 . S
H1757 C1762 0.949 . S
H1758 C1764 0.950 . S
H1759 C1765 0.950 . S
H1760 C1766 0.949 . S
C1761 H1756 0.950 . S
C1761 C1763 1.327 . S
C1761 C1767 1.429 . S
C1762 C1754 1.574 . S
C1762 H1757 0.949 . S
C1762 C1768 1.368 . S
C1763 C1747 1.349 . S
C1763 H1755 0.950 . S
C1763 C1761 1.327 . S
C1764 C1752 1.349 . S
C1764 H1758 0.950 . S
C1764 C1765 1.327 . S
C1765 H1759 0.950 . S
C1765 C1764 1.327 . S
C1765 C1769 1.429 . S
C1766 C1749 1.574 . S
C1766 H1760 0.949 . S
C1766 C1770 1.368 . S
C1767 C1748 1.429 . S
C1767 C1761 1.429 . S
C1767 C1768 1.523 . S
C1768 C1749 1.368 . S
C1768 C1762 1.368 . S
C1768 C1767 1.523 . S
C1769 C1753 1.429 . S
C1769 C1765 1.429 . S
C1769 C1770 1.523 . S
C1770 C1754 1.368 . S
C1770 C1766 1.368 . S
C1770 C1769 1.523 . S
H1771 C1746 0.950 . S
H1772 C1748 0.950 . S
H1773 C1749 0.949 . S
H1774 C1751 0.950 . S
H1775 C1753 0.950 . S
C1776 C1777 1.349 . S
C1776 C1778 1.327 . S
C1776 H1801 0.950 . S
C1777 C1776 1.349 . S
C1777 C1793 1.349 . S
C1778 C1776 1.327 . S
C1778 C1797 1.429 . S
C1778 H1802 0.950 . S
C1779 C1796 1.574 . S
C1779 C1798 1.368 . S
C1779 H1803 0.949 . S
H1780 C1784 0.949 . S
C1781 C1782 1.349 . S
C1781 C1783 1.327 . S
C1781 H1804 0.950 . S
C1782 C1781 1.349 . S
C1782 C1794 1.349 . S
C1783 C1781 1.327 . S
C1783 C1799 1.429 . S
C1783 H1805 0.950 . S
C1784 H1780 0.949 . S
C1784 C1792 1.574 . S
C1784 C1800 1.368 . S
H1785 C1793 0.950 . S
H1786 C1791 0.950 . S
H1787 C1792 0.949 . S
H1788 C1794 0.950 . S
H1789 C1795 0.950 . S
H1790 C1796 0.949 . S
C1791 H1786 0.950 . S
C1791 C1793 1.327 . S
C1791 C1797 1.429 . S
C1792 C1784 1.574 . S
C1792 H1787 0.949 . S
C1792 C1798 1.368 . S
C1793 C1777 1.349 . S
C1793 H1785 0.950 . S
C1793 C1791 1.327 . S
C1794 C1782 1.349 . S
C1794 H1788 0.950 . S
C1794 C1795 1.327 . S
C1795 H1789 0.950 . S
C1795 C1794 1.327 . S
C1795 C1799 1.429 . S
C1796 C1779 1.574 . S
C1796 H1790 0.949 . S
C1796 C1800 1.368 . S
C1797 C1778 1.429 . S
C1797 C1791 1.429 . S
C1797 C1798 1.523 . S
C1798 C1779 1.368 . S
C1798 C1792 1.368 . S
C1798 C1797 1.523 . S
C1799 C1783 1.429 . S
C1799 C1795 1.429 . S
C1799 C1800 1.523 . S
C1800 C1784 1.368 . S
C1800 C1796 1.368 . S
C1800 C1799 1.523 . S
H1801 C1776 0.950 . S
H1802 C1778 0.950 . S
H1803 C1779 0.949 . S
H1804 C1781 0.950 . S
H1805 C1783 0.950 . S
C1806 C1807 1.349 . S
C1806 C1808 1.327 . S
C1806 H1831 0.950 . S
C1807 C1806 1.349 . S
C1807 C1823 1.349 . S
C1808 C1806 1.327 . S
C1808 C1827 1.429 . S
C1808 H1832 0.950 . S
C1809 C1826 1.574 . S
C1809 C1828 1.368 . S
C1809 H1833 0.949 . S
H1810 C1814 0.949 . S
C1811 C1812 1.349 . S
C1811 C1813 1.327 . S
C1811 H1834 0.950 . S
C1812 C1811 1.349 . S
C1812 C1824 1.349 . S
C1813 C1811 1.327 . S
C1813 C1829 1.429 . S
C1813 H1835 0.950 . S
C1814 H1810 0.949 . S
C1814 C1822 1.574 . S
C1814 C1830 1.368 . S
H1815 C1823 0.950 . S
H1816 C1821 0.950 . S
H1817 C1822 0.949 . S
H1818 C1824 0.950 . S
H1819 C1825 0.950 . S
H1820 C1826 0.949 . S
C1821 H1816 0.950 . S
C1821 C1823 1.327 . S
C1821 C1827 1.429 . S
C1822 C1814 1.574 . S
C1822 H1817 0.949 . S
C1822 C1828 1.368 . S
C1823 C1807 1.349 . S
C1823 H1815 0.950 . S
C1823 C1821 1.327 . S
C1824 C1812 1.349 . S
C1824 H1818 0.950 . S
C1824 C1825 1.327 . S
C1825 H1819 0.950 . S
C1825 C1824 1.327 . S
C1825 C1829 1.429 . S
C1826 C1809 1.574 . S
C1826 H1820 0.949 . S
C1826 C1830 1.368 . S
C1827 C1808 1.429 . S
C1827 C1821 1.429 . S
C1827 C1828 1.523 . S
C1828 C1809 1.368 . S
C1828 C1822 1.368 . S
C1828 C1827 1.523 . S
C1829 C1813 1.429 . S
C1829 C1825 1.429 . S
C1829 C1830 1.523 . S
C1830 C1814 1.368 . S
C1830 C1826 1.368 . S
C1830 C1829 1.523 . S
H1831 C1806 0.950 . S
H1832 C1808 0.950 . S
H1833 C1809 0.949 . S
H1834 C1811 0.950 . S
H1835 C1813 0.950 . S
C1836 C1837 1.349 . S
C1836 C1838 1.327 . S
C1836 H1861 0.950 . S
C1837 C1836 1.349 . S
C1837 C1853 1.349 . S
C1838 C1836 1.327 . S
C1838 C1857 1.429 . S
C1838 H1862 0.950 . S
C1839 C1856 1.574 . S
C1839 C1858 1.368 . S
C1839 H1863 0.949 . S
H1840 C1844 0.949 . S
C1841 C1842 1.349 . S
C1841 C1843 1.327 . S
C1841 H1864 0.950 . S
C1842 C1841 1.349 . S
C1842 C1854 1.349 . S
C1843 C1841 1.327 . S
C1843 C1859 1.429 . S
C1843 H1865 0.950 . S
C1844 H1840 0.949 . S
C1844 C1852 1.574 . S
C1844 C1860 1.368 . S
H1845 C1853 0.950 . S
H1846 C1851 0.950 . S
H1847 C1852 0.949 . S
H1848 C1854 0.950 . S
H1849 C1855 0.950 . S
H1850 C1856 0.949 . S
C1851 H1846 0.950 . S
C1851 C1853 1.327 . S
C1851 C1857 1.429 . S
C1852 C1844 1.574 . S
C1852 H1847 0.949 . S
C1852 C1858 1.368 . S
C1853 C1837 1.349 . S
C1853 H1845 0.950 . S
C1853 C1851 1.327 . S
C1854 C1842 1.349 . S
C1854 H1848 0.950 . S
C1854 C1855 1.327 . S
C1855 H1849 0.950 . S
C1855 C1854 1.327 . S
C1855 C1859 1.429 . S
C1856 C1839 1.574 . S
C1856 H1850 0.949 . S
C1856 C1860 1.368 . S
C1857 C1838 1.429 . S
C1857 C1851 1.429 . S
C1857 C1858 1.523 . S
C1858 C1839 1.368 . S
C1858 C1852 1.368 . S
C1858 C1857 1.523 . S
C1859 C1843 1.429 . S
C1859 C1855 1.429 . S
C1859 C1860 1.523 . S
C1860 C1844 1.368 . S
C1860 C1856 1.368 . S
C1860 C1859 1.523 . S
H1861 C1836 0.950 . S
H1862 C1838 0.950 . S
H1863 C1839 0.949 . S
H1864 C1841 0.950 . S
H1865 C1843 0.950 . S
C1866 C1867 1.349 . S
C1866 C1868 1.327 . S
C1866 H1891 0.950 . S
C1867 C1866 1.349 . S
C1867 C1883 1.349 . S
C1868 C1866 1.327 . S
C1868 C1887 1.429 . S
C1868 H1892 0.950 . S
C1869 C1886 1.574 . S
C1869 C1888 1.368 . S
C1869 H1893 0.949 . S
H1870 C1874 0.949 . S
C1871 C1872 1.349 . S
C1871 C1873 1.327 . S
C1871 H1894 0.950 . S
C1872 C1871 1.349 . S
C1872 C1884 1.349 . S
C1873 C1871 1.327 . S
C1873 C1889 1.429 . S
C1873 H1895 0.950 . S
C1874 H1870 0.949 . S
C1874 C1882 1.574 . S
C1874 C1890 1.368 . S
H1875 C1883 0.950 . S
H1876 C1881 0.950 . S
H1877 C1882 0.949 . S
H1878 C1884 0.950 . S
H1879 C1885 0.950 . S
H1880 C1886 0.949 . S
C1881 H1876 0.950 . S
C1881 C1883 1.327 . S
C1881 C1887 1.429 . S
C1882 C1874 1.574 . S
C1882 H1877 0.949 . S
C1882 C1888 1.368 . S
C1883 C1867 1.349 . S
C1883 H1875 0.950 . S
C1883 C1881 1.327 . S
C1884 C1872 1.349 . S
C1884 H1878 0.950 . S
C1884 C1885 1.327 . S
C1885 H1879 0.950 . S
C1885 C1884 1.327 . S
C1885 C1889 1.429 . S
C1886 C1869 1.574 . S
C1886 H1880 0.949 . S
C1886 C1890 1.368 . S
C1887 C1868 1.429 . S
C1887 C1881 1.429 . S
C1887 C1888 1.523 . S
C1888 C1869 1.368 . S
C1888 C1882 1.368 . S
C1888 C1887 1.523 . S
C1889 C1873 1.429 . S
C1889 C1885 1.429 . S
C1889 C1890 1.523 . S
C1890 C1874 1.368 . S
C1890 C1886 1.368 . S
C1890 C1889 1.523 . S
H1891 C1866 0.950 . S
H1892 C1868 0.950 . S
H1893 C1869 0.949 . S
H1894 C1871 0.950 . S
H1895 C1873 0.950 . S
C1896 C1897 1.330 1_565 S
C1896 C1898 1.325 1_565 S
C1896 H1921 0.971 . S
C1897 C1896 1.330 1_545 S
C1897 C1913 1.349 . S
C1898 C1896 1.325 1_545 S
C1898 C1917 1.449 . S
C1898 H1922 0.931 1_545 S
C1899 C1916 1.574 . S
C1899 C1918 1.368 . S
C1899 H1923 0.949 . S
H1900 C1904 0.949 1_565 S
C1901 C1902 1.349 . S
C1901 C1903 1.327 1_455 S
C1901 H1924 0.950 . S
C1902 C1901 1.349 . S
C1902 C1914 1.349 1_455 S
C1903 C1901 1.327 1_655 S
C1903 C1919 1.429 . S
C1903 H1925 0.949 1_655 S
C1904 H1900 0.949 1_545 S
C1904 C1912 1.574 . S
C1904 C1920 1.368 . S
H1905 C1913 0.950 . S
H1906 C1911 0.950 . S
H1907 C1912 0.949 1_565 S
H1908 C1914 0.905 1_565 S
H1909 C1915 0.950 1_565 S
H1910 C1916 0.949 . S
C1911 H1906 0.950 . S
C1911 C1913 1.327 . S
C1911 C1917 1.429 . S
C1912 C1904 1.574 . S
C1912 H1907 0.949 1_545 S
C1912 C1918 1.368 . S
C1913 C1897 1.349 . S
C1913 H1905 0.950 . S
C1913 C1911 1.327 . S
C1914 C1902 1.349 1_655 S
C1914 H1908 0.905 1_545 S
C1914 C1915 1.327 . S
C1915 H1909 0.950 1_545 S
C1915 C1914 1.327 . S
C1915 C1919 1.429 . S
C1916 C1899 1.574 . S
C1916 H1910 0.949 . S
C1916 C1920 1.368 . S
C1917 C1898 1.449 . S
C1917 C1911 1.429 . S
C1917 C1918 1.523 . S
C1918 C1899 1.368 . S
C1918 C1912 1.368 . S
C1918 C1917 1.523 . S
C1919 C1903 1.429 . S
C1919 C1915 1.429 . S
C1919 C1920 1.523 . S
C1920 C1904 1.368 . S
C1920 C1916 1.368 . S
C1920 C1919 1.523 . S
H1921 C1896 0.971 . S
H1922 C1898 0.931 1_565 S
H1923 C1899 0.949 . S
H1924 C1901 0.950 . S
H1925 C1903 0.949 1_455 S
C1926 C1927 1.349 . S
C1926 C1928 1.327 . S
C1926 H1951 0.950 . S
C1927 C1926 1.349 . S
C1927 C1943 1.349 . S
C1928 C1926 1.327 . S
C1928 C1947 1.429 . S
C1928 H1952 0.950 . S
C1929 C1946 1.574 . S
C1929 C1948 1.368 . S
C1929 H1953 0.949 . S
H1930 C1934 0.949 . S
C1931 C1932 1.349 . S
C1931 C1933 1.327 . S
C1931 H1954 0.950 . S
C1932 C1931 1.349 . S
C1932 C1944 1.349 . S
C1933 C1931 1.327 . S
C1933 C1949 1.429 . S
C1933 H1955 0.950 . S
C1934 H1930 0.949 . S
C1934 C1942 1.574 . S
C1934 C1950 1.368 . S
H1935 C1943 0.950 . S
H1936 C1941 0.950 . S
H1937 C1942 0.949 . S
H1938 C1944 0.950 . S
H1939 C1945 0.950 . S
H1940 C1946 0.949 . S
C1941 H1936 0.950 . S
C1941 C1943 1.327 . S
C1941 C1947 1.429 . S
C1942 C1934 1.574 . S
C1942 H1937 0.949 . S
C1942 C1948 1.368 . S
C1943 C1927 1.349 . S
C1943 H1935 0.950 . S
C1943 C1941 1.327 . S
C1944 C1932 1.349 . S
C1944 H1938 0.950 . S
C1944 C1945 1.327 . S
C1945 H1939 0.950 . S
C1945 C1944 1.327 . S
C1945 C1949 1.429 . S
C1946 C1929 1.574 . S
C1946 H1940 0.949 . S
C1946 C1950 1.368 . S
C1947 C1928 1.429 . S
C1947 C1941 1.429 . S
C1947 C1948 1.523 . S
C1948 C1929 1.368 . S
C1948 C1942 1.368 . S
C1948 C1947 1.523 . S
C1949 C1933 1.429 . S
C1949 C1945 1.429 . S
C1949 C1950 1.523 . S
C1950 C1934 1.368 . S
C1950 C1946 1.368 . S
C1950 C1949 1.523 . S
H1951 C1926 0.950 . S
H1952 C1928 0.950 . S
H1953 C1929 0.949 . S
H1954 C1931 0.950 . S
H1955 C1933 0.950 . S
C1956 C1957 1.349 . S
C1956 C1958 1.327 . S
C1956 H1981 0.950 . S
C1957 C1956 1.349 . S
C1957 C1973 1.349 . S
C1958 C1956 1.327 . S
C1958 C1977 1.429 . S
C1958 H1982 0.950 . S
C1959 C1976 1.574 . S
C1959 C1978 1.368 . S
C1959 H1983 0.949 . S
H1960 C1964 0.949 . S
C1961 C1962 1.349 . S
C1961 C1963 1.327 . S
C1961 H1984 0.966 . S
C1962 C1961 1.349 . S
C1962 C1974 1.349 . S
C1963 C1961 1.327 . S
C1963 C1979 1.429 . S
C1963 H1985 0.950 . S
C1964 H1960 0.949 . S
C1964 C1972 1.574 . S
C1964 C1980 1.368 . S
H1965 C1973 0.950 . S
H1966 C1971 0.950 . S
H1967 C1972 0.949 . S
H1968 C1974 0.950 . S
H1969 C1975 0.950 . S
H1970 C1976 0.949 . S
C1971 H1966 0.950 . S
C1971 C1973 1.327 . S
C1971 C1977 1.429 . S
C1972 C1964 1.574 . S
C1972 H1967 0.949 . S
C1972 C1978 1.368 . S
C1973 C1957 1.349 . S
C1973 H1965 0.950 . S
C1973 C1971 1.327 . S
C1974 C1962 1.349 . S
C1974 H1968 0.950 . S
C1974 C1975 1.327 . S
C1975 H1969 0.950 . S
C1975 C1974 1.327 . S
C1975 C1979 1.429 . S
C1976 C1959 1.574 . S
C1976 H1970 0.949 . S
C1976 C1980 1.368 . S
C1977 C1958 1.429 . S
C1977 C1971 1.429 . S
C1977 C1978 1.523 . S
C1978 C1959 1.368 . S
C1978 C1972 1.368 . S
C1978 C1977 1.523 . S
C1979 C1963 1.429 . S
C1979 C1975 1.429 . S
C1979 C1980 1.523 . S
C1980 C1964 1.368 . S
C1980 C1976 1.368 . S
C1980 C1979 1.523 . S
H1981 C1956 0.950 . S
H1982 C1958 0.950 . S
H1983 C1959 0.949 . S
H1984 C1961 0.966 . S
H1985 C1963 0.950 . S
C1986 C1987 1.349 . S
C1986 C1988 1.327 . S
C1986 H2011 0.950 . S
C1987 C1986 1.349 . S
C1987 C2003 1.349 . S
C1988 C1986 1.327 . S
C1988 C2007 1.429 . S
C1988 H2012 0.950 . S
C1989 C2006 1.574 . S
C1989 C2008 1.368 . S
C1989 H2013 0.949 . S
H1990 C1994 0.949 . S
C1991 C1992 1.349 . S
C1991 C1993 1.327 . S
C1991 H2014 0.950 . S
C1992 C1991 1.349 . S
C1992 C2004 1.349 . S
C1993 C1991 1.327 . S
C1993 C2009 1.429 . S
C1993 H2015 0.950 . S
C1994 H1990 0.949 . S
C1994 C2002 1.574 . S
C1994 C2010 1.368 . S
H1995 C2003 0.950 . S
H1996 C2001 0.950 . S
H1997 C2002 0.949 . S
H1998 C2004 0.950 . S
H1999 C2005 0.950 . S
H2000 C2006 0.949 . S
C2001 H1996 0.950 . S
C2001 C2003 1.327 . S
C2001 C2007 1.429 . S
C2002 C1994 1.574 . S
C2002 H1997 0.949 . S
C2002 C2008 1.368 . S
C2003 C1987 1.349 . S
C2003 H1995 0.950 . S
C2003 C2001 1.327 . S
C2004 C1992 1.349 . S
C2004 H1998 0.950 . S
C2004 C2005 1.327 . S
C2005 H1999 0.950 . S
C2005 C2004 1.327 . S
C2005 C2009 1.429 . S
C2006 C1989 1.574 . S
C2006 H2000 0.949 . S
C2006 C2010 1.368 . S
C2007 C1988 1.429 . S
C2007 C2001 1.429 . S
C2007 C2008 1.523 . S
C2008 C1989 1.368 . S
C2008 C2002 1.368 . S
C2008 C2007 1.523 . S
C2009 C1993 1.429 . S
C2009 C2005 1.429 . S
C2009 C2010 1.523 . S
C2010 C1994 1.368 . S
C2010 C2006 1.368 . S
C2010 C2009 1.523 . S
H2011 C1986 0.950 . S
H2012 C1988 0.950 . S
H2013 C1989 0.949 . S
H2014 C1991 0.950 . S
H2015 C1993 0.950 . S
C2016 C2017 1.349 . S
C2016 C2018 1.327 . S
C2016 H2041 0.950 1_545 S
C2017 C2016 1.349 . S
C2017 C2033 1.349 . S
C2018 C2016 1.327 . S
C2018 C2037 1.429 . S
C2018 H2042 0.950 1_545 S
C2019 C2036 1.574 . S
C2019 C2038 1.368 . S
C2019 H2043 0.949 . S
H2020 C2024 0.949 1_565 S
C2021 C2022 1.349 1_655 S
C2021 C2023 1.327 . S
C2021 H2044 0.950 . S
C2022 C2021 1.349 1_455 S
C2022 C2034 1.349 . S
C2023 C2021 1.327 . S
C2023 C2039 1.429 . S
C2023 H2045 0.950 . S
C2024 H2020 0.949 1_545 S
C2024 C2032 1.574 . S
C2024 C2040 1.368 . S
H2025 C2033 0.950 . S
H2026 C2031 0.950 . S
H2027 C2032 0.949 1_565 S
H2028 C2034 0.947 . S
H2029 C2035 0.896 1_465 S
H2030 C2036 0.949 . S
C2031 H2026 0.950 . S
C2031 C2033 1.327 . S
C2031 C2037 1.429 . S
C2032 C2024 1.574 . S
C2032 H2027 0.949 1_545 S
C2032 C2038 1.368 . S
C2033 C2017 1.349 . S
C2033 H2025 0.950 . S
C2033 C2031 1.327 . S
C2034 C2022 1.349 . S
C2034 H2028 0.947 . S
C2034 C2035 1.327 1_455 S
C2035 H2029 0.896 1_645 S
C2035 C2034 1.327 1_655 S
C2035 C2039 1.429 . S
C2036 C2019 1.574 . S
C2036 H2030 0.949 . S
C2036 C2040 1.368 . S
C2037 C2018 1.429 . S
C2037 C2031 1.429 . S
C2037 C2038 1.523 . S
C2038 C2019 1.368 . S
C2038 C2032 1.368 . S
C2038 C2037 1.523 . S
C2039 C2023 1.429 . S
C2039 C2035 1.429 . S
C2039 C2040 1.523 . S
C2040 C2024 1.368 . S
C2040 C2036 1.368 . S
C2040 C2039 1.523 . S
H2041 C2016 0.950 1_565 S
H2042 C2018 0.950 1_565 S
H2043 C2019 0.949 . S
H2044 C2021 0.950 . S
H2045 C2023 0.950 . S
C2046 C2047 1.349 . S
C2046 C2048 1.327 . S
C2046 H2071 0.950 . S
C2047 C2046 1.349 . S
C2047 C2063 1.349 . S
C2048 C2046 1.327 . S
C2048 C2067 1.429 . S
C2048 H2072 0.950 . S
C2049 C2066 1.574 . S
C2049 C2068 1.368 . S
C2049 H2073 0.949 . S
H2050 C2054 0.949 . S
C2051 C2052 1.349 . S
C2051 C2053 1.327 . S
C2051 H2074 0.950 . S
C2052 C2051 1.349 . S
C2052 C2064 1.349 . S
C2053 C2051 1.327 . S
C2053 C2069 1.429 . S
C2053 H2075 0.950 . S
C2054 H2050 0.949 . S
C2054 C2062 1.574 . S
C2054 C2070 1.368 . S
H2055 C2063 0.950 . S
H2056 C2061 0.950 . S
H2057 C2062 0.949 . S
H2058 C2064 0.950 . S
H2059 C2065 0.950 . S
H2060 C2066 0.949 . S
C2061 H2056 0.950 . S
C2061 C2063 1.327 . S
C2061 C2067 1.429 . S
C2062 C2054 1.574 . S
C2062 H2057 0.949 . S
C2062 C2068 1.368 . S
C2063 C2047 1.349 . S
C2063 H2055 0.950 . S
C2063 C2061 1.327 . S
C2064 C2052 1.349 . S
C2064 H2058 0.950 . S
C2064 C2065 1.327 . S
C2065 H2059 0.950 . S
C2065 C2064 1.327 . S
C2065 C2069 1.429 . S
C2066 C2049 1.574 . S
C2066 H2060 0.949 . S
C2066 C2070 1.368 . S
C2067 C2048 1.429 . S
C2067 C2061 1.429 . S
C2067 C2068 1.523 . S
C2068 C2049 1.368 . S
C2068 C2062 1.368 . S
C2068 C2067 1.523 . S
C2069 C2053 1.429 . S
C2069 C2065 1.429 . S
C2069 C2070 1.523 . S
C2070 C2054 1.368 . S
C2070 C2066 1.368 . S
C2070 C2069 1.523 . S
H2071 C2046 0.950 . S
H2072 C2048 0.950 . S
H2073 C2049 0.949 . S
H2074 C2051 0.950 . S
H2075 C2053 0.950 . S
C2076 C2077 1.349 . S
C2076 C2078 1.327 . S
C2076 H2101 0.950 . S
C2077 C2076 1.349 . S
C2077 C2093 1.349 . S
C2078 C2076 1.327 . S
C2078 C2097 1.429 . S
C2078 H2102 0.950 . S
C2079 C2096 1.574 . S
C2079 C2098 1.368 . S
C2079 H2103 0.949 . S
H2080 C2084 0.949 . S
C2081 C2082 1.349 . S
C2081 C2083 1.327 . S
C2081 H2104 0.950 . S
C2082 C2081 1.349 . S
C2082 C2094 1.349 . S
C2083 C2081 1.327 . S
C2083 C2099 1.429 . S
C2083 H2105 0.950 . S
C2084 H2080 0.949 . S
C2084 C2092 1.574 . S
C2084 C2100 1.368 . S
H2085 C2093 0.950 . S
H2086 C2091 0.950 . S
H2087 C2092 0.949 . S
H2088 C2094 0.950 . S
H2089 C2095 0.950 . S
H2090 C2096 0.949 . S
C2091 H2086 0.950 . S
C2091 C2093 1.327 . S
C2091 C2097 1.429 . S
C2092 C2084 1.574 . S
C2092 H2087 0.949 . S
C2092 C2098 1.368 . S
C2093 C2077 1.349 . S
C2093 H2085 0.950 . S
C2093 C2091 1.327 . S
C2094 C2082 1.349 . S
C2094 H2088 0.950 . S
C2094 C2095 1.327 . S
C2095 H2089 0.950 . S
C2095 C2094 1.327 . S
C2095 C2099 1.429 . S
C2096 C2079 1.574 . S
C2096 H2090 0.949 . S
C2096 C2100 1.368 . S
C2097 C2078 1.429 . S
C2097 C2091 1.429 . S
C2097 C2098 1.523 . S
C2098 C2079 1.368 . S
C2098 C2092 1.368 . S
C2098 C2097 1.523 . S
C2099 C2083 1.429 . S
C2099 C2095 1.429 . S
C2099 C2100 1.523 . S
C2100 C2084 1.368 . S
C2100 C2096 1.368 . S
C2100 C2099 1.523 . S
H2101 C2076 0.950 . S
H2102 C2078 0.950 . S
H2103 C2079 0.949 . S
H2104 C2081 0.950 . S
H2105 C2083 0.950 . S
C2106 C2107 1.349 . S
C2106 C2108 1.327 . S
C2106 H2131 0.950 . S
C2107 C2106 1.349 . S
C2107 C2123 1.349 . S
C2108 C2106 1.327 . S
C2108 C2127 1.429 . S
C2108 H2132 0.950 . S
C2109 C2126 1.574 . S
C2109 C2128 1.368 . S
C2109 H2133 0.949 . S
H2110 C2114 0.949 . S
C2111 C2112 1.349 . S
C2111 C2113 1.327 . S
C2111 H2134 0.950 . S
C2112 C2111 1.349 . S
C2112 C2124 1.349 . S
C2113 C2111 1.327 . S
C2113 C2129 1.429 . S
C2113 H2135 0.950 . S
C2114 H2110 0.949 . S
C2114 C2122 1.574 . S
C2114 C2130 1.368 . S
H2115 C2123 0.950 . S
H2116 C2121 0.950 . S
H2117 C2122 0.949 . S
H2118 C2124 0.950 . S
H2119 C2125 0.950 . S
H2120 C2126 0.949 . S
C2121 H2116 0.950 . S
C2121 C2123 1.327 . S
C2121 C2127 1.429 . S
C2122 C2114 1.574 . S
C2122 H2117 0.949 . S
C2122 C2128 1.368 . S
C2123 C2107 1.349 . S
C2123 H2115 0.950 . S
C2123 C2121 1.327 . S
C2124 C2112 1.349 . S
C2124 H2118 0.950 . S
C2124 C2125 1.327 . S
C2125 H2119 0.950 . S
C2125 C2124 1.327 . S
C2125 C2129 1.429 . S
C2126 C2109 1.574 . S
C2126 H2120 0.949 . S
C2126 C2130 1.368 . S
C2127 C2108 1.429 . S
C2127 C2121 1.429 . S
C2127 C2128 1.523 . S
C2128 C2109 1.368 . S
C2128 C2122 1.368 . S
C2128 C2127 1.523 . S
C2129 C2113 1.429 . S
C2129 C2125 1.429 . S
C2129 C2130 1.523 . S
C2130 C2114 1.368 . S
C2130 C2126 1.368 . S
C2130 C2129 1.523 . S
H2131 C2106 0.950 . S
H2132 C2108 0.950 . S
H2133 C2109 0.949 . S
H2134 C2111 0.950 . S
H2135 C2113 0.950 . S
C2136 C2137 1.349 1_554 S
C2136 C2138 1.327 . S
C2136 H2161 0.950 . S
C2137 C2136 1.349 1_556 S
C2137 C2153 1.349 . S
C2138 C2136 1.327 . S
C2138 C2157 1.429 . S
C2138 H2162 0.950 . S
C2139 C2156 1.574 . S
C2139 C2158 1.368 1_556 S
C2139 H2163 0.949 . S
H2140 C2144 0.949 . S
C2141 C2142 1.349 . S
C2141 C2143 1.327 . S
C2141 H2164 0.950 1_554 S
C2142 C2141 1.349 . S
C2142 C2154 1.349 . S
C2143 C2141 1.327 . S
C2143 C2159 1.429 . S
C2143 H2165 0.950 1_554 S
C2144 H2140 0.949 . S
C2144 C2152 1.574 . S
C2144 C2160 1.368 . S
H2145 C2153 0.950 . S
H2146 C2151 0.950 . S
H2147 C2152 0.949 . S
H2148 C2154 0.950 . S
H2149 C2155 0.950 . S
H2150 C2156 0.949 . S
C2151 H2146 0.950 . S
C2151 C2153 1.327 . S
C2151 C2157 1.429 1_556 S
C2152 C2144 1.574 . S
C2152 H2147 0.949 . S
C2152 C2158 1.368 . S
C2153 C2137 1.349 . S
C2153 H2145 0.950 . S
C2153 C2151 1.327 . S
C2154 C2142 1.349 . S
C2154 H2148 0.950 . S
C2154 C2155 1.327 . S
C2155 H2149 0.950 . S
C2155 C2154 1.327 . S
C2155 C2159 1.429 . S
C2156 C2139 1.574 . S
C2156 H2150 0.949 . S
C2156 C2160 1.368 1_556 S
C2157 C2138 1.429 . S
C2157 C2151 1.429 1_554 S
C2157 C2158 1.523 . S
C2158 C2139 1.368 1_554 S
C2158 C2152 1.368 . S
C2158 C2157 1.523 . S
C2159 C2143 1.429 . S
C2159 C2155 1.429 . S
C2159 C2160 1.523 . S
C2160 C2144 1.368 . S
C2160 C2156 1.368 1_554 S
C2160 C2159 1.523 . S
H2161 C2136 0.950 . S
H2162 C2138 0.950 . S
H2163 C2139 0.949 . S
H2164 C2141 0.950 1_556 S
H2165 C2143 0.950 1_556 S
C2166 C2167 1.349 1_556 S
C2166 C2168 1.327 . S
C2166 H2191 0.950 . S
C2167 C2166 1.349 1_554 S
C2167 C2183 1.349 . S
C2168 C2166 1.327 . S
C2168 C2187 1.429 1_556 S
C2168 H2192 0.949 . S
C2169 C2186 1.574 . S
C2169 C2188 1.368 . S
C2169 H2193 0.949 . S
H2170 C2174 0.942 1_556 S
C2171 C2172 1.349 . S
C2171 C2173 1.327 . S
C2171 H2194 0.950 . S
C2172 C2171 1.349 . S
C2172 C2184 1.349 . S
C2173 C2171 1.327 . S
C2173 C2189 1.429 . S
C2173 H2195 0.950 . S
C2174 H2170 0.942 1_554 S
C2174 C2182 1.574 . S
C2174 C2190 1.368 . S
H2175 C2183 0.950 . S
H2176 C2181 0.950 . S
H2177 C2182 0.949 1_556 S
H2178 C2184 0.950 . S
H2179 C2185 0.977 . S
H2180 C2186 0.949 . S
C2181 H2176 0.950 . S
C2181 C2183 1.327 . S
C2181 C2187 1.429 . S
C2182 C2174 1.574 . S
C2182 H2177 0.949 1_554 S
C2182 C2188 1.368 . S
C2183 C2167 1.349 . S
C2183 H2175 0.950 . S
C2183 C2181 1.327 . S
C2184 C2172 1.349 . S
C2184 H2178 0.950 . S
C2184 C2185 1.327 . S
C2185 H2179 0.977 . S
C2185 C2184 1.327 . S
C2185 C2189 1.429 . S
C2186 C2169 1.574 . S
C2186 H2180 0.949 . S
C2186 C2190 1.368 . S
C2187 C2168 1.429 1_554 S
C2187 C2181 1.429 . S
C2187 C2188 1.523 . S
C2188 C2169 1.368 . S
C2188 C2182 1.368 . S
C2188 C2187 1.523 . S
C2189 C2173 1.429 . S
C2189 C2185 1.429 . S
C2189 C2190 1.523 . S
C2190 C2174 1.368 . S
C2190 C2186 1.368 . S
C2190 C2189 1.523 . S
H2191 C2166 0.950 . S
H2192 C2168 0.949 . S
H2193 C2169 0.949 . S
H2194 C2171 0.950 . S
H2195 C2173 0.950 . S
C2196 C2197 1.349 . S
C2196 C2198 1.327 . S
C2196 H2221 0.950 . S
C2197 C2196 1.349 . S
C2197 C2213 1.349 . S
C2198 C2196 1.327 . S
C2198 C2217 1.429 . S
C2198 H2222 0.950 . S
C2199 C2216 1.574 . S
C2199 C2218 1.368 . S
C2199 H2223 0.949 . S
H2200 C2204 0.949 . S
C2201 C2202 1.349 . S
C2201 C2203 1.327 . S
C2201 H2224 0.950 . S
C2202 C2201 1.349 . S
C2202 C2214 1.349 . S
C2203 C2201 1.327 . S
C2203 C2219 1.429 . S
C2203 H2225 0.950 . S
C2204 H2200 0.949 . S
C2204 C2212 1.574 . S
C2204 C2220 1.368 . S
H2205 C2213 0.950 . S
H2206 C2211 0.950 . S
H2207 C2212 0.949 . S
H2208 C2214 0.950 . S
H2209 C2215 0.950 . S
H2210 C2216 0.949 . S
C2211 H2206 0.950 . S
C2211 C2213 1.327 . S
C2211 C2217 1.429 . S
C2212 C2204 1.574 . S
C2212 H2207 0.949 . S
C2212 C2218 1.368 . S
C2213 C2197 1.349 . S
C2213 H2205 0.950 . S
C2213 C2211 1.327 . S
C2214 C2202 1.349 . S
C2214 H2208 0.950 . S
C2214 C2215 1.327 . S
C2215 H2209 0.950 . S
C2215 C2214 1.327 . S
C2215 C2219 1.429 . S
C2216 C2199 1.574 . S
C2216 H2210 0.949 . S
C2216 C2220 1.368 . S
C2217 C2198 1.429 . S
C2217 C2211 1.429 . S
C2217 C2218 1.523 . S
C2218 C2199 1.368 . S
C2218 C2212 1.368 . S
C2218 C2217 1.523 . S
C2219 C2203 1.429 . S
C2219 C2215 1.429 . S
C2219 C2220 1.523 . S
C2220 C2204 1.368 . S
C2220 C2216 1.368 . S
C2220 C2219 1.523 . S
H2221 C2196 0.950 . S
H2222 C2198 0.950 . S
H2223 C2199 0.949 . S
H2224 C2201 0.950 . S
H2225 C2203 0.950 . S
C2226 C2227 1.349 . S
C2226 C2228 1.327 . S
C2226 H2251 0.950 . S
C2227 C2226 1.349 . S
C2227 C2243 1.349 . S
C2228 C2226 1.327 . S
C2228 C2247 1.429 . S
C2228 H2252 0.950 . S
C2229 C2246 1.574 . S
C2229 C2248 1.368 . S
C2229 H2253 0.949 . S
H2230 C2234 0.949 . S
C2231 C2232 1.349 . S
C2231 C2233 1.327 . S
C2231 H2254 0.950 . S
C2232 C2231 1.349 . S
C2232 C2244 1.349 . S
C2233 C2231 1.327 . S
C2233 C2249 1.429 . S
C2233 H2255 0.950 . S
C2234 H2230 0.949 . S
C2234 C2242 1.574 . S
C2234 C2250 1.368 . S
H2235 C2243 0.950 . S
H2236 C2241 0.950 . S
H2237 C2242 0.949 . S
H2238 C2244 0.950 . S
H2239 C2245 0.950 . S
H2240 C2246 0.949 . S
C2241 H2236 0.950 . S
C2241 C2243 1.327 . S
C2241 C2247 1.429 . S
C2242 C2234 1.574 . S
C2242 H2237 0.949 . S
C2242 C2248 1.368 . S
C2243 C2227 1.349 . S
C2243 H2235 0.950 . S
C2243 C2241 1.327 . S
C2244 C2232 1.349 . S
C2244 H2238 0.950 . S
C2244 C2245 1.327 . S
C2245 H2239 0.950 . S
C2245 C2244 1.327 . S
C2245 C2249 1.429 . S
C2246 C2229 1.574 . S
C2246 H2240 0.949 . S
C2246 C2250 1.368 . S
C2247 C2228 1.429 . S
C2247 C2241 1.429 . S
C2247 C2248 1.523 . S
C2248 C2229 1.368 . S
C2248 C2242 1.368 . S
C2248 C2247 1.523 . S
C2249 C2233 1.429 . S
C2249 C2245 1.429 . S
C2249 C2250 1.523 . S
C2250 C2234 1.368 . S
C2250 C2246 1.368 . S
C2250 C2249 1.523 . S
H2251 C2226 0.950 . S
H2252 C2228 0.950 . S
H2253 C2229 0.949 . S
H2254 C2231 0.950 . S
H2255 C2233 0.950 . S
C2256 C2257 1.349 . S
C2256 C2258 1.327 . S
C2256 H2281 0.950 . S
C2257 C2256 1.349 . S
C2257 C2273 1.349 . S
C2258 C2256 1.327 . S
C2258 C2277 1.429 . S
C2258 H2282 0.950 . S
C2259 C2276 1.574 . S
C2259 C2278 1.368 . S
C2259 H2283 0.949 . S
H2260 C2264 0.949 . S
C2261 C2262 1.349 . S
C2261 C2263 1.327 . S
C2261 H2284 0.950 . S
C2262 C2261 1.349 . S
C2262 C2274 1.349 . S
C2263 C2261 1.327 . S
C2263 C2279 1.429 . S
C2263 H2285 0.950 . S
C2264 H2260 0.949 . S
C2264 C2272 1.574 . S
C2264 C2280 1.368 . S
H2265 C2273 0.950 . S
H2266 C2271 0.950 . S
H2267 C2272 0.949 . S
H2268 C2274 0.950 . S
H2269 C2275 0.950 . S
H2270 C2276 0.949 . S
C2271 H2266 0.950 . S
C2271 C2273 1.327 . S
C2271 C2277 1.429 . S
C2272 C2264 1.574 . S
C2272 H2267 0.949 . S
C2272 C2278 1.368 . S
C2273 C2257 1.349 . S
C2273 H2265 0.950 . S
C2273 C2271 1.327 . S
C2274 C2262 1.349 . S
C2274 H2268 0.950 . S
C2274 C2275 1.327 . S
C2275 H2269 0.950 . S
C2275 C2274 1.327 . S
C2275 C2279 1.429 . S
C2276 C2259 1.574 . S
C2276 H2270 0.949 . S
C2276 C2280 1.368 . S
C2277 C2258 1.429 . S
C2277 C2271 1.429 . S
C2277 C2278 1.523 . S
C2278 C2259 1.368 . S
C2278 C2272 1.368 . S
C2278 C2277 1.523 . S
C2279 C2263 1.429 . S
C2279 C2275 1.429 . S
C2279 C2280 1.523 . S
C2280 C2264 1.368 . S
C2280 C2276 1.368 . S
C2280 C2279 1.523 . S
H2281 C2256 0.950 . S
H2282 C2258 0.950 . S
H2283 C2259 0.949 . S
H2284 C2261 0.950 . S
H2285 C2263 0.950 . S
C2286 C2287 1.349 . S
C2286 C2288 1.327 . S
C2286 H2311 0.950 . S
C2287 C2286 1.349 . S
C2287 C2303 1.349 . S
C2288 C2286 1.327 . S
C2288 C2307 1.429 . S
C2288 H2312 0.950 . S
C2289 C2306 1.574 . S
C2289 C2308 1.368 . S
C2289 H2313 0.949 . S
H2290 C2294 0.949 . S
C2291 C2292 1.349 . S
C2291 C2293 1.327 . S
C2291 H2314 0.950 . S
C2292 C2291 1.349 . S
C2292 C2304 1.349 . S
C2293 C2291 1.327 . S
C2293 C2309 1.429 . S
C2293 H2315 0.950 . S
C2294 H2290 0.949 . S
C2294 C2302 1.574 . S
C2294 C2310 1.368 . S
H2295 C2303 0.950 . S
H2296 C2301 0.950 . S
H2297 C2302 0.949 . S
H2298 C2304 0.950 . S
H2299 C2305 0.950 . S
H2300 C2306 0.949 . S
C2301 H2296 0.950 . S
C2301 C2303 1.327 . S
C2301 C2307 1.429 . S
C2302 C2294 1.574 . S
C2302 H2297 0.949 . S
C2302 C2308 1.368 . S
C2303 C2287 1.349 . S
C2303 H2295 0.950 . S
C2303 C2301 1.327 . S
C2304 C2292 1.349 . S
C2304 H2298 0.950 . S
C2304 C2305 1.327 . S
C2305 H2299 0.950 . S
C2305 C2304 1.327 . S
C2305 C2309 1.429 . S
C2306 C2289 1.574 . S
C2306 H2300 0.949 . S
C2306 C2310 1.368 . S
C2307 C2288 1.429 . S
C2307 C2301 1.429 . S
C2307 C2308 1.523 . S
C2308 C2289 1.368 . S
C2308 C2302 1.368 . S
C2308 C2307 1.523 . S
C2309 C2293 1.429 . S
C2309 C2305 1.429 . S
C2309 C2310 1.523 . S
C2310 C2294 1.368 . S
C2310 C2306 1.368 . S
C2310 C2309 1.523 . S
H2311 C2286 0.950 . S
H2312 C2288 0.950 . S
H2313 C2289 0.949 . S
H2314 C2291 0.950 . S
H2315 C2293 0.950 . S
C2316 C2317 1.349 . S
C2316 C2318 1.327 . S
C2316 H2341 0.950 . S
C2317 C2316 1.349 . S
C2317 C2333 1.349 . S
C2318 C2316 1.327 . S
C2318 C2337 1.429 . S
C2318 H2342 0.950 . S
C2319 C2336 1.574 . S
C2319 C2338 1.368 . S
C2319 H2343 0.949 . S
H2320 C2324 0.949 . S
C2321 C2322 1.349 . S
C2321 C2323 1.327 . S
C2321 H2344 0.950 . S
C2322 C2321 1.349 . S
C2322 C2334 1.349 . S
C2323 C2321 1.327 . S
C2323 C2339 1.429 . S
C2323 H2345 0.950 . S
C2324 H2320 0.949 . S
C2324 C2332 1.574 . S
C2324 C2340 1.368 . S
H2325 C2333 0.950 . S
H2326 C2331 0.950 . S
H2327 C2332 0.949 . S
H2328 C2334 0.950 . S
H2329 C2335 0.950 . S
H2330 C2336 0.949 . S
C2331 H2326 0.950 . S
C2331 C2333 1.327 . S
C2331 C2337 1.429 . S
C2332 C2324 1.574 . S
C2332 H2327 0.949 . S
C2332 C2338 1.368 . S
C2333 C2317 1.349 . S
C2333 H2325 0.950 . S
C2333 C2331 1.327 . S
C2334 C2322 1.349 . S
C2334 H2328 0.950 . S
C2334 C2335 1.327 . S
C2335 H2329 0.950 . S
C2335 C2334 1.327 . S
C2335 C2339 1.429 . S
C2336 C2319 1.574 . S
C2336 H2330 0.949 . S
C2336 C2340 1.368 . S
C2337 C2318 1.429 . S
C2337 C2331 1.429 . S
C2337 C2338 1.523 . S
C2338 C2319 1.368 . S
C2338 C2332 1.368 . S
C2338 C2337 1.523 . S
C2339 C2323 1.429 . S
C2339 C2335 1.429 . S
C2339 C2340 1.523 . S
C2340 C2324 1.368 . S
C2340 C2336 1.368 . S
C2340 C2339 1.523 . S
H2341 C2316 0.950 . S
H2342 C2318 0.950 . S
H2343 C2319 0.949 . S
H2344 C2321 0.950 . S
H2345 C2323 0.950 . S
C2346 C2347 1.349 . S
C2346 C2348 1.327 . S
C2346 H2371 0.950 . S
C2347 C2346 1.349 . S
C2347 C2363 1.349 . S
C2348 C2346 1.327 . S
C2348 C2367 1.429 . S
C2348 H2372 0.950 . S
C2349 C2366 1.574 . S
C2349 C2368 1.368 . S
C2349 H2373 0.949 . S
H2350 C2354 0.949 . S
C2351 C2352 1.349 . S
C2351 C2353 1.327 . S
C2351 H2374 0.950 . S
C2352 C2351 1.349 . S
C2352 C2364 1.349 . S
C2353 C2351 1.327 . S
C2353 C2369 1.429 . S
C2353 H2375 0.950 . S
C2354 H2350 0.949 . S
C2354 C2362 1.574 . S
C2354 C2370 1.368 . S
H2355 C2363 0.950 . S
H2356 C2361 0.950 . S
H2357 C2362 0.949 . S
H2358 C2364 0.950 . S
H2359 C2365 0.950 . S
H2360 C2366 0.949 . S
C2361 H2356 0.950 . S
C2361 C2363 1.327 . S
C2361 C2367 1.429 . S
C2362 C2354 1.574 . S
C2362 H2357 0.949 . S
C2362 C2368 1.368 . S
C2363 C2347 1.349 . S
C2363 H2355 0.950 . S
C2363 C2361 1.327 . S
C2364 C2352 1.349 . S
C2364 H2358 0.950 . S
C2364 C2365 1.327 . S
C2365 H2359 0.950 . S
C2365 C2364 1.327 . S
C2365 C2369 1.429 . S
C2366 C2349 1.574 . S
C2366 H2360 0.949 . S
C2366 C2370 1.368 . S
C2367 C2348 1.429 . S
C2367 C2361 1.429 . S
C2367 C2368 1.523 . S
C2368 C2349 1.368 . S
C2368 C2362 1.368 . S
C2368 C2367 1.523 . S
C2369 C2353 1.429 . S
C2369 C2365 1.429 . S
C2369 C2370 1.523 . S
C2370 C2354 1.368 . S
C2370 C2366 1.368 . S
C2370 C2369 1.523 . S
H2371 C2346 0.950 . S
H2372 C2348 0.950 . S
H2373 C2349 0.949 . S
H2374 C2351 0.950 . S
H2375 C2353 0.950 . S
C2376 C2377 1.349 . S
C2376 C2378 1.327 . S
C2376 H2401 0.950 . S
C2377 C2376 1.349 . S
C2377 C2393 1.349 . S
C2378 C2376 1.327 . S
C2378 C2397 1.429 . S
C2378 H2402 0.950 . S
C2379 C2396 1.574 . S
C2379 C2398 1.368 . S
C2379 H2403 0.949 . S
H2380 C2384 0.949 . S
C2381 C2382 1.349 . S
C2381 C2383 1.327 . S
C2381 H2404 0.943 1_455 S
C2382 C2381 1.349 . S
C2382 C2394 1.349 . S
C2383 C2381 1.327 . S
C2383 C2399 1.429 . S
C2383 H2405 0.950 . S
C2384 H2380 0.949 . S
C2384 C2392 1.574 . S
C2384 C2400 1.368 . S
H2385 C2393 0.950 . S
H2386 C2391 0.950 . S
H2387 C2392 0.949 . S
H2388 C2394 0.950 . S
H2389 C2395 0.950 . S
H2390 C2396 0.949 . S
C2391 H2386 0.950 . S
C2391 C2393 1.327 . S
C2391 C2397 1.429 . S
C2392 C2384 1.574 . S
C2392 H2387 0.949 . S
C2392 C2398 1.368 . S
C2393 C2377 1.349 . S
C2393 H2385 0.950 . S
C2393 C2391 1.327 . S
C2394 C2382 1.349 . S
C2394 H2388 0.950 . S
C2394 C2395 1.327 . S
C2395 H2389 0.950 . S
C2395 C2394 1.327 . S
C2395 C2399 1.429 . S
C2396 C2379 1.574 . S
C2396 H2390 0.949 . S
C2396 C2400 1.368 . S
C2397 C2378 1.429 . S
C2397 C2391 1.429 . S
C2397 C2398 1.523 . S
C2398 C2379 1.368 . S
C2398 C2392 1.368 . S
C2398 C2397 1.523 . S
C2399 C2383 1.429 . S
C2399 C2395 1.429 . S
C2399 C2400 1.523 . S
C2400 C2384 1.368 . S
C2400 C2396 1.368 . S
C2400 C2399 1.523 . S
H2401 C2376 0.950 . S
H2402 C2378 0.950 . S
H2403 C2379 0.949 . S
H2404 C2381 0.943 1_655 S
H2405 C2383 0.950 . S
C2406 C2407 1.349 . S
C2406 C2408 1.327 . S
C2406 H2431 0.950 . S
C2407 C2406 1.349 . S
C2407 C2423 1.349 . S
C2408 C2406 1.327 . S
C2408 C2427 1.429 . S
C2408 H2432 0.950 . S
C2409 C2426 1.574 . S
C2409 C2428 1.368 . S
C2409 H2433 0.949 . S
H2410 C2414 0.949 . S
C2411 C2412 1.349 . S
C2411 C2413 1.327 . S
C2411 H2434 0.950 . S
C2412 C2411 1.349 . S
C2412 C2424 1.349 . S
C2413 C2411 1.327 . S
C2413 C2429 1.429 . S
C2413 H2435 0.950 . S
C2414 H2410 0.949 . S
C2414 C2422 1.574 . S
C2414 C2430 1.368 . S
H2415 C2423 0.950 . S
H2416 C2421 0.950 . S
H2417 C2422 0.949 . S
H2418 C2424 0.950 . S
H2419 C2425 0.950 . S
H2420 C2426 0.949 . S
C2421 H2416 0.950 . S
C2421 C2423 1.327 . S
C2421 C2427 1.429 . S
C2422 C2414 1.574 . S
C2422 H2417 0.949 . S
C2422 C2428 1.368 . S
C2423 C2407 1.349 . S
C2423 H2415 0.950 . S
C2423 C2421 1.327 . S
C2424 C2412 1.349 . S
C2424 H2418 0.950 . S
C2424 C2425 1.327 . S
C2425 H2419 0.950 . S
C2425 C2424 1.327 . S
C2425 C2429 1.429 . S
C2426 C2409 1.574 . S
C2426 H2420 0.949 . S
C2426 C2430 1.368 . S
C2427 C2408 1.429 . S
C2427 C2421 1.429 . S
C2427 C2428 1.523 . S
C2428 C2409 1.368 . S
C2428 C2422 1.368 . S
C2428 C2427 1.523 . S
C2429 C2413 1.429 . S
C2429 C2425 1.429 . S
C2429 C2430 1.523 . S
C2430 C2414 1.368 . S
C2430 C2426 1.368 . S
C2430 C2429 1.523 . S
H2431 C2406 0.950 . S
H2432 C2408 0.950 . S
H2433 C2409 0.949 . S
H2434 C2411 0.950 . S
H2435 C2413 0.950 . S
C2436 C2437 1.349 . S
C2436 C2438 1.327 . S
C2436 H2461 0.950 . S
C2437 C2436 1.349 . S
C2437 C2453 1.349 . S
C2438 C2436 1.327 . S
C2438 C2457 1.429 . S
C2438 H2462 0.950 . S
C2439 C2456 1.574 . S
C2439 C2458 1.368 . S
C2439 H2463 0.949 . S
H2440 C2444 0.949 . S
C2441 C2442 1.349 . S
C2441 C2443 1.327 . S
C2441 H2464 0.950 . S
C2442 C2441 1.349 . S
C2442 C2454 1.349 . S
C2443 C2441 1.327 . S
C2443 C2459 1.429 . S
C2443 H2465 0.950 . S
C2444 H2440 0.949 . S
C2444 C2452 1.574 . S
C2444 C2460 1.368 . S
H2445 C2453 0.950 . S
H2446 C2451 0.950 . S
H2447 C2452 0.949 . S
H2448 C2454 0.950 . S
H2449 C2455 0.950 . S
H2450 C2456 0.949 . S
C2451 H2446 0.950 . S
C2451 C2453 1.327 . S
C2451 C2457 1.429 . S
C2452 C2444 1.574 . S
C2452 H2447 0.949 . S
C2452 C2458 1.368 . S
C2453 C2437 1.349 . S
C2453 H2445 0.950 . S
C2453 C2451 1.327 . S
C2454 C2442 1.349 . S
C2454 H2448 0.950 . S
C2454 C2455 1.327 . S
C2455 H2449 0.950 . S
C2455 C2454 1.327 . S
C2455 C2459 1.429 . S
C2456 C2439 1.574 . S
C2456 H2450 0.949 . S
C2456 C2460 1.368 . S
C2457 C2438 1.429 . S
C2457 C2451 1.429 . S
C2457 C2458 1.523 . S
C2458 C2439 1.368 . S
C2458 C2452 1.368 . S
C2458 C2457 1.523 . S
C2459 C2443 1.429 . S
C2459 C2455 1.429 . S
C2459 C2460 1.523 . S
C2460 C2444 1.368 . S
C2460 C2456 1.368 . S
C2460 C2459 1.523 . S
H2461 C2436 0.950 . S
H2462 C2438 0.950 . S
H2463 C2439 0.949 . S
H2464 C2441 0.950 . S
H2465 C2443 0.950 . S
C2466 C2467 1.349 . S
C2466 C2468 1.327 . S
C2466 H2491 0.950 . S
C2467 C2466 1.349 . S
C2467 C2483 1.349 . S
C2468 C2466 1.327 . S
C2468 C2487 1.429 . S
C2468 H2492 0.950 . S
C2469 C2486 1.574 . S
C2469 C2488 1.368 . S
C2469 H2493 0.949 . S
H2470 C2474 0.949 . S
C2471 C2472 1.349 . S
C2471 C2473 1.327 . S
C2471 H2494 0.950 . S
C2472 C2471 1.349 . S
C2472 C2484 1.349 . S
C2473 C2471 1.327 . S
C2473 C2489 1.429 . S
C2473 H2495 0.950 . S
C2474 H2470 0.949 . S
C2474 C2482 1.574 . S
C2474 C2490 1.368 . S
H2475 C2483 0.950 . S
H2476 C2481 0.950 . S
H2477 C2482 0.949 . S
H2478 C2484 0.950 . S
H2479 C2485 0.950 . S
H2480 C2486 0.949 . S
C2481 H2476 0.950 . S
C2481 C2483 1.327 . S
C2481 C2487 1.429 . S
C2482 C2474 1.574 . S
C2482 H2477 0.949 . S
C2482 C2488 1.368 . S
C2483 C2467 1.349 . S
C2483 H2475 0.950 . S
C2483 C2481 1.327 . S
C2484 C2472 1.349 . S
C2484 H2478 0.950 . S
C2484 C2485 1.327 . S
C2485 H2479 0.950 . S
C2485 C2484 1.327 . S
C2485 C2489 1.429 . S
C2486 C2469 1.574 . S
C2486 H2480 0.949 . S
C2486 C2490 1.368 . S
C2487 C2468 1.429 . S
C2487 C2481 1.429 . S
C2487 C2488 1.523 . S
C2488 C2469 1.368 . S
C2488 C2482 1.368 . S
C2488 C2487 1.523 . S
C2489 C2473 1.429 . S
C2489 C2485 1.429 . S
C2489 C2490 1.523 . S
C2490 C2474 1.368 . S
C2490 C2486 1.368 . S
C2490 C2489 1.523 . S
H2491 C2466 0.950 . S
H2492 C2468 0.950 . S
H2493 C2469 0.949 . S
H2494 C2471 0.950 . S
H2495 C2473 0.950 . S
C2496 C2497 1.349 . S
C2496 C2498 1.327 . S
C2496 H2521 0.950 . S
C2497 C2496 1.349 . S
C2497 C2513 1.349 . S
C2498 C2496 1.327 . S
C2498 C2517 1.429 . S
C2498 H2522 0.950 . S
C2499 C2516 1.574 . S
C2499 C2518 1.368 . S
C2499 H2523 0.949 . S
H2500 C2504 0.949 . S
C2501 C2502 1.349 . S
C2501 C2503 1.327 . S
C2501 H2524 0.950 . S
C2502 C2501 1.349 . S
C2502 C2514 1.349 . S
C2503 C2501 1.327 . S
C2503 C2519 1.429 . S
C2503 H2525 0.950 . S
C2504 H2500 0.949 . S
C2504 C2512 1.574 . S
C2504 C2520 1.368 . S
H2505 C2513 0.950 . S
H2506 C2511 0.950 . S
H2507 C2512 0.949 . S
H2508 C2514 0.950 . S
H2509 C2515 0.950 . S
H2510 C2516 0.949 . S
C2511 H2506 0.950 . S
C2511 C2513 1.327 . S
C2511 C2517 1.429 . S
C2512 C2504 1.574 . S
C2512 H2507 0.949 . S
C2512 C2518 1.368 . S
C2513 C2497 1.349 . S
C2513 H2505 0.950 . S
C2513 C2511 1.327 . S
C2514 C2502 1.349 . S
C2514 H2508 0.950 . S
C2514 C2515 1.327 . S
C2515 H2509 0.950 . S
C2515 C2514 1.327 . S
C2515 C2519 1.429 . S
C2516 C2499 1.574 . S
C2516 H2510 0.949 . S
C2516 C2520 1.368 . S
C2517 C2498 1.429 . S
C2517 C2511 1.429 . S
C2517 C2518 1.523 . S
C2518 C2499 1.368 . S
C2518 C2512 1.368 . S
C2518 C2517 1.523 . S
C2519 C2503 1.429 . S
C2519 C2515 1.429 . S
C2519 C2520 1.523 . S
C2520 C2504 1.368 . S
C2520 C2516 1.368 . S
C2520 C2519 1.523 . S
H2521 C2496 0.950 . S
H2522 C2498 0.950 . S
H2523 C2499 0.949 . S
H2524 C2501 0.950 . S
H2525 C2503 0.950 . S
C2526 C2527 1.349 . S
C2526 C2528 1.327 . S
C2526 H2551 0.950 . S
C2527 C2526 1.349 . S
C2527 C2543 1.349 . S
C2528 C2526 1.327 . S
C2528 C2547 1.429 . S
C2528 H2552 0.950 . S
C2529 C2546 1.574 . S
C2529 C2548 1.368 . S
C2529 H2553 0.949 . S
H2530 C2534 0.949 . S
C2531 C2532 1.349 . S
C2531 C2533 1.327 . S
C2531 H2554 0.950 . S
C2532 C2531 1.349 . S
C2532 C2544 1.349 . S
C2533 C2531 1.327 . S
C2533 C2549 1.429 . S
C2533 H2555 0.950 . S
C2534 H2530 0.949 . S
C2534 C2542 1.574 . S
C2534 C2550 1.368 . S
H2535 C2543 0.950 . S
H2536 C2541 0.950 . S
H2537 C2542 0.949 . S
H2538 C2544 0.950 . S
H2539 C2545 0.950 . S
H2540 C2546 0.949 . S
C2541 H2536 0.950 . S
C2541 C2543 1.327 . S
C2541 C2547 1.429 . S
C2542 C2534 1.574 . S
C2542 H2537 0.949 . S
C2542 C2548 1.368 . S
C2543 C2527 1.349 . S
C2543 H2535 0.950 . S
C2543 C2541 1.327 . S
C2544 C2532 1.349 . S
C2544 H2538 0.950 . S
C2544 C2545 1.327 . S
C2545 H2539 0.950 . S
C2545 C2544 1.327 . S
C2545 C2549 1.429 . S
C2546 C2529 1.574 . S
C2546 H2540 0.949 . S
C2546 C2550 1.368 . S
C2547 C2528 1.429 . S
C2547 C2541 1.429 . S
C2547 C2548 1.523 . S
C2548 C2529 1.368 . S
C2548 C2542 1.368 . S
C2548 C2547 1.523 . S
C2549 C2533 1.429 . S
C2549 C2545 1.429 . S
C2549 C2550 1.523 . S
C2550 C2534 1.368 . S
C2550 C2546 1.368 . S
C2550 C2549 1.523 . S
H2551 C2526 0.950 . S
H2552 C2528 0.950 . S
H2553 C2529 0.949 . S
H2554 C2531 0.950 . S
H2555 C2533 0.950 . S
C2556 C2557 1.349 . S
C2556 C2558 1.327 . S
C2556 H2581 0.950 . S
C2557 C2556 1.349 . S
C2557 C2573 1.349 . S
C2558 C2556 1.327 . S
C2558 C2577 1.429 . S
C2558 H2582 0.950 . S
C2559 C2576 1.574 . S
C2559 C2578 1.368 . S
C2559 H2583 0.949 . S
H2560 C2564 0.949 . S
C2561 C2562 1.349 . S
C2561 C2563 1.327 . S
C2561 H2584 0.950 . S
C2562 C2561 1.349 . S
C2562 C2574 1.349 . S
C2563 C2561 1.327 . S
C2563 C2579 1.429 . S
C2563 H2585 0.950 . S
C2564 H2560 0.949 . S
C2564 C2572 1.574 . S
C2564 C2580 1.368 . S
H2565 C2573 0.950 . S
H2566 C2571 0.950 . S
H2567 C2572 0.949 . S
H2568 C2574 0.950 1_554 S
H2569 C2575 0.950 . S
H2570 C2576 0.949 . S
C2571 H2566 0.950 . S
C2571 C2573 1.327 . S
C2571 C2577 1.429 . S
C2572 C2564 1.574 . S
C2572 H2567 0.949 . S
C2572 C2578 1.368 . S
C2573 C2557 1.349 . S
C2573 H2565 0.950 . S
C2573 C2571 1.327 . S
C2574 C2562 1.349 . S
C2574 H2568 0.950 1_556 S
C2574 C2575 1.327 . S
C2575 H2569 0.950 . S
C2575 C2574 1.327 . S
C2575 C2579 1.429 . S
C2576 C2559 1.574 . S
C2576 H2570 0.949 . S
C2576 C2580 1.368 . S
C2577 C2558 1.429 . S
C2577 C2571 1.429 . S
C2577 C2578 1.523 . S
C2578 C2559 1.368 . S
C2578 C2572 1.368 . S
C2578 C2577 1.523 . S
C2579 C2563 1.429 . S
C2579 C2575 1.429 . S
C2579 C2580 1.523 . S
C2580 C2564 1.368 . S
C2580 C2576 1.368 . S
C2580 C2579 1.523 . S
H2581 C2556 0.950 . S
H2582 C2558 0.950 . S
H2583 C2559 0.949 . S
H2584 C2561 0.950 . S
H2585 C2563 0.950 . S
C2586 C2587 1.349 . S
C2586 C2588 1.327 . S
C2586 H2611 0.950 . S
C2587 C2586 1.349 . S
C2587 C2603 1.349 . S
C2588 C2586 1.327 . S
C2588 C2607 1.429 . S
C2588 H2612 0.950 . S
C2589 C2606 1.574 . S
C2589 C2608 1.368 . S
C2589 H2613 0.949 . S
H2590 C2594 0.949 . S
C2591 C2592 1.349 . S
C2591 C2593 1.327 . S
C2591 H2614 0.950 . S
C2592 C2591 1.349 . S
C2592 C2604 1.349 . S
C2593 C2591 1.327 . S
C2593 C2609 1.429 . S
C2593 H2615 0.950 . S
C2594 H2590 0.949 . S
C2594 C2602 1.574 . S
C2594 C2610 1.368 . S
H2595 C2603 0.950 . S
H2596 C2601 0.950 . S
H2597 C2602 0.949 . S
H2598 C2604 0.950 . S
H2599 C2605 0.950 . S
H2600 C2606 0.949 . S
C2601 H2596 0.950 . S
C2601 C2603 1.327 . S
C2601 C2607 1.429 . S
C2602 C2594 1.574 . S
C2602 H2597 0.949 . S
C2602 C2608 1.368 . S
C2603 C2587 1.349 . S
C2603 H2595 0.950 . S
C2603 C2601 1.327 . S
C2604 C2592 1.349 . S
C2604 H2598 0.950 . S
C2604 C2605 1.327 . S
C2605 H2599 0.950 . S
C2605 C2604 1.327 . S
C2605 C2609 1.429 . S
C2606 C2589 1.574 . S
C2606 H2600 0.949 . S
C2606 C2610 1.368 . S
C2607 C2588 1.429 . S
C2607 C2601 1.429 . S
C2607 C2608 1.523 . S
C2608 C2589 1.368 . S
C2608 C2602 1.368 . S
C2608 C2607 1.523 . S
C2609 C2593 1.429 . S
C2609 C2605 1.429 . S
C2609 C2610 1.523 . S
C2610 C2594 1.368 . S
C2610 C2606 1.368 . S
C2610 C2609 1.523 . S
H2611 C2586 0.950 . S
H2612 C2588 0.950 . S
H2613 C2589 0.949 . S
H2614 C2591 0.950 . S
H2615 C2593 0.950 . S
C2616 C2617 1.349 . S
C2616 C2618 1.327 . S
C2616 H2641 0.950 . S
C2617 C2616 1.349 . S
C2617 C2633 1.349 . S
C2618 C2616 1.327 . S
C2618 C2637 1.429 . S
C2618 H2642 0.950 . S
C2619 C2636 1.574 . S
C2619 C2638 1.368 . S
C2619 H2643 0.949 . S
H2620 C2624 0.906 1_565 S
C2621 C2622 1.349 . S
C2621 C2623 1.327 . S
C2621 H2644 0.950 . S
C2622 C2621 1.349 . S
C2622 C2634 1.349 . S
C2623 C2621 1.327 . S
C2623 C2639 1.429 . S
C2623 H2645 0.950 . S
C2624 H2620 0.906 1_545 S
C2624 C2632 1.574 . S
C2624 C2640 1.368 . S
H2625 C2633 0.950 . S
H2626 C2631 0.950 . S
H2627 C2632 0.949 . S
H2628 C2634 0.950 1_565 S
H2629 C2635 0.950 1_565 S
H2630 C2636 0.949 . S
C2631 H2626 0.950 . S
C2631 C2633 1.327 . S
C2631 C2637 1.429 . S
C2632 C2624 1.574 . S
C2632 H2627 0.949 . S
C2632 C2638 1.368 . S
C2633 C2617 1.349 . S
C2633 H2625 0.950 . S
C2633 C2631 1.327 . S
C2634 C2622 1.349 . S
C2634 H2628 0.950 1_545 S
C2634 C2635 1.327 . S
C2635 H2629 0.950 1_545 S
C2635 C2634 1.327 . S
C2635 C2639 1.429 . S
C2636 C2619 1.574 . S
C2636 H2630 0.949 . S
C2636 C2640 1.368 . S
C2637 C2618 1.429 . S
C2637 C2631 1.429 . S
C2637 C2638 1.523 . S
C2638 C2619 1.368 . S
C2638 C2632 1.368 . S
C2638 C2637 1.523 . S
C2639 C2623 1.429 . S
C2639 C2635 1.429 . S
C2639 C2640 1.523 . S
C2640 C2624 1.368 . S
C2640 C2636 1.368 . S
C2640 C2639 1.523 . S
H2641 C2616 0.950 . S
H2642 C2618 0.950 . S
H2643 C2619 0.949 . S
H2644 C2621 0.950 . S
H2645 C2623 0.950 . S
C2646 C2647 1.349 . S
C2646 C2648 1.327 . S
C2646 H2671 0.950 . S
C2647 C2646 1.349 . S
C2647 C2663 1.349 . S
C2648 C2646 1.327 . S
C2648 C2667 1.429 . S
C2648 H2672 0.950 . S
C2649 C2666 1.574 . S
C2649 C2668 1.368 . S
C2649 H2673 0.949 . S
H2650 C2654 0.949 . S
C2651 C2652 1.349 . S
C2651 C2653 1.327 . S
C2651 H2674 0.950 . S
C2652 C2651 1.349 . S
C2652 C2664 1.349 . S
C2653 C2651 1.327 . S
C2653 C2669 1.429 . S
C2653 H2675 0.950 . S
C2654 H2650 0.949 . S
C2654 C2662 1.574 . S
C2654 C2670 1.368 . S
H2655 C2663 0.950 . S
H2656 C2661 0.950 . S
H2657 C2662 0.949 . S
H2658 C2664 0.950 . S
H2659 C2665 0.950 . S
H2660 C2666 0.949 . S
C2661 H2656 0.950 . S
C2661 C2663 1.327 . S
C2661 C2667 1.429 . S
C2662 C2654 1.574 . S
C2662 H2657 0.949 . S
C2662 C2668 1.368 . S
C2663 C2647 1.349 . S
C2663 H2655 0.950 . S
C2663 C2661 1.327 . S
C2664 C2652 1.349 . S
C2664 H2658 0.950 . S
C2664 C2665 1.327 . S
C2665 H2659 0.950 . S
C2665 C2664 1.327 . S
C2665 C2669 1.429 . S
C2666 C2649 1.574 . S
C2666 H2660 0.949 . S
C2666 C2670 1.368 . S
C2667 C2648 1.429 . S
C2667 C2661 1.429 . S
C2667 C2668 1.523 . S
C2668 C2649 1.368 . S
C2668 C2662 1.368 . S
C2668 C2667 1.523 . S
C2669 C2653 1.429 . S
C2669 C2665 1.429 . S
C2669 C2670 1.523 . S
C2670 C2654 1.368 . S
C2670 C2666 1.368 . S
C2670 C2669 1.523 . S
H2671 C2646 0.950 . S
H2672 C2648 0.950 . S
H2673 C2649 0.949 . S
H2674 C2651 0.950 . S
H2675 C2653 0.950 . S
C2676 C2677 1.397 . S
C2676 C2678 1.320 . S
C2676 H2701 0.911 1_545 S
C2677 C2676 1.397 . S
C2677 C2693 1.349 . S
C2678 C2676 1.320 . S
C2678 C2697 1.429 . S
C2678 H2702 0.950 1_545 S
C2679 C2696 1.574 . S
C2679 C2698 1.368 . S
C2679 H2703 0.949 . S
H2680 C2684 0.901 1_565 S
C2681 C2682 1.349 . S
C2681 C2683 1.327 . S
C2681 H2704 0.950 . S
C2682 C2681 1.349 . S
C2682 C2694 1.349 . S
C2683 C2681 1.327 . S
C2683 C2699 1.429 . S
C2683 H2705 0.950 . S
C2684 H2680 0.901 1_545 S
C2684 C2692 1.574 . S
C2684 C2700 1.368 . S
H2685 C2693 0.950 . S
H2686 C2691 0.950 . S
H2687 C2692 0.949 1_565 S
H2688 C2694 0.950 . S
H2689 C2695 0.950 . S
H2690 C2696 0.949 . S
C2691 H2686 0.950 . S
C2691 C2693 1.327 . S
C2691 C2697 1.429 . S
C2692 C2684 1.574 . S
C2692 H2687 0.949 1_545 S
C2692 C2698 1.368 . S
C2693 C2677 1.349 . S
C2693 H2685 0.950 . S
C2693 C2691 1.327 . S
C2694 C2682 1.349 . S
C2694 H2688 0.950 . S
C2694 C2695 1.327 . S
C2695 H2689 0.950 . S
C2695 C2694 1.327 . S
C2695 C2699 1.429 . S
C2696 C2679 1.574 . S
C2696 H2690 0.949 . S
C2696 C2700 1.368 . S
C2697 C2678 1.429 . S
C2697 C2691 1.429 . S
C2697 C2698 1.523 . S
C2698 C2679 1.368 . S
C2698 C2692 1.368 . S
C2698 C2697 1.523 . S
C2699 C2683 1.429 . S
C2699 C2695 1.429 . S
C2699 C2700 1.523 . S
C2700 C2684 1.368 . S
C2700 C2696 1.368 . S
C2700 C2699 1.523 . S
H2701 C2676 0.911 1_565 S
H2702 C2678 0.950 1_565 S
H2703 C2679 0.949 . S
H2704 C2681 0.950 . S
H2705 C2683 0.950 . S
C2706 C2707 1.349 . S
C2706 C2708 1.327 . S
C2706 H2731 0.950 . S
C2707 C2706 1.349 . S
C2707 C2723 1.349 . S
C2708 C2706 1.327 . S
C2708 C2727 1.429 . S
C2708 H2732 0.950 . S
C2709 C2726 1.574 . S
C2709 C2728 1.368 . S
C2709 H2733 0.949 . S
H2710 C2714 0.949 . S
C2711 C2712 1.349 . S
C2711 C2713 1.327 . S
C2711 H2734 0.950 . S
C2712 C2711 1.349 . S
C2712 C2724 1.349 . S
C2713 C2711 1.327 . S
C2713 C2729 1.429 . S
C2713 H2735 0.950 . S
C2714 H2710 0.949 . S
C2714 C2722 1.574 . S
C2714 C2730 1.368 . S
H2715 C2723 0.950 . S
H2716 C2721 0.950 . S
H2717 C2722 0.949 . S
H2718 C2724 0.950 . S
H2719 C2725 0.950 . S
H2720 C2726 0.949 . S
C2721 H2716 0.950 . S
C2721 C2723 1.327 . S
C2721 C2727 1.429 . S
C2722 C2714 1.574 . S
C2722 H2717 0.949 . S
C2722 C2728 1.368 . S
C2723 C2707 1.349 . S
C2723 H2715 0.950 . S
C2723 C2721 1.327 . S
C2724 C2712 1.349 . S
C2724 H2718 0.950 . S
C2724 C2725 1.327 . S
C2725 H2719 0.950 . S
C2725 C2724 1.327 . S
C2725 C2729 1.429 . S
C2726 C2709 1.574 . S
C2726 H2720 0.949 . S
C2726 C2730 1.368 . S
C2727 C2708 1.429 . S
C2727 C2721 1.429 . S
C2727 C2728 1.523 . S
C2728 C2709 1.368 . S
C2728 C2722 1.368 . S
C2728 C2727 1.523 . S
C2729 C2713 1.429 . S
C2729 C2725 1.429 . S
C2729 C2730 1.523 . S
C2730 C2714 1.368 . S
C2730 C2726 1.368 . S
C2730 C2729 1.523 . S
H2731 C2706 0.950 . S
H2732 C2708 0.950 . S
H2733 C2709 0.949 . S
H2734 C2711 0.950 . S
H2735 C2713 0.950 . S
C2736 C2737 1.349 . S
C2736 C2738 1.327 . S
C2736 H2761 0.950 . S
C2737 C2736 1.349 . S
C2737 C2753 1.349 . S
C2738 C2736 1.327 . S
C2738 C2757 1.429 . S
C2738 H2762 0.950 . S
C2739 C2756 1.574 . S
C2739 C2758 1.368 . S
C2739 H2763 0.949 . S
H2740 C2744 0.949 . S
C2741 C2742 1.349 . S
C2741 C2743 1.327 . S
C2741 H2764 0.950 . S
C2742 C2741 1.349 . S
C2742 C2754 1.349 . S
C2743 C2741 1.327 . S
C2743 C2759 1.429 . S
C2743 H2765 0.950 . S
C2744 H2740 0.949 . S
C2744 C2752 1.574 . S
C2744 C2760 1.368 . S
H2745 C2753 0.950 . S
H2746 C2751 0.950 . S
H2747 C2752 0.949 . S
H2748 C2754 0.950 . S
H2749 C2755 0.950 . S
H2750 C2756 0.949 . S
C2751 H2746 0.950 . S
C2751 C2753 1.327 . S
C2751 C2757 1.429 . S
C2752 C2744 1.574 . S
C2752 H2747 0.949 . S
C2752 C2758 1.368 . S
C2753 C2737 1.349 . S
C2753 H2745 0.950 . S
C2753 C2751 1.327 . S
C2754 C2742 1.349 . S
C2754 H2748 0.950 . S
C2754 C2755 1.327 . S
C2755 H2749 0.950 . S
C2755 C2754 1.327 . S
C2755 C2759 1.429 . S
C2756 C2739 1.574 . S
C2756 H2750 0.949 . S
C2756 C2760 1.368 . S
C2757 C2738 1.429 . S
C2757 C2751 1.429 . S
C2757 C2758 1.523 . S
C2758 C2739 1.368 . S
C2758 C2752 1.368 . S
C2758 C2757 1.523 . S
C2759 C2743 1.429 . S
C2759 C2755 1.429 . S
C2759 C2760 1.523 . S
C2760 C2744 1.368 . S
C2760 C2756 1.368 . S
C2760 C2759 1.523 . S
H2761 C2736 0.950 . S
H2762 C2738 0.950 . S
H2763 C2739 0.949 . S
H2764 C2741 0.950 . S
H2765 C2743 0.950 . S
C2766 C2767 1.349 . S
C2766 C2768 1.327 . S
C2766 H2791 0.950 . S
C2767 C2766 1.349 . S
C2767 C2783 1.349 . S
C2768 C2766 1.327 . S
C2768 C2787 1.429 . S
C2768 H2792 0.950 . S
C2769 C2786 1.574 . S
C2769 C2788 1.368 . S
C2769 H2793 0.949 . S
H2770 C2774 0.949 . S
C2771 C2772 1.349 . S
C2771 C2773 1.327 . S
C2771 H2794 0.950 . S
C2772 C2771 1.349 . S
C2772 C2784 1.349 . S
C2773 C2771 1.327 . S
C2773 C2789 1.429 . S
C2773 H2795 0.950 . S
C2774 H2770 0.949 . S
C2774 C2782 1.574 . S
C2774 C2790 1.368 . S
H2775 C2783 0.950 . S
H2776 C2781 0.950 . S
H2777 C2782 0.949 . S
H2778 C2784 0.950 . S
H2779 C2785 0.950 . S
H2780 C2786 0.949 . S
C2781 H2776 0.950 . S
C2781 C2783 1.327 . S
C2781 C2787 1.429 . S
C2782 C2774 1.574 . S
C2782 H2777 0.949 . S
C2782 C2788 1.368 . S
C2783 C2767 1.349 . S
C2783 H2775 0.950 . S
C2783 C2781 1.327 . S
C2784 C2772 1.349 . S
C2784 H2778 0.950 . S
C2784 C2785 1.327 . S
C2785 H2779 0.950 . S
C2785 C2784 1.327 . S
C2785 C2789 1.429 . S
C2786 C2769 1.574 . S
C2786 H2780 0.949 . S
C2786 C2790 1.368 . S
C2787 C2768 1.429 . S
C2787 C2781 1.429 . S
C2787 C2788 1.523 . S
C2788 C2769 1.368 . S
C2788 C2782 1.368 . S
C2788 C2787 1.523 . S
C2789 C2773 1.429 . S
C2789 C2785 1.429 . S
C2789 C2790 1.523 . S
C2790 C2774 1.368 . S
C2790 C2786 1.368 . S
C2790 C2789 1.523 . S
H2791 C2766 0.950 . S
H2792 C2768 0.950 . S
H2793 C2769 0.949 . S
H2794 C2771 0.950 . S
H2795 C2773 0.950 . S
C2796 C2797 1.349 1_565 S
C2796 C2798 1.327 . S
C2796 H2821 0.950 . S
C2797 C2796 1.349 1_545 S
C2797 C2813 1.349 . S
C2798 C2796 1.327 . S
C2798 C2817 1.429 1_565 S
C2798 H2822 0.950 . S
C2799 C2816 1.574 . S
C2799 C2818 1.368 . S
C2799 H2823 0.949 . S
H2800 C2804 0.949 . S
C2801 C2802 1.349 . S
C2801 C2803 1.327 . S
C2801 H2824 0.950 . S
C2802 C2801 1.349 . S
C2802 C2814 1.349 1_545 S
C2803 C2801 1.327 . S
C2803 C2819 1.429 . S
C2803 H2825 0.950 . S
C2804 H2800 0.949 . S
C2804 C2812 1.574 . S
C2804 C2820 1.368 1_565 S
H2805 C2813 0.950 . S
H2806 C2811 0.950 . S
H2807 C2812 0.949 . S
H2808 C2814 0.950 . S
H2809 C2815 0.950 . S
H2810 C2816 0.949 . S
C2811 H2806 0.950 . S
C2811 C2813 1.327 . S
C2811 C2817 1.429 . S
C2812 C2804 1.574 . S
C2812 H2807 0.949 . S
C2812 C2818 1.368 1_565 S
C2813 C2797 1.349 . S
C2813 H2805 0.950 . S
C2813 C2811 1.327 . S
C2814 C2802 1.349 1_565 S
C2814 H2808 0.950 . S
C2814 C2815 1.327 . S
C2815 H2809 0.950 . S
C2815 C2814 1.327 . S
C2815 C2819 1.429 1_565 S
C2816 C2799 1.574 . S
C2816 H2810 0.949 . S
C2816 C2820 1.368 . S
C2817 C2798 1.429 1_545 S
C2817 C2811 1.429 . S
C2817 C2818 1.523 . S
C2818 C2799 1.368 . S
C2818 C2812 1.368 1_545 S
C2818 C2817 1.523 . S
C2819 C2803 1.429 . S
C2819 C2815 1.429 1_545 S
C2819 C2820 1.523 . S
C2820 C2804 1.368 1_545 S
C2820 C2816 1.368 . S
C2820 C2819 1.523 . S
H2821 C2796 0.950 . S
H2822 C2798 0.950 . S
H2823 C2799 0.949 . S
H2824 C2801 0.950 . S
H2825 C2803 0.950 . S
C2826 C2827 1.349 . S
C2826 C2828 1.327 . S
C2826 H2851 0.950 . S
C2827 C2826 1.349 . S
C2827 C2843 1.349 . S
C2828 C2826 1.327 . S
C2828 C2847 1.429 . S
C2828 H2852 0.950 . S
C2829 C2846 1.574 . S
C2829 C2848 1.368 . S
C2829 H2853 0.949 . S
H2830 C2834 0.949 . S
C2831 C2832 1.349 . S
C2831 C2833 1.327 . S
C2831 H2854 0.950 . S
C2832 C2831 1.349 . S
C2832 C2844 1.349 . S
C2833 C2831 1.327 . S
C2833 C2849 1.429 . S
C2833 H2855 0.950 . S
C2834 H2830 0.949 . S
C2834 C2842 1.574 . S
C2834 C2850 1.368 . S
H2835 C2843 0.950 . S
H2836 C2841 0.950 . S
H2837 C2842 0.949 . S
H2838 C2844 0.950 . S
H2839 C2845 0.950 . S
H2840 C2846 0.949 . S
C2841 H2836 0.950 . S
C2841 C2843 1.327 . S
C2841 C2847 1.429 . S
C2842 C2834 1.574 . S
C2842 H2837 0.949 . S
C2842 C2848 1.368 . S
C2843 C2827 1.349 . S
C2843 H2835 0.950 . S
C2843 C2841 1.327 . S
C2844 C2832 1.349 . S
C2844 H2838 0.950 . S
C2844 C2845 1.327 . S
C2845 H2839 0.950 . S
C2845 C2844 1.327 . S
C2845 C2849 1.429 . S
C2846 C2829 1.574 . S
C2846 H2840 0.949 . S
C2846 C2850 1.368 . S
C2847 C2828 1.429 . S
C2847 C2841 1.429 . S
C2847 C2848 1.523 . S
C2848 C2829 1.368 . S
C2848 C2842 1.368 . S
C2848 C2847 1.523 . S
C2849 C2833 1.429 . S
C2849 C2845 1.429 . S
C2849 C2850 1.523 . S
C2850 C2834 1.368 . S
C2850 C2846 1.368 . S
C2850 C2849 1.523 . S
H2851 C2826 0.950 . S
H2852 C2828 0.950 . S
H2853 C2829 0.949 . S
H2854 C2831 0.950 . S
H2855 C2833 0.950 . S
C2856 C2857 1.349 . S
C2856 C2858 1.327 . S
C2856 H2881 0.950 . S
C2857 C2856 1.349 . S
C2857 C2873 1.349 . S
C2858 C2856 1.327 . S
C2858 C2877 1.429 . S
C2858 H2882 0.950 . S
C2859 C2876 1.574 . S
C2859 C2878 1.368 . S
C2859 H2883 0.949 . S
H2860 C2864 0.949 . S
C2861 C2862 1.349 . S
C2861 C2863 1.327 . S
C2861 H2884 0.950 1_554 S
C2862 C2861 1.349 . S
C2862 C2874 1.349 . S
C2863 C2861 1.327 . S
C2863 C2879 1.429 . S
C2863 H2885 0.950 . S
C2864 H2860 0.949 . S
C2864 C2872 1.574 . S
C2864 C2880 1.368 . S
H2865 C2873 0.950 . S
H2866 C2871 0.950 . S
H2867 C2872 0.949 . S
H2868 C2874 0.950 . S
H2869 C2875 0.950 . S
H2870 C2876 0.949 . S
C2871 H2866 0.950 . S
C2871 C2873 1.327 . S
C2871 C2877 1.429 . S
C2872 C2864 1.574 . S
C2872 H2867 0.949 . S
C2872 C2878 1.368 . S
C2873 C2857 1.349 . S
C2873 H2865 0.950 . S
C2873 C2871 1.327 . S
C2874 C2862 1.349 . S
C2874 H2868 0.950 . S
C2874 C2875 1.327 . S
C2875 H2869 0.950 . S
C2875 C2874 1.327 . S
C2875 C2879 1.429 . S
C2876 C2859 1.574 . S
C2876 H2870 0.949 . S
C2876 C2880 1.368 . S
C2877 C2858 1.429 . S
C2877 C2871 1.429 . S
C2877 C2878 1.523 . S
C2878 C2859 1.368 . S
C2878 C2872 1.368 . S
C2878 C2877 1.523 . S
C2879 C2863 1.429 . S
C2879 C2875 1.429 . S
C2879 C2880 1.523 . S
C2880 C2864 1.368 . S
C2880 C2876 1.368 . S
C2880 C2879 1.523 . S
H2881 C2856 0.950 . S
H2882 C2858 0.950 . S
H2883 C2859 0.949 . S
H2884 C2861 0.950 1_556 S
H2885 C2863 0.950 . S
C2886 C2887 1.349 . S
C2886 C2888 1.327 . S
C2886 H2911 0.950 . S
C2887 C2886 1.349 . S
C2887 C2903 1.349 . S
C2888 C2886 1.327 . S
C2888 C2907 1.429 . S
C2888 H2912 0.950 . S
C2889 C2906 1.574 . S
C2889 C2908 1.368 . S
C2889 H2913 0.949 . S
H2890 C2894 0.949 . S
C2891 C2892 1.349 . S
C2891 C2893 1.327 . S
C2891 H2914 0.950 . S
C2892 C2891 1.349 . S
C2892 C2904 1.349 . S
C2893 C2891 1.327 . S
C2893 C2909 1.429 . S
C2893 H2915 0.950 . S
C2894 H2890 0.949 . S
C2894 C2902 1.574 . S
C2894 C2910 1.368 . S
H2895 C2903 0.950 . S
H2896 C2901 0.950 . S
H2897 C2902 0.949 . S
H2898 C2904 0.950 . S
H2899 C2905 0.950 . S
H2900 C2906 0.949 . S
C2901 H2896 0.950 . S
C2901 C2903 1.327 . S
C2901 C2907 1.429 . S
C2902 C2894 1.574 . S
C2902 H2897 0.949 . S
C2902 C2908 1.368 . S
C2903 C2887 1.349 . S
C2903 H2895 0.950 . S
C2903 C2901 1.327 . S
C2904 C2892 1.349 . S
C2904 H2898 0.950 . S
C2904 C2905 1.327 . S
C2905 H2899 0.950 . S
C2905 C2904 1.327 . S
C2905 C2909 1.429 . S
C2906 C2889 1.574 . S
C2906 H2900 0.949 . S
C2906 C2910 1.368 . S
C2907 C2888 1.429 . S
C2907 C2901 1.429 . S
C2907 C2908 1.523 . S
C2908 C2889 1.368 . S
C2908 C2902 1.368 . S
C2908 C2907 1.523 . S
C2909 C2893 1.429 . S
C2909 C2905 1.429 . S
C2909 C2910 1.523 . S
C2910 C2894 1.368 . S
C2910 C2906 1.368 . S
C2910 C2909 1.523 . S
H2911 C2886 0.950 . S
H2912 C2888 0.950 . S
H2913 C2889 0.949 . S
H2914 C2891 0.950 . S
H2915 C2893 0.950 . S
C2916 C2917 1.349 . S
C2916 C2918 1.327 . S
C2916 H2941 0.950 . S
C2917 C2916 1.349 . S
C2917 C2933 1.349 . S
C2918 C2916 1.327 . S
C2918 C2937 1.429 . S
C2918 H2942 0.950 . S
C2919 C2936 1.574 . S
C2919 C2938 1.368 . S
C2919 H2943 0.949 . S
H2920 C2924 0.949 . S
C2921 C2922 1.349 . S
C2921 C2923 1.327 . S
C2921 H2944 0.950 . S
C2922 C2921 1.349 . S
C2922 C2934 1.349 . S
C2923 C2921 1.327 . S
C2923 C2939 1.429 . S
C2923 H2945 0.950 . S
C2924 H2920 0.949 . S
C2924 C2932 1.574 . S
C2924 C2940 1.368 . S
H2925 C2933 0.950 . S
H2926 C2931 0.950 . S
H2927 C2932 0.949 . S
H2928 C2934 0.950 . S
H2929 C2935 0.950 . S
H2930 C2936 0.949 . S
C2931 H2926 0.950 . S
C2931 C2933 1.327 . S
C2931 C2937 1.429 . S
C2932 C2924 1.574 . S
C2932 H2927 0.949 . S
C2932 C2938 1.368 . S
C2933 C2917 1.349 . S
C2933 H2925 0.950 . S
C2933 C2931 1.327 . S
C2934 C2922 1.349 . S
C2934 H2928 0.950 . S
C2934 C2935 1.327 . S
C2935 H2929 0.950 . S
C2935 C2934 1.327 . S
C2935 C2939 1.429 . S
C2936 C2919 1.574 . S
C2936 H2930 0.949 . S
C2936 C2940 1.368 . S
C2937 C2918 1.429 . S
C2937 C2931 1.429 . S
C2937 C2938 1.523 . S
C2938 C2919 1.368 . S
C2938 C2932 1.368 . S
C2938 C2937 1.523 . S
C2939 C2923 1.429 . S
C2939 C2935 1.429 . S
C2939 C2940 1.523 . S
C2940 C2924 1.368 . S
C2940 C2936 1.368 . S
C2940 C2939 1.523 . S
H2941 C2916 0.950 . S
H2942 C2918 0.950 . S
H2943 C2919 0.949 . S
H2944 C2921 0.950 . S
H2945 C2923 0.950 . S
C2946 C2947 1.349 . S
C2946 C2948 1.327 . S
C2946 H2971 0.950 . S
C2947 C2946 1.349 . S
C2947 C2963 1.349 . S
C2948 C2946 1.327 . S
C2948 C2967 1.429 . S
C2948 H2972 0.950 . S
C2949 C2966 1.574 . S
C2949 C2968 1.368 . S
C2949 H2973 0.949 . S
H2950 C2954 0.949 . S
C2951 C2952 1.349 . S
C2951 C2953 1.327 . S
C2951 H2974 0.950 . S
C2952 C2951 1.349 . S
C2952 C2964 1.349 . S
C2953 C2951 1.327 . S
C2953 C2969 1.429 . S
C2953 H2975 0.950 . S
C2954 H2950 0.949 . S
C2954 C2962 1.574 . S
C2954 C2970 1.368 . S
H2955 C2963 0.950 . S
H2956 C2961 0.950 . S
H2957 C2962 0.949 . S
H2958 C2964 0.950 . S
H2959 C2965 0.950 . S
H2960 C2966 0.949 . S
C2961 H2956 0.950 . S
C2961 C2963 1.327 . S
C2961 C2967 1.429 . S
C2962 C2954 1.574 . S
C2962 H2957 0.949 . S
C2962 C2968 1.368 . S
C2963 C2947 1.349 . S
C2963 H2955 0.950 . S
C2963 C2961 1.327 . S
C2964 C2952 1.349 . S
C2964 H2958 0.950 . S
C2964 C2965 1.327 . S
C2965 H2959 0.950 . S
C2965 C2964 1.327 . S
C2965 C2969 1.429 . S
C2966 C2949 1.574 . S
C2966 H2960 0.949 . S
C2966 C2970 1.368 . S
C2967 C2948 1.429 . S
C2967 C2961 1.429 . S
C2967 C2968 1.523 . S
C2968 C2949 1.368 . S
C2968 C2962 1.368 . S
C2968 C2967 1.523 . S
C2969 C2953 1.429 . S
C2969 C2965 1.429 . S
C2969 C2970 1.523 . S
C2970 C2954 1.368 . S
C2970 C2966 1.368 . S
C2970 C2969 1.523 . S
H2971 C2946 0.950 . S
H2972 C2948 0.950 . S
H2973 C2949 0.949 . S
H2974 C2951 0.950 . S
H2975 C2953 0.950 . S
C2976 C2977 1.351 1_565 S
C2976 C2978 1.327 . S
C2976 H3001 0.950 . S
C2977 C2976 1.351 1_545 S
C2977 C2993 1.351 1_545 S
C2978 C2976 1.327 . S
C2978 C2997 1.429 . S
C2978 H3002 0.950 . S
C2979 C2996 1.574 . S
C2979 C2998 1.368 . S
C2979 H3003 0.949 . S
H2980 C2984 0.949 . S
C2981 C2982 1.349 . S
C2981 C2983 1.327 . S
C2981 H3004 0.950 . S
C2982 C2981 1.349 . S
C2982 C2994 1.349 . S
C2983 C2981 1.327 . S
C2983 C2999 1.429 . S
C2983 H3005 0.950 . S
C2984 H2980 0.949 . S
C2984 C2992 1.574 . S
C2984 C3000 1.368 . S
H2985 C2993 0.950 . S
H2986 C2991 0.950 . S
H2987 C2992 0.949 . S
H2988 C2994 0.950 . S
H2989 C2995 0.950 . S
H2990 C2996 0.949 . S
C2991 H2986 0.950 . S
C2991 C2993 1.327 . S
C2991 C2997 1.429 . S
C2992 C2984 1.574 . S
C2992 H2987 0.949 . S
C2992 C2998 1.368 . S
C2993 C2977 1.351 1_565 S
C2993 H2985 0.950 . S
C2993 C2991 1.327 . S
C2994 C2982 1.349 . S
C2994 H2988 0.950 . S
C2994 C2995 1.327 . S
C2995 H2989 0.950 . S
C2995 C2994 1.327 . S
C2995 C2999 1.429 . S
C2996 C2979 1.574 . S
C2996 H2990 0.949 . S
C2996 C3000 1.368 . S
C2997 C2978 1.429 . S
C2997 C2991 1.429 . S
C2997 C2998 1.523 . S
C2998 C2979 1.368 . S
C2998 C2992 1.368 . S
C2998 C2997 1.523 . S
C2999 C2983 1.429 . S
C2999 C2995 1.429 . S
C2999 C3000 1.523 . S
C3000 C2984 1.368 . S
C3000 C2996 1.368 . S
C3000 C2999 1.523 . S
H3001 C2976 0.950 . S
H3002 C2978 0.950 . S
H3003 C2979 0.949 . S
H3004 C2981 0.950 . S
H3005 C2983 0.950 . S
C3006 C3007 1.349 . S
C3006 C3008 1.327 . S
C3006 H3031 0.950 . S
C3007 C3006 1.349 . S
C3007 C3023 1.349 . S
C3008 C3006 1.327 . S
C3008 C3027 1.429 . S
C3008 H3032 0.950 . S
C3009 C3026 1.574 . S
C3009 C3028 1.368 . S
C3009 H3033 0.949 . S
H3010 C3014 0.949 . S
C3011 C3012 1.349 . S
C3011 C3013 1.327 . S
C3011 H3034 0.950 1_565 S
C3012 C3011 1.349 . S
C3012 C3024 1.349 . S
C3013 C3011 1.327 . S
C3013 C3029 1.429 . S
C3013 H3035 0.950 . S
C3014 H3010 0.949 . S
C3014 C3022 1.574 . S
C3014 C3030 1.368 . S
H3015 C3023 0.950 . S
H3016 C3021 0.950 . S
H3017 C3022 0.949 . S
H3018 C3024 0.950 . S
H3019 C3025 0.950 . S
H3020 C3026 0.949 . S
C3021 H3016 0.950 . S
C3021 C3023 1.327 . S
C3021 C3027 1.429 . S
C3022 C3014 1.574 . S
C3022 H3017 0.949 . S
C3022 C3028 1.368 . S
C3023 C3007 1.349 . S
C3023 H3015 0.950 . S
C3023 C3021 1.327 . S
C3024 C3012 1.349 . S
C3024 H3018 0.950 . S
C3024 C3025 1.327 . S
C3025 H3019 0.950 . S
C3025 C3024 1.327 . S
C3025 C3029 1.429 . S
C3026 C3009 1.574 . S
C3026 H3020 0.949 . S
C3026 C3030 1.368 . S
C3027 C3008 1.429 . S
C3027 C3021 1.429 . S
C3027 C3028 1.523 . S
C3028 C3009 1.368 . S
C3028 C3022 1.368 . S
C3028 C3027 1.523 . S
C3029 C3013 1.429 . S
C3029 C3025 1.429 . S
C3029 C3030 1.523 . S
C3030 C3014 1.368 . S
C3030 C3026 1.368 . S
C3030 C3029 1.523 . S
H3031 C3006 0.950 . S
H3032 C3008 0.950 . S
H3033 C3009 0.949 . S
H3034 C3011 0.950 1_545 S
H3035 C3013 0.950 . S
C3036 C3037 1.349 . S
C3036 C3038 1.327 . S
C3036 H3061 0.950 . S
C3037 C3036 1.349 . S
C3037 C3053 1.349 . S
C3038 C3036 1.327 . S
C3038 C3057 1.429 . S
C3038 H3062 0.950 . S
C3039 C3056 1.574 . S
C3039 C3058 1.368 . S
C3039 H3063 0.949 . S
H3040 C3044 0.949 . S
C3041 C3042 1.349 . S
C3041 C3043 1.327 . S
C3041 H3064 0.950 . S
C3042 C3041 1.349 . S
C3042 C3054 1.349 . S
C3043 C3041 1.327 . S
C3043 C3059 1.429 . S
C3043 H3065 0.950 . S
C3044 H3040 0.949 . S
C3044 C3052 1.574 . S
C3044 C3060 1.368 . S
H3045 C3053 0.950 . S
H3046 C3051 0.950 . S
H3047 C3052 0.949 . S
H3048 C3054 0.950 . S
H3049 C3055 0.950 . S
H3050 C3056 0.949 . S
C3051 H3046 0.950 . S
C3051 C3053 1.327 . S
C3051 C3057 1.429 . S
C3052 C3044 1.574 . S
C3052 H3047 0.949 . S
C3052 C3058 1.368 . S
C3053 C3037 1.349 . S
C3053 H3045 0.950 . S
C3053 C3051 1.327 . S
C3054 C3042 1.349 . S
C3054 H3048 0.950 . S
C3054 C3055 1.327 . S
C3055 H3049 0.950 . S
C3055 C3054 1.327 . S
C3055 C3059 1.429 . S
C3056 C3039 1.574 . S
C3056 H3050 0.949 . S
C3056 C3060 1.368 . S
C3057 C3038 1.429 . S
C3057 C3051 1.429 . S
C3057 C3058 1.523 . S
C3058 C3039 1.368 . S
C3058 C3052 1.368 . S
C3058 C3057 1.523 . S
C3059 C3043 1.429 . S
C3059 C3055 1.429 . S
C3059 C3060 1.523 . S
C3060 C3044 1.368 . S
C3060 C3056 1.368 . S
C3060 C3059 1.523 . S
H3061 C3036 0.950 . S
H3062 C3038 0.950 . S
H3063 C3039 0.949 . S
H3064 C3041 0.950 . S
H3065 C3043 0.950 . S
C3066 C3067 1.349 . S
C3066 C3068 1.327 . S
C3066 H3091 0.950 . S
C3067 C3066 1.349 . S
C3067 C3083 1.349 . S
C3068 C3066 1.327 . S
C3068 C3087 1.429 . S
C3068 H3092 0.950 . S
C3069 C3086 1.574 . S
C3069 C3088 1.368 . S
C3069 H3093 0.949 . S
H3070 C3074 0.949 . S
C3071 C3072 1.349 . S
C3071 C3073 1.327 . S
C3071 H3094 0.950 . S
C3072 C3071 1.349 . S
C3072 C3084 1.349 . S
C3073 C3071 1.327 . S
C3073 C3089 1.429 . S
C3073 H3095 0.950 . S
C3074 H3070 0.949 . S
C3074 C3082 1.574 . S
C3074 C3090 1.368 . S
H3075 C3083 0.950 . S
H3076 C3081 0.950 . S
H3077 C3082 0.949 . S
H3078 C3084 0.950 . S
H3079 C3085 0.950 . S
H3080 C3086 0.949 . S
C3081 H3076 0.950 . S
C3081 C3083 1.327 . S
C3081 C3087 1.429 . S
C3082 C3074 1.574 . S
C3082 H3077 0.949 . S
C3082 C3088 1.368 . S
C3083 C3067 1.349 . S
C3083 H3075 0.950 . S
C3083 C3081 1.327 . S
C3084 C3072 1.349 . S
C3084 H3078 0.950 . S
C3084 C3085 1.327 . S
C3085 H3079 0.950 . S
C3085 C3084 1.327 . S
C3085 C3089 1.429 . S
C3086 C3069 1.574 . S
C3086 H3080 0.949 . S
C3086 C3090 1.368 . S
C3087 C3068 1.429 . S
C3087 C3081 1.429 . S
C3087 C3088 1.523 . S
C3088 C3069 1.368 . S
C3088 C3082 1.368 . S
C3088 C3087 1.523 . S
C3089 C3073 1.429 . S
C3089 C3085 1.429 . S
C3089 C3090 1.523 . S
C3090 C3074 1.368 . S
C3090 C3086 1.368 . S
C3090 C3089 1.523 . S
H3091 C3066 0.950 . S
H3092 C3068 0.950 . S
H3093 C3069 0.949 . S
H3094 C3071 0.950 . S
H3095 C3073 0.950 . S
C3096 C3097 1.349 . S
C3096 C3098 1.327 . S
C3096 H3121 0.950 . S
C3097 C3096 1.349 . S
C3097 C3113 1.349 . S
C3098 C3096 1.327 . S
C3098 C3117 1.429 . S
C3098 H3122 0.950 . S
C3099 C3116 1.574 . S
C3099 C3118 1.368 . S
C3099 H3123 0.949 . S
H3100 C3104 0.949 . S
C3101 C3102 1.349 . S
C3101 C3103 1.327 . S
C3101 H3124 0.950 . S
C3102 C3101 1.349 . S
C3102 C3114 1.349 . S
C3103 C3101 1.327 . S
C3103 C3119 1.429 . S
C3103 H3125 0.950 . S
C3104 H3100 0.949 . S
C3104 C3112 1.574 . S
C3104 C3120 1.368 . S
H3105 C3113 0.950 . S
H3106 C3111 0.950 . S
H3107 C3112 0.949 . S
H3108 C3114 0.950 . S
H3109 C3115 0.950 . S
H3110 C3116 0.949 . S
C3111 H3106 0.950 . S
C3111 C3113 1.327 . S
C3111 C3117 1.429 . S
C3112 C3104 1.574 . S
C3112 H3107 0.949 . S
C3112 C3118 1.368 . S
C3113 C3097 1.349 . S
C3113 H3105 0.950 . S
C3113 C3111 1.327 . S
C3114 C3102 1.349 . S
C3114 H3108 0.950 . S
C3114 C3115 1.327 . S
C3115 H3109 0.950 . S
C3115 C3114 1.327 . S
C3115 C3119 1.429 . S
C3116 C3099 1.574 . S
C3116 H3110 0.949 . S
C3116 C3120 1.368 . S
C3117 C3098 1.429 . S
C3117 C3111 1.429 . S
C3117 C3118 1.523 . S
C3118 C3099 1.368 . S
C3118 C3112 1.368 . S
C3118 C3117 1.523 . S
C3119 C3103 1.429 . S
C3119 C3115 1.429 . S
C3119 C3120 1.523 . S
C3120 C3104 1.368 . S
C3120 C3116 1.368 . S
C3120 C3119 1.523 . S
H3121 C3096 0.950 . S
H3122 C3098 0.950 . S
H3123 C3099 0.949 . S
H3124 C3101 0.950 . S
H3125 C3103 0.950 . S
C3126 C3127 1.349 . S
C3126 C3128 1.327 . S
C3126 H3151 0.950 . S
C3127 C3126 1.349 . S
C3127 C3143 1.349 . S
C3128 C3126 1.327 . S
C3128 C3147 1.429 . S
C3128 H3152 0.950 . S
C3129 C3146 1.574 . S
C3129 C3148 1.368 . S
C3129 H3153 0.949 . S
H3130 C3134 0.949 . S
C3131 C3132 1.349 . S
C3131 C3133 1.327 . S
C3131 H3154 0.950 . S
C3132 C3131 1.349 . S
C3132 C3144 1.349 . S
C3133 C3131 1.327 . S
C3133 C3149 1.429 . S
C3133 H3155 0.950 . S
C3134 H3130 0.949 . S
C3134 C3142 1.574 . S
C3134 C3150 1.368 . S
H3135 C3143 0.950 . S
H3136 C3141 0.950 . S
H3137 C3142 0.949 . S
H3138 C3144 0.950 . S
H3139 C3145 0.950 . S
H3140 C3146 0.949 . S
C3141 H3136 0.950 . S
C3141 C3143 1.327 . S
C3141 C3147 1.429 . S
C3142 C3134 1.574 . S
C3142 H3137 0.949 . S
C3142 C3148 1.368 . S
C3143 C3127 1.349 . S
C3143 H3135 0.950 . S
C3143 C3141 1.327 . S
C3144 C3132 1.349 . S
C3144 H3138 0.950 . S
C3144 C3145 1.327 . S
C3145 H3139 0.950 . S
C3145 C3144 1.327 . S
C3145 C3149 1.429 . S
C3146 C3129 1.574 . S
C3146 H3140 0.949 . S
C3146 C3150 1.368 . S
C3147 C3128 1.429 . S
C3147 C3141 1.429 . S
C3147 C3148 1.523 . S
C3148 C3129 1.368 . S
C3148 C3142 1.368 . S
C3148 C3147 1.523 . S
C3149 C3133 1.429 . S
C3149 C3145 1.429 . S
C3149 C3150 1.523 . S
C3150 C3134 1.368 . S
C3150 C3146 1.368 . S
C3150 C3149 1.523 . S
H3151 C3126 0.950 . S
H3152 C3128 0.950 . S
H3153 C3129 0.949 . S
H3154 C3131 0.950 . S
H3155 C3133 0.950 . S
C3156 C3157 1.349 . S
C3156 C3158 1.327 . S
C3156 H3181 0.950 . S
C3157 C3156 1.349 . S
C3157 C3173 1.349 1_455 S
C3158 C3156 1.327 . S
C3158 C3177 1.429 . S
C3158 H3182 0.950 . S
C3159 C3176 1.573 1_655 S
C3159 C3178 1.370 1_655 S
C3159 H3183 0.948 . S
H3160 C3164 0.949 . S
C3161 C3162 1.349 1_556 S
C3161 C3163 1.327 . S
C3161 H3184 0.920 1_455 S
C3162 C3161 1.349 1_554 S
C3162 C3174 1.349 . S
C3163 C3161 1.327 . S
C3163 C3179 1.429 . S
C3163 H3185 0.950 1_455 S
C3164 H3160 0.949 . S
C3164 C3172 1.574 1_554 S
C3164 C3180 1.368 1_554 S
H3165 C3173 0.950 . S
H3166 C3171 0.950 . S
H3167 C3172 0.949 1_554 S
H3168 C3174 0.950 . S
H3169 C3175 0.950 . S
H3170 C3176 0.949 1_655 S
C3171 H3166 0.950 . S
C3171 C3173 1.327 . S
C3171 C3177 1.429 1_655 S
C3172 C3164 1.574 1_556 S
C3172 H3167 0.949 1_556 S
C3172 C3178 1.368 . S
C3173 C3157 1.349 1_655 S
C3173 H3165 0.950 . S
C3173 C3171 1.327 . S
C3174 C3162 1.349 . S
C3174 H3168 0.950 . S
C3174 C3175 1.327 . S
C3175 H3169 0.950 . S
C3175 C3174 1.327 . S
C3175 C3179 1.429 1_554 S
C3176 C3159 1.573 1_455 S
C3176 H3170 0.949 1_455 S
C3176 C3180 1.368 . S
C3177 C3158 1.429 . S
C3177 C3171 1.429 1_455 S
C3177 C3178 1.523 . S
C3178 C3159 1.370 1_455 S
C3178 C3172 1.368 . S
C3178 C3177 1.523 . S
C3179 C3163 1.429 . S
C3179 C3175 1.429 1_556 S
C3179 C3180 1.523 . S
C3180 C3164 1.368 1_556 S
C3180 C3176 1.368 . S
C3180 C3179 1.523 . S
H3181 C3156 0.950 . S
H3182 C3158 0.950 . S
H3183 C3159 0.948 . S
H3184 C3161 0.920 1_655 S
H3185 C3163 0.950 1_655 S
C3186 C3187 1.349 . S
C3186 C3188 1.327 . S
C3186 H3211 0.950 . S
C3187 C3186 1.349 . S
C3187 C3203 1.349 . S
C3188 C3186 1.327 . S
C3188 C3207 1.429 . S
C3188 H3212 0.950 . S
C3189 C3206 1.574 . S
C3189 C3208 1.368 . S
C3189 H3213 0.949 . S
H3190 C3194 0.949 . S
C3191 C3192 1.349 . S
C3191 C3193 1.327 . S
C3191 H3214 0.950 . S
C3192 C3191 1.349 . S
C3192 C3204 1.349 . S
C3193 C3191 1.327 . S
C3193 C3209 1.429 . S
C3193 H3215 0.950 . S
C3194 H3190 0.949 . S
C3194 C3202 1.574 . S
C3194 C3210 1.368 . S
H3195 C3203 0.950 1_455 S
H3196 C3201 0.950 . S
H3197 C3202 0.949 . S
H3198 C3204 0.950 . S
H3199 C3205 0.950 . S
H3200 C3206 0.949 . S
C3201 H3196 0.950 . S
C3201 C3203 1.327 . S
C3201 C3207 1.429 . S
C3202 C3194 1.574 . S
C3202 H3197 0.949 . S
C3202 C3208 1.368 . S
C3203 C3187 1.349 . S
C3203 H3195 0.950 1_655 S
C3203 C3201 1.327 . S
C3204 C3192 1.349 . S
C3204 H3198 0.950 . S
C3204 C3205 1.327 . S
C3205 H3199 0.950 . S
C3205 C3204 1.327 . S
C3205 C3209 1.429 . S
C3206 C3189 1.574 . S
C3206 H3200 0.949 . S
C3206 C3210 1.368 . S
C3207 C3188 1.429 . S
C3207 C3201 1.429 . S
C3207 C3208 1.523 . S
C3208 C3189 1.368 . S
C3208 C3202 1.368 . S
C3208 C3207 1.523 . S
C3209 C3193 1.429 . S
C3209 C3205 1.429 . S
C3209 C3210 1.523 . S
C3210 C3194 1.368 . S
C3210 C3206 1.368 . S
C3210 C3209 1.523 . S
H3211 C3186 0.950 . S
H3212 C3188 0.950 . S
H3213 C3189 0.949 . S
H3214 C3191 0.950 . S
H3215 C3193 0.950 . S
C3216 C3217 1.349 . S
C3216 C3218 1.327 . S
C3216 H3241 0.950 . S
C3217 C3216 1.349 . S
C3217 C3233 1.349 . S
C3218 C3216 1.327 . S
C3218 C3237 1.429 . S
C3218 H3242 0.950 . S
C3219 C3236 1.574 . S
C3219 C3238 1.368 . S
C3219 H3243 0.949 . S
H3220 C3224 0.949 . S
C3221 C3222 1.349 . S
C3221 C3223 1.327 . S
C3221 H3244 0.950 . S
C3222 C3221 1.349 . S
C3222 C3234 1.349 . S
C3223 C3221 1.327 . S
C3223 C3239 1.429 . S
C3223 H3245 0.950 . S
C3224 H3220 0.949 . S
C3224 C3232 1.574 . S
C3224 C3240 1.368 . S
H3225 C3233 0.950 . S
H3226 C3231 0.950 . S
H3227 C3232 0.949 . S
H3228 C3234 0.950 . S
H3229 C3235 0.950 . S
H3230 C3236 0.949 . S
C3231 H3226 0.950 . S
C3231 C3233 1.327 . S
C3231 C3237 1.429 . S
C3232 C3224 1.574 . S
C3232 H3227 0.949 . S
C3232 C3238 1.368 . S
C3233 C3217 1.349 . S
C3233 H3225 0.950 . S
C3233 C3231 1.327 . S
C3234 C3222 1.349 . S
C3234 H3228 0.950 . S
C3234 C3235 1.327 . S
C3235 H3229 0.950 . S
C3235 C3234 1.327 . S
C3235 C3239 1.429 . S
C3236 C3219 1.574 . S
C3236 H3230 0.949 . S
C3236 C3240 1.368 . S
C3237 C3218 1.429 . S
C3237 C3231 1.429 . S
C3237 C3238 1.523 . S
C3238 C3219 1.368 . S
C3238 C3232 1.368 . S
C3238 C3237 1.523 . S
C3239 C3223 1.429 . S
C3239 C3235 1.429 . S
C3239 C3240 1.523 . S
C3240 C3224 1.368 . S
C3240 C3236 1.368 . S
C3240 C3239 1.523 . S
H3241 C3216 0.950 . S
H3242 C3218 0.950 . S
H3243 C3219 0.949 . S
H3244 C3221 0.950 . S
H3245 C3223 0.950 . S
C3246 C3247 1.349 . S
C3246 C3248 1.327 . S
C3246 H3271 0.950 . S
C3247 C3246 1.349 . S
C3247 C3263 1.349 . S
C3248 C3246 1.327 . S
C3248 C3267 1.429 . S
C3248 H3272 0.950 . S
C3249 C3266 1.574 . S
C3249 C3268 1.368 . S
C3249 H3273 0.949 . S
H3250 C3254 0.949 . S
C3251 C3252 1.349 . S
C3251 C3253 1.327 . S
C3251 H3274 0.950 . S
C3252 C3251 1.349 . S
C3252 C3264 1.349 . S
C3253 C3251 1.327 . S
C3253 C3269 1.429 . S
C3253 H3275 0.950 . S
C3254 H3250 0.949 . S
C3254 C3262 1.574 . S
C3254 C3270 1.368 . S
H3255 C3263 0.950 . S
H3256 C3261 0.950 . S
H3257 C3262 0.949 . S
H3258 C3264 0.950 . S
H3259 C3265 0.950 . S
H3260 C3266 0.949 . S
C3261 H3256 0.950 . S
C3261 C3263 1.327 . S
C3261 C3267 1.429 . S
C3262 C3254 1.574 . S
C3262 H3257 0.949 . S
C3262 C3268 1.368 . S
C3263 C3247 1.349 . S
C3263 H3255 0.950 . S
C3263 C3261 1.327 . S
C3264 C3252 1.349 . S
C3264 H3258 0.950 . S
C3264 C3265 1.327 . S
C3265 H3259 0.950 . S
C3265 C3264 1.327 . S
C3265 C3269 1.429 . S
C3266 C3249 1.574 . S
C3266 H3260 0.949 . S
C3266 C3270 1.368 . S
C3267 C3248 1.429 . S
C3267 C3261 1.429 . S
C3267 C3268 1.523 . S
C3268 C3249 1.368 . S
C3268 C3262 1.368 . S
C3268 C3267 1.523 . S
C3269 C3253 1.429 . S
C3269 C3265 1.429 . S
C3269 C3270 1.523 . S
C3270 C3254 1.368 . S
C3270 C3266 1.368 . S
C3270 C3269 1.523 . S
H3271 C3246 0.950 . S
H3272 C3248 0.950 . S
H3273 C3249 0.949 . S
H3274 C3251 0.950 . S
H3275 C3253 0.950 . S
C3276 C3277 1.349 . S
C3276 C3278 1.327 . S
C3276 H3301 0.950 . S
C3277 C3276 1.349 . S
C3277 C3293 1.330 1_455 S
C3278 C3276 1.327 . S
C3278 C3297 1.429 . S
C3278 H3302 0.950 . S
C3279 C3296 1.574 . S
C3279 C3298 1.368 . S
C3279 H3303 0.949 1_455 S
H3280 C3284 0.949 . S
C3281 C3282 1.349 . S
C3281 C3283 1.327 . S
C3281 H3304 0.930 1_455 S
C3282 C3281 1.349 . S
C3282 C3294 1.349 . S
C3283 C3281 1.327 . S
C3283 C3299 1.429 . S
C3283 H3305 0.950 1_455 S
C3284 H3280 0.949 . S
C3284 C3292 1.574 . S
C3284 C3300 1.368 . S
H3285 C3293 0.981 . S
H3286 C3291 0.948 1_655 S
H3287 C3292 0.949 . S
H3288 C3294 0.950 . S
H3289 C3295 0.950 . S
H3290 C3296 0.949 1_655 S
C3291 H3286 0.948 1_455 S
C3291 C3293 1.316 1_455 S
C3291 C3297 1.430 . S
C3292 C3284 1.574 . S
C3292 H3287 0.949 . S
C3292 C3298 1.368 . S
C3293 C3277 1.330 1_655 S
C3293 H3285 0.981 . S
C3293 C3291 1.316 1_655 S
C3294 C3282 1.349 . S
C3294 H3288 0.950 . S
C3294 C3295 1.327 . S
C3295 H3289 0.950 . S
C3295 C3294 1.327 . S
C3295 C3299 1.429 . S
C3296 C3279 1.574 . S
C3296 H3290 0.949 1_455 S
C3296 C3300 1.368 . S
C3297 C3278 1.429 . S
C3297 C3291 1.430 . S
C3297 C3298 1.523 . S
C3298 C3279 1.368 . S
C3298 C3292 1.368 . S
C3298 C3297 1.523 . S
C3299 C3283 1.429 . S
C3299 C3295 1.429 . S
C3299 C3300 1.523 . S
C3300 C3284 1.368 . S
C3300 C3296 1.368 . S
C3300 C3299 1.523 . S
H3301 C3276 0.950 . S
H3302 C3278 0.950 . S
H3303 C3279 0.949 1_655 S
H3304 C3281 0.930 1_655 S
H3305 C3283 0.950 1_655 S
C3306 C3307 1.349 . S
C3306 C3308 1.327 . S
C3306 H3331 0.950 . S
C3307 C3306 1.349 . S
C3307 C3323 1.349 . S
C3308 C3306 1.327 . S
C3308 C3327 1.429 . S
C3308 H3332 0.950 . S
C3309 C3326 1.574 . S
C3309 C3328 1.368 . S
C3309 H3333 0.949 . S
H3310 C3314 0.949 . S
C3311 C3312 1.349 . S
C3311 C3313 1.327 . S
C3311 H3334 0.950 . S
C3312 C3311 1.349 . S
C3312 C3324 1.349 . S
C3313 C3311 1.327 . S
C3313 C3329 1.429 . S
C3313 H3335 0.950 . S
C3314 H3310 0.949 . S
C3314 C3322 1.574 . S
C3314 C3330 1.368 . S
H3315 C3323 0.950 . S
H3316 C3321 0.950 . S
H3317 C3322 0.949 . S
H3318 C3324 0.950 . S
H3319 C3325 0.950 . S
H3320 C3326 0.949 . S
C3321 H3316 0.950 . S
C3321 C3323 1.327 . S
C3321 C3327 1.429 . S
C3322 C3314 1.574 . S
C3322 H3317 0.949 . S
C3322 C3328 1.368 . S
C3323 C3307 1.349 . S
C3323 H3315 0.950 . S
C3323 C3321 1.327 . S
C3324 C3312 1.349 . S
C3324 H3318 0.950 . S
C3324 C3325 1.327 . S
C3325 H3319 0.950 . S
C3325 C3324 1.327 . S
C3325 C3329 1.429 . S
C3326 C3309 1.574 . S
C3326 H3320 0.949 . S
C3326 C3330 1.368 . S
C3327 C3308 1.429 . S
C3327 C3321 1.429 . S
C3327 C3328 1.523 . S
C3328 C3309 1.368 . S
C3328 C3322 1.368 . S
C3328 C3327 1.523 . S
C3329 C3313 1.429 . S
C3329 C3325 1.429 . S
C3329 C3330 1.523 . S
C3330 C3314 1.368 . S
C3330 C3326 1.368 . S
C3330 C3329 1.523 . S
H3331 C3306 0.950 . S
H3332 C3308 0.950 . S
H3333 C3309 0.949 . S
H3334 C3311 0.950 . S
H3335 C3313 0.950 . S
C3336 C3337 1.349 . S
C3336 C3338 1.327 . S
C3336 H3361 0.950 . S
C3337 C3336 1.349 . S
C3337 C3353 1.349 . S
C3338 C3336 1.327 . S
C3338 C3357 1.429 . S
C3338 H3362 0.950 . S
C3339 C3356 1.574 . S
C3339 C3358 1.368 . S
C3339 H3363 0.949 . S
H3340 C3344 0.949 . S
C3341 C3342 1.349 . S
C3341 C3343 1.327 . S
C3341 H3364 0.950 . S
C3342 C3341 1.349 . S
C3342 C3354 1.349 . S
C3343 C3341 1.327 . S
C3343 C3359 1.429 . S
C3343 H3365 0.950 . S
C3344 H3340 0.949 . S
C3344 C3352 1.574 . S
C3344 C3360 1.368 . S
H3345 C3353 0.950 . S
H3346 C3351 0.950 . S
H3347 C3352 0.949 . S
H3348 C3354 0.950 . S
H3349 C3355 0.950 . S
H3350 C3356 0.949 . S
C3351 H3346 0.950 . S
C3351 C3353 1.327 . S
C3351 C3357 1.429 . S
C3352 C3344 1.574 . S
C3352 H3347 0.949 . S
C3352 C3358 1.368 . S
C3353 C3337 1.349 . S
C3353 H3345 0.950 . S
C3353 C3351 1.327 . S
C3354 C3342 1.349 . S
C3354 H3348 0.950 . S
C3354 C3355 1.327 . S
C3355 H3349 0.950 . S
C3355 C3354 1.327 . S
C3355 C3359 1.429 . S
C3356 C3339 1.574 . S
C3356 H3350 0.949 . S
C3356 C3360 1.368 . S
C3357 C3338 1.429 . S
C3357 C3351 1.429 . S
C3357 C3358 1.523 . S
C3358 C3339 1.368 . S
C3358 C3352 1.368 . S
C3358 C3357 1.523 . S
C3359 C3343 1.429 . S
C3359 C3355 1.429 . S
C3359 C3360 1.523 . S
C3360 C3344 1.368 . S
C3360 C3356 1.368 . S
C3360 C3359 1.523 . S
H3361 C3336 0.950 . S
H3362 C3338 0.950 . S
H3363 C3339 0.949 . S
H3364 C3341 0.950 . S
H3365 C3343 0.950 . S
C3366 C3367 1.349 1_556 S
C3366 C3368 1.327 . S
C3366 H3391 0.950 . S
C3367 C3366 1.349 1_554 S
C3367 C3383 1.349 . S
C3368 C3366 1.327 . S
C3368 C3387 1.429 . S
C3368 H3392 0.950 . S
C3369 C3386 1.574 . S
C3369 C3388 1.368 . S
C3369 H3393 0.949 . S
H3370 C3374 0.949 . S
C3371 C3372 1.349 . S
C3371 C3373 1.327 . S
C3371 H3394 0.950 . S
C3372 C3371 1.349 . S
C3372 C3384 1.349 . S
C3373 C3371 1.327 . S
C3373 C3389 1.429 . S
C3373 H3395 0.950 . S
C3374 H3370 0.949 . S
C3374 C3382 1.574 . S
C3374 C3390 1.368 . S
H3375 C3383 0.950 . S
H3376 C3381 0.950 . S
H3377 C3382 0.949 . S
H3378 C3384 0.950 . S
H3379 C3385 0.950 . S
H3380 C3386 0.949 . S
C3381 H3376 0.950 . S
C3381 C3383 1.327 1_556 S
C3381 C3387 1.429 . S
C3382 C3374 1.574 . S
C3382 H3377 0.949 . S
C3382 C3388 1.368 . S
C3383 C3367 1.349 . S
C3383 H3375 0.950 . S
C3383 C3381 1.327 1_554 S
C3384 C3372 1.349 . S
C3384 H3378 0.950 . S
C3384 C3385 1.327 . S
C3385 H3379 0.950 . S
C3385 C3384 1.327 . S
C3385 C3389 1.429 . S
C3386 C3369 1.574 . S
C3386 H3380 0.949 . S
C3386 C3390 1.368 . S
C3387 C3368 1.429 . S
C3387 C3381 1.429 . S
C3387 C3388 1.523 . S
C3388 C3369 1.368 . S
C3388 C3382 1.368 . S
C3388 C3387 1.523 . S
C3389 C3373 1.429 . S
C3389 C3385 1.429 . S
C3389 C3390 1.523 . S
C3390 C3374 1.368 . S
C3390 C3386 1.368 . S
C3390 C3389 1.523 . S
H3391 C3366 0.950 . S
H3392 C3368 0.950 . S
H3393 C3369 0.949 . S
H3394 C3371 0.950 . S
H3395 C3373 0.950 . S
C3396 C3397 1.349 . S
C3396 C3398 1.327 . S
C3396 H3421 0.950 . S
C3397 C3396 1.349 . S
C3397 C3413 1.349 . S
C3398 C3396 1.327 . S
C3398 C3417 1.429 . S
C3398 H3422 0.950 . S
C3399 C3416 1.574 . S
C3399 C3418 1.368 . S
C3399 H3423 0.949 . S
H3400 C3404 0.949 . S
C3401 C3402 1.349 . S
C3401 C3403 1.327 . S
C3401 H3424 0.950 . S
C3402 C3401 1.349 . S
C3402 C3414 1.349 . S
C3403 C3401 1.327 . S
C3403 C3419 1.429 . S
C3403 H3425 0.950 . S
C3404 H3400 0.949 . S
C3404 C3412 1.574 . S
C3404 C3420 1.368 . S
H3405 C3413 0.950 . S
H3406 C3411 0.950 . S
H3407 C3412 0.949 . S
H3408 C3414 0.950 . S
H3409 C3415 0.950 . S
H3410 C3416 0.949 . S
C3411 H3406 0.950 . S
C3411 C3413 1.327 . S
C3411 C3417 1.429 . S
C3412 C3404 1.574 . S
C3412 H3407 0.949 . S
C3412 C3418 1.368 . S
C3413 C3397 1.349 . S
C3413 H3405 0.950 . S
C3413 C3411 1.327 . S
C3414 C3402 1.349 . S
C3414 H3408 0.950 . S
C3414 C3415 1.327 . S
C3415 H3409 0.950 . S
C3415 C3414 1.327 . S
C3415 C3419 1.429 . S
C3416 C3399 1.574 . S
C3416 H3410 0.949 . S
C3416 C3420 1.368 . S
C3417 C3398 1.429 . S
C3417 C3411 1.429 . S
C3417 C3418 1.523 . S
C3418 C3399 1.368 . S
C3418 C3412 1.368 . S
C3418 C3417 1.523 . S
C3419 C3403 1.429 . S
C3419 C3415 1.429 . S
C3419 C3420 1.523 . S
C3420 C3404 1.368 . S
C3420 C3416 1.368 . S
C3420 C3419 1.523 . S
H3421 C3396 0.950 . S
H3422 C3398 0.950 . S
H3423 C3399 0.949 . S
H3424 C3401 0.950 . S
H3425 C3403 0.950 . S
C3426 C3427 1.349 . S
C3426 C3428 1.327 . S
C3426 H3451 0.950 . S
C3427 C3426 1.349 . S
C3427 C3443 1.349 . S
C3428 C3426 1.327 . S
C3428 C3447 1.429 . S
C3428 H3452 0.950 . S
C3429 C3446 1.574 . S
C3429 C3448 1.368 . S
C3429 H3453 0.949 . S
H3430 C3434 0.949 . S
C3431 C3432 1.349 . S
C3431 C3433 1.327 . S
C3431 H3454 0.950 . S
C3432 C3431 1.349 . S
C3432 C3444 1.349 . S
C3433 C3431 1.327 . S
C3433 C3449 1.429 . S
C3433 H3455 0.950 . S
C3434 H3430 0.949 . S
C3434 C3442 1.574 . S
C3434 C3450 1.368 . S
H3435 C3443 0.950 . S
H3436 C3441 0.950 . S
H3437 C3442 0.949 . S
H3438 C3444 0.950 . S
H3439 C3445 0.950 . S
H3440 C3446 0.949 . S
C3441 H3436 0.950 . S
C3441 C3443 1.327 . S
C3441 C3447 1.429 . S
C3442 C3434 1.574 . S
C3442 H3437 0.949 . S
C3442 C3448 1.368 . S
C3443 C3427 1.349 . S
C3443 H3435 0.950 . S
C3443 C3441 1.327 . S
C3444 C3432 1.349 . S
C3444 H3438 0.950 . S
C3444 C3445 1.327 . S
C3445 H3439 0.950 . S
C3445 C3444 1.327 . S
C3445 C3449 1.429 . S
C3446 C3429 1.574 . S
C3446 H3440 0.949 . S
C3446 C3450 1.368 . S
C3447 C3428 1.429 . S
C3447 C3441 1.429 . S
C3447 C3448 1.523 . S
C3448 C3429 1.368 . S
C3448 C3442 1.368 . S
C3448 C3447 1.523 . S
C3449 C3433 1.429 . S
C3449 C3445 1.429 . S
C3449 C3450 1.523 . S
C3450 C3434 1.368 . S
C3450 C3446 1.368 . S
C3450 C3449 1.523 . S
H3451 C3426 0.950 . S
H3452 C3428 0.950 . S
H3453 C3429 0.949 . S
H3454 C3431 0.950 . S
H3455 C3433 0.950 . S
C3456 C3457 1.349 . S
C3456 C3458 1.327 . S
C3456 H3481 0.950 . S
C3457 C3456 1.349 . S
C3457 C3473 1.349 . S
C3458 C3456 1.327 . S
C3458 C3477 1.429 . S
C3458 H3482 0.950 . S
C3459 C3476 1.574 . S
C3459 C3478 1.368 . S
C3459 H3483 0.949 . S
H3460 C3464 0.949 . S
C3461 C3462 1.349 . S
C3461 C3463 1.327 . S
C3461 H3484 0.950 . S
C3462 C3461 1.349 . S
C3462 C3474 1.349 . S
C3463 C3461 1.327 . S
C3463 C3479 1.429 . S
C3463 H3485 0.950 . S
C3464 H3460 0.949 . S
C3464 C3472 1.574 . S
C3464 C3480 1.368 . S
H3465 C3473 0.950 . S
H3466 C3471 0.950 . S
H3467 C3472 0.949 . S
H3468 C3474 0.950 . S
H3469 C3475 0.950 . S
H3470 C3476 0.949 . S
C3471 H3466 0.950 . S
C3471 C3473 1.327 . S
C3471 C3477 1.429 . S
C3472 C3464 1.574 . S
C3472 H3467 0.949 . S
C3472 C3478 1.368 . S
C3473 C3457 1.349 . S
C3473 H3465 0.950 . S
C3473 C3471 1.327 . S
C3474 C3462 1.349 . S
C3474 H3468 0.950 . S
C3474 C3475 1.327 . S
C3475 H3469 0.950 . S
C3475 C3474 1.327 . S
C3475 C3479 1.429 . S
C3476 C3459 1.574 . S
C3476 H3470 0.949 . S
C3476 C3480 1.368 . S
C3477 C3458 1.429 . S
C3477 C3471 1.429 . S
C3477 C3478 1.523 . S
C3478 C3459 1.368 . S
C3478 C3472 1.368 . S
C3478 C3477 1.523 . S
C3479 C3463 1.429 . S
C3479 C3475 1.429 . S
C3479 C3480 1.523 . S
C3480 C3464 1.368 . S
C3480 C3476 1.368 . S
C3480 C3479 1.523 . S
H3481 C3456 0.950 . S
H3482 C3458 0.950 . S
H3483 C3459 0.949 . S
H3484 C3461 0.950 . S
H3485 C3463 0.950 . S
C3486 C3487 1.349 . S
C3486 C3488 1.327 . S
C3486 H3511 0.950 . S
C3487 C3486 1.349 . S
C3487 C3503 1.349 . S
C3488 C3486 1.327 . S
C3488 C3507 1.429 . S
C3488 H3512 0.950 . S
C3489 C3506 1.574 . S
C3489 C3508 1.368 . S
C3489 H3513 0.949 . S
H3490 C3494 0.949 . S
C3491 C3492 1.349 . S
C3491 C3493 1.327 . S
C3491 H3514 0.950 . S
C3492 C3491 1.349 . S
C3492 C3504 1.349 . S
C3493 C3491 1.327 . S
C3493 C3509 1.429 . S
C3493 H3515 0.950 . S
C3494 H3490 0.949 . S
C3494 C3502 1.574 . S
C3494 C3510 1.368 . S
H3495 C3503 0.950 . S
H3496 C3501 0.950 . S
H3497 C3502 0.949 . S
H3498 C3504 0.950 . S
H3499 C3505 0.950 . S
H3500 C3506 0.949 . S
C3501 H3496 0.950 . S
C3501 C3503 1.327 . S
C3501 C3507 1.429 . S
C3502 C3494 1.574 . S
C3502 H3497 0.949 . S
C3502 C3508 1.368 . S
C3503 C3487 1.349 . S
C3503 H3495 0.950 . S
C3503 C3501 1.327 . S
C3504 C3492 1.349 . S
C3504 H3498 0.950 . S
C3504 C3505 1.327 . S
C3505 H3499 0.950 . S
C3505 C3504 1.327 . S
C3505 C3509 1.429 . S
C3506 C3489 1.574 . S
C3506 H3500 0.949 . S
C3506 C3510 1.368 . S
C3507 C3488 1.429 . S
C3507 C3501 1.429 . S
C3507 C3508 1.523 . S
C3508 C3489 1.368 . S
C3508 C3502 1.368 . S
C3508 C3507 1.523 . S
C3509 C3493 1.429 . S
C3509 C3505 1.429 . S
C3509 C3510 1.523 . S
C3510 C3494 1.368 . S
C3510 C3506 1.368 . S
C3510 C3509 1.523 . S
H3511 C3486 0.950 . S
H3512 C3488 0.950 . S
H3513 C3489 0.949 . S
H3514 C3491 0.950 . S
H3515 C3493 0.950 . S
C3516 C3517 1.349 . S
C3516 C3518 1.327 . S
C3516 H3541 0.950 . S
C3517 C3516 1.349 . S
C3517 C3533 1.349 . S
C3518 C3516 1.327 . S
C3518 C3537 1.429 . S
C3518 H3542 0.950 . S
C3519 C3536 1.574 . S
C3519 C3538 1.368 . S
C3519 H3543 0.949 . S
H3520 C3524 0.949 . S
C3521 C3522 1.349 . S
C3521 C3523 1.327 . S
C3521 H3544 0.950 . S
C3522 C3521 1.349 . S
C3522 C3534 1.349 . S
C3523 C3521 1.327 . S
C3523 C3539 1.429 . S
C3523 H3545 0.950 . S
C3524 H3520 0.949 . S
C3524 C3532 1.574 . S
C3524 C3540 1.368 . S
H3525 C3533 0.950 . S
H3526 C3531 0.950 . S
H3527 C3532 0.949 . S
H3528 C3534 0.950 . S
H3529 C3535 0.950 . S
H3530 C3536 0.949 . S
C3531 H3526 0.950 . S
C3531 C3533 1.327 . S
C3531 C3537 1.429 . S
C3532 C3524 1.574 . S
C3532 H3527 0.949 . S
C3532 C3538 1.368 . S
C3533 C3517 1.349 . S
C3533 H3525 0.950 . S
C3533 C3531 1.327 . S
C3534 C3522 1.349 . S
C3534 H3528 0.950 . S
C3534 C3535 1.327 . S
C3535 H3529 0.950 . S
C3535 C3534 1.327 . S
C3535 C3539 1.429 . S
C3536 C3519 1.574 . S
C3536 H3530 0.949 . S
C3536 C3540 1.368 . S
C3537 C3518 1.429 . S
C3537 C3531 1.429 . S
C3537 C3538 1.523 . S
C3538 C3519 1.368 . S
C3538 C3532 1.368 . S
C3538 C3537 1.523 . S
C3539 C3523 1.429 . S
C3539 C3535 1.429 . S
C3539 C3540 1.523 . S
C3540 C3524 1.368 . S
C3540 C3536 1.368 . S
C3540 C3539 1.523 . S
H3541 C3516 0.950 . S
H3542 C3518 0.950 . S
H3543 C3519 0.949 . S
H3544 C3521 0.950 . S
H3545 C3523 0.950 . S
C3546 C3547 1.349 . S
C3546 C3548 1.327 . S
C3546 H3571 0.950 . S
C3547 C3546 1.349 . S
C3547 C3563 1.349 . S
C3548 C3546 1.327 . S
C3548 C3567 1.429 . S
C3548 H3572 0.950 . S
C3549 C3566 1.574 . S
C3549 C3568 1.368 . S
C3549 H3573 0.949 . S
H3550 C3554 0.949 . S
C3551 C3552 1.349 . S
C3551 C3553 1.327 . S
C3551 H3574 0.950 . S
C3552 C3551 1.349 . S
C3552 C3564 1.349 . S
C3553 C3551 1.327 . S
C3553 C3569 1.429 . S
C3553 H3575 0.950 . S
C3554 H3550 0.949 . S
C3554 C3562 1.574 . S
C3554 C3570 1.368 . S
H3555 C3563 0.950 . S
H3556 C3561 0.950 . S
H3557 C3562 0.949 . S
H3558 C3564 0.950 . S
H3559 C3565 0.950 . S
H3560 C3566 0.949 . S
C3561 H3556 0.950 . S
C3561 C3563 1.327 . S
C3561 C3567 1.429 . S
C3562 C3554 1.574 . S
C3562 H3557 0.949 . S
C3562 C3568 1.368 . S
C3563 C3547 1.349 . S
C3563 H3555 0.950 . S
C3563 C3561 1.327 . S
C3564 C3552 1.349 . S
C3564 H3558 0.950 . S
C3564 C3565 1.327 . S
C3565 H3559 0.950 . S
C3565 C3564 1.327 . S
C3565 C3569 1.429 . S
C3566 C3549 1.574 . S
C3566 H3560 0.949 . S
C3566 C3570 1.368 . S
C3567 C3548 1.429 . S
C3567 C3561 1.429 . S
C3567 C3568 1.523 . S
C3568 C3549 1.368 . S
C3568 C3562 1.368 . S
C3568 C3567 1.523 . S
C3569 C3553 1.429 . S
C3569 C3565 1.429 . S
C3569 C3570 1.523 . S
C3570 C3554 1.368 . S
C3570 C3566 1.368 . S
C3570 C3569 1.523 . S
H3571 C3546 0.950 . S
H3572 C3548 0.950 . S
H3573 C3549 0.949 . S
H3574 C3551 0.950 . S
H3575 C3553 0.950 . S
C3576 C3577 1.349 . S
C3576 C3578 1.327 . S
C3576 H3601 0.950 . S
C3577 C3576 1.349 . S
C3577 C3593 1.349 . S
C3578 C3576 1.327 . S
C3578 C3597 1.429 . S
C3578 H3602 0.950 . S
C3579 C3596 1.574 . S
C3579 C3598 1.368 . S
C3579 H3603 0.949 . S
H3580 C3584 0.949 . S
C3581 C3582 1.349 . S
C3581 C3583 1.327 . S
C3581 H3604 0.950 . S
C3582 C3581 1.349 . S
C3582 C3594 1.349 . S
C3583 C3581 1.327 . S
C3583 C3599 1.429 . S
C3583 H3605 0.950 . S
C3584 H3580 0.949 . S
C3584 C3592 1.574 . S
C3584 C3600 1.368 . S
H3585 C3593 0.950 . S
H3586 C3591 0.950 . S
H3587 C3592 0.949 . S
H3588 C3594 0.950 . S
H3589 C3595 0.950 . S
H3590 C3596 0.949 . S
C3591 H3586 0.950 . S
C3591 C3593 1.327 . S
C3591 C3597 1.429 . S
C3592 C3584 1.574 . S
C3592 H3587 0.949 . S
C3592 C3598 1.368 . S
C3593 C3577 1.349 . S
C3593 H3585 0.950 . S
C3593 C3591 1.327 . S
C3594 C3582 1.349 . S
C3594 H3588 0.950 . S
C3594 C3595 1.327 . S
C3595 H3589 0.950 . S
C3595 C3594 1.327 . S
C3595 C3599 1.429 . S
C3596 C3579 1.574 . S
C3596 H3590 0.949 . S
C3596 C3600 1.368 . S
C3597 C3578 1.429 . S
C3597 C3591 1.429 . S
C3597 C3598 1.523 . S
C3598 C3579 1.368 . S
C3598 C3592 1.368 . S
C3598 C3597 1.523 . S
C3599 C3583 1.429 . S
C3599 C3595 1.429 . S
C3599 C3600 1.523 . S
C3600 C3584 1.368 . S
C3600 C3596 1.368 . S
C3600 C3599 1.523 . S
H3601 C3576 0.950 . S
H3602 C3578 0.950 . S
H3603 C3579 0.949 . S
H3604 C3581 0.950 . S
H3605 C3583 0.950 . S
C3606 C3607 1.349 . S
C3606 C3608 1.327 . S
C3606 H3631 0.950 . S
C3607 C3606 1.349 . S
C3607 C3623 1.349 . S
C3608 C3606 1.327 . S
C3608 C3627 1.429 . S
C3608 H3632 0.950 . S
C3609 C3626 1.574 . S
C3609 C3628 1.368 . S
C3609 H3633 0.949 . S
H3610 C3614 0.949 . S
C3611 C3612 1.349 . S
C3611 C3613 1.327 . S
C3611 H3634 0.950 . S
C3612 C3611 1.349 . S
C3612 C3624 1.349 . S
C3613 C3611 1.327 . S
C3613 C3629 1.429 . S
C3613 H3635 0.950 . S
C3614 H3610 0.949 . S
C3614 C3622 1.574 . S
C3614 C3630 1.368 . S
H3615 C3623 0.950 . S
H3616 C3621 0.950 . S
H3617 C3622 0.949 . S
H3618 C3624 0.950 . S
H3619 C3625 0.950 . S
H3620 C3626 0.949 . S
C3621 H3616 0.950 . S
C3621 C3623 1.327 . S
C3621 C3627 1.429 . S
C3622 C3614 1.574 . S
C3622 H3617 0.949 . S
C3622 C3628 1.368 . S
C3623 C3607 1.349 . S
C3623 H3615 0.950 . S
C3623 C3621 1.327 . S
C3624 C3612 1.349 . S
C3624 H3618 0.950 . S
C3624 C3625 1.327 . S
C3625 H3619 0.950 . S
C3625 C3624 1.327 . S
C3625 C3629 1.429 . S
C3626 C3609 1.574 . S
C3626 H3620 0.949 . S
C3626 C3630 1.368 . S
C3627 C3608 1.429 . S
C3627 C3621 1.429 . S
C3627 C3628 1.523 . S
C3628 C3609 1.368 . S
C3628 C3622 1.368 . S
C3628 C3627 1.523 . S
C3629 C3613 1.429 . S
C3629 C3625 1.429 . S
C3629 C3630 1.523 . S
C3630 C3614 1.368 . S
C3630 C3626 1.368 . S
C3630 C3629 1.523 . S
H3631 C3606 0.950 . S
H3632 C3608 0.950 . S
H3633 C3609 0.949 . S
H3634 C3611 0.950 . S
H3635 C3613 0.950 . S
C3636 C3637 1.349 . S
C3636 C3638 1.327 . S
C3636 H3661 1.004 . S
C3637 C3636 1.349 . S
C3637 C3653 1.349 . S
C3638 C3636 1.327 . S
C3638 C3657 1.429 . S
C3638 H3662 0.950 . S
C3639 C3656 1.574 . S
C3639 C3658 1.368 . S
C3639 H3663 0.949 . S
H3640 C3644 0.949 . S
C3641 C3642 1.349 . S
C3641 C3643 1.327 . S
C3641 H3664 0.950 . S
C3642 C3641 1.349 . S
C3642 C3654 1.349 . S
C3643 C3641 1.327 . S
C3643 C3659 1.429 . S
C3643 H3665 0.950 . S
C3644 H3640 0.949 . S
C3644 C3652 1.574 . S
C3644 C3660 1.368 . S
H3645 C3653 0.950 . S
H3646 C3651 0.950 . S
H3647 C3652 0.949 . S
H3648 C3654 0.950 . S
H3649 C3655 0.950 . S
H3650 C3656 0.949 . S
C3651 H3646 0.950 . S
C3651 C3653 1.327 . S
C3651 C3657 1.429 . S
C3652 C3644 1.574 . S
C3652 H3647 0.949 . S
C3652 C3658 1.368 . S
C3653 C3637 1.349 . S
C3653 H3645 0.950 . S
C3653 C3651 1.327 . S
C3654 C3642 1.349 . S
C3654 H3648 0.950 . S
C3654 C3655 1.327 . S
C3655 H3649 0.950 . S
C3655 C3654 1.327 . S
C3655 C3659 1.429 . S
C3656 C3639 1.574 . S
C3656 H3650 0.949 . S
C3656 C3660 1.368 . S
C3657 C3638 1.429 . S
C3657 C3651 1.429 . S
C3657 C3658 1.523 . S
C3658 C3639 1.368 . S
C3658 C3652 1.368 . S
C3658 C3657 1.523 . S
C3659 C3643 1.429 . S
C3659 C3655 1.429 . S
C3659 C3660 1.523 . S
C3660 C3644 1.368 . S
C3660 C3656 1.368 . S
C3660 C3659 1.523 . S
H3661 C3636 1.004 . S
H3662 C3638 0.950 . S
H3663 C3639 0.949 . S
H3664 C3641 0.950 . S
H3665 C3643 0.950 . S
C3666 C3667 1.349 . S
C3666 C3668 1.327 . S
C3666 H3691 0.950 . S
C3667 C3666 1.349 . S
C3667 C3683 1.349 1_554 S
C3668 C3666 1.327 . S
C3668 C3687 1.429 . S
C3668 H3692 0.950 . S
C3669 C3686 1.574 . S
C3669 C3688 1.368 1_556 S
C3669 H3693 0.949 . S
H3670 C3674 0.949 . S
C3671 C3672 1.349 . S
C3671 C3673 1.327 . S
C3671 H3694 0.950 1_554 S
C3672 C3671 1.349 . S
C3672 C3684 1.349 1_545 S
C3673 C3671 1.327 . S
C3673 C3689 1.429 1_545 S
C3673 H3695 0.950 1_554 S
C3674 H3670 0.949 . S
C3674 C3682 1.574 . S
C3674 C3690 1.368 . S
H3675 C3683 0.950 . S
H3676 C3681 0.950 . S
H3677 C3682 0.949 . S
H3678 C3684 0.950 . S
H3679 C3685 0.950 . S
H3680 C3686 0.949 . S
C3681 H3676 0.950 . S
C3681 C3683 1.327 . S
C3681 C3687 1.429 1_556 S
C3682 C3674 1.574 . S
C3682 H3677 0.949 . S
C3682 C3688 1.368 . S
C3683 C3667 1.349 1_556 S
C3683 H3675 0.950 . S
C3683 C3681 1.327 . S
C3684 C3672 1.349 1_565 S
C3684 H3678 0.950 . S
C3684 C3685 1.327 . S
C3685 H3679 0.950 . S
C3685 C3684 1.327 . S
C3685 C3689 1.429 . S
C3686 C3669 1.574 . S
C3686 H3680 0.949 . S
C3686 C3690 1.368 1_556 S
C3687 C3668 1.429 . S
C3687 C3681 1.429 1_554 S
C3687 C3688 1.523 . S
C3688 C3669 1.368 1_554 S
C3688 C3682 1.368 . S
C3688 C3687 1.523 . S
C3689 C3673 1.429 1_565 S
C3689 C3685 1.429 . S
C3689 C3690 1.523 . S
C3690 C3674 1.368 . S
C3690 C3686 1.368 1_554 S
C3690 C3689 1.523 . S
H3691 C3666 0.950 . S
H3692 C3668 0.950 . S
H3693 C3669 0.949 . S
H3694 C3671 0.950 1_556 S
H3695 C3673 0.950 1_556 S
C3696 C3697 1.349 . S
C3696 C3698 1.327 . S
C3696 H3721 0.950 . S
C3697 C3696 1.349 . S
C3697 C3713 1.349 . S
C3698 C3696 1.327 . S
C3698 C3717 1.429 . S
C3698 H3722 0.950 . S
C3699 C3716 1.574 . S
C3699 C3718 1.368 . S
C3699 H3723 0.949 . S
H3700 C3704 0.949 . S
C3701 C3702 1.349 . S
C3701 C3703 1.327 . S
C3701 H3724 0.950 . S
C3702 C3701 1.349 . S
C3702 C3714 1.349 . S
C3703 C3701 1.327 . S
C3703 C3719 1.429 . S
C3703 H3725 0.950 . S
C3704 H3700 0.949 . S
C3704 C3712 1.574 . S
C3704 C3720 1.368 . S
H3705 C3713 0.950 . S
H3706 C3711 0.950 . S
H3707 C3712 0.949 . S
H3708 C3714 0.950 . S
H3709 C3715 0.950 . S
H3710 C3716 0.949 . S
C3711 H3706 0.950 . S
C3711 C3713 1.327 . S
C3711 C3717 1.429 . S
C3712 C3704 1.574 . S
C3712 H3707 0.949 . S
C3712 C3718 1.368 . S
C3713 C3697 1.349 . S
C3713 H3705 0.950 . S
C3713 C3711 1.327 . S
C3714 C3702 1.349 . S
C3714 H3708 0.950 . S
C3714 C3715 1.327 . S
C3715 H3709 0.950 . S
C3715 C3714 1.327 . S
C3715 C3719 1.429 . S
C3716 C3699 1.574 . S
C3716 H3710 0.949 . S
C3716 C3720 1.368 . S
C3717 C3698 1.429 . S
C3717 C3711 1.429 . S
C3717 C3718 1.523 . S
C3718 C3699 1.368 . S
C3718 C3712 1.368 . S
C3718 C3717 1.523 . S
C3719 C3703 1.429 . S
C3719 C3715 1.429 . S
C3719 C3720 1.523 . S
C3720 C3704 1.368 . S
C3720 C3716 1.368 . S
C3720 C3719 1.523 . S
H3721 C3696 0.950 . S
H3722 C3698 0.950 . S
H3723 C3699 0.949 . S
H3724 C3701 0.950 . S
H3725 C3703 0.950 . S
C3726 C3727 1.349 . S
C3726 C3728 1.327 . S
C3726 H3751 0.950 . S
C3727 C3726 1.349 . S
C3727 C3743 1.349 1_554 S
C3728 C3726 1.327 . S
C3728 C3747 1.429 . S
C3728 H3752 0.950 . S
C3729 C3746 1.572 1_556 S
C3729 C3748 1.368 1_556 S
C3729 H3753 0.949 . S
H3730 C3734 0.949 . S
C3731 C3732 1.349 . S
C3731 C3733 1.327 . S
C3731 H3754 0.950 1_554 S
C3732 C3731 1.349 . S
C3732 C3744 1.349 . S
C3733 C3731 1.327 . S
C3733 C3749 1.429 . S
C3733 H3755 0.950 1_554 S
C3734 H3730 0.949 . S
C3734 C3742 1.574 . S
C3734 C3750 1.368 . S
H3735 C3743 0.950 . S
H3736 C3741 0.950 . S
H3737 C3742 0.949 . S
H3738 C3744 0.950 . S
H3739 C3745 0.950 . S
H3740 C3746 0.919 1_556 S
C3741 H3736 0.950 . S
C3741 C3743 1.327 . S
C3741 C3747 1.429 1_556 S
C3742 C3734 1.574 . S
C3742 H3737 0.949 . S
C3742 C3748 1.368 . S
C3743 C3727 1.349 1_556 S
C3743 H3735 0.950 . S
C3743 C3741 1.327 . S
C3744 C3732 1.349 . S
C3744 H3738 0.950 . S
C3744 C3745 1.327 . S
C3745 H3739 0.950 . S
C3745 C3744 1.327 . S
C3745 C3749 1.429 . S
C3746 C3729 1.572 1_554 S
C3746 H3740 0.919 1_554 S
C3746 C3750 1.405 . S
C3747 C3728 1.429 . S
C3747 C3741 1.429 1_554 S
C3747 C3748 1.523 . S
C3748 C3729 1.368 1_554 S
C3748 C3742 1.368 . S
C3748 C3747 1.523 . S
C3749 C3733 1.429 . S
C3749 C3745 1.429 . S
C3749 C3750 1.523 . S
C3750 C3734 1.368 . S
C3750 C3746 1.405 . S
C3750 C3749 1.523 . S
H3751 C3726 0.950 . S
H3752 C3728 0.950 . S
H3753 C3729 0.949 . S
H3754 C3731 0.950 1_556 S
H3755 C3733 0.950 1_556 S
C3756 C3757 1.349 . S
C3756 C3758 1.327 . S
C3756 H3781 0.950 . S
C3757 C3756 1.349 . S
C3757 C3773 1.349 . S
C3758 C3756 1.327 . S
C3758 C3777 1.429 . S
C3758 H3782 0.950 . S
C3759 C3776 1.574 . S
C3759 C3778 1.368 . S
C3759 H3783 0.949 . S
H3760 C3764 0.949 . S
C3761 C3762 1.349 . S
C3761 C3763 1.327 . S
C3761 H3784 0.950 . S
C3762 C3761 1.349 . S
C3762 C3774 1.349 . S
C3763 C3761 1.327 . S
C3763 C3779 1.429 . S
C3763 H3785 0.950 . S
C3764 H3760 0.949 . S
C3764 C3772 1.574 . S
C3764 C3780 1.368 . S
H3765 C3773 0.950 . S
H3766 C3771 0.950 . S
H3767 C3772 0.949 . S
H3768 C3774 0.950 . S
H3769 C3775 0.950 . S
H3770 C3776 0.949 . S
C3771 H3766 0.950 . S
C3771 C3773 1.327 . S
C3771 C3777 1.429 . S
C3772 C3764 1.574 . S
C3772 H3767 0.949 . S
C3772 C3778 1.368 . S
C3773 C3757 1.349 . S
C3773 H3765 0.950 . S
C3773 C3771 1.327 . S
C3774 C3762 1.349 . S
C3774 H3768 0.950 . S
C3774 C3775 1.327 . S
C3775 H3769 0.950 . S
C3775 C3774 1.327 . S
C3775 C3779 1.429 . S
C3776 C3759 1.574 . S
C3776 H3770 0.949 . S
C3776 C3780 1.368 . S
C3777 C3758 1.429 . S
C3777 C3771 1.429 . S
C3777 C3778 1.523 . S
C3778 C3759 1.368 . S
C3778 C3772 1.368 . S
C3778 C3777 1.523 . S
C3779 C3763 1.429 . S
C3779 C3775 1.429 . S
C3779 C3780 1.523 . S
C3780 C3764 1.368 . S
C3780 C3776 1.368 . S
C3780 C3779 1.523 . S
H3781 C3756 0.950 . S
H3782 C3758 0.950 . S
H3783 C3759 0.949 . S
H3784 C3761 0.950 . S
H3785 C3763 0.950 . S
C3786 C3787 1.349 . S
C3786 C3788 1.327 . S
C3786 H3811 0.950 . S
C3787 C3786 1.349 . S
C3787 C3803 1.349 . S
C3788 C3786 1.327 . S
C3788 C3807 1.429 . S
C3788 H3812 0.950 . S
C3789 C3806 1.574 . S
C3789 C3808 1.368 . S
C3789 H3813 0.949 . S
H3790 C3794 0.949 . S
C3791 C3792 1.349 . S
C3791 C3793 1.327 . S
C3791 H3814 0.950 . S
C3792 C3791 1.349 . S
C3792 C3804 1.349 . S
C3793 C3791 1.327 . S
C3793 C3809 1.429 . S
C3793 H3815 0.950 . S
C3794 H3790 0.949 . S
C3794 C3802 1.574 . S
C3794 C3810 1.368 . S
H3795 C3803 0.950 . S
H3796 C3801 0.950 . S
H3797 C3802 0.949 . S
H3798 C3804 0.950 . S
H3799 C3805 0.950 . S
H3800 C3806 0.949 . S
C3801 H3796 0.950 . S
C3801 C3803 1.327 . S
C3801 C3807 1.429 . S
C3802 C3794 1.574 . S
C3802 H3797 0.949 . S
C3802 C3808 1.368 . S
C3803 C3787 1.349 . S
C3803 H3795 0.950 . S
C3803 C3801 1.327 . S
C3804 C3792 1.349 . S
C3804 H3798 0.950 . S
C3804 C3805 1.327 . S
C3805 H3799 0.950 . S
C3805 C3804 1.327 . S
C3805 C3809 1.429 . S
C3806 C3789 1.574 . S
C3806 H3800 0.949 . S
C3806 C3810 1.368 . S
C3807 C3788 1.429 . S
C3807 C3801 1.429 . S
C3807 C3808 1.523 . S
C3808 C3789 1.368 . S
C3808 C3802 1.368 . S
C3808 C3807 1.523 . S
C3809 C3793 1.429 . S
C3809 C3805 1.429 . S
C3809 C3810 1.523 . S
C3810 C3794 1.368 . S
C3810 C3806 1.368 . S
C3810 C3809 1.523 . S
H3811 C3786 0.950 . S
H3812 C3788 0.950 . S
H3813 C3789 0.949 . S
H3814 C3791 0.950 . S
H3815 C3793 0.950 . S
C3816 C3817 1.349 . S
C3816 C3818 1.327 . S
C3816 H3841 0.950 . S
C3817 C3816 1.349 . S
C3817 C3833 1.349 . S
C3818 C3816 1.327 . S
C3818 C3837 1.429 . S
C3818 H3842 0.950 . S
C3819 C3836 1.574 . S
C3819 C3838 1.368 . S
C3819 H3843 0.949 . S
H3820 C3824 0.949 . S
C3821 C3822 1.349 . S
C3821 C3823 1.327 . S
C3821 H3844 0.950 . S
C3822 C3821 1.349 . S
C3822 C3834 1.349 . S
C3823 C3821 1.327 . S
C3823 C3839 1.429 . S
C3823 H3845 0.950 . S
C3824 H3820 0.949 . S
C3824 C3832 1.574 . S
C3824 C3840 1.368 . S
H3825 C3833 0.950 . S
H3826 C3831 0.950 . S
H3827 C3832 0.949 . S
H3828 C3834 0.950 . S
H3829 C3835 0.950 . S
H3830 C3836 0.949 . S
C3831 H3826 0.950 . S
C3831 C3833 1.327 . S
C3831 C3837 1.429 . S
C3832 C3824 1.574 . S
C3832 H3827 0.949 . S
C3832 C3838 1.368 . S
C3833 C3817 1.349 . S
C3833 H3825 0.950 . S
C3833 C3831 1.327 . S
C3834 C3822 1.349 . S
C3834 H3828 0.950 . S
C3834 C3835 1.327 . S
C3835 H3829 0.950 . S
C3835 C3834 1.327 . S
C3835 C3839 1.429 . S
C3836 C3819 1.574 . S
C3836 H3830 0.949 . S
C3836 C3840 1.368 . S
C3837 C3818 1.429 . S
C3837 C3831 1.429 . S
C3837 C3838 1.523 . S
C3838 C3819 1.368 . S
C3838 C3832 1.368 . S
C3838 C3837 1.523 . S
C3839 C3823 1.429 . S
C3839 C3835 1.429 . S
C3839 C3840 1.523 . S
C3840 C3824 1.368 . S
C3840 C3836 1.368 . S
C3840 C3839 1.523 . S
H3841 C3816 0.950 . S
H3842 C3818 0.950 . S
H3843 C3819 0.949 . S
H3844 C3821 0.950 . S
H3845 C3823 0.950 . S
C3846 C3847 1.349 . S
C3846 C3848 1.327 . S
C3846 H3871 0.950 . S
C3847 C3846 1.349 . S
C3847 C3863 1.349 . S
C3848 C3846 1.327 . S
C3848 C3867 1.429 . S
C3848 H3872 0.950 . S
C3849 C3866 1.574 . S
C3849 C3868 1.368 . S
C3849 H3873 0.949 . S
H3850 C3854 0.949 . S
C3851 C3852 1.349 . S
C3851 C3853 1.327 . S
C3851 H3874 0.950 . S
C3852 C3851 1.349 . S
C3852 C3864 1.349 . S
C3853 C3851 1.327 . S
C3853 C3869 1.429 . S
C3853 H3875 0.950 . S
C3854 H3850 0.949 . S
C3854 C3862 1.574 . S
C3854 C3870 1.368 . S
H3855 C3863 0.950 . S
H3856 C3861 0.950 . S
H3857 C3862 0.949 . S
H3858 C3864 0.950 . S
H3859 C3865 0.950 . S
H3860 C3866 0.949 . S
C3861 H3856 0.950 . S
C3861 C3863 1.327 . S
C3861 C3867 1.429 . S
C3862 C3854 1.574 . S
C3862 H3857 0.949 . S
C3862 C3868 1.368 . S
C3863 C3847 1.349 . S
C3863 H3855 0.950 . S
C3863 C3861 1.327 . S
C3864 C3852 1.349 . S
C3864 H3858 0.950 . S
C3864 C3865 1.327 . S
C3865 H3859 0.950 . S
C3865 C3864 1.327 . S
C3865 C3869 1.429 . S
C3866 C3849 1.574 . S
C3866 H3860 0.949 . S
C3866 C3870 1.368 . S
C3867 C3848 1.429 . S
C3867 C3861 1.429 . S
C3867 C3868 1.523 . S
C3868 C3849 1.368 . S
C3868 C3862 1.368 . S
C3868 C3867 1.523 . S
C3869 C3853 1.429 . S
C3869 C3865 1.429 . S
C3869 C3870 1.523 . S
C3870 C3854 1.368 . S
C3870 C3866 1.368 . S
C3870 C3869 1.523 . S
H3871 C3846 0.950 . S
H3872 C3848 0.950 . S
H3873 C3849 0.949 . S
H3874 C3851 0.950 . S
H3875 C3853 0.950 . S
C3876 C3877 1.349 . S
C3876 C3878 1.327 . S
C3876 H3901 0.950 . S
C3877 C3876 1.349 . S
C3877 C3893 1.349 . S
C3878 C3876 1.327 . S
C3878 C3897 1.429 . S
C3878 H3902 0.950 . S
C3879 C3896 1.574 . S
C3879 C3898 1.368 . S
C3879 H3903 0.949 . S
H3880 C3884 0.949 . S
C3881 C3882 1.349 . S
C3881 C3883 1.327 . S
C3881 H3904 0.950 . S
C3882 C3881 1.349 . S
C3882 C3894 1.349 . S
C3883 C3881 1.327 . S
C3883 C3899 1.429 . S
C3883 H3905 0.950 . S
C3884 H3880 0.949 . S
C3884 C3892 1.574 . S
C3884 C3900 1.368 . S
H3885 C3893 0.950 . S
H3886 C3891 0.950 . S
H3887 C3892 0.949 . S
H3888 C3894 0.950 . S
H3889 C3895 0.950 . S
H3890 C3896 0.949 . S
C3891 H3886 0.950 . S
C3891 C3893 1.327 . S
C3891 C3897 1.429 . S
C3892 C3884 1.574 . S
C3892 H3887 0.949 . S
C3892 C3898 1.368 . S
C3893 C3877 1.349 . S
C3893 H3885 0.950 . S
C3893 C3891 1.327 . S
C3894 C3882 1.349 . S
C3894 H3888 0.950 . S
C3894 C3895 1.327 . S
C3895 H3889 0.950 . S
C3895 C3894 1.327 . S
C3895 C3899 1.429 . S
C3896 C3879 1.574 . S
C3896 H3890 0.949 . S
C3896 C3900 1.368 . S
C3897 C3878 1.429 . S
C3897 C3891 1.429 . S
C3897 C3898 1.523 . S
C3898 C3879 1.368 . S
C3898 C3892 1.368 . S
C3898 C3897 1.523 . S
C3899 C3883 1.429 . S
C3899 C3895 1.429 . S
C3899 C3900 1.523 . S
C3900 C3884 1.368 . S
C3900 C3896 1.368 . S
C3900 C3899 1.523 . S
H3901 C3876 0.950 . S
H3902 C3878 0.950 . S
H3903 C3879 0.949 . S
H3904 C3881 0.950 . S
H3905 C3883 0.950 . S
C3906 C3907 1.349 . S
C3906 C3908 1.327 . S
C3906 H3931 0.950 . S
C3907 C3906 1.349 . S
C3907 C3923 1.349 . S
C3908 C3906 1.327 . S
C3908 C3927 1.429 . S
C3908 H3932 0.950 . S
C3909 C3926 1.574 . S
C3909 C3928 1.368 . S
C3909 H3933 0.949 . S
H3910 C3914 0.949 . S
C3911 C3912 1.349 . S
C3911 C3913 1.327 . S
C3911 H3934 0.950 . S
C3912 C3911 1.349 . S
C3912 C3924 1.349 . S
C3913 C3911 1.327 . S
C3913 C3929 1.429 . S
C3913 H3935 0.950 . S
C3914 H3910 0.949 . S
C3914 C3922 1.574 . S
C3914 C3930 1.368 . S
H3915 C3923 0.950 . S
H3916 C3921 0.950 . S
H3917 C3922 0.949 . S
H3918 C3924 0.950 . S
H3919 C3925 0.950 . S
H3920 C3926 0.949 . S
C3921 H3916 0.950 . S
C3921 C3923 1.327 . S
C3921 C3927 1.429 . S
C3922 C3914 1.574 . S
C3922 H3917 0.949 . S
C3922 C3928 1.368 . S
C3923 C3907 1.349 . S
C3923 H3915 0.950 . S
C3923 C3921 1.327 . S
C3924 C3912 1.349 . S
C3924 H3918 0.950 . S
C3924 C3925 1.327 . S
C3925 H3919 0.950 . S
C3925 C3924 1.327 . S
C3925 C3929 1.429 . S
C3926 C3909 1.574 . S
C3926 H3920 0.949 . S
C3926 C3930 1.368 . S
C3927 C3908 1.429 . S
C3927 C3921 1.429 . S
C3927 C3928 1.523 . S
C3928 C3909 1.368 . S
C3928 C3922 1.368 . S
C3928 C3927 1.523 . S
C3929 C3913 1.429 . S
C3929 C3925 1.429 . S
C3929 C3930 1.523 . S
C3930 C3914 1.368 . S
C3930 C3926 1.368 . S
C3930 C3929 1.523 . S
H3931 C3906 0.950 . S
H3932 C3908 0.950 . S
H3933 C3909 0.949 . S
H3934 C3911 0.950 . S
H3935 C3913 0.950 . S
C3936 C3937 1.349 . S
C3936 C3938 1.327 . S
C3936 H3961 0.950 . S
C3937 C3936 1.349 . S
C3937 C3953 1.349 . S
C3938 C3936 1.327 . S
C3938 C3957 1.429 . S
C3938 H3962 0.950 . S
C3939 C3956 1.574 . S
C3939 C3958 1.368 . S
C3939 H3963 0.949 . S
H3940 C3944 0.949 . S
C3941 C3942 1.349 . S
C3941 C3943 1.327 . S
C3941 H3964 0.950 . S
C3942 C3941 1.349 . S
C3942 C3954 1.349 . S
C3943 C3941 1.327 . S
C3943 C3959 1.429 . S
C3943 H3965 0.950 . S
C3944 H3940 0.949 . S
C3944 C3952 1.574 . S
C3944 C3960 1.368 . S
H3945 C3953 0.950 . S
H3946 C3951 0.950 . S
H3947 C3952 0.949 . S
H3948 C3954 0.950 . S
H3949 C3955 0.950 . S
H3950 C3956 0.949 . S
C3951 H3946 0.950 . S
C3951 C3953 1.327 . S
C3951 C3957 1.429 . S
C3952 C3944 1.574 . S
C3952 H3947 0.949 . S
C3952 C3958 1.368 . S
C3953 C3937 1.349 . S
C3953 H3945 0.950 . S
C3953 C3951 1.327 . S
C3954 C3942 1.349 . S
C3954 H3948 0.950 . S
C3954 C3955 1.327 . S
C3955 H3949 0.950 . S
C3955 C3954 1.327 . S
C3955 C3959 1.429 . S
C3956 C3939 1.574 . S
C3956 H3950 0.949 . S
C3956 C3960 1.368 . S
C3957 C3938 1.429 . S
C3957 C3951 1.429 . S
C3957 C3958 1.523 . S
C3958 C3939 1.368 . S
C3958 C3952 1.368 . S
C3958 C3957 1.523 . S
C3959 C3943 1.429 . S
C3959 C3955 1.429 . S
C3959 C3960 1.523 . S
C3960 C3944 1.368 . S
C3960 C3956 1.368 . S
C3960 C3959 1.523 . S
H3961 C3936 0.950 . S
H3962 C3938 0.950 . S
H3963 C3939 0.949 . S
H3964 C3941 0.950 . S
H3965 C3943 0.950 . S
C3966 C3967 1.349 . S
C3966 C3968 1.327 . S
C3966 H3991 0.950 . S
C3967 C3966 1.349 . S
C3967 C3983 1.349 . S
C3968 C3966 1.327 . S
C3968 C3987 1.429 . S
C3968 H3992 0.950 . S
C3969 C3986 1.574 . S
C3969 C3988 1.368 . S
C3969 H3993 0.949 . S
H3970 C3974 0.949 . S
C3971 C3972 1.349 . S
C3971 C3973 1.327 . S
C3971 H3994 0.950 . S
C3972 C3971 1.349 . S
C3972 C3984 1.349 . S
C3973 C3971 1.327 . S
C3973 C3989 1.429 . S
C3973 H3995 0.950 . S
C3974 H3970 0.949 . S
C3974 C3982 1.574 . S
C3974 C3990 1.368 . S
H3975 C3983 0.950 . S
H3976 C3981 0.950 . S
H3977 C3982 0.949 . S
H3978 C3984 0.950 . S
H3979 C3985 0.950 . S
H3980 C3986 0.949 . S
C3981 H3976 0.950 . S
C3981 C3983 1.327 . S
C3981 C3987 1.429 . S
C3982 C3974 1.574 . S
C3982 H3977 0.949 . S
C3982 C3988 1.368 . S
C3983 C3967 1.349 . S
C3983 H3975 0.950 . S
C3983 C3981 1.327 . S
C3984 C3972 1.349 . S
C3984 H3978 0.950 . S
C3984 C3985 1.327 . S
C3985 H3979 0.950 . S
C3985 C3984 1.327 . S
C3985 C3989 1.429 . S
C3986 C3969 1.574 . S
C3986 H3980 0.949 . S
C3986 C3990 1.368 . S
C3987 C3968 1.429 . S
C3987 C3981 1.429 . S
C3987 C3988 1.523 . S
C3988 C3969 1.368 . S
C3988 C3982 1.368 . S
C3988 C3987 1.523 . S
C3989 C3973 1.429 . S
C3989 C3985 1.429 . S
C3989 C3990 1.523 . S
C3990 C3974 1.368 . S
C3990 C3986 1.368 . S
C3990 C3989 1.523 . S
H3991 C3966 0.950 . S
H3992 C3968 0.950 . S
H3993 C3969 0.949 . S
H3994 C3971 0.950 . S
H3995 C3973 0.950 . S
C3996 C3997 1.349 . S
C3996 C3998 1.327 . S
C3996 H4021 0.950 . S
C3997 C3996 1.349 . S
C3997 C4013 1.349 . S
C3998 C3996 1.327 . S
C3998 C4017 1.429 . S
C3998 H4022 0.950 . S
C3999 C4016 1.574 . S
C3999 C4018 1.368 . S
C3999 H4023 0.949 . S
H4000 C4004 0.949 . S
C4001 C4002 1.349 . S
C4001 C4003 1.327 . S
C4001 H4024 0.950 . S
C4002 C4001 1.349 . S
C4002 C4014 1.349 . S
C4003 C4001 1.327 . S
C4003 C4019 1.429 . S
C4003 H4025 0.950 . S
C4004 H4000 0.949 . S
C4004 C4012 1.574 . S
C4004 C4020 1.368 . S
H4005 C4013 0.950 . S
H4006 C4011 0.950 . S
H4007 C4012 0.949 . S
H4008 C4014 0.950 . S
H4009 C4015 0.950 . S
H4010 C4016 0.949 . S
C4011 H4006 0.950 . S
C4011 C4013 1.327 . S
C4011 C4017 1.429 . S
C4012 C4004 1.574 . S
C4012 H4007 0.949 . S
C4012 C4018 1.368 . S
C4013 C3997 1.349 . S
C4013 H4005 0.950 . S
C4013 C4011 1.327 . S
C4014 C4002 1.349 . S
C4014 H4008 0.950 . S
C4014 C4015 1.327 . S
C4015 H4009 0.950 . S
C4015 C4014 1.327 . S
C4015 C4019 1.429 . S
C4016 C3999 1.574 . S
C4016 H4010 0.949 . S
C4016 C4020 1.368 . S
C4017 C3998 1.429 . S
C4017 C4011 1.429 . S
C4017 C4018 1.523 . S
C4018 C3999 1.368 . S
C4018 C4012 1.368 . S
C4018 C4017 1.523 . S
C4019 C4003 1.429 . S
C4019 C4015 1.429 . S
C4019 C4020 1.523 . S
C4020 C4004 1.368 . S
C4020 C4016 1.368 . S
C4020 C4019 1.523 . S
H4021 C3996 0.950 . S
H4022 C3998 0.950 . S
H4023 C3999 0.949 . S
H4024 C4001 0.950 . S
H4025 C4003 0.950 . S
C4026 C4027 1.349 . S
C4026 C4028 1.327 . S
C4026 H4051 0.950 . S
C4027 C4026 1.349 . S
C4027 C4043 1.349 . S
C4028 C4026 1.327 . S
C4028 C4047 1.429 . S
C4028 H4052 0.950 . S
C4029 C4046 1.574 . S
C4029 C4048 1.368 . S
C4029 H4053 0.949 . S
H4030 C4034 0.949 . S
C4031 C4032 1.349 . S
C4031 C4033 1.327 . S
C4031 H4054 0.950 . S
C4032 C4031 1.349 . S
C4032 C4044 1.349 . S
C4033 C4031 1.327 . S
C4033 C4049 1.429 . S
C4033 H4055 0.950 . S
C4034 H4030 0.949 . S
C4034 C4042 1.574 . S
C4034 C4050 1.368 . S
H4035 C4043 0.950 . S
H4036 C4041 0.950 . S
H4037 C4042 0.949 . S
H4038 C4044 0.950 . S
H4039 C4045 0.950 . S
H4040 C4046 0.949 . S
C4041 H4036 0.950 . S
C4041 C4043 1.327 . S
C4041 C4047 1.429 . S
C4042 C4034 1.574 . S
C4042 H4037 0.949 . S
C4042 C4048 1.368 . S
C4043 C4027 1.349 . S
C4043 H4035 0.950 . S
C4043 C4041 1.327 . S
C4044 C4032 1.349 . S
C4044 H4038 0.950 . S
C4044 C4045 1.327 . S
C4045 H4039 0.950 . S
C4045 C4044 1.327 . S
C4045 C4049 1.429 . S
C4046 C4029 1.574 . S
C4046 H4040 0.949 . S
C4046 C4050 1.368 . S
C4047 C4028 1.429 . S
C4047 C4041 1.429 . S
C4047 C4048 1.523 . S
C4048 C4029 1.368 . S
C4048 C4042 1.368 . S
C4048 C4047 1.523 . S
C4049 C4033 1.429 . S
C4049 C4045 1.429 . S
C4049 C4050 1.523 . S
C4050 C4034 1.368 . S
C4050 C4046 1.368 . S
C4050 C4049 1.523 . S
H4051 C4026 0.950 . S
H4052 C4028 0.950 . S
H4053 C4029 0.949 . S
H4054 C4031 0.950 . S
H4055 C4033 0.950 . S
C4056 C4057 1.349 . S
C4056 C4058 1.327 . S
C4056 H4081 0.950 . S
C4057 C4056 1.349 . S
C4057 C4073 1.349 . S
C4058 C4056 1.327 . S
C4058 C4077 1.429 . S
C4058 H4082 0.950 . S
C4059 C4076 1.574 . S
C4059 C4078 1.368 . S
C4059 H4083 0.949 . S
H4060 C4064 0.949 . S
C4061 C4062 1.349 . S
C4061 C4063 1.327 . S
C4061 H4084 0.950 . S
C4062 C4061 1.349 . S
C4062 C4074 1.349 . S
C4063 C4061 1.327 . S
C4063 C4079 1.429 . S
C4063 H4085 0.950 . S
C4064 H4060 0.949 . S
C4064 C4072 1.574 . S
C4064 C4080 1.368 . S
H4065 C4073 0.950 . S
H4066 C4071 0.950 . S
H4067 C4072 0.949 . S
H4068 C4074 0.950 . S
H4069 C4075 0.950 . S
H4070 C4076 0.949 . S
C4071 H4066 0.950 . S
C4071 C4073 1.327 . S
C4071 C4077 1.429 . S
C4072 C4064 1.574 . S
C4072 H4067 0.949 . S
C4072 C4078 1.368 . S
C4073 C4057 1.349 . S
C4073 H4065 0.950 . S
C4073 C4071 1.327 . S
C4074 C4062 1.349 . S
C4074 H4068 0.950 . S
C4074 C4075 1.327 . S
C4075 H4069 0.950 . S
C4075 C4074 1.327 . S
C4075 C4079 1.429 . S
C4076 C4059 1.574 . S
C4076 H4070 0.949 . S
C4076 C4080 1.368 . S
C4077 C4058 1.429 . S
C4077 C4071 1.429 . S
C4077 C4078 1.523 . S
C4078 C4059 1.368 . S
C4078 C4072 1.368 . S
C4078 C4077 1.523 . S
C4079 C4063 1.429 . S
C4079 C4075 1.429 . S
C4079 C4080 1.523 . S
C4080 C4064 1.368 . S
C4080 C4076 1.368 . S
C4080 C4079 1.523 . S
H4081 C4056 0.950 . S
H4082 C4058 0.950 . S
H4083 C4059 0.949 . S
H4084 C4061 0.950 . S
H4085 C4063 0.950 . S
C4086 C4087 1.349 . S
C4086 C4088 1.327 . S
C4086 H4111 0.950 . S
C4087 C4086 1.349 . S
C4087 C4103 1.349 . S
C4088 C4086 1.327 . S
C4088 C4107 1.429 . S
C4088 H4112 0.950 . S
C4089 C4106 1.574 . S
C4089 C4108 1.368 . S
C4089 H4113 0.949 . S
H4090 C4094 0.949 . S
C4091 C4092 1.349 . S
C4091 C4093 1.327 . S
C4091 H4114 0.950 . S
C4092 C4091 1.349 . S
C4092 C4104 1.349 . S
C4093 C4091 1.327 . S
C4093 C4109 1.429 . S
C4093 H4115 0.950 . S
C4094 H4090 0.949 . S
C4094 C4102 1.574 . S
C4094 C4110 1.368 . S
H4095 C4103 0.950 . S
H4096 C4101 0.950 . S
H4097 C4102 0.949 . S
H4098 C4104 0.950 . S
H4099 C4105 0.950 . S
H4100 C4106 0.949 . S
C4101 H4096 0.950 . S
C4101 C4103 1.327 . S
C4101 C4107 1.429 . S
C4102 C4094 1.574 . S
C4102 H4097 0.949 . S
C4102 C4108 1.368 . S
C4103 C4087 1.349 . S
C4103 H4095 0.950 . S
C4103 C4101 1.327 . S
C4104 C4092 1.349 . S
C4104 H4098 0.950 . S
C4104 C4105 1.327 . S
C4105 H4099 0.950 . S
C4105 C4104 1.327 . S
C4105 C4109 1.429 . S
C4106 C4089 1.574 . S
C4106 H4100 0.949 . S
C4106 C4110 1.368 . S
C4107 C4088 1.429 . S
C4107 C4101 1.429 . S
C4107 C4108 1.523 . S
C4108 C4089 1.368 . S
C4108 C4102 1.368 . S
C4108 C4107 1.523 . S
C4109 C4093 1.429 . S
C4109 C4105 1.429 . S
C4109 C4110 1.523 . S
C4110 C4094 1.368 . S
C4110 C4106 1.368 . S
C4110 C4109 1.523 . S
H4111 C4086 0.950 . S
H4112 C4088 0.950 . S
H4113 C4089 0.949 . S
H4114 C4091 0.950 . S
H4115 C4093 0.950 . S
C4116 C4117 1.349 . S
C4116 C4118 1.327 . S
C4116 H4141 0.950 . S
C4117 C4116 1.349 . S
C4117 C4133 1.349 . S
C4118 C4116 1.327 . S
C4118 C4137 1.429 . S
C4118 H4142 0.950 . S
C4119 C4136 1.574 . S
C4119 C4138 1.368 . S
C4119 H4143 0.949 . S
H4120 C4124 0.949 . S
C4121 C4122 1.316 1_655 S
C4121 C4123 1.327 . S
C4121 H4144 0.950 . S
C4122 C4121 1.316 1_455 S
C4122 C4134 1.351 . S
C4123 C4121 1.327 . S
C4123 C4139 1.429 . S
C4123 H4145 0.950 . S
C4124 H4120 0.949 . S
C4124 C4132 1.574 . S
C4124 C4140 1.368 . S
H4125 C4133 0.950 . S
H4126 C4131 0.950 . S
H4127 C4132 0.949 . S
H4128 C4134 0.977 . S
H4129 C4135 0.950 . S
H4130 C4136 0.949 . S
C4131 H4126 0.950 . S
C4131 C4133 1.327 . S
C4131 C4137 1.429 . S
C4132 C4124 1.574 . S
C4132 H4127 0.949 . S
C4132 C4138 1.368 . S
C4133 C4117 1.349 . S
C4133 H4125 0.950 . S
C4133 C4131 1.327 . S
C4134 C4122 1.351 . S
C4134 H4128 0.977 . S
C4134 C4135 1.308 1_455 S
C4135 H4129 0.950 . S
C4135 C4134 1.308 1_655 S
C4135 C4139 1.429 . S
C4136 C4119 1.574 . S
C4136 H4130 0.949 . S
C4136 C4140 1.368 . S
C4137 C4118 1.429 . S
C4137 C4131 1.429 . S
C4137 C4138 1.523 . S
C4138 C4119 1.368 . S
C4138 C4132 1.368 . S
C4138 C4137 1.523 . S
C4139 C4123 1.429 . S
C4139 C4135 1.429 . S
C4139 C4140 1.523 . S
C4140 C4124 1.368 . S
C4140 C4136 1.368 . S
C4140 C4139 1.523 . S
H4141 C4116 0.950 . S
H4142 C4118 0.950 . S
H4143 C4119 0.949 . S
H4144 C4121 0.950 . S
H4145 C4123 0.950 . S
C4146 C4147 1.349 . S
C4146 C4148 1.327 . S
C4146 H4171 0.950 . S
C4147 C4146 1.349 . S
C4147 C4163 1.349 . S
C4148 C4146 1.327 . S
C4148 C4167 1.429 . S
C4148 H4172 0.950 . S
C4149 C4166 1.574 . S
C4149 C4168 1.368 . S
C4149 H4173 0.949 . S
H4150 C4154 0.949 . S
C4151 C4152 1.349 . S
C4151 C4153 1.327 . S
C4151 H4174 0.950 . S
C4152 C4151 1.349 . S
C4152 C4164 1.349 . S
C4153 C4151 1.327 . S
C4153 C4169 1.429 . S
C4153 H4175 0.950 . S
C4154 H4150 0.949 . S
C4154 C4162 1.574 . S
C4154 C4170 1.368 . S
H4155 C4163 0.950 . S
H4156 C4161 0.950 . S
H4157 C4162 0.949 . S
H4158 C4164 0.950 . S
H4159 C4165 0.950 . S
H4160 C4166 0.949 . S
C4161 H4156 0.950 . S
C4161 C4163 1.327 . S
C4161 C4167 1.429 . S
C4162 C4154 1.574 . S
C4162 H4157 0.949 . S
C4162 C4168 1.368 . S
C4163 C4147 1.349 . S
C4163 H4155 0.950 . S
C4163 C4161 1.327 . S
C4164 C4152 1.349 . S
C4164 H4158 0.950 . S
C4164 C4165 1.327 . S
C4165 H4159 0.950 . S
C4165 C4164 1.327 . S
C4165 C4169 1.429 . S
C4166 C4149 1.574 . S
C4166 H4160 0.949 . S
C4166 C4170 1.368 . S
C4167 C4148 1.429 . S
C4167 C4161 1.429 . S
C4167 C4168 1.523 . S
C4168 C4149 1.368 . S
C4168 C4162 1.368 . S
C4168 C4167 1.523 . S
C4169 C4153 1.429 . S
C4169 C4165 1.429 . S
C4169 C4170 1.523 . S
C4170 C4154 1.368 . S
C4170 C4166 1.368 . S
C4170 C4169 1.523 . S
H4171 C4146 0.950 . S
H4172 C4148 0.950 . S
H4173 C4149 0.949 . S
H4174 C4151 0.950 . S
H4175 C4153 0.950 . S
C4176 C4177 1.349 . S
C4176 C4178 1.327 . S
C4176 H4201 0.950 . S
C4177 C4176 1.349 . S
C4177 C4193 1.349 . S
C4178 C4176 1.327 . S
C4178 C4197 1.429 . S
C4178 H4202 0.950 . S
C4179 C4196 1.574 . S
C4179 C4198 1.368 . S
C4179 H4203 0.949 . S
H4180 C4184 0.949 . S
C4181 C4182 1.349 . S
C4181 C4183 1.327 . S
C4181 H4204 0.950 . S
C4182 C4181 1.349 . S
C4182 C4194 1.349 . S
C4183 C4181 1.327 . S
C4183 C4199 1.429 . S
C4183 H4205 0.950 . S
C4184 H4180 0.949 . S
C4184 C4192 1.574 . S
C4184 C4200 1.368 . S
H4185 C4193 0.950 . S
H4186 C4191 0.950 . S
H4187 C4192 0.949 . S
H4188 C4194 0.950 . S
H4189 C4195 0.950 . S
H4190 C4196 0.949 . S
C4191 H4186 0.950 . S
C4191 C4193 1.327 . S
C4191 C4197 1.429 . S
C4192 C4184 1.574 . S
C4192 H4187 0.949 . S
C4192 C4198 1.368 . S
C4193 C4177 1.349 . S
C4193 H4185 0.950 . S
C4193 C4191 1.327 . S
C4194 C4182 1.349 . S
C4194 H4188 0.950 . S
C4194 C4195 1.327 . S
C4195 H4189 0.950 . S
C4195 C4194 1.327 . S
C4195 C4199 1.429 . S
C4196 C4179 1.574 . S
C4196 H4190 0.949 . S
C4196 C4200 1.368 . S
C4197 C4178 1.429 . S
C4197 C4191 1.429 . S
C4197 C4198 1.523 . S
C4198 C4179 1.368 . S
C4198 C4192 1.368 . S
C4198 C4197 1.523 . S
C4199 C4183 1.429 . S
C4199 C4195 1.429 . S
C4199 C4200 1.523 . S
C4200 C4184 1.368 . S
C4200 C4196 1.368 . S
C4200 C4199 1.523 . S
H4201 C4176 0.950 . S
H4202 C4178 0.950 . S
H4203 C4179 0.949 . S
H4204 C4181 0.950 . S
H4205 C4183 0.950 . S
C4206 C4207 1.349 . S
C4206 C4208 1.327 . S
C4206 H4231 0.950 . S
C4207 C4206 1.349 . S
C4207 C4223 1.349 . S
C4208 C4206 1.327 . S
C4208 C4227 1.429 . S
C4208 H4232 0.950 . S
C4209 C4226 1.574 . S
C4209 C4228 1.368 . S
C4209 H4233 0.949 . S
H4210 C4214 0.949 . S
C4211 C4212 1.349 . S
C4211 C4213 1.327 . S
C4211 H4234 0.950 . S
C4212 C4211 1.349 . S
C4212 C4224 1.349 . S
C4213 C4211 1.327 . S
C4213 C4229 1.429 . S
C4213 H4235 0.950 . S
C4214 H4210 0.949 . S
C4214 C4222 1.574 . S
C4214 C4230 1.368 . S
H4215 C4223 0.950 . S
H4216 C4221 0.950 . S
H4217 C4222 0.949 . S
H4218 C4224 0.950 . S
H4219 C4225 0.950 . S
H4220 C4226 0.949 . S
C4221 H4216 0.950 . S
C4221 C4223 1.327 . S
C4221 C4227 1.429 . S
C4222 C4214 1.574 . S
C4222 H4217 0.949 . S
C4222 C4228 1.368 . S
C4223 C4207 1.349 . S
C4223 H4215 0.950 . S
C4223 C4221 1.327 . S
C4224 C4212 1.349 . S
C4224 H4218 0.950 . S
C4224 C4225 1.327 . S
C4225 H4219 0.950 . S
C4225 C4224 1.327 . S
C4225 C4229 1.429 . S
C4226 C4209 1.574 . S
C4226 H4220 0.949 . S
C4226 C4230 1.368 . S
C4227 C4208 1.429 . S
C4227 C4221 1.429 . S
C4227 C4228 1.523 . S
C4228 C4209 1.368 . S
C4228 C4222 1.368 . S
C4228 C4227 1.523 . S
C4229 C4213 1.429 . S
C4229 C4225 1.429 . S
C4229 C4230 1.523 . S
C4230 C4214 1.368 . S
C4230 C4226 1.368 . S
C4230 C4229 1.523 . S
H4231 C4206 0.950 . S
H4232 C4208 0.950 . S
H4233 C4209 0.949 . S
H4234 C4211 0.950 . S
H4235 C4213 0.950 . S
C4236 C4237 1.349 . S
C4236 C4238 1.327 . S
C4236 H4261 0.950 . S
C4237 C4236 1.349 . S
C4237 C4253 1.349 . S
C4238 C4236 1.327 . S
C4238 C4257 1.429 . S
C4238 H4262 0.950 . S
C4239 C4256 1.574 . S
C4239 C4258 1.368 . S
C4239 H4263 0.949 . S
H4240 C4244 0.949 . S
C4241 C4242 1.349 . S
C4241 C4243 1.327 . S
C4241 H4264 0.950 . S
C4242 C4241 1.349 . S
C4242 C4254 1.349 . S
C4243 C4241 1.327 . S
C4243 C4259 1.429 . S
C4243 H4265 0.950 . S
C4244 H4240 0.949 . S
C4244 C4252 1.574 . S
C4244 C4260 1.368 . S
H4245 C4253 0.950 . S
H4246 C4251 0.950 . S
H4247 C4252 0.949 . S
H4248 C4254 0.950 . S
H4249 C4255 0.950 . S
H4250 C4256 0.949 . S
C4251 H4246 0.950 . S
C4251 C4253 1.327 . S
C4251 C4257 1.429 . S
C4252 C4244 1.574 . S
C4252 H4247 0.949 . S
C4252 C4258 1.368 . S
C4253 C4237 1.349 . S
C4253 H4245 0.950 . S
C4253 C4251 1.327 . S
C4254 C4242 1.349 . S
C4254 H4248 0.950 . S
C4254 C4255 1.327 . S
C4255 H4249 0.950 . S
C4255 C4254 1.327 . S
C4255 C4259 1.429 . S
C4256 C4239 1.574 . S
C4256 H4250 0.949 . S
C4256 C4260 1.368 . S
C4257 C4238 1.429 . S
C4257 C4251 1.429 . S
C4257 C4258 1.523 . S
C4258 C4239 1.368 . S
C4258 C4252 1.368 . S
C4258 C4257 1.523 . S
C4259 C4243 1.429 . S
C4259 C4255 1.429 . S
C4259 C4260 1.523 . S
C4260 C4244 1.368 . S
C4260 C4256 1.368 . S
C4260 C4259 1.523 . S
H4261 C4236 0.950 . S
H4262 C4238 0.950 . S
H4263 C4239 0.949 . S
H4264 C4241 0.950 . S
H4265 C4243 0.950 . S
C4266 C4267 1.349 . S
C4266 C4268 1.327 . S
C4266 H4291 0.950 . S
C4267 C4266 1.349 . S
C4267 C4283 1.349 . S
C4268 C4266 1.327 . S
C4268 C4287 1.429 . S
C4268 H4292 0.950 . S
C4269 C4286 1.574 . S
C4269 C4288 1.368 . S
C4269 H4293 0.949 . S
H4270 C4274 0.949 . S
C4271 C4272 1.349 . S
C4271 C4273 1.327 . S
C4271 H4294 0.950 . S
C4272 C4271 1.349 . S
C4272 C4284 1.349 . S
C4273 C4271 1.327 . S
C4273 C4289 1.429 . S
C4273 H4295 0.950 . S
C4274 H4270 0.949 . S
C4274 C4282 1.574 . S
C4274 C4290 1.368 . S
H4275 C4283 0.950 . S
H4276 C4281 0.950 . S
H4277 C4282 0.949 . S
H4278 C4284 0.950 . S
H4279 C4285 0.950 . S
H4280 C4286 0.949 . S
C4281 H4276 0.950 . S
C4281 C4283 1.327 . S
C4281 C4287 1.429 . S
C4282 C4274 1.574 . S
C4282 H4277 0.949 . S
C4282 C4288 1.368 . S
C4283 C4267 1.349 . S
C4283 H4275 0.950 . S
C4283 C4281 1.327 . S
C4284 C4272 1.349 . S
C4284 H4278 0.950 . S
C4284 C4285 1.327 . S
C4285 H4279 0.950 . S
C4285 C4284 1.327 . S
C4285 C4289 1.429 . S
C4286 C4269 1.574 . S
C4286 H4280 0.949 . S
C4286 C4290 1.368 . S
C4287 C4268 1.429 . S
C4287 C4281 1.429 . S
C4287 C4288 1.523 . S
C4288 C4269 1.368 . S
C4288 C4282 1.368 . S
C4288 C4287 1.523 . S
C4289 C4273 1.429 . S
C4289 C4285 1.429 . S
C4289 C4290 1.523 . S
C4290 C4274 1.368 . S
C4290 C4286 1.368 . S
C4290 C4289 1.523 . S
H4291 C4266 0.950 . S
H4292 C4268 0.950 . S
H4293 C4269 0.949 . S
H4294 C4271 0.950 . S
H4295 C4273 0.950 . S
C4296 C4297 1.349 . S
C4296 C4298 1.327 . S
C4296 H4321 0.950 . S
C4297 C4296 1.349 . S
C4297 C4313 1.349 . S
C4298 C4296 1.327 . S
C4298 C4317 1.429 . S
C4298 H4322 0.950 . S
C4299 C4316 1.574 . S
C4299 C4318 1.368 . S
C4299 H4323 0.949 . S
H4300 C4304 0.949 . S
C4301 C4302 1.349 . S
C4301 C4303 1.327 . S
C4301 H4324 0.950 . S
C4302 C4301 1.349 . S
C4302 C4314 1.349 . S
C4303 C4301 1.327 . S
C4303 C4319 1.429 . S
C4303 H4325 0.950 . S
C4304 H4300 0.949 . S
C4304 C4312 1.574 . S
C4304 C4320 1.368 . S
H4305 C4313 0.950 . S
H4306 C4311 0.950 . S
H4307 C4312 0.949 . S
H4308 C4314 0.950 . S
H4309 C4315 0.950 . S
H4310 C4316 0.949 . S
C4311 H4306 0.950 . S
C4311 C4313 1.327 . S
C4311 C4317 1.429 . S
C4312 C4304 1.574 . S
C4312 H4307 0.949 . S
C4312 C4318 1.368 . S
C4313 C4297 1.349 . S
C4313 H4305 0.950 . S
C4313 C4311 1.327 . S
C4314 C4302 1.349 . S
C4314 H4308 0.950 . S
C4314 C4315 1.327 . S
C4315 H4309 0.950 . S
C4315 C4314 1.327 . S
C4315 C4319 1.429 . S
C4316 C4299 1.574 . S
C4316 H4310 0.949 . S
C4316 C4320 1.368 . S
C4317 C4298 1.429 . S
C4317 C4311 1.429 . S
C4317 C4318 1.523 . S
C4318 C4299 1.368 . S
C4318 C4312 1.368 . S
C4318 C4317 1.523 . S
C4319 C4303 1.429 . S
C4319 C4315 1.429 . S
C4319 C4320 1.523 . S
C4320 C4304 1.368 . S
C4320 C4316 1.368 . S
C4320 C4319 1.523 . S
H4321 C4296 0.950 . S
H4322 C4298 0.950 . S
H4323 C4299 0.949 . S
H4324 C4301 0.950 . S
H4325 C4303 0.950 . S
C4326 C4327 1.349 . S
C4326 C4328 1.327 . S
C4326 H4351 0.950 . S
C4327 C4326 1.349 . S
C4327 C4343 1.349 . S
C4328 C4326 1.327 . S
C4328 C4347 1.429 . S
C4328 H4352 0.950 . S
C4329 C4346 1.574 . S
C4329 C4348 1.368 . S
C4329 H4353 0.949 . S
H4330 C4334 0.949 . S
C4331 C4332 1.349 . S
C4331 C4333 1.327 . S
C4331 H4354 0.950 . S
C4332 C4331 1.349 . S
C4332 C4344 1.349 1_565 S
C4333 C4331 1.327 . S
C4333 C4349 1.429 . S
C4333 H4355 0.950 . S
C4334 H4330 0.949 . S
C4334 C4342 1.574 . S
C4334 C4350 1.368 . S
H4335 C4343 0.950 . S
H4336 C4341 0.950 . S
H4337 C4342 0.949 . S
H4338 C4344 0.950 . S
H4339 C4345 0.947 1_545 S
H4340 C4346 0.949 . S
C4341 H4336 0.950 . S
C4341 C4343 1.327 . S
C4341 C4347 1.429 . S
C4342 C4334 1.574 . S
C4342 H4337 0.949 . S
C4342 C4348 1.368 . S
C4343 C4327 1.349 . S
C4343 H4335 0.950 . S
C4343 C4341 1.327 . S
C4344 C4332 1.349 1_545 S
C4344 H4338 0.950 . S
C4344 C4345 1.327 1_545 S
C4345 H4339 0.947 1_565 S
C4345 C4344 1.327 1_565 S
C4345 C4349 1.429 . S
C4346 C4329 1.574 . S
C4346 H4340 0.949 . S
C4346 C4350 1.368 . S
C4347 C4328 1.429 . S
C4347 C4341 1.429 . S
C4347 C4348 1.523 . S
C4348 C4329 1.368 . S
C4348 C4342 1.368 . S
C4348 C4347 1.523 . S
C4349 C4333 1.429 . S
C4349 C4345 1.429 . S
C4349 C4350 1.523 . S
C4350 C4334 1.368 . S
C4350 C4346 1.368 . S
C4350 C4349 1.523 . S
H4351 C4326 0.950 . S
H4352 C4328 0.950 . S
H4353 C4329 0.949 . S
H4354 C4331 0.950 . S
H4355 C4333 0.950 . S
C4356 C4357 1.349 . S
C4356 C4358 1.327 . S
C4356 H4381 0.950 . S
C4357 C4356 1.349 . S
C4357 C4373 1.349 . S
C4358 C4356 1.327 . S
C4358 C4377 1.429 . S
C4358 H4382 0.950 . S
C4359 C4376 1.574 . S
C4359 C4378 1.368 . S
C4359 H4383 0.949 . S
H4360 C4364 0.949 . S
C4361 C4362 1.349 . S
C4361 C4363 1.327 . S
C4361 H4384 0.950 . S
C4362 C4361 1.349 . S
C4362 C4374 1.349 . S
C4363 C4361 1.327 . S
C4363 C4379 1.429 . S
C4363 H4385 0.950 . S
C4364 H4360 0.949 . S
C4364 C4372 1.574 . S
C4364 C4380 1.368 . S
H4365 C4373 0.950 . S
H4366 C4371 0.950 . S
H4367 C4372 0.949 . S
H4368 C4374 0.950 . S
H4369 C4375 0.950 . S
H4370 C4376 0.949 . S
C4371 H4366 0.950 . S
C4371 C4373 1.327 . S
C4371 C4377 1.429 . S
C4372 C4364 1.574 . S
C4372 H4367 0.949 . S
C4372 C4378 1.368 . S
C4373 C4357 1.349 . S
C4373 H4365 0.950 . S
C4373 C4371 1.327 . S
C4374 C4362 1.349 . S
C4374 H4368 0.950 . S
C4374 C4375 1.327 . S
C4375 H4369 0.950 . S
C4375 C4374 1.327 . S
C4375 C4379 1.429 . S
C4376 C4359 1.574 . S
C4376 H4370 0.949 . S
C4376 C4380 1.368 . S
C4377 C4358 1.429 . S
C4377 C4371 1.429 . S
C4377 C4378 1.523 . S
C4378 C4359 1.368 . S
C4378 C4372 1.368 . S
C4378 C4377 1.523 . S
C4379 C4363 1.429 . S
C4379 C4375 1.429 . S
C4379 C4380 1.523 . S
C4380 C4364 1.368 . S
C4380 C4376 1.368 . S
C4380 C4379 1.523 . S
H4381 C4356 0.950 . S
H4382 C4358 0.950 . S
H4383 C4359 0.949 . S
H4384 C4361 0.950 . S
H4385 C4363 0.950 . S
C4386 C4387 1.349 . S
C4386 C4388 1.327 . S
C4386 H4411 0.950 . S
C4387 C4386 1.349 . S
C4387 C4403 1.349 . S
C4388 C4386 1.327 . S
C4388 C4407 1.429 . S
C4388 H4412 0.950 . S
C4389 C4406 1.574 . S
C4389 C4408 1.368 . S
C4389 H4413 0.949 . S
H4390 C4394 0.949 . S
C4391 C4392 1.349 . S
C4391 C4393 1.327 . S
C4391 H4414 0.950 . S
C4392 C4391 1.349 . S
C4392 C4404 1.349 . S
C4393 C4391 1.327 . S
C4393 C4409 1.429 . S
C4393 H4415 0.950 . S
C4394 H4390 0.949 . S
C4394 C4402 1.574 . S
C4394 C4410 1.368 . S
H4395 C4403 0.950 . S
H4396 C4401 0.950 . S
H4397 C4402 0.949 . S
H4398 C4404 0.950 . S
H4399 C4405 0.950 . S
H4400 C4406 0.949 . S
C4401 H4396 0.950 . S
C4401 C4403 1.327 . S
C4401 C4407 1.429 . S
C4402 C4394 1.574 . S
C4402 H4397 0.949 . S
C4402 C4408 1.368 . S
C4403 C4387 1.349 . S
C4403 H4395 0.950 . S
C4403 C4401 1.327 . S
C4404 C4392 1.349 . S
C4404 H4398 0.950 . S
C4404 C4405 1.327 . S
C4405 H4399 0.950 . S
C4405 C4404 1.327 . S
C4405 C4409 1.429 . S
C4406 C4389 1.574 . S
C4406 H4400 0.949 . S
C4406 C4410 1.368 . S
C4407 C4388 1.429 . S
C4407 C4401 1.429 . S
C4407 C4408 1.523 . S
C4408 C4389 1.368 . S
C4408 C4402 1.368 . S
C4408 C4407 1.523 . S
C4409 C4393 1.429 . S
C4409 C4405 1.429 . S
C4409 C4410 1.523 . S
C4410 C4394 1.368 . S
C4410 C4406 1.368 . S
C4410 C4409 1.523 . S
H4411 C4386 0.950 . S
H4412 C4388 0.950 . S
H4413 C4389 0.949 . S
H4414 C4391 0.950 . S
H4415 C4393 0.950 . S
C4416 C4417 1.349 . S
C4416 C4418 1.327 . S
C4416 H4441 0.950 . S
C4417 C4416 1.349 . S
C4417 C4433 1.349 . S
C4418 C4416 1.327 . S
C4418 C4437 1.429 . S
C4418 H4442 0.950 . S
C4419 C4436 1.574 . S
C4419 C4438 1.368 . S
C4419 H4443 0.949 . S
H4420 C4424 0.949 . S
C4421 C4422 1.349 . S
C4421 C4423 1.327 . S
C4421 H4444 0.950 . S
C4422 C4421 1.349 . S
C4422 C4434 1.349 . S
C4423 C4421 1.327 . S
C4423 C4439 1.429 . S
C4423 H4445 0.950 . S
C4424 H4420 0.949 . S
C4424 C4432 1.574 . S
C4424 C4440 1.368 . S
H4425 C4433 0.950 . S
H4426 C4431 0.950 . S
H4427 C4432 0.949 . S
H4428 C4434 0.950 . S
H4429 C4435 0.950 . S
H4430 C4436 0.949 . S
C4431 H4426 0.950 . S
C4431 C4433 1.327 . S
C4431 C4437 1.429 . S
C4432 C4424 1.574 . S
C4432 H4427 0.949 . S
C4432 C4438 1.368 . S
C4433 C4417 1.349 . S
C4433 H4425 0.950 . S
C4433 C4431 1.327 . S
C4434 C4422 1.349 . S
C4434 H4428 0.950 . S
C4434 C4435 1.327 . S
C4435 H4429 0.950 . S
C4435 C4434 1.327 . S
C4435 C4439 1.429 . S
C4436 C4419 1.574 . S
C4436 H4430 0.949 . S
C4436 C4440 1.368 . S
C4437 C4418 1.429 . S
C4437 C4431 1.429 . S
C4437 C4438 1.523 . S
C4438 C4419 1.368 . S
C4438 C4432 1.368 . S
C4438 C4437 1.523 . S
C4439 C4423 1.429 . S
C4439 C4435 1.429 . S
C4439 C4440 1.523 . S
C4440 C4424 1.368 . S
C4440 C4436 1.368 . S
C4440 C4439 1.523 . S
H4441 C4416 0.950 . S
H4442 C4418 0.950 . S
H4443 C4419 0.949 . S
H4444 C4421 0.950 . S
H4445 C4423 0.950 . S
C4446 C4447 1.349 . S
C4446 C4448 1.327 . S
C4446 H4471 0.950 . S
C4447 C4446 1.349 . S
C4447 C4463 1.349 . S
C4448 C4446 1.327 . S
C4448 C4467 1.429 . S
C4448 H4472 0.950 . S
C4449 C4466 1.574 . S
C4449 C4468 1.368 . S
C4449 H4473 0.949 . S
H4450 C4454 0.949 1_556 S
C4451 C4452 1.349 . S
C4451 C4453 1.327 . S
C4451 H4474 0.950 . S
C4452 C4451 1.349 . S
C4452 C4464 1.349 1_554 S
C4453 C4451 1.327 . S
C4453 C4469 1.429 . S
C4453 H4475 0.950 . S
C4454 H4450 0.949 1_554 S
C4454 C4462 1.574 . S
C4454 C4470 1.368 . S
H4455 C4463 0.950 . S
H4456 C4461 0.950 . S
H4457 C4462 0.949 1_556 S
H4458 C4464 0.950 . S
H4459 C4465 0.923 1_556 S
H4460 C4466 0.949 . S
C4461 H4456 0.950 . S
C4461 C4463 1.327 . S
C4461 C4467 1.429 . S
C4462 C4454 1.574 . S
C4462 H4457 0.949 1_554 S
C4462 C4468 1.368 . S
C4463 C4447 1.349 . S
C4463 H4455 0.950 . S
C4463 C4461 1.327 . S
C4464 C4452 1.349 1_556 S
C4464 H4458 0.950 . S
C4464 C4465 1.324 1_556 S
C4465 H4459 0.923 1_554 S
C4465 C4464 1.324 1_554 S
C4465 C4469 1.458 . S
C4466 C4449 1.574 . S
C4466 H4460 0.949 . S
C4466 C4470 1.368 . S
C4467 C4448 1.429 . S
C4467 C4461 1.429 . S
C4467 C4468 1.523 . S
C4468 C4449 1.368 . S
C4468 C4462 1.368 . S
C4468 C4467 1.523 . S
C4469 C4453 1.429 . S
C4469 C4465 1.458 . S
C4469 C4470 1.523 . S
C4470 C4454 1.368 . S
C4470 C4466 1.368 . S
C4470 C4469 1.523 . S
H4471 C4446 0.950 . S
H4472 C4448 0.950 . S
H4473 C4449 0.949 . S
H4474 C4451 0.950 . S
H4475 C4453 0.950 . S
C4476 C4477 1.349 . S
C4476 C4478 1.327 . S
C4476 H4501 0.950 . S
C4477 C4476 1.349 . S
C4477 C4493 1.349 . S
C4478 C4476 1.327 . S
C4478 C4497 1.429 . S
C4478 H4502 0.950 . S
C4479 C4496 1.574 . S
C4479 C4498 1.368 . S
C4479 H4503 0.949 . S
H4480 C4484 0.949 . S
C4481 C4482 1.349 . S
C4481 C4483 1.327 . S
C4481 H4504 0.950 . S
C4482 C4481 1.349 . S
C4482 C4494 1.349 . S
C4483 C4481 1.327 . S
C4483 C4499 1.429 . S
C4483 H4505 0.950 . S
C4484 H4480 0.949 . S
C4484 C4492 1.574 . S
C4484 C4500 1.368 . S
H4485 C4493 0.950 . S
H4486 C4491 0.950 . S
H4487 C4492 0.949 . S
H4488 C4494 0.950 . S
H4489 C4495 0.950 . S
H4490 C4496 0.949 . S
C4491 H4486 0.950 . S
C4491 C4493 1.327 . S
C4491 C4497 1.429 . S
C4492 C4484 1.574 . S
C4492 H4487 0.949 . S
C4492 C4498 1.368 . S
C4493 C4477 1.349 . S
C4493 H4485 0.950 . S
C4493 C4491 1.327 . S
C4494 C4482 1.349 . S
C4494 H4488 0.950 . S
C4494 C4495 1.327 . S
C4495 H4489 0.950 . S
C4495 C4494 1.327 . S
C4495 C4499 1.429 . S
C4496 C4479 1.574 . S
C4496 H4490 0.949 . S
C4496 C4500 1.368 . S
C4497 C4478 1.429 . S
C4497 C4491 1.429 . S
C4497 C4498 1.523 . S
C4498 C4479 1.368 . S
C4498 C4492 1.368 . S
C4498 C4497 1.523 . S
C4499 C4483 1.429 . S
C4499 C4495 1.429 . S
C4499 C4500 1.523 . S
C4500 C4484 1.368 . S
C4500 C4496 1.368 . S
C4500 C4499 1.523 . S
H4501 C4476 0.950 . S
H4502 C4478 0.950 . S
H4503 C4479 0.949 . S
H4504 C4481 0.950 . S
H4505 C4483 0.950 . S
C4506 C4507 1.349 . S
C4506 C4508 1.327 . S
C4506 H4531 0.950 . S
C4507 C4506 1.349 . S
C4507 C4523 1.349 . S
C4508 C4506 1.327 . S
C4508 C4527 1.429 . S
C4508 H4532 0.950 . S
C4509 C4526 1.574 . S
C4509 C4528 1.368 . S
C4509 H4533 0.949 . S
H4510 C4514 0.949 . S
C4511 C4512 1.349 . S
C4511 C4513 1.327 . S
C4511 H4534 0.950 . S
C4512 C4511 1.349 . S
C4512 C4524 1.349 . S
C4513 C4511 1.327 . S
C4513 C4529 1.429 . S
C4513 H4535 0.950 . S
C4514 H4510 0.949 . S
C4514 C4522 1.574 . S
C4514 C4530 1.368 . S
H4515 C4523 0.950 . S
H4516 C4521 0.950 . S
H4517 C4522 0.949 . S
H4518 C4524 0.950 . S
H4519 C4525 0.950 . S
H4520 C4526 0.949 . S
C4521 H4516 0.950 . S
C4521 C4523 1.327 . S
C4521 C4527 1.429 . S
C4522 C4514 1.574 . S
C4522 H4517 0.949 . S
C4522 C4528 1.368 . S
C4523 C4507 1.349 . S
C4523 H4515 0.950 . S
C4523 C4521 1.327 . S
C4524 C4512 1.349 . S
C4524 H4518 0.950 . S
C4524 C4525 1.327 . S
C4525 H4519 0.950 . S
C4525 C4524 1.327 . S
C4525 C4529 1.429 . S
C4526 C4509 1.574 . S
C4526 H4520 0.949 . S
C4526 C4530 1.368 . S
C4527 C4508 1.429 . S
C4527 C4521 1.429 . S
C4527 C4528 1.523 . S
C4528 C4509 1.368 . S
C4528 C4522 1.368 . S
C4528 C4527 1.523 . S
C4529 C4513 1.429 . S
C4529 C4525 1.429 . S
C4529 C4530 1.523 . S
C4530 C4514 1.368 . S
C4530 C4526 1.368 . S
C4530 C4529 1.523 . S
H4531 C4506 0.950 . S
H4532 C4508 0.950 . S
H4533 C4509 0.949 . S
H4534 C4511 0.950 . S
H4535 C4513 0.950 . S
C1657 C101 2.047 . S
C1662 C379 2.055 . S
C1687 C57 1.820 . S
C1692 C452 1.840 . S
C1717 C73 1.799 . S
C1722 C547 1.888 . S
C1752 C622 1.428 . S
C1747 C78 1.518 . S
C1777 C21 1.633 . S
C1782 C706 1.527 . S
C1812 C799 1.841 . S
C1807 C31 1.749 . S
C1842 C872 1.871 . S
C1837 C49 1.876 . S
C1867 C0 1.859 . S
C1872 C967 1.970 . S
C1902 C368 1.524 . S
C1897 C218 1.559 . S
C1927 C229 0.877 . S
C1932 C454 0.851 . S
C1962 C536 1.063 . S
C1957 C257 1.069 . S
C1992 C631 1.593 . S
C1987 C164 1.529 1_556 S
C2017 C216 1.515 . S
C2022 C715 1.578 . S
C2052 C788 1.074 . S
C2047 C231 1.079 . S
C2082 C874 0.849 . S
C2077 C255 0.874 . S
C2112 C956 1.505 . S
C2107 C166 1.541 . S
C2142 C370 0.859 . S
C2137 C143 0.864 1_556 S
C2167 C265 1.667 . S
C2172 C1040 1.685 . S
C2202 C1126 1.223 . S
C2197 C299 1.267 . S
C2232 C1219 0.815 . S
C2227 C291 0.806 . S
C2257 C104 0.799 . S
C2262 C958 0.796 . S
C2287 C117 1.308 . S
C2292 C538 1.261 . S
C2317 C304 1.598 . S
C2322 C1292 1.612 . S
C2352 C1387 0.699 . S
C2347 C278 0.707 . S
C2382 C367 1.980 . S
C2377 C60 1.951 . S
C2412 C1388 1.726 . S
C2407 C96 1.735 . S
C2437 C88 1.769 . S
C2442 C535 1.767 . S
C2467 C65 1.443 . S
C2472 C1306 1.358 . S
C2502 C718 1.444 . S
C2497 C10 1.560 . S
C2527 C44 1.652 . S
C2532 C1123 1.736 . S
C2562 C884 1.766 1_556 S
C2557 C34 1.720 . S
C2592 C1459 1.880 . S
C2587 C13 1.848 . S
C2622 C380 1.419 . S
C2617 C138 1.434 . S
C2652 C1390 0.778 . S
C2647 C296 0.786 . S
C2677 C112 0.965 . S
C2682 C548 0.969 . S
C2707 C270 1.492 . S
C2712 C1291 1.490 . S
C2737 C140 1.468 . S
C2742 C703 1.466 . S
C2772 C1136 0.978 . S
C2767 C294 0.973 . S
C2797 C114 0.790 . S
C2802 C886 0.807 . S
C2827 C268 1.419 . S
C2832 C1472 1.404 . S
C2857 C169 0.835 . S
C2862 C382 0.823 . S
C2887 C161 1.599 . S
C2892 C1052 1.595 . S
C2917 C234 1.252 . S
C2922 C802 1.191 . S
C2947 C226 0.714 . S
C2952 C1207 0.708 . S
C2982 C1474 0.756 . S
C2977 C247 0.754 . S
C3007 C195 1.281 . S
C3012 C550 1.220 . S
C3042 C632 1.516 . S
C3037 C239 1.523 . S
C3072 C451 0.597 . S
C3067 C187 0.618 . S
C3097 C75 2.047 . S
C3102 C1555 2.055 . S
C3132 C1376 1.840 . S
C3127 C83 1.820 . S
C3157 C99 1.799 . S
C3162 C1639 1.888 . S
C3187 C52 1.518 1_655 S
C3192 C1294 1.428 . S
C3217 C47 1.633 . S
C3222 C1042 1.527 . S
C3252 C1135 1.841 . S
C3247 C5 1.749 . S
C3282 C1208 1.871 . S
C3277 C23 1.876 . S
C3312 C1471 1.970 . S
C3307 C26 1.859 . S
C3342 C1544 1.524 . S
C3337 C244 1.559 . S
C3367 C177 0.877 . S
C3372 C1378 0.851 . S
C3402 C1628 1.063 . S
C3397 C192 1.069 . S
C3432 C1303 1.593 . S
C3427 C203 1.529 . S
C3462 C1051 1.578 . S
C3457 C242 1.515 . S
C3487 C179 1.079 . S
C3492 C1124 1.074 . S
C3522 C1210 0.849 . S
C3517 C190 0.874 . S
C3547 C205 1.541 . S
C3552 C1460 1.505 . S
C3582 C1546 0.859 . S
C3577 C286 0.862 . S
C3607 C122 1.667 . S
C3612 C704 1.685 . S
C3642 C790 1.223 . S
C3637 C130 1.318 . S
C3672 C883 0.816 . S
C3667 C148 0.808 . S
C3702 C1462 0.796 . S
C3697 C273 0.799 . S
C3727 C260 1.308 . S
C3732 C1630 1.261 . S
C3762 C620 1.612 . S
C3757 C135 1.598 . S
C3792 C463 0.700 . S
C3787 C109 0.707 . S
C3817 C86 1.952 . S
C3822 C1543 1.980 . S
C3852 C464 1.726 . S
C3847 C70 1.735 . S
C3877 C62 1.769 . S
C3882 C1627 1.767 . S
C3907 C91 1.443 . S
C3912 C634 1.358 . S
C3937 C36 1.560 . S
C3942 C1054 1.444 . S
C3972 C787 1.736 . S
C3967 C18 1.652 . S
C3997 C8 1.720 . S
C4002 C1220 1.766 . S
C4027 C39 1.848 . S
C4032 C955 1.880 . S
C4062 C1556 1.419 . S
C4057 C307 1.434 . S
C4087 C153 0.786 . S
C4092 C466 0.773 . S
C4122 C1640 0.997 . S
C4117 C281 0.965 . S
C4147 C127 1.491 . S
C4152 C619 1.490 . S
C4177 C309 1.468 . S
C4182 C1039 1.466 . S
C4212 C800 0.979 . S
C4207 C151 0.978 . S
C4237 C283 0.790 . S
C4242 C1222 0.781 . S
C4272 C968 1.404 . S
C4267 C125 1.419 . S
C4302 C1558 0.823 . S
C4297 C221 0.835 . S
C4332 C716 1.595 1_565 S
C4327 C200 1.599 . S
C4357 C208 1.252 . S
C4362 C1138 1.190 . S
C4392 C871 0.708 . S
C4387 C174 0.714 . S
C4417 C182 0.757 . S
C4422 C970 0.756 . S
C4447 C156 1.281 . S
C4452 C1642 1.220 . S
C4482 C1304 1.517 . S
C4477 C213 1.523 . S
C4512 C1375 0.596 . S
C4507 C252 0.618 . S
