# Generated by pormake.
# Topology pth, (4,4)-cn, num edge types: 1
# Building blocks:
#     Node 0, Type 0, BuildingBlock: KUFVIS_clean_sbu_0, # of connection points: 4
#     Node 1, Type 0, BuildingBlock: KUFVIS_clean_sbu_0, # of connection points: 4
#     Node 2, Type 0, BuildingBlock: KUFVIS_clean_sbu_0, # of connection points: 4
#     Node 3, Type 1, BuildingBlock: KOZSID_clean_sbu_0, # of connection points: 4
#     Node 4, Type 1, BuildingBlock: KOZSID_clean_sbu_0, # of connection points: 4
#     Node 5, Type 1, BuildingBlock: KOZSID_clean_sbu_0, # of connection points: 4
#     Edge 6, Type (0, 1), BuildingBlock: CIFDUS_clean_linker_0, # of connection points: 2
#     Edge 7, Type (0, 1), BuildingBlock: CIFDUS_clean_linker_0, # of connection points: 2
#     Edge 8, Type (0, 1), BuildingBlock: CIFDUS_clean_linker_0, # of connection points: 2
#     Edge 9, Type (0, 1), BuildingBlock: CIFDUS_clean_linker_0, # of connection points: 2
#     Edge 10, Type (0, 1), BuildingBlock: CIFDUS_clean_linker_0, # of connection points: 2
#     Edge 11, Type (0, 1), BuildingBlock: CIFDUS_clean_linker_0, # of connection points: 2
#     Edge 12, Type (0, 1), BuildingBlock: CIFDUS_clean_linker_0, # of connection points: 2
#     Edge 13, Type (0, 1), BuildingBlock: CIFDUS_clean_linker_0, # of connection points: 2
#     Edge 14, Type (0, 1), BuildingBlock: CIFDUS_clean_linker_0, # of connection points: 2
#     Edge 15, Type (0, 1), BuildingBlock: CIFDUS_clean_linker_0, # of connection points: 2
#     Edge 16, Type (0, 1), BuildingBlock: CIFDUS_clean_linker_0, # of connection points: 2
#     Edge 17, Type (0, 1), BuildingBlock: CIFDUS_clean_linker_0, # of connection points: 2
# Relax obj value: 0.010
# Max RMSD: 0.086
# Mean RMSD: 0.052
data_MOF--net-pth--node1-KUFVIS_clean_sbu_0--node2-KOZSID_clean_sbu_0--edge1-CIFDUS_clean_linker_0
_symmetry_space_group_name_H-M    P1
_symmetry_Int_Tables_number       1
_symmetry_cell_setting            triclinic
loop_
_symmetry_equiv_pos_as_xyz
'x, y, z'
_cell_length_a     23.298143
_cell_length_b     23.327526
_cell_length_c     53.996058
_cell_angle_alpha  87.457079
_cell_angle_beta   88.915682
_cell_angle_gamma 120.23002
loop_
_atom_site_label
_atom_site_type_symbol
_atom_site_fract_x
_atom_site_fract_y
_atom_site_fract_z
_atom_type_partial_charge
Mn0 Mn 0.10858 0.06398 0.03837 0.0
Mn1 Mn 0.01931 0.1217 0.00897 0.0
C2 C 0.03311 1.0016 0.00919 0.0
C3 C 0.1217 1.00028 0.07021 0.0
C4 C 0.16452 0.17197 0.99528 0.0
O5 O 0.11732 0.13624 0.06092 0.0
O6 O 0.0568 0.17047 0.03943 0.0
C7 C 0.91014 0.07678 0.04727 0.0
N8 N 0.93077 0.0773 0.02345 0.0
C9 C 0.81803 0.00794 0.01172 0.0
C10 C 0.79558 0.00703 0.03609 0.0
C11 C 0.84186 0.04151 0.05395 0.0
C12 C 0.88665 0.04433 0.00611 0.0
H13 H 0.94551 0.10301 0.06108 0.0
C14 C 0.0922 0.17377 0.05785 0.0
O15 O 0.17235 0.04706 0.05713 0.0
O16 O 0.06403 0.99324 0.06591 0.0
N17 N 0.97936 0.07846 0.9795 0.0
C18 C 0.00931 0.08036 0.95731 0.0
C19 C 0.97004 0.04654 0.93764 0.0
C20 C 0.90042 0.01129 0.94094 0.0
C21 C 0.87069 0.01026 0.96391 0.0
C22 C 0.91237 0.04535 0.98278 0.0
H23 H 0.06275 0.10648 0.95478 0.0
O24 O 0.08249 0.99298 0.01424 0.0
O25 O 0.02962 0.04711 0.0211 0.0
O26 O 0.17258 0.13632 0.01195 0.0
O27 O 0.10898 0.16933 0.99229 0.0
C28 C 0.80139 0.97431 0.96901 0.0
C29 C 0.77509 0.97312 0.99291 0.0
H30 H 0.74297 0.97954 0.04136 0.0
H31 H 0.82493 0.04078 0.07282 0.0
H32 H 0.9934 0.04713 0.92004 0.0
H33 H 0.87032 0.98453 0.92583 0.0
H34 H 0.76795 0.94652 0.95482 0.0
H35 H 0.72179 0.94452 0.99671 0.0
Mn36 Mn 0.07741 0.09004 0.3719 0.0
Mn37 Mn 0.14961 0.2164 0.40986 0.0
C38 C 0.13314 0.08235 0.4061 0.0
C39 C 0.08556 0.03268 0.33838 0.0
C40 C 1.00103 0.11944 0.41204 0.0
O41 O 0.08249 0.16751 0.35029 0.0
O42 O 0.12889 0.24649 0.37786 0.0
C43 C 0.27555 0.29811 0.37994 0.0
N44 N 0.24313 0.26526 0.4018 0.0
C45 C 0.34655 0.29713 0.42101 0.0
C46 C 0.38104 0.33162 0.39874 0.0
C47 C 0.34536 0.33198 0.3781 0.0
C48 C 0.27698 0.26444 0.42175 0.0
H49 H 0.24835 0.29838 0.36401 0.0
C50 C 0.10443 0.22704 0.35668 0.0
O51 O 0.02818 0.02246 0.34668 0.0
O52 O 0.13726 0.07946 0.34817 0.0
N53 N 0.17295 0.19476 0.44129 0.0
C54 C 0.13216 0.15611 0.46095 0.0
C55 C 0.16003 0.14891 0.48288 0.0
C56 C 0.22945 0.1818 0.48442 0.0
C57 C 0.27042 0.22184 0.46404 0.0
C58 C 0.23981 0.22749 0.44273 0.0
H59 H 0.07881 0.1303 0.4598 0.0
O60 O 0.08758 0.02933 0.39658 0.0
O61 O 0.14414 0.13844 0.3956 0.0
O62 O 1.00105 0.08599 0.39382 0.0
O63 O 0.054 0.16791 0.41981 0.0
C64 C 0.3404 0.25531 0.46386 0.0
C65 C 0.37844 0.29294 0.44236 0.0
H66 H 0.43487 0.35754 0.39721 0.0
H67 H 0.37162 0.35823 0.36081 0.0
H68 H 0.12807 0.11776 0.4985 0.0
H69 H 0.25076 0.17557 0.50127 0.0
H70 H 0.36547 0.25158 0.48002 0.0
H71 H 0.43219 0.3176 0.44233 0.0
Mn72 Mn 0.10912 0.05602 0.70843 0.0
Mn73 Mn 0.05325 0.14598 0.73702 0.0
C74 C 0.17328 0.13194 0.73711 0.0
C75 C 0.17075 0.04211 0.67667 0.0
C76 C 1.00291 1.00077 0.75162 0.0
O77 O 0.03544 0.04712 0.68587 0.0
O78 O 1.00317 0.10856 0.70675 0.0
C79 C 0.09673 0.25511 0.69812 0.0
N80 N 0.09723 0.23446 0.72206 0.0
C81 C 0.16632 0.34718 0.73333 0.0
C82 C 0.16623 0.36966 0.70881 0.0
C83 C 0.13138 0.3234 0.69113 0.0
C84 C 0.13058 0.27855 0.73923 0.0
H85 H 0.0701 0.21975 0.68445 0.0
C86 C 0.99847 0.07274 0.68866 0.0
O87 O 0.12468 0.99184 0.69016 0.0
O88 O 0.17844 0.09995 0.68059 0.0
N89 N 0.09772 0.18587 0.76634 0.0
C90 C 0.09639 0.15592 0.78876 0.0
C91 C 0.13048 0.19519 0.80834 0.0
C92 C 0.16531 0.26479 0.80471 0.0
C93 C 0.16569 0.29451 0.78151 0.0
C94 C 0.13041 0.25282 0.76274 0.0
H95 H 0.07048 0.10251 0.79156 0.0
O96 O 0.1817 0.08257 0.73246 0.0
O97 O 0.12705 0.1352 0.72511 0.0
O98 O 0.03788 0.99242 0.7352 0.0
O99 O 1.00598 0.05642 0.75415 0.0
C100 C 0.20103 0.3638 0.7761 0.0
C101 C 0.20138 0.39011 0.75202 0.0
H102 H 0.19316 0.42228 0.70332 0.0
H103 H 0.13129 0.34035 0.67215 0.0
H104 H 0.13035 0.17185 0.82613 0.0
H105 H 0.19223 0.29489 0.81976 0.0
H106 H 0.22894 0.39725 0.79021 0.0
H107 H 0.22946 0.44343 0.748 0.0
C108 C 0.15179 0.70835 0.16972 0.0
C109 C 0.21473 0.7596 0.16163 0.0
C110 C 0.25958 0.74789 0.17321 0.0
C111 C 0.22208 0.69096 0.18794 0.0
N112 N 0.15577 0.66497 0.1863 0.0
Co113 Co 0.08413 0.5856 0.20653 0.0
N114 N 0.15068 0.57608 0.22673 0.0
C115 C 0.21727 0.61733 0.22528 0.0
C116 C 0.25086 0.59779 0.24084 0.0
C117 C 0.20293 0.54018 0.25285 0.0
C118 C 0.14244 0.52788 0.24396 0.0
N119 N 0.01266 0.5041 0.22585 0.0
C120 C 0.01725 0.46125 0.2425 0.0
C121 C 0.95495 0.40884 0.2504 0.0
C122 C 0.90947 0.41794 0.23794 0.0
C123 C 0.94635 0.47518 0.22322 0.0
N124 N 0.01741 0.59696 0.18719 0.0
C125 C 0.95046 0.55878 0.18997 0.0
C126 C 0.91712 0.57944 0.17477 0.0
C127 C 0.96558 0.63535 0.16199 0.0
C128 C 0.02604 0.64608 0.17035 0.0
N129 N 0.08753 0.5263 0.18168 0.0
C130 C 0.08978 0.44043 0.14664 0.0
C131 C 0.03106 0.43969 0.15313 0.0
C132 C 0.03099 0.48227 0.17049 0.0
C133 C 0.14745 0.4844 0.15832 0.0
C134 C 0.14537 0.52694 0.17553 0.0
N135 N 0.08017 0.64532 0.23116 0.0
C136 C 0.01482 0.67549 0.2573 0.0
C137 C 0.06866 0.74011 0.25904 0.0
C138 C 0.12957 0.75439 0.24774 0.0
C139 C 0.13446 0.70641 0.23457 0.0
C140 C 0.0214 0.62974 0.24332 0.0
H141 H 0.18256 0.72072 0.22674 0.0
H142 H 0.97764 0.58246 0.24228 0.0
H143 H 0.9843 0.4784 0.17455 0.0
H144 H 0.19116 0.56007 0.18356 0.0
C145 C 0.24726 0.66823 0.2067 0.0
C146 C 0.08988 0.7053 0.16255 0.0
C147 C 0.07916 0.46776 0.25128 0.0
C148 C 0.92045 0.50324 0.20676 0.0
H149 H 0.22779 0.80307 0.14961 0.0
H150 H 0.31313 0.77973 0.17234 0.0
H151 H 0.30414 0.62081 0.24232 0.0
H152 H 0.21203 0.50955 0.26596 0.0
H153 H 0.94356 0.36794 0.26367 0.0
H154 H 0.85591 0.38621 0.23925 0.0
H155 H 0.86388 0.55693 0.17335 0.0
H156 H 0.9572 0.66551 0.14838 0.0
H157 H 0.9848 0.40591 0.1449 0.0
H158 H 0.1943 0.48713 0.1538 0.0
H159 H 0.96706 0.65974 0.26648 0.0
H160 H 0.1735 0.80298 0.24829 0.0
C161 C 0.45434 0.01081 0.57504 0.0
C162 C 0.40229 0.94742 0.5822 0.0
C163 C 0.41479 0.90364 0.57079 0.0
C164 C 0.47295 0.94225 0.55704 0.0
N165 N 0.49902 0.00827 0.55916 0.0
Co166 Co 0.57897 0.08164 0.53981 0.0
N167 N 0.59116 0.01692 0.52018 0.0
C168 C 0.55236 0.94998 0.52205 0.0
C169 C 0.5746 0.91807 0.50738 0.0
C170 C 0.63161 0.96747 0.4956 0.0
C171 C 0.64077 0.02708 0.50368 0.0
N172 N 0.65909 0.15506 0.52067 0.0
C173 C 0.7015 0.15234 0.50379 0.0
C174 C 0.751 0.21546 0.49507 0.0
C175 C 0.74088 0.2596 0.50742 0.0
C176 C 0.68572 0.22118 0.52279 0.0
N177 N 0.56652 0.14647 0.55919 0.0
C178 C 0.60549 0.2135 0.55742 0.0
C179 C 0.58518 0.24506 0.57312 0.0
C180 C 0.52896 0.19545 0.58526 0.0
C181 C 0.51755 0.13614 0.576 0.0
N182 N 0.6386 0.07827 0.56524 0.0
C183 C 0.72654 0.07609 0.60028 0.0
C184 C 0.7303 0.13555 0.59208 0.0
C185 C 0.68665 0.13555 0.57473 0.0
C186 C 0.67826 0.0175 0.59043 0.0
C187 C 0.63474 0.01963 0.57322 0.0
N188 N 0.51949 0.08526 0.51447 0.0
C189 C 0.48486 0.14923 0.48879 0.0
C190 C 0.42964 0.09145 0.48147 0.0
C191 C 0.42079 0.03036 0.49058 0.0
C192 C 0.46634 0.0284 0.50671 0.0
C193 C 0.52849 0.14506 0.50518 0.0
H194 H 0.45717 0.98034 0.51282 0.0
H195 H 0.56857 0.19107 0.51034 0.0
H196 H 0.69318 0.1828 0.56924 0.0
H197 H 0.59837 0.97324 0.56665 0.0
C198 C 0.49918 0.91837 0.53953 0.0
C199 C 0.45769 0.07193 0.58283 0.0
C200 C 0.69925 0.09167 0.49638 0.0
C201 C 0.65942 0.24553 0.54016 0.0
H202 H 0.35822 0.93358 0.59367 0.0
H203 H 0.38322 0.85012 0.57135 0.0
H204 H 0.55341 0.86503 0.5062 0.0
H205 H 0.66369 0.9599 0.48312 0.0
H206 H 0.79123 0.22823 0.48158 0.0
H207 H 0.77107 0.31329 0.50582 0.0
H208 H 0.60778 0.29797 0.57512 0.0
H209 H 0.49893 0.2024 0.59899 0.0
H210 H 0.76735 0.18241 0.59892 0.0
H211 H 0.67308 0.9701 0.59638 0.0
H212 H 0.49365 0.19777 0.48234 0.0
H213 H 0.37922 0.98418 0.48513 0.0
C214 C 0.72549 0.60924 0.83413 0.0
C215 C 0.77486 0.59711 0.8257 0.0
C216 C 0.76678 0.54277 0.83937 0.0
C217 C 0.71349 0.52495 0.85544 0.0
N218 N 0.68631 0.56409 0.85269 0.0
Co219 Co 0.61087 0.55815 0.87358 0.0
N220 N 0.60466 0.48347 0.89578 0.0
C221 C 0.64421 0.4566 0.8943 0.0
C222 C 0.62582 0.40345 0.91088 0.0
C223 C 0.57073 0.39516 0.92355 0.0
C224 C 0.55877 0.44433 0.91409 0.0
N225 N 0.53477 0.55148 0.89413 0.0
C226 C 0.49613 0.50678 0.91285 0.0
C227 C 0.44795 0.51993 0.92183 0.0
C228 C 0.45475 0.57317 0.90775 0.0
C229 C 0.50682 0.58986 0.89118 0.0
N230 N 0.61775 0.63348 0.85172 0.0
C231 C 0.57917 0.66133 0.85345 0.0
C232 C 0.59648 0.71323 0.83634 0.0
C233 C 0.65027 0.71996 0.82317 0.0
C234 C 0.66304 0.67185 0.83318 0.0
N235 N 0.54557 0.49196 0.85152 0.0
C236 C 0.44656 0.39128 0.82417 0.0
C237 C 0.44513 0.44921 0.82845 0.0
C238 C 0.49455 0.4984 0.84218 0.0
C239 C 0.49958 0.38578 0.83303 0.0
C240 C 0.54836 0.43644 0.84625 0.0
N241 N 0.67625 0.62434 0.89564 0.0
C242 C 0.71769 0.72539 0.91759 0.0
C243 C 0.77597 0.72492 0.92281 0.0
C244 C 0.78229 0.67202 0.91502 0.0
C245 C 0.73206 0.62241 0.90188 0.0
C246 C 0.66902 0.67523 0.90396 0.0
H247 H 0.74015 0.58355 0.89664 0.0
H248 H 0.62662 0.67941 0.89999 0.0
H249 H 0.48975 0.54057 0.84539 0.0
H250 H 0.58733 0.42891 0.85234 0.0
C251 C 0.69289 0.47693 0.87515 0.0
C252 C 0.72034 0.6665 0.82505 0.0
C253 C 0.50113 0.44953 0.92202 0.0
C254 C 0.52896 0.63954 0.87205 0.0
H255 H 0.81427 0.62575 0.81174 0.0
H256 H 0.79807 0.52083 0.8385 0.0
H257 H 0.64783 0.37228 0.91267 0.0
H258 H 0.54153 0.35566 0.93752 0.0
H259 H 0.41075 0.49294 0.93669 0.0
H260 H 0.42439 0.59604 0.90907 0.0
H261 H 0.57368 0.74358 0.8341 0.0
H262 H 0.67788 0.75704 0.80823 0.0
H263 H 0.40496 0.45568 0.82189 0.0
H264 H 0.50349 0.34235 0.82975 0.0
H265 H 0.71058 0.76541 0.92332 0.0
H266 H 0.82604 0.66886 0.91905 0.0
H267 H 0.04695 0.26093 0.05681 0.0
H268 H 0.16004 0.1982 0.1012 0.0
H269 H 0.17223 0.27708 0.13208 0.0
H270 H 0.14706 0.36185 0.14721 0.0
H271 H 0.03279 0.42143 0.10209 0.0
H272 H 0.02504 0.34595 0.07088 0.0
C273 C 0.07459 0.26431 0.07315 0.0
C274 C 0.10236 0.22312 0.07654 0.0
C275 C 0.08108 0.30937 0.09084 0.0
C276 C 0.13798 0.22896 0.09797 0.0
C277 C 0.14496 0.27415 0.11569 0.0
C278 C 0.12109 0.3587 0.13041 0.0
C279 C 0.09003 0.39699 0.12716 0.0
C280 C 0.11631 0.31441 0.11242 0.0
C281 C 0.05625 0.39194 0.10532 0.0
C282 C 0.05195 0.34887 0.08738 0.0
H283 H 0.98231 0.14714 0.45885 0.0
H284 H 0.87527 0.05595 0.39411 0.0
H285 H 0.77215 0.03868 0.41435 0.0
H286 H 0.71339 0.05462 0.45002 0.0
H287 H 0.8209 0.14018 0.51521 0.0
H288 H 0.923 0.15518 0.49516 0.0
C289 C 0.93645 0.12303 0.44914 0.0
C290 C 0.93689 0.10324 0.42486 0.0
C291 C 0.87742 0.11272 0.46097 0.0
C292 C 0.87656 0.07156 0.41279 0.0
C293 C 0.81758 0.06197 0.42433 0.0
C294 C 0.75907 0.07564 0.45988 0.0
C295 C 0.75973 0.09626 0.48408 0.0
C296 C 0.81751 0.08299 0.44834 0.0
C297 C 0.81933 0.12411 0.49658 0.0
C298 C 0.87761 0.13262 0.48513 0.0
H299 H 0.9325 0.86858 0.74236 0.0
H300 H 0.96502 1.00478 0.79919 0.0
H301 H 0.8839 0.91355 0.82709 0.0
H302 H 0.80044 0.79519 0.8352 0.0
H303 H 0.75912 0.65977 0.77753 0.0
H304 H 0.84635 0.74973 0.75023 0.0
C305 C 0.92228 0.87807 0.76094 0.0
C306 C 0.95559 0.94357 0.7687 0.0
C307 C 0.87352 0.82531 0.77675 0.0
C308 C 0.94065 0.95507 0.7927 0.0
C309 C 0.894 0.90283 0.80871 0.0
C310 C 0.81086 0.78557 0.81666 0.0
C311 C 0.77429 0.72091 0.80848 0.0
C312 C 0.85969 0.83787 0.8009 0.0
C313 C 0.7875 0.70901 0.78434 0.0
C314 C 0.83716 0.76048 0.76872 0.0
H315 H 0.0602 0.94357 0.11559 0.0
H316 H 0.19481 0.94326 0.05982 0.0
H317 H 0.194 0.84967 0.08246 0.0
H318 H 0.15055 0.76411 0.11714 0.0
H319 H 0.03081 0.77531 0.1764 0.0
H320 H 0.02852 0.86685 0.15325 0.0
C321 C 0.09003 0.92348 0.10866 0.0
C322 C 0.12752 0.95019 0.08609 0.0
C323 C 0.09108 0.87091 0.12224 0.0
C324 C 0.16613 0.92397 0.07729 0.0
C325 C 0.16525 0.87008 0.09012 0.0
C326 C 0.12521 0.78758 0.12523 0.0
C327 C 0.09109 0.763 0.14852 0.0
C328 C 0.12738 0.84269 0.11248 0.0
C329 C 0.05719 0.79307 0.15846 0.0
C330 C 0.05616 0.84563 0.14528 0.0
H331 H 0.26707 0.14678 0.40068 0.0
H332 H 0.10227 1.00238 0.44828 0.0
H333 H 0.1792 0.99051 0.47558 0.0
H334 H 0.29402 0.02323 0.48622 0.0
H335 H 0.45856 0.16929 0.43865 0.0
H336 H 0.38141 0.17901 0.41113 0.0
C337 C 0.2483 0.11356 0.41727 0.0
C338 C 0.17954 0.07732 0.42309 0.0
C339 C 0.2928 0.10708 0.43276 0.0
C340 C 0.15527 0.03195 0.44388 0.0
C341 C 0.1992 0.02512 0.45941 0.0
C342 C 0.31286 0.05677 0.46972 0.0
C343 C 0.38197 0.09542 0.46449 0.0
C344 C 0.26815 0.06267 0.45409 0.0
C345 C 0.40567 0.13931 0.44319 0.0
C346 C 0.36158 0.1447 0.42739 0.0
H347 H 0.22235 0.12524 0.78161 0.0
H348 H 0.24058 0.26268 0.72186 0.0
H349 H 0.32499 0.35587 0.74374 0.0
H350 H 0.39389 0.39834 0.78013 0.0
H351 H 0.37867 0.25985 0.83909 0.0
H352 H 0.29262 0.16738 0.81759 0.0
C353 C 0.24475 0.17573 0.77353 0.0
C354 C 0.22362 0.18767 0.75069 0.0
C355 C 0.29366 0.22889 0.78616 0.0
C356 C 0.25435 0.25284 0.73992 0.0
C357 C 0.30293 0.30599 0.75234 0.0
C358 C 0.37138 0.34793 0.78829 0.0
C359 C 0.39272 0.33596 0.81115 0.0
C360 C 0.32263 0.29474 0.77559 0.0
C361 C 0.36354 0.27028 0.82141 0.0
C362 C 0.31427 0.21738 0.80914 0.0
H363 H 0.91546 0.1228 0.68857 0.0
H364 H 0.96704 1.00019 0.6468 0.0
H365 H 0.88526 0.98737 0.61633 0.0
H366 H 0.80089 0.01438 0.60084 0.0
H367 H 0.7532 0.13866 0.64326 0.0
H368 H 0.83149 0.14707 0.67415 0.0
C369 C 0.90904 0.09293 0.6729 0.0
C370 C 0.94787 0.06262 0.67012 0.0
C371 C 0.86241 0.08613 0.65546 0.0
C372 C 0.93818 0.02426 0.64952 0.0
C373 C 0.8913 0.01689 0.63206 0.0
C374 C 0.80728 0.04268 0.617 0.0
C375 C 0.77146 0.07624 0.61962 0.0
C376 C 0.8533 0.04795 0.63475 0.0
C377 C 0.78066 0.11309 0.64059 0.0
C378 C 0.82535 0.11782 0.65831 0.0
H379 H 0.0404 0.95325 0.96525 0.0
H380 H 0.90209 0.93394 0.02355 0.0
H381 H 0.80943 0.84867 1.00162 0.0
H382 H 0.76782 0.77848 0.9658 0.0
H383 H 0.90742 0.79409 0.90858 0.0
H384 H 0.99915 0.88197 0.92984 0.0
C385 C 0.98982 0.93055 0.97297 0.0
C386 C 0.97747 0.95161 0.99539 0.0
C387 C 0.93702 0.88088 0.9604 0.0
C388 C 0.91221 0.92036 0.00575 0.0
C389 C 0.85937 0.87122 0.99333 0.0
C390 C 0.8183 0.8015 0.95796 0.0
C391 C 0.83082 0.77972 0.93567 0.0
C392 C 0.87109 0.85128 0.97054 0.0
C393 C 0.89659 0.80955 0.92583 0.0
C394 C 0.94906 0.85987 0.93795 0.0
H395 H 0.98908 0.92993 0.31322 0.0
H396 H 0.19912 0.03283 0.32606 0.0
H397 H 0.21215 0.95199 0.30346 0.0
H398 H 0.16377 0.84863 0.28233 0.0
H399 H 0.95599 0.7504 0.26548 0.0
H400 H 0.9425 0.83127 0.2879 0.0
C401 C 0.03782 0.93514 0.31077 0.0
C402 C 0.09287 0.98759 0.3215 0.0
C403 C 0.04542 0.88833 0.29743 0.0
C404 C 0.15568 0.99333 0.31805 0.0
C405 C 0.16327 0.94673 0.3052 0.0
C406 C 0.11558 0.84503 0.28295 0.0
C407 C 0.06101 0.79177 0.27225 0.0
C408 C 0.10839 0.89347 0.2951 0.0
C409 C 0.99897 0.78881 0.27404 0.0
C410 C 0.99115 0.83587 0.28666 0.0
H411 H 0.22641 0.10595 0.6314 0.0
H412 H 0.2244 0.96446 0.68602 0.0
H413 H 0.31436 0.96273 0.66261 0.0
H414 H 0.39802 0.00617 0.62765 0.0
H415 H 0.38932 0.13442 0.56977 0.0
H416 H 0.30054 0.13794 0.59347 0.0
C417 C 0.24518 0.07413 0.63793 0.0
C418 C 0.2189 0.03547 0.66043 0.0
C419 C 0.29566 0.07175 0.62392 0.0
C420 C 0.2434 0.99421 0.66866 0.0
C421 C 0.29521 0.99357 0.65536 0.0
C422 C 0.37562 0.03361 0.61995 0.0
C423 C 0.4003 0.06989 0.59692 0.0
C424 C 0.32226 0.03266 0.6331 0.0
C425 C 0.3715 0.10633 0.5875 0.0
C426 C 0.32057 0.10817 0.60101 0.0
H427 H 0.29702 0.23961 0.00495 0.0
H428 H 0.16068 0.21204 0.94751 0.0
H429 H 0.25258 0.29151 0.91958 0.0
H430 H 0.37173 0.37181 0.91152 0.0
H431 H 0.50729 0.40956 0.96998 0.0
H432 H 0.41655 0.32345 0.99728 0.0
C433 C 0.28761 0.25061 0.98625 0.0
C434 C 0.22188 0.21908 0.97832 0.0
C435 C 0.3408 0.29849 0.97041 0.0
C436 C 0.21053 0.23501 0.95415 0.0
C437 C 0.26318 0.28069 0.9381 0.0
C438 C 0.38124 0.36088 0.93024 0.0
C439 C 0.44622 0.39602 0.9386 0.0
C440 C 0.32843 0.3131 0.94606 0.0
C441 C 0.45788 0.38217 0.96298 0.0
C442 C 0.40593 0.33323 0.97862 0.0
H443 H 0.06744 0.21655 0.30783 0.0
H444 H 0.13454 0.35234 0.36672 0.0
H445 H 0.13063 0.43634 0.33997 0.0
H446 H 0.10938 0.47348 0.29975 0.0
H447 H 0.04554 0.34181 0.24003 0.0
H448 H 0.04619 0.25449 0.26703 0.0
C449 C 0.08115 0.26444 0.31482 0.0
C450 C 0.10135 0.27739 0.33943 0.0
C451 C 0.07922 0.31367 0.29913 0.0
C452 C 0.11897 0.34023 0.34797 0.0
C453 C 0.11669 0.38874 0.33266 0.0
C454 C 0.09568 0.42559 0.29272 0.0
C455 C 0.07778 0.41402 0.26798 0.0
C456 C 0.09709 0.37622 0.30823 0.0
C457 C 0.05961 0.35171 0.25905 0.0
C458 C 0.06016 0.30194 0.27447 0.0
loop_
_geom_bond_atom_site_label_1
_geom_bond_atom_site_label_2
_geom_bond_distance
_geom_bond_site_symmetry_2
_ccdc_geom_bond_type
Mn0 O5 2.095 . S
Mn0 O15 2.162 . S
Mn0 O16 2.297 1_545 S
Mn0 O24 2.385 1_545 S
Mn0 O25 2.209 . S
Mn0 O26 2.094 . S
Mn1 O6 2.121 . S
Mn1 N8 2.257 1_455 S
Mn1 N17 2.282 1_554 S
Mn1 O25 2.215 . S
Mn1 O27 2.117 1_554 S
C2 O24 1.234 . S
C2 O25 1.283 1_565 S
C3 O15 1.281 1_565 S
C3 O16 1.236 . S
C4 O26 1.235 1_556 S
C4 O27 1.266 . S
O5 Mn0 2.095 . S
O5 C14 1.250 . S
O6 Mn1 2.121 . S
O6 C14 1.258 . S
C7 N8 1.326 . S
C7 C11 1.460 . S
C7 H13 0.929 . S
N8 Mn1 2.257 1_655 S
N8 C7 1.326 . S
N8 C12 1.362 1_554 S
C9 C10 1.258 . S
C9 C12 1.431 . S
C9 C29 1.449 . S
C10 C9 1.258 . S
C10 C11 1.477 1_556 S
C10 H30 0.931 . S
C11 C7 1.460 . S
C11 C10 1.477 1_554 S
C11 H31 0.930 . S
C12 N8 1.362 1_556 S
C12 C9 1.431 . S
C12 C22 1.476 . S
H13 C7 0.929 . S
C14 O5 1.250 . S
C14 O6 1.258 . S
O15 Mn0 2.162 . S
O15 C3 1.281 1_545 S
O16 Mn0 2.297 1_565 S
O16 C3 1.236 . S
N17 Mn1 2.282 1_556 S
N17 C18 1.328 . S
N17 C22 1.318 1_455 S
C18 N17 1.328 . S
C18 C19 1.457 . S
C18 H23 0.929 . S
C19 C18 1.457 . S
C19 C20 1.291 1_455 S
C19 H32 0.931 . S
C20 C19 1.291 1_655 S
C20 C21 1.373 . S
C20 H33 0.929 . S
C21 C20 1.373 . S
C21 C22 1.396 . S
C21 C28 1.403 . S
C22 C12 1.476 . S
C22 N17 1.318 1_655 S
C22 C21 1.396 . S
H23 C18 0.929 . S
O24 Mn0 2.385 1_565 S
O24 C2 1.234 . S
O25 Mn0 2.209 . S
O25 Mn1 2.215 . S
O25 C2 1.283 1_545 S
O26 Mn0 2.094 . S
O26 C4 1.235 1_554 S
O27 Mn1 2.117 1_556 S
O27 C4 1.266 . S
C28 C21 1.403 . S
C28 C29 1.399 . S
C28 H34 0.929 . S
C29 C9 1.449 . S
C29 C28 1.399 . S
C29 H35 0.930 . S
H30 C10 0.931 . S
H31 C11 0.930 . S
H32 C19 0.931 . S
H33 C20 0.929 . S
H34 C28 0.929 . S
H35 C29 0.930 . S
Mn36 O41 2.095 . S
Mn36 O51 2.162 1_445 S
Mn36 O52 2.297 . S
Mn36 O60 2.385 . S
Mn36 O61 2.209 . S
Mn36 O62 2.094 1_455 S
Mn37 O42 2.121 . S
Mn37 N44 2.257 . S
Mn37 N53 2.282 . S
Mn37 O61 2.215 . S
Mn37 O63 2.117 . S
C38 O60 1.234 . S
C38 O61 1.283 . S
C39 O51 1.281 1_455 S
C39 O52 1.236 1_565 S
C40 O62 1.240 . S
C40 O63 1.264 1_655 S
O41 Mn36 2.095 . S
O41 C50 1.250 . S
O42 Mn37 2.121 . S
O42 C50 1.258 . S
C43 N44 1.326 . S
C43 C47 1.460 . S
C43 H49 0.929 . S
N44 Mn37 2.257 . S
N44 C43 1.326 . S
N44 C48 1.362 . S
C45 C46 1.258 . S
C45 C48 1.431 . S
C45 C65 1.449 . S
C46 C45 1.258 . S
C46 C47 1.477 . S
C46 H66 0.931 . S
C47 C43 1.460 . S
C47 C46 1.477 . S
C47 H67 0.930 . S
C48 N44 1.362 . S
C48 C45 1.431 . S
C48 C58 1.476 . S
H49 C43 0.929 . S
C50 O41 1.250 . S
C50 O42 1.258 . S
O51 Mn36 2.162 1_665 S
O51 C39 1.281 1_655 S
O52 Mn36 2.297 . S
O52 C39 1.236 1_545 S
N53 Mn37 2.282 . S
N53 C54 1.328 . S
N53 C58 1.318 . S
C54 N53 1.328 . S
C54 C55 1.457 . S
C54 H59 0.929 . S
C55 C54 1.457 . S
C55 C56 1.291 . S
C55 H68 0.931 . S
C56 C55 1.291 . S
C56 C57 1.373 . S
C56 H69 0.929 . S
C57 C56 1.373 . S
C57 C58 1.396 . S
C57 C64 1.403 . S
C58 C48 1.476 . S
C58 N53 1.318 . S
C58 C57 1.396 . S
H59 C54 0.929 . S
O60 Mn36 2.385 . S
O60 C38 1.234 . S
O61 Mn36 2.209 . S
O61 Mn37 2.215 . S
O61 C38 1.283 . S
O62 Mn36 2.094 1_655 S
O62 C40 1.240 . S
O63 Mn37 2.117 . S
O63 C40 1.264 1_455 S
C64 C57 1.403 . S
C64 C65 1.399 . S
C64 H70 0.929 . S
C65 C45 1.449 . S
C65 C64 1.399 . S
C65 H71 0.930 . S
H66 C46 0.931 . S
H67 C47 0.930 . S
H68 C55 0.931 . S
H69 C56 0.929 . S
H70 C64 0.929 . S
H71 C65 0.930 . S
Mn72 O77 2.095 . S
Mn72 O87 2.162 1_545 S
Mn72 O88 2.297 . S
Mn72 O96 2.385 . S
Mn72 O97 2.209 . S
Mn72 O98 2.094 1_545 S
Mn73 O78 2.117 1_455 S
Mn73 N80 2.257 . S
Mn73 N89 2.282 . S
Mn73 O97 2.215 . S
Mn73 O99 2.117 1_455 S
C74 O96 1.234 . S
C74 O97 1.283 . S
C75 O87 1.281 1_545 S
C75 O88 1.236 . S
C76 O98 1.240 1_655 S
C76 O99 1.264 1_565 S
O77 Mn72 2.095 . S
O77 C86 1.250 . S
O78 Mn73 2.117 1_655 S
O78 C86 1.253 1_655 S
C79 N80 1.326 . S
C79 C83 1.460 . S
C79 H85 0.929 . S
N80 Mn73 2.257 . S
N80 C79 1.326 . S
N80 C84 1.362 . S
C81 C82 1.258 . S
C81 C84 1.431 . S
C81 C101 1.449 . S
C82 C81 1.258 . S
C82 C83 1.477 . S
C82 H102 0.931 . S
C83 C79 1.460 . S
C83 C82 1.477 . S
C83 H103 0.930 . S
C84 N80 1.362 . S
C84 C81 1.431 . S
C84 C94 1.476 . S
H85 C79 0.929 . S
C86 O77 1.250 . S
C86 O78 1.253 1_455 S
O87 Mn72 2.162 1_565 S
O87 C75 1.281 1_565 S
O88 Mn72 2.297 . S
O88 C75 1.236 . S
N89 Mn73 2.282 . S
N89 C90 1.328 . S
N89 C94 1.318 . S
C90 N89 1.328 . S
C90 C91 1.457 . S
C90 H95 0.929 . S
C91 C90 1.457 . S
C91 C92 1.291 . S
C91 H104 0.931 . S
C92 C91 1.291 . S
C92 C93 1.373 . S
C92 H105 0.929 . S
C93 C92 1.373 . S
C93 C94 1.396 . S
C93 C100 1.403 . S
C94 C84 1.476 . S
C94 N89 1.318 . S
C94 C93 1.396 . S
H95 C90 0.929 . S
O96 Mn72 2.385 . S
O96 C74 1.234 . S
O97 Mn72 2.209 . S
O97 Mn73 2.215 . S
O97 C74 1.283 . S
O98 Mn72 2.094 1_565 S
O98 C76 1.240 1_455 S
O99 Mn73 2.117 1_655 S
O99 C76 1.264 1_545 S
C100 C93 1.403 . S
C100 C101 1.399 . S
C100 H106 0.929 . S
C101 C81 1.449 . S
C101 C100 1.399 . S
C101 H107 0.930 . S
H102 C82 0.931 . S
H103 C83 0.930 . S
H104 C91 0.931 . S
H105 C92 0.929 . S
H106 C100 0.929 . S
H107 C101 0.930 . S
C108 C109 1.443 . S
C108 N112 1.376 . S
C108 C146 1.389 . S
C109 C108 1.443 . S
C109 C110 1.340 . S
C109 H149 0.951 . S
C110 C109 1.340 . S
C110 C111 1.439 . S
C110 H150 0.950 . S
C111 C110 1.439 . S
C111 N112 1.374 . S
C111 C145 1.395 . S
N112 C108 1.376 . S
N112 C111 1.374 . S
N112 Co113 2.008 . S
Co113 N112 2.008 . S
Co113 N114 1.995 . S
Co113 N119 2.008 1_455 S
Co113 N124 1.995 1_455 S
Co113 N129 2.282 . S
Co113 N135 2.282 . S
N114 Co113 1.995 . S
N114 C115 1.376 . S
N114 C118 1.383 . S
C115 N114 1.376 . S
C115 C116 1.446 . S
C115 C145 1.391 . S
C116 C115 1.446 . S
C116 C117 1.339 . S
C116 H151 0.949 . S
C117 C116 1.339 . S
C117 C118 1.439 . S
C117 H152 0.950 . S
C118 N114 1.383 . S
C118 C117 1.439 . S
C118 C147 1.392 . S
N119 Co113 2.008 1_655 S
N119 C120 1.376 . S
N119 C123 1.374 . S
C120 N119 1.376 . S
C120 C121 1.443 . S
C120 C147 1.389 1_655 S
C121 C120 1.443 . S
C121 C122 1.340 . S
C121 H153 0.951 . S
C122 C121 1.340 . S
C122 C123 1.439 . S
C122 H154 0.950 . S
C123 N119 1.374 . S
C123 C122 1.439 . S
C123 C148 1.395 . S
N124 Co113 1.995 1_655 S
N124 C125 1.376 . S
N124 C128 1.383 1_655 S
C125 N124 1.376 . S
C125 C126 1.446 . S
C125 C148 1.391 . S
C126 C125 1.446 . S
C126 C127 1.339 . S
C126 H155 0.949 . S
C127 C126 1.339 . S
C127 C128 1.439 1_655 S
C127 H156 0.950 . S
C128 N124 1.383 1_455 S
C128 C127 1.439 1_455 S
C128 C146 1.392 . S
N129 Co113 2.282 . S
N129 C132 1.332 . S
N129 C134 1.332 . S
C130 C131 1.386 . S
C130 C133 1.388 . S
C131 C130 1.386 . S
C131 C132 1.382 . S
C131 H157 0.950 1_455 S
C132 N129 1.332 . S
C132 C131 1.382 . S
C132 H143 0.952 1_455 S
C133 C130 1.388 . S
C133 C134 1.382 . S
C133 H158 0.950 . S
C134 N129 1.332 . S
C134 C133 1.382 . S
C134 H144 0.948 . S
N135 Co113 2.282 . S
N135 C139 1.332 . S
N135 C140 1.329 1_455 S
C136 C137 1.388 1_655 S
C136 C140 1.384 . S
C136 H159 0.950 . S
C137 C136 1.388 1_455 S
C137 C138 1.386 . S
C138 C137 1.386 . S
C138 C139 1.382 . S
C138 H160 0.950 . S
C139 N135 1.332 . S
C139 C138 1.382 . S
C139 H141 0.952 . S
C140 N135 1.329 1_655 S
C140 C136 1.384 . S
C140 H142 0.950 . S
H141 C139 0.952 . S
H142 C140 0.950 . S
H143 C132 0.952 1_655 S
H144 C134 0.948 . S
C145 C111 1.395 . S
C145 C115 1.391 . S
C146 C108 1.389 . S
C146 C128 1.392 . S
C147 C118 1.392 . S
C147 C120 1.389 1_455 S
C148 C123 1.395 . S
C148 C125 1.391 . S
H149 C109 0.951 . S
H150 C110 0.950 . S
H151 C116 0.949 . S
H152 C117 0.950 . S
H153 C121 0.951 . S
H154 C122 0.950 . S
H155 C126 0.949 . S
H156 C127 0.950 . S
H157 C131 0.950 1_655 S
H158 C133 0.950 . S
H159 C136 0.950 . S
H160 C138 0.950 . S
C161 C162 1.443 1_545 S
C161 N165 1.376 . S
C161 C199 1.389 . S
C162 C161 1.443 1_565 S
C162 C163 1.340 . S
C162 H202 0.951 . S
C163 C162 1.340 . S
C163 C164 1.439 . S
C163 H203 0.950 . S
C164 C163 1.439 . S
C164 N165 1.374 1_565 S
C164 C198 1.395 . S
N165 C161 1.376 . S
N165 C164 1.374 1_545 S
N165 Co166 2.008 . S
Co166 N165 2.008 . S
Co166 N167 1.995 . S
Co166 N172 2.008 . S
Co166 N177 1.995 . S
Co166 N182 2.282 . S
Co166 N188 2.282 . S
N167 Co166 1.995 . S
N167 C168 1.376 1_545 S
N167 C171 1.383 . S
C168 N167 1.376 1_565 S
C168 C169 1.446 . S
C168 C198 1.391 . S
C169 C168 1.446 . S
C169 C170 1.339 . S
C169 H204 0.949 . S
C170 C169 1.339 . S
C170 C171 1.439 1_565 S
C170 H205 0.950 . S
C171 N167 1.383 . S
C171 C170 1.439 1_545 S
C171 C200 1.392 . S
N172 Co166 2.008 . S
N172 C173 1.376 . S
N172 C176 1.374 . S
C173 N172 1.376 . S
C173 C174 1.443 . S
C173 C200 1.389 . S
C174 C173 1.443 . S
C174 C175 1.340 . S
C174 H206 0.951 . S
C175 C174 1.340 . S
C175 C176 1.439 . S
C175 H207 0.950 . S
C176 N172 1.374 . S
C176 C175 1.439 . S
C176 C201 1.395 . S
N177 Co166 1.995 . S
N177 C178 1.376 . S
N177 C181 1.383 . S
C178 N177 1.376 . S
C178 C179 1.446 . S
C178 C201 1.391 . S
C179 C178 1.446 . S
C179 C180 1.339 . S
C179 H208 0.949 . S
C180 C179 1.339 . S
C180 C181 1.439 . S
C180 H209 0.950 . S
C181 N177 1.383 . S
C181 C180 1.439 . S
C181 C199 1.392 . S
N182 Co166 2.282 . S
N182 C185 1.332 . S
N182 C187 1.332 . S
C183 C184 1.386 . S
C183 C186 1.388 . S
C184 C183 1.386 . S
C184 C185 1.382 . S
C184 H210 0.950 . S
C185 N182 1.332 . S
C185 C184 1.382 . S
C185 H196 0.952 . S
C186 C183 1.388 . S
C186 C187 1.382 . S
C186 H211 0.950 . S
C187 N182 1.332 . S
C187 C186 1.382 . S
C187 H197 0.948 . S
N188 Co166 2.282 . S
N188 C192 1.332 . S
N188 C193 1.332 . S
C189 C190 1.388 . S
C189 C193 1.382 . S
C189 H212 0.950 . S
C190 C189 1.388 . S
C190 C191 1.386 . S
C191 C190 1.386 . S
C191 C192 1.382 . S
C191 H213 0.950 . S
C192 N188 1.332 . S
C192 C191 1.382 . S
C192 H194 0.952 . S
C193 N188 1.332 . S
C193 C189 1.382 . S
C193 H195 0.948 . S
H194 C192 0.952 . S
H195 C193 0.948 . S
H196 C185 0.952 . S
H197 C187 0.948 . S
C198 C164 1.395 . S
C198 C168 1.391 . S
C199 C161 1.389 . S
C199 C181 1.392 . S
C200 C171 1.392 . S
C200 C173 1.389 . S
C201 C176 1.395 . S
C201 C178 1.391 . S
H202 C162 0.951 . S
H203 C163 0.950 . S
H204 C169 0.949 . S
H205 C170 0.950 . S
H206 C174 0.951 . S
H207 C175 0.950 . S
H208 C179 0.949 . S
H209 C180 0.950 . S
H210 C184 0.950 . S
H211 C186 0.950 . S
H212 C189 0.950 . S
H213 C191 0.950 . S
C214 C215 1.443 . S
C214 N218 1.376 . S
C214 C252 1.389 . S
C215 C214 1.443 . S
C215 C216 1.340 . S
C215 H255 0.951 . S
C216 C215 1.340 . S
C216 C217 1.439 . S
C216 H256 0.950 . S
C217 C216 1.439 . S
C217 N218 1.374 . S
C217 C251 1.395 . S
N218 C214 1.376 . S
N218 C217 1.374 . S
N218 Co219 2.008 . S
Co219 N218 2.008 . S
Co219 N220 1.995 . S
Co219 N225 2.008 . S
Co219 N230 1.995 . S
Co219 N235 2.282 . S
Co219 N241 2.282 . S
N220 Co219 1.995 . S
N220 C221 1.376 . S
N220 C224 1.383 . S
C221 N220 1.376 . S
C221 C222 1.446 . S
C221 C251 1.391 . S
C222 C221 1.446 . S
C222 C223 1.339 . S
C222 H257 0.949 . S
C223 C222 1.339 . S
C223 C224 1.439 . S
C223 H258 0.950 . S
C224 N220 1.383 . S
C224 C223 1.439 . S
C224 C253 1.392 . S
N225 Co219 2.008 . S
N225 C226 1.376 . S
N225 C229 1.374 . S
C226 N225 1.376 . S
C226 C227 1.443 . S
C226 C253 1.389 . S
C227 C226 1.443 . S
C227 C228 1.340 . S
C227 H259 0.951 . S
C228 C227 1.340 . S
C228 C229 1.439 . S
C228 H260 0.950 . S
C229 N225 1.374 . S
C229 C228 1.439 . S
C229 C254 1.395 . S
N230 Co219 1.995 . S
N230 C231 1.376 . S
N230 C234 1.383 . S
C231 N230 1.376 . S
C231 C232 1.446 . S
C231 C254 1.391 . S
C232 C231 1.446 . S
C232 C233 1.339 . S
C232 H261 0.949 . S
C233 C232 1.339 . S
C233 C234 1.439 . S
C233 H262 0.950 . S
C234 N230 1.383 . S
C234 C233 1.439 . S
C234 C252 1.392 . S
N235 Co219 2.282 . S
N235 C238 1.332 . S
N235 C240 1.332 . S
C236 C237 1.386 . S
C236 C239 1.388 . S
C237 C236 1.386 . S
C237 C238 1.382 . S
C237 H263 0.950 . S
C238 N235 1.332 . S
C238 C237 1.382 . S
C238 H249 0.952 . S
C239 C236 1.388 . S
C239 C240 1.382 . S
C239 H264 0.950 . S
C240 N235 1.332 . S
C240 C239 1.382 . S
C240 H250 0.948 . S
N241 Co219 2.282 . S
N241 C245 1.332 . S
N241 C246 1.332 . S
C242 C243 1.388 . S
C242 C246 1.382 . S
C242 H265 0.950 . S
C243 C242 1.388 . S
C243 C244 1.386 . S
C244 C243 1.386 . S
C244 C245 1.382 . S
C244 H266 0.950 . S
C245 N241 1.332 . S
C245 C244 1.382 . S
C245 H247 0.952 . S
C246 N241 1.332 . S
C246 C242 1.382 . S
C246 H248 0.948 . S
H247 C245 0.952 . S
H248 C246 0.948 . S
H249 C238 0.952 . S
H250 C240 0.948 . S
C251 C217 1.395 . S
C251 C221 1.391 . S
C252 C214 1.389 . S
C252 C234 1.392 . S
C253 C224 1.392 . S
C253 C226 1.389 . S
C254 C229 1.395 . S
C254 C231 1.391 . S
H255 C215 0.951 . S
H256 C216 0.950 . S
H257 C222 0.949 . S
H258 C223 0.950 . S
H259 C227 0.951 . S
H260 C228 0.950 . S
H261 C232 0.949 . S
H262 C233 0.950 . S
H263 C237 0.950 . S
H264 C239 0.950 . S
H265 C242 0.950 . S
H266 C244 0.950 . S
H267 C273 0.930 . S
H268 C276 0.930 . S
H269 C277 0.930 . S
H270 C278 0.930 . S
H271 C281 0.930 . S
H272 C282 0.930 . S
C273 H267 0.930 . S
C273 C274 1.355 . S
C273 C275 1.415 . S
C274 C273 1.355 . S
C274 C276 1.419 . S
C275 C273 1.415 . S
C275 C280 1.425 . S
C275 C282 1.409 . S
C276 H268 0.930 . S
C276 C274 1.419 . S
C276 C277 1.362 . S
C277 H269 0.930 . S
C277 C276 1.362 . S
C277 C280 1.409 . S
C278 H270 0.930 . S
C278 C279 1.355 . S
C278 C280 1.415 . S
C279 C278 1.355 . S
C279 C281 1.419 . S
C280 C275 1.425 . S
C280 C277 1.409 . S
C280 C278 1.415 . S
C281 H271 0.930 . S
C281 C279 1.419 . S
C281 C282 1.362 . S
C282 H272 0.930 . S
C282 C275 1.409 . S
C282 C281 1.362 . S
H283 C289 0.930 . S
H284 C292 0.930 . S
H285 C293 0.930 . S
H286 C294 0.930 . S
H287 C297 0.930 . S
H288 C298 0.930 . S
C289 H283 0.930 . S
C289 C290 1.355 . S
C289 C291 1.415 . S
C290 C289 1.355 . S
C290 C292 1.419 . S
C291 C289 1.415 . S
C291 C296 1.425 . S
C291 C298 1.409 . S
C292 H284 0.930 . S
C292 C290 1.419 . S
C292 C293 1.362 . S
C293 H285 0.930 . S
C293 C292 1.362 . S
C293 C296 1.409 . S
C294 H286 0.930 . S
C294 C295 1.355 . S
C294 C296 1.415 . S
C295 C294 1.355 . S
C295 C297 1.419 . S
C296 C291 1.425 . S
C296 C293 1.409 . S
C296 C294 1.415 . S
C297 H287 0.930 . S
C297 C295 1.419 . S
C297 C298 1.362 . S
C298 H288 0.930 . S
C298 C291 1.409 . S
C298 C297 1.362 . S
H299 C305 0.930 . S
H300 C308 0.930 1_455 S
H301 C309 0.930 . S
H302 C310 0.930 . S
H303 C313 0.930 . S
H304 C314 0.930 . S
C305 H299 0.930 . S
C305 C306 1.355 . S
C305 C307 1.415 . S
C306 C305 1.355 . S
C306 C308 1.419 . S
C307 C305 1.415 . S
C307 C312 1.425 . S
C307 C314 1.409 . S
C308 H300 0.930 1_655 S
C308 C306 1.419 . S
C308 C309 1.362 . S
C309 H301 0.930 . S
C309 C308 1.362 . S
C309 C312 1.409 . S
C310 H302 0.930 . S
C310 C311 1.355 . S
C310 C312 1.415 . S
C311 C310 1.355 . S
C311 C313 1.419 . S
C312 C307 1.425 . S
C312 C309 1.409 . S
C312 C310 1.415 . S
C313 H303 0.930 . S
C313 C311 1.419 . S
C313 C314 1.362 . S
C314 H304 0.930 . S
C314 C307 1.409 . S
C314 C313 1.362 . S
H315 C321 0.930 . S
H316 C324 0.930 . S
H317 C325 0.930 . S
H318 C326 0.930 . S
H319 C329 0.930 1_655 S
H320 C330 0.930 1_655 S
C321 H315 0.930 . S
C321 C322 1.355 . S
C321 C323 1.415 . S
C322 C321 1.355 . S
C322 C324 1.419 . S
C323 C321 1.415 . S
C323 C328 1.425 . S
C323 C330 1.409 . S
C324 H316 0.930 . S
C324 C322 1.419 . S
C324 C325 1.362 . S
C325 H317 0.930 . S
C325 C324 1.362 . S
C325 C328 1.409 . S
C326 H318 0.930 . S
C326 C327 1.355 . S
C326 C328 1.415 . S
C327 C326 1.355 . S
C327 C329 1.419 . S
C328 C323 1.425 . S
C328 C325 1.409 . S
C328 C326 1.415 . S
C329 H319 0.930 1_455 S
C329 C327 1.419 . S
C329 C330 1.362 . S
C330 H320 0.930 1_455 S
C330 C323 1.409 . S
C330 C329 1.362 . S
H331 C337 0.930 . S
H332 C340 0.930 . S
H333 C341 0.930 . S
H334 C342 0.930 . S
H335 C345 0.930 . S
H336 C346 0.930 . S
C337 H331 0.930 . S
C337 C338 1.355 . S
C337 C339 1.415 . S
C338 C337 1.355 . S
C338 C340 1.419 . S
C339 C337 1.415 . S
C339 C344 1.425 . S
C339 C346 1.409 . S
C340 H332 0.930 . S
C340 C338 1.419 . S
C340 C341 1.362 . S
C341 H333 0.930 . S
C341 C340 1.362 . S
C341 C344 1.409 . S
C342 H334 0.930 . S
C342 C343 1.355 . S
C342 C344 1.415 . S
C343 C342 1.355 . S
C343 C345 1.419 . S
C344 C339 1.425 . S
C344 C341 1.409 . S
C344 C342 1.415 . S
C345 H335 0.930 . S
C345 C343 1.419 . S
C345 C346 1.362 . S
C346 H336 0.930 . S
C346 C339 1.409 . S
C346 C345 1.362 . S
H347 C353 0.930 . S
H348 C356 0.930 . S
H349 C357 0.930 . S
H350 C358 0.930 . S
H351 C361 0.930 . S
H352 C362 0.930 . S
C353 H347 0.930 . S
C353 C354 1.355 . S
C353 C355 1.415 . S
C354 C353 1.355 . S
C354 C356 1.419 . S
C355 C353 1.415 . S
C355 C360 1.425 . S
C355 C362 1.409 . S
C356 H348 0.930 . S
C356 C354 1.419 . S
C356 C357 1.362 . S
C357 H349 0.930 . S
C357 C356 1.362 . S
C357 C360 1.409 . S
C358 H350 0.930 . S
C358 C359 1.355 . S
C358 C360 1.415 . S
C359 C358 1.355 . S
C359 C361 1.419 . S
C360 C355 1.425 . S
C360 C357 1.409 . S
C360 C358 1.415 . S
C361 H351 0.930 . S
C361 C359 1.419 . S
C361 C362 1.362 . S
C362 H352 0.930 . S
C362 C355 1.409 . S
C362 C361 1.362 . S
H363 C369 0.930 . S
H364 C372 0.930 1_455 S
H365 C373 0.930 . S
H366 C374 0.930 . S
H367 C377 0.930 . S
H368 C378 0.930 . S
C369 H363 0.930 . S
C369 C370 1.355 . S
C369 C371 1.415 . S
C370 C369 1.355 . S
C370 C372 1.419 . S
C371 C369 1.415 . S
C371 C376 1.425 . S
C371 C378 1.409 . S
C372 H364 0.930 1_655 S
C372 C370 1.419 . S
C372 C373 1.362 . S
C373 H365 0.930 . S
C373 C372 1.362 . S
C373 C376 1.409 . S
C374 H366 0.930 . S
C374 C375 1.355 . S
C374 C376 1.415 . S
C375 C374 1.355 . S
C375 C377 1.419 . S
C376 C371 1.425 . S
C376 C373 1.409 . S
C376 C374 1.415 . S
C377 H367 0.930 . S
C377 C375 1.419 . S
C377 C378 1.362 . S
C378 H368 0.930 . S
C378 C371 1.409 . S
C378 C377 1.362 . S
H379 C385 0.930 1_455 S
H380 C388 0.930 . S
H381 C389 0.930 1_554 S
H382 C390 0.930 . S
H383 C393 0.930 . S
H384 C394 0.930 . S
C385 H379 0.930 1_655 S
C385 C386 1.355 . S
C385 C387 1.415 . S
C386 C385 1.355 . S
C386 C388 1.419 1_556 S
C387 C385 1.415 . S
C387 C392 1.425 . S
C387 C394 1.409 . S
C388 H380 0.930 . S
C388 C386 1.419 1_554 S
C388 C389 1.362 1_554 S
C389 H381 0.930 1_556 S
C389 C388 1.362 1_556 S
C389 C392 1.409 . S
C390 H382 0.930 . S
C390 C391 1.355 . S
C390 C392 1.415 . S
C391 C390 1.355 . S
C391 C393 1.419 . S
C392 C387 1.425 . S
C392 C389 1.409 . S
C392 C390 1.415 . S
C393 H383 0.930 . S
C393 C391 1.419 . S
C393 C394 1.362 . S
C394 H384 0.930 . S
C394 C387 1.409 . S
C394 C393 1.362 . S
H395 C401 0.930 . S
H396 C404 0.930 . S
H397 C405 0.930 . S
H398 C406 0.930 . S
H399 C409 0.930 . S
H400 C410 0.930 . S
C401 H395 0.930 . S
C401 C402 1.355 . S
C401 C403 1.415 . S
C402 C401 1.355 . S
C402 C404 1.419 . S
C403 C401 1.415 . S
C403 C408 1.425 . S
C403 C410 1.409 . S
C404 H396 0.930 . S
C404 C402 1.419 . S
C404 C405 1.362 . S
C405 H397 0.930 . S
C405 C404 1.362 . S
C405 C408 1.409 . S
C406 H398 0.930 . S
C406 C407 1.355 . S
C406 C408 1.415 . S
C407 C406 1.355 . S
C407 C409 1.419 . S
C408 C403 1.425 . S
C408 C405 1.409 . S
C408 C406 1.415 . S
C409 H399 0.930 . S
C409 C407 1.419 . S
C409 C410 1.362 . S
C410 H400 0.930 . S
C410 C403 1.409 . S
C410 C409 1.362 . S
H411 C417 0.930 . S
H412 C420 0.930 1_565 S
H413 C421 0.930 . S
H414 C422 0.930 . S
H415 C425 0.930 . S
H416 C426 0.930 . S
C417 H411 0.930 . S
C417 C418 1.355 . S
C417 C419 1.415 . S
C418 C417 1.355 . S
C418 C420 1.419 . S
C419 C417 1.415 . S
C419 C424 1.425 . S
C419 C426 1.409 . S
C420 H412 0.930 1_545 S
C420 C418 1.419 . S
C420 C421 1.362 . S
C421 H413 0.930 . S
C421 C420 1.362 . S
C421 C424 1.409 . S
C422 H414 0.930 . S
C422 C423 1.355 . S
C422 C424 1.415 . S
C423 C422 1.355 . S
C423 C425 1.419 . S
C424 C419 1.425 . S
C424 C421 1.409 . S
C424 C422 1.415 . S
C425 H415 0.930 . S
C425 C423 1.419 . S
C425 C426 1.362 . S
C426 H416 0.930 . S
C426 C419 1.409 . S
C426 C425 1.362 . S
H427 C433 0.930 . S
H428 C436 0.930 . S
H429 C437 0.930 . S
H430 C438 0.930 . S
H431 C441 0.930 . S
H432 C442 0.930 . S
C433 H427 0.930 . S
C433 C434 1.355 . S
C433 C435 1.415 . S
C434 C433 1.355 . S
C434 C436 1.419 . S
C435 C433 1.415 . S
C435 C440 1.425 . S
C435 C442 1.409 . S
C436 H428 0.930 . S
C436 C434 1.419 . S
C436 C437 1.362 . S
C437 H429 0.930 . S
C437 C436 1.362 . S
C437 C440 1.409 . S
C438 H430 0.930 . S
C438 C439 1.355 . S
C438 C440 1.415 . S
C439 C438 1.355 . S
C439 C441 1.419 . S
C440 C435 1.425 . S
C440 C437 1.409 . S
C440 C438 1.415 . S
C441 H431 0.930 . S
C441 C439 1.419 . S
C441 C442 1.362 . S
C442 H432 0.930 . S
C442 C435 1.409 . S
C442 C441 1.362 . S
H443 C449 0.930 . S
H444 C452 0.930 . S
H445 C453 0.930 . S
H446 C454 0.930 . S
H447 C457 0.930 1_655 S
H448 C458 0.930 . S
C449 H443 0.930 . S
C449 C450 1.355 . S
C449 C451 1.415 . S
C450 C449 1.355 . S
C450 C452 1.419 . S
C451 C449 1.415 . S
C451 C456 1.425 . S
C451 C458 1.409 1_455 S
C452 H444 0.930 . S
C452 C450 1.419 . S
C452 C453 1.362 . S
C453 H445 0.930 . S
C453 C452 1.362 . S
C453 C456 1.409 . S
C454 H446 0.930 . S
C454 C455 1.355 . S
C454 C456 1.415 . S
C455 C454 1.355 . S
C455 C457 1.419 . S
C456 C451 1.425 . S
C456 C453 1.409 . S
C456 C454 1.415 . S
C457 H447 0.930 1_455 S
C457 C455 1.419 . S
C457 C458 1.362 1_455 S
C458 H448 0.930 . S
C458 C451 1.409 1_655 S
C458 C457 1.362 1_655 S
C279 C130 1.478 . S
C274 C14 1.462 . S
C290 C40 1.512 . S
C295 C200 1.518 . S
C306 C76 1.450 . S
C311 C252 1.471 . S
C322 C3 1.472 . S
C327 C146 1.471 . S
C343 C190 1.497 . S
C338 C38 1.477 . S
C354 C74 1.471 . S
C359 C236 1.469 . S
C375 C183 1.457 . S
C370 C86 1.452 1_655 S
C386 C2 1.473 1_656 S
C391 C243 1.479 . S
C407 C137 1.465 . S
C402 C39 1.464 . S
C423 C199 1.486 . S
C418 C75 1.485 . S
C439 C253 1.476 . S
C434 C4 1.451 . S
C450 C50 1.423 . S
C455 C147 1.486 . S
