# Generated by pormake.
# Topology zzz, (3,6)-cn, num edge types: 1
# Building blocks:
#     Node 0, Type 0, BuildingBlock: OLANEW_clean_sbu_2, # of connection points: 3
#     Node 1, Type 0, BuildingBlock: OLANEW_clean_sbu_2, # of connection points: 3
#     Node 2, Type 0, BuildingBlock: OLANEW_clean_sbu_2, # of connection points: 3
#     Node 3, Type 0, BuildingBlock: OLANEW_clean_sbu_2, # of connection points: 3
#     Node 4, Type 0, BuildingBlock: OLANEW_clean_sbu_2, # of connection points: 3
#     Node 5, Type 0, BuildingBlock: OLANEW_clean_sbu_2, # of connection points: 3
#     Node 6, Type 0, BuildingBlock: OLANEW_clean_sbu_2, # of connection points: 3
#     Node 7, Type 0, BuildingBlock: OLANEW_clean_sbu_2, # of connection points: 3
#     Node 8, Type 1, BuildingBlock: VOLQOD_clean_sbu_1, # of connection points: 6
#     Node 9, Type 1, BuildingBlock: VOLQOD_clean_sbu_1, # of connection points: 6
#     Node 10, Type 1, BuildingBlock: VOLQOD_clean_sbu_1, # of connection points: 6
#     Node 11, Type 1, BuildingBlock: VOLQOD_clean_sbu_1, # of connection points: 6
#     Edge 12, Type (0, 1), BuildingBlock: UVAHIK_clean_linker_0, # of connection points: 2
#     Edge 13, Type (0, 1), BuildingBlock: UVAHIK_clean_linker_0, # of connection points: 2
#     Edge 14, Type (0, 1), BuildingBlock: UVAHIK_clean_linker_0, # of connection points: 2
#     Edge 15, Type (0, 1), BuildingBlock: UVAHIK_clean_linker_0, # of connection points: 2
#     Edge 16, Type (0, 1), BuildingBlock: UVAHIK_clean_linker_0, # of connection points: 2
#     Edge 17, Type (0, 1), BuildingBlock: UVAHIK_clean_linker_0, # of connection points: 2
#     Edge 18, Type (0, 1), BuildingBlock: UVAHIK_clean_linker_0, # of connection points: 2
#     Edge 19, Type (0, 1), BuildingBlock: UVAHIK_clean_linker_0, # of connection points: 2
#     Edge 20, Type (0, 1), BuildingBlock: UVAHIK_clean_linker_0, # of connection points: 2
#     Edge 21, Type (0, 1), BuildingBlock: UVAHIK_clean_linker_0, # of connection points: 2
#     Edge 22, Type (0, 1), BuildingBlock: UVAHIK_clean_linker_0, # of connection points: 2
#     Edge 23, Type (0, 1), BuildingBlock: UVAHIK_clean_linker_0, # of connection points: 2
#     Edge 24, Type (0, 1), BuildingBlock: UVAHIK_clean_linker_0, # of connection points: 2
#     Edge 25, Type (0, 1), BuildingBlock: UVAHIK_clean_linker_0, # of connection points: 2
#     Edge 26, Type (0, 1), BuildingBlock: UVAHIK_clean_linker_0, # of connection points: 2
#     Edge 27, Type (0, 1), BuildingBlock: UVAHIK_clean_linker_0, # of connection points: 2
#     Edge 28, Type (0, 1), BuildingBlock: UVAHIK_clean_linker_0, # of connection points: 2
#     Edge 29, Type (0, 1), BuildingBlock: UVAHIK_clean_linker_0, # of connection points: 2
#     Edge 30, Type (0, 1), BuildingBlock: UVAHIK_clean_linker_0, # of connection points: 2
#     Edge 31, Type (0, 1), BuildingBlock: UVAHIK_clean_linker_0, # of connection points: 2
#     Edge 32, Type (0, 1), BuildingBlock: UVAHIK_clean_linker_0, # of connection points: 2
#     Edge 33, Type (0, 1), BuildingBlock: UVAHIK_clean_linker_0, # of connection points: 2
#     Edge 34, Type (0, 1), BuildingBlock: UVAHIK_clean_linker_0, # of connection points: 2
#     Edge 35, Type (0, 1), BuildingBlock: UVAHIK_clean_linker_0, # of connection points: 2
# Relax obj value: 0.190
# Max RMSD: 0.235
# Mean RMSD: 0.108
data_MOF--net-zzz--node1-OLANEW_clean_sbu_2--node2-VOLQOD_clean_sbu_1--edge1-UVAHIK_clean_linker_0
_symmetry_space_group_name_H-M    P1
_symmetry_Int_Tables_number       1
_symmetry_cell_setting            triclinic
loop_
_symmetry_equiv_pos_as_xyz
'x, y, z'
_cell_length_a     67.84207
_cell_length_b     67.331344
_cell_length_c     24.113584
_cell_angle_alpha  90.132543
_cell_angle_beta   89.860657
_cell_angle_gamma 90.978545
loop_
_atom_site_label
_atom_site_type_symbol
_atom_site_fract_x
_atom_site_fract_y
_atom_site_fract_z
_atom_type_partial_charge
O0 O 0.73938 0.47451 0.98701 0.0
Cd1 Cd 0.75039 0.47293 0.8902 0.0
O2 O 0.746 0.47381 0.07603 0.0
Cd3 Cd 0.76698 0.47367 0.14441 0.0
O4 O 0.79111 0.4732 0.20366 0.0
C5 C 0.80639 0.48392 0.19494 0.0
O6 O 0.80718 0.49512 0.15039 0.0
C7 C 0.75192 0.47388 0.02598 0.0
C8 C 0.71862 0.47399 0.81777 0.0
O9 O 0.72763 0.49002 0.83264 0.0
O10 O 0.7248 0.45748 0.83684 0.0
O11 O 0.07845 0.75601 0.02599 0.0
Cd12 Cd 0.06715 0.76547 0.93344 0.0
O13 O 0.08066 0.76399 0.11432 0.0
Cd14 Cd 0.07245 0.78433 0.1807 0.0
O15 O 0.05736 0.80464 0.2364 0.0
C16 C 0.05737 0.82312 0.22581 0.0
O17 O 0.06707 0.82972 0.18221 0.0
C18 C 0.07534 0.76815 0.06531 0.0
C19 C 0.04035 0.73723 0.89341 0.0
O20 O 0.03472 0.75118 0.92562 0.0
O21 O 0.05857 0.73684 0.87929 0.0
O22 O 0.71454 0.93684 0.03403 0.0
Cd23 Cd 0.7442 0.91737 0.04437 0.0
O24 O 0.73217 0.96322 0.05747 0.0
Cd25 Cd 0.73139 0.99359 0.08902 0.0
O26 O 0.71114 0.00396 0.15253 0.0
C27 C 0.70423 0.98953 0.18084 0.0
O28 O 0.71065 0.97159 0.17045 0.0
C29 C 0.71572 0.95538 0.0436 0.0
C30 C 0.77618 0.93741 0.99691 0.0
O31 O 0.77134 0.94049 0.04757 0.0
O32 O 0.76602 0.92468 0.96899 0.0
O33 O 0.61467 0.71474 0.97053 0.0
Cd34 Cd 0.6323 0.74169 0.01777 0.0
O35 O 0.58776 0.72651 0.00776 0.0
Cd36 Cd 0.55697 0.7226 0.03259 0.0
O37 O 0.53485 0.70642 0.08085 0.0
C38 C 0.52446 0.69242 0.06001 0.0
O39 O 0.52586 0.68868 0.00669 0.0
C40 C 0.59612 0.71367 0.97739 0.0
C41 C 0.61717 0.77794 0.98491 0.0
O42 O 0.60943 0.76822 0.02532 0.0
O43 O 0.63225 0.77064 0.96064 0.0
O44 O 0.19174 0.6466 0.43268 0.0
Cd45 Cd 0.2208 0.66616 0.4066 0.0
O46 O 0.19821 0.62584 0.36479 0.0
Cd47 Cd 0.18848 0.60039 0.31471 0.0
O48 O 0.16723 0.58085 0.27283 0.0
C49 C 0.17173 0.56957 0.23261 0.0
O50 O 0.19014 0.56906 0.21571 0.0
C51 C 0.18766 0.63076 0.4061 0.0
C52 C 0.25404 0.64543 0.43848 0.0
O53 O 0.24624 0.65817 0.47105 0.0
O54 O 0.24634 0.64285 0.39045 0.0
O55 O 0.12644 0.22282 0.50549 0.0
Cd56 Cd 0.14432 0.25222 0.47348 0.0
O57 O 0.11922 0.21612 0.41888 0.0
Cd58 Cd 0.10328 0.19991 0.35395 0.0
O59 O 0.0898 0.17916 0.29521 0.0
C60 C 0.09784 0.16245 0.28777 0.0
O61 O 0.11391 0.15838 0.31551 0.0
C62 C 0.11749 0.212 0.47013 0.0
C63 C 0.12197 0.28428 0.50717 0.0
O64 O 0.1187 0.27566 0.46058 0.0
O65 O 0.13633 0.27822 0.53674 0.0
O66 O 0.29321 0.90084 0.38795 0.0
Cd67 Cd 0.25986 0.89339 0.35627 0.0
O68 O 0.29076 0.92881 0.34229 0.0
Cd69 Cd 0.30385 0.95586 0.30696 0.0
O70 O 0.32245 0.97415 0.25283 0.0
C71 C 0.32304 0.9686 0.20248 0.0
O72 O 0.31212 0.95326 0.18713 0.0
C73 C 0.30068 0.91743 0.3732 0.0
C74 C 0.23282 0.91254 0.42397 0.0
O75 O 0.24106 0.92156 0.38309 0.0
O76 O 0.23722 0.89437 0.43254 0.0
O77 O 0.4081 0.2709 0.30248 0.0
Cd78 Cd 0.39713 0.23711 0.28116 0.0
O79 O 0.39382 0.28335 0.22878 0.0
Cd80 Cd 0.38938 0.30904 0.17512 0.0
O81 O 0.39344 0.33583 0.12515 0.0
C82 C 0.40713 0.34808 0.13824 0.0
O83 O 0.41807 0.34436 0.18177 0.0
C84 C 0.40392 0.28576 0.27267 0.0
C85 C 0.41674 0.21031 0.34851 0.0
O86 O 0.4234 0.2149 0.30034 0.0
O87 O 0.40068 0.21827 0.36463 0.0
O88 O 0.06159 0.98939 0.75112 0.0
Zn89 Zn 0.03599 0.99146 0.79424 0.0
O90 O 0.0136 0.99655 0.74516 0.0
Zn91 Zn -0.00012 0.02039 0.7698 0.0
Zn92 Zn 0.02291 0.00043 0.66965 0.0
Zn93 Zn 0.99557 0.97375 0.74512 0.0
O94 O 0.97087 0.01454 0.78382 0.0
O95 O 0.96827 0.98233 0.76379 0.0
O96 O 0.03876 0.01297 0.85222 0.0
O97 O 0.01204 0.03105 0.84011 0.0
O98 O 0.00318 0.04262 0.71382 0.0
O99 O 0.01906 0.0283 0.64425 0.0
O100 O 0.01065 0.98118 0.61574 0.0
O101 O 0.03191 0.96557 0.83474 0.0
O102 O 0.99464 0.96007 0.67076 0.0
O103 O 0.00373 0.95343 0.80126 0.0
C104 C 0.06528 0.9912 0.69951 0.0
C105 C 0.96058 0.99861 0.77879 0.0
C106 C 0.01129 0.0435 0.66612 0.0
C107 C 0.02774 0.02723 0.86662 0.0
C108 C 0.0007 0.96519 0.62279 0.0
C109 C 0.01851 0.9521 0.83343 0.0
O110 O 0.05178 0.9954 0.66521 0.0
O111 O 0.50607 0.05344 0.7159 0.0
Zn112 Zn 0.51229 0.02959 0.76461 0.0
O113 O 0.51803 0.00623 0.71776 0.0
Zn114 Zn 0.50143 0.98381 0.74084 0.0
Zn115 Zn 0.51345 0.01165 0.63943 0.0
Zn116 Zn 0.54548 -0.0008 0.72543 0.0
O117 O 0.51736 0.9609 0.76893 0.0
O118 O 0.54805 0.97117 0.75226 0.0
O119 O 0.48857 0.02422 0.81393 0.0
O120 O 0.48252 0.99208 0.79996 0.0
O121 O 0.48428 0.97428 0.67833 0.0
O122 O 0.49122 0.99464 0.60845 0.0
O123 O 0.53768 0.00784 0.5921 0.0
O124 O 0.53537 0.03585 0.81631 0.0
O125 O 0.56067 0.00173 0.65456 0.0
O126 O 0.55859 0.01631 0.78208 0.0
C127 C 0.50421 0.05494 0.66339 0.0
C128 C 0.53586 0.95797 0.76936 0.0
C129 C 0.48132 0.98017 0.62899 0.0
C130 C 0.47862 0.00841 0.82396 0.0
C131 C 0.55557 0.00467 0.60459 0.0
C132 C 0.553 0.02957 0.81598 0.0
O133 O 0.50644 0.04011 0.63126 0.0
O134 O 0.43436 0.53734 0.63126 0.0
Zn135 Zn 0.46106 0.52793 0.65729 0.0
O136 O 0.4759 0.51686 0.59424 0.0
Zn137 Zn 0.48489 0.49036 0.61238 0.0
Zn138 Zn 0.45951 0.51535 0.52781 0.0
Zn139 Zn 0.49861 0.53384 0.57811 0.0
O140 O 0.51454 0.48899 0.61115 0.0
O141 O 0.52388 0.5188 0.58079 0.0
O142 O 0.45668 0.50701 0.7168 0.0
O143 O 0.47513 0.48212 0.68757 0.0
O144 O 0.47425 0.47008 0.55849 0.0
O145 O 0.45709 0.48747 0.49781 0.0
O146 O 0.46971 0.5333 0.46696 0.0
O147 O 0.47599 0.5512 0.6929 0.0
O148 O 0.49616 0.54752 0.50482 0.0
O149 O 0.50125 0.5551 0.63512 0.0
C150 C 0.42491 0.53447 0.58615 0.0
C151 C 0.52801 0.50131 0.59645 0.0
C152 C 0.46364 0.47101 0.51514 0.0
C153 C 0.46374 0.48975 0.72354 0.0
C154 C 0.48408 0.54566 0.46478 0.0
C155 C 0.49176 0.56033 0.67809 0.0
O156 O 0.43262 0.5254 0.5453 0.0
O157 O 0.96627 0.50733 0.62252 0.0
Zn158 Zn 0.98642 0.51598 0.67892 0.0
O159 O 0.99012 0.49591 0.73613 0.0
Zn160 Zn 0.98317 0.5069 0.80879 0.0
Zn161 Zn 0.97336 0.47263 0.7195 0.0
Zn162 Zn 0.01773 0.48834 0.73694 0.0
O163 O 0.00584 0.50533 0.86287 0.0
O164 O 0.03015 0.49375 0.81103 0.0
O165 O 0.97821 0.54179 0.71229 0.0
O166 O 0.97648 0.53591 0.8027 0.0
O167 O 0.95954 0.49255 0.84054 0.0
O168 O 0.95337 0.46811 0.78065 0.0
O169 O 0.98965 0.44797 0.70785 0.0
O170 O 0.01168 0.52227 0.639 0.0
O171 O 0.02021 0.45937 0.72133 0.0
O172 O 0.03379 0.50331 0.67965 0.0
C173 C 0.95616 0.4914 0.61611 0.0
C174 C 0.02372 0.5002 0.8572 0.0
C175 C 0.94937 0.47743 0.82526 0.0
C176 C 0.97509 0.54767 0.76165 0.0
C177 C 0.00817 0.44522 0.71032 0.0
C178 C 0.02928 0.51633 0.64388 0.0
O179 O 0.9576 0.47696 0.64982 0.0
C180 C 0.21736 0.94357 0.45942 0.0
C181 C 0.21849 0.92277 0.45984 0.0
C182 C 0.20344 0.95323 0.49216 0.0
C183 C 0.16742 0.94503 0.60798 0.0
H184 H 0.14154 0.98982 0.54081 0.0
C185 C 0.08852 0.9868 0.62015 0.0
C186 C 0.08527 0.98716 0.67774 0.0
C187 C 0.10673 0.98141 0.59857 0.0
C188 C 0.14854 0.97728 0.56015 0.0
H189 H 0.20611 0.89575 0.49529 0.0
H190 H 0.1813 0.91244 0.55053 0.0
H191 H 0.16927 0.9749 0.49393 0.0
H192 H 0.09894 0.98281 0.75792 0.0
H193 H 0.13105 0.97381 0.72008 0.0
H194 H 0.14576 0.94662 0.67237 0.0
C195 C 0.1915 0.92144 0.52633 0.0
C196 C 0.1647 0.96887 0.5336 0.0
C197 C 0.20563 0.91182 0.49424 0.0
C198 C 0.10093 0.9826 0.71335 0.0
C199 C 0.11929 0.97732 0.69164 0.0
C200 C 0.15107 0.95329 0.63421 0.0
C201 C 0.1901 0.94228 0.52541 0.0
C202 C 0.17413 0.95238 0.55658 0.0
C203 C 0.12232 0.97641 0.63391 0.0
C204 C 0.14116 0.96924 0.60996 0.0
H205 H 0.22725 0.95243 0.4338 0.0
H206 H 0.20311 0.96929 0.49117 0.0
H207 H 0.17455 0.93262 0.62757 0.0
H208 H 0.07681 0.99013 0.59135 0.0
H209 H 0.10832 0.98051 0.55395 0.0
C210 C 0.42107 0.19278 0.43923 0.0
C211 C 0.42724 0.19616 0.38428 0.0
C212 C 0.43079 0.1791 0.47256 0.0
C213 C 0.46024 0.13434 0.46186 0.0
H214 H 0.47451 0.14506 0.61486 0.0
C215 C 0.50457 0.07803 0.58317 0.0
C216 C 0.49875 0.07398 0.63794 0.0
C217 C 0.49745 0.09453 0.55541 0.0
C218 C 0.47044 0.14178 0.57238 0.0
H219 H 0.44865 0.18807 0.32155 0.0
H220 H 0.46547 0.1641 0.37957 0.0
H221 H 0.45859 0.17079 0.56 0.0
H222 H 0.48164 0.08451 0.70767 0.0
H223 H 0.46861 0.11323 0.65847 0.0
H224 H 0.47147 0.1053 0.47397 0.0
C225 C 0.45307 0.17198 0.39675 0.0
C226 C 0.46137 0.15651 0.54099 0.0
C227 C 0.44347 0.18576 0.36361 0.0
C228 C 0.48639 0.08734 0.66546 0.0
C229 C 0.47897 0.10378 0.63726 0.0
C230 C 0.46911 0.11962 0.4932 0.0
C231 C 0.44675 0.1684 0.45142 0.0
C232 C 0.45631 0.15295 0.4853 0.0
C233 C 0.48401 0.10724 0.58134 0.0
C234 C 0.47449 0.12316 0.54873 0.0
H235 H 0.40865 0.20062 0.45644 0.0
H236 H 0.4255 0.17652 0.5144 0.0
H237 H 0.45614 0.13102 0.4194 0.0
H238 H 0.51435 0.06816 0.56121 0.0
H239 H 0.50216 0.09706 0.51302 0.0
C240 C 0.27869 0.61888 0.42142 0.0
C241 C 0.27118 0.63374 0.45613 0.0
C242 C 0.29463 0.60755 0.43834 0.0
C243 C 0.32238 0.5921 0.56245 0.0
H244 H 0.3627 0.5798 0.45408 0.0
C245 C 0.39789 0.55726 0.61631 0.0
C246 C 0.40523 0.54325 0.57851 0.0
C247 C 0.38053 0.56739 0.60469 0.0
C248 C 0.35144 0.5829 0.4847 0.0
H249 H 0.27451 0.64838 0.53589 0.0
H250 H 0.30258 0.6288 0.56504 0.0
H251 H 0.33479 0.59971 0.42686 0.0
H252 H 0.39937 0.52798 0.50067 0.0
H253 H 0.36916 0.54544 0.48096 0.0
H254 H 0.3393 0.57537 0.62043 0.0
C255 C 0.29595 0.62571 0.52506 0.0
C256 C 0.33543 0.59431 0.46908 0.0
C257 C 0.27995 0.63703 0.50817 0.0
C258 C 0.39431 0.53886 0.53041 0.0
C259 C 0.37703 0.54894 0.51889 0.0
C260 C 0.33847 0.58069 0.57816 0.0
C261 C 0.30348 0.61086 0.49029 0.0
C262 C 0.32064 0.59897 0.50762 0.0
C263 C 0.37023 0.56369 0.5551 0.0
C264 C 0.3531 0.57586 0.53929 0.0
H265 H 0.27217 0.61586 0.38124 0.0
H266 H 0.29986 0.59602 0.41088 0.0
H267 H 0.31112 0.59525 0.593 0.0
H268 H 0.40594 0.56098 0.65375 0.0
H269 H 0.37567 0.57872 0.63334 0.0
C270 C 0.11399 0.31109 0.57512 0.0
C271 C 0.10893 0.30007 0.52759 0.0
C272 C 0.10113 0.32519 0.59641 0.0
C273 C 0.05803 0.35548 0.55934 0.0
H274 H 0.05464 0.36233 0.71883 0.0
C275 C 0.00622 0.41229 0.66167 0.0
C276 C 0.01627 0.42555 0.69722 0.0
C277 C 0.01526 0.39488 0.64374 0.0
C278 C 0.0554 0.3605 0.67422 0.0
H279 H 0.08646 0.29521 0.46494 0.0
H280 H 0.06384 0.31952 0.50272 0.0
H281 H 0.07513 0.33622 0.68048 0.0
H282 H 0.0431 0.43047 0.74442 0.0
H283 H 0.05866 0.39999 0.71398 0.0
H284 H 0.03827 0.37986 0.5534 0.0
C285 C 0.07789 0.31756 0.52303 0.0
C286 C 0.06725 0.34567 0.65218 0.0
C287 C 0.09084 0.30358 0.50142 0.0
C288 C 0.03504 0.42058 0.71677 0.0
C289 C 0.04391 0.40308 0.69963 0.0
C290 C 0.04601 0.37018 0.58146 0.0
C291 C 0.08282 0.32845 0.57101 0.0
C292 C 0.06905 0.34325 0.59443 0.0
C293 C 0.03431 0.39029 0.66197 0.0
C294 C 0.04491 0.37308 0.63905 0.0
H295 H 0.12787 0.30879 0.59607 0.0
H296 H 0.10563 0.33362 0.63267 0.0
H297 H 0.05922 0.3542 0.51469 0.0
H298 H 0.99176 0.41579 0.64582 0.0
H299 H 0.00754 0.38518 0.61488 0.0
C300 C 0.80237 0.96408 0.99927 0.0
C301 C 0.7931 0.94812 0.97148 0.0
C302 C 0.81863 0.97392 0.97561 0.0
C303 C 0.84622 0.97994 0.84256 0.0
H304 H 0.89031 0.99233 0.93943 0.0
C305 C 0.92684 0.98364 0.77129 0.0
C306 C 0.93941 0.99847 0.7932 0.0
C307 C 0.90735 0.98186 0.78927 0.0
C308 C 0.878 0.98932 0.91198 0.0
H309 H 0.79347 0.93008 0.8969 0.0
H310 H 0.82211 0.94674 0.85646 0.0
H311 H 0.85924 0.98052 0.97918 0.0
H312 H 0.94125 0.02355 0.84962 0.0
H313 H 0.90707 0.02014 0.88209 0.0
H314 H 0.86548 0.98775 0.7752 0.0
C315 C 0.81659 0.95206 0.89587 0.0
C316 C 0.86016 0.98256 0.93472 0.0
C317 C 0.80025 0.94236 0.91929 0.0
C318 C 0.93187 0.012 0.83195 0.0
C319 C 0.91239 0.01001 0.85069 0.0
C320 C 0.86413 0.98651 0.81984 0.0
C321 C 0.82606 0.9679 0.92384 0.0
C322 C 0.8442 0.97732 0.90018 0.0
C323 C 0.90007 0.99471 0.83011 0.0
C324 C 0.88031 0.99083 0.85426 0.0
H325 H 0.79708 0.96899 0.03936 0.0
H326 H 0.82537 0.98622 0.99796 0.0
H327 H 0.8341 0.9765 0.81483 0.0
H328 H 0.93222 0.97306 0.74113 0.0
H329 H 0.89825 0.96982 0.77308 0.0
C330 C 0.59002 0.80267 0.98453 0.0
C331 C 0.60872 0.79683 0.96603 0.0
C332 C 0.58174 0.82019 0.96507 0.0
C333 C 0.59451 0.86849 0.90404 0.0
H334 H 0.54096 0.86723 0.84805 0.0
C335 C 0.56329 0.93409 0.78258 0.0
C336 C 0.5435 0.93911 0.79137 0.0
C337 C 0.57081 0.91668 0.8048 0.0
C338 C 0.55582 0.86793 0.86428 0.0
H339 H 0.63354 0.80492 0.91335 0.0
H340 H 0.61917 0.83565 0.87999 0.0
H341 H 0.55496 0.83717 0.88699 0.0
H342 H 0.51605 0.92969 0.83031 0.0
H343 H 0.52931 0.8995 0.87029 0.0
H344 H 0.5954 0.89922 0.88232 0.0
C345 C 0.61092 0.82664 0.90945 0.0
C346 C 0.56383 0.8507 0.88645 0.0
C347 C 0.6191 0.80901 0.92835 0.0
C348 C 0.53134 0.9262 0.82252 0.0
C349 C 0.53893 0.90884 0.84526 0.0
C350 C 0.58645 0.88576 0.88244 0.0
C351 C 0.59212 0.83233 0.92734 0.0
C352 C 0.58332 0.85078 0.90603 0.0
C353 C 0.5588 0.90393 0.83692 0.0
C354 C 0.56707 0.88566 0.86171 0.0
H355 H 0.58164 0.79357 0.01347 0.0
H356 H 0.56728 0.82432 0.97982 0.0
H357 H 0.60947 0.86902 0.9196 0.0
H358 H 0.57302 0.94361 0.75836 0.0
H359 H 0.58605 0.91317 0.79644 0.0
C360 C 0.69479 0.49268 0.75931 0.0
C361 C 0.70113 0.47458 0.7814 0.0
C362 C 0.67745 0.49343 0.72833 0.0
C363 C 0.63009 0.46753 0.71488 0.0
H364 H 0.62381 0.50073 0.58513 0.0
C365 C 0.55407 0.47625 0.61522 0.0
C366 C 0.54894 0.49581 0.60201 0.0
C367 C 0.57362 0.47161 0.62689 0.0
C368 C 0.62531 0.49146 0.62147 0.0
H369 H 0.69466 0.44297 0.78654 0.0
H370 H 0.66433 0.44433 0.73264 0.0
H371 H 0.65655 0.4966 0.62506 0.0
H372 H 0.56052 0.52565 0.58815 0.0
H373 H 0.59441 0.51769 0.60981 0.0
H374 H 0.5989 0.46299 0.71309 0.0
C375 C 0.67272 0.45794 0.73965 0.0
C376 C 0.64405 0.48908 0.64422 0.0
C377 C 0.69012 0.45716 0.77035 0.0
C378 C 0.56394 0.51042 0.59819 0.0
C379 C 0.58345 0.50582 0.6103 0.0
C380 C 0.61137 0.47001 0.69244 0.0
C381 C 0.66604 0.47613 0.71909 0.0
C382 C 0.64658 0.47731 0.69162 0.0
C383 C 0.58845 0.48646 0.62607 0.0
C384 C 0.60868 0.48224 0.64596 0.0
H385 H 0.70299 0.50636 0.76694 0.0
H386 H 0.67257 0.5077 0.71346 0.0
H387 H 0.63153 0.45861 0.75193 0.0
H388 H 0.54291 0.46459 0.61792 0.0
H389 H 0.57703 0.45646 0.63777 0.0
C390 C 0.00963 0.71683 0.90724 0.0
C391 C 0.02649 0.72141 0.87542 0.0
C392 C 0.99771 0.70039 0.8938 0.0
C393 C 0.9836 0.66551 0.78455 0.0
H394 H 0.98488 0.62473 0.89762 0.0
C395 C 0.97793 0.58299 0.73137 0.0
C396 C 0.97217 0.56908 0.77184 0.0
C397 C 0.9785 0.60323 0.74369 0.0
C398 C 0.98374 0.63601 0.86594 0.0
H399 H 0.04349 0.71318 0.80296 0.0
H400 H 0.0223 0.68474 0.7786 0.0
H401 H 0.99682 0.65807 0.91904 0.0
H402 H 0.96077 0.56558 0.85536 0.0
H403 H 0.96088 0.60104 0.8762 0.0
H404 H 0.97056 0.6436 0.73121 0.0
C405 C 0.01846 0.69377 0.81415 0.0
C406 C 0.99073 0.65512 0.87829 0.0
C407 C 0.03063 0.70992 0.82829 0.0
C408 C 0.96555 0.57594 0.82356 0.0
C409 C 0.96576 0.59628 0.83558 0.0
C410 C 0.97619 0.6465 0.77247 0.0
C411 C 0.0022 0.68861 0.84754 0.0
C412 C 0.99136 0.66979 0.83714 0.0
C413 C 0.97297 0.61014 0.79652 0.0
C414 C 0.97692 0.63126 0.81232 0.0
H415 H 0.00614 0.72542 0.94391 0.0
H416 H 0.98526 0.6966 0.92016 0.0
H417 H 0.98382 0.6767 0.75235 0.0
H418 H 0.98317 0.57822 0.6911 0.0
H419 H 0.98443 0.61327 0.71262 0.0
C420 C 0.09304 0.19822 0.53764 0.0
C421 C 0.10418 0.19582 0.48902 0.0
C422 C 0.07976 0.18339 0.55481 0.0
C423 C 0.052 0.13915 0.50431 0.0
H424 H 0.05039 0.12495 0.66 0.0
C425 C 0.02304 0.06396 0.58584 0.0
C426 C 0.01442 0.06299 0.63888 0.0
C427 C 0.02998 0.08203 0.56462 0.0
C428 C 0.0503 0.12899 0.61655 0.0
H429 H 0.11117 0.17557 0.42225 0.0
H430 H 0.08787 0.14965 0.45182 0.0
H431 H 0.07132 0.15253 0.62967 0.0
H432 H 0.00477 0.08056 0.70914 0.0
H433 H 0.01673 0.11219 0.67169 0.0
H434 H 0.03132 0.11521 0.49113 0.0
C435 C 0.0889 0.16326 0.47574 0.0
C436 C 0.06238 0.14478 0.59912 0.0
C437 C 0.10219 0.17812 0.45862 0.0
C438 C 0.01145 0.08075 0.6683 0.0
C439 C 0.01845 0.09886 0.64706 0.0
C440 C 0.0399 0.12334 0.52177 0.0
C441 C 0.07746 0.16577 0.52391 0.0
C442 C 0.06362 0.14983 0.5427 0.0
C443 C 0.02846 0.09956 0.59593 0.0
C444 C 0.03917 0.11788 0.57798 0.0
H445 H 0.0943 0.21176 0.56183 0.0
H446 H 0.07109 0.18584 0.59189 0.0
H447 H 0.05236 0.14291 0.46067 0.0
H448 H 0.02543 0.05059 0.56184 0.0
H449 H 0.03768 0.08201 0.52522 0.0
C450 C 0.32439 0.94318 0.40813 0.0
C451 C 0.32053 0.92344 0.39216 0.0
C452 C 0.34278 0.94873 0.42943 0.0
C453 C 0.39471 0.93586 0.43542 0.0
H454 H 0.39414 0.96319 0.57725 0.0
C455 C 0.45079 0.95894 0.62399 0.0
C456 C 0.4649 0.97105 0.59696 0.0
C457 C 0.43408 0.95205 0.59589 0.0
C458 C 0.39451 0.95553 0.5377 0.0
H459 H 0.33278 0.89403 0.38536 0.0
H460 H 0.36525 0.90387 0.42196 0.0
H461 H 0.36303 0.95383 0.53275 0.0
H462 H 0.47298 0.98456 0.51832 0.0
H463 H 0.44376 0.97212 0.46884 0.0
H464 H 0.4263 0.93784 0.44035 0.0
C465 C 0.35401 0.91501 0.41773 0.0
C466 C 0.37675 0.95032 0.51211 0.0
C467 C 0.33547 0.90937 0.39717 0.0
C468 C 0.46235 0.97533 0.54037 0.0
C469 C 0.44571 0.96817 0.51199 0.0
C470 C 0.41254 0.9414 0.46066 0.0
C471 C 0.35771 0.93468 0.43475 0.0
C472 C 0.37668 0.94038 0.46089 0.0
C473 C 0.43122 0.95687 0.53995 0.0
C474 C 0.41255 0.95114 0.51223 0.0
H475 H 0.31297 0.95419 0.406 0.0
H476 H 0.34528 0.96399 0.44232 0.0
H477 H 0.39499 0.92825 0.3958 0.0
H478 H 0.45227 0.95532 0.66752 0.0
H479 H 0.42319 0.9432 0.61816 0.0
C480 C 0.39728 0.32144 0.29062 0.0
C481 C 0.41062 0.30574 0.28956 0.0
C482 C 0.40319 0.3401 0.31048 0.0
C483 C 0.41853 0.36986 0.39955 0.0
H484 H 0.46249 0.40014 0.33762 0.0
C485 C 0.4583 0.43424 0.51365 0.0
C486 C 0.45836 0.45248 0.48544 0.0
C487 C 0.45251 0.41677 0.48655 0.0
C488 C 0.45017 0.39181 0.35506 0.0
H489 H 0.44054 0.29708 0.30717 0.0
H490 H 0.45113 0.3301 0.34022 0.0
H491 H 0.45221 0.3685 0.2944 0.0
H492 H 0.45295 0.46668 0.40639 0.0
H493 H 0.44339 0.43583 0.35846 0.0
H494 H 0.41688 0.39272 0.46129 0.0
C495 C 0.43611 0.32786 0.32605 0.0
C496 C 0.44437 0.37379 0.33059 0.0
C497 C 0.43006 0.30905 0.30747 0.0
C498 C 0.45296 0.45283 0.42919 0.0
C499 C 0.44758 0.43525 0.40174 0.0
C500 C 0.42459 0.38761 0.42468 0.0
C501 C 0.42263 0.34341 0.32842 0.0
C502 C 0.4285 0.36272 0.35274 0.0
C503 C 0.44709 0.41715 0.43048 0.0
C504 C 0.44047 0.39869 0.40269 0.0
H505 H 0.38213 0.31911 0.2777 0.0
H506 H 0.39257 0.35193 0.31215 0.0
H507 H 0.40632 0.36146 0.41739 0.0
H508 H 0.46231 0.43351 0.55705 0.0
H509 H 0.4523 0.40292 0.50936 0.0
C510 C 0.15296 0.62632 0.43933 0.0
C511 C 0.17095 0.618 0.42349 0.0
C512 C 0.13732 0.61408 0.45697 0.0
C513 C 0.12704 0.56734 0.52538 0.0
H514 H 0.07458 0.57114 0.46338 0.0
C515 C 0.06351 0.51707 0.60433 0.0
C516 C 0.04498 0.52583 0.60997 0.0
C517 C 0.07871 0.52688 0.57562 0.0
C518 C 0.08907 0.57004 0.48168 0.0
H519 H 0.18707 0.59064 0.41545 0.0
H520 H 0.15979 0.56926 0.44712 0.0
H521 H 0.1014 0.59172 0.42591 0.0
H522 H 0.02775 0.55163 0.5893 0.0
H523 H 0.05432 0.56902 0.54139 0.0
H524 H 0.1148 0.54644 0.58287 0.0
C525 C 0.15768 0.58515 0.44482 0.0
C526 C 0.10441 0.58177 0.45997 0.0
C527 C 0.17317 0.59734 0.42631 0.0
C528 C 0.04183 0.54439 0.58534 0.0
C529 C 0.05709 0.55434 0.55748 0.0
C530 C 0.11166 0.55586 0.54777 0.0
C531 C 0.13963 0.59342 0.4603 0.0
C532 C 0.12349 0.58058 0.48185 0.0
C533 C 0.07582 0.54583 0.55273 0.0
C534 C 0.09242 0.55714 0.52648 0.0
H535 H 0.151 0.64224 0.4378 0.0
H536 H 0.12358 0.62079 0.46927 0.0
H537 H 0.14163 0.56631 0.54325 0.0
H538 H 0.06632 0.50269 0.62245 0.0
H539 H 0.09278 0.51965 0.57181 0.0
C540 C 0.04782 0.7873 0.02493 0.0
C541 C 0.06572 0.78706 0.05371 0.0
C542 C 0.03965 0.80532 0.00906 0.0
C543 C 0.04313 0.86003 0.0309 0.0
H544 H 0.02396 0.86173 0.87964 0.0
C545 C 0.03671 0.93231 0.90424 0.0
C546 C 0.02064 0.93409 0.86795 0.0
C547 C 0.03958 0.91469 0.93344 0.0
C548 C 0.02894 0.86146 0.92227 0.0
H549 H 0.08892 0.80513 0.09037 0.0
H550 H 0.075 0.83671 0.06156 0.0
H551 H 0.03366 0.83021 0.91916 0.0
H552 H 0.99453 0.91899 0.83576 0.0
H553 H -0.00041 0.8883 0.88677 0.0
H554 H 0.03898 0.89151 0.03304 0.0
C555 C 0.06699 0.82309 0.05198 0.0
C556 C 0.03448 0.84337 0.94502 0.0
C557 C 0.07503 0.80505 0.06829 0.0
C558 C 0.00713 0.9181 0.86306 0.0
C559 C 0.01006 0.90048 0.89211 0.0
C560 C 0.03766 0.87818 0.008 0.0
C561 C 0.04936 0.82342 0.02139 0.0
C562 C 0.0419 0.84245 0.99933 0.0
C563 C 0.02649 0.89846 0.92687 0.0
C564 C 0.03074 0.87911 0.95318 0.0
H565 H 0.04025 0.77354 0.01435 0.0
H566 H 0.02587 0.80505 0.98649 0.0
H567 H 0.04849 0.85979 0.07317 0.0
H568 H 0.04736 0.94434 0.90916 0.0
H569 H 0.05249 0.91354 0.95951 0.0
C570 C 0.6989 0.98585 0.01215 0.0
C571 C 0.69803 0.96768 0.04026 0.0
C572 C 0.68201 0.99719 0.00615 0.0
C573 C 0.6275 0.99142 0.00891 0.0
H574 H 0.63071 0.04777 0.97628 0.0
C575 C 0.5865 0.03919 0.84767 0.0
C576 C 0.56675 0.03482 0.86085 0.0
C577 C 0.6012 0.03703 0.88751 0.0
C578 C 0.62954 0.03212 0.98632 0.0
H579 H 0.67925 0.94739 0.08658 0.0
H580 H 0.64983 0.9676 0.07876 0.0
H581 H 0.65927 0.0312 0.01517 0.0
H582 H 0.54655 0.02629 0.92654 0.0
H583 H 0.57241 0.02189 0.99606 0.0
H584 H 0.59782 0.99242 0.97957 0.0
C585 C 0.66332 0.97287 0.05932 0.0
C586 C 0.64596 0.02251 0.00787 0.0
C587 C 0.68016 0.96128 0.06404 0.0
C588 C 0.56167 0.03006 0.91575 0.0
C589 C 0.57644 0.0274 0.95533 0.0
C590 C 0.611 0.00113 0.98867 0.0
C591 C 0.66388 0.99079 0.02912 0.0
C592 C 0.64545 0.00182 0.01705 0.0
C593 C 0.59639 0.02995 0.94067 0.0
C594 C 0.6121 0.02138 0.97514 0.0
H595 H 0.71254 0.99097 0.99305 0.0
H596 H 0.68312 0.01057 0.9815 0.0
H597 H 0.62642 0.9755 0.01455 0.0
H598 H 0.59073 0.04263 0.80537 0.0
H599 H 0.61646 0.03892 0.87499 0.0
C600 C 0.5657 0.70073 0.93068 0.0
C601 C 0.58454 0.69729 0.9521 0.0
C602 C 0.55485 0.68535 0.90566 0.0
C603 C 0.56118 0.63697 0.83726 0.0
H604 H 0.50438 0.63259 0.8541 0.0
C605 C 0.4939 0.58011 0.76687 0.0
C606 C 0.5 0.57689 0.71185 0.0
C607 C 0.50332 0.59467 0.79955 0.0
C608 C 0.52025 0.6335 0.84942 0.0
H609 H 0.60693 0.6752 0.96422 0.0
H610 H 0.58783 0.64811 0.92167 0.0
H611 H 0.52286 0.65765 0.90717 0.0
H612 H 0.52 0.58718 0.64715 0.0
H613 H 0.536 0.61255 0.70339 0.0
H614 H 0.5587 0.61276 0.78023 0.0
C615 C 0.58148 0.66275 0.92352 0.0
C616 C 0.53082 0.64798 0.87934 0.0
C617 C 0.59241 0.67821 0.948 0.0
C618 C 0.5151 0.58903 0.68962 0.0
C619 C 0.52439 0.60353 0.722 0.0
C620 C 0.55066 0.62253 0.80754 0.0
C621 C 0.56259 0.66616 0.90184 0.0
C622 C 0.55139 0.65003 0.87303 0.0
C623 C 0.51895 0.60625 0.77768 0.0
C624 C 0.53004 0.62083 0.8125 0.0
H625 H 0.55953 0.71546 0.93194 0.0
H626 H 0.54057 0.68861 0.88823 0.0
H627 H 0.57697 0.63822 0.83098 0.0
H628 H 0.48231 0.57099 0.7852 0.0
H629 H 0.4988 0.59641 0.84237 0.0
C630 C 0.78091 0.48506 0.97011 0.0
C631 C 0.77312 0.47318 0.01278 0.0
C632 C 0.80069 0.48366 0.95491 0.0
C633 C 0.84933 0.46767 0.00211 0.0
H634 H 0.86043 0.46547 0.84435 0.0
C635 C 0.91801 0.45755 0.83611 0.0
C636 C 0.93128 0.47202 0.85675 0.0
C637 C 0.8995 0.45478 0.86065 0.0
C638 C 0.8576 0.46579 0.88857 0.0
H639 H 0.77983 0.45068 0.07365 0.0
H640 H 0.81466 0.44848 0.0478 0.0
H641 H 0.82646 0.46713 0.87627 0.0
H642 H 0.93601 0.49388 0.92193 0.0
H643 H 0.90369 0.4891 0.96437 0.0
H644 H 0.8806 0.46651 0.01418 0.0
C645 C 0.80545 0.45892 0.02622 0.0
C646 C 0.83814 0.46701 0.90681 0.0
C647 C 0.78558 0.46024 0.04116 0.0
C648 C 0.92612 0.48269 0.90471 0.0
C649 C 0.90761 0.47988 0.9293 0.0
C650 C 0.86887 0.46657 0.98379 0.0
C651 C 0.81311 0.47039 0.98229 0.0
C652 C 0.8338 0.46821 0.96369 0.0
C653 C 0.89387 0.46636 0.90642 0.0
C654 C 0.87321 0.46578 0.92676 0.0
H655 H 0.77169 0.49547 0.94844 0.0
H656 H 0.80628 0.49298 0.92164 0.0
H657 H 0.8464 0.46863 0.04621 0.0
H658 H 0.92155 0.44895 0.79951 0.0
H659 H 0.88933 0.444 0.84268 0.0
C660 C 0.09909 0.13001 0.23705 0.0
C661 C 0.08946 0.14793 0.24775 0.0
C662 C 0.09146 0.11648 0.19833 0.0
C663 C 0.05856 0.11353 0.07691 0.0
H664 H 0.06049 0.05678 0.1032 0.0
C665 C 0.02236 0.05673 0.92814 0.0
C666 C 0.03358 0.04008 0.91398 0.0
C667 C 0.02833 0.0694 0.97106 0.0
C668 C 0.05999 0.07258 0.09512 0.0
H669 H 0.06405 0.16555 0.22695 0.0
H670 H 0.05061 0.14183 0.15992 0.0
H671 H 0.07235 0.07988 0.17432 0.0
H672 H 0.05972 0.02353 0.93481 0.0
H673 H 0.07016 0.04573 0.00956 0.0
H674 H 0.04626 0.10625 0.99768 0.0
C675 C 0.06424 0.13837 0.18078 0.0
C676 C 0.0668 0.08581 0.13581 0.0
C677 C 0.07189 0.15192 0.21942 0.0
C678 C 0.05072 0.03621 0.94455 0.0
C679 C 0.05665 0.04887 0.98762 0.0
C680 C 0.05171 0.10031 0.03633 0.0
C681 C 0.074 0.12054 0.16953 0.0
C682 C 0.06625 0.10644 0.12706 0.0
C683 C 0.04563 0.06571 0.00096 0.0
C684 C 0.05243 0.07969 0.04487 0.0
H685 H 0.11267 0.12649 0.25809 0.0
H686 H 0.09949 0.10301 0.19014 0.0
H687 H 0.05823 0.1293 0.06842 0.0
H688 H 0.00904 0.06014 0.90566 0.0
H689 H 0.01937 0.08211 0.98087 0.0
C690 C 0.33835 0.97067 0.10838 0.0
C691 C 0.33685 0.97812 0.16262 0.0
C692 C 0.35234 0.97846 0.07161 0.0
C693 C 0.40021 0.00502 0.06971 0.0
H694 H 0.39026 0.00559 0.91141 0.0
C695 C 0.46008 0.02395 0.90297 0.0
C696 C 0.46171 0.00892 0.86269 0.0
C697 C 0.44408 0.02394 0.93982 0.0
C698 C 0.3932 0.00562 0.95556 0.0
H699 H 0.34845 0.00016 0.22025 0.0
H700 H 0.37278 0.01403 0.15552 0.0
H701 H 0.36301 -0.00047 0.97564 0.0
H702 H 0.44762 0.98241 0.82862 0.0
H703 H 0.41969 0.98263 0.89204 0.0
H704 H 0.43053 0.01088 0.04907 0.0
C705 C 0.3633 0.0019 0.14179 0.0
C706 C 0.37764 0.00205 0.99235 0.0
C707 C 0.34929 0.99402 0.17877 0.0
C708 C 0.44688 0.99413 0.85936 0.0
C709 C 0.43079 0.99434 0.89535 0.0
C710 C 0.41576 0.00881 0.03282 0.0
C711 C 0.36515 0.99403 0.08796 0.0
C712 C 0.38106 0.00101 0.04977 0.0
C713 C 0.42926 0.00916 0.93606 0.0
C714 C 0.41248 0.0085 0.97537 0.0
H715 H 0.32903 0.95841 0.09456 0.0
H716 H 0.35354 0.97176 0.0309 0.0
H717 H 0.40342 0.00418 0.1136 0.0
H718 H 0.47131 0.03551 0.90654 0.0
H719 H 0.4432 0.03551 0.97096 0.0
C720 C 0.40092 0.36885 0.05406 0.0
C721 C 0.41153 0.36563 0.10313 0.0
C722 C 0.40597 0.38468 0.01909 0.0
C723 C 0.4483 0.41683 0.98228 0.0
H724 H 0.40925 0.44604 0.90004 0.0
C725 C 0.4438 0.48444 0.81063 0.0
C726 C 0.45829 0.47792 0.77325 0.0
C727 C 0.43814 0.47264 0.8559 0.0
C728 C 0.42034 0.4382 0.92318 0.0
H729 H 0.43527 0.37699 0.15504 0.0
H730 H 0.44397 0.40466 0.09421 0.0
H731 H 0.3986 0.42238 0.97112 0.0
H732 H 0.47843 0.45404 0.75498 0.0
H733 H 0.46852 0.43358 0.83332 0.0
H734 H 0.47003 0.43254 0.93428 0.0
C735 C 0.43195 0.39477 0.08234 0.0
C736 C 0.41423 0.42449 0.96347 0.0
C737 C 0.4269 0.37894 0.11731 0.0
C738 C 0.46723 0.45956 0.78282 0.0
C739 C 0.46164 0.44786 0.82806 0.0
C740 C 0.45439 0.43048 0.94198 0.0
C741 C 0.42173 0.39766 0.03242 0.0
C742 C 0.42814 0.41342 0.9929 0.0
C743 C 0.44694 0.45417 0.86492 0.0
C744 C 0.44048 0.44108 0.91131 0.0
H745 H 0.38899 0.35888 0.04192 0.0
H746 H 0.39794 0.38633 0.98066 0.0
H747 H 0.4594 0.40845 0.0038 0.0
H748 H 0.43663 0.49851 0.80454 0.0
H749 H 0.42688 0.47798 0.88386 0.0
C750 C 0.16049 0.54735 0.15478 0.0
C751 C 0.15606 0.55838 0.20263 0.0
C752 C 0.14542 0.53816 0.12405 0.0
C753 C 0.09263 0.54303 0.09509 0.0
H754 H 0.09822 0.49191 0.0229 0.0
C755 C 0.03137 0.51076 0.95494 0.0
C756 C 0.03768 0.5029 0.90396 0.0
C757 C 0.04494 0.51498 0.99708 0.0
C758 C 0.09648 0.50625 0.04259 0.0
H759 H 0.13239 0.56765 0.25712 0.0
H760 H 0.1062 0.55153 0.20372 0.0
H761 H 0.12381 0.50395 0.08631 0.0
H762 H 0.06318 0.4926 0.85827 0.0
H763 H 0.08678 0.50022 0.93121 0.0
H764 H 0.06563 0.54565 0.05047 0.0
C765 C 0.12128 0.55025 0.18945 0.0
C766 C 0.11114 0.51314 0.0789 0.0
C767 C 0.13632 0.55942 0.22017 0.0
C768 C 0.05777 0.49867 0.89694 0.0
C769 C 0.07132 0.50292 0.93899 0.0
C770 C 0.07803 0.53618 0.05875 0.0
C771 C 0.12562 0.53981 0.1405 0.0
C772 C 0.10948 0.53172 0.10504 0.0
C773 C 0.06514 0.51146 0.9892 0.0
C774 C 0.07988 0.51783 0.0315 0.0
H775 H 0.17554 0.54623 0.14017 0.0
H776 H 0.14925 0.53038 0.08626 0.0
H777 H 0.09105 0.55755 0.11384 0.0
H778 H 0.01599 0.51408 0.96195 0.0
H779 H 0.03964 0.52126 0.03562 0.0
C780 C 0.03543 0.82991 0.30717 0.0
C781 C 0.04671 0.83702 0.26222 0.0
C782 C 0.0258 0.8431 0.3424 0.0
C783 C 0.00977 0.89548 0.35516 0.0
H784 H 0.01492 0.88554 0.51271 0.0
C785 C 0.00595 0.95618 0.52309 0.0
C786 C 0.99835 0.95121 0.57566 0.0
C787 C 0.00704 0.94185 0.4813 0.0
C788 C 0.01295 0.88836 0.46888 0.0
H789 H 0.05634 0.86356 0.21826 0.0
H790 H 0.03994 0.88657 0.28041 0.0
H791 H 0.02643 0.86104 0.44659 0.0
H792 H 0.98445 0.92766 0.624 0.0
H793 H 0.98627 0.9027 0.55083 0.0
H794 H 0.99693 0.92321 0.37786 0.0
C795 C 0.03825 0.87078 0.28796 0.0
C796 C 0.01958 0.8743 0.4309 0.0
C797 C 0.04781 0.85759 0.25259 0.0
C798 C 0.99056 0.93196 0.58417 0.0
C799 C 0.99169 0.91762 0.54237 0.0
C800 C 0.00318 0.90959 0.39324 0.0
C801 C 0.02729 0.86371 0.33362 0.0
C802 C 0.01842 0.87784 0.37359 0.0
C803 C 0.00056 0.92224 0.49115 0.0
C804 C 0.00503 0.90634 0.45052 0.0
H805 H 0.03412 0.81413 0.31542 0.0
H806 H 0.01725 0.83715 0.37671 0.0
H807 H 0.00834 0.8985 0.31127 0.0
H808 H 0.01198 0.97089 0.51494 0.0
H809 H 0.01405 0.94587 0.44242 0.0
C810 C 0.68048 0.97582 0.2504 0.0
C811 C 0.68892 0.99242 0.22363 0.0
C812 C 0.66606 0.97818 0.29098 0.0
C813 C 0.62938 0.01308 0.34492 0.0
H814 H 0.63189 0.97944 0.47497 0.0
C815 C 0.59084 0.00296 0.57468 0.0
C816 C 0.57083 0.00453 0.56059 0.0
C817 C 0.60531 0.00265 0.53355 0.0
C818 C 0.63106 0.9891 0.43922 0.0
H819 H 0.68864 0.02455 0.2179 0.0
H820 H 0.66351 0.02872 0.28979 0.0
H821 H 0.65726 0.97719 0.40407 0.0
H822 H 0.55038 0.00718 0.49205 0.0
H823 H 0.57569 0.00625 0.42006 0.0
H824 H 0.60329 0.02523 0.38086 0.0
C825 C 0.66798 0.01385 0.27882 0.0
C826 C 0.64548 0.98763 0.39821 0.0
C827 C 0.68245 0.01148 0.23794 0.0
C828 C 0.56565 0.00597 0.50433 0.0
C829 C 0.58017 0.00557 0.46309 0.0
C830 C 0.61492 0.01458 0.38611 0.0
C831 C 0.65974 0.9972 0.30604 0.0
C832 C 0.64474 -0.00052 0.35039 0.0
C833 C 0.60016 0.00378 0.47725 0.0
C834 C 0.61558 0.00254 0.43364 0.0
H835 H 0.68496 0.9609 0.23995 0.0
H836 H 0.65973 0.96503 0.3103 0.0
H837 H 0.62832 0.02231 0.30835 0.0
H838 H 0.59539 0.002 0.61761 0.0
H839 H 0.62059 0.0016 0.54594 0.0
C840 C 0.50379 0.66166 0.07554 0.0
C841 C 0.51347 0.67863 0.09695 0.0
C842 C 0.49588 0.64724 0.1113 0.0
C843 C 0.48407 0.63743 0.26039 0.0
H844 H 0.49679 0.5831 0.22245 0.0
C845 C 0.49661 0.57728 0.42282 0.0
C846 C 0.48577 0.55942 0.41725 0.0
C847 C 0.4968 0.59128 0.38032 0.0
C848 C 0.4929 0.59817 0.23316 0.0
H849 H 0.52148 0.69429 0.1726 0.0
H850 H 0.50822 0.66913 0.23448 0.0
H851 H 0.50169 0.60935 0.15379 0.0
H852 H 0.46715 0.54194 0.36193 0.0
H853 H 0.46808 0.56635 0.2865 0.0
H854 H 0.47646 0.6263 0.34092 0.0
C855 C 0.50638 0.66696 0.19028 0.0
C856 C 0.49559 0.61322 0.19384 0.0
C857 C 0.51415 0.68138 0.15467 0.0
C858 C 0.47561 0.55559 0.36743 0.0
C859 C 0.47612 0.5695 0.32436 0.0
C860 C 0.48169 0.62246 0.29983 0.0
C861 C 0.49754 0.64948 0.16913 0.0
C862 C 0.49172 0.63313 0.20752 0.0
C863 C 0.48644 0.58759 0.33098 0.0
C864 C 0.48655 0.60281 0.28696 0.0
H865 H 0.50292 0.65916 0.03122 0.0
H866 H 0.48888 0.63412 0.0936 0.0
H867 H 0.48046 0.6525 0.27193 0.0
H868 H 0.50451 0.58075 0.4607 0.0
H869 H 0.50506 0.60505 0.38602 0.0
C870 C 0.83864 0.49775 0.22939 0.0
C871 C 0.8229 0.48404 0.23489 0.0
C872 C 0.85397 0.49817 0.268 0.0
C873 C 0.87855 0.46796 0.37336 0.0
H874 H 0.89506 0.51878 0.4351 0.0
C875 C 0.92817 0.47419 0.56684 0.0
C876 C 0.94214 0.48983 0.56926 0.0
C877 C 0.91444 0.47316 0.52378 0.0
C878 C 0.89088 0.50449 0.41769 0.0
H879 H 0.81109 0.45979 0.28471 0.0
H880 H 0.83791 0.4605 0.3519 0.0
H881 H 0.86981 0.51755 0.36345 0.0
H882 H 0.95295 0.51636 0.5274 0.0
H883 H 0.92934 0.5143 0.4517 0.0
H884 H 0.89966 0.45487 0.42725 0.0
C885 C 0.83839 0.47088 0.31764 0.0
C886 C 0.87637 0.5038 0.37671 0.0
C887 C 0.82298 0.47056 0.27933 0.0
C888 C 0.94229 0.5042 0.52707 0.0
C889 C 0.92867 0.50308 0.48378 0.0
C890 C 0.89317 0.46866 0.41406 0.0
C891 C 0.85398 0.48477 0.31259 0.0
C892 C 0.86995 0.48552 0.35444 0.0
C893 C 0.91445 0.48765 0.48185 0.0
C894 C 0.89942 0.48692 0.43706 0.0
H895 H 0.83904 0.50831 0.19556 0.0
H896 H 0.86589 0.50892 0.26282 0.0
H897 H 0.87405 0.45369 0.3564 0.0
H898 H 0.92757 0.46291 0.59881 0.0
H899 H 0.90354 0.46122 0.52411 0.0
loop_
_geom_bond_atom_site_label_1
_geom_bond_atom_site_label_2
_geom_bond_distance
_geom_bond_site_symmetry_2
_ccdc_geom_bond_type
O0 Cd1 2.296 1_556 S
O0 C7 1.275 . S
Cd1 O0 2.296 1_554 S
Cd1 O9 2.377 1_554 S
Cd1 O10 2.380 . S
O2 Cd3 2.385 . S
O2 C7 1.255 1_554 S
Cd3 O2 2.385 . S
Cd3 O4 2.317 . S
O4 Cd3 2.317 . S
O4 C5 1.232 . S
C5 O4 1.232 . S
C5 O6 1.218 . S
O6 C5 1.218 . S
C7 O0 1.275 . S
C7 O2 1.255 1_556 S
C8 O9 1.258 . S
C8 O10 1.256 1_556 S
O9 Cd1 2.377 1_556 S
O9 C8 1.258 . S
O10 Cd1 2.380 . S
O10 C8 1.256 1_554 S
O11 Cd12 2.300 1_655 S
O11 C18 1.275 1_655 S
Cd12 O11 2.300 1_455 S
Cd12 O20 2.381 1_455 S
Cd12 O21 2.378 . S
O13 Cd14 2.385 . S
O13 C18 1.255 . S
Cd14 O13 2.385 . S
Cd14 O15 2.317 . S
O15 Cd14 2.317 . S
O15 C16 1.232 . S
C16 O15 1.232 . S
C16 O17 1.218 . S
O17 C16 1.218 . S
C18 O11 1.275 1_455 S
C18 O13 1.255 . S
C19 O20 1.251 1_455 S
C19 O21 1.264 . S
O20 Cd12 2.381 1_655 S
O20 C19 1.251 1_655 S
O21 Cd12 2.378 . S
O21 C19 1.264 . S
O22 Cd23 2.300 1_566 S
O22 C29 1.275 1_566 S
Cd23 O22 2.300 1_544 S
Cd23 O31 2.381 1_545 S
Cd23 O32 2.378 . S
O24 Cd25 2.385 . S
O24 C29 1.255 . S
Cd25 O24 2.385 . S
Cd25 O26 2.317 . S
O26 Cd25 2.317 . S
O26 C27 1.232 . S
C27 O26 1.232 . S
C27 O28 1.218 . S
O28 C27 1.218 . S
C29 O22 1.275 1_544 S
C29 O24 1.255 . S
C30 O31 1.258 1_545 S
C30 O32 1.256 . S
O31 Cd23 2.381 1_565 S
O31 C30 1.258 1_565 S
O32 Cd23 2.378 . S
O32 C30 1.256 . S
O33 Cd34 2.300 1_556 S
O33 C40 1.275 . S
Cd34 O33 2.300 1_554 S
Cd34 O42 2.381 1_554 S
Cd34 O43 2.378 . S
O35 Cd36 2.385 . S
O35 C40 1.255 1_554 S
Cd36 O35 2.385 . S
Cd36 O37 2.317 . S
O37 Cd36 2.317 . S
O37 C38 1.232 . S
C38 O37 1.232 . S
C38 O39 1.218 . S
O39 C38 1.218 . S
C40 O33 1.275 . S
C40 O35 1.255 1_556 S
C41 O42 1.261 . S
C41 O43 1.250 1_556 S
O42 Cd34 2.381 1_556 S
O42 C41 1.261 . S
O43 Cd34 2.378 . S
O43 C41 1.250 1_554 S
O44 Cd45 2.300 . S
O44 C51 1.275 . S
Cd45 O44 2.300 . S
Cd45 O53 2.381 . S
Cd45 O54 2.378 . S
O46 Cd47 2.385 . S
O46 C51 1.255 . S
Cd47 O46 2.385 . S
Cd47 O48 2.317 . S
O48 Cd47 2.317 . S
O48 C49 1.232 . S
C49 O48 1.232 . S
C49 O50 1.218 . S
O50 C49 1.218 . S
C51 O44 1.275 . S
C51 O46 1.255 . S
C52 O53 1.258 . S
C52 O54 1.256 . S
O53 Cd45 2.381 . S
O53 C52 1.258 . S
O54 Cd45 2.378 . S
O54 C52 1.256 . S
O55 Cd56 2.300 . S
O55 C62 1.275 . S
Cd56 O55 2.300 . S
Cd56 O64 2.381 . S
Cd56 O65 2.378 . S
O57 Cd58 2.385 . S
O57 C62 1.255 . S
Cd58 O57 2.385 . S
Cd58 O59 2.317 . S
O59 Cd58 2.317 . S
O59 C60 1.232 . S
C60 O59 1.232 . S
C60 O61 1.218 . S
O61 C60 1.218 . S
C62 O55 1.275 . S
C62 O57 1.255 . S
C63 O64 1.258 . S
C63 O65 1.256 . S
O64 Cd56 2.381 . S
O64 C63 1.258 . S
O65 Cd56 2.378 . S
O65 C63 1.256 . S
O66 Cd67 2.300 . S
O66 C73 1.275 . S
Cd67 O66 2.300 . S
Cd67 O75 2.385 . S
Cd67 O76 2.378 . S
O68 Cd69 2.385 . S
O68 C73 1.255 . S
Cd69 O68 2.385 . S
Cd69 O70 2.317 . S
O70 Cd69 2.317 . S
O70 C71 1.232 . S
C71 O70 1.232 . S
C71 O72 1.218 . S
O72 C71 1.218 . S
C73 O66 1.275 . S
C73 O68 1.255 . S
C74 O75 1.261 . S
C74 O76 1.256 . S
O75 Cd67 2.385 . S
O75 C74 1.261 . S
O76 Cd67 2.378 . S
O76 C74 1.256 . S
O77 Cd78 2.300 . S
O77 C84 1.275 . S
Cd78 O77 2.300 . S
Cd78 O86 2.381 . S
Cd78 O87 2.378 . S
O79 Cd80 2.385 . S
O79 C84 1.255 . S
Cd80 O79 2.385 . S
Cd80 O81 2.317 . S
O81 Cd80 2.317 . S
O81 C82 1.232 . S
C82 O81 1.232 . S
C82 O83 1.218 . S
O83 C82 1.218 . S
C84 O77 1.275 . S
C84 O79 1.255 . S
C85 O86 1.258 . S
C85 O87 1.256 . S
O86 Cd78 2.381 . S
O86 C85 1.258 . S
O87 Cd78 2.378 . S
O87 C85 1.256 . S
O88 Zn89 1.954 . S
O88 C104 1.225 1_545 S
Zn89 O88 1.954 . S
Zn89 O90 1.948 1_545 S
Zn89 O96 1.932 . S
Zn89 O101 1.908 1_545 S
O90 Zn89 1.948 1_565 S
O90 Zn91 1.904 1_565 S
O90 Zn92 1.952 . S
O90 Zn93 1.990 . S
Zn91 O90 1.904 1_545 S
Zn91 O94 1.933 1_455 S
Zn91 O97 1.941 . S
Zn91 O98 1.965 . S
Zn92 O90 1.952 . S
Zn92 O99 1.938 1_565 S
Zn92 O100 1.906 . S
Zn92 O110 1.953 . S
Zn93 O90 1.990 . S
Zn93 O95 1.888 1_455 S
Zn93 O102 1.972 1_455 S
Zn93 O103 1.931 . S
O94 Zn91 1.933 1_655 S
O94 C105 1.226 . S
O95 Zn93 1.888 1_655 S
O95 C105 1.307 1_565 S
O96 Zn89 1.932 . S
O96 C107 1.253 . S
O97 Zn91 1.941 . S
O97 C107 1.283 . S
O98 Zn91 1.965 . S
O98 C106 1.303 . S
O99 Zn92 1.938 1_545 S
O99 C106 1.247 . S
O100 Zn92 1.906 . S
O100 C108 1.309 . S
O101 Zn89 1.908 1_565 S
O101 C109 1.311 . S
O102 Zn93 1.972 1_655 S
O102 C108 1.271 1_655 S
O103 Zn93 1.931 . S
O103 C109 1.231 . S
C104 O88 1.225 1_565 S
C104 O110 1.298 . S
C105 O94 1.226 . S
C105 O95 1.307 1_545 S
C106 O98 1.303 . S
C106 O99 1.247 . S
C107 O96 1.253 . S
C107 O97 1.283 . S
C108 O100 1.309 . S
C108 O102 1.271 1_455 S
C109 O101 1.311 . S
C109 O103 1.231 . S
O110 Zn92 1.953 . S
O110 C104 1.298 . S
O111 Zn112 1.953 . S
O111 C127 1.225 . S
Zn112 O111 1.953 . S
Zn112 O113 1.949 . S
Zn112 O119 1.919 . S
Zn112 O124 1.924 . S
O113 Zn112 1.949 . S
O113 Zn114 1.923 1_545 S
O113 Zn115 1.950 . S
O113 Zn116 1.945 1_545 S
Zn114 O113 1.923 1_565 S
Zn114 O117 1.933 . S
Zn114 O120 1.941 . S
Zn114 O121 1.965 . S
Zn115 O113 1.950 . S
Zn115 O122 1.938 . S
Zn115 O123 1.906 . S
Zn115 O133 1.953 . S
Zn116 O113 1.945 1_565 S
Zn116 O118 1.932 . S
Zn116 O125 1.977 . S
Zn116 O126 1.910 1_565 S
O117 Zn114 1.933 . S
O117 C128 1.226 . S
O118 Zn116 1.932 . S
O118 C128 1.307 . S
O119 Zn112 1.919 . S
O119 C130 1.253 . S
O120 Zn114 1.941 . S
O120 C130 1.283 1_565 S
O121 Zn114 1.965 . S
O121 C129 1.303 1_565 S
O122 Zn115 1.938 . S
O122 C129 1.247 . S
O123 Zn115 1.906 . S
O123 C131 1.304 1_545 S
O124 Zn112 1.924 . S
O124 C132 1.311 . S
O125 Zn116 1.977 . S
O125 C131 1.272 . S
O126 Zn116 1.910 1_545 S
O126 C132 1.231 . S
C127 O111 1.225 . S
C127 O133 1.298 . S
C128 O117 1.226 . S
C128 O118 1.307 . S
C129 O121 1.303 1_545 S
C129 O122 1.247 . S
C130 O119 1.253 . S
C130 O120 1.283 1_545 S
C131 O123 1.304 1_565 S
C131 O125 1.272 . S
C132 O124 1.311 . S
C132 O126 1.231 . S
O133 Zn115 1.953 . S
O133 C127 1.298 . S
O134 Zn135 1.953 . S
O134 C150 1.225 . S
Zn135 O134 1.953 . S
Zn135 O136 1.949 . S
Zn135 O142 1.919 . S
Zn135 O147 1.924 . S
O136 Zn135 1.949 . S
O136 Zn137 1.923 . S
O136 Zn138 1.950 . S
O136 Zn139 1.945 . S
Zn137 O136 1.923 . S
Zn137 O140 1.933 . S
Zn137 O143 1.941 . S
Zn137 O144 1.965 . S
Zn138 O136 1.950 . S
Zn138 O145 1.938 . S
Zn138 O146 1.906 . S
Zn138 O156 1.953 . S
Zn139 O136 1.945 . S
Zn139 O141 1.932 . S
Zn139 O148 1.977 . S
Zn139 O149 1.910 . S
O140 Zn137 1.933 . S
O140 C151 1.226 . S
O141 Zn139 1.932 . S
O141 C151 1.307 . S
O142 Zn135 1.919 . S
O142 C153 1.253 . S
O143 Zn137 1.941 . S
O143 C153 1.283 . S
O144 Zn137 1.965 . S
O144 C152 1.303 . S
O145 Zn138 1.938 . S
O145 C152 1.247 . S
O146 Zn138 1.906 . S
O146 C154 1.304 . S
O147 Zn135 1.924 . S
O147 C155 1.311 . S
O148 Zn139 1.977 . S
O148 C154 1.272 . S
O149 Zn139 1.910 . S
O149 C155 1.231 . S
C150 O134 1.225 . S
C150 O156 1.298 . S
C151 O140 1.226 . S
C151 O141 1.307 . S
C152 O144 1.303 . S
C152 O145 1.247 . S
C153 O142 1.253 . S
C153 O143 1.283 . S
C154 O146 1.304 . S
C154 O148 1.272 . S
C155 O147 1.311 . S
C155 O149 1.231 . S
O156 Zn138 1.953 . S
O156 C150 1.298 . S
O157 Zn158 1.925 1_655 S
O157 C173 1.225 . S
Zn158 O157 1.925 1_455 S
Zn158 O159 1.949 . S
Zn158 O165 1.919 . S
Zn158 O170 1.954 . S
O159 Zn158 1.949 . S
O159 Zn160 1.917 1_455 S
O159 Zn161 1.929 1_455 S
O159 Zn162 1.973 . S
Zn160 O159 1.917 1_655 S
Zn160 O163 1.933 1_655 S
Zn160 O166 1.941 . S
Zn160 O167 1.965 . S
Zn161 O159 1.929 1_655 S
Zn161 O168 1.938 . S
Zn161 O169 1.906 . S
Zn161 O179 1.953 . S
Zn162 O159 1.973 . S
Zn162 O164 1.932 . S
Zn162 O171 1.977 . S
Zn162 O172 1.910 . S
O163 Zn160 1.933 1_455 S
O163 C174 1.226 . S
O164 Zn162 1.932 . S
O164 C174 1.307 . S
O165 Zn158 1.919 . S
O165 C176 1.251 1_455 S
O166 Zn160 1.941 . S
O166 C176 1.286 . S
O167 Zn160 1.965 . S
O167 C175 1.303 . S
O168 Zn161 1.938 . S
O168 C175 1.247 . S
O169 Zn161 1.906 . S
O169 C177 1.304 1_655 S
O170 Zn158 1.954 . S
O170 C178 1.311 . S
O171 Zn162 1.977 . S
O171 C177 1.272 . S
O172 Zn162 1.910 . S
O172 C178 1.231 . S
C173 O157 1.225 . S
C173 O179 1.298 . S
C174 O163 1.226 . S
C174 O164 1.307 . S
C175 O167 1.303 . S
C175 O168 1.247 . S
C176 O165 1.251 1_655 S
C176 O166 1.286 . S
C177 O169 1.304 1_455 S
C177 O171 1.272 . S
C178 O170 1.311 . S
C178 O172 1.231 . S
O179 Zn161 1.953 . S
O179 C173 1.298 . S
C180 C181 1.349 . S
C180 C182 1.327 . S
C180 H205 0.950 . S
C181 C180 1.349 . S
C181 C197 1.349 1_545 S
C182 C180 1.327 . S
C182 C201 1.429 . S
C182 H206 0.950 . S
C183 C200 1.574 . S
C183 C202 1.368 1_565 S
C183 H207 0.949 . S
H184 C188 0.949 . S
C185 C186 1.349 . S
C185 C187 1.327 . S
C185 H208 0.950 . S
C186 C185 1.349 . S
C186 C198 1.349 1_565 S
C187 C185 1.327 . S
C187 C203 1.416 1_565 S
C187 H209 0.950 . S
C188 H184 0.949 . S
C188 C196 1.574 . S
C188 C204 1.368 . S
H189 C197 0.950 . S
H190 C195 0.950 . S
H191 C196 0.949 . S
H192 C198 0.950 . S
H193 C199 0.950 . S
H194 C200 0.949 . S
C195 H190 0.950 . S
C195 C197 1.327 . S
C195 C201 1.429 1_565 S
C196 C188 1.574 . S
C196 H191 0.949 . S
C196 C202 1.368 . S
C197 C181 1.349 1_565 S
C197 H189 0.950 . S
C197 C195 1.327 . S
C198 C186 1.349 1_545 S
C198 H192 0.950 . S
C198 C199 1.327 . S
C199 H193 0.950 . S
C199 C198 1.327 . S
C199 C203 1.440 . S
C200 C183 1.574 . S
C200 H194 0.949 . S
C200 C204 1.368 1_565 S
C201 C182 1.429 . S
C201 C195 1.429 1_545 S
C201 C202 1.523 . S
C202 C183 1.368 1_545 S
C202 C196 1.368 . S
C202 C201 1.523 . S
C203 C187 1.416 1_545 S
C203 C199 1.440 . S
C203 C204 1.524 . S
C204 C188 1.368 . S
C204 C200 1.368 1_545 S
C204 C203 1.524 . S
H205 C180 0.950 . S
H206 C182 0.950 . S
H207 C183 0.949 . S
H208 C185 0.950 . S
H209 C187 0.950 . S
C210 C211 1.349 . S
C210 C212 1.327 . S
C210 H235 0.950 . S
C211 C210 1.349 . S
C211 C227 1.349 . S
C212 C210 1.327 . S
C212 C231 1.429 . S
C212 H236 0.950 . S
C213 C230 1.574 . S
C213 C232 1.368 . S
C213 H237 0.949 . S
H214 C218 0.949 . S
C215 C216 1.349 . S
C215 C217 1.327 . S
C215 H238 0.950 . S
C216 C215 1.349 . S
C216 C228 1.349 . S
C217 C215 1.327 . S
C217 C233 1.429 . S
C217 H239 0.950 . S
C218 H214 0.949 . S
C218 C226 1.574 . S
C218 C234 1.368 . S
H219 C227 0.950 . S
H220 C225 0.950 . S
H221 C226 0.949 . S
H222 C228 0.950 . S
H223 C229 0.950 . S
H224 C230 0.949 . S
C225 H220 0.950 . S
C225 C227 1.327 . S
C225 C231 1.429 . S
C226 C218 1.574 . S
C226 H221 0.949 . S
C226 C232 1.368 . S
C227 C211 1.349 . S
C227 H219 0.950 . S
C227 C225 1.327 . S
C228 C216 1.349 . S
C228 H222 0.950 . S
C228 C229 1.327 . S
C229 H223 0.950 . S
C229 C228 1.327 . S
C229 C233 1.429 . S
C230 C213 1.574 . S
C230 H224 0.949 . S
C230 C234 1.368 . S
C231 C212 1.429 . S
C231 C225 1.429 . S
C231 C232 1.523 . S
C232 C213 1.368 . S
C232 C226 1.368 . S
C232 C231 1.523 . S
C233 C217 1.429 . S
C233 C229 1.429 . S
C233 C234 1.523 . S
C234 C218 1.368 . S
C234 C230 1.368 . S
C234 C233 1.523 . S
H235 C210 0.950 . S
H236 C212 0.950 . S
H237 C213 0.949 . S
H238 C215 0.950 . S
H239 C217 0.950 . S
C240 C241 1.349 . S
C240 C242 1.327 . S
C240 H265 0.950 . S
C241 C240 1.349 . S
C241 C257 1.349 . S
C242 C240 1.327 . S
C242 C261 1.429 . S
C242 H266 0.950 . S
C243 C260 1.574 . S
C243 C262 1.368 . S
C243 H267 0.949 . S
H244 C248 0.949 . S
C245 C246 1.349 . S
C245 C247 1.327 . S
C245 H268 0.950 . S
C246 C245 1.349 . S
C246 C258 1.349 . S
C247 C245 1.327 . S
C247 C263 1.429 . S
C247 H269 0.950 . S
C248 H244 0.949 . S
C248 C256 1.574 . S
C248 C264 1.368 . S
H249 C257 0.950 . S
H250 C255 0.950 . S
H251 C256 0.949 . S
H252 C258 0.950 . S
H253 C259 0.950 . S
H254 C260 0.949 . S
C255 H250 0.950 . S
C255 C257 1.327 . S
C255 C261 1.429 . S
C256 C248 1.574 . S
C256 H251 0.949 . S
C256 C262 1.368 . S
C257 C241 1.349 . S
C257 H249 0.950 . S
C257 C255 1.327 . S
C258 C246 1.349 . S
C258 H252 0.950 . S
C258 C259 1.327 . S
C259 H253 0.950 . S
C259 C258 1.327 . S
C259 C263 1.429 . S
C260 C243 1.574 . S
C260 H254 0.949 . S
C260 C264 1.368 . S
C261 C242 1.429 . S
C261 C255 1.429 . S
C261 C262 1.523 . S
C262 C243 1.368 . S
C262 C256 1.368 . S
C262 C261 1.523 . S
C263 C247 1.429 . S
C263 C259 1.429 . S
C263 C264 1.523 . S
C264 C248 1.368 . S
C264 C260 1.368 . S
C264 C263 1.523 . S
H265 C240 0.950 . S
H266 C242 0.950 . S
H267 C243 0.949 . S
H268 C245 0.950 . S
H269 C247 0.950 . S
C270 C271 1.349 . S
C270 C272 1.327 . S
C270 H295 0.950 . S
C271 C270 1.349 . S
C271 C287 1.349 . S
C272 C270 1.327 . S
C272 C291 1.429 . S
C272 H296 0.950 . S
C273 C290 1.574 . S
C273 C292 1.368 . S
C273 H297 0.949 . S
H274 C278 0.949 . S
C275 C276 1.367 . S
C275 C277 1.335 . S
C275 H298 0.925 1_455 S
C276 C275 1.367 . S
C276 C288 1.349 . S
C277 C275 1.335 . S
C277 C293 1.429 . S
C277 H299 0.950 1_455 S
C278 H274 0.949 . S
C278 C286 1.574 . S
C278 C294 1.368 . S
H279 C287 0.950 . S
H280 C285 0.950 . S
H281 C286 0.949 . S
H282 C288 0.950 . S
H283 C289 0.950 . S
H284 C290 0.949 . S
C285 H280 0.950 . S
C285 C287 1.327 . S
C285 C291 1.429 . S
C286 C278 1.574 . S
C286 H281 0.949 . S
C286 C292 1.368 . S
C287 C271 1.349 . S
C287 H279 0.950 . S
C287 C285 1.327 . S
C288 C276 1.349 . S
C288 H282 0.950 . S
C288 C289 1.327 . S
C289 H283 0.950 . S
C289 C288 1.327 . S
C289 C293 1.429 . S
C290 C273 1.574 . S
C290 H284 0.949 . S
C290 C294 1.368 . S
C291 C272 1.429 . S
C291 C285 1.429 . S
C291 C292 1.523 . S
C292 C273 1.368 . S
C292 C286 1.368 . S
C292 C291 1.523 . S
C293 C277 1.429 . S
C293 C289 1.429 . S
C293 C294 1.523 . S
C294 C278 1.368 . S
C294 C290 1.368 . S
C294 C293 1.523 . S
H295 C270 0.950 . S
H296 C272 0.950 . S
H297 C273 0.949 . S
H298 C275 0.925 1_655 S
H299 C277 0.950 1_655 S
C300 C301 1.368 1_556 S
C300 C302 1.327 . S
C300 H325 0.950 . S
C301 C300 1.368 1_554 S
C301 C317 1.330 1_565 S
C302 C300 1.327 . S
C302 C321 1.425 1_565 S
C302 H326 0.950 . S
C303 C320 1.574 . S
C303 C322 1.390 . S
C303 H327 0.949 . S
H304 C308 0.949 . S
C305 C306 1.349 . S
C305 C307 1.327 . S
C305 H328 0.950 . S
C306 C305 1.349 . S
C306 C318 1.349 1_545 S
C307 C305 1.327 . S
C307 C323 1.429 . S
C307 H329 0.950 . S
C308 H304 0.949 . S
C308 C316 1.574 . S
C308 C324 1.368 1_565 S
H309 C317 0.950 . S
H310 C315 0.950 1_554 S
H311 C316 0.949 . S
H312 C318 0.950 . S
H313 C319 0.950 . S
H314 C320 0.949 . S
C315 H310 0.950 1_556 S
C315 C317 1.327 1_556 S
C315 C321 1.432 . S
C316 C308 1.574 . S
C316 H311 0.949 . S
C316 C322 1.347 1_565 S
C317 C301 1.330 1_545 S
C317 H309 0.950 . S
C317 C315 1.327 1_554 S
C318 C306 1.349 1_565 S
C318 H312 0.950 . S
C318 C319 1.327 . S
C319 H313 0.950 . S
C319 C318 1.327 . S
C319 C323 1.429 1_565 S
C320 C303 1.574 . S
C320 H314 0.949 . S
C320 C324 1.368 . S
C321 C302 1.425 1_545 S
C321 C315 1.432 . S
C321 C322 1.523 . S
C322 C303 1.390 . S
C322 C316 1.347 1_545 S
C322 C321 1.523 . S
C323 C307 1.429 . S
C323 C319 1.429 1_545 S
C323 C324 1.523 . S
C324 C308 1.368 1_545 S
C324 C320 1.368 . S
C324 C323 1.523 . S
H325 C300 0.950 . S
H326 C302 0.950 . S
H327 C303 0.949 . S
H328 C305 0.950 . S
H329 C307 0.950 . S
C330 C331 1.349 . S
C330 C332 1.327 . S
C330 H355 0.950 . S
C331 C330 1.349 . S
C331 C347 1.349 . S
C332 C330 1.327 . S
C332 C351 1.429 . S
C332 H356 0.950 . S
C333 C350 1.574 . S
C333 C352 1.368 . S
C333 H357 0.949 . S
H334 C338 0.949 . S
C335 C336 1.349 . S
C335 C337 1.327 . S
C335 H358 0.950 . S
C336 C335 1.349 . S
C336 C348 1.349 . S
C337 C335 1.327 . S
C337 C353 1.429 . S
C337 H359 0.950 . S
C338 H334 0.949 . S
C338 C346 1.574 . S
C338 C354 1.368 . S
H339 C347 0.950 1_554 S
H340 C345 0.950 . S
H341 C346 0.949 . S
H342 C348 0.950 . S
H343 C349 0.950 . S
H344 C350 0.949 . S
C345 H340 0.950 . S
C345 C347 1.327 . S
C345 C351 1.429 . S
C346 C338 1.574 . S
C346 H341 0.949 . S
C346 C352 1.368 . S
C347 C331 1.349 . S
C347 H339 0.950 1_556 S
C347 C345 1.327 . S
C348 C336 1.349 . S
C348 H342 0.950 . S
C348 C349 1.327 . S
C349 H343 0.950 . S
C349 C348 1.327 . S
C349 C353 1.429 . S
C350 C333 1.574 . S
C350 H344 0.949 . S
C350 C354 1.368 . S
C351 C332 1.429 . S
C351 C345 1.429 . S
C351 C352 1.523 . S
C352 C333 1.368 . S
C352 C346 1.368 . S
C352 C351 1.523 . S
C353 C337 1.429 . S
C353 C349 1.429 . S
C353 C354 1.523 . S
C354 C338 1.368 . S
C354 C350 1.368 . S
C354 C353 1.523 . S
H355 C330 0.950 . S
H356 C332 0.950 . S
H357 C333 0.949 . S
H358 C335 0.950 . S
H359 C337 0.950 . S
C360 C361 1.349 . S
C360 C362 1.327 . S
C360 H385 0.950 . S
C361 C360 1.349 . S
C361 C377 1.349 . S
C362 C360 1.327 . S
C362 C381 1.429 . S
C362 H386 0.950 . S
C363 C380 1.574 . S
C363 C382 1.368 . S
C363 H387 0.949 . S
H364 C368 0.949 . S
C365 C366 1.349 . S
C365 C367 1.327 . S
C365 H388 0.950 . S
C366 C365 1.349 . S
C366 C378 1.349 . S
C367 C365 1.327 . S
C367 C383 1.429 . S
C367 H389 0.950 . S
C368 H364 0.949 . S
C368 C376 1.574 . S
C368 C384 1.368 . S
H369 C377 0.950 . S
H370 C375 0.950 . S
H371 C376 0.949 . S
H372 C378 0.950 . S
H373 C379 0.950 . S
H374 C380 0.949 . S
C375 H370 0.950 . S
C375 C377 1.327 . S
C375 C381 1.429 . S
C376 C368 1.574 . S
C376 H371 0.949 . S
C376 C382 1.368 . S
C377 C361 1.349 . S
C377 H369 0.950 . S
C377 C375 1.327 . S
C378 C366 1.349 . S
C378 H372 0.950 . S
C378 C379 1.327 . S
C379 H373 0.950 . S
C379 C378 1.327 . S
C379 C383 1.429 . S
C380 C363 1.574 . S
C380 H374 0.949 . S
C380 C384 1.368 . S
C381 C362 1.429 . S
C381 C375 1.429 . S
C381 C382 1.523 . S
C382 C363 1.368 . S
C382 C376 1.368 . S
C382 C381 1.523 . S
C383 C367 1.429 . S
C383 C379 1.429 . S
C383 C384 1.523 . S
C384 C368 1.368 . S
C384 C380 1.368 . S
C384 C383 1.523 . S
H385 C360 0.950 . S
H386 C362 0.950 . S
H387 C363 0.949 . S
H388 C365 0.950 . S
H389 C367 0.950 . S
C390 C391 1.349 . S
C390 C392 1.327 . S
C390 H415 0.950 . S
C391 C390 1.349 . S
C391 C407 1.347 1_654 S
C392 C390 1.327 . S
C392 C411 1.464 1_554 S
C392 H416 0.950 . S
C393 C410 1.574 . S
C393 C412 1.370 1_455 S
C393 H417 0.949 . S
H394 C398 0.949 . S
C395 C396 1.349 . S
C395 C397 1.327 . S
C395 H418 0.950 . S
C396 C395 1.349 . S
C396 C408 1.349 1_455 S
C397 C395 1.327 . S
C397 C413 1.429 . S
C397 H419 0.950 . S
C398 H394 0.949 . S
C398 C406 1.574 . S
C398 C414 1.368 1_655 S
H399 C407 0.950 . S
H400 C405 0.950 . S
H401 C406 0.949 . S
H402 C408 0.950 . S
H403 C409 0.950 . S
H404 C410 0.949 . S
C405 H400 0.950 . S
C405 C407 1.328 . S
C405 C411 1.396 1_455 S
C406 C398 1.574 . S
C406 H401 0.949 . S
C406 C412 1.366 . S
C407 C391 1.347 1_456 S
C407 H399 0.950 . S
C407 C405 1.328 . S
C408 C396 1.349 1_655 S
C408 H402 0.950 . S
C408 C409 1.327 . S
C409 H403 0.950 . S
C409 C408 1.327 . S
C409 C413 1.429 1_655 S
C410 C393 1.574 . S
C410 H404 0.949 . S
C410 C414 1.368 . S
C411 C392 1.464 1_556 S
C411 C405 1.396 1_655 S
C411 C412 1.522 . S
C412 C393 1.370 1_655 S
C412 C406 1.366 . S
C412 C411 1.522 . S
C413 C397 1.429 . S
C413 C409 1.429 1_455 S
C413 C414 1.523 . S
C414 C398 1.368 1_455 S
C414 C410 1.368 . S
C414 C413 1.523 . S
H415 C390 0.950 . S
H416 C392 0.950 . S
H417 C393 0.949 . S
H418 C395 0.950 . S
H419 C397 0.950 . S
C420 C421 1.349 . S
C420 C422 1.327 . S
C420 H445 0.950 . S
C421 C420 1.349 . S
C421 C437 1.349 . S
C422 C420 1.327 . S
C422 C441 1.429 . S
C422 H446 0.950 . S
C423 C440 1.574 . S
C423 C442 1.368 . S
C423 H447 0.949 . S
H424 C428 0.949 . S
C425 C426 1.349 . S
C425 C427 1.327 . S
C425 H448 0.950 . S
C426 C425 1.349 . S
C426 C438 1.349 . S
C427 C425 1.327 . S
C427 C443 1.429 . S
C427 H449 0.950 . S
C428 H424 0.949 . S
C428 C436 1.574 . S
C428 C444 1.368 . S
H429 C437 0.950 . S
H430 C435 0.950 . S
H431 C436 0.949 . S
H432 C438 0.950 . S
H433 C439 0.950 . S
H434 C440 0.949 . S
C435 H430 0.950 . S
C435 C437 1.327 . S
C435 C441 1.429 . S
C436 C428 1.574 . S
C436 H431 0.949 . S
C436 C442 1.368 . S
C437 C421 1.349 . S
C437 H429 0.950 . S
C437 C435 1.327 . S
C438 C426 1.349 . S
C438 H432 0.950 . S
C438 C439 1.327 . S
C439 H433 0.950 . S
C439 C438 1.327 . S
C439 C443 1.429 . S
C440 C423 1.574 . S
C440 H434 0.949 . S
C440 C444 1.368 . S
C441 C422 1.429 . S
C441 C435 1.429 . S
C441 C442 1.523 . S
C442 C423 1.368 . S
C442 C436 1.368 . S
C442 C441 1.523 . S
C443 C427 1.429 . S
C443 C439 1.429 . S
C443 C444 1.523 . S
C444 C428 1.368 . S
C444 C440 1.368 . S
C444 C443 1.523 . S
H445 C420 0.950 . S
H446 C422 0.950 . S
H447 C423 0.949 . S
H448 C425 0.950 . S
H449 C427 0.950 . S
C450 C451 1.349 . S
C450 C452 1.327 . S
C450 H475 0.950 . S
C451 C450 1.349 . S
C451 C467 1.349 1_545 S
C452 C450 1.327 . S
C452 C471 1.429 . S
C452 H476 0.950 . S
C453 C470 1.574 . S
C453 C472 1.368 1_565 S
C453 H477 0.949 . S
H454 C458 0.949 . S
C455 C456 1.349 1_565 S
C455 C457 1.327 . S
C455 H478 0.950 . S
C456 C455 1.349 1_545 S
C456 C468 1.349 . S
C457 C455 1.327 . S
C457 C473 1.429 1_565 S
C457 H479 0.950 . S
C458 H454 0.949 . S
C458 C466 1.574 . S
C458 C474 1.368 . S
H459 C467 0.950 . S
H460 C465 0.950 . S
H461 C466 0.949 . S
H462 C468 0.950 . S
H463 C469 0.950 . S
H464 C470 0.949 . S
C465 H460 0.950 . S
C465 C467 1.327 . S
C465 C471 1.429 1_565 S
C466 C458 1.574 . S
C466 H461 0.949 . S
C466 C472 1.368 . S
C467 C451 1.349 1_565 S
C467 H459 0.950 . S
C467 C465 1.327 . S
C468 C456 1.349 . S
C468 H462 0.950 . S
C468 C469 1.327 . S
C469 H463 0.950 . S
C469 C468 1.327 . S
C469 C473 1.429 . S
C470 C453 1.574 . S
C470 H464 0.949 . S
C470 C474 1.368 1_565 S
C471 C452 1.429 . S
C471 C465 1.429 1_545 S
C471 C472 1.523 . S
C472 C453 1.368 1_545 S
C472 C466 1.368 . S
C472 C471 1.523 . S
C473 C457 1.429 1_545 S
C473 C469 1.429 . S
C473 C474 1.523 . S
C474 C458 1.368 . S
C474 C470 1.368 1_545 S
C474 C473 1.523 . S
H475 C450 0.950 . S
H476 C452 0.950 . S
H477 C453 0.949 . S
H478 C455 0.950 . S
H479 C457 0.950 . S
C480 C481 1.349 . S
C480 C482 1.327 . S
C480 H505 0.950 . S
C481 C480 1.349 . S
C481 C497 1.349 . S
C482 C480 1.327 . S
C482 C501 1.429 . S
C482 H506 0.950 . S
C483 C500 1.574 . S
C483 C502 1.368 . S
C483 H507 0.949 . S
H484 C488 0.949 . S
C485 C486 1.349 . S
C485 C487 1.327 . S
C485 H508 0.950 . S
C486 C485 1.349 . S
C486 C498 1.349 . S
C487 C485 1.327 . S
C487 C503 1.429 . S
C487 H509 0.950 . S
C488 H484 0.949 . S
C488 C496 1.574 . S
C488 C504 1.368 . S
H489 C497 0.950 . S
H490 C495 0.950 . S
H491 C496 0.949 . S
H492 C498 0.950 . S
H493 C499 0.950 . S
H494 C500 0.949 . S
C495 H490 0.950 . S
C495 C497 1.327 . S
C495 C501 1.429 . S
C496 C488 1.574 . S
C496 H491 0.949 . S
C496 C502 1.368 . S
C497 C481 1.349 . S
C497 H489 0.950 . S
C497 C495 1.327 . S
C498 C486 1.349 . S
C498 H492 0.950 . S
C498 C499 1.327 . S
C499 H493 0.950 . S
C499 C498 1.327 . S
C499 C503 1.429 . S
C500 C483 1.574 . S
C500 H494 0.949 . S
C500 C504 1.368 . S
C501 C482 1.429 . S
C501 C495 1.429 . S
C501 C502 1.523 . S
C502 C483 1.368 . S
C502 C496 1.368 . S
C502 C501 1.523 . S
C503 C487 1.429 . S
C503 C499 1.429 . S
C503 C504 1.523 . S
C504 C488 1.368 . S
C504 C500 1.368 . S
C504 C503 1.523 . S
H505 C480 0.950 . S
H506 C482 0.950 . S
H507 C483 0.949 . S
H508 C485 0.950 . S
H509 C487 0.950 . S
C510 C511 1.349 . S
C510 C512 1.327 . S
C510 H535 0.950 . S
C511 C510 1.349 . S
C511 C527 1.349 . S
C512 C510 1.327 . S
C512 C531 1.429 . S
C512 H536 0.950 . S
C513 C530 1.574 . S
C513 C532 1.368 . S
C513 H537 0.949 . S
H514 C518 0.949 . S
C515 C516 1.349 . S
C515 C517 1.327 . S
C515 H538 0.950 . S
C516 C515 1.349 . S
C516 C528 1.349 . S
C517 C515 1.327 . S
C517 C533 1.429 . S
C517 H539 0.950 . S
C518 H514 0.949 . S
C518 C526 1.574 . S
C518 C534 1.368 . S
H519 C527 0.950 . S
H520 C525 0.950 . S
H521 C526 0.949 . S
H522 C528 0.950 . S
H523 C529 0.950 . S
H524 C530 0.949 . S
C525 H520 0.950 . S
C525 C527 1.327 . S
C525 C531 1.429 . S
C526 C518 1.574 . S
C526 H521 0.949 . S
C526 C532 1.368 . S
C527 C511 1.349 . S
C527 H519 0.950 . S
C527 C525 1.327 . S
C528 C516 1.349 . S
C528 H522 0.950 . S
C528 C529 1.327 . S
C529 H523 0.950 . S
C529 C528 1.327 . S
C529 C533 1.429 . S
C530 C513 1.574 . S
C530 H524 0.949 . S
C530 C534 1.368 . S
C531 C512 1.429 . S
C531 C525 1.429 . S
C531 C532 1.523 . S
C532 C513 1.368 . S
C532 C526 1.368 . S
C532 C531 1.523 . S
C533 C517 1.429 . S
C533 C529 1.429 . S
C533 C534 1.523 . S
C534 C518 1.368 . S
C534 C530 1.368 . S
C534 C533 1.523 . S
H535 C510 0.950 . S
H536 C512 0.950 . S
H537 C513 0.949 . S
H538 C515 0.950 . S
H539 C517 0.950 . S
C540 C541 1.353 1_655 S
C540 C542 1.318 1_554 S
C540 H565 0.950 . S
C541 C540 1.353 1_455 S
C541 C557 1.344 . S
C542 C540 1.318 1_556 S
C542 C561 1.429 1_655 S
C542 H566 0.959 . S
C543 C560 1.574 . S
C543 C562 1.368 . S
C543 H567 0.949 . S
H544 C548 0.949 1_655 S
C545 C546 1.349 . S
C545 C547 1.327 . S
C545 H568 0.950 . S
C546 C545 1.349 . S
C546 C558 1.349 . S
C547 C545 1.327 . S
C547 C563 1.429 . S
C547 H569 0.950 . S
C548 H544 0.949 1_455 S
C548 C556 1.574 1_455 S
C548 C564 1.368 . S
H549 C557 0.950 . S
H550 C555 0.950 . S
H551 C556 0.949 . S
H552 C558 0.950 . S
H553 C559 0.950 1_655 S
H554 C560 0.949 . S
C555 H550 0.950 . S
C555 C557 1.327 . S
C555 C561 1.429 1_554 S
C556 C548 1.574 1_655 S
C556 H551 0.949 . S
C556 C562 1.368 1_655 S
C557 C541 1.344 . S
C557 H549 0.950 . S
C557 C555 1.327 . S
C558 C546 1.349 . S
C558 H552 0.950 . S
C558 C559 1.327 . S
C559 H553 0.950 1_455 S
C559 C558 1.327 . S
C559 C563 1.429 . S
C560 C543 1.574 . S
C560 H554 0.949 . S
C560 C564 1.368 . S
C561 C542 1.429 1_455 S
C561 C555 1.429 1_556 S
C561 C562 1.523 . S
C562 C543 1.368 . S
C562 C556 1.368 1_455 S
C562 C561 1.523 . S
C563 C547 1.429 . S
C563 C559 1.429 . S
C563 C564 1.523 . S
C564 C548 1.368 . S
C564 C560 1.368 . S
C564 C563 1.523 . S
H565 C540 0.950 . S
H566 C542 0.959 . S
H567 C543 0.949 . S
H568 C545 0.950 . S
H569 C547 0.950 . S
C570 C571 1.317 1_545 S
C570 C572 1.327 1_554 S
C570 H595 0.950 . S
C571 C570 1.317 1_565 S
C571 C587 1.374 1_554 S
C572 C570 1.327 1_556 S
C572 C591 1.429 . S
C572 H596 0.950 1_556 S
C573 C590 1.581 . S
C573 C592 1.368 1_565 S
C573 H597 0.949 . S
H574 C578 0.949 . S
C575 C576 1.349 . S
C575 C577 1.327 . S
C575 H598 0.950 . S
C576 C575 1.349 . S
C576 C588 1.349 . S
C577 C575 1.327 . S
C577 C593 1.429 . S
C577 H599 0.950 1_545 S
C578 H574 0.949 . S
C578 C586 1.574 . S
C578 C594 1.368 . S
H579 C587 0.950 . S
H580 C585 0.950 . S
H581 C586 0.949 . S
H582 C588 0.950 . S
H583 C589 0.950 . S
H584 C590 0.971 . S
C585 H580 0.950 . S
C585 C587 1.327 . S
C585 C591 1.429 1_565 S
C586 C578 1.574 . S
C586 H581 0.949 . S
C586 C592 1.368 . S
C587 C571 1.374 1_556 S
C587 H579 0.950 . S
C587 C585 1.327 . S
C588 C576 1.349 . S
C588 H582 0.950 . S
C588 C589 1.327 . S
C589 H583 0.950 . S
C589 C588 1.327 . S
C589 C593 1.429 . S
C590 C573 1.581 . S
C590 H584 0.971 . S
C590 C594 1.338 1_565 S
C591 C572 1.429 . S
C591 C585 1.429 1_545 S
C591 C592 1.523 . S
C592 C573 1.368 1_545 S
C592 C586 1.368 . S
C592 C591 1.523 . S
C593 C577 1.429 . S
C593 C589 1.429 . S
C593 C594 1.523 . S
C594 C578 1.368 . S
C594 C590 1.338 1_545 S
C594 C593 1.523 . S
H595 C570 0.950 . S
H596 C572 0.950 1_554 S
H597 C573 0.949 . S
H598 C575 0.950 . S
H599 C577 0.950 1_565 S
C600 C601 1.349 . S
C600 C602 1.327 . S
C600 H625 0.950 . S
C601 C600 1.349 . S
C601 C617 1.349 . S
C602 C600 1.327 . S
C602 C621 1.429 . S
C602 H626 0.950 . S
C603 C620 1.574 . S
C603 C622 1.368 . S
C603 H627 0.949 . S
H604 C608 0.949 . S
C605 C606 1.349 . S
C605 C607 1.327 . S
C605 H628 0.950 . S
C606 C605 1.349 . S
C606 C618 1.349 . S
C607 C605 1.327 . S
C607 C623 1.429 . S
C607 H629 0.950 . S
C608 H604 0.949 . S
C608 C616 1.574 . S
C608 C624 1.368 . S
H609 C617 0.950 1_554 S
H610 C615 0.950 . S
H611 C616 0.949 . S
H612 C618 0.950 . S
H613 C619 0.950 . S
H614 C620 0.949 . S
C615 H610 0.950 . S
C615 C617 1.327 . S
C615 C621 1.429 . S
C616 C608 1.574 . S
C616 H611 0.949 . S
C616 C622 1.368 . S
C617 C601 1.349 . S
C617 H609 0.950 1_556 S
C617 C615 1.327 . S
C618 C606 1.349 . S
C618 H612 0.950 . S
C618 C619 1.327 . S
C619 H613 0.950 . S
C619 C618 1.327 . S
C619 C623 1.429 . S
C620 C603 1.574 . S
C620 H614 0.949 . S
C620 C624 1.368 . S
C621 C602 1.429 . S
C621 C615 1.429 . S
C621 C622 1.523 . S
C622 C603 1.368 . S
C622 C616 1.368 . S
C622 C621 1.523 . S
C623 C607 1.429 . S
C623 C619 1.429 . S
C623 C624 1.523 . S
C624 C608 1.368 . S
C624 C620 1.368 . S
C624 C623 1.523 . S
H625 C600 0.950 . S
H626 C602 0.950 . S
H627 C603 0.949 . S
H628 C605 0.950 . S
H629 C607 0.950 . S
C630 C631 1.349 . S
C630 C632 1.327 . S
C630 H655 0.950 . S
C631 C630 1.349 . S
C631 C647 1.349 . S
C632 C630 1.327 . S
C632 C651 1.429 . S
C632 H656 0.950 . S
C633 C650 1.574 . S
C633 C652 1.368 . S
C633 H657 0.949 . S
H634 C638 0.949 . S
C635 C636 1.349 . S
C635 C637 1.327 . S
C635 H658 0.950 . S
C636 C635 1.349 . S
C636 C648 1.349 . S
C637 C635 1.327 . S
C637 C653 1.429 . S
C637 H659 0.950 . S
C638 H634 0.949 . S
C638 C646 1.574 . S
C638 C654 1.368 . S
H639 C647 0.950 . S
H640 C645 0.950 . S
H641 C646 0.949 . S
H642 C648 0.950 . S
H643 C649 0.950 . S
H644 C650 0.949 . S
C645 H640 0.950 . S
C645 C647 1.327 . S
C645 C651 1.429 . S
C646 C638 1.574 . S
C646 H641 0.949 . S
C646 C652 1.368 . S
C647 C631 1.349 . S
C647 H639 0.950 . S
C647 C645 1.327 . S
C648 C636 1.349 . S
C648 H642 0.950 . S
C648 C649 1.327 . S
C649 H643 0.950 . S
C649 C648 1.327 . S
C649 C653 1.429 . S
C650 C633 1.574 . S
C650 H644 0.949 . S
C650 C654 1.368 . S
C651 C632 1.429 . S
C651 C645 1.429 . S
C651 C652 1.523 . S
C652 C633 1.368 . S
C652 C646 1.368 . S
C652 C651 1.523 . S
C653 C637 1.429 . S
C653 C649 1.429 . S
C653 C654 1.523 . S
C654 C638 1.368 . S
C654 C650 1.368 . S
C654 C653 1.523 . S
H655 C630 0.950 . S
H656 C632 0.950 . S
H657 C633 0.949 . S
H658 C635 0.950 . S
H659 C637 0.950 . S
C660 C661 1.349 . S
C660 C662 1.327 . S
C660 H685 0.950 . S
C661 C660 1.349 . S
C661 C677 1.349 . S
C662 C660 1.327 . S
C662 C681 1.429 . S
C662 H686 0.950 . S
C663 C680 1.574 1_554 S
C663 C682 1.368 . S
C663 H687 0.949 . S
H664 C668 0.949 . S
C665 C666 1.349 . S
C665 C667 1.327 . S
C665 H688 0.950 . S
C666 C665 1.349 . S
C666 C678 1.349 . S
C667 C665 1.327 . S
C667 C683 1.429 . S
C667 H689 0.950 . S
C668 H664 0.949 . S
C668 C676 1.574 . S
C668 C684 1.368 . S
H669 C677 0.950 . S
H670 C675 0.950 . S
H671 C676 0.949 . S
H672 C678 0.950 . S
H673 C679 0.950 1_554 S
H674 C680 0.949 . S
C675 H670 0.950 . S
C675 C677 1.327 . S
C675 C681 1.429 . S
C676 C668 1.574 . S
C676 H671 0.949 . S
C676 C682 1.368 . S
C677 C661 1.349 . S
C677 H669 0.950 . S
C677 C675 1.327 . S
C678 C666 1.349 . S
C678 H672 0.950 . S
C678 C679 1.327 . S
C679 H673 0.950 1_556 S
C679 C678 1.327 . S
C679 C683 1.429 . S
C680 C663 1.574 1_556 S
C680 H674 0.949 . S
C680 C684 1.368 1_556 S
C681 C662 1.429 . S
C681 C675 1.429 . S
C681 C682 1.523 . S
C682 C663 1.368 . S
C682 C676 1.368 . S
C682 C681 1.523 . S
C683 C667 1.429 . S
C683 C679 1.429 . S
C683 C684 1.523 1_556 S
C684 C668 1.368 . S
C684 C680 1.368 1_554 S
C684 C683 1.523 1_554 S
H685 C660 0.950 . S
H686 C662 0.950 . S
H687 C663 0.949 . S
H688 C665 0.950 . S
H689 C667 0.950 . S
C690 C691 1.349 1_565 S
C690 C692 1.327 . S
C690 H715 0.950 . S
C691 C690 1.349 1_545 S
C691 C707 1.349 . S
C692 C690 1.327 . S
C692 C711 1.429 1_565 S
C692 H716 0.950 . S
C693 C710 1.574 . S
C693 C712 1.368 . S
C693 H717 0.949 . S
H694 C698 0.949 . S
C695 C696 1.349 . S
C695 C697 1.327 . S
C695 H718 0.950 . S
C696 C695 1.349 . S
C696 C708 1.349 1_545 S
C697 C695 1.327 . S
C697 C713 1.429 . S
C697 H719 0.950 . S
C698 H694 0.949 . S
C698 C706 1.574 1_556 S
C698 C714 1.368 1_565 S
H699 C707 0.950 . S
H700 C705 0.950 . S
H701 C706 0.949 . S
H702 C708 0.950 . S
H703 C709 0.950 . S
H704 C710 0.949 . S
C705 H700 0.950 . S
C705 C707 1.327 . S
C705 C711 1.429 . S
C706 C698 1.574 1_554 S
C706 H701 0.949 . S
C706 C712 1.368 1_565 S
C707 C691 1.349 . S
C707 H699 0.950 . S
C707 C705 1.327 . S
C708 C696 1.349 1_565 S
C708 H702 0.950 . S
C708 C709 1.327 . S
C709 H703 0.950 . S
C709 C708 1.327 . S
C709 C713 1.429 1_565 S
C710 C693 1.574 . S
C710 H704 0.949 . S
C710 C714 1.368 1_554 S
C711 C692 1.429 1_545 S
C711 C705 1.429 . S
C711 C712 1.523 . S
C712 C693 1.368 . S
C712 C706 1.368 1_545 S
C712 C711 1.523 . S
C713 C697 1.429 . S
C713 C709 1.429 1_545 S
C713 C714 1.523 . S
C714 C698 1.368 1_545 S
C714 C710 1.368 1_556 S
C714 C713 1.523 . S
H715 C690 0.950 . S
H716 C692 0.950 . S
H717 C693 0.949 . S
H718 C695 0.950 . S
H719 C697 0.950 . S
C720 C721 1.349 . S
C720 C722 1.327 . S
C720 H745 0.950 . S
C721 C720 1.349 . S
C721 C737 1.349 . S
C722 C720 1.327 . S
C722 C741 1.429 . S
C722 H746 0.950 . S
C723 C740 1.574 1_554 S
C723 C742 1.368 . S
C723 H747 0.949 . S
H724 C728 0.949 . S
C725 C726 1.349 . S
C725 C727 1.327 . S
C725 H748 0.950 . S
C726 C725 1.349 . S
C726 C738 1.349 . S
C727 C725 1.327 . S
C727 C743 1.429 . S
C727 H749 0.950 . S
C728 H724 0.949 . S
C728 C736 1.574 . S
C728 C744 1.368 . S
H729 C737 0.950 . S
H730 C735 0.950 . S
H731 C736 0.949 . S
H732 C738 0.950 . S
H733 C739 0.950 . S
H734 C740 0.949 1_554 S
C735 H730 0.950 . S
C735 C737 1.327 . S
C735 C741 1.429 . S
C736 C728 1.574 . S
C736 H731 0.949 . S
C736 C742 1.368 1_556 S
C737 C721 1.349 . S
C737 H729 0.950 . S
C737 C735 1.327 . S
C738 C726 1.349 . S
C738 H732 0.950 . S
C738 C739 1.327 . S
C739 H733 0.950 . S
C739 C738 1.327 . S
C739 C743 1.429 . S
C740 C723 1.574 1_556 S
C740 H734 0.949 1_556 S
C740 C744 1.368 . S
C741 C722 1.429 . S
C741 C735 1.429 . S
C741 C742 1.523 . S
C742 C723 1.368 . S
C742 C736 1.368 1_554 S
C742 C741 1.523 . S
C743 C727 1.429 . S
C743 C739 1.429 . S
C743 C744 1.523 . S
C744 C728 1.368 . S
C744 C740 1.368 . S
C744 C743 1.523 . S
H745 C720 0.950 . S
H746 C722 0.950 . S
H747 C723 0.949 . S
H748 C725 0.950 . S
H749 C727 0.950 . S
C750 C751 1.349 . S
C750 C752 1.327 . S
C750 H775 0.950 . S
C751 C750 1.349 . S
C751 C767 1.349 . S
C752 C750 1.327 . S
C752 C771 1.429 . S
C752 H776 0.950 . S
C753 C770 1.574 1_554 S
C753 C772 1.368 . S
C753 H777 0.949 . S
H754 C758 0.949 . S
C755 C756 1.349 . S
C755 C757 1.327 . S
C755 H778 0.950 . S
C756 C755 1.349 . S
C756 C768 1.349 . S
C757 C755 1.327 . S
C757 C773 1.429 . S
C757 H779 0.950 . S
C758 H754 0.949 . S
C758 C766 1.574 . S
C758 C774 1.368 . S
H759 C767 0.950 . S
H760 C765 0.950 . S
H761 C766 0.949 . S
H762 C768 0.950 . S
H763 C769 0.950 . S
H764 C770 0.949 . S
C765 H760 0.950 . S
C765 C767 1.327 . S
C765 C771 1.429 . S
C766 C758 1.574 . S
C766 H761 0.949 . S
C766 C772 1.368 1_556 S
C767 C751 1.349 . S
C767 H759 0.950 . S
C767 C765 1.327 . S
C768 C756 1.349 . S
C768 H762 0.950 . S
C768 C769 1.327 . S
C769 H763 0.950 . S
C769 C768 1.327 . S
C769 C773 1.429 . S
C770 C753 1.574 1_556 S
C770 H764 0.949 . S
C770 C774 1.368 . S
C771 C752 1.429 . S
C771 C765 1.429 . S
C771 C772 1.523 . S
C772 C753 1.368 . S
C772 C766 1.368 1_554 S
C772 C771 1.523 . S
C773 C757 1.429 . S
C773 C769 1.429 . S
C773 C774 1.523 . S
C774 C758 1.368 . S
C774 C770 1.368 . S
C774 C773 1.523 . S
H775 C750 0.950 . S
H776 C752 0.950 . S
H777 C753 0.949 . S
H778 C755 0.950 . S
H779 C757 0.950 . S
C780 C781 1.360 . S
C780 C782 1.327 . S
C780 H805 0.950 . S
C781 C780 1.360 . S
C781 C797 1.337 1_455 S
C782 C780 1.327 . S
C782 C801 1.429 1_455 S
C782 H806 0.950 . S
C783 C800 1.574 . S
C783 C802 1.368 . S
C783 H807 0.949 . S
H784 C788 0.949 . S
C785 C786 1.349 . S
C785 C787 1.327 . S
C785 H808 0.950 . S
C786 C785 1.349 . S
C786 C798 1.349 1_655 S
C787 C785 1.327 . S
C787 C803 1.429 . S
C787 H809 0.950 . S
C788 H784 0.949 . S
C788 C796 1.574 . S
C788 C804 1.368 1_455 S
H789 C797 0.950 . S
H790 C795 0.950 . S
H791 C796 0.949 . S
H792 C798 0.950 . S
H793 C799 0.950 . S
H794 C800 0.949 . S
C795 H790 0.950 . S
C795 C797 1.327 . S
C795 C801 1.429 . S
C796 C788 1.574 . S
C796 H791 0.949 . S
C796 C802 1.368 1_455 S
C797 C781 1.337 1_655 S
C797 H789 0.950 . S
C797 C795 1.327 . S
C798 C786 1.349 1_455 S
C798 H792 0.950 . S
C798 C799 1.327 . S
C799 H793 0.950 . S
C799 C798 1.327 . S
C799 C803 1.429 1_455 S
C800 C783 1.574 . S
C800 H794 0.949 . S
C800 C804 1.368 . S
C801 C782 1.429 1_655 S
C801 C795 1.429 . S
C801 C802 1.523 . S
C802 C783 1.368 . S
C802 C796 1.368 1_655 S
C802 C801 1.523 . S
C803 C787 1.429 . S
C803 C799 1.429 1_655 S
C803 C804 1.523 . S
C804 C788 1.368 1_655 S
C804 C800 1.368 . S
C804 C803 1.523 . S
H805 C780 0.950 . S
H806 C782 0.950 . S
H807 C783 0.949 . S
H808 C785 0.950 . S
H809 C787 0.950 . S
C810 C811 1.372 . S
C810 C812 1.327 . S
C810 H835 0.950 . S
C811 C810 1.372 . S
C811 C827 1.328 1_565 S
C812 C810 1.327 . S
C812 C831 1.429 . S
C812 H836 0.950 . S
C813 C830 1.574 . S
C813 C832 1.368 1_545 S
C813 H837 0.949 . S
H814 C818 0.949 . S
C815 C816 1.349 1_545 S
C815 C817 1.327 . S
C815 H838 0.950 . S
C816 C815 1.349 1_565 S
C816 C828 1.349 . S
C817 C815 1.327 . S
C817 C833 1.429 1_545 S
C817 H839 0.950 . S
C818 H814 0.949 . S
C818 C826 1.574 . S
C818 C834 1.368 . S
H819 C827 0.950 . S
H820 C825 0.950 . S
H821 C826 0.949 . S
H822 C828 0.950 . S
H823 C829 0.950 . S
H824 C830 0.949 . S
C825 H820 0.950 . S
C825 C827 1.327 . S
C825 C831 1.429 1_545 S
C826 C818 1.574 . S
C826 H821 0.949 . S
C826 C832 1.368 . S
C827 C811 1.328 1_545 S
C827 H819 0.950 . S
C827 C825 1.327 . S
C828 C816 1.349 . S
C828 H822 0.950 . S
C828 C829 1.327 . S
C829 H823 0.950 . S
C829 C828 1.327 . S
C829 C833 1.429 . S
C830 C813 1.574 . S
C830 H824 0.949 . S
C830 C834 1.368 1_545 S
C831 C812 1.429 . S
C831 C825 1.429 1_565 S
C831 C832 1.523 . S
C832 C813 1.368 1_565 S
C832 C826 1.368 . S
C832 C831 1.523 . S
C833 C817 1.429 1_565 S
C833 C829 1.429 . S
C833 C834 1.523 . S
C834 C818 1.368 . S
C834 C830 1.368 1_565 S
C834 C833 1.523 . S
H835 C810 0.950 . S
H836 C812 0.950 . S
H837 C813 0.949 . S
H838 C815 0.950 . S
H839 C817 0.950 . S
C840 C841 1.349 . S
C840 C842 1.327 . S
C840 H865 0.950 . S
C841 C840 1.349 . S
C841 C857 1.349 . S
C842 C840 1.327 . S
C842 C861 1.429 . S
C842 H866 0.950 . S
C843 C860 1.574 . S
C843 C862 1.368 . S
C843 H867 0.949 . S
H844 C848 0.949 . S
C845 C846 1.349 . S
C845 C847 1.327 . S
C845 H868 0.950 . S
C846 C845 1.349 . S
C846 C858 1.349 . S
C847 C845 1.327 . S
C847 C863 1.429 . S
C847 H869 0.950 . S
C848 H844 0.949 . S
C848 C856 1.574 . S
C848 C864 1.368 . S
H849 C857 0.950 . S
H850 C855 0.950 . S
H851 C856 0.949 . S
H852 C858 0.950 . S
H853 C859 0.950 . S
H854 C860 0.949 . S
C855 H850 0.950 . S
C855 C857 1.327 . S
C855 C861 1.429 . S
C856 C848 1.574 . S
C856 H851 0.949 . S
C856 C862 1.368 . S
C857 C841 1.349 . S
C857 H849 0.950 . S
C857 C855 1.327 . S
C858 C846 1.349 . S
C858 H852 0.950 . S
C858 C859 1.327 . S
C859 H853 0.950 . S
C859 C858 1.327 . S
C859 C863 1.429 . S
C860 C843 1.574 . S
C860 H854 0.949 . S
C860 C864 1.368 . S
C861 C842 1.429 . S
C861 C855 1.429 . S
C861 C862 1.523 . S
C862 C843 1.368 . S
C862 C856 1.368 . S
C862 C861 1.523 . S
C863 C847 1.429 . S
C863 C859 1.429 . S
C863 C864 1.523 . S
C864 C848 1.368 . S
C864 C860 1.368 . S
C864 C863 1.523 . S
H865 C840 0.950 . S
H866 C842 0.950 . S
H867 C843 0.949 . S
H868 C845 0.950 . S
H869 C847 0.950 . S
C870 C871 1.349 . S
C870 C872 1.327 . S
C870 H895 0.950 . S
C871 C870 1.349 . S
C871 C887 1.349 . S
C872 C870 1.327 . S
C872 C891 1.429 . S
C872 H896 0.950 . S
C873 C890 1.574 . S
C873 C892 1.368 . S
C873 H897 0.949 . S
H874 C878 0.949 . S
C875 C876 1.349 . S
C875 C877 1.327 . S
C875 H898 0.950 . S
C876 C875 1.349 . S
C876 C888 1.349 . S
C877 C875 1.327 . S
C877 C893 1.429 . S
C877 H899 0.950 . S
C878 H874 0.949 . S
C878 C886 1.574 . S
C878 C894 1.368 . S
H879 C887 0.950 . S
H880 C885 0.950 . S
H881 C886 0.949 . S
H882 C888 0.950 . S
H883 C889 0.950 . S
H884 C890 0.949 . S
C885 H880 0.950 . S
C885 C887 1.327 . S
C885 C891 1.429 . S
C886 C878 1.574 . S
C886 H881 0.949 . S
C886 C892 1.368 . S
C887 C871 1.349 . S
C887 H879 0.950 . S
C887 C885 1.327 . S
C888 C876 1.349 . S
C888 H882 0.950 . S
C888 C889 1.327 . S
C889 H883 0.950 . S
C889 C888 1.327 . S
C889 C893 1.429 . S
C890 C873 1.574 . S
C890 H884 0.949 . S
C890 C894 1.368 . S
C891 C872 1.429 . S
C891 C885 1.429 . S
C891 C892 1.523 . S
C892 C873 1.368 . S
C892 C886 1.368 . S
C892 C891 1.523 . S
C893 C877 1.429 . S
C893 C889 1.429 . S
C893 C894 1.523 . S
C894 C878 1.368 . S
C894 C890 1.368 . S
C894 C893 1.523 . S
H895 C870 0.950 . S
H896 C872 0.950 . S
H897 C873 0.949 . S
H898 C875 0.950 . S
H899 C877 0.950 . S
C181 C74 1.508 . S
C186 C104 1.512 . S
C216 C127 1.580 . S
C211 C85 1.582 . S
C246 C150 1.604 . S
C241 C52 1.595 . S
C276 C177 1.477 . S
C271 C63 1.544 . S
C306 C105 1.527 . S
C301 C30 1.508 1_565 S
C331 C41 1.430 . S
C336 C128 1.449 . S
C361 C8 1.396 . S
C366 C151 1.411 . S
C391 C19 1.538 1_655 S
C396 C176 1.539 1_455 S
C426 C106 0.144 . S
C421 C62 0.123 . S
C456 C129 0.198 . S
C451 C73 0.256 . S
C486 C152 0.211 . S
C481 C84 0.211 . S
C511 C51 0.261 . S
C516 C178 0.457 . S
C541 C18 0.479 . S
C546 C109 0.526 . S
C576 C132 0.527 . S
C571 C29 0.415 1_565 S
C606 C155 0.525 . S
C601 C40 0.456 . S
C631 C7 0.343 . S
C636 C175 0.178 . S
C661 C60 1.420 . S
C666 C107 1.557 . S
C691 C71 1.297 . S
C696 C130 1.507 . S
C726 C153 1.530 . S
C721 C82 1.350 . S
C756 C174 1.292 . S
C751 C49 1.069 . S
C781 C16 1.356 . S
C786 C108 1.494 1_655 S
C816 C131 1.446 . S
C811 C27 1.298 1_565 S
C846 C154 1.436 . S
C841 C38 1.271 . S
C871 C5 1.467 . S
C876 C173 1.743 . S
