# Generated by pormake.
# Topology gar, (4,6)-cn, num edge types: 1
# Building blocks:
#     Node 0, Type 0, BuildingBlock: AZAVOO_clean_sbu_0, # of connection points: 4
#     Node 1, Type 0, BuildingBlock: AZAVOO_clean_sbu_0, # of connection points: 4
#     Node 2, Type 0, BuildingBlock: AZAVOO_clean_sbu_0, # of connection points: 4
#     Node 3, Type 0, BuildingBlock: AZAVOO_clean_sbu_0, # of connection points: 4
#     Node 4, Type 0, BuildingBlock: AZAVOO_clean_sbu_0, # of connection points: 4
#     Node 5, Type 0, BuildingBlock: AZAVOO_clean_sbu_0, # of connection points: 4
#     Node 6, Type 0, BuildingBlock: AZAVOO_clean_sbu_0, # of connection points: 4
#     Node 7, Type 0, BuildingBlock: AZAVOO_clean_sbu_0, # of connection points: 4
#     Node 8, Type 0, BuildingBlock: AZAVOO_clean_sbu_0, # of connection points: 4
#     Node 9, Type 0, BuildingBlock: AZAVOO_clean_sbu_0, # of connection points: 4
#     Node 10, Type 0, BuildingBlock: AZAVOO_clean_sbu_0, # of connection points: 4
#     Node 11, Type 0, BuildingBlock: AZAVOO_clean_sbu_0, # of connection points: 4
#     Node 12, Type 0, BuildingBlock: AZAVOO_clean_sbu_0, # of connection points: 4
#     Node 13, Type 0, BuildingBlock: AZAVOO_clean_sbu_0, # of connection points: 4
#     Node 14, Type 0, BuildingBlock: AZAVOO_clean_sbu_0, # of connection points: 4
#     Node 15, Type 0, BuildingBlock: AZAVOO_clean_sbu_0, # of connection points: 4
#     Node 16, Type 0, BuildingBlock: AZAVOO_clean_sbu_0, # of connection points: 4
#     Node 17, Type 0, BuildingBlock: AZAVOO_clean_sbu_0, # of connection points: 4
#     Node 18, Type 0, BuildingBlock: AZAVOO_clean_sbu_0, # of connection points: 4
#     Node 19, Type 0, BuildingBlock: AZAVOO_clean_sbu_0, # of connection points: 4
#     Node 20, Type 0, BuildingBlock: AZAVOO_clean_sbu_0, # of connection points: 4
#     Node 21, Type 0, BuildingBlock: AZAVOO_clean_sbu_0, # of connection points: 4
#     Node 22, Type 0, BuildingBlock: AZAVOO_clean_sbu_0, # of connection points: 4
#     Node 23, Type 0, BuildingBlock: AZAVOO_clean_sbu_0, # of connection points: 4
#     Node 24, Type 1, BuildingBlock: MIFKUJ_clean_sbu_0, # of connection points: 6
#     Node 25, Type 1, BuildingBlock: MIFKUJ_clean_sbu_0, # of connection points: 6
#     Node 26, Type 1, BuildingBlock: MIFKUJ_clean_sbu_0, # of connection points: 6
#     Node 27, Type 1, BuildingBlock: MIFKUJ_clean_sbu_0, # of connection points: 6
#     Node 28, Type 1, BuildingBlock: MIFKUJ_clean_sbu_0, # of connection points: 6
#     Node 29, Type 1, BuildingBlock: MIFKUJ_clean_sbu_0, # of connection points: 6
#     Node 30, Type 1, BuildingBlock: MIFKUJ_clean_sbu_0, # of connection points: 6
#     Node 31, Type 1, BuildingBlock: MIFKUJ_clean_sbu_0, # of connection points: 6
#     Node 32, Type 1, BuildingBlock: MIFKUJ_clean_sbu_0, # of connection points: 6
#     Node 33, Type 1, BuildingBlock: MIFKUJ_clean_sbu_0, # of connection points: 6
#     Node 34, Type 1, BuildingBlock: MIFKUJ_clean_sbu_0, # of connection points: 6
#     Node 35, Type 1, BuildingBlock: MIFKUJ_clean_sbu_0, # of connection points: 6
#     Node 36, Type 1, BuildingBlock: MIFKUJ_clean_sbu_0, # of connection points: 6
#     Node 37, Type 1, BuildingBlock: MIFKUJ_clean_sbu_0, # of connection points: 6
#     Node 38, Type 1, BuildingBlock: MIFKUJ_clean_sbu_0, # of connection points: 6
#     Node 39, Type 1, BuildingBlock: MIFKUJ_clean_sbu_0, # of connection points: 6
#     Edge 40, Type (0, 1), BuildingBlock: KIFKEQ_clean_linker_1, # of connection points: 2
#     Edge 41, Type (0, 1), BuildingBlock: KIFKEQ_clean_linker_1, # of connection points: 2
#     Edge 42, Type (0, 1), BuildingBlock: KIFKEQ_clean_linker_1, # of connection points: 2
#     Edge 43, Type (0, 1), BuildingBlock: KIFKEQ_clean_linker_1, # of connection points: 2
#     Edge 44, Type (0, 1), BuildingBlock: KIFKEQ_clean_linker_1, # of connection points: 2
#     Edge 45, Type (0, 1), BuildingBlock: KIFKEQ_clean_linker_1, # of connection points: 2
#     Edge 46, Type (0, 1), BuildingBlock: KIFKEQ_clean_linker_1, # of connection points: 2
#     Edge 47, Type (0, 1), BuildingBlock: KIFKEQ_clean_linker_1, # of connection points: 2
#     Edge 48, Type (0, 1), BuildingBlock: KIFKEQ_clean_linker_1, # of connection points: 2
#     Edge 49, Type (0, 1), BuildingBlock: KIFKEQ_clean_linker_1, # of connection points: 2
#     Edge 50, Type (0, 1), BuildingBlock: KIFKEQ_clean_linker_1, # of connection points: 2
#     Edge 51, Type (0, 1), BuildingBlock: KIFKEQ_clean_linker_1, # of connection points: 2
#     Edge 52, Type (0, 1), BuildingBlock: KIFKEQ_clean_linker_1, # of connection points: 2
#     Edge 53, Type (0, 1), BuildingBlock: KIFKEQ_clean_linker_1, # of connection points: 2
#     Edge 54, Type (0, 1), BuildingBlock: KIFKEQ_clean_linker_1, # of connection points: 2
#     Edge 55, Type (0, 1), BuildingBlock: KIFKEQ_clean_linker_1, # of connection points: 2
#     Edge 56, Type (0, 1), BuildingBlock: KIFKEQ_clean_linker_1, # of connection points: 2
#     Edge 57, Type (0, 1), BuildingBlock: KIFKEQ_clean_linker_1, # of connection points: 2
#     Edge 58, Type (0, 1), BuildingBlock: KIFKEQ_clean_linker_1, # of connection points: 2
#     Edge 59, Type (0, 1), BuildingBlock: KIFKEQ_clean_linker_1, # of connection points: 2
#     Edge 60, Type (0, 1), BuildingBlock: KIFKEQ_clean_linker_1, # of connection points: 2
#     Edge 61, Type (0, 1), BuildingBlock: KIFKEQ_clean_linker_1, # of connection points: 2
#     Edge 62, Type (0, 1), BuildingBlock: KIFKEQ_clean_linker_1, # of connection points: 2
#     Edge 63, Type (0, 1), BuildingBlock: KIFKEQ_clean_linker_1, # of connection points: 2
#     Edge 64, Type (0, 1), BuildingBlock: KIFKEQ_clean_linker_1, # of connection points: 2
#     Edge 65, Type (0, 1), BuildingBlock: KIFKEQ_clean_linker_1, # of connection points: 2
#     Edge 66, Type (0, 1), BuildingBlock: KIFKEQ_clean_linker_1, # of connection points: 2
#     Edge 67, Type (0, 1), BuildingBlock: KIFKEQ_clean_linker_1, # of connection points: 2
#     Edge 68, Type (0, 1), BuildingBlock: KIFKEQ_clean_linker_1, # of connection points: 2
#     Edge 69, Type (0, 1), BuildingBlock: KIFKEQ_clean_linker_1, # of connection points: 2
#     Edge 70, Type (0, 1), BuildingBlock: KIFKEQ_clean_linker_1, # of connection points: 2
#     Edge 71, Type (0, 1), BuildingBlock: KIFKEQ_clean_linker_1, # of connection points: 2
#     Edge 72, Type (0, 1), BuildingBlock: KIFKEQ_clean_linker_1, # of connection points: 2
#     Edge 73, Type (0, 1), BuildingBlock: KIFKEQ_clean_linker_1, # of connection points: 2
#     Edge 74, Type (0, 1), BuildingBlock: KIFKEQ_clean_linker_1, # of connection points: 2
#     Edge 75, Type (0, 1), BuildingBlock: KIFKEQ_clean_linker_1, # of connection points: 2
#     Edge 76, Type (0, 1), BuildingBlock: KIFKEQ_clean_linker_1, # of connection points: 2
#     Edge 77, Type (0, 1), BuildingBlock: KIFKEQ_clean_linker_1, # of connection points: 2
#     Edge 78, Type (0, 1), BuildingBlock: KIFKEQ_clean_linker_1, # of connection points: 2
#     Edge 79, Type (0, 1), BuildingBlock: KIFKEQ_clean_linker_1, # of connection points: 2
#     Edge 80, Type (0, 1), BuildingBlock: KIFKEQ_clean_linker_1, # of connection points: 2
#     Edge 81, Type (0, 1), BuildingBlock: KIFKEQ_clean_linker_1, # of connection points: 2
#     Edge 82, Type (0, 1), BuildingBlock: KIFKEQ_clean_linker_1, # of connection points: 2
#     Edge 83, Type (0, 1), BuildingBlock: KIFKEQ_clean_linker_1, # of connection points: 2
#     Edge 84, Type (0, 1), BuildingBlock: KIFKEQ_clean_linker_1, # of connection points: 2
#     Edge 85, Type (0, 1), BuildingBlock: KIFKEQ_clean_linker_1, # of connection points: 2
#     Edge 86, Type (0, 1), BuildingBlock: KIFKEQ_clean_linker_1, # of connection points: 2
#     Edge 87, Type (0, 1), BuildingBlock: KIFKEQ_clean_linker_1, # of connection points: 2
#     Edge 88, Type (0, 1), BuildingBlock: KIFKEQ_clean_linker_1, # of connection points: 2
#     Edge 89, Type (0, 1), BuildingBlock: KIFKEQ_clean_linker_1, # of connection points: 2
#     Edge 90, Type (0, 1), BuildingBlock: KIFKEQ_clean_linker_1, # of connection points: 2
#     Edge 91, Type (0, 1), BuildingBlock: KIFKEQ_clean_linker_1, # of connection points: 2
#     Edge 92, Type (0, 1), BuildingBlock: KIFKEQ_clean_linker_1, # of connection points: 2
#     Edge 93, Type (0, 1), BuildingBlock: KIFKEQ_clean_linker_1, # of connection points: 2
#     Edge 94, Type (0, 1), BuildingBlock: KIFKEQ_clean_linker_1, # of connection points: 2
#     Edge 95, Type (0, 1), BuildingBlock: KIFKEQ_clean_linker_1, # of connection points: 2
#     Edge 96, Type (0, 1), BuildingBlock: KIFKEQ_clean_linker_1, # of connection points: 2
#     Edge 97, Type (0, 1), BuildingBlock: KIFKEQ_clean_linker_1, # of connection points: 2
#     Edge 98, Type (0, 1), BuildingBlock: KIFKEQ_clean_linker_1, # of connection points: 2
#     Edge 99, Type (0, 1), BuildingBlock: KIFKEQ_clean_linker_1, # of connection points: 2
#     Edge 100, Type (0, 1), BuildingBlock: KIFKEQ_clean_linker_1, # of connection points: 2
#     Edge 101, Type (0, 1), BuildingBlock: KIFKEQ_clean_linker_1, # of connection points: 2
#     Edge 102, Type (0, 1), BuildingBlock: KIFKEQ_clean_linker_1, # of connection points: 2
#     Edge 103, Type (0, 1), BuildingBlock: KIFKEQ_clean_linker_1, # of connection points: 2
#     Edge 104, Type (0, 1), BuildingBlock: KIFKEQ_clean_linker_1, # of connection points: 2
#     Edge 105, Type (0, 1), BuildingBlock: KIFKEQ_clean_linker_1, # of connection points: 2
#     Edge 106, Type (0, 1), BuildingBlock: KIFKEQ_clean_linker_1, # of connection points: 2
#     Edge 107, Type (0, 1), BuildingBlock: KIFKEQ_clean_linker_1, # of connection points: 2
#     Edge 108, Type (0, 1), BuildingBlock: KIFKEQ_clean_linker_1, # of connection points: 2
#     Edge 109, Type (0, 1), BuildingBlock: KIFKEQ_clean_linker_1, # of connection points: 2
#     Edge 110, Type (0, 1), BuildingBlock: KIFKEQ_clean_linker_1, # of connection points: 2
#     Edge 111, Type (0, 1), BuildingBlock: KIFKEQ_clean_linker_1, # of connection points: 2
#     Edge 112, Type (0, 1), BuildingBlock: KIFKEQ_clean_linker_1, # of connection points: 2
#     Edge 113, Type (0, 1), BuildingBlock: KIFKEQ_clean_linker_1, # of connection points: 2
#     Edge 114, Type (0, 1), BuildingBlock: KIFKEQ_clean_linker_1, # of connection points: 2
#     Edge 115, Type (0, 1), BuildingBlock: KIFKEQ_clean_linker_1, # of connection points: 2
#     Edge 116, Type (0, 1), BuildingBlock: KIFKEQ_clean_linker_1, # of connection points: 2
#     Edge 117, Type (0, 1), BuildingBlock: KIFKEQ_clean_linker_1, # of connection points: 2
#     Edge 118, Type (0, 1), BuildingBlock: KIFKEQ_clean_linker_1, # of connection points: 2
#     Edge 119, Type (0, 1), BuildingBlock: KIFKEQ_clean_linker_1, # of connection points: 2
#     Edge 120, Type (0, 1), BuildingBlock: KIFKEQ_clean_linker_1, # of connection points: 2
#     Edge 121, Type (0, 1), BuildingBlock: KIFKEQ_clean_linker_1, # of connection points: 2
#     Edge 122, Type (0, 1), BuildingBlock: KIFKEQ_clean_linker_1, # of connection points: 2
#     Edge 123, Type (0, 1), BuildingBlock: KIFKEQ_clean_linker_1, # of connection points: 2
#     Edge 124, Type (0, 1), BuildingBlock: KIFKEQ_clean_linker_1, # of connection points: 2
#     Edge 125, Type (0, 1), BuildingBlock: KIFKEQ_clean_linker_1, # of connection points: 2
#     Edge 126, Type (0, 1), BuildingBlock: KIFKEQ_clean_linker_1, # of connection points: 2
#     Edge 127, Type (0, 1), BuildingBlock: KIFKEQ_clean_linker_1, # of connection points: 2
#     Edge 128, Type (0, 1), BuildingBlock: KIFKEQ_clean_linker_1, # of connection points: 2
#     Edge 129, Type (0, 1), BuildingBlock: KIFKEQ_clean_linker_1, # of connection points: 2
#     Edge 130, Type (0, 1), BuildingBlock: KIFKEQ_clean_linker_1, # of connection points: 2
#     Edge 131, Type (0, 1), BuildingBlock: KIFKEQ_clean_linker_1, # of connection points: 2
#     Edge 132, Type (0, 1), BuildingBlock: KIFKEQ_clean_linker_1, # of connection points: 2
#     Edge 133, Type (0, 1), BuildingBlock: KIFKEQ_clean_linker_1, # of connection points: 2
#     Edge 134, Type (0, 1), BuildingBlock: KIFKEQ_clean_linker_1, # of connection points: 2
#     Edge 135, Type (0, 1), BuildingBlock: KIFKEQ_clean_linker_1, # of connection points: 2
# Relax obj value: 0.127
# Max RMSD: 0.294
# Mean RMSD: 0.178
data_MOF--net-gar--node1-AZAVOO_clean_sbu_0--node2-MIFKUJ_clean_sbu_0--edge1-KIFKEQ_clean_linker_1
_symmetry_space_group_name_H-M    P1
_symmetry_Int_Tables_number       1
_symmetry_cell_setting            triclinic
loop_
_symmetry_equiv_pos_as_xyz
'x, y, z'
_cell_length_a     58.011637
_cell_length_b     55.706609
_cell_length_c     54.825402
_cell_angle_alpha  97.033105
_cell_angle_beta   94.447952
_cell_angle_gamma 100.08059
loop_
_atom_site_label
_atom_site_type_symbol
_atom_site_fract_x
_atom_site_fract_y
_atom_site_fract_z
_atom_type_partial_charge
Mg0 Mg 0.006 0.26161 0.38611 0.0
O1 O 0.0111 0.29794 0.41307 0.0
O2 O 0.97966 0.29486 0.43452 0.0
Mg3 Mg 0.95408 0.25893 0.42047 0.0
C4 C 0.99943 0.30659 0.42987 0.0
C5 C 0.05023 0.25253 0.36215 0.0
O6 O 0.03395 0.23389 0.35165 0.0
O7 O 0.0138 0.2404 0.41793 0.0
O8 O 0.98065 0.23737 0.43651 0.0
O9 O 0.98725 0.27775 0.35669 0.0
O10 O 0.96977 0.25875 0.38523 0.0
C11 C 0.0012 0.23254 0.43443 0.0
C12 C 0.96817 0.27073 0.36671 0.0
O13 O 0.04457 0.26829 0.37831 0.0
Mg14 Mg 0.98811 0.77004 0.66146 0.0
O15 O 0.98236 0.73135 0.63953 0.0
O16 O 0.94754 0.72406 0.61693 0.0
Mg17 Mg 0.93051 0.75782 0.62526 0.0
C18 C 0.9667 0.71745 0.6239 0.0
C19 C 0.03521 0.75189 0.67765 0.0
O20 O 0.02049 0.73292 0.68289 0.0
O21 O 0.99501 0.78686 0.62628 0.0
O22 O 0.95903 0.78047 0.60607 0.0
O23 O 0.96999 0.75567 0.69299 0.0
O24 O 0.95201 0.76812 0.66127 0.0
C25 C 0.98109 0.78922 0.60788 0.0
C26 C 0.95059 0.75898 0.68165 0.0
O27 O 0.02716 0.76937 0.66919 0.0
Mg28 Mg 0.50485 0.76015 0.88552 0.0
O29 O 0.50968 0.79624 0.91263 0.0
O30 O 0.47806 0.79335 0.93372 0.0
Mg31 Mg 0.45247 0.75741 0.91912 0.0
C32 C 0.49794 0.805 0.92925 0.0
C33 C 0.54819 0.76496 0.85587 0.0
O34 O 0.53058 0.75892 0.83836 0.0
O35 O 0.51231 0.7384 0.91731 0.0
O36 O 0.47843 0.73494 0.9346 0.0
O37 O 0.48591 0.77685 0.85641 0.0
O38 O 0.46845 0.7566 0.88406 0.0
C39 C 0.49899 0.72996 0.93304 0.0
C40 C 0.46672 0.76896 0.86588 0.0
O41 O 0.54366 0.76754 0.87829 0.0
Mg42 Mg 0.49428 0.27273 0.15227 0.0
O43 O 0.48675 0.23362 0.13132 0.0
O44 O 0.45211 0.22706 0.10854 0.0
Mg45 Mg 0.43699 0.2623 0.11576 0.0
C46 C 0.47079 0.21981 0.116 0.0
C47 C 0.54247 0.27038 0.18178 0.0
O48 O 0.53035 0.27413 0.20071 0.0
O49 O 0.50214 0.2885 0.11676 0.0
O50 O 0.46644 0.28276 0.09592 0.0
O51 O 0.47531 0.26001 0.18389 0.0
O52 O 0.45853 0.27312 0.15181 0.0
C53 C 0.48865 0.29072 0.09795 0.0
C54 C 0.45646 0.26439 0.17236 0.0
O55 O 0.53255 0.26904 0.16005 0.0
Mg56 Mg 0.00844 0.7768 0.1548 0.0
O57 O 0.01163 0.74035 0.13229 0.0
O58 O 0.97962 0.729 0.1052 0.0
Mg59 Mg 0.95494 0.7565 0.11244 0.0
C60 C -0.00051 0.72555 0.1144 0.0
C61 C 0.05238 0.79087 0.19165 0.0
O62 O 0.03548 0.79436 0.20554 0.0
O63 O 0.0153 0.79696 0.12179 0.0
O64 O 0.98068 0.78712 0.09857 0.0
O65 O 0.99085 0.75725 0.18327 0.0
O66 O 0.97209 0.76728 0.15048 0.0
C67 C 0.00172 0.79934 0.10311 0.0
C68 C 0.97116 0.75703 0.17031 0.0
O69 O 0.04715 0.78371 0.16865 0.0
Mg70 Mg 0.48402 0.7291 0.38016 0.0
O71 O 0.48626 0.76628 0.40423 0.0
O72 O 0.45461 0.76405 0.42522 0.0
Mg73 Mg 0.43197 0.72571 0.41396 0.0
C74 C 0.47398 0.77591 0.41973 0.0
C75 C 0.52806 0.726 0.35447 0.0
O76 O 0.51243 0.70733 0.34289 0.0
O77 O 0.49388 0.71191 0.41407 0.0
O78 O 0.46073 0.70801 0.43262 0.0
O79 O 0.46466 0.7418 0.3494 0.0
O80 O 0.44738 0.72312 0.37835 0.0
C81 C 0.48191 0.70473 0.43128 0.0
C82 C 0.44554 0.73414 0.3591 0.0
O83 O 0.52218 0.73941 0.37253 0.0
Mg84 Mg 0.50886 0.28347 0.64987 0.0
O85 O 0.51196 0.24595 0.62936 0.0
O86 O 0.47937 0.23258 0.60341 0.0
Mg87 Mg 0.45468 0.26026 0.60909 0.0
C88 C 0.49954 0.22996 0.61258 0.0
C89 C 0.55314 0.29913 0.68593 0.0
O90 O 0.53647 0.30439 0.69945 0.0
O91 O 0.51495 0.30157 0.61526 0.0
O92 O 0.48004 0.28934 0.59287 0.0
O93 O 0.49206 0.26561 0.67982 0.0
O94 O 0.47247 0.27361 0.64649 0.0
C95 C 0.50088 0.30214 0.5963 0.0
C96 C 0.47212 0.26441 0.66694 0.0
O97 O 0.54769 0.29069 0.66321 0.0
Mg98 Mg 0.98113 0.22655 0.87279 0.0
O99 O 0.98257 0.26368 0.8967 0.0
O100 O 0.9508 0.26072 0.91753 0.0
Mg101 Mg 0.92886 0.22207 0.9063 0.0
C102 C 0.97 0.27297 0.91211 0.0
C103 C 0.02691 0.22181 0.85091 0.0
O104 O 0.0127 0.20101 0.84197 0.0
O105 O 0.99122 0.20988 0.90689 0.0
O106 O 0.95807 0.20532 0.9254 0.0
O107 O 0.96155 0.2387 0.84181 0.0
O108 O 0.94452 0.21988 0.87082 0.0
C109 C 0.97941 0.20261 0.92417 0.0
C110 C 0.9425 0.23078 0.85151 0.0
O111 O 0.01937 0.23738 0.86566 0.0
Mg112 Mg 0.40677 0.04499 0.29273 0.0
O113 O 0.38606 0.00688 0.29621 0.0
O114 O 0.37179 0.0077 0.33289 0.0
Mg115 Mg 0.38413 0.04693 0.35317 0.0
C116 C 0.37423 0.9963 0.31186 0.0
C117 C 0.41582 0.01393 0.2452 0.0
O118 O 0.4224 0.00113 0.2622 0.0
O119 O 0.37219 0.05847 0.28659 0.0
O120 O 0.36039 0.06113 0.32452 0.0
O121 O 0.43955 0.03564 0.30954 0.0
O122 O 0.41428 0.0525 0.33095 0.0
C123 C 0.35763 0.0639 0.30172 0.0
C124 C 0.43318 0.04327 0.33079 0.0
O125 O 0.4076 0.03318 0.25173 0.0
Mg126 Mg 0.28426 0.12246 0.49551 0.0
O127 O 0.28322 0.14779 0.53145 0.0
O128 O 0.31661 0.17534 0.53922 0.0
Mg129 Mg 0.33942 0.16672 0.50792 0.0
C130 C 0.29632 0.16617 0.54491 0.0
C131 C 0.23274 0.09279 0.47907 0.0
O132 O 0.24259 0.08424 0.45988 0.0
O133 O 0.27878 0.15252 0.47203 0.0
O134 O 0.31367 0.17803 0.47887 0.0
O135 O 0.30066 0.09719 0.51672 0.0
O136 O 0.32093 0.12775 0.50061 0.0
C137 C 0.29281 0.17165 0.46789 0.0
C138 C 0.32087 0.1098 0.51343 0.0
O139 O 0.24504 0.10889 0.49564 0.0
Mg140 Mg 0.13528 0.99405 0.79194 0.0
O141 O 0.15618 0.03348 0.79833 0.0
O142 O 0.17794 0.0394 0.83471 0.0
Mg143 Mg 0.16942 0.00402 0.85234 0.0
C144 C 0.17128 0.04703 0.81477 0.0
C145 C 0.11657 0.01342 0.74441 0.0
O146 O 0.11038 0.02938 0.76116 0.0
O147 O 0.16877 0.9798 0.78453 0.0
O148 O 0.18764 0.98366 0.82234 0.0
O149 O 0.10524 0.00563 0.81019 0.0
O150 O 0.13507 0.99368 0.82977 0.0
C151 C 0.186 0.97676 0.79904 0.0
C152 C 0.11563 0.00181 0.83075 0.0
O153 O 0.12732 0.99702 0.75131 0.0
Mg154 Mg 0.27003 0.89208 0.01241 0.0
O155 O 0.25833 0.86452 0.97665 0.0
O156 O 0.28627 0.84144 0.97396 0.0
Mg157 Mg 0.31556 0.85457 0.00519 0.0
C158 C 0.26689 0.84687 0.9658 0.0
C159 C 0.23365 0.91967 0.03209 0.0
O160 O 0.25263 0.92755 0.04766 0.0
O161 O 0.2605 0.86175 0.0361 0.0
O162 O 0.29014 0.84116 0.03269 0.0
O163 O 0.28952 0.91908 0.99097 0.0
O164 O 0.30471 0.89054 0.00784 0.0
C165 C 0.2712 0.84471 0.04175 0.0
C166 C 0.30716 0.90807 0.99442 0.0
O167 O 0.23425 0.9031 0.0141 0.0
Mg168 Mg 0.2816 0.39538 0.05664 0.0
O169 O 0.28061 0.37086 0.01953 0.0
O170 O 0.31133 0.35175 0.02093 0.0
Mg171 Mg 0.3317 0.36376 0.05933 0.0
C172 C 0.29291 0.35625 0.00944 0.0
C173 C 0.24183 0.42375 0.04632 0.0
O174 O 0.26034 0.44131 0.05288 0.0
O175 O 0.26863 0.36193 0.07582 0.0
O176 O 0.30056 0.34461 0.07822 0.0
O177 O 0.30444 0.42583 0.04233 0.0
O178 O 0.31823 0.39862 0.06269 0.0
C179 C 0.27936 0.34535 0.08275 0.0
C180 C 0.32233 0.41731 0.05088 0.0
O181 O 0.24429 0.40146 0.04607 0.0
Mg182 Mg 0.78572 0.12663 0.01265 0.0
O183 O 0.79921 0.15197 0.04832 0.0
O184 O 0.83419 0.17474 0.0449 0.0
Mg185 Mg 0.84408 0.16065 0.00662 0.0
C186 C 0.81678 0.16869 0.05716 0.0
C187 C 0.73767 0.09881 0.02141 0.0
O188 O 0.74704 0.08149 0.00967 0.0
O189 O 0.77874 0.15921 0.9942 0.0
O190 O 0.81485 0.17824 0.98878 0.0
O191 O 0.80186 0.0972 0.02625 0.0
O192 O 0.81975 0.12466 0.0045 0.0
C193 C 0.79246 0.17631 0.98615 0.0
C194 C 0.82041 0.10596 0.01614 0.0
O195 O 0.74937 0.12063 0.02565 0.0
Mg196 Mg 0.13168 0.49281 0.2835 0.0
O197 O 0.15172 0.53271 0.28596 0.0
O198 O 0.16587 0.54368 0.32567 0.0
Mg199 Mg 0.15525 0.5122 0.34791 0.0
C200 C 0.16318 0.54852 0.30356 0.0
C201 C 0.10759 0.4746 0.23422 0.0
O202 O 0.09459 0.4652 0.25056 0.0
O203 O 0.16609 0.47891 0.28633 0.0
O204 O 0.17785 0.48814 0.32673 0.0
O205 O 0.09915 0.50647 0.29125 0.0
O206 O 0.12484 0.49927 0.32014 0.0
C207 C 0.18032 0.47816 0.30506 0.0
C208 C 0.10594 0.50746 0.31443 0.0
O209 O 0.12778 0.48752 0.24174 0.0
Mg210 Mg 0.78378 0.89628 0.56546 0.0
O211 O 0.78158 0.8745 0.52661 0.0
O212 O 0.81129 0.85383 0.5255 0.0
Mg213 Mg 0.83357 0.864 0.56293 0.0
C214 C 0.79298 0.85975 0.51521 0.0
C215 C 0.74289 0.91819 0.54246 0.0
O216 O 0.76074 0.92831 0.53151 0.0
O217 O 0.77128 0.86108 0.5825 0.0
O218 O 0.80349 0.84418 0.58249 0.0
O219 O 0.80625 0.92853 0.55343 0.0
O220 O 0.82052 0.89898 0.56923 0.0
C221 C 0.7825 0.84434 0.58806 0.0
C222 C 0.82432 0.91902 0.55944 0.0
O223 O 0.74623 0.90306 0.55742 0.0
Mg224 Mg 0.89623 0.02518 0.2647 0.0
O225 O 0.86881 0.98867 0.26067 0.0
O226 O 0.85019 0.99185 0.29497 0.0
Mg227 Mg 0.86586 0.02691 0.32104 0.0
C228 C 0.85299 0.98025 0.27414 0.0
C229 C 0.9273 0.02837 0.22449 0.0
O230 O 0.93974 0.03776 0.24563 0.0
O231 O 0.86671 0.04666 0.25652 0.0
O232 O 0.85162 0.04906 0.29285 0.0
O233 O 0.92359 0.00832 0.28396 0.0
O234 O 0.89787 0.02675 0.3028 0.0
C235 C 0.85245 0.05445 0.27092 0.0
C236 C 0.91481 0.01469 0.30419 0.0
O237 O 0.90534 0.02036 0.22465 0.0
Mg238 Mg 0.27972 0.61879 0.50509 0.0
O239 O 0.29029 0.64277 0.54208 0.0
O240 O 0.32648 0.66474 0.5436 0.0
Mg241 Mg 0.33957 0.65278 0.50626 0.0
C242 C 0.3074 0.65875 0.55336 0.0
C243 C 0.23526 0.60487 0.53325 0.0
O244 O 0.25079 0.59843 0.54869 0.0
O245 O 0.27545 0.65281 0.48803 0.0
O246 O 0.31244 0.67236 0.48737 0.0
O247 O 0.2943 0.58807 0.51866 0.0
O248 O 0.3145 0.61703 0.50028 0.0
C249 C 0.29022 0.67069 0.48264 0.0
C250 C 0.31391 0.59746 0.51075 0.0
O251 O 0.24183 0.61338 0.51393 0.0
Mg252 Mg 0.39274 0.51958 0.77009 0.0
O253 O 0.36516 0.48328 0.76535 0.0
O254 O 0.34603 0.48562 0.79927 0.0
Mg255 Mg 0.36135 0.52056 0.82567 0.0
C256 C 0.34918 0.47443 0.77838 0.0
C257 C 0.42425 0.5211 0.73016 0.0
O258 O 0.43698 0.52916 0.75142 0.0
O259 O 0.36376 0.54159 0.76173 0.0
O260 O 0.34778 0.54323 0.79759 0.0
O261 O 0.41918 0.50197 0.78988 0.0
O262 O 0.39395 0.52156 0.80817 0.0
C263 C 0.34919 0.54912 0.77589 0.0
C264 C 0.41053 0.50911 0.80998 0.0
O265 O 0.40207 0.51458 0.7302 0.0
Mg266 Mg 0.63458 0.988 0.78407 0.0
O267 O 0.65497 0.02653 0.78076 0.0
O268 O 0.67489 0.04131 0.8177 0.0
Mg269 Mg 0.6665 0.01348 0.84441 0.0
C270 C 0.66913 0.04342 0.79521 0.0
C271 C 0.6048 0.9704 0.73601 0.0
O272 O 0.59099 0.96488 0.75319 0.0
O273 O 0.66841 0.97271 0.78388 0.0
O274 O 0.68591 0.98719 0.82187 0.0
O275 O 0.60442 0.00462 0.79486 0.0
O276 O 0.63296 0.99893 0.8215 0.0
C277 C 0.68528 0.97436 0.80076 0.0
C278 C 0.61425 0.00799 0.81731 0.0
O279 O 0.62636 0.97964 0.74249 0.0
Mg280 Mg 0.78402 0.62695 0.00051 0.0
O281 O 0.78278 0.65061 0.03752 0.0
O282 O 0.81678 0.6773 0.04594 0.0
Mg283 Mg 0.84044 0.66885 0.01538 0.0
C284 C 0.79625 0.66849 0.05136 0.0
C285 C 0.73666 0.59104 0.99357 0.0
O286 O 0.7517 0.5761 0.99037 0.0
O287 O 0.78029 0.65914 0.97936 0.0
O288 O 0.81639 0.68218 0.98617 0.0
O289 O 0.79863 0.59914 0.01986 0.0
O290 O 0.82053 0.63064 0.00682 0.0
C291 C 0.79539 0.67753 0.97546 0.0
C292 C 0.81936 0.61147 0.01802 0.0
O293 O 0.7444 0.6141 0.99783 0.0
Mg294 Mg 0.89577 0.54261 0.79572 0.0
O295 O 0.87615 0.50344 0.79709 0.0
O296 O 0.86009 0.50263 0.83281 0.0
Mg297 Mg 0.87059 0.54117 0.85464 0.0
C298 C 0.86379 0.49205 0.81187 0.0
C299 C 0.92009 0.53851 0.74974 0.0
O300 O 0.93612 0.5511 0.76702 0.0
O301 O 0.86082 0.55477 0.78839 0.0
O302 O 0.84693 0.55465 0.82533 0.0
O303 O 0.92826 0.53385 0.81289 0.0
O304 O 0.90182 0.54881 0.83418 0.0
C305 C 0.84505 0.55827 0.80272 0.0
C306 C 0.92117 0.54032 0.83407 0.0
O307 O 0.89913 0.5325 0.7551 0.0
Mg308 Mg 0.76317 0.39129 0.51303 0.0
O309 O 0.75293 0.36448 0.47641 0.0
O310 O 0.78236 0.34324 0.47395 0.0
Mg311 Mg 0.8115 0.35728 0.50524 0.0
C312 C 0.76253 0.34758 0.46562 0.0
C313 C 0.72004 0.41635 0.50314 0.0
O314 O 0.73316 0.42436 0.48627 0.0
O315 O 0.75497 0.35929 0.53509 0.0
O316 O 0.78637 0.34129 0.53191 0.0
O317 O 0.78222 0.42087 0.49367 0.0
O318 O 0.7981 0.39165 0.50832 0.0
C319 C 0.76679 0.34302 0.5405 0.0
C320 C 0.8002 0.41027 0.49641 0.0
O321 O 0.72651 0.40051 0.51568 0.0
Mg322 Mg 0.63222 0.50609 0.29823 0.0
O323 O 0.65558 0.54405 0.30527 0.0
O324 O 0.67892 0.54777 0.34033 0.0
Mg325 Mg 0.66939 0.51141 0.35619 0.0
C326 C 0.67183 0.55644 0.3212 0.0
C327 C 0.602 0.50625 0.24904 0.0
O328 O 0.58556 0.49758 0.26254 0.0
O329 O 0.66343 0.48932 0.2875 0.0
O330 O 0.68469 0.49104 0.32368 0.0
O331 O 0.60496 0.51975 0.31965 0.0
O332 O 0.63386 0.50357 0.33575 0.0
C333 C 0.68115 0.48485 0.30024 0.0
C334 C 0.61568 0.51352 0.33886 0.0
O335 O 0.62322 0.51188 0.25861 0.0
Zn336 Zn 0.04878 0.01206 0.04168 0.0
Zn337 Zn 0.00159 0.01643 0.01581 0.0
C338 C 0.039 0.96787 0.05858 0.0
O339 O 0.04988 0.98366 0.07749 0.0
C340 C 0.01301 0.05965 0.99601 0.0
O341 O 0.00575 0.04278 0.97673 0.0
O342 O 0.08313 0.0112 0.05171 0.0
O343 O 0.04996 0.02467 0.0088 0.0
O344 O 0.0189 0.99841 0.99113 0.0
C345 C 0.09068 0.99828 0.03432 0.0
O346 O 0.07633 0.98886 0.01444 0.0
O347 O 0.03438 0.97586 0.03834 0.0
C348 C 0.95036 0.00804 0.01178 0.0
O349 O 0.952 0.99517 0.03016 0.0
O350 O 0.9686 0.01538 0.00139 0.0
O351 O 0.99926 0.00653 0.0498 0.0
O352 O 0.03235 0.02918 0.06834 0.0
O353 O 0.01401 0.05304 0.01744 0.0
C354 C 0.03922 0.01078 0.98975 0.0
C355 C 0.01111 0.01871 0.06923 0.0
Zn356 Zn 0.24568 0.77231 0.30123 0.0
Zn357 Zn 0.25919 0.77613 0.25006 0.0
C358 C 0.2134 0.72753 0.2914 0.0
O359 O 0.20117 0.74227 0.303 0.0
C360 C 0.29232 0.81987 0.2592 0.0
O361 O 0.30356 0.80469 0.24672 0.0
O362 O 0.24227 0.77211 0.33754 0.0
O363 O 0.28055 0.78125 0.30012 0.0
O364 O 0.28097 0.7566 0.26579 0.0
C365 C 0.25143 0.75488 0.34507 0.0
O366 O 0.26166 0.74124 0.32964 0.0
O367 O 0.23401 0.73648 0.28667 0.0
C368 C 0.24648 0.78313 0.20164 0.0
O369 O 0.23063 0.79235 0.21369 0.0
O370 O 0.26195 0.77421 0.2135 0.0
O371 O 0.22451 0.76671 0.25261 0.0
O372 O 0.22406 0.79244 0.28608 0.0
O373 O 0.27133 0.81193 0.26355 0.0
C374 C 0.29067 0.76662 0.28706 0.0
C375 C 0.21406 0.78124 0.26536 0.0
Zn376 Zn 0.50382 0.0146 0.53973 0.0
Zn377 Zn 0.54895 0.99783 0.52082 0.0
C378 C 0.52508 0.05897 0.56952 0.0
O379 O 0.5159 0.04603 0.58606 0.0
C380 C 0.53118 0.95454 0.48967 0.0
O381 O 0.54368 0.96828 0.47575 0.0
O382 O 0.47157 0.02243 0.54553 0.0
O383 O 0.50134 0.00219 0.50375 0.0
O384 O 0.537 0.01865 0.49644 0.0
C385 C 0.46802 0.04122 0.53571 0.0
O386 O 0.48396 0.05165 0.52263 0.0
O387 O 0.52464 0.04836 0.54754 0.0
C388 C 0.58813 0.9779 0.53137 0.0
O389 O 0.57294 0.96936 0.54624 0.0
O390 O 0.58218 0.99224 0.5166 0.0
O391 O 0.55005 0.00978 0.55722 0.0
O392 O 0.51428 0.99248 0.56304 0.0
O393 O 0.52956 0.96358 0.51179 0.0
C394 C 0.51498 0.01296 0.48981 0.0
C395 C 0.53608 0.99827 0.57039 0.0
Zn396 Zn 0.28037 0.24948 0.76389 0.0
Zn397 Zn 0.23396 0.26458 0.78266 0.0
C398 C 0.26543 0.21835 0.71883 0.0
O399 O 0.27205 0.20284 0.73295 0.0
C400 C 0.24988 0.29467 0.82748 0.0
O401 O 0.2391 0.30871 0.81475 0.0
O402 O 0.31347 0.2453 0.75882 0.0
O403 O 0.28312 0.28586 0.77494 0.0
O404 O 0.24742 0.29047 0.76219 0.0
C405 C 0.32141 0.25847 0.74285 0.0
O406 O 0.30837 0.27312 0.73406 0.0
O407 O 0.26492 0.24015 0.72867 0.0
C408 C 0.19272 0.25151 0.80314 0.0
O409 O 0.20703 0.23826 0.81227 0.0
O410 O 0.20034 0.26647 0.78852 0.0
O411 O 0.23169 0.22878 0.76925 0.0
O412 O 0.26635 0.22502 0.78545 0.0
O413 O 0.25133 0.27332 0.81711 0.0
C414 C 0.26939 0.29898 0.76644 0.0
C415 C 0.24465 0.21615 0.77976 0.0
Zn416 Zn 0.03174 0.98533 0.5201 0.0
Zn417 Zn 0.02147 0.03718 0.51778 0.0
C418 C 0.06261 0.99682 0.56341 0.0
O419 O 0.07527 0.98657 0.54774 0.0
C420 C 0.98947 0.02923 0.47645 0.0
O421 O 0.97915 0.04087 0.4935 0.0
O422 O 0.03227 0.94903 0.51924 0.0
O423 O 0.99764 0.98647 0.51158 0.0
O424 O 0.99789 0.0194 0.53806 0.0
C425 C 0.0174 0.93964 0.53291 0.0
O426 O 0.00531 0.95397 0.54524 0.0
O427 O 0.04203 0.99934 0.55576 0.0
C428 C 0.03444 0.08665 0.50984 0.0
O429 O 0.051 0.07678 0.49975 0.0
O430 O 0.01926 0.07327 0.52038 0.0
O431 O 0.05605 0.03617 0.52373 0.0
O432 O 0.05566 0.00151 0.49956 0.0
O433 O 0.0097 0.02451 0.48222 0.0
C434 C 0.98727 0.99848 0.52708 0.0
C435 C 0.06621 0.02298 0.50903 0.0
Zn436 Zn 0.25454 0.78892 0.74025 0.0
Zn437 Zn 0.26321 0.74063 0.7583 0.0
C438 C 0.21147 0.77372 0.70885 0.0
O439 O 0.22459 0.78459 0.6934 0.0
C440 C 0.30281 0.76112 0.79163 0.0
O441 O 0.28767 0.7513 0.8059 0.0
O442 O 0.25484 0.82381 0.73428 0.0
O443 O 0.25962 0.79115 0.77741 0.0
O444 O 0.24166 0.75378 0.78133 0.0
C445 C 0.26851 0.84185 0.74744 0.0
O446 O 0.2851 0.83746 0.76308 0.0
O447 O 0.22083 0.77215 0.73019 0.0
C448 C 0.28296 0.69925 0.75073 0.0
O449 O 0.29527 0.71518 0.73872 0.0
O450 O 0.26635 0.70577 0.76229 0.0
O451 O 0.25373 0.73845 0.72223 0.0
O452 O 0.27595 0.77331 0.71801 0.0
O453 O 0.29632 0.76005 0.76875 0.0
C454 C 0.24764 0.77651 0.78981 0.0
C455 C 0.26802 0.75076 0.71005 0.0
Zn456 Zn 0.52508 0.03145 0.00242 0.0
Zn457 Zn 0.50519 0.00672 0.04387 0.0
C458 C 0.5658 0.06277 0.0335 0.0
O459 O 0.55328 0.08029 0.03445 0.0
C460 C 0.46953 0.97688 0.00985 0.0
O461 O 0.47919 0.96004 0.01938 0.0
O462 O 0.52938 0.04173 0.96904 0.0
O463 O 0.51935 0.99431 0.99501 0.0
O464 O 0.52935 0.98701 0.03246 0.0
C465 C 0.54196 0.06162 0.96494 0.0
O466 O 0.55158 0.07839 0.98354 0.0
O467 O 0.55688 0.04149 0.02213 0.0
C468 C 0.47179 0.00014 0.07749 0.0
O469 O 0.46198 0.01226 0.06173 0.0
O470 O 0.49166 0.99446 0.07375 0.0
O471 O 0.51447 0.04313 0.05434 0.0
O472 O 0.50157 0.05005 0.01778 0.0
O473 O 0.47786 0.99946 0.01725 0.0
C474 C 0.52718 0.98049 0.00921 0.0
C475 C 0.50479 0.0564 0.04101 0.0
Zn476 Zn 0.25698 0.22754 0.25944 0.0
Zn477 Zn 0.25439 0.28072 0.28411 0.0
C478 C 0.29578 0.23432 0.23387 0.0
O479 O 0.27865 0.22152 0.21789 0.0
C480 C 0.21588 0.27377 0.31188 0.0
O481 O 0.23306 0.2858 0.32823 0.0
O482 O 0.25589 0.19114 0.24998 0.0
O483 O 0.25001 0.23144 0.2953 0.0
O484 O 0.2751 0.26599 0.30733 0.0
C485 C 0.24777 0.17478 0.26292 0.0
O486 O 0.23518 0.18066 0.28087 0.0
O487 O 0.29117 0.24091 0.25576 0.0
C488 C 0.24299 0.32544 0.28017 0.0
O489 O 0.22843 0.30957 0.26382 0.0
O490 O 0.25797 0.31747 0.29372 0.0
O491 O 0.25914 0.27803 0.24788 0.0
O492 O 0.23825 0.24139 0.23346 0.0
O493 O 0.22046 0.268 0.28981 0.0
C494 C 0.26441 0.24537 0.31195 0.0
C495 C 0.24695 0.26324 0.23019 0.0
Zn496 Zn 0.53294 0.48374 0.02038 0.0
Zn497 Zn 0.52206 0.53466 0.01992 0.0
C498 C 0.56234 0.49332 0.06565 0.0
O499 O 0.57621 0.48343 0.05119 0.0
C500 C 0.48959 0.52128 0.97875 0.0
O501 O 0.4779 0.53165 0.99537 0.0
O502 O 0.5363 0.44809 0.01728 0.0
O503 O 0.49837 0.48373 0.014 0.0
O504 O 0.49889 0.51671 0.04076 0.0
C505 C 0.52024 0.43098 0.00598 0.0
O506 O 0.50223 0.43679 0.9935 0.0
O507 O 0.54241 0.49618 0.05639 0.0
C508 C 0.53135 0.58036 0.00419 0.0
O509 O 0.54427 0.56721 0.99156 0.0
O510 O 0.51924 0.57048 0.02001 0.0
O511 O 0.55669 0.5352 0.02716 0.0
O512 O 0.55626 0.5022 0.00068 0.0
O513 O 0.51097 0.52007 0.98453 0.0
C514 C 0.48819 0.49584 0.02963 0.0
C515 C 0.56702 0.52296 0.01182 0.0
Zn516 Zn 0.75996 0.29369 0.24453 0.0
Zn517 Zn 0.76397 0.24302 0.25569 0.0
C518 C 0.71737 0.28125 0.21187 0.0
O519 O 0.73067 0.29469 0.19836 0.0
C520 C 0.80305 0.25368 0.29007 0.0
O521 O 0.78713 0.23964 0.30047 0.0
O522 O 0.76013 0.32968 0.24251 0.0
O523 O 0.76462 0.29225 0.28087 0.0
O524 O 0.74295 0.2555 0.28017 0.0
C525 C 0.74223 0.33638 0.25127 0.0
O526 O 0.7272 0.32037 0.26058 0.0
O527 O 0.72647 0.27679 0.23229 0.0
C528 C 0.78026 0.20002 0.24265 0.0
O529 O 0.79251 0.21621 0.23086 0.0
O530 O 0.76469 0.20682 0.25568 0.0
O531 O 0.75712 0.24605 0.21982 0.0
O532 O 0.78232 0.28057 0.22198 0.0
O533 O 0.79734 0.25937 0.26894 0.0
C534 C 0.7506 0.27729 0.29107 0.0
C535 C 0.77272 0.25972 0.2102 0.0
Zn536 Zn 0.02098 0.53129 0.50601 0.0
Zn537 Zn 0.00482 0.5076 0.54723 0.0
C538 C 0.06137 0.56488 0.52942 0.0
O539 O 0.04913 0.5805 0.52119 0.0
C540 C 0.9674 0.47509 0.51998 0.0
O541 O 0.97835 0.46093 0.53237 0.0
O542 O 0.02687 0.54387 0.47431 0.0
O543 O 0.01581 0.49429 0.49773 0.0
O544 O 0.02827 0.48755 0.53471 0.0
C545 C 0.01399 0.53552 0.45428 0.0
O546 O 0.99469 0.51925 0.45461 0.0
O547 O 0.05227 0.54212 0.52627 0.0
C548 C 0.9743 0.50493 0.583 0.0
O549 O 0.9649 0.517 0.56692 0.0
O550 O 0.99324 0.49733 0.57869 0.0
O551 O 0.01415 0.54428 0.5564 0.0
O552 O 0.997 0.54925 0.52106 0.0
O553 O 0.97595 0.49798 0.52241 0.0
C554 C 0.02474 0.48077 0.51149 0.0
C555 C 0.0027 0.55678 0.54387 0.0
Zn556 Zn 0.78191 0.75693 0.26888 0.0
Zn557 Zn 0.73498 0.77248 0.28629 0.0
C558 C 0.76634 0.72439 0.22472 0.0
O559 O 0.77314 0.70936 0.23931 0.0
C560 C 0.74411 0.7999 0.33355 0.0
O561 O 0.72907 0.81105 0.32233 0.0
O562 O 0.81461 0.75157 0.26377 0.0
O563 O 0.78503 0.79352 0.27845 0.0
O564 O 0.74923 0.79832 0.26607 0.0
C565 C 0.82279 0.76341 0.24697 0.0
O566 O 0.81044 0.77832 0.23753 0.0
O567 O 0.76601 0.74643 0.23393 0.0
C568 C 0.69263 0.75777 0.30416 0.0
O569 O 0.70699 0.7451 0.31421 0.0
O570 O 0.70059 0.77306 0.29 0.0
O571 O 0.73395 0.73666 0.27369 0.0
O572 O 0.76814 0.73387 0.29174 0.0
O573 O 0.75099 0.78195 0.32139 0.0
C574 C 0.77128 0.80659 0.26986 0.0
C575 C 0.7466 0.72469 0.28556 0.0
Zn576 Zn 0.74253 0.26746 0.79724 0.0
Zn577 Zn 0.75341 0.27055 0.74512 0.0
C578 C 0.71217 0.22048 0.7829 0.0
O579 O 0.69708 0.23248 0.7933 0.0
C580 C 0.78055 0.31881 0.74671 0.0
O581 O 0.78776 0.30797 0.72684 0.0
O582 O 0.73983 0.26587 0.83356 0.0
O583 O 0.77698 0.27809 0.79515 0.0
O584 O 0.77646 0.25253 0.76119 0.0
C585 C 0.74849 0.24809 0.84056 0.0
O586 O 0.75808 0.23428 0.82465 0.0
O587 O 0.73283 0.23195 0.78128 0.0
C588 C 0.73817 0.27201 0.69486 0.0
O589 O 0.72003 0.27803 0.70537 0.0
O590 O 0.75514 0.26694 0.7082 0.0
O591 O 0.71897 0.26145 0.74936 0.0
O592 O 0.71996 0.28722 0.78318 0.0
O593 O 0.76506 0.30659 0.75786 0.0
C594 C 0.78691 0.26342 0.78188 0.0
C595 C 0.70926 0.27629 0.76266 0.0
Zn596 Zn 0.75137 0.73047 0.76964 0.0
Zn597 Zn 0.75731 0.78526 0.78866 0.0
C598 C 0.79094 0.72826 0.74519 0.0
O599 O 0.77338 0.71529 0.72985 0.0
C600 C 0.71629 0.78683 0.81208 0.0
O601 O 0.73286 0.80029 0.82828 0.0
O602 O 0.74461 0.69312 0.76335 0.0
O603 O 0.74435 0.7387 0.80524 0.0
O604 O 0.7734 0.77016 0.81524 0.0
C605 C 0.75506 0.68475 0.78081 0.0
O606 O 0.76716 0.70035 0.79915 0.0
O607 O 0.78644 0.73813 0.76607 0.0
C608 C 0.77052 0.83654 0.78096 0.0
O609 O 0.77482 0.82715 0.75899 0.0
O610 O 0.76483 0.82226 0.79681 0.0
O611 O 0.76466 0.77739 0.75357 0.0
O612 O 0.73598 0.74564 0.74197 0.0
O613 O 0.72216 0.77714 0.79176 0.0
C614 C 0.76024 0.75151 0.82121 0.0
C615 C 0.75006 0.76409 0.73671 0.0
Zn616 Zn 0.5462 0.51002 0.54792 0.0
Zn617 Zn 0.50042 0.51591 0.52108 0.0
C618 C 0.54042 0.459 0.52899 0.0
O619 O 0.56054 0.46687 0.52052 0.0
C620 C 0.51232 0.55944 0.5019 0.0
O621 O 0.50579 0.54265 0.48243 0.0
O622 O 0.5787 0.50553 0.56031 0.0
O623 O 0.54985 0.5252 0.51668 0.0
O624 O 0.51958 0.49864 0.49756 0.0
C625 C 0.59697 0.51529 0.55116 0.0
O626 O 0.59563 0.53334 0.53811 0.0
O627 O 0.52965 0.4746 0.53982 0.0
C628 C 0.44901 0.50587 0.51393 0.0
O629 O 0.44998 0.49196 0.53153 0.0
O630 O 0.46781 0.51451 0.50507 0.0
O631 O 0.49618 0.50569 0.55478 0.0
O632 O 0.5296 0.52589 0.57491 0.0
O633 O 0.51256 0.55269 0.52328 0.0
C634 C 0.53981 0.51167 0.49712 0.0
C635 C 0.50802 0.51624 0.57488 0.0
Zn636 Zn -0.00047 0.51003 0.03817 0.0
Zn637 Zn 0.0442 0.49343 0.0173 0.0
C638 C 0.02149 0.55456 0.06671 0.0
O639 O 0.01293 0.54177 0.08365 0.0
C640 C 0.02582 0.45083 0.98529 0.0
O641 O 0.03792 0.46509 0.97153 0.0
O642 O 0.96737 0.51832 0.04391 0.0
O643 O 0.99677 0.49621 0.0025 0.0
O644 O 0.0313 0.5148 0.99425 0.0
C645 C 0.96302 0.53438 0.03038 0.0
O646 O 0.97854 0.5419 0.01543 0.0
O647 O 0.02012 0.54387 0.04464 0.0
C648 C 0.08254 0.47134 0.02376 0.0
O649 O 0.06682 0.4607 0.03698 0.0
O650 O 0.07733 0.48825 0.01183 0.0
O651 O 0.04657 0.50468 0.05387 0.0
O652 O 0.01095 0.48891 0.06202 0.0
O653 O 0.02471 0.45919 0.00775 0.0
C654 C 0.00924 0.50809 0.98833 0.0
C655 C 0.033 0.49437 0.06818 0.0
H656 H 0.9587 0.18031 0.96092 0.0
H657 H 0.0241 0.19265 0.92749 0.0
H658 H 0.97334 0.15072 0.98424 0.0
H659 H 0.03886 0.16333 0.95126 0.0
H660 H 0.0292 0.07858 0.95631 0.0
H661 H 0.02643 0.11874 0.94476 0.0
H662 H 0.00167 0.13978 0.01517 0.0
H663 H 0.00438 0.09908 0.02669 0.0
C664 C 0.97642 0.1772 0.95898 0.0
C665 C 0.98999 0.18846 0.94186 0.0
C666 C 0.98491 0.16036 0.97256 0.0
C667 C 0.00716 0.15443 0.96936 0.0
C668 C 0.02149 0.16722 0.95381 0.0
C669 C 0.013 0.18404 0.9402 0.0
C670 C 0.0238 0.09203 0.96961 0.0
C671 C 0.0168 0.08572 0.99227 0.0
C672 C 0.02235 0.11515 0.96307 0.0
C673 C 0.01363 0.13243 0.97897 0.0
C674 C 0.00825 0.12675 0.00245 0.0
C675 C 0.00998 0.10358 0.00914 0.0
H676 H 0.09187 0.78891 0.16804 0.0
H677 H 0.06808 0.79843 0.24078 0.0
H678 H 0.1315 0.78944 0.18659 0.0
H679 H 0.10763 0.79824 0.25932 0.0
H680 H 0.18735 0.81406 0.28415 0.0
H681 H 0.14881 0.81959 0.26646 0.0
H682 H 0.14907 0.76056 0.20752 0.0
H683 H 0.18729 0.75542 0.22467 0.0
C684 C 0.09512 0.7912 0.18799 0.0
C685 C 0.0768 0.79334 0.20293 0.0
C686 C 0.1178 0.7914 0.19863 0.0
C687 C 0.12263 0.79353 0.22442 0.0
C688 C 0.10452 0.79672 0.23941 0.0
C689 C 0.08183 0.79668 0.22876 0.0
C690 C 0.17909 0.80231 0.26744 0.0
C691 C 0.19042 0.7844 0.25577 0.0
C692 C 0.15705 0.80544 0.25733 0.0
C693 C 0.14603 0.79071 0.23541 0.0
C694 C 0.1573 0.77262 0.22407 0.0
C695 C 0.17919 0.76954 0.23407 0.0
H696 H 0.51441 0.80703 0.4133 0.0
H697 H 0.4522 0.8036 0.45235 0.0
H698 H 0.52729 0.84994 0.43106 0.0
H699 H 0.46498 0.84679 0.46976 0.0
H700 H 0.50955 0.91845 0.51467 0.0
H701 H 0.49549 0.87491 0.49863 0.0
H702 H 0.51524 0.8889 0.42658 0.0
H703 H 0.52955 0.93199 0.44256 0.0
C704 C 0.50345 0.81539 0.42565 0.0
C705 C 0.48219 0.80183 0.43126 0.0
C706 C 0.51078 0.84007 0.43573 0.0
C707 C 0.49705 0.85185 0.45165 0.0
C708 C 0.47603 0.8382 0.45769 0.0
C709 C 0.46866 0.81347 0.44759 0.0
C710 C 0.51072 0.91221 0.49538 0.0
C711 C 0.52082 0.92863 0.47994 0.0
C712 C 0.50263 0.8873 0.48618 0.0
C713 C 0.50452 0.8784 0.4614 0.0
C714 C 0.514 0.89504 0.44588 0.0
C715 C 0.52206 0.91981 0.45503 0.0
H716 H 0.46535 0.25319 0.71332 0.0
H717 H 0.42799 0.25591 0.64268 0.0
H718 H 0.42814 0.24773 0.73178 0.0
H719 H 0.39092 0.2498 0.66094 0.0
H720 H 0.34142 0.28437 0.70878 0.0
H721 H 0.37695 0.28006 0.68971 0.0
H722 H 0.38782 0.22292 0.7336 0.0
H723 H 0.35186 0.2274 0.75317 0.0
C724 C 0.44917 0.25189 0.70157 0.0
C725 C 0.44963 0.25545 0.67664 0.0
C726 C 0.42785 0.24869 0.71215 0.0
C727 C 0.40672 0.24889 0.69791 0.0
C728 C 0.40704 0.25018 0.67249 0.0
C729 C 0.42828 0.25355 0.66199 0.0
C730 C 0.35128 0.27084 0.71446 0.0
C731 C 0.34378 0.25619 0.73248 0.0
C732 C 0.37157 0.2682 0.7033 0.0
C733 C 0.38493 0.25082 0.70982 0.0
C734 C 0.37777 0.2364 0.72818 0.0
C735 C 0.35726 0.23899 0.73937 0.0
H736 H 0.02398 0.81987 0.61031 0.0
H737 H 0.95847 0.79438 0.56375 0.0
H738 H 0.03468 0.85231 0.58493 0.0
H739 H 0.96941 0.82656 0.53825 0.0
H740 H 0.04933 0.90852 0.53213 0.0
H741 H 0.04306 0.86678 0.54386 0.0
H742 H 0.97025 0.87065 0.55201 0.0
H743 H 0.97653 0.91182 0.54057 0.0
C744 C 0.01217 0.8207 0.59426 0.0
C745 C 0.99008 0.80494 0.58946 0.0
C746 C 0.0184 0.83921 0.57961 0.0
C747 C 0.00268 0.84222 0.55987 0.0
C748 C 0.98168 0.82493 0.55363 0.0
C749 C 0.97542 0.80651 0.56828 0.0
C750 C 0.03192 0.90007 0.53588 0.0
C751 C 0.01344 0.91333 0.53568 0.0
C752 C 0.02836 0.87632 0.54268 0.0
C753 C 0.00616 0.86544 0.54882 0.0
C754 C 0.98746 0.87831 0.54707 0.0
C755 C 0.9911 0.90201 0.54073 0.0
H756 H 0.42401 0.75286 0.88142 0.0
H757 H 0.45675 0.79416 0.82746 0.0
H758 H 0.38558 0.75652 0.86349 0.0
H759 H 0.4178 0.79809 0.80942 0.0
H760 H 0.3424 0.76436 0.76699 0.0
H761 H 0.38316 0.77108 0.78558 0.0
H762 H 0.35965 0.78505 0.85797 0.0
H763 H 0.31909 0.77762 0.83949 0.0
C764 C 0.42307 0.76319 0.86602 0.0
C765 C 0.44353 0.77333 0.85601 0.0
C766 C 0.40093 0.76538 0.85573 0.0
C767 C 0.39855 0.77776 0.83508 0.0
C768 C 0.41902 0.78833 0.82525 0.0
C769 C 0.44131 0.78619 0.83566 0.0
C770 C 0.34606 0.76941 0.78681 0.0
C771 C 0.32758 0.77008 0.80185 0.0
C772 C 0.36941 0.77331 0.79747 0.0
C773 C 0.37462 0.77812 0.82332 0.0
C774 C 0.3562 0.78074 0.83807 0.0
C775 C 0.33296 0.77661 0.82747 0.0
H776 H 0.50778 0.19758 0.12814 0.0
H777 H 0.44242 0.18576 0.0809 0.0
H778 H 0.515 0.15776 0.11024 0.0
H779 H 0.44956 0.14566 0.06328 0.0
H780 H 0.48577 0.09023 0.01772 0.0
H781 H 0.47663 0.12906 0.0364 0.0
H782 H 0.50018 0.11375 0.10861 0.0
H783 H 0.50964 0.07514 0.08995 0.0
C784 C 0.49484 0.18644 0.11408 0.0
C785 C 0.47453 0.19497 0.10594 0.0
C786 C 0.49894 0.16351 0.1039 0.0
C787 C 0.48287 0.14854 0.08531 0.0
C788 C 0.46243 0.1569 0.07736 0.0
C789 C 0.45827 0.17982 0.08759 0.0
C790 C 0.48894 0.09511 0.03759 0.0
C791 C 0.49855 0.07963 0.05232 0.0
C792 C 0.48357 0.1173 0.04831 0.0
C793 C 0.48772 0.12452 0.07399 0.0
C794 C 0.49707 0.10888 0.08874 0.0
C795 C 0.5024 0.0867 0.07804 0.0
H796 H 0.06753 0.22139 0.32886 0.0
H797 H 0.08797 0.28946 0.37883 0.0
H798 H 0.10738 0.22538 0.31671 0.0
H799 H 0.12774 0.29372 0.36627 0.0
H800 H 0.202 0.28085 0.35811 0.0
H801 H 0.16218 0.27508 0.37016 0.0
H802 H 0.13467 0.25004 0.29405 0.0
H803 H 0.17477 0.25538 0.28199 0.0
C804 C 0.0805 0.23727 0.33722 0.0
C805 C 0.07455 0.25509 0.35488 0.0
C806 C 0.10334 0.23962 0.33011 0.0
C807 C 0.1208 0.25986 0.3405 0.0
C808 C 0.11482 0.27771 0.35815 0.0
C809 C 0.09197 0.27535 0.36527 0.0
C810 C 0.1875 0.274 0.3439 0.0
C811 C 0.19158 0.26867 0.31905 0.0
C812 C 0.16462 0.27086 0.35082 0.0
C813 C 0.14518 0.26233 0.33307 0.0
C814 C 0.14925 0.25647 0.30824 0.0
C815 C 0.17222 0.25959 0.3013 0.0
H816 H 0.90744 0.01669 0.17627 0.0
H817 H 0.97441 0.03701 0.22085 0.0
H818 H 0.92793 0.01524 0.13894 0.0
H819 H 0.99479 0.03468 0.1839 0.0
H820 H 0.02482 0.05115 0.11201 0.0
H821 H 0.0041 0.05427 0.14911 0.0
H822 H 0.95123 0.99164 0.11618 0.0
H823 H 0.97141 0.98914 0.07909 0.0
C824 C 0.9265 0.02069 0.17811 0.0
C825 C 0.93924 0.027 0.20153 0.0
C826 C 0.9383 0.01974 0.15673 0.0
C827 C 0.96311 0.02486 0.15832 0.0
C828 C 0.97574 0.03109 0.18183 0.0
C829 C 0.96398 0.03224 0.20309 0.0
C830 C 0.00883 0.03804 0.1128 0.0
C831 C -0.00026 0.02001 0.09255 0.0
C832 C 0.99694 0.03975 0.13408 0.0
C833 C 0.97582 0.02329 0.13567 0.0
C834 C 0.96707 0.00501 0.1155 0.0
C835 C 0.9788 0.00346 0.09424 0.0
H836 H 0.24437 0.67288 0.46882 0.0
H837 H 0.31576 0.71026 0.46552 0.0
H838 H 0.23003 0.69891 0.44077 0.0
H839 H 0.30132 0.73606 0.43729 0.0
H840 H 0.23002 0.71192 0.35691 0.0
H841 H 0.23577 0.69647 0.39614 0.0
H842 H 0.27643 0.76744 0.42828 0.0
H843 H 0.27034 0.78293 0.3886 0.0
C844 C 0.25699 0.6869 0.46247 0.0
C845 C 0.28129 0.68909 0.46897 0.0
C846 C 0.24873 0.70184 0.44645 0.0
C847 C 0.26456 0.71933 0.43667 0.0
C848 C 0.28866 0.72287 0.44469 0.0
C849 C 0.29696 0.70788 0.46068 0.0
C850 C 0.23939 0.72444 0.37268 0.0
C851 C 0.24965 0.74854 0.37003 0.0
C852 C 0.24265 0.71566 0.39516 0.0
C853 C 0.25665 0.73074 0.41526 0.0
C854 C 0.26563 0.75545 0.41303 0.0
C855 C 0.26201 0.76436 0.39051 0.0
H856 H 0.55843 0.9642 0.71941 0.0
H857 H 0.62797 0.97504 0.69473 0.0
H858 H 0.54162 0.96889 0.67875 0.0
H859 H 0.61103 0.9785 0.65348 0.0
H860 H 0.57836 0.01824 0.59611 0.0
H861 H 0.59473 0.00826 0.6348 0.0
H862 H 0.53223 0.95351 0.63657 0.0
H863 H 0.51537 0.96444 0.59815 0.0
C864 C 0.5701 0.96702 0.7051 0.0
C865 C 0.59457 0.96955 0.71034 0.0
C866 C 0.56041 0.96958 0.68168 0.0
C867 C 0.57496 0.97439 0.66283 0.0
C868 C 0.59934 0.97546 0.66773 0.0
C869 C 0.60907 0.97327 0.69129 0.0
C870 C 0.56807 0.0041 0.60477 0.0
C871 C 0.54551 0.99222 0.59419 0.0
C872 C 0.57759 0.99815 0.62686 0.0
C873 C 0.56494 0.97989 0.63879 0.0
C874 C 0.54237 0.96787 0.62808 0.0
C875 C 0.53269 0.97409 0.60606 0.0
H876 H 0.31571 0.32608 0.98042 0.0
H877 H 0.25505 0.36144 0.97881 0.0
H878 H 0.30623 0.31056 0.93653 0.0
H879 H 0.24543 0.34558 0.93519 0.0
H880 H 0.25106 0.33998 0.85302 0.0
H881 H 0.26158 0.35352 0.89689 0.0
H882 H 0.27741 0.28206 0.90623 0.0
H883 H 0.26716 0.2685 0.8619 0.0
C884 C 0.30023 0.33037 0.97082 0.0
C885 C 0.28625 0.3452 0.9832 0.0
C886 C 0.29476 0.32136 0.94565 0.0
C887 C 0.27521 0.32702 0.93226 0.0
C888 C 0.26089 0.34127 0.94481 0.0
C889 C 0.26633 0.35024 0.96992 0.0
C890 C 0.25689 0.32712 0.86433 0.0
C891 C 0.25814 0.30309 0.85393 0.0
C892 C 0.26276 0.33486 0.88958 0.0
C893 C 0.27002 0.31879 0.90518 0.0
C894 C 0.27196 0.29494 0.89471 0.0
C895 C 0.26605 0.28715 0.86933 0.0
H896 H 0.89149 0.00562 0.34434 0.0
H897 H 0.96018 0.0121 0.31799 0.0
H898 H 0.90876 0.00388 0.38581 0.0
H899 H 0.97779 0.01143 0.35972 0.0
H900 H 0.00275 0.00074 0.43739 0.0
H901 H 0.98345 0.99123 0.39514 0.0
H902 H 0.93117 0.03433 0.41616 0.0
H903 H 0.94976 0.04292 0.45808 0.0
C904 C 0.91029 0.00663 0.34745 0.0
C905 C 0.92458 0.00952 0.32815 0.0
C906 C 0.92024 0.00568 0.37122 0.0
C907 C 0.94476 0.00813 0.37627 0.0
C908 C 0.95885 0.00939 0.35653 0.0
C909 C 0.9488 0.00988 0.33263 0.0
C910 C 0.98701 0.00795 0.43292 0.0
C911 C 0.97779 0.02261 0.45103 0.0
C912 C 0.97599 0.00258 0.40873 0.0
C913 C 0.95566 0.01189 0.40222 0.0
C914 C 0.94643 0.02631 0.42053 0.0
C915 C 0.95726 0.03147 0.44461 0.0
H916 H 0.26862 0.65112 0.57834 0.0
H917 H 0.33784 0.69653 0.58306 0.0
H918 H 0.26091 0.67422 0.61608 0.0
H919 H 0.3302 0.71943 0.62175 0.0
H920 H 0.29392 0.77083 0.67489 0.0
H921 H 0.30548 0.74862 0.63768 0.0
H922 H 0.27272 0.67965 0.65922 0.0
H923 H 0.26053 0.70155 0.69534 0.0
C924 C 0.28239 0.66585 0.58759 0.0
C925 C 0.30392 0.67187 0.57762 0.0
C926 C 0.27796 0.67908 0.6094 0.0
C927 C 0.29499 0.6986 0.62206 0.0
C928 C 0.31666 0.70461 0.6123 0.0
C929 C 0.3211 0.69134 0.59028 0.0
C930 C 0.28922 0.75094 0.67156 0.0
C931 C 0.27602 0.73801 0.68787 0.0
C932 C 0.29598 0.73821 0.65039 0.0
C933 C 0.28976 0.71237 0.64533 0.0
C934 C 0.2773 0.69956 0.66219 0.0
C935 C 0.27037 0.71219 0.68301 0.0
H936 H 0.57454 0.02772 0.81353 0.0
H937 H 0.63174 0.02049 0.86591 0.0
H938 H 0.55639 0.04818 0.84686 0.0
H939 H 0.6137 0.04115 0.89903 0.0
H940 H 0.52022 0.03653 0.92118 0.0
H941 H 0.53832 0.02982 0.8829 0.0
H942 H 0.60083 0.08152 0.91494 0.0
H943 H 0.58267 0.0884 0.95332 0.0
C944 C 0.58344 0.03081 0.83206 0.0
C945 C 0.60452 0.02232 0.83712 0.0
C946 C 0.57305 0.04257 0.85107 0.0
C947 C 0.5837 0.04631 0.87542 0.0
C948 C 0.60532 0.03885 0.88031 0.0
C949 C 0.61557 0.02685 0.86136 0.0
C950 C 0.53753 0.04704 0.91979 0.0
C951 C 0.55018 0.0627 0.94029 0.0
C952 C 0.54785 0.04328 0.89785 0.0
C953 C 0.57107 0.05492 0.89617 0.0
C954 C 0.58298 0.07216 0.91594 0.0
C955 C 0.57252 0.07619 0.93781 0.0
H956 H 0.24038 0.34841 0.10743 0.0
H957 H 0.29328 0.30359 0.09543 0.0
H958 H 0.22689 0.32491 0.14008 0.0
H959 H 0.2797 0.28016 0.12805 0.0
H960 H 0.24703 0.30985 0.22093 0.0
H961 H 0.24916 0.32564 0.1817 0.0
H962 H 0.24578 0.25207 0.14431 0.0
H963 H 0.24308 0.23597 0.18405 0.0
C964 C 0.24878 0.3332 0.1113 0.0
C965 C 0.26816 0.32816 0.09901 0.0
C966 C 0.24108 0.31978 0.13008 0.0
C967 C 0.25238 0.30083 0.13679 0.0
C968 C 0.27054 0.29454 0.12323 0.0
C969 C 0.27842 0.30812 0.10463 0.0
C970 C 0.24616 0.29688 0.20433 0.0
C971 C 0.24484 0.27163 0.20562 0.0
C972 C 0.24728 0.30596 0.18178 0.0
C973 C 0.24759 0.29012 0.15987 0.0
C974 C 0.24557 0.2647 0.16092 0.0
C975 C 0.24391 0.25548 0.1836 0.0
H976 H 0.19183 0.90856 0.00282 0.0
H977 H 0.2282 0.95723 0.06697 0.0
H978 H 0.15851 0.92961 0.0053 0.0
H979 H 0.19497 0.97864 0.06912 0.0
H980 H 0.11781 0.99287 0.07604 0.0
H981 H 0.15303 0.97396 0.07709 0.0
H982 H 0.15119 0.96979 0.99771 0.0
H983 H 0.11613 0.98803 0.9967 0.0
C984 C 0.19271 0.92371 0.01747 0.0
C985 C 0.21274 0.93132 0.03455 0.0
C986 C 0.17368 0.93591 0.01881 0.0
C987 C 0.17426 0.95605 0.03721 0.0
C988 C 0.19397 0.96317 0.05479 0.0
C989 C 0.21303 0.95093 0.05346 0.0
C990 C 0.12532 0.98835 0.05896 0.0
C991 C 0.11419 0.99166 0.03628 0.0
C992 C 0.14538 0.97745 0.05951 0.0
C993 C 0.15454 0.96984 0.03739 0.0
C994 C 0.14417 0.97473 0.01498 0.0
C995 C 0.1242 0.98539 0.01443 0.0
H996 H 0.70058 0.61658 0.99715 0.0
H997 H 0.7154 0.54281 0.99018 0.0
H998 H 0.65914 0.60009 0.99938 0.0
H999 H 0.67413 0.52639 0.99312 0.0
H1000 H 0.59435 0.50306 0.97912 0.0
H1001 H 0.63481 0.51976 0.97238 0.0
H1002 H 0.63555 0.58154 0.02861 0.0
H1003 H 0.59513 0.5653 0.03483 0.0
C1004 C 0.695 0.59685 0.99607 0.0
C1005 C 0.71131 0.58102 0.99362 0.0
C1006 C 0.67126 0.58739 0.99748 0.0
C1007 C 0.66332 0.56192 0.99662 0.0
C1008 C 0.67957 0.54607 0.99358 0.0
C1009 C 0.70329 0.55551 0.99205 0.0
C1010 C 0.60316 0.52024 0.98997 0.0
C1011 C 0.59152 0.53282 0.00752 0.0
C1012 C 0.62637 0.52976 0.98618 0.0
C1013 C 0.63842 0.55203 -9e-05 0.0
C1014 C 0.62669 0.56459 0.0174 0.0
C1015 C 0.60353 0.55514 0.02111 0.0
H1016 H 0.72029 0.47044 0.32073 0.0
H1017 H 0.6767 0.46428 0.25174 0.0
H1018 H 0.73978 0.43814 0.30274 0.0
H1019 H 0.69632 0.43206 0.23391 0.0
H1020 H 0.70021 0.3489 0.24127 0.0
H1021 H 0.69045 0.38975 0.24778 0.0
H1022 H 0.76383 0.42138 0.26868 0.0
H1023 H 0.77369 0.38002 0.26161 0.0
C1024 C 0.71527 0.4627 0.30156 0.0
C1025 C 0.6965 0.46953 0.2879 0.0
C1026 C 0.72661 0.44433 0.2912 0.0
C1027 C 0.71932 0.43242 0.26705 0.0
C1028 C 0.70208 0.4408 0.25267 0.0
C1029 C 0.69083 0.45924 0.26295 0.0
C1030 C 0.71433 0.36465 0.24666 0.0
C1031 C 0.73764 0.36146 0.25108 0.0
C1032 C 0.70878 0.38805 0.2502 0.0
C1033 C 0.7264 0.40873 0.25871 0.0
C1034 C 0.74996 0.4057 0.26207 0.0
C1035 C 0.7556 0.38216 0.25796 0.0
H1036 H 0.83078 0.38443 0.47507 0.0
H1037 H 0.82075 0.45817 0.49923 0.0
H1038 H 0.87187 0.40013 0.47028 0.0
H1039 H 0.86211 0.4739 0.4962 0.0
H1040 H 0.9381 0.49913 0.49428 0.0
H1041 H 0.89713 0.4832 0.47799 0.0
H1042 H 0.90318 0.41251 0.50036 0.0
H1043 H 0.94389 0.42795 0.5152 0.0
C1044 C 0.83739 0.40407 0.47905 0.0
C1045 C 0.82291 0.4201 0.48798 0.0
C1046 C 0.86094 0.4131 0.47646 0.0
C1047 C 0.87062 0.43821 0.48363 0.0
C1048 C 0.85542 0.45448 0.4904 0.0
C1049 C 0.83168 0.44549 0.49229 0.0
C1050 C 0.93072 0.48003 0.49511 0.0
C1051 C 0.94406 0.46492 0.50644 0.0
C1052 C 0.90721 0.47092 0.48591 0.0
C1053 C 0.8966 0.44662 0.48811 0.0
C1054 C 0.9106 0.43118 0.49793 0.0
C1055 C 0.93404 0.44017 0.5068 0.0
H1056 H 0.34272 0.06888 0.25411 0.0
H1057 H 0.32678 0.08375 0.32958 0.0
H1058 H 0.31146 0.08982 0.24049 0.0
H1059 H 0.29631 0.10532 0.31618 0.0
H1060 H 0.28268 0.16236 0.23595 0.0
H1061 H 0.30584 0.13109 0.24264 0.0
H1062 H 0.25896 0.104 0.29484 0.0
H1063 H 0.23626 0.13612 0.28886 0.0
C1064 C 0.3325 0.0765 0.26779 0.0
C1065 C 0.33744 0.07481 0.29298 0.0
C1066 C 0.31461 0.08858 0.25998 0.0
C1067 C 0.30135 0.09941 0.2772 0.0
C1068 C 0.30579 0.09689 0.30227 0.0
C1069 C 0.32351 0.08467 0.31003 0.0
C1070 C 0.27694 0.14941 0.24845 0.0
C1071 C 0.25785 0.15206 0.26223 0.0
C1072 C 0.29023 0.13132 0.25223 0.0
C1073 C 0.28459 0.11526 0.26968 0.0
C1074 C 0.2642 0.11649 0.28176 0.0
C1075 C 0.25104 0.13477 0.27816 0.0
H1076 H 0.36502 0.12671 0.50174 0.0
H1077 H 0.32681 0.07607 0.54465 0.0
H1078 H 0.40049 0.11079 0.51119 0.0
H1079 H 0.36273 0.06074 0.55514 0.0
H1080 H 0.42278 0.01748 0.53795 0.0
H1081 H 0.38736 0.03574 0.53655 0.0
H1082 H 0.43072 0.10796 0.54047 0.0
H1083 H 0.46567 0.08946 0.54044 0.0
C1084 C 0.36434 0.11257 0.51372 0.0
C1085 C 0.34307 0.10259 0.52234 0.0
C1086 C 0.38478 0.10346 0.51929 0.0
C1087 C 0.3846 0.08435 0.53394 0.0
C1088 C 0.36349 0.07512 0.54346 0.0
C1089 C 0.34293 0.08407 0.53762 0.0
C1090 C 0.4246 0.03726 0.53884 0.0
C1091 C 0.44682 0.05203 0.53891 0.0
C1092 C 0.40435 0.04781 0.53814 0.0
C1093 C 0.40606 0.07337 0.53795 0.0
C1094 C 0.42857 0.08817 0.53978 0.0
C1095 C 0.44865 0.0776 0.53995 0.0
H1096 H 0.66372 0.57903 0.28078 0.0
H1097 H 0.70561 0.59021 0.35139 0.0
H1098 H 0.68243 0.61935 0.27275 0.0
H1099 H 0.72401 0.63107 0.3435 0.0
H1100 H 0.76873 0.69207 0.30771 0.0
H1101 H 0.75098 0.65147 0.31697 0.0
H1102 H 0.68293 0.66194 0.28691 0.0
H1103 H 0.70063 0.70191 0.27706 0.0
C1104 C 0.6768 0.59015 0.29472 0.0
C1105 C 0.68308 0.58135 0.3168 0.0
C1106 C 0.68747 0.61338 0.29013 0.0
C1107 C 0.70463 0.62852 0.30754 0.0
C1108 C 0.71102 0.61975 0.32961 0.0
C1109 C 0.70036 0.5964 0.33419 0.0
C1110 C 0.75 0.68564 0.30306 0.0
C1111 C 0.73614 0.70017 0.29151 0.0
C1112 C 0.7398 0.66246 0.30851 0.0
C1113 C 0.71555 0.6534 0.30256 0.0
C1114 C 0.70172 0.66813 0.29132 0.0
C1115 C 0.71189 0.69115 0.28578 0.0
H1116 H 0.82477 0.46668 0.82837 0.0
H1117 H 0.87671 0.45898 0.77704 0.0
H1118 H 0.80395 0.42515 0.81278 0.0
H1119 H 0.85667 0.41698 0.7623 0.0
H1120 H 0.80312 0.35354 0.72173 0.0
H1121 H 0.82298 0.39517 0.7381 0.0
H1122 H 0.80399 0.38297 0.81097 0.0
H1123 H 0.78303 0.34168 0.79413 0.0
C1124 C 0.83197 0.45593 0.81404 0.0
C1125 C 0.85232 0.46613 0.80384 0.0
C1126 C 0.82007 0.43204 0.80514 0.0
C1127 C 0.82846 0.41764 0.78611 0.0
C1128 C 0.84929 0.42767 0.7765 0.0
C1129 C 0.86094 0.4517 0.7851 0.0
C1130 C 0.80308 0.35985 0.74122 0.0
C1131 C 0.79154 0.34441 0.75666 0.0
C1132 C 0.81467 0.38366 0.7507 0.0
C1133 C 0.8154 0.39247 0.77598 0.0
C1134 C 0.80359 0.37701 0.79137 0.0
C1135 C 0.79162 0.3533 0.78176 0.0
H1136 H 0.04602 0.82615 0.10354 0.0
H1137 H 0.97469 0.81848 0.07 0.0
H1138 H 0.05654 0.86508 0.08759 0.0
H1139 H 0.98518 0.85774 0.05456 0.0
H1140 H 0.016 0.92905 0.0242 0.0
H1141 H 0.00909 0.88516 0.02903 0.0
H1142 H 0.04425 0.90357 0.10309 0.0
H1143 H 0.0512 0.94671 0.09835 0.0
C1144 C 0.03269 0.83249 0.09236 0.0
C1145 C 0.00939 0.81947 0.08854 0.0
C1146 C 0.03871 0.85485 0.0833 0.0
C1147 C 0.02153 0.86474 0.07038 0.0
C1148 C 0.99879 0.85061 0.06449 0.0
C1149 C 0.99278 0.82813 0.07344 0.0
C1150 C 0.02226 0.9236 0.04145 0.0
C1151 C 0.0341 0.94135 0.0609 0.0
C1152 C 0.01834 0.89854 0.04418 0.0
C1153 C 0.02646 0.8909 0.06629 0.0
C1154 C 0.03829 0.90874 0.0856 0.0
C1155 C 0.04202 0.93359 0.08296 0.0
H1156 H 0.9331 0.25012 0.80932 0.0
H1157 H 0.89974 0.22039 0.86977 0.0
H1158 H 0.89523 0.25705 0.79188 0.0
H1159 H 0.86195 0.22756 0.85236 0.0
H1160 H 0.80745 0.27416 0.82919 0.0
H1161 H 0.8448 0.26535 0.84561 0.0
H1162 H 0.85539 0.23181 0.77308 0.0
H1163 H 0.81777 0.24059 0.75646 0.0
C1164 C 0.91772 0.24509 0.81893 0.0
C1165 C 0.91948 0.23491 0.84108 0.0
C1166 C 0.89603 0.24892 0.80882 0.0
C1167 C 0.87572 0.24287 0.82079 0.0
C1168 C 0.87742 0.2326 0.84289 0.0
C1169 C 0.89906 0.22851 0.85285 0.0
C1170 C 0.81774 0.26496 0.81667 0.0
C1171 C 0.80973 0.25816 0.79148 0.0
C1172 C 0.83903 0.25976 0.82616 0.0
C1173 C 0.85292 0.24787 0.81063 0.0
C1174 C 0.84503 0.24114 0.7854 0.0
C1175 C 0.82352 0.24608 0.77593 0.0
H1176 H 0.48141 0.19478 0.57329 0.0
H1177 H 0.53742 0.21334 0.63302 0.0
H1178 H 0.4935 0.1556 0.56176 0.0
H1179 H 0.54957 0.17404 0.62128 0.0
H1180 H 0.53245 0.08707 0.61467 0.0
H1181 H 0.53081 0.13063 0.62361 0.0
H1182 H 0.52574 0.13592 0.54551 0.0
H1183 H 0.52731 0.09223 0.53651 0.0
C1184 C 0.49648 0.19066 0.5838 0.0
C1185 C 0.50829 0.20715 0.60423 0.0
C1186 C 0.50354 0.16826 0.57703 0.0
C1187 C 0.5225 0.16174 0.59061 0.0
C1188 C 0.53481 0.17852 0.61056 0.0
C1189 C 0.52786 0.20105 0.61723 0.0
C1190 C 0.5316 0.09766 0.59943 0.0
C1191 C 0.52978 0.08615 0.57489 0.0
C1192 C 0.53074 0.12266 0.60455 0.0
C1193 C 0.52785 0.13663 0.58524 0.0
C1194 C 0.52767 0.12552 0.56075 0.0
C1195 C 0.52877 0.10055 0.55563 0.0
H1196 H 0.54795 0.69673 0.3221 0.0
H1197 H 0.56173 0.76772 0.36766 0.0
H1198 H 0.58708 0.70534 0.30819 0.0
H1199 H 0.601 0.77633 0.35351 0.0
H1200 H 0.66105 0.78903 0.30113 0.0
H1201 H 0.62047 0.7822 0.31251 0.0
H1202 H 0.62817 0.71055 0.33063 0.0
H1203 H 0.66837 0.71733 0.31957 0.0
C1204 C 0.5593 0.7142 0.3291 0.0
C1205 C 0.55181 0.73148 0.34611 0.0
C1206 C 0.5817 0.7191 0.32113 0.0
C1207 C 0.59701 0.74149 0.32978 0.0
C1208 C 0.58943 0.75902 0.34642 0.0
C1209 C 0.56707 0.75399 0.35465 0.0
C1210 C 0.65393 0.7718 0.30739 0.0
C1211 C 0.66782 0.75374 0.30953 0.0
C1212 C 0.63085 0.76797 0.31404 0.0
C1213 C 0.62125 0.74584 0.32242 0.0
C1214 C 0.63506 0.72768 0.32405 0.0
C1215 C 0.65812 0.73165 0.31783 0.0
H1216 H 0.98475 0.21991 0.47743 0.0
H1217 H 0.03641 0.20639 0.4273 0.0
H1218 H 0.99513 0.18815 0.50073 0.0
H1219 H 0.04611 0.174 0.44987 0.0
H1220 H 0.06823 0.12315 0.4992 0.0
H1221 H 0.06289 0.16206 0.48574 0.0
H1222 H 0.98884 0.14481 0.49553 0.0
H1223 H 0.99454 0.10647 0.51006 0.0
C1224 C 0.99844 0.21026 0.47147 0.0
C1225 C 0.00963 0.21555 0.45038 0.0
C1226 C 0.00429 0.19192 0.48475 0.0
C1227 C 0.02127 0.17822 0.4771 0.0
C1228 C 0.03317 0.18431 0.45661 0.0
C1229 C 0.02752 0.20286 0.44352 0.0
C1230 C 0.05091 0.12794 0.49891 0.0
C1231 C 0.03176 0.11172 0.50551 0.0
C1232 C 0.04779 0.15017 0.491 0.0
C1233 C 0.02535 0.1565 0.48911 0.0
C1234 C 0.00644 0.14077 0.49696 0.0
C1235 C 0.00965 0.11869 0.50524 0.0
H1236 H 0.57148 0.25946 0.14671 0.0
H1237 H 0.57038 0.27703 0.22555 0.0
H1238 H 0.61326 0.25812 0.15283 0.0
H1239 H 0.61229 0.27633 0.23162 0.0
H1240 H 0.68432 0.2563 0.23728 0.0
H1241 H 0.6416 0.25041 0.2292 0.0
H1242 H 0.64946 0.28707 0.16446 0.0
H1243 H 0.692 0.29238 0.17215 0.0
C1244 C 0.58014 0.26303 0.16536 0.0
C1245 C 0.56762 0.26852 0.18564 0.0
C1246 C 0.60413 0.26235 0.16886 0.0
C1247 C 0.61619 0.26722 0.1927 0.0
C1248 C 0.60351 0.27216 0.21302 0.0
C1249 C 0.5795 0.27275 0.20953 0.0
C1250 C 0.67691 0.26276 0.22111 0.0
C1251 C 0.69157 0.27492 0.20543 0.0
C1252 C 0.65242 0.25956 0.21659 0.0
C1253 C 0.64208 0.26846 0.19631 0.0
C1254 C 0.65678 0.27975 0.18011 0.0
C1255 C 0.68122 0.2829 0.18459 0.0
H1256 H 0.533 0.84089 0.91834 0.0
H1257 H 0.48292 0.82579 0.97144 0.0
H1258 H 0.54474 0.88324 0.93911 0.0
H1259 H 0.49457 0.86795 0.99197 0.0
H1260 H 0.53047 0.94115 0.03413 0.0
H1261 H 0.52756 0.89818 0.01626 0.0
H1262 H 0.52445 0.91931 0.94306 0.0
H1263 H 0.52746 0.96215 0.96081 0.0
C1264 C 0.52471 0.84647 0.93459 0.0
C1265 C 0.50688 0.82997 0.94309 0.0
C1266 C 0.53137 0.87076 0.94642 0.0
C1267 C 0.52055 0.87897 0.96716 0.0
C1268 C 0.50343 0.86217 0.97622 0.0
C1269 C 0.49662 0.83802 0.96429 0.0
C1270 C 0.52962 0.9367 0.01425 0.0
C1271 C 0.52901 0.95507 0.99889 0.0
C1272 C 0.5278 0.91206 0.00401 0.0
C1273 C 0.52561 0.90532 0.97824 0.0
C1274 C 0.5263 0.92389 0.96298 0.0
C1275 C 0.5279 0.94845 0.97317 0.0
H1276 H 0.94142 0.74133 0.7253 0.0
H1277 H 0.90772 0.76395 0.66111 0.0
H1278 H 0.90327 0.73338 0.74217 0.0
H1279 H 0.87006 0.75593 0.67776 0.0
H1280 H 0.80372 0.71281 0.70022 0.0
H1281 H 0.84265 0.71894 0.68612 0.0
H1282 H 0.87203 0.75767 0.75789 0.0
H1283 H 0.83265 0.75138 0.77232 0.0
C1284 C 0.92592 0.74441 0.7147 0.0
C1285 C 0.9276 0.75294 0.69167 0.0
C1286 C 0.90415 0.74005 0.72445 0.0
C1287 C 0.88369 0.74391 0.71121 0.0
C1288 C 0.88545 0.75241 0.68823 0.0
C1289 C 0.9071 0.75696 0.67864 0.0
C1290 C 0.81841 0.72256 0.71314 0.0
C1291 C 0.81503 0.73173 0.73739 0.0
C1292 C 0.84074 0.72614 0.70497 0.0
C1293 C 0.86035 0.7389 0.72084 0.0
C1294 C 0.85721 0.74762 0.74532 0.0
C1295 C 0.83468 0.74417 0.75351 0.0
H1296 H 0.07324 0.01517 0.8379 0.0
H1297 H 0.1338 0.99624 0.87677 0.0
H1298 H 0.05443 0.018 0.87625 0.0
H1299 H 0.115 0.99904 0.91492 0.0
H1300 H 0.0841 0.03083 0.98295 0.0
H1301 H 0.10251 0.03028 0.94458 0.0
H1302 H 0.03772 0.98894 0.90482 0.0
H1303 H 0.01907 0.98961 0.94339 0.0
C1304 C 0.08264 0.01184 0.85464 0.0
C1305 C 0.10508 0.00559 0.8543 0.0
C1306 C 0.07177 0.01327 0.87654 0.0
C1307 C 0.08321 0.00866 0.89855 0.0
C1308 C 0.10584 0.00293 0.89829 0.0
C1309 C 0.11662 0.00132 0.8764 0.0
C1310 C 0.0737 0.02165 0.96605 0.0
C1311 C 0.0501 0.01021 0.96622 0.0
C1312 C 0.08432 0.02125 0.94408 0.0
C1313 C 0.07158 0.00955 0.92171 0.0
C1314 C 0.0479 0.9983 0.92178 0.0
C1315 C 0.03728 0.99853 0.94386 0.0
H1316 H 0.78339 0.30228 0.55179 0.0
H1317 H 0.73204 0.34724 0.57087 0.0
H1318 H 0.77391 0.27913 0.58573 0.0
H1319 H 0.72308 0.3246 0.60518 0.0
H1320 H 0.703 0.27512 0.66023 0.0
H1321 H 0.70699 0.28676 0.61915 0.0
H1322 H 0.78189 0.28828 0.62978 0.0
H1323 H 0.77774 0.27588 0.67051 0.0
C1324 C 0.76992 0.30709 0.56308 0.0
C1325 C 0.75868 0.32683 0.55881 0.0
C1326 C 0.76457 0.29387 0.5826 0.0
C1327 C 0.74795 0.30017 0.59836 0.0
C1328 C 0.7358 0.31904 0.59326 0.0
C1329 C 0.74104 0.33216 0.57363 0.0
C1330 C 0.72025 0.27749 0.65357 0.0
C1331 C 0.74012 0.27489 0.66867 0.0
C1332 C 0.72255 0.28428 0.63009 0.0
C1333 C 0.7448 0.28883 0.62131 0.0
C1334 C 0.76445 0.28472 0.63585 0.0
C1335 C 0.7621 0.27771 0.65927 0.0
H1336 H 0.47154 0.02126 0.33605 0.0
H1337 H 0.42552 0.05946 0.37797 0.0
H1338 H 0.49297 0.01569 0.37447 0.0
H1339 H 0.44704 0.05409 0.41622 0.0
H1340 H 0.46861 0.00961 0.47559 0.0
H1341 H 0.45044 0.01832 0.43725 0.0
H1342 H 0.51898 0.03851 0.41201 0.0
H1343 H 0.5375 0.0294 0.4508 0.0
C1344 C 0.46606 0.02857 0.35344 0.0
C1345 C 0.44659 0.04048 0.35398 0.0
C1346 C 0.47846 0.02554 0.37542 0.0
C1347 C 0.4716 0.03433 0.39833 0.0
C1348 C 0.45252 0.04678 0.39882 0.0
C1349 C 0.44016 0.04984 0.3769 0.0
C1350 C 0.47995 0.01587 0.46194 0.0
C1351 C 0.50456 0.01874 0.46624 0.0
C1352 C 0.46947 0.02108 0.44001 0.0
C1353 C 0.48327 0.02927 0.4217 0.0
C1354 C 0.50792 0.03212 0.42582 0.0
C1355 C 0.5185 0.02702 0.448 0.0
H1356 H 0.81745 0.70944 0.08356 0.0
H1357 H 0.75689 0.65032 0.07281 0.0
H1358 H 0.8059 0.72398 0.12378 0.0
H1359 H 0.74536 0.66501 0.113 0.0
H1360 H 0.75823 0.67795 0.19967 0.0
H1361 H 0.76231 0.66581 0.15621 0.0
H1362 H 0.77497 0.7422 0.14499 0.0
H1363 H 0.77091 0.7544 0.18864 0.0
C1364 C 0.80155 0.69968 0.08962 0.0
C1365 C 0.78823 0.67857 0.07496 0.0
C1366 C 0.79483 0.70815 0.11262 0.0
C1367 C 0.77473 0.69563 0.12161 0.0
C1368 C 0.76105 0.67494 0.10668 0.0
C1369 C 0.76764 0.66658 0.08359 0.0
C1370 C 0.76138 0.69214 0.18783 0.0
C1371 C 0.76429 0.71713 0.19761 0.0
C1372 C 0.76366 0.68518 0.16288 0.0
C1373 C 0.76916 0.70305 0.14718 0.0
C1374 C 0.77098 0.72802 0.15669 0.0
C1375 C 0.76841 0.73499 0.18163 0.0
H1376 H 0.092 0.04457 0.7231 0.0
H1377 H 0.12642 0.98271 0.70551 0.0
H1378 H 0.08009 0.04366 0.67921 0.0
H1379 H 0.11417 0.98153 0.66192 0.0
H1380 H 0.10698 0.99757 0.58402 0.0
H1381 H 0.12124 0.00446 0.62767 0.0
H1382 H 0.05294 0.01716 0.64625 0.0
H1383 H 0.03876 0.01077 0.60239 0.0
C1384 C 0.09708 0.03084 0.70989 0.0
C1385 C 0.11013 0.01369 0.71781 0.0
C1386 C 0.09015 0.03024 0.68477 0.0
C1387 C 0.0962 0.01255 0.66707 0.0
C1388 C 0.10953 0.99565 0.67502 0.0
C1389 C 0.11642 0.99623 0.70006 0.0
C1390 C 0.09504 0.00205 0.59738 0.0
C1391 C 0.07167 0.00338 0.58977 0.0
C1392 C 0.1032 0.00588 0.62242 0.0
C1393 C 0.08815 0.01104 0.64045 0.0
C1394 C 0.06503 0.01337 0.63281 0.0
C1395 C 0.05687 0.00961 0.60769 0.0
H1396 H 0.73246 0.36125 0.43097 0.0
H1397 H 0.7686 0.30227 0.44585 0.0
H1398 H 0.72192 0.34156 0.38815 0.0
H1399 H 0.75838 0.28289 0.40334 0.0
H1400 H 0.73398 0.24875 0.32575 0.0
H1401 H 0.72875 0.26308 0.36871 0.0
H1402 H 0.74852 0.33844 0.35539 0.0
H1403 H 0.75351 0.32425 0.31282 0.0
C1404 C 0.7376 0.34379 0.4253 0.0
C1405 C 0.75171 0.33353 0.44162 0.0
C1406 C 0.73169 0.33258 0.40078 0.0
C1407 C 0.73957 0.31082 0.39229 0.0
C1408 C 0.7519 0.29953 0.40926 0.0
C1409 C 0.75796 0.31079 0.43361 0.0
C1410 C 0.73676 0.26835 0.33195 0.0
C1411 C 0.74452 0.28536 0.31607 0.0
C1412 C 0.7338 0.27656 0.35651 0.0
C1413 C 0.73827 0.3019 0.36546 0.0
C1414 C 0.74464 0.31883 0.34906 0.0
C1415 C 0.7478 0.31066 0.32471 0.0
H1416 H 0.43514 0.97539 0.22563 0.0
H1417 H 0.40683 0.03808 0.20612 0.0
H1418 H 0.44604 0.96726 0.18372 0.0
H1419 H 0.41814 0.03028 0.16455 0.0
H1420 H 0.42709 0.0035 0.08697 0.0
H1421 H 0.41053 0.00239 0.12634 0.0
H1422 H 0.47547 0.98698 0.15946 0.0
H1423 H 0.49185 0.98747 0.1198 0.0
C1424 C 0.43106 0.98731 0.21236 0.0
C1425 C 0.42027 0.0075 0.21924 0.0
C1426 C 0.43742 0.98271 0.1884 0.0
C1427 C 0.43306 0.99817 0.17083 0.0
C1428 C 0.42148 0.0178 0.17751 0.0
C1429 C 0.41513 0.02239 0.20143 0.0
C1430 C 0.43773 0.99953 0.10257 0.0
C1431 C 0.46089 0.9959 0.1004 0.0
C1432 C 0.42826 0.99899 0.12515 0.0
C1433 C 0.4418 0.99499 0.14612 0.0
C1434 C 0.46451 0.98997 0.14362 0.0
C1435 C 0.47395 0.99034 0.12093 0.0
H1436 H 0.7515 0.67886 0.95374 0.0
H1437 H 0.82507 0.70998 0.95322 0.0
H1438 H 0.74176 0.69985 0.91896 0.0
H1439 H 0.81551 0.73008 0.91785 0.0
H1440 H 0.79115 0.77492 0.86107 0.0
H1441 H 0.7982 0.76044 0.9008 0.0
H1442 H 0.74512 0.69533 0.87637 0.0
H1443 H 0.73742 0.71027 0.83744 0.0
C1444 C 0.7656 0.69028 0.9463 0.0
C1445 C 0.78909 0.69256 0.95622 0.0
C1446 C 0.76005 0.70219 0.92619 0.0
C1447 C 0.77786 0.71645 0.91523 0.0
C1448 C 0.80125 0.71953 0.92585 0.0
C1449 C 0.80677 0.70785 0.94614 0.0
C1450 C 0.78083 0.75765 0.86434 0.0
C1451 C 0.76382 0.74372 0.84598 0.0
C1452 C 0.78497 0.74924 0.88708 0.0
C1453 C 0.7723 0.72662 0.89192 0.0
C1454 C 0.75496 0.71302 0.87366 0.0
C1455 C 0.75068 0.72153 0.85112 0.0
H1456 H 0.85207 0.10585 0.98215 0.0
H1457 H 0.83355 0.07661 0.04883 0.0
H1458 H 0.88173 0.08013 0.97803 0.0
H1459 H 0.8643 0.05205 0.04584 0.0
H1460 H 0.90592 0.99377 0.0247 0.0
H1461 H 0.87421 0.01731 0.02454 0.0
H1462 H 0.91805 0.07419 0.99287 0.0
H1463 H 0.94878 0.04998 0.99153 0.0
C1464 C 0.85481 0.09435 0.99628 0.0
C1465 C 0.84059 0.09322 0.01582 0.0
C1466 C 0.87184 0.07956 0.99396 0.0
C1467 C 0.87542 0.06374 0.01149 0.0
C1468 C 0.86168 0.0634 0.03157 0.0
C1469 C 0.84427 0.07776 0.03353 0.0
C1470 C 0.90846 0.01104 0.01719 0.0
C1471 C 0.92979 0.01996 0.0081 0.0
C1472 C 0.89044 0.02476 0.01742 0.0
C1473 C 0.8936 0.04796 0.00908 0.0
C1474 C 0.91469 0.05634 0.99914 0.0
C1475 C 0.93243 0.0424 0.99841 0.0
H1476 H 0.36315 0.41415 0.07757 0.0
H1477 H 0.33616 0.44679 0.01645 0.0
H1478 H 0.4031 0.43513 0.07306 0.0
H1479 H 0.37616 0.46722 0.01163 0.0
H1480 H 0.4552 0.46787 0.99514 0.0
H1481 H 0.41475 0.44965 0.0004 0.0
H1482 H 0.42476 0.4832 0.07661 0.0
H1483 H 0.46533 0.5021 0.07121 0.0
C1484 C 0.36578 0.42563 0.06307 0.0
C1485 C 0.34657 0.4288 0.04731 0.0
C1486 C 0.38856 0.43778 0.06065 0.0
C1487 C 0.39258 0.45285 0.04211 0.0
C1488 C 0.37346 0.45569 0.02609 0.0
C1489 C 0.35063 0.44399 0.02884 0.0
C1490 C 0.44873 0.47152 0.01299 0.0
C1491 C 0.46337 0.48635 0.03282 0.0
C1492 C 0.42559 0.46116 0.01593 0.0
C1493 C 0.41677 0.46496 0.03891 0.0
C1494 C 0.43129 0.47993 0.05875 0.0
C1495 C 0.45435 0.49083 0.05563 0.0
H1496 H 0.34717 0.56845 0.73204 0.0
H1497 H 0.31851 0.57038 0.8026 0.0
H1498 H 0.32718 0.60174 0.7224 0.0
H1499 H 0.29959 0.60403 0.7935 0.0
H1500 H 0.259 0.65933 0.76893 0.0
H1501 H 0.27076 0.61949 0.77069 0.0
H1502 H 0.33328 0.64452 0.73586 0.0
H1503 H 0.32107 0.68358 0.7332 0.0
C1504 C 0.33647 0.57577 0.74538 0.0
C1505 C 0.33475 0.56692 0.76822 0.0
C1506 C 0.32513 0.59498 0.73995 0.0
C1507 C 0.31199 0.60586 0.75731 0.0
C1508 C 0.30929 0.59604 0.77953 0.0
C1509 C 0.3204 0.57677 0.78485 0.0
C1510 C 0.27512 0.65616 0.76147 0.0
C1511 C 0.28919 0.67467 0.75114 0.0
C1512 C 0.28192 0.63337 0.76252 0.0
C1513 C 0.30305 0.62874 0.75349 0.0
C1514 C 0.31671 0.64714 0.74259 0.0
C1515 C 0.30981 0.66973 0.74132 0.0
H1516 H 0.21342 0.58086 0.56837 0.0
H1517 H 0.20044 0.62184 0.5083 0.0
H1518 H 0.17138 0.57364 0.57371 0.0
H1519 H 0.15872 0.61448 0.51348 0.0
H1520 H 0.0869 0.61164 0.53544 0.0
H1521 H 0.1296 0.62385 0.5418 0.0
H1522 H 0.13578 0.54873 0.54851 0.0
H1523 H 0.09308 0.53652 0.54253 0.0
C1524 C 0.20166 0.58849 0.55647 0.0
C1525 C 0.2102 0.60173 0.53777 0.0
C1526 C 0.17762 0.58432 0.5595 0.0
C1527 C 0.16178 0.59354 0.54406 0.0
C1528 C 0.17051 0.60744 0.52593 0.0
C1529 C 0.19441 0.61145 0.52279 0.0
C1530 C 0.09732 0.59781 0.53878 0.0
C1531 C 0.08663 0.57303 0.53802 0.0
C1532 C 0.12178 0.6048 0.54232 0.0
C1533 C 0.13602 0.58717 0.54522 0.0
C1534 C 0.12527 0.56275 0.5464 0.0
C1535 C 0.10079 0.55574 0.54284 0.0
H1536 H 0.68918 0.94277 0.75952 0.0
H1537 H 0.72351 0.97241 0.83253 0.0
H1538 H 0.71634 0.91421 0.75511 0.0
H1539 H 0.75089 0.94402 0.82787 0.0
H1540 H 0.75981 0.86129 0.82346 0.0
H1541 H 0.74457 0.89937 0.82758 0.0
H1542 H 0.7571 0.9081 0.75223 0.0
H1543 H 0.77211 0.8697 0.74793 0.0
C1544 C 0.70279 0.94355 0.77444 0.0
C1545 C 0.70387 0.9596 0.79654 0.0
C1546 C 0.71851 0.92729 0.77182 0.0
C1547 C 0.73566 0.92675 0.79123 0.0
C1548 C 0.73766 0.9438 0.81273 0.0
C1549 C 0.72196 0.96008 0.81535 0.0
C1550 C 0.75988 0.87161 0.80794 0.0
C1551 C 0.76677 0.86223 0.78523 0.0
C1552 C 0.75124 0.89354 0.81035 0.0
C1553 C 0.74932 0.90655 0.7901 0.0
C1554 C 0.75801 0.89823 0.76801 0.0
C1555 C 0.76674 0.87631 0.76562 0.0
H1556 H 0.70075 0.89735 0.55704 0.0
H1557 H 0.73282 0.95647 0.51948 0.0
H1558 H 0.66335 0.91138 0.55264 0.0
H1559 H 0.69576 0.97115 0.51598 0.0
H1560 H 0.61952 0.97969 0.49617 0.0
H1561 H 0.65643 0.96402 0.49704 0.0
H1562 H 0.64596 0.94388 0.56964 0.0
H1563 H 0.60901 0.95856 0.56828 0.0
C1564 C 0.69982 0.91337 0.54788 0.0
C1565 C 0.7198 0.92584 0.53874 0.0
C1566 C 0.67841 0.92156 0.5455 0.0
C1567 C 0.67651 0.94263 0.53419 0.0
C1568 C 0.69641 0.95474 0.52455 0.0
C1569 C 0.71775 0.94638 0.5267 0.0
C1570 C 0.62523 0.97197 0.51229 0.0
C1571 C 0.6113 0.97021 0.53206 0.0
C1572 C 0.64639 0.96302 0.51285 0.0
C1573 C 0.65412 0.95237 0.53331 0.0
C1574 C 0.64035 0.95127 0.55328 0.0
C1575 C 0.6192 0.95992 0.55259 0.0
H1576 H 0.35818 0.43726 0.74473 0.0
H1577 H 0.30723 0.45548 0.79398 0.0
H1578 H 0.33682 0.39464 0.73664 0.0
H1579 H 0.2862 0.41312 0.78611 0.0
H1580 H 0.24574 0.3365 0.7586 0.0
H1581 H 0.26294 0.37936 0.75577 0.0
H1582 H 0.33256 0.36188 0.76354 0.0
H1583 H 0.31555 0.31936 0.76621 0.0
C1584 C 0.34222 0.43231 0.75345 0.0
C1585 C 0.33459 0.44968 0.77024 0.0
C1586 C 0.33007 0.40789 0.74893 0.0
C1587 C 0.30992 0.40047 0.7609 0.0
C1588 C 0.30152 0.41823 0.77645 0.0
C1589 C 0.31374 0.4425 0.78112 0.0
C1590 C 0.26469 0.34178 0.7594 0.0
C1591 C 0.27926 0.32456 0.76286 0.0
C1592 C 0.27454 0.36632 0.75783 0.0
C1593 C 0.29912 0.37401 0.75942 0.0
C1594 C 0.31357 0.35652 0.76191 0.0
C1595 C 0.30378 0.33215 0.7637 0.0
H1596 H 0.17637 0.58929 0.33777 0.0
H1597 H 0.16968 0.56558 0.259 0.0
H1598 H 0.18776 0.63179 0.33075 0.0
H1599 H 0.18167 0.60863 0.25215 0.0
H1600 H 0.23413 0.69102 0.26899 0.0
H1601 H 0.22198 0.64646 0.26867 0.0
H1602 H 0.16134 0.65898 0.30568 0.0
H1603 H 0.17301 0.70313 0.30575 0.0
C1604 C 0.17762 0.59306 0.31895 0.0
C1605 C 0.17203 0.57399 0.29892 0.0
C1606 C 0.18403 0.61744 0.31497 0.0
C1607 C 0.18538 0.62335 0.29094 0.0
C1608 C 0.18069 0.60439 0.27085 0.0
C1609 C 0.17382 0.57986 0.27479 0.0
C1610 C 0.21796 0.6842 0.2766 0.0
C1611 C 0.20467 0.70062 0.28764 0.0
C1612 C 0.21102 0.65876 0.27633 0.0
C1613 C 0.19089 0.6495 0.28735 0.0
C1614 C 0.17703 0.66579 0.29724 0.0
C1615 C 0.18374 0.69106 0.29723 0.0
H1616 H 0.46054 0.68238 0.46763 0.0
H1617 H 0.52608 0.69335 0.43436 0.0
H1618 H 0.47417 0.65192 0.49046 0.0
H1619 H 0.53989 0.6632 0.45769 0.0
H1620 H 0.52927 0.57856 0.46258 0.0
H1621 H 0.5271 0.6189 0.45117 0.0
H1622 H 0.50152 0.63982 0.52117 0.0
H1623 H 0.50352 0.5989 0.5325 0.0
C1624 C 0.47809 0.67877 0.46562 0.0
C1625 C 0.49198 0.68995 0.4487 0.0
C1626 C 0.48601 0.66141 0.47893 0.0
C1627 C 0.50801 0.65487 0.47567 0.0
C1628 C 0.52267 0.66752 0.46028 0.0
C1629 C 0.51475 0.68485 0.44693 0.0
C1630 C 0.52376 0.59199 0.47581 0.0
C1631 C 0.51632 0.58558 0.49828 0.0
C1632 C 0.52267 0.61523 0.46935 0.0
C1633 C 0.51392 0.63256 0.48516 0.0
C1634 C 0.50809 0.62676 0.50849 0.0
C1635 C 0.50943 0.60345 0.51507 0.0
H1636 H 0.56886 0.31008 0.73505 0.0
H1637 H 0.59167 0.29011 0.66336 0.0
H1638 H 0.60695 0.30621 0.75478 0.0
H1639 H 0.62985 0.28682 0.68306 0.0
H1640 H 0.67903 0.24856 0.72549 0.0
H1641 H 0.64226 0.25693 0.70757 0.0
H1642 H 0.64982 0.32259 0.76065 0.0
H1643 H 0.68689 0.31395 0.77901 0.0
C1644 C 0.58213 0.30527 0.72347 0.0
C1645 C 0.57715 0.30006 0.69765 0.0
C1646 C 0.60398 0.30316 0.7348 0.0
C1647 C 0.62125 0.29584 0.72049 0.0
C1648 C 0.61668 0.29195 0.6946 0.0
C1649 C 0.59486 0.29398 0.6833 0.0
C1650 C 0.6729 0.26478 0.73344 0.0
C1651 C 0.68597 0.28073 0.75354 0.0
C1652 C 0.65188 0.26968 0.72302 0.0
C1653 C 0.64336 0.29068 0.73238 0.0
C1654 C 0.65598 0.30627 0.75303 0.0
C1655 C 0.67715 0.30132 0.76355 0.0
H1656 H 0.00947 0.30523 0.90506 0.0
H1657 H 0.94814 0.29954 0.94563 0.0
H1658 H 0.02177 0.34803 0.92342 0.0
H1659 H 0.96036 0.34261 0.96367 0.0
H1660 H 0.00524 0.41368 0.00965 0.0
H1661 H 0.99126 0.3704 0.99255 0.0
H1662 H 0.00872 0.3869 0.92049 0.0
H1663 H 0.02294 0.42976 0.9375 0.0
C1664 C 0.99857 0.31307 0.91786 0.0
C1665 C 0.97775 0.29891 0.92376 0.0
C1666 C 0.00556 0.33769 0.92828 0.0
C1667 C 0.99194 0.34877 0.94486 0.0
C1668 C 0.97132 0.33455 0.95109 0.0
C1669 C 0.96428 0.30989 0.94063 0.0
C1670 C 0.0059 0.40805 0.99013 0.0
C1671 C 0.01537 0.4251 0.97498 0.0
C1672 C 0.99786 0.38329 0.98033 0.0
C1673 C 0.99917 0.37518 0.95522 0.0
C1674 C 0.00795 0.39245 0.94 0.0
C1675 C 0.01597 0.41707 0.94976 0.0
H1676 H 0.92731 0.74989 0.14561 0.0
H1677 H 0.96352 0.74609 0.21654 0.0
H1678 H 0.89016 0.74636 0.16383 0.0
H1679 H 0.92637 0.74329 0.23495 0.0
H1680 H 0.85083 0.73034 0.25798 0.0
H1681 H 0.88548 0.72206 0.23787 0.0
H1682 H 0.87789 0.77827 0.19165 0.0
H1683 H 0.84353 0.78627 0.21126 0.0
C1684 C 0.92729 0.74779 0.16497 0.0
C1685 C 0.94839 0.74875 0.17973 0.0
C1686 C 0.90603 0.74592 0.17545 0.0
C1687 C 0.90548 0.74524 0.20095 0.0
C1688 C 0.92624 0.74384 0.21526 0.0
C1689 C 0.94753 0.7455 0.2047 0.0
C1690 C 0.85666 0.74091 0.24356 0.0
C1691 C 0.84446 0.75896 0.23621 0.0
C1692 C 0.87642 0.73613 0.23203 0.0
C1693 C 0.88415 0.74921 0.2129 0.0
C1694 C 0.87203 0.76739 0.20585 0.0
C1695 C 0.85245 0.77218 0.21733 0.0
H1696 H 0.47195 0.28743 0.04948 0.0
H1697 H 0.52702 0.3277 0.10433 0.0
H1698 H 0.48356 0.31657 0.02097 0.0
H1699 H 0.53774 0.35768 0.07667 0.0
H1700 H 0.55607 0.41066 0.02524 0.0
H1701 H 0.55246 0.37169 0.04189 0.0
H1702 H 0.47789 0.35606 0.01777 0.0
H1703 H 0.48191 0.39404 2e-05 0.0
C1704 C 0.48672 0.30239 0.05532 0.0
C1705 C 0.49838 0.30548 0.07922 0.0
C1706 C 0.49328 0.31925 0.03906 0.0
C1707 C 0.51127 0.33994 0.04658 0.0
C1708 C 0.52396 0.34197 0.06996 0.0
C1709 C 0.51773 0.3248 0.08598 0.0
C1710 C 0.53906 0.39851 0.02296 0.0
C1711 C 0.51922 0.40555 0.0116 0.0
C1712 C 0.53691 0.37625 0.0327 0.0
C1713 C 0.51478 0.36079 0.03172 0.0
C1714 C 0.49531 0.36716 0.01876 0.0
C1715 C 0.49756 0.38915 0.00864 0.0
H1716 H 0.95433 0.27459 0.31898 0.0
H1717 H 0.93012 0.27672 0.39151 0.0
H1718 H 0.91451 0.27453 0.30099 0.0
H1719 H 0.89061 0.27782 0.3739 0.0
H1720 H 0.82045 0.23953 0.33228 0.0
H1721 H 0.86058 0.24825 0.35114 0.0
H1722 H 0.88124 0.29367 0.29507 0.0
H1723 H 0.84073 0.28397 0.27542 0.0
C1724 C 0.94058 0.27568 0.33114 0.0
C1725 C 0.94518 0.27512 0.35657 0.0
C1726 C 0.91775 0.27575 0.32086 0.0
C1727 C 0.89915 0.27567 0.3359 0.0
C1728 C 0.90429 0.27705 0.36162 0.0
C1729 C 0.92698 0.27651 0.37178 0.0
C1730 C 0.83345 0.25155 0.32399 0.0
C1731 C 0.82738 0.26097 0.30226 0.0
C1732 C 0.85654 0.25677 0.335 0.0
C1733 C 0.87427 0.27183 0.32479 0.0
C1734 C 0.86812 0.28179 0.30332 0.0
C1735 C 0.8449 0.27636 0.29212 0.0
H1736 H 0.9381 0.68284 0.5896 0.0
H1737 H 0.00577 0.69728 0.63304 0.0
H1738 H 0.94622 0.64373 0.57056 0.0
H1739 H 0.01398 0.65841 0.61364 0.0
H1740 H 0.01075 0.5761 0.59258 0.0
H1741 H 0.00132 0.61428 0.61226 0.0
H1742 H 0.97197 0.62826 0.54166 0.0
H1743 H 0.98105 0.58975 0.52198 0.0
C1744 C 0.9547 0.67771 0.59512 0.0
C1745 C 0.97127 0.69326 0.61289 0.0
C1746 C 0.95941 0.65534 0.58406 0.0
C1747 C 0.98077 0.64797 0.59053 0.0
C1748 C 0.99723 0.6634 0.60846 0.0
C1749 C 0.99255 0.68576 0.61951 0.0
C1750 C 0.00228 0.5873 0.58123 0.0
C1751 C 0.99671 0.57992 0.55568 0.0
C1752 C 0.99697 0.60925 0.59251 0.0
C1753 C 0.98597 0.62437 0.57853 0.0
C1754 C 0.98022 0.6169 0.553 0.0
C1755 C 0.98553 0.5949 0.5417 0.0
H1756 H 0.58874 0.77189 0.8871 0.0
H1757 H 0.56334 0.76482 0.8099 0.0
H1758 H 0.62904 0.77609 0.87617 0.0
H1759 H 0.60364 0.76978 0.79901 0.0
H1760 H 0.67766 0.75585 0.78618 0.0
H1761 H 0.63707 0.74989 0.79682 0.0
H1762 H 0.6584 0.80451 0.86138 0.0
H1763 H 0.69877 0.80985 0.85119 0.0
C1764 C 0.59176 0.77142 0.86781 0.0
C1765 C 0.5728 0.76807 0.8494 0.0
C1766 C 0.6149 0.77393 0.86152 0.0
C1767 C 0.61968 0.77333 0.83667 0.0
C1768 C 0.60067 0.76997 0.81828 0.0
C1769 C 0.57753 0.76731 0.82457 0.0
C1770 C 0.67362 0.76654 0.80263 0.0
C1771 C 0.69147 0.78326 0.81785 0.0
C1772 C 0.65034 0.76323 0.8087 0.0
C1773 C 0.6444 0.77665 0.83005 0.0
C1774 C 0.66231 0.79348 0.84509 0.0
C1775 C 0.68551 0.79668 0.83912 0.0
H1776 H 0.47116 0.52553 0.72627 0.0
H1777 H 0.40422 0.51408 0.68205 0.0
H1778 H 0.49132 0.52423 0.68915 0.0
H1779 H 0.42456 0.5137 0.64462 0.0
H1780 H 0.52304 0.54494 0.61961 0.0
H1781 H 0.50229 0.54667 0.6567 0.0
H1782 H 0.44583 0.48984 0.6193 0.0
H1783 H 0.46609 0.4888 0.58221 0.0
C1784 C 0.46071 0.52291 0.70857 0.0
C1785 C 0.43604 0.51991 0.70713 0.0
C1786 C 0.47235 0.52235 0.68722 0.0
C1787 C 0.45967 0.51902 0.66379 0.0
C1788 C 0.43492 0.51598 0.66232 0.0
C1789 C 0.42323 0.5163 0.68376 0.0
C1790 C 0.50622 0.53281 0.61939 0.0
C1791 C 0.49623 0.51681 0.59794 0.0
C1792 C 0.49432 0.53371 0.64067 0.0
C1793 C 0.47227 0.51842 0.64106 0.0
C1794 C 0.46248 0.50225 0.61962 0.0
C1795 C 0.47424 0.50153 0.59834 0.0
H1796 H 0.7461 0.17315 0.96978 0.0
H1797 H 0.8152 0.21703 0.9685 0.0
H1798 H 0.73021 0.19538 0.93881 0.0
H1799 H 0.79915 0.23919 0.93753 0.0
H1800 H 0.76234 0.27903 0.8839 0.0
H1801 H 0.76924 0.26637 0.92493 0.0
H1802 H 0.74047 0.19091 0.89425 0.0
H1803 H 0.7342 0.20346 0.85362 0.0
C1804 C 0.75782 0.1879 0.96337 0.0
C1805 C 0.78206 0.19293 0.97122 0.0
C1806 C 0.74866 0.20064 0.94567 0.0
C1807 C 0.76349 0.21882 0.93566 0.0
C1808 C 0.78729 0.22536 0.94506 0.0
C1809 C 0.79651 0.21248 0.96263 0.0
C1810 C 0.75689 0.25991 0.88627 0.0
C1811 C 0.74779 0.24213 0.86584 0.0
C1812 C 0.76092 0.25267 0.90959 0.0
C1813 C 0.75535 0.22768 0.91272 0.0
C1814 C 0.74465 0.21031 0.89249 0.0
C1815 C 0.74116 0.21744 0.86923 0.0
H1816 H 0.0613 0.46229 0.21717 0.0
H1817 H 0.13022 0.48462 0.19359 0.0
H1818 H 0.04319 0.46561 0.17672 0.0
H1819 H 0.11215 0.48655 0.15236 0.0
H1820 H 0.01615 0.45911 0.09621 0.0
H1821 H 0.03503 0.45068 0.13483 0.0
H1822 H 0.09141 0.51248 0.13325 0.0
H1823 H 0.07322 0.51983 0.09423 0.0
C1824 C 0.07263 0.46736 0.20311 0.0
C1825 C 0.09719 0.47344 0.2086 0.0
C1826 C 0.06221 0.46912 0.17979 0.0
C1827 C 0.07613 0.47659 0.16123 0.0
C1828 C 0.10082 0.48138 0.16638 0.0
C1829 C 0.11123 0.48008 0.18992 0.0
C1830 C 0.03254 0.47084 0.10426 0.0
C1831 C 0.04323 0.49009 0.09231 0.0
C1832 C 0.04339 0.46607 0.12638 0.0
C1833 C 0.0649 0.48079 0.13718 0.0
C1834 C 0.07526 0.5003 0.12525 0.0
C1835 C 0.06467 0.50473 0.10299 0.0
H1836 H 0.80223 0.81819 0.48863 0.0
H1837 H 0.76683 0.87949 0.48217 0.0
H1838 H 0.79017 0.80262 0.44517 0.0
H1839 H 0.75594 0.8649 0.43854 0.0
H1840 H 0.7202 0.82276 0.3669 0.0
H1841 H 0.73127 0.83561 0.4107 0.0
H1842 H 0.79608 0.80795 0.40443 0.0
H1843 H 0.78405 0.7937 0.36055 0.0
C1844 C 0.79198 0.82842 0.47785 0.0
C1845 C 0.78535 0.84998 0.48889 0.0
C1846 C 0.78521 0.81961 0.45283 0.0
C1847 C 0.77199 0.83239 0.4381 0.0
C1848 C 0.76559 0.85411 0.44924 0.0
C1849 C 0.77195 0.86263 0.47433 0.0
C1850 C 0.73683 0.8194 0.37488 0.0
C1851 C 0.75135 0.80737 0.36026 0.0
C1852 C 0.7433 0.82695 0.40006 0.0
C1853 C 0.76479 0.82321 0.41131 0.0
C1854 C 0.77927 0.81094 0.39663 0.0
C1855 C 0.7725 0.80289 0.37142 0.0
H1856 H 0.44518 0.48297 0.82013 0.0
H1857 H 0.39765 0.52491 0.85491 0.0
H1858 H 0.46363 0.47939 0.86089 0.0
H1859 H 0.41609 0.52172 0.89512 0.0
H1860 H 0.44299 0.50482 0.96619 0.0
H1861 H 0.42241 0.49496 0.92481 0.0
H1862 H 0.48901 0.50759 0.89369 0.0
H1863 H 0.50965 0.51651 0.93533 0.0
C1864 C 0.43845 0.4911 0.83643 0.0
C1865 C 0.41992 0.50419 0.83429 0.0
C1866 C 0.44908 0.48915 0.85973 0.0
C1867 C 0.44132 0.50023 0.88125 0.0
C1868 C 0.42223 0.51252 0.87899 0.0
C1869 C 0.41167 0.51445 0.85583 0.0
C1870 C 0.45323 0.5051 0.95048 0.0
C1871 C 0.47784 0.51187 0.95384 0.0
C1872 C 0.44146 0.4995 0.92679 0.0
C1873 C 0.45403 0.501 0.90596 0.0
C1874 C 0.4788 0.50615 0.90934 0.0
C1875 C 0.49063 0.5114 0.93315 0.0
H1876 H 0.83536 0.21713 0.07413 0.0
H1877 H 0.79499 0.15146 0.09513 0.0
H1878 H 0.82637 0.2413 0.11145 0.0
H1879 H 0.78679 0.17518 0.1326 0.0
H1880 H 0.74745 0.22505 0.17491 0.0
H1881 H 0.76115 0.20416 0.13896 0.0
H1882 H 0.83011 0.24995 0.15698 0.0
H1883 H 0.81596 0.27157 0.19296 0.0
C1884 C 0.82512 0.20779 0.08705 0.0
C1885 C 0.81556 0.18252 0.08161 0.0
C1886 C 0.81996 0.22161 0.10839 0.0
C1887 C 0.80535 0.21027 0.12465 0.0
C1888 C 0.79743 0.18464 0.12004 0.0
C1889 C 0.80228 0.17099 0.09867 0.0
C1890 C 0.76548 0.23086 0.17109 0.0
C1891 C 0.7807 0.24978 0.1868 0.0
C1892 C 0.77342 0.21872 0.15061 0.0
C1893 C 0.79691 0.22494 0.14546 0.0
C1894 C 0.81193 0.24469 0.16051 0.0
C1895 C 0.80384 0.25709 0.18103 0.0
H1896 H 0.11762 0.51668 0.36439 0.0
H1897 H 0.06327 0.52106 0.30739 0.0
H1898 H 0.09358 0.53034 0.39577 0.0
H1899 H 0.03906 0.53454 0.33901 0.0
H1900 H 0.05339 0.56776 0.4478 0.0
H1901 H 0.07521 0.56671 0.41163 0.0
H1902 H 0.01909 0.51139 0.37159 0.0
H1903 H 0.99712 0.51233 0.40777 0.0
C1904 C 0.10074 0.52092 0.35852 0.0
C1905 C 0.09235 0.51772 0.33343 0.0
C1906 C 0.08701 0.5289 0.37649 0.0
C1907 C 0.06452 0.53358 0.36974 0.0
C1908 C 0.05634 0.53103 0.34464 0.0
C1909 C 0.07022 0.52333 0.32662 0.0
C1910 C 0.04539 0.55581 0.4311 0.0
C1911 C 0.02379 0.53965 0.4308 0.0
C1912 C 0.05793 0.55522 0.41044 0.0
C1913 C 0.04901 0.53863 0.38909 0.0
C1914 C 0.02634 0.52435 0.38788 0.0
C1915 C 0.0138 0.52484 0.40862 0.0
H1916 H 0.74373 0.8445 0.6141 0.0
H1917 H 0.79863 0.80316 0.59857 0.0
H1918 H 0.73276 0.81961 0.64668 0.0
H1919 H 0.78753 0.77837 0.63084 0.0
H1920 H 0.71431 0.76233 0.70001 0.0
H1921 H 0.71833 0.7771 0.65966 0.0
H1922 H 0.79393 0.79236 0.67602 0.0
H1923 H 0.78987 0.77803 0.71583 0.0
C1924 C 0.75305 0.82972 0.61714 0.0
C1925 C 0.77238 0.82619 0.60398 0.0
C1926 C 0.7467 0.8154 0.63578 0.0
C1927 C 0.75954 0.79729 0.64161 0.0
C1928 C 0.77757 0.79248 0.62709 0.0
C1929 C 0.7839 0.80671 0.60854 0.0
C1930 C 0.73172 0.7684 0.69461 0.0
C1931 C 0.75177 0.76912 0.71099 0.0
C1932 C 0.73403 0.777 0.67168 0.0
C1933 C 0.75645 0.78587 0.66462 0.0
C1934 C 0.77642 0.7854 0.68068 0.0
C1935 C 0.7741 0.77732 0.70358 0.0
H1936 H 0.69615 0.41267 0.54415 0.0
H1937 H 0.70016 0.44871 0.47876 0.0
H1938 H 0.66785 0.43739 0.55861 0.0
H1939 H 0.67137 0.47283 0.49279 0.0
H1940 H 0.63926 0.53086 0.53409 0.0
H1941 H 0.66883 0.50629 0.52353 0.0
H1942 H 0.62857 0.44447 0.55142 0.0
H1943 H 0.59946 0.46928 0.56275 0.0
C1944 C 0.69069 0.42556 0.53264 0.0
C1945 C 0.70051 0.42879 0.51034 0.0
C1946 C 0.67445 0.43975 0.54095 0.0
C1947 C 0.66756 0.45741 0.52708 0.0
C1948 C 0.67673 0.45991 0.50431 0.0
C1949 C 0.69306 0.44585 0.4961 0.0
C1950 C 0.63697 0.51218 0.53844 0.0
C1951 C 0.61694 0.50205 0.54917 0.0
C1952 C 0.65377 0.49797 0.53209 0.0
C1953 C 0.65087 0.4732 0.53614 0.0
C1954 C 0.63147 0.46348 0.5481 0.0
C1955 C 0.61476 0.47777 0.55464 0.0
H1956 H 0.21021 0.10044 0.52028 0.0
H1957 H 0.19956 0.06186 0.44579 0.0
H1958 H 0.17034 0.08272 0.52692 0.0
H1959 H 0.15907 0.04472 0.45215 0.0
H1960 H 0.09562 0.99922 0.48198 0.0
H1961 H 0.13581 0.01583 0.47409 0.0
H1962 H 0.13109 0.08577 0.51537 0.0
H1963 H 0.09171 0.06899 0.52412 0.0
C1964 C 0.19925 0.08839 0.50518 0.0
C1965 C 0.20805 0.08264 0.48246 0.0
C1966 C 0.17629 0.07828 0.50896 0.0
C1967 C 0.16138 0.06239 0.49002 0.0
C1968 C 0.17015 0.05666 0.46723 0.0
C1969 C 0.19329 0.06663 0.46351 0.0
C1970 C 0.10324 0.01811 0.48939 0.0
C1971 C 0.09045 0.03273 0.50371 0.0
C1972 C 0.1262 0.0277 0.48472 0.0
C1973 C 0.13677 0.05213 0.49419 0.0
C1974 C 0.12376 0.06675 0.5082 0.0
C1975 C 0.10102 0.05714 0.51305 0.0
H1976 H 0.19159 0.96306 0.75039 0.0
H1977 H 0.22016 0.959 0.82466 0.0
H1978 H 0.21674 0.9355 0.73403 0.0
H1979 H 0.24456 0.9309 0.80843 0.0
H1980 H 0.2913 0.88423 0.77642 0.0
H1981 H 0.27613 0.92211 0.7858 0.0
H1982 H 0.21555 0.89262 0.73291 0.0
H1983 H 0.23107 0.85537 0.72295 0.0
C1984 C 0.20339 0.9565 0.76323 0.0
C1985 C 0.20357 0.96296 0.78887 0.0
C1986 C 0.21775 0.94062 0.75384 0.0
C1987 C 0.23249 0.93068 0.76989 0.0
C1988 C 0.23367 0.93835 0.79545 0.0
C1989 C 0.21948 0.95438 0.80481 0.0
C1990 C 0.27506 0.88612 0.76634 0.0
C1991 C 0.2622 0.8666 0.74925 0.0
C1992 C 0.26626 0.90778 0.77185 0.0
C1993 C 0.24438 0.91029 0.76049 0.0
C1994 C 0.23252 0.89151 0.74196 0.0
C1995 C 0.24138 0.86998 0.73634 0.0
H1996 H 0.34589 0.88675 0.99671 0.0
H1997 H 0.31982 0.94793 0.97033 0.0
H1998 H 0.38503 0.90396 0.98852 0.0
H1999 H 0.35958 0.96535 0.96169 0.0
H2000 H 0.43376 0.00239 0.00609 0.0
H2001 H 0.3931 0.98483 0.99073 0.0
H2002 H 0.41415 0.91696 0.96219 0.0
H2003 H 0.4547 0.93426 0.97872 0.0
C2004 C 0.34835 0.90352 0.98843 0.0
C2005 C 0.32977 0.91614 0.98458 0.0
C2006 C 0.37092 0.91338 0.98346 0.0
C2007 C 0.37555 0.93618 0.97457 0.0
C2008 C 0.35661 0.94788 0.9688 0.0
C2009 C 0.33387 0.93789 0.97371 0.0
C2010 C 0.42978 0.98402 0.99581 0.0
C2011 C 0.44709 0.96935 0.9942 0.0
C2012 C 0.40647 0.97396 0.98683 0.0
C2013 C 0.40029 0.94922 0.97585 0.0
C2014 C 0.41828 0.93583 0.97123 0.0
C2015 C 0.44147 0.9457 0.98064 0.0
H2016 H 0.84161 0.58379 0.76347 0.0
H2017 H 0.8025 0.55604 0.82125 0.0
H2018 H 0.81156 0.60755 0.75373 0.0
H2019 H 0.77186 0.57897 0.81082 0.0
H2020 H 0.75831 0.65953 0.81928 0.0
H2021 H 0.77351 0.62185 0.81994 0.0
H2022 H 0.77258 0.6134 0.74036 0.0
H2023 H 0.75763 0.65192 0.73995 0.0
C2024 C 0.82623 0.58218 0.7736 0.0
C2025 C 0.82472 0.56858 0.79357 0.0
C2026 C 0.80883 0.59565 0.76786 0.0
C2027 C 0.78944 0.59554 0.78179 0.0
C2028 C 0.78686 0.57996 0.80013 0.0
C2029 C 0.80441 0.56682 0.80612 0.0
C2030 C 0.76062 0.64919 0.80184 0.0
C2031 C 0.75709 0.6587 0.77961 0.0
C2032 C 0.76922 0.62743 0.80216 0.0
C2033 C 0.77461 0.61467 0.78021 0.0
C2034 C 0.76895 0.62299 0.75763 0.0
C2035 C 0.76015 0.64487 0.75732 0.0
H2036 H 0.86525 0.63418 0.01872 0.0
H2037 H 0.82207 0.56794 0.03533 0.0
H2038 H 0.90024 0.61638 0.02564 0.0
H2039 H 0.85705 0.54979 0.04146 0.0
H2040 H 0.92909 0.52932 0.06309 0.0
H2041 H 0.89489 0.54978 0.06478 0.0
H2042 H 0.91472 0.58452 0.00131 0.0
H2043 H 0.94857 0.56474 -0.00011 0.0
C2044 C 0.86323 0.61595 0.02416 0.0
C2045 C 0.84083 0.6024 0.02619 0.0
C2046 C 0.88329 0.60564 0.02795 0.0
C2047 C 0.88143 0.58143 0.0336 0.0
C2048 C 0.85916 0.56847 0.03719 0.0
C2049 C 0.83908 0.57887 0.03357 0.0
C2050 C 0.92604 0.54134 0.04955 0.0
C2051 C 0.94162 0.54547 0.03145 0.0
C2052 C 0.90649 0.55305 0.0505 0.0
C2053 C 0.90225 0.56912 0.03342 0.0
C2054 C 0.91773 0.57286 0.0152 0.0
C2055 C 0.93711 0.56127 0.01426 0.0
H2056 H 0.2049 0.08127 0.84443 0.0
H2057 H 0.16187 0.06957 0.77447 0.0
H2058 H 0.2228 0.1221 0.83622 0.0
H2059 H 0.18008 0.11009 0.76615 0.0
H2060 H 0.19857 0.19354 0.77167 0.0
H2061 H 0.18098 0.15315 0.78078 0.0
H2062 H 0.24938 0.14184 0.80879 0.0
H2063 H 0.26704 0.18267 0.80008 0.0
C2064 C 0.19925 0.08736 0.8273 0.0
C2065 C 0.18188 0.0721 0.81015 0.0
C2066 C 0.20965 0.1107 0.82253 0.0
C2067 C 0.20289 0.11935 0.80053 0.0
C2068 C 0.18548 0.10413 0.78343 0.0
C2069 C 0.1751 0.08081 0.78817 0.0
C2070 C 0.20993 0.18246 0.77972 0.0
C2071 C 0.23426 0.19132 0.78507 0.0
C2072 C 0.19982 0.15923 0.78485 0.0
C2073 C 0.21378 0.14421 0.79541 0.0
C2074 C 0.23811 0.15307 0.80087 0.0
C2075 C 0.24825 0.17639 0.79574 0.0
H2076 H 0.3755 0.96614 0.26891 0.0
H2077 H 0.34613 0.96728 0.33908 0.0
H2078 H 0.35539 0.92376 0.25693 0.0
H2079 H 0.32631 0.92455 0.32715 0.0
H2080 H 0.27438 0.8569 0.28454 0.0
H2081 H 0.29424 0.89951 0.29792 0.0
H2082 H 0.35714 0.88312 0.26752 0.0
H2083 H 0.33731 0.84092 0.2538 0.0
C2084 C 0.36488 0.95734 0.28188 0.0
C2085 C 0.36249 0.97018 0.305 0.0
C2086 C 0.35342 0.93295 0.27503 0.0
C2087 C 0.33928 0.92074 0.29111 0.0
C2088 C 0.33687 0.93353 0.31424 0.0
C2089 C 0.34838 0.95797 0.32113 0.0
C2090 C 0.29245 0.86243 0.28074 0.0
C2091 C 0.3042 0.84557 0.26797 0.0
C2092 C 0.30387 0.88679 0.28853 0.0
C2093 C 0.32724 0.89474 0.28366 0.0
C2094 C 0.33902 0.87773 0.27119 0.0
C2095 C 0.32765 0.85347 0.26343 0.0
H2096 H 0.54382 0.33185 0.59592 0.0
H2097 H 0.47332 0.31403 0.55847 0.0
H2098 H 0.5527 0.36673 0.57317 0.0
H2099 H 0.48233 0.34891 0.53578 0.0
H2100 H 0.56601 0.42254 0.52107 0.0
H2101 H 0.55667 0.38078 0.53145 0.0
H2102 H 0.48909 0.39408 0.55174 0.0
H2103 H 0.49835 0.43579 0.5414 0.0
C2104 C 0.53038 0.33502 0.58248 0.0
C2105 C 0.50775 0.32032 0.57933 0.0
C2106 C 0.53551 0.35495 0.56934 0.0
C2107 C 0.51811 0.36066 0.55289 0.0
C2108 C 0.49598 0.34508 0.54856 0.0
C2109 C 0.49089 0.32504 0.56153 0.0
C2110 C 0.54892 0.41637 0.52717 0.0
C2111 C 0.53298 0.43253 0.53064 0.0
C2112 C 0.54367 0.39251 0.53325 0.0
C2113 C 0.52226 0.38426 0.54258 0.0
C2114 C 0.50567 0.39986 0.54442 0.0
C2115 C 0.51102 0.42379 0.5386 0.0
H2116 H 0.40256 0.72371 0.37691 0.0
H2117 H 0.43662 0.75393 0.3171 0.0
H2118 H 0.36486 0.73072 0.35899 0.0
H2119 H 0.39891 0.76076 0.29919 0.0
H2120 H 0.32226 0.74431 0.26224 0.0
H2121 H 0.35964 0.73563 0.27958 0.0
H2122 H 0.34717 0.76786 0.35195 0.0
H2123 H 0.31003 0.77653 0.33481 0.0
C2124 C 0.40205 0.73192 0.36004 0.0
C2125 C 0.42262 0.73845 0.34856 0.0
C2126 C 0.38046 0.73593 0.34977 0.0
C2127 C 0.379 0.74626 0.32769 0.0
C2128 C 0.3995 0.75254 0.31609 0.0
C2129 C 0.42111 0.74878 0.32647 0.0
C2130 C 0.32752 0.7495 0.28184 0.0
C2131 C 0.31326 0.76117 0.29712 0.0
C2132 C 0.34892 0.74462 0.29173 0.0
C2133 C 0.35624 0.75104 0.31711 0.0
C2134 C 0.34185 0.76249 0.33238 0.0
C2135 C 0.32067 0.76762 0.32249 0.0
H2136 H 0.03773 0.70823 0.13293 0.0
H2137 H 0.98075 0.69168 0.0742 0.0
H2138 H 0.04943 0.6691 0.11952 0.0
H2139 H 0.99234 0.65259 0.06108 0.0
H2140 H 0.03115 0.58239 0.1119 0.0
H2141 H 0.03074 0.62612 0.1215 0.0
H2142 H 0.0231 0.63199 0.04357 0.0
H2143 H 0.02328 0.58803 0.03392 0.0
C2144 C 0.02786 0.69643 0.117 0.0
C2145 C 0.00811 0.70301 0.10482 0.0
C2146 C 0.03456 0.67398 0.10937 0.0
C2147 C 0.02179 0.65773 0.08929 0.0
C2148 C 0.00274 0.66483 0.07642 0.0
C2149 C 0.99595 0.68717 0.08412 0.0
C2150 C 0.02998 0.59312 0.09681 0.0
C2151 C 0.02697 0.58171 0.07217 0.0
C2152 C 0.02985 0.61824 0.10231 0.0
C2153 C 0.02658 0.63245 0.08329 0.0
C2154 C 0.02531 0.62141 0.05862 0.0
C2155 C 0.02563 0.59628 0.0531 0.0
H2156 H 0.04964 0.19005 0.82479 0.0
H2157 H 0.05863 0.26539 0.85986 0.0
H2158 H 0.08934 0.19824 0.81233 0.0
H2159 H 0.09855 0.27353 0.84729 0.0
H2160 H 0.16017 0.28116 0.79621 0.0
H2161 H 0.11959 0.27483 0.80744 0.0
H2162 H 0.12971 0.20795 0.83561 0.0
H2163 H 0.16986 0.21415 0.82456 0.0
C2164 C 0.06007 0.20837 0.82983 0.0
C2165 C 0.05104 0.22703 0.84344 0.0
C2166 C 0.08283 0.21303 0.82273 0.0
C2167 C 0.09701 0.2365 0.8289 0.0
C2168 C 0.0879 0.25532 0.84214 0.0
C2169 C 0.06515 0.2506 0.84948 0.0
C2170 C 0.15365 0.26512 0.80477 0.0
C2171 C 0.16818 0.24817 0.8095 0.0
C2172 C 0.13053 0.26158 0.8113 0.0
C2173 C 0.12153 0.24085 0.8223 0.0
C2174 C 0.13609 0.22395 0.82692 0.0
C2175 C 0.15915 0.22761 0.8207 0.0
H2176 H 0.4722 0.7017 0.96155 0.0
H2177 H 0.54259 0.71728 0.93945 0.0
H2178 H 0.48231 0.66832 0.98208 0.0
H2179 H 0.55311 0.68439 0.9611 0.0
H2180 H 0.55097 0.6027 0.96742 0.0
H2181 H 0.54539 0.64129 0.95415 0.0
H2182 H 0.50286 0.65379 0.01418 0.0
H2183 H 0.50768 0.61423 0.02687 0.0
C2184 C 0.49004 0.69838 0.96152 0.0
C2185 C 0.50649 0.71203 0.94851 0.0
C2186 C 0.49591 0.67924 0.97353 0.0
C2187 C 0.51849 0.67336 0.97313 0.0
C2188 C 0.53537 0.68797 0.96133 0.0
C2189 C 0.5294 0.70697 0.94903 0.0
C2190 C 0.54057 0.61372 0.97798 0.0
C2191 C 0.52958 0.60522 0.99809 0.0
C2192 C 0.53754 0.6361 0.97047 0.0
C2193 C 0.52364 0.65083 0.98301 0.0
C2194 C 0.51338 0.64279 0.00379 0.0
C2195 C 0.51623 0.62017 0.01118 0.0
H2196 H 0.05888 0.71911 0.69742 0.0
H2197 H 0.06991 0.78725 0.6661 0.0
H2198 H 0.10146 0.72141 0.7035 0.0
H2199 H 0.11223 0.78965 0.67246 0.0
H2200 H 0.18588 0.77672 0.66575 0.0
H2201 H 0.14321 0.76906 0.65711 0.0
H2202 H 0.1359 0.74695 0.72936 0.0
H2203 H 0.17866 0.75425 0.73791 0.0
C2204 C 0.07035 0.73456 0.69183 0.0
C2205 C 0.06098 0.75301 0.68131 0.0
C2206 C 0.09474 0.73591 0.6954 0.0
C2207 C 0.11023 0.75565 0.68836 0.0
C2208 C 0.1008 0.77399 0.67771 0.0
C2209 C 0.0765 0.7727 0.67425 0.0
C2210 C 0.17521 0.76994 0.6797 0.0
C2211 C 0.18569 0.76631 0.70261 0.0
C2212 C 0.15074 0.7657 0.6748 0.0
C2213 C 0.13616 0.75769 0.69266 0.0
C2214 C 0.14663 0.75299 0.71515 0.0
C2215 C 0.17115 0.75727 0.72008 0.0
H2216 H 0.03319 0.34341 0.41825 0.0
H2217 H 0.98559 0.32613 0.47315 0.0
H2218 H 0.04441 0.3857 0.43941 0.0
H2219 H 0.99669 0.36815 0.49403 0.0
H2220 H 0.03073 0.44176 0.53585 0.0
H2221 H 0.02939 0.39919 0.51751 0.0
H2222 H 0.02268 0.42064 0.4446 0.0
H2223 H 0.02415 0.46307 0.46282 0.0
C2224 C 0.02538 0.3485 0.43498 0.0
C2225 C 0.00833 0.33144 0.44386 0.0
C2226 C 0.03173 0.37273 0.44703 0.0
C2227 C 0.0214 0.38027 0.46836 0.0
C2228 C 0.00517 0.36289 0.47782 0.0
C2229 C 0.99866 0.33882 0.46568 0.0
C2230 C 0.02942 0.43747 0.51592 0.0
C2231 C 0.02733 0.45576 0.50079 0.0
C2232 C 0.02853 0.41307 0.50543 0.0
C2233 C 0.02578 0.40653 0.47961 0.0
C2234 C 0.02501 0.42509 0.46454 0.0
C2235 C 0.02569 0.4494 0.475 0.0
H2236 H 0.44525 0.24457 0.21441 0.0
H2237 H 0.41534 0.27487 0.15308 0.0
H2238 H 0.40675 0.23825 0.23067 0.0
H2239 H 0.37736 0.26882 0.16931 0.0
H2240 H 0.30835 0.22651 0.1874 0.0
H2241 H 0.34741 0.23355 0.17382 0.0
H2242 H 0.37706 0.26175 0.24869 0.0
H2243 H 0.3375 0.25427 0.26259 0.0
C2244 C 0.4305 0.24981 0.20438 0.0
C2245 C 0.43329 0.25986 0.18225 0.0
C2246 C 0.40854 0.24639 0.2138 0.0
C2247 C 0.389 0.25291 0.20119 0.0
C2248 C 0.39196 0.26321 0.17925 0.0
C2249 C 0.41378 0.26664 0.16991 0.0
C2250 C 0.32311 0.23426 0.20108 0.0
C2251 C 0.31978 0.23987 0.2261 0.0
C2252 C 0.34554 0.2384 0.19322 0.0
C2253 C 0.36532 0.2483 0.21015 0.0
C2254 C 0.36213 0.25393 0.23526 0.0
C2255 C 0.33951 0.24984 0.24317 0.0
H2256 H 0.58543 0.54318 0.35499 0.0
H2257 H 0.62443 0.48875 0.37726 0.0
H2258 H 0.56708 0.54374 0.39389 0.0
H2259 H 0.60552 0.48887 0.41561 0.0
H2260 H 0.53603 0.4752 0.45827 0.0
H2261 H 0.55562 0.47712 0.42023 0.0
H2262 H 0.58698 0.55311 0.44524 0.0
H2263 H 0.56806 0.55107 0.48359 0.0
C2264 C 0.5902 0.53152 0.36825 0.0
C2265 C 0.60637 0.51596 0.36315 0.0
C2266 C 0.57971 0.53184 0.39039 0.0
C2267 C 0.58484 0.51619 0.40743 0.0
C2268 C 0.60126 0.50096 0.40258 0.0
C2269 C 0.61215 0.50105 0.38075 0.0
C2270 C 0.54706 0.49229 0.45556 0.0
C2271 C 0.55067 0.51293 0.47381 0.0
C2272 C 0.55827 0.49335 0.43395 0.0
C2273 C 0.57272 0.51525 0.43003 0.0
C2274 C 0.57587 0.53607 0.44797 0.0
C2275 C 0.56516 0.53484 0.46984 0.0
H2276 H 0.2395 0.85415 0.07431 0.0
H2277 H 0.28436 0.80239 0.05336 0.0
H2278 H 0.23112 0.8343 0.11049 0.0
H2279 H 0.27533 0.78195 0.0892 0.0
H2280 H 0.21094 0.78983 0.1695 0.0
H2281 H 0.2133 0.79925 0.12747 0.0
H2282 H 0.28652 0.79218 0.13258 0.0
H2283 H 0.28381 0.78182 0.17431 0.0
C2284 C 0.2471 0.83814 0.07708 0.0
C2285 C 0.26286 0.83008 0.06115 0.0
C2286 C 0.2422 0.82664 0.0978 0.0
C2287 C 0.25275 0.80665 0.10291 0.0
C2288 C 0.26731 0.79761 0.08609 0.0
C2289 C 0.27238 0.80926 0.06547 0.0
C2290 C 0.22743 0.78992 0.16146 0.0
C2291 C 0.24729 0.7854 0.17523 0.0
C2292 C 0.22882 0.79542 0.13743 0.0
C2293 C 0.25018 0.79685 0.12676 0.0
C2294 C 0.26971 0.79101 0.14011 0.0
C2295 C 0.26823 0.78519 0.16408 0.0
H2296 H 0.96215 0.52306 0.83831 0.0
H2297 H 0.91114 0.55123 0.88174 0.0
H2298 H 0.98456 0.51744 0.87591 0.0
H2299 H 0.93377 0.54574 0.91945 0.0
H2300 H 0.96228 0.49953 0.97452 0.0
H2301 H 0.94199 0.50943 0.93789 0.0
H2302 H 0.00857 0.54083 0.91407 0.0
H2303 H 0.02923 0.53072 0.95111 0.0
C2304 C 0.95574 0.52814 0.85589 0.0
C2305 C 0.9347 0.53732 0.85706 0.0
C2306 C 0.96873 0.52512 0.87742 0.0
C2307 C 0.96091 0.53114 0.90057 0.0
C2308 C 0.94007 0.54071 0.90179 0.0
C2309 C 0.92711 0.54383 0.88023 0.0
C2310 C 0.97273 0.50856 0.96156 0.0
C2311 C 0.99744 0.51428 0.96571 0.0
C2312 C 0.96101 0.51444 0.94065 0.0
C2313 C 0.97367 0.52604 0.92322 0.0
C2314 C 0.9984 0.53177 0.92722 0.0
C2315 C 0.01021 0.52604 0.94838 0.0
H2316 H 0.25658 0.14816 0.56576 0.0
H2317 H 0.31766 0.2067 0.57774 0.0
H2318 H 0.245 0.16222 0.60607 0.0
H2319 H 0.30605 0.22061 0.61815 0.0
H2320 H 0.27092 0.24961 0.68389 0.0
H2321 H 0.27538 0.23863 0.64011 0.0
H2322 H 0.2617 0.16161 0.64892 0.0
H2323 H 0.25723 0.17253 0.69248 0.0
C2324 C 0.26745 0.16418 0.57684 0.0
C2325 C 0.2882 0.17615 0.56851 0.0
C2326 C 0.26081 0.17217 0.60001 0.0
C2327 C 0.27464 0.19246 0.61537 0.0
C2328 C 0.29488 0.20506 0.60667 0.0
C2329 C 0.30162 0.19696 0.58355 0.0
C2330 C 0.26829 0.23033 0.67632 0.0
C2331 C 0.26374 0.21192 0.69164 0.0
C2332 C 0.27109 0.22406 0.65131 0.0
C2333 C 0.26906 0.19926 0.64107 0.0
C2334 C 0.2632 0.18087 0.65614 0.0
C2335 C 0.2607 0.18713 0.68114 0.0
H2336 H 0.63176 0.52368 0.21625 0.0
H2337 H 0.55903 0.49266 0.22208 0.0
H2338 H 0.62258 0.52406 0.17217 0.0
H2339 H 0.54998 0.49256 0.17794 0.0
H2340 H 0.53704 0.51212 0.10102 0.0
H2341 H 0.54694 0.51857 0.14571 0.0
H2342 H 0.61238 0.49341 0.13578 0.0
H2343 H 0.60277 0.48746 0.09122 0.0
C2344 C 0.61379 0.51702 0.20815 0.0
C2345 C 0.59615 0.50798 0.22264 0.0
C2346 C 0.60856 0.51715 0.18287 0.0
C2347 C 0.58558 0.50822 0.17151 0.0
C2348 C 0.56781 0.49984 0.18615 0.0
C2349 C 0.57303 0.49974 0.21144 0.0
C2350 C 0.55365 0.50821 0.10838 0.0
C2351 C 0.56906 0.49914 0.09258 0.0
C2352 C 0.55925 0.51178 0.13399 0.0
C2353 C 0.58038 0.50638 0.14432 0.0
C2354 C 0.59609 0.49802 0.12844 0.0
C2355 C 0.5905 0.49447 0.10287 0.0
H2356 H 0.27098 0.80116 0.94504 0.0
H2357 H 0.23787 0.86269 0.93177 0.0
H2358 H 0.2599 0.78273 0.90234 0.0
H2359 H 0.22649 0.84397 0.88877 0.0
H2360 H 0.23141 0.74941 0.8256 0.0
H2361 H 0.2287 0.76455 0.86885 0.0
H2362 H 0.25179 0.83915 0.85475 0.0
H2363 H 0.25423 0.82417 0.81165 0.0
C2364 C 0.26082 0.81047 0.93312 0.0
C2365 C 0.25559 0.83355 0.94166 0.0
C2366 C 0.2543 0.79979 0.90865 0.0
C2367 C 0.24252 0.81201 0.8921 0.0
C2368 C 0.23581 0.83428 0.90107 0.0
C2369 C 0.24217 0.8449 0.9257 0.0
C2370 C 0.23552 0.76907 0.83165 0.0
C2371 C 0.24335 0.78556 0.81528 0.0
C2372 C 0.234 0.77772 0.85642 0.0
C2373 C 0.24011 0.80303 0.86523 0.0
C2374 C 0.24669 0.81958 0.84851 0.0
C2375 C 0.24834 0.81094 0.82384 0.0
H2376 H 0.89193 0.51119 0.70993 0.0
H2377 H 0.96382 0.5468 0.73421 0.0
H2378 H 0.90381 0.49737 0.66954 0.0
H2379 H 0.97551 0.53333 0.69396 0.0
H2380 H 0.99448 0.49259 0.62547 0.0
H2381 H 0.97999 0.49646 0.66624 0.0
H2382 H 0.91735 0.5179 0.6347 0.0
H2383 H 0.93152 0.51365 0.59416 0.0
C2384 C 0.91022 0.51608 0.70665 0.0
C2385 C 0.9269 0.53023 0.72518 0.0
C2386 C 0.91702 0.50813 0.68358 0.0
C2387 C 0.94062 0.51414 0.67867 0.0
C2388 C 0.95729 0.52801 0.69733 0.0
C2389 C 0.95051 0.53598 0.72031 0.0
C2390 C 0.9774 0.49761 0.62721 0.0
C2391 C 0.96428 0.50316 0.60674 0.0
C2392 C 0.96919 0.49998 0.65053 0.0
C2393 C 0.94768 0.50777 0.65367 0.0
C2394 C 0.93391 0.51173 0.63287 0.0
C2395 C 0.94214 0.50947 0.60966 0.0
H2396 H 0.31084 0.21893 0.46097 0.0
H2397 H 0.25941 0.15494 0.42885 0.0
H2398 H 0.30234 0.23948 0.42544 0.0
H2399 H 0.25191 0.17462 0.39277 0.0
H2400 H 0.23134 0.21813 0.33475 0.0
H2401 H 0.23597 0.20352 0.3745 0.0
H2402 H 0.30899 0.24004 0.38447 0.0
H2403 H 0.30363 0.25597 0.3453 0.0
C2404 C 0.29764 0.20929 0.44634 0.0
C2405 C 0.28579 0.1853 0.44778 0.0
C2406 C 0.29291 0.22097 0.42578 0.0
C2407 C 0.27655 0.20877 0.40587 0.0
C2408 C 0.2643 0.18497 0.40775 0.0
C2409 C 0.26867 0.17353 0.4285 0.0
C2410 C 0.24831 0.22319 0.3456 0.0
C2411 C 0.26719 0.23802 0.33688 0.0
C2412 C 0.25107 0.21465 0.36838 0.0
C2413 C 0.27299 0.22014 0.3828 0.0
C2414 C 0.29173 0.23558 0.37423 0.0
C2415 C 0.28877 0.24464 0.35166 0.0
H2416 H 0.32419 0.56542 0.54211 0.0
H2417 H 0.34892 0.60047 0.48061 0.0
H2418 H 0.35628 0.54243 0.54126 0.0
H2419 H 0.37987 0.57635 0.4784 0.0
H2420 H 0.44735 0.54917 0.4964 0.0
H2421 H 0.41522 0.57148 0.49621 0.0
H2422 H 0.37058 0.51018 0.52072 0.0
H2423 H 0.40364 0.48852 0.52257 0.0
C2424 C 0.33651 0.56814 0.52839 0.0
C2425 C 0.33424 0.58487 0.5116 0.0
C2426 C 0.35474 0.5547 0.52762 0.0
C2427 C 0.37075 0.55727 0.50963 0.0
C2428 C 0.36833 0.57413 0.49287 0.0
C2429 C 0.3505 0.58798 0.49407 0.0
C2430 C 0.43057 0.54023 0.50138 0.0
C2431 C 0.42803 0.51703 0.50951 0.0
C2432 C 0.412 0.55307 0.50122 0.0
C2433 C 0.39013 0.54283 0.5086 0.0
C2434 C 0.38727 0.51902 0.51553 0.0
C2435 C 0.4061 0.50639 0.51626 0.0
H2436 H 0.8654 0.90144 0.56551 0.0
H2437 H 0.83754 0.96347 0.54355 0.0
H2438 H 0.9048 0.92127 0.55836 0.0
H2439 H 0.87702 0.98335 0.53667 0.0
H2440 H 0.95624 0.02051 0.55337 0.0
H2441 H 0.91672 0.00151 0.56173 0.0
H2442 H 0.92493 0.93268 0.52095 0.0
H2443 H 0.96399 0.95146 0.5124 0.0
C2444 C 0.86762 0.91922 0.55907 0.0
C2445 C 0.84827 0.93074 0.55488 0.0
C2446 C 0.8902 0.93059 0.555 0.0
C2447 C 0.89396 0.95386 0.54698 0.0
C2448 C 0.87467 0.96552 0.54307 0.0
C2449 C 0.85205 0.95402 0.54683 0.0
C2450 C 0.94957 0.00134 0.54621 0.0
C2451 C 0.96329 0.98752 0.53228 0.0
C2452 C 0.92695 0.99051 0.55091 0.0
C2453 C 0.91783 0.96559 0.54207 0.0
C2454 C 0.9316 0.95182 0.52823 0.0
C2455 C 0.95396 0.96269 0.52324 0.0
H2456 H 0.82329 0.07718 0.29848 0.0
H2457 H 0.8473 0.07074 0.22566 0.0
H2458 H 0.80248 0.1091 0.28822 0.0
H2459 H 0.82538 0.10226 0.21491 0.0
H2460 H 0.81634 0.18347 0.22131 0.0
H2461 H 0.82995 0.14528 0.22484 0.0
H2462 H 0.77149 0.12171 0.2661 0.0
H2463 H 0.75842 0.16077 0.26349 0.0
C2464 C 0.82377 0.08221 0.28003 0.0
C2465 C 0.83732 0.07157 0.26301 0.0
C2466 C 0.81155 0.10047 0.27405 0.0
C2467 C 0.81228 0.10848 0.25076 0.0
C2468 C 0.82478 0.0969 0.23321 0.0
C2469 C 0.83726 0.07872 0.2393 0.0
C2470 C 0.8062 0.17009 0.23096 0.0
C2471 C 0.78647 0.17534 0.24246 0.0
C2472 C 0.81392 0.14796 0.23277 0.0
C2473 C 0.80197 0.13034 0.2459 0.0
C2474 C 0.78143 0.13505 0.25626 0.0
C2475 C 0.77384 0.15738 0.25468 0.0
H2476 H 0.71549 0.12805 0.0518 0.0
H2477 H 0.70535 0.05671 0.00733 0.0
H2478 H 0.67488 0.11929 0.0618 0.0
H2479 H 0.6647 0.04834 0.0164 0.0
H2480 H 0.59522 0.03115 0.04287 0.0
H2481 H 0.63808 0.03983 0.04601 0.0
H2482 H 0.63689 0.11653 0.04119 0.0
H2483 H 0.59421 0.10797 0.03923 0.0
C2484 C 0.70459 0.11049 0.04419 0.0
C2485 C 0.71354 0.09313 0.02863 0.0
C2486 C 0.68131 0.10549 0.04987 0.0
C2487 C 0.66645 0.08313 0.03989 0.0
C2488 C 0.67569 0.06556 0.02485 0.0
C2489 C 0.69899 0.07045 0.01941 0.0
C2490 C 0.60421 0.04995 0.04311 0.0
C2491 C 0.59141 0.06883 0.04049 0.0
C2492 C 0.62874 0.05492 0.0447 0.0
C2493 C 0.64095 0.07877 0.04327 0.0
C2494 C 0.62815 0.09796 0.04249 0.0
C2495 C 0.60361 0.09305 0.04128 0.0
H2496 H 0.20199 0.45705 0.34057 0.0
H2497 H 0.199 0.4635 0.26271 0.0
H2498 H 0.22373 0.42367 0.33397 0.0
H2499 H 0.22177 0.43085 0.25624 0.0
H2500 H 0.21677 0.347 0.24955 0.0
H2501 H 0.20869 0.38821 0.25553 0.0
H2502 H 0.25647 0.40522 0.32248 0.0
H2503 H 0.26407 0.36305 0.31676 0.0
C2504 C 0.20668 0.45191 0.32217 0.0
C2505 C 0.19829 0.46248 0.30204 0.0
C2506 C 0.2193 0.43281 0.31839 0.0
C2507 C 0.22404 0.42415 0.29446 0.0
C2508 C 0.2178 0.43657 0.2748 0.0
C2509 C 0.20484 0.45536 0.27851 0.0
C2510 C 0.22579 0.35952 0.26547 0.0
C2511 C 0.24079 0.35163 0.2829 0.0
C2512 C 0.22138 0.38339 0.26874 0.0
C2513 C 0.23194 0.40017 0.28949 0.0
C2514 C 0.24787 0.39267 0.30641 0.0
C2515 C 0.2523 0.36859 0.30311 0.0
H2516 H 0.19982 0.39242 0.031 0.0
H2517 H 0.2312 0.46964 0.04683 0.0
H2518 H 0.1614 0.40332 0.02189 0.0
H2519 H 0.19281 0.48049 0.03826 0.0
H2520 H 0.12221 0.49255 0.00406 0.0
H2521 H 0.16081 0.48026 0.00632 0.0
H2522 H 0.13357 0.42071 0.04588 0.0
H2523 H 0.09533 0.43258 0.04329 0.0
C2524 C 0.19854 0.4117 0.03251 0.0
C2525 C 0.21856 0.43013 0.03984 0.0
C2526 C 0.17651 0.41797 0.02735 0.0
C2527 C 0.17399 0.4428 0.02945 0.0
C2528 C 0.19414 0.46121 0.03616 0.0
C2529 C 0.21614 0.45495 0.04129 0.0
C2530 C 0.12448 0.47672 0.01301 0.0
C2531 C 0.10573 0.46365 0.02359 0.0
C2532 C 0.14659 0.46974 0.01443 0.0
C2533 C 0.15029 0.44948 0.02629 0.0
C2534 C 0.13132 0.43616 0.0363 0.0
C2535 C 0.10938 0.44315 0.03499 0.0
H2536 H 0.86167 0.94164 0.24204 0.0
H2537 H 0.81063 0.96292 0.28968 0.0
H2538 H 0.83979 0.89919 0.23556 0.0
H2539 H 0.7891 0.92079 0.28347 0.0
H2540 H 0.74808 0.84392 0.25995 0.0
H2541 H 0.76569 0.88607 0.25484 0.0
H2542 H 0.83496 0.86792 0.26389 0.0
H2543 H 0.81756 0.8261 0.26875 0.0
C2544 C 0.84557 0.93739 0.25071 0.0
C2545 C 0.83807 0.95557 0.26663 0.0
C2546 C 0.83312 0.91307 0.24714 0.0
C2547 C 0.81282 0.90657 0.25919 0.0
C2548 C 0.80454 0.92515 0.27376 0.0
C2549 C 0.81704 0.9493 0.27749 0.0
C2550 C 0.76704 0.8489 0.26056 0.0
C2551 C 0.78139 0.83171 0.26504 0.0
C2552 C 0.77712 0.87302 0.25767 0.0
C2553 C 0.80174 0.88035 0.25895 0.0
C2554 C 0.81596 0.86285 0.26245 0.0
C2555 C 0.80594 0.83889 0.26552 0.0
H2556 H 0.70866 0.07675 0.8133 0.0
H2557 H 0.64914 0.06366 0.75775 0.0
H2558 H 0.71999 0.11839 0.80351 0.0
H2559 H 0.6605 0.10561 0.74804 0.0
H2560 H 0.66876 0.19117 0.77836 0.0
H2561 H 0.65983 0.14637 0.77486 0.0
H2562 H 0.73333 0.14383 0.77008 0.0
H2563 H 0.74234 0.18869 0.77352 0.0
C2564 C 0.69823 0.08264 0.79869 0.0
C2565 C 0.67789 0.06705 0.78646 0.0
C2566 C 0.70483 0.10642 0.79295 0.0
C2567 C 0.69107 0.11522 0.77507 0.0
C2568 C 0.67134 0.09927 0.76197 0.0
C2569 C 0.66492 0.07527 0.76746 0.0
C2570 C 0.68294 0.18104 0.77605 0.0
C2571 C 0.70627 0.19345 0.77654 0.0
C2572 C 0.6778 0.15538 0.77386 0.0
C2573 C 0.69593 0.14169 0.77236 0.0
C2574 C 0.71907 0.154 0.77139 0.0
C2575 C 0.72418 0.17965 0.77329 0.0
loop_
_geom_bond_atom_site_label_1
_geom_bond_atom_site_label_2
_geom_bond_distance
_geom_bond_site_symmetry_2
_ccdc_geom_bond_type
Mg0 O1 2.028 . S
Mg0 O7 1.986 . S
Mg0 O9 2.107 1_455 S
Mg0 O10 2.251 1_455 S
Mg0 O13 2.010 . S
O1 Mg0 2.028 . S
O1 C4 1.250 . S
O2 Mg3 2.028 1_455 S
O2 C4 1.248 . S
Mg3 O2 2.028 1_655 S
Mg3 O8 2.032 . S
Mg3 O10 2.079 . S
C4 O1 1.250 . S
C4 O2 1.248 . S
C5 O6 1.264 . S
C5 O13 1.249 . S
O6 C5 1.264 . S
O7 Mg0 1.986 . S
O7 C11 1.246 . S
O8 Mg3 2.032 . S
O8 C11 1.259 1_655 S
O9 Mg0 2.107 1_655 S
O9 C12 1.262 . S
O10 Mg0 2.251 1_655 S
O10 Mg3 2.079 . S
O10 C12 1.273 . S
C11 O7 1.246 . S
C11 O8 1.259 1_455 S
C12 O9 1.262 . S
C12 O10 1.273 . S
O13 Mg0 2.010 . S
O13 C5 1.249 . S
Mg14 O15 2.028 . S
Mg14 O21 1.986 . S
Mg14 O23 2.114 1_455 S
Mg14 O24 2.251 1_455 S
Mg14 O27 2.010 . S
O15 Mg14 2.028 . S
O15 C18 1.250 1_455 S
O16 Mg17 2.028 . S
O16 C18 1.248 . S
Mg17 O16 2.028 . S
Mg17 O22 2.032 . S
Mg17 O24 2.079 . S
C18 O15 1.250 1_655 S
C18 O16 1.248 . S
C19 O20 1.264 . S
C19 O27 1.249 . S
O20 C19 1.264 . S
O21 Mg14 1.986 . S
O21 C25 1.246 . S
O22 Mg17 2.032 . S
O22 C25 1.259 1_655 S
O23 Mg14 2.114 1_655 S
O23 C26 1.252 . S
O24 Mg14 2.251 1_655 S
O24 Mg17 2.079 . S
O24 C26 1.273 . S
C25 O21 1.246 . S
C25 O22 1.259 1_455 S
C26 O23 1.252 . S
C26 O24 1.273 . S
O27 Mg14 2.010 . S
O27 C19 1.249 . S
Mg28 O29 2.028 . S
Mg28 O35 1.986 . S
Mg28 O37 2.114 . S
Mg28 O38 2.251 . S
Mg28 O41 2.010 . S
O29 Mg28 2.028 . S
O29 C32 1.250 . S
O30 Mg31 2.028 . S
O30 C32 1.248 . S
Mg31 O30 2.028 . S
Mg31 O36 2.032 . S
Mg31 O38 2.079 . S
C32 O29 1.250 . S
C32 O30 1.248 . S
C33 O34 1.264 . S
C33 O41 1.249 . S
O34 C33 1.264 . S
O35 Mg28 1.986 . S
O35 C39 1.246 . S
O36 Mg31 2.032 . S
O36 C39 1.259 . S
O37 Mg28 2.114 . S
O37 C40 1.252 . S
O38 Mg28 2.251 . S
O38 Mg31 2.079 . S
O38 C40 1.273 . S
C39 O35 1.246 . S
C39 O36 1.259 . S
C40 O37 1.252 . S
C40 O38 1.273 . S
O41 Mg28 2.010 . S
O41 C33 1.249 . S
Mg42 O43 2.028 . S
Mg42 O49 1.986 . S
Mg42 O51 2.114 . S
Mg42 O52 2.251 . S
Mg42 O55 2.010 . S
O43 Mg42 2.028 . S
O43 C46 1.250 . S
O44 Mg45 2.028 . S
O44 C46 1.248 . S
Mg45 O44 2.028 . S
Mg45 O50 2.032 . S
Mg45 O52 2.079 . S
C46 O43 1.250 . S
C46 O44 1.248 . S
C47 O48 1.264 . S
C47 O55 1.249 . S
O48 C47 1.264 . S
O49 Mg42 1.986 . S
O49 C53 1.246 . S
O50 Mg45 2.032 . S
O50 C53 1.259 . S
O51 Mg42 2.114 . S
O51 C54 1.252 . S
O52 Mg42 2.251 . S
O52 Mg45 2.079 . S
O52 C54 1.273 . S
C53 O49 1.246 . S
C53 O50 1.259 . S
C54 O51 1.252 . S
C54 O52 1.273 . S
O55 Mg42 2.010 . S
O55 C47 1.249 . S
Mg56 O57 2.028 . S
Mg56 O63 1.986 . S
Mg56 O65 2.114 . S
Mg56 O66 2.251 1_455 S
Mg56 O69 2.010 . S
O57 Mg56 2.028 . S
O57 C60 1.250 . S
O58 Mg59 2.028 1_455 S
O58 C60 1.248 . S
Mg59 O58 2.028 1_655 S
Mg59 O64 2.032 1_655 S
Mg59 O66 2.079 . S
C60 O57 1.250 . S
C60 O58 1.248 . S
C61 O62 1.264 . S
C61 O69 1.249 . S
O62 C61 1.264 . S
O63 Mg56 1.986 . S
O63 C67 1.246 . S
O64 Mg59 2.032 1_455 S
O64 C67 1.259 . S
O65 Mg56 2.114 . S
O65 C68 1.252 1_455 S
O66 Mg56 2.251 1_655 S
O66 Mg59 2.079 . S
O66 C68 1.273 . S
C67 O63 1.246 . S
C67 O64 1.259 . S
C68 O65 1.252 1_655 S
C68 O66 1.273 . S
O69 Mg56 2.010 . S
O69 C61 1.249 . S
Mg70 O71 2.028 . S
Mg70 O77 1.986 . S
Mg70 O79 2.114 . S
Mg70 O80 2.251 . S
Mg70 O83 2.010 . S
O71 Mg70 2.028 . S
O71 C74 1.250 . S
O72 Mg73 2.028 . S
O72 C74 1.248 . S
Mg73 O72 2.028 . S
Mg73 O78 2.032 . S
Mg73 O80 2.079 . S
C74 O71 1.250 . S
C74 O72 1.248 . S
C75 O76 1.264 . S
C75 O83 1.249 . S
O76 C75 1.264 . S
O77 Mg70 1.986 . S
O77 C81 1.246 . S
O78 Mg73 2.032 . S
O78 C81 1.259 . S
O79 Mg70 2.114 . S
O79 C82 1.252 . S
O80 Mg70 2.251 . S
O80 Mg73 2.079 . S
O80 C82 1.273 . S
C81 O77 1.246 . S
C81 O78 1.259 . S
C82 O79 1.252 . S
C82 O80 1.273 . S
O83 Mg70 2.010 . S
O83 C75 1.249 . S
Mg84 O85 2.028 . S
Mg84 O91 1.986 . S
Mg84 O93 2.114 . S
Mg84 O94 2.251 . S
Mg84 O97 2.010 . S
O85 Mg84 2.028 . S
O85 C88 1.250 . S
O86 Mg87 2.028 . S
O86 C88 1.248 . S
Mg87 O86 2.028 . S
Mg87 O92 2.032 . S
Mg87 O94 2.079 . S
C88 O85 1.250 . S
C88 O86 1.248 . S
C89 O90 1.264 . S
C89 O97 1.249 . S
O90 C89 1.264 . S
O91 Mg84 1.986 . S
O91 C95 1.246 . S
O92 Mg87 2.032 . S
O92 C95 1.259 . S
O93 Mg84 2.114 . S
O93 C96 1.252 . S
O94 Mg84 2.251 . S
O94 Mg87 2.079 . S
O94 C96 1.273 . S
C95 O91 1.246 . S
C95 O92 1.259 . S
C96 O93 1.252 . S
C96 O94 1.273 . S
O97 Mg84 2.010 . S
O97 C89 1.249 . S
Mg98 O99 2.028 1_655 S
Mg98 O105 1.986 1_655 S
Mg98 O107 2.114 . S
Mg98 O108 2.251 . S
Mg98 O111 2.010 1_655 S
O99 Mg98 2.028 1_455 S
O99 C102 1.250 1_455 S
O100 Mg101 2.028 . S
O100 C102 1.248 . S
Mg101 O100 2.028 . S
Mg101 O106 2.032 . S
Mg101 O108 2.079 . S
C102 O99 1.250 1_655 S
C102 O100 1.248 . S
C103 O104 1.264 . S
C103 O111 1.249 . S
O104 C103 1.264 . S
O105 Mg98 1.986 1_455 S
O105 C109 1.246 1_455 S
O106 Mg101 2.032 . S
O106 C109 1.259 . S
O107 Mg98 2.114 . S
O107 C110 1.252 . S
O108 Mg98 2.251 . S
O108 Mg101 2.079 . S
O108 C110 1.273 . S
C109 O105 1.246 1_655 S
C109 O106 1.259 . S
C110 O107 1.252 . S
C110 O108 1.273 . S
O111 Mg98 2.010 1_455 S
O111 C103 1.249 . S
Mg112 O113 2.028 . S
Mg112 O119 1.986 . S
Mg112 O121 2.114 . S
Mg112 O122 2.251 . S
Mg112 O125 2.010 . S
O113 Mg112 2.028 . S
O113 C116 1.250 1_545 S
O114 Mg115 2.028 1_565 S
O114 C116 1.248 . S
Mg115 O114 2.028 1_545 S
Mg115 O120 2.032 . S
Mg115 O122 2.079 . S
C116 O113 1.250 1_565 S
C116 O114 1.248 . S
C117 O118 1.264 . S
C117 O125 1.249 . S
O118 C117 1.264 . S
O119 Mg112 1.986 . S
O119 C123 1.246 . S
O120 Mg115 2.032 . S
O120 C123 1.259 . S
O121 Mg112 2.114 . S
O121 C124 1.252 . S
O122 Mg112 2.251 . S
O122 Mg115 2.079 . S
O122 C124 1.273 . S
C123 O119 1.246 . S
C123 O120 1.259 . S
C124 O121 1.252 . S
C124 O122 1.273 . S
O125 Mg112 2.010 . S
O125 C117 1.249 . S
Mg126 O127 2.028 . S
Mg126 O133 1.986 . S
Mg126 O135 2.114 . S
Mg126 O136 2.251 . S
Mg126 O139 2.010 . S
O127 Mg126 2.028 . S
O127 C130 1.250 . S
O128 Mg129 2.028 . S
O128 C130 1.248 . S
Mg129 O128 2.028 . S
Mg129 O134 2.032 . S
Mg129 O136 2.079 . S
C130 O127 1.250 . S
C130 O128 1.248 . S
C131 O132 1.264 . S
C131 O139 1.249 . S
O132 C131 1.264 . S
O133 Mg126 1.986 . S
O133 C137 1.246 . S
O134 Mg129 2.032 . S
O134 C137 1.259 . S
O135 Mg126 2.114 . S
O135 C138 1.252 . S
O136 Mg126 2.251 . S
O136 Mg129 2.079 . S
O136 C138 1.273 . S
C137 O133 1.246 . S
C137 O134 1.259 . S
C138 O135 1.252 . S
C138 O136 1.273 . S
O139 Mg126 2.010 . S
O139 C131 1.249 . S
Mg140 O141 2.028 . S
Mg140 O147 1.986 1_545 S
Mg140 O149 2.114 . S
Mg140 O150 2.251 . S
Mg140 O153 2.010 1_545 S
O141 Mg140 2.028 . S
O141 C144 1.250 . S
O142 Mg143 2.028 . S
O142 C144 1.248 . S
Mg143 O142 2.028 . S
Mg143 O148 2.032 1_545 S
Mg143 O150 2.079 . S
C144 O141 1.250 . S
C144 O142 1.248 . S
C145 O146 1.264 . S
C145 O153 1.249 . S
O146 C145 1.264 . S
O147 Mg140 1.986 1_565 S
O147 C151 1.246 . S
O148 Mg143 2.032 1_565 S
O148 C151 1.259 . S
O149 Mg140 2.114 . S
O149 C152 1.252 . S
O150 Mg140 2.251 . S
O150 Mg143 2.079 . S
O150 C152 1.273 . S
C151 O147 1.246 . S
C151 O148 1.259 . S
C152 O149 1.252 . S
C152 O150 1.273 . S
O153 Mg140 2.010 1_565 S
O153 C145 1.249 . S
Mg154 O155 2.028 1_554 S
Mg154 O161 1.986 . S
Mg154 O163 2.114 . S
Mg154 O164 2.251 . S
Mg154 O167 2.010 . S
O155 Mg154 2.028 1_556 S
O155 C158 1.250 . S
O156 Mg157 2.028 1_556 S
O156 C158 1.248 . S
Mg157 O156 2.028 1_554 S
Mg157 O162 2.032 . S
Mg157 O164 2.079 . S
C158 O155 1.250 . S
C158 O156 1.248 . S
C159 O160 1.264 . S
C159 O167 1.249 . S
O160 C159 1.264 . S
O161 Mg154 1.986 . S
O161 C165 1.246 . S
O162 Mg157 2.032 . S
O162 C165 1.259 . S
O163 Mg154 2.114 . S
O163 C166 1.252 . S
O164 Mg154 2.251 . S
O164 Mg157 2.079 . S
O164 C166 1.273 . S
C165 O161 1.246 . S
C165 O162 1.259 . S
C166 O163 1.252 . S
C166 O164 1.273 . S
O167 Mg154 2.010 . S
O167 C159 1.249 . S
Mg168 O169 2.028 . S
Mg168 O175 1.986 . S
Mg168 O177 2.114 . S
Mg168 O178 2.251 . S
Mg168 O181 2.010 . S
O169 Mg168 2.028 . S
O169 C172 1.250 . S
O170 Mg171 2.028 . S
O170 C172 1.248 . S
Mg171 O170 2.028 . S
Mg171 O176 2.032 . S
Mg171 O178 2.079 . S
C172 O169 1.250 . S
C172 O170 1.248 . S
C173 O174 1.264 . S
C173 O181 1.249 . S
O174 C173 1.264 . S
O175 Mg168 1.986 . S
O175 C179 1.246 . S
O176 Mg171 2.032 . S
O176 C179 1.259 . S
O177 Mg168 2.114 . S
O177 C180 1.252 . S
O178 Mg168 2.251 . S
O178 Mg171 2.079 . S
O178 C180 1.273 . S
C179 O175 1.246 . S
C179 O176 1.259 . S
C180 O177 1.252 . S
C180 O178 1.273 . S
O181 Mg168 2.010 . S
O181 C173 1.249 . S
Mg182 O183 2.028 . S
Mg182 O189 1.986 1_554 S
Mg182 O191 2.114 . S
Mg182 O192 2.251 . S
Mg182 O195 2.010 . S
O183 Mg182 2.028 . S
O183 C186 1.250 . S
O184 Mg185 2.028 . S
O184 C186 1.248 . S
Mg185 O184 2.028 . S
Mg185 O190 2.032 . S
Mg185 O192 2.079 . S
C186 O183 1.250 . S
C186 O184 1.248 . S
C187 O188 1.264 . S
C187 O195 1.249 . S
O188 C187 1.264 . S
O189 Mg182 1.986 1_556 S
O189 C193 1.246 . S
O190 Mg185 2.032 . S
O190 C193 1.259 1_554 S
O191 Mg182 2.114 . S
O191 C194 1.252 . S
O192 Mg182 2.251 . S
O192 Mg185 2.079 . S
O192 C194 1.273 . S
C193 O189 1.246 . S
C193 O190 1.259 1_556 S
C194 O191 1.252 . S
C194 O192 1.273 . S
O195 Mg182 2.010 . S
O195 C187 1.249 . S
Mg196 O197 2.028 . S
Mg196 O203 1.986 . S
Mg196 O205 2.114 . S
Mg196 O206 2.251 . S
Mg196 O209 2.010 . S
O197 Mg196 2.028 . S
O197 C200 1.250 . S
O198 Mg199 2.028 . S
O198 C200 1.248 . S
Mg199 O198 2.028 . S
Mg199 O204 2.032 . S
Mg199 O206 2.079 . S
C200 O197 1.250 . S
C200 O198 1.248 . S
C201 O202 1.264 . S
C201 O209 1.249 . S
O202 C201 1.264 . S
O203 Mg196 1.986 . S
O203 C207 1.246 . S
O204 Mg199 2.032 . S
O204 C207 1.259 . S
O205 Mg196 2.114 . S
O205 C208 1.252 . S
O206 Mg196 2.251 . S
O206 Mg199 2.079 . S
O206 C208 1.273 . S
C207 O203 1.246 . S
C207 O204 1.259 . S
C208 O205 1.252 . S
C208 O206 1.273 . S
O209 Mg196 2.010 . S
O209 C201 1.249 . S
Mg210 O211 2.028 . S
Mg210 O217 1.986 . S
Mg210 O219 2.114 . S
Mg210 O220 2.251 . S
Mg210 O223 2.010 . S
O211 Mg210 2.028 . S
O211 C214 1.250 . S
O212 Mg213 2.028 . S
O212 C214 1.248 . S
Mg213 O212 2.028 . S
Mg213 O218 2.032 . S
Mg213 O220 2.079 . S
C214 O211 1.250 . S
C214 O212 1.248 . S
C215 O216 1.264 . S
C215 O223 1.249 . S
O216 C215 1.264 . S
O217 Mg210 1.986 . S
O217 C221 1.246 . S
O218 Mg213 2.032 . S
O218 C221 1.259 . S
O219 Mg210 2.114 . S
O219 C222 1.252 . S
O220 Mg210 2.251 . S
O220 Mg213 2.079 . S
O220 C222 1.273 . S
C221 O217 1.246 . S
C221 O218 1.259 . S
C222 O219 1.252 . S
C222 O220 1.273 . S
O223 Mg210 2.010 . S
O223 C215 1.249 . S
Mg224 O225 2.028 1_545 S
Mg224 O231 1.986 . S
Mg224 O233 2.114 . S
Mg224 O234 2.251 . S
Mg224 O237 2.010 . S
O225 Mg224 2.028 1_565 S
O225 C228 1.250 . S
O226 Mg227 2.028 1_565 S
O226 C228 1.248 . S
Mg227 O226 2.028 1_545 S
Mg227 O232 2.032 . S
Mg227 O234 2.079 . S
C228 O225 1.250 . S
C228 O226 1.248 . S
C229 O230 1.264 . S
C229 O237 1.249 . S
O230 C229 1.264 . S
O231 Mg224 1.986 . S
O231 C235 1.246 . S
O232 Mg227 2.032 . S
O232 C235 1.259 . S
O233 Mg224 2.114 . S
O233 C236 1.252 . S
O234 Mg224 2.251 . S
O234 Mg227 2.079 . S
O234 C236 1.273 . S
C235 O231 1.246 . S
C235 O232 1.259 . S
C236 O233 1.252 . S
C236 O234 1.273 . S
O237 Mg224 2.010 . S
O237 C229 1.249 . S
Mg238 O239 2.028 . S
Mg238 O245 1.986 . S
Mg238 O247 2.114 . S
Mg238 O248 2.251 . S
Mg238 O251 2.010 . S
O239 Mg238 2.028 . S
O239 C242 1.250 . S
O240 Mg241 2.028 . S
O240 C242 1.248 . S
Mg241 O240 2.028 . S
Mg241 O246 2.032 . S
Mg241 O248 2.079 . S
C242 O239 1.250 . S
C242 O240 1.248 . S
C243 O244 1.264 . S
C243 O251 1.249 . S
O244 C243 1.264 . S
O245 Mg238 1.986 . S
O245 C249 1.246 . S
O246 Mg241 2.032 . S
O246 C249 1.259 . S
O247 Mg238 2.114 . S
O247 C250 1.252 . S
O248 Mg238 2.251 . S
O248 Mg241 2.079 . S
O248 C250 1.273 . S
C249 O245 1.246 . S
C249 O246 1.259 . S
C250 O247 1.252 . S
C250 O248 1.273 . S
O251 Mg238 2.010 . S
O251 C243 1.249 . S
Mg252 O253 2.028 . S
Mg252 O259 1.986 . S
Mg252 O261 2.114 . S
Mg252 O262 2.251 . S
Mg252 O265 2.010 . S
O253 Mg252 2.028 . S
O253 C256 1.250 . S
O254 Mg255 2.028 . S
O254 C256 1.248 . S
Mg255 O254 2.028 . S
Mg255 O260 2.032 . S
Mg255 O262 2.079 . S
C256 O253 1.250 . S
C256 O254 1.248 . S
C257 O258 1.264 . S
C257 O265 1.249 . S
O258 C257 1.264 . S
O259 Mg252 1.986 . S
O259 C263 1.246 . S
O260 Mg255 2.032 . S
O260 C263 1.259 . S
O261 Mg252 2.114 . S
O261 C264 1.252 . S
O262 Mg252 2.251 . S
O262 Mg255 2.079 . S
O262 C264 1.273 . S
C263 O259 1.246 . S
C263 O260 1.259 . S
C264 O261 1.252 . S
C264 O262 1.273 . S
O265 Mg252 2.010 . S
O265 C257 1.249 . S
Mg266 O267 2.028 1_565 S
Mg266 O273 1.986 . S
Mg266 O275 2.114 1_565 S
Mg266 O276 2.251 . S
Mg266 O279 2.010 . S
O267 Mg266 2.028 1_545 S
O267 C270 1.250 . S
O268 Mg269 2.028 . S
O268 C270 1.248 . S
Mg269 O268 2.028 . S
Mg269 O274 2.032 1_545 S
Mg269 O276 2.079 1_545 S
C270 O267 1.250 . S
C270 O268 1.248 . S
C271 O272 1.264 . S
C271 O279 1.249 . S
O272 C271 1.264 . S
O273 Mg266 1.986 . S
O273 C277 1.246 . S
O274 Mg269 2.032 1_565 S
O274 C277 1.259 . S
O275 Mg266 2.114 1_545 S
O275 C278 1.252 . S
O276 Mg266 2.251 . S
O276 Mg269 2.079 1_565 S
O276 C278 1.273 1_565 S
C277 O273 1.246 . S
C277 O274 1.259 . S
C278 O275 1.252 . S
C278 O276 1.273 1_545 S
O279 Mg266 2.010 . S
O279 C271 1.249 . S
Mg280 O281 2.028 1_556 S
Mg280 O287 1.986 . S
Mg280 O289 2.114 1_556 S
Mg280 O290 2.251 . S
Mg280 O293 2.010 . S
O281 Mg280 2.028 1_554 S
O281 C284 1.250 . S
O282 Mg283 2.028 . S
O282 C284 1.248 . S
Mg283 O282 2.028 . S
Mg283 O288 2.032 1_554 S
Mg283 O290 2.079 1_554 S
C284 O281 1.250 . S
C284 O282 1.248 . S
C285 O286 1.264 . S
C285 O293 1.249 . S
O286 C285 1.264 . S
O287 Mg280 1.986 . S
O287 C291 1.246 . S
O288 Mg283 2.032 1_556 S
O288 C291 1.259 . S
O289 Mg280 2.114 1_554 S
O289 C292 1.252 . S
O290 Mg280 2.251 . S
O290 Mg283 2.079 1_556 S
O290 C292 1.273 1_556 S
C291 O287 1.246 . S
C291 O288 1.259 . S
C292 O289 1.252 . S
C292 O290 1.273 1_554 S
O293 Mg280 2.010 . S
O293 C285 1.249 . S
Mg294 O295 2.028 . S
Mg294 O301 1.986 . S
Mg294 O303 2.114 . S
Mg294 O304 2.251 . S
Mg294 O307 2.010 . S
O295 Mg294 2.028 . S
O295 C298 1.250 . S
O296 Mg297 2.028 . S
O296 C298 1.248 . S
Mg297 O296 2.028 . S
Mg297 O302 2.032 . S
Mg297 O304 2.079 . S
C298 O295 1.250 . S
C298 O296 1.248 . S
C299 O300 1.264 . S
C299 O307 1.249 . S
O300 C299 1.264 . S
O301 Mg294 1.986 . S
O301 C305 1.246 . S
O302 Mg297 2.032 . S
O302 C305 1.259 . S
O303 Mg294 2.114 . S
O303 C306 1.252 . S
O304 Mg294 2.251 . S
O304 Mg297 2.079 . S
O304 C306 1.273 . S
C305 O301 1.246 . S
C305 O302 1.259 . S
C306 O303 1.252 . S
C306 O304 1.273 . S
O307 Mg294 2.010 . S
O307 C299 1.249 . S
Mg308 O309 2.028 . S
Mg308 O315 1.986 . S
Mg308 O317 2.114 . S
Mg308 O318 2.251 . S
Mg308 O321 2.010 . S
O309 Mg308 2.028 . S
O309 C312 1.250 . S
O310 Mg311 2.028 . S
O310 C312 1.248 . S
Mg311 O310 2.028 . S
Mg311 O316 2.032 . S
Mg311 O318 2.079 . S
C312 O309 1.250 . S
C312 O310 1.248 . S
C313 O314 1.264 . S
C313 O321 1.249 . S
O314 C313 1.264 . S
O315 Mg308 1.986 . S
O315 C319 1.246 . S
O316 Mg311 2.032 . S
O316 C319 1.259 . S
O317 Mg308 2.114 . S
O317 C320 1.252 . S
O318 Mg308 2.251 . S
O318 Mg311 2.079 . S
O318 C320 1.273 . S
C319 O315 1.246 . S
C319 O316 1.259 . S
C320 O317 1.252 . S
C320 O318 1.273 . S
O321 Mg308 2.010 . S
O321 C313 1.249 . S
Mg322 O323 2.028 . S
Mg322 O329 1.986 . S
Mg322 O331 2.114 . S
Mg322 O332 2.251 . S
Mg322 O335 2.010 . S
O323 Mg322 2.028 . S
O323 C326 1.250 . S
O324 Mg325 2.028 . S
O324 C326 1.248 . S
Mg325 O324 2.028 . S
Mg325 O330 2.032 . S
Mg325 O332 2.079 . S
C326 O323 1.250 . S
C326 O324 1.248 . S
C327 O328 1.264 . S
C327 O335 1.249 . S
O328 C327 1.264 . S
O329 Mg322 1.986 . S
O329 C333 1.246 . S
O330 Mg325 2.032 . S
O330 C333 1.259 . S
O331 Mg322 2.114 . S
O331 C334 1.252 . S
O332 Mg322 2.251 . S
O332 Mg325 2.079 . S
O332 C334 1.273 . S
C333 O329 1.246 . S
C333 O330 1.259 . S
C334 O331 1.252 . S
C334 O332 1.273 . S
O335 Mg322 2.010 . S
O335 C327 1.249 . S
Zn336 O342 1.969 . S
Zn336 O343 1.965 1_565 S
Zn336 O347 2.024 . S
Zn336 O352 1.969 . S
Zn337 O344 1.969 1_654 S
Zn337 O350 1.969 1_554 S
Zn337 O351 1.965 . S
Zn337 O353 2.024 1_655 S
C338 O339 1.229 . S
C338 O347 1.058 . S
O339 C338 1.229 . S
C340 O341 1.229 1_454 S
C340 O353 1.058 . S
O341 C340 1.229 1_656 S
O342 Zn336 1.969 . S
O342 C345 1.267 . S
O343 Zn336 1.965 1_545 S
O343 C354 1.260 1_554 S
O344 Zn337 1.969 1_456 S
O344 C354 1.258 . S
C345 O342 1.267 . S
C345 O346 1.228 . S
O346 C345 1.228 . S
O347 Zn336 2.024 . S
O347 C338 1.058 . S
C348 O349 1.228 . S
C348 O350 1.267 1_554 S
O349 C348 1.228 . S
O350 Zn337 1.969 1_556 S
O350 C348 1.267 1_556 S
O351 Zn337 1.965 . S
O351 C355 1.267 . S
O352 Zn336 1.969 . S
O352 C355 1.245 1_465 S
O353 Zn337 2.024 1_455 S
O353 C340 1.058 . S
C354 O343 1.260 1_556 S
C354 O344 1.258 . S
C355 O351 1.267 . S
C355 O352 1.245 1_645 S
Zn356 O362 1.969 . S
Zn356 O363 1.965 . S
Zn356 O367 2.024 . S
Zn356 O372 1.969 . S
Zn357 O364 1.969 . S
Zn357 O370 1.969 . S
Zn357 O371 1.965 . S
Zn357 O373 2.024 . S
C358 O359 1.229 . S
C358 O367 1.058 . S
O359 C358 1.229 . S
C360 O361 1.229 . S
C360 O373 1.058 . S
O361 C360 1.229 . S
O362 Zn356 1.969 . S
O362 C365 1.267 . S
O363 Zn356 1.965 . S
O363 C374 1.260 . S
O364 Zn357 1.969 . S
O364 C374 1.258 . S
C365 O362 1.267 . S
C365 O366 1.228 . S
O366 C365 1.228 . S
O367 Zn356 2.024 . S
O367 C358 1.058 . S
C368 O369 1.228 . S
C368 O370 1.267 . S
O369 C368 1.228 . S
O370 Zn357 1.969 . S
O370 C368 1.267 . S
O371 Zn357 1.965 . S
O371 C375 1.260 . S
O372 Zn356 1.969 . S
O372 C375 1.258 . S
O373 Zn357 2.024 . S
O373 C360 1.058 . S
C374 O363 1.260 . S
C374 O364 1.258 . S
C375 O371 1.260 . S
C375 O372 1.258 . S
Zn376 O382 1.969 . S
Zn376 O383 1.965 . S
Zn376 O387 2.024 . S
Zn376 O392 1.969 . S
Zn377 O384 1.993 . S
Zn377 O390 1.969 . S
Zn377 O391 1.965 1_565 S
Zn377 O393 2.024 . S
C378 O379 1.229 . S
C378 O387 1.058 . S
O379 C378 1.229 . S
C380 O381 1.229 . S
C380 O393 1.058 . S
O381 C380 1.229 . S
O382 Zn376 1.969 . S
O382 C385 1.267 . S
O383 Zn376 1.965 . S
O383 C394 1.260 . S
O384 Zn377 1.993 . S
O384 C394 1.228 1_565 S
C385 O382 1.267 . S
C385 O386 1.228 . S
O386 C385 1.228 . S
O387 Zn376 2.024 . S
O387 C378 1.058 . S
C388 O389 1.228 . S
C388 O390 1.267 . S
O389 C388 1.228 . S
O390 Zn377 1.969 . S
O390 C388 1.267 . S
O391 Zn377 1.965 1_545 S
O391 C395 1.260 . S
O392 Zn376 1.969 . S
O392 C395 1.258 . S
O393 Zn377 2.024 . S
O393 C380 1.058 . S
C394 O383 1.260 . S
C394 O384 1.228 1_545 S
C395 O391 1.260 . S
C395 O392 1.258 . S
Zn396 O402 1.969 . S
Zn396 O403 1.965 . S
Zn396 O407 2.024 . S
Zn396 O412 1.969 . S
Zn397 O404 1.969 . S
Zn397 O410 1.969 . S
Zn397 O411 1.965 . S
Zn397 O413 2.024 . S
C398 O399 1.229 . S
C398 O407 1.058 . S
O399 C398 1.229 . S
C400 O401 1.229 . S
C400 O413 1.058 . S
O401 C400 1.229 . S
O402 Zn396 1.969 . S
O402 C405 1.267 . S
O403 Zn396 1.965 . S
O403 C414 1.260 . S
O404 Zn397 1.969 . S
O404 C414 1.258 . S
C405 O402 1.267 . S
C405 O406 1.228 . S
O406 C405 1.228 . S
O407 Zn396 2.024 . S
O407 C398 1.058 . S
C408 O409 1.228 . S
C408 O410 1.267 . S
O409 C408 1.228 . S
O410 Zn397 1.969 . S
O410 C408 1.267 . S
O411 Zn397 1.965 . S
O411 C415 1.260 . S
O412 Zn396 1.969 . S
O412 C415 1.258 . S
O413 Zn397 2.024 . S
O413 C400 1.058 . S
C414 O403 1.260 . S
C414 O404 1.258 . S
C415 O411 1.260 . S
C415 O412 1.258 . S
Zn416 O422 1.969 . S
Zn416 O423 1.965 1_455 S
Zn416 O427 2.024 1_565 S
Zn416 O432 1.969 1_565 S
Zn417 O424 1.969 . S
Zn417 O430 1.969 . S
Zn417 O431 1.965 1_655 S
Zn417 O433 2.027 . S
C418 O419 1.229 1_545 S
C418 O427 1.058 . S
O419 C418 1.229 1_565 S
C420 O421 1.229 . S
C420 O433 1.068 . S
O421 C420 1.229 . S
O422 Zn416 1.969 . S
O422 C425 1.267 . S
O423 Zn416 1.965 1_655 S
O423 C434 1.260 . S
O424 Zn417 1.969 . S
O424 C434 1.258 1_545 S
C425 O422 1.267 . S
C425 O426 1.264 . S
O426 C425 1.264 . S
O427 Zn416 2.024 1_545 S
O427 C418 1.058 . S
C428 O429 1.228 . S
C428 O430 1.267 1_455 S
O429 C428 1.228 . S
O430 Zn417 1.969 . S
O430 C428 1.267 1_655 S
O431 Zn417 1.965 1_455 S
O431 C435 1.260 . S
O432 Zn416 1.969 1_545 S
O432 C435 1.258 . S
O433 Zn417 2.027 . S
O433 C420 1.068 . S
C434 O423 1.260 . S
C434 O424 1.258 1_565 S
C435 O431 1.260 . S
C435 O432 1.258 . S
Zn436 O442 1.969 . S
Zn436 O443 1.965 . S
Zn436 O447 2.024 . S
Zn436 O452 1.969 . S
Zn437 O444 1.969 . S
Zn437 O450 1.969 . S
Zn437 O451 1.965 . S
Zn437 O453 2.024 . S
C438 O439 1.229 . S
C438 O447 1.058 . S
O439 C438 1.229 . S
C440 O441 1.229 . S
C440 O453 1.058 . S
O441 C440 1.229 . S
O442 Zn436 1.969 . S
O442 C445 1.267 . S
O443 Zn436 1.965 . S
O443 C454 1.260 . S
O444 Zn437 1.969 . S
O444 C454 1.258 . S
C445 O442 1.267 . S
C445 O446 1.228 . S
O446 C445 1.228 . S
O447 Zn436 2.024 . S
O447 C438 1.058 . S
C448 O449 1.228 . S
C448 O450 1.267 . S
O449 C448 1.228 . S
O450 Zn437 1.969 . S
O450 C448 1.267 . S
O451 Zn437 1.965 . S
O451 C455 1.260 . S
O452 Zn436 1.969 . S
O452 C455 1.258 . S
O453 Zn437 2.024 . S
O453 C440 1.058 . S
C454 O443 1.260 . S
C454 O444 1.258 . S
C455 O451 1.260 . S
C455 O452 1.258 . S
Zn456 O462 1.974 . S
Zn456 O463 1.969 1_545 S
Zn456 O467 2.021 1_556 S
Zn456 O472 1.967 1_556 S
Zn457 O464 1.969 . S
Zn457 O470 1.969 . S
Zn457 O471 1.965 1_565 S
Zn457 O473 2.037 . S
C458 O459 1.229 . S
C458 O467 1.058 . S
O459 C458 1.229 . S
C460 O461 1.229 . S
C460 O473 1.094 . S
O461 C460 1.229 . S
O462 Zn456 1.974 . S
O462 C465 1.267 . S
O463 Zn456 1.969 1_565 S
O463 C474 1.238 1_556 S
O464 Zn457 1.969 . S
O464 C474 1.258 . S
C465 O462 1.267 . S
C465 O466 1.228 . S
O466 C465 1.228 . S
O467 Zn456 2.021 1_554 S
O467 C458 1.058 . S
C468 O469 1.217 1_565 S
C468 O470 1.275 . S
O469 C468 1.217 1_545 S
O470 Zn457 1.969 . S
O470 C468 1.275 . S
O471 Zn457 1.965 1_545 S
O471 C475 1.260 . S
O472 Zn456 1.967 1_554 S
O472 C475 1.258 . S
O473 Zn457 2.037 . S
O473 C460 1.094 . S
C474 O463 1.238 1_554 S
C474 O464 1.258 . S
C475 O471 1.260 . S
C475 O472 1.258 . S
Zn476 O482 1.969 . S
Zn476 O483 1.965 . S
Zn476 O487 2.024 . S
Zn476 O492 1.969 . S
Zn477 O484 1.969 . S
Zn477 O490 1.969 . S
Zn477 O491 1.965 . S
Zn477 O493 2.024 . S
C478 O479 1.229 . S
C478 O487 1.058 . S
O479 C478 1.229 . S
C480 O481 1.229 . S
C480 O493 1.058 . S
O481 C480 1.229 . S
O482 Zn476 1.969 . S
O482 C485 1.267 . S
O483 Zn476 1.965 . S
O483 C494 1.260 . S
O484 Zn477 1.969 . S
O484 C494 1.258 . S
C485 O482 1.267 . S
C485 O486 1.228 . S
O486 C485 1.228 . S
O487 Zn476 2.024 . S
O487 C478 1.058 . S
C488 O489 1.228 . S
C488 O490 1.267 . S
O489 C488 1.228 . S
O490 Zn477 1.969 . S
O490 C488 1.267 . S
O491 Zn477 1.965 . S
O491 C495 1.260 . S
O492 Zn476 1.969 . S
O492 C495 1.258 . S
O493 Zn477 2.024 . S
O493 C480 1.058 . S
C494 O483 1.260 . S
C494 O484 1.258 . S
C495 O491 1.260 . S
C495 O492 1.258 . S
Zn496 O502 1.969 . S
Zn496 O503 1.965 . S
Zn496 O507 2.024 . S
Zn496 O512 1.969 . S
Zn497 O504 1.969 1_556 S
Zn497 O510 1.969 1_556 S
Zn497 O511 1.965 1_556 S
Zn497 O513 2.024 . S
C498 O499 1.229 . S
C498 O507 1.058 . S
O499 C498 1.229 . S
C500 O501 1.229 . S
C500 O513 1.058 . S
O501 C500 1.229 . S
O502 Zn496 1.969 . S
O502 C505 1.267 . S
O503 Zn496 1.965 . S
O503 C514 1.260 . S
O504 Zn497 1.969 1_554 S
O504 C514 1.258 . S
C505 O502 1.267 . S
C505 O506 1.228 . S
O506 C505 1.228 . S
O507 Zn496 2.024 . S
O507 C498 1.058 . S
C508 O509 1.228 . S
C508 O510 1.267 1_556 S
O509 C508 1.228 . S
O510 Zn497 1.969 1_554 S
O510 C508 1.267 1_554 S
O511 Zn497 1.965 1_554 S
O511 C515 1.260 . S
O512 Zn496 1.969 . S
O512 C515 1.258 . S
O513 Zn497 2.024 . S
O513 C500 1.058 . S
C514 O503 1.260 . S
C514 O504 1.258 . S
C515 O511 1.260 . S
C515 O512 1.258 . S
Zn516 O522 1.969 . S
Zn516 O523 1.965 . S
Zn516 O527 2.024 . S
Zn516 O532 1.969 . S
Zn517 O524 1.969 . S
Zn517 O530 1.969 . S
Zn517 O531 1.965 . S
Zn517 O533 2.024 . S
C518 O519 1.229 . S
C518 O527 1.058 . S
O519 C518 1.229 . S
C520 O521 1.229 . S
C520 O533 1.058 . S
O521 C520 1.229 . S
O522 Zn516 1.969 . S
O522 C525 1.267 . S
O523 Zn516 1.965 . S
O523 C534 1.260 . S
O524 Zn517 1.969 . S
O524 C534 1.258 . S
C525 O522 1.267 . S
C525 O526 1.228 . S
O526 C525 1.228 . S
O527 Zn516 2.024 . S
O527 C518 1.058 . S
C528 O529 1.228 . S
C528 O530 1.267 . S
O529 C528 1.228 . S
O530 Zn517 1.969 . S
O530 C528 1.267 . S
O531 Zn517 1.965 . S
O531 C535 1.260 . S
O532 Zn516 1.969 . S
O532 C535 1.258 . S
O533 Zn517 2.024 . S
O533 C520 1.058 . S
C534 O523 1.260 . S
C534 O524 1.258 . S
C535 O531 1.260 . S
C535 O532 1.258 . S
Zn536 O542 1.969 . S
Zn536 O543 1.965 . S
Zn536 O547 2.024 . S
Zn536 O552 1.969 . S
Zn537 O544 1.988 . S
Zn537 O550 1.969 . S
Zn537 O551 1.965 1_655 S
Zn537 O553 2.024 . S
C538 O539 1.229 . S
C538 O547 1.058 . S
O539 C538 1.229 . S
C540 O541 1.229 . S
C540 O553 1.058 . S
O541 C540 1.229 . S
O542 Zn536 1.969 . S
O542 C545 1.267 . S
O543 Zn536 1.965 . S
O543 C554 1.260 . S
O544 Zn537 1.988 . S
O544 C554 1.236 1_655 S
C545 O542 1.267 . S
C545 O546 1.228 . S
O546 C545 1.228 . S
O547 Zn536 2.024 . S
O547 C538 1.058 . S
C548 O549 1.228 . S
C548 O550 1.267 . S
O549 C548 1.228 . S
O550 Zn537 1.969 . S
O550 C548 1.267 . S
O551 Zn537 1.965 1_455 S
O551 C555 1.260 . S
O552 Zn536 1.969 . S
O552 C555 1.258 . S
O553 Zn537 2.024 . S
O553 C540 1.058 . S
C554 O543 1.260 . S
C554 O544 1.236 1_455 S
C555 O551 1.260 . S
C555 O552 1.258 . S
Zn556 O562 1.969 . S
Zn556 O563 1.965 . S
Zn556 O567 2.024 . S
Zn556 O572 1.969 . S
Zn557 O564 1.969 . S
Zn557 O570 1.969 . S
Zn557 O571 1.965 . S
Zn557 O573 2.024 . S
C558 O559 1.229 . S
C558 O567 1.058 . S
O559 C558 1.229 . S
C560 O561 1.229 . S
C560 O573 1.058 . S
O561 C560 1.229 . S
O562 Zn556 1.969 . S
O562 C565 1.267 . S
O563 Zn556 1.965 . S
O563 C574 1.260 . S
O564 Zn557 1.969 . S
O564 C574 1.258 . S
C565 O562 1.267 . S
C565 O566 1.228 . S
O566 C565 1.228 . S
O567 Zn556 2.024 . S
O567 C558 1.058 . S
C568 O569 1.228 . S
C568 O570 1.267 . S
O569 C568 1.228 . S
O570 Zn557 1.969 . S
O570 C568 1.267 . S
O571 Zn557 1.965 . S
O571 C575 1.260 . S
O572 Zn556 1.969 . S
O572 C575 1.258 . S
O573 Zn557 2.024 . S
O573 C560 1.058 . S
C574 O563 1.260 . S
C574 O564 1.258 . S
C575 O571 1.260 . S
C575 O572 1.258 . S
Zn576 O582 1.969 . S
Zn576 O583 1.965 . S
Zn576 O587 2.024 . S
Zn576 O592 1.969 . S
Zn577 O584 1.969 . S
Zn577 O590 1.969 . S
Zn577 O591 1.965 . S
Zn577 O593 2.024 . S
C578 O579 1.229 . S
C578 O587 1.058 . S
O579 C578 1.229 . S
C580 O581 1.229 . S
C580 O593 1.058 . S
O581 C580 1.229 . S
O582 Zn576 1.969 . S
O582 C585 1.267 . S
O583 Zn576 1.965 . S
O583 C594 1.260 . S
O584 Zn577 1.969 . S
O584 C594 1.258 . S
C585 O582 1.267 . S
C585 O586 1.228 . S
O586 C585 1.228 . S
O587 Zn576 2.024 . S
O587 C578 1.058 . S
C588 O589 1.228 . S
C588 O590 1.267 . S
O589 C588 1.228 . S
O590 Zn577 1.969 . S
O590 C588 1.267 . S
O591 Zn577 1.965 . S
O591 C595 1.260 . S
O592 Zn576 1.969 . S
O592 C595 1.258 . S
O593 Zn577 2.024 . S
O593 C580 1.058 . S
C594 O583 1.260 . S
C594 O584 1.258 . S
C595 O591 1.260 . S
C595 O592 1.258 . S
Zn596 O602 1.969 . S
Zn596 O603 1.965 . S
Zn596 O607 2.024 . S
Zn596 O612 1.969 . S
Zn597 O604 1.969 . S
Zn597 O610 1.969 . S
Zn597 O611 1.965 . S
Zn597 O613 2.024 . S
C598 O599 1.229 . S
C598 O607 1.058 . S
O599 C598 1.229 . S
C600 O601 1.229 . S
C600 O613 1.058 . S
O601 C600 1.229 . S
O602 Zn596 1.969 . S
O602 C605 1.267 . S
O603 Zn596 1.965 . S
O603 C614 1.260 . S
O604 Zn597 1.969 . S
O604 C614 1.258 . S
C605 O602 1.267 . S
C605 O606 1.228 . S
O606 C605 1.228 . S
O607 Zn596 2.024 . S
O607 C598 1.058 . S
C608 O609 1.228 . S
C608 O610 1.267 . S
O609 C608 1.228 . S
O610 Zn597 1.969 . S
O610 C608 1.267 . S
O611 Zn597 1.965 . S
O611 C615 1.260 . S
O612 Zn596 1.969 . S
O612 C615 1.258 . S
O613 Zn597 2.024 . S
O613 C600 1.058 . S
C614 O603 1.260 . S
C614 O604 1.258 . S
C615 O611 1.260 . S
C615 O612 1.258 . S
Zn616 O622 1.969 . S
Zn616 O623 1.965 . S
Zn616 O627 2.024 . S
Zn616 O632 1.969 . S
Zn617 O624 1.969 . S
Zn617 O630 1.969 . S
Zn617 O631 1.965 . S
Zn617 O633 2.024 . S
C618 O619 1.229 . S
C618 O627 1.058 . S
O619 C618 1.229 . S
C620 O621 1.229 . S
C620 O633 1.058 . S
O621 C620 1.229 . S
O622 Zn616 1.969 . S
O622 C625 1.267 . S
O623 Zn616 1.965 . S
O623 C634 1.260 . S
O624 Zn617 1.969 . S
O624 C634 1.258 . S
C625 O622 1.267 . S
C625 O626 1.228 . S
O626 C625 1.228 . S
O627 Zn616 2.024 . S
O627 C618 1.058 . S
C628 O629 1.228 . S
C628 O630 1.267 . S
O629 C628 1.228 . S
O630 Zn617 1.969 . S
O630 C628 1.267 . S
O631 Zn617 1.965 . S
O631 C635 1.260 . S
O632 Zn616 1.969 . S
O632 C635 1.258 . S
O633 Zn617 2.024 . S
O633 C620 1.058 . S
C634 O623 1.260 . S
C634 O624 1.258 . S
C635 O631 1.260 . S
C635 O632 1.258 . S
Zn636 O642 1.969 . S
Zn636 O643 1.965 . S
Zn636 O647 2.024 1_655 S
Zn636 O652 1.969 1_655 S
Zn637 O644 1.969 1_554 S
Zn637 O650 1.978 . S
Zn637 O651 1.965 . S
Zn637 O653 2.024 . S
C638 O639 1.229 1_455 S
C638 O647 1.058 . S
O639 C638 1.229 1_655 S
C640 O641 1.229 . S
C640 O653 1.058 1_556 S
O641 C640 1.229 . S
O642 Zn636 1.969 . S
O642 C645 1.267 . S
O643 Zn636 1.965 . S
O643 C654 1.260 1_654 S
O644 Zn637 1.969 1_556 S
O644 C654 1.258 . S
C645 O642 1.267 . S
C645 O646 1.228 . S
O646 C645 1.228 . S
O647 Zn636 2.024 1_455 S
O647 C638 1.058 . S
C648 O649 1.228 . S
C648 O650 1.282 . S
O649 C648 1.228 . S
O650 Zn637 1.978 . S
O650 C648 1.282 . S
O651 Zn637 1.965 . S
O651 C655 1.260 . S
O652 Zn636 1.969 1_455 S
O652 C655 1.258 . S
O653 Zn637 2.024 . S
O653 C640 1.058 1_554 S
C654 O643 1.260 1_456 S
C654 O644 1.258 . S
C655 O651 1.260 . S
C655 O652 1.258 . S
H656 C664 0.950 . S
H657 C669 0.950 . S
H658 C666 0.950 . S
H659 C668 0.950 . S
H660 C670 0.950 . S
H661 C672 0.950 . S
H662 C674 0.950 . S
H663 C675 0.950 1_554 S
C664 H656 0.950 . S
C664 C665 1.386 . S
C664 C666 1.391 . S
C665 C664 1.386 . S
C665 C669 1.393 1_655 S
C666 H658 0.950 . S
C666 C664 1.391 . S
C666 C667 1.400 1_655 S
C667 C666 1.400 1_455 S
C667 C668 1.398 . S
C667 C673 1.491 . S
C668 H659 0.950 . S
C668 C667 1.398 . S
C668 C669 1.391 . S
C669 H657 0.950 . S
C669 C665 1.393 1_455 S
C669 C668 1.391 . S
C670 H660 0.950 . S
C670 C671 1.388 1_556 S
C670 C672 1.391 . S
C671 C670 1.388 1_554 S
C671 C675 1.393 1_454 S
C672 H661 0.950 . S
C672 C670 1.391 . S
C672 C673 1.400 . S
C673 C667 1.491 . S
C673 C672 1.400 . S
C673 C674 1.398 1_455 S
C674 H662 0.950 . S
C674 C673 1.398 1_655 S
C674 C675 1.391 . S
C675 H663 0.950 1_556 S
C675 C671 1.393 1_656 S
C675 C674 1.391 . S
H676 C684 0.950 . S
H677 C689 0.950 . S
H678 C686 0.950 . S
H679 C688 0.950 . S
H680 C690 0.950 . S
H681 C692 0.950 . S
H682 C694 0.950 . S
H683 C695 0.950 . S
C684 H676 0.950 . S
C684 C685 1.386 . S
C684 C686 1.391 . S
C685 C684 1.386 . S
C685 C689 1.393 . S
C686 H678 0.950 . S
C686 C684 1.391 . S
C686 C687 1.400 . S
C687 C686 1.400 . S
C687 C688 1.398 . S
C687 C693 1.491 . S
C688 H679 0.950 . S
C688 C687 1.398 . S
C688 C689 1.391 . S
C689 H677 0.950 . S
C689 C685 1.393 . S
C689 C688 1.391 . S
C690 H680 0.950 . S
C690 C691 1.386 . S
C690 C692 1.391 . S
C691 C690 1.386 . S
C691 C695 1.393 . S
C692 H681 0.950 . S
C692 C690 1.391 . S
C692 C693 1.400 . S
C693 C687 1.491 . S
C693 C692 1.400 . S
C693 C694 1.398 . S
C694 H682 0.950 . S
C694 C693 1.398 . S
C694 C695 1.391 . S
C695 H683 0.950 . S
C695 C691 1.393 . S
C695 C694 1.391 . S
H696 C704 0.950 . S
H697 C709 0.950 . S
H698 C706 0.950 . S
H699 C708 0.950 . S
H700 C710 0.950 . S
H701 C712 0.950 . S
H702 C714 0.950 . S
H703 C715 0.950 . S
C704 H696 0.950 . S
C704 C705 1.386 . S
C704 C706 1.391 . S
C705 C704 1.386 . S
C705 C709 1.393 . S
C706 H698 0.950 . S
C706 C704 1.391 . S
C706 C707 1.400 . S
C707 C706 1.400 . S
C707 C708 1.398 . S
C707 C713 1.491 . S
C708 H699 0.950 . S
C708 C707 1.398 . S
C708 C709 1.391 . S
C709 H697 0.950 . S
C709 C705 1.393 . S
C709 C708 1.391 . S
C710 H700 0.950 . S
C710 C711 1.386 . S
C710 C712 1.391 . S
C711 C710 1.386 . S
C711 C715 1.393 . S
C712 H701 0.950 . S
C712 C710 1.391 . S
C712 C713 1.400 . S
C713 C707 1.491 . S
C713 C712 1.400 . S
C713 C714 1.398 . S
C714 H702 0.950 . S
C714 C713 1.398 . S
C714 C715 1.391 . S
C715 H703 0.950 . S
C715 C711 1.393 . S
C715 C714 1.391 . S
H716 C724 0.950 . S
H717 C729 0.950 . S
H718 C726 0.950 . S
H719 C728 0.950 . S
H720 C730 0.950 . S
H721 C732 0.950 . S
H722 C734 0.950 . S
H723 C735 0.950 . S
C724 H716 0.950 . S
C724 C725 1.386 . S
C724 C726 1.391 . S
C725 C724 1.386 . S
C725 C729 1.393 . S
C726 H718 0.950 . S
C726 C724 1.391 . S
C726 C727 1.400 . S
C727 C726 1.400 . S
C727 C728 1.398 . S
C727 C733 1.491 . S
C728 H719 0.950 . S
C728 C727 1.398 . S
C728 C729 1.391 . S
C729 H717 0.950 . S
C729 C725 1.393 . S
C729 C728 1.391 . S
C730 H720 0.950 . S
C730 C731 1.386 . S
C730 C732 1.391 . S
C731 C730 1.386 . S
C731 C735 1.393 . S
C732 H721 0.950 . S
C732 C730 1.391 . S
C732 C733 1.400 . S
C733 C727 1.491 . S
C733 C732 1.400 . S
C733 C734 1.398 . S
C734 H722 0.950 . S
C734 C733 1.398 . S
C734 C735 1.391 . S
C735 H723 0.950 . S
C735 C731 1.393 . S
C735 C734 1.391 . S
H736 C744 0.950 . S
H737 C749 0.950 . S
H738 C746 0.950 . S
H739 C748 0.950 . S
H740 C750 0.950 . S
H741 C752 0.950 . S
H742 C754 0.950 . S
H743 C755 0.950 . S
C744 H736 0.950 . S
C744 C745 1.386 1_655 S
C744 C746 1.391 . S
C745 C744 1.386 1_455 S
C745 C749 1.393 . S
C746 H738 0.950 . S
C746 C744 1.391 . S
C746 C747 1.400 1_655 S
C747 C746 1.400 1_455 S
C747 C748 1.398 . S
C747 C753 1.491 . S
C748 H739 0.950 . S
C748 C747 1.398 . S
C748 C749 1.391 . S
C749 H737 0.950 . S
C749 C745 1.393 . S
C749 C748 1.391 . S
C750 H740 0.950 . S
C750 C751 1.386 . S
C750 C752 1.391 . S
C751 C750 1.386 . S
C751 C755 1.393 1_455 S
C752 H741 0.950 . S
C752 C750 1.391 . S
C752 C753 1.400 . S
C753 C747 1.491 . S
C753 C752 1.400 . S
C753 C754 1.398 1_455 S
C754 H742 0.950 . S
C754 C753 1.398 1_655 S
C754 C755 1.391 . S
C755 H743 0.950 . S
C755 C751 1.393 1_655 S
C755 C754 1.391 . S
H756 C764 0.950 . S
H757 C769 0.950 . S
H758 C766 0.950 . S
H759 C768 0.950 . S
H760 C770 0.950 . S
H761 C772 0.950 . S
H762 C774 0.950 . S
H763 C775 0.950 . S
C764 H756 0.950 . S
C764 C765 1.386 . S
C764 C766 1.391 . S
C765 C764 1.386 . S
C765 C769 1.393 . S
C766 H758 0.950 . S
C766 C764 1.391 . S
C766 C767 1.400 . S
C767 C766 1.400 . S
C767 C768 1.398 . S
C767 C773 1.491 . S
C768 H759 0.950 . S
C768 C767 1.398 . S
C768 C769 1.391 . S
C769 H757 0.950 . S
C769 C765 1.393 . S
C769 C768 1.391 . S
C770 H760 0.950 . S
C770 C771 1.386 . S
C770 C772 1.391 . S
C771 C770 1.386 . S
C771 C775 1.393 . S
C772 H761 0.950 . S
C772 C770 1.391 . S
C772 C773 1.400 . S
C773 C767 1.491 . S
C773 C772 1.400 . S
C773 C774 1.398 . S
C774 H762 0.950 . S
C774 C773 1.398 . S
C774 C775 1.391 . S
C775 H763 0.950 . S
C775 C771 1.393 . S
C775 C774 1.391 . S
H776 C784 0.950 . S
H777 C789 0.950 . S
H778 C786 0.950 . S
H779 C788 0.950 . S
H780 C790 0.950 . S
H781 C792 0.950 . S
H782 C794 0.950 . S
H783 C795 0.950 . S
C784 H776 0.950 . S
C784 C785 1.386 . S
C784 C786 1.391 . S
C785 C784 1.386 . S
C785 C789 1.393 . S
C786 H778 0.950 . S
C786 C784 1.391 . S
C786 C787 1.400 . S
C787 C786 1.400 . S
C787 C788 1.398 . S
C787 C793 1.491 . S
C788 H779 0.950 . S
C788 C787 1.398 . S
C788 C789 1.391 . S
C789 H777 0.950 . S
C789 C785 1.393 . S
C789 C788 1.391 . S
C790 H780 0.950 . S
C790 C791 1.386 . S
C790 C792 1.391 . S
C791 C790 1.386 . S
C791 C795 1.393 . S
C792 H781 0.950 . S
C792 C790 1.391 . S
C792 C793 1.400 . S
C793 C787 1.491 . S
C793 C792 1.400 . S
C793 C794 1.398 . S
C794 H782 0.950 . S
C794 C793 1.398 . S
C794 C795 1.391 . S
C795 H783 0.950 . S
C795 C791 1.393 . S
C795 C794 1.391 . S
H796 C804 0.950 . S
H797 C809 0.950 . S
H798 C806 0.950 . S
H799 C808 0.950 . S
H800 C810 0.950 . S
H801 C812 0.950 . S
H802 C814 0.950 . S
H803 C815 0.950 . S
C804 H796 0.950 . S
C804 C805 1.386 . S
C804 C806 1.391 . S
C805 C804 1.386 . S
C805 C809 1.393 . S
C806 H798 0.950 . S
C806 C804 1.391 . S
C806 C807 1.400 . S
C807 C806 1.400 . S
C807 C808 1.398 . S
C807 C813 1.491 . S
C808 H799 0.950 . S
C808 C807 1.398 . S
C808 C809 1.391 . S
C809 H797 0.950 . S
C809 C805 1.393 . S
C809 C808 1.391 . S
C810 H800 0.950 . S
C810 C811 1.386 . S
C810 C812 1.391 . S
C811 C810 1.386 . S
C811 C815 1.393 . S
C812 H801 0.950 . S
C812 C810 1.391 . S
C812 C813 1.400 . S
C813 C807 1.491 . S
C813 C812 1.400 . S
C813 C814 1.398 . S
C814 H802 0.950 . S
C814 C813 1.398 . S
C814 C815 1.391 . S
C815 H803 0.950 . S
C815 C811 1.393 . S
C815 C814 1.391 . S
H816 C824 0.950 . S
H817 C829 0.952 . S
H818 C826 0.950 . S
H819 C828 0.950 . S
H820 C830 0.950 . S
H821 C832 0.950 . S
H822 C834 0.950 . S
H823 C835 0.950 . S
C824 H816 0.950 . S
C824 C825 1.386 . S
C824 C826 1.391 . S
C825 C824 1.386 . S
C825 C829 1.393 . S
C826 H818 0.950 . S
C826 C824 1.391 . S
C826 C827 1.400 . S
C827 C826 1.400 . S
C827 C828 1.398 . S
C827 C833 1.491 . S
C828 H819 0.950 . S
C828 C827 1.398 . S
C828 C829 1.391 . S
C829 H817 0.952 . S
C829 C825 1.393 . S
C829 C828 1.391 . S
C830 H820 0.950 . S
C830 C831 1.386 1_455 S
C830 C832 1.391 1_455 S
C831 C830 1.386 1_655 S
C831 C835 1.393 . S
C832 H821 0.950 . S
C832 C830 1.391 1_655 S
C832 C833 1.400 . S
C833 C827 1.491 . S
C833 C832 1.400 . S
C833 C834 1.398 . S
C834 H822 0.950 . S
C834 C833 1.398 . S
C834 C835 1.391 . S
C835 H823 0.950 . S
C835 C831 1.393 . S
C835 C834 1.391 . S
H836 C844 0.950 . S
H837 C849 0.950 . S
H838 C846 0.950 . S
H839 C848 0.950 . S
H840 C850 0.950 . S
H841 C852 0.950 . S
H842 C854 0.950 . S
H843 C855 0.950 . S
C844 H836 0.950 . S
C844 C845 1.386 . S
C844 C846 1.391 . S
C845 C844 1.386 . S
C845 C849 1.393 . S
C846 H838 0.950 . S
C846 C844 1.391 . S
C846 C847 1.400 . S
C847 C846 1.400 . S
C847 C848 1.398 . S
C847 C853 1.491 . S
C848 H839 0.950 . S
C848 C847 1.398 . S
C848 C849 1.391 . S
C849 H837 0.950 . S
C849 C845 1.393 . S
C849 C848 1.391 . S
C850 H840 0.950 . S
C850 C851 1.386 . S
C850 C852 1.391 . S
C851 C850 1.386 . S
C851 C855 1.393 . S
C852 H841 0.950 . S
C852 C850 1.391 . S
C852 C853 1.400 . S
C853 C847 1.491 . S
C853 C852 1.400 . S
C853 C854 1.398 . S
C854 H842 0.950 . S
C854 C853 1.398 . S
C854 C855 1.391 . S
C855 H843 0.950 . S
C855 C851 1.393 . S
C855 C854 1.391 . S
H856 C864 0.950 . S
H857 C869 0.950 . S
H858 C866 0.950 . S
H859 C868 0.950 . S
H860 C870 0.950 . S
H861 C872 0.950 . S
H862 C874 0.950 . S
H863 C875 0.950 . S
C864 H856 0.950 . S
C864 C865 1.386 1_545 S
C864 C866 1.391 . S
C865 C864 1.386 1_565 S
C865 C869 1.393 . S
C866 H858 0.950 . S
C866 C864 1.391 . S
C866 C867 1.399 . S
C867 C866 1.399 . S
C867 C868 1.400 1_545 S
C867 C873 1.485 . S
C868 H859 0.950 . S
C868 C867 1.400 1_565 S
C868 C869 1.391 . S
C869 H857 0.950 . S
C869 C865 1.393 . S
C869 C868 1.391 . S
C870 H860 0.950 . S
C870 C871 1.386 1_565 S
C870 C872 1.391 . S
C871 C870 1.386 1_545 S
C871 C875 1.393 . S
C872 H861 0.950 . S
C872 C870 1.391 . S
C872 C873 1.397 1_565 S
C873 C867 1.485 . S
C873 C872 1.397 1_545 S
C873 C874 1.407 . S
C874 H862 0.950 . S
C874 C873 1.407 . S
C874 C875 1.391 . S
C875 H863 0.950 . S
C875 C871 1.393 . S
C875 C874 1.391 . S
H876 C884 0.950 . S
H877 C889 0.950 . S
H878 C886 0.950 . S
H879 C888 0.950 . S
H880 C890 0.950 . S
H881 C892 0.950 . S
H882 C894 0.950 . S
H883 C895 0.950 . S
C884 H876 0.950 . S
C884 C885 1.386 . S
C884 C886 1.391 . S
C885 C884 1.386 . S
C885 C889 1.393 . S
C886 H878 0.950 . S
C886 C884 1.391 . S
C886 C887 1.400 . S
C887 C886 1.400 . S
C887 C888 1.398 . S
C887 C893 1.491 . S
C888 H879 0.950 . S
C888 C887 1.398 . S
C888 C889 1.391 . S
C889 H877 0.950 . S
C889 C885 1.393 . S
C889 C888 1.391 . S
C890 H880 0.950 . S
C890 C891 1.386 . S
C890 C892 1.391 . S
C891 C890 1.386 . S
C891 C895 1.393 . S
C892 H881 0.950 . S
C892 C890 1.391 . S
C892 C893 1.400 . S
C893 C887 1.491 . S
C893 C892 1.400 . S
C893 C894 1.398 . S
C894 H882 0.950 . S
C894 C893 1.398 . S
C894 C895 1.391 . S
C895 H883 0.950 . S
C895 C891 1.393 . S
C895 C894 1.391 . S
H896 C904 0.950 . S
H897 C909 0.950 . S
H898 C906 0.950 . S
H899 C908 0.950 . S
H900 C910 0.950 . S
H901 C912 0.950 . S
H902 C914 0.950 . S
H903 C915 0.950 . S
C904 H896 0.950 . S
C904 C905 1.386 . S
C904 C906 1.391 . S
C905 C904 1.386 . S
C905 C909 1.393 1_545 S
C906 H898 0.950 . S
C906 C904 1.391 . S
C906 C907 1.400 . S
C907 C906 1.400 . S
C907 C908 1.398 1_545 S
C907 C913 1.491 . S
C908 H899 0.950 . S
C908 C907 1.398 1_565 S
C908 C909 1.391 . S
C909 H897 0.950 . S
C909 C905 1.393 1_565 S
C909 C908 1.391 . S
C910 H900 0.950 . S
C910 C911 1.386 1_565 S
C910 C912 1.391 . S
C911 C910 1.386 1_545 S
C911 C915 1.393 . S
C912 H901 0.950 . S
C912 C910 1.391 . S
C912 C913 1.400 1_565 S
C913 C907 1.491 . S
C913 C912 1.400 1_545 S
C913 C914 1.398 . S
C914 H902 0.950 . S
C914 C913 1.398 . S
C914 C915 1.391 . S
C915 H903 0.950 . S
C915 C911 1.393 . S
C915 C914 1.391 . S
H916 C924 0.950 . S
H917 C929 0.950 . S
H918 C926 0.950 . S
H919 C928 0.950 . S
H920 C930 0.950 . S
H921 C932 0.950 . S
H922 C934 0.950 . S
H923 C935 0.950 . S
C924 H916 0.950 . S
C924 C925 1.386 . S
C924 C926 1.391 . S
C925 C924 1.386 . S
C925 C929 1.393 . S
C926 H918 0.950 . S
C926 C924 1.391 . S
C926 C927 1.400 . S
C927 C926 1.400 . S
C927 C928 1.398 . S
C927 C933 1.491 . S
C928 H919 0.950 . S
C928 C927 1.398 . S
C928 C929 1.391 . S
C929 H917 0.950 . S
C929 C925 1.393 . S
C929 C928 1.391 . S
C930 H920 0.950 . S
C930 C931 1.386 . S
C930 C932 1.391 . S
C931 C930 1.386 . S
C931 C935 1.393 . S
C932 H921 0.950 . S
C932 C930 1.391 . S
C932 C933 1.400 . S
C933 C927 1.491 . S
C933 C932 1.400 . S
C933 C934 1.398 . S
C934 H922 0.950 . S
C934 C933 1.398 . S
C934 C935 1.391 . S
C935 H923 0.950 . S
C935 C931 1.393 . S
C935 C934 1.391 . S
H936 C944 0.950 . S
H937 C949 0.950 . S
H938 C946 0.950 . S
H939 C948 0.950 . S
H940 C950 0.950 . S
H941 C952 0.950 . S
H942 C954 0.950 . S
H943 C955 0.950 . S
C944 H936 0.950 . S
C944 C945 1.386 . S
C944 C946 1.391 . S
C945 C944 1.386 . S
C945 C949 1.393 1_545 S
C946 H938 0.950 . S
C946 C944 1.391 . S
C946 C947 1.400 . S
C947 C946 1.400 . S
C947 C948 1.398 1_545 S
C947 C953 1.491 . S
C948 H939 0.950 . S
C948 C947 1.398 1_565 S
C948 C949 1.391 . S
C949 H937 0.950 . S
C949 C945 1.393 1_565 S
C949 C948 1.391 . S
C950 H940 0.950 . S
C950 C951 1.386 1_565 S
C950 C952 1.391 . S
C951 C950 1.386 1_545 S
C951 C955 1.393 . S
C952 H941 0.950 . S
C952 C950 1.391 . S
C952 C953 1.400 1_565 S
C953 C947 1.491 . S
C953 C952 1.400 1_545 S
C953 C954 1.398 . S
C954 H942 0.950 . S
C954 C953 1.398 . S
C954 C955 1.391 . S
C955 H943 0.950 . S
C955 C951 1.393 . S
C955 C954 1.391 . S
H956 C964 0.950 . S
H957 C969 0.950 . S
H958 C966 0.950 . S
H959 C968 0.950 . S
H960 C970 0.950 . S
H961 C972 0.950 . S
H962 C974 0.950 . S
H963 C975 0.950 . S
C964 H956 0.950 . S
C964 C965 1.386 . S
C964 C966 1.391 . S
C965 C964 1.386 . S
C965 C969 1.393 . S
C966 H958 0.950 . S
C966 C964 1.391 . S
C966 C967 1.400 . S
C967 C966 1.400 . S
C967 C968 1.398 . S
C967 C973 1.491 . S
C968 H959 0.950 . S
C968 C967 1.398 . S
C968 C969 1.391 . S
C969 H957 0.950 . S
C969 C965 1.393 . S
C969 C968 1.391 . S
C970 H960 0.950 . S
C970 C971 1.386 . S
C970 C972 1.391 . S
C971 C970 1.386 . S
C971 C975 1.393 . S
C972 H961 0.950 . S
C972 C970 1.391 . S
C972 C973 1.400 . S
C973 C967 1.491 . S
C973 C972 1.400 . S
C973 C974 1.398 . S
C974 H962 0.950 . S
C974 C973 1.398 . S
C974 C975 1.391 . S
C975 H963 0.950 . S
C975 C971 1.393 . S
C975 C974 1.391 . S
H976 C984 0.950 . S
H977 C989 0.950 . S
H978 C986 0.950 1_556 S
H979 C988 0.950 . S
H980 C990 0.950 . S
H981 C992 0.950 . S
H982 C994 0.950 1_556 S
H983 C995 0.979 . S
C984 H976 0.950 . S
C984 C985 1.386 1_556 S
C984 C986 1.391 1_556 S
C985 C984 1.386 1_554 S
C985 C989 1.393 . S
C986 H978 0.950 1_554 S
C986 C984 1.391 1_554 S
C986 C987 1.400 . S
C987 C986 1.400 . S
C987 C988 1.398 . S
C987 C993 1.491 . S
C988 H979 0.950 . S
C988 C987 1.398 . S
C988 C989 1.391 . S
C989 H977 0.950 . S
C989 C985 1.393 . S
C989 C988 1.391 . S
C990 H980 0.950 . S
C990 C991 1.386 . S
C990 C992 1.391 . S
C991 C990 1.386 . S
C991 C995 1.393 . S
C992 H981 0.950 . S
C992 C990 1.391 . S
C992 C993 1.400 . S
C993 C987 1.491 . S
C993 C992 1.400 . S
C993 C994 1.398 . S
C994 H982 0.950 1_554 S
C994 C993 1.398 . S
C994 C995 1.391 . S
C995 H983 0.979 . S
C995 C991 1.393 . S
C995 C994 1.391 . S
H996 C1004 0.950 . S
H997 C1009 0.950 . S
H998 C1006 0.950 . S
H999 C1008 0.950 . S
H1000 C1010 0.950 . S
H1001 C1012 0.950 . S
H1002 C1014 0.950 . S
H1003 C1015 0.950 . S
C1004 H996 0.950 . S
C1004 C1005 1.400 . S
C1004 C1006 1.391 . S
C1005 C1004 1.400 . S
C1005 C1009 1.372 1_556 S
C1006 H998 0.950 . S
C1006 C1004 1.391 . S
C1006 C1007 1.400 1_556 S
C1007 C1006 1.400 1_554 S
C1007 C1008 1.398 . S
C1007 C1013 1.491 . S
C1008 H999 0.950 . S
C1008 C1007 1.398 . S
C1008 C1009 1.391 . S
C1009 H997 0.950 . S
C1009 C1005 1.372 1_554 S
C1009 C1008 1.391 . S
C1010 H1000 0.950 . S
C1010 C1011 1.386 . S
C1010 C1012 1.391 . S
C1011 C1010 1.386 . S
C1011 C1015 1.393 1_554 S
C1012 H1001 0.950 . S
C1012 C1010 1.391 . S
C1012 C1013 1.400 . S
C1013 C1007 1.491 . S
C1013 C1012 1.400 . S
C1013 C1014 1.398 1_554 S
C1014 H1002 0.950 . S
C1014 C1013 1.398 1_556 S
C1014 C1015 1.391 . S
C1015 H1003 0.950 . S
C1015 C1011 1.393 1_556 S
C1015 C1014 1.391 . S
H1016 C1024 0.950 . S
H1017 C1029 0.950 . S
H1018 C1026 0.950 . S
H1019 C1028 0.950 . S
H1020 C1030 0.950 . S
H1021 C1032 0.950 . S
H1022 C1034 0.950 . S
H1023 C1035 0.950 . S
C1024 H1016 0.950 . S
C1024 C1025 1.386 . S
C1024 C1026 1.391 . S
C1025 C1024 1.386 . S
C1025 C1029 1.393 . S
C1026 H1018 0.950 . S
C1026 C1024 1.391 . S
C1026 C1027 1.400 . S
C1027 C1026 1.400 . S
C1027 C1028 1.398 . S
C1027 C1033 1.491 . S
C1028 H1019 0.950 . S
C1028 C1027 1.398 . S
C1028 C1029 1.391 . S
C1029 H1017 0.950 . S
C1029 C1025 1.393 . S
C1029 C1028 1.391 . S
C1030 H1020 0.950 . S
C1030 C1031 1.386 . S
C1030 C1032 1.391 . S
C1031 C1030 1.386 . S
C1031 C1035 1.393 . S
C1032 H1021 0.950 . S
C1032 C1030 1.391 . S
C1032 C1033 1.400 . S
C1033 C1027 1.491 . S
C1033 C1032 1.400 . S
C1033 C1034 1.398 . S
C1034 H1022 0.950 . S
C1034 C1033 1.398 . S
C1034 C1035 1.391 . S
C1035 H1023 0.950 . S
C1035 C1031 1.393 . S
C1035 C1034 1.391 . S
H1036 C1044 0.950 . S
H1037 C1049 0.950 . S
H1038 C1046 0.950 . S
H1039 C1048 0.950 . S
H1040 C1050 0.950 . S
H1041 C1052 0.950 . S
H1042 C1054 0.950 . S
H1043 C1055 0.950 . S
C1044 H1036 0.950 . S
C1044 C1045 1.386 . S
C1044 C1046 1.391 . S
C1045 C1044 1.386 . S
C1045 C1049 1.393 . S
C1046 H1038 0.950 . S
C1046 C1044 1.391 . S
C1046 C1047 1.400 . S
C1047 C1046 1.400 . S
C1047 C1048 1.398 . S
C1047 C1053 1.491 . S
C1048 H1039 0.950 . S
C1048 C1047 1.398 . S
C1048 C1049 1.391 . S
C1049 H1037 0.950 . S
C1049 C1045 1.393 . S
C1049 C1048 1.391 . S
C1050 H1040 0.950 . S
C1050 C1051 1.386 . S
C1050 C1052 1.391 . S
C1051 C1050 1.386 . S
C1051 C1055 1.393 . S
C1052 H1041 0.950 . S
C1052 C1050 1.391 . S
C1052 C1053 1.400 . S
C1053 C1047 1.491 . S
C1053 C1052 1.400 . S
C1053 C1054 1.398 . S
C1054 H1042 0.950 . S
C1054 C1053 1.398 . S
C1054 C1055 1.391 . S
C1055 H1043 0.950 . S
C1055 C1051 1.393 . S
C1055 C1054 1.391 . S
H1056 C1064 0.950 . S
H1057 C1069 0.950 . S
H1058 C1066 0.950 . S
H1059 C1068 0.950 . S
H1060 C1070 0.950 . S
H1061 C1072 0.950 . S
H1062 C1074 0.950 . S
H1063 C1075 0.950 . S
C1064 H1056 0.950 . S
C1064 C1065 1.386 . S
C1064 C1066 1.391 . S
C1065 C1064 1.386 . S
C1065 C1069 1.393 . S
C1066 H1058 0.950 . S
C1066 C1064 1.391 . S
C1066 C1067 1.400 . S
C1067 C1066 1.400 . S
C1067 C1068 1.398 . S
C1067 C1073 1.491 . S
C1068 H1059 0.950 . S
C1068 C1067 1.398 . S
C1068 C1069 1.391 . S
C1069 H1057 0.950 . S
C1069 C1065 1.393 . S
C1069 C1068 1.391 . S
C1070 H1060 0.950 . S
C1070 C1071 1.386 . S
C1070 C1072 1.391 . S
C1071 C1070 1.386 . S
C1071 C1075 1.393 . S
C1072 H1061 0.950 . S
C1072 C1070 1.391 . S
C1072 C1073 1.400 . S
C1073 C1067 1.491 . S
C1073 C1072 1.400 . S
C1073 C1074 1.398 . S
C1074 H1062 0.950 . S
C1074 C1073 1.398 . S
C1074 C1075 1.391 . S
C1075 H1063 0.950 . S
C1075 C1071 1.393 . S
C1075 C1074 1.391 . S
H1076 C1084 0.950 . S
H1077 C1089 0.950 . S
H1078 C1086 0.950 . S
H1079 C1088 0.950 . S
H1080 C1090 0.950 . S
H1081 C1092 0.950 . S
H1082 C1094 0.950 . S
H1083 C1095 0.950 . S
C1084 H1076 0.950 . S
C1084 C1085 1.386 . S
C1084 C1086 1.391 . S
C1085 C1084 1.386 . S
C1085 C1089 1.393 . S
C1086 H1078 0.950 . S
C1086 C1084 1.391 . S
C1086 C1087 1.400 . S
C1087 C1086 1.400 . S
C1087 C1088 1.398 . S
C1087 C1093 1.491 . S
C1088 H1079 0.950 . S
C1088 C1087 1.398 . S
C1088 C1089 1.391 . S
C1089 H1077 0.950 . S
C1089 C1085 1.393 . S
C1089 C1088 1.391 . S
C1090 H1080 0.950 . S
C1090 C1091 1.386 . S
C1090 C1092 1.391 . S
C1091 C1090 1.386 . S
C1091 C1095 1.393 . S
C1092 H1081 0.950 . S
C1092 C1090 1.391 . S
C1092 C1093 1.400 . S
C1093 C1087 1.491 . S
C1093 C1092 1.400 . S
C1093 C1094 1.398 . S
C1094 H1082 0.950 . S
C1094 C1093 1.398 . S
C1094 C1095 1.391 . S
C1095 H1083 0.950 . S
C1095 C1091 1.393 . S
C1095 C1094 1.391 . S
H1096 C1104 0.950 . S
H1097 C1109 0.950 . S
H1098 C1106 0.950 . S
H1099 C1108 0.950 . S
H1100 C1110 0.950 . S
H1101 C1112 0.950 . S
H1102 C1114 0.950 . S
H1103 C1115 0.950 . S
C1104 H1096 0.950 . S
C1104 C1105 1.386 . S
C1104 C1106 1.391 . S
C1105 C1104 1.386 . S
C1105 C1109 1.393 . S
C1106 H1098 0.950 . S
C1106 C1104 1.391 . S
C1106 C1107 1.400 . S
C1107 C1106 1.400 . S
C1107 C1108 1.398 . S
C1107 C1113 1.491 . S
C1108 H1099 0.950 . S
C1108 C1107 1.398 . S
C1108 C1109 1.391 . S
C1109 H1097 0.950 . S
C1109 C1105 1.393 . S
C1109 C1108 1.391 . S
C1110 H1100 0.950 . S
C1110 C1111 1.386 . S
C1110 C1112 1.391 . S
C1111 C1110 1.386 . S
C1111 C1115 1.393 . S
C1112 H1101 0.950 . S
C1112 C1110 1.391 . S
C1112 C1113 1.400 . S
C1113 C1107 1.491 . S
C1113 C1112 1.400 . S
C1113 C1114 1.398 . S
C1114 H1102 0.950 . S
C1114 C1113 1.398 . S
C1114 C1115 1.391 . S
C1115 H1103 0.950 . S
C1115 C1111 1.393 . S
C1115 C1114 1.391 . S
H1116 C1124 0.950 . S
H1117 C1129 0.950 . S
H1118 C1126 0.950 . S
H1119 C1128 0.950 . S
H1120 C1130 0.950 . S
H1121 C1132 0.950 . S
H1122 C1134 0.950 . S
H1123 C1135 0.950 . S
C1124 H1116 0.950 . S
C1124 C1125 1.386 . S
C1124 C1126 1.391 . S
C1125 C1124 1.386 . S
C1125 C1129 1.393 . S
C1126 H1118 0.950 . S
C1126 C1124 1.391 . S
C1126 C1127 1.400 . S
C1127 C1126 1.400 . S
C1127 C1128 1.398 . S
C1127 C1133 1.491 . S
C1128 H1119 0.950 . S
C1128 C1127 1.398 . S
C1128 C1129 1.391 . S
C1129 H1117 0.950 . S
C1129 C1125 1.393 . S
C1129 C1128 1.391 . S
C1130 H1120 0.950 . S
C1130 C1131 1.386 . S
C1130 C1132 1.391 . S
C1131 C1130 1.386 . S
C1131 C1135 1.393 . S
C1132 H1121 0.950 . S
C1132 C1130 1.391 . S
C1132 C1133 1.400 . S
C1133 C1127 1.491 . S
C1133 C1132 1.400 . S
C1133 C1134 1.398 . S
C1134 H1122 0.950 . S
C1134 C1133 1.398 . S
C1134 C1135 1.391 . S
C1135 H1123 0.950 . S
C1135 C1131 1.393 . S
C1135 C1134 1.391 . S
H1136 C1144 0.950 . S
H1137 C1149 0.950 1_655 S
H1138 C1146 0.950 . S
H1139 C1148 0.950 1_655 S
H1140 C1150 0.950 . S
H1141 C1152 0.950 . S
H1142 C1154 0.950 . S
H1143 C1155 0.950 . S
C1144 H1136 0.950 . S
C1144 C1145 1.386 . S
C1144 C1146 1.391 . S
C1145 C1144 1.386 . S
C1145 C1149 1.393 . S
C1146 H1138 0.950 . S
C1146 C1144 1.391 . S
C1146 C1147 1.400 . S
C1147 C1146 1.400 . S
C1147 C1148 1.398 . S
C1147 C1153 1.491 . S
C1148 H1139 0.950 1_455 S
C1148 C1147 1.398 . S
C1148 C1149 1.391 . S
C1149 H1137 0.950 1_455 S
C1149 C1145 1.393 . S
C1149 C1148 1.391 . S
C1150 H1140 0.950 . S
C1150 C1151 1.386 1_655 S
C1150 C1152 1.391 . S
C1151 C1150 1.386 1_455 S
C1151 C1155 1.393 . S
C1152 H1141 0.950 . S
C1152 C1150 1.391 . S
C1152 C1153 1.400 1_655 S
C1153 C1147 1.491 . S
C1153 C1152 1.400 1_455 S
C1153 C1154 1.398 . S
C1154 H1142 0.950 . S
C1154 C1153 1.398 . S
C1154 C1155 1.391 . S
C1155 H1143 0.950 . S
C1155 C1151 1.393 . S
C1155 C1154 1.391 . S
H1156 C1164 0.950 . S
H1157 C1169 0.950 . S
H1158 C1166 0.950 . S
H1159 C1168 0.950 . S
H1160 C1170 0.950 . S
H1161 C1172 0.950 . S
H1162 C1174 0.950 . S
H1163 C1175 0.950 . S
C1164 H1156 0.950 . S
C1164 C1165 1.386 . S
C1164 C1166 1.391 . S
C1165 C1164 1.386 . S
C1165 C1169 1.393 . S
C1166 H1158 0.950 . S
C1166 C1164 1.391 . S
C1166 C1167 1.400 . S
C1167 C1166 1.400 . S
C1167 C1168 1.398 . S
C1167 C1173 1.491 . S
C1168 H1159 0.950 . S
C1168 C1167 1.398 . S
C1168 C1169 1.391 . S
C1169 H1157 0.950 . S
C1169 C1165 1.393 . S
C1169 C1168 1.391 . S
C1170 H1160 0.950 . S
C1170 C1171 1.386 . S
C1170 C1172 1.391 . S
C1171 C1170 1.386 . S
C1171 C1175 1.393 . S
C1172 H1161 0.950 . S
C1172 C1170 1.391 . S
C1172 C1173 1.400 . S
C1173 C1167 1.491 . S
C1173 C1172 1.400 . S
C1173 C1174 1.398 . S
C1174 H1162 0.950 . S
C1174 C1173 1.398 . S
C1174 C1175 1.391 . S
C1175 H1163 0.950 . S
C1175 C1171 1.393 . S
C1175 C1174 1.391 . S
H1176 C1184 0.950 . S
H1177 C1189 0.950 . S
H1178 C1186 0.950 . S
H1179 C1188 0.950 . S
H1180 C1190 0.950 . S
H1181 C1192 0.950 . S
H1182 C1194 0.950 . S
H1183 C1195 0.950 . S
C1184 H1176 0.950 . S
C1184 C1185 1.386 . S
C1184 C1186 1.391 . S
C1185 C1184 1.386 . S
C1185 C1189 1.393 . S
C1186 H1178 0.950 . S
C1186 C1184 1.391 . S
C1186 C1187 1.400 . S
C1187 C1186 1.400 . S
C1187 C1188 1.398 . S
C1187 C1193 1.491 . S
C1188 H1179 0.950 . S
C1188 C1187 1.398 . S
C1188 C1189 1.391 . S
C1189 H1177 0.950 . S
C1189 C1185 1.393 . S
C1189 C1188 1.391 . S
C1190 H1180 0.950 . S
C1190 C1191 1.386 . S
C1190 C1192 1.391 . S
C1191 C1190 1.386 . S
C1191 C1195 1.393 . S
C1192 H1181 0.950 . S
C1192 C1190 1.391 . S
C1192 C1193 1.400 . S
C1193 C1187 1.491 . S
C1193 C1192 1.400 . S
C1193 C1194 1.398 . S
C1194 H1182 0.950 . S
C1194 C1193 1.398 . S
C1194 C1195 1.391 . S
C1195 H1183 0.950 . S
C1195 C1191 1.393 . S
C1195 C1194 1.391 . S
H1196 C1204 0.950 . S
H1197 C1209 0.950 . S
H1198 C1206 0.950 . S
H1199 C1208 0.950 . S
H1200 C1210 0.950 . S
H1201 C1212 0.950 . S
H1202 C1214 0.950 . S
H1203 C1215 0.950 . S
C1204 H1196 0.950 . S
C1204 C1205 1.386 . S
C1204 C1206 1.391 . S
C1205 C1204 1.386 . S
C1205 C1209 1.393 . S
C1206 H1198 0.950 . S
C1206 C1204 1.391 . S
C1206 C1207 1.400 . S
C1207 C1206 1.400 . S
C1207 C1208 1.398 . S
C1207 C1213 1.491 . S
C1208 H1199 0.950 . S
C1208 C1207 1.398 . S
C1208 C1209 1.391 . S
C1209 H1197 0.950 . S
C1209 C1205 1.393 . S
C1209 C1208 1.391 . S
C1210 H1200 0.950 . S
C1210 C1211 1.386 . S
C1210 C1212 1.391 . S
C1211 C1210 1.386 . S
C1211 C1215 1.393 . S
C1212 H1201 0.950 . S
C1212 C1210 1.391 . S
C1212 C1213 1.400 . S
C1213 C1207 1.491 . S
C1213 C1212 1.400 . S
C1213 C1214 1.398 . S
C1214 H1202 0.950 . S
C1214 C1213 1.398 . S
C1214 C1215 1.391 . S
C1215 H1203 0.950 . S
C1215 C1211 1.393 . S
C1215 C1214 1.391 . S
H1216 C1224 0.950 . S
H1217 C1229 0.950 . S
H1218 C1226 0.950 . S
H1219 C1228 0.950 . S
H1220 C1230 0.950 . S
H1221 C1232 0.950 . S
H1222 C1234 0.950 . S
H1223 C1235 0.950 . S
C1224 H1216 0.950 . S
C1224 C1225 1.386 1_655 S
C1224 C1226 1.391 . S
C1225 C1224 1.386 1_455 S
C1225 C1229 1.393 . S
C1226 H1218 0.950 . S
C1226 C1224 1.391 . S
C1226 C1227 1.400 1_655 S
C1227 C1226 1.400 1_455 S
C1227 C1228 1.398 . S
C1227 C1233 1.491 . S
C1228 H1219 0.950 . S
C1228 C1227 1.398 . S
C1228 C1229 1.391 . S
C1229 H1217 0.950 . S
C1229 C1225 1.393 . S
C1229 C1228 1.391 . S
C1230 H1220 0.950 . S
C1230 C1231 1.386 . S
C1230 C1232 1.391 . S
C1231 C1230 1.386 . S
C1231 C1235 1.393 1_455 S
C1232 H1221 0.950 . S
C1232 C1230 1.391 . S
C1232 C1233 1.400 . S
C1233 C1227 1.491 . S
C1233 C1232 1.400 . S
C1233 C1234 1.398 1_455 S
C1234 H1222 0.950 . S
C1234 C1233 1.398 1_655 S
C1234 C1235 1.391 . S
C1235 H1223 0.950 . S
C1235 C1231 1.393 1_655 S
C1235 C1234 1.391 . S
H1236 C1244 0.950 . S
H1237 C1249 0.950 . S
H1238 C1246 0.950 . S
H1239 C1248 0.950 . S
H1240 C1250 0.950 . S
H1241 C1252 0.950 . S
H1242 C1254 0.950 . S
H1243 C1255 0.950 . S
C1244 H1236 0.950 . S
C1244 C1245 1.386 . S
C1244 C1246 1.391 . S
C1245 C1244 1.386 . S
C1245 C1249 1.393 . S
C1246 H1238 0.950 . S
C1246 C1244 1.391 . S
C1246 C1247 1.400 . S
C1247 C1246 1.400 . S
C1247 C1248 1.398 . S
C1247 C1253 1.491 . S
C1248 H1239 0.950 . S
C1248 C1247 1.398 . S
C1248 C1249 1.391 . S
C1249 H1237 0.950 . S
C1249 C1245 1.393 . S
C1249 C1248 1.391 . S
C1250 H1240 0.950 . S
C1250 C1251 1.386 . S
C1250 C1252 1.391 . S
C1251 C1250 1.386 . S
C1251 C1255 1.393 . S
C1252 H1241 0.950 . S
C1252 C1250 1.391 . S
C1252 C1253 1.400 . S
C1253 C1247 1.491 . S
C1253 C1252 1.400 . S
C1253 C1254 1.398 . S
C1254 H1242 0.950 . S
C1254 C1253 1.398 . S
C1254 C1255 1.391 . S
C1255 H1243 0.950 . S
C1255 C1251 1.393 . S
C1255 C1254 1.391 . S
H1256 C1264 0.950 . S
H1257 C1269 0.950 . S
H1258 C1266 0.950 . S
H1259 C1268 0.950 . S
H1260 C1270 0.950 . S
H1261 C1272 0.978 . S
H1262 C1274 0.950 . S
H1263 C1275 0.950 . S
C1264 H1256 0.950 . S
C1264 C1265 1.386 . S
C1264 C1266 1.391 . S
C1265 C1264 1.386 . S
C1265 C1269 1.393 . S
C1266 H1258 0.950 . S
C1266 C1264 1.391 . S
C1266 C1267 1.400 . S
C1267 C1266 1.400 . S
C1267 C1268 1.398 . S
C1267 C1273 1.491 . S
C1268 H1259 0.950 . S
C1268 C1267 1.398 . S
C1268 C1269 1.391 . S
C1269 H1257 0.950 . S
C1269 C1265 1.393 . S
C1269 C1268 1.391 . S
C1270 H1260 0.950 . S
C1270 C1271 1.387 1_554 S
C1270 C1272 1.409 . S
C1271 C1270 1.387 1_556 S
C1271 C1275 1.391 . S
C1272 H1261 0.978 . S
C1272 C1270 1.409 . S
C1272 C1273 1.357 1_554 S
C1273 C1267 1.491 . S
C1273 C1272 1.357 1_556 S
C1273 C1274 1.398 . S
C1274 H1262 0.950 . S
C1274 C1273 1.398 . S
C1274 C1275 1.391 . S
C1275 H1263 0.950 . S
C1275 C1271 1.391 . S
C1275 C1274 1.391 . S
H1276 C1284 0.950 . S
H1277 C1289 0.950 . S
H1278 C1286 0.950 . S
H1279 C1288 0.950 . S
H1280 C1290 0.950 . S
H1281 C1292 0.950 . S
H1282 C1294 0.950 . S
H1283 C1295 0.950 . S
C1284 H1276 0.950 . S
C1284 C1285 1.386 . S
C1284 C1286 1.391 . S
C1285 C1284 1.386 . S
C1285 C1289 1.393 . S
C1286 H1278 0.950 . S
C1286 C1284 1.391 . S
C1286 C1287 1.400 . S
C1287 C1286 1.400 . S
C1287 C1288 1.398 . S
C1287 C1293 1.491 . S
C1288 H1279 0.950 . S
C1288 C1287 1.398 . S
C1288 C1289 1.391 . S
C1289 H1277 0.950 . S
C1289 C1285 1.393 . S
C1289 C1288 1.391 . S
C1290 H1280 0.950 . S
C1290 C1291 1.386 . S
C1290 C1292 1.391 . S
C1291 C1290 1.386 . S
C1291 C1295 1.393 . S
C1292 H1281 0.950 . S
C1292 C1290 1.391 . S
C1292 C1293 1.400 . S
C1293 C1287 1.491 . S
C1293 C1292 1.400 . S
C1293 C1294 1.398 . S
C1294 H1282 0.950 . S
C1294 C1293 1.398 . S
C1294 C1295 1.391 . S
C1295 H1283 0.950 . S
C1295 C1291 1.393 . S
C1295 C1294 1.391 . S
H1296 C1304 0.950 . S
H1297 C1309 0.950 . S
H1298 C1306 0.950 . S
H1299 C1308 0.950 . S
H1300 C1310 0.950 . S
H1301 C1312 0.950 . S
H1302 C1314 0.950 . S
H1303 C1315 0.950 . S
C1304 H1296 0.950 . S
C1304 C1305 1.386 1_565 S
C1304 C1306 1.391 . S
C1305 C1304 1.386 1_545 S
C1305 C1309 1.393 . S
C1306 H1298 0.950 . S
C1306 C1304 1.391 . S
C1306 C1307 1.400 1_565 S
C1307 C1306 1.400 1_545 S
C1307 C1308 1.398 . S
C1307 C1313 1.491 . S
C1308 H1299 0.950 . S
C1308 C1307 1.398 . S
C1308 C1309 1.391 . S
C1309 H1297 0.950 . S
C1309 C1305 1.393 . S
C1309 C1308 1.391 . S
C1310 H1300 0.950 . S
C1310 C1311 1.386 1_545 S
C1310 C1312 1.391 . S
C1311 C1310 1.386 1_565 S
C1311 C1315 1.393 . S
C1312 H1301 0.950 . S
C1312 C1310 1.391 . S
C1312 C1313 1.400 . S
C1313 C1307 1.491 . S
C1313 C1312 1.400 . S
C1313 C1314 1.398 1_545 S
C1314 H1302 0.950 . S
C1314 C1313 1.398 1_565 S
C1314 C1315 1.391 . S
C1315 H1303 0.950 . S
C1315 C1311 1.393 . S
C1315 C1314 1.391 . S
H1316 C1324 0.950 . S
H1317 C1329 0.950 . S
H1318 C1326 0.950 . S
H1319 C1328 0.950 . S
H1320 C1330 0.950 . S
H1321 C1332 0.950 . S
H1322 C1334 0.950 . S
H1323 C1335 0.950 . S
C1324 H1316 0.950 . S
C1324 C1325 1.386 . S
C1324 C1326 1.391 . S
C1325 C1324 1.386 . S
C1325 C1329 1.393 . S
C1326 H1318 0.950 . S
C1326 C1324 1.391 . S
C1326 C1327 1.400 . S
C1327 C1326 1.400 . S
C1327 C1328 1.398 . S
C1327 C1333 1.491 . S
C1328 H1319 0.950 . S
C1328 C1327 1.398 . S
C1328 C1329 1.391 . S
C1329 H1317 0.950 . S
C1329 C1325 1.393 . S
C1329 C1328 1.391 . S
C1330 H1320 0.950 . S
C1330 C1331 1.386 . S
C1330 C1332 1.391 . S
C1331 C1330 1.386 . S
C1331 C1335 1.393 . S
C1332 H1321 0.950 . S
C1332 C1330 1.391 . S
C1332 C1333 1.400 . S
C1333 C1327 1.491 . S
C1333 C1332 1.400 . S
C1333 C1334 1.398 . S
C1334 H1322 0.950 . S
C1334 C1333 1.398 . S
C1334 C1335 1.391 . S
C1335 H1323 0.950 . S
C1335 C1331 1.393 . S
C1335 C1334 1.391 . S
H1336 C1344 0.950 . S
H1337 C1349 0.950 . S
H1338 C1346 0.950 . S
H1339 C1348 0.950 . S
H1340 C1350 0.950 . S
H1341 C1352 0.950 . S
H1342 C1354 0.950 . S
H1343 C1355 0.950 . S
C1344 H1336 0.950 . S
C1344 C1345 1.386 . S
C1344 C1346 1.391 . S
C1345 C1344 1.386 . S
C1345 C1349 1.393 . S
C1346 H1338 0.950 . S
C1346 C1344 1.391 . S
C1346 C1347 1.400 . S
C1347 C1346 1.400 . S
C1347 C1348 1.398 . S
C1347 C1353 1.491 . S
C1348 H1339 0.950 . S
C1348 C1347 1.398 . S
C1348 C1349 1.391 . S
C1349 H1337 0.950 . S
C1349 C1345 1.393 . S
C1349 C1348 1.391 . S
C1350 H1340 0.950 . S
C1350 C1351 1.386 . S
C1350 C1352 1.391 . S
C1351 C1350 1.386 . S
C1351 C1355 1.393 . S
C1352 H1341 0.950 . S
C1352 C1350 1.391 . S
C1352 C1353 1.400 . S
C1353 C1347 1.491 . S
C1353 C1352 1.400 . S
C1353 C1354 1.398 . S
C1354 H1342 0.950 . S
C1354 C1353 1.398 . S
C1354 C1355 1.391 . S
C1355 H1343 0.950 . S
C1355 C1351 1.393 . S
C1355 C1354 1.391 . S
H1356 C1364 0.950 . S
H1357 C1369 0.950 . S
H1358 C1366 0.950 . S
H1359 C1368 0.950 . S
H1360 C1370 0.950 . S
H1361 C1372 0.950 . S
H1362 C1374 0.950 . S
H1363 C1375 0.950 . S
C1364 H1356 0.950 . S
C1364 C1365 1.386 . S
C1364 C1366 1.391 . S
C1365 C1364 1.386 . S
C1365 C1369 1.393 . S
C1366 H1358 0.950 . S
C1366 C1364 1.391 . S
C1366 C1367 1.400 . S
C1367 C1366 1.400 . S
C1367 C1368 1.398 . S
C1367 C1373 1.491 . S
C1368 H1359 0.950 . S
C1368 C1367 1.398 . S
C1368 C1369 1.391 . S
C1369 H1357 0.950 . S
C1369 C1365 1.393 . S
C1369 C1368 1.391 . S
C1370 H1360 0.950 . S
C1370 C1371 1.386 . S
C1370 C1372 1.391 . S
C1371 C1370 1.386 . S
C1371 C1375 1.393 . S
C1372 H1361 0.950 . S
C1372 C1370 1.391 . S
C1372 C1373 1.400 . S
C1373 C1367 1.491 . S
C1373 C1372 1.400 . S
C1373 C1374 1.398 . S
C1374 H1362 0.950 . S
C1374 C1373 1.398 . S
C1374 C1375 1.391 . S
C1375 H1363 0.950 . S
C1375 C1371 1.393 . S
C1375 C1374 1.391 . S
H1376 C1384 0.950 . S
H1377 C1389 0.950 . S
H1378 C1386 0.950 . S
H1379 C1388 0.950 . S
H1380 C1390 0.950 . S
H1381 C1392 0.950 . S
H1382 C1394 0.950 . S
H1383 C1395 0.950 . S
C1384 H1376 0.950 . S
C1384 C1385 1.386 1_565 S
C1384 C1386 1.391 . S
C1385 C1384 1.386 1_545 S
C1385 C1389 1.393 . S
C1386 H1378 0.950 . S
C1386 C1384 1.391 . S
C1386 C1387 1.400 1_565 S
C1387 C1386 1.400 1_545 S
C1387 C1388 1.398 . S
C1387 C1393 1.491 . S
C1388 H1379 0.950 . S
C1388 C1387 1.398 . S
C1388 C1389 1.391 . S
C1389 H1377 0.950 . S
C1389 C1385 1.393 . S
C1389 C1388 1.391 . S
C1390 H1380 0.950 . S
C1390 C1391 1.386 . S
C1390 C1392 1.391 . S
C1391 C1390 1.386 . S
C1391 C1395 1.393 1_545 S
C1392 H1381 0.950 . S
C1392 C1390 1.391 . S
C1392 C1393 1.400 . S
C1393 C1387 1.491 . S
C1393 C1392 1.400 . S
C1393 C1394 1.398 1_545 S
C1394 H1382 0.950 . S
C1394 C1393 1.398 1_565 S
C1394 C1395 1.391 . S
C1395 H1383 0.950 . S
C1395 C1391 1.393 1_565 S
C1395 C1394 1.391 . S
H1396 C1404 0.950 . S
H1397 C1409 0.950 . S
H1398 C1406 0.950 . S
H1399 C1408 0.950 . S
H1400 C1410 0.950 . S
H1401 C1412 0.950 . S
H1402 C1414 0.950 . S
H1403 C1415 0.950 . S
C1404 H1396 0.950 . S
C1404 C1405 1.386 . S
C1404 C1406 1.391 . S
C1405 C1404 1.386 . S
C1405 C1409 1.393 . S
C1406 H1398 0.950 . S
C1406 C1404 1.391 . S
C1406 C1407 1.400 . S
C1407 C1406 1.400 . S
C1407 C1408 1.398 . S
C1407 C1413 1.491 . S
C1408 H1399 0.950 . S
C1408 C1407 1.398 . S
C1408 C1409 1.391 . S
C1409 H1397 0.950 . S
C1409 C1405 1.393 . S
C1409 C1408 1.391 . S
C1410 H1400 0.950 . S
C1410 C1411 1.386 . S
C1410 C1412 1.391 . S
C1411 C1410 1.386 . S
C1411 C1415 1.393 . S
C1412 H1401 0.950 . S
C1412 C1410 1.391 . S
C1412 C1413 1.400 . S
C1413 C1407 1.491 . S
C1413 C1412 1.400 . S
C1413 C1414 1.398 . S
C1414 H1402 0.950 . S
C1414 C1413 1.398 . S
C1414 C1415 1.391 . S
C1415 H1403 0.950 . S
C1415 C1411 1.393 . S
C1415 C1414 1.391 . S
H1416 C1424 0.950 . S
H1417 C1429 0.950 . S
H1418 C1426 0.950 . S
H1419 C1428 0.950 . S
H1420 C1430 0.950 . S
H1421 C1432 0.950 . S
H1422 C1434 0.958 . S
H1423 C1435 0.950 . S
C1424 H1416 0.950 . S
C1424 C1425 1.386 . S
C1424 C1426 1.391 . S
C1425 C1424 1.386 . S
C1425 C1429 1.393 . S
C1426 H1418 0.950 . S
C1426 C1424 1.391 . S
C1426 C1427 1.400 . S
C1427 C1426 1.400 . S
C1427 C1428 1.398 . S
C1427 C1433 1.491 . S
C1428 H1419 0.950 . S
C1428 C1427 1.398 . S
C1428 C1429 1.391 . S
C1429 H1417 0.950 . S
C1429 C1425 1.393 . S
C1429 C1428 1.391 . S
C1430 H1420 0.950 . S
C1430 C1431 1.386 1_545 S
C1430 C1432 1.391 . S
C1431 C1430 1.386 1_565 S
C1431 C1435 1.393 . S
C1432 H1421 0.950 . S
C1432 C1430 1.391 . S
C1432 C1433 1.400 . S
C1433 C1427 1.491 . S
C1433 C1432 1.400 . S
C1433 C1434 1.398 . S
C1434 H1422 0.958 . S
C1434 C1433 1.398 . S
C1434 C1435 1.391 1_545 S
C1435 H1423 0.950 . S
C1435 C1431 1.393 . S
C1435 C1434 1.391 1_565 S
H1436 C1444 0.950 . S
H1437 C1449 0.950 . S
H1438 C1446 0.950 . S
H1439 C1448 0.950 . S
H1440 C1450 0.950 . S
H1441 C1452 0.950 . S
H1442 C1454 0.950 . S
H1443 C1455 0.950 . S
C1444 H1436 0.950 . S
C1444 C1445 1.386 . S
C1444 C1446 1.391 . S
C1445 C1444 1.386 . S
C1445 C1449 1.393 . S
C1446 H1438 0.950 . S
C1446 C1444 1.391 . S
C1446 C1447 1.400 . S
C1447 C1446 1.400 . S
C1447 C1448 1.398 . S
C1447 C1453 1.491 . S
C1448 H1439 0.950 . S
C1448 C1447 1.398 . S
C1448 C1449 1.391 . S
C1449 H1437 0.950 . S
C1449 C1445 1.393 . S
C1449 C1448 1.391 . S
C1450 H1440 0.950 . S
C1450 C1451 1.386 . S
C1450 C1452 1.391 . S
C1451 C1450 1.386 . S
C1451 C1455 1.393 . S
C1452 H1441 0.950 . S
C1452 C1450 1.391 . S
C1452 C1453 1.400 . S
C1453 C1447 1.491 . S
C1453 C1452 1.400 . S
C1453 C1454 1.398 . S
C1454 H1442 0.950 . S
C1454 C1453 1.398 . S
C1454 C1455 1.391 . S
C1455 H1443 0.950 . S
C1455 C1451 1.393 . S
C1455 C1454 1.391 . S
H1456 C1464 0.950 1_556 S
H1457 C1469 0.950 . S
H1458 C1466 0.950 . S
H1459 C1468 0.950 . S
H1460 C1470 0.950 . S
H1461 C1472 0.950 . S
H1462 C1474 0.950 . S
H1463 C1475 0.950 . S
C1464 H1456 0.950 1_554 S
C1464 C1465 1.386 . S
C1464 C1466 1.391 1_554 S
C1465 C1464 1.386 . S
C1465 C1469 1.393 . S
C1466 H1458 0.950 . S
C1466 C1464 1.391 1_556 S
C1466 C1467 1.400 1_556 S
C1467 C1466 1.400 1_554 S
C1467 C1468 1.398 . S
C1467 C1473 1.491 . S
C1468 H1459 0.950 . S
C1468 C1467 1.398 . S
C1468 C1469 1.391 . S
C1469 H1457 0.950 . S
C1469 C1465 1.393 . S
C1469 C1468 1.391 . S
C1470 H1460 0.950 . S
C1470 C1471 1.351 1_554 S
C1470 C1472 1.391 . S
C1471 C1470 1.351 1_556 S
C1471 C1475 1.420 . S
C1472 H1461 0.950 . S
C1472 C1470 1.391 . S
C1472 C1473 1.400 . S
C1473 C1467 1.491 . S
C1473 C1472 1.400 . S
C1473 C1474 1.398 1_554 S
C1474 H1462 0.950 . S
C1474 C1473 1.398 1_556 S
C1474 C1475 1.391 . S
C1475 H1463 0.950 . S
C1475 C1471 1.420 . S
C1475 C1474 1.391 . S
H1476 C1484 0.950 . S
H1477 C1489 0.950 . S
H1478 C1486 0.950 . S
H1479 C1488 0.950 . S
H1480 C1490 0.950 1_556 S
H1481 C1492 0.950 . S
H1482 C1494 0.950 . S
H1483 C1495 0.950 . S
C1484 H1476 0.950 . S
C1484 C1485 1.386 . S
C1484 C1486 1.391 . S
C1485 C1484 1.386 . S
C1485 C1489 1.393 . S
C1486 H1478 0.950 . S
C1486 C1484 1.391 . S
C1486 C1487 1.400 . S
C1487 C1486 1.400 . S
C1487 C1488 1.398 . S
C1487 C1493 1.491 . S
C1488 H1479 0.950 . S
C1488 C1487 1.398 . S
C1488 C1489 1.391 . S
C1489 H1477 0.950 . S
C1489 C1485 1.393 . S
C1489 C1488 1.391 . S
C1490 H1480 0.950 1_554 S
C1490 C1491 1.386 . S
C1490 C1492 1.391 . S
C1491 C1490 1.386 . S
C1491 C1495 1.393 . S
C1492 H1481 0.950 . S
C1492 C1490 1.391 . S
C1492 C1493 1.400 . S
C1493 C1487 1.491 . S
C1493 C1492 1.400 . S
C1493 C1494 1.398 . S
C1494 H1482 0.950 . S
C1494 C1493 1.398 . S
C1494 C1495 1.391 . S
C1495 H1483 0.950 . S
C1495 C1491 1.393 . S
C1495 C1494 1.391 . S
H1496 C1504 0.950 . S
H1497 C1509 0.950 . S
H1498 C1506 0.950 . S
H1499 C1508 0.950 . S
H1500 C1510 0.950 . S
H1501 C1512 0.950 . S
H1502 C1514 0.950 . S
H1503 C1515 0.950 . S
C1504 H1496 0.950 . S
C1504 C1505 1.386 . S
C1504 C1506 1.391 . S
C1505 C1504 1.386 . S
C1505 C1509 1.393 . S
C1506 H1498 0.950 . S
C1506 C1504 1.391 . S
C1506 C1507 1.400 . S
C1507 C1506 1.400 . S
C1507 C1508 1.398 . S
C1507 C1513 1.491 . S
C1508 H1499 0.950 . S
C1508 C1507 1.398 . S
C1508 C1509 1.391 . S
C1509 H1497 0.950 . S
C1509 C1505 1.393 . S
C1509 C1508 1.391 . S
C1510 H1500 0.950 . S
C1510 C1511 1.386 . S
C1510 C1512 1.391 . S
C1511 C1510 1.386 . S
C1511 C1515 1.393 . S
C1512 H1501 0.950 . S
C1512 C1510 1.391 . S
C1512 C1513 1.400 . S
C1513 C1507 1.491 . S
C1513 C1512 1.400 . S
C1513 C1514 1.398 . S
C1514 H1502 0.950 . S
C1514 C1513 1.398 . S
C1514 C1515 1.391 . S
C1515 H1503 0.950 . S
C1515 C1511 1.393 . S
C1515 C1514 1.391 . S
H1516 C1524 0.950 . S
H1517 C1529 0.950 . S
H1518 C1526 0.950 . S
H1519 C1528 0.950 . S
H1520 C1530 0.950 . S
H1521 C1532 0.950 . S
H1522 C1534 0.950 . S
H1523 C1535 0.950 . S
C1524 H1516 0.950 . S
C1524 C1525 1.386 . S
C1524 C1526 1.391 . S
C1525 C1524 1.386 . S
C1525 C1529 1.393 . S
C1526 H1518 0.950 . S
C1526 C1524 1.391 . S
C1526 C1527 1.400 . S
C1527 C1526 1.400 . S
C1527 C1528 1.398 . S
C1527 C1533 1.491 . S
C1528 H1519 0.950 . S
C1528 C1527 1.398 . S
C1528 C1529 1.391 . S
C1529 H1517 0.950 . S
C1529 C1525 1.393 . S
C1529 C1528 1.391 . S
C1530 H1520 0.950 . S
C1530 C1531 1.386 . S
C1530 C1532 1.391 . S
C1531 C1530 1.386 . S
C1531 C1535 1.393 . S
C1532 H1521 0.950 . S
C1532 C1530 1.391 . S
C1532 C1533 1.400 . S
C1533 C1527 1.491 . S
C1533 C1532 1.400 . S
C1533 C1534 1.398 . S
C1534 H1522 0.950 . S
C1534 C1533 1.398 . S
C1534 C1535 1.391 . S
C1535 H1523 0.950 . S
C1535 C1531 1.393 . S
C1535 C1534 1.391 . S
H1536 C1544 0.950 . S
H1537 C1549 0.950 . S
H1538 C1546 0.950 . S
H1539 C1548 0.950 . S
H1540 C1550 0.950 . S
H1541 C1552 0.950 . S
H1542 C1554 0.950 . S
H1543 C1555 0.950 . S
C1544 H1536 0.950 . S
C1544 C1545 1.386 . S
C1544 C1546 1.391 . S
C1545 C1544 1.386 . S
C1545 C1549 1.393 . S
C1546 H1538 0.950 . S
C1546 C1544 1.391 . S
C1546 C1547 1.400 . S
C1547 C1546 1.400 . S
C1547 C1548 1.398 . S
C1547 C1553 1.491 . S
C1548 H1539 0.950 . S
C1548 C1547 1.398 . S
C1548 C1549 1.391 . S
C1549 H1537 0.950 . S
C1549 C1545 1.393 . S
C1549 C1548 1.391 . S
C1550 H1540 0.950 . S
C1550 C1551 1.386 . S
C1550 C1552 1.391 . S
C1551 C1550 1.386 . S
C1551 C1555 1.393 . S
C1552 H1541 0.950 . S
C1552 C1550 1.391 . S
C1552 C1553 1.400 . S
C1553 C1547 1.491 . S
C1553 C1552 1.400 . S
C1553 C1554 1.398 . S
C1554 H1542 0.950 . S
C1554 C1553 1.398 . S
C1554 C1555 1.391 . S
C1555 H1543 0.950 . S
C1555 C1551 1.393 . S
C1555 C1554 1.391 . S
H1556 C1564 0.950 . S
H1557 C1569 0.950 . S
H1558 C1566 0.950 . S
H1559 C1568 0.950 . S
H1560 C1570 0.950 . S
H1561 C1572 0.950 . S
H1562 C1574 0.950 . S
H1563 C1575 0.950 . S
C1564 H1556 0.950 . S
C1564 C1565 1.386 . S
C1564 C1566 1.391 . S
C1565 C1564 1.386 . S
C1565 C1569 1.393 . S
C1566 H1558 0.950 . S
C1566 C1564 1.391 . S
C1566 C1567 1.400 . S
C1567 C1566 1.400 . S
C1567 C1568 1.398 . S
C1567 C1573 1.491 . S
C1568 H1559 0.950 . S
C1568 C1567 1.398 . S
C1568 C1569 1.391 . S
C1569 H1557 0.950 . S
C1569 C1565 1.393 . S
C1569 C1568 1.391 . S
C1570 H1560 0.950 . S
C1570 C1571 1.386 . S
C1570 C1572 1.391 . S
C1571 C1570 1.386 . S
C1571 C1575 1.393 . S
C1572 H1561 0.950 . S
C1572 C1570 1.391 . S
C1572 C1573 1.400 . S
C1573 C1567 1.491 . S
C1573 C1572 1.400 . S
C1573 C1574 1.398 . S
C1574 H1562 0.950 . S
C1574 C1573 1.398 . S
C1574 C1575 1.391 . S
C1575 H1563 0.950 . S
C1575 C1571 1.393 . S
C1575 C1574 1.391 . S
H1576 C1584 0.950 . S
H1577 C1589 0.950 . S
H1578 C1586 0.950 . S
H1579 C1588 0.950 . S
H1580 C1590 0.950 . S
H1581 C1592 0.950 . S
H1582 C1594 0.950 . S
H1583 C1595 0.950 . S
C1584 H1576 0.950 . S
C1584 C1585 1.386 . S
C1584 C1586 1.391 . S
C1585 C1584 1.386 . S
C1585 C1589 1.393 . S
C1586 H1578 0.950 . S
C1586 C1584 1.391 . S
C1586 C1587 1.400 . S
C1587 C1586 1.400 . S
C1587 C1588 1.398 . S
C1587 C1593 1.491 . S
C1588 H1579 0.950 . S
C1588 C1587 1.398 . S
C1588 C1589 1.391 . S
C1589 H1577 0.950 . S
C1589 C1585 1.393 . S
C1589 C1588 1.391 . S
C1590 H1580 0.950 . S
C1590 C1591 1.386 . S
C1590 C1592 1.391 . S
C1591 C1590 1.386 . S
C1591 C1595 1.393 . S
C1592 H1581 0.950 . S
C1592 C1590 1.391 . S
C1592 C1593 1.400 . S
C1593 C1587 1.491 . S
C1593 C1592 1.400 . S
C1593 C1594 1.398 . S
C1594 H1582 0.950 . S
C1594 C1593 1.398 . S
C1594 C1595 1.391 . S
C1595 H1583 0.950 . S
C1595 C1591 1.393 . S
C1595 C1594 1.391 . S
H1596 C1604 0.950 . S
H1597 C1609 0.950 . S
H1598 C1606 0.950 . S
H1599 C1608 0.950 . S
H1600 C1610 0.950 . S
H1601 C1612 0.950 . S
H1602 C1614 0.950 . S
H1603 C1615 0.950 . S
C1604 H1596 0.950 . S
C1604 C1605 1.386 . S
C1604 C1606 1.391 . S
C1605 C1604 1.386 . S
C1605 C1609 1.393 . S
C1606 H1598 0.950 . S
C1606 C1604 1.391 . S
C1606 C1607 1.400 . S
C1607 C1606 1.400 . S
C1607 C1608 1.398 . S
C1607 C1613 1.491 . S
C1608 H1599 0.950 . S
C1608 C1607 1.398 . S
C1608 C1609 1.391 . S
C1609 H1597 0.950 . S
C1609 C1605 1.393 . S
C1609 C1608 1.391 . S
C1610 H1600 0.950 . S
C1610 C1611 1.386 . S
C1610 C1612 1.391 . S
C1611 C1610 1.386 . S
C1611 C1615 1.393 . S
C1612 H1601 0.950 . S
C1612 C1610 1.391 . S
C1612 C1613 1.400 . S
C1613 C1607 1.491 . S
C1613 C1612 1.400 . S
C1613 C1614 1.398 . S
C1614 H1602 0.950 . S
C1614 C1613 1.398 . S
C1614 C1615 1.391 . S
C1615 H1603 0.950 . S
C1615 C1611 1.393 . S
C1615 C1614 1.391 . S
H1616 C1624 0.950 . S
H1617 C1629 0.950 . S
H1618 C1626 0.950 . S
H1619 C1628 0.950 . S
H1620 C1630 0.950 . S
H1621 C1632 0.950 . S
H1622 C1634 0.950 . S
H1623 C1635 0.950 . S
C1624 H1616 0.950 . S
C1624 C1625 1.386 . S
C1624 C1626 1.391 . S
C1625 C1624 1.386 . S
C1625 C1629 1.393 . S
C1626 H1618 0.950 . S
C1626 C1624 1.391 . S
C1626 C1627 1.400 . S
C1627 C1626 1.400 . S
C1627 C1628 1.398 . S
C1627 C1633 1.491 . S
C1628 H1619 0.950 . S
C1628 C1627 1.398 . S
C1628 C1629 1.391 . S
C1629 H1617 0.950 . S
C1629 C1625 1.393 . S
C1629 C1628 1.391 . S
C1630 H1620 0.950 . S
C1630 C1631 1.386 . S
C1630 C1632 1.391 . S
C1631 C1630 1.386 . S
C1631 C1635 1.393 . S
C1632 H1621 0.950 . S
C1632 C1630 1.391 . S
C1632 C1633 1.400 . S
C1633 C1627 1.491 . S
C1633 C1632 1.400 . S
C1633 C1634 1.398 . S
C1634 H1622 0.950 . S
C1634 C1633 1.398 . S
C1634 C1635 1.391 . S
C1635 H1623 0.950 . S
C1635 C1631 1.393 . S
C1635 C1634 1.391 . S
H1636 C1644 0.950 . S
H1637 C1649 0.950 . S
H1638 C1646 0.950 . S
H1639 C1648 0.950 . S
H1640 C1650 0.950 . S
H1641 C1652 0.950 . S
H1642 C1654 0.950 . S
H1643 C1655 0.950 . S
C1644 H1636 0.950 . S
C1644 C1645 1.386 . S
C1644 C1646 1.391 . S
C1645 C1644 1.386 . S
C1645 C1649 1.393 . S
C1646 H1638 0.950 . S
C1646 C1644 1.391 . S
C1646 C1647 1.400 . S
C1647 C1646 1.400 . S
C1647 C1648 1.398 . S
C1647 C1653 1.491 . S
C1648 H1639 0.950 . S
C1648 C1647 1.398 . S
C1648 C1649 1.391 . S
C1649 H1637 0.950 . S
C1649 C1645 1.393 . S
C1649 C1648 1.391 . S
C1650 H1640 0.950 . S
C1650 C1651 1.386 . S
C1650 C1652 1.391 . S
C1651 C1650 1.386 . S
C1651 C1655 1.393 . S
C1652 H1641 0.950 . S
C1652 C1650 1.391 . S
C1652 C1653 1.400 . S
C1653 C1647 1.491 . S
C1653 C1652 1.400 . S
C1653 C1654 1.398 . S
C1654 H1642 0.950 . S
C1654 C1653 1.398 . S
C1654 C1655 1.391 . S
C1655 H1643 0.950 . S
C1655 C1651 1.393 . S
C1655 C1654 1.391 . S
H1656 C1664 0.950 . S
H1657 C1669 0.950 . S
H1658 C1666 0.950 . S
H1659 C1668 0.950 . S
H1660 C1670 0.950 1_554 S
H1661 C1672 0.950 . S
H1662 C1674 0.950 . S
H1663 C1675 0.950 . S
C1664 H1656 0.950 . S
C1664 C1665 1.386 1_655 S
C1664 C1666 1.391 . S
C1665 C1664 1.386 1_455 S
C1665 C1669 1.393 . S
C1666 H1658 0.950 . S
C1666 C1664 1.391 . S
C1666 C1667 1.400 1_655 S
C1667 C1666 1.400 1_455 S
C1667 C1668 1.398 . S
C1667 C1673 1.491 . S
C1668 H1659 0.950 . S
C1668 C1667 1.398 . S
C1668 C1669 1.391 . S
C1669 H1657 0.950 . S
C1669 C1665 1.393 . S
C1669 C1668 1.391 . S
C1670 H1660 0.950 1_556 S
C1670 C1671 1.386 . S
C1670 C1672 1.391 . S
C1671 C1670 1.386 . S
C1671 C1675 1.393 1_455 S
C1672 H1661 0.950 . S
C1672 C1670 1.391 . S
C1672 C1673 1.400 . S
C1673 C1667 1.491 . S
C1673 C1672 1.400 . S
C1673 C1674 1.398 1_455 S
C1674 H1662 0.950 . S
C1674 C1673 1.398 1_655 S
C1674 C1675 1.391 . S
C1675 H1663 0.950 . S
C1675 C1671 1.393 1_655 S
C1675 C1674 1.391 . S
H1676 C1684 0.950 . S
H1677 C1689 0.950 . S
H1678 C1686 0.950 . S
H1679 C1688 0.950 . S
H1680 C1690 0.950 . S
H1681 C1692 0.950 . S
H1682 C1694 0.950 . S
H1683 C1695 0.950 . S
C1684 H1676 0.950 . S
C1684 C1685 1.386 . S
C1684 C1686 1.391 . S
C1685 C1684 1.386 . S
C1685 C1689 1.393 . S
C1686 H1678 0.950 . S
C1686 C1684 1.391 . S
C1686 C1687 1.400 . S
C1687 C1686 1.400 . S
C1687 C1688 1.398 . S
C1687 C1693 1.491 . S
C1688 H1679 0.950 . S
C1688 C1687 1.398 . S
C1688 C1689 1.391 . S
C1689 H1677 0.950 . S
C1689 C1685 1.393 . S
C1689 C1688 1.391 . S
C1690 H1680 0.950 . S
C1690 C1691 1.386 . S
C1690 C1692 1.391 . S
C1691 C1690 1.386 . S
C1691 C1695 1.393 . S
C1692 H1681 0.950 . S
C1692 C1690 1.391 . S
C1692 C1693 1.400 . S
C1693 C1687 1.491 . S
C1693 C1692 1.400 . S
C1693 C1694 1.398 . S
C1694 H1682 0.950 . S
C1694 C1693 1.398 . S
C1694 C1695 1.391 . S
C1695 H1683 0.950 . S
C1695 C1691 1.393 . S
C1695 C1694 1.391 . S
H1696 C1704 0.950 . S
H1697 C1709 0.950 . S
H1698 C1706 0.950 . S
H1699 C1708 0.950 . S
H1700 C1710 0.950 . S
H1701 C1712 0.950 . S
H1702 C1714 0.950 . S
H1703 C1715 0.950 . S
C1704 H1696 0.950 . S
C1704 C1705 1.386 . S
C1704 C1706 1.391 . S
C1705 C1704 1.386 . S
C1705 C1709 1.393 . S
C1706 H1698 0.950 . S
C1706 C1704 1.391 . S
C1706 C1707 1.400 . S
C1707 C1706 1.400 . S
C1707 C1708 1.398 . S
C1707 C1713 1.491 . S
C1708 H1699 0.950 . S
C1708 C1707 1.398 . S
C1708 C1709 1.391 . S
C1709 H1697 0.950 . S
C1709 C1705 1.393 . S
C1709 C1708 1.391 . S
C1710 H1700 0.950 . S
C1710 C1711 1.386 . S
C1710 C1712 1.391 . S
C1711 C1710 1.386 . S
C1711 C1715 1.393 . S
C1712 H1701 0.950 . S
C1712 C1710 1.391 . S
C1712 C1713 1.400 . S
C1713 C1707 1.491 . S
C1713 C1712 1.400 . S
C1713 C1714 1.398 . S
C1714 H1702 0.950 . S
C1714 C1713 1.398 . S
C1714 C1715 1.391 . S
C1715 H1703 0.950 . S
C1715 C1711 1.393 . S
C1715 C1714 1.391 . S
H1716 C1724 0.950 . S
H1717 C1729 0.950 . S
H1718 C1726 0.950 . S
H1719 C1728 0.950 . S
H1720 C1730 0.950 . S
H1721 C1732 0.950 . S
H1722 C1734 0.950 . S
H1723 C1735 0.950 . S
C1724 H1716 0.950 . S
C1724 C1725 1.386 . S
C1724 C1726 1.391 . S
C1725 C1724 1.386 . S
C1725 C1729 1.393 . S
C1726 H1718 0.950 . S
C1726 C1724 1.391 . S
C1726 C1727 1.400 . S
C1727 C1726 1.400 . S
C1727 C1728 1.398 . S
C1727 C1733 1.491 . S
C1728 H1719 0.950 . S
C1728 C1727 1.398 . S
C1728 C1729 1.391 . S
C1729 H1717 0.950 . S
C1729 C1725 1.393 . S
C1729 C1728 1.391 . S
C1730 H1720 0.950 . S
C1730 C1731 1.386 . S
C1730 C1732 1.391 . S
C1731 C1730 1.386 . S
C1731 C1735 1.393 . S
C1732 H1721 0.950 . S
C1732 C1730 1.391 . S
C1732 C1733 1.400 . S
C1733 C1727 1.491 . S
C1733 C1732 1.400 . S
C1733 C1734 1.398 . S
C1734 H1722 0.950 . S
C1734 C1733 1.398 . S
C1734 C1735 1.391 . S
C1735 H1723 0.950 . S
C1735 C1731 1.393 . S
C1735 C1734 1.391 . S
H1736 C1744 0.950 . S
H1737 C1749 0.952 . S
H1738 C1746 0.950 . S
H1739 C1748 0.950 . S
H1740 C1750 0.950 . S
H1741 C1752 0.950 . S
H1742 C1754 0.950 . S
H1743 C1755 0.950 . S
C1744 H1736 0.950 . S
C1744 C1745 1.386 . S
C1744 C1746 1.391 . S
C1745 C1744 1.386 . S
C1745 C1749 1.393 . S
C1746 H1738 0.950 . S
C1746 C1744 1.391 . S
C1746 C1747 1.400 . S
C1747 C1746 1.400 . S
C1747 C1748 1.398 . S
C1747 C1753 1.491 . S
C1748 H1739 0.950 . S
C1748 C1747 1.398 . S
C1748 C1749 1.391 . S
C1749 H1737 0.952 . S
C1749 C1745 1.393 . S
C1749 C1748 1.391 . S
C1750 H1740 0.950 . S
C1750 C1751 1.386 . S
C1750 C1752 1.391 . S
C1751 C1750 1.386 . S
C1751 C1755 1.393 . S
C1752 H1741 0.950 . S
C1752 C1750 1.391 . S
C1752 C1753 1.400 . S
C1753 C1747 1.491 . S
C1753 C1752 1.400 . S
C1753 C1754 1.398 . S
C1754 H1742 0.950 . S
C1754 C1753 1.398 . S
C1754 C1755 1.391 . S
C1755 H1743 0.950 . S
C1755 C1751 1.393 . S
C1755 C1754 1.391 . S
H1756 C1764 0.950 . S
H1757 C1769 0.950 . S
H1758 C1766 0.950 . S
H1759 C1768 0.950 . S
H1760 C1770 0.950 . S
H1761 C1772 0.950 . S
H1762 C1774 0.950 . S
H1763 C1775 0.950 . S
C1764 H1756 0.950 . S
C1764 C1765 1.386 . S
C1764 C1766 1.391 . S
C1765 C1764 1.386 . S
C1765 C1769 1.393 . S
C1766 H1758 0.950 . S
C1766 C1764 1.391 . S
C1766 C1767 1.400 . S
C1767 C1766 1.400 . S
C1767 C1768 1.398 . S
C1767 C1773 1.491 . S
C1768 H1759 0.950 . S
C1768 C1767 1.398 . S
C1768 C1769 1.391 . S
C1769 H1757 0.950 . S
C1769 C1765 1.393 . S
C1769 C1768 1.391 . S
C1770 H1760 0.950 . S
C1770 C1771 1.386 . S
C1770 C1772 1.391 . S
C1771 C1770 1.386 . S
C1771 C1775 1.393 . S
C1772 H1761 0.950 . S
C1772 C1770 1.391 . S
C1772 C1773 1.400 . S
C1773 C1767 1.491 . S
C1773 C1772 1.400 . S
C1773 C1774 1.398 . S
C1774 H1762 0.950 . S
C1774 C1773 1.398 . S
C1774 C1775 1.391 . S
C1775 H1763 0.950 . S
C1775 C1771 1.393 . S
C1775 C1774 1.391 . S
H1776 C1784 0.950 . S
H1777 C1789 0.950 . S
H1778 C1786 0.950 . S
H1779 C1788 0.950 . S
H1780 C1790 0.950 . S
H1781 C1792 0.950 . S
H1782 C1794 0.950 . S
H1783 C1795 0.950 . S
C1784 H1776 0.950 . S
C1784 C1785 1.386 . S
C1784 C1786 1.391 . S
C1785 C1784 1.386 . S
C1785 C1789 1.393 . S
C1786 H1778 0.950 . S
C1786 C1784 1.391 . S
C1786 C1787 1.400 . S
C1787 C1786 1.400 . S
C1787 C1788 1.398 . S
C1787 C1793 1.491 . S
C1788 H1779 0.950 . S
C1788 C1787 1.398 . S
C1788 C1789 1.391 . S
C1789 H1777 0.950 . S
C1789 C1785 1.393 . S
C1789 C1788 1.391 . S
C1790 H1780 0.950 . S
C1790 C1791 1.386 . S
C1790 C1792 1.391 . S
C1791 C1790 1.386 . S
C1791 C1795 1.393 . S
C1792 H1781 0.950 . S
C1792 C1790 1.391 . S
C1792 C1793 1.400 . S
C1793 C1787 1.491 . S
C1793 C1792 1.400 . S
C1793 C1794 1.398 . S
C1794 H1782 0.950 . S
C1794 C1793 1.398 . S
C1794 C1795 1.391 . S
C1795 H1783 0.950 . S
C1795 C1791 1.393 . S
C1795 C1794 1.391 . S
H1796 C1804 0.950 . S
H1797 C1809 0.950 . S
H1798 C1806 0.950 . S
H1799 C1808 0.950 . S
H1800 C1810 0.950 . S
H1801 C1812 0.950 . S
H1802 C1814 0.950 . S
H1803 C1815 0.950 . S
C1804 H1796 0.950 . S
C1804 C1805 1.386 . S
C1804 C1806 1.391 . S
C1805 C1804 1.386 . S
C1805 C1809 1.393 . S
C1806 H1798 0.950 . S
C1806 C1804 1.391 . S
C1806 C1807 1.400 . S
C1807 C1806 1.400 . S
C1807 C1808 1.398 . S
C1807 C1813 1.491 . S
C1808 H1799 0.950 . S
C1808 C1807 1.398 . S
C1808 C1809 1.391 . S
C1809 H1797 0.950 . S
C1809 C1805 1.393 . S
C1809 C1808 1.391 . S
C1810 H1800 0.950 . S
C1810 C1811 1.386 . S
C1810 C1812 1.391 . S
C1811 C1810 1.386 . S
C1811 C1815 1.393 . S
C1812 H1801 0.950 . S
C1812 C1810 1.391 . S
C1812 C1813 1.400 . S
C1813 C1807 1.491 . S
C1813 C1812 1.400 . S
C1813 C1814 1.398 . S
C1814 H1802 0.950 . S
C1814 C1813 1.398 . S
C1814 C1815 1.391 . S
C1815 H1803 0.950 . S
C1815 C1811 1.393 . S
C1815 C1814 1.391 . S
H1816 C1824 0.950 . S
H1817 C1829 0.950 . S
H1818 C1826 0.950 . S
H1819 C1828 0.950 . S
H1820 C1830 0.950 . S
H1821 C1832 0.950 . S
H1822 C1834 0.950 . S
H1823 C1835 0.950 . S
C1824 H1816 0.950 . S
C1824 C1825 1.386 . S
C1824 C1826 1.391 . S
C1825 C1824 1.386 . S
C1825 C1829 1.393 . S
C1826 H1818 0.950 . S
C1826 C1824 1.391 . S
C1826 C1827 1.400 . S
C1827 C1826 1.400 . S
C1827 C1828 1.398 . S
C1827 C1833 1.491 . S
C1828 H1819 0.950 . S
C1828 C1827 1.398 . S
C1828 C1829 1.391 . S
C1829 H1817 0.950 . S
C1829 C1825 1.393 . S
C1829 C1828 1.391 . S
C1830 H1820 0.950 . S
C1830 C1831 1.386 . S
C1830 C1832 1.391 . S
C1831 C1830 1.386 . S
C1831 C1835 1.393 . S
C1832 H1821 0.950 . S
C1832 C1830 1.391 . S
C1832 C1833 1.400 . S
C1833 C1827 1.491 . S
C1833 C1832 1.400 . S
C1833 C1834 1.398 . S
C1834 H1822 0.950 . S
C1834 C1833 1.398 . S
C1834 C1835 1.391 . S
C1835 H1823 0.950 . S
C1835 C1831 1.393 . S
C1835 C1834 1.391 . S
H1836 C1844 0.950 . S
H1837 C1849 0.950 . S
H1838 C1846 0.950 . S
H1839 C1848 0.950 . S
H1840 C1850 0.950 . S
H1841 C1852 0.950 . S
H1842 C1854 0.950 . S
H1843 C1855 0.950 . S
C1844 H1836 0.950 . S
C1844 C1845 1.386 . S
C1844 C1846 1.391 . S
C1845 C1844 1.386 . S
C1845 C1849 1.393 . S
C1846 H1838 0.950 . S
C1846 C1844 1.391 . S
C1846 C1847 1.400 . S
C1847 C1846 1.400 . S
C1847 C1848 1.398 . S
C1847 C1853 1.491 . S
C1848 H1839 0.950 . S
C1848 C1847 1.398 . S
C1848 C1849 1.391 . S
C1849 H1837 0.950 . S
C1849 C1845 1.393 . S
C1849 C1848 1.391 . S
C1850 H1840 0.950 . S
C1850 C1851 1.386 . S
C1850 C1852 1.391 . S
C1851 C1850 1.386 . S
C1851 C1855 1.393 . S
C1852 H1841 0.950 . S
C1852 C1850 1.391 . S
C1852 C1853 1.400 . S
C1853 C1847 1.491 . S
C1853 C1852 1.400 . S
C1853 C1854 1.398 . S
C1854 H1842 0.950 . S
C1854 C1853 1.398 . S
C1854 C1855 1.391 . S
C1855 H1843 0.950 . S
C1855 C1851 1.393 . S
C1855 C1854 1.391 . S
H1856 C1864 0.950 . S
H1857 C1869 0.950 . S
H1858 C1866 0.950 . S
H1859 C1868 0.950 . S
H1860 C1870 0.950 . S
H1861 C1872 0.950 . S
H1862 C1874 0.950 . S
H1863 C1875 0.950 . S
C1864 H1856 0.950 . S
C1864 C1865 1.386 . S
C1864 C1866 1.391 . S
C1865 C1864 1.386 . S
C1865 C1869 1.393 . S
C1866 H1858 0.950 . S
C1866 C1864 1.391 . S
C1866 C1867 1.400 . S
C1867 C1866 1.400 . S
C1867 C1868 1.398 . S
C1867 C1873 1.491 . S
C1868 H1859 0.950 . S
C1868 C1867 1.398 . S
C1868 C1869 1.391 . S
C1869 H1857 0.950 . S
C1869 C1865 1.393 . S
C1869 C1868 1.391 . S
C1870 H1860 0.950 . S
C1870 C1871 1.386 . S
C1870 C1872 1.391 . S
C1871 C1870 1.386 . S
C1871 C1875 1.393 . S
C1872 H1861 0.950 . S
C1872 C1870 1.391 . S
C1872 C1873 1.400 . S
C1873 C1867 1.491 . S
C1873 C1872 1.400 . S
C1873 C1874 1.398 . S
C1874 H1862 0.950 . S
C1874 C1873 1.398 . S
C1874 C1875 1.391 . S
C1875 H1863 0.950 . S
C1875 C1871 1.393 . S
C1875 C1874 1.391 . S
H1876 C1884 0.950 . S
H1877 C1889 0.950 . S
H1878 C1886 0.950 . S
H1879 C1888 0.950 . S
H1880 C1890 0.950 . S
H1881 C1892 0.950 . S
H1882 C1894 0.950 . S
H1883 C1895 0.950 . S
C1884 H1876 0.950 . S
C1884 C1885 1.386 . S
C1884 C1886 1.391 . S
C1885 C1884 1.386 . S
C1885 C1889 1.393 . S
C1886 H1878 0.950 . S
C1886 C1884 1.391 . S
C1886 C1887 1.400 . S
C1887 C1886 1.400 . S
C1887 C1888 1.398 . S
C1887 C1893 1.491 . S
C1888 H1879 0.950 . S
C1888 C1887 1.398 . S
C1888 C1889 1.391 . S
C1889 H1877 0.950 . S
C1889 C1885 1.393 . S
C1889 C1888 1.391 . S
C1890 H1880 0.950 . S
C1890 C1891 1.386 . S
C1890 C1892 1.391 . S
C1891 C1890 1.386 . S
C1891 C1895 1.393 . S
C1892 H1881 0.950 . S
C1892 C1890 1.391 . S
C1892 C1893 1.400 . S
C1893 C1887 1.491 . S
C1893 C1892 1.400 . S
C1893 C1894 1.398 . S
C1894 H1882 0.950 . S
C1894 C1893 1.398 . S
C1894 C1895 1.391 . S
C1895 H1883 0.950 . S
C1895 C1891 1.393 . S
C1895 C1894 1.391 . S
H1896 C1904 0.950 . S
H1897 C1909 0.950 . S
H1898 C1906 0.950 . S
H1899 C1908 0.950 . S
H1900 C1910 0.950 . S
H1901 C1912 0.950 . S
H1902 C1914 0.950 . S
H1903 C1915 0.950 . S
C1904 H1896 0.950 . S
C1904 C1905 1.386 . S
C1904 C1906 1.391 . S
C1905 C1904 1.386 . S
C1905 C1909 1.393 . S
C1906 H1898 0.950 . S
C1906 C1904 1.391 . S
C1906 C1907 1.400 . S
C1907 C1906 1.400 . S
C1907 C1908 1.398 . S
C1907 C1913 1.491 . S
C1908 H1899 0.950 . S
C1908 C1907 1.398 . S
C1908 C1909 1.391 . S
C1909 H1897 0.950 . S
C1909 C1905 1.393 . S
C1909 C1908 1.391 . S
C1910 H1900 0.950 . S
C1910 C1911 1.386 . S
C1910 C1912 1.391 . S
C1911 C1910 1.386 . S
C1911 C1915 1.393 . S
C1912 H1901 0.950 . S
C1912 C1910 1.391 . S
C1912 C1913 1.400 . S
C1913 C1907 1.491 . S
C1913 C1912 1.400 . S
C1913 C1914 1.398 . S
C1914 H1902 0.950 . S
C1914 C1913 1.398 . S
C1914 C1915 1.391 . S
C1915 H1903 0.950 . S
C1915 C1911 1.393 . S
C1915 C1914 1.391 . S
H1916 C1924 0.950 . S
H1917 C1929 0.950 . S
H1918 C1926 0.950 . S
H1919 C1928 0.950 . S
H1920 C1930 0.950 . S
H1921 C1932 0.950 . S
H1922 C1934 0.950 . S
H1923 C1935 0.950 . S
C1924 H1916 0.950 . S
C1924 C1925 1.386 . S
C1924 C1926 1.391 . S
C1925 C1924 1.386 . S
C1925 C1929 1.393 . S
C1926 H1918 0.950 . S
C1926 C1924 1.391 . S
C1926 C1927 1.400 . S
C1927 C1926 1.400 . S
C1927 C1928 1.398 . S
C1927 C1933 1.491 . S
C1928 H1919 0.950 . S
C1928 C1927 1.398 . S
C1928 C1929 1.391 . S
C1929 H1917 0.950 . S
C1929 C1925 1.393 . S
C1929 C1928 1.391 . S
C1930 H1920 0.950 . S
C1930 C1931 1.386 . S
C1930 C1932 1.391 . S
C1931 C1930 1.386 . S
C1931 C1935 1.393 . S
C1932 H1921 0.950 . S
C1932 C1930 1.391 . S
C1932 C1933 1.400 . S
C1933 C1927 1.491 . S
C1933 C1932 1.400 . S
C1933 C1934 1.398 . S
C1934 H1922 0.950 . S
C1934 C1933 1.398 . S
C1934 C1935 1.391 . S
C1935 H1923 0.950 . S
C1935 C1931 1.393 . S
C1935 C1934 1.391 . S
H1936 C1944 0.950 . S
H1937 C1949 0.950 . S
H1938 C1946 0.950 . S
H1939 C1948 0.950 . S
H1940 C1950 0.950 . S
H1941 C1952 0.950 . S
H1942 C1954 0.950 . S
H1943 C1955 0.950 . S
C1944 H1936 0.950 . S
C1944 C1945 1.386 . S
C1944 C1946 1.391 . S
C1945 C1944 1.386 . S
C1945 C1949 1.393 . S
C1946 H1938 0.950 . S
C1946 C1944 1.391 . S
C1946 C1947 1.400 . S
C1947 C1946 1.400 . S
C1947 C1948 1.398 . S
C1947 C1953 1.491 . S
C1948 H1939 0.950 . S
C1948 C1947 1.398 . S
C1948 C1949 1.391 . S
C1949 H1937 0.950 . S
C1949 C1945 1.393 . S
C1949 C1948 1.391 . S
C1950 H1940 0.950 . S
C1950 C1951 1.386 . S
C1950 C1952 1.391 . S
C1951 C1950 1.386 . S
C1951 C1955 1.393 . S
C1952 H1941 0.950 . S
C1952 C1950 1.391 . S
C1952 C1953 1.400 . S
C1953 C1947 1.491 . S
C1953 C1952 1.400 . S
C1953 C1954 1.398 . S
C1954 H1942 0.950 . S
C1954 C1953 1.398 . S
C1954 C1955 1.391 . S
C1955 H1943 0.950 . S
C1955 C1951 1.393 . S
C1955 C1954 1.391 . S
H1956 C1964 0.950 . S
H1957 C1969 0.950 . S
H1958 C1966 0.950 . S
H1959 C1968 0.950 . S
H1960 C1970 0.950 . S
H1961 C1972 0.950 . S
H1962 C1974 0.950 . S
H1963 C1975 0.950 . S
C1964 H1956 0.950 . S
C1964 C1965 1.386 . S
C1964 C1966 1.391 . S
C1965 C1964 1.386 . S
C1965 C1969 1.393 . S
C1966 H1958 0.950 . S
C1966 C1964 1.391 . S
C1966 C1967 1.400 . S
C1967 C1966 1.400 . S
C1967 C1968 1.398 . S
C1967 C1973 1.491 . S
C1968 H1959 0.950 . S
C1968 C1967 1.398 . S
C1968 C1969 1.391 . S
C1969 H1957 0.950 . S
C1969 C1965 1.393 . S
C1969 C1968 1.391 . S
C1970 H1960 0.950 . S
C1970 C1971 1.386 . S
C1970 C1972 1.391 . S
C1971 C1970 1.386 . S
C1971 C1975 1.393 . S
C1972 H1961 0.950 . S
C1972 C1970 1.391 . S
C1972 C1973 1.400 . S
C1973 C1967 1.491 . S
C1973 C1972 1.400 . S
C1973 C1974 1.398 . S
C1974 H1962 0.950 . S
C1974 C1973 1.398 . S
C1974 C1975 1.391 . S
C1975 H1963 0.950 . S
C1975 C1971 1.393 . S
C1975 C1974 1.391 . S
H1976 C1984 0.950 . S
H1977 C1989 0.950 . S
H1978 C1986 0.950 . S
H1979 C1988 0.950 . S
H1980 C1990 0.950 . S
H1981 C1992 0.950 . S
H1982 C1994 0.950 . S
H1983 C1995 0.950 . S
C1984 H1976 0.950 . S
C1984 C1985 1.386 . S
C1984 C1986 1.391 . S
C1985 C1984 1.386 . S
C1985 C1989 1.393 . S
C1986 H1978 0.950 . S
C1986 C1984 1.391 . S
C1986 C1987 1.400 . S
C1987 C1986 1.400 . S
C1987 C1988 1.398 . S
C1987 C1993 1.491 . S
C1988 H1979 0.950 . S
C1988 C1987 1.398 . S
C1988 C1989 1.391 . S
C1989 H1977 0.950 . S
C1989 C1985 1.393 . S
C1989 C1988 1.391 . S
C1990 H1980 0.950 . S
C1990 C1991 1.386 . S
C1990 C1992 1.391 . S
C1991 C1990 1.386 . S
C1991 C1995 1.393 . S
C1992 H1981 0.950 . S
C1992 C1990 1.391 . S
C1992 C1993 1.400 . S
C1993 C1987 1.491 . S
C1993 C1992 1.400 . S
C1993 C1994 1.398 . S
C1994 H1982 0.950 . S
C1994 C1993 1.398 . S
C1994 C1995 1.391 . S
C1995 H1983 0.950 . S
C1995 C1991 1.393 . S
C1995 C1994 1.391 . S
H1996 C2004 0.950 . S
H1997 C2009 0.950 . S
H1998 C2006 0.950 . S
H1999 C2008 0.950 . S
H2000 C2010 0.950 1_545 S
H2001 C2012 0.950 . S
H2002 C2014 0.950 . S
H2003 C2015 0.950 . S
C2004 H1996 0.950 . S
C2004 C2005 1.386 . S
C2004 C2006 1.391 . S
C2005 C2004 1.386 . S
C2005 C2009 1.393 . S
C2006 H1998 0.950 . S
C2006 C2004 1.391 . S
C2006 C2007 1.400 . S
C2007 C2006 1.400 . S
C2007 C2008 1.398 . S
C2007 C2013 1.491 . S
C2008 H1999 0.950 . S
C2008 C2007 1.398 . S
C2008 C2009 1.391 . S
C2009 H1997 0.950 . S
C2009 C2005 1.393 . S
C2009 C2008 1.391 . S
C2010 H2000 0.950 1_565 S
C2010 C2011 1.386 . S
C2010 C2012 1.391 . S
C2011 C2010 1.386 . S
C2011 C2015 1.393 . S
C2012 H2001 0.950 . S
C2012 C2010 1.391 . S
C2012 C2013 1.400 . S
C2013 C2007 1.491 . S
C2013 C2012 1.400 . S
C2013 C2014 1.398 . S
C2014 H2002 0.950 . S
C2014 C2013 1.398 . S
C2014 C2015 1.391 . S
C2015 H2003 0.950 . S
C2015 C2011 1.393 . S
C2015 C2014 1.391 . S
H2016 C2024 0.950 . S
H2017 C2029 0.950 . S
H2018 C2026 0.950 . S
H2019 C2028 0.950 . S
H2020 C2030 0.950 . S
H2021 C2032 0.950 . S
H2022 C2034 0.950 . S
H2023 C2035 0.950 . S
C2024 H2016 0.950 . S
C2024 C2025 1.386 . S
C2024 C2026 1.391 . S
C2025 C2024 1.386 . S
C2025 C2029 1.393 . S
C2026 H2018 0.950 . S
C2026 C2024 1.391 . S
C2026 C2027 1.400 . S
C2027 C2026 1.400 . S
C2027 C2028 1.398 . S
C2027 C2033 1.491 . S
C2028 H2019 0.950 . S
C2028 C2027 1.398 . S
C2028 C2029 1.391 . S
C2029 H2017 0.950 . S
C2029 C2025 1.393 . S
C2029 C2028 1.391 . S
C2030 H2020 0.950 . S
C2030 C2031 1.386 . S
C2030 C2032 1.391 . S
C2031 C2030 1.386 . S
C2031 C2035 1.393 . S
C2032 H2021 0.950 . S
C2032 C2030 1.391 . S
C2032 C2033 1.400 . S
C2033 C2027 1.491 . S
C2033 C2032 1.400 . S
C2033 C2034 1.398 . S
C2034 H2022 0.950 . S
C2034 C2033 1.398 . S
C2034 C2035 1.391 . S
C2035 H2023 0.950 . S
C2035 C2031 1.393 . S
C2035 C2034 1.391 . S
H2036 C2044 0.950 . S
H2037 C2049 0.950 . S
H2038 C2046 0.950 . S
H2039 C2048 0.950 . S
H2040 C2050 0.960 . S
H2041 C2052 0.950 1_556 S
H2042 C2054 0.950 . S
H2043 C2055 0.950 . S
C2044 H2036 0.950 . S
C2044 C2045 1.386 . S
C2044 C2046 1.391 . S
C2045 C2044 1.386 . S
C2045 C2049 1.393 1_554 S
C2046 H2038 0.950 . S
C2046 C2044 1.391 . S
C2046 C2047 1.400 . S
C2047 C2046 1.400 . S
C2047 C2048 1.398 1_554 S
C2047 C2053 1.491 . S
C2048 H2039 0.950 . S
C2048 C2047 1.398 1_556 S
C2048 C2049 1.391 . S
C2049 H2037 0.950 . S
C2049 C2045 1.393 1_556 S
C2049 C2048 1.391 . S
C2050 H2040 0.960 . S
C2050 C2051 1.386 . S
C2050 C2052 1.391 . S
C2051 C2050 1.386 . S
C2051 C2055 1.393 . S
C2052 H2041 0.950 1_554 S
C2052 C2050 1.391 . S
C2052 C2053 1.400 . S
C2053 C2047 1.491 . S
C2053 C2052 1.400 . S
C2053 C2054 1.398 . S
C2054 H2042 0.950 . S
C2054 C2053 1.398 . S
C2054 C2055 1.391 . S
C2055 H2043 0.950 . S
C2055 C2051 1.393 . S
C2055 C2054 1.391 . S
H2056 C2064 0.950 . S
H2057 C2069 0.950 . S
H2058 C2066 0.950 . S
H2059 C2068 0.950 . S
H2060 C2070 0.950 . S
H2061 C2072 0.950 . S
H2062 C2074 0.950 . S
H2063 C2075 0.950 . S
C2064 H2056 0.950 . S
C2064 C2065 1.386 . S
C2064 C2066 1.391 . S
C2065 C2064 1.386 . S
C2065 C2069 1.393 . S
C2066 H2058 0.950 . S
C2066 C2064 1.391 . S
C2066 C2067 1.400 . S
C2067 C2066 1.400 . S
C2067 C2068 1.398 . S
C2067 C2073 1.491 . S
C2068 H2059 0.950 . S
C2068 C2067 1.398 . S
C2068 C2069 1.391 . S
C2069 H2057 0.950 . S
C2069 C2065 1.393 . S
C2069 C2068 1.391 . S
C2070 H2060 0.950 . S
C2070 C2071 1.386 . S
C2070 C2072 1.391 . S
C2071 C2070 1.386 . S
C2071 C2075 1.393 . S
C2072 H2061 0.950 . S
C2072 C2070 1.391 . S
C2072 C2073 1.400 . S
C2073 C2067 1.491 . S
C2073 C2072 1.400 . S
C2073 C2074 1.398 . S
C2074 H2062 0.950 . S
C2074 C2073 1.398 . S
C2074 C2075 1.391 . S
C2075 H2063 0.950 . S
C2075 C2071 1.393 . S
C2075 C2074 1.391 . S
H2076 C2084 0.950 . S
H2077 C2089 0.950 . S
H2078 C2086 0.950 . S
H2079 C2088 0.950 . S
H2080 C2090 0.950 . S
H2081 C2092 0.950 . S
H2082 C2094 0.950 . S
H2083 C2095 0.950 . S
C2084 H2076 0.950 . S
C2084 C2085 1.386 . S
C2084 C2086 1.391 . S
C2085 C2084 1.386 . S
C2085 C2089 1.393 . S
C2086 H2078 0.950 . S
C2086 C2084 1.391 . S
C2086 C2087 1.400 . S
C2087 C2086 1.400 . S
C2087 C2088 1.398 . S
C2087 C2093 1.491 . S
C2088 H2079 0.950 . S
C2088 C2087 1.398 . S
C2088 C2089 1.391 . S
C2089 H2077 0.950 . S
C2089 C2085 1.393 . S
C2089 C2088 1.391 . S
C2090 H2080 0.950 . S
C2090 C2091 1.386 . S
C2090 C2092 1.391 . S
C2091 C2090 1.386 . S
C2091 C2095 1.393 . S
C2092 H2081 0.950 . S
C2092 C2090 1.391 . S
C2092 C2093 1.400 . S
C2093 C2087 1.491 . S
C2093 C2092 1.400 . S
C2093 C2094 1.398 . S
C2094 H2082 0.950 . S
C2094 C2093 1.398 . S
C2094 C2095 1.391 . S
C2095 H2083 0.950 . S
C2095 C2091 1.393 . S
C2095 C2094 1.391 . S
H2096 C2104 0.950 . S
H2097 C2109 0.950 . S
H2098 C2106 0.950 . S
H2099 C2108 0.950 . S
H2100 C2110 0.950 . S
H2101 C2112 0.950 . S
H2102 C2114 0.950 . S
H2103 C2115 0.950 . S
C2104 H2096 0.950 . S
C2104 C2105 1.386 . S
C2104 C2106 1.391 . S
C2105 C2104 1.386 . S
C2105 C2109 1.393 . S
C2106 H2098 0.950 . S
C2106 C2104 1.391 . S
C2106 C2107 1.400 . S
C2107 C2106 1.400 . S
C2107 C2108 1.398 . S
C2107 C2113 1.491 . S
C2108 H2099 0.950 . S
C2108 C2107 1.398 . S
C2108 C2109 1.391 . S
C2109 H2097 0.950 . S
C2109 C2105 1.393 . S
C2109 C2108 1.391 . S
C2110 H2100 0.950 . S
C2110 C2111 1.386 . S
C2110 C2112 1.391 . S
C2111 C2110 1.386 . S
C2111 C2115 1.393 . S
C2112 H2101 0.950 . S
C2112 C2110 1.391 . S
C2112 C2113 1.400 . S
C2113 C2107 1.491 . S
C2113 C2112 1.400 . S
C2113 C2114 1.398 . S
C2114 H2102 0.950 . S
C2114 C2113 1.398 . S
C2114 C2115 1.391 . S
C2115 H2103 0.950 . S
C2115 C2111 1.393 . S
C2115 C2114 1.391 . S
H2116 C2124 0.950 . S
H2117 C2129 0.950 . S
H2118 C2126 0.950 . S
H2119 C2128 0.950 . S
H2120 C2130 0.950 . S
H2121 C2132 0.950 . S
H2122 C2134 0.950 . S
H2123 C2135 0.950 . S
C2124 H2116 0.950 . S
C2124 C2125 1.386 . S
C2124 C2126 1.391 . S
C2125 C2124 1.386 . S
C2125 C2129 1.393 . S
C2126 H2118 0.950 . S
C2126 C2124 1.391 . S
C2126 C2127 1.400 . S
C2127 C2126 1.400 . S
C2127 C2128 1.398 . S
C2127 C2133 1.491 . S
C2128 H2119 0.950 . S
C2128 C2127 1.398 . S
C2128 C2129 1.391 . S
C2129 H2117 0.950 . S
C2129 C2125 1.393 . S
C2129 C2128 1.391 . S
C2130 H2120 0.950 . S
C2130 C2131 1.386 . S
C2130 C2132 1.391 . S
C2131 C2130 1.386 . S
C2131 C2135 1.393 . S
C2132 H2121 0.950 . S
C2132 C2130 1.391 . S
C2132 C2133 1.400 . S
C2133 C2127 1.491 . S
C2133 C2132 1.400 . S
C2133 C2134 1.398 . S
C2134 H2122 0.950 . S
C2134 C2133 1.398 . S
C2134 C2135 1.391 . S
C2135 H2123 0.950 . S
C2135 C2131 1.393 . S
C2135 C2134 1.391 . S
H2136 C2144 0.950 . S
H2137 C2149 0.950 . S
H2138 C2146 0.950 . S
H2139 C2148 0.950 . S
H2140 C2150 0.950 . S
H2141 C2152 0.950 . S
H2142 C2154 0.950 . S
H2143 C2155 0.950 . S
C2144 H2136 0.950 . S
C2144 C2145 1.386 . S
C2144 C2146 1.391 . S
C2145 C2144 1.386 . S
C2145 C2149 1.393 . S
C2146 H2138 0.950 . S
C2146 C2144 1.391 . S
C2146 C2147 1.400 . S
C2147 C2146 1.400 . S
C2147 C2148 1.398 . S
C2147 C2153 1.491 . S
C2148 H2139 0.950 . S
C2148 C2147 1.398 . S
C2148 C2149 1.391 . S
C2149 H2137 0.950 . S
C2149 C2145 1.393 . S
C2149 C2148 1.391 . S
C2150 H2140 0.950 . S
C2150 C2151 1.386 . S
C2150 C2152 1.391 . S
C2151 C2150 1.386 . S
C2151 C2155 1.393 . S
C2152 H2141 0.950 . S
C2152 C2150 1.391 . S
C2152 C2153 1.400 . S
C2153 C2147 1.491 . S
C2153 C2152 1.400 . S
C2153 C2154 1.398 . S
C2154 H2142 0.950 . S
C2154 C2153 1.398 . S
C2154 C2155 1.391 . S
C2155 H2143 0.950 . S
C2155 C2151 1.393 . S
C2155 C2154 1.391 . S
H2156 C2164 0.950 . S
H2157 C2169 0.950 . S
H2158 C2166 0.950 . S
H2159 C2168 0.950 . S
H2160 C2170 0.950 . S
H2161 C2172 0.950 . S
H2162 C2174 0.950 . S
H2163 C2175 0.950 . S
C2164 H2156 0.950 . S
C2164 C2165 1.386 . S
C2164 C2166 1.391 . S
C2165 C2164 1.386 . S
C2165 C2169 1.393 . S
C2166 H2158 0.950 . S
C2166 C2164 1.391 . S
C2166 C2167 1.400 . S
C2167 C2166 1.400 . S
C2167 C2168 1.398 . S
C2167 C2173 1.491 . S
C2168 H2159 0.950 . S
C2168 C2167 1.398 . S
C2168 C2169 1.391 . S
C2169 H2157 0.950 . S
C2169 C2165 1.393 . S
C2169 C2168 1.391 . S
C2170 H2160 0.950 . S
C2170 C2171 1.386 . S
C2170 C2172 1.391 . S
C2171 C2170 1.386 . S
C2171 C2175 1.393 . S
C2172 H2161 0.950 . S
C2172 C2170 1.391 . S
C2172 C2173 1.400 . S
C2173 C2167 1.491 . S
C2173 C2172 1.400 . S
C2173 C2174 1.398 . S
C2174 H2162 0.950 . S
C2174 C2173 1.398 . S
C2174 C2175 1.391 . S
C2175 H2163 0.950 . S
C2175 C2171 1.393 . S
C2175 C2174 1.391 . S
H2176 C2184 0.950 . S
H2177 C2189 0.950 . S
H2178 C2186 0.950 . S
H2179 C2188 0.950 . S
H2180 C2190 0.950 1_554 S
H2181 C2192 0.950 . S
H2182 C2194 0.950 . S
H2183 C2195 0.950 . S
C2184 H2176 0.950 . S
C2184 C2185 1.386 . S
C2184 C2186 1.391 . S
C2185 C2184 1.386 . S
C2185 C2189 1.393 . S
C2186 H2178 0.950 . S
C2186 C2184 1.391 . S
C2186 C2187 1.400 . S
C2187 C2186 1.400 . S
C2187 C2188 1.398 . S
C2187 C2193 1.491 . S
C2188 H2179 0.950 . S
C2188 C2187 1.398 . S
C2188 C2189 1.391 . S
C2189 H2177 0.950 . S
C2189 C2185 1.393 . S
C2189 C2188 1.391 . S
C2190 H2180 0.950 1_556 S
C2190 C2191 1.386 . S
C2190 C2192 1.391 . S
C2191 C2190 1.386 . S
C2191 C2195 1.393 . S
C2192 H2181 0.950 . S
C2192 C2190 1.391 . S
C2192 C2193 1.400 . S
C2193 C2187 1.491 . S
C2193 C2192 1.400 . S
C2193 C2194 1.398 . S
C2194 H2182 0.950 . S
C2194 C2193 1.398 . S
C2194 C2195 1.391 . S
C2195 H2183 0.950 . S
C2195 C2191 1.393 . S
C2195 C2194 1.391 . S
H2196 C2204 0.950 . S
H2197 C2209 0.950 . S
H2198 C2206 0.950 . S
H2199 C2208 0.950 . S
H2200 C2210 0.950 . S
H2201 C2212 0.950 . S
H2202 C2214 0.950 . S
H2203 C2215 0.950 . S
C2204 H2196 0.950 . S
C2204 C2205 1.386 . S
C2204 C2206 1.391 . S
C2205 C2204 1.386 . S
C2205 C2209 1.393 . S
C2206 H2198 0.950 . S
C2206 C2204 1.391 . S
C2206 C2207 1.400 . S
C2207 C2206 1.400 . S
C2207 C2208 1.398 . S
C2207 C2213 1.491 . S
C2208 H2199 0.950 . S
C2208 C2207 1.398 . S
C2208 C2209 1.391 . S
C2209 H2197 0.950 . S
C2209 C2205 1.393 . S
C2209 C2208 1.391 . S
C2210 H2200 0.950 . S
C2210 C2211 1.386 . S
C2210 C2212 1.391 . S
C2211 C2210 1.386 . S
C2211 C2215 1.393 . S
C2212 H2201 0.950 . S
C2212 C2210 1.391 . S
C2212 C2213 1.400 . S
C2213 C2207 1.491 . S
C2213 C2212 1.400 . S
C2213 C2214 1.398 . S
C2214 H2202 0.950 . S
C2214 C2213 1.398 . S
C2214 C2215 1.391 . S
C2215 H2203 0.950 . S
C2215 C2211 1.393 . S
C2215 C2214 1.391 . S
H2216 C2224 0.950 . S
H2217 C2229 0.950 . S
H2218 C2226 0.950 . S
H2219 C2228 0.950 . S
H2220 C2230 0.950 . S
H2221 C2232 0.950 . S
H2222 C2234 0.950 . S
H2223 C2235 0.936 1_655 S
C2224 H2216 0.950 . S
C2224 C2225 1.386 . S
C2224 C2226 1.391 . S
C2225 C2224 1.386 . S
C2225 C2229 1.393 . S
C2226 H2218 0.950 . S
C2226 C2224 1.391 . S
C2226 C2227 1.400 . S
C2227 C2226 1.400 . S
C2227 C2228 1.398 . S
C2227 C2233 1.491 . S
C2228 H2219 0.950 . S
C2228 C2227 1.398 . S
C2228 C2229 1.391 . S
C2229 H2217 0.950 . S
C2229 C2225 1.393 . S
C2229 C2228 1.391 . S
C2230 H2220 0.950 . S
C2230 C2231 1.386 . S
C2230 C2232 1.391 . S
C2231 C2230 1.386 . S
C2231 C2235 1.393 . S
C2232 H2221 0.950 . S
C2232 C2230 1.391 . S
C2232 C2233 1.400 . S
C2233 C2227 1.491 . S
C2233 C2232 1.400 . S
C2233 C2234 1.398 . S
C2234 H2222 0.950 . S
C2234 C2233 1.398 . S
C2234 C2235 1.391 . S
C2235 H2223 0.936 1_455 S
C2235 C2231 1.393 . S
C2235 C2234 1.391 . S
H2236 C2244 0.950 . S
H2237 C2249 0.950 . S
H2238 C2246 0.950 . S
H2239 C2248 0.950 . S
H2240 C2250 0.950 . S
H2241 C2252 0.950 . S
H2242 C2254 0.950 . S
H2243 C2255 0.950 . S
C2244 H2236 0.950 . S
C2244 C2245 1.386 . S
C2244 C2246 1.391 . S
C2245 C2244 1.386 . S
C2245 C2249 1.393 . S
C2246 H2238 0.950 . S
C2246 C2244 1.391 . S
C2246 C2247 1.400 . S
C2247 C2246 1.400 . S
C2247 C2248 1.398 . S
C2247 C2253 1.491 . S
C2248 H2239 0.950 . S
C2248 C2247 1.398 . S
C2248 C2249 1.391 . S
C2249 H2237 0.950 . S
C2249 C2245 1.393 . S
C2249 C2248 1.391 . S
C2250 H2240 0.950 . S
C2250 C2251 1.386 . S
C2250 C2252 1.391 . S
C2251 C2250 1.386 . S
C2251 C2255 1.393 . S
C2252 H2241 0.950 . S
C2252 C2250 1.391 . S
C2252 C2253 1.400 . S
C2253 C2247 1.491 . S
C2253 C2252 1.400 . S
C2253 C2254 1.398 . S
C2254 H2242 0.950 . S
C2254 C2253 1.398 . S
C2254 C2255 1.391 . S
C2255 H2243 0.950 . S
C2255 C2251 1.393 . S
C2255 C2254 1.391 . S
H2256 C2264 0.950 . S
H2257 C2269 0.950 . S
H2258 C2266 0.950 . S
H2259 C2268 0.950 . S
H2260 C2270 0.950 . S
H2261 C2272 0.950 . S
H2262 C2274 0.950 . S
H2263 C2275 0.950 . S
C2264 H2256 0.950 . S
C2264 C2265 1.386 . S
C2264 C2266 1.391 . S
C2265 C2264 1.386 . S
C2265 C2269 1.393 . S
C2266 H2258 0.950 . S
C2266 C2264 1.391 . S
C2266 C2267 1.400 . S
C2267 C2266 1.400 . S
C2267 C2268 1.398 . S
C2267 C2273 1.491 . S
C2268 H2259 0.950 . S
C2268 C2267 1.398 . S
C2268 C2269 1.391 . S
C2269 H2257 0.950 . S
C2269 C2265 1.393 . S
C2269 C2268 1.391 . S
C2270 H2260 0.950 . S
C2270 C2271 1.386 . S
C2270 C2272 1.391 . S
C2271 C2270 1.386 . S
C2271 C2275 1.393 . S
C2272 H2261 0.950 . S
C2272 C2270 1.391 . S
C2272 C2273 1.400 . S
C2273 C2267 1.491 . S
C2273 C2272 1.400 . S
C2273 C2274 1.398 . S
C2274 H2262 0.950 . S
C2274 C2273 1.398 . S
C2274 C2275 1.391 . S
C2275 H2263 0.950 . S
C2275 C2271 1.393 . S
C2275 C2274 1.391 . S
H2276 C2284 0.950 . S
H2277 C2289 0.950 . S
H2278 C2286 0.950 . S
H2279 C2288 0.950 . S
H2280 C2290 0.950 . S
H2281 C2292 0.950 . S
H2282 C2294 0.950 . S
H2283 C2295 0.950 . S
C2284 H2276 0.950 . S
C2284 C2285 1.386 . S
C2284 C2286 1.391 . S
C2285 C2284 1.386 . S
C2285 C2289 1.393 . S
C2286 H2278 0.950 . S
C2286 C2284 1.391 . S
C2286 C2287 1.400 . S
C2287 C2286 1.400 . S
C2287 C2288 1.398 . S
C2287 C2293 1.491 . S
C2288 H2279 0.950 . S
C2288 C2287 1.398 . S
C2288 C2289 1.391 . S
C2289 H2277 0.950 . S
C2289 C2285 1.393 . S
C2289 C2288 1.391 . S
C2290 H2280 0.950 . S
C2290 C2291 1.386 . S
C2290 C2292 1.391 . S
C2291 C2290 1.386 . S
C2291 C2295 1.393 . S
C2292 H2281 0.950 . S
C2292 C2290 1.391 . S
C2292 C2293 1.400 . S
C2293 C2287 1.491 . S
C2293 C2292 1.400 . S
C2293 C2294 1.398 . S
C2294 H2282 0.950 . S
C2294 C2293 1.398 . S
C2294 C2295 1.391 . S
C2295 H2283 0.950 . S
C2295 C2291 1.393 . S
C2295 C2294 1.391 . S
H2296 C2304 0.950 . S
H2297 C2309 0.950 . S
H2298 C2306 0.950 . S
H2299 C2308 0.950 . S
H2300 C2310 0.950 . S
H2301 C2312 0.950 . S
H2302 C2314 0.950 1_455 S
H2303 C2315 0.950 . S
C2304 H2296 0.950 . S
C2304 C2305 1.386 . S
C2304 C2306 1.391 . S
C2305 C2304 1.386 . S
C2305 C2309 1.393 . S
C2306 H2298 0.950 . S
C2306 C2304 1.391 . S
C2306 C2307 1.400 . S
C2307 C2306 1.400 . S
C2307 C2308 1.398 . S
C2307 C2313 1.491 . S
C2308 H2299 0.950 . S
C2308 C2307 1.398 . S
C2308 C2309 1.391 . S
C2309 H2297 0.950 . S
C2309 C2305 1.393 . S
C2309 C2308 1.391 . S
C2310 H2300 0.950 . S
C2310 C2311 1.386 . S
C2310 C2312 1.391 . S
C2311 C2310 1.386 . S
C2311 C2315 1.393 1_655 S
C2312 H2301 0.950 . S
C2312 C2310 1.391 . S
C2312 C2313 1.400 . S
C2313 C2307 1.491 . S
C2313 C2312 1.400 . S
C2313 C2314 1.398 . S
C2314 H2302 0.950 1_655 S
C2314 C2313 1.398 . S
C2314 C2315 1.391 1_655 S
C2315 H2303 0.950 . S
C2315 C2311 1.393 1_455 S
C2315 C2314 1.391 1_455 S
H2316 C2324 0.950 . S
H2317 C2329 0.950 . S
H2318 C2326 0.950 . S
H2319 C2328 0.950 . S
H2320 C2330 0.950 . S
H2321 C2332 0.950 . S
H2322 C2334 0.950 . S
H2323 C2335 0.950 . S
C2324 H2316 0.950 . S
C2324 C2325 1.386 . S
C2324 C2326 1.391 . S
C2325 C2324 1.386 . S
C2325 C2329 1.393 . S
C2326 H2318 0.950 . S
C2326 C2324 1.391 . S
C2326 C2327 1.400 . S
C2327 C2326 1.400 . S
C2327 C2328 1.398 . S
C2327 C2333 1.491 . S
C2328 H2319 0.950 . S
C2328 C2327 1.398 . S
C2328 C2329 1.391 . S
C2329 H2317 0.950 . S
C2329 C2325 1.393 . S
C2329 C2328 1.391 . S
C2330 H2320 0.950 . S
C2330 C2331 1.386 . S
C2330 C2332 1.391 . S
C2331 C2330 1.386 . S
C2331 C2335 1.393 . S
C2332 H2321 0.950 . S
C2332 C2330 1.391 . S
C2332 C2333 1.400 . S
C2333 C2327 1.491 . S
C2333 C2332 1.400 . S
C2333 C2334 1.398 . S
C2334 H2322 0.950 . S
C2334 C2333 1.398 . S
C2334 C2335 1.391 . S
C2335 H2323 0.950 . S
C2335 C2331 1.393 . S
C2335 C2334 1.391 . S
H2336 C2344 0.950 . S
H2337 C2349 0.950 . S
H2338 C2346 0.950 . S
H2339 C2348 0.950 . S
H2340 C2350 0.950 . S
H2341 C2352 0.950 . S
H2342 C2354 0.950 . S
H2343 C2355 0.950 . S
C2344 H2336 0.950 . S
C2344 C2345 1.386 . S
C2344 C2346 1.391 . S
C2345 C2344 1.386 . S
C2345 C2349 1.393 . S
C2346 H2338 0.950 . S
C2346 C2344 1.391 . S
C2346 C2347 1.400 . S
C2347 C2346 1.400 . S
C2347 C2348 1.398 . S
C2347 C2353 1.491 . S
C2348 H2339 0.950 . S
C2348 C2347 1.398 . S
C2348 C2349 1.391 . S
C2349 H2337 0.950 . S
C2349 C2345 1.393 . S
C2349 C2348 1.391 . S
C2350 H2340 0.950 . S
C2350 C2351 1.386 . S
C2350 C2352 1.391 . S
C2351 C2350 1.386 . S
C2351 C2355 1.393 . S
C2352 H2341 0.950 . S
C2352 C2350 1.391 . S
C2352 C2353 1.400 . S
C2353 C2347 1.491 . S
C2353 C2352 1.400 . S
C2353 C2354 1.398 . S
C2354 H2342 0.950 . S
C2354 C2353 1.398 . S
C2354 C2355 1.391 . S
C2355 H2343 0.950 . S
C2355 C2351 1.393 . S
C2355 C2354 1.391 . S
H2356 C2364 0.950 . S
H2357 C2369 0.950 . S
H2358 C2366 0.950 . S
H2359 C2368 0.950 . S
H2360 C2370 0.950 . S
H2361 C2372 0.950 . S
H2362 C2374 0.950 . S
H2363 C2375 0.950 . S
C2364 H2356 0.950 . S
C2364 C2365 1.386 . S
C2364 C2366 1.391 . S
C2365 C2364 1.386 . S
C2365 C2369 1.393 . S
C2366 H2358 0.950 . S
C2366 C2364 1.391 . S
C2366 C2367 1.400 . S
C2367 C2366 1.400 . S
C2367 C2368 1.398 . S
C2367 C2373 1.491 . S
C2368 H2359 0.950 . S
C2368 C2367 1.398 . S
C2368 C2369 1.391 . S
C2369 H2357 0.950 . S
C2369 C2365 1.393 . S
C2369 C2368 1.391 . S
C2370 H2360 0.950 . S
C2370 C2371 1.386 . S
C2370 C2372 1.391 . S
C2371 C2370 1.386 . S
C2371 C2375 1.393 . S
C2372 H2361 0.950 . S
C2372 C2370 1.391 . S
C2372 C2373 1.400 . S
C2373 C2367 1.491 . S
C2373 C2372 1.400 . S
C2373 C2374 1.398 . S
C2374 H2362 0.950 . S
C2374 C2373 1.398 . S
C2374 C2375 1.391 . S
C2375 H2363 0.950 . S
C2375 C2371 1.393 . S
C2375 C2374 1.391 . S
H2376 C2384 0.950 . S
H2377 C2389 0.950 . S
H2378 C2386 0.950 . S
H2379 C2388 0.950 . S
H2380 C2390 0.950 . S
H2381 C2392 0.950 . S
H2382 C2394 0.950 . S
H2383 C2395 0.950 . S
C2384 H2376 0.950 . S
C2384 C2385 1.386 . S
C2384 C2386 1.391 . S
C2385 C2384 1.386 . S
C2385 C2389 1.393 . S
C2386 H2378 0.950 . S
C2386 C2384 1.391 . S
C2386 C2387 1.400 . S
C2387 C2386 1.400 . S
C2387 C2388 1.398 . S
C2387 C2393 1.491 . S
C2388 H2379 0.950 . S
C2388 C2387 1.398 . S
C2388 C2389 1.391 . S
C2389 H2377 0.950 . S
C2389 C2385 1.393 . S
C2389 C2388 1.391 . S
C2390 H2380 0.950 . S
C2390 C2391 1.386 . S
C2390 C2392 1.391 . S
C2391 C2390 1.386 . S
C2391 C2395 1.393 . S
C2392 H2381 0.950 . S
C2392 C2390 1.391 . S
C2392 C2393 1.400 . S
C2393 C2387 1.491 . S
C2393 C2392 1.400 . S
C2393 C2394 1.398 . S
C2394 H2382 0.950 . S
C2394 C2393 1.398 . S
C2394 C2395 1.391 . S
C2395 H2383 0.950 . S
C2395 C2391 1.393 . S
C2395 C2394 1.391 . S
H2396 C2404 0.950 . S
H2397 C2409 0.950 . S
H2398 C2406 0.950 . S
H2399 C2408 0.950 . S
H2400 C2410 0.950 . S
H2401 C2412 0.950 . S
H2402 C2414 0.950 . S
H2403 C2415 0.950 . S
C2404 H2396 0.950 . S
C2404 C2405 1.386 . S
C2404 C2406 1.391 . S
C2405 C2404 1.386 . S
C2405 C2409 1.393 . S
C2406 H2398 0.950 . S
C2406 C2404 1.391 . S
C2406 C2407 1.400 . S
C2407 C2406 1.400 . S
C2407 C2408 1.398 . S
C2407 C2413 1.491 . S
C2408 H2399 0.950 . S
C2408 C2407 1.398 . S
C2408 C2409 1.391 . S
C2409 H2397 0.950 . S
C2409 C2405 1.393 . S
C2409 C2408 1.391 . S
C2410 H2400 0.950 . S
C2410 C2411 1.386 . S
C2410 C2412 1.391 . S
C2411 C2410 1.386 . S
C2411 C2415 1.393 . S
C2412 H2401 0.950 . S
C2412 C2410 1.391 . S
C2412 C2413 1.400 . S
C2413 C2407 1.491 . S
C2413 C2412 1.400 . S
C2413 C2414 1.398 . S
C2414 H2402 0.950 . S
C2414 C2413 1.398 . S
C2414 C2415 1.391 . S
C2415 H2403 0.950 . S
C2415 C2411 1.393 . S
C2415 C2414 1.391 . S
H2416 C2424 0.950 . S
H2417 C2429 0.950 . S
H2418 C2426 0.950 . S
H2419 C2428 0.950 . S
H2420 C2430 0.950 . S
H2421 C2432 0.950 . S
H2422 C2434 0.950 . S
H2423 C2435 0.950 . S
C2424 H2416 0.950 . S
C2424 C2425 1.386 . S
C2424 C2426 1.391 . S
C2425 C2424 1.386 . S
C2425 C2429 1.393 . S
C2426 H2418 0.950 . S
C2426 C2424 1.391 . S
C2426 C2427 1.400 . S
C2427 C2426 1.400 . S
C2427 C2428 1.398 . S
C2427 C2433 1.491 . S
C2428 H2419 0.950 . S
C2428 C2427 1.398 . S
C2428 C2429 1.391 . S
C2429 H2417 0.950 . S
C2429 C2425 1.393 . S
C2429 C2428 1.391 . S
C2430 H2420 0.950 . S
C2430 C2431 1.386 . S
C2430 C2432 1.391 . S
C2431 C2430 1.386 . S
C2431 C2435 1.393 . S
C2432 H2421 0.950 . S
C2432 C2430 1.391 . S
C2432 C2433 1.400 . S
C2433 C2427 1.491 . S
C2433 C2432 1.400 . S
C2433 C2434 1.398 . S
C2434 H2422 0.950 . S
C2434 C2433 1.398 . S
C2434 C2435 1.391 . S
C2435 H2423 0.950 . S
C2435 C2431 1.393 . S
C2435 C2434 1.391 . S
H2436 C2444 0.950 . S
H2437 C2449 0.950 . S
H2438 C2446 0.950 . S
H2439 C2448 0.950 . S
H2440 C2450 0.948 . S
H2441 C2452 0.950 . S
H2442 C2454 0.950 . S
H2443 C2455 0.950 . S
C2444 H2436 0.950 . S
C2444 C2445 1.386 . S
C2444 C2446 1.391 . S
C2445 C2444 1.386 . S
C2445 C2449 1.393 . S
C2446 H2438 0.950 . S
C2446 C2444 1.391 . S
C2446 C2447 1.400 . S
C2447 C2446 1.400 . S
C2447 C2448 1.398 . S
C2447 C2453 1.491 . S
C2448 H2439 0.950 . S
C2448 C2447 1.398 . S
C2448 C2449 1.391 . S
C2449 H2437 0.950 . S
C2449 C2445 1.393 . S
C2449 C2448 1.391 . S
C2450 H2440 0.948 . S
C2450 C2451 1.387 1_545 S
C2450 C2452 1.392 1_545 S
C2451 C2450 1.387 1_565 S
C2451 C2455 1.393 . S
C2452 H2441 0.950 . S
C2452 C2450 1.392 1_565 S
C2452 C2453 1.400 . S
C2453 C2447 1.491 . S
C2453 C2452 1.400 . S
C2453 C2454 1.398 . S
C2454 H2442 0.950 . S
C2454 C2453 1.398 . S
C2454 C2455 1.391 . S
C2455 H2443 0.950 . S
C2455 C2451 1.393 . S
C2455 C2454 1.391 . S
H2456 C2464 0.950 . S
H2457 C2469 0.950 . S
H2458 C2466 0.950 . S
H2459 C2468 0.950 . S
H2460 C2470 0.950 . S
H2461 C2472 0.950 . S
H2462 C2474 0.950 . S
H2463 C2475 0.950 . S
C2464 H2456 0.950 . S
C2464 C2465 1.386 . S
C2464 C2466 1.391 . S
C2465 C2464 1.386 . S
C2465 C2469 1.393 . S
C2466 H2458 0.950 . S
C2466 C2464 1.391 . S
C2466 C2467 1.400 . S
C2467 C2466 1.400 . S
C2467 C2468 1.398 . S
C2467 C2473 1.491 . S
C2468 H2459 0.950 . S
C2468 C2467 1.398 . S
C2468 C2469 1.391 . S
C2469 H2457 0.950 . S
C2469 C2465 1.393 . S
C2469 C2468 1.391 . S
C2470 H2460 0.950 . S
C2470 C2471 1.386 . S
C2470 C2472 1.391 . S
C2471 C2470 1.386 . S
C2471 C2475 1.393 . S
C2472 H2461 0.950 . S
C2472 C2470 1.391 . S
C2472 C2473 1.400 . S
C2473 C2467 1.491 . S
C2473 C2472 1.400 . S
C2473 C2474 1.398 . S
C2474 H2462 0.950 . S
C2474 C2473 1.398 . S
C2474 C2475 1.391 . S
C2475 H2463 0.950 . S
C2475 C2471 1.393 . S
C2475 C2474 1.391 . S
H2476 C2484 0.950 1_556 S
H2477 C2489 0.950 . S
H2478 C2486 0.950 1_556 S
H2479 C2488 0.950 . S
H2480 C2490 0.950 . S
H2481 C2492 0.950 . S
H2482 C2494 0.950 1_556 S
H2483 C2495 0.950 1_556 S
C2484 H2476 0.950 1_554 S
C2484 C2485 1.386 . S
C2484 C2486 1.391 . S
C2485 C2484 1.386 . S
C2485 C2489 1.393 . S
C2486 H2478 0.950 1_554 S
C2486 C2484 1.391 . S
C2486 C2487 1.400 . S
C2487 C2486 1.400 . S
C2487 C2488 1.398 . S
C2487 C2493 1.491 . S
C2488 H2479 0.950 . S
C2488 C2487 1.398 . S
C2488 C2489 1.391 . S
C2489 H2477 0.950 . S
C2489 C2485 1.393 . S
C2489 C2488 1.391 . S
C2490 H2480 0.950 . S
C2490 C2491 1.386 . S
C2490 C2492 1.391 . S
C2491 C2490 1.386 . S
C2491 C2495 1.393 . S
C2492 H2481 0.950 . S
C2492 C2490 1.391 . S
C2492 C2493 1.400 . S
C2493 C2487 1.491 . S
C2493 C2492 1.400 . S
C2493 C2494 1.398 . S
C2494 H2482 0.950 1_554 S
C2494 C2493 1.398 . S
C2494 C2495 1.391 . S
C2495 H2483 0.950 1_554 S
C2495 C2491 1.393 . S
C2495 C2494 1.391 . S
H2496 C2504 0.950 . S
H2497 C2509 0.950 . S
H2498 C2506 0.950 . S
H2499 C2508 0.950 . S
H2500 C2510 0.950 . S
H2501 C2512 0.950 . S
H2502 C2514 0.950 . S
H2503 C2515 0.950 . S
C2504 H2496 0.950 . S
C2504 C2505 1.386 . S
C2504 C2506 1.391 . S
C2505 C2504 1.386 . S
C2505 C2509 1.393 . S
C2506 H2498 0.950 . S
C2506 C2504 1.391 . S
C2506 C2507 1.400 . S
C2507 C2506 1.400 . S
C2507 C2508 1.398 . S
C2507 C2513 1.491 . S
C2508 H2499 0.950 . S
C2508 C2507 1.398 . S
C2508 C2509 1.391 . S
C2509 H2497 0.950 . S
C2509 C2505 1.393 . S
C2509 C2508 1.391 . S
C2510 H2500 0.950 . S
C2510 C2511 1.386 . S
C2510 C2512 1.391 . S
C2511 C2510 1.386 . S
C2511 C2515 1.393 . S
C2512 H2501 0.950 . S
C2512 C2510 1.391 . S
C2512 C2513 1.400 . S
C2513 C2507 1.491 . S
C2513 C2512 1.400 . S
C2513 C2514 1.398 . S
C2514 H2502 0.950 . S
C2514 C2513 1.398 . S
C2514 C2515 1.391 . S
C2515 H2503 0.950 . S
C2515 C2511 1.393 . S
C2515 C2514 1.391 . S
H2516 C2524 0.950 . S
H2517 C2529 0.950 . S
H2518 C2526 0.950 1_556 S
H2519 C2528 0.950 . S
H2520 C2530 0.950 . S
H2521 C2532 0.950 . S
H2522 C2534 0.950 . S
H2523 C2535 0.950 . S
C2524 H2516 0.950 . S
C2524 C2525 1.386 . S
C2524 C2526 1.391 . S
C2525 C2524 1.386 . S
C2525 C2529 1.393 . S
C2526 H2518 0.950 1_554 S
C2526 C2524 1.391 . S
C2526 C2527 1.400 . S
C2527 C2526 1.400 . S
C2527 C2528 1.398 . S
C2527 C2533 1.491 . S
C2528 H2519 0.950 . S
C2528 C2527 1.398 . S
C2528 C2529 1.391 . S
C2529 H2517 0.950 . S
C2529 C2525 1.393 . S
C2529 C2528 1.391 . S
C2530 H2520 0.950 . S
C2530 C2531 1.386 . S
C2530 C2532 1.391 . S
C2531 C2530 1.386 . S
C2531 C2535 1.393 1_554 S
C2532 H2521 0.950 . S
C2532 C2530 1.391 . S
C2532 C2533 1.400 . S
C2533 C2527 1.491 . S
C2533 C2532 1.400 . S
C2533 C2534 1.398 1_554 S
C2534 H2522 0.950 . S
C2534 C2533 1.398 1_556 S
C2534 C2535 1.391 . S
C2535 H2523 0.950 . S
C2535 C2531 1.393 1_556 S
C2535 C2534 1.391 . S
H2536 C2544 0.950 . S
H2537 C2549 0.950 . S
H2538 C2546 0.950 . S
H2539 C2548 0.950 . S
H2540 C2550 0.950 . S
H2541 C2552 0.950 . S
H2542 C2554 0.950 . S
H2543 C2555 0.950 . S
C2544 H2536 0.950 . S
C2544 C2545 1.386 . S
C2544 C2546 1.391 . S
C2545 C2544 1.386 . S
C2545 C2549 1.393 . S
C2546 H2538 0.950 . S
C2546 C2544 1.391 . S
C2546 C2547 1.400 . S
C2547 C2546 1.400 . S
C2547 C2548 1.398 . S
C2547 C2553 1.491 . S
C2548 H2539 0.950 . S
C2548 C2547 1.398 . S
C2548 C2549 1.391 . S
C2549 H2537 0.950 . S
C2549 C2545 1.393 . S
C2549 C2548 1.391 . S
C2550 H2540 0.950 . S
C2550 C2551 1.386 . S
C2550 C2552 1.391 . S
C2551 C2550 1.386 . S
C2551 C2555 1.393 . S
C2552 H2541 0.950 . S
C2552 C2550 1.391 . S
C2552 C2553 1.400 . S
C2553 C2547 1.491 . S
C2553 C2552 1.400 . S
C2553 C2554 1.398 . S
C2554 H2542 0.950 . S
C2554 C2553 1.398 . S
C2554 C2555 1.391 . S
C2555 H2543 0.950 . S
C2555 C2551 1.393 . S
C2555 C2554 1.391 . S
H2556 C2564 0.950 . S
H2557 C2569 0.950 . S
H2558 C2566 0.950 . S
H2559 C2568 0.950 . S
H2560 C2570 0.950 . S
H2561 C2572 0.950 . S
H2562 C2574 0.950 . S
H2563 C2575 0.950 . S
C2564 H2556 0.950 . S
C2564 C2565 1.386 . S
C2564 C2566 1.391 . S
C2565 C2564 1.386 . S
C2565 C2569 1.393 . S
C2566 H2558 0.950 . S
C2566 C2564 1.391 . S
C2566 C2567 1.400 . S
C2567 C2566 1.400 . S
C2567 C2568 1.398 . S
C2567 C2573 1.491 . S
C2568 H2559 0.950 . S
C2568 C2567 1.398 . S
C2568 C2569 1.391 . S
C2569 H2557 0.950 . S
C2569 C2565 1.393 . S
C2569 C2568 1.391 . S
C2570 H2560 0.950 . S
C2570 C2571 1.386 . S
C2570 C2572 1.391 . S
C2571 C2570 1.386 . S
C2571 C2575 1.393 . S
C2572 H2561 0.950 . S
C2572 C2570 1.391 . S
C2572 C2573 1.400 . S
C2573 C2567 1.491 . S
C2573 C2572 1.400 . S
C2573 C2574 1.398 . S
C2574 H2562 0.950 . S
C2574 C2573 1.398 . S
C2574 C2575 1.391 . S
C2575 H2563 0.950 . S
C2575 C2571 1.393 . S
C2575 C2574 1.391 . S
C665 C109 1.300 . S
C671 C340 1.166 . S
C685 C61 1.248 . S
C691 C375 1.393 . S
C705 C74 1.070 . S
C711 C380 1.029 . S
C731 C405 1.412 . S
C725 C96 1.468 . S
C745 C25 1.375 . S
C751 C425 1.327 . S
C771 C440 0.935 . S
C765 C40 1.033 . S
C791 C475 1.473 . S
C785 C46 1.501 . S
C805 C5 1.071 . S
C811 C480 1.182 . S
C831 C355 1.364 . S
C825 C229 1.144 . S
C845 C249 0.977 . S
C851 C365 0.950 . S
C871 C395 1.296 . S
C865 C271 1.184 . S
C891 C400 1.201 . S
C885 C172 1.258 1_556 S
C905 C236 1.150 . S
C911 C420 1.063 . S
C931 C455 1.568 . S
C925 C242 1.592 . S
C951 C465 0.886 . S
C945 C278 0.946 . S
C971 C495 1.528 . S
C965 C179 1.559 . S
C991 C345 1.289 . S
C985 C159 1.113 . S
C1005 C285 1.494 . S
C1011 C515 1.639 . S
C1031 C525 1.342 . S
C1025 C333 1.414 . S
C1051 C540 0.943 . S
C1045 C320 1.006 . S
C1065 C123 1.320 . S
C1071 C485 1.224 . S
C1085 C138 1.542 . S
C1091 C385 1.436 . S
C1105 C326 1.809 . S
C1111 C575 1.782 . S
C1131 C580 1.021 . S
C1125 C298 1.074 . S
C1151 C338 1.121 . S
C1145 C67 1.274 . S
C1171 C594 1.348 . S
C1165 C110 1.387 . S
C1185 C88 1.075 . S
C1191 C378 0.999 . S
C1205 C75 1.206 . S
C1211 C568 1.317 . S
C1231 C428 1.288 . S
C1225 C11 1.321 . S
C1245 C47 0.901 . S
C1251 C518 0.950 . S
C1271 C474 1.409 1_556 S
C1265 C32 1.365 . S
C1291 C598 1.200 . S
C1285 C26 1.384 . S
C1311 C354 1.470 1_565 S
C1305 C152 1.555 . S
C1331 C588 0.968 . S
C1325 C319 0.967 . S
C1345 C124 1.306 . S
C1351 C394 1.267 . S
C1365 C284 1.286 . S
C1371 C558 1.200 . S
C1385 C145 1.018 1_545 S
C1391 C418 1.010 . S
C1411 C534 1.473 . S
C1405 C312 1.435 . S
C1425 C117 0.820 . S
C1431 C468 0.792 . S
C1445 C291 1.485 . S
C1451 C614 1.426 . S
C1465 C194 1.445 . S
C1471 C348 1.321 1_556 S
C1485 C180 1.634 . S
C1491 C514 1.612 . S
C1505 C263 1.284 . S
C1511 C448 1.226 . S
C1525 C243 0.895 . S
C1531 C538 0.883 . S
C1551 C608 1.209 . S
C1545 C277 1.321 . S
C1565 C215 1.306 . S
C1571 C388 1.399 . S
C1591 C414 1.707 . S
C1585 C256 1.645 . S
C1611 C358 1.093 . S
C1605 C200 1.139 . S
C1625 C81 1.301 . S
C1631 C620 1.149 . S
C1651 C595 1.414 . S
C1645 C89 1.295 . S
C1665 C102 1.049 1_455 S
C1671 C640 0.983 . S
C1685 C68 1.469 . S
C1691 C565 1.392 . S
C1705 C53 1.366 . S
C1711 C505 1.334 . S
C1731 C520 0.968 . S
C1725 C12 1.037 . S
C1751 C555 1.492 . S
C1745 C18 1.512 1_455 S
C1771 C600 1.159 . S
C1765 C33 1.033 . S
C1791 C635 1.384 . S
C1785 C257 1.201 . S
C1805 C193 0.980 . S
C1811 C585 0.928 . S
C1831 C655 1.289 . S
C1825 C201 1.177 . S
C1851 C560 1.197 . S
C1845 C214 1.256 . S
C1871 C500 1.093 . S
C1865 C264 1.155 . S
C1885 C186 1.592 . S
C1891 C535 1.564 . S
C1911 C545 0.924 . S
C1905 C208 0.942 . S
C1925 C221 1.571 . S
C1931 C615 1.511 . S
C1951 C625 1.249 . S
C1945 C313 1.069 . S
C1965 C131 1.496 . S
C1971 C435 1.643 . S
C1991 C445 1.320 . S
C1985 C151 1.409 . S
C2011 C460 0.922 . S
C2005 C166 1.010 . S
C2031 C605 1.195 . S
C2025 C305 1.323 . S
C2045 C292 1.544 . S
C2051 C645 1.433 . S
C2071 C415 1.796 . S
C2065 C144 1.816 . S
C2091 C360 0.995 . S
C2085 C116 1.053 . S
C2105 C95 1.291 . S
C2111 C618 1.151 . S
C2131 C374 1.361 . S
C2125 C82 1.387 . S
C2145 C60 1.090 . S
C2151 C638 1.001 . S
C2165 C103 1.205 . S
C2171 C408 1.316 . S
C2185 C39 1.327 . S
C2191 C508 1.291 . S
C2211 C438 0.928 . S
C2205 C19 0.946 . S
C2225 C4 1.367 . S
C2231 C554 1.405 . S
C2245 C54 1.383 . S
C2251 C478 1.176 . S
C2271 C634 1.465 . S
C2265 C334 1.553 . S
C2285 C165 0.983 . S
C2291 C368 0.973 . S
C2311 C654 1.264 1_655 S
C2305 C306 1.308 . S
C2325 C130 1.285 . S
C2331 C398 1.207 . S
C2345 C327 1.015 . S
C2351 C498 1.055 . S
C2371 C454 1.457 . S
C2365 C158 1.455 . S
C2385 C299 0.785 . S
C2391 C548 0.822 . S
C2411 C494 1.434 . S
C2405 C137 1.488 . S
C2431 C628 1.279 . S
C2425 C250 1.437 . S
C2451 C434 1.614 . S
C2445 C222 1.637 . S
C2465 C235 1.281 . S
C2471 C528 1.232 . S
C2491 C458 0.893 . S
C2485 C187 0.827 . S
C2505 C207 1.306 . S
C2511 C488 1.216 . S
C2525 C173 1.325 . S
C2531 C648 1.430 . S
C2551 C574 1.708 . S
C2545 C228 1.645 . S
C2571 C578 1.065 . S
C2565 C270 1.149 . S
