# Generated by pormake.
# Topology zzz, (3,6)-cn, num edge types: 1
# Building blocks:
#     Node 0, Type 0, BuildingBlock: WUSLED_clean_sbu_0, # of connection points: 3
#     Node 1, Type 0, BuildingBlock: WUSLED_clean_sbu_0, # of connection points: 3
#     Node 2, Type 0, BuildingBlock: WUSLED_clean_sbu_0, # of connection points: 3
#     Node 3, Type 0, BuildingBlock: WUSLED_clean_sbu_0, # of connection points: 3
#     Node 4, Type 0, BuildingBlock: WUSLED_clean_sbu_0, # of connection points: 3
#     Node 5, Type 0, BuildingBlock: WUSLED_clean_sbu_0, # of connection points: 3
#     Node 6, Type 0, BuildingBlock: WUSLED_clean_sbu_0, # of connection points: 3
#     Node 7, Type 0, BuildingBlock: WUSLED_clean_sbu_0, # of connection points: 3
#     Node 8, Type 1, BuildingBlock: NUHQIS_clean_sbu_0, # of connection points: 6
#     Node 9, Type 1, BuildingBlock: NUHQIS_clean_sbu_0, # of connection points: 6
#     Node 10, Type 1, BuildingBlock: NUHQIS_clean_sbu_0, # of connection points: 6
#     Node 11, Type 1, BuildingBlock: NUHQIS_clean_sbu_0, # of connection points: 6
#     Edge 12, Type (0, 1), BuildingBlock: UVAHIK_clean_linker_0, # of connection points: 2
#     Edge 13, Type (0, 1), BuildingBlock: UVAHIK_clean_linker_0, # of connection points: 2
#     Edge 14, Type (0, 1), BuildingBlock: UVAHIK_clean_linker_0, # of connection points: 2
#     Edge 15, Type (0, 1), BuildingBlock: UVAHIK_clean_linker_0, # of connection points: 2
#     Edge 16, Type (0, 1), BuildingBlock: UVAHIK_clean_linker_0, # of connection points: 2
#     Edge 17, Type (0, 1), BuildingBlock: UVAHIK_clean_linker_0, # of connection points: 2
#     Edge 18, Type (0, 1), BuildingBlock: UVAHIK_clean_linker_0, # of connection points: 2
#     Edge 19, Type (0, 1), BuildingBlock: UVAHIK_clean_linker_0, # of connection points: 2
#     Edge 20, Type (0, 1), BuildingBlock: UVAHIK_clean_linker_0, # of connection points: 2
#     Edge 21, Type (0, 1), BuildingBlock: UVAHIK_clean_linker_0, # of connection points: 2
#     Edge 22, Type (0, 1), BuildingBlock: UVAHIK_clean_linker_0, # of connection points: 2
#     Edge 23, Type (0, 1), BuildingBlock: UVAHIK_clean_linker_0, # of connection points: 2
#     Edge 24, Type (0, 1), BuildingBlock: UVAHIK_clean_linker_0, # of connection points: 2
#     Edge 25, Type (0, 1), BuildingBlock: UVAHIK_clean_linker_0, # of connection points: 2
#     Edge 26, Type (0, 1), BuildingBlock: UVAHIK_clean_linker_0, # of connection points: 2
#     Edge 27, Type (0, 1), BuildingBlock: UVAHIK_clean_linker_0, # of connection points: 2
#     Edge 28, Type (0, 1), BuildingBlock: UVAHIK_clean_linker_0, # of connection points: 2
#     Edge 29, Type (0, 1), BuildingBlock: UVAHIK_clean_linker_0, # of connection points: 2
#     Edge 30, Type (0, 1), BuildingBlock: UVAHIK_clean_linker_0, # of connection points: 2
#     Edge 31, Type (0, 1), BuildingBlock: UVAHIK_clean_linker_0, # of connection points: 2
#     Edge 32, Type (0, 1), BuildingBlock: UVAHIK_clean_linker_0, # of connection points: 2
#     Edge 33, Type (0, 1), BuildingBlock: UVAHIK_clean_linker_0, # of connection points: 2
#     Edge 34, Type (0, 1), BuildingBlock: UVAHIK_clean_linker_0, # of connection points: 2
#     Edge 35, Type (0, 1), BuildingBlock: UVAHIK_clean_linker_0, # of connection points: 2
# Relax obj value: 0.365
# Max RMSD: 0.250
# Mean RMSD: 0.224
data_MOF--net-zzz--node1-WUSLED_clean_sbu_0--node2-NUHQIS_clean_sbu_0--edge1-UVAHIK_clean_linker_0
_symmetry_space_group_name_H-M    P1
_symmetry_Int_Tables_number       1
_symmetry_cell_setting            triclinic
loop_
_symmetry_equiv_pos_as_xyz
'x, y, z'
_cell_length_a     78.136737
_cell_length_b     78.287692
_cell_length_c     24.720755
_cell_angle_alpha  90.000098
_cell_angle_beta   89.964267
_cell_angle_gamma 89.921652
loop_
_atom_site_label
_atom_site_type_symbol
_atom_site_fract_x
_atom_site_fract_y
_atom_site_fract_z
_atom_type_partial_charge
C0 C 0.7632 0.50588 0.43611 0.0
C1 C 0.77729 0.49874 0.40898 0.0
C2 C 0.79624 0.50648 0.48401 0.0
C3 C 0.79362 0.49897 0.43282 0.0
C4 C 0.78207 0.51364 0.51089 0.0
C5 C 0.76575 0.51326 0.4873 0.0
U6 U 0.72859 0.50471 0.32106 0.0
O7 O 0.70399 0.49084 0.32055 0.0
O8 O 0.70419 0.51879 0.32008 0.0
C9 C 0.69499 0.50488 0.31415 0.0
C10 C 0.74563 0.50547 0.41326 0.0
C11 C 0.68278 0.50495 0.26811 0.0
C12 C 0.65398 0.50003 0.23354 0.0
C13 C 0.66582 0.49968 0.27618 0.0
C14 C 0.67588 0.51087 0.17356 0.0
C15 C 0.65878 0.50573 0.18162 0.0
C16 C 0.68776 0.51042 0.21622 0.0
C17 C 0.75841 0.50423 0.19031 0.0
C18 C 0.768 0.50434 0.09719 0.0
C19 C 0.78873 0.505 0.17021 0.0
C20 C 0.77541 0.5047 0.20817 0.0
C21 C 0.7851 0.50483 0.1143 0.0
C22 C 0.75481 0.50401 0.1349 0.0
C23 C 0.7438 0.50427 0.227 0.0
O24 O 0.74043 0.51927 0.38775 0.0
O25 O 0.74073 0.49127 0.38944 0.0
O26 O 0.74034 0.49027 0.25424 0.0
O27 O 0.7401 0.5185 0.25269 0.0
H28 H 0.77568 0.49298 0.36947 0.0
H29 H 0.80428 0.49349 0.41077 0.0
H30 H 0.78357 0.51935 0.55051 0.0
H31 H 0.75505 0.51871 0.50926 0.0
H32 H 0.64093 0.49613 0.24159 0.0
H33 H 0.66168 0.4954 0.31575 0.0
H34 H 0.68015 0.51509 0.13408 0.0
H35 H 0.70082 0.51441 0.20874 0.0
H36 H 0.76477 0.50444 0.05459 0.0
H37 H 0.80182 0.50515 0.1845 0.0
H38 H 0.77834 0.50485 0.251 0.0
H39 H 0.74169 0.5037 0.12067 0.0
C40 C 0.01086 0.76239 0.4293 0.0
C41 C 0.01113 0.77663 0.39477 0.0
C42 C 0.00921 0.79606 0.47253 0.0
C43 C 0.01026 0.79328 0.41617 0.0
C44 C 0.0092 0.78172 0.50683 0.0
C45 C 0.00994 0.76512 0.48542 0.0
U46 U 0.01105 0.72615 0.31892 0.0
O47 O 0.99764 0.70141 0.32258 0.0
O48 O 0.02562 0.70201 0.32039 0.0
C49 C 0.0118 0.69254 0.31639 0.0
C50 C 0.01132 0.74456 0.40862 0.0
C51 C 0.01171 0.68 0.27133 0.0
C52 C 0.0103 0.65049 0.24006 0.0
C53 C 0.01058 0.66247 0.28234 0.0
C54 C 0.01234 0.67341 0.17479 0.0
C55 C 0.01115 0.65575 0.18556 0.0
C56 C 0.01259 0.68538 0.21715 0.0
C57 C 0.00966 0.75653 0.19284 0.0
C58 C 0.01721 0.77106 0.10981 0.0
C59 C 0.99911 0.78515 0.17597 0.0
C60 C 1.00017 0.77081 0.20951 0.0
C61 C 1.00753 0.78534 0.12558 0.0
C62 C 0.01821 0.75679 0.14311 0.0
C63 C 0.01003 0.74059 0.22354 0.0
O64 O 0.99727 0.73876 0.38591 0.0
O65 O 0.02528 0.73963 0.3832 0.0
O66 O 0.99622 0.73649 0.25103 0.0
O67 O 0.02442 0.73683 0.24834 0.0
H68 H 0.01192 0.77489 0.35137 0.0
H69 H 0.01051 0.80401 0.38856 0.0
H70 H 1.00824 0.78331 0.55026 0.0
H71 H 0.00967 0.75434 0.51291 0.0
H72 H 0.00961 0.63705 0.25021 0.0
H73 H 0.00991 0.65801 0.32377 0.0
H74 H 0.0128 0.67803 0.13354 0.0
H75 H 0.01339 0.69886 0.20757 0.0
H76 H 0.0242 0.77095 0.07195 0.0
H77 H 0.99155 0.79599 0.18912 0.0
H78 H 0.99344 0.77077 0.24782 0.0
H79 H 0.02555 0.74582 0.12966 0.0
C80 C 0.755 0.01003 0.43415 0.0
C81 C 0.74098 0.01779 0.4083 0.0
C82 C 0.72203 0.00933 0.48254 0.0
C83 C 0.72469 0.01752 0.43243 0.0
C84 C 0.73608 1.00156 0.50811 0.0
C85 C 0.75237 1.002 0.48431 0.0
U86 U 0.7899 0.01113 0.31963 0.0
O87 O 0.81442 0.02514 0.31945 0.0
O88 O 0.81438 0.99718 0.31976 0.0
C89 C 0.82352 0.01112 0.31363 0.0
C90 C 0.77258 0.01053 0.41135 0.0
C91 C 0.83579 0.01099 0.26774 0.0
C92 C 0.86467 0.01564 0.23343 0.0
C93 C 0.8528 0.01601 0.27606 0.0
C94 C 0.84266 1.00528 0.17305 0.0
C95 C 0.85982 0.01018 0.18132 0.0
C96 C 0.83077 1.00574 0.2157 0.0
C97 C 0.76013 0.01108 0.1894 0.0
C98 C 0.75008 0.01083 0.0969 0.0
C99 C 0.7297 0.01069 0.17102 0.0
C100 C 0.74322 0.01087 0.20824 0.0
C101 C 0.73307 0.01074 0.11496 0.0
C102 C 0.76346 0.01104 0.13383 0.0
C103 C 0.77493 0.01121 0.22522 0.0
O104 O 0.77796 0.99669 0.38644 0.0
O105 O 0.77743 0.02471 0.38721 0.0
O106 O 0.77833 0.0253 0.25204 0.0
O107 O 0.77869 0.99708 0.25137 0.0
H108 H 0.74264 0.02407 0.36961 0.0
H109 H 0.71408 0.02349 0.41149 0.0
H110 H 0.73452 0.99531 0.5469 0.0
H111 H 0.76301 0.99608 0.50534 0.0
H112 H 0.87776 0.01935 0.24162 0.0
H113 H 0.85697 0.02011 0.31577 0.0
H114 H 0.83836 1.00125 0.13343 0.0
H115 H 0.81766 1.00195 0.20806 0.0
H116 H 0.75309 0.01061 0.05412 0.0
H117 H 0.71667 0.01081 0.18599 0.0
H118 H 0.74052 0.01092 0.25123 0.0
H119 H 0.7765 0.01114 0.11886 0.0
C120 C 0.50694 0.75483 0.44206 0.0
C121 C 0.5078 0.74071 0.4071 0.0
C122 C 0.50869 0.72104 0.48425 0.0
C123 C 0.50871 0.72402 0.42796 0.0
C124 C 0.50751 0.73523 0.51905 0.0
C125 C 0.50674 0.75192 0.49815 0.0
U126 U 0.50802 0.78774 0.32558 0.0
O127 O 0.49377 0.81186 0.3154 0.0
O128 O 0.52176 0.8123 0.31936 0.0
C129 C 0.50771 0.82113 0.31059 0.0
C130 C 0.50667 0.77263 0.42104 0.0
C131 C 0.50816 0.83347 0.26487 0.0
C132 C 0.51244 0.86274 0.2335 0.0
C133 C 0.51217 0.85063 0.27535 0.0
C134 C 0.50453 0.84078 0.16943 0.0
C135 C 0.50858 0.85804 0.1799 0.0
C136 C 0.5044 0.82862 0.21141 0.0
C137 C 0.5106 0.75733 0.19297 0.0
C138 C 0.4988 0.74827 0.10709 0.0
C139 C 0.52175 0.73203 0.14874 0.0
C140 C 0.52213 0.74359 0.19167 0.0
C141 C 0.50986 0.73415 0.10678 0.0
C142 C 0.49917 0.75981 0.15 0.0
C143 C 0.50966 0.76829 0.24074 0.0
O144 O 0.52093 0.77804 0.39871 0.0
O145 O 0.49301 0.77719 0.39352 0.0
O146 O 0.49497 0.77371 0.26027 0.0
O147 O 0.52347 0.77332 0.26655 0.0
H148 H 0.5079 0.74259 0.36368 0.0
H149 H 0.50937 0.71341 0.39994 0.0
H150 H 0.5076 0.73347 0.5625 0.0
H151 H 0.50614 0.7626 0.52595 0.0
H152 H 0.5154 0.87588 0.24333 0.0
H153 H 0.51503 0.85472 0.31623 0.0
H154 H 0.50167 0.83665 0.12863 0.0
H155 H 0.50132 0.81545 0.20215 0.0
H156 H 0.48952 0.75003 0.075 0.0
H157 H 0.53012 0.72098 0.14965 0.0
H158 H 0.53088 0.74138 0.22496 0.0
H159 H 0.49026 0.77043 0.1503 0.0
C160 C 0.25615 0.50421 0.8871 0.0
C161 C 0.24234 0.50002 0.92096 0.0
C162 C 0.22227 0.50283 0.84538 0.0
C163 C 0.22561 0.49931 0.90034 0.0
C164 C 0.23617 0.50717 0.81178 0.0
C165 C 0.25291 0.50781 0.83242 0.0
U166 U 0.28772 0.50342 1.00541 0.0
O167 O 0.31285 0.49076 0.0146 0.0
O168 O 0.31092 0.51864 0.02047 0.0
C169 C 0.32087 0.50515 0.02499 0.0
C170 C 0.27392 0.50485 0.90821 0.0
C171 C 0.33318 0.50501 0.07082 0.0
C172 C 0.36233 0.5 0.10255 0.0
C173 C 0.35004 0.49959 0.06128 0.0
C174 C 0.34113 0.51126 0.16431 0.0
C175 C 0.35812 0.5059 0.15472 0.0
C176 C 0.32878 0.51078 0.12288 0.0
C177 C 0.25641 0.49959 0.13507 0.0
C178 C 0.25137 0.50881 0.22724 0.0
C179 C 0.22947 0.49313 0.17861 0.0
C180 C 0.24022 0.492 0.13384 0.0
C181 C 0.23481 0.50184 0.22534 0.0
C182 C 0.26212 0.50773 0.18219 0.0
C183 C 0.26625 0.50044 0.08499 0.0
O184 O 0.27786 0.51847 0.93665 0.0
O185 O 0.27969 0.49067 0.9301 0.0
O186 O 0.27289 0.4869 0.06146 0.0
O187 O 0.27168 0.51531 0.06736 0.0
H188 H 0.24449 0.49731 0.9634 0.0
H189 H 0.21526 0.49619 0.92772 0.0
H190 H 0.23418 0.5098 0.76925 0.0
H191 H 0.26336 0.51106 0.80553 0.0
H192 H 0.37527 0.49599 0.09318 0.0
H193 H 0.35379 0.4952 0.02142 0.0
H194 H 0.33731 0.51569 0.20404 0.0
H195 H 0.31585 0.51501 0.13141 0.0
H196 H 0.25578 0.5155 0.26295 0.0
H197 H 0.21665 0.48795 0.17562 0.0
H198 H 0.23558 0.48591 0.09733 0.0
H199 H 0.27464 0.51365 0.18352 0.0
C200 C 0.01654 0.2538 0.89756 0.0
C201 C 0.01524 0.2393 0.93073 0.0
C202 C 0.01572 0.22058 0.85125 0.0
C203 C 0.01474 0.22286 0.90776 0.0
C204 C 0.01726 0.23512 0.81828 0.0
C205 C 0.01755 0.25154 0.8412 0.0
U206 U 0.01704 0.2889 0.01146 0.0
O207 O 0.03022 0.31381 0.0107 0.0
O208 O 1.00224 0.31287 0.01145 0.0
C209 C 0.01591 0.32245 0.01698 0.0
C210 C 0.01646 0.2714 0.91996 0.0
C211 C 0.0155 0.33462 0.06303 0.0
C212 C 0.01383 0.36391 0.09621 0.0
C213 C 0.01445 0.35222 0.05318 0.0
C214 C 0.01535 0.34055 0.16006 0.0
C215 C 0.01427 0.35828 0.15037 0.0
C216 C 0.01592 0.32886 0.11691 0.0
C217 C 0.01775 0.25945 0.14204 0.0
C218 C 0.01151 0.24855 0.23154 0.0
C219 C 0.02131 0.22935 0.16086 0.0
C220 C 0.02237 0.24306 0.1247 0.0
C221 C 0.01563 0.232 0.21436 0.0
C222 C 0.01255 0.26214 0.19557 0.0
C223 C 0.01783 0.27429 0.10643 0.0
O224 O 1.00262 0.27622 0.94614 0.0
O225 O 0.03064 0.27677 0.94305 0.0
O226 O 0.03176 0.27763 0.0785 0.0
O227 O 1.00351 0.27794 0.08109 0.0
H228 H 0.0145 0.24069 0.97426 0.0
H229 H 0.0137 0.21189 0.93422 0.0
H230 H 0.0179 0.23382 0.77469 0.0
H231 H 0.01845 0.26253 0.81472 0.0
H232 H 0.01325 0.37741 0.08691 0.0
H233 H 0.01411 0.35697 0.01203 0.0
H234 H 0.01549 0.33566 0.20104 0.0
H235 H 0.01662 0.31531 0.1256 0.0
H236 H 1.00691 0.25091 0.27221 0.0
H237 H 0.02474 0.21668 0.14696 0.0
H238 H 0.02653 0.24085 0.08348 0.0
H239 H 1.00898 0.2748 0.20937 0.0
C240 C 0.2622 0.01237 0.88686 0.0
C241 C 0.27611 0.01413 0.92235 0.0
C242 C 0.29625 0.01362 0.84639 0.0
C243 C 0.29292 0.01474 0.90239 0.0
C244 C 0.28221 0.01177 0.81107 0.0
C245 C 0.2654 0.01117 0.83113 0.0
U246 U 0.23064 0.01313 1.00479 0.0
O247 O 0.20549 0.02573 0.01415 0.0
O248 O 0.20749 0.99785 0.02005 0.0
C249 C 0.19751 0.01131 0.02449 0.0
C250 C 0.24438 0.01174 0.9075 0.0
C251 C 0.18519 0.01142 0.07025 0.0
C252 C 0.15597 0.01615 0.10183 0.0
C253 C 0.16826 0.0166 0.06054 0.0
C254 C 0.17732 1.00536 0.1639 0.0
C255 C 0.16026 0.01047 0.15415 0.0
C256 C 0.18966 1.00587 0.12245 0.0
C257 C 0.26177 0.01708 0.13455 0.0
C258 C 0.26661 1.00747 0.22645 0.0
C259 C 0.2885 0.02362 0.17925 0.0
C260 C 0.27788 0.02484 0.13424 0.0
C261 C 0.28311 0.01461 0.22533 0.0
C262 C 0.25597 0.00868 0.18115 0.0
C263 C 0.25235 0.01618 0.08369 0.0
O264 O 0.2404 0.99811 0.93586 0.0
O265 O 0.23861 0.02592 0.9294 0.0
O266 O 0.24548 0.02968 0.06061 0.0
O267 O 0.24689 1.0013 0.06626 0.0
H268 H 0.27397 0.01501 0.96558 0.0
H269 H 0.30333 0.01588 0.93104 0.0
H270 H 0.28417 0.01105 0.76777 0.0
H271 H 0.25487 0.00982 0.80299 0.0
H272 H 0.14299 0.01996 0.09237 0.0
H273 H 0.16447 0.02082 0.02055 0.0
H274 H 0.18118 1.00111 0.20375 0.0
H275 H 0.20264 1.00183 0.13107 0.0
H276 H 0.26218 1.00053 0.26168 0.0
H277 H 0.30127 0.02892 0.17686 0.0
H278 H 0.28261 0.03112 0.09812 0.0
H279 H 0.24353 1.00259 0.18177 0.0
C280 C 0.50204 0.26248 0.89711 0.0
C281 C 0.50329 0.27698 0.93023 0.0
C282 C 0.50256 0.29574 0.85077 0.0
C283 C 0.50362 0.29342 0.90728 0.0
C284 C 0.50103 0.28116 0.81785 0.0
C285 C 0.50087 0.26474 0.84078 0.0
U286 U 0.50245 0.22747 0.01127 0.0
O287 O 0.4893 0.20256 0.01085 0.0
O288 O 0.51727 0.20347 0.01152 0.0
C289 C 0.50359 0.19389 0.01702 0.0
C290 C 0.50233 0.24487 0.91954 0.0
C291 C 0.50392 0.18163 0.06289 0.0
C292 C 0.50675 0.15239 0.09585 0.0
C293 C 0.50634 0.16415 0.05299 0.0
C294 C 0.50229 0.1754 0.15961 0.0
C295 C 0.50471 0.1578 0.14988 0.0
C296 C 0.50195 0.18717 0.11666 0.0
C297 C 0.50135 0.25702 0.14188 0.0
C298 C 0.50082 0.26709 0.2345 0.0
C299 C 0.504 0.28726 0.16058 0.0
C300 C 0.50324 0.27382 0.12325 0.0
C301 C 0.50296 0.28384 0.21629 0.0
C302 C 0.49996 0.25376 0.19743 0.0
C303 C 0.50171 0.24225 0.106 0.0
O304 O 0.51637 0.24012 0.94476 0.0
O305 O 0.48835 0.23946 0.9437 0.0
O306 O 0.48775 0.2384 0.07901 0.0
O307 O 0.516 0.23905 0.07982 0.0
H308 H 0.50415 0.27559 0.97373 0.0
H309 H 0.50461 0.30437 0.93385 0.0
H310 H 0.50033 0.28244 0.77428 0.0
H311 H 0.49998 0.25374 0.81433 0.0
H312 H 0.50843 0.13898 0.08651 0.0
H313 H 0.50788 0.15957 0.01193 0.0
H314 H 0.5009 0.18012 0.20055 0.0
H315 H 0.50018 0.20062 0.12543 0.0
H316 H 0.50006 0.26431 0.27739 0.0
H317 H 0.50573 0.30022 0.14623 0.0
H318 H 0.50441 0.27647 0.08041 0.0
H319 H 0.49857 0.2408 0.21225 0.0
Tb320 Tb 0.02263 1.00296 0.70818 0.0
Eu321 Eu 0.9944 0.01367 0.61989 0.0
C322 C 0.03386 0.01052 0.5881 0.0
C323 C 0.01574 0.04191 0.68876 0.0
C324 C 0.04011 0.97277 0.79965 0.0
C325 C 0.05263 0.94608 0.82952 0.0
C326 C 0.05454 0.96309 0.81347 0.0
C327 C 0.02381 0.96515 0.80085 0.0
C328 C 0.02195 0.94813 0.81577 0.0
C329 C 0.03632 0.93856 0.83056 0.0
C330 C 0.04195 0.99012 0.7782 0.0
O331 O 0.99972 0.01119 0.75201 0.0
O332 O 0.97967 1.00288 0.69096 0.0
O333 O 0.99868 0.98557 0.60381 0.0
O334 O 1.00893 0.97938 0.68818 0.0
C335 C 0.98395 1.0067 0.74079 0.0
O336 O 0.97032 0.02667 0.60271 0.0
O337 O 0.98529 0.01615 0.53683 0.0
O338 O 0.02009 0.01991 0.58285 0.0
O339 O 0.03578 1.00059 0.63039 0.0
O340 O 0.02743 0.03044 0.70142 0.0
O341 O 1.00125 0.03764 0.66576 0.0
C342 C 1.00334 0.97438 0.64059 0.0
O343 O 0.0459 0.99082 0.72717 0.0
O344 O 0.02956 1.00059 0.78995 0.0
C345 C 0.97574 0.04439 0.52939 0.0
C346 C 0.98033 0.07854 0.49815 0.0
C347 C 0.96437 0.07051 0.49122 0.0
C348 C 0.96206 0.05352 0.50712 0.0
C349 C 0.99164 0.05246 0.53638 0.0
C350 C 0.99393 0.06937 0.5209 0.0
C351 C 0.97349 0.02711 0.55094 0.0
H352 H 0.06381 0.9388 0.8414 0.0
H353 H 0.06721 0.96866 0.81173 0.0
H354 H 0.01247 0.97234 0.79005 0.0
H355 H 0.00927 0.94256 0.81724 0.0
H356 H 0.95368 0.07743 0.4739 0.0
H357 H 0.94962 0.04759 0.5026 0.0
H358 H 1.00231 0.04575 0.5544 0.0
H359 H 1.00641 0.07518 0.52588 0.0
Tb360 Tb 0.51412 0.02196 0.70813 0.0
Eu361 Eu 0.50452 0.99361 0.61888 0.0
C362 C 0.50794 0.03322 0.58897 0.0
C363 C 0.47538 0.01384 0.68566 0.0
C364 C 0.54291 0.03964 0.80408 0.0
C365 C 0.57051 0.05088 0.83161 0.0
C366 C 0.55373 0.05359 0.81359 0.0
C367 C 0.54908 0.02301 0.8129 0.0
C368 C 0.56573 0.0203 0.83052 0.0
C369 C 0.57664 0.03417 0.83999 0.0
C370 C 0.52628 0.04197 0.77731 0.0
O371 O 0.52059 0.99708 0.74408 0.0
O372 O 0.5012 0.9807 0.69968 0.0
O373 O 0.5331 0.98971 0.63032 0.0
O374 O 0.53728 0.01689 0.66171 0.0
C375 C 0.51106 0.98329 0.74164 0.0
O376 O 0.4918 0.96977 0.59658 0.0
O377 O 0.50262 0.98581 0.53429 0.0
O378 O 0.51226 0.01765 0.57504 0.0
O379 O 0.50396 0.0367 0.63956 0.0
O380 O 0.48677 0.01829 0.7221 0.0
O381 O 0.4801 1.0078 0.63845 0.0
C382 C 0.54335 1.00256 0.64172 0.0
O383 O 0.52729 0.04471 0.72548 0.0
O384 O 0.51466 0.03056 0.78867 0.0
C385 C 0.47446 0.97607 0.52242 0.0
C386 C 0.44021 0.98065 0.49098 0.0
C387 C 0.44762 0.96427 0.49062 0.0
C388 C 0.46462 0.96197 0.50684 0.0
C389 C 0.46705 0.99247 0.5221 0.0
C390 C 0.45003 0.99472 0.5069 0.0
C391 C 0.49164 0.97378 0.54547 0.0
H392 H 0.57869 0.0618 0.83885 0.0
H393 H 0.54935 0.06649 0.80587 0.0
H394 H 0.54119 0.012 0.80485 0.0
H395 H 0.57018 1.00728 0.83547 0.0
H396 H 0.44015 0.95327 0.47857 0.0
H397 H 0.46999 0.94922 0.50799 0.0
H398 H 0.47434 1.00355 0.53445 0.0
H399 H 0.44459 1.00746 0.50702 0.0
Tb400 Tb 0.49545 0.51299 0.70884 0.0
Eu401 Eu 0.52403 0.50257 0.62176 0.0
C402 C 0.4847 0.50566 0.58856 0.0
C403 C 0.503 0.47437 0.69025 0.0
C404 C 0.47824 0.54273 0.80222 0.0
C405 C 0.4664 0.5704 0.8256 0.0
C406 C 0.46406 0.55333 0.81078 0.0
C407 C 0.49482 0.54945 0.80845 0.0
C408 C 0.49716 0.56646 0.82325 0.0
C409 C 0.48298 0.57714 0.83193 0.0
C410 C 0.47601 0.52561 0.77893 0.0
O411 O 0.51847 0.50532 0.75334 0.0
O412 O 0.53863 0.51364 0.69248 0.0
O413 O 0.51994 0.53077 0.6066 0.0
O414 O 0.50904 0.53672 0.6904 0.0
C415 C 0.53426 0.50989 0.74231 0.0
O416 O 0.54758 0.48854 0.60468 0.0
O417 O 0.53389 0.50093 0.53931 0.0
O418 O 0.49841 0.49609 0.58423 0.0
O419 O 0.48276 0.51573 0.63052 0.0
O420 O 0.49062 0.48553 0.69843 0.0
O421 O 0.51795 0.47923 0.67181 0.0
C422 C 0.51497 0.54186 0.64335 0.0
O423 O 0.47238 0.52555 0.72763 0.0
O424 O 0.4879 0.51451 0.79038 0.0
C425 C 0.5427 0.4724 0.52695 0.0
C426 C 0.53708 0.4388 0.49167 0.0
C427 C 0.5537 0.44425 0.50435 0.0
C428 C 0.5565 0.46103 0.52186 0.0
C429 C 0.52607 0.46675 0.5146 0.0
C430 C 0.52332 0.45014 0.49678 0.0
C431 C 0.54502 0.48918 0.55262 0.0
H432 H 0.45522 0.57839 0.83132 0.0
H433 H 0.45122 0.54852 0.80473 0.0
H434 H 0.50603 0.54164 0.80088 0.0
H435 H 0.51009 0.57117 0.8284 0.0
H436 H 0.56445 0.43559 0.50038 0.0
H437 H 0.56934 0.46502 0.53246 0.0
H438 H 0.51511 0.47506 0.51962 0.0
H439 H 0.51039 0.44606 0.48751 0.0
Tb440 Tb 1.00424 0.49395 0.70728 0.0
Eu441 Eu 0.01367 0.52283 0.619 0.0
C442 C 0.01063 0.48326 0.58779 0.0
C443 C 0.04302 0.50244 0.68541 0.0
C444 C 0.9753 0.47552 0.80192 0.0
C445 C 0.94711 0.46449 0.82416 0.0
C446 C 0.96386 0.46177 0.80585 0.0
C447 C 0.96976 0.49195 0.81673 0.0
C448 C 0.95317 0.49464 0.83514 0.0
C449 C 0.94167 0.48097 0.83883 0.0
C450 C 0.99193 0.47343 0.77471 0.0
O451 O 0.99801 0.5185 0.74578 0.0
O452 O 0.01627 0.53585 0.69965 0.0
O453 O 0.98513 0.5266 0.63093 0.0
O454 O 0.98111 0.49924 0.66089 0.0
C455 C 1.0069 0.53272 0.7424 0.0
O456 O 0.02633 0.54673 0.59707 0.0
O457 O 0.01542 0.53086 0.53456 0.0
O458 O 1.00618 0.49884 0.57446 0.0
O459 O 0.0146 0.47963 0.63824 0.0
O460 O 0.03166 0.49726 0.72105 0.0
O461 O 0.03833 0.50917 0.63912 0.0
C462 C 0.97496 0.51365 0.6417 0.0
O463 O 0.9909 0.47115 0.72266 0.0
O464 O 1.00365 0.48464 0.78703 0.0
C465 C 0.04363 0.54047 0.52282 0.0
C466 C 0.07794 0.53579 0.49209 0.0
C467 C 0.07055 0.55218 0.49131 0.0
C468 C 0.05352 0.55453 0.50717 0.0
C469 C 0.05102 0.52407 0.52291 0.0
C470 C 0.06806 0.52177 0.5081 0.0
C471 C 0.02645 0.54282 0.54589 0.0
H472 H 0.9384 0.45376 0.82677 0.0
H473 H 0.96775 0.44908 0.79344 0.0
H474 H 0.9781 0.50288 0.81279 0.0
H475 H 0.94918 0.50751 0.84529 0.0
H476 H 0.07805 0.56316 0.47923 0.0
H477 H 0.04817 0.5673 0.50805 0.0
H478 H 0.04368 0.51301 0.53528 0.0
H479 H 0.07347 0.50901 0.50853 0.0
C480 C 0.14633 0.99627 0.2351 0.0
C481 C 0.14697 0.00991 0.19804 0.0
C482 C 0.13387 0.99579 0.27606 0.0
C483 C 0.09202 0.01525 0.31846 0.0
H484 H 0.10486 0.99798 0.45959 0.0
C485 C 0.04716 0.02327 0.50427 0.0
C486 C 0.04707 0.01052 0.54435 0.0
C487 C 0.05923 0.02295 0.46216 0.0
C488 C 0.10087 1.00265 0.42036 0.0
H489 H 0.13484 0.03382 0.17579 0.0
H490 H 0.11339 0.03313 0.24719 0.0
H491 H 0.12555 0.99754 0.38626 0.0
H492 H 0.05964 0.9873 0.57096 0.0
H493 H 0.08023 0.9864 0.49705 0.0
H494 H 0.06732 0.0203 0.35238 0.0
C495 C 0.12229 0.02257 0.24413 0.0
C496 C 0.11284 1.00239 0.37799 0.0
C497 C 0.13469 0.023 0.20305 0.0
C498 C 0.0594 0.99744 0.54117 0.0
C499 C 0.07132 0.99698 0.49866 0.0
C500 C 0.08002 0.01545 0.36077 0.0
C501 C 0.1217 0.00899 0.28151 0.0
C502 C 0.10867 0.00879 0.32638 0.0
C503 C 0.07147 0.00973 0.45832 0.0
C504 C 0.08425 0.00925 0.41264 0.0
H505 H 0.15533 0.98578 0.232 0.0
H506 H 0.1337 0.98492 0.30313 0.0
H507 H 0.08811 0.02 0.27923 0.0
H508 H 0.03793 0.0336 0.5055 0.0
H509 H 0.05903 0.03323 0.43291 0.0
C510 C 0.49379 0.14664 0.23978 0.0
C511 C 0.50509 0.14514 0.19562 0.0
C512 C 0.49406 0.13473 0.2823 0.0
C513 C 0.50953 0.09085 0.31858 0.0
H514 H 0.50133 0.10626 0.46527 0.0
C515 C 0.51835 0.04482 0.50021 0.0
C516 C 0.508 0.04676 0.5464 0.0
C517 C 0.51819 0.05699 0.4586 0.0
C518 C 0.50341 0.10158 0.42462 0.0
H519 H 0.52578 0.12986 0.16268 0.0
H520 H 0.52641 0.10931 0.23669 0.0
H521 H 0.50055 0.12668 0.39127 0.0
H522 H 0.4893 0.06316 0.58481 0.0
H523 H 0.48838 0.08408 0.51139 0.0
H524 H 0.51218 0.06574 0.3515 0.0
C525 C 0.51703 0.11949 0.23808 0.0
C526 C 0.50299 0.1134 0.38185 0.0
C527 C 0.5167 0.13136 0.19545 0.0
C528 C 0.49752 0.06132 0.55002 0.0
C529 C 0.49709 0.07339 0.50777 0.0
C530 C 0.50985 0.07901 0.36127 0.0
C531 C 0.50571 0.12096 0.28229 0.0
C532 C 0.50608 0.10826 0.32808 0.0
C533 C 0.50738 0.07141 0.4611 0.0
C534 C 0.50685 0.08414 0.41521 0.0
H535 H 0.48446 0.15688 0.24109 0.0
H536 H 0.4849 0.1362 0.31483 0.0
H537 H 0.5117 0.08623 0.27786 0.0
H538 H 0.52676 0.03388 0.49627 0.0
H539 H 0.5267 0.05506 0.4246 0.0
C540 C 0.38354 0.49319 0.20399 0.0
C541 C 0.37142 0.50642 0.19859 0.0
C542 C 0.39596 0.49358 0.24499 0.0
C543 C 0.4058 0.51413 0.37812 0.0
H544 H 0.45101 0.49537 0.35287 0.0
C545 C 0.45931 0.51883 0.54109 0.0
C546 C 0.47158 0.50569 0.54452 0.0
C547 C 0.44739 0.51928 0.49862 0.0
C548 C 0.4384 0.50046 0.36121 0.0
H549 H 0.36341 0.53077 0.23182 0.0
H550 H 0.38509 0.53158 0.30277 0.0
H551 H 0.43018 0.4957 0.27992 0.0
H552 H 0.48056 0.48248 0.50606 0.0
H553 H 0.45946 0.48284 0.43353 0.0
H554 H 0.4139 0.51874 0.45947 0.0
C555 C 0.38475 0.52062 0.27609 0.0
C556 C 0.42637 0.50068 0.31898 0.0
C557 C 0.37227 0.52017 0.23521 0.0
C558 C 0.4714 0.49287 0.50464 0.0
C559 C 0.45932 0.49318 0.46256 0.0
C560 C 0.4178 0.51385 0.42041 0.0
C561 C 0.39676 0.50728 0.28193 0.0
C562 C 0.40983 0.50745 0.32672 0.0
C563 C 0.44714 0.50646 0.4585 0.0
C564 C 0.43431 0.50694 0.41287 0.0
H565 H 0.38323 0.48228 0.17709 0.0
H566 H 0.40471 0.48291 0.24833 0.0
H567 H 0.39318 0.51924 0.3863 0.0
H568 H 0.45911 0.52902 0.57072 0.0
H569 H 0.43855 0.52993 0.4969 0.0
C570 C 1.00316 0.3855 0.19344 0.0
C571 C 0.01364 0.37087 0.19626 0.0
C572 C 1.00271 0.3974 0.23594 0.0
C573 C 0.01351 0.40263 0.38254 0.0
H574 H 0.00974 0.45085 0.34961 0.0
C575 C 0.01984 0.45449 0.55073 0.0
C576 C 0.01067 0.46984 0.54483 0.0
C577 C 0.0202 0.44235 0.50875 0.0
C578 C 0.01053 0.43744 0.35999 0.0
H579 H 0.03205 0.35757 0.24661 0.0
H580 H 0.03136 0.37827 0.32029 0.0
H581 H 0.01017 0.43016 0.27645 0.0
H582 H 0.99418 0.48409 0.49055 0.0
H583 H 0.9942 0.46287 0.41907 0.0
H584 H 0.01367 0.40985 0.46606 0.0
C585 C 0.0232 0.38042 0.28557 0.0
C586 C 0.01082 0.4255 0.31763 0.0
C587 C 0.02362 0.3685 0.24311 0.0
C588 C 1.00159 0.47253 0.49641 0.0
C589 C 1.00172 0.46033 0.45494 0.0
C590 C 0.01312 0.41457 0.42495 0.0
C591 C 0.01275 0.39508 0.28272 0.0
C592 C 0.01234 0.40788 0.32815 0.0
C593 C 0.01118 0.44507 0.45997 0.0
C594 C 0.01163 0.43221 0.41451 0.0
H595 H 0.99507 0.38768 0.15857 0.0
H596 H 0.99425 0.4083 0.23234 0.0
H597 H 0.01441 0.3892 0.39261 0.0
H598 H 0.02704 0.45202 0.58732 0.0
H599 H 0.02786 0.43096 0.51434 0.0
C600 C 0.87279 0.99592 0.09891 0.0
C601 C 0.87262 0.00956 0.13604 0.0
C602 C 0.88484 0.99531 0.05677 0.0
C603 C 0.92672 0.01363 0.01196 0.0
H604 H 0.91259 0.99713 0.87122 0.0
C605 C 0.97221 0.01886 0.82713 0.0
C606 C 0.97086 1.00701 0.78464 0.0
C607 C 0.96017 0.01915 0.86924 0.0
C608 C 0.91699 1.00152 0.91028 0.0
H609 H 0.88506 0.0334 0.15693 0.0
H610 H 0.90587 0.03245 0.08349 0.0
H611 H 0.89228 0.99735 0.94547 0.0
H612 H 0.95592 0.98597 0.75353 0.0
H613 H 0.93552 0.98567 0.82826 0.0
H614 H 0.95149 0.01747 0.97761 0.0
C615 C 0.8969 0.02199 0.08746 0.0
C616 C 0.9052 1.0017 0.95317 0.0
C617 C 0.8849 0.02257 0.12971 0.0
C618 C 0.95721 0.99537 0.78542 0.0
C619 C 0.94541 0.99533 0.82839 0.0
C620 C 0.93858 0.01327 0.96928 0.0
C621 C 0.89707 0.00836 0.05022 0.0
C622 C 0.90982 1.00785 1.00464 0.0
C623 C 0.94662 1.00725 0.87118 0.0
C624 C 0.93394 1.00732 0.91739 0.0
H625 H 0.86376 0.98552 0.10292 0.0
H626 H 0.88469 0.98443 0.02973 0.0
H627 H 0.93093 0.01819 0.05109 0.0
H628 H 0.98248 0.02815 0.82742 0.0
H629 H 0.9615 0.0289 0.89993 0.0
C630 C 0.52195 0.88334 0.13213 0.0
C631 C 0.50879 0.87111 0.1354 0.0
C632 C 0.5222 0.89557 0.0905 0.0
C633 C 0.50358 0.90485 0.95365 0.0
H634 H 0.52142 0.95025 0.97986 0.0
C635 C 0.49859 0.95776 0.78971 0.0
C636 C 0.51127 0.97047 0.78666 0.0
C637 C 0.49831 0.94596 0.83247 0.0
C638 C 0.5166 0.93758 0.97125 0.0
H639 H 0.48527 0.86262 0.09782 0.0
H640 H 0.48544 0.88406 0.02618 0.0
H641 H 0.52072 0.92953 0.05311 0.0
H642 H 0.5338 0.98046 0.82659 0.0
H643 H 0.53376 0.95958 0.89989 0.0
H644 H 0.49961 0.91274 0.87184 0.0
C645 C 0.49592 0.88395 0.0548 0.0
C646 C 0.51617 0.92561 0.01368 0.0
C647 C 0.49577 0.87162 0.09612 0.0
C648 C 0.52378 0.97093 0.82757 0.0
C649 C 0.52365 0.95895 0.87007 0.0
C650 C 0.50407 0.91678 0.91123 0.0
C651 C 0.50921 0.89609 0.05096 0.0
C652 C 0.50962 0.90902 1.00569 0.0
C653 C 0.51086 0.94625 0.87345 0.0
C654 C 0.51055 0.93341 0.91914 0.0
H655 H 0.53229 0.88328 0.16129 0.0
H656 H 0.53283 0.90441 0.08886 0.0
H657 H 0.49874 0.89219 0.94511 0.0
H658 H 0.48861 0.95705 0.75939 0.0
H659 H 0.48798 0.93677 0.83363 0.0
C660 C 0.64562 0.52019 0.09987 0.0
C661 C 0.64597 0.50638 0.13639 0.0
C662 C 0.63353 0.52085 0.05791 0.0
C663 C 0.59177 0.50236 0.0129 0.0
H664 H 0.60563 0.51946 0.8726 0.0
C665 C 0.54588 0.49775 0.82885 0.0
C666 C 0.5473 0.50955 0.78626 0.0
C667 C 0.55795 0.49737 0.87084 0.0
C668 C 0.60128 0.5149 0.91154 0.0
H669 H 0.63381 0.48232 0.15634 0.0
H670 H 0.61292 0.48338 0.08321 0.0
H671 H 0.62599 0.51915 0.94654 0.0
H672 H 0.56243 0.53041 0.75483 0.0
H673 H 0.58285 0.53061 0.82935 0.0
H674 H 0.56697 0.49849 0.97888 0.0
C675 C 0.62178 0.49391 0.08754 0.0
C676 C 0.61312 0.51467 0.95426 0.0
C677 C 0.63383 0.49327 0.1296 0.0
C678 C 0.56106 0.52106 0.78684 0.0
C679 C 0.57289 0.52103 0.82971 0.0
C680 C 0.57984 0.5028 0.97043 0.0
C681 C 0.62142 0.5077 0.05093 0.0
C682 C 0.60861 0.50829 1.00557 0.0
C683 C 0.57161 0.50914 0.8726 0.0
C684 C 0.58437 0.50897 0.91866 0.0
H685 H 0.65454 0.53067 0.10425 0.0
H686 H 0.63353 0.53185 0.03135 0.0
H687 H 0.58764 0.49761 0.05192 0.0
H688 H 0.53553 0.48854 0.82928 0.0
H689 H 0.55655 0.48763 0.90153 0.0
C690 C 1.00017 0.62835 0.14337 0.0
C691 C 0.01071 0.64291 0.14031 0.0
C692 C 0.9996 0.61645 0.1009 0.0
C693 C 0.00998 0.61151 0.95385 0.0
H694 H 1.00499 0.56322 0.98441 0.0
C695 C 0.01655 0.56041 0.78478 0.0
C696 C 1.00649 0.54551 0.78746 0.0
C697 C 0.01679 0.57218 0.82758 0.0
C698 C 1.00615 0.57666 0.97486 0.0
H699 H 0.02927 0.65594 0.08985 0.0
H700 H 0.02838 0.63525 0.01628 0.0
H701 H 1.00614 0.58359 0.05876 0.0
H702 H 0.9886 0.5316 0.83789 0.0
H703 H 0.98872 0.55222 0.91189 0.0
H704 H 0.00994 0.60464 0.87004 0.0
C705 C 0.02022 0.63317 0.05108 0.0
C706 C 1.00683 0.58842 0.01778 0.0
C707 C 0.02075 0.6451 0.0935 0.0
C708 C 0.99654 0.54286 0.83419 0.0
C709 C 0.99673 0.55468 0.87701 0.0
C710 C 0.00927 0.59977 0.91097 0.0
C711 C 0.00958 0.61867 0.05392 0.0
C712 C 1.00881 0.60605 0.00803 0.0
C713 C 1.00692 0.56953 0.87456 0.0
C714 C 1.00739 0.58213 0.92065 0.0
H715 H 0.99204 0.62628 0.17824 0.0
H716 H 0.99104 0.60565 0.10457 0.0
H717 H 0.01117 0.62495 0.94431 0.0
H718 H 0.02448 0.56293 0.74973 0.0
H719 H 0.02504 0.58322 0.82408 0.0
C720 C 0.01794 0.21819 0.30569 0.0
C721 C 0.01283 0.21745 0.25116 0.0
C722 C 0.01498 0.20434 0.34013 0.0
C723 C 0.0093 0.15834 0.33207 0.0
H724 H 0.98806 0.16086 0.47378 0.0
C725 C 0.97832 0.10045 0.4259 0.0
C726 C 0.98323 0.09608 0.47859 0.0
C727 C 0.9826 0.11632 0.40472 0.0
C728 C 0.99421 0.16008 0.43456 0.0
H729 H 0.99968 0.20228 0.19081 0.0
H730 H 0.99461 0.17815 0.25058 0.0
H731 H 0.99448 0.18732 0.42404 0.0
H732 H 0.99589 0.10496 0.55147 0.0
H733 H 1.0033 0.13306 0.51404 0.0
H734 H 1.00869 0.13127 0.34142 0.0
C735 C 1.00127 0.18921 0.26638 0.0
C736 C 0.99787 0.17513 0.40628 0.0
C737 C 1.00425 0.20295 0.23213 0.0
C738 C 0.99201 0.10809 0.51056 0.0
C739 C 0.99616 0.12411 0.48942 0.0
C740 C 1.00562 0.14343 0.36003 0.0
C741 C 1.00691 0.18963 0.32028 0.0
C742 C 1.00494 0.17427 0.35406 0.0
C743 C 0.99181 0.12814 0.4359 0.0
C744 C 0.99757 0.14415 0.41065 0.0
H745 H 0.02449 0.22932 0.32137 0.0
H746 H 0.0194 0.20493 0.38161 0.0
H747 H 0.01516 0.15739 0.29245 0.0
H748 H 0.97175 0.09134 0.40029 0.0
H749 H 0.97899 0.11926 0.36343 0.0
C750 C 0.29806 0.99444 0.28737 0.0
C751 C 0.29548 0.01122 0.26913 0.0
C752 C 0.31172 0.99064 0.32161 0.0
C753 C 0.34614 0.0102 0.40582 0.0
H754 H 0.37052 0.96905 0.36486 0.0
C755 C 0.41041 0.99137 0.50566 0.0
C756 C 0.4225 0.98323 0.47247 0.0
C757 C 0.39374 0.99409 0.48705 0.0
C758 C 0.36403 0.98071 0.37651 0.0
H759 H 0.30437 0.03734 0.27477 0.0
H760 H 0.32846 0.03072 0.33355 0.0
H761 H 0.34342 0.97554 0.32262 0.0
H762 H 0.42711 0.97208 0.39381 0.0
H763 H 0.39846 0.97758 0.35997 0.0
H764 H 0.36744 0.01604 0.45659 0.0
C765 C 0.31989 0.02048 0.32215 0.0
C766 C 0.34823 0.98425 0.35303 0.0
C767 C 0.30619 0.02428 0.28809 0.0
C768 C 0.41784 0.97809 0.42034 0.0
C769 C 0.40136 0.98115 0.40125 0.0
C770 C 0.36216 1.00683 0.42855 0.0
C771 C 0.32312 1.00352 0.33797 0.0
C772 C 0.33915 0.99912 0.36695 0.0
C773 C 0.38901 0.98905 0.43445 0.0
C774 C 0.37143 0.99215 0.41354 0.0
H775 H 0.29009 0.9841 0.27287 0.0
H776 H 0.31365 0.97749 0.33378 0.0
H777 H 0.33938 0.02166 0.41801 0.0
H778 H 0.41383 0.99547 0.54611 0.0
H779 H 0.38458 1.00001 0.51407 0.0
C780 C 0.52089 0.30069 0.27916 0.0
C781 C 0.50488 0.29759 0.25586 0.0
C782 C 0.523 0.31424 0.31514 0.0
C783 C 0.50233 0.35538 0.34874 0.0
H784 H 0.53915 0.35752 0.45349 0.0
C785 C 0.52776 0.41963 0.41809 0.0
C786 C 0.5339 0.42154 0.47084 0.0
C787 C 0.52354 0.40353 0.39854 0.0
C788 C 0.5286 0.35711 0.42514 0.0
H789 H 0.47824 0.30495 0.25388 0.0
H790 H 0.48159 0.32829 0.31852 0.0
H791 H 0.5318 0.33029 0.41243 0.0
H792 H 0.54047 0.40851 0.54514 0.0
H793 H 0.5324 0.38015 0.51181 0.0
H794 H 0.49848 0.38189 0.36318 0.0
C795 C 0.49275 0.32084 0.30766 0.0
C796 C 0.52455 0.3415 0.40089 0.0
C797 C 0.49076 0.30748 0.27091 0.0
C798 C 0.53589 0.40716 0.50401 0.0
C799 C 0.5313 0.39099 0.48482 0.0
C800 C 0.50606 0.37081 0.37392 0.0
C801 C 0.50902 0.32474 0.32898 0.0
C802 C 0.51172 0.34056 0.36105 0.0
C803 C 0.5249 0.38902 0.43192 0.0
C804 C 0.51966 0.37204 0.41088 0.0
H805 H 0.53185 0.29291 0.26834 0.0
H806 H 0.53574 0.31685 0.33013 0.0
H807 H 0.4925 0.35534 0.31791 0.0
H808 H 0.5262 0.43064 0.39199 0.0
H809 H 0.51921 0.40252 0.35707 0.0
C810 C 0.21141 0.49201 0.2868 0.0
C811 C 0.22241 0.50504 0.26925 0.0
C812 C 0.19779 0.49573 0.32131 0.0
C813 C 0.17028 0.53221 0.35641 0.0
H814 H 0.1502 0.49961 0.45581 0.0
C815 C 0.1006 0.5387 0.42237 0.0
C816 C 0.09569 0.53316 0.4739 0.0
C817 C 0.1171 0.5356 0.40351 0.0
C818 C 0.15574 0.50903 0.42898 0.0
H819 H 0.22839 0.53199 0.27607 0.0
H820 H 0.20499 0.53841 0.33784 0.0
H821 H 0.17822 0.49386 0.4169 0.0
H822 H 0.10399 0.52018 0.54671 0.0
H823 H 0.13327 0.51549 0.51499 0.0
H824 H 0.14828 0.54771 0.36977 0.0
C825 C 0.20663 0.52537 0.32414 0.0
C826 C 0.17172 0.5056 0.40604 0.0
C827 C 0.22019 0.52166 0.28939 0.0
C828 C 0.10758 0.52457 0.50671 0.0
C829 C 0.12427 0.52179 0.48831 0.0
C830 C 0.15452 0.5358 0.38011 0.0
C831 C 0.19494 0.51256 0.33908 0.0
C832 C 0.179 0.51699 0.36859 0.0
C833 C 0.12923 0.52724 0.43633 0.0
C834 C 0.14681 0.52407 0.41557 0.0
H835 H 0.21296 0.47906 0.27211 0.0
H836 H 0.189 0.48555 0.33159 0.0
H837 H 0.17532 0.54118 0.32712 0.0
H838 H 0.0915 0.54505 0.39609 0.0
H839 H 0.1202 0.5395 0.36266 0.0
C840 C 1.00887 0.81693 0.11283 0.0
C841 C 1.00705 0.80058 0.09032 0.0
C842 C 0.01085 0.8311 0.0794 0.0
C843 C 1.00596 0.84826 0.94313 0.0
H844 H 0.04571 0.87498 0.98341 0.0
C845 C 0.02777 0.90794 0.82204 0.0
C846 C 0.03396 0.9215 0.85351 0.0
C847 C 0.02473 0.89203 0.8459 0.0
C848 C 0.03443 0.86783 0.97188 0.0
H849 H 1.00451 0.7864 0.01523 0.0
H850 H 1.00832 0.81128 0.95674 0.0
H851 H 0.03821 0.84996 0.0359 0.0
H852 H 0.04115 0.92969 0.93377 0.0
H853 H 0.03511 0.90243 0.97612 0.0
H854 H 1.00178 0.86659 0.88022 0.0
C855 C 1.0082 0.81303 1.00022 0.0
C856 C 0.03019 0.85347 1.00191 0.0
C857 C 1.00621 0.79883 0.03369 0.0
C858 C 0.03679 0.91919 0.9088 0.0
C859 C 0.0334 0.90353 0.9328 0.0
C860 C 0.01003 0.86291 0.91344 0.0
C861 C 0.01107 0.82917 0.02294 0.0
C862 C 0.01574 0.84379 0.98856 0.0
C863 C 0.02752 0.88968 0.90168 0.0
C864 C 0.02409 0.87309 0.92843 0.0
H865 H 0.00965 0.8187 0.1562 0.0
H866 H 0.01279 0.84352 0.09772 0.0
H867 H 0.99483 0.84082 0.93188 0.0
H868 H 0.02534 0.90967 0.77923 0.0
H869 H 0.02028 0.88162 0.82073 0.0
C870 C 0.72014 0.02167 0.02923 0.0
C871 C 0.71901 0.01107 0.075 0.0
C872 C 0.70677 0.0224 0.9921 0.0
C873 C 0.66654 1.00122 0.9502 0.0
H874 H 0.65239 0.04744 0.9153 0.0
C875 C 0.59756 0.01848 0.89781 0.0
C876 C 0.59436 0.03096 0.85825 0.0
C877 C 0.61422 0.01493 0.91415 0.0
C878 C 0.65634 0.03444 0.92361 0.0
H879 H 0.70336 0.99236 0.11652 0.0
H880 H 0.67966 0.99409 0.05262 0.0
H881 H 0.6794 0.04272 0.96151 0.0
H882 H 0.60609 0.04934 0.80415 0.0
H883 H 0.63538 0.04322 0.83327 0.0
H884 H 0.64309 0.99304 0.91395 0.0
C885 C 0.69101 1.00164 0.04503 0.0
C886 C 0.67183 0.03171 0.95009 0.0
C887 C 0.70444 1.00086 0.08211 0.0
C888 C 0.60818 0.03984 0.83531 0.0
C889 C 0.62491 0.03627 0.85172 0.0
C890 C 0.65103 1.00395 0.92369 0.0
C891 C 0.69193 0.01265 1.00019 0.0
C892 C 0.67684 0.01513 0.96503 0.0
C893 C 0.62806 0.02378 0.89132 0.0
C894 C 0.64556 0.02063 0.91162 0.0
H895 H 0.73119 0.02975 0.02276 0.0
H896 H 0.70791 0.03085 0.9576 0.0
H897 H 0.67025 0.98827 0.96034 0.0
H898 H 0.58713 0.01159 0.91672 0.0
H899 H 0.61621 1.00552 0.94568 0.0
C900 C 0.52102 0.715 0.03393 0.0
C901 C 0.50746 0.72048 0.06689 0.0
C902 C 0.51897 0.70076 1.00043 0.0
C903 C 0.4975 0.66077 1.00256 0.0
H904 H 0.50246 0.65785 0.84667 0.0
C905 C 0.47504 0.60172 0.89108 0.0
C906 C 0.48552 0.59498 0.85022 0.0
C907 C 0.4782 0.61789 0.91206 0.0
C908 C 0.50127 0.65845 0.89028 0.0
H909 H 0.48119 0.71588 0.09076 0.0
H910 H 0.47775 0.69073 0.03333 0.0
H911 H 0.50761 0.68517 0.89288 0.0
H912 H 0.50703 0.60031 0.79717 0.0
H913 H 0.51292 0.6285 0.83543 0.0
H914 H 0.49153 0.63425 1.00107 0.0
C915 C 0.48979 0.69757 0.03257 0.0
C916 C 0.50416 0.67403 0.91648 0.0
C917 C 0.49173 0.71192 0.06511 0.0
C918 C 0.49891 0.60505 0.8294 0.0
C919 C 0.50217 0.62126 0.85082 0.0
C920 C 0.49483 0.64526 0.97669 0.0
C921 C 0.50347 0.69173 1.0008 0.0
C922 C 0.5019 0.6753 0.97263 0.0
C923 C 0.49206 0.62764 0.89328 0.0
C924 C 0.49625 0.644 0.92016 0.0
H925 H 0.53325 0.7215 0.03504 0.0
H926 H 0.52967 0.69634 0.97631 0.0
H927 H 0.49601 0.66146 0.0461 0.0
H928 H 0.46472 0.59427 0.90832 0.0
H929 H 0.46992 0.62262 0.94388 0.0
C930 C 0.79805 0.49465 0.0274 0.0
C931 C 0.79901 0.50503 0.07368 0.0
C932 C 0.81141 0.49438 0.98999 0.0
C933 C 0.85354 0.51528 0.95722 0.0
H934 H 0.8636 0.47046 0.89839 0.0
C935 C 0.92141 0.49376 0.90513 0.0
C936 C 0.92407 0.48419 0.85788 0.0
C937 C 0.90488 0.4977 0.92212 0.0
C938 C 0.86086 0.48312 0.91385 0.0
H939 H 0.81424 0.52397 0.11547 0.0
H940 H 0.83804 0.52266 0.05285 0.0
H941 H 0.83663 0.47529 0.94399 0.0
H942 H 0.9117 0.47129 0.79099 0.0
H943 H 0.88256 0.47818 0.82094 0.0
H944 H 0.87847 0.5226 0.92994 0.0
C945 C 0.82686 0.51501 0.04408 0.0
C946 C 0.84528 0.48599 0.93987 0.0
C947 C 0.81335 0.51552 0.08089 0.0
C948 C 0.90991 0.4785 0.82798 0.0
C949 C 0.89332 0.4825 0.84493 0.0
C950 C 0.86925 0.51229 0.93217 0.0
C951 C 0.82626 0.50417 0.9986 0.0
C952 C 0.8416 0.50197 0.96344 0.0
C953 C 0.89068 0.49221 0.89204 0.0
C954 C 0.87322 0.49605 0.9116 0.0
H955 H 0.78715 0.48639 0.02067 0.0
H956 H 0.81015 0.48622 0.95489 0.0
H957 H 0.85101 0.52794 0.97294 0.0
H958 H 0.93215 0.49814 0.92909 0.0
H959 H 0.90322 0.50484 0.9593 0.0
C960 C 0.02743 0.19724 0.79072 0.0
C961 C 0.01487 0.20307 0.82707 0.0
C962 C 0.02721 0.18033 0.77143 0.0
C963 C 1.00622 0.13759 0.80127 0.0
H964 H 0.03177 0.12357 0.67467 0.0
C965 C 0.01621 0.06568 0.75648 0.0
C966 C 0.01813 0.06017 0.70287 0.0
C967 C 0.01589 0.08318 0.769 0.0
C968 C 0.02431 0.12714 0.70978 0.0
H969 H 0.99145 0.19616 0.86802 0.0
H970 H 0.99023 0.16738 0.83202 0.0
H971 H 0.02961 0.15362 0.69678 0.0
H972 H 0.02111 0.06856 0.62018 0.0
H973 H 0.02046 0.09901 0.64126 0.0
H974 H 0.99981 0.11137 0.81207 0.0
C975 C 1.00102 0.17521 0.8207 0.0
C976 C 0.02333 0.1446 0.72326 0.0
C977 C 1.00156 0.19191 0.84116 0.0
C978 C 0.01987 0.0725 0.662 0.0
C979 C 0.01954 0.09003 0.67438 0.0
C980 C 1.0068 0.12027 0.78699 0.0
C981 C 0.01413 0.16882 0.7868 0.0
C982 C 0.01446 0.1502 0.76984 0.0
C983 C 0.0173 0.09576 0.72814 0.0
C984 C 0.01613 0.11459 0.74161 0.0
H985 H 0.03782 0.20559 0.77876 0.0
H986 H 0.03768 0.17625 0.74585 0.0
H987 H 0.99948 0.14088 0.838 0.0
H988 H 0.0144 0.05644 0.7886 0.0
H989 H 0.01446 0.08673 0.81104 0.0
C990 C 0.32637 0.02531 0.84935 0.0
C991 C 0.31426 0.01442 0.82524 0.0
C992 C 0.34338 0.02564 0.83138 0.0
C993 C 0.37219 0.01379 0.7171 0.0
H994 H 0.40716 0.01627 0.8279 0.0
C995 C 0.44464 1.00636 0.66626 0.0
C996 C 0.45674 0.01499 0.6984 0.0
C997 C 0.42721 1.00647 0.67981 0.0
C998 C 0.39767 0.01589 0.79607 0.0
H999 H 0.31077 0.99553 0.76195 0.0
H1000 H 0.34043 0.99614 0.73057 0.0
H1001 H 0.37723 0.01632 0.85367 0.0
H1002 H 0.45975 0.03087 0.76948 0.0
H1003 H 0.42942 0.03172 0.79191 0.0
H1004 H 0.39265 0.01357 0.65935 0.0
C1005 C 0.3367 1.00453 0.76336 0.0
C1006 C 0.38037 0.01585 0.81103 0.0
C1007 C 0.31963 1.00418 0.78143 0.0
C1008 C 0.45085 0.02402 0.7439 0.0
C1009 C 0.43337 0.02434 0.75705 0.0
C1010 C 0.38955 0.01399 0.70201 0.0
C1011 C 0.34889 0.0151 0.78864 0.0
C1012 C 0.36735 0.01489 0.77187 0.0
C1013 C 0.42124 0.01539 0.72566 0.0
C1014 C 0.40261 0.01512 0.74129 0.0
H1015 H 0.3227 0.03372 0.88216 0.0
H1016 H 0.35223 0.03427 0.85102 0.0
H1017 H 0.36257 0.01315 0.68568 0.0
H1018 H 0.44868 0.99909 0.63123 0.0
H1019 H 0.4185 0.99916 0.65491 0.0
C1020 C 0.49155 0.31871 0.78711 0.0
C1021 C 0.50337 0.31328 0.82659 0.0
C1022 C 0.49171 0.33564 0.76776 0.0
C1023 C 0.5072 0.37884 0.80937 0.0
H1024 H 0.49388 0.39258 0.66485 0.0
C1025 C 0.51316 0.44924 0.74294 0.0
C1026 C 0.50122 0.45619 0.70671 0.0
C1027 C 0.51324 0.43174 0.75475 0.0
C1028 C 0.49743 0.38903 0.70565 0.0
H1029 H 0.52546 0.32106 0.87312 0.0
H1030 H 0.52613 0.35017 0.83861 0.0
H1031 H 0.49493 0.36223 0.68826 0.0
H1032 H 0.48027 0.45016 0.65296 0.0
H1033 H 0.48012 0.41946 0.67406 0.0
H1034 H 0.50943 0.40536 0.82756 0.0
C1035 C 0.5162 0.3417 0.82414 0.0
C1036 C 0.49809 0.37153 0.71908 0.0
C1037 C 0.51588 0.32493 0.84393 0.0
C1038 C 0.48932 0.4452 0.68219 0.0
C1039 C 0.48946 0.42755 0.69373 0.0
C1040 C 0.50648 0.39621 0.79613 0.0
C1041 C 0.50381 0.34755 0.78697 0.0
C1042 C 0.5031 0.36614 0.77121 0.0
C1043 C 0.50142 0.42051 0.73041 0.0
C1044 C 0.5017 0.4017 0.744 0.0
H1045 H 0.48178 0.31005 0.77262 0.0
H1046 H 0.48193 0.33953 0.73927 0.0
H1047 H 0.51067 0.37542 0.85035 0.0
H1048 H 0.52266 0.45737 0.76175 0.0
H1049 H 0.52294 0.42701 0.78216 0.0
C1050 C 0.19823 0.51409 0.78615 0.0
C1051 C 0.20436 0.50193 0.8235 0.0
C1052 C 0.1812 0.5136 0.76783 0.0
C1053 C 0.13848 0.49668 0.80743 0.0
H1054 H 0.12566 0.50773 0.66023 0.0
C1055 C 0.06789 0.49036 0.73842 0.0
C1056 C 0.06168 0.50129 0.69786 0.0
C1057 C 0.08542 0.48985 0.75098 0.0
C1058 C 0.12887 0.50484 0.70182 0.0
H1059 H 0.19743 0.47915 0.86821 0.0
H1060 H 0.16796 0.47825 0.83635 0.0
H1061 H 0.1557 0.50823 0.68636 0.0
H1062 H 0.06916 0.52043 0.63902 0.0
H1063 H 0.09932 0.52019 0.66234 0.0
H1064 H 0.11185 0.4938 0.82388 0.0
C1065 C 0.17615 0.48848 0.82226 0.0
C1066 C 0.14623 0.50507 0.71675 0.0
C1067 C 0.19311 0.48899 0.84061 0.0
C1068 C 0.07348 0.51169 0.67016 0.0
C1069 C 0.09093 0.51146 0.68345 0.0
C1070 C 0.12116 0.49665 0.79278 0.0
C1071 C 0.16982 0.50092 0.78628 0.0
C1072 C 0.15131 0.50088 0.76975 0.0
C1073 C 0.09727 0.50057 0.72427 0.0
C1074 C 0.11597 0.50063 0.73963 0.0
H1075 H 0.20645 0.52431 0.7722 0.0
H1076 H 0.17683 0.52347 0.74044 0.0
H1077 H 0.14178 0.49373 0.84893 0.0
H1078 H 0.05922 0.48209 0.76035 0.0
H1079 H 0.08961 0.48091 0.78161 0.0
C1080 C 0.01721 0.819 0.54077 0.0
C1081 C 1.00771 0.81381 0.49518 0.0
C1082 C 0.01611 0.83587 0.56038 0.0
C1083 C 1.00257 0.87956 0.5152 0.0
H1084 H 1.00693 0.89133 0.66674 0.0
C1085 C 0.99269 0.94941 0.58523 0.0
C1086 C 1.0025 0.95566 0.6285 0.0
C1087 C 0.99262 0.93191 0.5725 0.0
C1088 C 1.00585 0.88836 0.62411 0.0
H1089 H 0.98878 0.82212 0.43695 0.0
H1090 H 0.9865 0.85112 0.4715 0.0
H1091 H 1.00819 0.86142 0.63906 0.0
H1092 H 0.02003 0.94822 0.69223 0.0
H1093 H 0.02037 0.91797 0.66928 0.0
H1094 H 1.00052 0.9063 0.49973 0.0
C1095 C 0.99538 0.84248 0.49104 0.0
C1096 C 1.00657 0.87109 0.60817 0.0
C1097 C 0.99664 0.82576 0.47114 0.0
C1098 C 0.01214 0.94388 0.65901 0.0
C1099 C 0.01228 0.92641 0.64584 0.0
C1100 C 1.00189 0.89674 0.53102 0.0
C1101 C 1.00534 0.84799 0.53527 0.0
C1102 C 1.0048 0.86639 0.55336 0.0
C1103 C 1.00264 0.9201 0.60195 0.0
C1104 C 1.0034 0.90151 0.58575 0.0
H1105 H 0.02587 0.81015 0.56044 0.0
H1106 H 0.02407 0.83949 0.5943 0.0
H1107 H 1.00164 0.87669 0.47248 0.0
H1108 H 0.985 0.95803 0.56106 0.0
H1109 H 0.98464 0.92769 0.53935 0.0
C1110 C 0.69776 0.99311 0.52612 0.0
C1111 C 0.70459 0.00865 0.50744 0.0
C1112 C 0.6809 0.99222 0.5456 0.0
C1113 C 0.63972 0.01715 0.54196 0.0
H1114 H 0.62422 0.98208 0.64121 0.0
C1115 C 0.57135 0.0175 0.62841 0.0
C1116 C 0.56205 1.00208 0.62883 0.0
C1117 C 0.58884 0.01775 0.61681 0.0
C1118 C 0.62834 0.99186 0.61312 0.0
H1119 H 0.69949 0.03566 0.49859 0.0
H1120 H 0.67056 0.0344 0.5349 0.0
H1121 H 0.65463 0.98429 0.61916 0.0
H1122 H 0.56423 0.9747 0.61812 0.0
H1123 H 0.59512 0.97512 0.598 0.0
H1124 H 0.61352 0.02497 0.53709 0.0
C1125 C 0.67775 0.02262 0.53199 0.0
C1126 C 0.64584 0.99315 0.60023 0.0
C1127 C 0.69447 0.02342 0.51142 0.0
C1128 C 0.57092 0.98681 0.61784 0.0
C1129 C 0.58864 0.98705 0.60672 0.0
C1130 C 0.62236 0.01602 0.55547 0.0
C1131 C 0.67044 1.00691 0.54793 0.0
C1132 C 0.65185 1.0058 0.56413 0.0
C1133 C 0.59777 1.00259 0.60549 0.0
C1134 C 0.61638 1.00335 0.59103 0.0
H1135 H 0.70525 0.98149 0.52372 0.0
H1136 H 0.67594 0.97983 0.55691 0.0
H1137 H 0.64347 0.0268 0.51297 0.0
H1138 H 0.5651 0.02957 0.63668 0.0
H1139 H 0.59543 0.02991 0.61699 0.0
C1140 C 0.49984 0.69739 0.54884 0.0
C1141 C 0.5103 0.70323 0.50623 0.0
C1142 C 0.50098 0.68041 0.56737 0.0
C1143 C 0.51684 0.63747 0.52261 0.0
H1144 H 0.50938 0.62462 0.67202 0.0
C1145 C 0.52592 0.56711 0.58972 0.0
C1146 C 0.51575 0.56061 0.63184 0.0
C1147 C 0.52598 0.58466 0.5777 0.0
C1148 C 0.51131 0.62785 0.62989 0.0
H1149 H 0.53088 0.69597 0.45228 0.0
H1150 H 0.5332 0.66675 0.48508 0.0
H1151 H 0.50798 0.65461 0.64601 0.0
H1152 H 0.49756 0.56768 0.69425 0.0
H1153 H 0.49708 0.59794 0.67218 0.0
H1154 H 0.51978 0.61091 0.50579 0.0
C1155 C 0.5236 0.67498 0.503 0.0
C1156 C 0.51053 0.6452 0.61495 0.0
C1157 C 0.52232 0.69182 0.48415 0.0
C1158 C 0.50571 0.5722 0.66183 0.0
C1159 C 0.50551 0.5897 0.6492 0.0
C1160 C 0.51751 0.6202 0.53739 0.0
C1161 C 0.51273 0.66882 0.54415 0.0
C1162 C 0.51339 0.65032 0.56101 0.0
C1163 C 0.51555 0.59629 0.60658 0.0
C1164 C 0.51486 0.61499 0.59133 0.0
H1165 H 0.49042 0.70581 0.56684 0.0
H1166 H 0.49229 0.67626 0.59885 0.0
H1167 H 0.5187 0.64069 0.48043 0.0
H1168 H 0.53392 0.55864 0.56601 0.0
H1169 H 0.5343 0.58906 0.54562 0.0
C1170 C 0.82011 0.52222 0.53165 0.0
C1171 C 0.81372 0.50706 0.50868 0.0
C1172 C 0.83701 0.52312 0.55083 0.0
C1173 C 0.87897 0.50007 0.53724 0.0
H1174 H 0.89367 0.53157 0.64893 0.0
C1175 C 0.94752 0.49851 0.62176 0.0
C1176 C 0.95633 0.51406 0.62826 0.0
C1177 C 0.93003 0.49819 0.61014 0.0
C1178 C 0.88977 0.52281 0.61734 0.0
H1179 H 0.81972 0.4806 0.49191 0.0
H1180 H 0.84876 0.48184 0.52715 0.0
H1181 H 0.86324 0.52922 0.62684 0.0
H1182 H 0.95334 0.54157 0.6284 0.0
H1183 H 0.92245 0.54102 0.60836 0.0
H1184 H 0.90539 0.49341 0.5286 0.0
C1185 C 0.84113 0.49338 0.52807 0.0
C1186 C 0.87227 0.52145 0.60449 0.0
C1187 C 0.82437 0.49259 0.50804 0.0
C1188 C 0.94701 0.52938 0.62323 0.0
C1189 C 0.9293 0.52905 0.61221 0.0
C1190 C 0.89633 0.50127 0.55056 0.0
C1191 C 0.84796 0.50879 0.54835 0.0
C1192 C 0.86656 0.51005 0.56405 0.0
C1193 C 0.92064 0.51341 0.605 0.0
C1194 C 0.90202 0.51266 0.59068 0.0
H1195 H 0.81224 0.53361 0.53289 0.0
H1196 H 0.84161 0.53527 0.56571 0.0
H1197 H 0.8754 0.49148 0.5049 0.0
H1198 H 0.95418 0.48641 0.62523 0.0
H1199 H 0.92382 0.48592 0.60556 0.0
loop_
_geom_bond_atom_site_label_1
_geom_bond_atom_site_label_2
_geom_bond_distance
_geom_bond_site_symmetry_2
_ccdc_geom_bond_type
C0 C1 1.264 . S
C0 C5 1.479 . S
C0 C10 1.465 . S
C1 C0 1.264 . S
C1 C3 1.339 . S
C1 H28 0.931 . S
C2 C3 1.395 . S
C2 C4 1.320 . S
C3 C1 1.339 . S
C3 C2 1.395 . S
C3 H29 0.929 . S
C4 C2 1.320 . S
C4 C5 1.405 . S
C4 H30 0.930 . S
C5 C0 1.479 . S
C5 C4 1.405 . S
C5 H31 0.931 . S
U6 O7 2.454 . S
U6 O8 2.458 . S
U6 C9 2.984 . S
U6 C10 2.847 . S
U6 C23 2.882 . S
U6 O24 2.441 . S
U6 O25 2.420 . S
U6 O26 2.455 . S
U6 O27 2.449 . S
O7 U6 2.454 . S
O7 C9 1.353 . S
O8 U6 2.458 . S
O8 C9 1.286 . S
C9 U6 2.984 . S
C9 O7 1.353 . S
C9 O8 1.286 . S
C9 C11 1.363 . S
C10 C0 1.465 . S
C10 U6 2.847 . S
C10 O24 1.249 . S
C10 O25 1.202 . S
C11 C9 1.363 . S
C11 C13 1.408 . S
C11 C16 1.342 . S
C12 C13 1.310 . S
C12 C15 1.461 . S
C12 H32 0.932 . S
C13 C11 1.408 . S
C13 C12 1.310 . S
C13 H33 0.930 . S
C14 C15 1.474 . S
C14 C16 1.285 . S
C14 H34 0.929 . S
C15 C12 1.461 . S
C15 C14 1.474 . S
C16 C11 1.342 . S
C16 C14 1.285 . S
C16 H35 0.930 . S
C17 C20 1.424 . S
C17 C22 1.245 . S
C17 C23 1.428 . S
C18 C21 1.260 . S
C18 C22 1.477 . S
C18 H36 0.932 . S
C19 C20 1.384 . S
C19 C21 1.479 . S
C19 H37 0.929 . S
C20 C17 1.424 . S
C20 C19 1.384 . S
C20 H38 0.928 . S
C21 C18 1.260 . S
C21 C19 1.479 . S
C22 C17 1.245 . S
C22 C18 1.477 . S
C22 H39 0.932 . S
C23 U6 2.882 . S
C23 C17 1.428 . S
C23 O26 1.301 . S
C23 O27 1.282 . S
O24 U6 2.441 . S
O24 C10 1.249 . S
O25 U6 2.420 . S
O25 C10 1.202 . S
O26 U6 2.455 . S
O26 C23 1.301 . S
O27 U6 2.449 . S
O27 C23 1.282 . S
H28 C1 0.931 . S
H29 C3 0.929 . S
H30 C4 0.930 . S
H31 C5 0.931 . S
H32 C12 0.932 . S
H33 C13 0.930 . S
H34 C14 0.929 . S
H35 C16 0.930 . S
H36 C18 0.932 . S
H37 C19 0.929 . S
H38 C20 0.928 . S
H39 C22 0.932 . S
C40 C41 1.264 . S
C40 C45 1.479 . S
C40 C50 1.465 . S
C41 C40 1.264 . S
C41 C43 1.339 . S
C41 H68 0.931 . S
C42 C43 1.403 . S
C42 C44 1.320 . S
C43 C41 1.339 . S
C43 C42 1.403 . S
C43 H69 0.929 . S
C44 C42 1.320 . S
C44 C45 1.410 . S
C44 H70 0.925 1_455 S
C45 C40 1.479 . S
C45 C44 1.410 . S
C45 H71 0.931 . S
U46 O47 2.454 . S
U46 O48 2.458 . S
U46 C49 2.984 . S
U46 C50 2.847 . S
U46 C63 2.882 . S
U46 O64 2.441 . S
U46 O65 2.420 . S
U46 O66 2.455 . S
U46 O67 2.449 . S
O47 U46 2.454 . S
O47 C49 1.353 . S
O48 U46 2.458 . S
O48 C49 1.286 . S
C49 U46 2.984 . S
C49 O47 1.353 . S
C49 O48 1.286 . S
C49 C51 1.363 . S
C50 C40 1.465 . S
C50 U46 2.847 . S
C50 O64 1.249 . S
C50 O65 1.202 . S
C51 C49 1.363 . S
C51 C53 1.408 . S
C51 C56 1.339 1_455 S
C52 C53 1.309 1_655 S
C52 C55 1.461 . S
C52 H72 0.932 . S
C53 C51 1.408 . S
C53 C52 1.309 1_455 S
C53 H73 0.930 . S
C54 C55 1.474 . S
C54 C56 1.288 . S
C54 H74 0.929 . S
C55 C52 1.461 . S
C55 C54 1.474 . S
C56 C51 1.339 1_655 S
C56 C54 1.288 . S
C56 H75 0.929 . S
C57 C60 1.424 . S
C57 C62 1.245 . S
C57 C63 1.428 . S
C58 C61 1.270 . S
C58 C62 1.477 . S
C58 H76 0.932 . S
C59 C60 1.384 . S
C59 C61 1.486 . S
C59 H77 0.929 . S
C60 C57 1.424 . S
C60 C59 1.384 . S
C60 H78 0.928 . S
C61 C58 1.270 . S
C61 C59 1.486 . S
C62 C57 1.245 . S
C62 C58 1.477 . S
C62 H79 0.932 . S
C63 U46 2.882 . S
C63 C57 1.428 . S
C63 O66 1.301 . S
C63 O67 1.282 . S
O64 U46 2.441 . S
O64 C50 1.249 . S
O65 U46 2.420 . S
O65 C50 1.202 . S
O66 U46 2.455 . S
O66 C63 1.301 . S
O67 U46 2.449 . S
O67 C63 1.282 . S
H68 C41 0.931 . S
H69 C43 0.929 . S
H70 C44 0.925 1_655 S
H71 C45 0.931 . S
H72 C52 0.932 . S
H73 C53 0.930 . S
H74 C54 0.929 . S
H75 C56 0.929 . S
H76 C58 0.932 . S
H77 C59 0.929 . S
H78 C60 0.928 . S
H79 C62 0.932 . S
C80 C81 1.264 . S
C80 C85 1.479 . S
C80 C90 1.465 . S
C81 C80 1.264 . S
C81 C83 1.339 . S
C81 H108 0.931 . S
C82 C83 1.395 . S
C82 C84 1.320 . S
C83 C81 1.339 . S
C83 C82 1.395 . S
C83 H109 0.929 . S
C84 C82 1.320 . S
C84 C85 1.405 . S
C84 H110 0.921 1_545 S
C85 C80 1.479 . S
C85 C84 1.405 . S
C85 H111 0.931 . S
U86 O87 2.454 . S
U86 O88 2.458 . S
U86 C89 2.984 . S
U86 C90 2.847 . S
U86 C103 2.882 . S
U86 O104 2.441 . S
U86 O105 2.420 . S
U86 O106 2.455 . S
U86 O107 2.449 . S
O87 U86 2.454 . S
O87 C89 1.353 . S
O88 U86 2.458 . S
O88 C89 1.286 . S
C89 U86 2.984 . S
C89 O87 1.353 . S
C89 O88 1.286 . S
C89 C91 1.363 . S
C90 C80 1.465 . S
C90 U86 2.847 . S
C90 O104 1.249 . S
C90 O105 1.202 . S
C91 C89 1.363 . S
C91 C93 1.408 . S
C91 C96 1.342 . S
C92 C93 1.310 . S
C92 C95 1.461 . S
C92 H112 0.936 . S
C93 C91 1.408 . S
C93 C92 1.310 . S
C93 H113 0.930 . S
C94 C95 1.474 1_565 S
C94 C96 1.285 1_565 S
C94 H114 0.930 . S
C95 C92 1.461 . S
C95 C94 1.474 1_545 S
C96 C91 1.342 . S
C96 C94 1.285 1_545 S
C96 H115 0.932 . S
C97 C100 1.424 . S
C97 C102 1.245 . S
C97 C103 1.428 . S
C98 C101 1.260 . S
C98 C102 1.477 . S
C98 H116 0.932 . S
C99 C100 1.384 . S
C99 C101 1.479 . S
C99 H117 0.929 . S
C100 C97 1.424 . S
C100 C99 1.384 . S
C100 H118 0.928 . S
C101 C98 1.260 . S
C101 C99 1.479 . S
C102 C97 1.245 . S
C102 C98 1.477 . S
C102 H119 0.932 . S
C103 U86 2.882 . S
C103 C97 1.428 . S
C103 O106 1.301 . S
C103 O107 1.282 . S
O104 U86 2.441 . S
O104 C90 1.249 . S
O105 U86 2.420 . S
O105 C90 1.202 . S
O106 U86 2.455 . S
O106 C103 1.301 . S
O107 U86 2.449 . S
O107 C103 1.282 . S
H108 C81 0.931 . S
H109 C83 0.929 . S
H110 C84 0.921 1_565 S
H111 C85 0.931 . S
H112 C92 0.936 . S
H113 C93 0.930 . S
H114 C94 0.930 . S
H115 C96 0.932 . S
H116 C98 0.932 . S
H117 C99 0.929 . S
H118 C100 0.928 . S
H119 C102 0.932 . S
C120 C121 1.264 . S
C120 C125 1.479 . S
C120 C130 1.465 . S
C121 C120 1.264 . S
C121 C123 1.339 . S
C121 H148 0.931 . S
C122 C123 1.395 . S
C122 C124 1.320 . S
C123 C121 1.339 . S
C123 C122 1.395 . S
C123 H149 0.929 . S
C124 C122 1.320 . S
C124 C125 1.405 . S
C124 H150 0.930 . S
C125 C120 1.479 . S
C125 C124 1.405 . S
C125 H151 0.931 . S
U126 O127 2.454 . S
U126 O128 2.458 . S
U126 C129 2.984 . S
U126 C130 2.847 . S
U126 C143 2.882 . S
U126 O144 2.441 . S
U126 O145 2.420 . S
U126 O146 2.455 . S
U126 O147 2.449 . S
O127 U126 2.454 . S
O127 C129 1.353 . S
O128 U126 2.458 . S
O128 C129 1.286 . S
C129 U126 2.984 . S
C129 O127 1.353 . S
C129 O128 1.286 . S
C129 C131 1.363 . S
C130 C120 1.465 . S
C130 U126 2.847 . S
C130 O144 1.249 . S
C130 O145 1.202 . S
C131 C129 1.363 . S
C131 C133 1.408 . S
C131 C136 1.342 . S
C132 C133 1.310 . S
C132 C135 1.461 . S
C132 H152 0.932 . S
C133 C131 1.408 . S
C133 C132 1.310 . S
C133 H153 0.930 . S
C134 C135 1.474 . S
C134 C136 1.285 . S
C134 H154 0.929 . S
C135 C132 1.461 . S
C135 C134 1.474 . S
C136 C131 1.342 . S
C136 C134 1.285 . S
C136 H155 0.930 . S
C137 C140 1.424 . S
C137 C142 1.245 . S
C137 C143 1.428 . S
C138 C141 1.260 . S
C138 C142 1.477 . S
C138 H156 0.932 . S
C139 C140 1.384 . S
C139 C141 1.479 . S
C139 H157 0.929 . S
C140 C137 1.424 . S
C140 C139 1.384 . S
C140 H158 0.928 . S
C141 C138 1.260 . S
C141 C139 1.479 . S
C142 C137 1.245 . S
C142 C138 1.477 . S
C142 H159 0.932 . S
C143 U126 2.882 . S
C143 C137 1.428 . S
C143 O146 1.301 . S
C143 O147 1.282 . S
O144 U126 2.441 . S
O144 C130 1.249 . S
O145 U126 2.420 . S
O145 C130 1.202 . S
O146 U126 2.455 . S
O146 C143 1.301 . S
O147 U126 2.449 . S
O147 C143 1.282 . S
H148 C121 0.931 . S
H149 C123 0.929 . S
H150 C124 0.930 . S
H151 C125 0.931 . S
H152 C132 0.932 . S
H153 C133 0.930 . S
H154 C134 0.929 . S
H155 C136 0.930 . S
H156 C138 0.932 . S
H157 C139 0.929 . S
H158 C140 0.928 . S
H159 C142 0.932 . S
C160 C161 1.264 . S
C160 C165 1.479 . S
C160 C170 1.465 . S
C161 C160 1.264 . S
C161 C163 1.339 . S
C161 H188 0.931 . S
C162 C163 1.395 . S
C162 C164 1.320 . S
C163 C161 1.339 . S
C163 C162 1.395 . S
C163 H189 0.929 . S
C164 C162 1.320 . S
C164 C165 1.405 . S
C164 H190 0.930 . S
C165 C160 1.479 . S
C165 C164 1.405 . S
C165 H191 0.931 . S
U166 O167 2.454 . S
U166 O168 2.458 . S
U166 C169 2.984 . S
U166 C170 2.847 1_554 S
U166 C183 2.882 . S
U166 O184 2.441 1_554 S
U166 O185 2.420 1_554 S
U166 O186 2.455 . S
U166 O187 2.449 . S
O167 U166 2.454 . S
O167 C169 1.353 . S
O168 U166 2.458 . S
O168 C169 1.286 . S
C169 U166 2.984 . S
C169 O167 1.353 . S
C169 O168 1.286 . S
C169 C171 1.363 . S
C170 C160 1.465 . S
C170 U166 2.847 1_556 S
C170 O184 1.249 . S
C170 O185 1.202 . S
C171 C169 1.363 . S
C171 C173 1.408 . S
C171 C176 1.342 . S
C172 C173 1.310 . S
C172 C175 1.461 . S
C172 H192 0.932 . S
C173 C171 1.408 . S
C173 C172 1.310 . S
C173 H193 0.930 . S
C174 C175 1.474 . S
C174 C176 1.285 . S
C174 H194 0.929 . S
C175 C172 1.461 . S
C175 C174 1.474 . S
C176 C171 1.342 . S
C176 C174 1.285 . S
C176 H195 0.930 . S
C177 C180 1.424 . S
C177 C182 1.245 . S
C177 C183 1.428 . S
C178 C181 1.260 . S
C178 C182 1.477 . S
C178 H196 0.932 . S
C179 C180 1.384 . S
C179 C181 1.479 . S
C179 H197 0.929 . S
C180 C177 1.424 . S
C180 C179 1.384 . S
C180 H198 0.928 . S
C181 C178 1.260 . S
C181 C179 1.479 . S
C182 C177 1.245 . S
C182 C178 1.477 . S
C182 H199 0.932 . S
C183 U166 2.882 . S
C183 C177 1.428 . S
C183 O186 1.301 . S
C183 O187 1.282 . S
O184 U166 2.441 1_556 S
O184 C170 1.249 . S
O185 U166 2.420 1_556 S
O185 C170 1.202 . S
O186 U166 2.455 . S
O186 C183 1.301 . S
O187 U166 2.449 . S
O187 C183 1.282 . S
H188 C161 0.931 . S
H189 C163 0.929 . S
H190 C164 0.930 . S
H191 C165 0.931 . S
H192 C172 0.932 . S
H193 C173 0.930 . S
H194 C174 0.929 . S
H195 C176 0.930 . S
H196 C178 0.932 . S
H197 C179 0.929 . S
H198 C180 0.928 . S
H199 C182 0.932 . S
C200 C201 1.264 . S
C200 C205 1.479 . S
C200 C210 1.465 . S
C201 C200 1.264 . S
C201 C203 1.339 . S
C201 H228 0.931 . S
C202 C203 1.395 . S
C202 C204 1.320 . S
C203 C201 1.339 . S
C203 C202 1.395 . S
C203 H229 0.929 . S
C204 C202 1.320 . S
C204 C205 1.405 . S
C204 H230 0.930 . S
C205 C200 1.479 . S
C205 C204 1.405 . S
C205 H231 0.931 . S
U206 O207 2.454 . S
U206 O208 2.458 . S
U206 C209 2.984 . S
U206 C210 2.847 1_554 S
U206 C223 2.882 . S
U206 O224 2.441 1_554 S
U206 O225 2.420 1_554 S
U206 O226 2.455 . S
U206 O227 2.449 . S
O207 U206 2.454 . S
O207 C209 1.353 . S
O208 U206 2.458 . S
O208 C209 1.286 . S
C209 U206 2.984 . S
C209 O207 1.353 . S
C209 O208 1.286 . S
C209 C211 1.363 . S
C210 C200 1.465 . S
C210 U206 2.847 1_556 S
C210 O224 1.249 . S
C210 O225 1.202 . S
C211 C209 1.363 . S
C211 C213 1.408 . S
C211 C216 1.342 . S
C212 C213 1.310 . S
C212 C215 1.461 . S
C212 H232 0.932 . S
C213 C211 1.408 . S
C213 C212 1.310 . S
C213 H233 0.930 . S
C214 C215 1.474 . S
C214 C216 1.285 . S
C214 H234 0.934 . S
C215 C212 1.461 . S
C215 C214 1.474 . S
C216 C211 1.342 . S
C216 C214 1.285 . S
C216 H235 0.930 . S
C217 C220 1.424 . S
C217 C222 1.245 . S
C217 C223 1.428 . S
C218 C221 1.260 . S
C218 C222 1.477 . S
C218 H236 0.932 . S
C219 C220 1.384 . S
C219 C221 1.479 . S
C219 H237 0.929 . S
C220 C217 1.424 . S
C220 C219 1.384 . S
C220 H238 0.928 . S
C221 C218 1.260 . S
C221 C219 1.479 . S
C222 C217 1.245 . S
C222 C218 1.477 . S
C222 H239 0.932 . S
C223 U206 2.882 . S
C223 C217 1.428 . S
C223 O226 1.301 . S
C223 O227 1.282 . S
O224 U206 2.441 1_556 S
O224 C210 1.249 . S
O225 U206 2.420 1_556 S
O225 C210 1.202 . S
O226 U206 2.455 . S
O226 C223 1.301 . S
O227 U206 2.449 . S
O227 C223 1.282 . S
H228 C201 0.931 . S
H229 C203 0.929 . S
H230 C204 0.930 . S
H231 C205 0.931 . S
H232 C212 0.932 . S
H233 C213 0.930 . S
H234 C214 0.934 . S
H235 C216 0.930 . S
H236 C218 0.932 . S
H237 C219 0.929 . S
H238 C220 0.928 . S
H239 C222 0.932 . S
C240 C241 1.264 . S
C240 C245 1.479 . S
C240 C250 1.465 . S
C241 C240 1.264 . S
C241 C243 1.339 . S
C241 H268 0.931 . S
C242 C243 1.395 . S
C242 C244 1.320 . S
C243 C241 1.339 . S
C243 C242 1.395 . S
C243 H269 0.929 . S
C244 C242 1.320 . S
C244 C245 1.405 . S
C244 H270 0.924 1_545 S
C245 C240 1.479 . S
C245 C244 1.405 . S
C245 H271 0.931 . S
U246 O247 2.454 . S
U246 O248 2.458 . S
U246 C249 2.984 . S
U246 C250 2.847 1_554 S
U246 C263 2.882 . S
U246 O264 2.441 1_554 S
U246 O265 2.420 1_554 S
U246 O266 2.455 . S
U246 O267 2.449 . S
O247 U246 2.454 . S
O247 C249 1.353 . S
O248 U246 2.458 . S
O248 C249 1.286 . S
C249 U246 2.984 . S
C249 O247 1.353 . S
C249 O248 1.286 . S
C249 C251 1.363 . S
C250 C240 1.465 . S
C250 U246 2.847 1_556 S
C250 O264 1.249 . S
C250 O265 1.202 . S
C251 C249 1.363 . S
C251 C253 1.408 . S
C251 C256 1.342 . S
C252 C253 1.310 . S
C252 C255 1.462 . S
C252 H272 0.932 . S
C253 C251 1.408 . S
C253 C252 1.310 . S
C253 H273 0.930 . S
C254 C255 1.474 1_565 S
C254 C256 1.286 1_565 S
C254 H274 0.929 . S
C255 C252 1.462 . S
C255 C254 1.474 1_545 S
C256 C251 1.342 . S
C256 C254 1.286 1_545 S
C256 H275 0.934 . S
C257 C260 1.424 . S
C257 C262 1.245 . S
C257 C263 1.428 . S
C258 C261 1.260 . S
C258 C262 1.477 . S
C258 H276 0.932 . S
C259 C260 1.384 . S
C259 C261 1.479 . S
C259 H277 0.929 . S
C260 C257 1.424 . S
C260 C259 1.384 . S
C260 H278 0.928 . S
C261 C258 1.260 . S
C261 C259 1.479 . S
C262 C257 1.245 . S
C262 C258 1.477 . S
C262 H279 0.932 . S
C263 U246 2.882 . S
C263 C257 1.428 . S
C263 O266 1.301 . S
C263 O267 1.282 . S
O264 U246 2.441 1_556 S
O264 C250 1.249 . S
O265 U246 2.420 1_556 S
O265 C250 1.202 . S
O266 U246 2.455 . S
O266 C263 1.301 . S
O267 U246 2.449 . S
O267 C263 1.282 . S
H268 C241 0.931 . S
H269 C243 0.929 . S
H270 C244 0.924 1_565 S
H271 C245 0.931 . S
H272 C252 0.932 . S
H273 C253 0.930 . S
H274 C254 0.929 . S
H275 C256 0.934 . S
H276 C258 0.932 . S
H277 C259 0.929 . S
H278 C260 0.928 . S
H279 C262 0.932 . S
C280 C281 1.264 . S
C280 C285 1.479 . S
C280 C290 1.465 . S
C281 C280 1.264 . S
C281 C283 1.339 . S
C281 H308 0.931 . S
C282 C283 1.395 . S
C282 C284 1.320 . S
C283 C281 1.339 . S
C283 C282 1.395 . S
C283 H309 0.929 . S
C284 C282 1.320 . S
C284 C285 1.405 . S
C284 H310 0.930 . S
C285 C280 1.479 . S
C285 C284 1.405 . S
C285 H311 0.931 . S
U286 O287 2.454 . S
U286 O288 2.458 . S
U286 C289 2.984 . S
U286 C290 2.847 1_554 S
U286 C303 2.882 . S
U286 O304 2.441 1_554 S
U286 O305 2.420 1_554 S
U286 O306 2.455 . S
U286 O307 2.449 . S
O287 U286 2.454 . S
O287 C289 1.353 . S
O288 U286 2.458 . S
O288 C289 1.286 . S
C289 U286 2.984 . S
C289 O287 1.353 . S
C289 O288 1.286 . S
C289 C291 1.363 . S
C290 C280 1.465 . S
C290 U286 2.847 1_556 S
C290 O304 1.249 . S
C290 O305 1.202 . S
C291 C289 1.363 . S
C291 C293 1.408 . S
C291 C296 1.342 . S
C292 C293 1.310 . S
C292 C295 1.461 . S
C292 H312 0.932 . S
C293 C291 1.408 . S
C293 C292 1.310 . S
C293 H313 0.930 . S
C294 C295 1.474 . S
C294 C296 1.285 . S
C294 H314 0.929 . S
C295 C292 1.461 . S
C295 C294 1.474 . S
C296 C291 1.342 . S
C296 C294 1.285 . S
C296 H315 0.930 . S
C297 C300 1.424 . S
C297 C302 1.245 . S
C297 C303 1.428 . S
C298 C301 1.260 . S
C298 C302 1.477 . S
C298 H316 0.932 . S
C299 C300 1.384 . S
C299 C301 1.479 . S
C299 H317 0.929 . S
C300 C297 1.424 . S
C300 C299 1.384 . S
C300 H318 0.928 . S
C301 C298 1.260 . S
C301 C299 1.479 . S
C302 C297 1.245 . S
C302 C298 1.477 . S
C302 H319 0.932 . S
C303 U286 2.882 . S
C303 C297 1.428 . S
C303 O306 1.301 . S
C303 O307 1.282 . S
O304 U286 2.441 1_556 S
O304 C290 1.249 . S
O305 U286 2.420 1_556 S
O305 C290 1.202 . S
O306 U286 2.455 . S
O306 C303 1.301 . S
O307 U286 2.449 . S
O307 C303 1.282 . S
H308 C281 0.931 . S
H309 C283 0.929 . S
H310 C284 0.930 . S
H311 C285 0.931 . S
H312 C292 0.932 . S
H313 C293 0.930 . S
H314 C294 0.929 . S
H315 C296 0.930 . S
H316 C298 0.932 . S
H317 C299 0.929 . S
H318 C300 0.928 . S
H319 C302 0.932 . S
Tb320 C330 2.825 . S
Tb320 O331 2.347 1_455 S
Tb320 O334 2.366 . S
Tb320 O339 2.418 . S
Tb320 O340 2.384 1_565 S
Tb320 O343 2.479 . S
Tb320 O344 2.471 . S
Eu321 O332 2.418 . S
Eu321 O333 2.384 1_545 S
Eu321 O336 2.479 . S
Eu321 O337 2.471 . S
Eu321 O338 2.347 1_655 S
Eu321 O341 2.366 . S
Eu321 C351 2.825 . S
C322 O338 1.259 1_565 S
C322 O339 1.265 . S
C323 O340 1.255 . S
C323 O341 1.265 1_455 S
C324 C326 1.380 . S
C324 C327 1.374 . S
C324 C330 1.507 . S
C325 C326 1.384 . S
C325 C329 1.387 . S
C325 H352 0.930 . S
C326 C324 1.380 . S
C326 C325 1.384 . S
C326 H353 0.931 . S
C327 C324 1.374 . S
C327 C328 1.390 . S
C327 H354 0.930 1_455 S
C328 C327 1.390 . S
C328 C329 1.391 . S
C328 H355 0.930 1_455 S
C329 C325 1.387 . S
C329 C328 1.391 . S
C330 Tb320 2.825 . S
C330 C324 1.507 . S
C330 O343 1.238 . S
C330 O344 1.247 . S
O331 Tb320 2.347 1_655 S
O331 C335 1.259 1_565 S
O332 Eu321 2.418 . S
O332 C335 1.265 . S
O333 Eu321 2.384 1_565 S
O333 C342 1.255 . S
O334 Tb320 2.366 . S
O334 C342 1.265 1_455 S
C335 O331 1.259 1_545 S
C335 O332 1.265 . S
O336 Eu321 2.479 . S
O336 C351 1.238 . S
O337 Eu321 2.471 . S
O337 C351 1.247 . S
O338 Eu321 2.347 1_455 S
O338 C322 1.259 1_545 S
O339 Tb320 2.418 . S
O339 C322 1.265 . S
O340 Tb320 2.384 1_545 S
O340 C323 1.255 . S
O341 Eu321 2.366 . S
O341 C323 1.265 1_655 S
C342 O333 1.255 . S
C342 O334 1.265 1_655 S
O343 Tb320 2.479 . S
O343 C330 1.238 . S
O344 Tb320 2.471 . S
O344 C330 1.247 . S
C345 C348 1.380 . S
C345 C349 1.374 . S
C345 C351 1.507 . S
C346 C347 1.387 . S
C346 C350 1.391 . S
C347 C346 1.387 . S
C347 C348 1.384 . S
C347 H356 0.930 . S
C348 C345 1.380 . S
C348 C347 1.384 . S
C348 H357 0.931 . S
C349 C345 1.374 . S
C349 C350 1.390 . S
C349 H358 0.930 1_655 S
C350 C346 1.391 . S
C350 C349 1.390 . S
C350 H359 0.930 1_655 S
C351 Eu321 2.825 . S
C351 O336 1.238 . S
C351 O337 1.247 . S
C351 C345 1.507 . S
H352 C325 0.930 . S
H353 C326 0.931 . S
H354 C327 0.930 1_655 S
H355 C328 0.930 1_655 S
H356 C347 0.930 . S
H357 C348 0.931 . S
H358 C349 0.930 1_455 S
H359 C350 0.930 1_455 S
Tb360 C370 2.825 . S
Tb360 O371 2.347 1_545 S
Tb360 O374 2.366 . S
Tb360 O379 2.418 . S
Tb360 O380 2.384 . S
Tb360 O383 2.479 . S
Tb360 O384 2.471 . S
Eu361 O372 2.418 . S
Eu361 O373 2.384 . S
Eu361 O376 2.479 . S
Eu361 O377 2.471 . S
Eu361 O378 2.347 1_565 S
Eu361 O381 2.366 . S
Eu361 C391 2.825 . S
C362 O378 1.259 . S
C362 O379 1.265 . S
C363 O380 1.255 . S
C363 O381 1.265 1_545 S
C364 C366 1.380 . S
C364 C367 1.374 . S
C364 C370 1.507 . S
C365 C366 1.384 . S
C365 C369 1.387 . S
C365 H392 0.930 . S
C366 C364 1.380 . S
C366 C365 1.384 . S
C366 H393 0.931 . S
C367 C364 1.374 . S
C367 C368 1.390 . S
C367 H394 0.930 1_545 S
C368 C367 1.390 . S
C368 C369 1.391 . S
C368 H395 0.930 1_545 S
C369 C365 1.387 . S
C369 C368 1.391 . S
C370 Tb360 2.825 . S
C370 C364 1.507 . S
C370 O383 1.238 . S
C370 O384 1.247 . S
O371 Tb360 2.347 1_565 S
O371 C375 1.259 . S
O372 Eu361 2.418 . S
O372 C375 1.265 . S
O373 Eu361 2.384 . S
O373 C382 1.255 . S
O374 Tb360 2.366 . S
O374 C382 1.265 1_545 S
C375 O371 1.259 . S
C375 O372 1.265 . S
O376 Eu361 2.479 . S
O376 C391 1.238 . S
O377 Eu361 2.471 . S
O377 C391 1.247 . S
O378 Eu361 2.347 1_545 S
O378 C362 1.259 . S
O379 Tb360 2.418 . S
O379 C362 1.265 . S
O380 Tb360 2.384 . S
O380 C363 1.255 . S
O381 Eu361 2.366 . S
O381 C363 1.265 1_565 S
C382 O373 1.255 . S
C382 O374 1.265 1_565 S
O383 Tb360 2.479 . S
O383 C370 1.238 . S
O384 Tb360 2.471 . S
O384 C370 1.247 . S
C385 C388 1.380 . S
C385 C389 1.374 . S
C385 C391 1.507 . S
C386 C387 1.387 . S
C386 C390 1.391 . S
C387 C386 1.387 . S
C387 C388 1.384 . S
C387 H396 0.930 . S
C388 C385 1.380 . S
C388 C387 1.384 . S
C388 H397 0.931 . S
C389 C385 1.374 . S
C389 C390 1.390 . S
C389 H398 0.930 1_565 S
C390 C386 1.391 . S
C390 C389 1.390 . S
C390 H399 0.930 1_565 S
C391 Eu361 2.825 . S
C391 O376 1.238 . S
C391 O377 1.247 . S
C391 C385 1.507 . S
H392 C365 0.930 . S
H393 C366 0.931 . S
H394 C367 0.930 1_565 S
H395 C368 0.930 1_565 S
H396 C387 0.930 . S
H397 C388 0.931 . S
H398 C389 0.930 1_545 S
H399 C390 0.930 1_545 S
Tb400 C410 2.825 . S
Tb400 O411 2.347 . S
Tb400 O414 2.366 . S
Tb400 O419 2.418 . S
Tb400 O420 2.384 . S
Tb400 O423 2.479 . S
Tb400 O424 2.471 . S
Eu401 O412 2.418 . S
Eu401 O413 2.384 . S
Eu401 O416 2.479 . S
Eu401 O417 2.471 . S
Eu401 O418 2.347 . S
Eu401 O421 2.366 . S
Eu401 C431 2.825 . S
C402 O418 1.259 . S
C402 O419 1.265 . S
C403 O420 1.255 . S
C403 O421 1.265 . S
C404 C406 1.380 . S
C404 C407 1.374 . S
C404 C410 1.507 . S
C405 C406 1.384 . S
C405 C409 1.387 . S
C405 H432 0.930 . S
C406 C404 1.380 . S
C406 C405 1.384 . S
C406 H433 0.931 . S
C407 C404 1.374 . S
C407 C408 1.390 . S
C407 H434 0.930 . S
C408 C407 1.390 . S
C408 C409 1.391 . S
C408 H435 0.930 . S
C409 C405 1.387 . S
C409 C408 1.391 . S
C410 Tb400 2.825 . S
C410 C404 1.507 . S
C410 O423 1.238 . S
C410 O424 1.247 . S
O411 Tb400 2.347 . S
O411 C415 1.259 . S
O412 Eu401 2.418 . S
O412 C415 1.265 . S
O413 Eu401 2.384 . S
O413 C422 1.255 . S
O414 Tb400 2.366 . S
O414 C422 1.265 . S
C415 O411 1.259 . S
C415 O412 1.265 . S
O416 Eu401 2.479 . S
O416 C431 1.238 . S
O417 Eu401 2.471 . S
O417 C431 1.247 . S
O418 Eu401 2.347 . S
O418 C402 1.259 . S
O419 Tb400 2.418 . S
O419 C402 1.265 . S
O420 Tb400 2.384 . S
O420 C403 1.255 . S
O421 Eu401 2.366 . S
O421 C403 1.265 . S
C422 O413 1.255 . S
C422 O414 1.265 . S
O423 Tb400 2.479 . S
O423 C410 1.238 . S
O424 Tb400 2.471 . S
O424 C410 1.247 . S
C425 C428 1.380 . S
C425 C429 1.374 . S
C425 C431 1.507 . S
C426 C427 1.387 . S
C426 C430 1.391 . S
C427 C426 1.387 . S
C427 C428 1.384 . S
C427 H436 0.930 . S
C428 C425 1.380 . S
C428 C427 1.384 . S
C428 H437 0.931 . S
C429 C425 1.374 . S
C429 C430 1.390 . S
C429 H438 0.930 . S
C430 C426 1.391 . S
C430 C429 1.390 . S
C430 H439 0.930 . S
C431 Eu401 2.825 . S
C431 O416 1.238 . S
C431 O417 1.247 . S
C431 C425 1.507 . S
H432 C405 0.930 . S
H433 C406 0.931 . S
H434 C407 0.930 . S
H435 C408 0.930 . S
H436 C427 0.930 . S
H437 C428 0.931 . S
H438 C429 0.930 . S
H439 C430 0.930 . S
Tb440 C450 2.825 . S
Tb440 O451 2.347 . S
Tb440 O454 2.366 . S
Tb440 O459 2.418 . S
Tb440 O460 2.384 1_655 S
Tb440 O463 2.479 . S
Tb440 O464 2.471 . S
Eu441 O452 2.418 . S
Eu441 O453 2.384 1_455 S
Eu441 O456 2.479 . S
Eu441 O457 2.471 . S
Eu441 O458 2.347 . S
Eu441 O461 2.366 . S
Eu441 C471 2.825 . S
C442 O458 1.241 1_655 S
C442 O459 1.298 . S
C443 O460 1.255 . S
C443 O461 1.265 . S
C444 C446 1.380 . S
C444 C447 1.374 . S
C444 C450 1.507 . S
C445 C446 1.384 . S
C445 C449 1.387 . S
C445 H472 0.930 . S
C446 C444 1.380 . S
C446 C445 1.384 . S
C446 H473 0.931 . S
C447 C444 1.374 . S
C447 C448 1.390 . S
C447 H474 0.930 . S
C448 C447 1.390 . S
C448 C449 1.391 . S
C448 H475 0.930 . S
C449 C445 1.387 . S
C449 C448 1.391 . S
C450 Tb440 2.825 . S
C450 C444 1.507 . S
C450 O463 1.238 . S
C450 O464 1.247 . S
O451 Tb440 2.347 . S
O451 C455 1.259 1_655 S
O452 Eu441 2.418 . S
O452 C455 1.265 . S
O453 Eu441 2.384 1_655 S
O453 C462 1.255 . S
O454 Tb440 2.366 . S
O454 C462 1.265 . S
C455 O451 1.259 1_455 S
C455 O452 1.265 . S
O456 Eu441 2.479 . S
O456 C471 1.238 . S
O457 Eu441 2.471 . S
O457 C471 1.247 . S
O458 Eu441 2.347 . S
O458 C442 1.241 1_455 S
O459 Tb440 2.418 . S
O459 C442 1.298 . S
O460 Tb440 2.384 1_455 S
O460 C443 1.255 . S
O461 Eu441 2.366 . S
O461 C443 1.265 . S
C462 O453 1.255 . S
C462 O454 1.265 . S
O463 Tb440 2.479 . S
O463 C450 1.238 . S
O464 Tb440 2.471 . S
O464 C450 1.247 . S
C465 C468 1.380 . S
C465 C469 1.374 . S
C465 C471 1.507 . S
C466 C467 1.387 . S
C466 C470 1.391 . S
C467 C466 1.387 . S
C467 C468 1.384 . S
C467 H476 0.930 . S
C468 C465 1.380 . S
C468 C467 1.384 . S
C468 H477 0.931 . S
C469 C465 1.374 . S
C469 C470 1.390 . S
C469 H478 0.930 . S
C470 C466 1.391 . S
C470 C469 1.390 . S
C470 H479 0.930 . S
C471 Eu441 2.825 . S
C471 O456 1.238 . S
C471 O457 1.247 . S
C471 C465 1.507 . S
H472 C445 0.930 . S
H473 C446 0.931 . S
H474 C447 0.930 . S
H475 C448 0.930 . S
H476 C467 0.930 . S
H477 C468 0.931 . S
H478 C469 0.930 . S
H479 C470 0.930 . S
C480 C481 1.345 1_565 S
C480 C482 1.327 . S
C480 H505 0.950 . S
C481 C480 1.345 1_545 S
C481 C497 1.352 . S
C482 C480 1.327 . S
C482 C501 1.419 1_565 S
C482 H506 0.950 . S
C483 C500 1.574 . S
C483 C502 1.383 . S
C483 H507 0.949 . S
H484 C488 0.949 . S
C485 C486 1.379 . S
C485 C487 1.327 . S
C485 H508 0.950 . S
C486 C485 1.379 . S
C486 C498 1.319 1_545 S
C487 C485 1.327 . S
C487 C503 1.452 . S
C487 H509 0.950 . S
C488 H484 0.949 . S
C488 C496 1.574 . S
C488 C504 1.347 1_565 S
H489 C497 0.950 . S
H490 C495 0.950 . S
H491 C496 0.949 . S
H492 C498 0.950 . S
H493 C499 0.950 . S
H494 C500 0.949 . S
C495 H490 0.950 . S
C495 C497 1.327 . S
C495 C501 1.438 . S
C496 C488 1.574 . S
C496 H491 0.949 . S
C496 C502 1.354 1_565 S
C497 C481 1.352 . S
C497 H489 0.950 . S
C497 C495 1.327 . S
C498 C486 1.319 1_565 S
C498 H492 0.950 . S
C498 C499 1.327 . S
C499 H493 0.950 . S
C499 C498 1.327 . S
C499 C503 1.406 1_565 S
C500 C483 1.574 . S
C500 H494 0.949 . S
C500 C504 1.390 . S
C501 C482 1.419 1_545 S
C501 C495 1.438 . S
C501 C502 1.523 . S
C502 C483 1.383 . S
C502 C496 1.354 1_545 S
C502 C501 1.523 . S
C503 C487 1.452 . S
C503 C499 1.406 1_545 S
C503 C504 1.523 . S
C504 C488 1.347 1_545 S
C504 C500 1.390 . S
C504 C503 1.523 . S
H505 C480 0.950 . S
H506 C482 0.950 . S
H507 C483 0.949 . S
H508 C485 0.950 . S
H509 C487 0.950 . S
C510 C511 1.349 . S
C510 C512 1.327 . S
C510 H535 0.950 . S
C511 C510 1.349 . S
C511 C527 1.349 . S
C512 C510 1.327 . S
C512 C531 1.429 . S
C512 H536 0.950 . S
C513 C530 1.574 . S
C513 C532 1.368 . S
C513 H537 0.949 . S
H514 C518 0.949 . S
C515 C516 1.349 . S
C515 C517 1.327 . S
C515 H538 0.950 . S
C516 C515 1.349 . S
C516 C528 1.349 . S
C517 C515 1.327 . S
C517 C533 1.429 . S
C517 H539 0.950 . S
C518 H514 0.949 . S
C518 C526 1.574 . S
C518 C534 1.368 . S
H519 C527 0.950 . S
H520 C525 0.950 . S
H521 C526 0.949 . S
H522 C528 0.950 . S
H523 C529 0.950 . S
H524 C530 0.949 . S
C525 H520 0.950 . S
C525 C527 1.327 . S
C525 C531 1.429 . S
C526 C518 1.574 . S
C526 H521 0.949 . S
C526 C532 1.368 . S
C527 C511 1.349 . S
C527 H519 0.950 . S
C527 C525 1.327 . S
C528 C516 1.349 . S
C528 H522 0.950 . S
C528 C529 1.327 . S
C529 H523 0.950 . S
C529 C528 1.327 . S
C529 C533 1.429 . S
C530 C513 1.574 . S
C530 H524 0.949 . S
C530 C534 1.368 . S
C531 C512 1.429 . S
C531 C525 1.429 . S
C531 C532 1.523 . S
C532 C513 1.368 . S
C532 C526 1.368 . S
C532 C531 1.523 . S
C533 C517 1.429 . S
C533 C529 1.429 . S
C533 C534 1.523 . S
C534 C518 1.368 . S
C534 C530 1.368 . S
C534 C533 1.523 . S
H535 C510 0.950 . S
H536 C512 0.950 . S
H537 C513 0.949 . S
H538 C515 0.950 . S
H539 C517 0.950 . S
C540 C541 1.349 . S
C540 C542 1.327 . S
C540 H565 0.950 . S
C541 C540 1.349 . S
C541 C557 1.349 . S
C542 C540 1.327 . S
C542 C561 1.429 . S
C542 H566 0.950 . S
C543 C560 1.574 . S
C543 C562 1.368 . S
C543 H567 0.949 . S
H544 C548 0.949 . S
C545 C546 1.349 . S
C545 C547 1.327 . S
C545 H568 0.950 . S
C546 C545 1.349 . S
C546 C558 1.349 . S
C547 C545 1.327 . S
C547 C563 1.429 . S
C547 H569 0.950 . S
C548 H544 0.949 . S
C548 C556 1.574 . S
C548 C564 1.368 . S
H549 C557 0.950 . S
H550 C555 0.950 . S
H551 C556 0.949 . S
H552 C558 0.950 . S
H553 C559 0.950 . S
H554 C560 0.949 . S
C555 H550 0.950 . S
C555 C557 1.327 . S
C555 C561 1.429 . S
C556 C548 1.574 . S
C556 H551 0.949 . S
C556 C562 1.368 . S
C557 C541 1.349 . S
C557 H549 0.950 . S
C557 C555 1.327 . S
C558 C546 1.349 . S
C558 H552 0.950 . S
C558 C559 1.327 . S
C559 H553 0.950 . S
C559 C558 1.327 . S
C559 C563 1.429 . S
C560 C543 1.574 . S
C560 H554 0.949 . S
C560 C564 1.368 . S
C561 C542 1.429 . S
C561 C555 1.429 . S
C561 C562 1.523 . S
C562 C543 1.368 . S
C562 C556 1.368 . S
C562 C561 1.523 . S
C563 C547 1.429 . S
C563 C559 1.429 . S
C563 C564 1.523 . S
C564 C548 1.368 . S
C564 C560 1.368 . S
C564 C563 1.523 . S
H565 C540 0.950 . S
H566 C542 0.950 . S
H567 C543 0.949 . S
H568 C545 0.950 . S
H569 C547 0.950 . S
C570 C571 1.349 1_655 S
C570 C572 1.327 . S
C570 H595 0.950 . S
C571 C570 1.349 1_455 S
C571 C587 1.349 . S
C572 C570 1.327 . S
C572 C591 1.429 1_655 S
C572 H596 0.950 . S
C573 C590 1.574 . S
C573 C592 1.368 . S
C573 H597 0.949 . S
H574 C578 0.949 . S
C575 C576 1.349 . S
C575 C577 1.327 . S
C575 H598 0.950 . S
C576 C575 1.349 . S
C576 C588 1.349 1_455 S
C577 C575 1.327 . S
C577 C593 1.429 . S
C577 H599 0.950 . S
C578 H574 0.949 . S
C578 C586 1.574 . S
C578 C594 1.368 1_655 S
H579 C587 0.950 . S
H580 C585 0.950 . S
H581 C586 0.949 . S
H582 C588 0.950 . S
H583 C589 0.950 . S
H584 C590 0.949 . S
C585 H580 0.950 . S
C585 C587 1.327 . S
C585 C591 1.429 . S
C586 C578 1.574 . S
C586 H581 0.949 . S
C586 C592 1.368 1_655 S
C587 C571 1.349 . S
C587 H579 0.950 . S
C587 C585 1.327 . S
C588 C576 1.349 1_655 S
C588 H582 0.950 . S
C588 C589 1.327 . S
C589 H583 0.950 . S
C589 C588 1.327 . S
C589 C593 1.429 1_655 S
C590 C573 1.574 . S
C590 H584 0.949 . S
C590 C594 1.368 . S
C591 C572 1.429 1_455 S
C591 C585 1.429 . S
C591 C592 1.523 . S
C592 C573 1.368 . S
C592 C586 1.368 1_455 S
C592 C591 1.523 . S
C593 C577 1.429 . S
C593 C589 1.429 1_455 S
C593 C594 1.523 . S
C594 C578 1.368 1_455 S
C594 C590 1.368 . S
C594 C593 1.523 . S
H595 C570 0.950 . S
H596 C572 0.950 . S
H597 C573 0.949 . S
H598 C575 0.950 . S
H599 C577 0.950 . S
C600 C601 1.353 1_565 S
C600 C602 1.327 . S
C600 H625 0.950 . S
C601 C600 1.353 1_545 S
C601 C617 1.345 . S
C602 C600 1.327 . S
C602 C621 1.428 . S
C602 H626 0.950 . S
C603 C620 1.574 1_554 S
C603 C622 1.365 1_545 S
C603 H627 0.949 . S
H604 C608 0.949 . S
C605 C606 1.331 1_545 S
C605 C607 1.327 . S
C605 H628 0.950 . S
C606 C605 1.331 1_565 S
C606 C618 1.367 . S
C607 C605 1.327 . S
C607 C623 1.417 1_545 S
C607 H629 0.950 . S
C608 H604 0.949 . S
C608 C616 1.574 . S
C608 C624 1.377 . S
H609 C617 0.950 . S
H610 C615 0.950 . S
H611 C616 0.949 . S
H612 C618 0.950 . S
H613 C619 0.950 . S
H614 C620 0.949 . S
C615 H610 0.950 . S
C615 C617 1.327 . S
C615 C621 1.429 1_545 S
C616 C608 1.574 . S
C616 H611 0.949 . S
C616 C622 1.371 1_556 S
C617 C601 1.345 . S
C617 H609 0.950 . S
C617 C615 1.327 . S
C618 C606 1.367 . S
C618 H612 0.950 . S
C618 C619 1.327 . S
C619 H613 0.950 . S
C619 C618 1.327 . S
C619 C623 1.440 . S
C620 C603 1.574 1_556 S
C620 H614 0.949 . S
C620 C624 1.359 1_545 S
C621 C602 1.428 . S
C621 C615 1.429 1_565 S
C621 C622 1.523 . S
C622 C603 1.365 1_565 S
C622 C616 1.371 1_554 S
C622 C621 1.523 . S
C623 C607 1.417 1_565 S
C623 C619 1.440 . S
C623 C624 1.523 . S
C624 C608 1.377 . S
C624 C620 1.359 1_565 S
C624 C623 1.523 . S
H625 C600 0.950 . S
H626 C602 0.950 . S
H627 C603 0.949 . S
H628 C605 0.950 . S
H629 C607 0.950 . S
C630 C631 1.349 . S
C630 C632 1.327 . S
C630 H655 0.950 . S
C631 C630 1.349 . S
C631 C647 1.349 . S
C632 C630 1.327 . S
C632 C651 1.429 . S
C632 H656 0.950 . S
C633 C650 1.574 . S
C633 C652 1.368 1_556 S
C633 H657 0.949 . S
H634 C638 0.949 . S
C635 C636 1.349 . S
C635 C637 1.327 . S
C635 H658 0.950 . S
C636 C635 1.349 . S
C636 C648 1.349 . S
C637 C635 1.327 . S
C637 C653 1.429 . S
C637 H659 0.950 . S
C638 H634 0.949 . S
C638 C646 1.574 1_556 S
C638 C654 1.368 . S
H639 C647 0.950 . S
H640 C645 0.950 . S
H641 C646 0.949 . S
H642 C648 0.950 . S
H643 C649 0.950 . S
H644 C650 0.949 . S
C645 H640 0.950 . S
C645 C647 1.327 . S
C645 C651 1.429 . S
C646 C638 1.574 1_554 S
C646 H641 0.949 . S
C646 C652 1.368 . S
C647 C631 1.349 . S
C647 H639 0.950 . S
C647 C645 1.327 . S
C648 C636 1.349 . S
C648 H642 0.950 . S
C648 C649 1.327 . S
C649 H643 0.950 . S
C649 C648 1.327 . S
C649 C653 1.429 . S
C650 C633 1.574 . S
C650 H644 0.949 . S
C650 C654 1.368 . S
C651 C632 1.429 . S
C651 C645 1.429 . S
C651 C652 1.523 . S
C652 C633 1.368 1_554 S
C652 C646 1.368 . S
C652 C651 1.523 . S
C653 C637 1.429 . S
C653 C649 1.429 . S
C653 C654 1.523 . S
C654 C638 1.368 . S
C654 C650 1.368 . S
C654 C653 1.523 . S
H655 C630 0.950 . S
H656 C632 0.950 . S
H657 C633 0.949 . S
H658 C635 0.950 . S
H659 C637 0.950 . S
C660 C661 1.349 . S
C660 C662 1.327 . S
C660 H685 0.950 . S
C661 C660 1.349 . S
C661 C677 1.349 . S
C662 C660 1.327 . S
C662 C681 1.429 . S
C662 H686 0.950 . S
C663 C680 1.574 1_554 S
C663 C682 1.368 . S
C663 H687 0.949 . S
H664 C668 0.949 . S
C665 C666 1.349 . S
C665 C667 1.327 . S
C665 H688 0.950 . S
C666 C665 1.349 . S
C666 C678 1.349 . S
C667 C665 1.327 . S
C667 C683 1.429 . S
C667 H689 0.950 . S
C668 H664 0.949 . S
C668 C676 1.574 . S
C668 C684 1.368 . S
H669 C677 0.950 . S
H670 C675 0.950 . S
H671 C676 0.949 . S
H672 C678 0.950 . S
H673 C679 0.950 . S
H674 C680 0.949 . S
C675 H670 0.950 . S
C675 C677 1.327 . S
C675 C681 1.429 . S
C676 C668 1.574 . S
C676 H671 0.949 . S
C676 C682 1.368 1_556 S
C677 C661 1.349 . S
C677 H669 0.950 . S
C677 C675 1.327 . S
C678 C666 1.349 . S
C678 H672 0.950 . S
C678 C679 1.327 . S
C679 H673 0.950 . S
C679 C678 1.327 . S
C679 C683 1.429 . S
C680 C663 1.574 1_556 S
C680 H674 0.949 . S
C680 C684 1.368 . S
C681 C662 1.429 . S
C681 C675 1.429 . S
C681 C682 1.523 . S
C682 C663 1.368 . S
C682 C676 1.368 1_554 S
C682 C681 1.523 . S
C683 C667 1.429 . S
C683 C679 1.429 . S
C683 C684 1.523 . S
C684 C668 1.368 . S
C684 C680 1.368 . S
C684 C683 1.523 . S
H685 C660 0.950 . S
H686 C662 0.950 . S
H687 C663 0.949 . S
H688 C665 0.950 . S
H689 C667 0.950 . S
C690 C691 1.349 . S
C690 C692 1.327 . S
C690 H715 0.950 . S
C691 C690 1.349 . S
C691 C707 1.349 1_655 S
C692 C690 1.327 . S
C692 C711 1.429 . S
C692 H716 0.950 . S
C693 C710 1.574 . S
C693 C712 1.368 1_456 S
C693 H717 0.949 . S
H694 C698 0.949 . S
C695 C696 1.325 1_455 S
C695 C697 1.327 . S
C695 H718 0.950 . S
C696 C695 1.325 1_655 S
C696 C708 1.375 . S
C697 C695 1.327 . S
C697 C713 1.400 1_455 S
C697 H719 0.950 . S
C698 H694 0.949 . S
C698 C706 1.574 1_556 S
C698 C714 1.368 . S
H699 C707 0.950 . S
H700 C705 0.950 . S
H701 C706 0.949 . S
H702 C708 0.950 . S
H703 C709 0.950 . S
H704 C710 0.949 . S
C705 H700 0.950 . S
C705 C707 1.327 . S
C705 C711 1.429 1_455 S
C706 C698 1.574 1_554 S
C706 H701 0.949 . S
C706 C712 1.368 . S
C707 C691 1.349 1_455 S
C707 H699 0.950 . S
C707 C705 1.327 . S
C708 C696 1.375 . S
C708 H702 0.950 . S
C708 C709 1.327 . S
C709 H703 0.950 . S
C709 C708 1.327 . S
C709 C713 1.460 . S
C710 C693 1.574 . S
C710 H704 0.949 . S
C710 C714 1.368 1_455 S
C711 C692 1.429 . S
C711 C705 1.429 1_655 S
C711 C712 1.523 . S
C712 C693 1.368 1_654 S
C712 C706 1.368 . S
C712 C711 1.523 . S
C713 C697 1.400 1_655 S
C713 C709 1.460 . S
C713 C714 1.525 . S
C714 C698 1.368 . S
C714 C710 1.368 1_655 S
C714 C713 1.525 . S
H715 C690 0.950 . S
H716 C692 0.950 . S
H717 C693 0.949 . S
H718 C695 0.950 . S
H719 C697 0.950 . S
C720 C721 1.349 . S
C720 C722 1.327 1_455 S
C720 H745 0.950 . S
C721 C720 1.349 . S
C721 C737 1.349 . S
C722 C720 1.327 1_655 S
C722 C741 1.429 . S
C722 H746 0.950 . S
C723 C740 1.574 . S
C723 C742 1.368 . S
C723 H747 0.949 . S
H724 C728 0.949 . S
C725 C726 1.349 . S
C725 C727 1.327 . S
C725 H748 0.950 . S
C726 C725 1.349 . S
C726 C738 1.349 . S
C727 C725 1.327 . S
C727 C743 1.429 . S
C727 H749 0.950 . S
C728 H724 0.949 . S
C728 C736 1.574 . S
C728 C744 1.368 . S
H729 C737 0.950 . S
H730 C735 0.956 . S
H731 C736 0.949 . S
H732 C738 0.950 . S
H733 C739 0.950 . S
H734 C740 0.949 . S
C735 H730 0.956 . S
C735 C737 1.318 1_655 S
C735 C741 1.436 . S
C736 C728 1.574 . S
C736 H731 0.949 . S
C736 C742 1.368 . S
C737 C721 1.349 . S
C737 H729 0.950 . S
C737 C735 1.318 1_455 S
C738 C726 1.349 . S
C738 H732 0.950 . S
C738 C739 1.327 . S
C739 H733 0.950 . S
C739 C738 1.327 . S
C739 C743 1.429 . S
C740 C723 1.574 . S
C740 H734 0.949 . S
C740 C744 1.368 . S
C741 C722 1.429 . S
C741 C735 1.436 . S
C741 C742 1.523 . S
C742 C723 1.368 . S
C742 C736 1.368 . S
C742 C741 1.523 . S
C743 C727 1.429 . S
C743 C739 1.429 . S
C743 C744 1.523 . S
C744 C728 1.368 . S
C744 C740 1.368 . S
C744 C743 1.523 . S
H745 C720 0.950 . S
H746 C722 0.950 . S
H747 C723 0.949 . S
H748 C725 0.950 . S
H749 C727 0.950 . S
C750 C751 1.349 1_565 S
C750 C752 1.327 . S
C750 H775 0.950 . S
C751 C750 1.349 1_545 S
C751 C767 1.349 . S
C752 C750 1.327 . S
C752 C771 1.429 . S
C752 H776 0.950 . S
C753 C770 1.580 . S
C753 C772 1.368 1_545 S
C753 H777 0.949 . S
H754 C758 0.949 . S
C755 C756 1.349 . S
C755 C757 1.327 . S
C755 H778 0.950 . S
C756 C755 1.349 . S
C756 C768 1.349 . S
C757 C755 1.327 . S
C757 C773 1.429 . S
C757 H779 0.950 1_565 S
C758 H754 0.949 . S
C758 C766 1.574 . S
C758 C774 1.368 . S
H759 C767 0.950 . S
H760 C765 0.950 . S
H761 C766 0.949 . S
H762 C768 0.950 . S
H763 C769 0.950 . S
H764 C770 0.970 . S
C765 H760 0.950 . S
C765 C767 1.327 . S
C765 C771 1.429 1_545 S
C766 C758 1.574 . S
C766 H761 0.949 . S
C766 C772 1.368 . S
C767 C751 1.349 . S
C767 H759 0.950 . S
C767 C765 1.327 . S
C768 C756 1.349 . S
C768 H762 0.950 . S
C768 C769 1.327 . S
C769 H763 0.950 . S
C769 C768 1.327 . S
C769 C773 1.429 . S
C770 C753 1.580 . S
C770 H764 0.970 . S
C770 C774 1.340 1_545 S
C771 C752 1.429 . S
C771 C765 1.429 1_565 S
C771 C772 1.523 . S
C772 C753 1.368 1_565 S
C772 C766 1.368 . S
C772 C771 1.523 . S
C773 C757 1.429 . S
C773 C769 1.429 . S
C773 C774 1.523 . S
C774 C758 1.368 . S
C774 C770 1.340 1_565 S
C774 C773 1.523 . S
H775 C750 0.950 . S
H776 C752 0.950 . S
H777 C753 0.949 . S
H778 C755 0.950 . S
H779 C757 0.950 1_545 S
C780 C781 1.349 . S
C780 C782 1.327 . S
C780 H805 0.950 . S
C781 C780 1.349 . S
C781 C797 1.349 . S
C782 C780 1.327 . S
C782 C801 1.429 . S
C782 H806 0.950 . S
C783 C800 1.574 . S
C783 C802 1.368 . S
C783 H807 0.949 . S
H784 C788 0.949 . S
C785 C786 1.349 . S
C785 C787 1.327 . S
C785 H808 0.950 . S
C786 C785 1.349 . S
C786 C798 1.349 . S
C787 C785 1.327 . S
C787 C803 1.429 . S
C787 H809 0.950 . S
C788 H784 0.949 . S
C788 C796 1.574 . S
C788 C804 1.368 . S
H789 C797 0.950 . S
H790 C795 0.950 . S
H791 C796 0.949 . S
H792 C798 0.950 . S
H793 C799 0.950 . S
H794 C800 0.949 . S
C795 H790 0.950 . S
C795 C797 1.327 . S
C795 C801 1.429 . S
C796 C788 1.574 . S
C796 H791 0.949 . S
C796 C802 1.368 . S
C797 C781 1.349 . S
C797 H789 0.950 . S
C797 C795 1.327 . S
C798 C786 1.349 . S
C798 H792 0.950 . S
C798 C799 1.327 . S
C799 H793 0.950 . S
C799 C798 1.327 . S
C799 C803 1.429 . S
C800 C783 1.574 . S
C800 H794 0.949 . S
C800 C804 1.368 . S
C801 C782 1.429 . S
C801 C795 1.429 . S
C801 C802 1.523 . S
C802 C783 1.368 . S
C802 C796 1.368 . S
C802 C801 1.523 . S
C803 C787 1.429 . S
C803 C799 1.429 . S
C803 C804 1.523 . S
C804 C788 1.368 . S
C804 C800 1.368 . S
C804 C803 1.523 . S
H805 C780 0.950 . S
H806 C782 0.950 . S
H807 C783 0.949 . S
H808 C785 0.950 . S
H809 C787 0.950 . S
C810 C811 1.349 . S
C810 C812 1.327 . S
C810 H835 0.950 . S
C811 C810 1.349 . S
C811 C827 1.349 . S
C812 C810 1.327 . S
C812 C831 1.429 . S
C812 H836 0.950 . S
C813 C830 1.574 . S
C813 C832 1.368 . S
C813 H837 0.949 . S
H814 C818 0.949 . S
C815 C816 1.349 . S
C815 C817 1.327 . S
C815 H838 0.950 . S
C816 C815 1.349 . S
C816 C828 1.349 . S
C817 C815 1.327 . S
C817 C833 1.429 . S
C817 H839 0.950 . S
C818 H814 0.949 . S
C818 C826 1.574 . S
C818 C834 1.368 . S
H819 C827 0.950 . S
H820 C825 0.950 . S
H821 C826 0.949 . S
H822 C828 0.950 . S
H823 C829 0.950 . S
H824 C830 0.949 . S
C825 H820 0.950 . S
C825 C827 1.327 . S
C825 C831 1.429 . S
C826 C818 1.574 . S
C826 H821 0.949 . S
C826 C832 1.368 . S
C827 C811 1.349 . S
C827 H819 0.950 . S
C827 C825 1.327 . S
C828 C816 1.349 . S
C828 H822 0.950 . S
C828 C829 1.327 . S
C829 H823 0.950 . S
C829 C828 1.327 . S
C829 C833 1.429 . S
C830 C813 1.574 . S
C830 H824 0.949 . S
C830 C834 1.368 . S
C831 C812 1.429 . S
C831 C825 1.429 . S
C831 C832 1.523 . S
C832 C813 1.368 . S
C832 C826 1.368 . S
C832 C831 1.523 . S
C833 C817 1.429 . S
C833 C829 1.429 . S
C833 C834 1.523 . S
C834 C818 1.368 . S
C834 C830 1.368 . S
C834 C833 1.523 . S
H835 C810 0.950 . S
H836 C812 0.950 . S
H837 C813 0.949 . S
H838 C815 0.950 . S
H839 C817 0.950 . S
C840 C841 1.349 1_455 S
C840 C842 1.327 . S
C840 H865 0.950 . S
C841 C840 1.349 1_655 S
C841 C857 1.349 . S
C842 C840 1.327 . S
C842 C861 1.429 . S
C842 H866 0.950 . S
C843 C860 1.574 . S
C843 C862 1.368 . S
C843 H867 0.949 . S
H844 C848 0.949 . S
C845 C846 1.349 . S
C845 C847 1.327 . S
C845 H868 0.950 . S
C846 C845 1.349 . S
C846 C858 1.349 . S
C847 C845 1.327 . S
C847 C863 1.429 . S
C847 H869 0.950 . S
C848 H844 0.949 . S
C848 C856 1.574 1_556 S
C848 C864 1.368 . S
H849 C857 0.950 1_556 S
H850 C855 0.950 . S
H851 C856 0.949 . S
H852 C858 0.950 . S
H853 C859 0.950 . S
H854 C860 0.949 . S
C855 H850 0.950 . S
C855 C857 1.327 1_556 S
C855 C861 1.429 1_656 S
C856 C848 1.574 1_554 S
C856 H851 0.949 . S
C856 C862 1.368 1_554 S
C857 C841 1.349 . S
C857 H849 0.950 1_554 S
C857 C855 1.327 1_554 S
C858 C846 1.349 . S
C858 H852 0.950 . S
C858 C859 1.327 . S
C859 H853 0.950 . S
C859 C858 1.327 . S
C859 C863 1.429 . S
C860 C843 1.574 . S
C860 H854 0.949 . S
C860 C864 1.368 . S
C861 C842 1.429 . S
C861 C855 1.429 1_454 S
C861 C862 1.523 1_554 S
C862 C843 1.368 . S
C862 C856 1.368 1_556 S
C862 C861 1.523 1_556 S
C863 C847 1.429 . S
C863 C859 1.429 . S
C863 C864 1.523 . S
C864 C848 1.368 . S
C864 C860 1.368 . S
C864 C863 1.523 . S
H865 C840 0.950 . S
H866 C842 0.950 . S
H867 C843 0.949 . S
H868 C845 0.950 . S
H869 C847 0.950 . S
C870 C871 1.349 1_545 S
C870 C872 1.322 1_554 S
C870 H895 0.950 . S
C871 C870 1.349 1_565 S
C871 C887 1.349 . S
C872 C870 1.322 1_556 S
C872 C891 1.428 1_556 S
C872 H896 0.956 . S
C873 C890 1.574 . S
C873 C892 1.368 1_565 S
C873 H897 0.949 1_556 S
H874 C878 0.949 . S
C875 C876 1.349 . S
C875 C877 1.327 . S
C875 H898 0.948 . S
C876 C875 1.349 . S
C876 C888 1.349 . S
C877 C875 1.327 . S
C877 C893 1.429 . S
C877 H899 0.950 1_545 S
C878 H874 0.949 . S
C878 C886 1.574 . S
C878 C894 1.368 . S
H879 C887 0.950 . S
H880 C885 0.950 . S
H881 C886 0.949 . S
H882 C888 0.950 . S
H883 C889 0.950 . S
H884 C890 0.949 . S
C885 H880 0.950 . S
C885 C887 1.327 . S
C885 C891 1.429 1_565 S
C886 C878 1.574 . S
C886 H881 0.949 . S
C886 C892 1.368 . S
C887 C871 1.349 . S
C887 H879 0.950 . S
C887 C885 1.327 . S
C888 C876 1.349 . S
C888 H882 0.950 . S
C888 C889 1.327 . S
C889 H883 0.950 . S
C889 C888 1.327 . S
C889 C893 1.429 . S
C890 C873 1.574 . S
C890 H884 0.949 . S
C890 C894 1.368 1_565 S
C891 C872 1.428 1_554 S
C891 C885 1.429 1_545 S
C891 C892 1.523 1_554 S
C892 C873 1.368 1_545 S
C892 C886 1.368 . S
C892 C891 1.523 1_556 S
C893 C877 1.429 . S
C893 C889 1.429 . S
C893 C894 1.523 . S
C894 C878 1.368 . S
C894 C890 1.368 1_545 S
C894 C893 1.523 . S
H895 C870 0.950 . S
H896 C872 0.956 . S
H897 C873 0.949 1_554 S
H898 C875 0.948 . S
H899 C877 0.950 1_565 S
C900 C901 1.349 . S
C900 C902 1.327 1_554 S
C900 H925 0.950 1_554 S
C901 C900 1.349 . S
C901 C917 1.349 . S
C902 C900 1.327 1_556 S
C902 C921 1.429 1_556 S
C902 H926 0.950 . S
C903 C920 1.574 1_554 S
C903 C922 1.368 1_554 S
C903 H927 0.949 . S
H904 C908 0.949 . S
C905 C906 1.349 . S
C905 C907 1.327 . S
C905 H928 0.950 . S
C906 C905 1.349 . S
C906 C918 1.349 . S
C907 C905 1.327 . S
C907 C923 1.429 . S
C907 H929 0.950 . S
C908 H904 0.949 . S
C908 C916 1.574 . S
C908 C924 1.368 . S
H909 C917 0.950 . S
H910 C915 0.950 . S
H911 C916 0.949 . S
H912 C918 0.950 . S
H913 C919 0.950 . S
H914 C920 0.949 . S
C915 H910 0.950 . S
C915 C917 1.327 . S
C915 C921 1.429 . S
C916 C908 1.574 . S
C916 H911 0.949 . S
C916 C922 1.368 . S
C917 C901 1.349 . S
C917 H909 0.950 . S
C917 C915 1.327 . S
C918 C906 1.349 . S
C918 H912 0.950 . S
C918 C919 1.327 . S
C919 H913 0.950 . S
C919 C918 1.327 . S
C919 C923 1.429 . S
C920 C903 1.574 1_556 S
C920 H914 0.949 . S
C920 C924 1.368 . S
C921 C902 1.429 1_554 S
C921 C915 1.429 . S
C921 C922 1.523 1_554 S
C922 C903 1.368 1_556 S
C922 C916 1.368 . S
C922 C921 1.523 1_556 S
C923 C907 1.429 . S
C923 C919 1.429 . S
C923 C924 1.523 . S
C924 C908 1.368 . S
C924 C920 1.368 . S
C924 C923 1.523 . S
H925 C900 0.950 1_556 S
H926 C902 0.950 . S
H927 C903 0.949 . S
H928 C905 0.950 . S
H929 C907 0.950 . S
C930 C931 1.349 . S
C930 C932 1.327 1_554 S
C930 H955 0.950 . S
C931 C930 1.349 . S
C931 C947 1.349 . S
C932 C930 1.327 1_556 S
C932 C951 1.429 1_556 S
C932 H956 0.950 . S
C933 C950 1.574 . S
C933 C952 1.368 . S
C933 H957 0.949 1_556 S
H934 C938 0.949 . S
C935 C936 1.349 . S
C935 C937 1.327 . S
C935 H958 0.950 . S
C936 C935 1.349 . S
C936 C948 1.349 . S
C937 C935 1.327 . S
C937 C953 1.429 . S
C937 H959 0.950 . S
C938 H934 0.949 . S
C938 C946 1.574 . S
C938 C954 1.368 . S
H939 C947 0.950 . S
H940 C945 0.950 . S
H941 C946 0.949 . S
H942 C948 0.950 . S
H943 C949 0.950 . S
H944 C950 0.949 . S
C945 H940 0.950 . S
C945 C947 1.327 . S
C945 C951 1.429 . S
C946 C938 1.574 . S
C946 H941 0.949 . S
C946 C952 1.368 . S
C947 C931 1.349 . S
C947 H939 0.950 . S
C947 C945 1.327 . S
C948 C936 1.349 . S
C948 H942 0.950 . S
C948 C949 1.327 . S
C949 H943 0.950 . S
C949 C948 1.327 . S
C949 C953 1.429 . S
C950 C933 1.574 . S
C950 H944 0.949 . S
C950 C954 1.368 . S
C951 C932 1.429 1_554 S
C951 C945 1.429 . S
C951 C952 1.523 1_554 S
C952 C933 1.368 . S
C952 C946 1.368 . S
C952 C951 1.523 1_556 S
C953 C937 1.429 . S
C953 C949 1.429 . S
C953 C954 1.523 . S
C954 C938 1.368 . S
C954 C950 1.368 . S
C954 C953 1.523 . S
H955 C930 0.950 . S
H956 C932 0.950 . S
H957 C933 0.949 1_554 S
H958 C935 0.950 . S
H959 C937 0.950 . S
C960 C961 1.349 . S
C960 C962 1.327 . S
C960 H985 0.950 . S
C961 C960 1.349 . S
C961 C977 1.349 1_455 S
C962 C960 1.327 . S
C962 C981 1.429 . S
C962 H986 0.950 . S
C963 C980 1.574 . S
C963 C982 1.368 1_655 S
C963 H987 0.949 . S
H964 C968 0.949 . S
C965 C966 1.349 1_655 S
C965 C967 1.327 . S
C965 H988 0.950 . S
C966 C965 1.349 1_455 S
C966 C978 1.349 . S
C967 C965 1.327 . S
C967 C983 1.429 1_655 S
C967 H989 0.950 . S
C968 H964 0.949 . S
C968 C976 1.574 . S
C968 C984 1.368 . S
H969 C977 0.950 . S
H970 C975 0.950 . S
H971 C976 0.949 . S
H972 C978 0.950 . S
H973 C979 0.950 . S
H974 C980 0.949 . S
C975 H970 0.950 . S
C975 C977 1.327 . S
C975 C981 1.429 1_655 S
C976 C968 1.574 . S
C976 H971 0.949 . S
C976 C982 1.368 . S
C977 C961 1.349 1_655 S
C977 H969 0.950 . S
C977 C975 1.327 . S
C978 C966 1.349 . S
C978 H972 0.950 . S
C978 C979 1.327 . S
C979 H973 0.950 . S
C979 C978 1.327 . S
C979 C983 1.429 . S
C980 C963 1.574 . S
C980 H974 0.949 . S
C980 C984 1.368 1_655 S
C981 C962 1.429 . S
C981 C975 1.429 1_455 S
C981 C982 1.523 . S
C982 C963 1.368 1_455 S
C982 C976 1.368 . S
C982 C981 1.523 . S
C983 C967 1.429 1_455 S
C983 C979 1.429 . S
C983 C984 1.523 . S
C984 C968 1.368 . S
C984 C980 1.368 1_455 S
C984 C983 1.523 . S
H985 C960 0.950 . S
H986 C962 0.950 . S
H987 C963 0.949 . S
H988 C965 0.950 . S
H989 C967 0.950 . S
C990 C991 1.349 . S
C990 C992 1.327 . S
C990 H1015 0.950 . S
C991 C990 1.349 . S
C991 C1007 1.349 1_545 S
C992 C990 1.327 . S
C992 C1011 1.429 . S
C992 H1016 0.950 . S
C993 C1010 1.574 . S
C993 C1012 1.368 1_565 S
C993 H1017 0.949 . S
H994 C998 0.949 . S
C995 C996 1.349 . S
C995 C997 1.326 1_545 S
C995 H1018 0.949 1_545 S
C996 C995 1.349 . S
C996 C1008 1.349 . S
C997 C995 1.326 1_565 S
C997 C1013 1.417 1_565 S
C997 H1019 0.965 . S
C998 H994 0.949 . S
C998 C1006 1.574 . S
C998 C1014 1.368 . S
H999 C1007 0.950 . S
H1000 C1005 0.950 . S
H1001 C1006 0.949 . S
H1002 C1008 0.950 . S
H1003 C1009 0.950 . S
H1004 C1010 0.949 . S
C1005 H1000 0.950 . S
C1005 C1007 1.327 . S
C1005 C1011 1.429 1_565 S
C1006 C998 1.574 . S
C1006 H1001 0.949 . S
C1006 C1012 1.368 . S
C1007 C991 1.349 1_565 S
C1007 H999 0.950 . S
C1007 C1005 1.327 . S
C1008 C996 1.349 . S
C1008 H1002 0.950 . S
C1008 C1009 1.327 . S
C1009 H1003 0.950 . S
C1009 C1008 1.327 . S
C1009 C1013 1.429 . S
C1010 C993 1.574 . S
C1010 H1004 0.949 . S
C1010 C1014 1.368 1_565 S
C1011 C992 1.429 . S
C1011 C1005 1.429 1_545 S
C1011 C1012 1.523 . S
C1012 C993 1.368 1_545 S
C1012 C1006 1.368 . S
C1012 C1011 1.523 . S
C1013 C997 1.417 1_545 S
C1013 C1009 1.429 . S
C1013 C1014 1.523 . S
C1014 C998 1.368 . S
C1014 C1010 1.368 1_545 S
C1014 C1013 1.523 . S
H1015 C990 0.950 . S
H1016 C992 0.950 . S
H1017 C993 0.949 . S
H1018 C995 0.949 1_565 S
H1019 C997 0.965 . S
C1020 C1021 1.349 . S
C1020 C1022 1.327 . S
C1020 H1045 0.950 . S
C1021 C1020 1.349 . S
C1021 C1037 1.349 . S
C1022 C1020 1.327 . S
C1022 C1041 1.429 . S
C1022 H1046 0.950 . S
C1023 C1040 1.574 . S
C1023 C1042 1.368 . S
C1023 H1047 0.949 . S
H1024 C1028 0.949 . S
C1025 C1026 1.349 . S
C1025 C1027 1.327 . S
C1025 H1048 0.950 . S
C1026 C1025 1.349 . S
C1026 C1038 1.349 . S
C1027 C1025 1.327 . S
C1027 C1043 1.429 . S
C1027 H1049 0.950 . S
C1028 H1024 0.949 . S
C1028 C1036 1.574 . S
C1028 C1044 1.368 . S
H1029 C1037 0.950 . S
H1030 C1035 0.950 . S
H1031 C1036 0.949 . S
H1032 C1038 0.950 . S
H1033 C1039 0.950 . S
H1034 C1040 0.949 . S
C1035 H1030 0.950 . S
C1035 C1037 1.327 . S
C1035 C1041 1.429 . S
C1036 C1028 1.574 . S
C1036 H1031 0.949 . S
C1036 C1042 1.368 . S
C1037 C1021 1.349 . S
C1037 H1029 0.950 . S
C1037 C1035 1.327 . S
C1038 C1026 1.349 . S
C1038 H1032 0.950 . S
C1038 C1039 1.327 . S
C1039 H1033 0.950 . S
C1039 C1038 1.327 . S
C1039 C1043 1.429 . S
C1040 C1023 1.574 . S
C1040 H1034 0.949 . S
C1040 C1044 1.368 . S
C1041 C1022 1.429 . S
C1041 C1035 1.429 . S
C1041 C1042 1.523 . S
C1042 C1023 1.368 . S
C1042 C1036 1.368 . S
C1042 C1041 1.523 . S
C1043 C1027 1.429 . S
C1043 C1039 1.429 . S
C1043 C1044 1.523 . S
C1044 C1028 1.368 . S
C1044 C1040 1.368 . S
C1044 C1043 1.523 . S
H1045 C1020 0.950 . S
H1046 C1022 0.950 . S
H1047 C1023 0.949 . S
H1048 C1025 0.950 . S
H1049 C1027 0.950 . S
C1050 C1051 1.349 . S
C1050 C1052 1.327 . S
C1050 H1075 0.950 . S
C1051 C1050 1.349 . S
C1051 C1067 1.349 . S
C1052 C1050 1.327 . S
C1052 C1071 1.429 . S
C1052 H1076 0.950 . S
C1053 C1070 1.574 . S
C1053 C1072 1.368 . S
C1053 H1077 0.949 . S
H1054 C1058 0.949 . S
C1055 C1056 1.349 . S
C1055 C1057 1.327 . S
C1055 H1078 0.950 . S
C1056 C1055 1.349 . S
C1056 C1068 1.349 . S
C1057 C1055 1.327 . S
C1057 C1073 1.429 . S
C1057 H1079 0.950 . S
C1058 H1054 0.949 . S
C1058 C1066 1.574 . S
C1058 C1074 1.368 . S
H1059 C1067 0.950 . S
H1060 C1065 0.950 . S
H1061 C1066 0.949 . S
H1062 C1068 0.950 . S
H1063 C1069 0.950 . S
H1064 C1070 0.949 . S
C1065 H1060 0.950 . S
C1065 C1067 1.327 . S
C1065 C1071 1.429 . S
C1066 C1058 1.574 . S
C1066 H1061 0.949 . S
C1066 C1072 1.368 . S
C1067 C1051 1.349 . S
C1067 H1059 0.950 . S
C1067 C1065 1.327 . S
C1068 C1056 1.349 . S
C1068 H1062 0.950 . S
C1068 C1069 1.327 . S
C1069 H1063 0.950 . S
C1069 C1068 1.327 . S
C1069 C1073 1.429 . S
C1070 C1053 1.574 . S
C1070 H1064 0.949 . S
C1070 C1074 1.368 . S
C1071 C1052 1.429 . S
C1071 C1065 1.429 . S
C1071 C1072 1.523 . S
C1072 C1053 1.368 . S
C1072 C1066 1.368 . S
C1072 C1071 1.523 . S
C1073 C1057 1.429 . S
C1073 C1069 1.429 . S
C1073 C1074 1.523 . S
C1074 C1058 1.368 . S
C1074 C1070 1.368 . S
C1074 C1073 1.523 . S
H1075 C1050 0.950 . S
H1076 C1052 0.950 . S
H1077 C1053 0.949 . S
H1078 C1055 0.950 . S
H1079 C1057 0.950 . S
C1080 C1081 1.349 1_455 S
C1080 C1082 1.327 . S
C1080 H1105 0.950 . S
C1081 C1080 1.349 1_655 S
C1081 C1097 1.349 . S
C1082 C1080 1.327 . S
C1082 C1101 1.429 1_455 S
C1082 H1106 0.950 . S
C1083 C1100 1.574 . S
C1083 C1102 1.368 . S
C1083 H1107 0.949 . S
H1084 C1088 0.949 . S
C1085 C1086 1.349 . S
C1085 C1087 1.327 . S
C1085 H1108 0.950 . S
C1086 C1085 1.349 . S
C1086 C1098 1.327 1_655 S
C1087 C1085 1.327 . S
C1087 C1103 1.429 . S
C1087 H1109 0.950 . S
C1088 H1084 0.949 . S
C1088 C1096 1.574 . S
C1088 C1104 1.368 1_455 S
H1089 C1097 0.950 . S
H1090 C1095 0.950 . S
H1091 C1096 0.949 . S
H1092 C1098 0.972 . S
H1093 C1099 0.950 . S
H1094 C1100 0.949 . S
C1095 H1090 0.950 . S
C1095 C1097 1.327 . S
C1095 C1101 1.429 . S
C1096 C1088 1.574 . S
C1096 H1091 0.949 . S
C1096 C1102 1.368 1_455 S
C1097 C1081 1.349 . S
C1097 H1089 0.950 . S
C1097 C1095 1.327 . S
C1098 C1086 1.327 1_455 S
C1098 H1092 0.972 . S
C1098 C1099 1.330 . S
C1099 H1093 0.950 . S
C1099 C1098 1.330 . S
C1099 C1103 1.429 1_455 S
C1100 C1083 1.574 . S
C1100 H1094 0.949 . S
C1100 C1104 1.368 . S
C1101 C1082 1.429 1_655 S
C1101 C1095 1.429 . S
C1101 C1102 1.523 . S
C1102 C1083 1.368 . S
C1102 C1096 1.368 1_655 S
C1102 C1101 1.523 . S
C1103 C1087 1.429 . S
C1103 C1099 1.429 1_655 S
C1103 C1104 1.523 . S
C1104 C1088 1.368 1_655 S
C1104 C1100 1.368 . S
C1104 C1103 1.523 . S
H1105 C1080 0.950 . S
H1106 C1082 0.950 . S
H1107 C1083 0.949 . S
H1108 C1085 0.950 . S
H1109 C1087 0.950 . S
C1110 C1111 1.405 . S
C1110 C1112 1.327 . S
C1110 H1135 0.950 . S
C1111 C1110 1.405 . S
C1111 C1127 1.296 1_565 S
C1112 C1110 1.327 . S
C1112 C1131 1.429 . S
C1112 H1136 0.950 . S
C1113 C1130 1.574 . S
C1113 C1132 1.368 1_545 S
C1113 H1137 0.949 . S
H1114 C1118 0.949 . S
C1115 C1116 1.349 1_545 S
C1115 C1117 1.327 . S
C1115 H1138 0.950 . S
C1116 C1115 1.349 1_565 S
C1116 C1128 1.349 . S
C1117 C1115 1.327 . S
C1117 C1133 1.429 1_545 S
C1117 H1139 0.950 . S
C1118 H1114 0.949 . S
C1118 C1126 1.574 . S
C1118 C1134 1.368 . S
H1119 C1127 0.950 . S
H1120 C1125 0.950 . S
H1121 C1126 0.949 . S
H1122 C1128 0.950 . S
H1123 C1129 0.950 . S
H1124 C1130 0.949 . S
C1125 H1120 0.950 . S
C1125 C1127 1.327 . S
C1125 C1131 1.429 1_545 S
C1126 C1118 1.574 . S
C1126 H1121 0.949 . S
C1126 C1132 1.368 . S
C1127 C1111 1.296 1_545 S
C1127 H1119 0.950 . S
C1127 C1125 1.327 . S
C1128 C1116 1.349 . S
C1128 H1122 0.950 . S
C1128 C1129 1.327 . S
C1129 H1123 0.950 . S
C1129 C1128 1.327 . S
C1129 C1133 1.429 . S
C1130 C1113 1.574 . S
C1130 H1124 0.949 . S
C1130 C1134 1.368 1_545 S
C1131 C1112 1.429 . S
C1131 C1125 1.429 1_565 S
C1131 C1132 1.523 . S
C1132 C1113 1.368 1_565 S
C1132 C1126 1.368 . S
C1132 C1131 1.523 . S
C1133 C1117 1.429 1_565 S
C1133 C1129 1.429 . S
C1133 C1134 1.523 . S
C1134 C1118 1.368 . S
C1134 C1130 1.368 1_565 S
C1134 C1133 1.523 . S
H1135 C1110 0.950 . S
H1136 C1112 0.950 . S
H1137 C1113 0.949 . S
H1138 C1115 0.950 . S
H1139 C1117 0.950 . S
C1140 C1141 1.349 . S
C1140 C1142 1.327 . S
C1140 H1165 0.950 . S
C1141 C1140 1.349 . S
C1141 C1157 1.349 . S
C1142 C1140 1.327 . S
C1142 C1161 1.429 . S
C1142 H1166 0.950 . S
C1143 C1160 1.574 . S
C1143 C1162 1.368 . S
C1143 H1167 0.949 . S
H1144 C1148 0.949 . S
C1145 C1146 1.349 . S
C1145 C1147 1.327 . S
C1145 H1168 0.950 . S
C1146 C1145 1.349 . S
C1146 C1158 1.349 . S
C1147 C1145 1.327 . S
C1147 C1163 1.429 . S
C1147 H1169 0.950 . S
C1148 H1144 0.949 . S
C1148 C1156 1.574 . S
C1148 C1164 1.368 . S
H1149 C1157 0.950 . S
H1150 C1155 0.950 . S
H1151 C1156 0.949 . S
H1152 C1158 0.950 . S
H1153 C1159 0.950 . S
H1154 C1160 0.949 . S
C1155 H1150 0.950 . S
C1155 C1157 1.327 . S
C1155 C1161 1.429 . S
C1156 C1148 1.574 . S
C1156 H1151 0.949 . S
C1156 C1162 1.368 . S
C1157 C1141 1.349 . S
C1157 H1149 0.950 . S
C1157 C1155 1.327 . S
C1158 C1146 1.349 . S
C1158 H1152 0.950 . S
C1158 C1159 1.327 . S
C1159 H1153 0.950 . S
C1159 C1158 1.327 . S
C1159 C1163 1.429 . S
C1160 C1143 1.574 . S
C1160 H1154 0.949 . S
C1160 C1164 1.368 . S
C1161 C1142 1.429 . S
C1161 C1155 1.429 . S
C1161 C1162 1.523 . S
C1162 C1143 1.368 . S
C1162 C1156 1.368 . S
C1162 C1161 1.523 . S
C1163 C1147 1.429 . S
C1163 C1159 1.429 . S
C1163 C1164 1.523 . S
C1164 C1148 1.368 . S
C1164 C1160 1.368 . S
C1164 C1163 1.523 . S
H1165 C1140 0.950 . S
H1166 C1142 0.950 . S
H1167 C1143 0.949 . S
H1168 C1145 0.950 . S
H1169 C1147 0.950 . S
C1170 C1171 1.349 . S
C1170 C1172 1.327 . S
C1170 H1195 0.950 . S
C1171 C1170 1.349 . S
C1171 C1187 1.349 . S
C1172 C1170 1.327 . S
C1172 C1191 1.429 . S
C1172 H1196 0.950 . S
C1173 C1190 1.574 . S
C1173 C1192 1.368 . S
C1173 H1197 0.949 . S
H1174 C1178 0.949 . S
C1175 C1176 1.349 . S
C1175 C1177 1.327 . S
C1175 H1198 0.950 . S
C1176 C1175 1.349 . S
C1176 C1188 1.349 . S
C1177 C1175 1.327 . S
C1177 C1193 1.429 . S
C1177 H1199 0.950 . S
C1178 H1174 0.949 . S
C1178 C1186 1.574 . S
C1178 C1194 1.368 . S
H1179 C1187 0.950 . S
H1180 C1185 0.950 . S
H1181 C1186 0.949 . S
H1182 C1188 0.950 . S
H1183 C1189 0.950 . S
H1184 C1190 0.949 . S
C1185 H1180 0.950 . S
C1185 C1187 1.327 . S
C1185 C1191 1.429 . S
C1186 C1178 1.574 . S
C1186 H1181 0.949 . S
C1186 C1192 1.368 . S
C1187 C1171 1.349 . S
C1187 H1179 0.950 . S
C1187 C1185 1.327 . S
C1188 C1176 1.349 . S
C1188 H1182 0.950 . S
C1188 C1189 1.327 . S
C1189 H1183 0.950 . S
C1189 C1188 1.327 . S
C1189 C1193 1.429 . S
C1190 C1173 1.574 . S
C1190 H1184 0.949 . S
C1190 C1194 1.368 . S
C1191 C1172 1.429 . S
C1191 C1185 1.429 . S
C1191 C1192 1.523 . S
C1192 C1173 1.368 . S
C1192 C1186 1.368 . S
C1192 C1191 1.523 . S
C1193 C1177 1.429 . S
C1193 C1189 1.429 . S
C1193 C1194 1.523 . S
C1194 C1178 1.368 . S
C1194 C1190 1.368 . S
C1194 C1193 1.523 . S
H1195 C1170 0.950 . S
H1196 C1172 0.950 . S
H1197 C1173 0.949 . S
H1198 C1175 0.950 . S
H1199 C1177 0.950 . S
C481 C255 2.016 . S
C486 C322 2.144 1_545 S
C516 C362 2.147 . S
C511 C295 2.011 . S
C546 C402 2.147 . S
C541 C175 2.017 . S
C576 C442 2.144 1_455 S
C571 C215 2.017 . S
C606 C335 2.145 1_565 S
C601 C95 2.016 . S
C631 C135 2.017 . S
C636 C375 2.152 . S
C661 C15 2.017 . S
C666 C415 2.146 . S
C691 C55 2.017 . S
C696 C455 2.144 1_655 S
C726 C346 0.194 . S
C721 C221 0.266 . S
C756 C386 0.191 . S
C751 C261 0.265 . S
C786 C426 0.195 . S
C781 C301 0.265 . S
C811 C181 0.266 . S
C816 C466 0.192 . S
C841 C61 0.346 1_655 S
C846 C329 0.199 . S
C876 C369 0.192 . S
C871 C101 0.365 1_565 S
C906 C409 0.195 . S
C901 C141 0.381 . S
C931 C21 0.376 . S
C936 C449 0.191 . S
C961 C202 2.800 . S
C966 C323 3.070 . S
C991 C242 2.798 . S
C996 C363 3.075 . S
C1026 C403 3.076 . S
C1021 C282 2.799 . S
C1056 C443 3.076 . S
C1051 C162 2.798 . S
C1081 C42 2.805 1_655 S
C1086 C342 3.083 . S
C1116 C382 3.077 . S
C1111 C82 2.804 1_565 S
C1146 C422 3.075 . S
C1141 C122 2.806 . S
C1171 C2 2.808 . S
C1176 C462 3.076 . S
