# Generated by pormake.
# Topology ocu, (6,8)-cn, num edge types: 1
# Building blocks:
#     Node 0, Type 0, BuildingBlock: KUMBUR_clean_sbu_0, # of connection points: 6
#     Node 1, Type 0, BuildingBlock: KUMBUR_clean_sbu_0, # of connection points: 6
#     Node 2, Type 0, BuildingBlock: KUMBUR_clean_sbu_0, # of connection points: 6
#     Node 3, Type 0, BuildingBlock: KUMBUR_clean_sbu_0, # of connection points: 6
#     Node 4, Type 0, BuildingBlock: KUMBUR_clean_sbu_0, # of connection points: 6
#     Node 5, Type 0, BuildingBlock: KUMBUR_clean_sbu_0, # of connection points: 6
#     Node 6, Type 0, BuildingBlock: KUMBUR_clean_sbu_0, # of connection points: 6
#     Node 7, Type 0, BuildingBlock: KUMBUR_clean_sbu_0, # of connection points: 6
#     Node 8, Type 1, BuildingBlock: GIZVER_clean_sbu_0, # of connection points: 8
#     Node 9, Type 1, BuildingBlock: GIZVER_clean_sbu_0, # of connection points: 8
#     Node 10, Type 1, BuildingBlock: GIZVER_clean_sbu_0, # of connection points: 8
#     Node 11, Type 1, BuildingBlock: GIZVER_clean_sbu_0, # of connection points: 8
#     Node 12, Type 1, BuildingBlock: GIZVER_clean_sbu_0, # of connection points: 8
#     Node 13, Type 1, BuildingBlock: GIZVER_clean_sbu_0, # of connection points: 8
#     Edge 14, Type (0, 1), BuildingBlock: CIFDUS_clean_linker_0, # of connection points: 2
#     Edge 15, Type (0, 1), BuildingBlock: CIFDUS_clean_linker_0, # of connection points: 2
#     Edge 16, Type (0, 1), BuildingBlock: CIFDUS_clean_linker_0, # of connection points: 2
#     Edge 17, Type (0, 1), BuildingBlock: CIFDUS_clean_linker_0, # of connection points: 2
#     Edge 18, Type (0, 1), BuildingBlock: CIFDUS_clean_linker_0, # of connection points: 2
#     Edge 19, Type (0, 1), BuildingBlock: CIFDUS_clean_linker_0, # of connection points: 2
#     Edge 20, Type (0, 1), BuildingBlock: CIFDUS_clean_linker_0, # of connection points: 2
#     Edge 21, Type (0, 1), BuildingBlock: CIFDUS_clean_linker_0, # of connection points: 2
#     Edge 22, Type (0, 1), BuildingBlock: CIFDUS_clean_linker_0, # of connection points: 2
#     Edge 23, Type (0, 1), BuildingBlock: CIFDUS_clean_linker_0, # of connection points: 2
#     Edge 24, Type (0, 1), BuildingBlock: CIFDUS_clean_linker_0, # of connection points: 2
#     Edge 25, Type (0, 1), BuildingBlock: CIFDUS_clean_linker_0, # of connection points: 2
#     Edge 26, Type (0, 1), BuildingBlock: CIFDUS_clean_linker_0, # of connection points: 2
#     Edge 27, Type (0, 1), BuildingBlock: CIFDUS_clean_linker_0, # of connection points: 2
#     Edge 28, Type (0, 1), BuildingBlock: CIFDUS_clean_linker_0, # of connection points: 2
#     Edge 29, Type (0, 1), BuildingBlock: CIFDUS_clean_linker_0, # of connection points: 2
#     Edge 30, Type (0, 1), BuildingBlock: CIFDUS_clean_linker_0, # of connection points: 2
#     Edge 31, Type (0, 1), BuildingBlock: CIFDUS_clean_linker_0, # of connection points: 2
#     Edge 32, Type (0, 1), BuildingBlock: CIFDUS_clean_linker_0, # of connection points: 2
#     Edge 33, Type (0, 1), BuildingBlock: CIFDUS_clean_linker_0, # of connection points: 2
#     Edge 34, Type (0, 1), BuildingBlock: CIFDUS_clean_linker_0, # of connection points: 2
#     Edge 35, Type (0, 1), BuildingBlock: CIFDUS_clean_linker_0, # of connection points: 2
#     Edge 36, Type (0, 1), BuildingBlock: CIFDUS_clean_linker_0, # of connection points: 2
#     Edge 37, Type (0, 1), BuildingBlock: CIFDUS_clean_linker_0, # of connection points: 2
#     Edge 38, Type (0, 1), BuildingBlock: CIFDUS_clean_linker_0, # of connection points: 2
#     Edge 39, Type (0, 1), BuildingBlock: CIFDUS_clean_linker_0, # of connection points: 2
#     Edge 40, Type (0, 1), BuildingBlock: CIFDUS_clean_linker_0, # of connection points: 2
#     Edge 41, Type (0, 1), BuildingBlock: CIFDUS_clean_linker_0, # of connection points: 2
#     Edge 42, Type (0, 1), BuildingBlock: CIFDUS_clean_linker_0, # of connection points: 2
#     Edge 43, Type (0, 1), BuildingBlock: CIFDUS_clean_linker_0, # of connection points: 2
#     Edge 44, Type (0, 1), BuildingBlock: CIFDUS_clean_linker_0, # of connection points: 2
#     Edge 45, Type (0, 1), BuildingBlock: CIFDUS_clean_linker_0, # of connection points: 2
#     Edge 46, Type (0, 1), BuildingBlock: CIFDUS_clean_linker_0, # of connection points: 2
#     Edge 47, Type (0, 1), BuildingBlock: CIFDUS_clean_linker_0, # of connection points: 2
#     Edge 48, Type (0, 1), BuildingBlock: CIFDUS_clean_linker_0, # of connection points: 2
#     Edge 49, Type (0, 1), BuildingBlock: CIFDUS_clean_linker_0, # of connection points: 2
#     Edge 50, Type (0, 1), BuildingBlock: CIFDUS_clean_linker_0, # of connection points: 2
#     Edge 51, Type (0, 1), BuildingBlock: CIFDUS_clean_linker_0, # of connection points: 2
#     Edge 52, Type (0, 1), BuildingBlock: CIFDUS_clean_linker_0, # of connection points: 2
#     Edge 53, Type (0, 1), BuildingBlock: CIFDUS_clean_linker_0, # of connection points: 2
#     Edge 54, Type (0, 1), BuildingBlock: CIFDUS_clean_linker_0, # of connection points: 2
#     Edge 55, Type (0, 1), BuildingBlock: CIFDUS_clean_linker_0, # of connection points: 2
#     Edge 56, Type (0, 1), BuildingBlock: CIFDUS_clean_linker_0, # of connection points: 2
#     Edge 57, Type (0, 1), BuildingBlock: CIFDUS_clean_linker_0, # of connection points: 2
#     Edge 58, Type (0, 1), BuildingBlock: CIFDUS_clean_linker_0, # of connection points: 2
#     Edge 59, Type (0, 1), BuildingBlock: CIFDUS_clean_linker_0, # of connection points: 2
#     Edge 60, Type (0, 1), BuildingBlock: CIFDUS_clean_linker_0, # of connection points: 2
#     Edge 61, Type (0, 1), BuildingBlock: CIFDUS_clean_linker_0, # of connection points: 2
# Relax obj value: 0.172
# Max RMSD: 0.295
# Mean RMSD: 0.214
data_MOF--net-ocu--node1-KUMBUR_clean_sbu_0--node2-GIZVER_clean_sbu_0--edge1-CIFDUS_clean_linker_0
_symmetry_space_group_name_H-M    P1
_symmetry_Int_Tables_number       1
_symmetry_cell_setting            triclinic
loop_
_symmetry_equiv_pos_as_xyz
'x, y, z'
_cell_length_a     38.250334
_cell_length_b     39.384171
_cell_length_c     31.252927
_cell_angle_alpha  75.991341
_cell_angle_beta   102.77183
_cell_angle_gamma 114.00015
loop_
_atom_site_label
_atom_site_type_symbol
_atom_site_fract_x
_atom_site_fract_y
_atom_site_fract_z
_atom_type_partial_charge
Tb0 Tb 0.27331 0.25695 0.20845 0.0
C1 C 0.39106 0.33681 0.35609 0.0
C2 C 0.40166 0.28754 0.41435 0.0
C3 C 0.45233 0.34993 0.40502 0.0
C4 C 0.37815 0.30002 0.37773 0.0
C5 C 0.42814 0.36244 0.36969 0.0
C6 C 0.43908 0.31253 0.42738 0.0
C7 C 0.41354 0.4113 0.31449 0.0
N8 N 0.36663 0.34779 0.32254 0.0
C9 C 0.37689 0.38489 0.30255 0.0
C10 C 0.43941 0.39998 0.34799 0.0
Tb11 Tb 0.30733 0.30242 0.30478 0.0
N12 N 0.34175 0.27698 0.36427 0.0
C13 C 0.32624 0.24155 0.38813 0.0
C14 C 0.38647 0.25071 0.43745 0.0
C15 C 0.34843 0.22775 0.42452 0.0
H16 H 0.35732 0.39403 0.27643 0.0
H17 H 0.33615 0.19938 0.44255 0.0
H18 H 0.45768 0.30342 0.4552 0.0
H19 H 0.42176 0.44038 0.29787 0.0
H20 H 0.29696 0.22328 0.37877 0.0
H21 H 0.24692 0.35919 0.06766 0.0
H22 H 0.40353 0.24001 0.46577 0.0
H23 H 0.22212 0.16533 0.23603 0.0
H24 H 0.28602 0.33456 0.13063 0.0
H25 H 0.15671 0.12017 0.21587 0.0
H26 H 0.48102 0.36911 0.41586 0.0
H27 H 0.17813 0.32067 0.0474 0.0
H28 H 0.12252 0.25862 0.0598 0.0
H29 H 0.4677 0.42055 0.35736 0.0
H30 H 0.09796 0.19327 0.09993 0.0
N31 N 0.2398 0.2824 0.14775 0.0
C32 C 0.25612 0.31708 0.12263 0.0
C33 C 0.1952 0.30953 0.07521 0.0
C34 C 0.17925 0.27319 0.09916 0.0
C35 C 0.23402 0.33132 0.08654 0.0
C36 C 0.20271 0.26024 0.13538 0.0
H37 H 0.11069 0.14121 0.15783 0.0
N38 N 0.21346 0.2122 0.19063 0.0
C39 C 0.16538 0.14928 0.19926 0.0
C40 C 0.18906 0.22371 0.15755 0.0
C41 C 0.20262 0.17504 0.21049 0.0
C42 C 0.13947 0.16127 0.16659 0.0
C43 C 0.15134 0.19877 0.14477 0.0
O44 O 0.28983 0.21689 0.19299 0.0
O45 O 0.31263 0.26272 0.27138 0.0
O46 O 0.35593 0.32174 0.26716 0.0
O47 O 0.32006 0.31277 0.19747 0.0
O48 O 0.28592 0.21036 0.25597 0.0
O49 O 0.30337 0.27229 0.15343 0.0
O50 O 0.29266 0.34171 0.325 0.0
O51 O 0.26957 0.29786 0.24097 0.0
O52 O 0.22443 0.23892 0.24514 0.0
O53 O 0.25965 0.24726 0.31512 0.0
O54 O 0.29202 0.34863 0.26039 0.0
O55 O 0.27638 0.28416 0.35934 0.0
C56 C 0.3109 0.22889 0.28516 0.0
C57 C 0.29773 0.22261 0.11852 0.0
C58 C 0.31883 0.19366 0.07301 0.0
C59 C 0.3252 0.21046 0.11054 0.0
C60 C 0.28423 0.1892 0.04356 0.0
C61 C 0.26346 0.21789 0.08878 0.0
C62 C 0.25685 0.20128 0.05146 0.0
C63 C 0.35257 0.32875 0.22318 0.0
C64 C 0.30549 0.23935 0.15864 0.0
C65 C 0.12715 0.21188 0.11005 0.0
C66 C 0.1411 0.24908 0.08724 0.0
C67 C 0.26892 0.33109 0.22938 0.0
C68 C 0.28345 0.33063 0.40043 0.0
C69 C 0.25804 0.34516 0.40875 0.0
C70 C 0.26297 0.35707 0.44956 0.0
C71 C 0.29448 0.35478 0.4817 0.0
C72 C 0.31448 0.32834 0.43307 0.0
C73 C 0.31995 0.34048 0.47343 0.0
C74 C 0.22711 0.23196 0.28906 0.0
C75 C 0.27596 0.31735 0.3578 0.0
H76 H 0.35137 0.21364 0.13407 0.0
H77 H 0.27856 0.17686 0.01411 0.0
H78 H 0.24191 0.22694 0.09443 0.0
H79 H 0.23039 0.19779 0.0285 0.0
H80 H 0.23433 0.34717 0.38317 0.0
H81 H 0.29906 0.36332 0.51353 0.0
H82 H 0.33427 0.31706 0.42751 0.0
H83 H 0.34385 0.33847 0.49862 0.0
Tb84 Tb 0.8209 0.25135 0.27622 0.0
C85 C 0.67652 0.27433 0.24888 0.0
C86 C 0.63531 0.26096 0.1792 0.0
C87 C 0.60671 0.24393 0.24713 0.0
C88 C 0.67233 0.27461 0.20391 0.0
C89 C 0.64352 0.26032 0.27069 0.0
C90 C 0.60259 0.24429 0.20136 0.0
C91 C 0.68492 0.28506 0.33508 0.0
N92 N 0.71261 0.29101 0.27017 0.0
C93 C 0.71672 0.29861 0.31199 0.0
C94 C 0.6483 0.26492 0.3148 0.0
Tb95 Tb 0.76261 0.30647 0.22983 0.0
N96 N 0.70453 0.29126 0.18374 0.0
C97 C 0.70142 0.29882 0.13809 0.0
C98 C 0.6322 0.26601 0.13281 0.0
C99 C 0.66535 0.28586 0.1121 0.0
H100 H 0.74428 0.31383 0.32918 0.0
H101 H 0.6632 0.29089 0.07617 0.0
H102 H 0.57392 0.23304 0.18314 0.0
H103 H 0.68879 0.29002 0.36871 0.0
H104 H 0.72705 0.31354 0.12188 0.0
H105 H 0.96065 0.30619 0.37617 0.0
H106 H 0.60428 0.25595 0.11263 0.0
H107 H 0.79987 0.22495 0.17292 0.0
H108 H 0.88972 0.27704 0.36227 0.0
H109 H 0.83393 0.23398 0.11254 0.0
H110 H 0.58113 0.23243 0.26353 0.0
H111 H 0.9993 0.32043 0.31579 0.0
H112 H 1.00125 0.31751 0.23731 0.0
H113 H 0.62375 0.25452 0.33278 0.0
H114 H 0.96672 0.29797 0.16576 0.0
N115 N 0.88746 0.27562 0.29378 0.0
C116 C 0.90612 0.28316 0.33534 0.0
C117 C 0.96808 0.30751 0.30946 0.0
C118 C 0.94926 0.29787 0.26791 0.0
C119 C 0.9464 0.29956 0.34355 0.0
C120 C 0.90847 0.28111 0.26131 0.0
H121 H 0.90471 0.26672 0.11926 0.0
N122 N 0.84981 0.25353 0.21667 0.0
C123 C 0.84987 0.24454 0.14287 0.0
C124 C 0.88904 0.26983 0.2214 0.0
C125 C 0.8304 0.23972 0.17814 0.0
C126 C 0.88975 0.26291 0.14678 0.0
C127 C 0.90995 0.27541 0.18651 0.0
O128 O 0.79515 0.19204 0.28166 0.0
O129 O 0.76636 0.25646 0.27669 0.0
O130 O 0.79403 0.32348 0.29323 0.0
O131 O 0.84526 0.30292 0.30688 0.0
O132 O 0.79842 0.24586 0.33687 0.0
O133 O 0.84435 0.21808 0.32741 0.0
O134 O 0.79873 0.36179 0.23977 0.0
O135 O 0.81651 0.30076 0.23191 0.0
O136 O 0.77124 0.2188 0.23253 0.0
O137 O 0.73894 0.25871 0.19428 0.0
O138 O 0.79185 0.31825 0.17132 0.0
O139 O 0.74849 0.35254 0.19173 0.0
C140 C 0.76565 0.24831 0.31853 0.0
C141 C 0.79629 0.1639 0.35846 0.0
C142 C 0.80193 0.13998 0.43839 0.0
C143 C 0.81886 0.15997 0.39975 0.0
C144 C 0.76153 0.12346 0.43544 0.0
C145 C 0.75581 0.14746 0.35587 0.0
C146 C 0.73862 0.12746 0.39429 0.0
C147 C 0.82876 0.3248 0.31331 0.0
C148 C 0.81619 0.18694 0.31967 0.0
C149 C 0.95036 0.29315 0.19234 0.0
C150 C 0.97 0.30429 0.23302 0.0
C151 C 0.82274 0.31304 0.19205 0.0
C152 C 0.80618 0.40249 0.17082 0.0
C153 C 0.78943 0.4082 0.12652 0.0
C154 C 0.81213 0.43004 0.09248 0.0
C155 C 0.85236 0.4465 0.10344 0.0
C156 C 0.84655 0.41942 0.18129 0.0
C157 C 0.8694 0.44115 0.14771 0.0
C158 C 0.74384 0.22637 0.20238 0.0
C159 C 0.78156 0.37717 0.20518 0.0
H160 H 0.8501 0.17162 0.40152 0.0
H161 H 0.74786 0.10691 0.46458 0.0
H162 H 0.73753 0.15016 0.32442 0.0
H163 H 0.70746 0.11458 0.39206 0.0
H164 H 0.75822 0.39652 0.1188 0.0
H165 H 0.87038 0.4641 0.07803 0.0
H166 H 0.86052 0.41552 0.21526 0.0
H167 H 0.90043 0.454 0.15608 0.0
Tb168 Tb 0.77338 0.76911 0.30113 0.0
C169 C 0.85288 0.86944 0.14288 0.0
C170 C 0.79928 0.87923 0.09164 0.0
C171 C 0.86346 0.92835 0.09076 0.0
C172 C 0.81424 0.85701 0.12724 0.0
C173 C 0.87839 0.90466 0.12386 0.0
C174 C 0.82385 0.91567 0.07474 0.0
C175 C 0.93136 0.88787 0.16729 0.0
N176 N 0.86588 0.84529 0.1741 0.0
C177 C 0.90473 0.85312 0.18477 0.0
C178 C 0.91811 0.91412 0.13731 0.0
Tb179 Tb 0.82049 0.79063 0.20496 0.0
N180 N 0.7921 0.82146 0.14411 0.0
C181 C 0.75549 0.80482 0.12315 0.0
C182 C 0.76075 0.86339 0.07281 0.0
C183 C 0.73912 0.82565 0.08778 0.0
H184 H 0.91524 0.83302 0.20792 0.0
H185 H 0.70967 0.81268 0.07244 0.0
H186 H 0.81296 0.93368 0.0482 0.0
H187 H 0.96206 0.89434 0.17694 0.0
H188 H 0.73799 0.77584 0.13435 0.0
H189 H 0.8715 0.73787 0.44418 0.0
H190 H 0.74789 0.87939 0.04566 0.0
H191 H 0.67708 0.72833 0.27914 0.0
H192 H 0.85119 0.77694 0.37746 0.0
H193 H 0.62543 0.67074 0.30738 0.0
H194 H 0.88243 0.95584 0.07616 0.0
H195 H 0.8258 0.67445 0.47162 0.0
H196 H 0.7578 0.62577 0.46528 0.0
H197 H 0.93875 0.94091 0.12352 0.0
H198 H 0.69061 0.608 0.42886 0.0
N199 N 0.79479 0.7354 0.36484 0.0
C200 C 0.83079 0.74918 0.38838 0.0
C201 C 0.81669 0.69131 0.44192 0.0
C202 C 0.77891 0.67853 0.41981 0.0
C203 C 0.84253 0.72714 0.42657 0.0
C204 C 0.76873 0.70166 0.38115 0.0
H205 H 0.64076 0.62497 0.37053 0.0
N206 N 0.72251 0.71599 0.32524 0.0
C207 C 0.65507 0.6762 0.32267 0.0
C208 C 0.73106 0.69176 0.36088 0.0
C209 C 0.68477 0.70908 0.30669 0.0
C210 C 0.66382 0.65041 0.35822 0.0
C211 C 0.70215 0.6582 0.37813 0.0
O212 O 0.73612 0.79177 0.31427 0.0
O213 O 0.78247 0.80417 0.23516 0.0
O214 O 0.8515 0.83896 0.23961 0.0
O215 O 0.83133 0.81232 0.30977 0.0
O216 O 0.72798 0.78094 0.25042 0.0
O217 O 0.7934 0.80376 0.34999 0.0
O218 O 0.85851 0.77188 0.18564 0.0
O219 O 0.81415 0.75861 0.27209 0.0
O220 O 0.75198 0.71693 0.27413 0.0
O221 O 0.76327 0.74477 0.20159 0.0
O222 O 0.86686 0.77699 0.25202 0.0
O223 O 0.79839 0.75282 0.15997 0.0
C224 C 0.74827 0.8033 0.22019 0.0
C225 C 0.74674 0.80598 0.38657 0.0
C226 C 0.72652 0.83444 0.43343 0.0
C227 C 0.73838 0.83597 0.39315 0.0
C228 C 0.72242 0.80225 0.46645 0.0
C229 C 0.7425 0.77423 0.42013 0.0
C230 C 0.73029 0.7724 0.45981 0.0
C231 C 0.85428 0.83916 0.28259 0.0
C232 C 0.76114 0.80885 0.3453 0.0
C233 C 0.71232 0.63408 0.41529 0.0
C234 C 0.75066 0.6442 0.43606 0.0
C235 C 0.84818 0.75809 0.28497 0.0
C236 C 0.83997 0.75261 0.11484 0.0
C237 C 0.85124 0.72456 0.10826 0.0
C238 C 0.85539 0.72263 0.06532 0.0
C239 C 0.8486 0.74946 0.02916 0.0
C240 C 0.83392 0.77946 0.07839 0.0
C241 C 0.83828 0.77785 0.03579 0.0
C242 C 0.74693 0.71522 0.23136 0.0
C243 C 0.83141 0.75125 0.15907 0.0
H244 H 0.74172 0.86064 0.36736 0.0
H245 H 0.71237 0.79985 0.4971 0.0
H246 H 0.7488 0.75098 0.41579 0.0
H247 H 0.72692 0.74775 0.48554 0.0
H248 H 0.85579 0.70367 0.13632 0.0
H249 H 0.85189 0.74885 0.99586 0.0
H250 H 0.82517 0.80119 0.08274 0.0
H251 H 0.83338 0.79851 0.00772 0.0
Tb252 Tb 0.31823 0.73757 0.27613 0.0
C253 C 0.27392 0.84631 0.13417 0.0
C254 C 0.3334 0.90082 0.13115 0.0
C255 C 0.28923 0.88693 0.06317 0.0
C256 C 0.30843 0.86797 0.15525 0.0
C257 C 0.26307 0.85631 0.08813 0.0
C258 C 0.32438 0.90931 0.08474 0.0
C259 C 0.19897 0.81029 0.09674 0.0
N260 N 0.24905 0.81822 0.15991 0.0
C261 C 0.21101 0.80226 0.14238 0.0
C262 C 0.22543 0.83684 0.06922 0.0
Tb263 Tb 0.27161 0.8041 0.23431 0.0
N264 N 0.3157 0.85882 0.20014 0.0
C265 C 0.34586 0.88391 0.22324 0.0
C266 C 0.36565 0.92502 0.1546 0.0
C267 C 0.37138 0.91692 0.20095 0.0
H268 H 0.19017 0.78235 0.16374 0.0
H269 H 0.39551 0.9361 0.21964 0.0
H270 H 0.34358 0.93396 0.06555 0.0
H271 H 0.16923 0.79631 0.08297 0.0
H272 H 0.35078 0.87941 0.2589 0.0
H273 H 0.28887 0.60477 0.22873 0.0
H274 H 0.38549 0.95056 0.13742 0.0
H275 H 0.30853 0.75753 0.37065 0.0
H276 H 0.31436 0.67424 0.22133 0.0
H277 H 0.28311 0.72277 0.44033 0.0
H278 H 0.28172 0.89471 0.02766 0.0
H279 H 0.2552 0.56485 0.29293 0.0
H280 H 0.23525 0.5607 0.36603 0.0
H281 H 0.21595 0.84358 0.034 0.0
H282 H 0.23503 0.59286 0.42432 0.0
N283 N 0.29197 0.67363 0.27815 0.0
C284 C 0.29852 0.65696 0.24862 0.0
C285 C 0.26573 0.59528 0.28933 0.0
C286 C 0.26257 0.61247 0.32181 0.0
C287 C 0.28455 0.61768 0.25299 0.0
C288 C 0.27702 0.65223 0.31565 0.0
H289 H 0.25342 0.65313 0.45264 0.0
N290 N 0.29395 0.70858 0.34234 0.0
C291 C 0.28159 0.70761 0.41493 0.0
C292 C 0.27815 0.67028 0.34894 0.0
C293 C 0.29622 0.72735 0.37504 0.0
C294 C 0.26484 0.66832 0.42176 0.0
C295 C 0.26312 0.64912 0.38869 0.0
O296 O 0.36215 0.72759 0.32564 0.0
O297 O 0.32295 0.79295 0.23649 0.0
O298 O 0.2488 0.76017 0.19028 0.0
O299 O 0.27041 0.71128 0.22707 0.0
O300 O 0.33499 0.75735 0.20904 0.0
O301 O 0.36531 0.73312 0.25659 0.0
O302 O 0.22635 0.82368 0.22623 0.0
O303 O 0.27169 0.75375 0.28123 0.0
O304 O 0.35192 0.78617 0.31084 0.0
O305 O 0.31229 0.82095 0.29401 0.0
O306 O 0.2189 0.75724 0.25353 0.0
O307 O 0.27157 0.83508 0.28069 0.0
C308 C 0.33428 0.79063 0.20252 0.0
C309 C 0.38277 0.68464 0.30489 0.0
C310 C 0.39454 0.63774 0.27624 0.0
C311 C 0.39569 0.67472 0.27234 0.0
C312 C 0.38065 0.61092 0.31347 0.0
C313 C 0.37003 0.65731 0.34229 0.0
C314 C 0.36882 0.62078 0.34629 0.0
C315 C 0.2492 0.72573 0.19434 0.0
C316 C 0.37849 0.72174 0.29709 0.0
C317 C 0.24697 0.60956 0.39418 0.0
C318 C 0.24688 0.59125 0.36089 0.0
C319 C 0.23527 0.73612 0.28057 0.0
C320 C 0.24607 0.88217 0.24994 0.0
C321 C 0.24014 0.89765 0.28253 0.0
C322 C 0.2444 0.93587 0.27461 0.0
C323 C 0.25545 0.95848 0.23382 0.0
C324 C 0.25665 0.90522 0.20932 0.0
C325 C 0.26154 0.94319 0.20151 0.0
C326 C 0.34325 0.8142 0.316 0.0
C327 C 0.24165 0.8422 0.25905 0.0
H328 H 0.40552 0.69546 0.2433 0.0
H329 H 0.37984 0.58249 0.31782 0.0
H330 H 0.35981 0.66372 0.36789 0.0
H331 H 0.3584 0.59989 0.37494 0.0
H332 H 0.23131 0.87965 0.31358 0.0
H333 H 0.25936 0.98801 0.22688 0.0
H334 H 0.26097 0.89392 0.18356 0.0
H335 H 0.26987 0.96079 0.17015 0.0
Tb336 Tb 0.33536 0.72982 0.77944 0.0
C337 C 0.2076 0.77282 0.76105 0.0
C338 C 0.16568 0.76819 0.69032 0.0
C339 C 0.13793 0.75151 0.75879 0.0
C340 C 0.20279 0.77594 0.71532 0.0
C341 C 0.17517 0.76161 0.78313 0.0
C342 C 0.13319 0.75485 0.71243 0.0
C343 C 0.21876 0.77525 0.85074 0.0
N344 N 0.24414 0.78309 0.78344 0.0
C345 C 0.25003 0.78587 0.82759 0.0
C346 C 0.18116 0.76221 0.8287 0.0
Tb347 Tb 0.29214 0.79616 0.74135 0.0
N348 N 0.23479 0.78906 0.69505 0.0
C349 C 0.23193 0.79855 0.6495 0.0
C350 C 0.16244 0.77536 0.64381 0.0
C351 C 0.19579 0.79128 0.62333 0.0
H352 H 0.27837 0.79538 0.8463 0.0
H353 H 0.1937 0.7978 0.58739 0.0
H354 H 0.1044 0.74821 0.69388 0.0
H355 H 0.22375 0.77673 0.88583 0.0
H356 H 0.25745 0.81018 0.6332 0.0
H357 H 0.48384 0.81926 0.74949 0.0
H358 H 0.13445 0.76981 0.62346 0.0
H359 H 0.28438 0.64053 0.76481 0.0
H360 H 0.42687 0.80032 0.7839 0.0
H361 H 0.28607 0.59636 0.72251 0.0
H362 H 0.11271 0.74232 0.77531 0.0
H363 H 0.48739 0.78122 0.69966 0.0
H364 H 0.45713 0.72296 0.6654 0.0
H365 H 0.15705 0.75382 0.84685 0.0
H366 H 0.40353 0.66225 0.65811 0.0
N367 N 0.39469 0.75041 0.75409 0.0
C368 C 0.4263 0.78222 0.76283 0.0
C369 C 0.46148 0.77222 0.71485 0.0
C370 C 0.4304 0.73885 0.7077 0.0
C371 C 0.45961 0.79364 0.74306 0.0
C372 C 0.39719 0.72844 0.72817 0.0
H373 H 0.33998 0.61469 0.67967 0.0
N374 N 0.33642 0.68473 0.74522 0.0
C375 C 0.30896 0.62392 0.72234 0.0
C376 C 0.36716 0.69439 0.72383 0.0
C377 C 0.30813 0.64926 0.74626 0.0
C378 C 0.33939 0.63439 0.69818 0.0
C379 C 0.3693 0.6697 0.69928 0.0
O380 O 0.34918 0.68463 0.82168 0.0
O381 O 0.2896 0.74601 0.78933 0.0
O382 O 0.32611 0.80603 0.80717 0.0
O383 O 0.37056 0.77955 0.80944 0.0
O384 O 0.27458 0.69253 0.77986 0.0
O385 O 0.34257 0.72566 0.84886 0.0
O386 O 0.3377 0.84867 0.74597 0.0
O387 O 0.34316 0.78525 0.74003 0.0
O388 O 0.30329 0.71791 0.71451 0.0
O389 O 0.26208 0.75067 0.70009 0.0
O390 O 0.31573 0.80323 0.68083 0.0
O391 O 0.28072 0.84627 0.71943 0.0
C392 C 0.2614 0.71465 0.78878 0.0
C393 C 0.32082 0.6648 0.88863 0.0
C394 C 0.31033 0.6374 0.96592 0.0
C395 C 0.33421 0.66256 0.93414 0.0
C396 C 0.27145 0.61679 0.95112 0.0
C397 C 0.28283 0.6417 0.87446 0.0
C398 C 0.258 0.61871 0.9056 0.0
C399 C 0.35955 0.80214 0.82356 0.0
C400 C 0.34638 0.69364 0.85756 0.0
C401 C 0.40153 0.68064 0.67747 0.0
C402 C 0.43201 0.71519 0.68162 0.0
C403 C 0.34582 0.79534 0.6986 0.0
C404 C 0.33303 0.89493 0.68485 0.0
C405 C 0.31114 0.89354 0.6426 0.0
C406 C 0.32658 0.91809 0.60478 0.0
C407 C 0.36462 0.94448 0.60955 0.0
C408 C 0.37101 0.92158 0.68919 0.0
C409 C 0.3866 0.94625 0.65169 0.0
C410 C 0.27325 0.72545 0.69153 0.0
C411 C 0.31706 0.86787 0.7241 0.0
H412 H 0.36427 0.67904 0.94429 0.0
H413 H 0.25216 0.59746 0.97456 0.0
H414 H 0.27204 0.64135 0.83966 0.0
H415 H 0.22847 0.60164 0.89438 0.0
H416 H 0.28117 0.87469 0.63935 0.0
H417 H 0.37667 0.96456 0.58109 0.0
H418 H 0.38858 0.92325 0.72153 0.0
H419 H 0.41558 0.96724 0.65539 0.0
Tb420 Tb 0.2667 0.24678 0.78976 0.0
C421 C 0.3821 0.38499 0.69532 0.0
C422 C 0.34144 0.41053 0.63712 0.0
C423 C 0.40298 0.45274 0.66943 0.0
C424 C 0.34786 0.37951 0.66639 0.0
C425 C 0.41043 0.42159 0.69633 0.0
C426 C 0.36857 0.44721 0.63983 0.0
C427 C 0.45322 0.39368 0.74632 0.0
N428 N 0.3886 0.35416 0.72047 0.0
C429 C 0.42446 0.3579 0.74387 0.0
C430 C 0.44596 0.4257 0.7231 0.0
Tb431 Tb 0.33745 0.29767 0.71662 0.0
N432 N 0.32243 0.34359 0.6643 0.0
C433 C 0.29244 0.33677 0.63015 0.0
C434 C 0.3088 0.40368 0.60474 0.0
C435 C 0.28464 0.3666 0.60069 0.0
H436 H 0.43092 0.33361 0.76172 0.0
H437 H 0.25989 0.36089 0.57496 0.0
H438 H 0.36383 0.47139 0.61808 0.0
H439 H 0.48107 0.39651 0.76597 0.0
H440 H 0.27329 0.30858 0.6261 0.0
H441 H 0.34272 0.19987 0.94676 0.0
H442 H 0.30277 0.42671 0.58172 0.0
H443 H 0.18115 0.19994 0.73622 0.0
H444 H 0.32497 0.2462 0.88879 0.0
H445 H 0.13765 0.13373 0.73406 0.0
H446 H 0.42422 0.4811 0.67013 0.0
H447 H 0.30884 0.13184 0.94407 0.0
H448 H 0.25512 0.08067 0.90734 0.0
H449 H 0.46844 0.45335 0.72482 0.0
H450 H 0.19867 0.06253 0.84972 0.0
N451 N 0.28327 0.20589 0.84965 0.0
C452 C 0.31054 0.21708 0.88539 0.0
C453 C 0.30126 0.15226 0.9177 0.0
C454 C 0.27117 0.14074 0.88327 0.0
C455 C 0.32046 0.19062 0.91925 0.0
C456 C 0.26252 0.16856 0.84973 0.0
H457 H 0.15417 0.08216 0.78545 0.0
N458 N 0.22246 0.18621 0.78802 0.0
C459 C 0.16382 0.14023 0.75775 0.0
C460 C 0.23087 0.15835 0.81774 0.0
C461 C 0.1885 0.17776 0.75924 0.0
C462 C 0.17333 0.11121 0.78666 0.0
C463 C 0.20685 0.12008 0.81772 0.0
O464 O 0.26638 0.27524 0.83913 0.0
O465 O 0.28645 0.29689 0.7387 0.0
O466 O 0.35361 0.33115 0.76935 0.0
O467 O 0.31821 0.2866 0.82387 0.0
O468 O 0.22907 0.26609 0.73393 0.0
O469 O 0.2135 0.23949 0.80671 0.0
O470 O 0.36295 0.31133 0.6582 0.0
O471 O 0.31808 0.24914 0.76887 0.0
O472 O 0.26137 0.213 0.74039 0.0
O473 O 0.28417 0.26102 0.68232 0.0
O474 O 0.37609 0.27745 0.77085 0.0
O475 O 0.35537 0.25837 0.70074 0.0
C476 C 0.25411 0.29682 0.71675 0.0
C477 C 0.21229 0.29353 0.82641 0.0
C478 C 0.19759 0.33828 0.85506 0.0
C479 C 0.21304 0.30995 0.86228 0.0
C480 C 0.18247 0.35062 0.81166 0.0
C481 C 0.19429 0.30472 0.78409 0.0
C482 C 0.18054 0.33367 0.77658 0.0
C483 C 0.3455 0.31925 0.81058 0.0
C484 C 0.2289 0.26405 0.83339 0.0
C485 C 0.21649 0.09211 0.84945 0.0
C486 C 0.24863 0.10243 0.88221 0.0
C487 C 0.35034 0.24885 0.79102 0.0
C488 C 0.35332 0.25972 0.62406 0.0
C489 C 0.37339 0.23852 0.61787 0.0
C490 C 0.36311 0.22116 0.57974 0.0
C491 C 0.33172 0.22502 0.54837 0.0
C492 C 0.32217 0.26297 0.59214 0.0
C493 C 0.31143 0.2456 0.5547 0.0
C494 C 0.26308 0.2258 0.69741 0.0
C495 C 0.36608 0.27894 0.66335 0.0
H496 H 0.2249 0.30033 0.89562 0.0
H497 H 0.17009 0.372 0.80527 0.0
H498 H 0.18984 0.29068 0.75673 0.0
H499 H 0.16726 0.34224 0.74364 0.0
H500 H 0.39709 0.23566 0.64291 0.0
H501 H 0.32326 0.21284 0.51836 0.0
H502 H 0.30634 0.27917 0.59588 0.0
H503 H 0.28752 0.24852 0.53012 0.0
Tb504 Tb 0.8223 0.22408 0.7901 0.0
C505 C 0.75568 0.32723 0.64069 0.0
C506 C 0.8094 0.38519 0.62264 0.0
C507 C 0.75353 0.36497 0.56668 0.0
C508 C 0.79194 0.35234 0.65281 0.0
C509 C 0.73555 0.3335 0.59778 0.0
C510 C 0.79043 0.39087 0.57915 0.0
C511 C 0.68004 0.27965 0.62126 0.0
N512 N 0.73915 0.29786 0.67208 0.0
C513 C 0.70108 0.27505 0.6635 0.0
C514 C 0.69751 0.30874 0.58802 0.0
Tb515 Tb 0.77563 0.29136 0.74054 0.0
N516 N 0.80903 0.34575 0.6952 0.0
C517 C 0.84283 0.37271 0.71025 0.0
C518 C 0.8448 0.41183 0.63749 0.0
C519 C 0.86134 0.40573 0.68167 0.0
H520 H 0.68705 0.25247 0.68881 0.0
H521 H 0.88852 0.42636 0.69376 0.0
H522 H 0.80359 0.41566 0.55535 0.0
H523 H 0.65031 0.26083 0.61445 0.0
H524 H 0.85659 0.36886 0.74393 0.0
H525 H 0.71136 0.09099 0.84595 0.0
H526 H 0.85922 0.4374 0.61541 0.0
H527 H 0.91245 0.2642 0.83716 0.0
H528 H 0.7436 0.1451 0.79108 0.0
H529 H 0.9509 0.25895 0.91122 0.0
H530 H 0.73871 0.37013 0.53342 0.0
H531 H 0.74024 0.08612 0.92516 0.0
H532 H 0.79658 0.11162 0.98321 0.0
H533 H 0.68105 0.3125 0.55544 0.0
H534 H 0.8624 0.15735 1.00101 0.0
N535 N 0.78986 0.17225 0.83869 0.0
C536 C 0.75675 0.14371 0.82543 0.0
C537 C 0.75451 0.11021 0.9012 0.0
C538 C 0.78996 0.13789 0.91398 0.0
C539 C 0.73823 0.11277 0.85651 0.0
C540 C 0.80722 0.16867 0.88142 0.0
H541 H 0.92068 0.21184 0.97401 0.0
N542 N 0.86048 0.22101 0.85775 0.0
C543 C 0.92081 0.24056 0.90614 0.0
C544 C 0.84406 0.19398 0.89134 0.0
C545 C 0.89889 0.24337 0.86412 0.0
C546 C 0.90361 0.21407 0.94155 0.0
C547 C 0.86494 0.18986 0.93421 0.0
O548 O 0.86897 0.21571 0.77496 0.0
O549 O 0.82043 0.27188 0.73929 0.0
O550 O 0.7628 0.25382 0.69155 0.0
O551 O 0.77316 0.20188 0.73922 0.0
O552 O 0.87349 0.26993 0.76371 0.0
O553 O 0.81054 0.17664 0.76198 0.0
O554 O 0.72768 0.29751 0.75605 0.0
O555 O 0.7764 0.24261 0.79097 0.0
O556 O 0.83361 0.26009 0.83905 0.0
O557 O 0.82652 0.31295 0.79111 0.0
O558 O 0.72382 0.24468 0.76187 0.0
O559 O 0.78549 0.33506 0.77465 0.0
C560 C 0.85583 0.28913 0.73521 0.0
C561 C 0.8594 0.15203 0.77753 0.0
C562 C 0.88096 0.10644 0.76177 0.0
C563 C 0.86869 0.13705 0.7471 0.0
C564 C 0.88316 0.09064 0.80728 0.0
C565 C 0.86178 0.13592 0.82276 0.0
C566 C 0.87347 0.10527 0.83748 0.0
C567 C 0.75974 0.21791 0.70027 0.0
C568 C 0.84678 0.18404 0.76121 0.0
C569 C 0.84703 0.16078 0.96769 0.0
C570 C 0.80955 0.13479 0.95757 0.0
C571 C 0.74031 0.22496 0.7912 0.0
C572 C 0.73627 0.35951 0.76119 0.0
C573 C 0.71574 0.36516 0.78937 0.0
C574 C 0.70506 0.39689 0.7788 0.0
C575 C 0.71499 0.42262 0.73937 0.0
C576 C 0.7456 0.38549 0.72197 0.0
C577 C 0.73497 0.41681 0.71117 0.0
C578 C 0.84024 0.29665 0.8299 0.0
C579 C 0.74893 0.32724 0.77403 0.0
H580 H 0.86722 0.14978 0.71219 0.0
H581 H 0.89235 0.06697 0.81946 0.0
H582 H 0.85469 0.14695 0.84664 0.0
H583 H 0.87522 0.09293 0.87244 0.0
H584 H 0.70876 0.34527 0.81988 0.0
H585 H 0.70681 0.447 0.73 0.0
H586 H 0.76136 0.3818 0.69988 0.0
H587 H 0.74232 0.43674 0.68084 0.0
Tb588 Tb 0.77772 0.73822 0.71287 0.0
C589 C 0.88668 0.82023 0.85161 0.0
C590 C 0.8935 0.76687 0.90546 0.0
C591 C 0.94693 0.82764 0.90143 0.0
C592 C 0.8715 0.78265 0.87036 0.0
C593 C 0.92402 0.84356 0.86806 0.0
C594 C 0.93173 0.78927 0.91999 0.0
C595 C 0.91093 0.89719 0.82217 0.0
N596 N 0.86343 0.83459 0.81996 0.0
C597 C 0.87398 0.87284 0.80726 0.0
C598 C 0.93638 0.88241 0.85204 0.0
Tb599 Tb 0.80369 0.79233 0.79773 0.0
N600 N 0.83418 0.76226 0.85618 0.0
C601 C 0.81618 0.72657 0.87789 0.0
C602 C 0.87606 0.72937 0.9256 0.0
C603 C 0.83702 0.70933 0.91219 0.0
H604 H 0.85422 0.88434 0.78445 0.0
H605 H 0.82299 0.68047 0.92778 0.0
H606 H 0.94928 0.77754 0.94657 0.0
H607 H 0.91967 0.92732 0.81084 0.0
H608 H 0.78609 0.71088 0.86786 0.0
H609 H 0.77637 0.84849 0.5696 0.0
H610 H 0.89225 0.71604 0.95211 0.0
H611 H 0.70842 0.65067 0.73161 0.0
H612 H 0.80644 0.81155 0.62648 0.0
H613 H 0.6382 0.62129 0.71358 0.0
H614 H 0.97591 0.84498 0.91414 0.0
H615 H 0.70503 0.82828 0.55477 0.0
H616 H 0.64056 0.77846 0.56866 0.0
H617 H 0.96484 0.90135 0.86389 0.0
H618 H 0.6027 0.71656 0.60854 0.0
N619 N 0.75346 0.77136 0.64993 0.0
C620 C 0.7755 0.80217 0.62281 0.0
C621 C 0.7183 0.8117 0.5807 0.0
C622 C 0.69574 0.77796 0.60474 0.0
C623 C 0.75837 0.82322 0.58897 0.0
C624 C 0.71438 0.75822 0.63964 0.0
H625 H 0.60156 0.65759 0.66226 0.0
N626 N 0.71227 0.7052 0.69447 0.0
C627 C 0.6531 0.65049 0.69961 0.0
C628 C 0.69305 0.72407 0.66284 0.0
C629 C 0.69314 0.66765 0.71012 0.0
C630 C 0.63256 0.67104 0.67068 0.0
C631 C 0.65262 0.70789 0.65075 0.0
O632 O 0.77535 0.68411 0.71082 0.0
O633 O 0.80656 0.74253 0.78126 0.0
O634 O 0.85191 0.81938 0.75868 0.0
O635 O 0.82753 0.78951 0.69645 0.0
O636 O 0.83563 0.73747 0.73784 0.0
O637 O 0.79479 0.73069 0.65749 0.0
O638 O 0.78118 0.83066 0.80607 0.0
O639 O 0.76452 0.7797 0.73597 0.0
O640 O 0.74743 0.70236 0.77006 0.0
O641 O 0.74703 0.74787 0.80423 0.0
O642 O 0.79517 0.83544 0.74241 0.0
O643 O 0.78693 0.78707 0.8598 0.0
C644 C 0.83758 0.73823 0.77908 0.0
C645 C 0.77571 0.66933 0.64119 0.0
C646 C 0.79089 0.63038 0.60305 0.0
C647 C 0.80167 0.65495 0.63395 0.0
C648 C 0.75336 0.62086 0.57908 0.0
C649 C 0.73861 0.65961 0.61694 0.0
C650 C 0.72757 0.63544 0.58599 0.0
C651 C 0.85376 0.81587 0.71836 0.0
C652 C 0.78932 0.69543 0.67323 0.0
C653 C 0.63377 0.72826 0.61768 0.0
C654 C 0.65531 0.76336 0.59483 0.0
C655 C 0.76841 0.81369 0.71712 0.0
C656 C 0.79051 0.84367 0.87801 0.0
C657 C 0.76457 0.85869 0.8836 0.0
C658 C 0.77657 0.88769 0.90901 0.0
C659 C 0.81543 0.90083 0.92918 0.0
C660 C 0.82849 0.85624 0.89981 0.0
C661 C 0.84085 0.8848 0.9251 0.0
C662 C 0.7329 0.71295 0.7969 0.0
C663 C 0.7773 0.81636 0.84744 0.0
H664 H 0.83066 0.66357 0.65208 0.0
H665 H 0.74364 0.60174 0.55542 0.0
H666 H 0.71842 0.6708 0.62172 0.0
H667 H 0.69883 0.62788 0.56732 0.0
H668 H 0.73492 0.8473 0.86807 0.0
H669 H 0.82663 0.92374 0.94789 0.0
H670 H 0.84866 0.84433 0.89706 0.0
H671 H 0.87044 0.89487 0.94124 0.0
Co672 Co 0.09965 0.98208 0.45763 0.0
Co673 Co 0.09168 0.9481 0.53386 0.0
Co674 Co 0.05483 1.01041 0.51831 0.0
O675 O 0.09751 0.99672 0.51134 0.0
H676 H 0.1224 1.01382 0.52267 0.0
O677 O 1.01248 0.02402 0.52527 0.0
Co678 Co 1.02051 0.05628 0.56562 0.0
Co679 Co 1.00438 0.06182 0.48199 0.0
H680 H 0.98857 1.00226 0.52762 0.0
O681 O 0.13535 0.94405 0.56573 0.0
O682 O 0.11201 0.93821 0.49306 0.0
O683 O 1.04283 0.91571 0.55372 0.0
O684 O 1.03206 0.96455 0.56445 0.0
O685 O 0.09037 0.03809 0.56653 0.0
O686 O 1.02496 0.08352 0.60524 0.0
O687 O 0.97478 0.03128 0.5875 0.0
O688 O 0.07042 0.0858 0.5494 0.0
O689 O 0.07851 0.05614 0.47314 0.0
O690 O 1.04307 0.09135 0.44309 0.0
O691 O 0.99651 0.0875 0.5182 0.0
O692 O 0.95456 0.0549 0.46474 0.0
C693 C 0.14028 0.9944 0.41742 0.0
C694 C 1.01753 0.9582 0.45191 0.0
C695 C 1.02439 0.92903 0.56995 0.0
C696 C 0.13944 0.94039 0.527 0.0
C697 C 0.99118 0.05788 0.61178 0.0
C698 C 0.09649 0.07236 0.56687 0.0
C699 C 0.07317 0.08429 0.44628 0.0
C700 C 0.96155 0.07346 0.49694 0.0
O701 O 0.10497 0.97155 0.40841 0.0
O702 O 0.15071 1.00979 0.4532 0.0
O703 O 1.018 0.98396 0.47006 0.0
O704 O 0.04743 0.95128 0.45381 0.0
Co705 Co 0.59185 0.96692 1.00353 0.0
Co706 Co 0.59149 0.97097 0.08313 0.0
Co707 Co 0.54201 0.02213 0.01263 0.0
O708 O 0.5873 1.00422 0.03023 0.0
H709 H 0.61118 0.02602 0.0302 0.0
O710 O 0.49653 0.04001 0.99486 0.0
Co711 Co 0.49517 0.08263 0.01416 0.0
Co712 Co 0.4912 0.06792 0.9374 0.0
H713 H 0.47258 1.01863 0.99864 0.0
O714 O 0.63897 0.96626 0.1144 0.0
O715 O 0.5979 0.93264 0.06312 0.0
O716 O 0.54485 0.95119 0.10967 0.0
O717 O 0.51023 0.98209 0.06047 0.0
O718 O 0.56923 0.05904 0.05528 0.0
O719 O 0.48908 0.11891 0.03325 0.0
O720 O 0.44334 0.06523 0.01342 0.0
O721 O 0.5499 0.10595 0.01862 0.0
O722 O 0.57397 0.06105 0.96462 0.0
O723 O 0.53574 0.08208 0.90839 0.0
O724 O 0.4896 0.11109 0.95126 0.0
O725 O 0.44441 0.0743 0.90574 0.0
C726 C 0.63654 0.96009 0.98559 0.0
C727 C 0.51092 0.95214 0.9736 0.0
C728 C 0.51373 0.95736 0.09525 0.0
C729 C 0.62841 0.93797 0.0938 0.0
C730 C 0.45277 0.097 0.02724 0.0
C731 C 0.57442 0.09413 0.04579 0.0
C732 C 0.56833 0.0797 0.9254 0.0
C733 C 0.45806 0.10511 0.92233 0.0
O734 O 0.60116 0.93678 0.97703 0.0
O735 O 0.64364 0.98797 1.00594 0.0
O736 O 0.51467 0.98644 0.96938 0.0
O737 O 0.537 0.94017 0.99633 0.0
Co738 Co 0.08421 0.4587 0.99519 0.0
Co739 Co 0.08794 0.471 0.0725 0.0
Co740 Co 1.04509 0.52506 0.99728 0.0
O741 O 0.08742 0.50285 0.01643 0.0
H742 H 0.11259 0.5227 0.0144 0.0
O743 O 1.00145 0.54604 0.97947 0.0
Co744 Co 1.00675 0.59079 1.00046 0.0
Co745 Co 0.99785 0.57581 0.92369 0.0
H746 H 0.9766 0.52613 0.98367 0.0
O747 O 0.1345 0.46626 0.10565 0.0
O748 O 0.09258 0.42911 0.05809 0.0
O749 O 1.0397 0.45307 0.09709 0.0
O750 O 1.01106 0.4867 0.04351 0.0
O751 O 0.07452 0.56233 0.03981 0.0
O752 O 1.00879 0.62884 0.02241 0.0
O753 O 0.95623 0.57752 0.0082 0.0
O754 O 0.06 0.60985 0.99706 0.0
O755 O 0.07841 0.56305 0.94914 0.0
O756 O 1.04298 0.58996 0.89521 0.0
O757 O 0.99659 0.61903 0.93831 0.0
O758 O 0.95068 0.58131 0.89391 0.0
C759 C 0.12236 0.44234 0.97634 0.0
C760 C 1.00748 0.4527 0.96345 0.0
C761 C 1.01024 0.46126 0.07863 0.0
C762 C 0.12365 0.43625 0.0881 0.0
C763 C 0.97225 0.60934 0.0236 0.0
C764 C 0.08111 0.5978 0.02937 0.0
C765 C 0.07442 0.58473 0.91142 0.0
C766 C 0.96423 0.61208 0.91061 0.0
O767 O 0.08573 0.42139 0.97392 0.0
O768 O 0.13522 0.47403 0.99149 0.0
O769 O 1.0164 0.48853 0.95474 0.0
O770 O 1.02871 0.43788 0.99288 0.0
Co771 Co 0.57458 0.47096 0.96662 0.0
Co772 Co 0.59731 0.47092 0.05026 0.0
Co773 Co 0.54577 0.52128 0.01828 0.0
O774 O 0.58474 0.50583 1.00487 0.0
H775 H 0.60806 0.52749 0.99906 0.0
O776 O 0.50671 0.53712 0.03336 0.0
Co777 Co 0.50782 0.5474 0.09322 0.0
Co778 Co 0.52135 0.58822 0.01802 0.0
H779 H 0.48077 0.52418 0.01965 0.0
O780 O 0.64751 0.47607 0.05986 0.0
O781 O 0.59785 0.44037 0.01516 0.0
O782 O 0.56411 0.44428 0.09596 0.0
O783 O 0.52815 0.47907 0.06934 0.0
O784 O 0.58954 0.55204 0.05808 0.0
O785 O 0.50559 0.55617 0.1451 0.0
O786 O 0.45591 0.53359 0.0926 0.0
O787 O 0.5607 0.56355 0.10376 0.0
O788 O 0.56217 0.56407 0.96647 0.0
O789 O 0.56805 0.61501 0.99088 0.0
O790 O 0.51307 0.60054 0.0665 0.0
O791 O 0.48176 0.60435 0.99581 0.0
C792 C 0.60418 0.46504 0.92286 0.0
C793 C 0.49879 0.45673 0.97144 0.0
C794 C 0.53533 0.4522 0.09692 0.0
C795 C 0.63446 0.45326 0.03106 0.0
C796 C 0.46908 0.54649 0.1303 0.0
C797 C 0.59077 0.5656 0.09143 0.0
C798 C 0.57684 0.59987 0.96532 0.0
C799 C 0.48673 0.60922 0.03675 0.0
O800 O 0.56964 0.44061 0.92924 0.0
O801 O 0.61953 0.49389 0.94362 0.0
O802 O 0.50389 0.48984 0.97645 0.0
O803 O 0.52547 0.44359 0.98547 0.0
Co804 Co 0.11852 0.48304 0.56575 0.0
Co805 Co 0.09777 0.49047 0.48069 0.0
Co806 Co 1.04367 0.52174 0.51402 0.0
O807 O 0.07113 0.48478 0.52605 0.0
H808 H 0.05198 0.45939 0.52884 0.0
O809 O 1.01339 0.55754 0.50221 0.0
Co810 Co 0.97087 0.56458 0.45203 0.0
Co811 Co 0.96817 0.52945 0.52685 0.0
H812 H 1.02801 0.57994 0.51538 0.0
O813 O 0.10263 0.45025 0.46695 0.0
O814 O 0.1443 0.49003 0.51305 0.0
O815 O 0.1068 0.53512 0.43795 0.0
O816 O 0.07612 0.56058 0.466 0.0
O817 O 1.00656 0.49171 0.46891 0.0
O818 O 0.93462 0.57374 0.40777 0.0
O819 O 0.97431 0.61425 0.45246 0.0
O820 O 0.95961 0.51492 0.44183 0.0
O821 O 1.01327 0.48391 0.56418 0.0
O822 O 0.95196 0.47562 0.54057 0.0
O823 O 0.93062 0.54462 0.49289 0.0
O824 O 0.95767 0.5518 0.56409 0.0
C825 C 0.142 0.44034 0.59798 0.0
C826 C 0.11906 0.55904 0.56836 0.0
C827 C 0.09819 0.56272 0.43876 0.0
C828 C 0.13625 0.46285 0.49079 0.0
C829 C 0.94519 0.60614 0.42003 0.0
C830 C 0.97389 0.48982 0.44623 0.0
C831 C 0.97707 0.46361 0.56467 0.0
C832 C 0.93171 0.55495 0.53025 0.0
O833 O 0.1609 0.47551 0.60305 0.0
O834 O 0.10783 0.43197 0.57386 0.0
O835 O 0.08243 0.55099 0.55914 0.0
O836 O 0.13561 0.53732 0.56464 0.0
Co837 Co 0.61749 0.984 0.54927 0.0
Co838 Co 0.60809 1.00861 0.47269 0.0
Co839 Co 0.54139 0.02378 0.49863 0.0
O840 O 0.56945 0.9869 0.50758 0.0
H841 H 0.55199 0.9626 0.50024 0.0
O842 O 0.51463 0.06147 0.49024 0.0
Co843 Co 0.46322 0.05931 0.45636 0.0
Co844 Co 0.49157 0.0547 0.53944 0.0
H845 H 0.53318 0.08709 0.48562 0.0
O846 O 0.60344 0.98104 0.43319 0.0
O847 O 0.64526 0.98991 0.49765 0.0
O848 O 0.62808 0.0615 0.45507 0.0
O849 O 0.56929 0.06242 0.44667 0.0
O850 O 0.49898 0.99428 0.45529 0.0
O851 O 0.41768 0.06056 0.42497 0.0
O852 O 0.4696 0.11139 0.43957 0.0
O853 O 0.44804 1.00496 0.46562 0.0
O854 O 0.51261 0.98481 0.54905 0.0
O855 O 0.48454 1.00919 0.58234 0.0
O856 O 0.44477 0.05829 0.51248 0.0
O857 O 0.49283 0.09615 0.55639 0.0
C858 C 0.64333 0.94291 0.58334 0.0
C859 C 0.61893 0.0605 0.5528 0.0
C860 C 0.60489 0.07824 0.43977 0.0
C861 C 0.632 0.97499 0.46092 0.0
C862 C 0.4333 0.09711 0.42158 0.0
C863 C 0.46231 0.98537 0.45248 0.0
C864 C 0.49322 0.98212 0.57936 0.0
C865 C 0.45815 0.0867 0.53434 0.0
O866 O 0.65898 0.9784 0.58683 0.0
O867 O 0.60904 0.93152 0.55924 0.0
O868 O 0.58253 0.05318 0.5423 0.0
O869 O 0.63499 0.03851 0.5488 0.0
H870 H 0.22841 0.19157 0.37201 0.0
H871 H 0.15018 0.21001 0.25448 0.0
H872 H 0.0949 0.16654 0.29291 0.0
H873 H 0.06904 0.12397 0.3613 0.0
H874 H 0.14923 0.10388 0.47605 0.0
H875 H 0.20354 0.14761 0.43746 0.0
C876 C 0.19932 0.18625 0.35471 0.0
C877 C 0.19341 0.20439 0.31069 0.0
C878 C 0.16801 0.16099 0.37667 0.0
C879 C 0.15548 0.19648 0.2885 0.0
C880 C 0.12389 0.17172 0.3105 0.0
C881 C 0.09845 0.12933 0.37767 0.0
C882 C 0.10517 0.11088 0.42146 0.0
C883 C 0.12981 0.154 0.3548 0.0
C884 C 0.14335 0.11761 0.44226 0.0
C885 C 0.17443 0.14265 0.42029 0.0
H886 H 0.79885 0.07127 0.48076 0.0
H887 H 0.86383 0.18935 0.48355 0.0
H888 H 0.92251 0.17658 0.51542 0.0
H889 H 0.95731 0.13516 0.51715 0.0
H890 H 0.8917 1.01859 0.50499 0.0
H891 H 0.83164 0.02689 0.50306 0.0
C892 C 0.82538 0.09384 0.49079 0.0
C893 C 0.8276 0.13121 0.47854 0.0
C894 C 0.85938 0.08658 0.50582 0.0
C895 C 0.86186 0.16033 0.49209 0.0
C896 C 0.89556 0.1531 0.50953 0.0
C897 C 0.9299 0.11145 0.51568 0.0
C898 C 0.92845 0.07678 0.50953 0.0
C899 C 0.89522 0.11688 0.51252 0.0
C900 C 0.89307 0.04589 0.50828 0.0
C901 C 0.85876 0.05057 0.50729 0.0
H902 H 0.85514 0.87353 0.34797 0.0
H903 H 0.92894 0.8654 0.26802 0.0
H904 H 0.9859 0.90245 0.31297 0.0
H905 H 1.01477 0.93248 0.37863 0.0
H906 H 0.94213 0.94131 0.45982 0.0
H907 H 0.8844 0.90804 0.41123 0.0
C908 C 0.88374 0.88056 0.33999 0.0
C909 C 0.88788 0.86741 0.30409 0.0
C910 C 0.91642 0.90116 0.36684 0.0
C911 C 0.92492 0.87636 0.29419 0.0
C912 C 0.95757 0.89693 0.32055 0.0
C913 C 0.98629 0.927 0.38582 0.0
C914 C 0.98251 0.93857 0.42311 0.0
C915 C 0.95362 0.90867 0.3575 0.0
C916 C 0.94557 0.93226 0.43143 0.0
C917 C 0.91269 0.91338 0.40367 0.0
H918 H 0.20384 0.98154 0.25851 0.0
H919 H 0.26449 0.92525 0.36532 0.0
H920 H 0.24361 0.94556 0.42006 0.0
H921 H 0.20138 0.97244 0.43708 0.0
H922 H 0.13729 0.02442 0.33026 0.0
H923 H 0.16756 1.01427 0.27576 0.0
C924 C 0.21328 0.97443 0.29371 0.0
C925 C 0.23538 0.95157 0.30777 0.0
C926 C 0.20077 0.98579 0.32492 0.0
C927 C 0.24688 0.94222 0.35362 0.0
C928 C 0.23515 0.95403 0.38491 0.0
C929 C 0.19525 0.9828 0.40211 0.0
C930 C 0.16769 0.99968 0.38771 0.0
C931 C 0.21123 0.97497 0.37097 0.0
C932 C 0.15901 1.01198 0.34203 0.0
C933 C 0.1759 1.00569 0.31089 0.0
H934 H 0.31427 0.98034 0.56123 0.0
H935 H 0.27659 0.86181 0.55872 0.0
H936 H 0.2127 0.86038 0.52185 0.0
H937 H 0.16371 0.8885 0.51323 0.0
H938 H 0.20131 1.00439 0.52876 0.0
H939 H 0.26868 1.01169 0.53698 0.0
C940 C 0.29271 0.95471 0.5504 0.0
C941 C 0.29942 0.92104 0.56373 0.0
C942 C 0.25537 0.9535 0.53289 0.0
C943 C 0.27157 0.88797 0.54927 0.0
C944 C 0.23485 0.88702 0.52897 0.0
C945 C 0.18685 0.91552 0.51689 0.0
C946 C 0.17812 0.94584 0.52061 0.0
C947 C 0.2256 0.91884 0.52426 0.0
C948 C 0.20784 0.98078 0.52589 0.0
C949 C 0.24628 0.98493 0.53066 0.0
H950 H 0.23294 0.1492 0.70929 0.0
H951 H 0.23313 0.24848 0.61315 0.0
H952 H 0.18316 0.20955 0.56304 0.0
H953 H 0.13526 0.14759 0.54913 0.0
H954 H 0.13578 0.04782 0.64363 0.0
H955 H 0.18929 0.08649 0.69189 0.0
C956 C 0.22219 0.1622 0.6772 0.0
C957 C 0.23638 0.20168 0.66523 0.0
C958 C 0.19327 0.13956 0.64845 0.0
C959 C 0.22275 0.2182 0.62327 0.0
C960 C 0.19393 0.19594 0.59462 0.0
C961 C 0.14741 0.13439 0.58011 0.0
C962 C 0.13152 0.09513 0.59316 0.0
C963 C 0.17837 0.15669 0.6073 0.0
C964 C 0.14771 0.0781 0.63297 0.0
C965 C 0.17816 0.10017 0.66061 0.0
H966 H 0.94646 0.09302 0.7727 0.0
H967 H 0.84382 0.08913 0.67962 0.0
H968 H 0.86675 0.06918 0.62619 0.0
H969 H 0.9182 0.05631 0.60463 0.0
H970 H 1.0229 0.0662 0.69608 0.0
H971 H 0.99659 0.07911 0.75211 0.0
C972 C 0.92883 0.0872 0.74101 0.0
C973 C 0.89348 0.09237 0.73016 0.0
C974 C 0.94253 0.07655 0.71034 0.0
C975 C 0.87126 0.08551 0.68858 0.0
C976 C 0.88428 0.07398 0.65815 0.0
C977 C 0.93481 0.0607 0.63709 0.0
C978 C 0.97222 0.06008 0.64657 0.0
C979 C 0.92013 0.06983 0.66846 0.0
C980 C 0.99393 0.06641 0.68837 0.0
C981 C 0.979 0.07396 0.72027 0.0
H982 H 0.88894 0.79889 0.66535 0.0
H983 H 0.89393 0.89099 0.72108 0.0
H984 H 0.94774 0.93422 0.68059 0.0
H985 H 0.99186 0.94599 0.62728 0.0
H986 H 0.98753 0.85299 0.57332 0.0
H987 H 0.93491 0.80995 0.61518 0.0
C988 C 0.90193 0.82843 0.66872 0.0
C989 C 0.88764 0.84179 0.69624 0.0
C990 C 0.93285 0.85293 0.64553 0.0
C991 C 0.90486 0.87997 0.70069 0.0
C992 C 0.9354 0.90472 0.67723 0.0
C993 C 0.97949 0.91628 0.62474 0.0
C994 C 0.99358 0.9028 0.59699 0.0
C995 C 0.94944 0.89154 0.64929 0.0
C996 C 0.97738 0.86415 0.59446 0.0
C997 C 0.9472 0.8395 0.6183 0.0
H998 H 0.30703 0.12881 0.04429 0.0
H999 H 0.39725 0.23046 0.08268 0.0
H1000 H 0.44613 0.20948 0.07214 0.0
H1001 H 0.4636 0.16213 0.0532 0.0
H1002 H 0.37395 0.06041 0.01431 0.0
H1003 H 0.32466 0.08175 0.02347 0.0
C1004 C 0.33737 0.14653 0.05 0.0
C1005 C 0.34833 0.18107 0.06472 0.0
C1006 C 0.36551 0.13424 0.04391 0.0
C1007 C 0.38788 0.20347 0.07218 0.0
C1008 C 0.41592 0.19158 0.06593 0.0
C1009 C 0.4333 0.14447 0.04685 0.0
C1010 C 0.42263 0.10948 0.03348 0.0
C1011 C 0.40511 0.1569 0.05219 0.0
C1012 C 0.38312 0.08728 0.02502 0.0
C1013 C 0.35486 0.09953 0.03016 0.0
H1014 H 0.84061 0.34396 0.10773 0.0
H1015 H 0.89048 0.3455 0.24525 0.0
H1016 H 0.9528 0.38954 0.22318 0.0
H1017 H 0.99373 0.42899 0.16413 0.0
H1018 H 0.94072 0.43554 0.02704 0.0
H1019 H 0.8795 0.38826 0.04926 0.0
C1020 C 0.86529 0.35355 0.13283 0.0
C1021 C 0.86128 0.33923 0.17824 0.0
C1022 C 0.90063 0.38112 0.11978 0.0
C1023 C 0.89312 0.3538 0.21018 0.0
C1024 C 0.92876 0.37971 0.19749 0.0
C1025 C 0.96867 0.42033 0.13918 0.0
C1026 C 0.97204 0.43607 0.09389 0.0
C1027 C 0.93297 0.39364 0.15233 0.0
C1028 C 0.93905 0.42446 0.06213 0.0
C1029 C 0.90401 0.39702 0.07479 0.0
H1030 H 0.67782 0.79525 0.17102 0.0
H1031 H 0.78798 0.88117 0.20547 0.0
H1032 H 0.76145 0.93018 0.16914 0.0
H1033 H 0.70465 0.94865 0.13205 0.0
H1034 H 0.59655 0.86198 0.09236 0.0
H1035 H 0.62433 0.81391 0.12555 0.0
C1036 C 0.69634 0.82476 0.16993 0.0
C1037 C 0.73519 0.83415 0.19107 0.0
C1038 C 0.6809 0.85292 0.14819 0.0
C1039 C 0.75835 0.87274 0.18926 0.0
C1040 C 0.74293 0.90087 0.16864 0.0
C1041 C 0.6872 0.91928 0.13022 0.0
C1042 C 0.64794 0.90934 0.10982 0.0
C1043 C 0.70392 0.89137 0.14869 0.0
C1044 C 0.62648 0.87093 0.10756 0.0
C1045 C 0.64245 0.84322 0.12684 0.0
H1046 H 0.18151 0.7274 0.14223 0.0
H1047 H 0.25767 0.66661 0.17202 0.0
H1048 H 0.21194 0.61993 0.12798 0.0
H1049 H 0.14902 0.59555 0.08034 0.0
H1050 H 0.07916 0.66355 0.04016 0.0
H1051 H 0.12354 0.70819 0.08742 0.0
C1052 C 0.18876 0.70467 0.13842 0.0
C1053 C 0.22297 0.70042 0.16203 0.0
C1054 C 0.16292 0.67871 0.11089 0.0
C1055 C 0.23102 0.66998 0.15648 0.0
C1056 C 0.20492 0.64333 0.13053 0.0
C1057 C 0.1435 0.62006 0.08209 0.0
C1058 C 0.10992 0.62526 0.05761 0.0
C1059 C 0.17042 0.64708 0.1079 0.0
C1060 C 0.10398 0.65793 0.05935 0.0
C1061 C 0.12962 0.68385 0.08628 0.0
H1062 H 0.36457 0.86861 0.84281 0.0
H1063 H 0.41638 0.78473 0.88146 0.0
H1064 H 0.46596 0.82228 0.93312 0.0
H1065 H 0.49751 0.88064 0.96399 0.0
H1066 H 0.44774 0.96608 0.92451 0.0
H1067 H 0.39477 0.92631 0.87714 0.0
C1068 C 0.38641 0.85839 0.86301 0.0
C1069 C 0.38677 0.82396 0.85798 0.0
C1070 C 0.41557 0.88057 0.89241 0.0
C1071 C 0.4155 0.81125 0.88424 0.0
C1072 C 0.44398 0.83272 0.91391 0.0
C1073 C 0.47495 0.89053 0.94539 0.0
C1074 C 0.47699 0.92653 0.94774 0.0
C1075 C 0.44476 0.86773 0.91771 0.0
C1076 C 0.44725 0.93864 0.92326 0.0
C1077 C 0.41684 0.91588 0.89606 0.0
H1078 H 0.22158 0.41107 0.86655 0.0
H1079 H 0.15909 0.29654 0.92501 0.0
H1080 H 0.1328 0.31915 0.97207 0.0
H1081 H 0.11972 0.37108 0.98752 0.0
H1082 H 0.18306 0.48581 0.93041 0.0
H1083 H 0.21739 0.46376 0.89235 0.0
C1084 C 0.20322 0.39121 0.89071 0.0
C1085 C 0.19207 0.3522 0.89221 0.0
C1086 C 0.18792 0.40447 0.91731 0.0
C1087 C 0.16829 0.32666 0.92354 0.0
C1088 C 0.15289 0.33959 0.95005 0.0
C1089 C 0.14158 0.39124 0.96736 0.0
C1090 C 0.14843 0.42992 0.96098 0.0
C1091 C 0.16125 0.37833 0.94583 0.0
C1092 C 0.17726 0.4559 0.93558 0.0
C1093 C 0.19671 0.44326 0.91367 0.0
H1094 H 0.67227 0.17062 0.77355 0.0
H1095 H 0.75678 0.21303 0.88342 0.0
H1096 H 0.71235 0.1687 0.93616 0.0
H1097 H 0.64596 0.12155 0.94998 0.0
H1098 H 0.56213 0.08334 0.83715 0.0
H1099 H 0.60958 0.12169 0.78699 0.0
C1100 C 0.68127 0.16962 0.80915 0.0
C1101 C 0.71804 0.19446 0.82458 0.0
C1102 C 0.65534 0.14483 0.83883 0.0
C1103 C 0.72902 0.19352 0.87074 0.0
C1104 C 0.70339 0.16839 0.90081 0.0
C1105 C 0.63845 0.12115 0.91452 0.0
C1106 C 0.60028 0.09955 0.89741 0.0
C1107 C 0.66601 0.14433 0.88521 0.0
C1108 C 0.59101 0.09977 0.85126 0.0
C1109 C 0.61817 0.12178 0.82244 0.0
H1110 H 0.9133 0.75236 0.81877 0.0
H1111 H 0.80081 0.66348 0.8098 0.0
H1112 H 0.82916 0.61696 0.84987 0.0
H1113 H 0.88693 0.60038 0.88295 0.0
H1114 H 0.99879 0.68957 0.8982 0.0
H1115 H 0.96999 0.73654 0.86149 0.0
C1116 C 0.89485 0.72293 0.8266 0.0
C1117 C 0.85458 0.71181 0.81174 0.0
C1118 C 0.91148 0.69607 0.85066 0.0
C1119 C 0.83154 0.67323 0.82147 0.0
C1120 C 0.84791 0.64645 0.84421 0.0
C1121 C 0.90504 0.63012 0.87869 0.0
C1122 C 0.94539 0.64102 0.8931 0.0
C1123 C 0.88798 0.65733 0.85829 0.0
C1124 C 0.96789 0.67996 0.88763 0.0
C1125 C 0.95135 0.70698 0.86631 0.0
H1126 H 0.18866 0.3059 0.19251 0.0
H1127 H 0.29627 0.40186 0.18654 0.0
H1128 H 0.26234 0.44198 0.14245 0.0
H1129 H 0.20179 0.45259 0.11073 0.0
H1130 H 0.0936 0.35779 0.1091 0.0
H1131 H 0.12744 0.31535 0.14941 0.0
C1132 C 0.20485 0.33526 0.18037 0.0
C1133 C 0.24575 0.35027 0.19298 0.0
C1134 C 0.18473 0.35901 0.15382 0.0
C1135 C 0.26529 0.38894 0.17741 0.0
C1136 C 0.24572 0.41226 0.1522 0.0
C1137 C 0.18547 0.42255 0.11855 0.0
C1138 C 0.14475 0.40893 0.10677 0.0
C1139 C 0.20538 0.39803 0.14104 0.0
C1140 C 0.12474 0.36958 0.11727 0.0
C1141 C 0.14426 0.34515 0.14077 0.0
H1142 H 0.18713 0.67103 0.76488 0.0
H1143 H 0.26525 0.71707 0.87681 0.0
H1144 H 0.21566 0.67945 0.92576 0.0
H1145 H 0.14967 0.63118 0.93728 0.0
H1146 H 0.07195 0.58681 0.82383 0.0
H1147 H 0.1214 0.62508 0.77556 0.0
C1148 C 0.19292 0.67345 0.79983 0.0
C1149 C 0.2294 0.698 0.81674 0.0
C1150 C 0.1644 0.65112 0.82789 0.0
C1151 C 0.23692 0.69973 0.86247 0.0
C1152 C 0.20867 0.67768 0.89064 0.0
C1153 C 0.14386 0.62952 0.90213 0.0
C1154 C 0.1072 0.60538 0.88446 0.0
C1155 C 0.17235 0.65277 0.87392 0.0
C1156 C 0.09993 0.60457 0.8385 0.0
C1157 C 0.12817 0.62673 0.81073 0.0
H1158 H 0.4121 0.25058 0.85517 0.0
H1159 H 0.31334 0.17287 0.78577 0.0
H1160 H 0.33662 0.12159 0.82116 0.0
H1161 H 0.38819 0.09956 0.86789 0.0
H1162 H 0.48596 0.17775 0.9385 0.0
H1163 H 0.46004 0.22735 0.90717 0.0
C1164 C 0.39516 0.22223 0.84847 0.0
C1165 C 0.3604 0.21579 0.8182 0.0
C1166 C 0.40903 0.19278 0.8689 0.0
C1167 C 0.33954 0.17882 0.80948 0.0
C1168 C 0.3532 0.14946 0.82949 0.0
C1169 C 0.40382 0.12736 0.87675 0.0
C1170 C 0.43969 0.13455 0.90543 0.0
C1171 C 0.38837 0.15615 0.85866 0.0
C1172 C 0.45875 0.17095 0.91652 0.0
C1173 C 0.44384 0.19956 0.89845 0.0
H1174 H 0.87291 0.374 0.81854 0.0
H1175 H 0.86838 0.27461 0.91636 0.0
H1176 H 0.91963 0.31339 0.96611 0.0
H1177 H 0.96839 0.37577 0.9806 0.0
H1178 H 0.96986 0.47509 0.88371 0.0
H1179 H 0.9173 0.43625 0.83539 0.0
C1180 C 0.88294 0.36065 0.85067 0.0
C1181 C 0.86765 0.32101 0.86258 0.0
C1182 C 0.91215 0.38329 0.87955 0.0
C1183 C 0.88052 0.30477 0.90526 0.0
C1184 C 0.90975 0.32704 0.93401 0.0
C1185 C 0.95715 0.38893 0.94897 0.0
C1186 C 0.9736 0.42843 0.93582 0.0
C1187 C 0.92638 0.36634 0.9212 0.0
C1188 C 0.95807 0.44487 0.8949 0.0
C1189 C 0.92793 0.42263 0.86706 0.0
H1190 H 0.77795 0.92019 0.97837 0.0
H1191 H 0.71167 0.89267 0.85165 0.0
H1192 H 0.66285 0.91203 0.86458 0.0
H1193 H 0.63724 0.93457 0.91305 0.0
H1194 H 0.70686 0.96936 0.03502 0.0
H1195 H 0.75681 0.95083 0.02183 0.0
C1196 C 0.75344 0.91903 0.95296 0.0
C1197 C 0.74853 0.90357 0.91473 0.0
C1198 C 0.72598 0.9318 0.95963 0.0
C1199 C 0.71595 0.90254 0.88252 0.0
C1200 C 0.688 0.91417 0.88952 0.0
C1201 C 0.66356 0.93834 0.93648 0.0
C1202 C 0.66839 0.95298 0.97507 0.0
C1203 C 0.6924 0.92824 0.92827 0.0
C1204 C 0.70269 0.95825 1.00498 0.0
C1205 C 0.73111 0.94742 0.99756 0.0
H1206 H 0.91921 0.70803 0.10616 0.0
H1207 H 0.81939 0.67211 0.00807 0.0
H1208 H 0.84421 0.62986 0.98907 0.0
H1209 H 0.89823 0.60821 0.99531 0.0
H1210 H 0.99846 0.64664 0.09271 0.0
H1211 H 0.9696 0.68219 0.1173 0.0
C1212 C 0.90263 0.69046 0.08116 0.0
C1213 C 0.86787 0.69352 0.05803 0.0
C1214 C 0.91738 0.66677 0.07006 0.0
C1215 C 0.84662 0.67063 0.02571 0.0
C1216 C 0.86076 0.64642 0.01496 0.0
C1217 C 0.9132 0.62365 0.02259 0.0
C1218 C 0.95046 0.62481 0.04212 0.0
C1219 C 0.8967 0.64499 0.03607 0.0
C1220 C 0.96982 0.64544 0.07699 0.0
C1221 C 0.9534 0.6659 0.09106 0.0
H1222 H 0.4011 0.84449 0.23223 0.0
H1223 H 0.3311 0.80634 0.11221 0.0
H1224 H 0.37833 0.85697 0.06733 0.0
H1225 H 0.44141 0.91128 0.06255 0.0
H1226 H 0.51221 0.94666 0.1837 0.0
H1227 H 0.46276 0.8991 0.2275 0.0
C1228 C 0.39601 0.84766 0.19619 0.0
C1229 C 0.36206 0.82249 0.17542 0.0
C1230 C 0.42353 0.87664 0.17073 0.0
C1231 C 0.3566 0.8259 0.12885 0.0
C1232 C 0.38364 0.85487 0.10321 0.0
C1233 C 0.44548 0.9091 0.09843 0.0
C1234 C 0.48023 0.93307 0.11976 0.0
C1235 C 0.41731 0.88052 0.12374 0.0
C1236 C 0.48558 0.92901 0.16644 0.0
C1237 C 0.45745 0.90153 0.19156 0.0
H1238 H 0.70528 0.23561 0.11918 0.0
H1239 H 0.72125 0.14979 0.22797 0.0
H1240 H 0.67211 0.10071 0.18803 0.0
H1241 H 0.62132 0.08246 0.12377 0.0
H1242 H 0.60444 0.16976 0.01715 0.0
H1243 H 0.65657 0.21781 0.05489 0.0
C1244 C 0.69768 0.20624 0.13443 0.0
C1245 C 0.71639 0.19651 0.17683 0.0
C1246 C 0.66903 0.17832 0.11163 0.0
C1247 C 0.70729 0.15812 0.19532 0.0
C1248 C 0.67902 0.13003 0.17258 0.0
C1249 C 0.62936 0.11195 0.10861 0.0
C1250 C 0.60869 0.12237 0.06775 0.0
C1251 C 0.65926 0.1398 0.1309 0.0
C1252 C 0.61949 0.16082 0.04871 0.0
C1253 C 0.64939 0.18843 0.07024 0.0
H1254 H 0.68919 0.7288 0.84005 0.0
H1255 H 0.70692 0.63496 0.81323 0.0
H1256 H 0.65868 0.59113 0.86141 0.0
H1257 H 0.61368 0.58015 0.91447 0.0
H1258 H 0.5997 0.67603 0.94184 0.0
H1259 H 0.64458 0.71825 0.89047 0.0
C1260 C 0.68258 0.69875 0.84448 0.0
C1261 C 0.70173 0.68528 0.82289 0.0
C1262 C 0.6556 0.67402 0.87273 0.0
C1263 C 0.69238 0.64616 0.82897 0.0
C1264 C 0.66498 0.62111 0.85682 0.0
C1265 C 0.62026 0.61025 0.90892 0.0
C1266 C 0.60322 0.62476 0.93225 0.0
C1267 C 0.64668 0.63478 0.87934 0.0
C1268 C 0.61236 0.66392 0.92473 0.0
C1269 C 0.63804 0.6882 0.89522 0.0
H1270 H 0.36964 0.68166 0.02077 0.0
H1271 H 0.29362 0.56616 0.01438 0.0
H1272 H 0.34604 0.54514 0.04855 0.0
H1273 H 0.41424 0.56312 0.04538 0.0
H1274 H 0.49364 0.6771 0.0526 0.0
H1275 H 0.43909 0.69611 0.04876 0.0
C1276 C 0.36425 0.65173 0.02885 0.0
C1277 C 0.32894 0.62591 0.01105 0.0
C1278 C 0.39552 0.64004 0.04541 0.0
C1279 C 0.32113 0.58711 0.02508 0.0
C1280 C 0.35144 0.57496 0.04389 0.0
C1281 C 0.42018 0.59142 0.04996 0.0
C1282 C 0.45776 0.61858 0.04993 0.0
C1283 C 0.38916 0.60163 0.04891 0.0
C1284 C 0.46472 0.6558 0.05285 0.0
C1285 C 0.43359 0.66656 0.0507 0.0
H1286 H 0.36638 0.39303 0.81685 0.0
H1287 H 0.38645 0.29142 0.88109 0.0
H1288 H 0.43321 0.32411 0.93884 0.0
H1289 H 0.47066 0.3821 0.96916 0.0
H1290 H 0.45091 0.48434 0.90688 0.0
H1291 H 0.40134 0.45095 0.85093 0.0
C1292 C 0.3809 0.37822 0.84378 0.0
C1293 C 0.37274 0.33983 0.84531 0.0
C1294 C 0.40766 0.39726 0.87725 0.0
C1295 C 0.39166 0.32073 0.88002 0.0
C1296 C 0.41859 0.33948 0.91285 0.0
C1297 C 0.4552 0.39702 0.94366 0.0
C1298 C 0.46463 0.43567 0.94207 0.0
C1299 C 0.42698 0.37775 0.91166 0.0
C1300 C 0.44409 0.45451 0.90902 0.0
C1301 C 0.41596 0.43551 0.87677 0.0
H1302 H 0.71858 0.46241 0.80614 0.0
H1303 H 0.6423 0.34541 0.8175 0.0
H1304 H 0.60412 0.35624 0.86238 0.0
H1305 H 0.59148 0.39928 0.89699 0.0
H1306 H 0.66892 0.51589 0.88756 0.0
H1307 H 0.70732 0.50498 0.84308 0.0
C1308 C 0.69353 0.43931 0.81835 0.0
C1309 C 0.6832 0.40317 0.80823 0.0
C1310 C 0.67175 0.44574 0.84424 0.0
C1311 C 0.65106 0.3734 0.82502 0.0
C1312 C 0.62906 0.37965 0.85045 0.0
C1313 C 0.61659 0.4224 0.88491 0.0
C1314 C 0.62693 0.45852 0.89503 0.0
C1315 C 0.63893 0.41576 0.85996 0.0
C1316 C 0.66009 0.48791 0.87996 0.0
C1317 C 0.68212 0.48167 0.85458 0.0
H1318 H 0.75229 0.38404 0.04216 0.0
H1319 H 0.82601 0.5006 0.04376 0.0
H1320 H 0.77224 0.51989 0.00795 0.0
H1321 H 0.70286 0.50151 0.0076 0.0
H1322 H 0.62784 0.38434 0.0189 0.0
H1323 H 0.68251 0.36697 0.01875 0.0
C1324 C 0.75682 0.41376 0.0324 0.0
C1325 C 0.79204 0.44071 0.04824 0.0
C1326 C 0.72477 0.4242 0.01651 0.0
C1327 C 0.79866 0.47917 0.03353 0.0
C1328 C 0.7676 0.49019 0.01391 0.0
C1329 C 0.69844 0.47233 0.00849 0.0
C1330 C 0.6623 0.44392 0.01539 0.0
C1331 C 0.73011 0.46268 0.01032 0.0
C1332 C 0.65594 0.40639 0.0148 0.0
C1333 C 0.68718 0.39655 0.01479 0.0
H1334 H 0.73798 0.69838 0.14924 0.0
H1335 H 0.69584 0.65201 0.27632 0.0
H1336 H 0.64531 0.59871 0.24494 0.0
H1337 H 0.60928 0.56945 0.17894 0.0
H1338 H 0.65456 0.61423 0.05367 0.0
H1339 H 0.70921 0.66364 0.08757 0.0
C1340 C 0.71827 0.6766 0.17054 0.0
C1341 C 0.71982 0.6802 0.21475 0.0
C1342 C 0.6902 0.6456 0.15264 0.0
C1343 C 0.69439 0.65084 0.24177 0.0
C1344 C 0.6657 0.62014 0.22393 0.0
C1345 C 0.63167 0.58957 0.15943 0.0
C1346 C 0.62791 0.5887 0.11388 0.0
C1347 C 0.66271 0.61789 0.17904 0.0
C1348 C 0.65708 0.61441 0.08884 0.0
C1349 C 0.68801 0.64284 0.10808 0.0
H1350 H 0.36274 0.57367 0.23783 0.0
H1351 H 0.46124 0.6786 0.24069 0.0
H1352 H 0.49115 0.65984 0.19395 0.0
H1353 H 0.49218 0.61214 0.15768 0.0
H1354 H 0.39425 0.5076 0.15102 0.0
H1355 H 0.36107 0.52758 0.19384 0.0
C1356 C 0.39066 0.59247 0.22797 0.0
C1357 C 0.40988 0.62747 0.24321 0.0
C1358 C 0.40788 0.5814 0.20088 0.0
C1359 C 0.44568 0.65174 0.2294 0.0
C1360 C 0.46297 0.64089 0.20291 0.0
C1361 C 0.4635 0.59363 0.1656 0.0
C1362 C 0.44601 0.55804 0.15227 0.0
C1363 C 0.44477 0.60554 0.18939 0.0
C1364 C 0.40842 0.53492 0.1614 0.0
C1365 C 0.3896 0.54638 0.18591 0.0
H1366 H 0.42764 0.33487 0.23753 0.0
H1367 H 0.3492 0.3869 0.15848 0.0
H1368 H 0.40009 0.43181 0.11506 0.0
H1369 H 0.46469 0.45296 0.09579 0.0
H1370 H 0.54277 0.39839 0.16965 0.0
H1371 H 0.49431 0.35772 0.2188 0.0
C1372 C 0.42209 0.35644 0.21114 0.0
C1373 C 0.38494 0.35779 0.20101 0.0
C1374 C 0.4512 0.3813 0.1851 0.0
C1375 C 0.37764 0.38539 0.16654 0.0
C1376 C 0.40666 0.41097 0.14172 0.0
C1377 C 0.47145 0.43242 0.12282 0.0
C1378 C 0.50741 0.42873 0.12884 0.0
C1379 C 0.44324 0.40866 0.15007 0.0
C1380 C 0.51531 0.40176 0.16405 0.0
C1381 C 0.48759 0.37851 0.19219 0.0
H1382 H 0.80043 0.61566 0.52563 0.0
H1383 H 0.84418 0.60908 0.66577 0.0
H1384 H 0.89141 0.58625 0.65513 0.0
H1385 H 0.9207 0.56839 0.60657 0.0
H1386 H 0.87515 0.57093 0.46711 0.0
H1387 H 0.82813 0.59499 0.47696 0.0
C1388 C 0.81996 0.60895 0.55391 0.0
C1389 C 0.81876 0.61481 0.5963 0.0
C1390 C 0.84689 0.59517 0.54767 0.0
C1391 C 0.84476 0.60596 0.63249 0.0
C1392 C 0.87171 0.59255 0.62653 0.0
C1393 C 0.90054 0.57414 0.57816 0.0
C1394 C 0.90199 0.56832 0.5359 0.0
C1395 C 0.87317 0.58724 0.58428 0.0
C1396 C 0.87517 0.5756 0.49982 0.0
C1397 C 0.84812 0.58921 0.50553 0.0
H1398 H 0.40744 0.85492 0.72873 0.0
H1399 H 0.36214 0.79271 0.62005 0.0
H1400 H 0.40782 0.84348 0.57402 0.0
H1401 H 0.45368 0.91014 0.56074 0.0
H1402 H 0.49635 0.97307 0.66887 0.0
H1403 H 0.46014 0.91766 0.71898 0.0
C1404 C 0.40871 0.85176 0.69566 0.0
C1405 C 0.38176 0.81951 0.67826 0.0
C1406 C 0.43451 0.88174 0.66884 0.0
C1407 C 0.38304 0.81672 0.63467 0.0
C1408 C 0.40891 0.84606 0.60808 0.0
C1409 C 0.4559 0.91135 0.59558 0.0
C1410 C 0.47782 0.94591 0.61092 0.0
C1411 C 0.43379 0.87943 0.62414 0.0
C1412 C 0.47982 0.94697 0.6561 0.0
C1413 C 0.45894 0.91522 0.68483 0.0
H1414 H 0.18886 0.29526 0.65972 0.0
H1415 H 0.29077 0.37274 0.72524 0.0
H1416 H 0.26609 0.42379 0.69437 0.0
H1417 H 0.21342 0.44616 0.65043 0.0
H1418 H 0.11122 0.36647 0.58733 0.0
H1419 H 0.13781 0.31733 0.61541 0.0
C1420 C 0.20599 0.32346 0.66688 0.0
C1421 C 0.24216 0.32996 0.69434 0.0
C1422 C 0.19113 0.35253 0.64965 0.0
C1423 C 0.26338 0.36674 0.70363 0.0
C1424 C 0.24895 0.39596 0.68619 0.0
C1425 C 0.19684 0.41804 0.64285 0.0
C1426 C 0.15971 0.41049 0.61678 0.0
C1427 C 0.21255 0.38921 0.65945 0.0
C1428 C 0.13937 0.37362 0.6074 0.0
C1429 C 0.15473 0.34526 0.62343 0.0
H1430 H 0.68778 0.20295 0.65029 0.0
H1431 H 0.78915 0.17525 0.67483 0.0
H1432 H 0.75602 0.12542 0.62986 0.0
H1433 H 0.69623 0.08593 0.58828 0.0
H1434 H 0.59471 0.11397 0.56388 0.0
H1435 H 0.6298 0.16717 0.60296 0.0
C1436 C 0.70297 0.18684 0.64468 0.0
C1437 C 0.74103 0.1931 0.66588 0.0
C1438 C 0.68341 0.15764 0.61905 0.0
C1439 C 0.7598 0.17098 0.65916 0.0
C1440 C 0.74081 0.14235 0.63341 0.0
C1441 C 0.68182 0.10383 0.59107 0.0
C1442 C 0.6425 0.09517 0.57337 0.0
C1443 C 0.70224 0.13472 0.61401 0.0
C1444 C 0.62472 0.11923 0.57737 0.0
C1445 C 0.64482 0.14993 0.59982 0.0
H1446 H 0.90542 0.34916 0.34799 0.0
H1447 H 0.80062 0.36803 0.34126 0.0
H1448 H 0.83599 0.42029 0.3814 0.0
H1449 H 0.89695 0.46237 0.41642 0.0
H1450 H 1.00174 0.44293 0.42529 0.0
H1451 H 0.96601 0.38907 0.38686 0.0
C1452 C 0.89011 0.36402 0.35613 0.0
C1453 C 0.85024 0.35407 0.34184 0.0
C1454 C 0.91071 0.39437 0.37935 0.0
C1455 C 0.83121 0.37461 0.3519 0.0
C1456 C 0.85146 0.40478 0.3748 0.0
C1457 C 0.912 0.44642 0.40987 0.0
C1458 C 0.95198 0.45693 0.42335 0.0
C1459 C 0.89127 0.41521 0.38822 0.0
C1460 C 0.97093 0.43553 0.41521 0.0
C1461 C 0.95055 0.4047 0.3932 0.0
H1462 H 0.67315 0.86267 0.3847 0.0
H1463 H 0.75996 0.87628 0.49976 0.0
H1464 H 0.73943 0.92134 0.51949 0.0
H1465 H 0.69421 0.95519 0.50497 0.0
H1466 H 0.60819 0.94091 0.3881 0.0
H1467 H 0.63131 0.899 0.36784 0.0
C1468 C 0.68789 0.87597 0.41369 0.0
C1469 C 0.71749 0.86563 0.44137 0.0
C1470 C 0.67594 0.90192 0.42456 0.0
C1471 C 0.73636 0.88308 0.47882 0.0
C1472 C 0.72475 0.90901 0.48987 0.0
C1473 C 0.6806 0.94293 0.47516 0.0
C1474 C 0.64914 0.9512 0.44867 0.0
C1475 C 0.69401 0.91825 0.46337 0.0
C1476 C 0.6323 0.93525 0.40962 0.0
C1477 C 0.64547 0.91105 0.39777 0.0
H1478 H 0.20658 0.72684 0.35632 0.0
H1479 H 0.20718 0.66521 0.26016 0.0
H1480 H 0.16359 0.60695 0.29919 0.0
H1481 H 0.12558 0.57307 0.36125 0.0
H1482 H 0.12018 0.63488 0.45461 0.0
H1483 H 0.16447 0.69337 0.41588 0.0
C1484 C 0.1977 0.70041 0.34455 0.0
C1485 C 0.21243 0.69994 0.30712 0.0
C1486 C 0.17103 0.66714 0.36623 0.0
C1487 C 0.19842 0.66609 0.29035 0.0
C1488 C 0.17291 0.63278 0.31236 0.0
C1489 C 0.13359 0.59941 0.37286 0.0
C1490 C 0.11918 0.59938 0.41085 0.0
C1491 C 0.15908 0.63292 0.35039 0.0
C1492 C 0.13011 0.63395 0.42518 0.0
C1493 C 0.15588 0.66739 0.40329 0.0
H1494 H 0.29767 0.15666 0.32564 0.0
H1495 H 0.39092 0.26474 0.31013 0.0
H1496 H 0.43714 0.23532 0.35209 0.0
H1497 H 0.45174 0.17655 0.3908 0.0
H1498 H 0.35542 0.06957 0.40219 0.0
H1499 H 0.31106 0.10049 0.36504 0.0
C1500 C 0.32809 0.17406 0.33177 0.0
C1501 C 0.3402 0.21327 0.31509 0.0
C1502 C 0.35459 0.15671 0.35524 0.0
C1503 C 0.38011 0.2348 0.32313 0.0
C1504 C 0.40675 0.21771 0.34696 0.0
C1505 C 0.42108 0.15999 0.38534 0.0
C1506 C 0.40778 0.12 0.39951 0.0
C1507 C 0.39454 0.17836 0.36291 0.0
C1508 C 0.36749 0.09985 0.39172 0.0
C1509 C 0.3416 0.11767 0.37031 0.0
H1510 H 0.77959 0.88144 0.66339 0.0
H1511 H 0.68758 0.78058 0.71127 0.0
H1512 H 0.63998 0.80909 0.6721 0.0
H1513 H 0.6245 0.86564 0.62629 0.0
H1514 H 0.71994 0.96672 0.58469 0.0
H1515 H 0.76492 0.9355 0.61815 0.0
C1516 C 0.74903 0.86532 0.66482 0.0
C1517 C 0.73755 0.82817 0.68936 0.0
C1518 C 0.7219 0.88236 0.64302 0.0
C1519 C 0.69765 0.8086 0.69167 0.0
C1520 C 0.6703 0.82521 0.6694 0.0
C1521 C 0.65504 0.88068 0.62406 0.0
C1522 C 0.66819 0.91908 0.60224 0.0
C1523 C 0.68194 0.86244 0.64507 0.0
C1524 C 0.70832 0.93759 0.60089 0.0
C1525 C 0.73445 0.91964 0.62025 0.0
H1526 H 0.69204 0.19983 0.28864 0.0
H1527 H 0.76359 0.24623 0.40399 0.0
H1528 H 0.71605 0.20139 0.45134 0.0
H1529 H 0.65966 0.14269 0.46221 0.0
H1530 H 0.58773 0.09383 0.34895 0.0
H1531 H 0.62884 0.14588 0.29874 0.0
C1532 C 0.69647 0.20087 0.32385 0.0
C1533 C 0.73144 0.22654 0.34272 0.0
C1534 C 0.66889 0.17424 0.35146 0.0
C1535 C 0.73703 0.2269 0.38862 0.0
C1536 C 0.70984 0.20113 0.41583 0.0
C1537 C 0.65204 0.14434 0.42639 0.0
C1538 C 0.62021 0.1148 0.40936 0.0
C1539 C 0.67638 0.17381 0.39798 0.0
C1540 C 0.61141 0.11669 0.36291 0.0
C1541 C 0.63536 0.14623 0.33421 0.0
H1542 H 0.82299 0.67962 0.30714 0.0
H1543 H 0.91412 0.78156 0.34176 0.0
H1544 H 0.95174 0.74525 0.38866 0.0
H1545 H 0.96221 0.68417 0.41541 0.0
H1546 H 0.8725 0.58324 0.3748 0.0
H1547 H 0.83221 0.61867 0.33607 0.0
C1548 C 0.85045 0.69376 0.32617 0.0
C1549 C 0.86467 0.73354 0.32194 0.0
C1550 C 0.87319 0.67258 0.35181 0.0
C1551 C 0.90156 0.75108 0.34524 0.0
C1552 C 0.92349 0.73022 0.37185 0.0
C1553 C 0.93378 0.6698 0.39842 0.0
C1554 C 0.92122 0.63053 0.39837 0.0
C1555 C 0.91021 0.69087 0.37472 0.0
C1556 C 0.88391 0.6132 0.37555 0.0
C1557 C 0.86037 0.63356 0.35321 0.0
H1558 H 0.32684 0.86141 0.35229 0.0
H1559 H 0.42001 0.82789 0.34775 0.0
H1560 H 0.46495 0.87687 0.3907 0.0
H1561 H 0.47847 0.93185 0.42609 0.0
H1562 H 0.384 0.96392 0.43027 0.0
H1563 H 0.33926 0.91307 0.39104 0.0
C1564 C 0.35692 0.86453 0.36085 0.0
C1565 C 0.36991 0.84092 0.34645 0.0
C1566 C 0.38259 0.89282 0.38538 0.0
C1567 C 0.40902 0.84539 0.35846 0.0
C1568 C 0.43483 0.87363 0.38283 0.0
C1569 C 0.44808 0.92763 0.41867 0.0
C1570 C 0.43499 0.95222 0.43109 0.0
C1571 C 0.42208 0.89793 0.39596 0.0
C1572 C 0.39527 0.94582 0.4213 0.0
C1573 C 0.36948 0.91664 0.39869 0.0
H1574 H 0.27686 0.41585 0.49235 0.0
H1575 H 0.18464 0.32858 0.4279 0.0
H1576 H 0.13787 0.35267 0.43692 0.0
H1577 H 0.12313 0.39985 0.45934 0.0
H1578 H 0.21366 0.487 0.52518 0.0
H1579 H 0.26084 0.46096 0.52048 0.0
C1580 C 0.24648 0.40184 0.48073 0.0
C1581 C 0.23457 0.37082 0.45854 0.0
C1582 C 0.21937 0.41576 0.48632 0.0
C1583 C 0.19497 0.35309 0.44387 0.0
C1584 C 0.16806 0.36668 0.44933 0.0
C1585 C 0.15316 0.41327 0.47281 0.0
C1586 C 0.16487 0.44581 0.4919 0.0
C1587 C 0.17999 0.39833 0.46975 0.0
C1588 C 0.20384 0.46217 0.50991 0.0
C1589 C 0.23085 0.4473 0.50714 0.0
H1590 H 0.33703 0.15741 0.54093 0.0
H1591 H 0.4411 0.23841 0.59984 0.0
H1592 H 0.47867 0.20448 0.59004 0.0
H1593 H 0.48251 0.15166 0.56664 0.0
H1594 H 0.38017 0.07093 0.50531 0.0
H1595 H 0.34174 0.10564 0.51295 0.0
C1596 C 0.36798 0.16795 0.55127 0.0
C1597 C 0.38584 0.20031 0.57203 0.0
C1598 C 0.38986 0.14844 0.54489 0.0
C1599 C 0.42608 0.21313 0.58514 0.0
C1600 C 0.4478 0.19391 0.57911 0.0
C1601 C 0.45177 0.14144 0.55485 0.0
C1602 C 0.43428 0.1083 0.5359 0.0
C1603 C 0.42999 0.16139 0.5595 0.0
C1604 C 0.39446 0.09613 0.52027 0.0
C1605 C 0.37246 0.11598 0.52476 0.0
H1606 H 0.92846 0.34254 0.73808 0.0
H1607 H 0.82562 0.29754 0.64694 0.0
H1608 H 0.8553 0.34563 0.58556 0.0
H1609 H 0.90862 0.40373 0.55904 0.0
H1610 H 1.01309 0.44698 0.64902 0.0
H1611 H 0.98491 0.39648 0.70941 0.0
C1612 C 0.91259 0.34337 0.70473 0.0
C1613 C 0.87407 0.31769 0.69749 0.0
C1614 C 0.93019 0.37089 0.66942 0.0
C1615 C 0.85453 0.31801 0.6538 0.0
C1616 C 0.8717 0.34532 0.61861 0.0
C1617 C 0.92551 0.40181 0.59171 0.0
C1618 C 0.96298 0.42943 0.5994 0.0
C1619 C 0.90916 0.3725 0.62622 0.0
C1620 C 0.9844 0.42618 0.64193 0.0
C1621 C 0.96812 0.3974 0.67661 0.0
H1622 H 0.19504 0.7006 0.66673 0.0
H1623 H 0.29887 0.69424 0.64287 0.0
H1624 H 0.2606 0.64286 0.60143 0.0
H1625 H 0.19767 0.59566 0.5778 0.0
H1626 H 0.09352 0.60186 0.60129 0.0
H1627 H 0.13166 0.65708 0.63646 0.0
C1628 C 0.20919 0.68862 0.65138 0.0
C1629 C 0.2497 0.70101 0.65817 0.0
C1630 C 0.18691 0.65848 0.62804 0.0
C1631 C 0.26766 0.68496 0.63846 0.0
C1632 C 0.24581 0.65542 0.61488 0.0
C1633 C 0.18328 0.60914 0.59044 0.0
C1634 C 0.14275 0.59409 0.58734 0.0
C1635 C 0.2054 0.64115 0.6106 0.0
C1636 C 0.12468 0.6125 0.60334 0.0
C1637 C 0.14648 0.64421 0.62353 0.0
loop_
_geom_bond_atom_site_label_1
_geom_bond_atom_site_label_2
_geom_bond_distance
_geom_bond_site_symmetry_2
_ccdc_geom_bond_type
Tb0 N31 2.660 . S
Tb0 N38 2.600 . S
Tb0 O44 2.546 . S
Tb0 O45 2.610 . S
Tb0 O47 2.320 . S
Tb0 O48 2.552 . S
Tb0 O49 2.413 . S
Tb0 O51 2.362 . S
Tb0 O52 2.421 . S
Tb0 C64 2.833 . S
C1 C4 1.432 . S
C1 C5 1.414 . S
C1 N8 1.359 . S
C2 C4 1.417 . S
C2 C6 1.432 . S
C2 C14 1.410 . S
C3 C5 1.444 . S
C3 C6 1.317 . S
C3 H26 0.929 . S
C4 C1 1.432 . S
C4 C2 1.417 . S
C4 N12 1.360 . S
C5 C1 1.414 . S
C5 C3 1.444 . S
C5 C10 1.385 . S
C6 C2 1.432 . S
C6 C3 1.317 . S
C6 H18 0.930 . S
C7 C9 1.392 . S
C7 C10 1.370 . S
C7 H19 0.931 . S
N8 C1 1.359 . S
N8 C9 1.327 . S
N8 Tb11 2.600 . S
C9 C7 1.392 . S
C9 N8 1.327 . S
C9 H16 0.930 . S
C10 C5 1.385 . S
C10 C7 1.370 . S
C10 H29 0.930 . S
Tb11 N8 2.600 . S
Tb11 N12 2.660 . S
Tb11 O45 2.362 . S
Tb11 O46 2.421 . S
Tb11 O50 2.546 . S
Tb11 O51 2.610 . S
Tb11 O53 2.320 . S
Tb11 O54 2.552 . S
Tb11 O55 2.413 . S
Tb11 C75 2.833 . S
N12 C4 1.360 . S
N12 Tb11 2.660 . S
N12 C13 1.305 . S
C13 N12 1.305 . S
C13 C15 1.407 . S
C13 H20 0.930 . S
C14 C2 1.410 . S
C14 C15 1.345 . S
C14 H22 0.930 . S
C15 C13 1.407 . S
C15 C14 1.345 . S
C15 H17 0.930 . S
H16 C9 0.930 . S
H17 C15 0.930 . S
H18 C6 0.930 . S
H19 C7 0.931 . S
H20 C13 0.930 . S
H21 C35 0.930 . S
H22 C14 0.930 . S
H23 C41 0.930 . S
H24 C32 0.930 . S
H25 C39 0.931 . S
H26 C3 0.929 . S
H27 C33 0.930 . S
H28 C66 0.930 . S
H29 C10 0.930 . S
H30 C65 0.929 . S
N31 Tb0 2.660 . S
N31 C32 1.305 . S
N31 C36 1.360 . S
C32 H24 0.930 . S
C32 N31 1.305 . S
C32 C35 1.407 . S
C33 H27 0.930 . S
C33 C34 1.410 . S
C33 C35 1.345 . S
C34 C33 1.410 . S
C34 C36 1.417 . S
C34 C66 1.432 . S
C35 H21 0.930 . S
C35 C32 1.407 . S
C35 C33 1.345 . S
C36 N31 1.360 . S
C36 C34 1.417 . S
C36 C40 1.432 . S
H37 C42 0.930 . S
N38 Tb0 2.600 . S
N38 C40 1.359 . S
N38 C41 1.327 . S
C39 H25 0.931 . S
C39 C41 1.392 . S
C39 C42 1.370 . S
C40 C36 1.432 . S
C40 N38 1.359 . S
C40 C43 1.414 . S
C41 H23 0.930 . S
C41 N38 1.327 . S
C41 C39 1.392 . S
C42 H37 0.930 . S
C42 C39 1.370 . S
C42 C43 1.385 . S
C43 C40 1.414 . S
C43 C42 1.385 . S
C43 C65 1.444 . S
O44 Tb0 2.546 . S
O44 C64 1.251 . S
O45 Tb0 2.610 . S
O45 Tb11 2.362 . S
O45 C56 1.283 . S
O46 Tb11 2.421 . S
O46 C63 1.262 . S
O47 Tb0 2.320 . S
O47 C63 1.260 . S
O48 Tb0 2.552 . S
O48 C56 1.243 . S
O49 Tb0 2.413 . S
O49 C64 1.256 . S
O50 Tb11 2.546 . S
O50 C75 1.251 . S
O51 Tb0 2.362 . S
O51 Tb11 2.610 . S
O51 C67 1.283 . S
O52 Tb0 2.421 . S
O52 C74 1.262 . S
O53 Tb11 2.320 . S
O53 C74 1.260 . S
O54 Tb11 2.552 . S
O54 C67 1.243 . S
O55 Tb11 2.413 . S
O55 C75 1.256 . S
C56 O45 1.283 . S
C56 O48 1.243 . S
C57 C59 1.382 . S
C57 C61 1.393 . S
C57 C64 1.500 . S
C58 C59 1.400 . S
C58 C60 1.384 . S
C59 C57 1.382 . S
C59 C58 1.400 . S
C59 H76 0.930 . S
C60 C58 1.384 . S
C60 C62 1.392 . S
C60 H77 0.931 . S
C61 C57 1.393 . S
C61 C62 1.401 . S
C61 H78 0.930 . S
C62 C60 1.392 . S
C62 C61 1.401 . S
C62 H79 0.930 . S
C63 O46 1.262 . S
C63 O47 1.260 . S
C64 Tb0 2.833 . S
C64 O44 1.251 . S
C64 O49 1.256 . S
C64 C57 1.500 . S
C65 H30 0.929 . S
C65 C43 1.444 . S
C65 C66 1.317 . S
C66 H28 0.930 . S
C66 C34 1.432 . S
C66 C65 1.317 . S
C67 O51 1.283 . S
C67 O54 1.243 . S
C68 C69 1.382 . S
C68 C72 1.393 . S
C68 C75 1.500 . S
C69 C68 1.382 . S
C69 C70 1.400 . S
C69 H80 0.930 . S
C70 C69 1.400 . S
C70 C71 1.384 . S
C71 C70 1.384 . S
C71 C73 1.392 . S
C71 H81 0.931 . S
C72 C68 1.393 . S
C72 C73 1.401 . S
C72 H82 0.930 . S
C73 C71 1.392 . S
C73 C72 1.401 . S
C73 H83 0.930 . S
C74 O52 1.262 . S
C74 O53 1.260 . S
C75 Tb11 2.833 . S
C75 O50 1.251 . S
C75 O55 1.256 . S
C75 C68 1.500 . S
H76 C59 0.930 . S
H77 C60 0.931 . S
H78 C61 0.930 . S
H79 C62 0.930 . S
H80 C69 0.930 . S
H81 C71 0.931 . S
H82 C72 0.930 . S
H83 C73 0.930 . S
Tb84 N115 2.660 . S
Tb84 N122 2.600 . S
Tb84 O128 2.546 . S
Tb84 O129 2.610 . S
Tb84 O131 2.320 . S
Tb84 O132 2.552 . S
Tb84 O133 2.413 . S
Tb84 O135 2.362 . S
Tb84 O136 2.421 . S
Tb84 C148 2.833 . S
C85 C88 1.432 . S
C85 C89 1.414 . S
C85 N92 1.359 . S
C86 C88 1.417 . S
C86 C90 1.432 . S
C86 C98 1.410 . S
C87 C89 1.444 . S
C87 C90 1.317 . S
C87 H110 0.929 . S
C88 C85 1.432 . S
C88 C86 1.417 . S
C88 N96 1.360 . S
C89 C85 1.414 . S
C89 C87 1.444 . S
C89 C94 1.385 . S
C90 C86 1.432 . S
C90 C87 1.317 . S
C90 H102 0.930 . S
C91 C93 1.392 . S
C91 C94 1.370 . S
C91 H103 0.931 . S
N92 C85 1.359 . S
N92 C93 1.327 . S
N92 Tb95 2.600 . S
C93 C91 1.392 . S
C93 N92 1.327 . S
C93 H100 0.930 . S
C94 C89 1.385 . S
C94 C91 1.370 . S
C94 H113 0.930 . S
Tb95 N92 2.600 . S
Tb95 N96 2.660 . S
Tb95 O129 2.362 . S
Tb95 O130 2.421 . S
Tb95 O134 2.546 . S
Tb95 O135 2.610 . S
Tb95 O137 2.320 . S
Tb95 O138 2.552 . S
Tb95 O139 2.413 . S
Tb95 C159 2.833 . S
N96 C88 1.360 . S
N96 Tb95 2.660 . S
N96 C97 1.305 . S
C97 N96 1.305 . S
C97 C99 1.407 . S
C97 H104 0.930 . S
C98 C86 1.410 . S
C98 C99 1.345 . S
C98 H106 0.930 . S
C99 C97 1.407 . S
C99 C98 1.345 . S
C99 H101 0.930 . S
H100 C93 0.930 . S
H101 C99 0.930 . S
H102 C90 0.930 . S
H103 C91 0.931 . S
H104 C97 0.930 . S
H105 C119 0.930 . S
H106 C98 0.930 . S
H107 C125 0.930 . S
H108 C116 0.930 . S
H109 C123 0.931 . S
H110 C87 0.929 . S
H111 C117 0.930 . S
H112 C150 0.930 . S
H113 C94 0.930 . S
H114 C149 0.929 . S
N115 Tb84 2.660 . S
N115 C116 1.305 . S
N115 C120 1.360 . S
C116 H108 0.930 . S
C116 N115 1.305 . S
C116 C119 1.407 . S
C117 H111 0.930 . S
C117 C118 1.410 . S
C117 C119 1.345 . S
C118 C117 1.410 . S
C118 C120 1.417 . S
C118 C150 1.432 . S
C119 H105 0.930 . S
C119 C116 1.407 . S
C119 C117 1.345 . S
C120 N115 1.360 . S
C120 C118 1.417 . S
C120 C124 1.432 . S
H121 C126 0.930 . S
N122 Tb84 2.600 . S
N122 C124 1.359 . S
N122 C125 1.327 . S
C123 H109 0.931 . S
C123 C125 1.392 . S
C123 C126 1.370 . S
C124 C120 1.432 . S
C124 N122 1.359 . S
C124 C127 1.414 . S
C125 H107 0.930 . S
C125 N122 1.327 . S
C125 C123 1.392 . S
C126 H121 0.930 . S
C126 C123 1.370 . S
C126 C127 1.385 . S
C127 C124 1.414 . S
C127 C126 1.385 . S
C127 C149 1.444 . S
O128 Tb84 2.546 . S
O128 C148 1.251 . S
O129 Tb84 2.610 . S
O129 Tb95 2.362 . S
O129 C140 1.283 . S
O130 Tb95 2.421 . S
O130 C147 1.262 . S
O131 Tb84 2.320 . S
O131 C147 1.260 . S
O132 Tb84 2.552 . S
O132 C140 1.243 . S
O133 Tb84 2.413 . S
O133 C148 1.256 . S
O134 Tb95 2.546 . S
O134 C159 1.251 . S
O135 Tb84 2.362 . S
O135 Tb95 2.610 . S
O135 C151 1.283 . S
O136 Tb84 2.421 . S
O136 C158 1.262 . S
O137 Tb95 2.320 . S
O137 C158 1.260 . S
O138 Tb95 2.552 . S
O138 C151 1.243 . S
O139 Tb95 2.413 . S
O139 C159 1.256 . S
C140 O129 1.283 . S
C140 O132 1.243 . S
C141 C143 1.382 . S
C141 C145 1.393 . S
C141 C148 1.500 . S
C142 C143 1.400 . S
C142 C144 1.384 . S
C143 C141 1.382 . S
C143 C142 1.400 . S
C143 H160 0.930 . S
C144 C142 1.384 . S
C144 C146 1.392 . S
C144 H161 0.931 . S
C145 C141 1.393 . S
C145 C146 1.401 . S
C145 H162 0.930 . S
C146 C144 1.392 . S
C146 C145 1.401 . S
C146 H163 0.930 . S
C147 O130 1.262 . S
C147 O131 1.260 . S
C148 Tb84 2.833 . S
C148 O128 1.251 . S
C148 O133 1.256 . S
C148 C141 1.500 . S
C149 H114 0.929 . S
C149 C127 1.444 . S
C149 C150 1.317 . S
C150 H112 0.930 . S
C150 C118 1.432 . S
C150 C149 1.317 . S
C151 O135 1.283 . S
C151 O138 1.243 . S
C152 C153 1.382 . S
C152 C156 1.393 . S
C152 C159 1.500 . S
C153 C152 1.382 . S
C153 C154 1.400 . S
C153 H164 0.930 . S
C154 C153 1.400 . S
C154 C155 1.384 . S
C155 C154 1.384 . S
C155 C157 1.392 . S
C155 H165 0.931 . S
C156 C152 1.393 . S
C156 C157 1.401 . S
C156 H166 0.930 . S
C157 C155 1.392 . S
C157 C156 1.401 . S
C157 H167 0.930 . S
C158 O136 1.262 . S
C158 O137 1.260 . S
C159 Tb95 2.833 . S
C159 O134 1.251 . S
C159 O139 1.256 . S
C159 C152 1.500 . S
H160 C143 0.930 . S
H161 C144 0.931 . S
H162 C145 0.930 . S
H163 C146 0.930 . S
H164 C153 0.930 . S
H165 C155 0.931 . S
H166 C156 0.930 . S
H167 C157 0.930 . S
Tb168 N199 2.660 . S
Tb168 N206 2.600 . S
Tb168 O212 2.546 . S
Tb168 O213 2.610 . S
Tb168 O215 2.320 . S
Tb168 O216 2.552 . S
Tb168 O217 2.413 . S
Tb168 O219 2.362 . S
Tb168 O220 2.421 . S
Tb168 C232 2.833 . S
C169 C172 1.432 . S
C169 C173 1.414 . S
C169 N176 1.359 . S
C170 C172 1.417 . S
C170 C174 1.432 . S
C170 C182 1.410 . S
C171 C173 1.444 . S
C171 C174 1.317 . S
C171 H194 0.929 . S
C172 C169 1.432 . S
C172 C170 1.417 . S
C172 N180 1.360 . S
C173 C169 1.414 . S
C173 C171 1.444 . S
C173 C178 1.385 . S
C174 C170 1.432 . S
C174 C171 1.317 . S
C174 H186 0.930 . S
C175 C177 1.392 . S
C175 C178 1.370 . S
C175 H187 0.931 . S
N176 C169 1.359 . S
N176 C177 1.327 . S
N176 Tb179 2.600 . S
C177 C175 1.392 . S
C177 N176 1.327 . S
C177 H184 0.930 . S
C178 C173 1.385 . S
C178 C175 1.370 . S
C178 H197 0.930 . S
Tb179 N176 2.600 . S
Tb179 N180 2.660 . S
Tb179 O213 2.362 . S
Tb179 O214 2.421 . S
Tb179 O218 2.546 . S
Tb179 O219 2.610 . S
Tb179 O221 2.320 . S
Tb179 O222 2.552 . S
Tb179 O223 2.413 . S
Tb179 C243 2.833 . S
N180 C172 1.360 . S
N180 Tb179 2.660 . S
N180 C181 1.305 . S
C181 N180 1.305 . S
C181 C183 1.407 . S
C181 H188 0.930 . S
C182 C170 1.410 . S
C182 C183 1.345 . S
C182 H190 0.930 . S
C183 C181 1.407 . S
C183 C182 1.345 . S
C183 H185 0.930 . S
H184 C177 0.930 . S
H185 C183 0.930 . S
H186 C174 0.930 . S
H187 C175 0.931 . S
H188 C181 0.930 . S
H189 C203 0.930 . S
H190 C182 0.930 . S
H191 C209 0.930 . S
H192 C200 0.930 . S
H193 C207 0.931 . S
H194 C171 0.929 . S
H195 C201 0.930 . S
H196 C234 0.930 . S
H197 C178 0.930 . S
H198 C233 0.929 . S
N199 Tb168 2.660 . S
N199 C200 1.305 . S
N199 C204 1.360 . S
C200 H192 0.930 . S
C200 N199 1.305 . S
C200 C203 1.407 . S
C201 H195 0.930 . S
C201 C202 1.410 . S
C201 C203 1.345 . S
C202 C201 1.410 . S
C202 C204 1.417 . S
C202 C234 1.432 . S
C203 H189 0.930 . S
C203 C200 1.407 . S
C203 C201 1.345 . S
C204 N199 1.360 . S
C204 C202 1.417 . S
C204 C208 1.432 . S
H205 C210 0.930 . S
N206 Tb168 2.600 . S
N206 C208 1.359 . S
N206 C209 1.327 . S
C207 H193 0.931 . S
C207 C209 1.392 . S
C207 C210 1.370 . S
C208 C204 1.432 . S
C208 N206 1.359 . S
C208 C211 1.414 . S
C209 H191 0.930 . S
C209 N206 1.327 . S
C209 C207 1.392 . S
C210 H205 0.930 . S
C210 C207 1.370 . S
C210 C211 1.385 . S
C211 C208 1.414 . S
C211 C210 1.385 . S
C211 C233 1.444 . S
O212 Tb168 2.546 . S
O212 C232 1.251 . S
O213 Tb168 2.610 . S
O213 Tb179 2.362 . S
O213 C224 1.283 . S
O214 Tb179 2.421 . S
O214 C231 1.262 . S
O215 Tb168 2.320 . S
O215 C231 1.260 . S
O216 Tb168 2.552 . S
O216 C224 1.243 . S
O217 Tb168 2.413 . S
O217 C232 1.256 . S
O218 Tb179 2.546 . S
O218 C243 1.251 . S
O219 Tb168 2.362 . S
O219 Tb179 2.610 . S
O219 C235 1.283 . S
O220 Tb168 2.421 . S
O220 C242 1.262 . S
O221 Tb179 2.320 . S
O221 C242 1.260 . S
O222 Tb179 2.552 . S
O222 C235 1.243 . S
O223 Tb179 2.413 . S
O223 C243 1.256 . S
C224 O213 1.283 . S
C224 O216 1.243 . S
C225 C227 1.382 . S
C225 C229 1.393 . S
C225 C232 1.500 . S
C226 C227 1.400 . S
C226 C228 1.384 . S
C227 C225 1.382 . S
C227 C226 1.400 . S
C227 H244 0.930 . S
C228 C226 1.384 . S
C228 C230 1.392 . S
C228 H245 0.931 . S
C229 C225 1.393 . S
C229 C230 1.401 . S
C229 H246 0.930 . S
C230 C228 1.392 . S
C230 C229 1.401 . S
C230 H247 0.930 . S
C231 O214 1.262 . S
C231 O215 1.260 . S
C232 Tb168 2.833 . S
C232 O212 1.251 . S
C232 O217 1.256 . S
C232 C225 1.500 . S
C233 H198 0.929 . S
C233 C211 1.444 . S
C233 C234 1.317 . S
C234 H196 0.930 . S
C234 C202 1.432 . S
C234 C233 1.317 . S
C235 O219 1.283 . S
C235 O222 1.243 . S
C236 C237 1.382 . S
C236 C240 1.393 . S
C236 C243 1.500 . S
C237 C236 1.382 . S
C237 C238 1.400 . S
C237 H248 0.930 . S
C238 C237 1.400 . S
C238 C239 1.384 . S
C239 C238 1.384 . S
C239 C241 1.392 . S
C239 H249 0.931 . S
C240 C236 1.393 . S
C240 C241 1.401 . S
C240 H250 0.930 . S
C241 C239 1.392 . S
C241 C240 1.401 . S
C241 H251 0.930 . S
C242 O220 1.262 . S
C242 O221 1.260 . S
C243 Tb179 2.833 . S
C243 O218 1.251 . S
C243 O223 1.256 . S
C243 C236 1.500 . S
H244 C227 0.930 . S
H245 C228 0.931 . S
H246 C229 0.930 . S
H247 C230 0.930 . S
H248 C237 0.930 . S
H249 C239 0.931 . S
H250 C240 0.930 . S
H251 C241 0.930 . S
Tb252 N283 2.660 . S
Tb252 N290 2.600 . S
Tb252 O296 2.546 . S
Tb252 O297 2.610 . S
Tb252 O299 2.320 . S
Tb252 O300 2.552 . S
Tb252 O301 2.413 . S
Tb252 O303 2.362 . S
Tb252 O304 2.421 . S
Tb252 C316 2.833 . S
C253 C256 1.432 . S
C253 C257 1.414 . S
C253 N260 1.359 . S
C254 C256 1.417 . S
C254 C258 1.432 . S
C254 C266 1.410 . S
C255 C257 1.444 . S
C255 C258 1.317 . S
C255 H278 0.929 . S
C256 C253 1.432 . S
C256 C254 1.417 . S
C256 N264 1.360 . S
C257 C253 1.414 . S
C257 C255 1.444 . S
C257 C262 1.385 . S
C258 C254 1.432 . S
C258 C255 1.317 . S
C258 H270 0.930 . S
C259 C261 1.392 . S
C259 C262 1.370 . S
C259 H271 0.931 . S
N260 C253 1.359 . S
N260 C261 1.327 . S
N260 Tb263 2.600 . S
C261 C259 1.392 . S
C261 N260 1.327 . S
C261 H268 0.930 . S
C262 C257 1.385 . S
C262 C259 1.370 . S
C262 H281 0.930 . S
Tb263 N260 2.600 . S
Tb263 N264 2.660 . S
Tb263 O297 2.362 . S
Tb263 O298 2.421 . S
Tb263 O302 2.546 . S
Tb263 O303 2.610 . S
Tb263 O305 2.320 . S
Tb263 O306 2.552 . S
Tb263 O307 2.413 . S
Tb263 C327 2.833 . S
N264 C256 1.360 . S
N264 Tb263 2.660 . S
N264 C265 1.305 . S
C265 N264 1.305 . S
C265 C267 1.407 . S
C265 H272 0.930 . S
C266 C254 1.410 . S
C266 C267 1.345 . S
C266 H274 0.930 . S
C267 C265 1.407 . S
C267 C266 1.345 . S
C267 H269 0.930 . S
H268 C261 0.930 . S
H269 C267 0.930 . S
H270 C258 0.930 . S
H271 C259 0.931 . S
H272 C265 0.930 . S
H273 C287 0.930 . S
H274 C266 0.930 . S
H275 C293 0.930 . S
H276 C284 0.930 . S
H277 C291 0.931 . S
H278 C255 0.929 . S
H279 C285 0.930 . S
H280 C318 0.930 . S
H281 C262 0.930 . S
H282 C317 0.929 . S
N283 Tb252 2.660 . S
N283 C284 1.305 . S
N283 C288 1.360 . S
C284 H276 0.930 . S
C284 N283 1.305 . S
C284 C287 1.407 . S
C285 H279 0.930 . S
C285 C286 1.410 . S
C285 C287 1.345 . S
C286 C285 1.410 . S
C286 C288 1.417 . S
C286 C318 1.432 . S
C287 H273 0.930 . S
C287 C284 1.407 . S
C287 C285 1.345 . S
C288 N283 1.360 . S
C288 C286 1.417 . S
C288 C292 1.432 . S
H289 C294 0.930 . S
N290 Tb252 2.600 . S
N290 C292 1.359 . S
N290 C293 1.327 . S
C291 H277 0.931 . S
C291 C293 1.392 . S
C291 C294 1.370 . S
C292 C288 1.432 . S
C292 N290 1.359 . S
C292 C295 1.414 . S
C293 H275 0.930 . S
C293 N290 1.327 . S
C293 C291 1.392 . S
C294 H289 0.930 . S
C294 C291 1.370 . S
C294 C295 1.385 . S
C295 C292 1.414 . S
C295 C294 1.385 . S
C295 C317 1.444 . S
O296 Tb252 2.546 . S
O296 C316 1.251 . S
O297 Tb252 2.610 . S
O297 Tb263 2.362 . S
O297 C308 1.283 . S
O298 Tb263 2.421 . S
O298 C315 1.262 . S
O299 Tb252 2.320 . S
O299 C315 1.260 . S
O300 Tb252 2.552 . S
O300 C308 1.243 . S
O301 Tb252 2.413 . S
O301 C316 1.256 . S
O302 Tb263 2.546 . S
O302 C327 1.251 . S
O303 Tb252 2.362 . S
O303 Tb263 2.610 . S
O303 C319 1.283 . S
O304 Tb252 2.421 . S
O304 C326 1.262 . S
O305 Tb263 2.320 . S
O305 C326 1.260 . S
O306 Tb263 2.552 . S
O306 C319 1.243 . S
O307 Tb263 2.413 . S
O307 C327 1.256 . S
C308 O297 1.283 . S
C308 O300 1.243 . S
C309 C311 1.382 . S
C309 C313 1.393 . S
C309 C316 1.500 . S
C310 C311 1.400 . S
C310 C312 1.384 . S
C311 C309 1.382 . S
C311 C310 1.400 . S
C311 H328 0.930 . S
C312 C310 1.384 . S
C312 C314 1.392 . S
C312 H329 0.931 . S
C313 C309 1.393 . S
C313 C314 1.401 . S
C313 H330 0.930 . S
C314 C312 1.392 . S
C314 C313 1.401 . S
C314 H331 0.930 . S
C315 O298 1.262 . S
C315 O299 1.260 . S
C316 Tb252 2.833 . S
C316 O296 1.251 . S
C316 O301 1.256 . S
C316 C309 1.500 . S
C317 H282 0.929 . S
C317 C295 1.444 . S
C317 C318 1.317 . S
C318 H280 0.930 . S
C318 C286 1.432 . S
C318 C317 1.317 . S
C319 O303 1.283 . S
C319 O306 1.243 . S
C320 C321 1.382 . S
C320 C324 1.393 . S
C320 C327 1.500 . S
C321 C320 1.382 . S
C321 C322 1.400 . S
C321 H332 0.930 . S
C322 C321 1.400 . S
C322 C323 1.384 . S
C323 C322 1.384 . S
C323 C325 1.392 . S
C323 H333 0.931 . S
C324 C320 1.393 . S
C324 C325 1.401 . S
C324 H334 0.930 . S
C325 C323 1.392 . S
C325 C324 1.401 . S
C325 H335 0.930 . S
C326 O304 1.262 . S
C326 O305 1.260 . S
C327 Tb263 2.833 . S
C327 O302 1.251 . S
C327 O307 1.256 . S
C327 C320 1.500 . S
H328 C311 0.930 . S
H329 C312 0.931 . S
H330 C313 0.930 . S
H331 C314 0.930 . S
H332 C321 0.930 . S
H333 C323 0.931 . S
H334 C324 0.930 . S
H335 C325 0.930 . S
Tb336 N367 2.660 . S
Tb336 N374 2.600 . S
Tb336 O380 2.546 . S
Tb336 O381 2.610 . S
Tb336 O383 2.320 . S
Tb336 O384 2.552 . S
Tb336 O385 2.413 . S
Tb336 O387 2.362 . S
Tb336 O388 2.421 . S
Tb336 C400 2.833 . S
C337 C340 1.432 . S
C337 C341 1.414 . S
C337 N344 1.359 . S
C338 C340 1.417 . S
C338 C342 1.432 . S
C338 C350 1.410 . S
C339 C341 1.444 . S
C339 C342 1.317 . S
C339 H362 0.929 . S
C340 C337 1.432 . S
C340 C338 1.417 . S
C340 N348 1.360 . S
C341 C337 1.414 . S
C341 C339 1.444 . S
C341 C346 1.385 . S
C342 C338 1.432 . S
C342 C339 1.317 . S
C342 H354 0.930 . S
C343 C345 1.392 . S
C343 C346 1.370 . S
C343 H355 0.931 . S
N344 C337 1.359 . S
N344 C345 1.327 . S
N344 Tb347 2.600 . S
C345 C343 1.392 . S
C345 N344 1.327 . S
C345 H352 0.930 . S
C346 C341 1.385 . S
C346 C343 1.370 . S
C346 H365 0.930 . S
Tb347 N344 2.600 . S
Tb347 N348 2.660 . S
Tb347 O381 2.362 . S
Tb347 O382 2.421 . S
Tb347 O386 2.546 . S
Tb347 O387 2.610 . S
Tb347 O389 2.320 . S
Tb347 O390 2.552 . S
Tb347 O391 2.413 . S
Tb347 C411 2.833 . S
N348 C340 1.360 . S
N348 Tb347 2.660 . S
N348 C349 1.305 . S
C349 N348 1.305 . S
C349 C351 1.407 . S
C349 H356 0.930 . S
C350 C338 1.410 . S
C350 C351 1.345 . S
C350 H358 0.930 . S
C351 C349 1.407 . S
C351 C350 1.345 . S
C351 H353 0.930 . S
H352 C345 0.930 . S
H353 C351 0.930 . S
H354 C342 0.930 . S
H355 C343 0.931 . S
H356 C349 0.930 . S
H357 C371 0.930 . S
H358 C350 0.930 . S
H359 C377 0.930 . S
H360 C368 0.930 . S
H361 C375 0.931 . S
H362 C339 0.929 . S
H363 C369 0.930 . S
H364 C402 0.930 . S
H365 C346 0.930 . S
H366 C401 0.929 . S
N367 Tb336 2.660 . S
N367 C368 1.305 . S
N367 C372 1.360 . S
C368 H360 0.930 . S
C368 N367 1.305 . S
C368 C371 1.407 . S
C369 H363 0.930 . S
C369 C370 1.410 . S
C369 C371 1.345 . S
C370 C369 1.410 . S
C370 C372 1.417 . S
C370 C402 1.432 . S
C371 H357 0.930 . S
C371 C368 1.407 . S
C371 C369 1.345 . S
C372 N367 1.360 . S
C372 C370 1.417 . S
C372 C376 1.432 . S
H373 C378 0.930 . S
N374 Tb336 2.600 . S
N374 C376 1.359 . S
N374 C377 1.327 . S
C375 H361 0.931 . S
C375 C377 1.392 . S
C375 C378 1.370 . S
C376 C372 1.432 . S
C376 N374 1.359 . S
C376 C379 1.414 . S
C377 H359 0.930 . S
C377 N374 1.327 . S
C377 C375 1.392 . S
C378 H373 0.930 . S
C378 C375 1.370 . S
C378 C379 1.385 . S
C379 C376 1.414 . S
C379 C378 1.385 . S
C379 C401 1.444 . S
O380 Tb336 2.546 . S
O380 C400 1.251 . S
O381 Tb336 2.610 . S
O381 Tb347 2.362 . S
O381 C392 1.283 . S
O382 Tb347 2.421 . S
O382 C399 1.262 . S
O383 Tb336 2.320 . S
O383 C399 1.260 . S
O384 Tb336 2.552 . S
O384 C392 1.243 . S
O385 Tb336 2.413 . S
O385 C400 1.256 . S
O386 Tb347 2.546 . S
O386 C411 1.251 . S
O387 Tb336 2.362 . S
O387 Tb347 2.610 . S
O387 C403 1.283 . S
O388 Tb336 2.421 . S
O388 C410 1.262 . S
O389 Tb347 2.320 . S
O389 C410 1.260 . S
O390 Tb347 2.552 . S
O390 C403 1.243 . S
O391 Tb347 2.413 . S
O391 C411 1.256 . S
C392 O381 1.283 . S
C392 O384 1.243 . S
C393 C395 1.382 . S
C393 C397 1.393 . S
C393 C400 1.500 . S
C394 C395 1.400 . S
C394 C396 1.384 . S
C395 C393 1.382 . S
C395 C394 1.400 . S
C395 H412 0.930 . S
C396 C394 1.384 . S
C396 C398 1.392 . S
C396 H413 0.931 . S
C397 C393 1.393 . S
C397 C398 1.401 . S
C397 H414 0.930 . S
C398 C396 1.392 . S
C398 C397 1.401 . S
C398 H415 0.930 . S
C399 O382 1.262 . S
C399 O383 1.260 . S
C400 Tb336 2.833 . S
C400 O380 1.251 . S
C400 O385 1.256 . S
C400 C393 1.500 . S
C401 H366 0.929 . S
C401 C379 1.444 . S
C401 C402 1.317 . S
C402 H364 0.930 . S
C402 C370 1.432 . S
C402 C401 1.317 . S
C403 O387 1.283 . S
C403 O390 1.243 . S
C404 C405 1.382 . S
C404 C408 1.393 . S
C404 C411 1.500 . S
C405 C404 1.382 . S
C405 C406 1.400 . S
C405 H416 0.930 . S
C406 C405 1.400 . S
C406 C407 1.384 . S
C407 C406 1.384 . S
C407 C409 1.392 . S
C407 H417 0.931 . S
C408 C404 1.393 . S
C408 C409 1.401 . S
C408 H418 0.930 . S
C409 C407 1.392 . S
C409 C408 1.401 . S
C409 H419 0.930 . S
C410 O388 1.262 . S
C410 O389 1.260 . S
C411 Tb347 2.833 . S
C411 O386 1.251 . S
C411 O391 1.256 . S
C411 C404 1.500 . S
H412 C395 0.930 . S
H413 C396 0.931 . S
H414 C397 0.930 . S
H415 C398 0.930 . S
H416 C405 0.930 . S
H417 C407 0.931 . S
H418 C408 0.930 . S
H419 C409 0.930 . S
Tb420 N451 2.660 . S
Tb420 N458 2.600 . S
Tb420 O464 2.546 . S
Tb420 O465 2.610 . S
Tb420 O467 2.320 . S
Tb420 O468 2.552 . S
Tb420 O469 2.413 . S
Tb420 O471 2.362 . S
Tb420 O472 2.421 . S
Tb420 C484 2.833 . S
C421 C424 1.432 . S
C421 C425 1.414 . S
C421 N428 1.359 . S
C422 C424 1.417 . S
C422 C426 1.432 . S
C422 C434 1.410 . S
C423 C425 1.444 . S
C423 C426 1.317 . S
C423 H446 0.929 . S
C424 C421 1.432 . S
C424 C422 1.417 . S
C424 N432 1.360 . S
C425 C421 1.414 . S
C425 C423 1.444 . S
C425 C430 1.385 . S
C426 C422 1.432 . S
C426 C423 1.317 . S
C426 H438 0.930 . S
C427 C429 1.392 . S
C427 C430 1.370 . S
C427 H439 0.931 . S
N428 C421 1.359 . S
N428 C429 1.327 . S
N428 Tb431 2.600 . S
C429 C427 1.392 . S
C429 N428 1.327 . S
C429 H436 0.930 . S
C430 C425 1.385 . S
C430 C427 1.370 . S
C430 H449 0.930 . S
Tb431 N428 2.600 . S
Tb431 N432 2.660 . S
Tb431 O465 2.362 . S
Tb431 O466 2.421 . S
Tb431 O470 2.546 . S
Tb431 O471 2.610 . S
Tb431 O473 2.320 . S
Tb431 O474 2.552 . S
Tb431 O475 2.413 . S
Tb431 C495 2.833 . S
N432 C424 1.360 . S
N432 Tb431 2.660 . S
N432 C433 1.305 . S
C433 N432 1.305 . S
C433 C435 1.407 . S
C433 H440 0.930 . S
C434 C422 1.410 . S
C434 C435 1.345 . S
C434 H442 0.930 . S
C435 C433 1.407 . S
C435 C434 1.345 . S
C435 H437 0.930 . S
H436 C429 0.930 . S
H437 C435 0.930 . S
H438 C426 0.930 . S
H439 C427 0.931 . S
H440 C433 0.930 . S
H441 C455 0.930 . S
H442 C434 0.930 . S
H443 C461 0.930 . S
H444 C452 0.930 . S
H445 C459 0.931 . S
H446 C423 0.929 . S
H447 C453 0.930 . S
H448 C486 0.930 . S
H449 C430 0.930 . S
H450 C485 0.929 . S
N451 Tb420 2.660 . S
N451 C452 1.305 . S
N451 C456 1.360 . S
C452 H444 0.930 . S
C452 N451 1.305 . S
C452 C455 1.407 . S
C453 H447 0.930 . S
C453 C454 1.410 . S
C453 C455 1.345 . S
C454 C453 1.410 . S
C454 C456 1.417 . S
C454 C486 1.432 . S
C455 H441 0.930 . S
C455 C452 1.407 . S
C455 C453 1.345 . S
C456 N451 1.360 . S
C456 C454 1.417 . S
C456 C460 1.432 . S
H457 C462 0.930 . S
N458 Tb420 2.600 . S
N458 C460 1.359 . S
N458 C461 1.327 . S
C459 H445 0.931 . S
C459 C461 1.392 . S
C459 C462 1.370 . S
C460 C456 1.432 . S
C460 N458 1.359 . S
C460 C463 1.414 . S
C461 H443 0.930 . S
C461 N458 1.327 . S
C461 C459 1.392 . S
C462 H457 0.930 . S
C462 C459 1.370 . S
C462 C463 1.385 . S
C463 C460 1.414 . S
C463 C462 1.385 . S
C463 C485 1.444 . S
O464 Tb420 2.546 . S
O464 C484 1.251 . S
O465 Tb420 2.610 . S
O465 Tb431 2.362 . S
O465 C476 1.283 . S
O466 Tb431 2.421 . S
O466 C483 1.262 . S
O467 Tb420 2.320 . S
O467 C483 1.260 . S
O468 Tb420 2.552 . S
O468 C476 1.243 . S
O469 Tb420 2.413 . S
O469 C484 1.256 . S
O470 Tb431 2.546 . S
O470 C495 1.251 . S
O471 Tb420 2.362 . S
O471 Tb431 2.610 . S
O471 C487 1.283 . S
O472 Tb420 2.421 . S
O472 C494 1.262 . S
O473 Tb431 2.320 . S
O473 C494 1.260 . S
O474 Tb431 2.552 . S
O474 C487 1.243 . S
O475 Tb431 2.413 . S
O475 C495 1.256 . S
C476 O465 1.283 . S
C476 O468 1.243 . S
C477 C479 1.382 . S
C477 C481 1.393 . S
C477 C484 1.500 . S
C478 C479 1.400 . S
C478 C480 1.384 . S
C479 C477 1.382 . S
C479 C478 1.400 . S
C479 H496 0.930 . S
C480 C478 1.384 . S
C480 C482 1.392 . S
C480 H497 0.931 . S
C481 C477 1.393 . S
C481 C482 1.401 . S
C481 H498 0.930 . S
C482 C480 1.392 . S
C482 C481 1.401 . S
C482 H499 0.930 . S
C483 O466 1.262 . S
C483 O467 1.260 . S
C484 Tb420 2.833 . S
C484 O464 1.251 . S
C484 O469 1.256 . S
C484 C477 1.500 . S
C485 H450 0.929 . S
C485 C463 1.444 . S
C485 C486 1.317 . S
C486 H448 0.930 . S
C486 C454 1.432 . S
C486 C485 1.317 . S
C487 O471 1.283 . S
C487 O474 1.243 . S
C488 C489 1.382 . S
C488 C492 1.393 . S
C488 C495 1.500 . S
C489 C488 1.382 . S
C489 C490 1.400 . S
C489 H500 0.930 . S
C490 C489 1.400 . S
C490 C491 1.384 . S
C491 C490 1.384 . S
C491 C493 1.392 . S
C491 H501 0.931 . S
C492 C488 1.393 . S
C492 C493 1.401 . S
C492 H502 0.930 . S
C493 C491 1.392 . S
C493 C492 1.401 . S
C493 H503 0.930 . S
C494 O472 1.262 . S
C494 O473 1.260 . S
C495 Tb431 2.833 . S
C495 O470 1.251 . S
C495 O475 1.256 . S
C495 C488 1.500 . S
H496 C479 0.930 . S
H497 C480 0.931 . S
H498 C481 0.930 . S
H499 C482 0.930 . S
H500 C489 0.930 . S
H501 C491 0.931 . S
H502 C492 0.930 . S
H503 C493 0.930 . S
Tb504 N535 2.660 . S
Tb504 N542 2.600 . S
Tb504 O548 2.546 . S
Tb504 O549 2.610 . S
Tb504 O551 2.320 . S
Tb504 O552 2.552 . S
Tb504 O553 2.413 . S
Tb504 O555 2.362 . S
Tb504 O556 2.421 . S
Tb504 C568 2.833 . S
C505 C508 1.432 . S
C505 C509 1.414 . S
C505 N512 1.359 . S
C506 C508 1.417 . S
C506 C510 1.432 . S
C506 C518 1.410 . S
C507 C509 1.444 . S
C507 C510 1.317 . S
C507 H530 0.929 . S
C508 C505 1.432 . S
C508 C506 1.417 . S
C508 N516 1.360 . S
C509 C505 1.414 . S
C509 C507 1.444 . S
C509 C514 1.385 . S
C510 C506 1.432 . S
C510 C507 1.317 . S
C510 H522 0.930 . S
C511 C513 1.392 . S
C511 C514 1.370 . S
C511 H523 0.931 . S
N512 C505 1.359 . S
N512 C513 1.327 . S
N512 Tb515 2.600 . S
C513 C511 1.392 . S
C513 N512 1.327 . S
C513 H520 0.930 . S
C514 C509 1.385 . S
C514 C511 1.370 . S
C514 H533 0.930 . S
Tb515 N512 2.600 . S
Tb515 N516 2.660 . S
Tb515 O549 2.362 . S
Tb515 O550 2.421 . S
Tb515 O554 2.546 . S
Tb515 O555 2.610 . S
Tb515 O557 2.320 . S
Tb515 O558 2.552 . S
Tb515 O559 2.413 . S
Tb515 C579 2.833 . S
N516 C508 1.360 . S
N516 Tb515 2.660 . S
N516 C517 1.305 . S
C517 N516 1.305 . S
C517 C519 1.407 . S
C517 H524 0.930 . S
C518 C506 1.410 . S
C518 C519 1.345 . S
C518 H526 0.930 . S
C519 C517 1.407 . S
C519 C518 1.345 . S
C519 H521 0.930 . S
H520 C513 0.930 . S
H521 C519 0.930 . S
H522 C510 0.930 . S
H523 C511 0.931 . S
H524 C517 0.930 . S
H525 C539 0.930 . S
H526 C518 0.930 . S
H527 C545 0.930 . S
H528 C536 0.930 . S
H529 C543 0.931 . S
H530 C507 0.929 . S
H531 C537 0.930 . S
H532 C570 0.930 . S
H533 C514 0.930 . S
H534 C569 0.929 . S
N535 Tb504 2.660 . S
N535 C536 1.305 . S
N535 C540 1.360 . S
C536 H528 0.930 . S
C536 N535 1.305 . S
C536 C539 1.407 . S
C537 H531 0.930 . S
C537 C538 1.410 . S
C537 C539 1.345 . S
C538 C537 1.410 . S
C538 C540 1.417 . S
C538 C570 1.432 . S
C539 H525 0.930 . S
C539 C536 1.407 . S
C539 C537 1.345 . S
C540 N535 1.360 . S
C540 C538 1.417 . S
C540 C544 1.432 . S
H541 C546 0.930 . S
N542 Tb504 2.600 . S
N542 C544 1.359 . S
N542 C545 1.327 . S
C543 H529 0.931 . S
C543 C545 1.392 . S
C543 C546 1.370 . S
C544 C540 1.432 . S
C544 N542 1.359 . S
C544 C547 1.414 . S
C545 H527 0.930 . S
C545 N542 1.327 . S
C545 C543 1.392 . S
C546 H541 0.930 . S
C546 C543 1.370 . S
C546 C547 1.385 . S
C547 C544 1.414 . S
C547 C546 1.385 . S
C547 C569 1.444 . S
O548 Tb504 2.546 . S
O548 C568 1.251 . S
O549 Tb504 2.610 . S
O549 Tb515 2.362 . S
O549 C560 1.283 . S
O550 Tb515 2.421 . S
O550 C567 1.262 . S
O551 Tb504 2.320 . S
O551 C567 1.260 . S
O552 Tb504 2.552 . S
O552 C560 1.243 . S
O553 Tb504 2.413 . S
O553 C568 1.256 . S
O554 Tb515 2.546 . S
O554 C579 1.251 . S
O555 Tb504 2.362 . S
O555 Tb515 2.610 . S
O555 C571 1.283 . S
O556 Tb504 2.421 . S
O556 C578 1.262 . S
O557 Tb515 2.320 . S
O557 C578 1.260 . S
O558 Tb515 2.552 . S
O558 C571 1.243 . S
O559 Tb515 2.413 . S
O559 C579 1.256 . S
C560 O549 1.283 . S
C560 O552 1.243 . S
C561 C563 1.382 . S
C561 C565 1.393 . S
C561 C568 1.500 . S
C562 C563 1.400 . S
C562 C564 1.384 . S
C563 C561 1.382 . S
C563 C562 1.400 . S
C563 H580 0.930 . S
C564 C562 1.384 . S
C564 C566 1.392 . S
C564 H581 0.931 . S
C565 C561 1.393 . S
C565 C566 1.401 . S
C565 H582 0.930 . S
C566 C564 1.392 . S
C566 C565 1.401 . S
C566 H583 0.930 . S
C567 O550 1.262 . S
C567 O551 1.260 . S
C568 Tb504 2.833 . S
C568 O548 1.251 . S
C568 O553 1.256 . S
C568 C561 1.500 . S
C569 H534 0.929 . S
C569 C547 1.444 . S
C569 C570 1.317 . S
C570 H532 0.930 . S
C570 C538 1.432 . S
C570 C569 1.317 . S
C571 O555 1.283 . S
C571 O558 1.243 . S
C572 C573 1.382 . S
C572 C576 1.393 . S
C572 C579 1.500 . S
C573 C572 1.382 . S
C573 C574 1.400 . S
C573 H584 0.930 . S
C574 C573 1.400 . S
C574 C575 1.384 . S
C575 C574 1.384 . S
C575 C577 1.392 . S
C575 H585 0.931 . S
C576 C572 1.393 . S
C576 C577 1.401 . S
C576 H586 0.930 . S
C577 C575 1.392 . S
C577 C576 1.401 . S
C577 H587 0.930 . S
C578 O556 1.262 . S
C578 O557 1.260 . S
C579 Tb515 2.833 . S
C579 O554 1.251 . S
C579 O559 1.256 . S
C579 C572 1.500 . S
H580 C563 0.930 . S
H581 C564 0.931 . S
H582 C565 0.930 . S
H583 C566 0.930 . S
H584 C573 0.930 . S
H585 C575 0.931 . S
H586 C576 0.930 . S
H587 C577 0.930 . S
Tb588 N619 2.660 . S
Tb588 N626 2.600 . S
Tb588 O632 2.546 . S
Tb588 O633 2.610 . S
Tb588 O635 2.320 . S
Tb588 O636 2.552 . S
Tb588 O637 2.413 . S
Tb588 O639 2.362 . S
Tb588 O640 2.421 . S
Tb588 C652 2.833 . S
C589 C592 1.432 . S
C589 C593 1.414 . S
C589 N596 1.359 . S
C590 C592 1.417 . S
C590 C594 1.432 . S
C590 C602 1.410 . S
C591 C593 1.444 . S
C591 C594 1.317 . S
C591 H614 0.929 . S
C592 C589 1.432 . S
C592 C590 1.417 . S
C592 N600 1.360 . S
C593 C589 1.414 . S
C593 C591 1.444 . S
C593 C598 1.385 . S
C594 C590 1.432 . S
C594 C591 1.317 . S
C594 H606 0.930 . S
C595 C597 1.392 . S
C595 C598 1.370 . S
C595 H607 0.931 . S
N596 C589 1.359 . S
N596 C597 1.327 . S
N596 Tb599 2.600 . S
C597 C595 1.392 . S
C597 N596 1.327 . S
C597 H604 0.930 . S
C598 C593 1.385 . S
C598 C595 1.370 . S
C598 H617 0.930 . S
Tb599 N596 2.600 . S
Tb599 N600 2.660 . S
Tb599 O633 2.362 . S
Tb599 O634 2.421 . S
Tb599 O638 2.546 . S
Tb599 O639 2.610 . S
Tb599 O641 2.320 . S
Tb599 O642 2.552 . S
Tb599 O643 2.413 . S
Tb599 C663 2.833 . S
N600 C592 1.360 . S
N600 Tb599 2.660 . S
N600 C601 1.305 . S
C601 N600 1.305 . S
C601 C603 1.407 . S
C601 H608 0.930 . S
C602 C590 1.410 . S
C602 C603 1.345 . S
C602 H610 0.930 . S
C603 C601 1.407 . S
C603 C602 1.345 . S
C603 H605 0.930 . S
H604 C597 0.930 . S
H605 C603 0.930 . S
H606 C594 0.930 . S
H607 C595 0.931 . S
H608 C601 0.930 . S
H609 C623 0.930 . S
H610 C602 0.930 . S
H611 C629 0.930 . S
H612 C620 0.930 . S
H613 C627 0.931 . S
H614 C591 0.929 . S
H615 C621 0.930 . S
H616 C654 0.930 . S
H617 C598 0.930 . S
H618 C653 0.929 . S
N619 Tb588 2.660 . S
N619 C620 1.305 . S
N619 C624 1.360 . S
C620 H612 0.930 . S
C620 N619 1.305 . S
C620 C623 1.407 . S
C621 H615 0.930 . S
C621 C622 1.410 . S
C621 C623 1.345 . S
C622 C621 1.410 . S
C622 C624 1.417 . S
C622 C654 1.432 . S
C623 H609 0.930 . S
C623 C620 1.407 . S
C623 C621 1.345 . S
C624 N619 1.360 . S
C624 C622 1.417 . S
C624 C628 1.432 . S
H625 C630 0.930 . S
N626 Tb588 2.600 . S
N626 C628 1.359 . S
N626 C629 1.327 . S
C627 H613 0.931 . S
C627 C629 1.392 . S
C627 C630 1.370 . S
C628 C624 1.432 . S
C628 N626 1.359 . S
C628 C631 1.414 . S
C629 H611 0.930 . S
C629 N626 1.327 . S
C629 C627 1.392 . S
C630 H625 0.930 . S
C630 C627 1.370 . S
C630 C631 1.385 . S
C631 C628 1.414 . S
C631 C630 1.385 . S
C631 C653 1.444 . S
O632 Tb588 2.546 . S
O632 C652 1.251 . S
O633 Tb588 2.610 . S
O633 Tb599 2.362 . S
O633 C644 1.283 . S
O634 Tb599 2.421 . S
O634 C651 1.262 . S
O635 Tb588 2.320 . S
O635 C651 1.260 . S
O636 Tb588 2.552 . S
O636 C644 1.243 . S
O637 Tb588 2.413 . S
O637 C652 1.256 . S
O638 Tb599 2.546 . S
O638 C663 1.251 . S
O639 Tb588 2.362 . S
O639 Tb599 2.610 . S
O639 C655 1.283 . S
O640 Tb588 2.421 . S
O640 C662 1.262 . S
O641 Tb599 2.320 . S
O641 C662 1.260 . S
O642 Tb599 2.552 . S
O642 C655 1.243 . S
O643 Tb599 2.413 . S
O643 C663 1.256 . S
C644 O633 1.283 . S
C644 O636 1.243 . S
C645 C647 1.382 . S
C645 C649 1.393 . S
C645 C652 1.500 . S
C646 C647 1.400 . S
C646 C648 1.384 . S
C647 C645 1.382 . S
C647 C646 1.400 . S
C647 H664 0.930 . S
C648 C646 1.384 . S
C648 C650 1.392 . S
C648 H665 0.931 . S
C649 C645 1.393 . S
C649 C650 1.401 . S
C649 H666 0.930 . S
C650 C648 1.392 . S
C650 C649 1.401 . S
C650 H667 0.930 . S
C651 O634 1.262 . S
C651 O635 1.260 . S
C652 Tb588 2.833 . S
C652 O632 1.251 . S
C652 O637 1.256 . S
C652 C645 1.500 . S
C653 H618 0.929 . S
C653 C631 1.444 . S
C653 C654 1.317 . S
C654 H616 0.930 . S
C654 C622 1.432 . S
C654 C653 1.317 . S
C655 O639 1.283 . S
C655 O642 1.243 . S
C656 C657 1.382 . S
C656 C660 1.393 . S
C656 C663 1.500 . S
C657 C656 1.382 . S
C657 C658 1.400 . S
C657 H668 0.930 . S
C658 C657 1.400 . S
C658 C659 1.384 . S
C659 C658 1.384 . S
C659 C661 1.392 . S
C659 H669 0.931 . S
C660 C656 1.393 . S
C660 C661 1.401 . S
C660 H670 0.930 . S
C661 C659 1.392 . S
C661 C660 1.401 . S
C661 H671 0.930 . S
C662 O640 1.262 . S
C662 O641 1.260 . S
C663 Tb599 2.833 . S
C663 O638 1.251 . S
C663 O643 1.256 . S
C663 C656 1.500 . S
H664 C647 0.930 . S
H665 C648 0.931 . S
H666 C649 0.930 . S
H667 C650 0.930 . S
H668 C657 0.930 . S
H669 C659 0.931 . S
H670 C660 0.930 . S
H671 C661 0.930 . S
Co672 O675 2.042 . S
Co672 O682 2.264 . S
Co672 O701 2.286 . S
Co672 O702 2.069 . S
Co672 O704 2.015 1_455 S
Co673 O675 2.122 . S
Co673 O681 2.073 . S
Co673 O682 2.327 . S
Co673 O683 1.976 1_455 S
Co674 O675 2.086 1_545 S
Co674 O677 2.088 1_455 S
Co674 O684 2.109 1_445 S
Co674 O685 2.146 . S
Co674 O689 2.113 . S
Co674 O703 2.141 1_445 S
O675 Co672 2.042 . S
O675 Co673 2.122 . S
O675 Co674 2.086 1_565 S
O675 H676 0.980 . S
H676 O675 0.980 . S
O677 Co674 2.088 1_655 S
O677 Co678 2.042 . S
O677 Co679 2.122 . S
O677 H680 0.980 . S
Co678 O677 2.042 . S
Co678 O686 2.286 . S
Co678 O687 2.069 . S
Co678 O688 2.015 1_655 S
Co678 O691 2.264 . S
Co679 O677 2.122 . S
Co679 O690 1.976 1_655 S
Co679 O691 2.327 . S
Co679 O692 2.073 . S
H680 O677 0.980 . S
O681 Co673 2.073 . S
O681 C696 1.245 . S
O682 Co672 2.264 . S
O682 Co673 2.327 . S
O682 C696 1.257 . S
O683 Co673 1.976 1_655 S
O683 C695 1.251 . S
O684 Co674 2.109 1_665 S
O684 C695 1.274 . S
O685 Co674 2.146 . S
O685 C698 1.246 . S
O686 Co678 2.286 . S
O686 C697 1.259 . S
O687 Co678 2.069 . S
O687 C697 1.289 . S
O688 Co678 2.015 1_455 S
O688 C698 1.257 . S
O689 Co674 2.113 . S
O689 C699 1.274 . S
O690 Co679 1.976 1_455 S
O690 C699 1.251 . S
O691 Co678 2.264 . S
O691 Co679 2.327 . S
O691 C700 1.257 . S
O692 Co679 2.073 . S
O692 C700 1.245 . S
C693 O701 1.259 . S
C693 O702 1.289 . S
C694 O703 1.246 . S
C694 O704 1.257 . S
C695 O683 1.251 . S
C695 O684 1.274 . S
C696 O681 1.245 . S
C696 O682 1.257 . S
C697 O686 1.259 . S
C697 O687 1.289 . S
C698 O685 1.246 . S
C698 O688 1.257 . S
C699 O689 1.274 . S
C699 O690 1.251 . S
C700 O691 1.257 . S
C700 O692 1.245 . S
O701 Co672 2.286 . S
O701 C693 1.259 . S
O702 Co672 2.069 . S
O702 C693 1.289 . S
O703 Co674 2.141 1_665 S
O703 C694 1.246 . S
O704 Co672 2.015 1_655 S
O704 C694 1.257 . S
Co705 O708 2.042 1_556 S
Co705 O715 2.264 1_556 S
Co705 O734 2.286 . S
Co705 O735 2.069 . S
Co705 O737 2.015 . S
Co706 O708 2.122 . S
Co706 O714 2.073 . S
Co706 O715 2.327 . S
Co706 O716 1.976 . S
Co707 O708 2.084 1_545 S
Co707 O710 2.090 1_554 S
Co707 O717 2.111 1_545 S
Co707 O718 2.145 . S
Co707 O722 2.112 1_554 S
Co707 O736 2.142 1_544 S
O708 Co705 2.042 1_554 S
O708 Co706 2.122 . S
O708 Co707 2.084 1_565 S
O708 H709 0.980 . S
H709 O708 0.980 . S
O710 Co707 2.090 1_556 S
O710 Co711 2.042 1_556 S
O710 Co712 2.122 . S
O710 H713 0.980 . S
Co711 O710 2.042 1_554 S
Co711 O719 2.286 . S
Co711 O720 2.069 . S
Co711 O721 2.015 . S
Co711 O724 2.264 1_554 S
Co712 O710 2.122 . S
Co712 O723 1.976 . S
Co712 O724 2.327 . S
Co712 O725 2.073 . S
H713 O710 0.980 . S
O714 Co706 2.073 . S
O714 C729 1.245 . S
O715 Co705 2.264 1_554 S
O715 Co706 2.327 . S
O715 C729 1.257 . S
O716 Co706 1.976 . S
O716 C728 1.251 . S
O717 Co707 2.111 1_565 S
O717 C728 1.274 . S
O718 Co707 2.145 . S
O718 C731 1.246 . S
O719 Co711 2.286 . S
O719 C730 1.259 . S
O720 Co711 2.069 . S
O720 C730 1.289 . S
O721 Co711 2.015 . S
O721 C731 1.257 . S
O722 Co707 2.112 1_556 S
O722 C732 1.274 . S
O723 Co712 1.976 . S
O723 C732 1.251 . S
O724 Co711 2.264 1_556 S
O724 Co712 2.327 . S
O724 C733 1.257 . S
O725 Co712 2.073 . S
O725 C733 1.245 . S
C726 O734 1.259 . S
C726 O735 1.289 . S
C727 O736 1.246 . S
C727 O737 1.257 . S
C728 O716 1.251 . S
C728 O717 1.274 . S
C729 O714 1.245 . S
C729 O715 1.257 . S
C730 O719 1.259 . S
C730 O720 1.289 . S
C731 O718 1.246 . S
C731 O721 1.257 . S
C732 O722 1.274 . S
C732 O723 1.251 . S
C733 O724 1.257 . S
C733 O725 1.245 . S
O734 Co705 2.286 . S
O734 C726 1.259 . S
O735 Co705 2.069 . S
O735 C726 1.289 . S
O736 Co707 2.142 1_566 S
O736 C727 1.246 . S
O737 Co705 2.015 . S
O737 C727 1.257 . S
Co738 O741 2.042 1_556 S
Co738 O748 2.264 1_556 S
Co738 O767 2.286 . S
Co738 O768 2.069 . S
Co738 O770 2.015 1_455 S
Co739 O741 2.122 . S
Co739 O747 2.073 . S
Co739 O748 2.327 . S
Co739 O749 1.976 1_455 S
Co740 O741 2.089 . S
Co740 O743 2.085 1_454 S
Co740 O750 2.110 1_455 S
Co740 O751 2.144 . S
Co740 O755 2.113 1_554 S
Co740 O769 2.143 1_454 S
O741 Co738 2.042 1_554 S
O741 Co739 2.122 . S
O741 Co740 2.089 . S
O741 H742 0.980 . S
H742 O741 0.980 . S
O743 Co740 2.085 1_656 S
O743 Co744 2.042 1_556 S
O743 Co745 2.122 . S
O743 H746 0.980 . S
Co744 O743 2.042 1_554 S
Co744 O752 2.286 . S
Co744 O753 2.069 . S
Co744 O754 2.015 1_655 S
Co744 O757 2.264 1_554 S
Co745 O743 2.122 . S
Co745 O756 1.976 1_655 S
Co745 O757 2.327 . S
Co745 O758 2.073 . S
H746 O743 0.980 . S
O747 Co739 2.073 . S
O747 C762 1.245 . S
O748 Co738 2.264 1_554 S
O748 Co739 2.327 . S
O748 C762 1.257 . S
O749 Co739 1.976 1_655 S
O749 C761 1.251 . S
O750 Co740 2.110 1_655 S
O750 C761 1.274 . S
O751 Co740 2.144 . S
O751 C764 1.246 . S
O752 Co744 2.286 . S
O752 C763 1.259 . S
O753 Co744 2.069 . S
O753 C763 1.289 . S
O754 Co744 2.015 1_455 S
O754 C764 1.257 . S
O755 Co740 2.113 1_556 S
O755 C765 1.274 . S
O756 Co745 1.976 1_455 S
O756 C765 1.251 . S
O757 Co744 2.264 1_556 S
O757 Co745 2.327 . S
O757 C766 1.257 . S
O758 Co745 2.073 . S
O758 C766 1.245 . S
C759 O767 1.259 . S
C759 O768 1.289 . S
C760 O769 1.246 . S
C760 O770 1.257 . S
C761 O749 1.251 . S
C761 O750 1.274 . S
C762 O747 1.245 . S
C762 O748 1.257 . S
C763 O752 1.259 . S
C763 O753 1.289 . S
C764 O751 1.246 . S
C764 O754 1.257 . S
C765 O755 1.274 . S
C765 O756 1.251 . S
C766 O757 1.257 . S
C766 O758 1.245 . S
O767 Co738 2.286 . S
O767 C759 1.259 . S
O768 Co738 2.069 . S
O768 C759 1.289 . S
O769 Co740 2.143 1_656 S
O769 C760 1.246 . S
O770 Co738 2.015 1_655 S
O770 C760 1.257 . S
Co771 O774 2.042 1_556 S
Co771 O781 2.264 1_556 S
Co771 O800 2.286 . S
Co771 O801 2.069 . S
Co771 O803 2.015 . S
Co772 O774 2.122 . S
Co772 O780 2.073 . S
Co772 O781 2.327 . S
Co772 O782 1.976 . S
Co773 O774 2.087 . S
Co773 O776 2.087 1_554 S
Co773 O783 2.111 . S
Co773 O784 2.143 . S
Co773 O788 2.111 1_554 S
Co773 O802 2.143 1_554 S
O774 Co771 2.042 1_554 S
O774 Co772 2.122 . S
O774 Co773 2.087 . S
O774 H775 0.980 . S
H775 O774 0.980 . S
O776 Co773 2.087 1_556 S
O776 Co777 2.042 1_556 S
O776 Co778 2.122 . S
O776 H779 0.980 . S
Co777 O776 2.042 1_554 S
Co777 O785 2.286 . S
Co777 O786 2.069 . S
Co777 O787 2.015 . S
Co777 O790 2.264 1_554 S
Co778 O776 2.122 . S
Co778 O789 1.976 . S
Co778 O790 2.327 . S
Co778 O791 2.073 . S
H779 O776 0.980 . S
O780 Co772 2.073 . S
O780 C795 1.245 . S
O781 Co771 2.264 1_554 S
O781 Co772 2.327 . S
O781 C795 1.257 . S
O782 Co772 1.976 . S
O782 C794 1.251 . S
O783 Co773 2.111 . S
O783 C794 1.274 . S
O784 Co773 2.143 . S
O784 C797 1.246 . S
O785 Co777 2.286 . S
O785 C796 1.259 . S
O786 Co777 2.069 . S
O786 C796 1.289 . S
O787 Co777 2.015 . S
O787 C797 1.257 . S
O788 Co773 2.111 1_556 S
O788 C798 1.274 . S
O789 Co778 1.976 . S
O789 C798 1.251 . S
O790 Co777 2.264 1_556 S
O790 Co778 2.327 . S
O790 C799 1.257 . S
O791 Co778 2.073 . S
O791 C799 1.245 . S
C792 O800 1.259 . S
C792 O801 1.289 . S
C793 O802 1.246 . S
C793 O803 1.257 . S
C794 O782 1.251 . S
C794 O783 1.274 . S
C795 O780 1.245 . S
C795 O781 1.257 . S
C796 O785 1.259 . S
C796 O786 1.289 . S
C797 O784 1.246 . S
C797 O787 1.257 . S
C798 O788 1.274 . S
C798 O789 1.251 . S
C799 O790 1.257 . S
C799 O791 1.245 . S
O800 Co771 2.286 . S
O800 C792 1.259 . S
O801 Co771 2.069 . S
O801 C792 1.289 . S
O802 Co773 2.143 1_556 S
O802 C793 1.246 . S
O803 Co771 2.015 . S
O803 C793 1.257 . S
Co804 O807 2.042 . S
Co804 O814 2.264 . S
Co804 O833 2.286 . S
Co804 O834 2.069 . S
Co804 O836 2.015 . S
Co805 O807 2.122 . S
Co805 O813 2.073 . S
Co805 O814 2.327 . S
Co805 O815 1.976 . S
Co806 O807 2.089 . S
Co806 O809 2.085 1_455 S
Co806 O816 2.112 . S
Co806 O817 2.142 1_455 S
Co806 O821 2.111 1_455 S
Co806 O835 2.145 . S
O807 Co804 2.042 . S
O807 Co805 2.122 . S
O807 Co806 2.089 . S
O807 H808 0.980 . S
H808 O807 0.980 . S
O809 Co806 2.085 1_655 S
O809 Co810 2.042 . S
O809 Co811 2.122 . S
O809 H812 0.980 . S
Co810 O809 2.042 . S
Co810 O818 2.286 . S
Co810 O819 2.069 . S
Co810 O820 2.015 . S
Co810 O823 2.264 . S
Co811 O809 2.122 . S
Co811 O822 1.976 . S
Co811 O823 2.327 . S
Co811 O824 2.073 . S
H812 O809 0.980 . S
O813 Co805 2.073 . S
O813 C828 1.245 . S
O814 Co804 2.264 . S
O814 Co805 2.327 . S
O814 C828 1.257 . S
O815 Co805 1.976 . S
O815 C827 1.251 . S
O816 Co806 2.112 . S
O816 C827 1.274 . S
O817 Co806 2.142 1_655 S
O817 C830 1.246 . S
O818 Co810 2.286 . S
O818 C829 1.259 . S
O819 Co810 2.069 . S
O819 C829 1.289 . S
O820 Co810 2.015 . S
O820 C830 1.257 . S
O821 Co806 2.111 1_655 S
O821 C831 1.274 . S
O822 Co811 1.976 . S
O822 C831 1.251 . S
O823 Co810 2.264 . S
O823 Co811 2.327 . S
O823 C832 1.257 . S
O824 Co811 2.073 . S
O824 C832 1.245 . S
C825 O833 1.259 . S
C825 O834 1.289 . S
C826 O835 1.246 . S
C826 O836 1.257 . S
C827 O815 1.251 . S
C827 O816 1.274 . S
C828 O813 1.245 . S
C828 O814 1.257 . S
C829 O818 1.259 . S
C829 O819 1.289 . S
C830 O817 1.246 . S
C830 O820 1.257 . S
C831 O821 1.274 . S
C831 O822 1.251 . S
C832 O823 1.257 . S
C832 O824 1.245 . S
O833 Co804 2.286 . S
O833 C825 1.259 . S
O834 Co804 2.069 . S
O834 C825 1.289 . S
O835 Co806 2.145 . S
O835 C826 1.246 . S
O836 Co804 2.015 . S
O836 C826 1.257 . S
Co837 O840 2.042 . S
Co837 O847 2.264 . S
Co837 O866 2.286 . S
Co837 O867 2.069 . S
Co837 O869 2.015 1_565 S
Co838 O840 2.122 . S
Co838 O846 2.073 . S
Co838 O847 2.327 . S
Co838 O848 1.976 1_565 S
Co839 O840 2.084 1_545 S
Co839 O842 2.090 . S
Co839 O849 2.113 . S
Co839 O850 2.142 1_545 S
Co839 O854 2.110 1_545 S
Co839 O868 2.145 . S
O840 Co837 2.042 . S
O840 Co838 2.122 . S
O840 Co839 2.084 1_565 S
O840 H841 0.980 . S
H841 O840 0.980 . S
O842 Co839 2.090 . S
O842 Co843 2.042 . S
O842 Co844 2.122 . S
O842 H845 0.980 . S
Co843 O842 2.042 . S
Co843 O851 2.286 . S
Co843 O852 2.069 . S
Co843 O853 2.015 1_545 S
Co843 O856 2.264 . S
Co844 O842 2.122 . S
Co844 O855 1.976 1_545 S
Co844 O856 2.327 . S
Co844 O857 2.073 . S
H845 O842 0.980 . S
O846 Co838 2.073 . S
O846 C861 1.245 . S
O847 Co837 2.264 . S
O847 Co838 2.327 . S
O847 C861 1.257 . S
O848 Co838 1.976 1_545 S
O848 C860 1.251 . S
O849 Co839 2.113 . S
O849 C860 1.274 . S
O850 Co839 2.142 1_565 S
O850 C863 1.246 . S
O851 Co843 2.286 . S
O851 C862 1.259 . S
O852 Co843 2.069 . S
O852 C862 1.289 . S
O853 Co843 2.015 1_565 S
O853 C863 1.257 . S
O854 Co839 2.110 1_565 S
O854 C864 1.274 . S
O855 Co844 1.976 1_565 S
O855 C864 1.251 . S
O856 Co843 2.264 . S
O856 Co844 2.327 . S
O856 C865 1.257 . S
O857 Co844 2.073 . S
O857 C865 1.245 . S
C858 O866 1.259 . S
C858 O867 1.289 . S
C859 O868 1.246 . S
C859 O869 1.257 . S
C860 O848 1.251 . S
C860 O849 1.274 . S
C861 O846 1.245 . S
C861 O847 1.257 . S
C862 O851 1.259 . S
C862 O852 1.289 . S
C863 O850 1.246 . S
C863 O853 1.257 . S
C864 O854 1.274 . S
C864 O855 1.251 . S
C865 O856 1.257 . S
C865 O857 1.245 . S
O866 Co837 2.286 . S
O866 C858 1.259 . S
O867 Co837 2.069 . S
O867 C858 1.289 . S
O868 Co839 2.145 . S
O868 C859 1.246 . S
O869 Co837 2.015 1_545 S
O869 C859 1.257 . S
H870 C876 0.930 . S
H871 C879 0.930 . S
H872 C880 0.930 . S
H873 C881 0.930 . S
H874 C884 0.930 . S
H875 C885 0.930 . S
C876 H870 0.930 . S
C876 C877 1.355 . S
C876 C878 1.415 . S
C877 C876 1.355 . S
C877 C879 1.419 . S
C878 C876 1.415 . S
C878 C883 1.425 . S
C878 C885 1.409 . S
C879 H871 0.930 . S
C879 C877 1.419 . S
C879 C880 1.362 . S
C880 H872 0.930 . S
C880 C879 1.362 . S
C880 C883 1.409 . S
C881 H873 0.930 . S
C881 C882 1.355 . S
C881 C883 1.415 . S
C882 C881 1.355 . S
C882 C884 1.419 . S
C883 C878 1.425 . S
C883 C880 1.409 . S
C883 C881 1.415 . S
C884 H874 0.930 . S
C884 C882 1.419 . S
C884 C885 1.362 . S
C885 H875 0.930 . S
C885 C878 1.409 . S
C885 C884 1.362 . S
H886 C892 0.930 . S
H887 C895 0.930 . S
H888 C896 0.930 . S
H889 C897 0.930 . S
H890 C900 0.930 . S
H891 C901 0.930 . S
C892 H886 0.930 . S
C892 C893 1.355 . S
C892 C894 1.415 . S
C893 C892 1.355 . S
C893 C895 1.419 . S
C894 C892 1.415 . S
C894 C899 1.425 . S
C894 C901 1.409 . S
C895 H887 0.930 . S
C895 C893 1.419 . S
C895 C896 1.362 . S
C896 H888 0.930 . S
C896 C895 1.362 . S
C896 C899 1.409 . S
C897 H889 0.930 . S
C897 C898 1.355 . S
C897 C899 1.415 . S
C898 C897 1.355 . S
C898 C900 1.419 . S
C899 C894 1.425 . S
C899 C896 1.409 . S
C899 C897 1.415 . S
C900 H890 0.930 . S
C900 C898 1.419 . S
C900 C901 1.362 . S
C901 H891 0.930 . S
C901 C894 1.409 . S
C901 C900 1.362 . S
H902 C908 0.930 . S
H903 C911 0.930 . S
H904 C912 0.930 . S
H905 C913 0.930 . S
H906 C916 0.930 . S
H907 C917 0.930 . S
C908 H902 0.930 . S
C908 C909 1.355 . S
C908 C910 1.415 . S
C909 C908 1.355 . S
C909 C911 1.419 . S
C910 C908 1.415 . S
C910 C915 1.425 . S
C910 C917 1.409 . S
C911 H903 0.930 . S
C911 C909 1.419 . S
C911 C912 1.362 . S
C912 H904 0.930 . S
C912 C911 1.362 . S
C912 C915 1.409 . S
C913 H905 0.930 . S
C913 C914 1.355 . S
C913 C915 1.415 . S
C914 C913 1.355 . S
C914 C916 1.419 . S
C915 C910 1.425 . S
C915 C912 1.409 . S
C915 C913 1.415 . S
C916 H906 0.930 . S
C916 C914 1.419 . S
C916 C917 1.362 . S
C917 H907 0.930 . S
C917 C910 1.409 . S
C917 C916 1.362 . S
H918 C924 0.930 . S
H919 C927 0.930 . S
H920 C928 0.930 . S
H921 C929 0.930 . S
H922 C932 0.930 . S
H923 C933 0.930 . S
C924 H918 0.930 . S
C924 C925 1.355 . S
C924 C926 1.415 . S
C925 C924 1.355 . S
C925 C927 1.419 . S
C926 C924 1.415 . S
C926 C931 1.425 . S
C926 C933 1.409 . S
C927 H919 0.930 . S
C927 C925 1.419 . S
C927 C928 1.362 . S
C928 H920 0.930 . S
C928 C927 1.362 . S
C928 C931 1.409 . S
C929 H921 0.930 . S
C929 C930 1.355 . S
C929 C931 1.415 . S
C930 C929 1.355 . S
C930 C932 1.419 . S
C931 C926 1.425 . S
C931 C928 1.409 . S
C931 C929 1.415 . S
C932 H922 0.930 . S
C932 C930 1.419 . S
C932 C933 1.362 . S
C933 H923 0.930 . S
C933 C926 1.409 . S
C933 C932 1.362 . S
H934 C940 0.930 . S
H935 C943 0.930 . S
H936 C944 0.930 . S
H937 C945 0.930 . S
H938 C948 0.930 . S
H939 C949 0.930 . S
C940 H934 0.930 . S
C940 C941 1.355 . S
C940 C942 1.415 . S
C941 C940 1.355 . S
C941 C943 1.419 . S
C942 C940 1.415 . S
C942 C947 1.425 . S
C942 C949 1.409 . S
C943 H935 0.930 . S
C943 C941 1.419 . S
C943 C944 1.362 . S
C944 H936 0.930 . S
C944 C943 1.362 . S
C944 C947 1.409 . S
C945 H937 0.930 . S
C945 C946 1.355 . S
C945 C947 1.415 . S
C946 C945 1.355 . S
C946 C948 1.419 . S
C947 C942 1.425 . S
C947 C944 1.409 . S
C947 C945 1.415 . S
C948 H938 0.930 . S
C948 C946 1.419 . S
C948 C949 1.362 . S
C949 H939 0.930 . S
C949 C942 1.409 . S
C949 C948 1.362 . S
H950 C956 0.930 . S
H951 C959 0.930 . S
H952 C960 0.930 . S
H953 C961 0.930 . S
H954 C964 0.930 . S
H955 C965 0.930 . S
C956 H950 0.930 . S
C956 C957 1.355 . S
C956 C958 1.415 . S
C957 C956 1.355 . S
C957 C959 1.419 . S
C958 C956 1.415 . S
C958 C963 1.425 . S
C958 C965 1.409 . S
C959 H951 0.930 . S
C959 C957 1.419 . S
C959 C960 1.362 . S
C960 H952 0.930 . S
C960 C959 1.362 . S
C960 C963 1.409 . S
C961 H953 0.930 . S
C961 C962 1.355 . S
C961 C963 1.415 . S
C962 C961 1.355 . S
C962 C964 1.419 . S
C963 C958 1.425 . S
C963 C960 1.409 . S
C963 C961 1.415 . S
C964 H954 0.930 . S
C964 C962 1.419 . S
C964 C965 1.362 . S
C965 H955 0.930 . S
C965 C958 1.409 . S
C965 C964 1.362 . S
H966 C972 0.930 . S
H967 C975 0.930 . S
H968 C976 0.930 . S
H969 C977 0.930 . S
H970 C980 0.930 . S
H971 C981 0.930 . S
C972 H966 0.930 . S
C972 C973 1.355 . S
C972 C974 1.415 . S
C973 C972 1.355 . S
C973 C975 1.419 . S
C974 C972 1.415 . S
C974 C979 1.425 . S
C974 C981 1.409 . S
C975 H967 0.930 . S
C975 C973 1.419 . S
C975 C976 1.362 . S
C976 H968 0.930 . S
C976 C975 1.362 . S
C976 C979 1.409 . S
C977 H969 0.930 . S
C977 C978 1.355 . S
C977 C979 1.415 . S
C978 C977 1.355 . S
C978 C980 1.419 . S
C979 C974 1.425 . S
C979 C976 1.409 . S
C979 C977 1.415 . S
C980 H970 0.930 . S
C980 C978 1.419 . S
C980 C981 1.362 . S
C981 H971 0.930 . S
C981 C974 1.409 . S
C981 C980 1.362 . S
H982 C988 0.930 . S
H983 C991 0.930 . S
H984 C992 0.930 . S
H985 C993 0.930 . S
H986 C996 0.930 . S
H987 C997 0.930 . S
C988 H982 0.930 . S
C988 C989 1.355 . S
C988 C990 1.415 . S
C989 C988 1.355 . S
C989 C991 1.419 . S
C990 C988 1.415 . S
C990 C995 1.425 . S
C990 C997 1.409 . S
C991 H983 0.930 . S
C991 C989 1.419 . S
C991 C992 1.362 . S
C992 H984 0.930 . S
C992 C991 1.362 . S
C992 C995 1.409 . S
C993 H985 0.930 . S
C993 C994 1.355 . S
C993 C995 1.415 . S
C994 C993 1.355 . S
C994 C996 1.419 . S
C995 C990 1.425 . S
C995 C992 1.409 . S
C995 C993 1.415 . S
C996 H986 0.930 . S
C996 C994 1.419 . S
C996 C997 1.362 . S
C997 H987 0.930 . S
C997 C990 1.409 . S
C997 C996 1.362 . S
H998 C1004 0.930 . S
H999 C1007 0.930 . S
H1000 C1008 0.930 . S
H1001 C1009 0.930 . S
H1002 C1012 0.930 . S
H1003 C1013 0.930 . S
C1004 H998 0.930 . S
C1004 C1005 1.355 . S
C1004 C1006 1.415 . S
C1005 C1004 1.355 . S
C1005 C1007 1.419 . S
C1006 C1004 1.415 . S
C1006 C1011 1.425 . S
C1006 C1013 1.409 . S
C1007 H999 0.930 . S
C1007 C1005 1.419 . S
C1007 C1008 1.362 . S
C1008 H1000 0.930 . S
C1008 C1007 1.362 . S
C1008 C1011 1.409 . S
C1009 H1001 0.930 . S
C1009 C1010 1.355 . S
C1009 C1011 1.415 . S
C1010 C1009 1.355 . S
C1010 C1012 1.419 . S
C1011 C1006 1.425 . S
C1011 C1008 1.409 . S
C1011 C1009 1.415 . S
C1012 H1002 0.930 . S
C1012 C1010 1.419 . S
C1012 C1013 1.362 . S
C1013 H1003 0.930 . S
C1013 C1006 1.409 . S
C1013 C1012 1.362 . S
H1014 C1020 0.930 . S
H1015 C1023 0.930 . S
H1016 C1024 0.930 . S
H1017 C1025 0.930 . S
H1018 C1028 0.930 . S
H1019 C1029 0.930 . S
C1020 H1014 0.930 . S
C1020 C1021 1.355 . S
C1020 C1022 1.415 . S
C1021 C1020 1.355 . S
C1021 C1023 1.419 . S
C1022 C1020 1.415 . S
C1022 C1027 1.425 . S
C1022 C1029 1.409 . S
C1023 H1015 0.930 . S
C1023 C1021 1.419 . S
C1023 C1024 1.362 . S
C1024 H1016 0.930 . S
C1024 C1023 1.362 . S
C1024 C1027 1.409 . S
C1025 H1017 0.930 . S
C1025 C1026 1.355 . S
C1025 C1027 1.415 . S
C1026 C1025 1.355 . S
C1026 C1028 1.419 . S
C1027 C1022 1.425 . S
C1027 C1024 1.409 . S
C1027 C1025 1.415 . S
C1028 H1018 0.930 . S
C1028 C1026 1.419 . S
C1028 C1029 1.362 . S
C1029 H1019 0.930 . S
C1029 C1022 1.409 . S
C1029 C1028 1.362 . S
H1030 C1036 0.930 . S
H1031 C1039 0.930 . S
H1032 C1040 0.930 . S
H1033 C1041 0.930 . S
H1034 C1044 0.930 . S
H1035 C1045 0.930 . S
C1036 H1030 0.930 . S
C1036 C1037 1.355 . S
C1036 C1038 1.415 . S
C1037 C1036 1.355 . S
C1037 C1039 1.419 . S
C1038 C1036 1.415 . S
C1038 C1043 1.425 . S
C1038 C1045 1.409 . S
C1039 H1031 0.930 . S
C1039 C1037 1.419 . S
C1039 C1040 1.362 . S
C1040 H1032 0.930 . S
C1040 C1039 1.362 . S
C1040 C1043 1.409 . S
C1041 H1033 0.930 . S
C1041 C1042 1.355 . S
C1041 C1043 1.415 . S
C1042 C1041 1.355 . S
C1042 C1044 1.419 . S
C1043 C1038 1.425 . S
C1043 C1040 1.409 . S
C1043 C1041 1.415 . S
C1044 H1034 0.930 . S
C1044 C1042 1.419 . S
C1044 C1045 1.362 . S
C1045 H1035 0.930 . S
C1045 C1038 1.409 . S
C1045 C1044 1.362 . S
H1046 C1052 0.930 . S
H1047 C1055 0.930 . S
H1048 C1056 0.930 . S
H1049 C1057 0.930 . S
H1050 C1060 0.930 . S
H1051 C1061 0.930 . S
C1052 H1046 0.930 . S
C1052 C1053 1.355 . S
C1052 C1054 1.415 . S
C1053 C1052 1.355 . S
C1053 C1055 1.419 . S
C1054 C1052 1.415 . S
C1054 C1059 1.425 . S
C1054 C1061 1.409 . S
C1055 H1047 0.930 . S
C1055 C1053 1.419 . S
C1055 C1056 1.362 . S
C1056 H1048 0.930 . S
C1056 C1055 1.362 . S
C1056 C1059 1.409 . S
C1057 H1049 0.930 . S
C1057 C1058 1.355 . S
C1057 C1059 1.415 . S
C1058 C1057 1.355 . S
C1058 C1060 1.419 . S
C1059 C1054 1.425 . S
C1059 C1056 1.409 . S
C1059 C1057 1.415 . S
C1060 H1050 0.930 . S
C1060 C1058 1.419 . S
C1060 C1061 1.362 . S
C1061 H1051 0.930 . S
C1061 C1054 1.409 . S
C1061 C1060 1.362 . S
H1062 C1068 0.930 . S
H1063 C1071 0.930 . S
H1064 C1072 0.930 . S
H1065 C1073 0.930 . S
H1066 C1076 0.930 . S
H1067 C1077 0.930 . S
C1068 H1062 0.930 . S
C1068 C1069 1.355 . S
C1068 C1070 1.415 . S
C1069 C1068 1.355 . S
C1069 C1071 1.419 . S
C1070 C1068 1.415 . S
C1070 C1075 1.425 . S
C1070 C1077 1.409 . S
C1071 H1063 0.930 . S
C1071 C1069 1.419 . S
C1071 C1072 1.362 . S
C1072 H1064 0.930 . S
C1072 C1071 1.362 . S
C1072 C1075 1.409 . S
C1073 H1065 0.930 . S
C1073 C1074 1.355 . S
C1073 C1075 1.415 . S
C1074 C1073 1.355 . S
C1074 C1076 1.419 . S
C1075 C1070 1.425 . S
C1075 C1072 1.409 . S
C1075 C1073 1.415 . S
C1076 H1066 0.930 . S
C1076 C1074 1.419 . S
C1076 C1077 1.362 . S
C1077 H1067 0.930 . S
C1077 C1070 1.409 . S
C1077 C1076 1.362 . S
H1078 C1084 0.930 . S
H1079 C1087 0.930 . S
H1080 C1088 0.930 . S
H1081 C1089 0.930 . S
H1082 C1092 0.930 . S
H1083 C1093 0.930 . S
C1084 H1078 0.930 . S
C1084 C1085 1.355 . S
C1084 C1086 1.415 . S
C1085 C1084 1.355 . S
C1085 C1087 1.419 . S
C1086 C1084 1.415 . S
C1086 C1091 1.425 . S
C1086 C1093 1.409 . S
C1087 H1079 0.930 . S
C1087 C1085 1.419 . S
C1087 C1088 1.362 . S
C1088 H1080 0.930 . S
C1088 C1087 1.362 . S
C1088 C1091 1.409 . S
C1089 H1081 0.930 . S
C1089 C1090 1.355 . S
C1089 C1091 1.415 . S
C1090 C1089 1.355 . S
C1090 C1092 1.419 . S
C1091 C1086 1.425 . S
C1091 C1088 1.409 . S
C1091 C1089 1.415 . S
C1092 H1082 0.930 . S
C1092 C1090 1.419 . S
C1092 C1093 1.362 . S
C1093 H1083 0.930 . S
C1093 C1086 1.409 . S
C1093 C1092 1.362 . S
H1094 C1100 0.930 . S
H1095 C1103 0.930 . S
H1096 C1104 0.930 . S
H1097 C1105 0.930 . S
H1098 C1108 0.930 . S
H1099 C1109 0.930 . S
C1100 H1094 0.930 . S
C1100 C1101 1.355 . S
C1100 C1102 1.415 . S
C1101 C1100 1.355 . S
C1101 C1103 1.419 . S
C1102 C1100 1.415 . S
C1102 C1107 1.425 . S
C1102 C1109 1.409 . S
C1103 H1095 0.930 . S
C1103 C1101 1.419 . S
C1103 C1104 1.362 . S
C1104 H1096 0.930 . S
C1104 C1103 1.362 . S
C1104 C1107 1.409 . S
C1105 H1097 0.930 . S
C1105 C1106 1.355 . S
C1105 C1107 1.415 . S
C1106 C1105 1.355 . S
C1106 C1108 1.419 . S
C1107 C1102 1.425 . S
C1107 C1104 1.409 . S
C1107 C1105 1.415 . S
C1108 H1098 0.930 . S
C1108 C1106 1.419 . S
C1108 C1109 1.362 . S
C1109 H1099 0.930 . S
C1109 C1102 1.409 . S
C1109 C1108 1.362 . S
H1110 C1116 0.930 . S
H1111 C1119 0.930 . S
H1112 C1120 0.930 . S
H1113 C1121 0.930 . S
H1114 C1124 0.930 . S
H1115 C1125 0.930 . S
C1116 H1110 0.930 . S
C1116 C1117 1.355 . S
C1116 C1118 1.415 . S
C1117 C1116 1.355 . S
C1117 C1119 1.419 . S
C1118 C1116 1.415 . S
C1118 C1123 1.425 . S
C1118 C1125 1.409 . S
C1119 H1111 0.930 . S
C1119 C1117 1.419 . S
C1119 C1120 1.362 . S
C1120 H1112 0.930 . S
C1120 C1119 1.362 . S
C1120 C1123 1.409 . S
C1121 H1113 0.930 . S
C1121 C1122 1.355 . S
C1121 C1123 1.415 . S
C1122 C1121 1.355 . S
C1122 C1124 1.419 . S
C1123 C1118 1.425 . S
C1123 C1120 1.409 . S
C1123 C1121 1.415 . S
C1124 H1114 0.930 . S
C1124 C1122 1.419 . S
C1124 C1125 1.362 . S
C1125 H1115 0.930 . S
C1125 C1118 1.409 . S
C1125 C1124 1.362 . S
H1126 C1132 0.930 . S
H1127 C1135 0.930 . S
H1128 C1136 0.930 . S
H1129 C1137 0.930 . S
H1130 C1140 0.930 . S
H1131 C1141 0.930 . S
C1132 H1126 0.930 . S
C1132 C1133 1.355 . S
C1132 C1134 1.415 . S
C1133 C1132 1.355 . S
C1133 C1135 1.419 . S
C1134 C1132 1.415 . S
C1134 C1139 1.425 . S
C1134 C1141 1.409 . S
C1135 H1127 0.930 . S
C1135 C1133 1.419 . S
C1135 C1136 1.362 . S
C1136 H1128 0.930 . S
C1136 C1135 1.362 . S
C1136 C1139 1.409 . S
C1137 H1129 0.930 . S
C1137 C1138 1.355 . S
C1137 C1139 1.415 . S
C1138 C1137 1.355 . S
C1138 C1140 1.419 . S
C1139 C1134 1.425 . S
C1139 C1136 1.409 . S
C1139 C1137 1.415 . S
C1140 H1130 0.930 . S
C1140 C1138 1.419 . S
C1140 C1141 1.362 . S
C1141 H1131 0.930 . S
C1141 C1134 1.409 . S
C1141 C1140 1.362 . S
H1142 C1148 0.930 . S
H1143 C1151 0.930 . S
H1144 C1152 0.930 . S
H1145 C1153 0.930 . S
H1146 C1156 0.930 . S
H1147 C1157 0.930 . S
C1148 H1142 0.930 . S
C1148 C1149 1.355 . S
C1148 C1150 1.415 . S
C1149 C1148 1.355 . S
C1149 C1151 1.419 . S
C1150 C1148 1.415 . S
C1150 C1155 1.425 . S
C1150 C1157 1.409 . S
C1151 H1143 0.930 . S
C1151 C1149 1.419 . S
C1151 C1152 1.362 . S
C1152 H1144 0.930 . S
C1152 C1151 1.362 . S
C1152 C1155 1.409 . S
C1153 H1145 0.930 . S
C1153 C1154 1.355 . S
C1153 C1155 1.415 . S
C1154 C1153 1.355 . S
C1154 C1156 1.419 . S
C1155 C1150 1.425 . S
C1155 C1152 1.409 . S
C1155 C1153 1.415 . S
C1156 H1146 0.930 . S
C1156 C1154 1.419 . S
C1156 C1157 1.362 . S
C1157 H1147 0.930 . S
C1157 C1150 1.409 . S
C1157 C1156 1.362 . S
H1158 C1164 0.930 . S
H1159 C1167 0.930 . S
H1160 C1168 0.930 . S
H1161 C1169 0.930 . S
H1162 C1172 0.930 . S
H1163 C1173 0.930 . S
C1164 H1158 0.930 . S
C1164 C1165 1.355 . S
C1164 C1166 1.415 . S
C1165 C1164 1.355 . S
C1165 C1167 1.419 . S
C1166 C1164 1.415 . S
C1166 C1171 1.425 . S
C1166 C1173 1.409 . S
C1167 H1159 0.930 . S
C1167 C1165 1.419 . S
C1167 C1168 1.362 . S
C1168 H1160 0.930 . S
C1168 C1167 1.362 . S
C1168 C1171 1.409 . S
C1169 H1161 0.930 . S
C1169 C1170 1.355 . S
C1169 C1171 1.415 . S
C1170 C1169 1.355 . S
C1170 C1172 1.419 . S
C1171 C1166 1.425 . S
C1171 C1168 1.409 . S
C1171 C1169 1.415 . S
C1172 H1162 0.930 . S
C1172 C1170 1.419 . S
C1172 C1173 1.362 . S
C1173 H1163 0.930 . S
C1173 C1166 1.409 . S
C1173 C1172 1.362 . S
H1174 C1180 0.930 . S
H1175 C1183 0.930 . S
H1176 C1184 0.930 . S
H1177 C1185 0.930 . S
H1178 C1188 0.930 . S
H1179 C1189 0.930 . S
C1180 H1174 0.930 . S
C1180 C1181 1.355 . S
C1180 C1182 1.415 . S
C1181 C1180 1.355 . S
C1181 C1183 1.419 . S
C1182 C1180 1.415 . S
C1182 C1187 1.425 . S
C1182 C1189 1.409 . S
C1183 H1175 0.930 . S
C1183 C1181 1.419 . S
C1183 C1184 1.362 . S
C1184 H1176 0.930 . S
C1184 C1183 1.362 . S
C1184 C1187 1.409 . S
C1185 H1177 0.930 . S
C1185 C1186 1.355 . S
C1185 C1187 1.415 . S
C1186 C1185 1.355 . S
C1186 C1188 1.419 . S
C1187 C1182 1.425 . S
C1187 C1184 1.409 . S
C1187 C1185 1.415 . S
C1188 H1178 0.930 . S
C1188 C1186 1.419 . S
C1188 C1189 1.362 . S
C1189 H1179 0.930 . S
C1189 C1182 1.409 . S
C1189 C1188 1.362 . S
H1190 C1196 0.930 . S
H1191 C1199 0.930 . S
H1192 C1200 0.930 . S
H1193 C1201 0.930 . S
H1194 C1204 0.930 1_554 S
H1195 C1205 0.930 1_554 S
C1196 H1190 0.930 . S
C1196 C1197 1.355 . S
C1196 C1198 1.415 . S
C1197 C1196 1.355 . S
C1197 C1199 1.419 . S
C1198 C1196 1.415 . S
C1198 C1203 1.425 . S
C1198 C1205 1.409 . S
C1199 H1191 0.930 . S
C1199 C1197 1.419 . S
C1199 C1200 1.362 . S
C1200 H1192 0.930 . S
C1200 C1199 1.362 . S
C1200 C1203 1.409 . S
C1201 H1193 0.930 . S
C1201 C1202 1.355 . S
C1201 C1203 1.415 . S
C1202 C1201 1.355 . S
C1202 C1204 1.419 . S
C1203 C1198 1.425 . S
C1203 C1200 1.409 . S
C1203 C1201 1.415 . S
C1204 H1194 0.930 1_556 S
C1204 C1202 1.419 . S
C1204 C1205 1.362 . S
C1205 H1195 0.930 1_556 S
C1205 C1198 1.409 . S
C1205 C1204 1.362 . S
H1206 C1212 0.930 . S
H1207 C1215 0.930 . S
H1208 C1216 0.930 . S
H1209 C1217 0.930 . S
H1210 C1220 0.930 . S
H1211 C1221 0.930 . S
C1212 H1206 0.930 . S
C1212 C1213 1.355 . S
C1212 C1214 1.415 . S
C1213 C1212 1.355 . S
C1213 C1215 1.419 . S
C1214 C1212 1.415 . S
C1214 C1219 1.425 . S
C1214 C1221 1.409 . S
C1215 H1207 0.930 . S
C1215 C1213 1.419 . S
C1215 C1216 1.362 . S
C1216 H1208 0.930 . S
C1216 C1215 1.362 . S
C1216 C1219 1.409 . S
C1217 H1209 0.930 . S
C1217 C1218 1.355 . S
C1217 C1219 1.415 . S
C1218 C1217 1.355 . S
C1218 C1220 1.419 . S
C1219 C1214 1.425 . S
C1219 C1216 1.409 . S
C1219 C1217 1.415 . S
C1220 H1210 0.930 . S
C1220 C1218 1.419 . S
C1220 C1221 1.362 . S
C1221 H1211 0.930 . S
C1221 C1214 1.409 . S
C1221 C1220 1.362 . S
H1222 C1228 0.930 . S
H1223 C1231 0.930 . S
H1224 C1232 0.930 . S
H1225 C1233 0.930 . S
H1226 C1236 0.930 . S
H1227 C1237 0.930 . S
C1228 H1222 0.930 . S
C1228 C1229 1.355 . S
C1228 C1230 1.415 . S
C1229 C1228 1.355 . S
C1229 C1231 1.419 . S
C1230 C1228 1.415 . S
C1230 C1235 1.425 . S
C1230 C1237 1.409 . S
C1231 H1223 0.930 . S
C1231 C1229 1.419 . S
C1231 C1232 1.362 . S
C1232 H1224 0.930 . S
C1232 C1231 1.362 . S
C1232 C1235 1.409 . S
C1233 H1225 0.930 . S
C1233 C1234 1.355 . S
C1233 C1235 1.415 . S
C1234 C1233 1.355 . S
C1234 C1236 1.419 . S
C1235 C1230 1.425 . S
C1235 C1232 1.409 . S
C1235 C1233 1.415 . S
C1236 H1226 0.930 . S
C1236 C1234 1.419 . S
C1236 C1237 1.362 . S
C1237 H1227 0.930 . S
C1237 C1230 1.409 . S
C1237 C1236 1.362 . S
H1238 C1244 0.930 . S
H1239 C1247 0.930 . S
H1240 C1248 0.930 . S
H1241 C1249 0.930 . S
H1242 C1252 0.930 . S
H1243 C1253 0.930 . S
C1244 H1238 0.930 . S
C1244 C1245 1.355 . S
C1244 C1246 1.415 . S
C1245 C1244 1.355 . S
C1245 C1247 1.419 . S
C1246 C1244 1.415 . S
C1246 C1251 1.425 . S
C1246 C1253 1.409 . S
C1247 H1239 0.930 . S
C1247 C1245 1.419 . S
C1247 C1248 1.362 . S
C1248 H1240 0.930 . S
C1248 C1247 1.362 . S
C1248 C1251 1.409 . S
C1249 H1241 0.930 . S
C1249 C1250 1.355 . S
C1249 C1251 1.415 . S
C1250 C1249 1.355 . S
C1250 C1252 1.419 . S
C1251 C1246 1.425 . S
C1251 C1248 1.409 . S
C1251 C1249 1.415 . S
C1252 H1242 0.930 . S
C1252 C1250 1.419 . S
C1252 C1253 1.362 . S
C1253 H1243 0.930 . S
C1253 C1246 1.409 . S
C1253 C1252 1.362 . S
H1254 C1260 0.930 . S
H1255 C1263 0.930 . S
H1256 C1264 0.930 . S
H1257 C1265 0.930 . S
H1258 C1268 0.930 . S
H1259 C1269 0.930 . S
C1260 H1254 0.930 . S
C1260 C1261 1.355 . S
C1260 C1262 1.415 . S
C1261 C1260 1.355 . S
C1261 C1263 1.419 . S
C1262 C1260 1.415 . S
C1262 C1267 1.425 . S
C1262 C1269 1.409 . S
C1263 H1255 0.930 . S
C1263 C1261 1.419 . S
C1263 C1264 1.362 . S
C1264 H1256 0.930 . S
C1264 C1263 1.362 . S
C1264 C1267 1.409 . S
C1265 H1257 0.930 . S
C1265 C1266 1.355 . S
C1265 C1267 1.415 . S
C1266 C1265 1.355 . S
C1266 C1268 1.419 . S
C1267 C1262 1.425 . S
C1267 C1264 1.409 . S
C1267 C1265 1.415 . S
C1268 H1258 0.930 . S
C1268 C1266 1.419 . S
C1268 C1269 1.362 . S
C1269 H1259 0.930 . S
C1269 C1262 1.409 . S
C1269 C1268 1.362 . S
H1270 C1276 0.930 . S
H1271 C1279 0.930 . S
H1272 C1280 0.930 . S
H1273 C1281 0.930 . S
H1274 C1284 0.930 . S
H1275 C1285 0.930 . S
C1276 H1270 0.930 . S
C1276 C1277 1.355 . S
C1276 C1278 1.415 . S
C1277 C1276 1.355 . S
C1277 C1279 1.419 . S
C1278 C1276 1.415 . S
C1278 C1283 1.425 . S
C1278 C1285 1.409 . S
C1279 H1271 0.930 . S
C1279 C1277 1.419 . S
C1279 C1280 1.362 . S
C1280 H1272 0.930 . S
C1280 C1279 1.362 . S
C1280 C1283 1.409 . S
C1281 H1273 0.930 . S
C1281 C1282 1.355 . S
C1281 C1283 1.415 . S
C1282 C1281 1.355 . S
C1282 C1284 1.419 . S
C1283 C1278 1.425 . S
C1283 C1280 1.409 . S
C1283 C1281 1.415 . S
C1284 H1274 0.930 . S
C1284 C1282 1.419 . S
C1284 C1285 1.362 . S
C1285 H1275 0.930 . S
C1285 C1278 1.409 . S
C1285 C1284 1.362 . S
H1286 C1292 0.930 . S
H1287 C1295 0.930 . S
H1288 C1296 0.930 . S
H1289 C1297 0.930 . S
H1290 C1300 0.930 . S
H1291 C1301 0.930 . S
C1292 H1286 0.930 . S
C1292 C1293 1.355 . S
C1292 C1294 1.415 . S
C1293 C1292 1.355 . S
C1293 C1295 1.419 . S
C1294 C1292 1.415 . S
C1294 C1299 1.425 . S
C1294 C1301 1.409 . S
C1295 H1287 0.930 . S
C1295 C1293 1.419 . S
C1295 C1296 1.362 . S
C1296 H1288 0.930 . S
C1296 C1295 1.362 . S
C1296 C1299 1.409 . S
C1297 H1289 0.930 . S
C1297 C1298 1.355 . S
C1297 C1299 1.415 . S
C1298 C1297 1.355 . S
C1298 C1300 1.419 . S
C1299 C1294 1.425 . S
C1299 C1296 1.409 . S
C1299 C1297 1.415 . S
C1300 H1290 0.930 . S
C1300 C1298 1.419 . S
C1300 C1301 1.362 . S
C1301 H1291 0.930 . S
C1301 C1294 1.409 . S
C1301 C1300 1.362 . S
H1302 C1308 0.930 . S
H1303 C1311 0.930 . S
H1304 C1312 0.930 . S
H1305 C1313 0.930 . S
H1306 C1316 0.930 . S
H1307 C1317 0.930 . S
C1308 H1302 0.930 . S
C1308 C1309 1.355 . S
C1308 C1310 1.415 . S
C1309 C1308 1.355 . S
C1309 C1311 1.419 . S
C1310 C1308 1.415 . S
C1310 C1315 1.425 . S
C1310 C1317 1.409 . S
C1311 H1303 0.930 . S
C1311 C1309 1.419 . S
C1311 C1312 1.362 . S
C1312 H1304 0.930 . S
C1312 C1311 1.362 . S
C1312 C1315 1.409 . S
C1313 H1305 0.930 . S
C1313 C1314 1.355 . S
C1313 C1315 1.415 . S
C1314 C1313 1.355 . S
C1314 C1316 1.419 . S
C1315 C1310 1.425 . S
C1315 C1312 1.409 . S
C1315 C1313 1.415 . S
C1316 H1306 0.930 . S
C1316 C1314 1.419 . S
C1316 C1317 1.362 . S
C1317 H1307 0.930 . S
C1317 C1310 1.409 . S
C1317 C1316 1.362 . S
H1318 C1324 0.930 . S
H1319 C1327 0.930 . S
H1320 C1328 0.930 . S
H1321 C1329 0.930 . S
H1322 C1332 0.930 . S
H1323 C1333 0.930 . S
C1324 H1318 0.930 . S
C1324 C1325 1.355 . S
C1324 C1326 1.415 . S
C1325 C1324 1.355 . S
C1325 C1327 1.419 . S
C1326 C1324 1.415 . S
C1326 C1331 1.425 . S
C1326 C1333 1.409 . S
C1327 H1319 0.930 . S
C1327 C1325 1.419 . S
C1327 C1328 1.362 . S
C1328 H1320 0.930 . S
C1328 C1327 1.362 . S
C1328 C1331 1.409 . S
C1329 H1321 0.930 . S
C1329 C1330 1.355 . S
C1329 C1331 1.415 . S
C1330 C1329 1.355 . S
C1330 C1332 1.419 . S
C1331 C1326 1.425 . S
C1331 C1328 1.409 . S
C1331 C1329 1.415 . S
C1332 H1322 0.930 . S
C1332 C1330 1.419 . S
C1332 C1333 1.362 . S
C1333 H1323 0.930 . S
C1333 C1326 1.409 . S
C1333 C1332 1.362 . S
H1334 C1340 0.930 . S
H1335 C1343 0.930 . S
H1336 C1344 0.930 . S
H1337 C1345 0.930 . S
H1338 C1348 0.930 . S
H1339 C1349 0.930 . S
C1340 H1334 0.930 . S
C1340 C1341 1.355 . S
C1340 C1342 1.415 . S
C1341 C1340 1.355 . S
C1341 C1343 1.419 . S
C1342 C1340 1.415 . S
C1342 C1347 1.425 . S
C1342 C1349 1.409 . S
C1343 H1335 0.930 . S
C1343 C1341 1.419 . S
C1343 C1344 1.362 . S
C1344 H1336 0.930 . S
C1344 C1343 1.362 . S
C1344 C1347 1.409 . S
C1345 H1337 0.930 . S
C1345 C1346 1.355 . S
C1345 C1347 1.415 . S
C1346 C1345 1.355 . S
C1346 C1348 1.419 . S
C1347 C1342 1.425 . S
C1347 C1344 1.409 . S
C1347 C1345 1.415 . S
C1348 H1338 0.930 . S
C1348 C1346 1.419 . S
C1348 C1349 1.362 . S
C1349 H1339 0.930 . S
C1349 C1342 1.409 . S
C1349 C1348 1.362 . S
H1350 C1356 0.930 . S
H1351 C1359 0.930 . S
H1352 C1360 0.930 . S
H1353 C1361 0.930 . S
H1354 C1364 0.930 . S
H1355 C1365 0.930 . S
C1356 H1350 0.930 . S
C1356 C1357 1.355 . S
C1356 C1358 1.415 . S
C1357 C1356 1.355 . S
C1357 C1359 1.419 . S
C1358 C1356 1.415 . S
C1358 C1363 1.425 . S
C1358 C1365 1.409 . S
C1359 H1351 0.930 . S
C1359 C1357 1.419 . S
C1359 C1360 1.362 . S
C1360 H1352 0.930 . S
C1360 C1359 1.362 . S
C1360 C1363 1.409 . S
C1361 H1353 0.930 . S
C1361 C1362 1.355 . S
C1361 C1363 1.415 . S
C1362 C1361 1.355 . S
C1362 C1364 1.419 . S
C1363 C1358 1.425 . S
C1363 C1360 1.409 . S
C1363 C1361 1.415 . S
C1364 H1354 0.930 . S
C1364 C1362 1.419 . S
C1364 C1365 1.362 . S
C1365 H1355 0.930 . S
C1365 C1358 1.409 . S
C1365 C1364 1.362 . S
H1366 C1372 0.930 . S
H1367 C1375 0.930 . S
H1368 C1376 0.930 . S
H1369 C1377 0.930 . S
H1370 C1380 0.930 . S
H1371 C1381 0.930 . S
C1372 H1366 0.930 . S
C1372 C1373 1.355 . S
C1372 C1374 1.415 . S
C1373 C1372 1.355 . S
C1373 C1375 1.419 . S
C1374 C1372 1.415 . S
C1374 C1379 1.425 . S
C1374 C1381 1.409 . S
C1375 H1367 0.930 . S
C1375 C1373 1.419 . S
C1375 C1376 1.362 . S
C1376 H1368 0.930 . S
C1376 C1375 1.362 . S
C1376 C1379 1.409 . S
C1377 H1369 0.930 . S
C1377 C1378 1.355 . S
C1377 C1379 1.415 . S
C1378 C1377 1.355 . S
C1378 C1380 1.419 . S
C1379 C1374 1.425 . S
C1379 C1376 1.409 . S
C1379 C1377 1.415 . S
C1380 H1370 0.930 . S
C1380 C1378 1.419 . S
C1380 C1381 1.362 . S
C1381 H1371 0.930 . S
C1381 C1374 1.409 . S
C1381 C1380 1.362 . S
H1382 C1388 0.930 . S
H1383 C1391 0.930 . S
H1384 C1392 0.930 . S
H1385 C1393 0.930 . S
H1386 C1396 0.930 . S
H1387 C1397 0.930 . S
C1388 H1382 0.930 . S
C1388 C1389 1.355 . S
C1388 C1390 1.415 . S
C1389 C1388 1.355 . S
C1389 C1391 1.419 . S
C1390 C1388 1.415 . S
C1390 C1395 1.425 . S
C1390 C1397 1.409 . S
C1391 H1383 0.930 . S
C1391 C1389 1.419 . S
C1391 C1392 1.362 . S
C1392 H1384 0.930 . S
C1392 C1391 1.362 . S
C1392 C1395 1.409 . S
C1393 H1385 0.930 . S
C1393 C1394 1.355 . S
C1393 C1395 1.415 . S
C1394 C1393 1.355 . S
C1394 C1396 1.419 . S
C1395 C1390 1.425 . S
C1395 C1392 1.409 . S
C1395 C1393 1.415 . S
C1396 H1386 0.930 . S
C1396 C1394 1.419 . S
C1396 C1397 1.362 . S
C1397 H1387 0.930 . S
C1397 C1390 1.409 . S
C1397 C1396 1.362 . S
H1398 C1404 0.930 . S
H1399 C1407 0.930 . S
H1400 C1408 0.930 . S
H1401 C1409 0.930 . S
H1402 C1412 0.930 . S
H1403 C1413 0.930 . S
C1404 H1398 0.930 . S
C1404 C1405 1.355 . S
C1404 C1406 1.415 . S
C1405 C1404 1.355 . S
C1405 C1407 1.419 . S
C1406 C1404 1.415 . S
C1406 C1411 1.425 . S
C1406 C1413 1.409 . S
C1407 H1399 0.930 . S
C1407 C1405 1.419 . S
C1407 C1408 1.362 . S
C1408 H1400 0.930 . S
C1408 C1407 1.362 . S
C1408 C1411 1.409 . S
C1409 H1401 0.930 . S
C1409 C1410 1.355 . S
C1409 C1411 1.415 . S
C1410 C1409 1.355 . S
C1410 C1412 1.419 . S
C1411 C1406 1.425 . S
C1411 C1408 1.409 . S
C1411 C1409 1.415 . S
C1412 H1402 0.930 . S
C1412 C1410 1.419 . S
C1412 C1413 1.362 . S
C1413 H1403 0.930 . S
C1413 C1406 1.409 . S
C1413 C1412 1.362 . S
H1414 C1420 0.930 . S
H1415 C1423 0.930 . S
H1416 C1424 0.930 . S
H1417 C1425 0.930 . S
H1418 C1428 0.930 . S
H1419 C1429 0.930 . S
C1420 H1414 0.930 . S
C1420 C1421 1.355 . S
C1420 C1422 1.415 . S
C1421 C1420 1.355 . S
C1421 C1423 1.419 . S
C1422 C1420 1.415 . S
C1422 C1427 1.425 . S
C1422 C1429 1.409 . S
C1423 H1415 0.930 . S
C1423 C1421 1.419 . S
C1423 C1424 1.362 . S
C1424 H1416 0.930 . S
C1424 C1423 1.362 . S
C1424 C1427 1.409 . S
C1425 H1417 0.930 . S
C1425 C1426 1.355 . S
C1425 C1427 1.415 . S
C1426 C1425 1.355 . S
C1426 C1428 1.419 . S
C1427 C1422 1.425 . S
C1427 C1424 1.409 . S
C1427 C1425 1.415 . S
C1428 H1418 0.930 . S
C1428 C1426 1.419 . S
C1428 C1429 1.362 . S
C1429 H1419 0.930 . S
C1429 C1422 1.409 . S
C1429 C1428 1.362 . S
H1430 C1436 0.930 . S
H1431 C1439 0.930 . S
H1432 C1440 0.930 . S
H1433 C1441 0.930 . S
H1434 C1444 0.930 . S
H1435 C1445 0.930 . S
C1436 H1430 0.930 . S
C1436 C1437 1.355 . S
C1436 C1438 1.415 . S
C1437 C1436 1.355 . S
C1437 C1439 1.419 . S
C1438 C1436 1.415 . S
C1438 C1443 1.425 . S
C1438 C1445 1.409 . S
C1439 H1431 0.930 . S
C1439 C1437 1.419 . S
C1439 C1440 1.362 . S
C1440 H1432 0.930 . S
C1440 C1439 1.362 . S
C1440 C1443 1.409 . S
C1441 H1433 0.930 . S
C1441 C1442 1.355 . S
C1441 C1443 1.415 . S
C1442 C1441 1.355 . S
C1442 C1444 1.419 . S
C1443 C1438 1.425 . S
C1443 C1440 1.409 . S
C1443 C1441 1.415 . S
C1444 H1434 0.930 . S
C1444 C1442 1.419 . S
C1444 C1445 1.362 . S
C1445 H1435 0.930 . S
C1445 C1438 1.409 . S
C1445 C1444 1.362 . S
H1446 C1452 0.930 . S
H1447 C1455 0.930 . S
H1448 C1456 0.930 . S
H1449 C1457 0.930 . S
H1450 C1460 0.930 . S
H1451 C1461 0.930 . S
C1452 H1446 0.930 . S
C1452 C1453 1.355 . S
C1452 C1454 1.415 . S
C1453 C1452 1.355 . S
C1453 C1455 1.419 . S
C1454 C1452 1.415 . S
C1454 C1459 1.425 . S
C1454 C1461 1.409 . S
C1455 H1447 0.930 . S
C1455 C1453 1.419 . S
C1455 C1456 1.362 . S
C1456 H1448 0.930 . S
C1456 C1455 1.362 . S
C1456 C1459 1.409 . S
C1457 H1449 0.930 . S
C1457 C1458 1.355 . S
C1457 C1459 1.415 . S
C1458 C1457 1.355 . S
C1458 C1460 1.419 . S
C1459 C1454 1.425 . S
C1459 C1456 1.409 . S
C1459 C1457 1.415 . S
C1460 H1450 0.930 . S
C1460 C1458 1.419 . S
C1460 C1461 1.362 . S
C1461 H1451 0.930 . S
C1461 C1454 1.409 . S
C1461 C1460 1.362 . S
H1462 C1468 0.930 . S
H1463 C1471 0.930 . S
H1464 C1472 0.930 . S
H1465 C1473 0.930 . S
H1466 C1476 0.930 . S
H1467 C1477 0.930 . S
C1468 H1462 0.930 . S
C1468 C1469 1.355 . S
C1468 C1470 1.415 . S
C1469 C1468 1.355 . S
C1469 C1471 1.419 . S
C1470 C1468 1.415 . S
C1470 C1475 1.425 . S
C1470 C1477 1.409 . S
C1471 H1463 0.930 . S
C1471 C1469 1.419 . S
C1471 C1472 1.362 . S
C1472 H1464 0.930 . S
C1472 C1471 1.362 . S
C1472 C1475 1.409 . S
C1473 H1465 0.930 . S
C1473 C1474 1.355 . S
C1473 C1475 1.415 . S
C1474 C1473 1.355 . S
C1474 C1476 1.419 . S
C1475 C1470 1.425 . S
C1475 C1472 1.409 . S
C1475 C1473 1.415 . S
C1476 H1466 0.930 . S
C1476 C1474 1.419 . S
C1476 C1477 1.362 . S
C1477 H1467 0.930 . S
C1477 C1470 1.409 . S
C1477 C1476 1.362 . S
H1478 C1484 0.930 . S
H1479 C1487 0.930 . S
H1480 C1488 0.930 . S
H1481 C1489 0.930 . S
H1482 C1492 0.930 . S
H1483 C1493 0.930 . S
C1484 H1478 0.930 . S
C1484 C1485 1.355 . S
C1484 C1486 1.415 . S
C1485 C1484 1.355 . S
C1485 C1487 1.419 . S
C1486 C1484 1.415 . S
C1486 C1491 1.425 . S
C1486 C1493 1.409 . S
C1487 H1479 0.930 . S
C1487 C1485 1.419 . S
C1487 C1488 1.362 . S
C1488 H1480 0.930 . S
C1488 C1487 1.362 . S
C1488 C1491 1.409 . S
C1489 H1481 0.930 . S
C1489 C1490 1.355 . S
C1489 C1491 1.415 . S
C1490 C1489 1.355 . S
C1490 C1492 1.419 . S
C1491 C1486 1.425 . S
C1491 C1488 1.409 . S
C1491 C1489 1.415 . S
C1492 H1482 0.930 . S
C1492 C1490 1.419 . S
C1492 C1493 1.362 . S
C1493 H1483 0.930 . S
C1493 C1486 1.409 . S
C1493 C1492 1.362 . S
H1494 C1500 0.930 . S
H1495 C1503 0.930 . S
H1496 C1504 0.930 . S
H1497 C1505 0.930 . S
H1498 C1508 0.930 . S
H1499 C1509 0.930 . S
C1500 H1494 0.930 . S
C1500 C1501 1.355 . S
C1500 C1502 1.415 . S
C1501 C1500 1.355 . S
C1501 C1503 1.419 . S
C1502 C1500 1.415 . S
C1502 C1507 1.425 . S
C1502 C1509 1.409 . S
C1503 H1495 0.930 . S
C1503 C1501 1.419 . S
C1503 C1504 1.362 . S
C1504 H1496 0.930 . S
C1504 C1503 1.362 . S
C1504 C1507 1.409 . S
C1505 H1497 0.930 . S
C1505 C1506 1.355 . S
C1505 C1507 1.415 . S
C1506 C1505 1.355 . S
C1506 C1508 1.419 . S
C1507 C1502 1.425 . S
C1507 C1504 1.409 . S
C1507 C1505 1.415 . S
C1508 H1498 0.930 . S
C1508 C1506 1.419 . S
C1508 C1509 1.362 . S
C1509 H1499 0.930 . S
C1509 C1502 1.409 . S
C1509 C1508 1.362 . S
H1510 C1516 0.930 . S
H1511 C1519 0.930 . S
H1512 C1520 0.930 . S
H1513 C1521 0.930 . S
H1514 C1524 0.930 . S
H1515 C1525 0.930 . S
C1516 H1510 0.930 . S
C1516 C1517 1.355 . S
C1516 C1518 1.415 . S
C1517 C1516 1.355 . S
C1517 C1519 1.419 . S
C1518 C1516 1.415 . S
C1518 C1523 1.425 . S
C1518 C1525 1.409 . S
C1519 H1511 0.930 . S
C1519 C1517 1.419 . S
C1519 C1520 1.362 . S
C1520 H1512 0.930 . S
C1520 C1519 1.362 . S
C1520 C1523 1.409 . S
C1521 H1513 0.930 . S
C1521 C1522 1.355 . S
C1521 C1523 1.415 . S
C1522 C1521 1.355 . S
C1522 C1524 1.419 . S
C1523 C1518 1.425 . S
C1523 C1520 1.409 . S
C1523 C1521 1.415 . S
C1524 H1514 0.930 . S
C1524 C1522 1.419 . S
C1524 C1525 1.362 . S
C1525 H1515 0.930 . S
C1525 C1518 1.409 . S
C1525 C1524 1.362 . S
H1526 C1532 0.930 . S
H1527 C1535 0.930 . S
H1528 C1536 0.930 . S
H1529 C1537 0.930 . S
H1530 C1540 0.930 . S
H1531 C1541 0.930 . S
C1532 H1526 0.930 . S
C1532 C1533 1.355 . S
C1532 C1534 1.415 . S
C1533 C1532 1.355 . S
C1533 C1535 1.419 . S
C1534 C1532 1.415 . S
C1534 C1539 1.425 . S
C1534 C1541 1.409 . S
C1535 H1527 0.930 . S
C1535 C1533 1.419 . S
C1535 C1536 1.362 . S
C1536 H1528 0.930 . S
C1536 C1535 1.362 . S
C1536 C1539 1.409 . S
C1537 H1529 0.930 . S
C1537 C1538 1.355 . S
C1537 C1539 1.415 . S
C1538 C1537 1.355 . S
C1538 C1540 1.419 . S
C1539 C1534 1.425 . S
C1539 C1536 1.409 . S
C1539 C1537 1.415 . S
C1540 H1530 0.930 . S
C1540 C1538 1.419 . S
C1540 C1541 1.362 . S
C1541 H1531 0.930 . S
C1541 C1534 1.409 . S
C1541 C1540 1.362 . S
H1542 C1548 0.930 . S
H1543 C1551 0.930 . S
H1544 C1552 0.930 . S
H1545 C1553 0.930 . S
H1546 C1556 0.930 . S
H1547 C1557 0.930 . S
C1548 H1542 0.930 . S
C1548 C1549 1.355 . S
C1548 C1550 1.415 . S
C1549 C1548 1.355 . S
C1549 C1551 1.419 . S
C1550 C1548 1.415 . S
C1550 C1555 1.425 . S
C1550 C1557 1.409 . S
C1551 H1543 0.930 . S
C1551 C1549 1.419 . S
C1551 C1552 1.362 . S
C1552 H1544 0.930 . S
C1552 C1551 1.362 . S
C1552 C1555 1.409 . S
C1553 H1545 0.930 . S
C1553 C1554 1.355 . S
C1553 C1555 1.415 . S
C1554 C1553 1.355 . S
C1554 C1556 1.419 . S
C1555 C1550 1.425 . S
C1555 C1552 1.409 . S
C1555 C1553 1.415 . S
C1556 H1546 0.930 . S
C1556 C1554 1.419 . S
C1556 C1557 1.362 . S
C1557 H1547 0.930 . S
C1557 C1550 1.409 . S
C1557 C1556 1.362 . S
H1558 C1564 0.930 . S
H1559 C1567 0.930 . S
H1560 C1568 0.930 . S
H1561 C1569 0.930 . S
H1562 C1572 0.930 . S
H1563 C1573 0.930 . S
C1564 H1558 0.930 . S
C1564 C1565 1.355 . S
C1564 C1566 1.415 . S
C1565 C1564 1.355 . S
C1565 C1567 1.419 . S
C1566 C1564 1.415 . S
C1566 C1571 1.425 . S
C1566 C1573 1.409 . S
C1567 H1559 0.930 . S
C1567 C1565 1.419 . S
C1567 C1568 1.362 . S
C1568 H1560 0.930 . S
C1568 C1567 1.362 . S
C1568 C1571 1.409 . S
C1569 H1561 0.930 . S
C1569 C1570 1.355 . S
C1569 C1571 1.415 . S
C1570 C1569 1.355 . S
C1570 C1572 1.419 . S
C1571 C1566 1.425 . S
C1571 C1568 1.409 . S
C1571 C1569 1.415 . S
C1572 H1562 0.930 . S
C1572 C1570 1.419 . S
C1572 C1573 1.362 . S
C1573 H1563 0.930 . S
C1573 C1566 1.409 . S
C1573 C1572 1.362 . S
H1574 C1580 0.930 . S
H1575 C1583 0.930 . S
H1576 C1584 0.930 . S
H1577 C1585 0.930 . S
H1578 C1588 0.930 . S
H1579 C1589 0.930 . S
C1580 H1574 0.930 . S
C1580 C1581 1.355 . S
C1580 C1582 1.415 . S
C1581 C1580 1.355 . S
C1581 C1583 1.419 . S
C1582 C1580 1.415 . S
C1582 C1587 1.425 . S
C1582 C1589 1.409 . S
C1583 H1575 0.930 . S
C1583 C1581 1.419 . S
C1583 C1584 1.362 . S
C1584 H1576 0.930 . S
C1584 C1583 1.362 . S
C1584 C1587 1.409 . S
C1585 H1577 0.930 . S
C1585 C1586 1.355 . S
C1585 C1587 1.415 . S
C1586 C1585 1.355 . S
C1586 C1588 1.419 . S
C1587 C1582 1.425 . S
C1587 C1584 1.409 . S
C1587 C1585 1.415 . S
C1588 H1578 0.930 . S
C1588 C1586 1.419 . S
C1588 C1589 1.362 . S
C1589 H1579 0.930 . S
C1589 C1582 1.409 . S
C1589 C1588 1.362 . S
H1590 C1596 0.930 . S
H1591 C1599 0.930 . S
H1592 C1600 0.930 . S
H1593 C1601 0.930 . S
H1594 C1604 0.930 . S
H1595 C1605 0.930 . S
C1596 H1590 0.930 . S
C1596 C1597 1.355 . S
C1596 C1598 1.415 . S
C1597 C1596 1.355 . S
C1597 C1599 1.419 . S
C1598 C1596 1.415 . S
C1598 C1603 1.425 . S
C1598 C1605 1.409 . S
C1599 H1591 0.930 . S
C1599 C1597 1.419 . S
C1599 C1600 1.362 . S
C1600 H1592 0.930 . S
C1600 C1599 1.362 . S
C1600 C1603 1.409 . S
C1601 H1593 0.930 . S
C1601 C1602 1.355 . S
C1601 C1603 1.415 . S
C1602 C1601 1.355 . S
C1602 C1604 1.419 . S
C1603 C1598 1.425 . S
C1603 C1600 1.409 . S
C1603 C1601 1.415 . S
C1604 H1594 0.930 . S
C1604 C1602 1.419 . S
C1604 C1605 1.362 . S
C1605 H1595 0.930 . S
C1605 C1598 1.409 . S
C1605 C1604 1.362 . S
H1606 C1612 0.930 . S
H1607 C1615 0.930 . S
H1608 C1616 0.930 . S
H1609 C1617 0.930 . S
H1610 C1620 0.930 . S
H1611 C1621 0.930 . S
C1612 H1606 0.930 . S
C1612 C1613 1.355 . S
C1612 C1614 1.415 . S
C1613 C1612 1.355 . S
C1613 C1615 1.419 . S
C1614 C1612 1.415 . S
C1614 C1619 1.425 . S
C1614 C1621 1.409 . S
C1615 H1607 0.930 . S
C1615 C1613 1.419 . S
C1615 C1616 1.362 . S
C1616 H1608 0.930 . S
C1616 C1615 1.362 . S
C1616 C1619 1.409 . S
C1617 H1609 0.930 . S
C1617 C1618 1.355 . S
C1617 C1619 1.415 . S
C1618 C1617 1.355 . S
C1618 C1620 1.419 . S
C1619 C1614 1.425 . S
C1619 C1616 1.409 . S
C1619 C1617 1.415 . S
C1620 H1610 0.930 . S
C1620 C1618 1.419 . S
C1620 C1621 1.362 . S
C1621 H1611 0.930 . S
C1621 C1614 1.409 . S
C1621 C1620 1.362 . S
H1622 C1628 0.930 . S
H1623 C1631 0.930 . S
H1624 C1632 0.930 . S
H1625 C1633 0.930 . S
H1626 C1636 0.930 . S
H1627 C1637 0.930 . S
C1628 H1622 0.930 . S
C1628 C1629 1.355 . S
C1628 C1630 1.415 . S
C1629 C1628 1.355 . S
C1629 C1631 1.419 . S
C1630 C1628 1.415 . S
C1630 C1635 1.425 . S
C1630 C1637 1.409 . S
C1631 H1623 0.930 . S
C1631 C1629 1.419 . S
C1631 C1632 1.362 . S
C1632 H1624 0.930 . S
C1632 C1631 1.362 . S
C1632 C1635 1.409 . S
C1633 H1625 0.930 . S
C1633 C1634 1.355 . S
C1633 C1635 1.415 . S
C1634 C1633 1.355 . S
C1634 C1636 1.419 . S
C1635 C1630 1.425 . S
C1635 C1632 1.409 . S
C1635 C1633 1.415 . S
C1636 H1626 0.930 . S
C1636 C1634 1.419 . S
C1636 C1637 1.362 . S
C1637 H1627 0.930 . S
C1637 C1630 1.409 . S
C1637 C1636 1.362 . S
C882 C699 1.349 . S
C877 C74 1.359 . S
C898 C700 0.473 . S
C893 C142 0.804 . S
C914 C694 1.357 . S
C909 C231 1.280 . S
C925 C322 1.128 . S
C930 C693 1.153 . S
C941 C406 0.770 . S
C946 C696 0.483 . S
C962 C698 1.277 . S
C957 C494 1.301 . S
C973 C562 1.173 . S
C978 C697 1.137 . S
C989 C651 1.376 . S
C994 C695 1.366 . S
C1010 C730 1.538 . S
C1005 C58 1.395 . S
C1021 C151 1.696 . S
C1026 C761 1.712 . S
C1042 C729 2.552 . S
C1037 C224 2.470 . S
C1058 C764 1.224 . S
C1053 C315 1.276 . S
C1069 C399 1.514 . S
C1074 C727 1.580 . S
C1090 C759 1.477 . S
C1085 C478 1.445 . S
C1101 C571 1.378 . S
C1106 C732 1.333 . S
C1117 C644 2.446 . S
C1122 C766 2.553 . S
C1133 C67 2.448 . S
C1138 C762 2.558 . S
C1149 C392 1.714 . S
C1154 C765 1.708 . S
C1170 C733 2.583 . S
C1165 C487 2.425 . S
C1186 C760 1.281 . S
C1181 C578 1.174 . S
C1197 C658 1.464 . S
C1202 C726 1.556 . S
C1213 C238 1.372 . S
C1218 C763 1.501 . S
C1234 C728 1.333 . S
C1229 C308 1.376 . S
C1245 C158 1.476 . S
C1250 C731 1.508 . S
C1261 C662 1.293 . S
C1266 C798 1.213 . S
C1277 C394 0.957 . S
C1282 C799 0.261 . S
C1298 C793 1.435 . S
C1293 C483 1.465 . S
C1314 C792 1.449 . S
C1309 C574 1.364 . S
C1325 C154 0.963 . S
C1330 C795 0.255 . S
C1346 C797 1.504 . S
C1341 C242 1.455 . S
C1357 C310 1.371 . S
C1362 C796 1.444 . S
C1373 C63 1.291 . S
C1378 C794 1.212 . S
C1389 C646 1.482 . S
C1394 C832 1.602 . S
C1410 C864 1.240 . S
C1405 C403 1.347 . S
C1421 C476 2.309 . S
C1426 C825 2.470 . S
C1437 C567 1.548 . S
C1442 C859 1.638 . S
C1458 C830 1.440 . S
C1453 C147 1.243 . S
C1469 C226 1.595 . S
C1474 C861 1.616 . S
C1490 C827 1.587 . S
C1485 C319 1.564 . S
C1506 C862 2.509 . S
C1501 C56 2.285 . S
C1522 C858 2.515 . S
C1517 C655 2.287 . S
C1533 C140 1.340 . S
C1538 C860 1.248 . S
C1549 C235 2.295 . S
C1554 C829 2.463 . S
C1570 C863 1.606 . S
C1565 C326 1.539 . S
C1581 C70 1.427 . S
C1586 C828 1.571 . S
C1597 C490 1.580 . S
C1602 C865 1.670 . S
C1618 C831 1.511 . S
C1613 C560 1.610 . S
C1634 C826 1.436 . S
C1629 C410 1.270 . S
