# Generated by pormake.
# Topology pyr, (3,6)-cn, num edge types: 1
# Building blocks:
#     Node 0, Type 0, BuildingBlock: OLANEW_clean_sbu_2, # of connection points: 3
#     Node 1, Type 0, BuildingBlock: OLANEW_clean_sbu_2, # of connection points: 3
#     Node 2, Type 0, BuildingBlock: OLANEW_clean_sbu_2, # of connection points: 3
#     Node 3, Type 0, BuildingBlock: OLANEW_clean_sbu_2, # of connection points: 3
#     Node 4, Type 0, BuildingBlock: OLANEW_clean_sbu_2, # of connection points: 3
#     Node 5, Type 0, BuildingBlock: OLANEW_clean_sbu_2, # of connection points: 3
#     Node 6, Type 0, BuildingBlock: OLANEW_clean_sbu_2, # of connection points: 3
#     Node 7, Type 0, BuildingBlock: OLANEW_clean_sbu_2, # of connection points: 3
#     Node 8, Type 1, BuildingBlock: BETGAK_clean_sbu_0, # of connection points: 6
#     Node 9, Type 1, BuildingBlock: BETGAK_clean_sbu_0, # of connection points: 6
#     Node 10, Type 1, BuildingBlock: BETGAK_clean_sbu_0, # of connection points: 6
#     Node 11, Type 1, BuildingBlock: BETGAK_clean_sbu_0, # of connection points: 6
#     Edge 12, Type (0, 1), BuildingBlock: CIFDUS_clean_linker_0, # of connection points: 2
#     Edge 13, Type (0, 1), BuildingBlock: CIFDUS_clean_linker_0, # of connection points: 2
#     Edge 14, Type (0, 1), BuildingBlock: CIFDUS_clean_linker_0, # of connection points: 2
#     Edge 15, Type (0, 1), BuildingBlock: CIFDUS_clean_linker_0, # of connection points: 2
#     Edge 16, Type (0, 1), BuildingBlock: CIFDUS_clean_linker_0, # of connection points: 2
#     Edge 17, Type (0, 1), BuildingBlock: CIFDUS_clean_linker_0, # of connection points: 2
#     Edge 18, Type (0, 1), BuildingBlock: CIFDUS_clean_linker_0, # of connection points: 2
#     Edge 19, Type (0, 1), BuildingBlock: CIFDUS_clean_linker_0, # of connection points: 2
#     Edge 20, Type (0, 1), BuildingBlock: CIFDUS_clean_linker_0, # of connection points: 2
#     Edge 21, Type (0, 1), BuildingBlock: CIFDUS_clean_linker_0, # of connection points: 2
#     Edge 22, Type (0, 1), BuildingBlock: CIFDUS_clean_linker_0, # of connection points: 2
#     Edge 23, Type (0, 1), BuildingBlock: CIFDUS_clean_linker_0, # of connection points: 2
#     Edge 24, Type (0, 1), BuildingBlock: CIFDUS_clean_linker_0, # of connection points: 2
#     Edge 25, Type (0, 1), BuildingBlock: CIFDUS_clean_linker_0, # of connection points: 2
#     Edge 26, Type (0, 1), BuildingBlock: CIFDUS_clean_linker_0, # of connection points: 2
#     Edge 27, Type (0, 1), BuildingBlock: CIFDUS_clean_linker_0, # of connection points: 2
#     Edge 28, Type (0, 1), BuildingBlock: CIFDUS_clean_linker_0, # of connection points: 2
#     Edge 29, Type (0, 1), BuildingBlock: CIFDUS_clean_linker_0, # of connection points: 2
#     Edge 30, Type (0, 1), BuildingBlock: CIFDUS_clean_linker_0, # of connection points: 2
#     Edge 31, Type (0, 1), BuildingBlock: CIFDUS_clean_linker_0, # of connection points: 2
#     Edge 32, Type (0, 1), BuildingBlock: CIFDUS_clean_linker_0, # of connection points: 2
#     Edge 33, Type (0, 1), BuildingBlock: CIFDUS_clean_linker_0, # of connection points: 2
#     Edge 34, Type (0, 1), BuildingBlock: CIFDUS_clean_linker_0, # of connection points: 2
#     Edge 35, Type (0, 1), BuildingBlock: CIFDUS_clean_linker_0, # of connection points: 2
# Relax obj value: 0.151
# Max RMSD: 0.173
# Mean RMSD: 0.122
data_MOF--net-pyr--node1-OLANEW_clean_sbu_2--node2-BETGAK_clean_sbu_0--edge1-CIFDUS_clean_linker_0
_symmetry_space_group_name_H-M    P1
_symmetry_Int_Tables_number       1
_symmetry_cell_setting            triclinic
loop_
_symmetry_equiv_pos_as_xyz
'x, y, z'
_cell_length_a     36.067517
_cell_length_b     39.449501
_cell_length_c     34.473153
_cell_angle_alpha  95.076259
_cell_angle_beta   87.959138
_cell_angle_gamma 104.56048
loop_
_atom_site_label
_atom_site_type_symbol
_atom_site_fract_x
_atom_site_fract_y
_atom_site_fract_z
_atom_type_partial_charge
O0 O 0.38574 0.28312 0.15183 0.0
Cd1 Cd 0.37711 0.34343 0.16337 0.0
O2 O 0.38982 0.28317 0.21503 0.0
Cd3 Cd 0.38916 0.25717 0.26841 0.0
O4 O 0.35402 0.22855 0.31342 0.0
C5 C 0.34489 0.24463 0.34446 0.0
O6 O 0.3597 0.27862 0.35076 0.0
C7 C 0.39127 0.26774 0.18125 0.0
C8 C 0.31171 0.36023 0.13668 0.0
O9 O 0.34119 0.36102 0.11453 0.0
O10 O 0.3124 0.34997 0.17086 0.0
O11 O 0.50151 0.05137 0.67339 0.0
Cd12 Cd 0.51338 0.04606 0.60341 0.0
O13 O 0.44132 0.03138 0.65803 0.0
Cd14 Cd 0.37956 1.0097 0.66357 0.0
O15 O 0.32157 0.99737 0.64069 0.0
C16 C 0.293 1.00157 0.66143 0.0
O17 O 0.29803 1.01221 0.69852 0.0
C18 C 0.46678 0.04056 0.68411 0.0
C19 C 0.51418 0.97596 0.58807 0.0
O20 O 0.54552 0.99986 0.59282 0.0
O21 O 0.48274 0.98551 0.58828 0.0
O22 O 0.73781 0.457 0.88728 0.0
Cd23 Cd 0.67777 0.4375 0.8476 0.0
O24 O 0.71932 0.41041 0.92018 0.0
Cd25 Cd 0.70855 0.3674 0.96032 0.0
O26 O 0.66964 0.32107 0.98617 0.0
C27 C 0.67907 0.29436 0.99718 0.0
O28 O 0.71517 0.29323 0.99443 0.0
C29 C 0.74438 0.43884 0.91408 0.0
C30 C 0.65632 0.47388 0.78768 0.0
O31 O 0.64796 0.48054 0.82357 0.0
O32 O 0.67676 0.45171 0.78015 0.0
O33 O 0.93549 0.77068 0.39832 0.0
Cd34 Cd 0.91372 0.70709 0.37448 0.0
O35 O 0.90415 0.7605 0.45407 0.0
Cd36 Cd 0.86773 0.70722 0.44432 0.0
O37 O 0.81672 0.67976 0.47605 0.0
C38 C 0.78319 0.6734 0.46231 0.0
O39 O 0.77906 0.68065 0.42648 0.0
C40 C 0.92723 0.78133 0.43291 0.0
C41 C 0.92651 0.67795 0.29836 0.0
O42 O 0.89405 0.68389 0.3086 0.0
O43 O 0.9537 0.68755 0.32305 0.0
O44 O 0.69839 0.77366 0.81254 0.0
Cd45 Cd 0.65759 0.73001 0.85156 0.0
O46 O 0.70511 0.80796 0.86666 0.0
Cd47 Cd 0.72419 0.85722 0.90346 0.0
O48 O 0.71381 0.90078 0.94274 0.0
C49 C 0.68291 0.90907 0.93612 0.0
O50 O 0.66203 0.89226 0.90658 0.0
C51 C 0.71423 0.80271 0.83105 0.0
C52 C 0.70816 0.70422 0.89262 0.0
O53 O 0.6932 0.68773 0.86099 0.0
O54 O 0.69776 0.73189 0.90569 0.0
O55 O 0.65186 0.07504 0.54212 0.0
Cd56 Cd 0.67805 0.06616 0.60337 0.0
O57 O 0.66131 0.13197 0.55595 0.0
Cd58 Cd 0.65571 0.1841 0.54441 0.0
O59 O 0.64263 0.23448 0.5382 0.0
C60 C 0.62525 0.23868 0.50825 0.0
O61 O 0.6162 0.21263 0.481 0.0
C62 C 0.64985 0.10486 0.53248 0.0
C63 C 0.75704 0.07414 0.59784 0.0
O64 O 0.73372 0.04489 0.58673 0.0
O65 O 0.743 0.09966 0.61135 0.0
O66 O 0.42691 0.81279 0.26635 0.0
Cd67 Cd 0.39647 0.75428 0.29247 0.0
O68 O 0.38277 0.81329 0.2233 0.0
Cd69 Cd 0.34268 0.76093 0.2267 0.0
O70 O 0.29298 0.7168 0.20922 0.0
C71 C 0.28497 0.71079 0.17315 0.0
O72 O 0.30721 0.73023 0.14824 0.0
C73 C 0.4141 0.82827 0.24053 0.0
C74 C 0.43038 0.72256 0.3488 0.0
O75 O 0.43671 0.71746 0.31215 0.0
O76 O 0.4098 0.74408 0.3593 0.0
O77 O 0.15921 0.45603 0.79855 0.0
Cd78 Cd 0.19492 0.42886 0.74717 0.0
O79 O 0.11045 0.40927 0.80097 0.0
Cd80 Cd 0.12589 0.37365 0.75347 0.0
O81 O 0.11804 0.3257 0.71284 0.0
C82 C 0.12091 0.29718 0.72565 0.0
O83 O 0.13017 0.29765 0.76225 0.0
C84 C 0.12724 0.44056 0.81359 0.0
C85 C 0.25479 0.47199 0.70544 0.0
O86 O 0.2205 0.4624 0.69253 0.0
O87 O 0.26068 0.46248 0.73882 0.0
La88 La 0.03999 0.04403 0.55711 0.0
La89 La 0.01753 1.02093 0.6345 0.0
C90 C 0.0528 0.07441 0.49482 0.0
C91 C 0.08691 0.09647 0.47706 0.0
C92 C 0.08826 0.09863 0.43671 0.0
C93 C 0.12217 0.11557 0.41846 0.0
C94 C 0.15532 0.13063 0.44032 0.0
C95 C 0.1535 0.12947 0.48101 0.0
C96 C 0.11955 0.11229 0.49925 0.0
C97 C 0.09149 1.01851 0.59062 0.0
C98 C 0.0618 0.09831 0.63125 0.0
C99 C 1.00449 0.99221 0.69782 0.0
C100 C 0.97144 0.96963 0.71709 0.0
C101 C 0.96112 0.98039 0.7549 0.0
C102 C 0.92892 0.96072 0.77353 0.0
C103 C 0.90645 0.92955 0.75488 0.0
C104 C 0.91703 0.91865 0.71698 0.0
C105 C 0.94914 0.93859 0.69817 0.0
C106 C 0.96687 0.04817 0.6025 0.0
C107 C 0.9972 0.96602 0.56003 0.0
O108 O 0.05441 0.04208 0.49771 0.0
O109 O 0.03921 0.08777 0.52664 0.0
O110 O 0.08694 1.01705 0.55354 0.0
O111 O 0.07117 0.03722 0.60649 0.0
O112 O 0.05162 0.09434 0.59426 0.0
O113 O 0.05863 0.0703 0.65065 0.0
O114 O 1.00133 1.02385 0.69339 0.0
O115 O 0.0195 0.97866 0.66696 0.0
O116 O 0.97478 0.05147 0.63897 0.0
O117 O 0.98521 1.02792 0.58535 0.0
O118 O 1.00465 0.97077 0.59777 0.0
O119 O 1.00223 0.99321 0.539 0.0
H120 H 0.06338 0.08631 0.41917 0.0
H121 H 0.12263 0.11649 0.38713 0.0
H122 H 0.17867 0.14065 0.49851 0.0
H123 H 0.11909 0.1104 0.53044 0.0
H124 H 0.97775 1.00442 0.76989 0.0
H125 H 0.92133 0.97029 0.80238 0.0
H126 H 0.90072 0.89454 0.70193 0.0
H127 H 0.95634 0.92981 0.66887 0.0
La128 La 0.55817 0.0744 0.13855 0.0
La129 La 0.4941 0.05653 0.08685 0.0
C130 C 0.61146 0.1058 0.18419 0.0
C131 C 0.61525 0.1115 0.22699 0.0
C132 C 0.6135 0.08323 0.24967 0.0
C133 C 0.61726 0.08886 0.28999 0.0
C134 C 0.6226 0.12284 0.30876 0.0
C135 C 0.62436 0.15116 0.28607 0.0
C136 C 0.6208 0.14552 0.24556 0.0
C137 C 0.51027 1.0137 0.15344 0.0
C138 C 0.48439 0.10457 0.15728 0.0
C139 C 0.44319 1.02867 0.03737 0.0
C140 C 0.44732 1.02481 0.99481 0.0
C141 C 0.48318 0.03851 0.97768 0.0
C142 C 0.48764 0.03679 0.93731 0.0
C143 C 0.45631 1.02123 0.91307 0.0
C144 C 0.42033 1.00733 0.93038 0.0
C145 C 0.41588 1.00913 0.97104 0.0
C146 C 0.54568 0.11635 0.07326 0.0
C147 C 0.56642 1.02717 0.06426 0.0
O148 O 0.60726 0.07364 0.16883 0.0
O149 O 0.5886 0.12152 0.1685 0.0
O150 O 0.54677 1.02201 0.15808 0.0
O151 O 0.50032 0.04055 0.14414 0.0
O152 O 0.5219 0.10974 0.16052 0.0
O153 O 0.46489 0.07785 0.13483 0.0
O154 O 0.44916 0.06111 0.05226 0.0
O155 O 0.46131 1.01076 0.05653 0.0
O156 O 0.50923 0.11101 0.06941 0.0
O157 O 0.55219 0.08815 0.08159 0.0
O158 O 0.52891 1.02152 0.06286 0.0
O159 O 0.58623 0.05253 0.08853 0.0
H160 H 0.60943 0.05666 0.23636 0.0
H161 H 0.61665 0.06654 0.30638 0.0
H162 H 0.62823 0.17762 0.29962 0.0
H163 H 0.62232 0.16777 0.22873 0.0
H164 H 0.50771 0.05107 0.99562 0.0
H165 H 0.51557 0.04838 0.9251 0.0
H166 H 0.39572 0.99495 0.91253 0.0
H167 H 0.38796 0.99855 0.98386 0.0
La168 La 0.51543 0.56535 0.55721 0.0
La169 La 0.51719 0.62614 0.61439 0.0
C170 C 0.53346 0.51749 0.51275 0.0
C171 C 0.54718 0.48598 0.51688 0.0
C172 C 0.56253 0.47026 0.48429 0.0
C173 C 0.57562 0.44017 0.48739 0.0
C174 C 0.57353 0.42521 0.52324 0.0
C175 C 0.55847 0.44141 0.55604 0.0
C176 C 0.54542 0.47157 0.55288 0.0
C177 C 0.45158 0.56108 0.59903 0.0
C178 C 0.54811 0.56687 0.64371 0.0
C179 C 0.50004 0.67594 0.65563 0.0
C180 C 0.49553 0.70992 0.64519 0.0
C181 C 0.51055 0.72272 0.60969 0.0
C182 C 0.50657 0.7551 0.59964 0.0
C183 C 0.48731 0.77514 0.62483 0.0
C184 C 0.47164 0.76189 0.66004 0.0
C185 C 0.4758 0.7295 0.67017 0.0
C186 C 0.5805 0.6296 0.57248 0.0
C187 C 0.4859 0.62666 0.52798 0.0
O188 O 0.4985 0.51644 0.52502 0.0
O189 O 0.55734 0.54749 0.52333 0.0
O190 O 0.45281 0.54975 0.56267 0.0
O191 O 0.48536 0.57261 0.61101 0.0
O192 O 0.5484 0.55464 0.60645 0.0
O193 O 0.53093 0.59212 0.65466 0.0
O194 O 0.53488 0.67171 0.65202 0.0
O195 O 0.47455 0.64841 0.64096 0.0
O196 O 0.58004 0.64204 0.60846 0.0
O197 O 0.5467 0.61853 0.56102 0.0
O198 O 0.48689 0.63887 0.56513 0.0
O199 O 0.49992 0.59932 0.51668 0.0
H200 H 0.56439 0.48127 0.45636 0.0
H201 H 0.58766 0.42878 0.46174 0.0
H202 H 0.55613 0.43042 0.58398 0.0
H203 H 0.53371 0.48347 0.57841 0.0
H204 H 0.52557 0.70775 0.58983 0.0
H205 H 0.51851 0.76446 0.57213 0.0
H206 H 0.45694 0.77694 0.68014 0.0
H207 H 0.46386 0.71985 0.69756 0.0
La208 La 0.02007 0.5331 0.05669 0.0
La209 La 0.01991 0.6027 1.02868 0.0
C210 C 0.03687 0.47645 0.06872 0.0
C211 C 0.06924 0.46397 0.08204 0.0
C212 C 0.06155 0.43522 0.10485 0.0
C213 C 0.09124 0.42145 0.11624 0.0
C214 C 0.12938 0.43608 0.10493 0.0
C215 C 0.1371 0.46517 0.08232 0.0
C216 C 0.10732 0.47906 0.07106 0.0
C217 C 0.99018 0.57523 0.10585 0.0
C218 C 0.09428 0.59903 0.06855 0.0
C219 C 1.00147 0.65885 1.01903 0.0
C220 C 0.96577 0.66777 1.00984 0.0
C221 C 0.96743 0.69897 0.99259 0.0
C222 C 0.93371 0.70723 0.98255 0.0
C223 C 0.89786 0.68416 0.98923 0.0
C224 C 0.8963 0.65302 1.00678 0.0
C225 C 0.92998 0.64506 1.01733 0.0
C226 C 0.05524 0.56475 0.98158 0.0
C227 C 0.94649 0.53674 1.01401 0.0
O228 O 0.0201 0.49405 0.09465 0.0
O229 O 0.04102 0.49001 0.03506 0.0
O230 O 0.97728 0.54129 0.1018 0.0
O231 O 0.01914 0.58344 0.08412 0.0
O232 O 0.07957 0.56454 0.06889 0.0
O233 O 0.07457 0.62023 0.05703 0.0
O234 O 0.01567 0.64078 0.99127 0.0
O235 O 1.00233 0.64677 0.0531 0.0
O236 O 0.06503 0.59882 0.98638 0.0
O237 O 0.02457 0.55316 1.00057 0.0
O238 O 0.96135 0.57117 1.01631 0.0
O239 O 0.96582 0.51516 1.02566 0.0
H240 H 0.03237 0.42305 0.11344 0.0
H241 H 0.08418 0.39882 0.13324 0.0
H242 H 0.16618 0.47735 0.07354 0.0
H243 H 0.11404 0.50135 0.05353 0.0
H244 H 0.9948 0.71679 0.98661 0.0
H245 H 0.93568 0.73128 0.96878 0.0
H246 H 0.86902 0.63498 1.01257 0.0
H247 H 0.92799 0.62113 0.03123 0.0
H248 H 0.29985 0.17849 0.33178 0.0
H249 H 0.31962 0.26988 0.4143 0.0
H250 H 0.26367 0.24191 0.45255 0.0
H251 H 0.20648 0.19302 0.45998 0.0
H252 H 0.18629 0.10279 0.37594 0.0
H253 H 0.24492 0.12893 0.34071 0.0
C254 C 0.29225 0.1922 0.35837 0.0
C255 C 0.31383 0.2263 0.37004 0.0
C256 C 0.25965 0.17633 0.37971 0.0
C257 C 0.30344 0.24364 0.40456 0.0
C258 C 0.27137 0.22772 0.4264 0.0
C259 C 0.2152 0.17899 0.43418 0.0
C260 C 0.19192 0.14621 0.42033 0.0
C261 C 0.24885 0.19432 0.41385 0.0
C262 C 0.20339 0.12835 0.38676 0.0
C263 C 0.237 0.14318 0.36673 0.0
H264 H 0.51066 1.02424 0.73729 0.0
H265 H 0.40167 0.04795 0.72419 0.0
H266 H 0.38768 0.04223 0.79378 0.0
H267 H 0.40819 0.03313 0.85896 0.0
H268 H 0.51648 1.0071 0.87026 0.0
H269 H 0.52905 1.01129 0.80078 0.0
C270 C 0.48384 1.0282 0.7497 0.0
C271 C 0.45729 0.03662 0.72577 0.0
C272 C 0.47596 1.02457 0.78942 0.0
C273 C 0.42241 0.04114 0.742 0.0
C274 C 0.41452 0.03804 0.7818 0.0
C275 C 0.43424 1.02781 0.84612 0.0
C276 C 0.4616 1.02032 0.87002 0.0
C277 C 0.44123 1.02996 0.80587 0.0
C278 C 0.49532 1.01372 0.85281 0.0
C279 C 0.50249 1.01595 0.81301 0.0
H280 H 0.61154 0.52068 0.79466 0.0
H281 H 0.66543 0.46192 0.70857 0.0
H282 H 0.63654 0.48448 0.65642 0.0
H283 H 0.59485 0.52066 0.63495 0.0
H284 H 0.54188 0.57935 0.72228 0.0
H285 H 0.57122 0.55704 0.77359 0.0
C286 C 0.61725 0.51294 0.76451 0.0
C287 C 0.64083 0.48962 0.75581 0.0
C288 C 0.6004 0.52592 0.73457 0.0
C289 C 0.64761 0.47991 0.71637 0.0
C290 C 0.63093 0.49274 0.68641 0.0
C291 C 0.58966 0.52849 0.66519 0.0
C292 C 0.56598 0.55176 0.67439 0.0
C293 C 0.60703 0.51566 0.6951 0.0
C294 C 0.55988 0.56162 0.71394 0.0
C295 C 0.57673 0.54886 0.74354 0.0
H296 H 0.99269 0.68013 0.2564 0.0
H297 H 0.87161 0.63091 0.25524 0.0
H298 H 0.88012 0.59415 0.19626 0.0
H299 H 0.92271 0.57431 0.14566 0.0
H300 H 0.0427 0.62766 0.14411 0.0
H301 H 0.03399 0.66417 0.20297 0.0
C302 C 0.96814 0.66154 0.24307 0.0
C303 C 0.9316 0.65821 0.26044 0.0
C304 C 0.97311 0.64095 0.20858 0.0
C305 C 0.90005 0.63417 0.24249 0.0
C306 C 0.90492 0.61296 0.20879 0.0
C307 C 0.94682 0.59401 0.15826 0.0
C308 C 0.98335 0.59797 0.14073 0.0
C309 C 0.9414 0.61582 0.19172 0.0
C310 C 0.01427 0.62399 0.15701 0.0
C311 C 1.00935 0.6449 0.19077 0.0
H312 H 0.44076 0.24398 0.22273 0.0
H313 H 0.36243 0.21387 0.12693 0.0
H314 H 0.38076 0.15814 0.11465 0.0
H315 H 0.42281 0.12038 0.12769 0.0
H316 H 0.50563 0.15298 0.21943 0.0
H317 H 0.48124 0.20494 0.23744 0.0
C318 C 0.42706 0.22482 0.19977 0.0
C319 C 0.39986 0.23278 0.17609 0.0
C320 C 0.43864 0.19333 0.19217 0.0
C321 C 0.38331 0.20826 0.1456 0.0
C322 C 0.39379 0.17642 0.1386 0.0
C323 C 0.43494 0.1384 0.15224 0.0
C324 C 0.46574 0.13261 0.1725 0.0
C325 C 0.42189 0.16894 0.16127 0.0
C326 C 0.48175 0.15672 0.20357 0.0
C327 C 0.46794 0.18652 0.21371 0.0
H328 H 0.22744 1.01183 0.69636 0.0
H329 H 0.27447 0.98352 0.58482 0.0
H330 H 0.21502 0.98357 0.55322 0.0
H331 H 0.15131 0.9961 0.55651 0.0
H332 H 0.1051 1.02534 0.668 0.0
H333 H 0.16234 1.02022 0.7003 0.0
C334 C 0.2246 1.00534 0.66519 0.0
C335 C 0.25556 0.99805 0.64301 0.0
C336 C 0.19047 1.00577 0.6471 0.0
C337 C 0.25122 0.98947 0.60264 0.0
C338 C 0.21721 0.98954 0.58448 0.0
C339 C 0.15368 1.00095 0.5879 0.0
C340 C 0.12434 1.01147 0.60982 0.0
C341 C 0.18692 0.99832 0.60629 0.0
C342 C 0.12757 1.01754 0.65048 0.0
C343 C 0.16028 1.01464 0.66898 0.0
H344 H 0.79147 0.50466 0.92076 0.0
H345 H 0.77898 0.40125 0.95912 0.0
H346 H 0.83984 0.42186 0.99368 0.0
H347 H 0.89817 0.46952 1.01171 0.0
H348 H 0.90797 0.57282 0.97344 0.0
H349 H 0.84711 0.55202 0.94065 0.0
C350 C 0.8019 0.48652 0.93674 0.0
C351 C 0.78043 0.45133 0.93711 0.0
C352 C 0.8368 0.49861 0.95672 0.0
C353 C 0.79454 0.42849 0.95838 0.0
C354 C 0.82957 0.44028 0.97806 0.0
C355 C 0.88694 0.48748 0.9963 0.0
C356 C 0.9081 0.52286 0.99535 0.0
C357 C 0.8512 0.47531 0.97726 0.0
C358 C 0.89267 0.54561 0.9752 0.0
C359 C 0.85769 0.53369 0.95614 0.0
H360 H 0.70847 0.6504 0.44108 0.0
H361 H 0.78141 0.67183 0.54149 0.0
H362 H 0.72522 0.6596 0.58448 0.0
H363 H 0.65504 0.64581 0.59386 0.0
H364 H 0.58232 0.62263 0.49339 0.0
H365 H 0.63857 0.63251 0.45024 0.0
C366 C 0.7121 0.65213 0.47234 0.0
C367 C 0.74915 0.66229 0.48796 0.0
C368 C 0.67963 0.64498 0.49697 0.0
C369 C 0.75327 0.66408 0.52859 0.0
C370 C 0.72112 0.65724 0.55327 0.0
C371 C 0.65163 0.64283 0.56251 0.0
C372 C 0.61471 0.63389 0.54679 0.0
C373 C 0.68414 0.6482 0.53783 0.0
C374 C 0.61053 0.62965 0.50616 0.0
C375 C 0.64267 0.63532 0.48146 0.0
H376 H 0.24947 0.36915 0.17981 0.0
H377 H 0.30036 0.38013 0.06493 0.0
H378 H 0.24878 0.40452 0.04503 0.0
H379 H 0.18969 0.42381 0.06051 0.0
H380 H 0.13959 0.41379 0.17577 0.0
H381 H 0.19016 0.38787 0.19507 0.0
C382 C 0.24916 0.37662 0.15032 0.0
C383 C 0.27884 0.37274 0.12394 0.0
C384 C 0.21956 0.39099 0.13912 0.0
C385 C 0.27796 0.38276 0.08589 0.0
C386 C 0.24848 0.39683 0.07448 0.0
C387 C 0.19001 0.41623 0.08995 0.0
C388 C 0.1608 0.42082 0.11662 0.0
C389 C 0.21931 0.40137 0.10094 0.0
C390 C 0.16141 0.41027 0.15448 0.0
C391 C 0.19043 0.39554 0.16562 0.0
H392 H 0.68984 0.2347 1.02504 0.0
H393 H 0.60123 0.28589 1.00206 0.0
H394 H 0.55245 0.23593 1.0239 0.0
H395 H 0.53451 0.17687 0.04853 0.0
H396 H 0.6232 0.12608 0.0719 0.0
H397 H 0.67211 0.1765 0.05108 0.0
C398 C 0.65988 0.23505 1.02485 0.0
C399 C 0.64943 0.26421 1.01172 0.0
C400 C 0.63183 0.20612 0.03752 0.0
C401 C 0.61032 0.26398 1.01192 0.0
C402 C 0.5823 0.23532 1.0244 0.0
C403 C 0.56456 0.17691 0.0491 0.0
C404 C 0.57514 0.14761 0.06154 0.0
C405 C 0.59265 0.20614 0.03709 0.0
C406 C 0.61422 0.14816 0.0623 0.0
C407 C 0.64225 0.17704 0.05039 0.0
H408 H 0.92811 0.80532 0.50904 0.0
H409 H 0.9636 0.83999 0.39522 0.0
H410 H 0.98749 0.90039 0.42431 0.0
H411 H 0.99755 0.94348 0.48248 0.0
H412 H 0.96363 0.90692 0.59591 0.0
H413 H 0.93964 0.84719 0.56644 0.0
C414 C 0.94104 0.82599 0.49039 0.0
C415 C 0.94378 0.81798 0.44983 0.0
C416 C 0.95486 0.86043 0.50732 0.0
C417 C 0.96111 0.84525 0.42645 0.0
C418 C 0.97465 0.87984 0.4431 0.0
C419 C 0.98474 0.92244 0.50071 0.0
C420 C 0.98219 0.92983 0.54145 0.0
C421 C 0.97149 0.88779 0.48353 0.0
C422 C 0.96598 0.90213 0.56461 0.0
C423 C 0.95223 0.8679 0.54774 0.0
H424 H 0.45387 0.92136 0.60164 0.0
H425 H 0.57452 0.94656 0.57249 0.0
H426 H 0.57611 0.88571 0.5788 0.0
H427 H 0.54444 0.82678 0.5979 0.0
H428 H 0.42461 0.80237 0.63024 0.0
H429 H 0.4215 0.86166 0.61772 0.0
C430 C 0.48037 0.9134 0.596 0.0
C431 C 0.51403 0.93839 0.58658 0.0
C432 C 0.48131 0.87869 0.60083 0.0
C433 C 0.54824 0.92779 0.57982 0.0
C434 C 0.5492 0.89306 0.58357 0.0
C435 C 0.51752 0.8343 0.60162 0.0
C436 C 0.48482 0.81033 0.61505 0.0
C437 C 0.5161 0.8685 0.59487 0.0
C438 C 0.45025 0.82055 0.62034 0.0
C439 C 0.44843 0.85435 0.61302 0.0
H440 H 0.77873 0.84381 0.86372 0.0
H441 H 0.71847 0.81768 0.75512 0.0
H442 H 0.7722 0.85579 0.72198 0.0
H443 H 0.83727 0.89471 0.72368 0.0
H444 H 0.89891 0.91694 0.8319 0.0
H445 H 0.84334 0.88283 0.86554 0.0
C446 C 0.77697 0.84721 0.83303 0.0
C447 C 0.74449 0.82861 0.81199 0.0
C448 C 0.80833 0.86827 0.81407 0.0
C449 C 0.74315 0.83207 0.77191 0.0
C450 C 0.77388 0.85372 0.75297 0.0
C451 C 0.83871 0.89188 0.75455 0.0
C452 C 0.87234 0.90853 0.77513 0.0
C453 C 0.80687 0.87153 0.77367 0.0
C454 C 0.87331 0.90496 0.81532 0.0
C455 C 0.84159 0.88525 0.83462 0.0
H456 H 0.67671 0.15574 0.48308 0.0
H457 H 0.59135 0.05854 0.4947 0.0
H458 H 0.57236 0.05767 0.42721 0.0
H459 H 0.58383 0.08173 0.3637 0.0
H460 H 0.67252 0.17661 0.35042 0.0
H461 H 0.68538 0.18199 0.42009 0.0
C462 C 0.65324 0.13496 0.47111 0.0
C463 C 0.63518 0.1074 0.49378 0.0
C464 C 0.64322 0.13414 0.43196 0.0
C465 C 0.6056 0.08001 0.47766 0.0
C466 C 0.5948 0.07948 0.43913 0.0
C467 C 0.60603 0.10359 0.37599 0.0
C468 C 0.62751 0.12843 0.3517 0.0
C469 C 0.61411 0.1059 0.41575 0.0
C470 C 0.65541 0.15714 0.36838 0.0
C471 C 0.66302 0.16009 0.4082 0.0
H472 H 0.42167 0.72722 0.42848 0.0
H473 H 0.47094 0.67253 0.3344 0.0
H474 H 0.49127 0.63748 0.3806 0.0
H475 H 0.49485 0.62166 0.44808 0.0
H476 H 0.44671 0.67749 0.5421 0.0
H477 H 0.42629 0.71227 0.49587 0.0
C478 C 0.43703 0.70778 0.41802 0.0
C479 C 0.44468 0.70274 0.37775 0.0
C480 C 0.44873 0.68753 0.44489 0.0
C481 C 0.46463 0.67724 0.36506 0.0
C482 C 0.47621 0.657 0.39154 0.0
C483 C 0.47964 0.64124 0.45846 0.0
C484 C 0.47217 0.64653 0.49874 0.0
C485 C 0.46827 0.66172 0.43157 0.0
C486 C 0.45284 0.67251 0.51143 0.0
C487 C 0.44114 0.69259 0.48492 0.0
H488 H 0.15468 0.50638 0.84984 0.0
H489 H 0.05896 0.41524 0.85127 0.0
H490 H 0.02888 0.44435 0.90432 0.0
H491 H 0.02869 0.4967 0.9498 0.0
H492 H 0.12432 0.58768 0.94726 0.0
H493 H 0.15528 0.55769 0.89584 0.0
C494 C 0.12725 0.49281 0.86171 0.0
C495 C 0.10922 0.45863 0.84621 0.0
C496 C 0.10994 0.50974 0.89233 0.0
C497 C 0.07365 0.44158 0.86232 0.0
C498 C 0.05633 0.45821 0.89282 0.0
C499 C 0.05642 0.50975 0.93815 0.0
C500 C 0.07407 0.54444 0.95228 0.0
C501 C 0.07408 0.49239 0.90802 0.0
C502 C 0.10997 0.56107 0.93677 0.0
C503 C 0.12775 0.54394 0.90729 0.0
H504 H 0.61607 0.92739 0.93124 0.0
H505 H 0.71803 0.94915 1.00037 0.0
H506 H 0.69212 0.98936 0.04544 0.0
H507 H 0.63861 1.01631 0.06676 0.0
H508 H 0.53648 0.99153 0.9973 0.0
H509 H 0.56445 0.95479 0.95095 0.0
C510 C 0.63286 0.94102 0.95601 0.0
C511 C 0.66888 0.93513 0.96243 0.0
C512 C 0.61762 0.96357 0.98195 0.0
C513 C 0.69013 0.95313 0.99475 0.0
C514 C 0.67531 0.9761 1.02058 0.0
C515 C 0.62271 1.00303 0.04132 0.0
C516 C 0.58542 1.00654 0.03574 0.0
C517 C 0.63882 0.98124 1.01472 0.0
C518 C 0.56507 0.98908 1.00266 0.0
C519 C 0.58105 0.96804 0.97597 0.0
H520 H 0.7967 0.0328 0.5557 0.0
H521 H 0.81122 0.12364 0.63859 0.0
H522 H 0.87906 0.12581 0.64389 0.0
H523 H 0.93246 0.09821 0.63029 0.0
H524 H 0.91915 1.00832 0.54654 0.0
H525 H 0.85277 1.00977 0.53562 0.0
C526 C 0.81484 0.05326 0.57461 0.0
C527 C 0.79884 0.07768 0.5972 0.0
C528 C 0.85396 0.0545 0.57734 0.0
C529 C 0.82277 0.10442 0.62107 0.0
C530 C 0.86156 0.10564 0.6242 0.0
C531 C 0.91516 0.0794 0.60909 0.0
C532 C 0.93027 0.05303 0.58951 0.0
C533 C 0.87719 0.08032 0.60322 0.0
C534 C 0.90798 1.0289 0.56187 0.0
C535 C 0.86998 1.02956 0.5559 0.0
H536 H 0.25871 0.69637 0.09916 0.0
H537 H 0.23207 0.66513 0.21579 0.0
H538 H 0.17237 0.62431 0.19292 0.0
H539 H 0.12508 0.60072 0.14019 0.0
H540 H 0.15117 0.63553 1.02511 0.0
H541 H 0.21381 0.67123 0.04669 0.0
C542 C 0.24009 0.68047 0.11964 0.0
C543 C 0.24992 0.68407 0.15924 0.0
C544 C 0.2056 0.65751 0.10642 0.0
C545 C 0.22525 0.6631 0.18519 0.0
C546 C 0.19105 0.63971 0.17211 0.0
C547 C 0.145 0.61553 0.11981 0.0
C548 C 0.13396 0.61526 0.08101 0.0
C549 C 0.18059 0.63705 0.13286 0.0
C550 C 0.15938 0.63519 0.05499 0.0
C551 C 0.19505 0.65573 0.06738 0.0
H552 H 0.3277 0.50547 0.72823 0.0
H553 H 0.25433 0.48194 0.62813 0.0
H554 H 0.30815 0.50866 0.58671 0.0
H555 H 0.37714 0.53568 0.57797 0.0
H556 H 0.45012 0.56112 0.67823 0.0
H557 H 0.39558 0.53705 0.72037 0.0
C558 C 0.32341 0.50644 0.69741 0.0
C559 C 0.28696 0.49141 0.68136 0.0
C560 C 0.35455 0.52213 0.67366 0.0
C561 C 0.28196 0.49324 0.64137 0.0
C562 C 0.31281 0.50844 0.61756 0.0
C563 C 0.38097 0.53622 0.6091 0.0
C564 C 0.4177 0.54986 0.62486 0.0
C565 C 0.34937 0.5225 0.63324 0.0
C566 C 0.42219 0.55069 0.66531 0.0
C567 C 0.39101 0.53681 0.68944 0.0
H568 H 0.76041 0.74391 0.94334 0.0
H569 H 0.7253 0.64034 0.88373 0.0
H570 H 0.77986 0.62427 0.91045 0.0
H571 H 0.83974 0.64097 0.94749 0.0
H572 H 0.87664 0.74568 1.00375 0.0
H573 H 0.81925 0.76013 0.98146 0.0
C574 C 0.76439 0.71766 0.93663 0.0
C575 C 0.7388 0.6933 0.91172 0.0
C576 C 0.79636 0.70897 0.95117 0.0
C577 C 0.74463 0.65955 0.90285 0.0
C578 C 0.77585 0.65038 0.91804 0.0
C579 C 0.8349 0.6668 0.9552 0.0
C580 C 0.86226 0.69226 0.97717 0.0
C581 C 0.80222 0.67507 0.94172 0.0
C582 C 0.85605 0.72579 0.98657 0.0
C583 C 0.82323 0.734 0.97396 0.0
H584 H 0.38955 0.87439 0.19821 0.0
H585 H 0.48852 0.86229 0.25719 0.0
H586 H 0.52589 0.91839 0.23607 0.0
H587 H 0.5315 0.96986 0.19924 0.0
H588 H 0.43299 0.98427 0.14183 0.0
H589 H 0.39438 0.9284 0.16404 0.0
C590 C 0.41928 0.88403 0.20659 0.0
C591 C 0.43613 0.86369 0.22922 0.0
C592 C 0.4407 0.91675 0.19456 0.0
C593 C 0.47463 0.87706 0.23994 0.0
C594 C 0.49611 0.90921 0.22775 0.0
C595 C 0.50149 0.96097 0.19167 0.0
C596 C 0.48521 0.98129 0.16869 0.0
C597 C 0.47958 0.92911 0.20482 0.0
C598 C 0.44622 0.96931 0.1595 0.0
C599 C 0.42423 0.93727 0.17213 0.0
H600 H 0.12562 0.23321 0.74505 0.0
H601 H 0.09476 0.28482 0.65038 0.0
H602 H 0.07548 0.22824 0.61173 0.0
H603 H 0.06444 0.16325 0.60614 0.0
H604 H 0.09505 0.11296 0.70225 0.0
H605 H 0.11736 0.1697 0.73863 0.0
C606 C 0.11488 0.23225 0.71588 0.0
C607 C 0.11151 0.26334 0.70084 0.0
C608 C 0.10361 0.19966 0.69397 0.0
C609 C 0.09764 0.26137 0.66283 0.0
C610 C 0.08652 0.22896 0.64069 0.0
C611 C 0.07629 0.16477 0.6349 0.0
C612 C 0.07778 0.13368 0.65138 0.0
C613 C 0.08895 0.19779 0.65613 0.0
C614 C 0.09323 0.13626 0.68877 0.0
C615 C 0.10607 0.16879 0.70973 0.0
H616 H 0.63806 0.29666 0.56 0.0
H617 H 0.58709 0.25546 0.44866 0.0
H618 H 0.56685 0.30941 0.44354 0.0
H619 H 0.56227 0.36764 0.4712 0.0
H620 H 0.61403 0.40945 0.58197 0.0
H621 H 0.63475 0.35563 0.587 0.0
C622 C 0.62262 0.29949 0.53454 0.0
C623 C 0.61408 0.27196 0.50479 0.0
C624 C 0.61094 0.33059 0.53179 0.0
C625 C 0.59405 0.27615 0.47202 0.0
C626 C 0.5824 0.30701 0.46906 0.0
C627 C 0.57849 0.36521 0.49624 0.0
C628 C 0.58654 0.39261 0.52614 0.0
C629 C 0.59057 0.33432 0.49882 0.0
C630 C 0.60697 0.38863 0.55874 0.0
C631 C 0.61906 0.35794 0.56154 0.0
loop_
_geom_bond_atom_site_label_1
_geom_bond_atom_site_label_2
_geom_bond_distance
_geom_bond_site_symmetry_2
_ccdc_geom_bond_type
O0 Cd1 2.300 . S
O0 C7 1.275 . S
Cd1 O0 2.300 . S
Cd1 O9 2.381 . S
Cd1 O10 2.378 . S
O2 Cd3 2.385 . S
O2 C7 1.255 . S
Cd3 O2 2.385 . S
Cd3 O4 2.317 . S
O4 Cd3 2.317 . S
O4 C5 1.232 . S
C5 O4 1.232 . S
C5 O6 1.218 . S
O6 C5 1.218 . S
C7 O0 1.275 . S
C7 O2 1.255 . S
C8 O9 1.258 . S
C8 O10 1.256 . S
O9 Cd1 2.381 . S
O9 C8 1.258 . S
O10 Cd1 2.378 . S
O10 C8 1.256 . S
O11 Cd12 2.300 . S
O11 C18 1.275 . S
Cd12 O11 2.300 . S
Cd12 O20 2.381 . S
Cd12 O21 2.378 . S
O13 Cd14 2.385 . S
O13 C18 1.255 . S
Cd14 O13 2.385 . S
Cd14 O15 2.317 . S
O15 Cd14 2.317 . S
O15 C16 1.232 . S
C16 O15 1.232 . S
C16 O17 1.218 . S
O17 C16 1.218 . S
C18 O11 1.275 . S
C18 O13 1.255 . S
C19 O20 1.258 . S
C19 O21 1.256 . S
O20 Cd12 2.381 . S
O20 C19 1.258 . S
O21 Cd12 2.378 . S
O21 C19 1.256 . S
O22 Cd23 2.300 . S
O22 C29 1.275 . S
Cd23 O22 2.300 . S
Cd23 O31 2.381 . S
Cd23 O32 2.378 . S
O24 Cd25 2.385 . S
O24 C29 1.255 . S
Cd25 O24 2.385 . S
Cd25 O26 2.317 . S
O26 Cd25 2.317 . S
O26 C27 1.232 . S
C27 O26 1.232 . S
C27 O28 1.218 . S
O28 C27 1.218 . S
C29 O22 1.275 . S
C29 O24 1.255 . S
C30 O31 1.258 . S
C30 O32 1.256 . S
O31 Cd23 2.381 . S
O31 C30 1.258 . S
O32 Cd23 2.378 . S
O32 C30 1.256 . S
O33 Cd34 2.300 . S
O33 C40 1.275 . S
Cd34 O33 2.300 . S
Cd34 O42 2.381 . S
Cd34 O43 2.378 . S
O35 Cd36 2.385 . S
O35 C40 1.255 . S
Cd36 O35 2.385 . S
Cd36 O37 2.317 . S
O37 Cd36 2.317 . S
O37 C38 1.232 . S
C38 O37 1.232 . S
C38 O39 1.218 . S
O39 C38 1.218 . S
C40 O33 1.275 . S
C40 O35 1.255 . S
C41 O42 1.258 . S
C41 O43 1.256 . S
O42 Cd34 2.381 . S
O42 C41 1.258 . S
O43 Cd34 2.378 . S
O43 C41 1.256 . S
O44 Cd45 2.300 . S
O44 C51 1.275 . S
Cd45 O44 2.300 . S
Cd45 O53 2.381 . S
Cd45 O54 2.378 . S
O46 Cd47 2.385 . S
O46 C51 1.255 . S
Cd47 O46 2.385 . S
Cd47 O48 2.317 . S
O48 Cd47 2.317 . S
O48 C49 1.232 . S
C49 O48 1.232 . S
C49 O50 1.218 . S
O50 C49 1.218 . S
C51 O44 1.275 . S
C51 O46 1.255 . S
C52 O53 1.258 . S
C52 O54 1.256 . S
O53 Cd45 2.381 . S
O53 C52 1.258 . S
O54 Cd45 2.378 . S
O54 C52 1.256 . S
O55 Cd56 2.300 . S
O55 C62 1.275 . S
Cd56 O55 2.300 . S
Cd56 O64 2.381 . S
Cd56 O65 2.378 . S
O57 Cd58 2.385 . S
O57 C62 1.255 . S
Cd58 O57 2.385 . S
Cd58 O59 2.317 . S
O59 Cd58 2.317 . S
O59 C60 1.232 . S
C60 O59 1.232 . S
C60 O61 1.218 . S
O61 C60 1.218 . S
C62 O55 1.275 . S
C62 O57 1.255 . S
C63 O64 1.258 . S
C63 O65 1.256 . S
O64 Cd56 2.381 . S
O64 C63 1.258 . S
O65 Cd56 2.378 . S
O65 C63 1.256 . S
O66 Cd67 2.300 . S
O66 C73 1.275 . S
Cd67 O66 2.300 . S
Cd67 O75 2.381 . S
Cd67 O76 2.378 . S
O68 Cd69 2.385 . S
O68 C73 1.255 . S
Cd69 O68 2.385 . S
Cd69 O70 2.317 . S
O70 Cd69 2.317 . S
O70 C71 1.232 . S
C71 O70 1.232 . S
C71 O72 1.218 . S
O72 C71 1.218 . S
C73 O66 1.275 . S
C73 O68 1.255 . S
C74 O75 1.258 . S
C74 O76 1.256 . S
O75 Cd67 2.381 . S
O75 C74 1.258 . S
O76 Cd67 2.378 . S
O76 C74 1.256 . S
O77 Cd78 2.300 . S
O77 C84 1.275 . S
Cd78 O77 2.300 . S
Cd78 O86 2.381 . S
Cd78 O87 2.378 . S
O79 Cd80 2.385 . S
O79 C84 1.255 . S
Cd80 O79 2.385 . S
Cd80 O81 2.317 . S
O81 Cd80 2.317 . S
O81 C82 1.232 . S
C82 O81 1.232 . S
C82 O83 1.218 . S
O83 C82 1.218 . S
C84 O77 1.275 . S
C84 O79 1.255 . S
C85 O86 1.258 . S
C85 O87 1.256 . S
O86 Cd78 2.381 . S
O86 C85 1.258 . S
O87 Cd78 2.378 . S
O87 C85 1.256 . S
La88 C90 2.928 . S
La88 O108 2.521 . S
La88 O109 2.628 . S
La88 O110 2.554 . S
La88 O111 2.747 1_545 S
La88 O112 2.470 . S
La88 O117 2.482 1_455 S
La88 O119 2.503 1_445 S
La89 C99 2.928 1_545 S
La89 O111 2.473 1_645 S
La89 O113 2.503 1_655 S
La89 O114 2.521 1_545 S
La89 O115 2.628 1_545 S
La89 O116 2.554 . S
La89 O117 2.757 . S
La89 O118 2.470 1_545 S
C90 La88 2.928 . S
C90 C91 1.503 . S
C90 O108 1.261 . S
C90 O109 1.243 . S
C91 C90 1.503 . S
C91 C92 1.394 . S
C91 C96 1.373 . S
C92 C91 1.394 . S
C92 C93 1.380 . S
C92 H120 0.930 . S
C93 C92 1.380 . S
C93 C94 1.376 . S
C93 H121 0.930 . S
C94 C93 1.376 . S
C94 C95 1.370 . S
C95 C94 1.370 . S
C95 C96 1.396 . S
C95 H122 0.929 . S
C96 C91 1.373 . S
C96 C95 1.396 . S
C96 H123 0.929 . S
C97 O110 1.240 1_565 S
C97 O111 1.297 . S
C98 O112 1.258 . S
C98 O113 1.256 . S
C99 La89 2.928 1_565 S
C99 C100 1.503 . S
C99 O114 1.261 . S
C99 O115 1.243 . S
C100 C99 1.503 . S
C100 C101 1.394 . S
C100 C105 1.373 . S
C101 C100 1.394 . S
C101 C102 1.380 . S
C101 H124 0.930 . S
C102 C101 1.380 . S
C102 C103 1.376 . S
C102 H125 0.930 . S
C103 C102 1.376 . S
C103 C104 1.370 . S
C104 C103 1.370 . S
C104 C105 1.396 . S
C104 H126 0.929 . S
C105 C100 1.373 . S
C105 C104 1.396 . S
C105 H127 0.929 . S
C106 O116 1.240 . S
C106 O117 1.289 . S
C107 O118 1.258 . S
C107 O119 1.256 . S
O108 La88 2.521 . S
O108 C90 1.261 . S
O109 La88 2.628 . S
O109 C90 1.243 . S
O110 La88 2.554 . S
O110 C97 1.240 1_545 S
O111 La88 2.747 1_565 S
O111 La89 2.473 1_465 S
O111 C97 1.297 . S
O112 La88 2.470 . S
O112 C98 1.258 . S
O113 La89 2.503 1_455 S
O113 C98 1.256 . S
O114 La89 2.521 1_565 S
O114 C99 1.261 . S
O115 La89 2.628 1_565 S
O115 C99 1.243 . S
O116 La89 2.554 . S
O116 C106 1.240 . S
O117 La88 2.482 1_655 S
O117 La89 2.757 . S
O117 C106 1.289 . S
O118 La89 2.470 1_565 S
O118 C107 1.258 . S
O119 La88 2.503 1_665 S
O119 C107 1.256 . S
H120 C92 0.930 . S
H121 C93 0.930 . S
H122 C95 0.929 . S
H123 C96 0.929 . S
H124 C101 0.930 . S
H125 C102 0.930 . S
H126 C104 0.929 . S
H127 C105 0.929 . S
La128 C130 2.928 . S
La128 O148 2.521 . S
La128 O149 2.628 . S
La128 O150 2.554 1_545 S
La128 O151 2.757 . S
La128 O152 2.470 . S
La128 O157 2.482 . S
La128 O159 2.503 . S
La129 C139 2.928 1_544 S
La129 O151 2.482 . S
La129 O153 2.503 . S
La129 O154 2.521 1_554 S
La129 O155 2.628 1_544 S
La129 O156 2.554 . S
La129 O157 2.757 . S
La129 O158 2.477 . S
C130 La128 2.928 . S
C130 C131 1.503 . S
C130 O148 1.261 . S
C130 O149 1.243 . S
C131 C130 1.503 . S
C131 C132 1.394 . S
C131 C136 1.373 . S
C132 C131 1.394 . S
C132 C133 1.380 . S
C132 H160 0.930 . S
C133 C132 1.380 . S
C133 C134 1.376 . S
C133 H161 0.930 . S
C134 C133 1.376 . S
C134 C135 1.370 . S
C135 C134 1.370 . S
C135 C136 1.396 . S
C135 H162 0.929 . S
C136 C131 1.373 . S
C136 C135 1.396 . S
C136 H163 0.929 . S
C137 O150 1.240 . S
C137 O151 1.289 1_565 S
C138 O152 1.258 . S
C138 O153 1.256 . S
C139 La129 2.928 1_566 S
C139 C140 1.503 . S
C139 O154 1.261 1_565 S
C139 O155 1.243 . S
C140 C139 1.503 . S
C140 C141 1.394 . S
C140 C145 1.373 . S
C141 C140 1.394 . S
C141 C142 1.380 . S
C141 H164 0.930 1_565 S
C142 C141 1.380 . S
C142 C143 1.376 . S
C142 H165 0.930 . S
C143 C142 1.376 . S
C143 C144 1.370 . S
C144 C143 1.370 . S
C144 C145 1.396 . S
C144 H166 0.929 . S
C145 C140 1.373 . S
C145 C144 1.396 . S
C145 H167 0.929 . S
C146 O156 1.240 . S
C146 O157 1.289 . S
C147 O158 1.265 . S
C147 O159 1.256 . S
O148 La128 2.521 . S
O148 C130 1.261 . S
O149 La128 2.628 . S
O149 C130 1.243 . S
O150 La128 2.554 1_565 S
O150 C137 1.240 . S
O151 La128 2.757 . S
O151 La129 2.482 . S
O151 C137 1.289 1_545 S
O152 La128 2.470 . S
O152 C138 1.258 . S
O153 La129 2.503 . S
O153 C138 1.256 . S
O154 La129 2.521 1_556 S
O154 C139 1.261 1_545 S
O155 La129 2.628 1_566 S
O155 C139 1.243 . S
O156 La129 2.554 . S
O156 C146 1.240 . S
O157 La128 2.482 . S
O157 La129 2.757 . S
O157 C146 1.289 . S
O158 La129 2.477 . S
O158 C147 1.265 . S
O159 La128 2.503 . S
O159 C147 1.256 . S
H160 C132 0.930 . S
H161 C133 0.930 . S
H162 C135 0.929 . S
H163 C136 0.929 . S
H164 C141 0.930 1_545 S
H165 C142 0.930 . S
H166 C144 0.929 . S
H167 C145 0.929 . S
La168 C170 2.928 . S
La168 O188 2.521 . S
La168 O189 2.628 . S
La168 O190 2.554 . S
La168 O191 2.757 . S
La168 O192 2.470 . S
La168 O197 2.482 . S
La168 O199 2.503 . S
La169 C179 2.928 . S
La169 O191 2.482 . S
La169 O193 2.503 . S
La169 O194 2.521 . S
La169 O195 2.628 . S
La169 O196 2.554 . S
La169 O197 2.757 . S
La169 O198 2.470 . S
C170 La168 2.928 . S
C170 C171 1.503 . S
C170 O188 1.261 . S
C170 O189 1.243 . S
C171 C170 1.503 . S
C171 C172 1.394 . S
C171 C176 1.373 . S
C172 C171 1.394 . S
C172 C173 1.380 . S
C172 H200 0.930 . S
C173 C172 1.380 . S
C173 C174 1.376 . S
C173 H201 0.930 . S
C174 C173 1.376 . S
C174 C175 1.370 . S
C175 C174 1.370 . S
C175 C176 1.396 . S
C175 H202 0.929 . S
C176 C171 1.373 . S
C176 C175 1.396 . S
C176 H203 0.929 . S
C177 O190 1.240 . S
C177 O191 1.289 . S
C178 O192 1.258 . S
C178 O193 1.256 . S
C179 La169 2.928 . S
C179 C180 1.503 . S
C179 O194 1.261 . S
C179 O195 1.243 . S
C180 C179 1.503 . S
C180 C181 1.394 . S
C180 C185 1.373 . S
C181 C180 1.394 . S
C181 C182 1.380 . S
C181 H204 0.930 . S
C182 C181 1.380 . S
C182 C183 1.376 . S
C182 H205 0.930 . S
C183 C182 1.376 . S
C183 C184 1.370 . S
C184 C183 1.370 . S
C184 C185 1.396 . S
C184 H206 0.929 . S
C185 C180 1.373 . S
C185 C184 1.396 . S
C185 H207 0.929 . S
C186 O196 1.240 . S
C186 O197 1.289 . S
C187 O198 1.258 . S
C187 O199 1.256 . S
O188 La168 2.521 . S
O188 C170 1.261 . S
O189 La168 2.628 . S
O189 C170 1.243 . S
O190 La168 2.554 . S
O190 C177 1.240 . S
O191 La168 2.757 . S
O191 La169 2.482 . S
O191 C177 1.289 . S
O192 La168 2.470 . S
O192 C178 1.258 . S
O193 La169 2.503 . S
O193 C178 1.256 . S
O194 La169 2.521 . S
O194 C179 1.261 . S
O195 La169 2.628 . S
O195 C179 1.243 . S
O196 La169 2.554 . S
O196 C186 1.240 . S
O197 La168 2.482 . S
O197 La169 2.757 . S
O197 C186 1.289 . S
O198 La169 2.470 . S
O198 C187 1.258 . S
O199 La168 2.503 . S
O199 C187 1.256 . S
H200 C172 0.930 . S
H201 C173 0.930 . S
H202 C175 0.929 . S
H203 C176 0.929 . S
H204 C181 0.930 . S
H205 C182 0.930 . S
H206 C184 0.929 . S
H207 C185 0.929 . S
La208 C210 2.928 . S
La208 O228 2.521 . S
La208 O229 2.628 . S
La208 O230 2.563 . S
La208 O231 2.759 . S
La208 O232 2.470 . S
La208 O237 2.482 1_554 S
La208 O239 2.503 1_455 S
La209 C219 2.928 1_455 S
La209 O231 2.483 1_556 S
La209 O233 2.503 1_556 S
La209 O234 2.521 1_455 S
La209 O235 2.628 1_455 S
La209 O236 2.554 . S
La209 O237 2.757 . S
La209 O238 2.470 1_455 S
C210 La208 2.928 . S
C210 C211 1.503 . S
C210 O228 1.261 . S
C210 O229 1.243 . S
C211 C210 1.503 . S
C211 C212 1.394 . S
C211 C216 1.373 . S
C212 C211 1.394 . S
C212 C213 1.380 . S
C212 H240 0.930 . S
C213 C212 1.380 . S
C213 C214 1.376 . S
C213 H241 0.930 . S
C214 C213 1.376 . S
C214 C215 1.370 . S
C215 C214 1.370 . S
C215 C216 1.396 . S
C215 H242 0.929 . S
C216 C211 1.373 . S
C216 C215 1.396 . S
C216 H243 0.929 . S
C217 O230 1.233 1_655 S
C217 O231 1.289 1_655 S
C218 O232 1.258 . S
C218 O233 1.256 . S
C219 La209 2.928 1_655 S
C219 C220 1.503 . S
C219 O234 1.261 . S
C219 O235 1.243 . S
C220 C219 1.503 . S
C220 C221 1.394 . S
C220 C225 1.373 . S
C221 C220 1.394 . S
C221 C222 1.380 . S
C221 H244 0.930 . S
C222 C221 1.380 . S
C222 C223 1.376 . S
C222 H245 0.930 . S
C223 C222 1.376 . S
C223 C224 1.370 . S
C224 C223 1.370 . S
C224 C225 1.396 . S
C224 H246 0.929 . S
C225 C220 1.373 . S
C225 C224 1.396 . S
C225 H247 0.929 . S
C226 O236 1.240 . S
C226 O237 1.289 . S
C227 O238 1.258 . S
C227 O239 1.256 1_556 S
O228 La208 2.521 . S
O228 C210 1.261 . S
O229 La208 2.628 . S
O229 C210 1.243 . S
O230 La208 2.563 . S
O230 C217 1.233 1_455 S
O231 La208 2.759 . S
O231 La209 2.483 1_554 S
O231 C217 1.289 1_455 S
O232 La208 2.470 . S
O232 C218 1.258 . S
O233 La209 2.503 1_554 S
O233 C218 1.256 . S
O234 La209 2.521 1_655 S
O234 C219 1.261 . S
O235 La209 2.628 1_655 S
O235 C219 1.243 . S
O236 La209 2.554 . S
O236 C226 1.240 . S
O237 La208 2.482 1_556 S
O237 La209 2.757 . S
O237 C226 1.289 . S
O238 La209 2.470 1_655 S
O238 C227 1.258 . S
O239 La208 2.503 1_655 S
O239 C227 1.256 1_554 S
H240 C212 0.930 . S
H241 C213 0.930 . S
H242 C215 0.929 . S
H243 C216 0.929 . S
H244 C221 0.930 . S
H245 C222 0.930 . S
H246 C224 0.929 . S
H247 C225 0.929 . S
H248 C254 0.930 . S
H249 C257 0.930 . S
H250 C258 0.930 . S
H251 C259 0.930 . S
H252 C262 0.930 . S
H253 C263 0.930 . S
C254 H248 0.930 . S
C254 C255 1.355 . S
C254 C256 1.415 . S
C255 C254 1.355 . S
C255 C257 1.419 . S
C256 C254 1.415 . S
C256 C261 1.425 . S
C256 C263 1.409 . S
C257 H249 0.930 . S
C257 C255 1.419 . S
C257 C258 1.362 . S
C258 H250 0.930 . S
C258 C257 1.362 . S
C258 C261 1.409 . S
C259 H251 0.930 . S
C259 C260 1.355 . S
C259 C261 1.415 . S
C260 C259 1.355 . S
C260 C262 1.419 . S
C261 C256 1.425 . S
C261 C258 1.409 . S
C261 C259 1.415 . S
C262 H252 0.930 . S
C262 C260 1.419 . S
C262 C263 1.362 . S
C263 H253 0.930 . S
C263 C256 1.409 . S
C263 C262 1.362 . S
H264 C270 0.930 . S
H265 C273 0.930 . S
H266 C274 0.930 . S
H267 C275 0.930 . S
H268 C278 0.930 . S
H269 C279 0.930 . S
C270 H264 0.930 . S
C270 C271 1.355 . S
C270 C272 1.415 . S
C271 C270 1.355 . S
C271 C273 1.419 . S
C272 C270 1.415 . S
C272 C277 1.425 . S
C272 C279 1.409 . S
C273 H265 0.930 . S
C273 C271 1.419 . S
C273 C274 1.362 . S
C274 H266 0.930 . S
C274 C273 1.362 . S
C274 C277 1.409 . S
C275 H267 0.930 . S
C275 C276 1.355 . S
C275 C277 1.415 . S
C276 C275 1.355 . S
C276 C278 1.419 . S
C277 C272 1.425 . S
C277 C274 1.409 . S
C277 C275 1.415 . S
C278 H268 0.930 . S
C278 C276 1.419 . S
C278 C279 1.362 . S
C279 H269 0.930 . S
C279 C272 1.409 . S
C279 C278 1.362 . S
H280 C286 0.930 . S
H281 C289 0.930 . S
H282 C290 0.930 . S
H283 C291 0.930 . S
H284 C294 0.930 . S
H285 C295 0.930 . S
C286 H280 0.930 . S
C286 C287 1.355 . S
C286 C288 1.415 . S
C287 C286 1.355 . S
C287 C289 1.419 . S
C288 C286 1.415 . S
C288 C293 1.425 . S
C288 C295 1.409 . S
C289 H281 0.930 . S
C289 C287 1.419 . S
C289 C290 1.362 . S
C290 H282 0.930 . S
C290 C289 1.362 . S
C290 C293 1.409 . S
C291 H283 0.930 . S
C291 C292 1.355 . S
C291 C293 1.415 . S
C292 C291 1.355 . S
C292 C294 1.419 . S
C293 C288 1.425 . S
C293 C290 1.409 . S
C293 C291 1.415 . S
C294 H284 0.930 . S
C294 C292 1.419 . S
C294 C295 1.362 . S
C295 H285 0.930 . S
C295 C288 1.409 . S
C295 C294 1.362 . S
H296 C302 0.930 . S
H297 C305 0.930 . S
H298 C306 0.930 . S
H299 C307 0.930 . S
H300 C310 0.930 . S
H301 C311 0.930 . S
C302 H296 0.930 . S
C302 C303 1.355 . S
C302 C304 1.415 . S
C303 C302 1.355 . S
C303 C305 1.419 . S
C304 C302 1.415 . S
C304 C309 1.425 . S
C304 C311 1.409 1_655 S
C305 H297 0.930 . S
C305 C303 1.419 . S
C305 C306 1.362 . S
C306 H298 0.930 . S
C306 C305 1.362 . S
C306 C309 1.409 . S
C307 H299 0.930 . S
C307 C308 1.355 . S
C307 C309 1.415 . S
C308 C307 1.355 . S
C308 C310 1.419 1_655 S
C309 C304 1.425 . S
C309 C306 1.409 . S
C309 C307 1.415 . S
C310 H300 0.930 . S
C310 C308 1.419 1_455 S
C310 C311 1.362 . S
C311 H301 0.930 . S
C311 C304 1.409 1_455 S
C311 C310 1.362 . S
H312 C318 0.930 . S
H313 C321 0.930 . S
H314 C322 0.930 . S
H315 C323 0.930 . S
H316 C326 0.930 . S
H317 C327 0.930 . S
C318 H312 0.930 . S
C318 C319 1.355 . S
C318 C320 1.415 . S
C319 C318 1.355 . S
C319 C321 1.419 . S
C320 C318 1.415 . S
C320 C325 1.425 . S
C320 C327 1.409 . S
C321 H313 0.930 . S
C321 C319 1.419 . S
C321 C322 1.362 . S
C322 H314 0.930 . S
C322 C321 1.362 . S
C322 C325 1.409 . S
C323 H315 0.930 . S
C323 C324 1.355 . S
C323 C325 1.415 . S
C324 C323 1.355 . S
C324 C326 1.419 . S
C325 C320 1.425 . S
C325 C322 1.409 . S
C325 C323 1.415 . S
C326 H316 0.930 . S
C326 C324 1.419 . S
C326 C327 1.362 . S
C327 H317 0.930 . S
C327 C320 1.409 . S
C327 C326 1.362 . S
H328 C334 0.930 . S
H329 C337 0.930 . S
H330 C338 0.930 . S
H331 C339 0.930 . S
H332 C342 0.930 . S
H333 C343 0.930 1_545 S
C334 H328 0.930 . S
C334 C335 1.355 . S
C334 C336 1.415 . S
C335 C334 1.355 . S
C335 C337 1.419 . S
C336 C334 1.415 . S
C336 C341 1.425 . S
C336 C343 1.409 . S
C337 H329 0.930 . S
C337 C335 1.419 . S
C337 C338 1.362 . S
C338 H330 0.930 . S
C338 C337 1.362 . S
C338 C341 1.409 . S
C339 H331 0.930 . S
C339 C340 1.355 . S
C339 C341 1.415 . S
C340 C339 1.355 . S
C340 C342 1.419 1_565 S
C341 C336 1.425 . S
C341 C338 1.409 . S
C341 C339 1.415 . S
C342 H332 0.930 . S
C342 C340 1.419 1_545 S
C342 C343 1.362 1_545 S
C343 H333 0.930 1_565 S
C343 C336 1.409 . S
C343 C342 1.362 1_565 S
H344 C350 0.930 . S
H345 C353 0.930 . S
H346 C354 0.930 . S
H347 C355 0.930 . S
H348 C358 0.930 . S
H349 C359 0.930 . S
C350 H344 0.930 . S
C350 C351 1.355 . S
C350 C352 1.415 . S
C351 C350 1.355 . S
C351 C353 1.419 . S
C352 C350 1.415 . S
C352 C357 1.425 . S
C352 C359 1.409 . S
C353 H345 0.930 . S
C353 C351 1.419 . S
C353 C354 1.362 . S
C354 H346 0.930 . S
C354 C353 1.362 . S
C354 C357 1.409 . S
C355 H347 0.930 . S
C355 C356 1.355 . S
C355 C357 1.415 . S
C356 C355 1.355 . S
C356 C358 1.419 . S
C357 C352 1.425 . S
C357 C354 1.409 . S
C357 C355 1.415 . S
C358 H348 0.930 . S
C358 C356 1.419 . S
C358 C359 1.362 . S
C359 H349 0.930 . S
C359 C352 1.409 . S
C359 C358 1.362 . S
H360 C366 0.930 . S
H361 C369 0.930 . S
H362 C370 0.930 . S
H363 C371 0.930 . S
H364 C374 0.930 . S
H365 C375 0.930 . S
C366 H360 0.930 . S
C366 C367 1.355 . S
C366 C368 1.415 . S
C367 C366 1.355 . S
C367 C369 1.419 . S
C368 C366 1.415 . S
C368 C373 1.425 . S
C368 C375 1.409 . S
C369 H361 0.930 . S
C369 C367 1.419 . S
C369 C370 1.362 . S
C370 H362 0.930 . S
C370 C369 1.362 . S
C370 C373 1.409 . S
C371 H363 0.930 . S
C371 C372 1.355 . S
C371 C373 1.415 . S
C372 C371 1.355 . S
C372 C374 1.419 . S
C373 C368 1.425 . S
C373 C370 1.409 . S
C373 C371 1.415 . S
C374 H364 0.930 . S
C374 C372 1.419 . S
C374 C375 1.362 . S
C375 H365 0.930 . S
C375 C368 1.409 . S
C375 C374 1.362 . S
H376 C382 0.930 . S
H377 C385 0.930 . S
H378 C386 0.930 . S
H379 C387 0.930 . S
H380 C390 0.930 . S
H381 C391 0.930 . S
C382 H376 0.930 . S
C382 C383 1.355 . S
C382 C384 1.415 . S
C383 C382 1.355 . S
C383 C385 1.419 . S
C384 C382 1.415 . S
C384 C389 1.425 . S
C384 C391 1.409 . S
C385 H377 0.930 . S
C385 C383 1.419 . S
C385 C386 1.362 . S
C386 H378 0.930 . S
C386 C385 1.362 . S
C386 C389 1.409 . S
C387 H379 0.930 . S
C387 C388 1.355 . S
C387 C389 1.415 . S
C388 C387 1.355 . S
C388 C390 1.419 . S
C389 C384 1.425 . S
C389 C386 1.409 . S
C389 C387 1.415 . S
C390 H380 0.930 . S
C390 C388 1.419 . S
C390 C391 1.362 . S
C391 H381 0.930 . S
C391 C384 1.409 . S
C391 C390 1.362 . S
H392 C398 0.930 . S
H393 C401 0.930 . S
H394 C402 0.957 . S
H395 C403 0.930 . S
H396 C406 0.930 . S
H397 C407 0.930 . S
C398 H392 0.930 . S
C398 C399 1.355 . S
C398 C400 1.415 . S
C399 C398 1.355 . S
C399 C401 1.419 . S
C400 C398 1.415 . S
C400 C405 1.425 . S
C400 C407 1.409 . S
C401 H393 0.930 . S
C401 C399 1.419 . S
C401 C402 1.342 1_556 S
C402 H394 0.957 . S
C402 C401 1.342 1_554 S
C402 C405 1.404 1_554 S
C403 H395 0.930 . S
C403 C404 1.358 . S
C403 C405 1.415 1_554 S
C404 C403 1.358 . S
C404 C406 1.405 1_554 S
C405 C400 1.425 . S
C405 C402 1.404 1_556 S
C405 C403 1.415 1_556 S
C406 H396 0.930 . S
C406 C404 1.405 1_556 S
C406 C407 1.362 . S
C407 H397 0.930 . S
C407 C400 1.409 . S
C407 C406 1.362 . S
H408 C414 0.930 . S
H409 C417 0.930 . S
H410 C418 0.930 . S
H411 C419 0.930 . S
H412 C422 0.930 . S
H413 C423 0.930 . S
C414 H408 0.930 . S
C414 C415 1.355 . S
C414 C416 1.415 . S
C415 C414 1.355 . S
C415 C417 1.419 . S
C416 C414 1.415 . S
C416 C421 1.425 . S
C416 C423 1.409 . S
C417 H409 0.930 . S
C417 C415 1.419 . S
C417 C418 1.362 . S
C418 H410 0.930 . S
C418 C417 1.362 . S
C418 C421 1.409 . S
C419 H411 0.930 . S
C419 C420 1.355 . S
C419 C421 1.415 . S
C420 C419 1.355 . S
C420 C422 1.419 . S
C421 C416 1.425 . S
C421 C418 1.409 . S
C421 C419 1.415 . S
C422 H412 0.930 . S
C422 C420 1.419 . S
C422 C423 1.362 . S
C423 H413 0.930 . S
C423 C416 1.409 . S
C423 C422 1.362 . S
H424 C430 0.930 . S
H425 C433 0.930 . S
H426 C434 0.930 . S
H427 C435 0.930 . S
H428 C438 0.930 . S
H429 C439 0.930 . S
C430 H424 0.930 . S
C430 C431 1.355 . S
C430 C432 1.415 . S
C431 C430 1.355 . S
C431 C433 1.419 . S
C432 C430 1.415 . S
C432 C437 1.425 . S
C432 C439 1.409 . S
C433 H425 0.930 . S
C433 C431 1.419 . S
C433 C434 1.362 . S
C434 H426 0.930 . S
C434 C433 1.362 . S
C434 C437 1.409 . S
C435 H427 0.930 . S
C435 C436 1.355 . S
C435 C437 1.415 . S
C436 C435 1.355 . S
C436 C438 1.419 . S
C437 C432 1.425 . S
C437 C434 1.409 . S
C437 C435 1.415 . S
C438 H428 0.930 . S
C438 C436 1.419 . S
C438 C439 1.362 . S
C439 H429 0.930 . S
C439 C432 1.409 . S
C439 C438 1.362 . S
H440 C446 0.930 . S
H441 C449 0.930 . S
H442 C450 0.930 . S
H443 C451 0.930 . S
H444 C454 0.930 . S
H445 C455 0.930 . S
C446 H440 0.930 . S
C446 C447 1.355 . S
C446 C448 1.415 . S
C447 C446 1.355 . S
C447 C449 1.419 . S
C448 C446 1.415 . S
C448 C453 1.425 . S
C448 C455 1.409 . S
C449 H441 0.930 . S
C449 C447 1.419 . S
C449 C450 1.362 . S
C450 H442 0.930 . S
C450 C449 1.362 . S
C450 C453 1.409 . S
C451 H443 0.930 . S
C451 C452 1.355 . S
C451 C453 1.415 . S
C452 C451 1.355 . S
C452 C454 1.419 . S
C453 C448 1.425 . S
C453 C450 1.409 . S
C453 C451 1.415 . S
C454 H444 0.930 . S
C454 C452 1.419 . S
C454 C455 1.362 . S
C455 H445 0.930 . S
C455 C448 1.409 . S
C455 C454 1.362 . S
H456 C462 0.930 . S
H457 C465 0.930 . S
H458 C466 0.930 . S
H459 C467 0.930 . S
H460 C470 0.930 . S
H461 C471 0.930 . S
C462 H456 0.930 . S
C462 C463 1.355 . S
C462 C464 1.415 . S
C463 C462 1.355 . S
C463 C465 1.419 . S
C464 C462 1.415 . S
C464 C469 1.425 . S
C464 C471 1.409 . S
C465 H457 0.930 . S
C465 C463 1.419 . S
C465 C466 1.362 . S
C466 H458 0.930 . S
C466 C465 1.362 . S
C466 C469 1.409 . S
C467 H459 0.930 . S
C467 C468 1.355 . S
C467 C469 1.415 . S
C468 C467 1.355 . S
C468 C470 1.419 . S
C469 C464 1.425 . S
C469 C466 1.409 . S
C469 C467 1.415 . S
C470 H460 0.930 . S
C470 C468 1.419 . S
C470 C471 1.362 . S
C471 H461 0.930 . S
C471 C464 1.409 . S
C471 C470 1.362 . S
H472 C478 0.930 . S
H473 C481 0.930 . S
H474 C482 0.930 . S
H475 C483 0.930 . S
H476 C486 0.930 . S
H477 C487 0.930 . S
C478 H472 0.930 . S
C478 C479 1.355 . S
C478 C480 1.415 . S
C479 C478 1.355 . S
C479 C481 1.419 . S
C480 C478 1.415 . S
C480 C485 1.425 . S
C480 C487 1.409 . S
C481 H473 0.930 . S
C481 C479 1.419 . S
C481 C482 1.362 . S
C482 H474 0.930 . S
C482 C481 1.362 . S
C482 C485 1.409 . S
C483 H475 0.930 . S
C483 C484 1.355 . S
C483 C485 1.415 . S
C484 C483 1.355 . S
C484 C486 1.419 . S
C485 C480 1.425 . S
C485 C482 1.409 . S
C485 C483 1.415 . S
C486 H476 0.930 . S
C486 C484 1.419 . S
C486 C487 1.362 . S
C487 H477 0.930 . S
C487 C480 1.409 . S
C487 C486 1.362 . S
H488 C494 0.930 . S
H489 C497 0.930 . S
H490 C498 0.930 . S
H491 C499 0.930 . S
H492 C502 0.930 . S
H493 C503 0.930 . S
C494 H488 0.930 . S
C494 C495 1.355 . S
C494 C496 1.415 . S
C495 C494 1.355 . S
C495 C497 1.419 . S
C496 C494 1.415 . S
C496 C501 1.425 . S
C496 C503 1.409 . S
C497 H489 0.930 . S
C497 C495 1.419 . S
C497 C498 1.362 . S
C498 H490 0.930 . S
C498 C497 1.362 . S
C498 C501 1.409 . S
C499 H491 0.930 . S
C499 C500 1.355 . S
C499 C501 1.415 . S
C500 C499 1.355 . S
C500 C502 1.419 . S
C501 C496 1.425 . S
C501 C498 1.409 . S
C501 C499 1.415 . S
C502 H492 0.930 . S
C502 C500 1.419 . S
C502 C503 1.362 . S
C503 H493 0.930 . S
C503 C496 1.409 . S
C503 C502 1.362 . S
H504 C510 0.930 . S
H505 C513 0.930 . S
H506 C514 0.930 . S
H507 C515 0.930 1_554 S
H508 C518 0.930 . S
H509 C519 0.930 . S
C510 H504 0.930 . S
C510 C511 1.355 . S
C510 C512 1.415 . S
C511 C510 1.355 . S
C511 C513 1.419 . S
C512 C510 1.415 . S
C512 C517 1.425 . S
C512 C519 1.409 . S
C513 H505 0.930 . S
C513 C511 1.419 . S
C513 C514 1.362 . S
C514 H506 0.930 . S
C514 C513 1.362 . S
C514 C517 1.409 . S
C515 H507 0.930 1_556 S
C515 C516 1.355 . S
C515 C517 1.415 . S
C516 C515 1.355 . S
C516 C518 1.419 . S
C517 C512 1.425 . S
C517 C514 1.409 . S
C517 C515 1.415 . S
C518 H508 0.930 . S
C518 C516 1.419 . S
C518 C519 1.362 . S
C519 H509 0.930 . S
C519 C512 1.409 . S
C519 C518 1.362 . S
H520 C526 0.930 . S
H521 C529 0.930 . S
H522 C530 0.930 . S
H523 C531 0.930 . S
H524 C534 0.930 . S
H525 C535 0.930 . S
C526 H520 0.930 . S
C526 C527 1.355 . S
C526 C528 1.415 . S
C527 C526 1.355 . S
C527 C529 1.419 . S
C528 C526 1.415 . S
C528 C533 1.425 . S
C528 C535 1.409 . S
C529 H521 0.930 . S
C529 C527 1.419 . S
C529 C530 1.362 . S
C530 H522 0.930 . S
C530 C529 1.362 . S
C530 C533 1.409 . S
C531 H523 0.930 . S
C531 C532 1.355 . S
C531 C533 1.415 . S
C532 C531 1.355 . S
C532 C534 1.419 . S
C533 C528 1.425 . S
C533 C530 1.409 . S
C533 C531 1.415 . S
C534 H524 0.930 . S
C534 C532 1.419 . S
C534 C535 1.362 . S
C535 H525 0.930 . S
C535 C528 1.409 . S
C535 C534 1.362 . S
H536 C542 0.930 . S
H537 C545 0.930 . S
H538 C546 0.930 . S
H539 C547 0.930 . S
H540 C550 0.930 . S
H541 C551 0.930 . S
C542 H536 0.930 . S
C542 C543 1.355 . S
C542 C544 1.415 . S
C543 C542 1.355 . S
C543 C545 1.419 . S
C544 C542 1.415 . S
C544 C549 1.425 . S
C544 C551 1.409 . S
C545 H537 0.930 . S
C545 C543 1.419 . S
C545 C546 1.362 . S
C546 H538 0.930 . S
C546 C545 1.362 . S
C546 C549 1.409 . S
C547 H539 0.930 . S
C547 C548 1.355 . S
C547 C549 1.415 . S
C548 C547 1.355 . S
C548 C550 1.419 . S
C549 C544 1.425 . S
C549 C546 1.409 . S
C549 C547 1.415 . S
C550 H540 0.930 . S
C550 C548 1.419 . S
C550 C551 1.362 . S
C551 H541 0.930 . S
C551 C544 1.409 . S
C551 C550 1.362 . S
H552 C558 0.930 . S
H553 C561 0.930 . S
H554 C562 0.930 . S
H555 C563 0.930 . S
H556 C566 0.930 . S
H557 C567 0.930 . S
C558 H552 0.930 . S
C558 C559 1.355 . S
C558 C560 1.415 . S
C559 C558 1.355 . S
C559 C561 1.419 . S
C560 C558 1.415 . S
C560 C565 1.425 . S
C560 C567 1.409 . S
C561 H553 0.930 . S
C561 C559 1.419 . S
C561 C562 1.362 . S
C562 H554 0.930 . S
C562 C561 1.362 . S
C562 C565 1.409 . S
C563 H555 0.930 . S
C563 C564 1.355 . S
C563 C565 1.415 . S
C564 C563 1.355 . S
C564 C566 1.419 . S
C565 C560 1.425 . S
C565 C562 1.409 . S
C565 C563 1.415 . S
C566 H556 0.930 . S
C566 C564 1.419 . S
C566 C567 1.362 . S
C567 H557 0.930 . S
C567 C560 1.409 . S
C567 C566 1.362 . S
H568 C574 0.930 . S
H569 C577 0.930 . S
H570 C578 0.930 . S
H571 C579 0.930 . S
H572 C582 0.930 . S
H573 C583 0.930 . S
C574 H568 0.930 . S
C574 C575 1.355 . S
C574 C576 1.415 . S
C575 C574 1.355 . S
C575 C577 1.419 . S
C576 C574 1.415 . S
C576 C581 1.425 . S
C576 C583 1.409 . S
C577 H569 0.930 . S
C577 C575 1.419 . S
C577 C578 1.362 . S
C578 H570 0.930 . S
C578 C577 1.362 . S
C578 C581 1.409 . S
C579 H571 0.930 . S
C579 C580 1.355 . S
C579 C581 1.415 . S
C580 C579 1.355 . S
C580 C582 1.419 . S
C581 C576 1.425 . S
C581 C578 1.409 . S
C581 C579 1.415 . S
C582 H572 0.930 . S
C582 C580 1.419 . S
C582 C583 1.362 . S
C583 H573 0.930 . S
C583 C576 1.409 . S
C583 C582 1.362 . S
H584 C590 0.930 . S
H585 C593 0.930 . S
H586 C594 0.930 . S
H587 C595 0.930 . S
H588 C598 0.930 . S
H589 C599 0.930 . S
C590 H584 0.930 . S
C590 C591 1.355 . S
C590 C592 1.415 . S
C591 C590 1.355 . S
C591 C593 1.419 . S
C592 C590 1.415 . S
C592 C597 1.425 . S
C592 C599 1.409 . S
C593 H585 0.930 . S
C593 C591 1.419 . S
C593 C594 1.362 . S
C594 H586 0.930 . S
C594 C593 1.362 . S
C594 C597 1.409 . S
C595 H587 0.930 . S
C595 C596 1.355 . S
C595 C597 1.415 . S
C596 C595 1.355 . S
C596 C598 1.419 . S
C597 C592 1.425 . S
C597 C594 1.409 . S
C597 C595 1.415 . S
C598 H588 0.930 . S
C598 C596 1.419 . S
C598 C599 1.362 . S
C599 H589 0.930 . S
C599 C592 1.409 . S
C599 C598 1.362 . S
H600 C606 0.930 . S
H601 C609 0.930 . S
H602 C610 0.930 . S
H603 C611 0.930 . S
H604 C614 0.930 . S
H605 C615 0.930 . S
C606 H600 0.930 . S
C606 C607 1.355 . S
C606 C608 1.415 . S
C607 C606 1.355 . S
C607 C609 1.419 . S
C608 C606 1.415 . S
C608 C613 1.425 . S
C608 C615 1.409 . S
C609 H601 0.930 . S
C609 C607 1.419 . S
C609 C610 1.362 . S
C610 H602 0.930 . S
C610 C609 1.362 . S
C610 C613 1.409 . S
C611 H603 0.930 . S
C611 C612 1.355 . S
C611 C613 1.415 . S
C612 C611 1.355 . S
C612 C614 1.419 . S
C613 C608 1.425 . S
C613 C610 1.409 . S
C613 C611 1.415 . S
C614 H604 0.930 . S
C614 C612 1.419 . S
C614 C615 1.362 . S
C615 H605 0.930 . S
C615 C608 1.409 . S
C615 C614 1.362 . S
H616 C622 0.930 . S
H617 C625 0.930 . S
H618 C626 0.930 . S
H619 C627 0.930 . S
H620 C630 0.930 . S
H621 C631 0.930 . S
C622 H616 0.930 . S
C622 C623 1.355 . S
C622 C624 1.415 . S
C623 C622 1.355 . S
C623 C625 1.419 . S
C624 C622 1.415 . S
C624 C629 1.425 . S
C624 C631 1.409 . S
C625 H617 0.930 . S
C625 C623 1.419 . S
C625 C626 1.362 . S
C626 H618 0.930 . S
C626 C625 1.362 . S
C626 C629 1.409 . S
C627 H619 0.930 . S
C627 C628 1.355 . S
C627 C629 1.415 . S
C628 C627 1.355 . S
C628 C630 1.419 . S
C629 C624 1.425 . S
C629 C626 1.409 . S
C629 C627 1.415 . S
C630 H620 0.930 . S
C630 C628 1.419 . S
C630 C631 1.362 . S
C631 H621 0.930 . S
C631 C624 1.409 . S
C631 C630 1.362 . S
C255 C5 0.921 . S
C260 C94 1.195 . S
C271 C18 0.997 . S
C276 C143 1.091 . S
C292 C178 2.344 . S
C287 C30 2.398 . S
C303 C41 2.151 . S
C308 C217 2.082 . S
C324 C138 2.289 . S
C319 C7 2.042 . S
C340 C97 0.823 . S
C335 C16 0.730 . S
C356 C227 1.986 . S
C351 C29 1.936 . S
C372 C186 1.300 . S
C367 C38 1.134 . S
C383 C8 1.456 . S
C388 C214 1.563 . S
C404 C146 2.557 . S
C399 C27 2.410 . S
C415 C40 2.455 . S
C420 C107 2.470 . S
C431 C19 0.766 . S
C436 C183 0.785 . S
C452 C103 1.164 . S
C447 C51 1.035 . S
C463 C62 1.353 . S
C468 C134 1.289 . S
C479 C74 2.502 . S
C484 C187 2.463 . S
C495 C84 2.216 . S
C500 C226 2.287 . S
C511 C49 1.828 . S
C516 C147 2.499 1_566 S
C532 C106 0.903 . S
C527 C63 0.928 . S
C548 C218 1.816 . S
C543 C71 1.718 . S
C564 C177 1.437 . S
C559 C85 1.470 . S
C575 C52 1.536 . S
C580 C223 1.609 . S
C596 C137 2.638 . S
C591 C73 2.719 . S
C612 C98 2.032 . S
C607 C82 1.721 . S
C623 C60 0.905 . S
C628 C174 0.867 . S
