# Generated by pormake.
# Topology iac, (4,6)-cn, num edge types: 1
# Building blocks:
#     Node 0, Type 0, BuildingBlock: QUQFOY_clean_sbu_3, # of connection points: 4
#     Node 1, Type 0, BuildingBlock: QUQFOY_clean_sbu_3, # of connection points: 4
#     Node 2, Type 0, BuildingBlock: QUQFOY_clean_sbu_3, # of connection points: 4
#     Node 3, Type 0, BuildingBlock: QUQFOY_clean_sbu_3, # of connection points: 4
#     Node 4, Type 0, BuildingBlock: QUQFOY_clean_sbu_3, # of connection points: 4
#     Node 5, Type 0, BuildingBlock: QUQFOY_clean_sbu_3, # of connection points: 4
#     Node 6, Type 0, BuildingBlock: QUQFOY_clean_sbu_3, # of connection points: 4
#     Node 7, Type 0, BuildingBlock: QUQFOY_clean_sbu_3, # of connection points: 4
#     Node 8, Type 0, BuildingBlock: QUQFOY_clean_sbu_3, # of connection points: 4
#     Node 9, Type 0, BuildingBlock: QUQFOY_clean_sbu_3, # of connection points: 4
#     Node 10, Type 0, BuildingBlock: QUQFOY_clean_sbu_3, # of connection points: 4
#     Node 11, Type 0, BuildingBlock: QUQFOY_clean_sbu_3, # of connection points: 4
#     Node 12, Type 0, BuildingBlock: QUQFOY_clean_sbu_3, # of connection points: 4
#     Node 13, Type 0, BuildingBlock: QUQFOY_clean_sbu_3, # of connection points: 4
#     Node 14, Type 0, BuildingBlock: QUQFOY_clean_sbu_3, # of connection points: 4
#     Node 15, Type 0, BuildingBlock: QUQFOY_clean_sbu_3, # of connection points: 4
#     Node 16, Type 0, BuildingBlock: QUQFOY_clean_sbu_3, # of connection points: 4
#     Node 17, Type 0, BuildingBlock: QUQFOY_clean_sbu_3, # of connection points: 4
#     Node 18, Type 0, BuildingBlock: QUQFOY_clean_sbu_3, # of connection points: 4
#     Node 19, Type 0, BuildingBlock: QUQFOY_clean_sbu_3, # of connection points: 4
#     Node 20, Type 0, BuildingBlock: QUQFOY_clean_sbu_3, # of connection points: 4
#     Node 21, Type 0, BuildingBlock: QUQFOY_clean_sbu_3, # of connection points: 4
#     Node 22, Type 0, BuildingBlock: QUQFOY_clean_sbu_3, # of connection points: 4
#     Node 23, Type 0, BuildingBlock: QUQFOY_clean_sbu_3, # of connection points: 4
#     Node 24, Type 1, BuildingBlock: VOLQOD_clean_sbu_1, # of connection points: 6
#     Node 25, Type 1, BuildingBlock: VOLQOD_clean_sbu_1, # of connection points: 6
#     Node 26, Type 1, BuildingBlock: VOLQOD_clean_sbu_1, # of connection points: 6
#     Node 27, Type 1, BuildingBlock: VOLQOD_clean_sbu_1, # of connection points: 6
#     Node 28, Type 1, BuildingBlock: VOLQOD_clean_sbu_1, # of connection points: 6
#     Node 29, Type 1, BuildingBlock: VOLQOD_clean_sbu_1, # of connection points: 6
#     Node 30, Type 1, BuildingBlock: VOLQOD_clean_sbu_1, # of connection points: 6
#     Node 31, Type 1, BuildingBlock: VOLQOD_clean_sbu_1, # of connection points: 6
#     Node 32, Type 1, BuildingBlock: VOLQOD_clean_sbu_1, # of connection points: 6
#     Node 33, Type 1, BuildingBlock: VOLQOD_clean_sbu_1, # of connection points: 6
#     Node 34, Type 1, BuildingBlock: VOLQOD_clean_sbu_1, # of connection points: 6
#     Node 35, Type 1, BuildingBlock: VOLQOD_clean_sbu_1, # of connection points: 6
#     Node 36, Type 1, BuildingBlock: VOLQOD_clean_sbu_1, # of connection points: 6
#     Node 37, Type 1, BuildingBlock: VOLQOD_clean_sbu_1, # of connection points: 6
#     Node 38, Type 1, BuildingBlock: VOLQOD_clean_sbu_1, # of connection points: 6
#     Node 39, Type 1, BuildingBlock: VOLQOD_clean_sbu_1, # of connection points: 6
#     Edge 40, Type (0, 1), BuildingBlock: CIFDUS_clean_linker_0, # of connection points: 2
#     Edge 41, Type (0, 1), BuildingBlock: CIFDUS_clean_linker_0, # of connection points: 2
#     Edge 42, Type (0, 1), BuildingBlock: CIFDUS_clean_linker_0, # of connection points: 2
#     Edge 43, Type (0, 1), BuildingBlock: CIFDUS_clean_linker_0, # of connection points: 2
#     Edge 44, Type (0, 1), BuildingBlock: CIFDUS_clean_linker_0, # of connection points: 2
#     Edge 45, Type (0, 1), BuildingBlock: CIFDUS_clean_linker_0, # of connection points: 2
#     Edge 46, Type (0, 1), BuildingBlock: CIFDUS_clean_linker_0, # of connection points: 2
#     Edge 47, Type (0, 1), BuildingBlock: CIFDUS_clean_linker_0, # of connection points: 2
#     Edge 48, Type (0, 1), BuildingBlock: CIFDUS_clean_linker_0, # of connection points: 2
#     Edge 49, Type (0, 1), BuildingBlock: CIFDUS_clean_linker_0, # of connection points: 2
#     Edge 50, Type (0, 1), BuildingBlock: CIFDUS_clean_linker_0, # of connection points: 2
#     Edge 51, Type (0, 1), BuildingBlock: CIFDUS_clean_linker_0, # of connection points: 2
#     Edge 52, Type (0, 1), BuildingBlock: CIFDUS_clean_linker_0, # of connection points: 2
#     Edge 53, Type (0, 1), BuildingBlock: CIFDUS_clean_linker_0, # of connection points: 2
#     Edge 54, Type (0, 1), BuildingBlock: CIFDUS_clean_linker_0, # of connection points: 2
#     Edge 55, Type (0, 1), BuildingBlock: CIFDUS_clean_linker_0, # of connection points: 2
#     Edge 56, Type (0, 1), BuildingBlock: CIFDUS_clean_linker_0, # of connection points: 2
#     Edge 57, Type (0, 1), BuildingBlock: CIFDUS_clean_linker_0, # of connection points: 2
#     Edge 58, Type (0, 1), BuildingBlock: CIFDUS_clean_linker_0, # of connection points: 2
#     Edge 59, Type (0, 1), BuildingBlock: CIFDUS_clean_linker_0, # of connection points: 2
#     Edge 60, Type (0, 1), BuildingBlock: CIFDUS_clean_linker_0, # of connection points: 2
#     Edge 61, Type (0, 1), BuildingBlock: CIFDUS_clean_linker_0, # of connection points: 2
#     Edge 62, Type (0, 1), BuildingBlock: CIFDUS_clean_linker_0, # of connection points: 2
#     Edge 63, Type (0, 1), BuildingBlock: CIFDUS_clean_linker_0, # of connection points: 2
#     Edge 64, Type (0, 1), BuildingBlock: CIFDUS_clean_linker_0, # of connection points: 2
#     Edge 65, Type (0, 1), BuildingBlock: CIFDUS_clean_linker_0, # of connection points: 2
#     Edge 66, Type (0, 1), BuildingBlock: CIFDUS_clean_linker_0, # of connection points: 2
#     Edge 67, Type (0, 1), BuildingBlock: CIFDUS_clean_linker_0, # of connection points: 2
#     Edge 68, Type (0, 1), BuildingBlock: CIFDUS_clean_linker_0, # of connection points: 2
#     Edge 69, Type (0, 1), BuildingBlock: CIFDUS_clean_linker_0, # of connection points: 2
#     Edge 70, Type (0, 1), BuildingBlock: CIFDUS_clean_linker_0, # of connection points: 2
#     Edge 71, Type (0, 1), BuildingBlock: CIFDUS_clean_linker_0, # of connection points: 2
#     Edge 72, Type (0, 1), BuildingBlock: CIFDUS_clean_linker_0, # of connection points: 2
#     Edge 73, Type (0, 1), BuildingBlock: CIFDUS_clean_linker_0, # of connection points: 2
#     Edge 74, Type (0, 1), BuildingBlock: CIFDUS_clean_linker_0, # of connection points: 2
#     Edge 75, Type (0, 1), BuildingBlock: CIFDUS_clean_linker_0, # of connection points: 2
#     Edge 76, Type (0, 1), BuildingBlock: CIFDUS_clean_linker_0, # of connection points: 2
#     Edge 77, Type (0, 1), BuildingBlock: CIFDUS_clean_linker_0, # of connection points: 2
#     Edge 78, Type (0, 1), BuildingBlock: CIFDUS_clean_linker_0, # of connection points: 2
#     Edge 79, Type (0, 1), BuildingBlock: CIFDUS_clean_linker_0, # of connection points: 2
#     Edge 80, Type (0, 1), BuildingBlock: CIFDUS_clean_linker_0, # of connection points: 2
#     Edge 81, Type (0, 1), BuildingBlock: CIFDUS_clean_linker_0, # of connection points: 2
#     Edge 82, Type (0, 1), BuildingBlock: CIFDUS_clean_linker_0, # of connection points: 2
#     Edge 83, Type (0, 1), BuildingBlock: CIFDUS_clean_linker_0, # of connection points: 2
#     Edge 84, Type (0, 1), BuildingBlock: CIFDUS_clean_linker_0, # of connection points: 2
#     Edge 85, Type (0, 1), BuildingBlock: CIFDUS_clean_linker_0, # of connection points: 2
#     Edge 86, Type (0, 1), BuildingBlock: CIFDUS_clean_linker_0, # of connection points: 2
#     Edge 87, Type (0, 1), BuildingBlock: CIFDUS_clean_linker_0, # of connection points: 2
#     Edge 88, Type (0, 1), BuildingBlock: CIFDUS_clean_linker_0, # of connection points: 2
#     Edge 89, Type (0, 1), BuildingBlock: CIFDUS_clean_linker_0, # of connection points: 2
#     Edge 90, Type (0, 1), BuildingBlock: CIFDUS_clean_linker_0, # of connection points: 2
#     Edge 91, Type (0, 1), BuildingBlock: CIFDUS_clean_linker_0, # of connection points: 2
#     Edge 92, Type (0, 1), BuildingBlock: CIFDUS_clean_linker_0, # of connection points: 2
#     Edge 93, Type (0, 1), BuildingBlock: CIFDUS_clean_linker_0, # of connection points: 2
#     Edge 94, Type (0, 1), BuildingBlock: CIFDUS_clean_linker_0, # of connection points: 2
#     Edge 95, Type (0, 1), BuildingBlock: CIFDUS_clean_linker_0, # of connection points: 2
#     Edge 96, Type (0, 1), BuildingBlock: CIFDUS_clean_linker_0, # of connection points: 2
#     Edge 97, Type (0, 1), BuildingBlock: CIFDUS_clean_linker_0, # of connection points: 2
#     Edge 98, Type (0, 1), BuildingBlock: CIFDUS_clean_linker_0, # of connection points: 2
#     Edge 99, Type (0, 1), BuildingBlock: CIFDUS_clean_linker_0, # of connection points: 2
#     Edge 100, Type (0, 1), BuildingBlock: CIFDUS_clean_linker_0, # of connection points: 2
#     Edge 101, Type (0, 1), BuildingBlock: CIFDUS_clean_linker_0, # of connection points: 2
#     Edge 102, Type (0, 1), BuildingBlock: CIFDUS_clean_linker_0, # of connection points: 2
#     Edge 103, Type (0, 1), BuildingBlock: CIFDUS_clean_linker_0, # of connection points: 2
#     Edge 104, Type (0, 1), BuildingBlock: CIFDUS_clean_linker_0, # of connection points: 2
#     Edge 105, Type (0, 1), BuildingBlock: CIFDUS_clean_linker_0, # of connection points: 2
#     Edge 106, Type (0, 1), BuildingBlock: CIFDUS_clean_linker_0, # of connection points: 2
#     Edge 107, Type (0, 1), BuildingBlock: CIFDUS_clean_linker_0, # of connection points: 2
#     Edge 108, Type (0, 1), BuildingBlock: CIFDUS_clean_linker_0, # of connection points: 2
#     Edge 109, Type (0, 1), BuildingBlock: CIFDUS_clean_linker_0, # of connection points: 2
#     Edge 110, Type (0, 1), BuildingBlock: CIFDUS_clean_linker_0, # of connection points: 2
#     Edge 111, Type (0, 1), BuildingBlock: CIFDUS_clean_linker_0, # of connection points: 2
#     Edge 112, Type (0, 1), BuildingBlock: CIFDUS_clean_linker_0, # of connection points: 2
#     Edge 113, Type (0, 1), BuildingBlock: CIFDUS_clean_linker_0, # of connection points: 2
#     Edge 114, Type (0, 1), BuildingBlock: CIFDUS_clean_linker_0, # of connection points: 2
#     Edge 115, Type (0, 1), BuildingBlock: CIFDUS_clean_linker_0, # of connection points: 2
#     Edge 116, Type (0, 1), BuildingBlock: CIFDUS_clean_linker_0, # of connection points: 2
#     Edge 117, Type (0, 1), BuildingBlock: CIFDUS_clean_linker_0, # of connection points: 2
#     Edge 118, Type (0, 1), BuildingBlock: CIFDUS_clean_linker_0, # of connection points: 2
#     Edge 119, Type (0, 1), BuildingBlock: CIFDUS_clean_linker_0, # of connection points: 2
#     Edge 120, Type (0, 1), BuildingBlock: CIFDUS_clean_linker_0, # of connection points: 2
#     Edge 121, Type (0, 1), BuildingBlock: CIFDUS_clean_linker_0, # of connection points: 2
#     Edge 122, Type (0, 1), BuildingBlock: CIFDUS_clean_linker_0, # of connection points: 2
#     Edge 123, Type (0, 1), BuildingBlock: CIFDUS_clean_linker_0, # of connection points: 2
#     Edge 124, Type (0, 1), BuildingBlock: CIFDUS_clean_linker_0, # of connection points: 2
#     Edge 125, Type (0, 1), BuildingBlock: CIFDUS_clean_linker_0, # of connection points: 2
#     Edge 126, Type (0, 1), BuildingBlock: CIFDUS_clean_linker_0, # of connection points: 2
#     Edge 127, Type (0, 1), BuildingBlock: CIFDUS_clean_linker_0, # of connection points: 2
#     Edge 128, Type (0, 1), BuildingBlock: CIFDUS_clean_linker_0, # of connection points: 2
#     Edge 129, Type (0, 1), BuildingBlock: CIFDUS_clean_linker_0, # of connection points: 2
#     Edge 130, Type (0, 1), BuildingBlock: CIFDUS_clean_linker_0, # of connection points: 2
#     Edge 131, Type (0, 1), BuildingBlock: CIFDUS_clean_linker_0, # of connection points: 2
#     Edge 132, Type (0, 1), BuildingBlock: CIFDUS_clean_linker_0, # of connection points: 2
#     Edge 133, Type (0, 1), BuildingBlock: CIFDUS_clean_linker_0, # of connection points: 2
#     Edge 134, Type (0, 1), BuildingBlock: CIFDUS_clean_linker_0, # of connection points: 2
#     Edge 135, Type (0, 1), BuildingBlock: CIFDUS_clean_linker_0, # of connection points: 2
# Relax obj value: 0.303
# Max RMSD: 0.292
# Mean RMSD: 0.139
data_MOF--net-iac--node1-QUQFOY_clean_sbu_3--node2-VOLQOD_clean_sbu_1--edge1-CIFDUS_clean_linker_0
_symmetry_space_group_name_H-M    P1
_symmetry_Int_Tables_number       1
_symmetry_cell_setting            triclinic
loop_
_symmetry_equiv_pos_as_xyz
'x, y, z'
_cell_length_a     49.04135
_cell_length_b     50.059965
_cell_length_c     49.506817
_cell_angle_alpha  91.0221
_cell_angle_beta   90.052609
_cell_angle_gamma 90.950767
loop_
_atom_site_label
_atom_site_type_symbol
_atom_site_fract_x
_atom_site_fract_y
_atom_site_fract_z
_atom_type_partial_charge
C0 C 0.96716 0.20435 0.16052 0.0
O1 O -0.01227 0.19893 0.17489 0.0
Cd2 Cd 0.03232 0.20534 0.15852 0.0
O3 O 0.96978 0.21669 0.13828 0.0
Cd4 Cd 0.0063 0.2381 0.11075 0.0
C5 C 0.01887 0.17435 0.09646 0.0
O6 O 0.03187 0.25189 0.14963 0.0
O7 O 0.05427 0.25328 0.11222 0.0
O8 O 0.97884 0.27775 0.10677 0.0
C9 C 0.05261 0.26008 0.13696 0.0
O10 O 0.02811 0.17387 0.12048 0.0
C11 C -0.0136 0.28269 0.08282 0.0
O12 O 0.01021 0.19589 0.0866 0.0
O13 O 0.00078 0.26519 0.07093 0.0
C14 C 0.98394 0.7654 0.35099 0.0
O15 O 0.00296 0.77403 0.33585 0.0
Cd16 Cd 0.04971 0.76463 0.34304 0.0
O17 O -0.01114 0.75007 0.37065 0.0
Cd18 Cd 0.02678 0.72719 0.39287 0.0
C19 C 0.05143 0.78877 0.40893 0.0
O20 O 0.04403 0.71795 0.34962 0.0
O21 O 0.06982 0.70363 0.38097 0.0
O22 O -0.00855 0.69439 0.40105 0.0
C23 C 0.06503 0.70533 0.35589 0.0
O24 O 0.05792 0.79138 0.38419 0.0
C25 C 0.00124 0.68716 0.42346 0.0
O26 O 0.03998 0.76744 0.41707 0.0
O27 O 0.0226 0.69928 0.43199 0.0
C28 C 0.45489 0.75237 0.65929 0.0
O29 O 0.47525 0.74601 0.67353 0.0
Cd30 Cd 0.51838 0.74101 0.65275 0.0
O31 O 0.45782 0.75868 0.6346 0.0
Cd32 Cd 0.49213 0.76612 0.59899 0.0
C33 C 0.49461 0.69941 0.60029 0.0
O34 O 0.52408 0.78255 0.63097 0.0
O35 O 0.54195 0.77289 0.59237 0.0
O36 O 0.47024 0.80795 0.59348 0.0
C37 C 0.54449 0.78392 0.61554 0.0
O38 O 0.50719 0.70327 0.62259 0.0
C39 C 0.47313 0.80902 0.56807 0.0
O40 O 0.48627 0.71903 0.58667 0.0
O41 O 0.48238 0.78838 0.55609 0.0
C42 C 0.46008 0.27307 0.8469 0.0
O43 O 0.47871 0.28219 0.83157 0.0
Cd44 Cd 0.52633 0.27983 0.83853 0.0
O45 O 0.46578 0.26199 0.86926 0.0
Cd46 Cd 0.50739 0.25046 0.89568 0.0
C47 C 0.52984 0.31509 0.89894 0.0
O48 O 0.52464 0.23533 0.85382 0.0
O49 O 0.5519 0.22788 0.8864 0.0
O50 O 0.4769 0.21767 0.91567 0.0
C51 C 0.5467 0.22549 0.86141 0.0
O52 O 0.53521 0.31353 0.8738 0.0
C53 C 0.49088 0.21544 0.93712 0.0
O54 O 0.51912 0.2954 0.91114 0.0
O55 O 0.51183 0.23046 0.93975 0.0
C56 C 0.09478 0.03531 0.29939 0.0
O57 O 0.07796 0.04664 0.28398 0.0
Cd58 Cd 0.08218 0.05233 0.23699 0.0
O59 O 0.11695 0.02573 0.29014 0.0
Cd60 Cd 0.13844 0.02156 0.24445 0.0
C61 C 0.14221 0.08866 0.23732 0.0
O62 O 0.09546 0.00872 0.22448 0.0
O63 O 0.12793 0.01399 0.19579 0.0
O64 O 0.15073 0.97714 0.25651 0.0
C65 C 0.10386 0.00578 0.20059 0.0
O66 O 0.1167 0.08694 0.23289 0.0
C67 C 0.17444 0.97767 0.24635 0.0
O68 O 0.1557 0.06803 0.24327 0.0
O69 O 0.18315 -5e-05 0.23763 0.0
C70 C 0.27602 0.92538 0.47366 0.0
O71 O 0.25492 0.93884 0.46854 0.0
Cd72 Cd 0.20964 0.93266 0.4845 0.0
O73 O 0.27504 0.90537 0.48932 0.0
Cd74 Cd 0.23848 0.88219 0.51442 0.0
C75 C 0.20368 0.87167 0.45487 0.0
O76 O 0.22041 0.92352 0.53038 0.0
O77 O 0.19734 0.88899 0.54181 0.0
O78 O 0.2686 0.86383 0.54872 0.0
C79 C 0.20069 0.91406 0.5436 0.0
O80 O 0.19434 0.89524 0.45551 0.0
C81 C 0.25522 0.84181 0.54907 0.0
O82 O 0.21991 0.864 0.47305 0.0
O83 O 0.23653 0.8382 0.5316 0.0
C84 C 0.41398 0.97057 0.7973 0.0
O85 O 0.42711 0.95184 0.78595 0.0
Cd86 Cd 0.40979 0.93088 0.74595 0.0
O87 O 0.39253 0.97952 0.78648 0.0
Cd88 Cd 0.36543 0.97452 0.74502 0.0
C89 C 0.34443 0.91548 0.76694 0.0
O90 O 0.40434 0.96757 0.71611 0.0
O91 O 0.36474 0.96408 0.69687 0.0
O92 O 0.36841 0.02222 0.74744 0.0
C93 C 0.39042 0.96635 0.69455 0.0
O94 O 0.36885 0.90856 0.7624 0.0
C95 C 0.34352 0.02618 0.74223 0.0
O96 O 0.33657 0.93887 0.76182 0.0
O97 O 0.32807 0.00569 0.73928 0.0
C98 C 0.26077 0.08827 0.03475 0.0
O99 O 0.2452 0.07575 0.05084 0.0
Cd100 Cd 0.19827 0.08541 0.05168 0.0
O101 O 0.2512 0.10495 0.01819 0.0
Cd102 Cd 0.20837 0.12457 0.00255 0.0
C103 C 0.20646 0.15328 0.06341 0.0
O104 O 0.18991 0.08028 0.00387 0.0
O105 O 0.16138 0.11046 -0.00753 0.0
O106 O 0.23673 0.12952 0.96267 0.0
C107 C 0.16679 0.08591 -0.00548 0.0
O108 O 0.20349 0.1298 0.07245 0.0
C109 C 0.22183 0.14714 0.95238 0.0
O110 O 0.20691 0.15738 0.03823 0.0
O111 O 0.20104 0.15443 0.96561 0.0
C112 C 0.7777 0.41115 0.95976 0.0
O113 O 0.75671 0.42445 0.95391 0.0
Cd114 Cd 0.71173 0.41933 0.97148 0.0
O115 O 0.77643 0.39225 0.97673 0.0
Cd116 Cd 0.73932 0.37104 0.00293 0.0
C117 C 0.70221 0.35728 0.94589 0.0
O118 O 0.72097 0.41253 0.01825 0.0
O119 O 0.69674 0.37807 0.02827 0.0
O120 O 0.76598 0.35599 0.04124 0.0
C121 C 0.70079 0.40303 0.03085 0.0
O122 O 0.69354 0.38108 0.94559 0.0
C123 C 0.75704 0.33203 0.03898 0.0
O124 O 0.71931 0.3503 0.96355 0.0
O125 O 0.74229 0.32626 0.01857 0.0
C126 C 0.87358 0.45846 0.28982 0.0
O127 O 0.88976 0.4458 0.27445 0.0
Cd128 Cd 0.87806 0.43595 0.22864 0.0
O129 O 0.85161 0.46799 0.28058 0.0
Cd130 Cd 0.82647 0.47283 0.23773 0.0
C131 C 0.81381 0.40781 0.23991 0.0
O132 O 0.8652 0.47649 0.20812 0.0
O133 O 0.82631 0.46841 0.18865 0.0
O134 O 0.82843 0.51929 0.24793 0.0
C135 C 0.85138 0.47462 0.18648 0.0
O136 O 0.83906 0.4064 0.2342 0.0
C137 C 0.80348 0.52398 0.24387 0.0
O138 O 0.8023 0.43026 0.24307 0.0
O139 O 0.78782 0.50403 0.2386 0.0
C140 C 0.73557 0.57124 0.54147 0.0
O141 O 0.71514 0.5619 0.55413 0.0
Cd142 Cd 0.67181 0.58205 0.5508 0.0
O143 O 0.73311 0.59104 0.52579 0.0
Cd144 Cd 0.69811 0.62164 0.50898 0.0
C145 C 0.6914 0.64426 0.5732 0.0
O146 O 0.66655 0.5859 0.5025 0.0
O147 O 0.64869 0.62467 0.49831 0.0
O148 O 0.71806 0.62392 0.46396 0.0
C149 C 0.64653 0.59951 0.49508 0.0
O150 O 0.67915 0.62244 0.57875 0.0
C151 C 0.71992 0.64926 0.46416 0.0
O152 O 0.70005 0.64843 0.5495 0.0
O153 O 0.71238 0.66152 0.48544 0.0
C154 C 0.59851 0.54026 0.79141 0.0
O155 O 0.58099 0.54927 0.77517 0.0
Cd156 Cd 0.58805 0.55184 0.72824 0.0
O157 O 0.62047 0.52982 0.7827 0.0
Cd158 Cd 0.64297 0.51836 0.73889 0.0
C159 C 0.65082 0.5847 0.73396 0.0
O160 O 0.6004 0.50735 0.71739 0.0
O161 O 0.63433 0.51094 0.69015 0.0
O162 O 0.65259 0.47772 0.76226 0.0
C163 C 0.60952 0.50442 0.69372 0.0
O164 O 0.62532 0.58445 0.72909 0.0
C165 C 0.6742 0.47226 0.74937 0.0
O166 O 0.6634 0.56311 0.73823 0.0
O167 O 0.68272 0.4894 0.7326 0.0
C168 C 0.95011 0.76563 0.82174 0.0
O169 O 0.97167 0.77563 0.81145 0.0
Cd170 Cd 0.01798 0.76198 0.8183 0.0
O171 O 0.951 0.74741 0.83941 0.0
Cd172 Cd 0.98513 0.7235 0.86533 0.0
C173 C 0.02208 0.78069 0.88415 0.0
O174 O 0.0098 0.71572 0.82534 0.0
O175 O 0.02553 0.69462 0.85905 0.0
O176 O 0.95356 0.68751 0.87844 0.0
C177 C 0.02804 0.70094 0.8345 0.0
O178 O 0.03138 0.7844 0.86048 0.0
C179 C 0.95903 0.69042 0.9035 0.0
O180 O 0.00533 0.76167 0.88883 0.0
O181 O 0.97566 0.70909 0.91019 0.0
C182 C 0.94869 0.22805 0.69307 0.0
O183 O 0.96619 0.21196 0.70211 0.0
Cd184 Cd 0.00993 0.20493 0.68034 0.0
O185 O 0.95248 0.2398 0.67076 0.0
Cd186 Cd 0.98327 0.24519 0.63274 0.0
C187 C -0.00955 0.17886 0.61856 0.0
O188 O 0.0195 0.2485 0.66402 0.0
O189 O 0.03161 0.25787 0.62352 0.0
O190 O 0.95879 0.28624 0.62572 0.0
C191 C 0.03854 0.25393 0.64778 0.0
O192 O 0.00368 0.17577 0.64042 0.0
C193 C 0.95704 0.28286 0.60025 0.0
O194 O 0.97969 0.20099 0.61294 0.0
O195 O 0.968 0.26221 0.59008 0.0
C196 C 0.46867 0.30649 0.32474 0.0
O197 O 0.48738 0.32245 0.31687 0.0
Cd198 Cd 0.53488 0.317 0.32793 0.0
O199 O 0.47377 0.28756 0.34073 0.0
Cd200 Cd 0.51027 0.26735 0.36632 0.0
C201 C 0.53118 0.32675 0.39616 0.0
O202 O 0.53626 0.26938 0.32605 0.0
O203 O 0.55514 0.24676 0.35736 0.0
O204 O 0.4809 0.22759 0.36585 0.0
C205 C 0.55623 0.25584 0.33362 0.0
O206 O 0.54003 0.33528 0.37368 0.0
C207 C 0.48322 0.22343 0.39099 0.0
O208 O 0.51931 0.30406 0.3977 0.0
O209 O 0.49838 0.23958 0.4045 0.0
C210 C 0.46486 0.76732 0.18785 0.0
O211 O 0.48069 0.75641 0.20456 0.0
Cd212 Cd 0.52732 0.74707 0.19251 0.0
O213 O 0.47333 0.77368 0.16454 0.0
Cd214 Cd 0.51302 0.77525 0.13488 0.0
C215 C 0.52136 0.70844 0.13445 0.0
O216 O 0.54211 0.78802 0.17186 0.0
O217 O 0.5623 0.78409 0.13343 0.0
O218 O 0.48881 0.81341 0.11982 0.0
C219 C 0.56405 0.78912 0.15854 0.0
O220 O 0.52705 0.70945 0.15958 0.0
C221 C 0.49213 0.80865 0.09479 0.0
O222 O 0.51471 0.72918 0.1218 0.0
O223 O 0.50654 0.78874 0.08817 0.0
C224 C 0.92773 -0.01026 0.79465 0.0
O225 O 0.94301 0.98025 0.77621 0.0
Cd226 Cd 0.94293 -0.00857 0.72899 0.0
O227 O 0.90947 0.00667 0.78938 0.0
Cd228 Cd 0.88915 0.02973 0.75171 0.0
C229 C 0.87793 0.97118 0.71412 0.0
O230 O 0.93073 0.03709 0.72854 0.0
O231 O 0.89676 0.0577 0.71223 0.0
O232 O 0.87633 0.06684 0.78101 0.0
C233 C 0.92084 0.04956 0.70886 0.0
O234 O 0.9034 0.96794 0.71064 0.0
C235 C 0.85123 0.06528 0.7745 0.0
O236 O 0.86896 -0.00951 0.72858 0.0
O237 O 0.84399 0.04647 0.7583 0.0
C238 C 0.78902 0.05585 0.49699 0.0
O239 O 0.7765 0.04639 0.51718 0.0
Cd240 Cd 0.7383 0.07086 0.53593 0.0
O241 O 0.78129 0.0774 0.48664 0.0
Cd242 Cd 0.74671 0.11081 0.488 0.0
C243 C 0.7589 0.13674 0.54848 0.0
O244 O 0.70782 0.08287 0.50077 0.0
O245 O 0.70237 0.12591 0.50015 0.0
O246 O 0.73885 0.10066 0.44154 0.0
C247 C 0.69223 0.10278 0.50377 0.0
O248 O 0.74958 0.11422 0.55619 0.0
C249 C 0.74844 0.12233 0.43244 0.0
O250 O 0.76372 0.14104 0.52366 0.0
O251 O 0.75699 0.13979 0.44958 0.0
C252 C 0.56709 -0.0061 0.28365 0.0
O253 O 0.55566 0.00362 0.26307 0.0
Cd254 Cd 0.56044 0.98595 0.21813 0.0
O255 O 0.58355 0.97458 0.28146 0.0
Cd256 Cd 0.60572 0.94625 0.24772 0.0
C257 C 0.62835 -0.00091 0.20984 0.0
O258 O 0.56388 0.93897 0.22556 0.0
O259 O 0.59741 0.9218 0.20428 0.0
O260 O 0.61332 0.90962 0.2791 0.0
C261 C 0.57214 0.92691 0.20465 0.0
O262 O 0.60417 0.00419 0.20229 0.0
C263 C 0.63915 0.91189 0.27756 0.0
O264 O 0.63284 0.98076 0.22666 0.0
O265 O 0.64871 0.92933 0.26171 0.0
C266 C 0.76231 0.92228 0.01493 0.0
O267 O 0.74504 0.93782 0.00467 0.0
Cd268 Cd 0.69887 0.92384 -0.00319 0.0
O269 O 0.7558 0.89832 0.02074 0.0
Cd270 Cd 0.7199 0.86359 0.0225 0.0
C271 C 0.70804 0.86772 0.95496 0.0
O272 O 0.69171 0.89831 0.03595 0.0
O273 O 0.67094 0.86031 0.03596 0.0
O274 O 0.74891 0.85367 0.05967 0.0
C275 C 0.66957 0.88552 0.03854 0.0
O276 O 0.70083 0.89186 0.95886 0.0
C277 C 0.74647 0.82846 0.05789 0.0
O278 O 0.71654 0.85353 0.97428 0.0
O279 O 0.73088 0.81896 0.0394 0.0
C280 C 0.29451 0.56225 0.00584 0.0
O281 O 0.28631 0.54677 0.02426 0.0
Cd282 Cd 0.24713 0.55816 0.05069 0.0
O283 O 0.28089 0.58261 -0.00036 0.0
Cd284 Cd 0.23791 0.6049 0.00849 0.0
C285 C 0.25988 0.62444 0.06971 0.0
O286 O 0.21116 0.56542 0.01941 0.0
O287 O 0.19235 0.60355 0.02767 0.0
O288 O 0.22809 0.60385 0.96081 0.0
C289 C 0.19051 0.57821 0.0275 0.0
O290 O 0.25821 0.59974 0.07546 0.0
C291 C 0.23107 0.62877 0.95744 0.0
O292 O 0.2543 0.63234 0.0461 0.0
O293 O 0.23614 0.64318 0.9783 0.0
C294 C 0.08629 0.51328 0.78877 0.0
O295 O 0.07587 0.52877 0.7716 0.0
Cd296 Cd 0.07805 0.52321 0.72302 0.0
O297 O 0.10127 0.49397 0.7813 0.0
Cd298 Cd 0.12026 0.47639 0.73927 0.0
C299 C 0.14492 0.53527 0.71434 0.0
O300 O 0.07628 0.47553 0.71787 0.0
O301 O 0.10854 0.45919 0.69382 0.0
O302 O 0.13398 0.43501 0.76098 0.0
C303 C 0.08362 0.46513 0.6957 0.0
O304 O 0.12124 0.5429 0.70778 0.0
C305 C 0.1582 0.43689 0.75182 0.0
O306 O 0.14805 0.5139 0.72722 0.0
O307 O 0.16393 0.45682 0.73733 0.0
C308 C 0.24225 0.40762 0.52597 0.0
O309 O 0.22646 0.42607 0.51874 0.0
Cd310 Cd 0.18369 0.41443 0.49708 0.0
O311 O 0.23511 0.38319 0.52306 0.0
Cd312 Cd 0.20113 0.34889 0.51028 0.0
C313 C 0.20494 0.37083 0.44575 0.0
O314 O 0.16731 0.37862 0.52394 0.0
O315 O 0.15125 0.33975 0.51282 0.0
O316 O 0.2259 0.33308 0.54781 0.0
C317 C 0.1466 0.36402 0.51878 0.0
O318 O 0.19666 0.39373 0.4536 0.0
C319 C 0.22554 0.30858 0.54086 0.0
O320 O 0.20839 0.35182 0.46214 0.0
O321 O 0.21239 0.30193 0.51952 0.0
C322 C 0.42199 0.49177 0.30315 0.0
O323 O 0.43653 0.47918 0.28606 0.0
Cd324 Cd 0.43709 0.49099 0.2383 0.0
O325 O 0.40791 0.51148 0.29601 0.0
Cd326 Cd 0.39354 0.53943 0.26017 0.0
C327 C 0.36818 0.48427 0.2261 0.0
O328 O 0.43589 0.53857 0.23671 0.0
O329 O 0.4042 0.56165 0.2185 0.0
O330 O 0.3924 0.5794 0.28911 0.0
C331 C 0.42775 0.55171 0.21665 0.0
O332 O 0.39234 0.47608 0.22203 0.0
C333 C 0.36681 0.58206 0.28621 0.0
O334 O 0.36371 0.5054 0.24001 0.0
O335 O 0.35425 0.56478 0.27152 0.0
O336 O 0.97472 0.02674 0.02 0.0
Zn337 Zn 0.97965 -0.00441 -0.00529 0.0
O338 O 0.98352 0.96239 0.01364 0.0
Zn339 Zn 0.02011 0.94923 0.01132 0.0
Zn340 Zn 0.97287 0.96795 0.05082 0.0
Zn341 Zn 0.95995 0.93674 -0.0034 0.0
O342 O 0.02142 0.91216 -0.00476 0.0
O343 O 0.97741 0.90122 -0.00762 0.0
O344 O 0.01445 0.00476 0.97614 0.0
O345 O 0.04313 0.9738 -0.01062 0.0
O346 O 0.03613 0.94893 0.04843 0.0
O347 O 0.00035 0.95233 0.07576 0.0
O348 O 0.93419 0.95483 0.05708 0.0
O349 O 0.95095 -0.00668 0.96616 0.0
O350 O 0.92603 0.93366 0.01784 0.0
O351 O 0.94951 0.94927 0.95984 0.0
C352 C 0.97511 0.02818 0.04567 0.0
C353 C 0.00242 0.8951 -0.00944 0.0
C354 C 0.02582 0.94902 0.07203 0.0
C355 C 0.03817 -0.00506 0.97647 0.0
C356 C 0.9185 0.94149 0.04117 0.0
C357 C 0.94427 0.97274 0.95208 0.0
O358 O 0.97485 0.0072 0.05981 0.0
O359 O 0.24667 0.72145 0.20378 0.0
Zn360 Zn 0.23623 0.72784 0.24171 0.0
O361 O 0.24533 0.76426 0.25191 0.0
Zn362 Zn 0.27182 0.7637 0.2815 0.0
Zn363 Zn 0.25998 0.78377 0.22092 0.0
Zn364 Zn 0.21229 0.78107 0.26366 0.0
O365 O 0.25723 0.78212 0.31451 0.0
O366 O 0.21462 0.79122 0.30291 0.0
O367 O 0.25573 0.70182 0.26387 0.0
O368 O 0.28054 0.72631 0.29267 0.0
O369 O 0.30784 0.77905 0.26978 0.0
O370 O 0.30008 0.78957 0.22708 0.0
O371 O 0.24187 0.82012 0.21687 0.0
O372 O 0.19698 0.7184 0.24663 0.0
O373 O 0.20631 0.81448 0.24414 0.0
O374 O 0.17959 0.75728 0.25906 0.0
C375 C 0.25378 0.73563 0.18387 0.0
C376 C 0.23372 0.79099 0.3203 0.0
C377 C 0.31628 0.78717 0.247 0.0
C378 C 0.27227 0.70372 0.28354 0.0
C379 C 0.21965 0.82831 0.22727 0.0
C380 C 0.17676 0.73265 0.25296 0.0
O381 O 0.2574 0.76089 0.18623 0.0
O382 O 0.47435 0.96227 0.49604 0.0
Zn383 Zn 0.46972 -0.00508 0.47379 0.0
O384 O 0.47416 0.02781 0.49472 0.0
Zn385 Zn 0.4394 0.04515 0.50106 0.0
Zn386 Zn 0.49114 0.0191 0.52861 0.0
Zn387 Zn 0.49731 0.05187 0.47539 0.0
O388 O 0.44012 0.08451 0.49124 0.0
O389 O 0.47858 0.0855 0.46743 0.0
O390 O 0.43209 -0.00764 0.45917 0.0
O391 O 0.41085 0.0269 0.47797 0.0
O392 O 0.42826 0.03955 0.53984 0.0
O393 O 0.46802 0.03095 0.55913 0.0
O394 O 0.52889 0.03456 0.53251 0.0
O395 O 0.49577 -0.00653 0.44302 0.0
O396 O 0.5305 0.06091 0.4969 0.0
O397 O 0.51025 0.03566 0.44074 0.0
C398 C 0.48387 0.95945 0.51967 0.0
C399 C 0.45698 0.09649 0.47587 0.0
C400 C 0.44249 0.03481 0.56072 0.0
C401 C 0.41085 0.00622 0.46261 0.0
C402 C 0.54103 0.05204 0.51837 0.0
C403 C 0.50938 0.01182 0.43149 0.0
O404 O 0.49217 0.97951 0.53371 0.0
O405 O 0.24783 0.22677 0.80556 0.0
Zn406 Zn 0.26037 0.25047 0.77629 0.0
O407 O 0.25275 0.23441 0.74118 0.0
Zn408 Zn 0.28638 0.22339 0.72396 0.0
Zn409 Zn 0.22751 0.20428 0.74559 0.0
Zn410 Zn 0.23669 0.2608 0.71902 0.0
O411 O 0.28887 0.23449 0.68489 0.0
O412 O 0.25625 0.26476 0.68439 0.0
O413 O 0.30031 0.25642 0.78132 0.0
O414 O 0.31887 0.2387 0.74429 0.0
O415 O 0.2877 0.18369 0.72466 0.0
O416 O 0.24518 0.17021 0.73333 0.0
O417 O 0.19214 0.20971 0.72613 0.0
O418 O 0.24179 0.28571 0.78123 0.0
O419 O 0.19874 0.24998 0.70894 0.0
O420 O 0.23445 0.29582 0.73831 0.0
C421 C 0.23013 0.208 0.80615 0.0
C422 C 0.27557 0.25239 0.67294 0.0
C423 C 0.26987 0.16515 0.72744 0.0
C424 C 0.32107 0.25094 0.76701 0.0
C425 C 0.18379 0.2294 0.71266 0.0
C426 C 0.23472 0.30211 0.76331 0.0
O427 O 0.21879 0.19868 0.7848 0.0
O428 O 0.00052 0.98798 0.43949 0.0
Zn429 Zn 0.98197 0.96857 0.46948 0.0
O430 O -0.00635 0.98431 0.50279 0.0
Zn431 Zn -0.00454 0.95639 0.52934 0.0
Zn432 Zn 0.02791 0.00304 0.49901 0.0
Zn433 Zn 0.9676 0.01014 0.51246 0.0
O434 O 0.97196 0.96428 0.56171 0.0
O435 O 0.95817 0.00467 0.55056 0.0
O436 O -0.00519 0.93124 0.4691 0.0
O437 O -0.00835 0.91941 0.51216 0.0
O438 O 0.03295 0.9561 0.54424 0.0
O439 O 0.05696 0.98437 0.51918 0.0
O440 O 0.0256 0.03949 0.51624 0.0
O441 O 0.9408 0.96948 0.4652 0.0
O442 O 0.98166 0.04768 0.5117 0.0
O443 O 0.93381 0.00525 0.49145 0.0
C444 C 0.02295 0.00118 0.43844 0.0
C445 C 0.96018 0.98613 0.56759 0.0
C446 C 0.05542 0.96723 0.53785 0.0
C447 C -0.00378 0.91373 0.48736 0.0
C448 C 0.00568 0.05537 0.51809 0.0
C449 C 0.92528 0.98741 0.47482 0.0
O450 O 0.03694 0.0069 0.45955 0.0
O451 O 0.30744 0.73339 0.75798 0.0
Zn452 Zn 0.26944 0.73741 0.77331 0.0
O453 O 0.24192 0.72573 0.74704 0.0
Zn454 Zn 0.21566 0.75383 0.73946 0.0
Zn455 Zn 0.25857 0.71494 0.71338 0.0
Zn456 Zn 0.22419 0.69476 0.76128 0.0
O457 O 0.17768 0.74246 0.75037 0.0
O458 O 0.18467 0.70124 0.76451 0.0
O459 O 0.26455 0.77616 0.78041 0.0
O460 O 0.2269 0.78804 0.75905 0.0
O461 O 0.21574 0.76345 0.6999 0.0
O462 O 0.2512 0.74072 0.68464 0.0
O463 O 0.24557 0.67899 0.69955 0.0
O464 O 0.26617 0.71866 0.80907 0.0
O465 O 0.22818 0.66289 0.7374 0.0
O466 O 0.23626 0.68658 0.7984 0.0
C467 C 0.31525 0.72448 0.73504 0.0
C468 C 0.16886 0.72049 0.75993 0.0
C469 C 0.23281 0.75786 0.68136 0.0
C470 C 0.24735 0.79377 0.77409 0.0
C471 C 0.23526 0.65991 0.71287 0.0
C472 C 0.25206 0.69815 0.81542 0.0
O473 O 0.29843 0.71589 0.71726 0.0
O474 O 0.5156 0.02028 0.07108 0.0
Zn475 Zn 0.51078 0.02531 0.03135 0.0
O476 O 0.4775 0.00649 0.01941 0.0
Zn477 Zn 0.48702 0.9755 -0.00135 0.0
Zn478 Zn 0.45585 -0.00471 0.04985 0.0
Zn479 Zn 0.45612 0.02874 -0.00264 0.0
O480 O 0.48107 0.9803 0.95958 0.0
O481 O 0.45448 0.0157 0.95869 0.0
O482 O 0.54448 0.0068 0.01742 0.0
O483 O 0.52561 0.96792 0.0049 0.0
O484 O 0.46651 0.94299 0.00994 0.0
O485 O 0.44345 0.95722 0.04562 0.0
O486 O 0.42245 0.01723 0.05459 0.0
O487 O 0.51056 0.06475 0.02194 0.0
O488 O 0.41915 0.03292 0.01298 0.0
O489 O 0.47219 0.06512 -0.00193 0.0
C490 C 0.5028 0.00595 0.08804 0.0
C491 C 0.46675 -0.00332 0.94666 0.0
C492 C 0.44998 0.93863 0.02916 0.0
C493 C 0.54646 0.98212 0.01104 0.0
C494 C 0.40943 0.02955 0.03653 0.0
C495 C 0.49283 0.07718 0.00833 0.0
O496 O 0.47961 -0.00454 0.08249 0.0
O497 O 0.19021 0.29898 0.22003 0.0
Zn498 Zn 0.21787 0.28443 0.24496 0.0
O499 O 0.25369 0.29178 0.23142 0.0
Zn500 Zn 0.27425 0.259 0.23299 0.0
Zn501 Zn 0.25231 0.30457 0.19475 0.0
Zn502 Zn 0.27003 0.31979 0.25287 0.0
O503 O 0.31005 0.26563 0.25175 0.0
O504 O 0.30708 0.30845 0.26429 0.0
O505 O 0.21144 0.24498 0.24642 0.0
O506 O 0.25308 0.2289 0.25038 0.0
O507 O 0.27929 0.2442 0.19546 0.0
O508 O 0.26171 0.27505 0.16927 0.0
O509 O 0.27581 0.33737 0.18932 0.0
O510 O 0.21295 0.29971 0.28228 0.0
O511 O 0.27512 0.35299 0.23163 0.0
O512 O 0.24852 0.32754 0.28637 0.0
C513 C 0.19137 0.30953 0.19684 0.0
C514 C 0.32016 0.28671 0.26291 0.0
C515 C 0.27179 0.25206 0.17233 0.0
C516 C 0.22728 0.22555 0.2504 0.0
C517 C 0.27985 0.35615 0.20661 0.0
C518 C 0.22665 0.31723 0.29566 0.0
O519 O 0.214 0.31333 0.18486 0.0
O520 O 0.51741 0.52463 0.94206 0.0
Zn521 Zn 0.50098 0.50503 0.97271 0.0
O522 O 0.5154 0.51928 0.00591 0.0
Zn523 Zn 0.52149 0.48959 0.02995 0.0
Zn524 Zn 0.54849 0.54043 -0.00026 0.0
Zn525 Zn 0.48814 0.54214 0.02008 0.0
O526 O 0.50069 0.49322 0.06493 0.0
O527 O 0.47764 0.52979 0.05619 0.0
O528 O 0.51095 0.46696 0.96875 0.0
O529 O 0.51543 0.4536 0.01107 0.0
O530 O 0.56073 0.48987 0.03957 0.0
O531 O 0.58058 0.52169 0.01536 0.0
O532 O 0.54651 0.57657 0.01866 0.0
O533 O 0.46012 0.50738 0.97063 0.0
O534 O 0.5023 0.57848 0.0281 0.0
O535 O 0.45468 0.54282 -0.00248 0.0
C536 C 0.53897 0.53885 0.93955 0.0
C537 C 0.48408 0.51129 0.07207 0.0
C538 C 0.58195 0.50253 0.03188 0.0
C539 C 0.5145 0.44858 0.98573 0.0
C540 C 0.52606 0.58888 0.02821 0.0
C541 C 0.4454 0.52587 0.98031 0.0
O542 O 0.55407 0.54538 0.95967 0.0
O543 O 0.80869 0.18519 0.21077 0.0
Zn544 Zn 0.77736 0.19776 0.23222 0.0
O545 O 0.74392 0.18945 0.21282 0.0
Zn546 Zn 0.723 0.22206 0.20987 0.0
Zn547 Zn 0.75126 0.174 0.17692 0.0
Zn548 Zn 0.72414 0.16345 0.23335 0.0
O549 O 0.68631 0.21856 0.22788 0.0
O550 O 0.68898 0.1784 0.24589 0.0
O551 O 0.7823 0.23694 0.23847 0.0
O552 O 0.74218 0.25341 0.22772 0.0
O553 O 0.72109 0.23286 0.17114 0.0
O554 O 0.74168 0.20009 0.14852 0.0
O555 O 0.7304 0.13924 0.16989 0.0
O556 O 0.77882 0.18161 0.2688 0.0
O557 O 0.7162 0.13071 0.21158 0.0
O558 O 0.74329 0.15383 0.26714 0.0
C559 C 0.81184 0.17412 0.1877 0.0
C560 C 0.67638 0.20006 0.24246 0.0
C561 C 0.73008 0.22261 0.14925 0.0
C562 C 0.76623 0.25651 0.23697 0.0
C563 C 0.71867 0.12407 0.18683 0.0
C564 C 0.76397 0.16367 0.27944 0.0
O565 O 0.79166 0.16826 0.17236 0.0
O566 O -0.00954 0.49535 0.55786 0.0
Zn567 Zn 0.98354 0.49671 0.51881 0.0
O568 O 0.94823 0.48067 0.51127 0.0
Zn569 Zn 0.9534 0.44621 0.49344 0.0
Zn570 Zn 0.92734 0.47699 0.54491 0.0
Zn571 Zn 0.92981 0.50391 0.48728 0.0
O572 O 0.93944 0.44581 0.45508 0.0
O573 O 0.92134 0.48601 0.45202 0.0
O574 O 0.01365 0.47532 0.50324 0.0
O575 O -0.00684 0.43662 0.49304 0.0
O576 O 0.93413 0.41776 0.51423 0.0
O577 O 0.91482 0.43893 0.54887 0.0
O578 O 0.89445 0.50092 0.54563 0.0
O579 O -0.01247 0.53444 0.50679 0.0
O580 O 0.89594 0.51673 0.50394 0.0
O581 O 0.95118 0.53714 0.48052 0.0
C582 C 0.9768 0.48994 0.57887 0.0
C583 C 0.92672 0.46324 0.44176 0.0
C584 C 0.91976 0.4175 0.53565 0.0
C585 C 0.01475 0.45083 0.49617 0.0
C586 C 0.88472 0.51518 0.52697 0.0
C587 C 0.97291 0.54733 0.49052 0.0
O588 O 0.95151 0.48382 0.57766 0.0
O589 O 0.76569 0.73303 0.32342 0.0
Zn590 Zn 0.77844 0.76067 0.29754 0.0
O591 O 0.76973 0.74961 0.26087 0.0
Zn592 Zn 0.80149 0.73869 0.24092 0.0
Zn593 Zn 0.74333 0.7204 0.26106 0.0
Zn594 Zn 0.75634 0.78032 0.24317 0.0
O595 O 0.80197 0.75308 0.20304 0.0
O596 O 0.77765 0.78949 0.21038 0.0
O597 O 0.81886 0.76622 0.30063 0.0
O598 O 0.83457 0.75271 0.26049 0.0
O599 O 0.80256 0.69879 0.23847 0.0
O600 O 0.75922 0.68708 0.24496 0.0
O601 O 0.70916 0.73026 0.24118 0.0
O602 O 0.75981 0.79501 0.30815 0.0
O603 O 0.71833 0.77253 0.23071 0.0
O604 O 0.75453 0.8121 0.26749 0.0
C605 C 0.74715 0.71499 0.32153 0.0
C606 C 0.79317 0.7755 0.19551 0.0
C607 C 0.78366 0.68105 0.23915 0.0
C608 C 0.83841 0.76275 0.28405 0.0
C609 C 0.70234 0.75225 0.23068 0.0
C610 C 0.75392 0.81436 0.29305 0.0
O611 O 0.73504 0.70968 0.29924 0.0
O612 O 0.71297 0.21514 0.69091 0.0
Zn613 Zn 0.71214 0.21685 0.73107 0.0
O614 O 0.72799 0.25044 0.74313 0.0
Zn615 Zn 0.75425 0.24362 0.77164 0.0
Zn616 Zn 0.74446 0.27027 0.71353 0.0
Zn617 Zn 0.69833 0.2709 0.75705 0.0
O618 O 0.74237 0.2596 0.80718 0.0
O619 O 0.70115 0.27416 0.79699 0.0
O620 O 0.73281 0.18579 0.74488 0.0
O621 O 0.75879 0.20441 0.77688 0.0
O622 O 0.79166 0.25639 0.76073 0.0
O623 O 0.78473 0.27116 0.71916 0.0
O624 O 0.73255 0.30924 0.71316 0.0
O625 O 0.67405 0.21227 0.74484 0.0
O626 O 0.70047 0.30814 0.74467 0.0
O627 O 0.66172 0.25449 0.74909 0.0
C628 C 0.72403 0.22909 0.6725 0.0
C629 C 0.71983 0.26999 0.81413 0.0
C630 C 0.80058 0.26582 0.73864 0.0
C631 C 0.74989 0.18384 0.76405 0.0
C632 C 0.71492 0.32099 0.72787 0.0
C633 C 0.65587 0.22967 0.74877 0.0
O634 O 0.73727 0.25071 0.67786 0.0
O635 O 0.67094 0.81145 0.72729 0.0
Zn636 Zn 0.69894 0.79506 0.75113 0.0
O637 O 0.73467 0.79862 0.73429 0.0
Zn638 Zn 0.75101 0.76381 0.73344 0.0
Zn639 Zn 0.73247 0.81189 0.6975 0.0
Zn640 Zn 0.75707 0.82313 0.75517 0.0
O641 O 0.78731 0.76404 0.75108 0.0
O642 O 0.79196 0.80591 0.76634 0.0
O643 O 0.68803 0.75609 0.75442 0.0
O644 O 0.72785 0.73616 0.75073 0.0
O645 O 0.75267 0.74961 0.69573 0.0
O646 O 0.73963 0.7829 0.66999 0.0
O647 O 0.7561 0.8446 0.69132 0.0
O648 O 0.69836 0.81278 0.78817 0.0
O649 O 0.76665 0.85519 0.73396 0.0
O650 O 0.73787 0.83534 0.78847 0.0
C651 C 0.67198 0.82058 0.70344 0.0
C652 C 0.80089 0.78229 0.76349 0.0
C653 C 0.74675 0.7588 0.67273 0.0
C654 C 0.70235 0.73511 0.75504 0.0
C655 C 0.76636 0.86056 0.70899 0.0
C656 C 0.71527 0.82908 0.79939 0.0
O657 O 0.69416 0.82179 0.69023 0.0
O658 O 0.42622 0.55433 0.52573 0.0
Zn659 Zn 0.44262 0.52407 0.50445 0.0
O660 O 0.4502 0.49304 0.52618 0.0
Zn661 Zn 0.48802 0.48482 0.52538 0.0
Zn662 Zn 0.43808 0.50111 0.56234 0.0
Zn663 Zn 0.43164 0.46191 0.51229 0.0
O664 O 0.49544 0.44944 0.50788 0.0
O665 O 0.45499 0.42933 0.51031 0.0
O666 O 0.4777 0.54064 0.49115 0.0
O667 O 0.50884 0.51267 0.50592 0.0
O668 O 0.50174 0.48363 0.56295 0.0
O669 O 0.46561 0.48849 0.58961 0.0
O670 O 0.39991 0.48563 0.56783 0.0
O671 O 0.42076 0.51325 0.4719 0.0
O672 O 0.39847 0.45537 0.5342 0.0
O673 O 0.42032 0.46882 0.47417 0.0
C674 C 0.4316 0.55952 0.55045 0.0
C675 C 0.48045 0.42858 0.5055 0.0
C676 C 0.491 0.48419 0.58633 0.0
C677 C 0.50237 0.53359 0.4934 0.0
C678 C 0.38785 0.46659 0.55484 0.0
C679 C 0.41558 0.49022 0.46162 0.0
O680 O 0.4381 0.54106 0.5665 0.0
O681 O -0.0 0.42914 -0.00955 0.0
Zn682 Zn -0.01238 0.46124 0.97051 0.0
O683 O 0.98208 0.49192 -0.00525 0.0
Zn684 Zn 0.94368 0.50049 -0.00268 0.0
Zn685 Zn -0.00325 0.48345 0.02987 0.0
Zn686 Zn 0.00115 0.52302 0.98198 0.0
O687 O 0.93469 0.53638 0.98202 0.0
O688 O 0.9762 0.55286 0.97438 0.0
O689 O 0.9521 0.44857 0.95381 0.0
O690 O 0.92225 0.474 0.97573 0.0
O691 O 0.93139 0.49973 0.03606 0.0
O692 O 0.97008 0.49345 0.05839 0.0
O693 O 0.03229 0.5032 0.03779 0.0
O694 O 0.0143 0.47045 0.9414 0.0
O695 O 0.02866 0.53621 0.00862 0.0
O696 O 0.02108 0.51417 0.94778 0.0
C697 C 0.00244 0.42488 0.01556 0.0
C698 C 0.95047 0.55523 0.97459 0.0
C699 C 0.94463 0.49796 0.0581 0.0
C700 C 0.92775 0.45539 0.9589 0.0
C701 C 0.04026 0.52562 0.02863 0.0
C702 C 0.02519 0.49258 0.93455 0.0
O703 O 0.00093 0.44375 0.03304 0.0
H704 H 0.00964 0.12664 0.11915 0.0
H705 H 0.01356 0.16516 0.04195 0.0
H706 H -0.00138 0.12344 0.01936 0.0
H707 H 0.98416 0.07626 0.02191 0.0
H708 H 0.97859 0.0389 0.09981 0.0
H709 H -0.00616 0.08037 0.12186 0.0
C710 C 0.00768 0.12583 0.09732 0.0
C711 C 0.01317 0.14877 0.08215 0.0
C712 C -0.00177 0.10222 0.0847 0.0
C713 C 0.00977 0.14762 0.05398 0.0
C714 C 0.00103 0.12387 0.04113 0.0
C715 C -0.01408 0.07724 0.04374 0.0
C716 C 0.98023 0.05441 0.05914 0.0
C717 C -0.00503 0.10112 0.05635 0.0
C718 C 0.98274 0.05612 0.08742 0.0
C719 C -0.00832 0.07977 0.10007 0.0
H720 H 0.06384 0.71958 0.30379 0.0
H721 H 0.11231 0.67756 0.36162 0.0
H722 H 0.14999 0.67562 0.32927 0.0
H723 H 0.17175 0.69441 0.28917 0.0
H724 H 0.12553 0.74371 0.23604 0.0
H725 H 0.08386 0.7336 0.26135 0.0
C726 C 0.08245 0.70952 0.30918 0.0
C727 C 0.08565 0.69927 0.33523 0.0
C728 C 0.10433 0.70983 0.29118 0.0
C729 C 0.10967 0.68601 0.34181 0.0
C730 C 0.13114 0.68491 0.32335 0.0
C731 C 0.15226 0.70193 0.28256 0.0
C732 C 0.15131 0.71954 0.26086 0.0
C733 C 0.12913 0.69794 0.29857 0.0
C734 C 0.12636 0.72989 0.25262 0.0
C735 C 0.10274 0.72438 0.26727 0.0
H736 H 0.4767 0.85751 0.59156 0.0
H737 H 0.46618 0.81827 0.5139 0.0
H738 H 0.46845 0.86178 0.49173 0.0
H739 H 0.47531 0.91085 0.49475 0.0
H740 H 0.48941 0.94844 0.57291 0.0
H741 H 0.48438 0.90544 0.59455 0.0
C742 C 0.47443 0.85843 0.5698 0.0
C743 C 0.47085 0.8348 0.55438 0.0
C744 C 0.47697 0.88315 0.55729 0.0
C745 C 0.46865 0.83628 0.52617 0.0
C746 C 0.47016 0.86109 0.51354 0.0
C747 C 0.47738 0.90958 0.5165 0.0
C748 C 0.48281 0.93286 0.53215 0.0
C749 C 0.47471 0.88463 0.52891 0.0
C750 C 0.48551 0.93087 0.56031 0.0
C751 C 0.48243 0.9063 0.57277 0.0
H752 H 0.44413 0.27468 0.7949 0.0
H753 H 0.41282 0.269 0.87609 0.0
H754 H 0.3664 0.26358 0.85825 0.0
H755 H 0.33544 0.25766 0.81949 0.0
H756 H 0.36776 0.25956 0.73845 0.0
H757 H 0.41336 0.26931 0.75641 0.0
C758 C 0.42712 0.27266 0.80876 0.0
C759 C 0.43181 0.2724 0.83678 0.0
C760 C 0.40082 0.26864 0.79837 0.0
C761 C 0.40965 0.26929 0.85444 0.0
C762 C 0.38318 0.26613 0.84425 0.0
C763 C 0.35244 0.26048 0.80577 0.0
C764 C 0.34833 0.25795 0.7777 0.0
C765 C 0.37863 0.26535 0.81624 0.0
C766 C 0.37052 0.26129 0.76013 0.0
C767 C 0.39652 0.26691 0.77038 0.0
H768 H 0.02446 0.79526 0.45654 0.0
H769 H 0.07725 0.83662 0.40067 0.0
H770 H 0.0658 0.87924 0.42195 0.0
H771 H 0.03568 0.90483 0.45138 0.0
H772 H 0.98219 0.8644 0.50695 0.0
H773 H -0.00107 0.82101 0.49062 0.0
C774 C 0.03407 0.8135 0.44946 0.0
C775 C 0.05127 0.81281 0.42666 0.0
C776 C 0.02668 0.83803 0.4612 0.0
C777 C 0.06369 0.83663 0.41793 0.0
C778 C 0.05697 0.86102 0.42994 0.0
C779 C 0.02772 0.88649 0.45995 0.0
C780 C 0.00717 0.88754 0.47967 0.0
C781 C 0.03752 0.86197 0.45064 0.0
C782 C -0.00231 0.86386 0.49139 0.0
C783 C 0.0073 0.83918 0.4821 0.0
H784 H 0.44044 0.74254 0.71148 0.0
H785 H 0.40709 0.75721 0.6323 0.0
H786 H 0.36132 0.74912 0.64918 0.0
H787 H 0.33107 0.73649 0.68533 0.0
H788 H 0.36236 0.72362 0.76543 0.0
H789 H 0.40902 0.73229 0.74915 0.0
C790 C 0.42313 0.74414 0.698 0.0
C791 C 0.42721 0.75024 0.67062 0.0
C792 C 0.3967 0.73949 0.70784 0.0
C793 C 0.40458 0.7525 0.65343 0.0
C794 C 0.37838 0.74775 0.663 0.0
C795 C 0.34811 0.73525 0.69925 0.0
C796 C 0.34355 0.72878 0.72634 0.0
C797 C 0.37432 0.74085 0.68997 0.0
C798 C 0.36561 0.72821 0.74436 0.0
C799 C 0.39214 0.73324 0.73507 0.0
H800 H 0.52675 0.19188 0.97038 0.0
H801 H 0.44232 0.19017 0.94563 0.0
H802 H 0.4348 0.14857 0.96972 0.0
H803 H 0.45364 0.11005 -0.00831 0.0
H804 H 0.53895 0.10904 0.01317 0.0
H805 H 0.5447 0.15476 -0.00314 0.0
C806 C 0.50657 0.1827 0.97085 0.0
C807 C 0.48512 0.19384 0.95613 0.0
C808 C 0.50271 0.15822 0.98378 0.0
C809 C 0.45912 0.18177 0.95669 0.0
C810 C 0.45486 0.15799 0.97035 0.0
C811 C 0.47351 0.11985 -0.00694 0.0
C812 C 0.49601 0.10598 0.00303 0.0
C813 C 0.47677 0.14556 0.98296 0.0
C814 C 0.52139 0.11922 0.00532 0.0
C815 C 0.52468 0.14528 -0.00411 0.0
H816 H 0.09874 0.28193 0.11553 0.0
H817 H 0.05498 0.27229 0.1905 0.0
H818 H 0.09263 0.29319 0.21539 0.0
H819 H 0.14013 0.3077 0.2166 0.0
H820 H 0.18531 0.3152 0.14225 0.0
H821 H 0.14454 0.30289 0.11633 0.0
C822 C 0.09741 0.28463 0.13727 0.0
C823 C 0.07451 0.27494 0.15124 0.0
C824 C 0.11926 0.29649 0.15157 0.0
C825 C 0.07268 0.2791 0.17933 0.0
C826 C 0.09413 0.29116 0.19361 0.0
C827 C 0.14092 0.30729 0.19469 0.0
C828 C 0.16582 0.3116 0.18142 0.0
C829 C 0.11785 0.29904 0.18003 0.0
C830 C 0.16641 0.31166 0.15301 0.0
C831 C 0.14319 0.30428 0.13816 0.0
H832 H 0.11888 0.98393 0.1523 0.0
H833 H 0.04904 -0.00101 0.20301 0.0
H834 H 0.01896 0.97832 0.16922 0.0
H835 H 0.01209 0.95945 0.1241 0.0
H836 H 0.08146 0.94502 0.07248 0.0
H837 H 0.11219 0.96099 0.10826 0.0
C838 C 0.09707 0.98269 0.15585 0.0
C839 C 0.08611 -0.00667 0.17982 0.0
C840 C 0.07985 0.97057 0.1364 0.0
C841 C 0.05792 -0.00886 0.18453 0.0
C842 C 0.0407 0.97923 0.1653 0.0
C843 C 0.03394 0.95921 0.12079 0.0
C844 C 0.04438 0.95143 0.09549 0.0
C845 C 0.05141 0.96923 0.14103 0.0
C846 C 0.07282 0.95109 0.09171 0.0
C847 C 0.09042 0.96048 0.11206 0.0
H848 H 0.23202 0.82766 0.4418 0.0
H849 H 0.16845 0.87826 0.41233 0.0
H850 H 0.17052 0.85567 0.36811 0.0
H851 H 0.19444 0.82539 0.33662 0.0
H852 H 0.26099 0.77845 0.36598 0.0
H853 H 0.25388 0.7961 0.41156 0.0
C854 C 0.21818 0.83351 0.42594 0.0
C855 C 0.20025 0.85478 0.4303 0.0
C856 C 0.22046 0.82147 0.4004 0.0
C857 C 0.18253 0.86201 0.40944 0.0
C858 C 0.18386 0.84925 0.38412 0.0
C859 C 0.2072 0.81888 0.35307 0.0
C860 C 0.22841 0.8009 0.34794 0.0
C861 C 0.20343 0.82961 0.37914 0.0
C862 C 0.24482 0.7926 0.36937 0.0
C863 C 0.24067 0.80256 0.39545 0.0
H864 H 0.36641 -0.00696 0.65386 0.0
H865 H 0.44292 0.96043 0.67959 0.0
H866 H 0.46619 0.98139 0.64174 0.0
H867 H 0.46501 0.00935 0.60248 0.0
H868 H 0.38884 0.04159 0.57514 0.0
H869 H 0.36524 0.02115 0.61339 0.0
C870 C 0.38807 -0.00987 0.65081 0.0
C871 C 0.40298 0.97505 0.66923 0.0
C872 C 0.40143 0.00278 0.62938 0.0
C873 C 0.43109 0.97182 0.66548 0.0
C874 C 0.44441 0.984 0.64406 0.0
C875 C 0.4433 0.01237 0.60497 0.0
C876 C 0.42875 0.02719 0.58604 0.0
C877 C 0.42985 -0.00018 0.6262 0.0
C878 C 0.40056 0.03049 0.58956 0.0
C879 C 0.38703 0.01855 0.61122 0.0
H880 H 0.18561 0.15991 0.91417 0.0
H881 H 0.27173 0.1586 0.93161 0.0
H882 H 0.28183 0.1782 0.88768 0.0
H883 H 0.26594 0.19593 0.8447 0.0
H884 H 0.18024 0.1931 0.82522 0.0
H885 H 0.16994 0.17466 0.86972 0.0
C886 C 0.20655 0.16402 0.90826 0.0
C887 C 0.22795 0.15828 0.92593 0.0
C888 C 0.21215 0.1744 0.88278 0.0
C889 C 0.25504 0.16303 0.91814 0.0
C890 C 0.26078 0.17422 0.89315 0.0
C891 C 0.24503 0.19127 0.85032 0.0
C892 C 0.22378 0.19604 0.83218 0.0
C893 C 0.23947 0.18004 0.87539 0.0
C894 C 0.19681 0.18953 0.83913 0.0
C895 C 0.19096 0.1791 0.86448 0.0
H896 H 0.04389 0.03614 0.31933 0.0
H897 H 0.12751 0.02393 0.34266 0.0
H898 H 0.1127 0.01395 0.38878 0.0
H899 H 0.07545 0.00669 0.42167 0.0
H900 H -0.00802 0.0155 0.39607 0.0
H901 H 0.00732 0.02898 0.35143 0.0
C902 C 0.05899 0.03162 0.33453 0.0
C903 C 0.08677 0.03094 0.32769 0.0
C904 C 0.0503 0.02516 0.36049 0.0
C905 C 0.106 0.02459 0.34751 0.0
C906 C 0.09754 0.01887 0.37381 0.0
C907 C 0.06073 0.01179 0.40632 0.0
C908 C 0.03267 0.01016 0.412 0.0
C909 C 0.06968 0.0188 0.38042 0.0
C910 C 0.01368 0.01647 0.39199 0.0
C911 C 0.02242 0.02422 0.36654 0.0
H912 H 0.21298 0.81853 0.57347 0.0
H913 H 0.30059 0.82644 0.57685 0.0
H914 H 0.30126 0.79943 0.61784 0.0
H915 H 0.27639 0.77542 0.65348 0.0
H916 H 0.18843 0.77279 0.65267 0.0
H917 H 0.18822 0.79627 0.60967 0.0
C918 C 0.23226 0.81394 0.58295 0.0
C919 C 0.25679 0.82382 0.57205 0.0
C920 C 0.23227 0.79975 0.60699 0.0
C921 C 0.28158 0.81864 0.58487 0.0
C922 C 0.28189 0.80338 0.60826 0.0
C923 C 0.25722 0.77992 0.64374 0.0
C924 C 0.23243 0.77233 0.65588 0.0
C925 C 0.25731 0.79412 0.61962 0.0
C926 C 0.20767 0.77858 0.64356 0.0
C927 C 0.20758 0.79185 0.61902 0.0
H928 H 0.45729 0.95511 0.82683 0.0
H929 H 0.39057 0.01038 0.82724 0.0
H930 H 0.40274 0.02528 0.87289 0.0
H931 H 0.42985 0.01983 0.91394 0.0
H932 H 0.4956 0.96344 0.91374 0.0
H933 H 0.48636 0.952 0.86658 0.0
C934 C 0.44553 0.97058 0.83679 0.0
C935 C 0.42288 0.98135 0.8238 0.0
C936 C 0.45237 0.9788 0.8631 0.0
C937 C 0.40799 0.00156 0.8369 0.0
C938 C 0.41491 0.01011 0.86301 0.0
C939 C 0.44238 0.0053 0.90348 0.0
C940 C 0.46312 -0.00772 0.91739 0.0
C941 C 0.43669 -0.00156 0.8765 0.0
C942 C 0.47925 0.97353 0.90356 0.0
C943 C 0.47401 0.96695 0.8766 0.0
H944 H 0.23946 0.14891 0.10628 0.0
H945 H 0.19545 0.20631 0.06 0.0
H946 H 0.21544 0.24285 0.08747 0.0
H947 H 0.24423 0.25794 0.12529 0.0
H948 H 0.28886 0.20029 0.17104 0.0
H949 H 0.27076 0.16429 0.14206 0.0
C950 C 0.2339 0.16941 0.10255 0.0
C951 C 0.21547 0.17502 0.08176 0.0
C952 C 0.24618 0.19019 0.11769 0.0
C953 C 0.20919 0.20163 0.07634 0.0
C954 C 0.22083 0.22245 0.0918 0.0
C955 C 0.25055 0.2376 0.12862 0.0
C956 C 0.2677 0.23184 0.15053 0.0
C957 C 0.2394 0.21692 0.11247 0.0
C958 C 0.27566 0.20532 0.15439 0.0
C959 C 0.26503 0.18467 0.13806 0.0
H960 H 0.11812 0.09126 0.96919 0.0
H961 H 0.17227 0.03262 0.00155 0.0
H962 H 0.13867 -0.00264 -0.00785 0.0
H963 H 0.09188 0.98455 0.98142 0.0
H964 H 0.03641 0.0434 0.95169 0.0
H965 H 0.07305 0.07691 0.95211 0.0
C966 C 0.1226 0.07073 0.97397 0.0
C967 C 0.14725 0.06462 0.98668 0.0
C968 C 0.10309 0.05055 0.96876 0.0
C969 C 0.15315 0.03788 -0.00779 0.0
C970 C 0.13403 0.01767 0.98674 0.0
C971 C 0.08789 0.0045 0.97435 0.0
C972 C 0.06128 0.01168 0.9674 0.0
C973 C 0.10861 0.02395 0.97591 0.0
C974 C 0.05665 0.03746 0.95766 0.0
C975 C 0.07751 0.05674 0.95817 0.0
H976 H 0.69843 0.45652 0.02563 0.0
H977 H 0.65564 0.38905 0.05977 0.0
H978 H 0.61617 0.41691 0.06892 0.0
H979 H 0.5915 0.45739 0.05929 0.0
H980 H 0.63258 0.5232 0.02019 0.0
H981 H 0.67547 0.49919 0.02159 0.0
C982 C 0.68067 0.44803 0.03557 0.0
C983 C 0.67956 0.42068 0.04145 0.0
C984 C 0.65776 0.46381 0.03965 0.0
C985 C 0.65666 0.40999 0.05464 0.0
C986 C 0.63413 0.42588 0.05982 0.0
C987 C 0.60991 0.46681 0.05156 0.0
C988 C 0.60873 0.49172 0.03896 0.0
C989 C 0.63404 0.4524 0.05118 0.0
C990 C 0.63288 0.50381 0.02954 0.0
C991 C 0.65736 0.49005 0.03022 0.0
H992 H 0.83355 0.36205 0.25813 0.0
H993 H 0.75983 0.39722 0.22869 0.0
H994 H 0.73722 0.35306 0.22771 0.0
H995 H 0.74059 0.30401 0.23054 0.0
H996 H 0.81528 0.26985 0.25958 0.0
H997 H 0.8353 0.31429 0.26561 0.0
C998 C 0.81243 0.36008 0.25172 0.0
C999 C 0.79845 0.38259 0.24302 0.0
C1000 C 0.79986 0.33487 0.25099 0.0
C1001 C 0.77096 0.38002 0.23536 0.0
C1002 C 0.75814 0.35481 0.23467 0.0
C1003 C 0.7611 0.3063 0.23855 0.0
C1004 C 0.77657 0.28359 0.24414 0.0
C1005 C 0.77269 0.332 0.24172 0.0
C1006 C 0.80303 0.28693 0.25475 0.0
C1007 C 0.81454 0.31234 0.25821 0.0
H1008 H 0.78327 0.58836 0.5203 0.0
H1009 H 0.74826 0.52653 0.56984 0.0
H1010 H 0.79253 0.50496 0.57236 0.0
H1011 H 0.84045 0.50191 0.55732 0.0
H1012 H 0.87386 0.56316 0.50614 0.0
H1013 H 0.83099 0.58692 0.50777 0.0
C1014 C 0.78526 0.57022 0.53177 0.0
C1015 C 0.76246 0.5589 0.54455 0.0
C1016 C 0.81053 0.55784 0.53287 0.0
C1017 C 0.76551 0.53556 0.5596 0.0
C1018 C 0.7908 0.52321 0.56108 0.0
C1019 C 0.83835 0.52068 0.54696 0.0
C1020 C 0.86002 0.53072 0.53147 0.0
C1021 C 0.81335 0.53393 0.54738 0.0
C1022 C 0.85722 0.55495 0.51794 0.0
C1023 C 0.83276 0.56854 0.51883 0.0
H1024 H 0.1941 0.10293 0.25339 0.0
H1025 H 0.11963 0.13499 0.22145 0.0
H1026 H 0.13894 0.17986 0.22438 0.0
H1027 H 0.17633 0.21015 0.23599 0.0
H1028 H 0.25188 0.17941 0.26642 0.0
H1029 H 0.23259 0.13392 0.26441 0.0
C1030 C 0.18221 0.11971 0.24689 0.0
C1031 C 0.1554 0.11548 0.23729 0.0
C1032 C 0.19344 0.14575 0.24865 0.0
C1033 C 0.14026 0.13753 0.22901 0.0
C1034 C 0.15123 0.1633 0.23074 0.0
C1035 C 0.18858 0.1936 0.24251 0.0
C1036 C 0.21541 0.19823 0.2516 0.0
C1037 C 0.17766 0.16764 0.2407 0.0
C1038 C 0.23107 0.17641 0.25949 0.0
C1039 C 0.22011 0.1504 0.25822 0.0
H1040 H 0.28846 0.97503 0.45687 0.0
H1041 H 0.32281 0.89708 0.4677 0.0
H1042 H 0.36829 0.91518 0.45809 0.0
H1043 H 0.39838 0.95421 0.45502 0.0
H1044 H 0.36438 0.033 0.45099 0.0
H1045 H 0.31839 0.01344 0.44867 0.0
C1046 C 0.30582 0.96187 0.45656 0.0
C1047 C 0.30248 0.93489 0.4634 0.0
C1048 C 0.33189 0.97264 0.45231 0.0
C1049 C 0.32506 0.91803 0.46291 0.0
C1050 C 0.35099 0.92836 0.4574 0.0
C1051 C 0.38096 0.96707 0.45276 0.0
C1052 C 0.38457 -0.00503 0.45342 0.0
C1053 C 0.35472 0.95582 0.45327 0.0
C1054 C 0.36191 0.01145 0.4507 0.0
C1055 C 0.33569 0.00029 0.44958 0.0
H1056 H 0.83512 0.56725 0.23624 0.0
H1057 H 0.7513 0.54291 0.24843 0.0
H1058 H 0.73735 0.58973 0.24634 0.0
H1059 H 0.74965 0.63751 0.24254 0.0
H1060 H 0.83385 0.66058 0.22917 0.0
H1061 H 0.84693 0.61396 0.22978 0.0
C1062 C 0.81377 0.57214 0.23861 0.0
C1063 C 0.79428 0.5518 0.24295 0.0
C1064 C 0.806 0.59876 0.23691 0.0
C1065 C 0.76666 0.55834 0.24532 0.0
C1066 C 0.75873 0.58504 0.24405 0.0
C1067 C 0.77082 0.63234 0.23946 0.0
C1068 C 0.79076 0.6526 0.23602 0.0
C1069 C 0.7783 0.60541 0.23999 0.0
C1070 C 0.81807 0.64549 0.23195 0.0
C1071 C 0.82562 0.61882 0.23242 0.0
H1072 H 0.70358 0.44533 0.71124 0.0
H1073 H 0.67064 0.43903 0.79175 0.0
H1074 H 0.68172 0.39178 0.79227 0.0
H1075 H 0.69639 0.35176 0.76858 0.0
H1076 H 0.72867 0.35633 0.68772 0.0
H1077 H 0.72218 0.40492 0.68853 0.0
C1078 C 0.69947 0.43371 0.7291 0.0
C1079 C 0.68625 0.44558 0.75143 0.0
C1080 C 0.70522 0.40625 0.72897 0.0
C1081 C 0.68073 0.43029 0.77433 0.0
C1082 C 0.6869 0.40326 0.77458 0.0
C1083 C 0.70199 0.3633 0.75102 0.0
C1084 C 0.71242 0.3504 0.72786 0.0
C1085 C 0.69831 0.39092 0.75172 0.0
C1086 C 0.72029 0.36578 0.70565 0.0
C1087 C 0.71662 0.39353 0.70616 0.0
H1088 H -0.00245 0.78404 0.9329 0.0
H1089 H 0.05954 0.82202 0.8842 0.0
H1090 H 0.06265 0.8592 0.91682 0.0
H1091 H 0.04227 0.88397 0.95486 0.0
H1092 H 0.97643 0.84792 -0.0002 0.0
H1093 H 0.98059 0.80659 0.97322 0.0
C1094 C 0.01215 0.80017 0.92959 0.0
C1095 C 0.02796 0.80049 0.90592 0.0
C1096 C 0.01296 0.82189 0.94772 0.0
C1097 C 0.04688 0.82148 0.9021 0.0
C1098 C 0.04862 0.84275 0.92071 0.0
C1099 C 0.02942 0.86675 0.95928 0.0
C1100 C 0.00904 0.8688 0.97908 0.0
C1101 C 0.03096 0.84365 0.94298 0.0
C1102 C -0.00783 0.84665 0.98451 0.0
C1103 C -0.00553 0.82313 0.96926 0.0
H1104 H 0.91547 0.26954 0.68576 0.0
H1105 H 0.92593 0.20011 0.73498 0.0
H1106 H 0.8821 0.20854 0.75704 0.0
H1107 H 0.8387 0.23276 0.75826 0.0
H1108 H 0.82805 0.30042 0.70669 0.0
H1109 H 0.87455 0.29589 0.68994 0.0
C1110 C 0.90829 0.25624 0.7014 0.0
C1111 C 0.92363 0.23391 0.70836 0.0
C1112 C 0.88315 0.26102 0.71363 0.0
C1113 C 0.91432 0.21728 0.72909 0.0
C1114 C 0.8893 0.2221 0.74168 0.0
C1115 C 0.84688 0.24693 0.74393 0.0
C1116 C 0.83009 0.26685 0.7336 0.0
C1117 C 0.87326 0.24355 0.73361 0.0
C1118 C 0.84068 0.2849 0.71479 0.0
C1119 C 0.86715 0.28221 0.70511 0.0
H1120 H 0.47738 0.21418 0.44463 0.0
H1121 H 0.45992 0.18005 0.36567 0.0
H1122 H 0.44476 0.13842 0.38616 0.0
H1123 H 0.44351 0.10972 0.42579 0.0
H1124 H 0.46185 0.143 0.50461 0.0
H1125 H 0.46901 0.18729 0.4851 0.0
C1126 C 0.46988 0.19775 0.43196 0.0
C1127 C 0.47032 0.19994 0.40366 0.0
C1128 C 0.46129 0.17382 0.44388 0.0
C1129 C 0.46008 0.17873 0.38749 0.0
C1130 C 0.45142 0.15491 0.39918 0.0
C1131 C 0.44802 0.12697 0.43872 0.0
C1132 C 0.45195 0.12348 0.46647 0.0
C1133 C 0.45285 0.15196 0.42724 0.0
C1134 C 0.45828 0.14558 0.48322 0.0
C1135 C 0.46275 0.17072 0.472 0.0
H1136 H 0.5916 0.74441 0.16627 0.0
H1137 H 0.59369 0.82925 0.18231 0.0
H1138 H 0.63708 0.82521 0.20662 0.0
H1139 H 0.67415 0.79736 0.22287 0.0
H1140 H 0.67077 0.71202 0.20879 0.0
H1141 H 0.62779 0.71626 0.18424 0.0
C1142 C 0.6018 0.76194 0.17501 0.0
C1143 C 0.59015 0.78712 0.17237 0.0
C1144 C 0.62619 0.75929 0.18933 0.0
C1145 C 0.6028 0.80978 0.18404 0.0
C1146 C 0.62742 0.80743 0.19791 0.0
C1147 C 0.66398 0.77969 0.21443 0.0
C1148 C 0.6756 0.75443 0.21744 0.0
C1149 C 0.63927 0.78227 0.20063 0.0
C1150 C 0.6621 0.73165 0.20678 0.0
C1151 C 0.63765 0.73408 0.19265 0.0
H1152 H 0.03061 0.14499 0.60505 0.0
H1153 H 0.94793 0.16559 0.58565 0.0
H1154 H 0.94639 0.13092 0.5502 0.0
H1155 H 0.9679 0.09366 0.52635 0.0
H1156 H 0.05119 0.07386 0.54483 0.0
H1157 H 0.05349 0.11008 0.57836 0.0
C1158 C 0.01223 0.14166 0.59316 0.0
C1159 C -0.01078 0.15726 0.59817 0.0
C1160 C 0.01178 0.12229 0.57238 0.0
C1161 C 0.96575 0.15347 0.58223 0.0
C1162 C 0.96492 0.13382 0.56192 0.0
C1163 C -0.01327 0.09752 0.53735 0.0
C1164 C 0.00921 0.08085 0.53328 0.0
C1165 C -0.01222 0.11804 0.55693 0.0
C1166 C 0.03354 0.08634 0.54756 0.0
C1167 C 0.0348 0.10687 0.56697 0.0
H1168 H 0.58564 0.21071 0.33151 0.0
H1169 H 0.57506 0.28632 0.29281 0.0
H1170 H 0.6102 0.27506 0.25969 0.0
H1171 H 0.64453 0.2441 0.24248 0.0
H1172 H 0.65347 0.1675 0.28011 0.0
H1173 H 0.61789 0.17852 0.31243 0.0
C1174 C 0.59126 0.22474 0.31593 0.0
C1175 C 0.57826 0.24939 0.31471 0.0
C1176 C 0.61084 0.21782 0.29654 0.0
C1177 C 0.58508 0.26725 0.29413 0.0
C1178 C 0.60503 0.2608 0.27517 0.0
C1179 C 0.63847 0.22967 0.25751 0.0
C1180 C 0.65184 0.20513 0.25893 0.0
C1181 C 0.61805 0.23613 0.27619 0.0
C1182 C 0.64359 0.1866 0.27851 0.0
C1183 C 0.62336 0.19292 0.29718 0.0
H1184 H 0.44921 0.84084 0.10157 0.0
H1185 H 0.50864 0.81549 0.04269 0.0
H1186 H 0.49452 0.85085 0.01248 0.0
H1187 H 0.47228 0.89382 0.00763 0.0
H1188 H 0.41521 0.92071 0.0683 0.0
H1189 H 0.42038 0.87906 0.09237 0.0
C1190 C 0.45875 0.84283 0.08192 0.0
C1191 C 0.48046 0.8263 0.0746 0.0
C1192 C 0.45085 0.86336 0.06498 0.0
C1193 C 0.49217 0.82839 0.04886 0.0
C1194 C 0.48411 0.84857 0.03162 0.0
C1195 C 0.46025 0.89027 0.02562 0.0
C1196 C 0.44419 0.91074 0.03673 0.0
C1197 C 0.46443 0.86694 0.04011 0.0
C1198 C 0.42823 0.90551 0.05967 0.0
C1199 C 0.43139 0.88181 0.07362 0.0
H1200 H 0.90502 0.73486 0.81705 0.0
H1201 H 0.93604 0.81457 0.80331 0.0
H1202 H 0.89179 0.82731 0.78491 0.0
H1203 H 0.84469 0.81512 0.77176 0.0
H1204 H 0.81556 0.73414 0.78229 0.0
H1205 H 0.85882 0.72243 0.80294 0.0
C1206 C 0.90197 0.75509 0.81026 0.0
C1207 C 0.92346 0.77387 0.81169 0.0
C1208 C 0.87696 0.76192 0.79901 0.0
C1209 C 0.91961 0.79986 0.80236 0.0
C1210 C 0.8944 0.8071 0.79188 0.0
C1211 C 0.84787 0.79497 0.77869 0.0
C1212 C 0.82712 0.77552 0.77563 0.0
C1213 C 0.873 0.78822 0.78994 0.0
C1214 C 0.83142 0.74938 0.78433 0.0
C1215 C 0.85605 0.74269 0.7962 0.0
H1216 H 0.90764 0.01387 0.83945 0.0
H1217 H 0.95517 0.94648 0.81285 0.0
H1218 H 0.96131 0.93326 0.85971 0.0
H1219 H 0.95574 0.94267 0.90812 0.0
H1220 H 0.91154 0.01216 0.93456 0.0
H1221 H 0.90093 0.02251 0.88763 0.0
C1222 C 0.91918 -0.00384 0.84385 0.0
C1223 C 0.93103 0.98123 0.82276 0.0
C1224 C 0.92304 -0.01099 0.87073 0.0
C1225 C 0.94605 0.95843 0.82879 0.0
C1226 C 0.94947 0.95081 0.85553 0.0
C1227 C 0.94329 0.95974 0.90357 0.0
C1228 C 0.93423 0.97658 0.92456 0.0
C1229 C 0.93834 0.96615 0.87664 0.0
C1230 C 0.91862 -0.00105 0.91856 0.0
C1231 C 0.9127 0.00491 0.89182 0.0
H1232 H 0.71439 0.14971 0.57527 0.0
H1233 H 0.79793 0.17458 0.56337 0.0
H1234 H 0.79305 0.20951 0.59872 0.0
H1235 H 0.76602 0.22883 0.6366 0.0
H1236 H 0.68278 0.20203 0.64785 0.0
H1237 H 0.68617 0.17239 0.60847 0.0
C1238 C 0.73149 0.16293 0.58036 0.0
C1239 C 0.75664 0.15939 0.5675 0.0
C1240 C 0.72841 0.18266 0.60032 0.0
C1241 C 0.77851 0.1769 0.57347 0.0
C1242 C 0.77566 0.19678 0.59358 0.0
C1243 C 0.74843 0.21712 0.62982 0.0
C1244 C 0.72419 0.21744 0.64504 0.0
C1245 C 0.75085 0.19938 0.60761 0.0
C1246 C 0.7016 0.20197 0.6364 0.0
C1247 C 0.7036 0.1849 0.61406 0.0
H1248 H 0.56677 0.96489 0.32866 0.0
H1249 H 0.54874 0.04314 0.29888 0.0
H1250 H 0.53137 0.05648 0.34341 0.0
H1251 H 0.51839 0.04455 0.38963 0.0
H1252 H 0.5324 0.96471 0.41742 0.0
H1253 H 0.55447 0.9532 0.37465 0.0
C1254 C 0.55942 0.985 0.33204 0.0
C1255 C 0.55906 0.00309 0.31073 0.0
C1256 C 0.5486 -0.00792 0.35717 0.0
C1257 C 0.5491 0.02892 0.31512 0.0
C1258 C 0.53918 0.03651 0.34048 0.0
C1259 C 0.52657 0.02475 0.38634 0.0
C1260 C 0.52387 0.00545 0.40642 0.0
C1261 C 0.53837 0.01805 0.36147 0.0
C1262 C 0.53416 0.97976 0.40202 0.0
C1263 C 0.54679 0.97321 0.37768 0.0
H1264 H 0.78496 0.84398 0.09395 0.0
H1265 H 0.73807 0.77498 0.06656 0.0
H1266 H 0.75441 0.74968 0.10505 0.0
H1267 H 0.77515 0.75028 0.15051 0.0
H1268 H 0.81756 0.82119 0.17946 0.0
H1269 H 0.81057 0.84255 0.13602 0.0
C1270 C 0.77862 0.82326 0.09614 0.0
C1271 C 0.75986 0.81151 0.07785 0.0
C1272 C 0.78741 0.80923 0.11862 0.0
C1273 C 0.75226 0.78453 0.08061 0.0
C1274 C 0.76154 0.7701 0.10264 0.0
C1275 C 0.78377 0.76997 0.14675 0.0
C1276 C 0.79704 0.78421 0.16775 0.0
C1277 C 0.77821 0.78262 0.12234 0.0
C1278 C 0.80757 0.80994 0.16327 0.0
C1279 C 0.80328 0.8222 0.13861 0.0
H1280 H 0.95782 0.0132 0.69136 0.0
H1281 H 0.90486 0.07497 0.6636 0.0
H1282 H 0.91087 0.05931 0.61703 0.0
H1283 H 0.92815 0.02611 0.58502 0.0
H1284 H 0.97781 0.96183 0.61329 0.0
H1285 H 0.97395 0.97907 0.6596 0.0
C1286 C 0.94737 0.02311 0.67527 0.0
C1287 C 0.93033 0.04474 0.68104 0.0
C1288 C 0.94936 0.01288 0.6489 0.0
C1289 C 0.91797 0.05813 0.65967 0.0
C1290 C 0.92104 0.04895 0.63313 0.0
C1291 C 0.93787 0.01564 0.60135 0.0
C1292 C 0.95319 -0.00729 0.59577 0.0
C1293 C 0.93596 0.02585 0.62768 0.0
C1294 C 0.9656 0.97932 0.61711 0.0
C1295 C 0.9638 -0.01058 0.64349 0.0
H1296 H 0.77899 0.1591 0.40542 0.0
H1297 H 0.72135 0.09372 0.3938 0.0
H1298 H 0.72352 0.09896 0.34512 0.0
H1299 H 0.73986 0.12319 0.30617 0.0
H1300 H 0.79726 0.18888 0.31676 0.0
H1301 H 0.7977 0.1819 0.3655 0.0
C1302 C 0.76688 0.14611 0.39217 0.0
C1303 C 0.74982 0.12629 0.40313 0.0
C1304 C 0.7684 0.14904 0.36407 0.0
C1305 C 0.73455 0.10925 0.38582 0.0
C1306 C 0.73581 0.11215 0.35798 0.0
C1307 C 0.75273 0.13583 0.31906 0.0
C1308 C 0.76826 0.15666 0.30791 0.0
C1309 C 0.75247 0.13208 0.34693 0.0
C1310 C 0.78508 0.17266 0.32486 0.0
C1311 C 0.78516 0.16885 0.35276 0.0
H1312 H 0.58933 0.96219 0.16874 0.0
H1313 H 0.52274 0.90848 0.18724 0.0
H1314 H 0.49406 0.93 0.15361 0.0
H1315 H 0.48743 0.96589 0.12137 0.0
H1316 H 0.55322 0.02214 0.1061 0.0
H1317 H 0.58238 -0.00127 0.13745 0.0
C1318 C 0.5688 0.95474 0.1647 0.0
C1319 C 0.55826 0.93335 0.17958 0.0
C1320 C 0.55201 0.96843 0.14699 0.0
C1321 C 0.53137 0.9244 0.17522 0.0
C1322 C 0.51489 0.93706 0.15649 0.0
C1323 C 0.50798 0.97337 0.12518 0.0
C1324 C 0.51806 -0.00419 0.11136 0.0
C1325 C 0.5248 0.95956 0.14284 0.0
C1326 C 0.54484 0.00503 0.11654 0.0
C1327 C 0.56168 -0.00856 0.13416 0.0
H1328 H 0.70874 0.8945 0.90804 0.0
H1329 H 0.70424 0.81496 0.94011 0.0
H1330 H 0.70264 0.79595 0.89425 0.0
H1331 H 0.70517 0.80199 0.84494 0.0
H1332 H 0.71428 0.88132 0.81352 0.0
H1333 H 0.71092 0.90055 0.85919 0.0
C1334 C 0.7072 0.87302 0.905 0.0
C1335 C 0.70663 0.85615 0.92737 0.0
C1336 C 0.70696 0.86226 0.87869 0.0
C1337 C 0.70492 0.82834 0.92315 0.0
C1338 C 0.70389 0.81747 0.89697 0.0
C1339 C 0.70586 0.82347 0.84823 0.0
C1340 C 0.70953 0.84037 0.8262 0.0
C1341 C 0.70519 0.83423 0.87459 0.0
C1342 C 0.71118 0.86812 0.8304 0.0
C1343 C 0.70941 0.87905 0.85642 0.0
H1344 H 0.79925 0.89935 0.04751 0.0
H1345 H 0.7875 0.9676 -0.00316 0.0
H1346 H 0.83458 0.98222 0.00506 0.0
H1347 H 0.88018 0.97264 0.02222 0.0
H1348 H 0.89274 0.90343 0.07079 0.0
H1349 H 0.8438 0.89235 0.06852 0.0
C1350 C 0.80694 0.9175 0.03834 0.0
C1351 C 0.79012 0.93212 0.02115 0.0
C1352 C 0.83396 0.92569 0.04306 0.0
C1353 C 0.80016 0.95587 0.0099 0.0
C1354 C 0.82702 0.96426 0.01462 0.0
C1355 C 0.87188 0.95567 0.03303 0.0
C1356 C 0.88949 0.93899 0.04696 0.0
C1357 C 0.8442 0.94899 0.03065 0.0
C1358 C 0.87914 0.91669 0.06045 0.0
C1359 C 0.85135 0.91023 0.0588 0.0
H1360 H 0.3212 0.51545 -0.00096 0.0
H1361 H 0.32719 0.5999 0.98337 0.0
H1362 H 0.37425 0.59499 0.9687 0.0
H1363 H 0.41551 0.56818 0.96791 0.0
H1364 H 0.41004 0.48374 0.9827 0.0
H1365 H 0.3607 0.48689 -0.01061 0.0
C1366 C 0.33274 0.53263 -0.00799 0.0
C1367 C 0.32111 0.55807 -0.00708 0.0
C1368 C 0.35978 0.52966 0.98343 0.0
C1369 C 0.33589 0.58015 0.98314 0.0
C1370 C 0.3628 0.57739 0.97478 0.0
C1371 C 0.40326 0.55037 0.97167 0.0
C1372 C 0.41606 0.52589 0.97513 0.0
C1373 C 0.37521 0.55246 0.97588 0.0
C1374 C 0.40034 0.50278 0.97985 0.0
C1375 C 0.37226 0.50465 0.98403 0.0
H1376 H 0.14982 0.57657 0.67933 0.0
H1377 H 0.19473 0.53161 0.73776 0.0
H1378 H 0.23185 0.56425 0.73674 0.0
H1379 H 0.24631 0.61002 0.72716 0.0
H1380 H 0.20181 0.65572 0.66954 0.0
H1381 H 0.17034 0.61798 0.66144 0.0
C1382 C 0.16797 0.5737 0.69141 0.0
C1383 C 0.16911 0.55227 0.70927 0.0
C1384 C 0.18936 0.59263 0.69081 0.0
C1385 C 0.19306 0.54828 0.72424 0.0
C1386 C 0.21438 0.56692 0.72369 0.0
C1387 C 0.2305 0.61112 0.71187 0.0
C1388 C 0.22598 0.63537 0.69917 0.0
C1389 C 0.21207 0.5898 0.70813 0.0
C1390 C 0.20559 0.63698 0.67939 0.0
C1391 C 0.18732 0.6156 0.67516 0.0
H1392 H 0.13546 0.4163 0.51392 0.0
H1393 H 0.09747 0.33793 0.51265 0.0
H1394 H 0.05326 0.35774 0.50294 0.0
H1395 H 0.02546 0.39759 0.49619 0.0
H1396 H 0.06458 0.47559 0.49636 0.0
H1397 H 0.10861 0.45542 0.50426 0.0
C1398 C 0.11756 0.40349 0.51152 0.0
C1399 C 0.11966 0.37573 0.51419 0.0
C1400 C 0.09253 0.4149 0.50535 0.0
C1401 C 0.09628 0.35941 0.51084 0.0
C1402 C 0.07107 0.3707 0.50516 0.0
C1403 C 0.04368 0.41014 0.49745 0.0
C1404 C 0.04167 0.43808 0.49583 0.0
C1405 C 0.06898 0.39845 0.50239 0.0
C1406 C 0.0655 0.45404 0.49764 0.0
C1407 C 0.09069 0.44256 0.50233 0.0
H1408 H 0.82275 0.97111 0.7179 0.0
H1409 H 0.8896 0.9254 0.68568 0.0
H1410 H 0.85853 0.88809 0.67536 0.0
H1411 H 0.81423 0.86578 0.68333 0.0
H1412 H 0.74884 0.91032 0.71928 0.0
H1413 H 0.77716 0.95101 0.71969 0.0
C1414 C 0.83049 0.95318 0.70819 0.0
C1415 C 0.85855 0.9508 0.70323 0.0
C1416 C 0.81268 0.93157 0.70297 0.0
C1417 C 0.86814 0.9276 0.69017 0.0
C1418 C 0.8504 0.90621 0.68427 0.0
C1419 C 0.806 0.88471 0.69019 0.0
C1420 C 0.77967 0.88545 0.70104 0.0
C1421 C 0.82288 0.90757 0.69165 0.0
C1422 C 0.76909 0.90968 0.71058 0.0
C1423 C 0.78535 0.93277 0.71108 0.0
H1424 H 0.66766 0.06054 0.52761 0.0
H1425 H 0.65184 0.13746 0.49336 0.0
H1426 H 0.6029 0.12993 0.49861 0.0
H1427 H 0.56488 0.09938 0.50791 0.0
H1428 H 0.58012 0.0226 0.54254 0.0
H1429 H 0.62917 0.03247 0.54294 0.0
C1430 C 0.65343 0.07568 0.52153 0.0
C1431 C 0.66312 0.09921 0.5096 0.0
C1432 C 0.62537 0.07131 0.52478 0.0
C1433 C 0.64472 0.11905 0.50235 0.0
C1434 C 0.61678 0.11478 0.50533 0.0
C1435 C 0.57895 0.08505 0.51601 0.0
C1436 C 0.56918 0.0602 0.52475 0.0
C1437 C 0.60692 0.09069 0.51581 0.0
C1438 C 0.58734 0.04189 0.53568 0.0
C1439 C 0.61534 0.0474 0.53565 0.0
H1440 H 0.15643 0.39596 0.7875 0.0
H1441 H 0.20596 0.43151 0.72514 0.0
H1442 H 0.23698 0.39425 0.72645 0.0
H1443 H 0.24622 0.34885 0.74042 0.0
H1444 H 0.19788 0.31272 0.80296 0.0
H1445 H 0.17054 0.35318 0.80702 0.0
C1446 C 0.17422 0.39565 0.7745 0.0
C1447 C 0.17855 0.41608 0.75584 0.0
C1448 C 0.19215 0.37412 0.77539 0.0
C1449 C 0.20196 0.41582 0.73946 0.0
C1450 C 0.21975 0.39452 0.74015 0.0
C1451 C 0.23015 0.35022 0.75543 0.0
C1452 C 0.22371 0.32807 0.77116 0.0
C1453 C 0.2145 0.3732 0.75734 0.0
C1454 C 0.20311 0.3298 0.79074 0.0
C1455 C 0.18734 0.35275 0.79282 0.0
H1456 H 0.31255 0.58767 0.29062 0.0
H1457 H 0.38901 0.62938 0.30495 0.0
H1458 H 0.36491 0.67144 0.31119 0.0
H1459 H 0.32323 0.69708 0.30337 0.0
H1460 H 0.24771 0.65498 0.28536 0.0
H1461 H 0.27018 0.61227 0.29025 0.0
C1462 C 0.32389 0.60588 0.29566 0.0
C1463 C 0.35247 0.60566 0.29665 0.0
C1464 C 0.31005 0.62994 0.2983 0.0
C1465 C 0.36695 0.62919 0.30379 0.0
C1466 C 0.3532 0.65324 0.30719 0.0
C1467 C 0.31158 0.67853 0.30138 0.0
C1468 C 0.28407 0.67901 0.29355 0.0
C1469 C 0.3249 0.65403 0.30313 0.0
C1470 C 0.26908 0.65495 0.29097 0.0
C1471 C 0.2819 0.63056 0.29368 0.0
H1472 H 0.45731 0.68303 0.56211 0.0
H1473 H 0.51332 0.65346 0.62156 0.0
H1474 H 0.49632 0.60813 0.61338 0.0
H1475 H 0.46588 0.57689 0.5897 0.0
H1476 H 0.41128 0.60504 0.52844 0.0
H1477 H 0.42692 0.6511 0.53754 0.0
C1478 C 0.46603 0.66663 0.57303 0.0
C1479 C 0.4866 0.67172 0.59241 0.0
C1480 C 0.45602 0.64046 0.56837 0.0
C1481 C 0.4975 0.6502 0.60652 0.0
C1482 C 0.48767 0.62424 0.602 0.0
C1483 C 0.45694 0.59311 0.57867 0.0
C1484 C 0.43712 0.5876 0.55872 0.0
C1485 C 0.46677 0.61921 0.58322 0.0
C1486 C 0.42632 0.60883 0.54415 0.0
C1487 C 0.43546 0.6351 0.54916 0.0
H1488 H 0.54529 0.23423 0.80796 0.0
H1489 H 0.59417 0.19892 0.87004 0.0
H1490 H 0.63063 0.19105 0.8372 0.0
H1491 H 0.65091 0.20089 0.79316 0.0
H1492 H 0.6045 0.24288 0.73393 0.0
H1493 H 0.56416 0.24081 0.76304 0.0
C1494 C 0.56374 0.22441 0.81426 0.0
C1495 C 0.56729 0.21745 0.84142 0.0
C1496 C 0.58488 0.2211 0.79568 0.0
C1497 C 0.59122 0.20472 0.84928 0.0
C1498 C 0.61198 0.20021 0.83053 0.0
C1499 C 0.6316 0.20865 0.7863 0.0
C1500 C 0.63024 0.22164 0.76146 0.0
C1501 C 0.60936 0.20918 0.80396 0.0
C1502 C 0.60562 0.23247 0.75289 0.0
C1503 C 0.58278 0.23155 0.76964 0.0
H1504 H 0.007 0.30115 0.03563 0.0
H1505 H 0.9591 0.32471 0.10495 0.0
H1506 H 0.96129 0.37115 0.09088 0.0
H1507 H 0.9788 0.40533 0.06031 0.0
H1508 H 0.02535 0.38197 -0.00983 0.0
H1509 H 0.02223 0.33512 0.00348 0.0
C1510 C -0.00338 0.31636 0.04741 0.0
C1511 C 0.98297 0.30947 0.07135 0.0
C1512 C -0.00168 0.3431 0.03944 0.0
C1513 C 0.96969 0.32945 0.08641 0.0
C1514 C 0.97116 0.35606 0.07853 0.0
C1515 C -0.01142 0.39 0.04815 0.0
C1516 C 0.0028 0.39704 0.02464 0.0
C1517 C -0.01406 0.36316 0.05546 0.0
C1518 C 0.01463 0.37696 0.00857 0.0
C1519 C 0.01267 0.35022 0.01606 0.0
H1520 H 0.96429 0.77708 0.30177 0.0
H1521 H 0.93981 0.76454 0.38436 0.0
H1522 H 0.89185 0.76606 0.3711 0.0
H1523 H 0.85736 0.76561 0.33532 0.0
H1524 H 0.88223 0.77393 0.25223 0.0
H1525 H 0.9297 0.77959 0.26642 0.0
C1526 C 0.94845 0.77522 0.31694 0.0
C1527 C 0.95544 0.77057 0.34393 0.0
C1528 C 0.92107 0.77504 0.30902 0.0
C1529 C 0.9348 0.76795 0.36339 0.0
C1530 C 0.90744 0.76875 0.35583 0.0
C1531 C 0.87313 0.76909 0.32037 0.0
C1532 C 0.86645 0.76913 0.2928 0.0
C1533 C 0.90039 0.77144 0.32858 0.0
C1534 C 0.88702 0.77351 0.27358 0.0
C1535 C 0.91411 0.77678 0.28166 0.0
H1536 H 0.51764 0.32688 0.95155 0.0
H1537 H 0.54956 0.36183 0.87863 0.0
H1538 H 0.54874 0.40599 0.8999 0.0
H1539 H 0.53537 0.43499 0.93741 0.0
H1540 H 0.50377 0.40103 0.01072 0.0
H1541 H 0.50815 0.35597 -0.00898 0.0
C1542 C 0.52475 0.3441 0.94041 0.0
C1543 C 0.53327 0.34104 0.91337 0.0
C1544 C 0.52399 0.36958 0.95268 0.0
C1545 C 0.54267 0.36357 0.89936 0.0
C1546 C 0.54213 0.38888 0.91146 0.0
C1547 C 0.52944 0.41773 0.94912 0.0
C1548 C 0.51874 0.42124 0.97523 0.0
C1549 C 0.53215 0.39215 0.93779 0.0
C1550 C 0.51184 0.39874 -0.00954 0.0
C1551 C 0.51432 0.37305 0.9792 0.0
H1552 H 0.92275 0.19415 0.1292 0.0
H1553 H 0.95116 0.19373 0.21177 0.0
H1554 H 0.9059 0.17987 0.22698 0.0
H1555 H 0.85773 0.1719 0.21731 0.0
H1556 H 0.82865 0.17282 0.13504 0.0
H1557 H 0.87508 0.18145 0.11903 0.0
C1558 C 0.91896 0.19104 0.15051 0.0
C1559 C 0.93999 0.19545 0.16943 0.0
C1560 C 0.89299 0.18283 0.15908 0.0
C1561 C 0.93514 0.1907 0.19689 0.0
C1562 C 0.90934 0.18271 0.20559 0.0
C1563 C 0.86163 0.17351 0.19581 0.0
C1564 C 0.83986 0.17214 0.1774 0.0
C1565 C 0.88806 0.1792 0.18692 0.0
C1566 C 0.84515 0.17379 0.1496 0.0
C1567 C 0.87161 0.17907 0.14048 0.0
H1568 H 0.02561 0.65878 0.46236 0.0
H1569 H 0.95174 0.66311 0.41524 0.0
H1570 H 0.93575 0.62067 0.43341 0.0
H1571 H 0.94453 0.58092 0.4594 0.0
H1572 H 0.01927 0.57529 0.50507 0.0
H1573 H 0.03321 0.61988 0.49065 0.0
C1574 C 0.00581 0.65063 0.45644 0.0
C1575 C -0.01009 0.66387 0.43742 0.0
C1576 C -0.00288 0.62593 0.46636 0.0
C1577 C 0.96437 0.65313 0.42977 0.0
C1578 C 0.95528 0.62886 0.44006 0.0
C1579 C 0.96386 0.58941 0.46632 0.0
C1580 C 0.981 0.57468 0.483 0.0
C1581 C 0.97182 0.6148 0.45778 0.0
C1582 C 0.0058 0.58614 0.49202 0.0
C1583 C 0.01377 0.61163 0.48382 0.0
H1584 H 0.55257 0.80889 0.66345 0.0
H1585 H 0.59415 0.7854 0.59016 0.0
H1586 H 0.63766 0.80064 0.6098 0.0
H1587 H 0.66396 0.81434 0.64985 0.0
H1588 H 0.62237 0.83335 0.72441 0.0
H1589 H 0.57836 0.82688 0.70184 0.0
C1590 C 0.57111 0.80729 0.65163 0.0
C1591 C 0.57035 0.79551 0.62564 0.0
C1592 C 0.59588 0.81541 0.66324 0.0
C1593 C 0.59438 0.79404 0.61038 0.0
C1594 C 0.61918 0.80278 0.62158 0.0
C1595 C 0.64527 0.81786 0.66098 0.0
C1596 C 0.64628 0.8241 0.68879 0.0
C1597 C 0.62022 0.81267 0.64829 0.0
C1598 C 0.62198 0.82839 0.70302 0.0
C1599 C 0.59689 0.82449 0.69019 0.0
H1600 H 0.55486 0.49655 0.69595 0.0
H1601 H 0.62316 0.49557 0.64095 0.0
H1602 H 0.59224 0.48592 0.60318 0.0
H1603 H 0.54601 0.48128 0.58565 0.0
H1604 H 0.47728 0.48479 0.64009 0.0
H1605 H 0.50845 0.48944 0.67852 0.0
C1606 C 0.56301 0.49405 0.67572 0.0
C1607 C 0.5912 0.49703 0.67114 0.0
C1608 C 0.54513 0.48893 0.65413 0.0
C1609 C 0.6015 0.4936 0.6449 0.0
C1610 C 0.58386 0.48805 0.62334 0.0
C1611 C 0.53772 0.48272 0.60591 0.0
C1612 C 0.5093 0.48292 0.60995 0.0
C1613 C 0.55564 0.48617 0.6277 0.0
C1614 C 0.49905 0.4847 0.6364 0.0
C1615 C 0.51685 0.48748 0.65835 0.0
H1616 H 0.72803 0.31139 0.93383 0.0
H1617 H 0.66366 0.3621 0.9062 0.0
H1618 H 0.66111 0.33654 0.86369 0.0
H1619 H 0.6817 0.30434 0.83241 0.0
H1620 H 0.74914 0.25682 0.85877 0.0
H1621 H 0.74592 0.27673 0.90402 0.0
C1622 C 0.71302 0.31659 0.91878 0.0
C1623 C 0.69628 0.33883 0.92301 0.0
C1624 C 0.71256 0.30268 0.89406 0.0
C1625 C 0.67693 0.3452 0.90331 0.0
C1626 C 0.67557 0.3307 0.87898 0.0
C1627 C 0.69545 0.298 0.84815 0.0
C1628 C 0.71587 0.27939 0.8422 0.0
C1629 C 0.69404 0.31011 0.87378 0.0
C1630 C 0.73349 0.27138 0.86279 0.0
C1631 C 0.73163 0.28272 0.88864 0.0
H1632 H 0.90323 0.49081 0.17745 0.0
H1633 H 0.82787 0.47006 0.13646 0.0
H1634 H 0.84958 0.47804 0.09282 0.0
H1635 H 0.89066 0.48863 0.06644 0.0
H1636 H 0.9661 0.50807 0.10794 0.0
H1637 H 0.94343 0.50327 0.15141 0.0
C1638 C 0.89151 0.48804 0.15898 0.0
C1639 C 0.8641 0.47962 0.16011 0.0
C1640 C 0.90407 0.49257 0.13412 0.0
C1641 C 0.8491 0.47636 0.13605 0.0
C1642 C 0.86146 0.48098 0.11113 0.0
C1643 C 0.90201 0.49223 0.08501 0.0
C1644 C 0.93 0.49858 0.08403 0.0
C1645 C 0.88901 0.48885 0.10994 0.0
C1646 C 0.94454 0.50299 0.10821 0.0
C1647 C 0.93164 0.50019 0.13306 0.0
H1648 H 0.7141 0.63359 0.41199 0.0
H1649 H 0.74435 0.69831 0.46292 0.0
H1650 H 0.75596 0.7243 0.42304 0.0
H1651 H 0.75623 0.72901 0.37388 0.0
H1652 H 0.72302 0.66554 0.32297 0.0
H1653 H 0.7135 0.63871 0.36272 0.0
C1654 C 0.72352 0.65326 0.41427 0.0
C1655 C 0.72864 0.66401 0.44019 0.0
C1656 C 0.72926 0.66838 0.39134 0.0
C1657 C 0.74033 0.68969 0.44306 0.0
C1658 C 0.74689 0.70454 0.42032 0.0
C1659 C 0.74693 0.7093 0.37149 0.0
C1660 C 0.74035 0.69926 0.34557 0.0
C1661 C 0.7412 0.69417 0.39439 0.0
C1662 C 0.72809 0.67379 0.34276 0.0
C1663 C 0.72278 0.65838 0.36545 0.0
H1664 H 0.55127 0.55418 0.8154 0.0
H1665 H 0.6333 0.52973 0.83314 0.0
H1666 H 0.62302 0.53077 0.88148 0.0
H1667 H 0.58951 0.53539 0.91834 0.0
H1668 H 0.50678 0.55625 0.8995 0.0
H1669 H 0.51869 0.56047 0.85184 0.0
C1670 C 0.56702 0.54925 0.82979 0.0
C1671 C 0.59295 0.54171 0.82068 0.0
C1672 C 0.56085 0.54944 0.85734 0.0
C1673 C 0.61308 0.53537 0.83964 0.0
C1674 C 0.60725 0.53605 0.86726 0.0
C1675 C 0.57435 0.54145 0.90379 0.0
C1676 C 0.54743 0.54572 0.91216 0.0
C1677 C 0.58108 0.54268 0.8763 0.0
C1678 C 0.52766 0.55299 0.89328 0.0
C1679 C 0.53442 0.55524 0.86611 0.0
H1680 H 0.7427 0.27957 0.03785 0.0
H1681 H 0.77448 0.34242 0.09046 0.0
H1682 H 0.76715 0.3142 0.12958 0.0
H1683 H 0.74878 0.27298 0.14902 0.0
H1684 H 0.71925 0.20914 0.09666 0.0
H1685 H 0.72791 0.23681 0.05702 0.0
C1686 C 0.74848 0.28692 0.05783 0.0
C1687 C 0.75893 0.3131 0.06131 0.0
C1688 C 0.74384 0.27076 0.08022 0.0
C1689 C 0.76651 0.32231 0.08725 0.0
C1690 C 0.76199 0.30632 0.10966 0.0
C1691 C 0.74388 0.26535 0.1289 0.0
C1692 C 0.73261 0.23955 0.12555 0.0
C1693 C 0.74996 0.28086 0.1064 0.0
C1694 C 0.72735 0.22927 0.09951 0.0
C1695 C 0.73254 0.24494 0.07696 0.0
H1696 H 0.90897 0.42993 0.31955 0.0
H1697 H 0.85268 0.49524 0.32487 0.0
H1698 H 0.86376 0.50191 0.37258 0.0
H1699 H 0.88991 0.48984 0.41234 0.0
H1700 H 0.94539 0.42384 0.40783 0.0
H1701 H 0.93389 0.4166 0.36015 0.0
C1702 C 0.8992 0.44566 0.33116 0.0
C1703 C 0.8802 0.4622 0.31869 0.0
C1704 C 0.9054 0.44918 0.35865 0.0
C1705 C 0.86738 0.48225 0.33402 0.0
C1706 C 0.87371 0.48609 0.36128 0.0
C1707 C 0.89949 0.47383 0.40097 0.0
C1708 C 0.91862 0.45753 0.41352 0.0
C1709 C 0.89275 0.46975 0.37373 0.0
C1710 C 0.93057 0.43665 0.39861 0.0
C1711 C 0.92409 0.43257 0.37134 0.0
H1712 H 0.71317 0.6941 0.56762 0.0
H1713 H 0.68709 0.63754 0.62766 0.0
H1714 H 0.70483 0.66713 0.66344 0.0
H1715 H 0.7278 0.70862 0.67757 0.0
H1716 H 0.75128 0.76679 0.61831 0.0
H1717 H 0.73514 0.73648 0.582 0.0
C1718 C 0.71119 0.6883 0.58854 0.0
C1719 C 0.69885 0.6636 0.59495 0.0
C1720 C 0.72148 0.70537 0.609 0.0
C1721 C 0.69633 0.65648 0.62216 0.0
C1722 C 0.7067 0.67327 0.64262 0.0
C1723 C 0.72996 0.71446 0.65666 0.0
C1724 C 0.74129 0.7396 0.65047 0.0
C1725 C 0.71955 0.69757 0.63621 0.0
C1726 C 0.74304 0.74731 0.62341 0.0
C1727 C 0.73359 0.73013 0.60276 0.0
H1728 H 0.5951 0.61959 0.49296 0.0
H1729 H 0.64174 0.54874 0.47641 0.0
H1730 H 0.60002 0.52287 0.46873 0.0
H1731 H 0.55098 0.51863 0.47454 0.0
H1732 H 0.50349 0.58818 0.49334 0.0
H1733 H 0.54467 0.6165 0.4915 0.0
C1734 C 0.59604 0.59864 0.48714 0.0
C1735 C 0.62131 0.58589 0.48596 0.0
C1736 C 0.57184 0.58364 0.48327 0.0
C1737 C 0.62241 0.55882 0.47809 0.0
C1738 C 0.5986 0.544 0.47361 0.0
C1739 C 0.5496 0.5401 0.47754 0.0
C1740 C 0.52458 0.55134 0.48451 0.0
C1741 C 0.57329 0.55593 0.47734 0.0
C1742 C 0.52272 0.57916 0.48796 0.0
C1743 C 0.54627 0.59528 0.48722 0.0
H1744 H 0.1542 0.89892 0.56866 0.0
H1745 H 0.19693 0.96786 0.5375 0.0
H1746 H 0.15487 -0.00695 0.53815 0.0
H1747 H 0.10502 -0.00838 0.53757 0.0
H1748 H 0.06206 0.92174 0.56641 0.0
H1749 H 0.10519 0.90097 0.57711 0.0
C1750 C 0.15441 0.91967 0.56269 0.0
C1751 C 0.1782 0.93123 0.55205 0.0
C1752 C 0.13005 0.93371 0.56224 0.0
C1753 C 0.17857 0.95835 0.54516 0.0
C1754 C 0.15453 0.97273 0.54537 0.0
C1755 C 0.10512 0.97207 0.5467 0.0
C1756 C 0.08059 0.95781 0.55028 0.0
C1757 C 0.12992 0.96 0.55221 0.0
C1758 C 0.08081 0.93289 0.56293 0.0
C1759 C 0.10544 0.92095 0.569 0.0
H1760 H 0.29078 0.90853 0.75472 0.0
H1761 H 0.35555 0.87833 0.80401 0.0
H1762 H 0.32671 0.84056 0.81701 0.0
H1763 H 0.28727 0.81224 0.8073 0.0
H1764 H 0.22481 0.83882 0.75298 0.0
H1765 H 0.24778 0.88236 0.75003 0.0
C1766 C 0.29822 0.89394 0.76878 0.0
C1767 C 0.32527 0.89574 0.77805 0.0
C1768 C 0.28194 0.87161 0.77518 0.0
C1769 C 0.33489 0.87691 0.79627 0.0
C1770 C 0.31842 0.8554 0.80375 0.0
C1771 C 0.27827 0.82774 0.79529 0.0
C1772 C 0.25488 0.82202 0.77971 0.0
C1773 C 0.29247 0.85191 0.79226 0.0
C1774 C 0.24307 0.84256 0.76489 0.0
C1775 C 0.25637 0.86738 0.76293 0.0
H1776 H 0.28851 0.05534 0.06763 0.0
H1777 H 0.29886 0.10857 0.00045 0.0
H1778 H 0.34648 0.09626 -0.00344 0.0
H1779 H 0.38396 0.06826 0.00993 0.0
H1780 H 0.37428 0.01455 0.07663 0.0
H1781 H 0.32744 0.02951 0.08323 0.0
C1782 C 0.30123 0.06438 0.05226 0.0
C1783 C 0.29008 0.08255 0.03413 0.0
C1784 C 0.32857 0.05711 0.04998 0.0
C1785 C 0.30688 0.09435 0.01453 0.0
C1786 C 0.3341 0.08733 0.01225 0.0
C1787 C 0.37164 0.05985 0.02598 0.0
C1788 C 0.38228 0.04007 0.0425 0.0
C1789 C 0.34493 0.06835 0.02949 0.0
C1790 C 0.36638 0.02976 0.06358 0.0
C1791 C 0.33963 0.03821 0.06729 0.0
H1792 H 0.62759 0.63238 0.74419 0.0
H1793 H 0.70579 0.59537 0.73311 0.0
H1794 H 0.72874 0.63858 0.74124 0.0
H1795 H 0.72633 0.68673 0.75015 0.0
H1796 H 0.64796 0.72356 0.76128 0.0
H1797 H 0.62529 0.68009 0.75515 0.0
C1798 C 0.64967 0.63374 0.74333 0.0
C1799 C 0.66498 0.61077 0.73766 0.0
C1800 C 0.66266 0.65843 0.74845 0.0
C1801 C 0.69356 0.61281 0.73722 0.0
C1802 C 0.70667 0.63745 0.74198 0.0
C1803 C 0.7043 0.68529 0.75164 0.0
C1804 C 0.68888 0.70848 0.7561 0.0
C1805 C 0.69138 0.66037 0.74756 0.0
C1806 C 0.66036 0.7061 0.75792 0.0
C1807 C 0.64736 0.68128 0.7542 0.0
H1808 H 0.82525 0.38383 0.96014 0.0
H1809 H 0.78982 0.45766 0.93447 0.0
H1810 H 0.83498 0.47614 0.92546 0.0
H1811 H 0.88396 0.47466 0.93431 0.0
H1812 H 0.91989 0.40172 0.96082 0.0
H1813 H 0.87518 0.37919 0.95931 0.0
C1814 C 0.82742 0.40375 0.95206 0.0
C1815 C 0.80433 0.41966 0.94884 0.0
C1816 C 0.85351 0.41442 0.94713 0.0
C1817 C 0.80732 0.44516 0.93764 0.0
C1818 C 0.83314 0.4558 0.93249 0.0
C1819 C 0.88204 0.45352 0.93865 0.0
C1820 C 0.90474 0.4398 0.94793 0.0
C1821 C 0.85633 0.44111 0.9385 0.0
C1822 C 0.90246 0.41249 0.9535 0.0
C1823 C 0.87689 0.39978 0.95302 0.0
H1824 H 0.29104 0.04172 0.73537 0.0
H1825 H 0.37399 0.07177 0.74092 0.0
H1826 H 0.35845 0.11707 0.73442 0.0
H1827 H 0.32167 0.14818 0.72876 0.0
H1828 H 0.23821 0.11944 0.72528 0.0
H1829 H 0.2537 0.07342 0.72899 0.0
C1830 C 0.30566 0.05821 0.73515 0.0
C1831 C 0.33357 0.05344 0.73876 0.0
C1832 C 0.29658 0.08434 0.73162 0.0
C1833 C 0.35235 0.07494 0.73839 0.0
C1834 C 0.34353 0.10085 0.73457 0.0
C1835 C 0.3068 0.13188 0.72847 0.0
C1836 C 0.27885 0.1372 0.72672 0.0
C1837 C 0.31573 0.10576 0.73132 0.0
C1838 C 0.25988 0.11583 0.72663 0.0
C1839 C 0.2687 0.08956 0.72885 0.0
H1840 H 0.15088 0.93108 0.23277 0.0
H1841 H 0.22972 0.96827 0.24602 0.0
H1842 H 0.25181 0.92518 0.23704 0.0
H1843 H 0.24769 0.87587 0.22927 0.0
H1844 H 0.16798 0.84045 0.21561 0.0
H1845 H 0.14717 0.88415 0.21996 0.0
C1846 C 0.17293 0.92975 0.2338 0.0
C1847 C 0.18869 0.95247 0.24081 0.0
C1848 C 0.18526 0.90534 0.22804 0.0
C1849 C 0.21723 0.9508 0.24113 0.0
C1850 C 0.22979 0.92625 0.23587 0.0
C1851 C 0.22591 0.878 0.22634 0.0
C1852 C 0.2093 0.85511 0.22203 0.0
C1853 C 0.21394 0.90325 0.22966 0.0
C1854 C 0.18107 0.85788 0.21879 0.0
C1855 C 0.16915 0.88278 0.22158 0.0
H1856 H 0.49948 0.32261 0.44061 0.0
H1857 H 0.56207 0.3721 0.40468 0.0
H1858 H 0.55492 0.40659 0.43937 0.0
H1859 H 0.52596 0.42526 0.47493 0.0
H1860 H 0.46007 0.37755 0.5075 0.0
H1861 H 0.47374 0.33951 0.47933 0.0
C1862 C 0.51202 0.34067 0.4407 0.0
C1863 C 0.53103 0.34497 0.41992 0.0
C1864 C 0.50696 0.36082 0.45994 0.0
C1865 C 0.54709 0.36848 0.42031 0.0
C1866 C 0.54295 0.38821 0.44008 0.0
C1867 C 0.51497 0.40635 0.47636 0.0
C1868 C 0.49185 0.40427 0.49302 0.0
C1869 C 0.52218 0.38502 0.45927 0.0
C1870 C 0.47777 0.37969 0.4946 0.0
C1871 C 0.48553 0.35798 0.47845 0.0
H1872 H 0.442 0.76685 0.23813 0.0
H1873 H 0.42446 0.78356 0.15464 0.0
H1874 H 0.37797 0.79503 0.16643 0.0
H1875 H 0.34152 0.79744 0.19956 0.0
H1876 H 0.35791 0.77964 0.28299 0.0
H1877 H 0.40579 0.77235 0.27219 0.0
C1878 C 0.42796 0.77296 0.22252 0.0
C1879 C 0.43664 0.77399 0.1955 0.0
C1880 C 0.40114 0.77966 0.22945 0.0
C1881 C 0.41833 0.78237 0.17556 0.0
C1882 C 0.39172 0.78905 0.1823 0.0
C1883 C 0.35559 0.79243 0.21557 0.0
C1884 C 0.346 0.78883 0.242 0.0
C1885 C 0.38283 0.78747 0.20908 0.0
C1886 C 0.36466 0.78247 0.26244 0.0
C1887 C 0.39203 0.77805 0.25622 0.0
H1888 H 0.927 0.64587 0.89537 0.0
H1889 H 0.97108 0.69088 0.95706 0.0
H1890 H 0.96756 0.65333 -0.01262 0.0
H1891 H 0.96066 0.60512 -0.00751 0.0
H1892 H 0.91682 0.55957 0.93147 0.0
H1893 H 0.91105 0.59997 0.9049 0.0
C1894 C 0.93515 0.64769 0.91571 0.0
C1895 C 0.95001 0.67078 0.92364 0.0
C1896 C 0.93337 0.62582 0.93303 0.0
C1897 C 0.96003 0.6731 0.95023 0.0
C1898 C 0.95812 0.6516 0.96761 0.0
C1899 C 0.94898 0.60437 0.97384 0.0
C1900 C 0.93935 0.57972 0.96366 0.0
C1901 C 0.94616 0.62746 0.95866 0.0
C1902 C 0.92424 0.57858 0.93959 0.0
C1903 C 0.92123 0.60157 0.92432 0.0
H1904 H 0.05819 0.22462 0.68823 0.0
H1905 H 0.08299 0.27793 0.62497 0.0
H1906 H 0.13068 0.2744 0.63911 0.0
H1907 H 0.16483 0.25695 0.67027 0.0
H1908 H 0.13992 0.20157 0.73176 0.0
H1909 H 0.09251 0.20474 0.71714 0.0
C1910 C 0.07403 0.2355 0.67756 0.0
C1911 C 0.06722 0.25179 0.65586 0.0
C1912 C 0.10124 0.23283 0.68535 0.0
C1913 C 0.08789 0.26539 0.64185 0.0
C1914 C 0.11507 0.26336 0.64991 0.0
C1915 C 0.149 0.24549 0.68037 0.0
C1916 C 0.15572 0.22923 0.70218 0.0
C1917 C 0.12191 0.24724 0.67173 0.0
C1918 C 0.13519 0.21416 0.71487 0.0
C1919 C 0.1081 0.21609 0.70664 0.0
H1920 H 0.53967 0.70209 0.08358 0.0
H1921 H 0.50744 0.65849 0.15115 0.0
H1922 H 0.5069 0.61717 0.12383 0.0
H1923 H 0.51323 0.59436 0.08008 0.0
H1924 H 0.54804 0.63697 0.01321 0.0
H1925 H 0.55025 0.67819 0.04102 0.0
C1926 C 0.53267 0.68346 0.09229 0.0
C1927 C 0.52324 0.68317 0.11911 0.0
C1928 C 0.5329 0.65989 0.07665 0.0
C1929 C 0.51471 0.65902 0.13051 0.0
C1930 C 0.51433 0.63551 0.1149 0.0
C1931 C 0.52147 0.61271 0.07175 0.0
C1932 C 0.53017 0.61309 0.04475 0.0
C1933 C 0.52301 0.63586 0.08789 0.0
C1934 C 0.54122 0.63655 0.03401 0.0
C1935 C 0.54236 0.65997 0.04984 0.0
H1936 H 0.04508 0.72775 0.79064 0.0
H1937 H 0.06896 0.66672 0.84605 0.0
H1938 H 0.11428 0.66565 0.8255 0.0
H1939 H 0.14797 0.6852 0.79514 0.0
H1940 H 0.12543 0.74939 0.74288 0.0
H1941 H 0.07839 0.74624 0.75911 0.0
C1942 C 0.06009 0.71401 0.79807 0.0
C1943 C 0.05388 0.69749 0.81996 0.0
C1944 C 0.08628 0.71434 0.78697 0.0
C1945 C 0.07344 0.67972 0.82931 0.0
C1946 C 0.0993 0.67918 0.81764 0.0
C1947 C 0.13271 0.6983 0.78701 0.0
C1948 C 0.1401 0.71757 0.76791 0.0
C1949 C 0.1061 0.69691 0.79698 0.0
C1950 C 0.1202 0.73455 0.75774 0.0
C1951 C 0.09337 0.73272 0.76698 0.0
H1952 H 0.92636 0.32482 0.61632 0.0
H1953 H 0.95881 0.28533 0.54539 0.0
H1954 H 0.94396 0.32195 0.51741 0.0
H1955 H 0.92906 0.36808 0.51462 0.0
H1956 H 0.89852 0.40856 0.5859 0.0
H1957 H 0.90425 0.36819 0.61194 0.0
C1958 C 0.92983 0.32408 0.59468 0.0
C1959 C 0.94429 0.30282 0.58302 0.0
C1960 C 0.92152 0.34533 0.57876 0.0
C1961 C 0.9481 0.30174 0.5549 0.0
C1962 C 0.9396 0.32265 0.53887 0.0
C1963 C 0.92298 0.36792 0.53568 0.0
C1964 C 0.9142 0.39155 0.54847 0.0
C1965 C 0.92733 0.34502 0.55079 0.0
C1966 C 0.90578 0.39078 0.57561 0.0
C1967 C 0.9093 0.36776 0.59062 0.0
H1968 H 0.43299 0.2657 0.31789 0.0
H1969 H 0.44297 0.35041 0.30549 0.0
H1970 H 0.39727 0.35177 0.28549 0.0
H1971 H 0.35494 0.32856 0.27126 0.0
H1972 H 0.3467 0.2433 0.28127 0.0
H1973 H 0.39165 0.24241 0.30247 0.0
C1974 C 0.42507 0.28453 0.31103 0.0
C1975 C 0.44105 0.308 0.31339 0.0
C1976 C 0.39931 0.28497 0.29902 0.0
C1977 C 0.43088 0.33214 0.30391 0.0
C1978 C 0.40484 0.33289 0.2925 0.0
C1979 C 0.36299 0.30981 0.27815 0.0
C1980 C 0.34757 0.28604 0.27488 0.0
C1981 C 0.38895 0.30939 0.2899 0.0
C1982 C 0.3583 0.26181 0.28351 0.0
C1983 C 0.3839 0.26131 0.29571 0.0
H1984 H 0.39018 0.51356 0.3416 0.0
H1985 H 0.45085 0.45297 0.32916 0.0
H1986 H 0.45058 0.44397 0.3777 0.0
H1987 H 0.43666 0.4571 0.42394 0.0
H1988 H 0.37942 0.52078 0.43546 0.0
H1989 H 0.37431 0.52451 0.38657 0.0
C1990 C 0.40333 0.49823 0.34932 0.0
C1991 C 0.42087 0.48424 0.33183 0.0
C1992 C 0.4035 0.49369 0.37701 0.0
C1993 C 0.43738 0.46421 0.34225 0.0
C1994 C 0.43721 0.45907 0.36996 0.0
C1995 C 0.42254 0.47126 0.41562 0.0
C1996 C 0.40825 0.48858 0.43298 0.0
C1997 C 0.4208 0.47416 0.38757 0.0
C1998 C 0.39045 0.50726 0.42227 0.0
C1999 C 0.3877 0.50948 0.39443 0.0
H2000 H 0.25119 0.67826 0.07 0.0
H2001 H 0.28271 0.61476 0.11845 0.0
H2002 H 0.28668 0.64518 0.15716 0.0
H2003 H 0.27611 0.6877 0.1786 0.0
H2004 H 0.24323 0.75152 0.13192 0.0
H2005 H 0.24534 0.72321 0.09085 0.0
C2006 C 0.25938 0.67123 0.0889 0.0
C2007 C 0.26622 0.64415 0.09148 0.0
C2008 C 0.26114 0.68878 0.11135 0.0
C2009 C 0.2769 0.63537 0.11605 0.0
C2010 C 0.27919 0.65274 0.1382 0.0
C2011 C 0.26965 0.69553 0.15935 0.0
C2012 C 0.25903 0.72136 0.1582 0.0
C2013 C 0.27051 0.67914 0.13629 0.0
C2014 C 0.25134 0.73159 0.13318 0.0
C2015 C 0.2524 0.71535 0.10983 0.0
H2016 H 0.08877 0.47489 0.82615 0.0
H2017 H 0.06562 0.55684 0.81536 0.0
H2018 H 0.04718 0.55844 0.86125 0.0
H2019 H 0.03372 0.53508 0.90246 0.0
H2020 H 0.05337 0.45194 0.91115 0.0
H2021 H 0.07732 0.45228 0.86793 0.0
C2022 C 0.08012 0.49327 0.83396 0.0
C2023 C 0.07846 0.5157 0.81741 0.0
C2024 C 0.06871 0.49371 0.85984 0.0
C2025 C 0.06697 0.53928 0.82772 0.0
C2026 C 0.05639 0.54017 0.8539 0.0
C2027 C 0.04359 0.51716 0.89504 0.0
C2028 C 0.04173 0.49348 0.90981 0.0
C2029 C 0.05654 0.51728 0.86984 0.0
C2030 C 0.05437 0.47033 0.89995 0.0
C2031 C 0.06807 0.47052 0.8753 0.0
H2032 H 0.27094 0.31718 0.57005 0.0
H2033 H 0.21011 0.25681 0.55026 0.0
H2034 H 0.22609 0.22947 0.58752 0.0
H2035 H 0.25033 0.22822 0.63117 0.0
H2036 H 0.3086 0.29044 0.65219 0.0
H2037 H 0.30143 0.31138 0.60853 0.0
C2038 C 0.26166 0.29771 0.57354 0.0
C2039 C 0.23903 0.28916 0.55807 0.0
C2040 C 0.27056 0.28256 0.59519 0.0
C2041 C 0.22743 0.26378 0.56219 0.0
C2042 C 0.23647 0.24827 0.58355 0.0
C2043 C 0.26237 0.24562 0.62548 0.0
C2044 C 0.2801 0.25782 0.64443 0.0
C2045 C 0.25707 0.25815 0.60097 0.0
C2046 C 0.29521 0.28065 0.63752 0.0
C2047 C 0.29078 0.29278 0.61278 0.0
H2048 H 0.45863 0.51119 0.197 0.0
H2049 H 0.42456 0.58716 0.1765 0.0
H2050 H 0.43836 0.58061 0.12959 0.0
H2051 H 0.45738 0.5526 0.09447 0.0
H2052 H 0.49127 0.47607 0.11353 0.0
H2053 H 0.4794 0.48321 0.16119 0.0
C2054 C 0.4547 0.52646 0.18233 0.0
C2055 C 0.44067 0.54964 0.19004 0.0
C2056 C 0.46191 0.52216 0.15521 0.0
C2057 C 0.43539 0.5692 0.17089 0.0
C2058 C 0.44304 0.56537 0.1441 0.0
C2059 C 0.46206 0.53725 0.10888 0.0
C2060 C 0.47495 0.51368 0.10038 0.0
C2061 C 0.4557 0.54169 0.13599 0.0
C2062 C 0.4811 0.49428 0.11952 0.0
C2063 C 0.47453 0.49845 0.14676 0.0
H2064 H 0.25615 0.6742 0.94029 0.0
H2065 H 0.20582 0.60739 0.91326 0.0
H2066 H 0.20858 0.62276 0.86687 0.0
H2067 H 0.22604 0.6542 0.83407 0.0
H2068 H 0.27744 0.72071 0.86001 0.0
H2069 H 0.27394 0.70609 0.90682 0.0
C2070 C 0.24552 0.66327 0.92425 0.0
C2071 C 0.23065 0.63983 0.93012 0.0
C2072 C 0.24776 0.67186 0.89747 0.0
C2073 C 0.21733 0.62553 0.90917 0.0
C2074 C 0.219 0.63423 0.88266 0.0
C2075 C 0.2366 0.66555 0.84987 0.0
C2076 C 0.252 0.68852 0.8435 0.0
C2077 C 0.23438 0.65717 0.87658 0.0
C2078 C 0.26556 0.70286 0.86432 0.0
C2079 C 0.26343 0.69461 0.89111 0.0
H2080 H 0.03015 0.47842 0.69391 0.0
H2081 H 0.09739 0.45311 0.64379 0.0
H2082 H 0.0699 0.45913 0.60343 0.0
H2083 H 0.02804 0.47335 0.58245 0.0
H2084 H 0.95954 0.4971 0.63138 0.0
H2085 H -0.01353 0.49002 0.6725 0.0
C2086 C 0.03867 0.47399 0.67415 0.0
C2087 C 0.06583 0.46557 0.67178 0.0
C2088 C 0.02275 0.47754 0.65099 0.0
C2089 C 0.07657 0.45968 0.64613 0.0
C2090 C 0.06094 0.46324 0.62305 0.0
C2091 C 0.01901 0.47725 0.60211 0.0
C2092 C -0.00787 0.48635 0.60403 0.0
C2093 C 0.03426 0.4726 0.62528 0.0
C2094 C 0.98037 0.49042 0.62956 0.0
C2095 C -0.00429 0.48631 0.65295 0.0
H2096 H 0.1924 0.32584 0.4177 0.0
H2097 H 0.22749 0.40479 0.40933 0.0
H2098 H 0.23682 0.39541 0.36148 0.0
H2099 H 0.23636 0.36398 0.32266 0.0
H2100 H 0.19827 0.28618 0.33063 0.0
H2101 H 0.18837 0.29598 0.37808 0.0
C2102 C 0.20211 0.34094 0.40533 0.0
C2103 C 0.20967 0.36576 0.41686 0.0
C2104 C 0.2067 0.33565 0.37788 0.0
C2105 C 0.22165 0.38548 0.40071 0.0
C2106 C 0.22698 0.38012 0.37345 0.0
C2107 C 0.22573 0.34928 0.33479 0.0
C2108 C 0.21823 0.32435 0.32334 0.0
C2109 C 0.21979 0.35518 0.36191 0.0
C2110 C 0.20416 0.30556 0.33905 0.0
C2111 C 0.19863 0.31107 0.36618 0.0
H2112 H 0.26206 0.45597 0.54456 0.0
H2113 H 0.28382 0.37327 0.53285 0.0
H2114 H 0.33048 0.38374 0.54628 0.0
H2115 H 0.36633 0.41714 0.5548 0.0
H2116 H 0.34581 0.49988 0.56631 0.0
H2117 H 0.2973 0.48856 0.56045 0.0
C2118 C 0.27697 0.44024 0.54522 0.0
C2119 C 0.2696 0.41403 0.53707 0.0
C2120 C 0.30394 0.44635 0.55309 0.0
C2121 C 0.28899 0.39371 0.53862 0.0
C2122 C 0.31572 0.39962 0.54636 0.0
C2123 C 0.35109 0.43252 0.55688 0.0
C2124 C 0.35941 0.45924 0.56074 0.0
C2125 C 0.32357 0.42597 0.55277 0.0
C2126 C 0.33971 0.47912 0.56354 0.0
C2127 C 0.31206 0.47269 0.55977 0.0
H2128 H 0.8076 0.00568 0.50703 0.0
H2129 H 0.82283 0.07523 0.45843 0.0
H2130 H 0.8639 0.05541 0.44043 0.0
H2131 H 0.89955 0.02253 0.44489 0.0
H2132 H 0.88664 0.95415 0.49493 0.0
H2133 H 0.84015 0.96848 0.50494 0.0
C2134 C 0.81979 0.01633 0.49232 0.0
C2135 C 0.81255 0.0422 0.48473 0.0
C2136 C 0.84364 0.00483 0.48197 0.0
C2137 C 0.82817 0.0555 0.46511 0.0
C2138 C 0.85165 0.04415 0.45462 0.0
C2139 C 0.88595 0.0101 0.45679 0.0
C2140 C 0.89612 0.98739 0.46908 0.0
C2141 C 0.86007 0.01932 0.46364 0.0
C2142 C 0.87882 0.97151 0.48492 0.0
C2143 C 0.85252 0.98006 0.49114 0.0
H2144 H 0.62823 0.03829 0.17208 0.0
H2145 H 0.68075 -0.00199 0.22786 0.0
H2146 H 0.71661 0.03113 0.22059 0.0
H2147 H 0.72946 0.07576 0.20545 0.0
H2148 H 0.67741 0.11709 0.15064 0.0
H2149 H 0.64523 0.07904 0.14982 0.0
C2150 C 0.6477 0.0365 0.18225 0.0
C2151 C 0.65146 0.01617 0.20111 0.0
C2152 C 0.6683 0.05581 0.17817 0.0
C2153 C 0.67704 0.01375 0.21364 0.0
C2154 C 0.69763 0.03268 0.20952 0.0
C2155 C 0.71159 0.07586 0.19249 0.0
C2156 C 0.70556 0.0989 0.17819 0.0
C2157 C 0.693 0.0544 0.19282 0.0
C2158 C 0.68242 0.09925 0.16156 0.0
C2159 C 0.66388 0.0777 0.16144 0.0
H2160 H 0.66284 0.93889 0.03785 0.0
H2161 H 0.61824 0.86378 0.03359 0.0
H2162 H 0.5764 0.88746 0.02328 0.0
H2163 H 0.55332 0.92892 0.0139 0.0
H2164 H 0.59755 0.00426 0.01844 0.0
H2165 H 0.63933 0.9807 0.02956 0.0
C2166 C 0.64392 0.92767 0.03488 0.0
C2167 C 0.6436 0.89961 0.0363 0.0
C2168 C 0.62021 0.94132 0.02847 0.0
C2169 C 0.61896 0.88538 0.0326 0.0
C2170 C 0.59514 0.89888 0.0265 0.0
C2171 C 0.57213 0.94029 0.01698 0.0
C2172 C 0.57243 0.96833 0.015 0.0
C2173 C 0.59571 0.92675 0.02393 0.0
C2174 C 0.59688 0.98267 0.01959 0.0
C2175 C 0.62066 0.96924 0.02613 0.0
H2176 H 0.36824 0.44368 0.18889 0.0
H2177 H 0.31587 0.48617 0.24441 0.0
H2178 H 0.28082 0.45148 0.23898 0.0
H2179 H 0.26917 0.4054 0.22558 0.0
H2180 H 0.32137 0.36232 0.17069 0.0
H2181 H 0.35219 0.40119 0.16826 0.0
C2182 C 0.34893 0.44561 0.19935 0.0
C2183 C 0.34496 0.46702 0.21762 0.0
C2184 C 0.32896 0.42541 0.19642 0.0
C2185 C 0.3196 0.46967 0.23052 0.0
C2186 C 0.29956 0.44979 0.22753 0.0
C2187 C 0.28691 0.40488 0.21249 0.0
C2188 C 0.29344 0.38112 0.19874 0.0
C2189 C 0.30463 0.427 0.21162 0.0
C2190 C 0.31611 0.38053 0.1815 0.0
C2191 C 0.33383 0.40262 0.18033 0.0
H2192 H 0.1418 0.60037 0.03887 0.0
H2193 H 0.18206 0.52452 0.03238 0.0
H2194 H 0.13848 0.50101 0.03814 0.0
H2195 H 0.08837 0.5022 0.03785 0.0
H2196 H 0.04827 0.57815 0.03986 0.0
H2197 H 0.09228 0.6015 0.04383 0.0
C2198 C 0.14109 0.57871 0.03914 0.0
C2199 C 0.16496 0.56419 0.0347 0.0
C2200 C 0.11594 0.56536 0.04172 0.0
C2201 C 0.16382 0.53613 0.03534 0.0
C2202 C 0.13894 0.52267 0.03867 0.0
C2203 C 0.08936 0.52379 0.04011 0.0
C2204 C 0.06539 0.53856 0.03861 0.0
C2205 C 0.11476 0.53708 0.04091 0.0
C2206 C 0.06667 0.56653 0.04103 0.0
C2207 C 0.09177 0.57984 0.04306 0.0
H2208 H 0.69342 0.91847 0.28401 0.0
H2209 H 0.62628 0.86547 0.30346 0.0
H2210 H 0.65834 0.83191 0.3186 0.0
H2211 H 0.70487 0.81448 0.31621 0.0
H2212 H 0.77102 0.8659 0.29115 0.0
H2213 H 0.74023 0.90374 0.28939 0.0
C2214 C 0.68578 0.89977 0.29204 0.0
C2215 C 0.65763 0.89405 0.29191 0.0
C2216 C 0.70428 0.88039 0.29986 0.0
C2217 C 0.64792 0.87008 0.30296 0.0
C2218 C 0.66624 0.85091 0.31158 0.0
C2219 C 0.71267 0.83434 0.31176 0.0
C2220 C 0.74 0.83771 0.30398 0.0
C2221 C 0.69443 0.85536 0.3088 0.0
C2222 C 0.75004 0.86317 0.29752 0.0
C2223 C 0.73235 0.88461 0.29607 0.0
H2224 H 0.79868 0.06932 0.75872 0.0
H2225 H 0.86091 0.10893 0.80728 0.0
H2226 H 0.83252 0.14838 0.81171 0.0
H2227 H 0.79353 0.17372 0.79586 0.0
H2228 H 0.7329 0.13492 0.74464 0.0
H2229 H 0.7571 0.0929 0.74745 0.0
C2230 C 0.80582 0.08637 0.77075 0.0
C2231 C 0.83203 0.08641 0.78226 0.0
C2232 C 0.78984 0.10924 0.77243 0.0
C2233 C 0.8409 0.10853 0.79798 0.0
C2234 C 0.82474 0.13114 0.80042 0.0
C2235 C 0.7853 0.15597 0.7857 0.0
C2236 C 0.76173 0.15758 0.76965 0.0
C2237 C 0.7997 0.13208 0.78678 0.0
C2238 C 0.75125 0.13433 0.7568 0.0
C2239 C 0.76507 0.11029 0.75837 0.0
loop_
_geom_bond_atom_site_label_1
_geom_bond_atom_site_label_2
_geom_bond_distance
_geom_bond_site_symmetry_2
_ccdc_geom_bond_type
C0 O1 1.306 . S
C0 O3 1.160 . S
O1 C0 1.306 . S
O1 Cd2 2.228 1_655 S
Cd2 O1 2.228 1_455 S
Cd2 O6 2.273 . S
Cd2 O10 2.277 . S
O3 C0 1.160 . S
O3 Cd4 2.203 1_655 S
Cd4 O3 2.203 1_455 S
Cd4 O6 2.411 . S
Cd4 O7 2.333 . S
Cd4 O8 2.352 . S
Cd4 O12 2.277 . S
Cd4 O13 2.356 . S
C5 O10 1.209 . S
C5 O12 1.226 . S
O6 Cd2 2.273 . S
O6 Cd4 2.411 . S
O6 C9 1.320 . S
O7 Cd4 2.333 . S
O7 C9 1.214 . S
O8 Cd4 2.352 . S
O8 C11 1.258 . S
C9 O6 1.320 . S
C9 O7 1.214 . S
O10 Cd2 2.277 . S
O10 C5 1.209 . S
C11 O8 1.258 . S
C11 O13 1.282 . S
O12 Cd4 2.277 . S
O12 C5 1.226 . S
O13 Cd4 2.356 . S
O13 C11 1.282 . S
C14 O15 1.306 . S
C14 O17 1.160 . S
O15 C14 1.306 . S
O15 Cd16 2.228 1_655 S
Cd16 O15 2.228 1_455 S
Cd16 O20 2.273 . S
Cd16 O24 2.277 . S
O17 C14 1.160 . S
O17 Cd18 2.203 1_655 S
Cd18 O17 2.203 1_455 S
Cd18 O20 2.411 . S
Cd18 O21 2.333 . S
Cd18 O22 2.352 . S
Cd18 O26 2.277 . S
Cd18 O27 2.356 . S
C19 O24 1.209 . S
C19 O26 1.226 . S
O20 Cd16 2.273 . S
O20 Cd18 2.411 . S
O20 C23 1.320 . S
O21 Cd18 2.333 . S
O21 C23 1.214 . S
O22 Cd18 2.352 . S
O22 C25 1.258 . S
C23 O20 1.320 . S
C23 O21 1.214 . S
O24 Cd16 2.277 . S
O24 C19 1.209 . S
C25 O22 1.258 . S
C25 O27 1.282 . S
O26 Cd18 2.277 . S
O26 C19 1.226 . S
O27 Cd18 2.356 . S
O27 C25 1.282 . S
C28 O29 1.306 . S
C28 O31 1.160 . S
O29 C28 1.306 . S
O29 Cd30 2.228 . S
Cd30 O29 2.228 . S
Cd30 O34 2.273 . S
Cd30 O38 2.277 . S
O31 C28 1.160 . S
O31 Cd32 2.203 . S
Cd32 O31 2.203 . S
Cd32 O34 2.411 . S
Cd32 O35 2.333 . S
Cd32 O36 2.352 . S
Cd32 O40 2.277 . S
Cd32 O41 2.356 . S
C33 O38 1.209 . S
C33 O40 1.226 . S
O34 Cd30 2.273 . S
O34 Cd32 2.411 . S
O34 C37 1.320 . S
O35 Cd32 2.333 . S
O35 C37 1.214 . S
O36 Cd32 2.352 . S
O36 C39 1.258 . S
C37 O34 1.320 . S
C37 O35 1.214 . S
O38 Cd30 2.277 . S
O38 C33 1.209 . S
C39 O36 1.258 . S
C39 O41 1.282 . S
O40 Cd32 2.277 . S
O40 C33 1.226 . S
O41 Cd32 2.356 . S
O41 C39 1.282 . S
C42 O43 1.306 . S
C42 O45 1.160 . S
O43 C42 1.306 . S
O43 Cd44 2.228 . S
Cd44 O43 2.228 . S
Cd44 O48 2.273 . S
Cd44 O52 2.277 . S
O45 C42 1.160 . S
O45 Cd46 2.203 . S
Cd46 O45 2.203 . S
Cd46 O48 2.411 . S
Cd46 O49 2.333 . S
Cd46 O50 2.352 . S
Cd46 O54 2.277 . S
Cd46 O55 2.356 . S
C47 O52 1.209 . S
C47 O54 1.226 . S
O48 Cd44 2.273 . S
O48 Cd46 2.411 . S
O48 C51 1.320 . S
O49 Cd46 2.333 . S
O49 C51 1.214 . S
O50 Cd46 2.352 . S
O50 C53 1.258 . S
C51 O48 1.320 . S
C51 O49 1.214 . S
O52 Cd44 2.277 . S
O52 C47 1.209 . S
C53 O50 1.258 . S
C53 O55 1.282 . S
O54 Cd46 2.277 . S
O54 C47 1.226 . S
O55 Cd46 2.356 . S
O55 C53 1.282 . S
C56 O57 1.306 . S
C56 O59 1.160 . S
O57 C56 1.306 . S
O57 Cd58 2.228 . S
Cd58 O57 2.228 . S
Cd58 O62 2.273 . S
Cd58 O66 2.277 . S
O59 C56 1.160 . S
O59 Cd60 2.203 . S
Cd60 O59 2.203 . S
Cd60 O62 2.411 . S
Cd60 O63 2.333 . S
Cd60 O64 2.352 1_545 S
Cd60 O68 2.277 . S
Cd60 O69 2.356 1_545 S
C61 O66 1.209 . S
C61 O68 1.226 . S
O62 Cd58 2.273 . S
O62 Cd60 2.411 . S
O62 C65 1.320 . S
O63 Cd60 2.333 . S
O63 C65 1.214 . S
O64 Cd60 2.352 1_565 S
O64 C67 1.258 . S
C65 O62 1.320 . S
C65 O63 1.214 . S
O66 Cd58 2.277 . S
O66 C61 1.209 . S
C67 O64 1.258 . S
C67 O69 1.282 . S
O68 Cd60 2.277 . S
O68 C61 1.226 . S
O69 Cd60 2.356 1_565 S
O69 C67 1.282 . S
C70 O71 1.306 . S
C70 O73 1.160 . S
O71 C70 1.306 . S
O71 Cd72 2.228 . S
Cd72 O71 2.228 . S
Cd72 O76 2.273 . S
Cd72 O80 2.277 . S
O73 C70 1.160 . S
O73 Cd74 2.203 . S
Cd74 O73 2.203 . S
Cd74 O76 2.411 . S
Cd74 O77 2.333 . S
Cd74 O78 2.352 . S
Cd74 O82 2.277 . S
Cd74 O83 2.356 . S
C75 O80 1.209 . S
C75 O82 1.226 . S
O76 Cd72 2.273 . S
O76 Cd74 2.411 . S
O76 C79 1.320 . S
O77 Cd74 2.333 . S
O77 C79 1.214 . S
O78 Cd74 2.352 . S
O78 C81 1.258 . S
C79 O76 1.320 . S
C79 O77 1.214 . S
O80 Cd72 2.277 . S
O80 C75 1.209 . S
C81 O78 1.258 . S
C81 O83 1.282 . S
O82 Cd74 2.277 . S
O82 C75 1.226 . S
O83 Cd74 2.356 . S
O83 C81 1.282 . S
C84 O85 1.306 . S
C84 O87 1.160 1_565 S
O85 C84 1.306 . S
O85 Cd86 2.228 . S
Cd86 O85 2.228 . S
Cd86 O90 2.273 . S
Cd86 O94 2.277 . S
O87 C84 1.160 1_545 S
O87 Cd88 2.203 . S
Cd88 O87 2.203 . S
Cd88 O90 2.411 1_545 S
Cd88 O91 2.333 . S
Cd88 O92 2.352 . S
Cd88 O96 2.277 1_545 S
Cd88 O97 2.356 . S
C89 O94 1.209 . S
C89 O96 1.226 . S
O90 Cd86 2.273 . S
O90 Cd88 2.411 1_565 S
O90 C93 1.317 1_565 S
O91 Cd88 2.333 . S
O91 C93 1.219 . S
O92 Cd88 2.352 . S
O92 C95 1.258 . S
C93 O90 1.317 1_545 S
C93 O91 1.219 . S
O94 Cd86 2.277 . S
O94 C89 1.209 . S
C95 O92 1.258 . S
C95 O97 1.282 . S
O96 Cd88 2.277 1_565 S
O96 C89 1.226 . S
O97 Cd88 2.356 . S
O97 C95 1.282 . S
C98 O99 1.306 . S
C98 O101 1.160 . S
O99 C98 1.306 . S
O99 Cd100 2.228 . S
Cd100 O99 2.228 . S
Cd100 O104 2.273 . S
Cd100 O108 2.277 . S
O101 C98 1.160 . S
O101 Cd102 2.203 . S
Cd102 O101 2.203 . S
Cd102 O104 2.411 . S
Cd102 O105 2.333 . S
Cd102 O106 2.352 1_554 S
Cd102 O110 2.277 . S
Cd102 O111 2.356 1_554 S
C103 O108 1.209 . S
C103 O110 1.226 . S
O104 Cd100 2.273 . S
O104 Cd102 2.411 . S
O104 C107 1.320 . S
O105 Cd102 2.333 . S
O105 C107 1.214 . S
O106 Cd102 2.352 1_556 S
O106 C109 1.258 . S
C107 O104 1.320 . S
C107 O105 1.214 . S
O108 Cd100 2.277 . S
O108 C103 1.209 . S
C109 O106 1.258 . S
C109 O111 1.282 . S
O110 Cd102 2.277 . S
O110 C103 1.226 . S
O111 Cd102 2.356 1_556 S
O111 C109 1.282 . S
C112 O113 1.306 1_554 S
C112 O115 1.160 . S
O113 C112 1.306 1_556 S
O113 Cd114 2.228 . S
Cd114 O113 2.228 . S
Cd114 O118 2.273 1_556 S
Cd114 O122 2.277 . S
O115 C112 1.160 . S
O115 Cd116 2.203 . S
Cd116 O115 2.203 . S
Cd116 O118 2.411 . S
Cd116 O119 2.333 . S
Cd116 O120 2.352 . S
Cd116 O124 2.277 1_554 S
Cd116 O125 2.356 . S
C117 O122 1.209 . S
C117 O124 1.226 . S
O118 Cd114 2.273 1_554 S
O118 Cd116 2.411 . S
O118 C121 1.320 . S
O119 Cd116 2.333 . S
O119 C121 1.214 . S
O120 Cd116 2.352 . S
O120 C123 1.258 . S
C121 O118 1.320 . S
C121 O119 1.214 . S
O122 Cd114 2.277 . S
O122 C117 1.209 . S
C123 O120 1.258 . S
C123 O125 1.282 . S
O124 Cd116 2.277 1_556 S
O124 C117 1.226 . S
O125 Cd116 2.356 . S
O125 C123 1.282 . S
C126 O127 1.306 . S
C126 O129 1.160 . S
O127 C126 1.306 . S
O127 Cd128 2.228 . S
Cd128 O127 2.228 . S
Cd128 O132 2.273 . S
Cd128 O136 2.277 . S
O129 C126 1.160 . S
O129 Cd130 2.203 . S
Cd130 O129 2.203 . S
Cd130 O132 2.411 . S
Cd130 O133 2.333 . S
Cd130 O134 2.352 . S
Cd130 O138 2.277 . S
Cd130 O139 2.356 . S
C131 O136 1.209 . S
C131 O138 1.226 . S
O132 Cd128 2.273 . S
O132 Cd130 2.411 . S
O132 C135 1.320 . S
O133 Cd130 2.333 . S
O133 C135 1.214 . S
O134 Cd130 2.352 . S
O134 C137 1.258 . S
C135 O132 1.320 . S
C135 O133 1.214 . S
O136 Cd128 2.277 . S
O136 C131 1.209 . S
C137 O134 1.258 . S
C137 O139 1.282 . S
O138 Cd130 2.277 . S
O138 C131 1.226 . S
O139 Cd130 2.356 . S
O139 C137 1.282 . S
C140 O141 1.306 . S
C140 O143 1.160 . S
O141 C140 1.306 . S
O141 Cd142 2.228 . S
Cd142 O141 2.228 . S
Cd142 O146 2.273 . S
Cd142 O150 2.277 . S
O143 C140 1.160 . S
O143 Cd144 2.203 . S
Cd144 O143 2.203 . S
Cd144 O146 2.411 . S
Cd144 O147 2.333 . S
Cd144 O148 2.352 . S
Cd144 O152 2.277 . S
Cd144 O153 2.356 . S
C145 O150 1.209 . S
C145 O152 1.226 . S
O146 Cd142 2.273 . S
O146 Cd144 2.411 . S
O146 C149 1.320 . S
O147 Cd144 2.333 . S
O147 C149 1.214 . S
O148 Cd144 2.352 . S
O148 C151 1.258 . S
C149 O146 1.320 . S
C149 O147 1.214 . S
O150 Cd142 2.277 . S
O150 C145 1.209 . S
C151 O148 1.258 . S
C151 O153 1.282 . S
O152 Cd144 2.277 . S
O152 C145 1.226 . S
O153 Cd144 2.356 . S
O153 C151 1.282 . S
C154 O155 1.306 . S
C154 O157 1.160 . S
O155 C154 1.306 . S
O155 Cd156 2.228 . S
Cd156 O155 2.228 . S
Cd156 O160 2.273 . S
Cd156 O164 2.277 . S
O157 C154 1.160 . S
O157 Cd158 2.203 . S
Cd158 O157 2.203 . S
Cd158 O160 2.411 . S
Cd158 O161 2.333 . S
Cd158 O162 2.352 . S
Cd158 O166 2.277 . S
Cd158 O167 2.356 . S
C159 O164 1.209 . S
C159 O166 1.226 . S
O160 Cd156 2.273 . S
O160 Cd158 2.411 . S
O160 C163 1.320 . S
O161 Cd158 2.333 . S
O161 C163 1.214 . S
O162 Cd158 2.352 . S
O162 C165 1.258 . S
C163 O160 1.320 . S
C163 O161 1.214 . S
O164 Cd156 2.277 . S
O164 C159 1.209 . S
C165 O162 1.258 . S
C165 O167 1.282 . S
O166 Cd158 2.277 . S
O166 C159 1.226 . S
O167 Cd158 2.356 . S
O167 C165 1.282 . S
C168 O169 1.306 . S
C168 O171 1.160 . S
O169 C168 1.306 . S
O169 Cd170 2.228 1_655 S
Cd170 O169 2.228 1_455 S
Cd170 O174 2.273 . S
Cd170 O178 2.277 . S
O171 C168 1.160 . S
O171 Cd172 2.203 1_655 S
Cd172 O171 2.203 1_455 S
Cd172 O174 2.411 . S
Cd172 O175 2.333 . S
Cd172 O176 2.352 . S
Cd172 O180 2.277 . S
Cd172 O181 2.356 . S
C173 O178 1.209 . S
C173 O180 1.226 . S
O174 Cd170 2.273 . S
O174 Cd172 2.411 . S
O174 C177 1.320 . S
O175 Cd172 2.333 . S
O175 C177 1.214 . S
O176 Cd172 2.352 . S
O176 C179 1.258 . S
C177 O174 1.320 . S
C177 O175 1.214 . S
O178 Cd170 2.277 . S
O178 C173 1.209 . S
C179 O176 1.258 . S
C179 O181 1.282 . S
O180 Cd172 2.277 . S
O180 C173 1.226 . S
O181 Cd172 2.356 . S
O181 C179 1.282 . S
C182 O183 1.306 . S
C182 O185 1.160 . S
O183 C182 1.306 . S
O183 Cd184 2.228 1_655 S
Cd184 O183 2.228 1_455 S
Cd184 O188 2.273 . S
Cd184 O192 2.277 . S
O185 C182 1.160 . S
O185 Cd186 2.203 1_655 S
Cd186 O185 2.203 1_455 S
Cd186 O188 2.411 . S
Cd186 O189 2.333 . S
Cd186 O190 2.352 . S
Cd186 O194 2.277 . S
Cd186 O195 2.356 . S
C187 O192 1.209 . S
C187 O194 1.226 . S
O188 Cd184 2.273 . S
O188 Cd186 2.411 . S
O188 C191 1.320 . S
O189 Cd186 2.333 . S
O189 C191 1.214 . S
O190 Cd186 2.352 . S
O190 C193 1.258 . S
C191 O188 1.320 . S
C191 O189 1.214 . S
O192 Cd184 2.277 . S
O192 C187 1.209 . S
C193 O190 1.258 . S
C193 O195 1.282 . S
O194 Cd186 2.277 . S
O194 C187 1.226 . S
O195 Cd186 2.356 . S
O195 C193 1.282 . S
C196 O197 1.306 . S
C196 O199 1.160 . S
O197 C196 1.306 . S
O197 Cd198 2.228 . S
Cd198 O197 2.228 . S
Cd198 O202 2.273 . S
Cd198 O206 2.277 . S
O199 C196 1.160 . S
O199 Cd200 2.203 . S
Cd200 O199 2.203 . S
Cd200 O202 2.411 . S
Cd200 O203 2.333 . S
Cd200 O204 2.352 . S
Cd200 O208 2.277 . S
Cd200 O209 2.356 . S
C201 O206 1.209 . S
C201 O208 1.226 . S
O202 Cd198 2.273 . S
O202 Cd200 2.411 . S
O202 C205 1.320 . S
O203 Cd200 2.333 . S
O203 C205 1.214 . S
O204 Cd200 2.352 . S
O204 C207 1.258 . S
C205 O202 1.320 . S
C205 O203 1.214 . S
O206 Cd198 2.277 . S
O206 C201 1.209 . S
C207 O204 1.258 . S
C207 O209 1.282 . S
O208 Cd200 2.277 . S
O208 C201 1.226 . S
O209 Cd200 2.356 . S
O209 C207 1.282 . S
C210 O211 1.306 . S
C210 O213 1.160 . S
O211 C210 1.306 . S
O211 Cd212 2.228 . S
Cd212 O211 2.228 . S
Cd212 O216 2.273 . S
Cd212 O220 2.277 . S
O213 C210 1.160 . S
O213 Cd214 2.203 . S
Cd214 O213 2.203 . S
Cd214 O216 2.411 . S
Cd214 O217 2.333 . S
Cd214 O218 2.352 . S
Cd214 O222 2.277 . S
Cd214 O223 2.356 . S
C215 O220 1.209 . S
C215 O222 1.226 . S
O216 Cd212 2.273 . S
O216 Cd214 2.411 . S
O216 C219 1.320 . S
O217 Cd214 2.333 . S
O217 C219 1.214 . S
O218 Cd214 2.352 . S
O218 C221 1.258 . S
C219 O216 1.320 . S
C219 O217 1.214 . S
O220 Cd212 2.277 . S
O220 C215 1.209 . S
C221 O218 1.258 . S
C221 O223 1.282 . S
O222 Cd214 2.277 . S
O222 C215 1.226 . S
O223 Cd214 2.356 . S
O223 C221 1.282 . S
C224 O225 1.306 . S
C224 O227 1.160 . S
O225 C224 1.306 . S
O225 Cd226 2.228 1_545 S
Cd226 O225 2.228 1_565 S
Cd226 O230 2.273 1_565 S
Cd226 O234 2.277 . S
O227 C224 1.160 . S
O227 Cd228 2.203 . S
Cd228 O227 2.203 . S
Cd228 O230 2.411 . S
Cd228 O231 2.333 . S
Cd228 O232 2.352 . S
Cd228 O236 2.277 1_545 S
Cd228 O237 2.356 . S
C229 O234 1.209 . S
C229 O236 1.226 . S
O230 Cd226 2.273 1_545 S
O230 Cd228 2.411 . S
O230 C233 1.320 . S
O231 Cd228 2.333 . S
O231 C233 1.214 . S
O232 Cd228 2.352 . S
O232 C235 1.258 . S
C233 O230 1.320 . S
C233 O231 1.214 . S
O234 Cd226 2.277 . S
O234 C229 1.209 . S
C235 O232 1.258 . S
C235 O237 1.282 . S
O236 Cd228 2.277 1_565 S
O236 C229 1.226 . S
O237 Cd228 2.356 . S
O237 C235 1.282 . S
C238 O239 1.306 . S
C238 O241 1.160 . S
O239 C238 1.306 . S
O239 Cd240 2.228 . S
Cd240 O239 2.228 . S
Cd240 O244 2.273 . S
Cd240 O248 2.277 . S
O241 C238 1.160 . S
O241 Cd242 2.203 . S
Cd242 O241 2.203 . S
Cd242 O244 2.411 . S
Cd242 O245 2.333 . S
Cd242 O246 2.352 . S
Cd242 O250 2.277 . S
Cd242 O251 2.356 . S
C243 O248 1.209 . S
C243 O250 1.226 . S
O244 Cd240 2.273 . S
O244 Cd242 2.411 . S
O244 C247 1.320 . S
O245 Cd242 2.333 . S
O245 C247 1.214 . S
O246 Cd242 2.352 . S
O246 C249 1.258 . S
C247 O244 1.320 . S
C247 O245 1.214 . S
O248 Cd240 2.277 . S
O248 C243 1.209 . S
C249 O246 1.258 . S
C249 O251 1.282 . S
O250 Cd242 2.277 . S
O250 C243 1.226 . S
O251 Cd242 2.356 . S
O251 C249 1.282 . S
C252 O253 1.306 . S
C252 O255 1.160 1_545 S
O253 C252 1.306 . S
O253 Cd254 2.228 . S
Cd254 O253 2.228 . S
Cd254 O258 2.273 . S
Cd254 O262 2.277 . S
O255 C252 1.160 1_565 S
O255 Cd256 2.203 . S
Cd256 O255 2.203 . S
Cd256 O258 2.411 1_565 S
Cd256 O259 2.333 . S
Cd256 O260 2.352 . S
Cd256 O264 2.277 1_565 S
Cd256 O265 2.356 . S
C257 O262 1.209 . S
C257 O264 1.226 . S
O258 Cd254 2.273 . S
O258 Cd256 2.411 1_545 S
O258 C261 1.320 1_545 S
O259 Cd256 2.333 . S
O259 C261 1.214 . S
O260 Cd256 2.352 . S
O260 C263 1.258 . S
C261 O258 1.320 1_565 S
C261 O259 1.214 . S
O262 Cd254 2.277 . S
O262 C257 1.209 . S
C263 O260 1.258 . S
C263 O265 1.282 . S
O264 Cd256 2.277 1_545 S
O264 C257 1.226 . S
O265 Cd256 2.356 . S
O265 C263 1.282 . S
C266 O267 1.306 1_554 S
C266 O269 1.160 . S
O267 C266 1.306 1_556 S
O267 Cd268 2.228 . S
Cd268 O267 2.228 . S
Cd268 O272 2.273 1_556 S
Cd268 O276 2.277 . S
O269 C266 1.160 . S
O269 Cd270 2.203 . S
Cd270 O269 2.203 . S
Cd270 O272 2.411 . S
Cd270 O273 2.333 . S
Cd270 O274 2.352 . S
Cd270 O278 2.277 1_554 S
Cd270 O279 2.356 . S
C271 O276 1.209 . S
C271 O278 1.226 . S
O272 Cd268 2.273 1_554 S
O272 Cd270 2.411 . S
O272 C275 1.320 . S
O273 Cd270 2.333 . S
O273 C275 1.214 . S
O274 Cd270 2.352 . S
O274 C277 1.258 . S
C275 O272 1.320 . S
C275 O273 1.214 . S
O276 Cd268 2.277 . S
O276 C271 1.209 . S
C277 O274 1.258 . S
C277 O279 1.282 . S
O278 Cd270 2.277 1_556 S
O278 C271 1.226 . S
O279 Cd270 2.356 . S
O279 C277 1.282 . S
C280 O281 1.306 . S
C280 O283 1.154 1_554 S
O281 C280 1.306 . S
O281 Cd282 2.228 . S
Cd282 O281 2.228 . S
Cd282 O286 2.273 . S
Cd282 O290 2.277 . S
O283 C280 1.154 1_556 S
O283 Cd284 2.204 . S
Cd284 O283 2.204 . S
Cd284 O286 2.411 1_556 S
Cd284 O287 2.333 . S
Cd284 O288 2.352 . S
Cd284 O292 2.277 1_556 S
Cd284 O293 2.356 . S
C285 O290 1.209 . S
C285 O292 1.226 . S
O286 Cd282 2.273 . S
O286 Cd284 2.411 1_554 S
O286 C289 1.320 . S
O287 Cd284 2.333 . S
O287 C289 1.214 1_556 S
O288 Cd284 2.352 . S
O288 C291 1.258 . S
C289 O286 1.320 . S
C289 O287 1.214 1_554 S
O290 Cd282 2.277 . S
O290 C285 1.209 . S
C291 O288 1.258 . S
C291 O293 1.282 . S
O292 Cd284 2.277 1_554 S
O292 C285 1.226 . S
O293 Cd284 2.356 . S
O293 C291 1.282 . S
C294 O295 1.306 . S
C294 O297 1.160 . S
O295 C294 1.306 . S
O295 Cd296 2.228 . S
Cd296 O295 2.228 . S
Cd296 O300 2.273 . S
Cd296 O304 2.277 . S
O297 C294 1.160 . S
O297 Cd298 2.203 . S
Cd298 O297 2.203 . S
Cd298 O300 2.411 . S
Cd298 O301 2.333 . S
Cd298 O302 2.352 . S
Cd298 O306 2.277 . S
Cd298 O307 2.356 . S
C299 O304 1.209 . S
C299 O306 1.226 . S
O300 Cd296 2.273 . S
O300 Cd298 2.411 . S
O300 C303 1.320 . S
O301 Cd298 2.333 . S
O301 C303 1.214 . S
O302 Cd298 2.352 . S
O302 C305 1.258 . S
C303 O300 1.320 . S
C303 O301 1.214 . S
O304 Cd296 2.277 . S
O304 C299 1.209 . S
C305 O302 1.258 . S
C305 O307 1.282 . S
O306 Cd298 2.277 . S
O306 C299 1.226 . S
O307 Cd298 2.356 . S
O307 C305 1.282 . S
C308 O309 1.306 . S
C308 O311 1.160 . S
O309 C308 1.306 . S
O309 Cd310 2.228 . S
Cd310 O309 2.228 . S
Cd310 O314 2.273 . S
Cd310 O318 2.277 . S
O311 C308 1.160 . S
O311 Cd312 2.203 . S
Cd312 O311 2.203 . S
Cd312 O314 2.411 . S
Cd312 O315 2.333 . S
Cd312 O316 2.352 . S
Cd312 O320 2.277 . S
Cd312 O321 2.356 . S
C313 O318 1.209 . S
C313 O320 1.226 . S
O314 Cd310 2.273 . S
O314 Cd312 2.411 . S
O314 C317 1.320 . S
O315 Cd312 2.333 . S
O315 C317 1.214 . S
O316 Cd312 2.352 . S
O316 C319 1.258 . S
C317 O314 1.320 . S
C317 O315 1.214 . S
O318 Cd310 2.277 . S
O318 C313 1.209 . S
C319 O316 1.258 . S
C319 O321 1.282 . S
O320 Cd312 2.277 . S
O320 C313 1.226 . S
O321 Cd312 2.356 . S
O321 C319 1.282 . S
C322 O323 1.306 . S
C322 O325 1.160 . S
O323 C322 1.306 . S
O323 Cd324 2.228 . S
Cd324 O323 2.228 . S
Cd324 O328 2.273 . S
Cd324 O332 2.277 . S
O325 C322 1.160 . S
O325 Cd326 2.203 . S
Cd326 O325 2.203 . S
Cd326 O328 2.411 . S
Cd326 O329 2.333 . S
Cd326 O330 2.352 . S
Cd326 O334 2.277 . S
Cd326 O335 2.356 . S
C327 O332 1.209 . S
C327 O334 1.226 . S
O328 Cd324 2.273 . S
O328 Cd326 2.411 . S
O328 C331 1.320 . S
O329 Cd326 2.333 . S
O329 C331 1.214 . S
O330 Cd326 2.352 . S
O330 C333 1.258 . S
C331 O328 1.320 . S
C331 O329 1.214 . S
O332 Cd324 2.277 . S
O332 C327 1.209 . S
C333 O330 1.258 . S
C333 O335 1.282 . S
O334 Cd326 2.277 . S
O334 C327 1.226 . S
O335 Cd326 2.356 . S
O335 C333 1.282 . S
O336 Zn337 1.953 . S
O336 C352 1.225 1_455 S
Zn337 O336 1.953 . S
Zn337 O338 1.960 . S
Zn337 O344 1.919 1_554 S
Zn337 O349 1.924 1_454 S
O338 Zn337 1.960 . S
O338 Zn339 1.950 1_545 S
O338 Zn340 1.929 1_455 S
O338 Zn341 1.928 1_444 S
Zn339 O338 1.950 1_565 S
Zn339 O342 1.933 . S
Zn339 O345 1.941 1_565 S
Zn339 O346 1.965 . S
Zn340 O338 1.929 1_655 S
Zn340 O347 1.938 . S
Zn340 O348 1.906 1_545 S
Zn340 O358 1.953 . S
Zn341 O338 1.928 1_666 S
Zn341 O343 1.932 . S
Zn341 O350 1.977 1_556 S
Zn341 O351 1.910 1_565 S
O342 Zn339 1.933 . S
O342 C353 1.226 1_554 S
O343 Zn341 1.932 . S
O343 C353 1.307 1_655 S
O344 Zn337 1.919 1_556 S
O344 C355 1.253 1_556 S
O345 Zn339 1.941 1_545 S
O345 C355 1.283 . S
O346 Zn339 1.965 . S
O346 C354 1.295 1_565 S
O347 Zn340 1.938 . S
O347 C354 1.252 1_655 S
O348 Zn340 1.906 1_565 S
O348 C356 1.304 . S
O349 Zn337 1.924 1_656 S
O349 C357 1.311 . S
O350 Zn341 1.977 1_554 S
O350 C356 1.272 . S
O351 Zn341 1.910 1_545 S
O351 C357 1.231 . S
C352 O336 1.225 1_655 S
C352 O358 1.298 . S
C353 O342 1.226 1_556 S
C353 O343 1.307 1_455 S
C354 O346 1.295 1_545 S
C354 O347 1.252 1_455 S
C355 O344 1.253 1_554 S
C355 O345 1.283 . S
C356 O348 1.304 . S
C356 O350 1.272 . S
C357 O349 1.311 . S
C357 O351 1.231 . S
O358 Zn340 1.953 . S
O358 C352 1.298 . S
O359 Zn360 1.953 . S
O359 C375 1.225 . S
Zn360 O359 1.953 . S
Zn360 O361 1.949 . S
Zn360 O367 1.919 . S
Zn360 O372 1.924 . S
O361 Zn360 1.949 . S
O361 Zn362 1.923 . S
O361 Zn363 1.950 . S
O361 Zn364 1.945 . S
Zn362 O361 1.923 . S
Zn362 O365 1.933 . S
Zn362 O368 1.941 . S
Zn362 O369 1.965 . S
Zn363 O361 1.950 . S
Zn363 O370 1.938 . S
Zn363 O371 1.906 . S
Zn363 O381 1.953 . S
Zn364 O361 1.945 . S
Zn364 O366 1.932 . S
Zn364 O373 1.977 . S
Zn364 O374 1.910 . S
O365 Zn362 1.933 . S
O365 C376 1.226 . S
O366 Zn364 1.932 . S
O366 C376 1.307 . S
O367 Zn360 1.919 . S
O367 C378 1.253 . S
O368 Zn362 1.941 . S
O368 C378 1.283 . S
O369 Zn362 1.965 . S
O369 C377 1.303 . S
O370 Zn363 1.938 . S
O370 C377 1.247 . S
O371 Zn363 1.906 . S
O371 C379 1.304 . S
O372 Zn360 1.924 . S
O372 C380 1.311 . S
O373 Zn364 1.977 . S
O373 C379 1.272 . S
O374 Zn364 1.910 . S
O374 C380 1.231 . S
C375 O359 1.225 . S
C375 O381 1.298 . S
C376 O365 1.226 . S
C376 O366 1.307 . S
C377 O369 1.303 . S
C377 O370 1.247 . S
C378 O367 1.253 . S
C378 O368 1.283 . S
C379 O371 1.304 . S
C379 O373 1.272 . S
C380 O372 1.311 . S
C380 O374 1.231 . S
O381 Zn363 1.953 . S
O381 C375 1.298 . S
O382 Zn383 1.953 . S
O382 C398 1.225 . S
Zn383 O382 1.953 . S
Zn383 O384 1.949 1_565 S
Zn383 O390 1.919 . S
Zn383 O395 1.924 . S
O384 Zn383 1.949 1_545 S
O384 Zn385 1.923 . S
O384 Zn386 1.950 . S
O384 Zn387 1.945 . S
Zn385 O384 1.923 . S
Zn385 O388 1.933 . S
Zn385 O391 1.941 . S
Zn385 O392 1.965 . S
Zn386 O384 1.950 . S
Zn386 O393 1.938 . S
Zn386 O394 1.906 . S
Zn386 O404 1.953 1_545 S
Zn387 O384 1.945 . S
Zn387 O389 1.932 . S
Zn387 O396 1.977 . S
Zn387 O397 1.910 . S
O388 Zn385 1.933 . S
O388 C399 1.226 . S
O389 Zn387 1.932 . S
O389 C399 1.307 . S
O390 Zn383 1.919 . S
O390 C401 1.253 . S
O391 Zn385 1.941 . S
O391 C401 1.283 1_545 S
O392 Zn385 1.965 . S
O392 C400 1.303 . S
O393 Zn386 1.938 . S
O393 C400 1.247 . S
O394 Zn386 1.906 . S
O394 C402 1.304 . S
O395 Zn383 1.924 . S
O395 C403 1.311 . S
O396 Zn387 1.977 . S
O396 C402 1.272 . S
O397 Zn387 1.910 . S
O397 C403 1.231 1_545 S
C398 O382 1.225 . S
C398 O404 1.298 . S
C399 O388 1.226 . S
C399 O389 1.307 . S
C400 O392 1.303 . S
C400 O393 1.247 . S
C401 O390 1.253 . S
C401 O391 1.283 1_565 S
C402 O394 1.304 . S
C402 O396 1.272 . S
C403 O395 1.311 . S
C403 O397 1.231 1_565 S
O404 Zn386 1.953 1_565 S
O404 C398 1.298 . S
O405 Zn406 1.953 . S
O405 C421 1.225 . S
Zn406 O405 1.953 . S
Zn406 O407 1.949 . S
Zn406 O413 1.919 . S
Zn406 O418 1.924 . S
O407 Zn406 1.949 . S
O407 Zn408 1.923 . S
O407 Zn409 1.950 . S
O407 Zn410 1.945 . S
Zn408 O407 1.923 . S
Zn408 O411 1.933 . S
Zn408 O414 1.941 . S
Zn408 O415 1.965 . S
Zn409 O407 1.950 . S
Zn409 O416 1.938 . S
Zn409 O417 1.906 . S
Zn409 O427 1.953 . S
Zn410 O407 1.945 . S
Zn410 O412 1.932 . S
Zn410 O419 1.977 . S
Zn410 O420 1.910 . S
O411 Zn408 1.933 . S
O411 C422 1.226 . S
O412 Zn410 1.932 . S
O412 C422 1.307 . S
O413 Zn406 1.919 . S
O413 C424 1.253 . S
O414 Zn408 1.941 . S
O414 C424 1.283 . S
O415 Zn408 1.965 . S
O415 C423 1.303 . S
O416 Zn409 1.938 . S
O416 C423 1.247 . S
O417 Zn409 1.906 . S
O417 C425 1.304 . S
O418 Zn406 1.924 . S
O418 C426 1.311 . S
O419 Zn410 1.977 . S
O419 C425 1.272 . S
O420 Zn410 1.910 . S
O420 C426 1.231 . S
C421 O405 1.225 . S
C421 O427 1.298 . S
C422 O411 1.226 . S
C422 O412 1.307 . S
C423 O415 1.303 . S
C423 O416 1.247 . S
C424 O413 1.253 . S
C424 O414 1.283 . S
C425 O417 1.304 . S
C425 O419 1.272 . S
C426 O418 1.311 . S
C426 O420 1.231 . S
O427 Zn409 1.953 . S
O427 C421 1.298 . S
O428 Zn429 1.943 1_445 S
O428 C444 1.225 . S
Zn429 O428 1.943 1_665 S
Zn429 O430 1.936 1_665 S
Zn429 O436 1.957 . S
Zn429 O441 1.906 1_565 S
O430 Zn429 1.936 1_445 S
O430 Zn431 1.923 1_545 S
O430 Zn432 1.950 . S
O430 Zn433 1.945 1_455 S
Zn431 O430 1.923 1_565 S
Zn431 O434 1.933 . S
Zn431 O437 1.941 . S
Zn431 O438 1.965 . S
Zn432 O430 1.950 . S
Zn432 O439 1.938 . S
Zn432 O440 1.906 . S
Zn432 O450 1.953 . S
Zn433 O430 1.945 1_655 S
Zn433 O435 1.932 . S
Zn433 O442 1.977 . S
Zn433 O443 1.910 . S
O434 Zn431 1.933 . S
O434 C445 1.226 1_455 S
O435 Zn433 1.932 . S
O435 C445 1.307 1_545 S
O436 Zn429 1.957 . S
O436 C447 1.253 . S
O437 Zn431 1.941 . S
O437 C447 1.283 1_455 S
O438 Zn431 1.965 . S
O438 C446 1.303 . S
O439 Zn432 1.938 . S
O439 C446 1.247 1_545 S
O440 Zn432 1.906 . S
O440 C448 1.304 . S
O441 Zn429 1.906 1_545 S
O441 C449 1.311 . S
O442 Zn433 1.977 . S
O442 C448 1.272 1_655 S
O443 Zn433 1.910 . S
O443 C449 1.231 . S
C444 O428 1.225 . S
C444 O450 1.298 . S
C445 O434 1.226 1_655 S
C445 O435 1.307 1_565 S
C446 O438 1.303 . S
C446 O439 1.247 1_565 S
C447 O436 1.253 . S
C447 O437 1.283 1_655 S
C448 O440 1.304 . S
C448 O442 1.272 1_455 S
C449 O441 1.311 . S
C449 O443 1.231 . S
O450 Zn432 1.953 . S
O450 C444 1.298 . S
O451 Zn452 1.953 . S
O451 C467 1.225 . S
Zn452 O451 1.953 . S
Zn452 O453 1.949 . S
Zn452 O459 1.919 . S
Zn452 O464 1.924 . S
O453 Zn452 1.949 . S
O453 Zn454 1.923 . S
O453 Zn455 1.950 . S
O453 Zn456 1.945 . S
Zn454 O453 1.923 . S
Zn454 O457 1.933 . S
Zn454 O460 1.941 . S
Zn454 O461 1.965 . S
Zn455 O453 1.950 . S
Zn455 O462 1.938 . S
Zn455 O463 1.906 . S
Zn455 O473 1.953 . S
Zn456 O453 1.945 . S
Zn456 O458 1.932 . S
Zn456 O465 1.977 . S
Zn456 O466 1.910 . S
O457 Zn454 1.933 . S
O457 C468 1.226 . S
O458 Zn456 1.932 . S
O458 C468 1.307 . S
O459 Zn452 1.919 . S
O459 C470 1.253 . S
O460 Zn454 1.941 . S
O460 C470 1.283 . S
O461 Zn454 1.965 . S
O461 C469 1.303 . S
O462 Zn455 1.938 . S
O462 C469 1.247 . S
O463 Zn455 1.906 . S
O463 C471 1.304 . S
O464 Zn452 1.924 . S
O464 C472 1.311 . S
O465 Zn456 1.977 . S
O465 C471 1.272 . S
O466 Zn456 1.910 . S
O466 C472 1.231 . S
C467 O451 1.225 . S
C467 O473 1.298 . S
C468 O457 1.226 . S
C468 O458 1.307 . S
C469 O461 1.303 . S
C469 O462 1.247 . S
C470 O459 1.253 . S
C470 O460 1.283 . S
C471 O463 1.304 . S
C471 O465 1.272 . S
C472 O464 1.311 . S
C472 O466 1.231 . S
O473 Zn455 1.953 . S
O473 C467 1.298 . S
O474 Zn475 1.953 . S
O474 C490 1.225 . S
Zn475 O474 1.953 . S
Zn475 O476 1.949 . S
Zn475 O482 1.919 1_545 S
Zn475 O487 1.924 . S
O476 Zn475 1.949 . S
O476 Zn477 1.923 1_544 S
O476 Zn478 1.950 . S
O476 Zn479 1.945 1_554 S
Zn477 O476 1.923 1_566 S
Zn477 O480 1.933 . S
Zn477 O483 1.941 . S
Zn477 O484 1.965 1_556 S
Zn478 O476 1.950 . S
Zn478 O485 1.938 1_545 S
Zn478 O486 1.906 . S
Zn478 O496 1.953 . S
Zn479 O476 1.945 1_556 S
Zn479 O481 1.932 . S
Zn479 O488 1.977 1_556 S
Zn479 O489 1.910 . S
O480 Zn477 1.933 . S
O480 C491 1.226 . S
O481 Zn479 1.932 . S
O481 C491 1.307 1_545 S
O482 Zn475 1.919 1_565 S
O482 C493 1.253 1_554 S
O483 Zn477 1.941 . S
O483 C493 1.283 . S
O484 Zn477 1.965 1_554 S
O484 C492 1.303 . S
O485 Zn478 1.938 1_565 S
O485 C492 1.247 . S
O486 Zn478 1.906 . S
O486 C494 1.304 . S
O487 Zn475 1.924 . S
O487 C495 1.318 . S
O488 Zn479 1.977 1_554 S
O488 C494 1.272 . S
O489 Zn479 1.910 . S
O489 C495 1.223 1_556 S
C490 O474 1.225 . S
C490 O496 1.298 . S
C491 O480 1.226 . S
C491 O481 1.307 1_565 S
C492 O484 1.303 . S
C492 O485 1.247 . S
C493 O482 1.253 1_556 S
C493 O483 1.283 . S
C494 O486 1.304 . S
C494 O488 1.272 . S
C495 O487 1.318 . S
C495 O489 1.223 1_554 S
O496 Zn478 1.953 . S
O496 C490 1.298 . S
O497 Zn498 1.953 . S
O497 C513 1.225 . S
Zn498 O497 1.953 . S
Zn498 O499 1.949 . S
Zn498 O505 1.919 . S
Zn498 O510 1.924 . S
O499 Zn498 1.949 . S
O499 Zn500 1.923 . S
O499 Zn501 1.950 . S
O499 Zn502 1.945 . S
Zn500 O499 1.923 . S
Zn500 O503 1.933 . S
Zn500 O506 1.941 . S
Zn500 O507 1.965 . S
Zn501 O499 1.950 . S
Zn501 O508 1.938 . S
Zn501 O509 1.906 . S
Zn501 O519 1.953 . S
Zn502 O499 1.945 . S
Zn502 O504 1.932 . S
Zn502 O511 1.977 . S
Zn502 O512 1.910 . S
O503 Zn500 1.933 . S
O503 C514 1.226 . S
O504 Zn502 1.932 . S
O504 C514 1.307 . S
O505 Zn498 1.919 . S
O505 C516 1.253 . S
O506 Zn500 1.941 . S
O506 C516 1.283 . S
O507 Zn500 1.965 . S
O507 C515 1.303 . S
O508 Zn501 1.938 . S
O508 C515 1.247 . S
O509 Zn501 1.906 . S
O509 C517 1.304 . S
O510 Zn498 1.924 . S
O510 C518 1.311 . S
O511 Zn502 1.977 . S
O511 C517 1.272 . S
O512 Zn502 1.910 . S
O512 C518 1.231 . S
C513 O497 1.225 . S
C513 O519 1.298 . S
C514 O503 1.226 . S
C514 O504 1.307 . S
C515 O507 1.303 . S
C515 O508 1.247 . S
C516 O505 1.253 . S
C516 O506 1.283 . S
C517 O509 1.304 . S
C517 O511 1.272 . S
C518 O510 1.311 . S
C518 O512 1.231 . S
O519 Zn501 1.953 . S
O519 C513 1.298 . S
O520 Zn521 1.953 . S
O520 C536 1.225 . S
Zn521 O520 1.953 . S
Zn521 O522 1.949 1_556 S
Zn521 O528 1.919 . S
Zn521 O533 1.924 . S
O522 Zn521 1.949 1_554 S
O522 Zn523 1.923 . S
O522 Zn524 1.950 . S
O522 Zn525 1.945 . S
Zn523 O522 1.923 . S
Zn523 O526 1.933 . S
Zn523 O529 1.941 . S
Zn523 O530 1.965 . S
Zn524 O522 1.950 . S
Zn524 O531 1.938 . S
Zn524 O532 1.906 . S
Zn524 O542 1.953 1_554 S
Zn525 O522 1.945 . S
Zn525 O527 1.932 . S
Zn525 O534 1.977 . S
Zn525 O535 1.910 . S
O526 Zn523 1.933 . S
O526 C537 1.226 . S
O527 Zn525 1.932 . S
O527 C537 1.307 . S
O528 Zn521 1.919 . S
O528 C539 1.252 1_556 S
O529 Zn523 1.941 . S
O529 C539 1.284 . S
O530 Zn523 1.965 . S
O530 C538 1.303 . S
O531 Zn524 1.938 . S
O531 C538 1.247 . S
O532 Zn524 1.906 . S
O532 C540 1.304 . S
O533 Zn521 1.924 . S
O533 C541 1.311 . S
O534 Zn525 1.977 . S
O534 C540 1.272 . S
O535 Zn525 1.910 . S
O535 C541 1.231 1_554 S
C536 O520 1.225 . S
C536 O542 1.298 . S
C537 O526 1.226 . S
C537 O527 1.307 . S
C538 O530 1.303 . S
C538 O531 1.247 . S
C539 O528 1.252 1_554 S
C539 O529 1.284 . S
C540 O532 1.304 . S
C540 O534 1.272 . S
C541 O533 1.311 . S
C541 O535 1.231 1_556 S
O542 Zn524 1.953 1_556 S
O542 C536 1.298 . S
O543 Zn544 1.953 . S
O543 C559 1.225 . S
Zn544 O543 1.953 . S
Zn544 O545 1.949 . S
Zn544 O551 1.919 . S
Zn544 O556 1.924 . S
O545 Zn544 1.949 . S
O545 Zn546 1.923 . S
O545 Zn547 1.950 . S
O545 Zn548 1.945 . S
Zn546 O545 1.923 . S
Zn546 O549 1.933 . S
Zn546 O552 1.941 . S
Zn546 O553 1.965 . S
Zn547 O545 1.950 . S
Zn547 O554 1.938 . S
Zn547 O555 1.906 . S
Zn547 O565 1.953 . S
Zn548 O545 1.945 . S
Zn548 O550 1.932 . S
Zn548 O557 1.977 . S
Zn548 O558 1.910 . S
O549 Zn546 1.933 . S
O549 C560 1.226 . S
O550 Zn548 1.932 . S
O550 C560 1.307 . S
O551 Zn544 1.919 . S
O551 C562 1.253 . S
O552 Zn546 1.941 . S
O552 C562 1.283 . S
O553 Zn546 1.965 . S
O553 C561 1.303 . S
O554 Zn547 1.938 . S
O554 C561 1.247 . S
O555 Zn547 1.906 . S
O555 C563 1.304 . S
O556 Zn544 1.924 . S
O556 C564 1.311 . S
O557 Zn548 1.977 . S
O557 C563 1.272 . S
O558 Zn548 1.910 . S
O558 C564 1.231 . S
C559 O543 1.225 . S
C559 O565 1.298 . S
C560 O549 1.226 . S
C560 O550 1.307 . S
C561 O553 1.303 . S
C561 O554 1.247 . S
C562 O551 1.253 . S
C562 O552 1.283 . S
C563 O555 1.304 . S
C563 O557 1.272 . S
C564 O556 1.311 . S
C564 O558 1.231 . S
O565 Zn547 1.953 . S
O565 C559 1.298 . S
O566 Zn567 1.953 . S
O566 C582 1.225 . S
Zn567 O566 1.953 . S
Zn567 O568 1.961 . S
Zn567 O574 1.919 . S
Zn567 O579 1.924 . S
O568 Zn567 1.961 . S
O568 Zn569 1.923 . S
O568 Zn570 1.943 1_455 S
O568 Zn571 1.939 1_455 S
Zn569 O568 1.923 . S
Zn569 O572 1.933 1_455 S
Zn569 O575 1.941 . S
Zn569 O576 1.965 1_455 S
Zn570 O568 1.943 1_655 S
Zn570 O577 1.938 . S
Zn570 O578 1.906 . S
Zn570 O588 1.943 1_655 S
Zn571 O568 1.939 1_655 S
Zn571 O573 1.932 . S
Zn571 O580 1.977 . S
Zn571 O581 1.910 1_655 S
O572 Zn569 1.933 1_655 S
O572 C583 1.226 . S
O573 Zn571 1.932 . S
O573 C583 1.307 . S
O574 Zn567 1.919 . S
O574 C585 1.253 . S
O575 Zn569 1.941 . S
O575 C585 1.283 . S
O576 Zn569 1.965 1_655 S
O576 C584 1.303 . S
O577 Zn570 1.938 . S
O577 C584 1.247 . S
O578 Zn570 1.906 . S
O578 C586 1.304 . S
O579 Zn567 1.924 . S
O579 C587 1.311 . S
O580 Zn571 1.977 . S
O580 C586 1.272 . S
O581 Zn571 1.910 1_455 S
O581 C587 1.231 . S
C582 O566 1.225 . S
C582 O588 1.317 . S
C583 O572 1.226 . S
C583 O573 1.307 . S
C584 O576 1.303 . S
C584 O577 1.247 . S
C585 O574 1.253 . S
C585 O575 1.283 . S
C586 O578 1.304 . S
C586 O580 1.272 . S
C587 O579 1.311 . S
C587 O581 1.231 . S
O588 Zn570 1.943 1_455 S
O588 C582 1.317 . S
O589 Zn590 1.953 . S
O589 C605 1.225 . S
Zn590 O589 1.953 . S
Zn590 O591 1.949 . S
Zn590 O597 1.919 . S
Zn590 O602 1.924 . S
O591 Zn590 1.949 . S
O591 Zn592 1.923 . S
O591 Zn593 1.950 . S
O591 Zn594 1.945 . S
Zn592 O591 1.923 . S
Zn592 O595 1.933 . S
Zn592 O598 1.941 . S
Zn592 O599 1.965 . S
Zn593 O591 1.950 . S
Zn593 O600 1.938 . S
Zn593 O601 1.906 . S
Zn593 O611 1.953 . S
Zn594 O591 1.945 . S
Zn594 O596 1.932 . S
Zn594 O603 1.977 . S
Zn594 O604 1.910 . S
O595 Zn592 1.933 . S
O595 C606 1.226 . S
O596 Zn594 1.932 . S
O596 C606 1.307 . S
O597 Zn590 1.919 . S
O597 C608 1.253 . S
O598 Zn592 1.941 . S
O598 C608 1.283 . S
O599 Zn592 1.965 . S
O599 C607 1.303 . S
O600 Zn593 1.938 . S
O600 C607 1.247 . S
O601 Zn593 1.906 . S
O601 C609 1.304 . S
O602 Zn590 1.924 . S
O602 C610 1.311 . S
O603 Zn594 1.977 . S
O603 C609 1.272 . S
O604 Zn594 1.910 . S
O604 C610 1.231 . S
C605 O589 1.225 . S
C605 O611 1.298 . S
C606 O595 1.226 . S
C606 O596 1.307 . S
C607 O599 1.303 . S
C607 O600 1.247 . S
C608 O597 1.253 . S
C608 O598 1.283 . S
C609 O601 1.304 . S
C609 O603 1.272 . S
C610 O602 1.311 . S
C610 O604 1.231 . S
O611 Zn593 1.953 . S
O611 C605 1.298 . S
O612 Zn613 1.953 . S
O612 C628 1.225 . S
Zn613 O612 1.953 . S
Zn613 O614 1.949 . S
Zn613 O620 1.919 . S
Zn613 O625 1.924 . S
O614 Zn613 1.949 . S
O614 Zn615 1.923 . S
O614 Zn616 1.950 . S
O614 Zn617 1.945 . S
Zn615 O614 1.923 . S
Zn615 O618 1.933 . S
Zn615 O621 1.941 . S
Zn615 O622 1.965 . S
Zn616 O614 1.950 . S
Zn616 O623 1.938 . S
Zn616 O624 1.906 . S
Zn616 O634 1.953 . S
Zn617 O614 1.945 . S
Zn617 O619 1.932 . S
Zn617 O626 1.977 . S
Zn617 O627 1.910 . S
O618 Zn615 1.933 . S
O618 C629 1.226 . S
O619 Zn617 1.932 . S
O619 C629 1.307 . S
O620 Zn613 1.919 . S
O620 C631 1.253 . S
O621 Zn615 1.941 . S
O621 C631 1.283 . S
O622 Zn615 1.965 . S
O622 C630 1.303 . S
O623 Zn616 1.938 . S
O623 C630 1.247 . S
O624 Zn616 1.906 . S
O624 C632 1.304 . S
O625 Zn613 1.924 . S
O625 C633 1.311 . S
O626 Zn617 1.977 . S
O626 C632 1.272 . S
O627 Zn617 1.910 . S
O627 C633 1.231 . S
C628 O612 1.225 . S
C628 O634 1.298 . S
C629 O618 1.226 . S
C629 O619 1.307 . S
C630 O622 1.303 . S
C630 O623 1.247 . S
C631 O620 1.253 . S
C631 O621 1.283 . S
C632 O624 1.304 . S
C632 O626 1.272 . S
C633 O625 1.311 . S
C633 O627 1.231 . S
O634 Zn616 1.953 . S
O634 C628 1.298 . S
O635 Zn636 1.953 . S
O635 C651 1.225 . S
Zn636 O635 1.953 . S
Zn636 O637 1.949 . S
Zn636 O643 1.919 . S
Zn636 O648 1.924 . S
O637 Zn636 1.949 . S
O637 Zn638 1.923 . S
O637 Zn639 1.950 . S
O637 Zn640 1.945 . S
Zn638 O637 1.923 . S
Zn638 O641 1.933 . S
Zn638 O644 1.941 . S
Zn638 O645 1.965 . S
Zn639 O637 1.950 . S
Zn639 O646 1.938 . S
Zn639 O647 1.906 . S
Zn639 O657 1.953 . S
Zn640 O637 1.945 . S
Zn640 O642 1.932 . S
Zn640 O649 1.977 . S
Zn640 O650 1.910 . S
O641 Zn638 1.933 . S
O641 C652 1.226 . S
O642 Zn640 1.932 . S
O642 C652 1.307 . S
O643 Zn636 1.919 . S
O643 C654 1.253 . S
O644 Zn638 1.941 . S
O644 C654 1.283 . S
O645 Zn638 1.965 . S
O645 C653 1.303 . S
O646 Zn639 1.938 . S
O646 C653 1.247 . S
O647 Zn639 1.906 . S
O647 C655 1.304 . S
O648 Zn636 1.924 . S
O648 C656 1.311 . S
O649 Zn640 1.977 . S
O649 C655 1.272 . S
O650 Zn640 1.910 . S
O650 C656 1.231 . S
C651 O635 1.225 . S
C651 O657 1.298 . S
C652 O641 1.226 . S
C652 O642 1.307 . S
C653 O645 1.303 . S
C653 O646 1.247 . S
C654 O643 1.253 . S
C654 O644 1.283 . S
C655 O647 1.304 . S
C655 O649 1.272 . S
C656 O648 1.311 . S
C656 O650 1.231 . S
O657 Zn639 1.953 . S
O657 C651 1.298 . S
O658 Zn659 1.953 . S
O658 C674 1.225 . S
Zn659 O658 1.953 . S
Zn659 O660 1.949 . S
Zn659 O666 1.919 . S
Zn659 O671 1.924 . S
O660 Zn659 1.949 . S
O660 Zn661 1.923 . S
O660 Zn662 1.950 . S
O660 Zn663 1.945 . S
Zn661 O660 1.923 . S
Zn661 O664 1.933 . S
Zn661 O667 1.941 . S
Zn661 O668 1.965 . S
Zn662 O660 1.950 . S
Zn662 O669 1.938 . S
Zn662 O670 1.906 . S
Zn662 O680 1.953 . S
Zn663 O660 1.945 . S
Zn663 O665 1.932 . S
Zn663 O672 1.977 . S
Zn663 O673 1.910 . S
O664 Zn661 1.933 . S
O664 C675 1.226 . S
O665 Zn663 1.932 . S
O665 C675 1.307 . S
O666 Zn659 1.919 . S
O666 C677 1.253 . S
O667 Zn661 1.941 . S
O667 C677 1.283 . S
O668 Zn661 1.965 . S
O668 C676 1.303 . S
O669 Zn662 1.938 . S
O669 C676 1.247 . S
O670 Zn662 1.906 . S
O670 C678 1.304 . S
O671 Zn659 1.924 . S
O671 C679 1.311 . S
O672 Zn663 1.977 . S
O672 C678 1.272 . S
O673 Zn663 1.910 . S
O673 C679 1.231 . S
C674 O658 1.225 . S
C674 O680 1.298 . S
C675 O664 1.226 . S
C675 O665 1.307 . S
C676 O668 1.303 . S
C676 O669 1.247 . S
C677 O666 1.253 . S
C677 O667 1.283 . S
C678 O670 1.304 . S
C678 O672 1.272 . S
C679 O671 1.311 . S
C679 O673 1.231 . S
O680 Zn662 1.953 . S
O680 C674 1.298 . S
O681 Zn682 1.953 1_455 S
O681 C697 1.225 . S
Zn682 O681 1.953 1_655 S
Zn682 O683 1.949 1_655 S
Zn682 O689 1.919 1_554 S
Zn682 O694 1.924 1_654 S
O683 Zn682 1.949 1_455 S
O683 Zn684 1.923 1_455 S
O683 Zn685 1.950 . S
O683 Zn686 1.945 1_554 S
Zn684 O683 1.923 1_655 S
Zn684 O687 1.933 . S
Zn684 O690 1.941 . S
Zn684 O691 1.965 . S
Zn685 O683 1.950 . S
Zn685 O692 1.938 . S
Zn685 O693 1.906 . S
Zn685 O703 1.953 . S
Zn686 O683 1.945 1_556 S
Zn686 O688 1.932 . S
Zn686 O695 1.977 1_556 S
Zn686 O696 1.910 . S
O687 Zn684 1.933 . S
O687 C698 1.226 1_554 S
O688 Zn686 1.932 . S
O688 C698 1.307 1_455 S
O689 Zn682 1.919 1_556 S
O689 C700 1.253 1_556 S
O690 Zn684 1.941 . S
O690 C700 1.283 . S
O691 Zn684 1.965 . S
O691 C699 1.303 . S
O692 Zn685 1.938 . S
O692 C699 1.247 1_455 S
O693 Zn685 1.906 . S
O693 C701 1.304 . S
O694 Zn682 1.924 1_456 S
O694 C702 1.311 . S
O695 Zn686 1.977 1_554 S
O695 C701 1.272 . S
O696 Zn686 1.910 . S
O696 C702 1.231 . S
C697 O681 1.225 . S
C697 O703 1.298 . S
C698 O687 1.226 1_556 S
C698 O688 1.307 1_655 S
C699 O691 1.303 . S
C699 O692 1.247 1_655 S
C700 O689 1.253 1_554 S
C700 O690 1.283 . S
C701 O693 1.304 . S
C701 O695 1.272 . S
C702 O694 1.311 . S
C702 O696 1.231 . S
O703 Zn685 1.953 . S
O703 C697 1.298 . S
H704 C710 0.930 . S
H705 C713 0.930 . S
H706 C714 0.930 . S
H707 C715 0.930 . S
H708 C718 0.930 . S
H709 C719 0.930 . S
C710 H704 0.930 . S
C710 C711 1.356 . S
C710 C712 1.415 . S
C711 C710 1.356 . S
C711 C713 1.417 1_455 S
C712 C710 1.415 . S
C712 C717 1.425 1_455 S
C712 C719 1.409 . S
C713 H705 0.930 . S
C713 C711 1.417 1_655 S
C713 C714 1.362 . S
C714 H706 0.930 . S
C714 C713 1.362 . S
C714 C717 1.409 . S
C715 H707 0.930 . S
C715 C716 1.355 . S
C715 C717 1.415 . S
C716 C715 1.355 . S
C716 C718 1.419 1_655 S
C717 C712 1.425 1_655 S
C717 C714 1.409 . S
C717 C715 1.415 . S
C718 H708 0.930 . S
C718 C716 1.419 1_455 S
C718 C719 1.362 . S
C719 H709 0.930 . S
C719 C712 1.409 . S
C719 C718 1.362 . S
H720 C726 0.930 . S
H721 C729 0.930 . S
H722 C730 0.930 . S
H723 C731 0.930 . S
H724 C734 0.930 . S
H725 C735 0.930 . S
C726 H720 0.930 . S
C726 C727 1.355 . S
C726 C728 1.415 . S
C727 C726 1.355 . S
C727 C729 1.419 . S
C728 C726 1.415 . S
C728 C733 1.425 . S
C728 C735 1.409 . S
C729 H721 0.930 . S
C729 C727 1.419 . S
C729 C730 1.362 . S
C730 H722 0.930 . S
C730 C729 1.362 . S
C730 C733 1.409 . S
C731 H723 0.930 . S
C731 C732 1.355 . S
C731 C733 1.415 . S
C732 C731 1.355 . S
C732 C734 1.419 . S
C733 C728 1.425 . S
C733 C730 1.409 . S
C733 C731 1.415 . S
C734 H724 0.930 . S
C734 C732 1.419 . S
C734 C735 1.362 . S
C735 H725 0.930 . S
C735 C728 1.409 . S
C735 C734 1.362 . S
H736 C742 0.930 . S
H737 C745 0.930 . S
H738 C746 0.930 . S
H739 C747 0.930 . S
H740 C750 0.930 . S
H741 C751 0.930 . S
C742 H736 0.930 . S
C742 C743 1.355 . S
C742 C744 1.415 . S
C743 C742 1.355 . S
C743 C745 1.419 . S
C744 C742 1.415 . S
C744 C749 1.425 . S
C744 C751 1.409 . S
C745 H737 0.930 . S
C745 C743 1.419 . S
C745 C746 1.362 . S
C746 H738 0.930 . S
C746 C745 1.362 . S
C746 C749 1.409 . S
C747 H739 0.930 . S
C747 C748 1.355 . S
C747 C749 1.415 . S
C748 C747 1.355 . S
C748 C750 1.419 . S
C749 C744 1.425 . S
C749 C746 1.409 . S
C749 C747 1.415 . S
C750 H740 0.930 . S
C750 C748 1.419 . S
C750 C751 1.362 . S
C751 H741 0.930 . S
C751 C744 1.409 . S
C751 C750 1.362 . S
H752 C758 0.930 . S
H753 C761 0.930 . S
H754 C762 0.930 . S
H755 C763 0.930 . S
H756 C766 0.930 . S
H757 C767 0.930 . S
C758 H752 0.930 . S
C758 C759 1.355 . S
C758 C760 1.415 . S
C759 C758 1.355 . S
C759 C761 1.419 . S
C760 C758 1.415 . S
C760 C765 1.425 . S
C760 C767 1.409 . S
C761 H753 0.930 . S
C761 C759 1.419 . S
C761 C762 1.362 . S
C762 H754 0.930 . S
C762 C761 1.362 . S
C762 C765 1.409 . S
C763 H755 0.930 . S
C763 C764 1.355 . S
C763 C765 1.415 . S
C764 C763 1.355 . S
C764 C766 1.419 . S
C765 C760 1.425 . S
C765 C762 1.409 . S
C765 C763 1.415 . S
C766 H756 0.930 . S
C766 C764 1.419 . S
C766 C767 1.362 . S
C767 H757 0.930 . S
C767 C760 1.409 . S
C767 C766 1.362 . S
H768 C774 0.930 . S
H769 C777 0.930 . S
H770 C778 0.930 . S
H771 C779 0.930 . S
H772 C782 0.930 . S
H773 C783 0.930 . S
C774 H768 0.930 . S
C774 C775 1.355 1_655 S
C774 C776 1.415 . S
C775 C774 1.355 1_455 S
C775 C777 1.419 . S
C776 C774 1.415 . S
C776 C781 1.425 1_655 S
C776 C783 1.409 . S
C777 H769 0.930 . S
C777 C775 1.419 . S
C777 C778 1.362 . S
C778 H770 0.930 . S
C778 C777 1.362 . S
C778 C781 1.409 . S
C779 H771 0.930 . S
C779 C780 1.355 1_455 S
C779 C781 1.415 . S
C780 C779 1.355 1_655 S
C780 C782 1.419 . S
C781 C776 1.425 1_455 S
C781 C778 1.409 . S
C781 C779 1.415 . S
C782 H772 0.930 . S
C782 C780 1.419 . S
C782 C783 1.362 . S
C783 H773 0.930 . S
C783 C776 1.409 . S
C783 C782 1.362 . S
H784 C790 0.930 . S
H785 C793 0.930 . S
H786 C794 0.930 . S
H787 C795 0.930 . S
H788 C798 0.930 . S
H789 C799 0.930 . S
C790 H784 0.930 . S
C790 C791 1.355 . S
C790 C792 1.415 . S
C791 C790 1.355 . S
C791 C793 1.419 . S
C792 C790 1.415 . S
C792 C797 1.425 . S
C792 C799 1.409 . S
C793 H785 0.930 . S
C793 C791 1.419 . S
C793 C794 1.362 . S
C794 H786 0.930 . S
C794 C793 1.362 . S
C794 C797 1.409 . S
C795 H787 0.930 . S
C795 C796 1.355 . S
C795 C797 1.415 . S
C796 C795 1.355 . S
C796 C798 1.419 . S
C797 C792 1.425 . S
C797 C794 1.409 . S
C797 C795 1.415 . S
C798 H788 0.930 . S
C798 C796 1.419 . S
C798 C799 1.362 . S
C799 H789 0.930 . S
C799 C792 1.409 . S
C799 C798 1.362 . S
H800 C806 0.930 . S
H801 C809 0.930 . S
H802 C810 0.941 . S
H803 C811 0.930 1_554 S
H804 C814 0.930 . S
H805 C815 0.930 . S
C806 H800 0.930 . S
C806 C807 1.355 . S
C806 C808 1.415 . S
C807 C806 1.355 . S
C807 C809 1.419 . S
C808 C806 1.415 . S
C808 C813 1.425 . S
C808 C815 1.409 . S
C809 H801 0.930 . S
C809 C807 1.419 . S
C809 C810 1.362 . S
C810 H802 0.941 . S
C810 C809 1.362 . S
C810 C813 1.409 . S
C811 H803 0.930 1_556 S
C811 C812 1.355 . S
C811 C813 1.415 . S
C812 C811 1.355 . S
C812 C814 1.419 . S
C813 C808 1.425 . S
C813 C810 1.409 . S
C813 C811 1.415 . S
C814 H804 0.930 . S
C814 C812 1.419 . S
C814 C815 1.362 . S
C815 H805 0.930 . S
C815 C808 1.409 . S
C815 C814 1.362 . S
H816 C822 0.930 . S
H817 C825 0.930 . S
H818 C826 0.930 . S
H819 C827 0.930 . S
H820 C830 0.930 . S
H821 C831 0.930 . S
C822 H816 0.930 . S
C822 C823 1.355 . S
C822 C824 1.415 . S
C823 C822 1.355 . S
C823 C825 1.419 . S
C824 C822 1.415 . S
C824 C829 1.425 . S
C824 C831 1.409 . S
C825 H817 0.930 . S
C825 C823 1.419 . S
C825 C826 1.362 . S
C826 H818 0.930 . S
C826 C825 1.362 . S
C826 C829 1.409 . S
C827 H819 0.930 . S
C827 C828 1.355 . S
C827 C829 1.415 . S
C828 C827 1.355 . S
C828 C830 1.419 . S
C829 C824 1.425 . S
C829 C826 1.409 . S
C829 C827 1.415 . S
C830 H820 0.930 . S
C830 C828 1.419 . S
C830 C831 1.362 . S
C831 H821 0.930 . S
C831 C824 1.409 . S
C831 C830 1.362 . S
H832 C838 0.930 . S
H833 C841 0.930 . S
H834 C842 0.930 . S
H835 C843 0.930 . S
H836 C846 0.930 . S
H837 C847 0.930 . S
C838 H832 0.930 . S
C838 C839 1.355 . S
C838 C840 1.415 . S
C839 C838 1.355 . S
C839 C841 1.419 1_545 S
C840 C838 1.415 . S
C840 C845 1.425 . S
C840 C847 1.409 . S
C841 H833 0.930 . S
C841 C839 1.419 1_565 S
C841 C842 1.362 . S
C842 H834 0.930 . S
C842 C841 1.362 . S
C842 C845 1.409 1_565 S
C843 H835 0.930 . S
C843 C844 1.355 1_565 S
C843 C845 1.415 1_565 S
C844 C843 1.355 1_545 S
C844 C846 1.419 . S
C845 C840 1.425 . S
C845 C842 1.409 1_545 S
C845 C843 1.415 1_545 S
C846 H836 0.930 . S
C846 C844 1.419 . S
C846 C847 1.362 . S
C847 H837 0.930 . S
C847 C840 1.409 . S
C847 C846 1.362 . S
H848 C854 0.930 . S
H849 C857 0.930 . S
H850 C858 0.930 . S
H851 C859 0.930 . S
H852 C862 0.930 . S
H853 C863 0.930 . S
C854 H848 0.930 . S
C854 C855 1.355 . S
C854 C856 1.415 . S
C855 C854 1.355 . S
C855 C857 1.419 . S
C856 C854 1.415 . S
C856 C861 1.425 . S
C856 C863 1.409 . S
C857 H849 0.930 . S
C857 C855 1.419 . S
C857 C858 1.362 . S
C858 H850 0.930 . S
C858 C857 1.362 . S
C858 C861 1.409 . S
C859 H851 0.930 . S
C859 C860 1.355 . S
C859 C861 1.415 . S
C860 C859 1.355 . S
C860 C862 1.419 . S
C861 C856 1.425 . S
C861 C858 1.409 . S
C861 C859 1.415 . S
C862 H852 0.930 . S
C862 C860 1.419 . S
C862 C863 1.362 . S
C863 H853 0.930 . S
C863 C856 1.409 . S
C863 C862 1.362 . S
H864 C870 0.930 . S
H865 C873 0.930 . S
H866 C874 0.930 . S
H867 C875 0.930 . S
H868 C878 0.930 . S
H869 C879 0.930 . S
C870 H864 0.930 . S
C870 C871 1.355 1_545 S
C870 C872 1.415 . S
C871 C870 1.355 1_565 S
C871 C873 1.419 . S
C872 C870 1.415 . S
C872 C877 1.425 1_545 S
C872 C879 1.409 . S
C873 H865 0.930 . S
C873 C871 1.419 . S
C873 C874 1.362 . S
C874 H866 0.930 . S
C874 C873 1.362 . S
C874 C877 1.409 . S
C875 H867 0.930 . S
C875 C876 1.355 1_565 S
C875 C877 1.415 . S
C876 C875 1.355 1_545 S
C876 C878 1.419 . S
C877 C872 1.425 1_565 S
C877 C874 1.409 . S
C877 C875 1.415 . S
C878 H868 0.930 . S
C878 C876 1.419 . S
C878 C879 1.362 . S
C879 H869 0.930 . S
C879 C872 1.409 . S
C879 C878 1.362 . S
H880 C886 0.930 . S
H881 C889 0.930 . S
H882 C890 0.930 . S
H883 C891 0.930 . S
H884 C894 0.930 . S
H885 C895 0.930 . S
C886 H880 0.930 . S
C886 C887 1.355 . S
C886 C888 1.415 . S
C887 C886 1.355 . S
C887 C889 1.419 . S
C888 C886 1.415 . S
C888 C893 1.425 . S
C888 C895 1.409 . S
C889 H881 0.930 . S
C889 C887 1.419 . S
C889 C890 1.362 . S
C890 H882 0.930 . S
C890 C889 1.362 . S
C890 C893 1.409 . S
C891 H883 0.930 . S
C891 C892 1.355 . S
C891 C893 1.415 . S
C892 C891 1.355 . S
C892 C894 1.419 . S
C893 C888 1.425 . S
C893 C890 1.409 . S
C893 C891 1.415 . S
C894 H884 0.930 . S
C894 C892 1.419 . S
C894 C895 1.362 . S
C895 H885 0.930 . S
C895 C888 1.409 . S
C895 C894 1.362 . S
H896 C902 0.930 1_565 S
H897 C905 0.930 . S
H898 C906 0.930 . S
H899 C907 0.930 . S
H900 C910 0.930 1_565 S
H901 C911 0.931 . S
C902 H896 0.930 1_545 S
C902 C903 1.355 . S
C902 C904 1.415 . S
C903 C902 1.355 . S
C903 C905 1.419 . S
C904 C902 1.415 . S
C904 C909 1.425 . S
C904 C911 1.409 1_545 S
C905 H897 0.930 . S
C905 C903 1.419 . S
C905 C906 1.362 . S
C906 H898 0.930 . S
C906 C905 1.362 . S
C906 C909 1.409 . S
C907 H899 0.930 . S
C907 C908 1.355 . S
C907 C909 1.415 . S
C908 C907 1.355 . S
C908 C910 1.419 . S
C909 C904 1.425 . S
C909 C906 1.409 . S
C909 C907 1.415 . S
C910 H900 0.930 1_545 S
C910 C908 1.419 . S
C910 C911 1.362 1_545 S
C911 H901 0.931 . S
C911 C904 1.409 1_565 S
C911 C910 1.362 1_565 S
H912 C918 0.930 . S
H913 C921 0.930 . S
H914 C922 0.930 . S
H915 C923 0.930 . S
H916 C926 0.930 . S
H917 C927 0.930 . S
C918 H912 0.930 . S
C918 C919 1.355 . S
C918 C920 1.415 . S
C919 C918 1.355 . S
C919 C921 1.419 . S
C920 C918 1.415 . S
C920 C925 1.425 . S
C920 C927 1.409 . S
C921 H913 0.930 . S
C921 C919 1.419 . S
C921 C922 1.362 . S
C922 H914 0.930 . S
C922 C921 1.362 . S
C922 C925 1.409 . S
C923 H915 0.930 . S
C923 C924 1.355 . S
C923 C925 1.415 . S
C924 C923 1.355 . S
C924 C926 1.419 . S
C925 C920 1.425 . S
C925 C922 1.409 . S
C925 C923 1.415 . S
C926 H916 0.930 . S
C926 C924 1.419 . S
C926 C927 1.362 . S
C927 H917 0.930 . S
C927 C920 1.409 . S
C927 C926 1.362 . S
H928 C934 0.930 . S
H929 C937 0.930 . S
H930 C938 0.930 . S
H931 C939 0.949 . S
H932 C942 0.930 . S
H933 C943 0.930 . S
C934 H928 0.930 . S
C934 C935 1.366 . S
C934 C936 1.415 . S
C935 C934 1.366 . S
C935 C937 1.408 1_565 S
C936 C934 1.415 . S
C936 C941 1.396 1_565 S
C936 C943 1.409 . S
C937 H929 0.930 . S
C937 C935 1.408 1_545 S
C937 C938 1.362 . S
C938 H930 0.930 . S
C938 C937 1.362 . S
C938 C941 1.439 . S
C939 H931 0.949 . S
C939 C940 1.335 1_545 S
C939 C941 1.414 . S
C940 C939 1.335 1_565 S
C940 C942 1.419 . S
C941 C936 1.396 1_545 S
C941 C938 1.439 . S
C941 C939 1.414 . S
C942 H932 0.930 . S
C942 C940 1.419 . S
C942 C943 1.362 . S
C943 H933 0.930 . S
C943 C936 1.409 . S
C943 C942 1.362 . S
H944 C950 0.930 . S
H945 C953 0.930 . S
H946 C954 0.930 . S
H947 C955 0.930 . S
H948 C958 0.930 . S
H949 C959 0.930 . S
C950 H944 0.930 . S
C950 C951 1.355 . S
C950 C952 1.415 . S
C951 C950 1.355 . S
C951 C953 1.419 . S
C952 C950 1.415 . S
C952 C957 1.425 . S
C952 C959 1.409 . S
C953 H945 0.930 . S
C953 C951 1.419 . S
C953 C954 1.362 . S
C954 H946 0.930 . S
C954 C953 1.362 . S
C954 C957 1.409 . S
C955 H947 0.930 . S
C955 C956 1.355 . S
C955 C957 1.415 . S
C956 C955 1.355 . S
C956 C958 1.419 . S
C957 C952 1.425 . S
C957 C954 1.409 . S
C957 C955 1.415 . S
C958 H948 0.930 . S
C958 C956 1.419 . S
C958 C959 1.362 . S
C959 H949 0.930 . S
C959 C952 1.409 . S
C959 C958 1.362 . S
H960 C966 0.930 . S
H961 C969 0.930 . S
H962 C970 0.930 . S
H963 C971 0.930 . S
H964 C974 0.930 . S
H965 C975 0.930 . S
C966 H960 0.930 . S
C966 C967 1.355 1_556 S
C966 C968 1.415 . S
C967 C966 1.355 1_554 S
C967 C969 1.419 . S
C968 C966 1.415 . S
C968 C973 1.425 1_556 S
C968 C975 1.409 . S
C969 H961 0.930 . S
C969 C967 1.419 . S
C969 C970 1.362 . S
C970 H962 0.930 . S
C970 C969 1.362 . S
C970 C973 1.409 . S
C971 H963 0.930 . S
C971 C972 1.355 1_554 S
C971 C973 1.415 . S
C972 C971 1.355 1_556 S
C972 C974 1.419 . S
C973 C968 1.425 1_554 S
C973 C970 1.409 . S
C973 C971 1.415 . S
C974 H964 0.930 . S
C974 C972 1.419 . S
C974 C975 1.362 . S
C975 H965 0.930 . S
C975 C968 1.409 . S
C975 C974 1.362 . S
H976 C982 0.930 . S
H977 C985 0.930 . S
H978 C986 0.930 . S
H979 C987 0.930 . S
H980 C990 0.930 . S
H981 C991 0.930 . S
C982 H976 0.930 . S
C982 C983 1.355 1_556 S
C982 C984 1.415 1_556 S
C983 C982 1.355 1_554 S
C983 C985 1.419 . S
C984 C982 1.415 1_554 S
C984 C989 1.425 . S
C984 C991 1.409 1_554 S
C985 H977 0.930 . S
C985 C983 1.419 . S
C985 C986 1.362 . S
C986 H978 0.930 . S
C986 C985 1.362 . S
C986 C989 1.409 . S
C987 H979 0.930 . S
C987 C988 1.355 . S
C987 C989 1.415 . S
C988 C987 1.355 . S
C988 C990 1.419 1_554 S
C989 C984 1.425 . S
C989 C986 1.409 . S
C989 C987 1.415 . S
C990 H980 0.930 . S
C990 C988 1.419 1_556 S
C990 C991 1.362 . S
C991 H981 0.930 . S
C991 C984 1.409 1_556 S
C991 C990 1.362 . S
H992 C998 0.930 . S
H993 C1001 0.930 . S
H994 C1002 0.930 . S
H995 C1003 0.930 . S
H996 C1006 0.930 . S
H997 C1007 0.930 . S
C998 H992 0.930 . S
C998 C999 1.355 . S
C998 C1000 1.415 . S
C999 C998 1.355 . S
C999 C1001 1.419 . S
C1000 C998 1.415 . S
C1000 C1005 1.425 . S
C1000 C1007 1.409 . S
C1001 H993 0.930 . S
C1001 C999 1.419 . S
C1001 C1002 1.362 . S
C1002 H994 0.930 . S
C1002 C1001 1.362 . S
C1002 C1005 1.409 . S
C1003 H995 0.930 . S
C1003 C1004 1.355 . S
C1003 C1005 1.415 . S
C1004 C1003 1.355 . S
C1004 C1006 1.419 . S
C1005 C1000 1.425 . S
C1005 C1002 1.409 . S
C1005 C1003 1.415 . S
C1006 H996 0.930 . S
C1006 C1004 1.419 . S
C1006 C1007 1.362 . S
C1007 H997 0.930 . S
C1007 C1000 1.409 . S
C1007 C1006 1.362 . S
H1008 C1014 0.930 . S
H1009 C1017 0.930 . S
H1010 C1018 0.930 . S
H1011 C1019 0.930 . S
H1012 C1022 0.930 . S
H1013 C1023 0.930 . S
C1014 H1008 0.930 . S
C1014 C1015 1.355 . S
C1014 C1016 1.415 . S
C1015 C1014 1.355 . S
C1015 C1017 1.419 . S
C1016 C1014 1.415 . S
C1016 C1021 1.425 . S
C1016 C1023 1.409 . S
C1017 H1009 0.930 . S
C1017 C1015 1.419 . S
C1017 C1018 1.362 . S
C1018 H1010 0.930 . S
C1018 C1017 1.362 . S
C1018 C1021 1.409 . S
C1019 H1011 0.930 . S
C1019 C1020 1.355 . S
C1019 C1021 1.415 . S
C1020 C1019 1.355 . S
C1020 C1022 1.419 . S
C1021 C1016 1.425 . S
C1021 C1018 1.409 . S
C1021 C1019 1.415 . S
C1022 H1012 0.930 . S
C1022 C1020 1.419 . S
C1022 C1023 1.362 . S
C1023 H1013 0.930 . S
C1023 C1016 1.409 . S
C1023 C1022 1.362 . S
H1024 C1030 0.930 . S
H1025 C1033 0.930 . S
H1026 C1034 0.930 . S
H1027 C1035 0.930 . S
H1028 C1038 0.930 . S
H1029 C1039 0.930 . S
C1030 H1024 0.930 . S
C1030 C1031 1.355 . S
C1030 C1032 1.415 . S
C1031 C1030 1.355 . S
C1031 C1033 1.419 . S
C1032 C1030 1.415 . S
C1032 C1037 1.425 . S
C1032 C1039 1.409 . S
C1033 H1025 0.930 . S
C1033 C1031 1.419 . S
C1033 C1034 1.362 . S
C1034 H1026 0.930 . S
C1034 C1033 1.362 . S
C1034 C1037 1.409 . S
C1035 H1027 0.930 . S
C1035 C1036 1.355 . S
C1035 C1037 1.415 . S
C1036 C1035 1.355 . S
C1036 C1038 1.419 . S
C1037 C1032 1.425 . S
C1037 C1034 1.409 . S
C1037 C1035 1.415 . S
C1038 H1028 0.930 . S
C1038 C1036 1.419 . S
C1038 C1039 1.362 . S
C1039 H1029 0.930 . S
C1039 C1032 1.409 . S
C1039 C1038 1.362 . S
H1040 C1046 0.930 . S
H1041 C1049 0.930 . S
H1042 C1050 0.930 . S
H1043 C1051 0.930 . S
H1044 C1054 0.930 . S
H1045 C1055 0.930 1_545 S
C1046 H1040 0.930 . S
C1046 C1047 1.355 . S
C1046 C1048 1.415 . S
C1047 C1046 1.355 . S
C1047 C1049 1.419 . S
C1048 C1046 1.415 . S
C1048 C1053 1.425 . S
C1048 C1055 1.409 . S
C1049 H1041 0.930 . S
C1049 C1047 1.419 . S
C1049 C1050 1.362 . S
C1050 H1042 0.930 . S
C1050 C1049 1.362 . S
C1050 C1053 1.409 . S
C1051 H1043 0.930 . S
C1051 C1052 1.355 . S
C1051 C1053 1.415 . S
C1052 C1051 1.355 . S
C1052 C1054 1.419 1_565 S
C1053 C1048 1.425 . S
C1053 C1050 1.409 . S
C1053 C1051 1.415 . S
C1054 H1044 0.930 . S
C1054 C1052 1.419 1_545 S
C1054 C1055 1.362 1_545 S
C1055 H1045 0.930 1_565 S
C1055 C1048 1.409 . S
C1055 C1054 1.362 1_565 S
H1056 C1062 0.930 . S
H1057 C1065 0.930 . S
H1058 C1066 0.930 . S
H1059 C1067 0.930 . S
H1060 C1070 0.930 . S
H1061 C1071 0.930 . S
C1062 H1056 0.930 . S
C1062 C1063 1.355 . S
C1062 C1064 1.415 . S
C1063 C1062 1.355 . S
C1063 C1065 1.419 . S
C1064 C1062 1.415 . S
C1064 C1069 1.425 . S
C1064 C1071 1.409 . S
C1065 H1057 0.930 . S
C1065 C1063 1.419 . S
C1065 C1066 1.362 . S
C1066 H1058 0.930 . S
C1066 C1065 1.362 . S
C1066 C1069 1.409 . S
C1067 H1059 0.930 . S
C1067 C1068 1.355 . S
C1067 C1069 1.415 . S
C1068 C1067 1.355 . S
C1068 C1070 1.419 . S
C1069 C1064 1.425 . S
C1069 C1066 1.409 . S
C1069 C1067 1.415 . S
C1070 H1060 0.930 . S
C1070 C1068 1.419 . S
C1070 C1071 1.362 . S
C1071 H1061 0.930 . S
C1071 C1064 1.409 . S
C1071 C1070 1.362 . S
H1072 C1078 0.930 . S
H1073 C1081 0.930 . S
H1074 C1082 0.930 . S
H1075 C1083 0.930 . S
H1076 C1086 0.930 . S
H1077 C1087 0.930 . S
C1078 H1072 0.930 . S
C1078 C1079 1.355 . S
C1078 C1080 1.415 . S
C1079 C1078 1.355 . S
C1079 C1081 1.419 . S
C1080 C1078 1.415 . S
C1080 C1085 1.425 . S
C1080 C1087 1.409 . S
C1081 H1073 0.930 . S
C1081 C1079 1.419 . S
C1081 C1082 1.362 . S
C1082 H1074 0.930 . S
C1082 C1081 1.362 . S
C1082 C1085 1.409 . S
C1083 H1075 0.930 . S
C1083 C1084 1.355 . S
C1083 C1085 1.415 . S
C1084 C1083 1.355 . S
C1084 C1086 1.419 . S
C1085 C1080 1.425 . S
C1085 C1082 1.409 . S
C1085 C1083 1.415 . S
C1086 H1076 0.930 . S
C1086 C1084 1.419 . S
C1086 C1087 1.362 . S
C1087 H1077 0.930 . S
C1087 C1080 1.409 . S
C1087 C1086 1.362 . S
H1088 C1094 0.930 . S
H1089 C1097 0.930 . S
H1090 C1098 0.930 . S
H1091 C1099 0.930 . S
H1092 C1102 0.930 . S
H1093 C1103 0.930 . S
C1094 H1088 0.930 . S
C1094 C1095 1.355 1_655 S
C1094 C1096 1.415 1_655 S
C1095 C1094 1.355 1_455 S
C1095 C1097 1.419 . S
C1096 C1094 1.415 1_455 S
C1096 C1101 1.425 . S
C1096 C1103 1.409 1_455 S
C1097 H1089 0.930 . S
C1097 C1095 1.419 . S
C1097 C1098 1.362 . S
C1098 H1090 0.930 . S
C1098 C1097 1.362 . S
C1098 C1101 1.409 . S
C1099 H1091 0.930 . S
C1099 C1100 1.355 . S
C1099 C1101 1.415 . S
C1100 C1099 1.355 . S
C1100 C1102 1.419 1_455 S
C1101 C1096 1.425 . S
C1101 C1098 1.409 . S
C1101 C1099 1.415 . S
C1102 H1092 0.930 . S
C1102 C1100 1.419 1_655 S
C1102 C1103 1.362 . S
C1103 H1093 0.930 . S
C1103 C1096 1.409 1_655 S
C1103 C1102 1.362 . S
H1104 C1110 0.930 . S
H1105 C1113 0.930 . S
H1106 C1114 0.930 . S
H1107 C1115 0.930 . S
H1108 C1118 0.930 . S
H1109 C1119 0.930 . S
C1110 H1104 0.930 . S
C1110 C1111 1.355 . S
C1110 C1112 1.415 . S
C1111 C1110 1.355 . S
C1111 C1113 1.419 . S
C1112 C1110 1.415 . S
C1112 C1117 1.425 . S
C1112 C1119 1.409 . S
C1113 H1105 0.930 . S
C1113 C1111 1.419 . S
C1113 C1114 1.362 . S
C1114 H1106 0.930 . S
C1114 C1113 1.362 . S
C1114 C1117 1.409 . S
C1115 H1107 0.930 . S
C1115 C1116 1.355 . S
C1115 C1117 1.415 . S
C1116 C1115 1.355 . S
C1116 C1118 1.419 . S
C1117 C1112 1.425 . S
C1117 C1114 1.409 . S
C1117 C1115 1.415 . S
C1118 H1108 0.930 . S
C1118 C1116 1.419 . S
C1118 C1119 1.362 . S
C1119 H1109 0.930 . S
C1119 C1112 1.409 . S
C1119 C1118 1.362 . S
H1120 C1126 0.930 . S
H1121 C1129 0.930 . S
H1122 C1130 0.930 . S
H1123 C1131 0.930 . S
H1124 C1134 0.930 . S
H1125 C1135 0.930 . S
C1126 H1120 0.930 . S
C1126 C1127 1.355 . S
C1126 C1128 1.415 . S
C1127 C1126 1.355 . S
C1127 C1129 1.419 . S
C1128 C1126 1.415 . S
C1128 C1133 1.425 . S
C1128 C1135 1.409 . S
C1129 H1121 0.930 . S
C1129 C1127 1.419 . S
C1129 C1130 1.362 . S
C1130 H1122 0.930 . S
C1130 C1129 1.362 . S
C1130 C1133 1.409 . S
C1131 H1123 0.930 . S
C1131 C1132 1.355 . S
C1131 C1133 1.415 . S
C1132 C1131 1.355 . S
C1132 C1134 1.419 . S
C1133 C1128 1.425 . S
C1133 C1130 1.409 . S
C1133 C1131 1.415 . S
C1134 H1124 0.930 . S
C1134 C1132 1.419 . S
C1134 C1135 1.362 . S
C1135 H1125 0.930 . S
C1135 C1128 1.409 . S
C1135 C1134 1.362 . S
H1136 C1142 0.930 . S
H1137 C1145 0.930 . S
H1138 C1146 0.930 . S
H1139 C1147 0.930 . S
H1140 C1150 0.930 . S
H1141 C1151 0.930 . S
C1142 H1136 0.930 . S
C1142 C1143 1.355 . S
C1142 C1144 1.415 . S
C1143 C1142 1.355 . S
C1143 C1145 1.419 . S
C1144 C1142 1.415 . S
C1144 C1149 1.425 . S
C1144 C1151 1.409 . S
C1145 H1137 0.930 . S
C1145 C1143 1.419 . S
C1145 C1146 1.362 . S
C1146 H1138 0.930 . S
C1146 C1145 1.362 . S
C1146 C1149 1.409 . S
C1147 H1139 0.930 . S
C1147 C1148 1.355 . S
C1147 C1149 1.415 . S
C1148 C1147 1.355 . S
C1148 C1150 1.419 . S
C1149 C1144 1.425 . S
C1149 C1146 1.409 . S
C1149 C1147 1.415 . S
C1150 H1140 0.930 . S
C1150 C1148 1.419 . S
C1150 C1151 1.362 . S
C1151 H1141 0.930 . S
C1151 C1144 1.409 . S
C1151 C1150 1.362 . S
H1152 C1158 0.930 . S
H1153 C1161 0.930 . S
H1154 C1162 0.930 . S
H1155 C1163 0.930 . S
H1156 C1166 0.930 . S
H1157 C1167 0.930 . S
C1158 H1152 0.930 . S
C1158 C1159 1.355 1_655 S
C1158 C1160 1.415 1_655 S
C1159 C1158 1.355 1_455 S
C1159 C1161 1.419 . S
C1160 C1158 1.415 1_455 S
C1160 C1165 1.425 . S
C1160 C1167 1.409 1_455 S
C1161 H1153 0.930 . S
C1161 C1159 1.419 . S
C1161 C1162 1.362 . S
C1162 H1154 0.930 . S
C1162 C1161 1.362 . S
C1162 C1165 1.409 . S
C1163 H1155 0.930 . S
C1163 C1164 1.355 . S
C1163 C1165 1.415 . S
C1164 C1163 1.355 . S
C1164 C1166 1.419 1_455 S
C1165 C1160 1.425 . S
C1165 C1162 1.409 . S
C1165 C1163 1.415 . S
C1166 H1156 0.930 . S
C1166 C1164 1.419 1_655 S
C1166 C1167 1.362 . S
C1167 H1157 0.930 . S
C1167 C1160 1.409 1_655 S
C1167 C1166 1.362 . S
H1168 C1174 0.930 . S
H1169 C1177 0.930 . S
H1170 C1178 0.930 . S
H1171 C1179 0.930 . S
H1172 C1182 0.930 . S
H1173 C1183 0.930 . S
C1174 H1168 0.930 . S
C1174 C1175 1.355 . S
C1174 C1176 1.415 . S
C1175 C1174 1.355 . S
C1175 C1177 1.419 . S
C1176 C1174 1.415 . S
C1176 C1181 1.425 . S
C1176 C1183 1.409 . S
C1177 H1169 0.930 . S
C1177 C1175 1.419 . S
C1177 C1178 1.362 . S
C1178 H1170 0.930 . S
C1178 C1177 1.362 . S
C1178 C1181 1.409 . S
C1179 H1171 0.930 . S
C1179 C1180 1.355 . S
C1179 C1181 1.415 . S
C1180 C1179 1.355 . S
C1180 C1182 1.419 . S
C1181 C1176 1.425 . S
C1181 C1178 1.409 . S
C1181 C1179 1.415 . S
C1182 H1172 0.930 . S
C1182 C1180 1.419 . S
C1182 C1183 1.362 . S
C1183 H1173 0.930 . S
C1183 C1176 1.409 . S
C1183 C1182 1.362 . S
H1184 C1190 0.930 . S
H1185 C1193 0.930 . S
H1186 C1194 0.930 . S
H1187 C1195 0.930 . S
H1188 C1198 0.930 . S
H1189 C1199 0.930 . S
C1190 H1184 0.930 . S
C1190 C1191 1.355 . S
C1190 C1192 1.415 . S
C1191 C1190 1.355 . S
C1191 C1193 1.419 . S
C1192 C1190 1.415 . S
C1192 C1197 1.425 . S
C1192 C1199 1.409 . S
C1193 H1185 0.930 . S
C1193 C1191 1.419 . S
C1193 C1194 1.362 . S
C1194 H1186 0.930 . S
C1194 C1193 1.362 . S
C1194 C1197 1.409 . S
C1195 H1187 0.930 . S
C1195 C1196 1.355 . S
C1195 C1197 1.415 . S
C1196 C1195 1.355 . S
C1196 C1198 1.419 . S
C1197 C1192 1.425 . S
C1197 C1194 1.409 . S
C1197 C1195 1.415 . S
C1198 H1188 0.930 . S
C1198 C1196 1.419 . S
C1198 C1199 1.362 . S
C1199 H1189 0.930 . S
C1199 C1192 1.409 . S
C1199 C1198 1.362 . S
H1200 C1206 0.930 . S
H1201 C1209 0.930 . S
H1202 C1210 0.930 . S
H1203 C1211 0.930 . S
H1204 C1214 0.930 . S
H1205 C1215 0.930 . S
C1206 H1200 0.930 . S
C1206 C1207 1.355 . S
C1206 C1208 1.415 . S
C1207 C1206 1.355 . S
C1207 C1209 1.419 . S
C1208 C1206 1.415 . S
C1208 C1213 1.425 . S
C1208 C1215 1.409 . S
C1209 H1201 0.930 . S
C1209 C1207 1.419 . S
C1209 C1210 1.362 . S
C1210 H1202 0.930 . S
C1210 C1209 1.362 . S
C1210 C1213 1.409 . S
C1211 H1203 0.930 . S
C1211 C1212 1.355 . S
C1211 C1213 1.415 . S
C1212 C1211 1.355 . S
C1212 C1214 1.419 . S
C1213 C1208 1.425 . S
C1213 C1210 1.409 . S
C1213 C1211 1.415 . S
C1214 H1204 0.930 . S
C1214 C1212 1.419 . S
C1214 C1215 1.362 . S
C1215 H1205 0.930 . S
C1215 C1208 1.409 . S
C1215 C1214 1.362 . S
H1216 C1222 0.930 . S
H1217 C1225 0.930 . S
H1218 C1226 0.930 . S
H1219 C1227 0.930 . S
H1220 C1230 0.930 1_455 S
H1221 C1231 0.930 . S
C1222 H1216 0.930 . S
C1222 C1223 1.355 . S
C1222 C1224 1.415 . S
C1223 C1222 1.355 . S
C1223 C1225 1.419 . S
C1224 C1222 1.415 . S
C1224 C1229 1.425 . S
C1224 C1231 1.409 . S
C1225 H1217 0.930 . S
C1225 C1223 1.419 . S
C1225 C1226 1.362 . S
C1226 H1218 0.930 . S
C1226 C1225 1.362 . S
C1226 C1229 1.409 . S
C1227 H1219 0.930 . S
C1227 C1228 1.355 . S
C1227 C1229 1.415 . S
C1228 C1227 1.355 . S
C1228 C1230 1.419 . S
C1229 C1224 1.425 . S
C1229 C1226 1.409 . S
C1229 C1227 1.415 . S
C1230 H1220 0.930 1_655 S
C1230 C1228 1.419 . S
C1230 C1231 1.362 . S
C1231 H1221 0.930 . S
C1231 C1224 1.409 . S
C1231 C1230 1.362 . S
H1232 C1238 0.930 . S
H1233 C1241 0.930 . S
H1234 C1242 0.930 . S
H1235 C1243 0.930 . S
H1236 C1246 0.930 . S
H1237 C1247 0.930 . S
C1238 H1232 0.930 . S
C1238 C1239 1.355 . S
C1238 C1240 1.415 . S
C1239 C1238 1.355 . S
C1239 C1241 1.419 . S
C1240 C1238 1.415 . S
C1240 C1245 1.425 . S
C1240 C1247 1.409 . S
C1241 H1233 0.930 . S
C1241 C1239 1.419 . S
C1241 C1242 1.362 . S
C1242 H1234 0.930 . S
C1242 C1241 1.362 . S
C1242 C1245 1.409 . S
C1243 H1235 0.930 . S
C1243 C1244 1.355 . S
C1243 C1245 1.415 . S
C1244 C1243 1.355 . S
C1244 C1246 1.419 . S
C1245 C1240 1.425 . S
C1245 C1242 1.409 . S
C1245 C1243 1.415 . S
C1246 H1236 0.930 . S
C1246 C1244 1.419 . S
C1246 C1247 1.362 . S
C1247 H1237 0.930 . S
C1247 C1240 1.409 . S
C1247 C1246 1.362 . S
H1248 C1254 0.930 . S
H1249 C1257 0.930 . S
H1250 C1258 0.930 . S
H1251 C1259 0.930 . S
H1252 C1262 0.930 . S
H1253 C1263 0.930 . S
C1254 H1248 0.930 . S
C1254 C1255 1.355 1_565 S
C1254 C1256 1.415 . S
C1255 C1254 1.355 1_545 S
C1255 C1257 1.419 . S
C1256 C1254 1.415 . S
C1256 C1261 1.425 . S
C1256 C1263 1.409 . S
C1257 H1249 0.930 . S
C1257 C1255 1.419 . S
C1257 C1258 1.362 . S
C1258 H1250 0.930 . S
C1258 C1257 1.362 . S
C1258 C1261 1.409 1_545 S
C1259 H1251 0.930 . S
C1259 C1260 1.355 . S
C1259 C1261 1.415 . S
C1260 C1259 1.355 . S
C1260 C1262 1.419 . S
C1261 C1256 1.425 . S
C1261 C1258 1.409 1_565 S
C1261 C1259 1.415 . S
C1262 H1252 0.930 . S
C1262 C1260 1.419 . S
C1262 C1263 1.362 . S
C1263 H1253 0.930 . S
C1263 C1256 1.409 . S
C1263 C1262 1.362 . S
H1264 C1270 0.930 . S
H1265 C1273 0.930 . S
H1266 C1274 0.930 . S
H1267 C1275 0.930 . S
H1268 C1278 0.930 . S
H1269 C1279 0.930 . S
C1270 H1264 0.930 . S
C1270 C1271 1.355 . S
C1270 C1272 1.415 . S
C1271 C1270 1.355 . S
C1271 C1273 1.419 . S
C1272 C1270 1.415 . S
C1272 C1277 1.425 . S
C1272 C1279 1.409 . S
C1273 H1265 0.930 . S
C1273 C1271 1.419 . S
C1273 C1274 1.362 . S
C1274 H1266 0.930 . S
C1274 C1273 1.362 . S
C1274 C1277 1.409 . S
C1275 H1267 0.930 . S
C1275 C1276 1.355 . S
C1275 C1277 1.415 . S
C1276 C1275 1.355 . S
C1276 C1278 1.419 . S
C1277 C1272 1.425 . S
C1277 C1274 1.409 . S
C1277 C1275 1.415 . S
C1278 H1268 0.930 . S
C1278 C1276 1.419 . S
C1278 C1279 1.362 . S
C1279 H1269 0.930 . S
C1279 C1272 1.409 . S
C1279 C1278 1.362 . S
H1280 C1286 0.930 . S
H1281 C1289 0.930 . S
H1282 C1290 0.930 . S
H1283 C1291 0.930 . S
H1284 C1294 0.930 . S
H1285 C1295 0.930 . S
C1286 H1280 0.930 . S
C1286 C1287 1.355 1_565 S
C1286 C1288 1.415 . S
C1287 C1286 1.355 1_545 S
C1287 C1289 1.419 . S
C1288 C1286 1.415 . S
C1288 C1293 1.425 1_565 S
C1288 C1295 1.409 . S
C1289 H1281 0.930 . S
C1289 C1287 1.419 . S
C1289 C1290 1.362 . S
C1290 H1282 0.930 . S
C1290 C1289 1.362 . S
C1290 C1293 1.409 . S
C1291 H1283 0.930 . S
C1291 C1292 1.355 1_545 S
C1291 C1293 1.415 . S
C1292 C1291 1.355 1_565 S
C1292 C1294 1.419 . S
C1293 C1288 1.425 1_545 S
C1293 C1290 1.409 . S
C1293 C1291 1.415 . S
C1294 H1284 0.930 . S
C1294 C1292 1.419 . S
C1294 C1295 1.362 . S
C1295 H1285 0.930 . S
C1295 C1288 1.409 . S
C1295 C1294 1.362 . S
H1296 C1302 0.930 . S
H1297 C1305 0.930 . S
H1298 C1306 0.930 . S
H1299 C1307 0.930 . S
H1300 C1310 0.930 . S
H1301 C1311 0.930 . S
C1302 H1296 0.930 . S
C1302 C1303 1.355 . S
C1302 C1304 1.415 . S
C1303 C1302 1.355 . S
C1303 C1305 1.419 . S
C1304 C1302 1.415 . S
C1304 C1309 1.425 . S
C1304 C1311 1.409 . S
C1305 H1297 0.930 . S
C1305 C1303 1.419 . S
C1305 C1306 1.362 . S
C1306 H1298 0.930 . S
C1306 C1305 1.362 . S
C1306 C1309 1.409 . S
C1307 H1299 0.930 . S
C1307 C1308 1.355 . S
C1307 C1309 1.415 . S
C1308 C1307 1.355 . S
C1308 C1310 1.419 . S
C1309 C1304 1.425 . S
C1309 C1306 1.409 . S
C1309 C1307 1.415 . S
C1310 H1300 0.930 . S
C1310 C1308 1.419 . S
C1310 C1311 1.362 . S
C1311 H1301 0.930 . S
C1311 C1304 1.409 . S
C1311 C1310 1.362 . S
H1312 C1318 0.930 . S
H1313 C1321 0.930 . S
H1314 C1322 0.930 . S
H1315 C1323 0.930 1_565 S
H1316 C1326 0.930 . S
H1317 C1327 0.930 . S
C1318 H1312 0.930 . S
C1318 C1319 1.374 . S
C1318 C1320 1.415 . S
C1319 C1318 1.374 . S
C1319 C1321 1.401 1_545 S
C1320 C1318 1.415 . S
C1320 C1325 1.425 . S
C1320 C1327 1.409 . S
C1321 H1313 0.930 . S
C1321 C1319 1.401 1_565 S
C1321 C1322 1.362 . S
C1322 H1314 0.930 . S
C1322 C1321 1.362 . S
C1322 C1325 1.409 1_565 S
C1323 H1315 0.930 1_545 S
C1323 C1324 1.355 . S
C1323 C1325 1.415 . S
C1324 C1323 1.355 . S
C1324 C1326 1.419 . S
C1325 C1320 1.425 . S
C1325 C1322 1.409 1_545 S
C1325 C1323 1.415 . S
C1326 H1316 0.930 . S
C1326 C1324 1.419 . S
C1326 C1327 1.362 . S
C1327 H1317 0.930 . S
C1327 C1320 1.409 . S
C1327 C1326 1.362 . S
H1328 C1334 0.930 . S
H1329 C1337 0.930 . S
H1330 C1338 0.930 . S
H1331 C1339 0.930 . S
H1332 C1342 0.930 . S
H1333 C1343 0.930 . S
C1334 H1328 0.930 . S
C1334 C1335 1.355 . S
C1334 C1336 1.415 . S
C1335 C1334 1.355 . S
C1335 C1337 1.419 . S
C1336 C1334 1.415 . S
C1336 C1341 1.425 . S
C1336 C1343 1.409 . S
C1337 H1329 0.930 . S
C1337 C1335 1.419 . S
C1337 C1338 1.362 . S
C1338 H1330 0.930 . S
C1338 C1337 1.362 . S
C1338 C1341 1.409 . S
C1339 H1331 0.930 . S
C1339 C1340 1.355 . S
C1339 C1341 1.415 . S
C1340 C1339 1.355 . S
C1340 C1342 1.419 . S
C1341 C1336 1.425 . S
C1341 C1338 1.409 . S
C1341 C1339 1.415 . S
C1342 H1332 0.930 . S
C1342 C1340 1.419 . S
C1342 C1343 1.362 . S
C1343 H1333 0.930 . S
C1343 C1336 1.409 . S
C1343 C1342 1.362 . S
H1344 C1350 0.930 . S
H1345 C1353 0.930 . S
H1346 C1354 0.930 . S
H1347 C1355 0.930 . S
H1348 C1358 0.930 . S
H1349 C1359 0.930 . S
C1350 H1344 0.930 . S
C1350 C1351 1.355 . S
C1350 C1352 1.415 . S
C1351 C1350 1.355 . S
C1351 C1353 1.419 1_554 S
C1352 C1350 1.415 . S
C1352 C1357 1.425 . S
C1352 C1359 1.409 . S
C1353 H1345 0.930 . S
C1353 C1351 1.419 1_556 S
C1353 C1354 1.362 . S
C1354 H1346 0.930 . S
C1354 C1353 1.362 . S
C1354 C1357 1.409 1_556 S
C1355 H1347 0.930 . S
C1355 C1356 1.355 . S
C1355 C1357 1.415 . S
C1356 C1355 1.355 . S
C1356 C1358 1.419 . S
C1357 C1352 1.425 . S
C1357 C1354 1.409 1_554 S
C1357 C1355 1.415 . S
C1358 H1348 0.930 . S
C1358 C1356 1.419 . S
C1358 C1359 1.362 . S
C1359 H1349 0.930 . S
C1359 C1352 1.409 . S
C1359 C1358 1.362 . S
H1360 C1366 0.930 . S
H1361 C1369 0.930 . S
H1362 C1370 0.930 . S
H1363 C1371 0.930 . S
H1364 C1374 0.930 . S
H1365 C1375 0.930 . S
C1366 H1360 0.930 . S
C1366 C1367 1.355 . S
C1366 C1368 1.415 . S
C1367 C1366 1.355 . S
C1367 C1369 1.419 1_554 S
C1368 C1366 1.415 . S
C1368 C1373 1.425 1_554 S
C1368 C1375 1.409 . S
C1369 H1361 0.930 . S
C1369 C1367 1.419 1_556 S
C1369 C1370 1.362 . S
C1370 H1362 0.930 . S
C1370 C1369 1.362 . S
C1370 C1373 1.409 . S
C1371 H1363 0.930 . S
C1371 C1372 1.355 . S
C1371 C1373 1.415 . S
C1372 C1371 1.355 . S
C1372 C1374 1.419 1_556 S
C1373 C1368 1.425 1_556 S
C1373 C1370 1.409 . S
C1373 C1371 1.415 . S
C1374 H1364 0.930 . S
C1374 C1372 1.419 1_554 S
C1374 C1375 1.362 . S
C1375 H1365 0.930 . S
C1375 C1368 1.409 . S
C1375 C1374 1.362 . S
H1376 C1382 0.930 . S
H1377 C1385 0.930 . S
H1378 C1386 0.930 . S
H1379 C1387 0.930 . S
H1380 C1390 0.930 . S
H1381 C1391 0.930 . S
C1382 H1376 0.930 . S
C1382 C1383 1.355 . S
C1382 C1384 1.415 . S
C1383 C1382 1.355 . S
C1383 C1385 1.419 . S
C1384 C1382 1.415 . S
C1384 C1389 1.425 . S
C1384 C1391 1.409 . S
C1385 H1377 0.930 . S
C1385 C1383 1.419 . S
C1385 C1386 1.362 . S
C1386 H1378 0.930 . S
C1386 C1385 1.362 . S
C1386 C1389 1.409 . S
C1387 H1379 0.930 . S
C1387 C1388 1.355 . S
C1387 C1389 1.415 . S
C1388 C1387 1.355 . S
C1388 C1390 1.419 . S
C1389 C1384 1.425 . S
C1389 C1386 1.409 . S
C1389 C1387 1.415 . S
C1390 H1380 0.930 . S
C1390 C1388 1.419 . S
C1390 C1391 1.362 . S
C1391 H1381 0.930 . S
C1391 C1384 1.409 . S
C1391 C1390 1.362 . S
H1392 C1398 0.930 . S
H1393 C1401 0.930 . S
H1394 C1402 0.930 . S
H1395 C1403 0.930 . S
H1396 C1406 0.930 . S
H1397 C1407 0.930 . S
C1398 H1392 0.930 . S
C1398 C1399 1.355 . S
C1398 C1400 1.415 . S
C1399 C1398 1.355 . S
C1399 C1401 1.419 . S
C1400 C1398 1.415 . S
C1400 C1405 1.425 . S
C1400 C1407 1.409 . S
C1401 H1393 0.930 . S
C1401 C1399 1.419 . S
C1401 C1402 1.362 . S
C1402 H1394 0.930 . S
C1402 C1401 1.362 . S
C1402 C1405 1.409 . S
C1403 H1395 0.930 . S
C1403 C1404 1.355 . S
C1403 C1405 1.415 . S
C1404 C1403 1.355 . S
C1404 C1406 1.419 . S
C1405 C1400 1.425 . S
C1405 C1402 1.409 . S
C1405 C1403 1.415 . S
C1406 H1396 0.930 . S
C1406 C1404 1.419 . S
C1406 C1407 1.362 . S
C1407 H1397 0.930 . S
C1407 C1400 1.409 . S
C1407 C1406 1.362 . S
H1408 C1414 0.930 . S
H1409 C1417 0.930 . S
H1410 C1418 0.930 . S
H1411 C1419 0.930 . S
H1412 C1422 0.930 . S
H1413 C1423 0.930 . S
C1414 H1408 0.930 . S
C1414 C1415 1.355 . S
C1414 C1416 1.415 . S
C1415 C1414 1.355 . S
C1415 C1417 1.419 . S
C1416 C1414 1.415 . S
C1416 C1421 1.425 . S
C1416 C1423 1.409 . S
C1417 H1409 0.930 . S
C1417 C1415 1.419 . S
C1417 C1418 1.362 . S
C1418 H1410 0.930 . S
C1418 C1417 1.362 . S
C1418 C1421 1.409 . S
C1419 H1411 0.930 . S
C1419 C1420 1.355 . S
C1419 C1421 1.415 . S
C1420 C1419 1.355 . S
C1420 C1422 1.419 . S
C1421 C1416 1.425 . S
C1421 C1418 1.409 . S
C1421 C1419 1.415 . S
C1422 H1412 0.930 . S
C1422 C1420 1.419 . S
C1422 C1423 1.362 . S
C1423 H1413 0.930 . S
C1423 C1416 1.409 . S
C1423 C1422 1.362 . S
H1424 C1430 0.930 . S
H1425 C1433 0.930 . S
H1426 C1434 0.930 . S
H1427 C1435 0.930 . S
H1428 C1438 0.930 . S
H1429 C1439 0.930 . S
C1430 H1424 0.930 . S
C1430 C1431 1.355 . S
C1430 C1432 1.415 . S
C1431 C1430 1.355 . S
C1431 C1433 1.419 . S
C1432 C1430 1.415 . S
C1432 C1437 1.425 . S
C1432 C1439 1.409 . S
C1433 H1425 0.930 . S
C1433 C1431 1.419 . S
C1433 C1434 1.362 . S
C1434 H1426 0.930 . S
C1434 C1433 1.362 . S
C1434 C1437 1.409 . S
C1435 H1427 0.930 . S
C1435 C1436 1.355 . S
C1435 C1437 1.415 . S
C1436 C1435 1.355 . S
C1436 C1438 1.419 . S
C1437 C1432 1.425 . S
C1437 C1434 1.409 . S
C1437 C1435 1.415 . S
C1438 H1428 0.930 . S
C1438 C1436 1.419 . S
C1438 C1439 1.362 . S
C1439 H1429 0.930 . S
C1439 C1432 1.409 . S
C1439 C1438 1.362 . S
H1440 C1446 0.930 . S
H1441 C1449 0.930 . S
H1442 C1450 0.930 . S
H1443 C1451 0.930 . S
H1444 C1454 0.930 . S
H1445 C1455 0.930 . S
C1446 H1440 0.930 . S
C1446 C1447 1.355 . S
C1446 C1448 1.415 . S
C1447 C1446 1.355 . S
C1447 C1449 1.419 . S
C1448 C1446 1.415 . S
C1448 C1453 1.425 . S
C1448 C1455 1.409 . S
C1449 H1441 0.930 . S
C1449 C1447 1.419 . S
C1449 C1450 1.362 . S
C1450 H1442 0.930 . S
C1450 C1449 1.362 . S
C1450 C1453 1.409 . S
C1451 H1443 0.930 . S
C1451 C1452 1.355 . S
C1451 C1453 1.415 . S
C1452 C1451 1.355 . S
C1452 C1454 1.419 . S
C1453 C1448 1.425 . S
C1453 C1450 1.409 . S
C1453 C1451 1.415 . S
C1454 H1444 0.930 . S
C1454 C1452 1.419 . S
C1454 C1455 1.362 . S
C1455 H1445 0.930 . S
C1455 C1448 1.409 . S
C1455 C1454 1.362 . S
H1456 C1462 0.930 . S
H1457 C1465 0.930 . S
H1458 C1466 0.930 . S
H1459 C1467 0.930 . S
H1460 C1470 0.930 . S
H1461 C1471 0.930 . S
C1462 H1456 0.930 . S
C1462 C1463 1.355 . S
C1462 C1464 1.415 . S
C1463 C1462 1.355 . S
C1463 C1465 1.419 . S
C1464 C1462 1.415 . S
C1464 C1469 1.425 . S
C1464 C1471 1.409 . S
C1465 H1457 0.930 . S
C1465 C1463 1.419 . S
C1465 C1466 1.362 . S
C1466 H1458 0.930 . S
C1466 C1465 1.362 . S
C1466 C1469 1.409 . S
C1467 H1459 0.930 . S
C1467 C1468 1.355 . S
C1467 C1469 1.415 . S
C1468 C1467 1.355 . S
C1468 C1470 1.419 . S
C1469 C1464 1.425 . S
C1469 C1466 1.409 . S
C1469 C1467 1.415 . S
C1470 H1460 0.930 . S
C1470 C1468 1.419 . S
C1470 C1471 1.362 . S
C1471 H1461 0.930 . S
C1471 C1464 1.409 . S
C1471 C1470 1.362 . S
H1472 C1478 0.930 . S
H1473 C1481 0.930 . S
H1474 C1482 0.930 . S
H1475 C1483 0.930 . S
H1476 C1486 0.930 . S
H1477 C1487 0.930 . S
C1478 H1472 0.930 . S
C1478 C1479 1.355 . S
C1478 C1480 1.415 . S
C1479 C1478 1.355 . S
C1479 C1481 1.419 . S
C1480 C1478 1.415 . S
C1480 C1485 1.425 . S
C1480 C1487 1.409 . S
C1481 H1473 0.930 . S
C1481 C1479 1.419 . S
C1481 C1482 1.362 . S
C1482 H1474 0.930 . S
C1482 C1481 1.362 . S
C1482 C1485 1.409 . S
C1483 H1475 0.930 . S
C1483 C1484 1.355 . S
C1483 C1485 1.415 . S
C1484 C1483 1.355 . S
C1484 C1486 1.419 . S
C1485 C1480 1.425 . S
C1485 C1482 1.409 . S
C1485 C1483 1.415 . S
C1486 H1476 0.930 . S
C1486 C1484 1.419 . S
C1486 C1487 1.362 . S
C1487 H1477 0.930 . S
C1487 C1480 1.409 . S
C1487 C1486 1.362 . S
H1488 C1494 0.930 . S
H1489 C1497 0.930 . S
H1490 C1498 0.930 . S
H1491 C1499 0.930 . S
H1492 C1502 0.930 . S
H1493 C1503 0.930 . S
C1494 H1488 0.930 . S
C1494 C1495 1.355 . S
C1494 C1496 1.415 . S
C1495 C1494 1.355 . S
C1495 C1497 1.419 . S
C1496 C1494 1.415 . S
C1496 C1501 1.425 . S
C1496 C1503 1.409 . S
C1497 H1489 0.930 . S
C1497 C1495 1.419 . S
C1497 C1498 1.362 . S
C1498 H1490 0.930 . S
C1498 C1497 1.362 . S
C1498 C1501 1.409 . S
C1499 H1491 0.930 . S
C1499 C1500 1.355 . S
C1499 C1501 1.415 . S
C1500 C1499 1.355 . S
C1500 C1502 1.419 . S
C1501 C1496 1.425 . S
C1501 C1498 1.409 . S
C1501 C1499 1.415 . S
C1502 H1492 0.930 . S
C1502 C1500 1.419 . S
C1502 C1503 1.362 . S
C1503 H1493 0.930 . S
C1503 C1496 1.409 . S
C1503 C1502 1.362 . S
H1504 C1510 0.930 . S
H1505 C1513 0.930 . S
H1506 C1514 0.930 . S
H1507 C1515 0.930 . S
H1508 C1518 0.930 . S
H1509 C1519 0.930 . S
C1510 H1504 0.930 . S
C1510 C1511 1.355 . S
C1510 C1512 1.415 . S
C1511 C1510 1.355 . S
C1511 C1513 1.419 1_455 S
C1512 C1510 1.415 . S
C1512 C1517 1.425 . S
C1512 C1519 1.409 . S
C1513 H1505 0.930 . S
C1513 C1511 1.419 1_655 S
C1513 C1514 1.362 . S
C1514 H1506 0.930 . S
C1514 C1513 1.362 . S
C1514 C1517 1.409 1_655 S
C1515 H1507 0.930 . S
C1515 C1516 1.355 . S
C1515 C1517 1.415 . S
C1516 C1515 1.355 . S
C1516 C1518 1.419 . S
C1517 C1512 1.425 . S
C1517 C1514 1.409 1_455 S
C1517 C1515 1.415 . S
C1518 H1508 0.930 . S
C1518 C1516 1.419 . S
C1518 C1519 1.362 . S
C1519 H1509 0.930 . S
C1519 C1512 1.409 . S
C1519 C1518 1.362 . S
H1520 C1526 0.930 . S
H1521 C1529 0.930 . S
H1522 C1530 0.930 . S
H1523 C1531 0.930 . S
H1524 C1534 0.930 . S
H1525 C1535 0.930 . S
C1526 H1520 0.930 . S
C1526 C1527 1.355 . S
C1526 C1528 1.415 . S
C1527 C1526 1.355 . S
C1527 C1529 1.419 . S
C1528 C1526 1.415 . S
C1528 C1533 1.425 . S
C1528 C1535 1.409 . S
C1529 H1521 0.930 . S
C1529 C1527 1.419 . S
C1529 C1530 1.362 . S
C1530 H1522 0.930 . S
C1530 C1529 1.362 . S
C1530 C1533 1.409 . S
C1531 H1523 0.930 . S
C1531 C1532 1.355 . S
C1531 C1533 1.415 . S
C1532 C1531 1.355 . S
C1532 C1534 1.419 . S
C1533 C1528 1.425 . S
C1533 C1530 1.409 . S
C1533 C1531 1.415 . S
C1534 H1524 0.930 . S
C1534 C1532 1.419 . S
C1534 C1535 1.362 . S
C1535 H1525 0.930 . S
C1535 C1528 1.409 . S
C1535 C1534 1.362 . S
H1536 C1542 0.930 . S
H1537 C1545 0.930 . S
H1538 C1546 0.930 . S
H1539 C1547 0.930 . S
H1540 C1550 0.930 . S
H1541 C1551 0.930 . S
C1542 H1536 0.930 . S
C1542 C1543 1.355 . S
C1542 C1544 1.415 . S
C1543 C1542 1.355 . S
C1543 C1545 1.419 . S
C1544 C1542 1.415 . S
C1544 C1549 1.425 . S
C1544 C1551 1.409 . S
C1545 H1537 0.930 . S
C1545 C1543 1.419 . S
C1545 C1546 1.362 . S
C1546 H1538 0.930 . S
C1546 C1545 1.362 . S
C1546 C1549 1.409 . S
C1547 H1539 0.930 . S
C1547 C1548 1.355 . S
C1547 C1549 1.415 . S
C1548 C1547 1.355 . S
C1548 C1550 1.419 1_556 S
C1549 C1544 1.425 . S
C1549 C1546 1.409 . S
C1549 C1547 1.415 . S
C1550 H1540 0.930 . S
C1550 C1548 1.419 1_554 S
C1550 C1551 1.362 1_554 S
C1551 H1541 0.930 . S
C1551 C1544 1.409 . S
C1551 C1550 1.362 1_556 S
H1552 C1558 0.930 . S
H1553 C1561 0.930 . S
H1554 C1562 0.930 . S
H1555 C1563 0.930 . S
H1556 C1566 0.930 . S
H1557 C1567 0.930 . S
C1558 H1552 0.930 . S
C1558 C1559 1.355 . S
C1558 C1560 1.415 . S
C1559 C1558 1.355 . S
C1559 C1561 1.419 . S
C1560 C1558 1.415 . S
C1560 C1565 1.425 . S
C1560 C1567 1.409 . S
C1561 H1553 0.930 . S
C1561 C1559 1.419 . S
C1561 C1562 1.362 . S
C1562 H1554 0.930 . S
C1562 C1561 1.362 . S
C1562 C1565 1.409 . S
C1563 H1555 0.930 . S
C1563 C1564 1.355 . S
C1563 C1565 1.415 . S
C1564 C1563 1.355 . S
C1564 C1566 1.419 . S
C1565 C1560 1.425 . S
C1565 C1562 1.409 . S
C1565 C1563 1.415 . S
C1566 H1556 0.930 . S
C1566 C1564 1.419 . S
C1566 C1567 1.362 . S
C1567 H1557 0.930 . S
C1567 C1560 1.409 . S
C1567 C1566 1.362 . S
H1568 C1574 0.930 . S
H1569 C1577 0.930 . S
H1570 C1578 0.930 . S
H1571 C1579 0.930 . S
H1572 C1582 0.930 . S
H1573 C1583 0.930 . S
C1574 H1568 0.930 . S
C1574 C1575 1.355 . S
C1574 C1576 1.415 . S
C1575 C1574 1.355 . S
C1575 C1577 1.419 . S
C1576 C1574 1.415 . S
C1576 C1581 1.425 . S
C1576 C1583 1.409 . S
C1577 H1569 0.930 . S
C1577 C1575 1.419 . S
C1577 C1578 1.362 . S
C1578 H1570 0.930 . S
C1578 C1577 1.362 . S
C1578 C1581 1.409 . S
C1579 H1571 0.930 . S
C1579 C1580 1.355 . S
C1579 C1581 1.415 . S
C1580 C1579 1.355 . S
C1580 C1582 1.419 . S
C1581 C1576 1.425 . S
C1581 C1578 1.409 . S
C1581 C1579 1.415 . S
C1582 H1572 0.930 . S
C1582 C1580 1.419 . S
C1582 C1583 1.362 . S
C1583 H1573 0.930 . S
C1583 C1576 1.409 . S
C1583 C1582 1.362 . S
H1584 C1590 0.930 . S
H1585 C1593 0.930 . S
H1586 C1594 0.930 . S
H1587 C1595 0.930 . S
H1588 C1598 0.930 . S
H1589 C1599 0.930 . S
C1590 H1584 0.930 . S
C1590 C1591 1.355 . S
C1590 C1592 1.415 . S
C1591 C1590 1.355 . S
C1591 C1593 1.419 . S
C1592 C1590 1.415 . S
C1592 C1597 1.425 . S
C1592 C1599 1.409 . S
C1593 H1585 0.930 . S
C1593 C1591 1.419 . S
C1593 C1594 1.362 . S
C1594 H1586 0.930 . S
C1594 C1593 1.362 . S
C1594 C1597 1.409 . S
C1595 H1587 0.930 . S
C1595 C1596 1.355 . S
C1595 C1597 1.415 . S
C1596 C1595 1.355 . S
C1596 C1598 1.419 . S
C1597 C1592 1.425 . S
C1597 C1594 1.409 . S
C1597 C1595 1.415 . S
C1598 H1588 0.930 . S
C1598 C1596 1.419 . S
C1598 C1599 1.362 . S
C1599 H1589 0.930 . S
C1599 C1592 1.409 . S
C1599 C1598 1.362 . S
H1600 C1606 0.930 . S
H1601 C1609 0.930 . S
H1602 C1610 0.930 . S
H1603 C1611 0.930 . S
H1604 C1614 0.930 . S
H1605 C1615 0.930 . S
C1606 H1600 0.930 . S
C1606 C1607 1.355 . S
C1606 C1608 1.415 . S
C1607 C1606 1.355 . S
C1607 C1609 1.419 . S
C1608 C1606 1.415 . S
C1608 C1613 1.425 . S
C1608 C1615 1.409 . S
C1609 H1601 0.930 . S
C1609 C1607 1.419 . S
C1609 C1610 1.362 . S
C1610 H1602 0.930 . S
C1610 C1609 1.362 . S
C1610 C1613 1.409 . S
C1611 H1603 0.930 . S
C1611 C1612 1.355 . S
C1611 C1613 1.415 . S
C1612 C1611 1.355 . S
C1612 C1614 1.419 . S
C1613 C1608 1.425 . S
C1613 C1610 1.409 . S
C1613 C1611 1.415 . S
C1614 H1604 0.930 . S
C1614 C1612 1.419 . S
C1614 C1615 1.362 . S
C1615 H1605 0.930 . S
C1615 C1608 1.409 . S
C1615 C1614 1.362 . S
H1616 C1622 0.930 . S
H1617 C1625 0.930 . S
H1618 C1626 0.930 . S
H1619 C1627 0.930 . S
H1620 C1630 0.930 . S
H1621 C1631 0.930 . S
C1622 H1616 0.930 . S
C1622 C1623 1.355 . S
C1622 C1624 1.415 . S
C1623 C1622 1.355 . S
C1623 C1625 1.419 . S
C1624 C1622 1.415 . S
C1624 C1629 1.425 . S
C1624 C1631 1.409 . S
C1625 H1617 0.930 . S
C1625 C1623 1.419 . S
C1625 C1626 1.362 . S
C1626 H1618 0.930 . S
C1626 C1625 1.362 . S
C1626 C1629 1.409 . S
C1627 H1619 0.930 . S
C1627 C1628 1.355 . S
C1627 C1629 1.415 . S
C1628 C1627 1.355 . S
C1628 C1630 1.419 . S
C1629 C1624 1.425 . S
C1629 C1626 1.409 . S
C1629 C1627 1.415 . S
C1630 H1620 0.930 . S
C1630 C1628 1.419 . S
C1630 C1631 1.362 . S
C1631 H1621 0.930 . S
C1631 C1624 1.409 . S
C1631 C1630 1.362 . S
H1632 C1638 0.930 . S
H1633 C1641 0.930 . S
H1634 C1642 0.930 . S
H1635 C1643 0.930 . S
H1636 C1646 0.930 . S
H1637 C1647 0.930 . S
C1638 H1632 0.930 . S
C1638 C1639 1.355 . S
C1638 C1640 1.415 . S
C1639 C1638 1.355 . S
C1639 C1641 1.419 . S
C1640 C1638 1.415 . S
C1640 C1645 1.425 . S
C1640 C1647 1.409 . S
C1641 H1633 0.930 . S
C1641 C1639 1.419 . S
C1641 C1642 1.362 . S
C1642 H1634 0.930 . S
C1642 C1641 1.362 . S
C1642 C1645 1.409 . S
C1643 H1635 0.930 . S
C1643 C1644 1.355 . S
C1643 C1645 1.415 . S
C1644 C1643 1.355 . S
C1644 C1646 1.419 . S
C1645 C1640 1.425 . S
C1645 C1642 1.409 . S
C1645 C1643 1.415 . S
C1646 H1636 0.930 . S
C1646 C1644 1.419 . S
C1646 C1647 1.362 . S
C1647 H1637 0.930 . S
C1647 C1640 1.409 . S
C1647 C1646 1.362 . S
H1648 C1654 0.930 . S
H1649 C1657 0.930 . S
H1650 C1658 0.930 . S
H1651 C1659 0.930 . S
H1652 C1662 0.930 . S
H1653 C1663 0.930 . S
C1654 H1648 0.930 . S
C1654 C1655 1.355 . S
C1654 C1656 1.415 . S
C1655 C1654 1.355 . S
C1655 C1657 1.419 . S
C1656 C1654 1.415 . S
C1656 C1661 1.425 . S
C1656 C1663 1.409 . S
C1657 H1649 0.930 . S
C1657 C1655 1.419 . S
C1657 C1658 1.362 . S
C1658 H1650 0.930 . S
C1658 C1657 1.362 . S
C1658 C1661 1.409 . S
C1659 H1651 0.930 . S
C1659 C1660 1.355 . S
C1659 C1661 1.415 . S
C1660 C1659 1.355 . S
C1660 C1662 1.419 . S
C1661 C1656 1.425 . S
C1661 C1658 1.409 . S
C1661 C1659 1.415 . S
C1662 H1652 0.930 . S
C1662 C1660 1.419 . S
C1662 C1663 1.362 . S
C1663 H1653 0.930 . S
C1663 C1656 1.409 . S
C1663 C1662 1.362 . S
H1664 C1670 0.930 . S
H1665 C1673 0.930 . S
H1666 C1674 0.930 . S
H1667 C1675 0.930 . S
H1668 C1678 0.930 . S
H1669 C1679 0.930 . S
C1670 H1664 0.930 . S
C1670 C1671 1.355 . S
C1670 C1672 1.415 . S
C1671 C1670 1.355 . S
C1671 C1673 1.419 . S
C1672 C1670 1.415 . S
C1672 C1677 1.425 . S
C1672 C1679 1.409 . S
C1673 H1665 0.930 . S
C1673 C1671 1.419 . S
C1673 C1674 1.362 . S
C1674 H1666 0.930 . S
C1674 C1673 1.362 . S
C1674 C1677 1.409 . S
C1675 H1667 0.930 . S
C1675 C1676 1.355 . S
C1675 C1677 1.415 . S
C1676 C1675 1.355 . S
C1676 C1678 1.419 . S
C1677 C1672 1.425 . S
C1677 C1674 1.409 . S
C1677 C1675 1.415 . S
C1678 H1668 0.930 . S
C1678 C1676 1.419 . S
C1678 C1679 1.362 . S
C1679 H1669 0.930 . S
C1679 C1672 1.409 . S
C1679 C1678 1.362 . S
H1680 C1686 0.930 . S
H1681 C1689 0.930 . S
H1682 C1690 0.930 . S
H1683 C1691 0.930 . S
H1684 C1694 0.930 . S
H1685 C1695 0.930 . S
C1686 H1680 0.930 . S
C1686 C1687 1.355 . S
C1686 C1688 1.415 . S
C1687 C1686 1.355 . S
C1687 C1689 1.419 . S
C1688 C1686 1.415 . S
C1688 C1693 1.425 . S
C1688 C1695 1.409 . S
C1689 H1681 0.930 . S
C1689 C1687 1.419 . S
C1689 C1690 1.362 . S
C1690 H1682 0.930 . S
C1690 C1689 1.362 . S
C1690 C1693 1.409 . S
C1691 H1683 0.930 . S
C1691 C1692 1.355 . S
C1691 C1693 1.415 . S
C1692 C1691 1.355 . S
C1692 C1694 1.419 . S
C1693 C1688 1.425 . S
C1693 C1690 1.409 . S
C1693 C1691 1.415 . S
C1694 H1684 0.930 . S
C1694 C1692 1.419 . S
C1694 C1695 1.362 . S
C1695 H1685 0.930 . S
C1695 C1688 1.409 . S
C1695 C1694 1.362 . S
H1696 C1702 0.930 . S
H1697 C1705 0.930 . S
H1698 C1706 0.930 . S
H1699 C1707 0.930 . S
H1700 C1710 0.930 . S
H1701 C1711 0.930 . S
C1702 H1696 0.930 . S
C1702 C1703 1.355 . S
C1702 C1704 1.415 . S
C1703 C1702 1.355 . S
C1703 C1705 1.419 . S
C1704 C1702 1.415 . S
C1704 C1709 1.425 . S
C1704 C1711 1.409 . S
C1705 H1697 0.930 . S
C1705 C1703 1.419 . S
C1705 C1706 1.362 . S
C1706 H1698 0.930 . S
C1706 C1705 1.362 . S
C1706 C1709 1.409 . S
C1707 H1699 0.930 . S
C1707 C1708 1.355 . S
C1707 C1709 1.415 . S
C1708 C1707 1.355 . S
C1708 C1710 1.419 . S
C1709 C1704 1.425 . S
C1709 C1706 1.409 . S
C1709 C1707 1.415 . S
C1710 H1700 0.930 . S
C1710 C1708 1.419 . S
C1710 C1711 1.362 . S
C1711 H1701 0.930 . S
C1711 C1704 1.409 . S
C1711 C1710 1.362 . S
H1712 C1718 0.930 . S
H1713 C1721 0.930 . S
H1714 C1722 0.930 . S
H1715 C1723 0.930 . S
H1716 C1726 0.930 . S
H1717 C1727 0.930 . S
C1718 H1712 0.930 . S
C1718 C1719 1.355 . S
C1718 C1720 1.415 . S
C1719 C1718 1.355 . S
C1719 C1721 1.419 . S
C1720 C1718 1.415 . S
C1720 C1725 1.425 . S
C1720 C1727 1.409 . S
C1721 H1713 0.930 . S
C1721 C1719 1.419 . S
C1721 C1722 1.362 . S
C1722 H1714 0.930 . S
C1722 C1721 1.362 . S
C1722 C1725 1.409 . S
C1723 H1715 0.930 . S
C1723 C1724 1.355 . S
C1723 C1725 1.415 . S
C1724 C1723 1.355 . S
C1724 C1726 1.419 . S
C1725 C1720 1.425 . S
C1725 C1722 1.409 . S
C1725 C1723 1.415 . S
C1726 H1716 0.930 . S
C1726 C1724 1.419 . S
C1726 C1727 1.362 . S
C1727 H1717 0.930 . S
C1727 C1720 1.409 . S
C1727 C1726 1.362 . S
H1728 C1734 0.930 . S
H1729 C1737 0.930 . S
H1730 C1738 0.930 . S
H1731 C1739 0.930 . S
H1732 C1742 0.930 . S
H1733 C1743 0.930 . S
C1734 H1728 0.930 . S
C1734 C1735 1.355 . S
C1734 C1736 1.415 . S
C1735 C1734 1.355 . S
C1735 C1737 1.419 . S
C1736 C1734 1.415 . S
C1736 C1741 1.425 . S
C1736 C1743 1.409 . S
C1737 H1729 0.930 . S
C1737 C1735 1.419 . S
C1737 C1738 1.362 . S
C1738 H1730 0.930 . S
C1738 C1737 1.362 . S
C1738 C1741 1.409 . S
C1739 H1731 0.930 . S
C1739 C1740 1.355 . S
C1739 C1741 1.415 . S
C1740 C1739 1.355 . S
C1740 C1742 1.419 . S
C1741 C1736 1.425 . S
C1741 C1738 1.409 . S
C1741 C1739 1.415 . S
C1742 H1732 0.930 . S
C1742 C1740 1.419 . S
C1742 C1743 1.362 . S
C1743 H1733 0.930 . S
C1743 C1736 1.409 . S
C1743 C1742 1.362 . S
H1744 C1750 0.930 . S
H1745 C1753 0.930 . S
H1746 C1754 0.930 . S
H1747 C1755 0.930 1_545 S
H1748 C1758 0.930 . S
H1749 C1759 0.930 . S
C1750 H1744 0.930 . S
C1750 C1751 1.355 . S
C1750 C1752 1.415 . S
C1751 C1750 1.355 . S
C1751 C1753 1.419 . S
C1752 C1750 1.415 . S
C1752 C1757 1.425 . S
C1752 C1759 1.409 . S
C1753 H1745 0.930 . S
C1753 C1751 1.419 . S
C1753 C1754 1.362 . S
C1754 H1746 0.930 . S
C1754 C1753 1.362 . S
C1754 C1757 1.409 . S
C1755 H1747 0.930 1_565 S
C1755 C1756 1.355 . S
C1755 C1757 1.415 . S
C1756 C1755 1.355 . S
C1756 C1758 1.419 . S
C1757 C1752 1.425 . S
C1757 C1754 1.409 . S
C1757 C1755 1.415 . S
C1758 H1748 0.930 . S
C1758 C1756 1.419 . S
C1758 C1759 1.362 . S
C1759 H1749 0.930 . S
C1759 C1752 1.409 . S
C1759 C1758 1.362 . S
H1760 C1766 0.930 . S
H1761 C1769 0.930 . S
H1762 C1770 0.930 . S
H1763 C1771 0.930 . S
H1764 C1774 0.930 . S
H1765 C1775 0.930 . S
C1766 H1760 0.930 . S
C1766 C1767 1.355 . S
C1766 C1768 1.415 . S
C1767 C1766 1.355 . S
C1767 C1769 1.419 . S
C1768 C1766 1.415 . S
C1768 C1773 1.425 . S
C1768 C1775 1.409 . S
C1769 H1761 0.930 . S
C1769 C1767 1.419 . S
C1769 C1770 1.362 . S
C1770 H1762 0.930 . S
C1770 C1769 1.362 . S
C1770 C1773 1.409 . S
C1771 H1763 0.930 . S
C1771 C1772 1.355 . S
C1771 C1773 1.415 . S
C1772 C1771 1.355 . S
C1772 C1774 1.419 . S
C1773 C1768 1.425 . S
C1773 C1770 1.409 . S
C1773 C1771 1.415 . S
C1774 H1764 0.930 . S
C1774 C1772 1.419 . S
C1774 C1775 1.362 . S
C1775 H1765 0.930 . S
C1775 C1768 1.409 . S
C1775 C1774 1.362 . S
H1776 C1782 0.930 . S
H1777 C1785 0.930 . S
H1778 C1786 0.930 . S
H1779 C1787 0.930 . S
H1780 C1790 0.930 1_565 S
H1781 C1791 0.930 . S
C1782 H1776 0.930 . S
C1782 C1783 1.355 . S
C1782 C1784 1.415 . S
C1783 C1782 1.355 . S
C1783 C1785 1.419 . S
C1784 C1782 1.415 . S
C1784 C1789 1.425 . S
C1784 C1791 1.409 . S
C1785 H1777 0.930 . S
C1785 C1783 1.419 . S
C1785 C1786 1.362 . S
C1786 H1778 0.930 . S
C1786 C1785 1.362 . S
C1786 C1789 1.409 . S
C1787 H1779 0.930 . S
C1787 C1788 1.355 . S
C1787 C1789 1.415 . S
C1788 C1787 1.355 . S
C1788 C1790 1.419 . S
C1789 C1784 1.425 . S
C1789 C1786 1.409 . S
C1789 C1787 1.415 . S
C1790 H1780 0.930 1_545 S
C1790 C1788 1.419 . S
C1790 C1791 1.362 . S
C1791 H1781 0.930 . S
C1791 C1784 1.409 . S
C1791 C1790 1.362 . S
H1792 C1798 0.930 . S
H1793 C1801 0.930 . S
H1794 C1802 0.930 . S
H1795 C1803 0.930 . S
H1796 C1806 0.930 . S
H1797 C1807 0.930 . S
C1798 H1792 0.930 . S
C1798 C1799 1.355 . S
C1798 C1800 1.415 . S
C1799 C1798 1.355 . S
C1799 C1801 1.419 . S
C1800 C1798 1.415 . S
C1800 C1805 1.425 . S
C1800 C1807 1.409 . S
C1801 H1793 0.930 . S
C1801 C1799 1.419 . S
C1801 C1802 1.362 . S
C1802 H1794 0.930 . S
C1802 C1801 1.362 . S
C1802 C1805 1.409 . S
C1803 H1795 0.930 . S
C1803 C1804 1.355 . S
C1803 C1805 1.415 . S
C1804 C1803 1.355 . S
C1804 C1806 1.419 . S
C1805 C1800 1.425 . S
C1805 C1802 1.409 . S
C1805 C1803 1.415 . S
C1806 H1796 0.930 . S
C1806 C1804 1.419 . S
C1806 C1807 1.362 . S
C1807 H1797 0.930 . S
C1807 C1800 1.409 . S
C1807 C1806 1.362 . S
H1808 C1814 0.930 . S
H1809 C1817 0.930 . S
H1810 C1818 0.930 . S
H1811 C1819 0.930 . S
H1812 C1822 0.930 . S
H1813 C1823 0.930 . S
C1814 H1808 0.930 . S
C1814 C1815 1.355 1_556 S
C1814 C1816 1.415 . S
C1815 C1814 1.355 1_554 S
C1815 C1817 1.419 . S
C1816 C1814 1.415 . S
C1816 C1821 1.425 1_556 S
C1816 C1823 1.409 . S
C1817 H1809 0.930 . S
C1817 C1815 1.419 . S
C1817 C1818 1.362 . S
C1818 H1810 0.930 . S
C1818 C1817 1.362 . S
C1818 C1821 1.409 . S
C1819 H1811 0.930 . S
C1819 C1820 1.355 1_554 S
C1819 C1821 1.415 . S
C1820 C1819 1.355 1_556 S
C1820 C1822 1.419 . S
C1821 C1816 1.425 1_554 S
C1821 C1818 1.409 . S
C1821 C1819 1.415 . S
C1822 H1812 0.930 . S
C1822 C1820 1.419 . S
C1822 C1823 1.362 . S
C1823 H1813 0.930 . S
C1823 C1816 1.409 . S
C1823 C1822 1.362 . S
H1824 C1830 0.930 . S
H1825 C1833 0.930 . S
H1826 C1834 0.930 . S
H1827 C1835 0.930 . S
H1828 C1838 0.930 . S
H1829 C1839 0.930 . S
C1830 H1824 0.930 . S
C1830 C1831 1.355 . S
C1830 C1832 1.415 . S
C1831 C1830 1.355 . S
C1831 C1833 1.419 . S
C1832 C1830 1.415 . S
C1832 C1837 1.425 . S
C1832 C1839 1.409 . S
C1833 H1825 0.930 . S
C1833 C1831 1.419 . S
C1833 C1834 1.362 . S
C1834 H1826 0.930 . S
C1834 C1833 1.362 . S
C1834 C1837 1.409 . S
C1835 H1827 0.930 . S
C1835 C1836 1.355 . S
C1835 C1837 1.415 . S
C1836 C1835 1.355 . S
C1836 C1838 1.419 . S
C1837 C1832 1.425 . S
C1837 C1834 1.409 . S
C1837 C1835 1.415 . S
C1838 H1828 0.930 . S
C1838 C1836 1.419 . S
C1838 C1839 1.362 . S
C1839 H1829 0.930 . S
C1839 C1832 1.409 . S
C1839 C1838 1.362 . S
H1840 C1846 0.930 . S
H1841 C1849 0.930 . S
H1842 C1850 0.930 . S
H1843 C1851 0.930 . S
H1844 C1854 0.930 . S
H1845 C1855 0.930 . S
C1846 H1840 0.930 . S
C1846 C1847 1.355 . S
C1846 C1848 1.415 . S
C1847 C1846 1.355 . S
C1847 C1849 1.419 . S
C1848 C1846 1.415 . S
C1848 C1853 1.425 . S
C1848 C1855 1.409 . S
C1849 H1841 0.930 . S
C1849 C1847 1.419 . S
C1849 C1850 1.362 . S
C1850 H1842 0.930 . S
C1850 C1849 1.362 . S
C1850 C1853 1.409 . S
C1851 H1843 0.930 . S
C1851 C1852 1.355 . S
C1851 C1853 1.415 . S
C1852 C1851 1.355 . S
C1852 C1854 1.419 . S
C1853 C1848 1.425 . S
C1853 C1850 1.409 . S
C1853 C1851 1.415 . S
C1854 H1844 0.930 . S
C1854 C1852 1.419 . S
C1854 C1855 1.362 . S
C1855 H1845 0.930 . S
C1855 C1848 1.409 . S
C1855 C1854 1.362 . S
H1856 C1862 0.930 . S
H1857 C1865 0.930 . S
H1858 C1866 0.930 . S
H1859 C1867 0.930 . S
H1860 C1870 0.930 . S
H1861 C1871 0.930 . S
C1862 H1856 0.930 . S
C1862 C1863 1.355 . S
C1862 C1864 1.415 . S
C1863 C1862 1.355 . S
C1863 C1865 1.419 . S
C1864 C1862 1.415 . S
C1864 C1869 1.425 . S
C1864 C1871 1.409 . S
C1865 H1857 0.930 . S
C1865 C1863 1.419 . S
C1865 C1866 1.362 . S
C1866 H1858 0.930 . S
C1866 C1865 1.362 . S
C1866 C1869 1.409 . S
C1867 H1859 0.930 . S
C1867 C1868 1.355 . S
C1867 C1869 1.415 . S
C1868 C1867 1.355 . S
C1868 C1870 1.419 . S
C1869 C1864 1.425 . S
C1869 C1866 1.409 . S
C1869 C1867 1.415 . S
C1870 H1860 0.930 . S
C1870 C1868 1.419 . S
C1870 C1871 1.362 . S
C1871 H1861 0.930 . S
C1871 C1864 1.409 . S
C1871 C1870 1.362 . S
H1872 C1878 0.930 . S
H1873 C1881 0.930 . S
H1874 C1882 0.930 . S
H1875 C1883 0.930 . S
H1876 C1886 0.930 . S
H1877 C1887 0.930 . S
C1878 H1872 0.930 . S
C1878 C1879 1.355 . S
C1878 C1880 1.415 . S
C1879 C1878 1.355 . S
C1879 C1881 1.419 . S
C1880 C1878 1.415 . S
C1880 C1885 1.425 . S
C1880 C1887 1.409 . S
C1881 H1873 0.930 . S
C1881 C1879 1.419 . S
C1881 C1882 1.362 . S
C1882 H1874 0.930 . S
C1882 C1881 1.362 . S
C1882 C1885 1.409 . S
C1883 H1875 0.930 . S
C1883 C1884 1.355 . S
C1883 C1885 1.415 . S
C1884 C1883 1.355 . S
C1884 C1886 1.419 . S
C1885 C1880 1.425 . S
C1885 C1882 1.409 . S
C1885 C1883 1.415 . S
C1886 H1876 0.930 . S
C1886 C1884 1.419 . S
C1886 C1887 1.362 . S
C1887 H1877 0.930 . S
C1887 C1880 1.409 . S
C1887 C1886 1.362 . S
H1888 C1894 0.930 . S
H1889 C1897 0.930 . S
H1890 C1898 0.930 . S
H1891 C1899 0.930 . S
H1892 C1902 0.930 . S
H1893 C1903 0.930 . S
C1894 H1888 0.930 . S
C1894 C1895 1.355 1_655 S
C1894 C1896 1.415 . S
C1895 C1894 1.355 1_455 S
C1895 C1897 1.419 . S
C1896 C1894 1.415 . S
C1896 C1901 1.425 1_655 S
C1896 C1903 1.409 . S
C1897 H1889 0.930 . S
C1897 C1895 1.419 . S
C1897 C1898 1.362 . S
C1898 H1890 0.930 . S
C1898 C1897 1.362 . S
C1898 C1901 1.409 . S
C1899 H1891 0.930 . S
C1899 C1900 1.355 1_455 S
C1899 C1901 1.415 . S
C1900 C1899 1.355 1_655 S
C1900 C1902 1.419 . S
C1901 C1896 1.425 1_455 S
C1901 C1898 1.409 . S
C1901 C1899 1.415 . S
C1902 H1892 0.930 . S
C1902 C1900 1.419 . S
C1902 C1903 1.362 . S
C1903 H1893 0.930 . S
C1903 C1896 1.409 . S
C1903 C1902 1.362 . S
H1904 C1910 0.930 . S
H1905 C1913 0.930 . S
H1906 C1914 0.930 . S
H1907 C1915 0.930 . S
H1908 C1918 0.930 . S
H1909 C1919 0.930 . S
C1910 H1904 0.930 . S
C1910 C1911 1.355 . S
C1910 C1912 1.415 . S
C1911 C1910 1.355 . S
C1911 C1913 1.419 . S
C1912 C1910 1.415 . S
C1912 C1917 1.425 . S
C1912 C1919 1.409 . S
C1913 H1905 0.930 . S
C1913 C1911 1.419 . S
C1913 C1914 1.362 . S
C1914 H1906 0.930 . S
C1914 C1913 1.362 . S
C1914 C1917 1.409 . S
C1915 H1907 0.930 . S
C1915 C1916 1.355 . S
C1915 C1917 1.415 . S
C1916 C1915 1.355 . S
C1916 C1918 1.419 . S
C1917 C1912 1.425 . S
C1917 C1914 1.409 . S
C1917 C1915 1.415 . S
C1918 H1908 0.930 . S
C1918 C1916 1.419 . S
C1918 C1919 1.362 . S
C1919 H1909 0.930 . S
C1919 C1912 1.409 . S
C1919 C1918 1.362 . S
H1920 C1926 0.930 . S
H1921 C1929 0.930 . S
H1922 C1930 0.930 . S
H1923 C1931 0.930 . S
H1924 C1934 0.930 . S
H1925 C1935 0.930 . S
C1926 H1920 0.930 . S
C1926 C1927 1.355 . S
C1926 C1928 1.415 . S
C1927 C1926 1.355 . S
C1927 C1929 1.419 . S
C1928 C1926 1.415 . S
C1928 C1933 1.425 . S
C1928 C1935 1.409 . S
C1929 H1921 0.930 . S
C1929 C1927 1.419 . S
C1929 C1930 1.362 . S
C1930 H1922 0.930 . S
C1930 C1929 1.362 . S
C1930 C1933 1.409 . S
C1931 H1923 0.930 . S
C1931 C1932 1.355 . S
C1931 C1933 1.415 . S
C1932 C1931 1.355 . S
C1932 C1934 1.419 . S
C1933 C1928 1.425 . S
C1933 C1930 1.409 . S
C1933 C1931 1.415 . S
C1934 H1924 0.930 . S
C1934 C1932 1.419 . S
C1934 C1935 1.362 . S
C1935 H1925 0.930 . S
C1935 C1928 1.409 . S
C1935 C1934 1.362 . S
H1936 C1942 0.930 . S
H1937 C1945 0.930 . S
H1938 C1946 0.930 . S
H1939 C1947 0.930 . S
H1940 C1950 0.930 . S
H1941 C1951 0.930 . S
C1942 H1936 0.930 . S
C1942 C1943 1.355 . S
C1942 C1944 1.415 . S
C1943 C1942 1.355 . S
C1943 C1945 1.419 . S
C1944 C1942 1.415 . S
C1944 C1949 1.425 . S
C1944 C1951 1.409 . S
C1945 H1937 0.930 . S
C1945 C1943 1.419 . S
C1945 C1946 1.362 . S
C1946 H1938 0.930 . S
C1946 C1945 1.362 . S
C1946 C1949 1.409 . S
C1947 H1939 0.930 . S
C1947 C1948 1.355 . S
C1947 C1949 1.415 . S
C1948 C1947 1.355 . S
C1948 C1950 1.419 . S
C1949 C1944 1.425 . S
C1949 C1946 1.409 . S
C1949 C1947 1.415 . S
C1950 H1940 0.930 . S
C1950 C1948 1.419 . S
C1950 C1951 1.362 . S
C1951 H1941 0.930 . S
C1951 C1944 1.409 . S
C1951 C1950 1.362 . S
H1952 C1958 0.930 . S
H1953 C1961 0.930 . S
H1954 C1962 0.930 . S
H1955 C1963 0.930 . S
H1956 C1966 0.930 . S
H1957 C1967 0.930 . S
C1958 H1952 0.930 . S
C1958 C1959 1.355 1_655 S
C1958 C1960 1.415 . S
C1959 C1958 1.355 1_455 S
C1959 C1961 1.419 . S
C1960 C1958 1.415 . S
C1960 C1965 1.425 1_655 S
C1960 C1967 1.409 . S
C1961 H1953 0.930 . S
C1961 C1959 1.419 . S
C1961 C1962 1.362 . S
C1962 H1954 0.930 . S
C1962 C1961 1.362 . S
C1962 C1965 1.409 . S
C1963 H1955 0.930 . S
C1963 C1964 1.355 1_455 S
C1963 C1965 1.415 . S
C1964 C1963 1.355 1_655 S
C1964 C1966 1.419 . S
C1965 C1960 1.425 1_455 S
C1965 C1962 1.409 . S
C1965 C1963 1.415 . S
C1966 H1956 0.930 . S
C1966 C1964 1.419 . S
C1966 C1967 1.362 . S
C1967 H1957 0.930 . S
C1967 C1960 1.409 . S
C1967 C1966 1.362 . S
H1968 C1974 0.930 . S
H1969 C1977 0.930 . S
H1970 C1978 0.930 . S
H1971 C1979 0.930 . S
H1972 C1982 0.930 . S
H1973 C1983 0.930 . S
C1974 H1968 0.930 . S
C1974 C1975 1.355 . S
C1974 C1976 1.415 . S
C1975 C1974 1.355 . S
C1975 C1977 1.419 . S
C1976 C1974 1.415 . S
C1976 C1981 1.425 . S
C1976 C1983 1.409 . S
C1977 H1969 0.930 . S
C1977 C1975 1.419 . S
C1977 C1978 1.362 . S
C1978 H1970 0.930 . S
C1978 C1977 1.362 . S
C1978 C1981 1.409 . S
C1979 H1971 0.930 . S
C1979 C1980 1.355 . S
C1979 C1981 1.415 . S
C1980 C1979 1.355 . S
C1980 C1982 1.419 . S
C1981 C1976 1.425 . S
C1981 C1978 1.409 . S
C1981 C1979 1.415 . S
C1982 H1972 0.930 . S
C1982 C1980 1.419 . S
C1982 C1983 1.362 . S
C1983 H1973 0.930 . S
C1983 C1976 1.409 . S
C1983 C1982 1.362 . S
H1984 C1990 0.930 . S
H1985 C1993 0.930 . S
H1986 C1994 0.930 . S
H1987 C1995 0.930 . S
H1988 C1998 0.930 . S
H1989 C1999 0.930 . S
C1990 H1984 0.930 . S
C1990 C1991 1.355 . S
C1990 C1992 1.415 . S
C1991 C1990 1.355 . S
C1991 C1993 1.419 . S
C1992 C1990 1.415 . S
C1992 C1997 1.425 . S
C1992 C1999 1.409 . S
C1993 H1985 0.930 . S
C1993 C1991 1.419 . S
C1993 C1994 1.362 . S
C1994 H1986 0.930 . S
C1994 C1993 1.362 . S
C1994 C1997 1.409 . S
C1995 H1987 0.930 . S
C1995 C1996 1.355 . S
C1995 C1997 1.415 . S
C1996 C1995 1.355 . S
C1996 C1998 1.419 . S
C1997 C1992 1.425 . S
C1997 C1994 1.409 . S
C1997 C1995 1.415 . S
C1998 H1988 0.930 . S
C1998 C1996 1.419 . S
C1998 C1999 1.362 . S
C1999 H1989 0.930 . S
C1999 C1992 1.409 . S
C1999 C1998 1.362 . S
H2000 C2006 0.930 . S
H2001 C2009 0.930 . S
H2002 C2010 0.930 . S
H2003 C2011 0.930 . S
H2004 C2014 0.930 . S
H2005 C2015 0.930 . S
C2006 H2000 0.930 . S
C2006 C2007 1.355 . S
C2006 C2008 1.415 . S
C2007 C2006 1.355 . S
C2007 C2009 1.419 . S
C2008 C2006 1.415 . S
C2008 C2013 1.425 . S
C2008 C2015 1.409 . S
C2009 H2001 0.930 . S
C2009 C2007 1.419 . S
C2009 C2010 1.362 . S
C2010 H2002 0.930 . S
C2010 C2009 1.362 . S
C2010 C2013 1.409 . S
C2011 H2003 0.930 . S
C2011 C2012 1.355 . S
C2011 C2013 1.415 . S
C2012 C2011 1.355 . S
C2012 C2014 1.419 . S
C2013 C2008 1.425 . S
C2013 C2010 1.409 . S
C2013 C2011 1.415 . S
C2014 H2004 0.930 . S
C2014 C2012 1.419 . S
C2014 C2015 1.362 . S
C2015 H2005 0.930 . S
C2015 C2008 1.409 . S
C2015 C2014 1.362 . S
H2016 C2022 0.930 . S
H2017 C2025 0.930 . S
H2018 C2026 0.930 . S
H2019 C2027 0.930 . S
H2020 C2030 0.930 . S
H2021 C2031 0.930 . S
C2022 H2016 0.930 . S
C2022 C2023 1.355 . S
C2022 C2024 1.415 . S
C2023 C2022 1.355 . S
C2023 C2025 1.419 . S
C2024 C2022 1.415 . S
C2024 C2029 1.425 . S
C2024 C2031 1.409 . S
C2025 H2017 0.930 . S
C2025 C2023 1.419 . S
C2025 C2026 1.362 . S
C2026 H2018 0.930 . S
C2026 C2025 1.362 . S
C2026 C2029 1.409 . S
C2027 H2019 0.930 . S
C2027 C2028 1.355 . S
C2027 C2029 1.415 . S
C2028 C2027 1.355 . S
C2028 C2030 1.419 . S
C2029 C2024 1.425 . S
C2029 C2026 1.409 . S
C2029 C2027 1.415 . S
C2030 H2020 0.930 . S
C2030 C2028 1.419 . S
C2030 C2031 1.362 . S
C2031 H2021 0.930 . S
C2031 C2024 1.409 . S
C2031 C2030 1.362 . S
H2032 C2038 0.930 . S
H2033 C2041 0.930 . S
H2034 C2042 0.930 . S
H2035 C2043 0.930 . S
H2036 C2046 0.930 . S
H2037 C2047 0.930 . S
C2038 H2032 0.930 . S
C2038 C2039 1.355 . S
C2038 C2040 1.415 . S
C2039 C2038 1.355 . S
C2039 C2041 1.419 . S
C2040 C2038 1.415 . S
C2040 C2045 1.425 . S
C2040 C2047 1.409 . S
C2041 H2033 0.930 . S
C2041 C2039 1.419 . S
C2041 C2042 1.362 . S
C2042 H2034 0.930 . S
C2042 C2041 1.362 . S
C2042 C2045 1.409 . S
C2043 H2035 0.930 . S
C2043 C2044 1.355 . S
C2043 C2045 1.415 . S
C2044 C2043 1.355 . S
C2044 C2046 1.419 . S
C2045 C2040 1.425 . S
C2045 C2042 1.409 . S
C2045 C2043 1.415 . S
C2046 H2036 0.930 . S
C2046 C2044 1.419 . S
C2046 C2047 1.362 . S
C2047 H2037 0.930 . S
C2047 C2040 1.409 . S
C2047 C2046 1.362 . S
H2048 C2054 0.930 . S
H2049 C2057 0.930 . S
H2050 C2058 0.930 . S
H2051 C2059 0.930 . S
H2052 C2062 0.930 . S
H2053 C2063 0.930 . S
C2054 H2048 0.930 . S
C2054 C2055 1.355 . S
C2054 C2056 1.415 . S
C2055 C2054 1.355 . S
C2055 C2057 1.419 . S
C2056 C2054 1.415 . S
C2056 C2061 1.425 . S
C2056 C2063 1.409 . S
C2057 H2049 0.930 . S
C2057 C2055 1.419 . S
C2057 C2058 1.362 . S
C2058 H2050 0.930 . S
C2058 C2057 1.362 . S
C2058 C2061 1.409 . S
C2059 H2051 0.930 . S
C2059 C2060 1.355 . S
C2059 C2061 1.415 . S
C2060 C2059 1.355 . S
C2060 C2062 1.419 . S
C2061 C2056 1.425 . S
C2061 C2058 1.409 . S
C2061 C2059 1.415 . S
C2062 H2052 0.930 . S
C2062 C2060 1.419 . S
C2062 C2063 1.362 . S
C2063 H2053 0.930 . S
C2063 C2056 1.409 . S
C2063 C2062 1.362 . S
H2064 C2070 0.930 . S
H2065 C2073 0.930 . S
H2066 C2074 0.930 . S
H2067 C2075 0.930 . S
H2068 C2078 0.930 . S
H2069 C2079 0.930 . S
C2070 H2064 0.930 . S
C2070 C2071 1.355 . S
C2070 C2072 1.415 . S
C2071 C2070 1.355 . S
C2071 C2073 1.419 . S
C2072 C2070 1.415 . S
C2072 C2077 1.425 . S
C2072 C2079 1.409 . S
C2073 H2065 0.930 . S
C2073 C2071 1.419 . S
C2073 C2074 1.362 . S
C2074 H2066 0.930 . S
C2074 C2073 1.362 . S
C2074 C2077 1.409 . S
C2075 H2067 0.930 . S
C2075 C2076 1.355 . S
C2075 C2077 1.415 . S
C2076 C2075 1.355 . S
C2076 C2078 1.419 . S
C2077 C2072 1.425 . S
C2077 C2074 1.409 . S
C2077 C2075 1.415 . S
C2078 H2068 0.930 . S
C2078 C2076 1.419 . S
C2078 C2079 1.362 . S
C2079 H2069 0.930 . S
C2079 C2072 1.409 . S
C2079 C2078 1.362 . S
H2080 C2086 0.930 . S
H2081 C2089 0.930 . S
H2082 C2090 0.930 . S
H2083 C2091 0.930 . S
H2084 C2094 0.930 1_655 S
H2085 C2095 0.930 . S
C2086 H2080 0.930 . S
C2086 C2087 1.355 . S
C2086 C2088 1.415 . S
C2087 C2086 1.355 . S
C2087 C2089 1.419 . S
C2088 C2086 1.415 . S
C2088 C2093 1.425 . S
C2088 C2095 1.409 . S
C2089 H2081 0.930 . S
C2089 C2087 1.419 . S
C2089 C2090 1.362 . S
C2090 H2082 0.930 . S
C2090 C2089 1.362 . S
C2090 C2093 1.409 . S
C2091 H2083 0.930 . S
C2091 C2092 1.355 . S
C2091 C2093 1.415 . S
C2092 C2091 1.355 . S
C2092 C2094 1.419 . S
C2093 C2088 1.425 . S
C2093 C2090 1.409 . S
C2093 C2091 1.415 . S
C2094 H2084 0.930 1_455 S
C2094 C2092 1.419 . S
C2094 C2095 1.362 . S
C2095 H2085 0.930 . S
C2095 C2088 1.409 . S
C2095 C2094 1.362 . S
H2096 C2102 0.930 . S
H2097 C2105 0.930 . S
H2098 C2106 0.930 . S
H2099 C2107 0.930 . S
H2100 C2110 0.930 . S
H2101 C2111 0.930 . S
C2102 H2096 0.930 . S
C2102 C2103 1.355 . S
C2102 C2104 1.415 . S
C2103 C2102 1.355 . S
C2103 C2105 1.419 . S
C2104 C2102 1.415 . S
C2104 C2109 1.425 . S
C2104 C2111 1.409 . S
C2105 H2097 0.930 . S
C2105 C2103 1.419 . S
C2105 C2106 1.362 . S
C2106 H2098 0.930 . S
C2106 C2105 1.362 . S
C2106 C2109 1.409 . S
C2107 H2099 0.930 . S
C2107 C2108 1.355 . S
C2107 C2109 1.415 . S
C2108 C2107 1.355 . S
C2108 C2110 1.419 . S
C2109 C2104 1.425 . S
C2109 C2106 1.409 . S
C2109 C2107 1.415 . S
C2110 H2100 0.930 . S
C2110 C2108 1.419 . S
C2110 C2111 1.362 . S
C2111 H2101 0.930 . S
C2111 C2104 1.409 . S
C2111 C2110 1.362 . S
H2112 C2118 0.930 . S
H2113 C2121 0.930 . S
H2114 C2122 0.930 . S
H2115 C2123 0.930 . S
H2116 C2126 0.930 . S
H2117 C2127 0.930 . S
C2118 H2112 0.930 . S
C2118 C2119 1.355 . S
C2118 C2120 1.415 . S
C2119 C2118 1.355 . S
C2119 C2121 1.419 . S
C2120 C2118 1.415 . S
C2120 C2125 1.425 . S
C2120 C2127 1.409 . S
C2121 H2113 0.930 . S
C2121 C2119 1.419 . S
C2121 C2122 1.362 . S
C2122 H2114 0.930 . S
C2122 C2121 1.362 . S
C2122 C2125 1.409 . S
C2123 H2115 0.930 . S
C2123 C2124 1.355 . S
C2123 C2125 1.415 . S
C2124 C2123 1.355 . S
C2124 C2126 1.419 . S
C2125 C2120 1.425 . S
C2125 C2122 1.409 . S
C2125 C2123 1.415 . S
C2126 H2116 0.930 . S
C2126 C2124 1.419 . S
C2126 C2127 1.362 . S
C2127 H2117 0.930 . S
C2127 C2120 1.409 . S
C2127 C2126 1.362 . S
H2128 C2134 0.930 . S
H2129 C2137 0.930 . S
H2130 C2138 0.930 . S
H2131 C2139 0.930 . S
H2132 C2142 0.930 . S
H2133 C2143 0.930 . S
C2134 H2128 0.930 . S
C2134 C2135 1.355 . S
C2134 C2136 1.415 . S
C2135 C2134 1.355 . S
C2135 C2137 1.419 . S
C2136 C2134 1.415 . S
C2136 C2141 1.425 . S
C2136 C2143 1.409 . S
C2137 H2129 0.930 . S
C2137 C2135 1.419 . S
C2137 C2138 1.362 . S
C2138 H2130 0.930 . S
C2138 C2137 1.362 . S
C2138 C2141 1.409 . S
C2139 H2131 0.930 . S
C2139 C2140 1.355 . S
C2139 C2141 1.415 . S
C2140 C2139 1.355 . S
C2140 C2142 1.419 . S
C2141 C2136 1.425 . S
C2141 C2138 1.409 . S
C2141 C2139 1.415 . S
C2142 H2132 0.930 . S
C2142 C2140 1.419 . S
C2142 C2143 1.362 . S
C2143 H2133 0.930 . S
C2143 C2136 1.409 . S
C2143 C2142 1.362 . S
H2144 C2150 0.930 . S
H2145 C2153 0.930 . S
H2146 C2154 0.930 . S
H2147 C2155 0.930 . S
H2148 C2158 0.930 . S
H2149 C2159 0.930 . S
C2150 H2144 0.930 . S
C2150 C2151 1.355 . S
C2150 C2152 1.415 . S
C2151 C2150 1.355 . S
C2151 C2153 1.419 . S
C2152 C2150 1.415 . S
C2152 C2157 1.425 . S
C2152 C2159 1.409 . S
C2153 H2145 0.930 . S
C2153 C2151 1.419 . S
C2153 C2154 1.362 . S
C2154 H2146 0.930 . S
C2154 C2153 1.362 . S
C2154 C2157 1.409 . S
C2155 H2147 0.930 . S
C2155 C2156 1.355 . S
C2155 C2157 1.415 . S
C2156 C2155 1.355 . S
C2156 C2158 1.419 . S
C2157 C2152 1.425 . S
C2157 C2154 1.409 . S
C2157 C2155 1.415 . S
C2158 H2148 0.930 . S
C2158 C2156 1.419 . S
C2158 C2159 1.362 . S
C2159 H2149 0.930 . S
C2159 C2152 1.409 . S
C2159 C2158 1.362 . S
H2160 C2166 0.930 . S
H2161 C2169 0.930 . S
H2162 C2170 0.930 . S
H2163 C2171 0.930 1_554 S
H2164 C2174 0.930 . S
H2165 C2175 0.930 . S
C2166 H2160 0.930 . S
C2166 C2167 1.355 1_556 S
C2166 C2168 1.415 . S
C2167 C2166 1.355 1_554 S
C2167 C2169 1.419 . S
C2168 C2166 1.415 . S
C2168 C2173 1.425 . S
C2168 C2175 1.409 . S
C2169 H2161 0.930 . S
C2169 C2167 1.419 . S
C2169 C2170 1.362 . S
C2170 H2162 0.930 . S
C2170 C2169 1.362 . S
C2170 C2173 1.409 1_554 S
C2171 H2163 0.930 1_556 S
C2171 C2172 1.355 . S
C2171 C2173 1.415 . S
C2172 C2171 1.355 . S
C2172 C2174 1.419 . S
C2173 C2168 1.425 . S
C2173 C2170 1.409 1_556 S
C2173 C2171 1.415 . S
C2174 H2164 0.930 . S
C2174 C2172 1.419 . S
C2174 C2175 1.362 . S
C2175 H2165 0.930 . S
C2175 C2168 1.409 . S
C2175 C2174 1.362 . S
H2176 C2182 0.930 . S
H2177 C2185 0.930 . S
H2178 C2186 0.930 . S
H2179 C2187 0.930 . S
H2180 C2190 0.930 . S
H2181 C2191 0.930 . S
C2182 H2176 0.930 . S
C2182 C2183 1.355 . S
C2182 C2184 1.415 . S
C2183 C2182 1.355 . S
C2183 C2185 1.419 . S
C2184 C2182 1.415 . S
C2184 C2189 1.425 . S
C2184 C2191 1.409 . S
C2185 H2177 0.930 . S
C2185 C2183 1.419 . S
C2185 C2186 1.362 . S
C2186 H2178 0.930 . S
C2186 C2185 1.362 . S
C2186 C2189 1.409 . S
C2187 H2179 0.930 . S
C2187 C2188 1.355 . S
C2187 C2189 1.415 . S
C2188 C2187 1.355 . S
C2188 C2190 1.419 . S
C2189 C2184 1.425 . S
C2189 C2186 1.409 . S
C2189 C2187 1.415 . S
C2190 H2180 0.930 . S
C2190 C2188 1.419 . S
C2190 C2191 1.362 . S
C2191 H2181 0.930 . S
C2191 C2184 1.409 . S
C2191 C2190 1.362 . S
H2192 C2198 0.930 . S
H2193 C2201 0.930 . S
H2194 C2202 0.930 . S
H2195 C2203 0.930 . S
H2196 C2206 0.930 . S
H2197 C2207 0.930 . S
C2198 H2192 0.930 . S
C2198 C2199 1.355 . S
C2198 C2200 1.415 . S
C2199 C2198 1.355 . S
C2199 C2201 1.419 . S
C2200 C2198 1.415 . S
C2200 C2205 1.425 . S
C2200 C2207 1.409 . S
C2201 H2193 0.930 . S
C2201 C2199 1.419 . S
C2201 C2202 1.362 . S
C2202 H2194 0.930 . S
C2202 C2201 1.362 . S
C2202 C2205 1.409 . S
C2203 H2195 0.930 . S
C2203 C2204 1.355 . S
C2203 C2205 1.415 . S
C2204 C2203 1.355 . S
C2204 C2206 1.419 . S
C2205 C2200 1.425 . S
C2205 C2202 1.409 . S
C2205 C2203 1.415 . S
C2206 H2196 0.930 . S
C2206 C2204 1.419 . S
C2206 C2207 1.362 . S
C2207 H2197 0.930 . S
C2207 C2200 1.409 . S
C2207 C2206 1.362 . S
H2208 C2214 0.930 . S
H2209 C2217 0.930 . S
H2210 C2218 0.930 . S
H2211 C2219 0.930 . S
H2212 C2222 0.930 . S
H2213 C2223 0.930 . S
C2214 H2208 0.930 . S
C2214 C2215 1.355 . S
C2214 C2216 1.415 . S
C2215 C2214 1.355 . S
C2215 C2217 1.419 . S
C2216 C2214 1.415 . S
C2216 C2221 1.425 . S
C2216 C2223 1.409 . S
C2217 H2209 0.930 . S
C2217 C2215 1.419 . S
C2217 C2218 1.362 . S
C2218 H2210 0.930 . S
C2218 C2217 1.362 . S
C2218 C2221 1.409 . S
C2219 H2211 0.930 . S
C2219 C2220 1.355 . S
C2219 C2221 1.415 . S
C2220 C2219 1.355 . S
C2220 C2222 1.419 . S
C2221 C2216 1.425 . S
C2221 C2218 1.409 . S
C2221 C2219 1.415 . S
C2222 H2212 0.930 . S
C2222 C2220 1.419 . S
C2222 C2223 1.362 . S
C2223 H2213 0.930 . S
C2223 C2216 1.409 . S
C2223 C2222 1.362 . S
H2224 C2230 0.930 . S
H2225 C2233 0.930 . S
H2226 C2234 0.930 . S
H2227 C2235 0.930 . S
H2228 C2238 0.930 . S
H2229 C2239 0.930 . S
C2230 H2224 0.930 . S
C2230 C2231 1.355 . S
C2230 C2232 1.415 . S
C2231 C2230 1.355 . S
C2231 C2233 1.419 . S
C2232 C2230 1.415 . S
C2232 C2237 1.425 . S
C2232 C2239 1.409 . S
C2233 H2225 0.930 . S
C2233 C2231 1.419 . S
C2233 C2234 1.362 . S
C2234 H2226 0.930 . S
C2234 C2233 1.362 . S
C2234 C2237 1.409 . S
C2235 H2227 0.930 . S
C2235 C2236 1.355 . S
C2235 C2237 1.415 . S
C2236 C2235 1.355 . S
C2236 C2238 1.419 . S
C2237 C2232 1.425 . S
C2237 C2234 1.409 . S
C2237 C2235 1.415 . S
C2238 H2228 0.930 . S
C2238 C2236 1.419 . S
C2238 C2239 1.362 . S
C2239 H2229 0.930 . S
C2239 C2232 1.409 . S
C2239 C2238 1.362 . S
C716 C352 1.159 . S
C711 C5 1.204 . S
C727 C23 1.467 . S
C732 C380 1.342 . S
C743 C39 1.191 . S
C748 C398 1.181 . S
C764 C424 1.397 . S
C759 C42 1.506 . S
C775 C19 1.545 . S
C780 C447 1.427 . S
C796 C467 1.150 . S
C791 C28 1.175 . S
C812 C495 1.294 1_556 S
C807 C53 1.434 . S
C823 C9 1.202 . S
C828 C513 1.173 . S
C839 C65 1.442 . S
C844 C354 1.450 . S
C855 C75 1.205 . S
C860 C376 1.202 . S
C876 C400 1.467 . S
C871 C93 1.482 1_565 S
C892 C421 1.175 . S
C887 C109 1.167 . S
C903 C56 1.190 . S
C908 C444 1.168 . S
C924 C469 1.381 . S
C919 C81 1.356 . S
C940 C491 1.190 . S
C935 C84 1.198 . S
C956 C515 1.409 . S
C951 C103 1.410 . S
C972 C355 1.027 1_556 S
C967 C107 1.131 . S
C988 C538 1.257 . S
C983 C121 1.243 . S
C999 C131 1.211 . S
C1004 C562 1.098 . S
C1020 C586 1.167 . S
C1015 C140 1.220 . S
C1031 C61 1.154 . S
C1036 C516 1.017 . S
C1052 C401 1.066 . S
C1047 C70 1.144 . S
C1063 C137 1.173 . S
C1068 C607 1.198 . S
C1084 C632 1.102 . S
C1079 C165 1.151 . S
C1095 C173 1.202 . S
C1100 C353 1.159 . S
C1116 C630 1.111 . S
C1111 C182 1.091 . S
C1127 C207 1.193 . S
C1132 C399 1.164 . S
C1143 C219 1.082 . S
C1148 C609 1.087 . S
C1164 C448 1.027 . S
C1159 C187 1.080 . S
C1180 C560 1.150 . S
C1175 C205 1.206 . S
C1196 C492 1.104 . S
C1191 C221 1.096 . S
C1212 C652 1.144 . S
C1207 C168 1.163 . S
C1228 C357 1.014 . S
C1223 C224 1.129 . S
C1239 C243 1.371 . S
C1244 C628 1.334 . S
C1260 C403 1.086 . S
C1255 C252 1.148 . S
C1271 C277 1.321 . S
C1276 C606 1.313 . S
C1287 C233 1.403 . S
C1292 C445 1.399 . S
C1303 C249 1.067 . S
C1308 C564 1.025 . S
C1324 C490 1.411 . S
C1319 C261 1.431 1_545 S
C1335 C271 1.069 . S
C1340 C656 0.944 . S
C1351 C266 1.352 . S
C1356 C356 1.333 . S
C1367 C280 1.331 . S
C1372 C541 1.201 . S
C1383 C299 1.411 . S
C1388 C471 1.375 . S
C1399 C317 1.348 . S
C1404 C585 1.276 . S
C1420 C655 1.369 . S
C1415 C229 1.411 . S
C1436 C402 1.287 . S
C1431 C247 1.366 . S
C1452 C426 1.205 . S
C1447 C305 1.267 . S
C1468 C378 1.178 . S
C1463 C333 1.291 . S
C1479 C33 1.227 . S
C1484 C674 1.214 . S
C1500 C633 1.342 . S
C1495 C51 1.467 . S
C1516 C697 1.166 . S
C1511 C11 1.186 . S
C1527 C14 1.506 . S
C1532 C608 1.396 . S
C1543 C47 1.527 . S
C1548 C539 1.343 1_556 S
C1564 C559 1.198 . S
C1559 C0 1.200 . S
C1580 C587 1.293 . S
C1575 C25 1.431 . S
C1596 C651 1.162 . S
C1591 C37 1.174 . S
C1612 C676 1.463 . S
C1607 C163 1.448 . S
C1623 C117 1.169 . S
C1628 C629 1.139 . S
C1639 C135 1.453 . S
C1644 C699 1.482 . S
C1660 C605 1.130 . S
C1655 C151 1.132 . S
C1676 C536 1.186 . S
C1671 C154 1.206 . S
C1687 C123 1.375 . S
C1692 C561 1.382 . S
C1708 C583 1.210 . S
C1703 C126 1.215 . S
C1719 C145 1.432 . S
C1724 C653 1.420 . S
C1740 C677 0.980 . S
C1735 C149 1.118 . S
C1756 C446 1.252 . S
C1751 C79 1.252 . S
C1772 C470 1.042 . S
C1767 C89 1.202 . S
C1783 C98 1.238 . S
C1788 C494 1.241 . S
C1804 C654 1.046 . S
C1799 C159 1.153 . S
C1815 C112 1.132 . S
C1820 C700 1.050 1_556 S
C1836 C423 1.200 . S
C1831 C95 1.202 . S
C1852 C379 1.094 . S
C1847 C67 1.144 . S
C1863 C201 1.223 . S
C1868 C675 1.195 . S
C1884 C377 1.096 . S
C1879 C210 1.107 . S
C1900 C698 1.178 . S
C1895 C179 1.169 . S
C1911 C191 1.065 . S
C1916 C425 1.035 . S
C1927 C215 1.116 . S
C1932 C540 1.096 . S
C1943 C177 1.207 . S
C1948 C468 1.163 . S
C1959 C193 1.093 . S
C1964 C584 1.106 . S
C1975 C196 1.193 . S
C1980 C514 1.202 . S
C1996 C679 1.061 . S
C1991 C322 1.133 . S
C2007 C285 1.383 . S
C2012 C375 1.370 . S
C2028 C702 1.070 . S
C2023 C294 1.127 . S
C2039 C319 1.292 . S
C2044 C422 1.255 . S
C2055 C331 1.395 . S
C2060 C537 1.387 . S
C2076 C472 1.037 . S
C2071 C291 1.066 . S
C2087 C303 1.418 . S
C2092 C582 1.415 . S
C2108 C518 1.083 . S
C2103 C313 1.111 . S
C2124 C678 1.311 . S
C2119 C308 1.369 . S
C2140 C449 1.196 . S
C2135 C238 1.330 . S
C2151 C257 1.419 . S
C2156 C563 1.389 . S
C2172 C493 1.267 . S
C2167 C275 1.346 . S
C2188 C517 1.388 . S
C2183 C327 1.411 . S
C2199 C289 1.381 . S
C2204 C701 1.323 . S
C2220 C610 1.188 . S
C2215 C263 1.301 . S
C2236 C631 1.223 . S
C2231 C235 1.289 . S
