# Generated by pormake.
# Topology gar, (4,6)-cn, num edge types: 1
# Building blocks:
#     Node 0, Type 0, BuildingBlock: QUQFOY_clean_sbu_1, # of connection points: 4
#     Node 1, Type 0, BuildingBlock: QUQFOY_clean_sbu_1, # of connection points: 4
#     Node 2, Type 0, BuildingBlock: QUQFOY_clean_sbu_1, # of connection points: 4
#     Node 3, Type 0, BuildingBlock: QUQFOY_clean_sbu_1, # of connection points: 4
#     Node 4, Type 0, BuildingBlock: QUQFOY_clean_sbu_1, # of connection points: 4
#     Node 5, Type 0, BuildingBlock: QUQFOY_clean_sbu_1, # of connection points: 4
#     Node 6, Type 0, BuildingBlock: QUQFOY_clean_sbu_1, # of connection points: 4
#     Node 7, Type 0, BuildingBlock: QUQFOY_clean_sbu_1, # of connection points: 4
#     Node 8, Type 0, BuildingBlock: QUQFOY_clean_sbu_1, # of connection points: 4
#     Node 9, Type 0, BuildingBlock: QUQFOY_clean_sbu_1, # of connection points: 4
#     Node 10, Type 0, BuildingBlock: QUQFOY_clean_sbu_1, # of connection points: 4
#     Node 11, Type 0, BuildingBlock: QUQFOY_clean_sbu_1, # of connection points: 4
#     Node 12, Type 0, BuildingBlock: QUQFOY_clean_sbu_1, # of connection points: 4
#     Node 13, Type 0, BuildingBlock: QUQFOY_clean_sbu_1, # of connection points: 4
#     Node 14, Type 0, BuildingBlock: QUQFOY_clean_sbu_1, # of connection points: 4
#     Node 15, Type 0, BuildingBlock: QUQFOY_clean_sbu_1, # of connection points: 4
#     Node 16, Type 0, BuildingBlock: QUQFOY_clean_sbu_1, # of connection points: 4
#     Node 17, Type 0, BuildingBlock: QUQFOY_clean_sbu_1, # of connection points: 4
#     Node 18, Type 0, BuildingBlock: QUQFOY_clean_sbu_1, # of connection points: 4
#     Node 19, Type 0, BuildingBlock: QUQFOY_clean_sbu_1, # of connection points: 4
#     Node 20, Type 0, BuildingBlock: QUQFOY_clean_sbu_1, # of connection points: 4
#     Node 21, Type 0, BuildingBlock: QUQFOY_clean_sbu_1, # of connection points: 4
#     Node 22, Type 0, BuildingBlock: QUQFOY_clean_sbu_1, # of connection points: 4
#     Node 23, Type 0, BuildingBlock: QUQFOY_clean_sbu_1, # of connection points: 4
#     Node 24, Type 1, BuildingBlock: PAMTOO_clean_sbu_0, # of connection points: 6
#     Node 25, Type 1, BuildingBlock: PAMTOO_clean_sbu_0, # of connection points: 6
#     Node 26, Type 1, BuildingBlock: PAMTOO_clean_sbu_0, # of connection points: 6
#     Node 27, Type 1, BuildingBlock: PAMTOO_clean_sbu_0, # of connection points: 6
#     Node 28, Type 1, BuildingBlock: PAMTOO_clean_sbu_0, # of connection points: 6
#     Node 29, Type 1, BuildingBlock: PAMTOO_clean_sbu_0, # of connection points: 6
#     Node 30, Type 1, BuildingBlock: PAMTOO_clean_sbu_0, # of connection points: 6
#     Node 31, Type 1, BuildingBlock: PAMTOO_clean_sbu_0, # of connection points: 6
#     Node 32, Type 1, BuildingBlock: PAMTOO_clean_sbu_0, # of connection points: 6
#     Node 33, Type 1, BuildingBlock: PAMTOO_clean_sbu_0, # of connection points: 6
#     Node 34, Type 1, BuildingBlock: PAMTOO_clean_sbu_0, # of connection points: 6
#     Node 35, Type 1, BuildingBlock: PAMTOO_clean_sbu_0, # of connection points: 6
#     Node 36, Type 1, BuildingBlock: PAMTOO_clean_sbu_0, # of connection points: 6
#     Node 37, Type 1, BuildingBlock: PAMTOO_clean_sbu_0, # of connection points: 6
#     Node 38, Type 1, BuildingBlock: PAMTOO_clean_sbu_0, # of connection points: 6
#     Node 39, Type 1, BuildingBlock: PAMTOO_clean_sbu_0, # of connection points: 6
#     Edge 40, Type (0, 1), BuildingBlock: AJUNOK_clean_linker_0, # of connection points: 2
#     Edge 41, Type (0, 1), BuildingBlock: AJUNOK_clean_linker_0, # of connection points: 2
#     Edge 42, Type (0, 1), BuildingBlock: AJUNOK_clean_linker_0, # of connection points: 2
#     Edge 43, Type (0, 1), BuildingBlock: AJUNOK_clean_linker_0, # of connection points: 2
#     Edge 44, Type (0, 1), BuildingBlock: AJUNOK_clean_linker_0, # of connection points: 2
#     Edge 45, Type (0, 1), BuildingBlock: AJUNOK_clean_linker_0, # of connection points: 2
#     Edge 46, Type (0, 1), BuildingBlock: AJUNOK_clean_linker_0, # of connection points: 2
#     Edge 47, Type (0, 1), BuildingBlock: AJUNOK_clean_linker_0, # of connection points: 2
#     Edge 48, Type (0, 1), BuildingBlock: AJUNOK_clean_linker_0, # of connection points: 2
#     Edge 49, Type (0, 1), BuildingBlock: AJUNOK_clean_linker_0, # of connection points: 2
#     Edge 50, Type (0, 1), BuildingBlock: AJUNOK_clean_linker_0, # of connection points: 2
#     Edge 51, Type (0, 1), BuildingBlock: AJUNOK_clean_linker_0, # of connection points: 2
#     Edge 52, Type (0, 1), BuildingBlock: AJUNOK_clean_linker_0, # of connection points: 2
#     Edge 53, Type (0, 1), BuildingBlock: AJUNOK_clean_linker_0, # of connection points: 2
#     Edge 54, Type (0, 1), BuildingBlock: AJUNOK_clean_linker_0, # of connection points: 2
#     Edge 55, Type (0, 1), BuildingBlock: AJUNOK_clean_linker_0, # of connection points: 2
#     Edge 56, Type (0, 1), BuildingBlock: AJUNOK_clean_linker_0, # of connection points: 2
#     Edge 57, Type (0, 1), BuildingBlock: AJUNOK_clean_linker_0, # of connection points: 2
#     Edge 58, Type (0, 1), BuildingBlock: AJUNOK_clean_linker_0, # of connection points: 2
#     Edge 59, Type (0, 1), BuildingBlock: AJUNOK_clean_linker_0, # of connection points: 2
#     Edge 60, Type (0, 1), BuildingBlock: AJUNOK_clean_linker_0, # of connection points: 2
#     Edge 61, Type (0, 1), BuildingBlock: AJUNOK_clean_linker_0, # of connection points: 2
#     Edge 62, Type (0, 1), BuildingBlock: AJUNOK_clean_linker_0, # of connection points: 2
#     Edge 63, Type (0, 1), BuildingBlock: AJUNOK_clean_linker_0, # of connection points: 2
#     Edge 64, Type (0, 1), BuildingBlock: AJUNOK_clean_linker_0, # of connection points: 2
#     Edge 65, Type (0, 1), BuildingBlock: AJUNOK_clean_linker_0, # of connection points: 2
#     Edge 66, Type (0, 1), BuildingBlock: AJUNOK_clean_linker_0, # of connection points: 2
#     Edge 67, Type (0, 1), BuildingBlock: AJUNOK_clean_linker_0, # of connection points: 2
#     Edge 68, Type (0, 1), BuildingBlock: AJUNOK_clean_linker_0, # of connection points: 2
#     Edge 69, Type (0, 1), BuildingBlock: AJUNOK_clean_linker_0, # of connection points: 2
#     Edge 70, Type (0, 1), BuildingBlock: AJUNOK_clean_linker_0, # of connection points: 2
#     Edge 71, Type (0, 1), BuildingBlock: AJUNOK_clean_linker_0, # of connection points: 2
#     Edge 72, Type (0, 1), BuildingBlock: AJUNOK_clean_linker_0, # of connection points: 2
#     Edge 73, Type (0, 1), BuildingBlock: AJUNOK_clean_linker_0, # of connection points: 2
#     Edge 74, Type (0, 1), BuildingBlock: AJUNOK_clean_linker_0, # of connection points: 2
#     Edge 75, Type (0, 1), BuildingBlock: AJUNOK_clean_linker_0, # of connection points: 2
#     Edge 76, Type (0, 1), BuildingBlock: AJUNOK_clean_linker_0, # of connection points: 2
#     Edge 77, Type (0, 1), BuildingBlock: AJUNOK_clean_linker_0, # of connection points: 2
#     Edge 78, Type (0, 1), BuildingBlock: AJUNOK_clean_linker_0, # of connection points: 2
#     Edge 79, Type (0, 1), BuildingBlock: AJUNOK_clean_linker_0, # of connection points: 2
#     Edge 80, Type (0, 1), BuildingBlock: AJUNOK_clean_linker_0, # of connection points: 2
#     Edge 81, Type (0, 1), BuildingBlock: AJUNOK_clean_linker_0, # of connection points: 2
#     Edge 82, Type (0, 1), BuildingBlock: AJUNOK_clean_linker_0, # of connection points: 2
#     Edge 83, Type (0, 1), BuildingBlock: AJUNOK_clean_linker_0, # of connection points: 2
#     Edge 84, Type (0, 1), BuildingBlock: AJUNOK_clean_linker_0, # of connection points: 2
#     Edge 85, Type (0, 1), BuildingBlock: AJUNOK_clean_linker_0, # of connection points: 2
#     Edge 86, Type (0, 1), BuildingBlock: AJUNOK_clean_linker_0, # of connection points: 2
#     Edge 87, Type (0, 1), BuildingBlock: AJUNOK_clean_linker_0, # of connection points: 2
#     Edge 88, Type (0, 1), BuildingBlock: AJUNOK_clean_linker_0, # of connection points: 2
#     Edge 89, Type (0, 1), BuildingBlock: AJUNOK_clean_linker_0, # of connection points: 2
#     Edge 90, Type (0, 1), BuildingBlock: AJUNOK_clean_linker_0, # of connection points: 2
#     Edge 91, Type (0, 1), BuildingBlock: AJUNOK_clean_linker_0, # of connection points: 2
#     Edge 92, Type (0, 1), BuildingBlock: AJUNOK_clean_linker_0, # of connection points: 2
#     Edge 93, Type (0, 1), BuildingBlock: AJUNOK_clean_linker_0, # of connection points: 2
#     Edge 94, Type (0, 1), BuildingBlock: AJUNOK_clean_linker_0, # of connection points: 2
#     Edge 95, Type (0, 1), BuildingBlock: AJUNOK_clean_linker_0, # of connection points: 2
#     Edge 96, Type (0, 1), BuildingBlock: AJUNOK_clean_linker_0, # of connection points: 2
#     Edge 97, Type (0, 1), BuildingBlock: AJUNOK_clean_linker_0, # of connection points: 2
#     Edge 98, Type (0, 1), BuildingBlock: AJUNOK_clean_linker_0, # of connection points: 2
#     Edge 99, Type (0, 1), BuildingBlock: AJUNOK_clean_linker_0, # of connection points: 2
#     Edge 100, Type (0, 1), BuildingBlock: AJUNOK_clean_linker_0, # of connection points: 2
#     Edge 101, Type (0, 1), BuildingBlock: AJUNOK_clean_linker_0, # of connection points: 2
#     Edge 102, Type (0, 1), BuildingBlock: AJUNOK_clean_linker_0, # of connection points: 2
#     Edge 103, Type (0, 1), BuildingBlock: AJUNOK_clean_linker_0, # of connection points: 2
#     Edge 104, Type (0, 1), BuildingBlock: AJUNOK_clean_linker_0, # of connection points: 2
#     Edge 105, Type (0, 1), BuildingBlock: AJUNOK_clean_linker_0, # of connection points: 2
#     Edge 106, Type (0, 1), BuildingBlock: AJUNOK_clean_linker_0, # of connection points: 2
#     Edge 107, Type (0, 1), BuildingBlock: AJUNOK_clean_linker_0, # of connection points: 2
#     Edge 108, Type (0, 1), BuildingBlock: AJUNOK_clean_linker_0, # of connection points: 2
#     Edge 109, Type (0, 1), BuildingBlock: AJUNOK_clean_linker_0, # of connection points: 2
#     Edge 110, Type (0, 1), BuildingBlock: AJUNOK_clean_linker_0, # of connection points: 2
#     Edge 111, Type (0, 1), BuildingBlock: AJUNOK_clean_linker_0, # of connection points: 2
#     Edge 112, Type (0, 1), BuildingBlock: AJUNOK_clean_linker_0, # of connection points: 2
#     Edge 113, Type (0, 1), BuildingBlock: AJUNOK_clean_linker_0, # of connection points: 2
#     Edge 114, Type (0, 1), BuildingBlock: AJUNOK_clean_linker_0, # of connection points: 2
#     Edge 115, Type (0, 1), BuildingBlock: AJUNOK_clean_linker_0, # of connection points: 2
#     Edge 116, Type (0, 1), BuildingBlock: AJUNOK_clean_linker_0, # of connection points: 2
#     Edge 117, Type (0, 1), BuildingBlock: AJUNOK_clean_linker_0, # of connection points: 2
#     Edge 118, Type (0, 1), BuildingBlock: AJUNOK_clean_linker_0, # of connection points: 2
#     Edge 119, Type (0, 1), BuildingBlock: AJUNOK_clean_linker_0, # of connection points: 2
#     Edge 120, Type (0, 1), BuildingBlock: AJUNOK_clean_linker_0, # of connection points: 2
#     Edge 121, Type (0, 1), BuildingBlock: AJUNOK_clean_linker_0, # of connection points: 2
#     Edge 122, Type (0, 1), BuildingBlock: AJUNOK_clean_linker_0, # of connection points: 2
#     Edge 123, Type (0, 1), BuildingBlock: AJUNOK_clean_linker_0, # of connection points: 2
#     Edge 124, Type (0, 1), BuildingBlock: AJUNOK_clean_linker_0, # of connection points: 2
#     Edge 125, Type (0, 1), BuildingBlock: AJUNOK_clean_linker_0, # of connection points: 2
#     Edge 126, Type (0, 1), BuildingBlock: AJUNOK_clean_linker_0, # of connection points: 2
#     Edge 127, Type (0, 1), BuildingBlock: AJUNOK_clean_linker_0, # of connection points: 2
#     Edge 128, Type (0, 1), BuildingBlock: AJUNOK_clean_linker_0, # of connection points: 2
#     Edge 129, Type (0, 1), BuildingBlock: AJUNOK_clean_linker_0, # of connection points: 2
#     Edge 130, Type (0, 1), BuildingBlock: AJUNOK_clean_linker_0, # of connection points: 2
#     Edge 131, Type (0, 1), BuildingBlock: AJUNOK_clean_linker_0, # of connection points: 2
#     Edge 132, Type (0, 1), BuildingBlock: AJUNOK_clean_linker_0, # of connection points: 2
#     Edge 133, Type (0, 1), BuildingBlock: AJUNOK_clean_linker_0, # of connection points: 2
#     Edge 134, Type (0, 1), BuildingBlock: AJUNOK_clean_linker_0, # of connection points: 2
#     Edge 135, Type (0, 1), BuildingBlock: AJUNOK_clean_linker_0, # of connection points: 2
# Relax obj value: 0.209
# Max RMSD: 0.294
# Mean RMSD: 0.186
data_MOF--net-gar--node1-QUQFOY_clean_sbu_1--node2-PAMTOO_clean_sbu_0--edge1-AJUNOK_clean_linker_0
_symmetry_space_group_name_H-M    P1
_symmetry_Int_Tables_number       1
_symmetry_cell_setting            triclinic
loop_
_symmetry_equiv_pos_as_xyz
'x, y, z'
_cell_length_a     45.955601
_cell_length_b     45.923137
_cell_length_c     43.683657
_cell_angle_alpha  98.118258
_cell_angle_beta   97.142136
_cell_angle_gamma 108.17417
loop_
_atom_site_label
_atom_site_type_symbol
_atom_site_fract_x
_atom_site_fract_y
_atom_site_fract_z
_atom_type_partial_charge
O0 O 0.08918 0.31064 0.39889 0.0
Cd1 Cd 0.09402 0.33424 0.36163 0.0
Cd2 Cd 0.07498 0.37891 0.42125 0.0
O3 O 0.08397 0.34265 0.43967 0.0
O4 O 0.11698 0.31094 0.33259 0.0
O5 O 0.14173 0.35744 0.35983 0.0
C6 C 0.14348 0.33324 0.34194 0.0
C7 C 0.07722 0.42343 0.45933 0.0
C8 C 0.08637 0.31673 0.42756 0.0
C9 C 1.02799 0.3483 0.35688 0.0
O10 O 0.03713 0.36446 0.3847 0.0
O11 O 0.04649 0.33633 0.34315 0.0
O12 O 0.05697 0.39629 0.45702 0.0
O13 O 0.09662 0.42584 0.44011 0.0
O14 O 0.04185 0.73558 0.73928 0.0
Cd15 Cd 0.05285 0.77523 0.77717 0.0
Cd16 Cd 0.08504 0.80554 0.73037 0.0
O17 O 0.06599 0.76078 0.70521 0.0
O18 O 1.01621 0.76777 0.80425 0.0
O19 O 1.02424 0.80416 0.77654 0.0
C20 C 1.00699 0.78938 0.79458 0.0
C21 C 0.08826 0.84401 0.69908 0.0
C22 C 0.05032 0.73535 0.71233 0.0
C23 C 0.12843 0.80286 0.78781 0.0
O24 O 0.12467 0.81257 0.76227 0.0
O25 O 0.10392 0.78896 0.79911 0.0
O26 O 0.10534 0.82664 0.69777 0.0
O27 O 0.06898 0.83987 0.71843 0.0
O28 O 0.65858 0.86335 0.90835 0.0
Cd29 Cd 0.62138 0.8618 0.93184 0.0
Cd30 Cd 0.59252 0.87578 0.87778 0.0
O31 O 0.63321 0.86234 0.86161 0.0
O32 O 0.62847 0.8421 0.96856 0.0
O33 O 0.58795 0.82051 0.93004 0.0
C34 C 0.60283 0.8196 0.9568 0.0
C35 C 0.53475 0.85647 0.86076 0.0
C36 C 0.65794 0.86101 0.87886 0.0
C37 C 0.60766 0.92266 0.93954 0.0
O38 O 0.60267 0.91903 0.90957 0.0
O39 O 0.61406 0.90174 0.9524 0.0
O40 O 0.55342 0.87427 0.8459 0.0
O41 O 0.54857 0.84643 0.88255 0.0
O42 O 0.5414 0.2169 0.22417 0.0
Cd43 Cd 0.54851 0.25764 0.2603 0.0
Cd44 Cd 0.57843 0.28595 0.21391 0.0
O45 O 0.56178 0.24162 0.18792 0.0
O46 O 0.51091 0.25065 0.28642 0.0
O47 O 0.51853 0.28523 0.2567 0.0
C48 C 0.50128 0.27137 0.27525 0.0
C49 C 0.57939 0.32588 0.18564 0.0
C50 C 0.54913 0.21623 0.19681 0.0
C51 C 0.62321 0.28764 0.27185 0.0
O52 O 0.61879 0.29468 0.24503 0.0
O53 O 0.59911 0.27445 0.28398 0.0
O54 O 0.59721 0.30944 0.18235 0.0
O55 O 0.56008 0.3194 0.20476 0.0
O56 O 0.09051 0.77724 0.13109 0.0
Cd57 Cd 0.09634 0.81866 0.16058 0.0
Cd58 Cd 0.12472 0.84656 0.11166 0.0
O59 O 0.10981 0.79491 0.09075 0.0
O60 O 0.07689 0.80222 0.19574 0.0
O61 O 0.06021 0.83329 0.1698 0.0
C62 C 0.05802 0.81749 0.19209 0.0
C63 C 0.11074 0.89238 0.0951 0.0
C64 C 0.09789 0.77156 0.10433 0.0
C65 C 0.16576 0.85361 0.17621 0.0
O66 O 0.16512 0.85808 0.14783 0.0
O67 O 0.14063 0.84054 0.18542 0.0
O68 O 0.13154 0.8824 0.08413 0.0
O69 O 0.09656 0.87582 0.11394 0.0
O70 O 0.58267 0.80973 0.48938 0.0
Cd71 Cd 0.56382 0.80815 0.53039 0.0
Cd72 Cd 0.51719 0.83232 0.47314 0.0
O73 O 0.55169 0.82118 0.45279 0.0
O74 O 0.5893 0.78587 0.55732 0.0
O75 O 0.54122 0.7611 0.53553 0.0
C76 C 0.56653 0.75953 0.55083 0.0
C77 C 0.47327 0.83305 0.43649 0.0
C78 C 0.57589 0.81436 0.46164 0.0
C79 C 0.5522 0.87658 0.53881 0.0
O80 O 0.53426 0.86858 0.51203 0.0
O81 O 0.56432 0.85708 0.55 0.0
O82 O 0.50067 0.85314 0.43971 0.0
O83 O 0.47032 0.81237 0.4541 0.0
O84 O 0.60259 0.28762 0.64836 0.0
Cd85 Cd 0.61469 0.32893 0.67928 0.0
Cd86 Cd 0.64652 0.35779 0.63634 0.0
O87 O 0.62905 0.30675 0.61264 0.0
O88 O 0.59141 0.31443 0.71264 0.0
O89 O 0.58371 0.35093 0.68825 0.0
C90 C 0.57697 0.33387 0.70912 0.0
C91 C 0.63423 0.40539 0.62096 0.0
C92 C 0.61257 0.28282 0.62301 0.0
C93 C 0.6848 0.35303 0.69819 0.0
O94 O 0.68649 0.364 0.67268 0.0
O95 O 0.65825 0.3403 0.70482 0.0
O96 O 0.65487 0.39501 0.61015 0.0
O97 O 0.61962 0.3887 0.63946 0.0
O98 O 1.03237 0.23764 0.98358 0.0
Cd99 Cd 1.03321 0.27418 0.95999 0.0
Cd100 Cd 1.02143 0.30558 1.01435 0.0
O101 O 1.03456 0.26472 0.03035 0.0
O102 O 0.05471 0.2683 0.92395 0.0
O103 O 0.07345 0.30926 0.96275 0.0
C104 C 0.07599 0.29473 0.93618 0.0
C105 C 0.04004 0.36353 0.03266 0.0
C106 C 1.0354 0.23933 1.0132 0.0
C107 C 0.97306 0.28826 0.95325 0.0
O108 O 0.97819 0.29566 0.98324 0.0
O109 O 0.9928 0.27985 0.93966 0.0
O110 O 1.02184 0.34431 0.04672 0.0
O111 O 0.05104 0.35023 1.01093 0.0
O112 O 0.43816 0.07925 0.30848 0.0
Cd113 Cd 0.42624 0.08423 0.35302 0.0
Cd114 Cd 0.48397 0.09021 0.36048 0.0
O115 O 0.48561 0.11182 0.32327 0.0
O116 O 0.38066 0.07347 0.34247 0.0
O117 O 0.41191 0.1193 0.36954 0.0
C118 C 0.38407 0.10099 0.35708 0.0
C119 C 0.51617 0.10774 0.40767 0.0
C120 C 0.46364 0.09491 0.3013 0.0
C121 C 0.43948 0.03215 0.36508 0.0
O122 O 0.46137 0.04282 0.35043 0.0
O123 O 0.42838 0.05107 0.37909 0.0
O124 O 0.52556 0.09693 0.38323 0.0
O125 O 0.48913 0.11126 0.40417 0.0
O126 O 0.32828 0.25648 0.61697 0.0
Cd127 Cd 0.32187 0.22256 0.57815 0.0
Cd128 Cd 0.29858 0.26409 0.54898 0.0
O129 O 0.31192 0.29084 0.59574 0.0
O130 O 0.33496 0.19166 0.59899 0.0
O131 O 0.35846 0.21284 0.56267 0.0
C132 C 0.356 0.19367 0.58189 0.0
C133 C 0.31439 0.27717 0.50108 0.0
C134 C 0.3225 0.28194 0.61997 0.0
C135 C 0.2532 0.20116 0.54881 0.0
O136 O 0.25656 0.22823 0.54287 0.0
O137 O 0.27658 0.19473 0.56066 0.0
O138 O 0.29661 0.28964 0.5148 0.0
O139 O 0.32495 0.25878 0.51548 0.0
O140 O 0.14607 0.07338 0.76036 0.0
Cd141 Cd 0.17847 0.08215 0.80059 0.0
Cd142 Cd 0.13631 0.10627 0.82646 0.0
O143 O 0.11189 0.09238 0.77923 0.0
O144 O 0.20905 0.06516 0.78258 0.0
O145 O 0.18743 0.04837 0.8218 0.0
C146 C 0.20642 0.04702 0.80267 0.0
C147 C 0.12019 0.08936 0.87284 0.0
C148 C 0.1214 0.08035 0.75589 0.0
C149 C 0.19908 0.15189 0.82679 0.0
O150 O 0.17208 0.14865 0.83315 0.0
O151 O 0.2057 0.12824 0.81532 0.0
O152 O 0.10856 0.10744 0.85914 0.0
O153 O 0.13982 0.07947 0.85943 0.0
O154 O 0.31234 1.01878 0.0939 0.0
Cd155 Cd 0.32865 0.04805 0.06371 0.0
Cd156 Cd 0.32116 0.99441 0.01782 0.0
O157 O 0.30889 0.9789 0.05766 0.0
O158 O 0.30138 0.05837 0.03083 0.0
O159 O 0.32517 0.08943 0.07685 0.0
C160 C 0.30801 0.08486 0.0497 0.0
C161 C 0.30851 0.95057 0.97796 0.0
C162 C 0.30663 0.98969 0.08528 0.0
C163 C 0.3843 0.04481 0.03867 0.0
O164 O 0.36621 1.02192 0.01811 0.0
O165 O 0.37395 0.05723 0.06061 0.0
O166 O 0.32812 0.95487 1.00302 0.0
O167 O 0.29549 0.97136 0.97489 0.0
O168 O 0.32325 0.40398 0.13791 0.0
Cd169 Cd 0.33003 0.43281 0.10482 0.0
Cd170 Cd 0.34527 0.38476 0.07366 0.0
O171 O 0.33055 0.36299 0.1114 0.0
O172 O 0.31085 0.46529 0.11692 0.0
O173 O 0.29514 0.43235 0.07148 0.0
C174 C 0.29278 0.45584 0.08987 0.0
C175 C 0.3296 0.36412 0.01901 0.0
C176 C 0.32416 0.37634 0.13618 0.0
C177 C 0.39566 0.44774 0.09274 0.0
O178 O 0.3889 0.41865 0.08269 0.0
O179 O 0.37504 0.45828 0.1018 0.0
O180 O 0.34707 0.35384 0.03695 0.0
O181 O 0.31862 0.38427 0.03258 0.0
O182 O 0.85417 0.17938 0.17179 0.0
Cd183 Cd 0.83061 0.13692 0.1427 0.0
Cd184 Cd 0.8174 0.17379 0.10353 0.0
O185 O 0.84573 0.20908 0.13855 0.0
O186 O 0.85157 0.10522 0.13883 0.0
O187 O 0.84012 0.12895 0.10039 0.0
C188 C 0.85089 0.10831 0.10976 0.0
C189 C 0.81092 0.1825 0.05235 0.0
C190 C 0.85677 0.20629 0.16566 0.0
C191 C 0.76597 0.12902 0.13005 0.0
O192 O 0.77546 0.1497 0.11379 0.0
O193 O 0.78457 0.11812 0.1445 0.0
O194 O 0.80069 0.19617 0.07414 0.0
O195 O 0.82688 0.16514 0.05974 0.0
O196 O 0.2175 0.57034 0.22592 0.0
Cd197 Cd 0.25487 0.5891 0.26163 0.0
Cd198 Cd 0.21302 0.60233 0.29727 0.0
O199 O 0.18506 0.58318 0.25387 0.0
O200 O 0.28542 0.5676 0.25709 0.0
O201 O 0.26025 0.5679 0.29741 0.0
C202 C 0.28056 0.55954 0.28369 0.0
C203 C 0.18487 0.60409 0.33813 0.0
C204 C 0.19058 0.57147 0.22803 0.0
C205 C 0.27065 0.65432 0.2886 0.0
O206 O 0.24816 0.64423 0.30277 0.0
O207 O 0.27707 0.63591 0.26824 0.0
O208 O 0.18479 0.62095 0.31715 0.0
O209 O 0.20027 0.58498 0.33568 0.0
O210 O 0.84529 0.91614 0.65719 0.0
Cd211 Cd 0.84827 0.93954 0.62034 0.0
Cd212 Cd 0.86156 0.88788 0.59312 0.0
O213 O 0.8475 0.87122 0.6341 0.0
O214 O 0.83709 0.97623 0.63711 0.0
O215 O 0.80955 0.94148 0.59495 0.0
C216 C 0.81375 0.96704 0.61433 0.0
C217 C 0.84245 0.86538 0.53911 0.0
C218 C 0.84385 0.88825 0.65821 0.0
C219 C 0.91089 0.94982 0.60093 0.0
O220 O 0.9055 0.92056 0.59747 0.0
O221 O 0.89028 0.96112 0.60833 0.0
O222 O 0.85945 0.85436 0.55679 0.0
O223 O 0.83341 0.88703 0.5529 0.0
O224 O 0.98753 0.05974 0.23994 0.0
Cd225 Cd 0.96656 0.05772 0.27902 0.0
Cd226 Cd 1.01441 0.03842 0.30053 0.0
O227 O 1.03016 0.05097 0.25856 0.0
O228 O 0.93292 0.07497 0.26832 0.0
O229 O 0.97018 0.09626 0.30992 0.0
C230 C 0.94481 0.0961 0.29333 0.0
C231 C 0.03733 0.05784 0.35422 0.0
C232 C 1.01363 0.05717 0.23615 0.0
C233 C 0.9505 0.99298 0.29378 0.0
O234 O 0.97924 0.9961 0.2967 0.0
O235 O 0.94145 1.01535 0.28799 0.0
O236 O 0.04706 0.03916 0.3365 0.0
O237 O 1.01709 0.0683 0.34054 0.0
O238 O 0.34155 0.68969 0.66229 0.0
Cd239 Cd 0.32127 0.65486 0.6241 0.0
Cd240 Cd 0.31379 0.7013 0.59317 0.0
O241 O 0.33602 0.72644 0.63712 0.0
O242 O 0.3372 0.62023 0.62801 0.0
O243 O 0.34355 0.64706 0.58938 0.0
C244 C 0.3478 0.62474 0.60243 0.0
C245 C 0.31821 0.73188 0.55422 0.0
C246 C 0.34458 0.71808 0.6622 0.0
C247 C 0.25697 0.64827 0.60069 0.0
O248 O 0.26875 0.6723 0.58927 0.0
O249 O 0.27413 0.63699 0.61675 0.0
O250 O 0.30446 0.73641 0.57731 0.0
O251 O 0.33007 0.70983 0.55294 0.0
O252 O 0.50013 0.58113 0.76057 0.0
Cd253 Cd 0.47219 0.57456 0.7947 0.0
Cd254 Cd 0.51805 0.55497 0.82195 0.0
O255 O 0.53952 0.56971 0.78386 0.0
O256 O 0.44106 0.59557 0.78491 0.0
O257 O 0.47376 0.60888 0.83004 0.0
C258 C 0.45069 0.61248 0.81273 0.0
C259 C 0.5379 0.57069 0.87654 0.0
C260 C 0.52679 0.57816 0.7605 0.0
C261 C 0.45364 0.5077 0.80366 0.0
O262 O 0.48237 0.51237 0.81281 0.0
O263 O 0.44497 0.52976 0.79603 0.0
O264 O 0.54789 0.55242 0.85865 0.0
O265 O 0.51887 0.5825 0.86288 0.0
O266 O 0.72548 0.06867 0.72967 0.0
Cd267 Cd 0.77147 0.08689 0.74984 0.0
Cd268 Cd 0.7555 0.12077 0.79737 0.0
O269 O 0.71673 0.10474 0.76242 0.0
O270 O 0.79521 0.05756 0.74865 0.0
O271 O 0.78338 0.07901 0.7922 0.0
C272 C 0.79704 0.06131 0.77884 0.0
C273 C 0.73982 0.13267 0.8453 0.0
C274 C 0.7074 0.08285 0.73848 0.0
C275 C 0.80676 0.15255 0.76413 0.0
O276 O 0.79656 0.15111 0.78983 0.0
O277 O 0.79621 0.12964 0.74125 0.0
O278 O 0.74146 0.15018 0.82468 0.0
O279 O 0.74924 0.10907 0.83973 0.0
O280 O 0.82818 0.75878 0.13294 0.0
Cd281 Cd 0.82037 0.72418 0.09429 0.0
Cd282 Cd 0.79617 0.76564 0.0661 0.0
O283 O 0.8079 0.79138 0.11302 0.0
O284 O 0.83818 0.69543 0.11424 0.0
O285 O 0.8548 0.71487 0.07393 0.0
C286 C 0.85654 0.69728 0.09416 0.0
C287 C 0.81172 0.78272 0.01947 0.0
C288 C 0.82036 0.7831 0.13669 0.0
C289 C 0.75146 0.7017 0.06726 0.0
O290 O 0.75518 0.72799 0.05921 0.0
O291 O 0.7747 0.69573 0.0803 0.0
O292 O 0.79022 0.79005 0.03182 0.0
O293 O 0.82585 0.76721 0.03449 0.0
O294 O 0.87142 0.54135 0.78822 0.0
Cd295 Cd 0.84207 0.53657 0.82032 0.0
Cd296 Cd 0.90045 0.55857 0.86992 0.0
O297 O 0.91246 0.55916 0.82622 0.0
O298 O 0.80166 0.5404 0.80401 0.0
O299 O 0.83596 0.57345 0.84428 0.0
C300 C 0.80901 0.56465 0.82617 0.0
C301 C 0.94682 0.5736 0.90654 0.0
C302 C 0.90071 0.55197 0.79721 0.0
C303 C 0.84653 0.49792 0.86751 0.0
O304 O 0.86994 0.52062 0.88252 0.0
O305 O 0.83363 0.49845 0.84033 0.0
O306 O 0.93753 0.54828 0.88604 0.0
O307 O 0.92983 0.59126 0.90632 0.0
O308 O 0.82873 0.47184 0.59289 0.0
Cd309 Cd 0.82112 0.48569 0.55013 0.0
Cd310 Cd 0.81349 0.42684 0.53743 0.0
O311 O 0.79563 0.42443 0.57733 0.0
O312 O 0.78715 0.5027 0.53838 0.0
O313 O 0.83438 0.53146 0.56367 0.0
C314 C 0.80702 0.5299 0.55109 0.0
C315 C 0.79457 0.39305 0.49061 0.0
C316 C 0.81389 0.44573 0.59928 0.0
C317 C 0.87037 0.47066 0.52963 0.0
O318 O 0.86071 0.44809 0.54357 0.0
O319 O 0.85146 0.48378 0.52022 0.0
O320 O 0.80645 0.38465 0.5148 0.0
O321 O 0.79032 0.41982 0.4943 0.0
O322 O 0.64797 0.57298 0.27829 0.0
Cd323 Cd 0.68103 0.57969 0.31733 0.0
Cd324 Cd 0.63941 0.604 0.34555 0.0
O325 O 0.61289 0.5892 0.29895 0.0
O326 O 0.71219 0.56636 0.29647 0.0
O327 O 0.69036 0.54306 0.33254 0.0
C328 C 0.70977 0.54531 0.31333 0.0
C329 C 0.62796 0.58903 0.39411 0.0
C330 C 0.6224 0.57839 0.27492 0.0
C331 C 0.70217 0.649 0.34564 0.0
O332 O 0.67484 0.64618 0.3507 0.0
O333 O 0.70876 0.62514 0.33489 0.0
O334 O 0.6145 0.60601 0.38073 0.0
O335 O 0.64614 0.57849 0.37887 0.0
Dy336 Dy 0.10746 0.08739 0.07319 0.0
Dy337 Dy 0.03914 0.04586 0.03853 0.0
C338 C 0.0927 0.06773 0.99751 0.0
O339 O 0.08487 0.12474 0.06495 0.0
O340 O 0.03852 0.09495 0.03344 0.0
O341 O 0.13666 0.13018 0.10479 0.0
O342 O 0.15623 0.09545 0.08662 0.0
O343 O 1.03382 0.06457 0.08741 0.0
O344 O 0.08254 0.07079 0.11166 0.0
O345 O 0.05804 1.00925 0.05603 0.0
O346 O 0.10986 0.03746 0.07073 0.0
O347 O 0.99567 1.00996 0.03854 0.0
O348 O 1.00346 0.02958 0.99692 0.0
C349 C 0.05864 0.12292 0.04696 0.0
O350 O 0.11049 0.08813 0.02218 0.0
O351 O 0.06761 0.04554 1.00038 0.0
C352 C 0.18717 0.14714 0.09269 0.0
C353 C 0.23883 0.16236 0.06335 0.0
C354 C 0.20982 0.16115 0.04741 0.0
C355 C 0.18377 0.15286 0.06193 0.0
C356 C 0.21687 0.1558 0.11068 0.0
C357 C 0.24276 0.16375 0.09614 0.0
C358 C 0.16196 0.1237 0.10199 0.0
C359 C 0.05342 0.06728 0.11316 0.0
C360 C 0.0868 1.01034 0.06626 0.0
C361 C 0.9538 1.01904 1.01069 0.0
C362 C 0.90543 0.03845 0.02862 0.0
C363 C 0.92875 0.05823 0.01586 0.0
C364 C 0.95282 0.04862 1.00699 0.0
C365 C 0.92882 0.99808 0.0203 0.0
C366 C 0.90475 1.00779 0.02934 0.0
C367 C 0.98307 1.01255 1.0111 0.0
H368 H 0.20639 0.16167 0.02254 0.0
H369 H 0.16082 0.14684 0.04789 0.0
H370 H 0.21985 0.15202 0.13464 0.0
H371 H 0.2649 0.16561 0.10964 0.0
H372 H 0.93009 0.08216 1.01556 0.0
H373 H 0.97191 0.06535 0.99982 0.0
H374 H 0.92928 0.97521 0.02336 0.0
H375 H 0.88691 0.99221 0.03913 0.0
Dy376 Dy 0.3424 0.85074 0.27707 0.0
Dy377 Dy 0.30152 0.84605 0.33295 0.0
C378 C 0.34854 0.90872 0.32557 0.0
O379 O 0.37686 0.85284 0.32011 0.0
O380 O 0.34235 0.83287 0.35209 0.0
O381 O 0.38 0.87907 0.25762 0.0
O382 O 0.34957 0.834 0.23088 0.0
O383 O 0.28867 0.79915 0.30264 0.0
O384 O 0.33399 0.80248 0.2847 0.0
O385 O 0.27579 0.86298 0.29586 0.0
O386 O 0.29273 0.84155 0.25421 0.0
O387 O 0.26401 0.81783 0.35245 0.0
O388 O 0.28972 0.86543 0.37585 0.0
C389 C 0.37074 0.84127 0.34565 0.0
O390 O 0.33878 0.89659 0.29581 0.0
O391 O 0.34063 0.89118 0.34624 0.0
C392 C 0.35849 0.87727 0.20529 0.0
C393 C 0.33255 0.91248 0.16934 0.0
C394 C 0.36282 0.92584 0.18702 0.0
C395 C 0.37574 0.90831 0.20469 0.0
C396 C 0.32874 0.86357 0.18635 0.0
C397 C 0.31597 0.88099 0.16853 0.0
C398 C 0.36875 0.86151 0.22971 0.0
C399 C 0.30847 0.78623 0.29304 0.0
C400 C 0.27301 0.85398 0.2653 0.0
C401 C 0.27879 0.82634 0.40703 0.0
C402 C 0.29668 0.79759 0.4554 0.0
C403 C 0.26712 0.78418 0.43636 0.0
C404 C 0.25817 0.79855 0.41247 0.0
C405 C 0.30828 0.83993 0.42643 0.0
C406 C 0.31703 0.82576 0.45056 0.0
C407 C 0.27117 0.83821 0.37852 0.0
H408 H 0.37648 0.94984 0.18718 0.0
H409 H 0.39875 0.91937 0.21888 0.0
H410 H 0.31469 0.83971 0.18616 0.0
H411 H 0.29279 0.87004 0.15467 0.0
H412 H 0.25102 0.7625 0.43989 0.0
H413 H 0.23554 0.78739 0.39753 0.0
H414 H 0.32499 0.86098 0.42244 0.0
H415 H 0.34001 0.83635 0.46492 0.0
Dy416 Dy 0.5525 0.0731 0.5947 0.0
Dy417 Dy 0.62162 0.08815 0.5784 0.0
C418 C 0.56636 0.08951 0.52773 0.0
O419 O 0.55273 0.02473 0.5734 0.0
O420 O 0.60544 0.03568 0.58005 0.0
O421 O 0.50271 0.05085 0.58363 0.0
O422 O 0.52446 0.08103 0.62912 0.0
O423 O 0.62414 0.10031 0.62983 0.0
O424 O 0.58119 0.06095 0.63258 0.0
O425 O 0.61554 0.13569 0.57938 0.0
O426 O 0.57436 0.1267 0.60574 0.0
O427 O 0.67106 0.1113 0.59388 0.0
O428 O 0.65363 0.08006 0.54876 0.0
C429 C 0.57696 1.01484 0.57407 0.0
O430 O 0.5488 0.08883 0.54919 0.0
O431 O 0.5928 0.08429 0.53255 0.0
C432 C 0.47744 0.08458 0.60463 0.0
C433 C 0.43825 0.12059 0.59696 0.0
C434 C 0.45523 0.115 0.57352 0.0
C435 C 0.47474 0.09726 0.57736 0.0
C436 C 0.46102 0.09062 0.62832 0.0
C437 C 0.44173 0.10862 0.62462 0.0
C438 C 0.49852 0.06648 0.60917 0.0
C439 C 0.60892 0.08012 0.64524 0.0
C440 C 0.59634 0.14625 0.59416 0.0
C441 C 0.69857 0.07831 0.57855 0.0
C442 C 0.73593 0.04226 0.59193 0.0
C443 C 0.70812 0.03745 0.60358 0.0
C444 C 0.68952 0.05543 0.59695 0.0
C445 C 0.72657 0.08338 0.56721 0.0
C446 C 0.74527 0.06543 0.57396 0.0
C447 C 0.678 0.09573 0.57022 0.0
H448 H 0.45312 0.12398 0.55202 0.0
H449 H 0.48767 0.09344 0.55898 0.0
H450 H 0.4633 0.0816 0.64978 0.0
H451 H 0.42968 0.11332 0.64352 0.0
H452 H 0.70081 1.01973 0.61763 0.0
H453 H 0.66794 0.05132 0.60592 0.0
H454 H 0.73376 0.10092 0.55293 0.0
H455 H 0.76684 0.06938 0.56497 0.0
Dy456 Dy 0.35253 0.31996 0.82327 0.0
Dy457 Dy 0.29342 0.34437 0.81233 0.0
C458 C 0.36224 0.39016 0.81505 0.0
O459 O 0.3359 0.32066 0.86917 0.0
O460 O 0.31237 0.35729 0.86463 0.0
O461 O 0.39733 0.32418 0.84907 0.0
O462 O 0.37485 0.28674 0.80878 0.0
O463 O 0.27535 0.29887 0.82783 0.0
O464 O 0.31031 0.2772 0.81113 0.0
O465 O 0.29765 0.32335 0.76337 0.0
O466 O 0.34903 0.32791 0.77391 0.0
O467 O 0.24528 0.33545 0.79253 0.0
O468 O 0.27293 0.38038 0.82153 0.0
C469 C 0.32393 0.34083 0.88198 0.0
O470 O 0.37232 0.37201 0.83105 0.0
O471 O 0.33302 0.38163 0.80132 0.0
C472 C 0.42852 0.31062 0.81464 0.0
C473 C 0.4787 0.32402 0.78206 0.0
C474 C 0.46338 0.34577 0.78805 0.0
C475 C 0.43828 0.33899 0.80401 0.0
C476 C 0.44403 0.28912 0.80918 0.0
C477 C 0.46892 0.29574 0.793 0.0
C478 C 0.40049 0.30214 0.82874 0.0
C479 C 0.28386 0.27444 0.82075 0.0
C480 C 0.32367 0.32305 0.75358 0.0
C481 C 0.22133 0.35784 0.82903 0.0
C482 C 0.17466 0.34332 0.86614 0.0
C483 C 0.16731 0.34678 0.83491 0.0
C484 C 0.1905 0.35405 0.81651 0.0
C485 C 0.22882 0.35497 0.86041 0.0
C486 C 0.20571 0.34789 0.87882 0.0
C487 C 0.24496 0.3615 0.80867 0.0
H488 H 0.47073 0.36794 0.78039 0.0
H489 H 0.42621 0.3557 0.80763 0.0
H490 H 0.43644 0.26693 0.81681 0.0
H491 H 0.48012 0.27842 0.78844 0.0
H492 H 0.1435 0.34327 0.82457 0.0
H493 H 0.18422 0.3558 0.79227 0.0
H494 H 0.25236 0.3572 0.8704 0.0
H495 H 0.21193 0.3447 0.90256 0.0
Dy496 Dy 0.08744 0.04362 0.55169 0.0
Dy497 Dy 0.0618 0.10331 0.56129 0.0
C498 C 1.01906 0.03508 0.56525 0.0
O499 O 0.08315 0.0561 0.50378 0.0
O500 O 0.04742 0.08096 0.50985 0.0
O501 O 0.07998 0.99553 0.53118 0.0
O502 O 0.12231 0.02279 0.56386 0.0
O503 O 0.10636 0.12002 0.54382 0.0
O504 O 0.12977 0.08622 0.55976 0.0
O505 O 0.08338 0.10223 0.61048 0.0
O506 O 0.0832 0.05172 0.6024 0.0
O507 O 0.07036 0.15177 0.58044 0.0
O508 O 1.02635 0.12395 0.55041 0.0
C509 C 0.06292 0.06827 0.49177 0.0
O510 O 0.03589 0.0244 0.54751 0.0
O511 O 1.0266 0.06502 0.57646 0.0
C512 C 0.09921 0.97095 0.56888 0.0
C513 C 0.09378 0.9286 0.61053 0.0
C514 C 0.08119 0.95278 0.61509 0.0
C515 C 0.08381 0.97368 0.59441 0.0
C516 C 0.11079 0.94624 0.5635 0.0
C517 C 0.10787 0.92506 0.58401 0.0
C518 C 0.10458 0.99494 0.54919 0.0
C519 C 0.13127 0.1124 0.55017 0.0
C520 C 0.08581 0.07757 0.62146 0.0
C521 C 0.04992 0.17522 0.54295 0.0
C522 C 0.06253 0.22056 0.50451 0.0
C523 C 0.07179 0.19417 0.49875 0.0
C524 C 0.06537 0.17166 0.51765 0.0
C525 C 0.04067 0.20147 0.54895 0.0
C526 C 0.04689 0.22398 0.52985 0.0
C527 C 0.04497 0.15206 0.56356 0.0
H528 H 0.07012 0.95612 0.63518 0.0
H529 H 0.0744 0.99241 0.59878 0.0
H530 H 0.1225 0.94361 0.54377 0.0
H531 H 0.11695 0.90609 0.57927 0.0
H532 H 0.0845 0.19112 0.47996 0.0
H533 H 0.07286 0.1516 0.51277 0.0
H534 H 1.02884 0.20465 0.56847 0.0
H535 H 0.03934 0.24399 0.5348 0.0
Dy536 Dy 0.33704 0.85853 0.81498 0.0
Dy537 Dy 0.3244 0.79584 0.847 0.0
C538 C 0.3244 0.86006 0.88377 0.0
O539 O 0.38549 0.85395 0.82199 0.0
O540 O 0.37765 0.81956 0.85608 0.0
O541 O 0.35781 0.90866 0.82053 0.0
O542 O 0.32625 0.8818 0.77773 0.0
O543 O 0.33296 0.78071 0.79936 0.0
O544 O 0.34002 0.82377 0.7761 0.0
O545 O 0.27421 0.79359 0.83017 0.0
O546 O 0.2843 0.84057 0.81374 0.0
O547 O 0.30375 0.74627 0.84483 0.0
O548 O 0.33554 0.77556 0.88674 0.0
C549 C 0.39668 0.83854 0.84125 0.0
O550 O 0.34401 0.87303 0.86649 0.0
O551 O 0.31103 0.8298 0.87897 0.0
C552 C 0.32206 0.93016 0.79792 0.0
C553 C 0.28464 0.96846 0.8027 0.0
C554 C 0.27585 0.93952 0.81237 0.0
C555 C 0.29451 0.92069 0.81022 0.0
C556 C 0.33108 0.95905 0.78842 0.0
C557 C 0.31255 0.97808 0.79083 0.0
C558 C 0.34089 0.90958 0.79464 0.0
C559 C 0.33906 0.79494 0.77573 0.0
C560 C 0.26414 0.81509 0.81957 0.0
C561 C 0.34027 0.72602 0.86861 0.0
C562 C 0.3777 0.68877 0.85553 0.0
C563 C 0.34554 0.6775 0.84364 0.0
C564 C 0.32704 0.69587 0.85017 0.0
C565 C 0.37216 0.73669 0.88179 0.0
C566 C 0.39071 0.71832 0.8752 0.0
C567 C 0.32147 0.74705 0.87098 0.0
H568 H 0.25421 0.93104 0.82093 0.0
H569 H 0.28721 0.89853 0.81783 0.0
H570 H 0.35231 0.96678 0.77898 0.0
H571 H 0.32003 1.00034 0.78332 0.0
H572 H 0.33479 0.65466 0.82868 0.0
H573 H 0.30253 0.68692 0.83983 0.0
H574 H 0.38307 0.75967 0.89631 0.0
H575 H 0.41544 0.72779 0.88445 0.0
Dy576 Dy 0.58285 0.09192 0.04346 0.0
Dy577 Dy 0.56624 0.04224 0.09057 0.0
C578 C 0.58452 1.02237 0.02389 0.0
O579 O 0.53174 0.06688 0.0295 0.0
O580 O 0.52355 0.05292 0.07666 0.0
O581 O 0.57654 0.10231 0.99692 0.0
O582 O 0.60937 0.13696 0.03488 0.0
O583 O 0.57032 0.08909 0.11963 0.0
O584 O 0.56401 0.11646 0.08054 0.0
O585 O 0.61716 0.05562 0.09344 0.0
O586 O 0.6237 0.1039 0.08183 0.0
O587 O 0.57529 0.02763 0.13455 0.0
O588 O 0.53604 0.99846 0.09846 0.0
C589 C 0.51347 0.05869 0.04972 0.0
O590 O 0.59823 0.05215 0.02393 0.0
O591 O 0.56608 1.01366 0.04414 0.0
C592 C 0.62275 0.13352 0.98415 0.0
C593 C 0.66578 0.1386 0.9428 0.0
C594 C 0.67473 0.13752 0.97447 0.0
C595 C 0.65339 0.13497 0.99499 0.0
C596 C 0.61373 0.13432 0.95256 0.0
C597 C 0.6349 0.13652 0.93203 0.0
C598 C 0.59925 0.12893 1.00463 0.0
C599 C 0.56471 0.11331 0.1102 0.0
C600 C 0.63454 0.08445 0.09478 0.0
C601 C 0.52763 1.00796 0.15041 0.0
C602 C 0.49935 0.03189 0.19652 0.0
C603 C 0.48943 0.03145 0.16477 0.0
C604 C 0.50338 1.01948 0.14188 0.0
C605 C 0.53598 1.00629 0.18188 0.0
C606 C 0.52185 1.01812 0.20482 0.0
C607 C 0.54851 1.005 0.12825 0.0
H608 H 0.69816 0.13854 0.98335 0.0
H609 H 0.66076 0.13376 0.01918 0.0
H610 H 0.59005 0.13256 0.9436 0.0
H611 H 0.62683 0.13592 0.9075 0.0
H612 H 0.47249 0.04231 0.1578 0.0
H613 H 0.49668 1.02138 0.1178 0.0
H614 H 0.55487 0.9979 0.18897 0.0
H615 H 0.52967 1.01805 0.22924 0.0
Dy616 Dy 0.30626 0.27355 0.2962 0.0
Dy617 Dy 0.34407 0.34402 0.32657 0.0
C618 C 0.32974 0.29477 0.37217 0.0
O619 O 0.26791 0.29554 0.29789 0.0
O620 O 0.29409 0.33972 0.33415 0.0
O621 O 0.26195 0.23627 0.28656 0.0
O622 O 0.30118 0.22871 0.26867 0.0
O623 O 0.32098 0.34548 0.27873 0.0
O624 O 0.31608 0.29667 0.25457 0.0
O625 O 0.38167 0.32551 0.30889 0.0
O626 O 0.35676 0.27303 0.30235 0.0
O627 O 0.37752 0.38781 0.32287 0.0
O628 O 0.35655 0.38388 0.36438 0.0
C629 C 0.26725 0.31958 0.31807 0.0
O630 O 0.30986 0.2743 0.3486 0.0
O631 O 0.3494 0.32062 0.36736 0.0
C632 C 0.26972 0.18851 0.28919 0.0
C633 C 0.28622 0.147 0.3229 0.0
C634 C 0.27665 0.17042 0.33824 0.0
C635 C 0.26868 0.1913 0.32149 0.0
C636 C 0.27458 0.16232 0.27314 0.0
C637 C 0.28278 0.14158 0.28994 0.0
C638 C 0.27332 0.21571 0.27423 0.0
C639 C 0.31759 0.32542 0.25291 0.0
C640 C 0.38259 0.29663 0.30304 0.0
C641 C 0.3612 0.42848 0.34316 0.0
C642 C 0.33919 0.47648 0.33011 0.0
C643 C 0.32139 0.44537 0.31721 0.0
C644 C 0.33225 0.42153 0.32381 0.0
C645 C 0.3789 0.45956 0.35663 0.0
C646 C 0.36782 0.48362 0.35018 0.0
C647 C 0.37244 0.40279 0.34817 0.0
H648 H 0.27862 0.17463 0.36358 0.0
H649 H 0.26475 0.21125 0.33442 0.0
H650 H 0.27537 0.15977 0.24824 0.0
H651 H 0.28997 0.12358 0.27754 0.0
H652 H 0.29924 0.4396 0.3017 0.0
H653 H 0.31821 0.39762 0.31341 0.0
H654 H 0.40126 0.46517 0.37167 0.0
H655 H 0.38177 0.50766 0.36016 0.0
Dy656 Dy 0.58435 0.54662 0.06999 0.0
Dy657 Dy 0.55934 0.60559 0.0839 0.0
C658 C 0.5147 0.5365 0.08154 0.0
O659 O 0.58153 0.56313 0.02419 0.0
O660 O 0.54473 0.58599 0.03182 0.0
O661 O 0.57773 0.50074 0.04379 0.0
O662 O 0.61812 0.52409 0.08039 0.0
O663 O 0.604 0.62354 0.06657 0.0
O664 O 0.62703 0.58898 0.08082 0.0
O665 O 0.58067 0.60149 0.13213 0.0
O666 O 0.57897 0.55069 0.12052 0.0
O667 O 0.56874 0.65392 0.10455 0.0
O668 O 0.52377 0.62666 0.07603 0.0
C669 C 0.56074 0.57496 1.01305 0.0
O670 O 0.53263 0.52689 0.0644 0.0
O671 O 0.52253 0.56584 0.09536 0.0
C672 C 0.59432 0.47049 0.07651 0.0
C673 C 0.58641 0.42155 0.11018 0.0
C674 C 0.57234 0.44423 0.11702 0.0
C675 C 0.57623 0.46848 0.10026 0.0
C676 C 0.60716 0.44718 0.06856 0.0
C677 C 0.603 0.42269 0.0851 0.0
C678 C 0.60127 0.49792 0.06161 0.0
C679 C 0.62887 0.61567 0.07232 0.0
C680 C 0.58257 0.57581 0.14125 0.0
C681 C 0.54726 0.67764 0.06808 0.0
C682 C 0.5598 0.72265 0.02946 0.0
C683 C 0.56369 0.69373 0.0205 0.0
C684 C 0.5577 0.67154 0.03976 0.0
C685 C 0.54295 0.70631 0.07698 0.0
C686 C 0.54934 0.72878 0.05785 0.0
C687 C 0.54297 0.65461 0.08881 0.0
H688 H 0.55933 0.44391 0.13609 0.0
H689 H 0.56591 0.48622 0.10645 0.0
H690 H 0.62092 0.44827 0.05007 0.0
H691 H 0.61326 0.40495 0.07864 0.0
H692 H 0.57241 0.6887 0.99914 0.0
H693 H 0.56195 0.64985 0.03291 0.0
H694 H 0.53526 0.71155 0.09892 0.0
H695 H 0.54642 0.75106 0.06533 0.0
Dy696 Dy 0.83165 0.34929 0.30398 0.0
Dy697 Dy 0.81868 0.2825 0.32663 0.0
C698 C 0.81611 0.34084 0.37175 0.0
O699 O 0.88018 0.35041 0.32617 0.0
O700 O 0.87046 0.29794 0.32335 0.0
O701 O 0.85276 0.39933 0.314 0.0
O702 O 0.82385 0.37571 0.26841 0.0
O703 O 0.81377 0.27423 0.27479 0.0
O704 O 0.84717 0.32041 0.26857 0.0
O705 O 0.77017 0.28725 0.3212 0.0
O706 O 0.7789 0.32435 0.29013 0.0
O707 O 0.79917 0.23202 0.31658 0.0
O708 O 0.82546 0.25643 0.36264 0.0
C709 C 0.89061 0.3265 0.32677 0.0
O710 O 0.81218 0.354 0.34769 0.0
O711 O 0.82726 0.31789 0.36979 0.0
C712 C 0.81871 0.42299 0.29159 0.0
C713 C 0.7822 0.46202 0.29811 0.0
C714 C 0.78772 0.44593 0.32205 0.0
C715 C 0.80569 0.42652 0.31877 0.0
C716 C 0.81267 0.43842 0.26735 0.0
C717 C 0.79443 0.45764 0.27049 0.0
C718 C 0.83747 0.40232 0.28796 0.0
C719 C 0.83438 0.29019 0.25997 0.0
C720 C 0.75939 0.30407 0.30339 0.0
C721 C 0.83385 0.21046 0.34098 0.0
C722 C 0.87222 0.17416 0.33035 0.0
C723 C 0.8854 0.20657 0.34077 0.0
C724 C 0.86639 0.22459 0.34591 0.0
C725 C 0.82068 0.178 0.33139 0.0
C726 C 0.83972 0.15998 0.32605 0.0
C727 C 0.81361 0.22967 0.34326 0.0
H728 H 0.77857 0.44876 0.34355 0.0
H729 H 0.80953 0.4144 0.33759 0.0
H730 H 0.82198 0.43552 0.24595 0.0
H731 H 0.78981 0.46901 0.25124 0.0
H732 H 0.9103 0.21811 0.34384 0.0
H733 H 0.87714 0.24967 0.35297 0.0
H734 H 0.79565 0.16672 0.32725 0.0
H735 H 0.82902 0.13498 0.31806 0.0
Dy736 Dy 0.05737 0.59615 0.55477 0.0
Dy737 Dy 0.06317 0.56144 0.6144 0.0
C738 C 0.07096 0.52983 0.54692 0.0
O739 O 1.00904 0.57416 0.56172 0.0
O740 O 1.01832 0.53466 0.58278 0.0
O741 O 1.03551 0.59646 0.50816 0.0
O742 O 0.07409 0.63672 0.53387 0.0
O743 O 0.0406 0.59723 0.6282 0.0
O744 O 0.06209 0.63168 0.59796 0.0
O745 O 0.11135 0.59348 0.61591 0.0
O746 O 0.10588 0.59697 0.56397 0.0
O747 O 0.0769 0.56536 0.66438 0.0
O748 O 0.05166 0.52013 0.63504 0.0
C749 C 0.99945 0.5457 0.5671 0.0
O750 O 0.05914 0.54894 0.53402 0.0
O751 O 0.07883 0.53329 0.57766 0.0
C752 C 0.07475 0.6196 0.48121 0.0
C753 C 0.11098 0.61487 0.43465 0.0
C754 C 0.11232 0.59923 0.45985 0.0
C755 C 0.09429 0.6015 0.48282 0.0
C756 C 0.07291 0.63497 0.45595 0.0
C757 C 0.09082 0.63248 0.43265 0.0
C758 C 0.05704 0.62231 0.50648 0.0
C759 C 0.04938 0.62582 0.62278 0.0
C760 C 0.12332 0.60094 0.59119 0.0
C761 C 1.03435 0.53339 0.68146 0.0
C762 C 0.98865 0.53793 0.71724 0.0
C763 C 0.98359 0.53807 0.68498 0.0
C764 C 1.00628 0.53592 0.66727 0.0
C765 C 0.03899 0.53189 0.71338 0.0
C766 C 1.01614 0.53393 0.73115 0.0
C767 C 0.0597 0.53657 0.6635 0.0
H768 H 0.12769 0.58563 0.46209 0.0
H769 H 0.09588 0.58933 0.5021 0.0
H770 H 0.05776 0.64884 0.45428 0.0
H771 H 0.08881 0.64419 0.41305 0.0
H772 H 0.96271 0.54124 0.67373 0.0
H773 H 1.00242 0.53755 0.64269 0.0
H774 H 0.06059 0.53019 0.72472 0.0
H775 H 1.02027 0.53313 0.75593 0.0
Dy776 Dy 0.85596 0.81643 0.33958 0.0
Dy777 Dy 0.79553 0.84034 0.33252 0.0
C778 C 0.8632 0.88546 0.32849 0.0
O779 O 0.84364 0.8199 0.38774 0.0
O780 O 0.81736 0.85467 0.38409 0.0
O781 O 0.90333 0.82239 0.3598 0.0
O782 O 0.87604 0.78127 0.32493 0.0
O783 O 0.78025 0.7957 0.34979 0.0
O784 O 0.81362 0.77377 0.32971 0.0
O785 O 0.79768 0.81939 0.28288 0.0
O786 O 0.84898 0.8229 0.28985 0.0
O787 O 0.74703 0.82958 0.31299 0.0
O788 O 0.77287 0.8743 0.34349 0.0
C789 C 0.83125 0.83956 0.40109 0.0
O790 O 0.87506 0.8682 0.34417 0.0
O791 O 0.83312 0.87723 0.3184 0.0
C792 C 0.92827 0.80357 0.32116 0.0
C793 C 0.97043 0.81041 0.27877 0.0
C794 C 0.95765 0.83393 0.28694 0.0
C795 C 0.93654 0.83042 0.30774 0.0
C796 C 0.94135 0.78035 0.31352 0.0
C797 C 0.96224 0.78371 0.29253 0.0
C798 C 0.9037 0.79816 0.34039 0.0
C799 C 0.7882 0.77121 0.34137 0.0
C800 C 0.82281 0.81906 0.27126 0.0
C801 C 0.72052 0.84934 0.34872 0.0
C802 C 0.67205 0.83374 0.38383 0.0
C803 C 0.66531 0.83191 0.35115 0.0
C804 C 0.68932 0.83962 0.33379 0.0
C805 C 0.72739 0.85141 0.38137 0.0
C806 C 0.7034 0.84397 0.39878 0.0
C807 C 0.74542 0.85474 0.32971 0.0
H808 H 0.96398 0.85506 0.27731 0.0
H809 H 0.92632 0.84844 0.31296 0.0
H810 H 0.93484 0.75926 0.32323 0.0
H811 H 0.97153 0.7651 0.28656 0.0
H812 H 0.64142 0.82407 0.33893 0.0
H813 H 0.68351 0.83749 0.30857 0.0
H814 H 0.75128 0.85852 0.39345 0.0
H815 H 0.70945 0.84646 0.424 0.0
Dy816 Dy 0.85912 0.34804 0.81461 0.0
Dy817 Dy 0.80298 0.30247 0.84117 0.0
C818 C 0.82997 0.37297 0.86798 0.0
O819 O 0.88374 0.32555 0.84672 0.0
O820 O 0.84612 0.30828 0.87639 0.0
O821 O 0.88309 0.3956 0.81092 0.0
O822 O 0.89977 0.35858 0.79256 0.0
O823 O 0.82714 0.27358 0.81729 0.0
O824 O 0.843 0.30276 0.78046 0.0
O825 O 0.77871 0.30989 0.79621 0.0
O826 O 0.81583 0.35387 0.78894 0.0
O827 O 0.76553 0.2588 0.83635 0.0
O828 O 0.77536 0.29551 0.87744 0.0
C829 C 0.87499 0.3139 0.87135 0.0
O830 O 0.85614 0.36954 0.86259 0.0
O831 O 0.80398 0.35104 0.85454 0.0
C832 C 0.89615 0.39534 0.76136 0.0
C833 C 0.87593 0.4131 0.70586 0.0
C834 C 0.8988 0.4351 0.72969 0.0
C835 C 0.90884 0.42626 0.75739 0.0
C836 C 0.87423 0.37319 0.73706 0.0
C837 C 0.86419 0.38198 0.70966 0.0
C838 C 0.90042 0.38721 0.79241 0.0
C839 C 0.83691 0.27643 0.79064 0.0
C840 C 0.78698 0.33426 0.78237 0.0
C841 C 0.76227 0.24459 0.88619 0.0
C842 C 0.7744 0.21233 0.93359 0.0
C843 C 0.78484 0.20768 0.905 0.0
C844 C 0.7791 0.22397 0.88154 0.0
C845 C 0.75034 0.24781 0.91392 0.0
C846 C 0.75641 0.23195 0.93743 0.0
C847 C 0.76068 0.26617 0.86484 0.0
H848 H 0.90815 0.45923 0.7273 0.0
H849 H 0.92526 0.44378 0.77622 0.0
H850 H 0.86333 0.3494 0.73999 0.0
H851 H 0.8458 0.3647 0.69227 0.0
H852 H 0.79799 0.19205 0.90104 0.0
H853 H 0.78869 0.2212 0.86032 0.0
H854 H 0.73754 0.26379 0.918 0.0
H855 H 0.74823 0.23628 0.95926 0.0
Dy856 Dy 0.8122 0.79189 0.81821 0.0
Dy857 Dy 0.85217 0.86035 0.85303 0.0
C858 C 0.83142 0.80778 0.89348 0.0
O859 O 0.77407 0.81423 0.82376 0.0
O860 O 0.80262 0.85815 0.8598 0.0
O861 O 0.77 0.75954 0.78804 0.0
O862 O 0.80765 0.74377 0.80517 0.0
O863 O 0.8327 0.86463 0.80447 0.0
O864 O 0.82862 0.8164 0.77968 0.0
O865 O 0.88965 0.84285 0.83463 0.0
O866 O 0.86255 0.79061 0.82192 0.0
O867 O 0.8881 0.90393 0.85332 0.0
O868 O 0.86457 0.89816 0.89307 0.0
C869 C 0.7751 0.83906 0.84409 0.0
O870 O 0.80926 0.79213 0.86937 0.0
O871 O 0.85526 0.83094 0.88971 0.0
C872 C 0.75784 0.70784 0.79733 0.0
C873 C 0.74385 0.65033 0.81642 0.0
C874 C 0.74778 0.6775 0.83824 0.0
C875 C 0.75505 0.70633 0.82874 0.0
C876 C 0.74803 0.68037 0.77476 0.0
C877 C 0.74095 0.65163 0.78422 0.0
C878 C 0.7793 0.73571 0.78983 0.0
C879 C 0.83105 0.84531 0.77854 0.0
C880 C 0.88924 0.81398 0.82526 0.0
C881 C 0.87415 0.94579 0.87508 0.0
C882 C 0.8553 0.9924 0.85218 0.0
C883 C 0.83365 0.96758 0.8613 0.0
C884 C 0.84294 0.94439 0.87253 0.0
C885 C 0.89625 0.9718 0.86824 0.0
C886 C 0.88689 0.99503 0.85686 0.0
C887 C 0.88233 0.91788 0.87878 0.0
H888 H 0.74962 0.67706 0.86312 0.0
H889 H 0.7624 0.72749 0.84644 0.0
H890 H 0.74995 0.68123 0.75039 0.0
H891 H 0.738 0.63125 0.7667 0.0
H892 H 0.80914 0.96499 0.85777 0.0
H893 H 0.82531 0.92441 0.87728 0.0
H894 H 0.92038 0.97315 0.86984 0.0
H895 H 0.90404 1.01426 0.85037 0.0
Dy896 Dy 0.62945 0.5998 0.59974 0.0
Dy897 Dy 0.5598 0.55987 0.56895 0.0
C898 C 0.61078 0.57626 0.52374 0.0
O899 O 0.60673 0.63732 0.59548 0.0
O900 O 0.56149 0.60934 0.56169 0.0
O901 O 0.66494 0.64537 0.61158 0.0
O902 O 0.67372 0.60645 0.62836 0.0
O903 O 0.55662 0.58295 0.61672 0.0
O904 O 0.60529 0.58856 0.64055 0.0
O905 O 0.57965 0.52344 0.58683 0.0
O906 O 0.63174 0.54984 0.59339 0.0
O907 O 0.51531 0.52831 0.57381 0.0
O908 O 0.52258 0.5408 0.52882 0.0
C909 C 0.58188 0.63685 0.57626 0.0
O910 O 0.63143 0.59513 0.54778 0.0
O911 O 0.58393 0.55768 0.52771 0.0
C912 C 0.71462 0.64149 0.61191 0.0
C913 C 0.76147 0.62972 0.58266 0.0
C914 C 0.7374 0.63638 0.56521 0.0
C915 C 0.71384 0.64196 0.57973 0.0
C916 C 0.74114 0.63989 0.63015 0.0
C917 C 0.76456 0.63404 0.61557 0.0
C918 C 0.68579 0.63511 0.62462 0.0
C919 C 0.57649 0.58651 0.64243 0.0
C920 C 0.60875 0.52346 0.59261 0.0
C921 C 0.47444 0.53704 0.54358 0.0
C922 C 0.42447 0.55811 0.55213 0.0
C923 C 0.45221 0.57851 0.5464 0.0
C924 C 0.47706 0.5681 0.54228 0.0
C925 C 0.44609 0.51604 0.54717 0.0
C926 C 0.42112 0.5265 0.55132 0.0
C927 C 0.50228 0.52789 0.54545 0.0
H928 H 0.73479 0.63344 0.53987 0.0
H929 H 0.69361 0.64333 0.56518 0.0
H930 H 0.74208 0.63958 0.65501 0.0
H931 H 0.78279 0.62881 0.62958 0.0
H932 H 0.45543 0.60302 0.54716 0.0
H933 H 0.49882 0.58476 0.53972 0.0
H934 H 0.44378 0.49202 0.5483 0.0
H935 H 0.39973 0.51031 0.55533 0.0
Dy936 Dy 0.04185 0.56407 0.07931 0.0
Dy937 Dy 0.10237 0.57331 0.04463 0.0
C938 C 0.03954 0.57638 1.00868 0.0
O939 O 0.03794 0.51361 0.05971 0.0
O940 O 0.0868 0.52157 0.04803 0.0
O941 O 0.992 0.54499 0.07572 0.0
O942 O 1.02083 0.57448 0.11914 0.0
O943 O 0.11949 0.5798 0.09584 0.0
O944 O 0.07548 0.55349 0.11309 0.0
O945 O 0.09817 0.62244 0.05158 0.0
O946 O 0.06779 0.61677 0.08974 0.0
O947 O 0.15172 0.59553 0.04593 0.0
O948 O 0.12394 0.55931 1.00655 0.0
C949 C 0.05986 0.5023 0.05186 0.0
O950 O 1.03053 0.58051 0.03563 0.0
O951 O 0.06347 0.5672 1.00564 0.0
C952 C 0.97355 0.58193 0.10189 0.0
C953 C 0.93646 0.62047 0.09781 0.0
C954 C 0.96604 0.62932 0.08928 0.0
C955 C 0.9843 0.61012 0.09109 0.0
C956 C 0.94419 0.57304 0.11059 0.0
C957 C 0.92578 0.59216 0.10859 0.0
C958 C 0.99263 0.56151 0.10287 0.0
C959 C 0.10575 0.56527 0.11657 0.0
C960 C 0.085 0.63488 0.07292 0.0
C961 C 0.17348 0.55755 0.02748 0.0
C962 C 0.21277 0.52406 0.04608 0.0
C963 C 0.22417 0.55686 0.05078 0.0
C964 C 0.20472 0.57343 0.04156 0.0
C965 C 0.16242 0.52466 0.02178 0.0
C966 C 0.1819 0.50812 0.03085 0.0
C967 C 0.15198 0.57531 0.02185 0.0
H968 H 0.97525 0.65125 0.08155 0.0
H969 H 1.00685 0.61727 0.08403 0.0
H970 H 0.93542 0.55125 0.11871 0.0
H971 H 0.90303 0.58465 0.11519 0.0
H972 H 0.24806 0.56972 0.06197 0.0
H973 H 0.21384 0.59871 0.04626 0.0
H974 H 0.13843 0.51161 1.01115 0.0
H975 H 0.1725 0.48287 0.02696 0.0
C976 C 1.02392 0.17983 1.00755 0.0
C977 C 0.03963 0.21039 0.02567 0.0
C978 C 1.02945 0.1524 1.01505 0.0
C979 C 0.05189 0.15319 0.04087 0.0
H980 H 1.00708 0.17695 0.9867 0.0
H981 H 1.01639 0.13025 0.99964 0.0
S982 S 0.10034 0.22673 0.09664 0.0
N983 N 0.07889 0.23893 0.07158 0.0
N984 N 0.08992 0.18849 0.08506 0.0
C985 C 0.06777 0.18358 0.05945 0.0
C986 C 0.06157 0.21157 0.05212 0.0
C987 C 0.2206 0.85196 0.18828 0.0
C988 C 0.19557 0.85965 0.19853 0.0
C989 C 0.24559 0.85065 0.2099 0.0
C990 C 0.247 0.85734 0.2428 0.0
H991 H 0.22007 0.84519 0.16338 0.0
H992 H 0.26357 0.84351 0.20061 0.0
S993 S 0.18865 0.88181 0.28179 0.0
N994 N 0.17484 0.87607 0.24389 0.0
N995 N 0.2216 0.87424 0.28415 0.0
C996 C 0.22281 0.86662 0.25324 0.0
C997 C 0.19727 0.86761 0.23127 0.0
C998 C 0.53561 0.92426 0.55327 0.0
C999 C 0.5597 0.91097 0.55452 0.0
C1000 C 0.54137 0.95706 0.56026 0.0
C1001 C 0.57179 0.97933 0.56834 0.0
H1002 H 0.51168 0.90899 0.54575 0.0
H1003 H 0.5215 0.96501 0.55835 0.0
S1004 S 0.64395 0.95795 0.57469 0.0
N1005 N 0.61576 0.92374 0.56483 0.0
N1006 N 0.6267 0.98463 0.57731 0.0
C1007 C 0.59625 0.96643 0.57016 0.0
C1008 C 0.59026 0.93279 0.56346 0.0
C1009 C 0.5554 0.32634 0.75779 0.0
C1010 C 0.55324 0.33555 0.72847 0.0
C1011 C 0.53172 0.32392 0.77544 0.0
C1012 C 0.50477 0.33031 0.76434 0.0
H1013 H 0.57537 0.32038 0.767 0.0
H1014 H 0.53428 0.31636 0.79772 0.0
S1015 S 0.48801 0.35595 0.6892 0.0
N1016 N 0.52262 0.35217 0.68947 0.0
N1017 N 0.47751 0.34692 0.72241 0.0
C1018 C 0.50271 0.34056 0.7355 0.0
C1019 C 0.5271 0.34334 0.7176 0.0
C1020 C 0.06437 0.87522 0.66769 0.0
C1021 C 0.09046 0.86711 0.67821 0.0
C1022 C 0.06556 0.89509 0.64582 0.0
C1023 C 0.09297 0.90778 0.6339 0.0
H1024 H 0.04262 0.86545 0.67569 0.0
H1025 H 0.04468 0.90008 0.63774 0.0
S1026 S 0.16884 0.89699 0.65731 0.0
N1027 N 0.14513 0.87516 0.67696 0.0
N1028 N 0.14762 0.9131 0.63675 0.0
C1029 C 0.11953 0.90076 0.64524 0.0
C1030 C 0.11821 0.88032 0.66718 0.0
C1031 C 0.48498 0.86419 0.83325 0.0
C1032 C 0.49919 0.85017 0.85492 0.0
C1033 C 0.45253 0.86046 0.8291 0.0
C1034 C 0.43184 0.84248 0.84635 0.0
H1035 H 0.49919 0.87864 0.81942 0.0
H1036 H 0.44363 0.872 0.81207 0.0
S1037 S 0.45639 0.80052 0.90635 0.0
N1038 N 0.48892 0.81721 0.89388 0.0
N1039 N 0.42917 0.81037 0.88634 0.0
C1040 C 0.44576 0.8282 0.86798 0.0
C1041 C 0.47878 0.83198 0.87217 0.0
C1042 C 0.54451 0.18556 0.14277 0.0
C1043 C 0.54745 0.1866 0.17551 0.0
C1044 C 0.54947 0.16168 0.1222 0.0
C1045 C 0.55801 0.13747 0.13311 0.0
H1046 H 0.53924 0.20408 0.13291 0.0
H1047 H 0.5472 0.16275 0.09745 0.0
S1048 S 0.5685 0.12874 0.21672 0.0
N1049 N 0.55892 0.16062 0.21777 0.0
N1050 N 0.56818 0.11578 0.1794 0.0
C1051 C 0.56004 0.13756 0.16574 0.0
C1052 C 0.55477 0.16197 0.18676 0.0
C1053 C 0.20422 0.35305 0.34835 0.0
C1054 C 0.17484 0.33032 0.33421 0.0
C1055 C 0.23338 0.34975 0.34298 0.0
C1056 C 0.23546 0.32351 0.32291 0.0
H1057 H 0.20486 0.37365 0.36429 0.0
H1058 H 0.25463 0.36807 0.355 0.0
S1059 S 0.16597 0.25697 0.27931 0.0
N1060 N 0.15064 0.28035 0.29863 0.0
N1061 N 0.20406 0.27432 0.28855 0.0
C1062 C 0.2062 0.3008 0.30836 0.0
C1063 C 0.17659 0.30411 0.31395 0.0
C1064 C 0.05358 0.06086 0.20009 0.0
C1065 C 1.02372 0.06052 0.20483 0.0
C1066 C 0.06295 0.06341 0.17069 0.0
C1067 C 0.04288 0.0655 0.14438 0.0
H1068 H 0.06996 0.0591 0.21924 0.0
H1069 H 0.08618 0.0634 0.16856 0.0
S1070 S 0.96208 0.06573 0.14379 0.0
N1071 N 0.97402 0.06272 0.18006 0.0
N1072 N 0.99161 0.06722 0.12539 0.0
C1073 C 1.01298 0.06525 0.14876 0.0
C1074 C 1.00346 0.06286 0.17871 0.0
C1075 C 0.31212 0.73572 0.49752 0.0
C1076 C 0.31802 0.75029 0.52926 0.0
C1077 C 0.30586 0.75142 0.47353 0.0
C1078 C 0.30598 0.78232 0.48062 0.0
H1079 H 0.31066 0.71155 0.49127 0.0
H1080 H 0.30026 0.73917 0.44933 0.0
S1081 S 0.32302 0.83159 0.55984 0.0
N1082 N 0.32555 0.79785 0.56642 0.0
N1083 N 0.3144 0.82748 0.52129 0.0
C1084 C 0.31351 0.79763 0.51214 0.0
C1085 C 0.31937 0.78155 0.5365 0.0
C1086 C 0.66431 0.10184 0.72096 0.0
C1087 C 0.67714 0.07762 0.71862 0.0
C1088 C 0.63964 0.10108 0.69839 0.0
C1089 C 0.62633 0.07567 0.6734 0.0
H1090 H 0.67486 0.12274 0.73891 0.0
H1091 H 0.6323 0.1214 0.69932 0.0
S1092 S 0.64736 1.00399 0.65945 0.0
N1093 N 0.67211 0.02582 0.69125 0.0
N1094 N 0.62479 0.02412 0.64925 0.0
C1095 C 0.63672 0.04995 0.67237 0.0
C1096 C 0.66241 0.05098 0.69494 0.0
C1097 C 0.31346 0.37297 0.96448 0.0
C1098 C 0.32515 0.35554 0.98386 0.0
C1099 C 0.31272 0.36785 0.93171 0.0
C1100 C 0.32363 0.34504 0.91672 0.0
H1101 H 0.30562 0.39142 0.97478 0.0
H1102 H 0.30402 0.38235 0.91815 0.0
S1103 S 0.35396 0.29104 0.95635 0.0
N1104 N 0.34602 0.31309 0.9851 0.0
N1105 N 0.34462 0.3034 0.92408 0.0
C1106 C 0.33432 0.32668 0.93575 0.0
C1107 C 0.33508 0.33193 0.96906 0.0
C1108 C 0.06339 0.04696 0.40367 0.0
C1109 C 0.04624 0.06373 0.38945 0.0
C1110 C 0.06886 0.04883 0.43649 0.0
C1111 C 0.05735 0.06747 0.45688 0.0
H1112 H 0.07207 0.03148 0.38927 0.0
H1113 H 0.08177 0.03497 0.44584 0.0
S1114 S 1.01354 0.11858 0.4322 0.0
N1115 N 1.01955 0.1014 0.3989 0.0
N1116 N 1.02968 0.10489 0.46021 0.0
C1117 C 0.04102 0.08521 0.44309 0.0
C1118 C 1.03554 0.08338 0.40961 0.0
C1119 C 0.34731 0.72811 0.72006 0.0
C1120 C 0.3511 0.74004 0.69235 0.0
C1121 C 0.34435 0.74638 0.7471 0.0
C1122 C 0.34526 0.77738 0.7476 0.0
H1123 H 0.34451 0.70385 0.7204 0.0
H1124 H 0.34015 0.73556 0.76735 0.0
S1125 S 0.36136 0.82158 0.68305 0.0
N1126 N 0.36043 0.78609 0.66838 0.0
N1127 N 0.35498 0.82062 0.7193 0.0
C1128 C 0.35188 0.79047 0.72092 0.0
C1129 C 0.35487 0.77179 0.69332 0.0
C1130 C 0.72417 0.1196 0.89604 0.0
C1131 C 0.72453 0.13773 0.87258 0.0
C1132 C 0.7062 0.121 0.91959 0.0
C1133 C 0.68797 0.14059 0.92054 0.0
H1134 H 0.73696 0.10337 0.89559 0.0
H1135 H 0.70552 0.10558 0.9363 0.0
S1136 S 0.68308 0.19509 0.86657 0.0
N1137 N 0.7063 0.17731 0.853 0.0
N1138 N 0.67385 0.1808 0.89798 0.0
C1139 C 0.68961 0.1602 0.89839 0.0
C1140 C 0.70755 0.15856 0.87425 0.0
C1141 C 0.31659 0.37822 0.1926 0.0
C1142 C 0.3199 0.36112 0.16451 0.0
C1143 C 0.31516 0.36619 0.22049 0.0
C1144 C 0.31675 0.33623 0.22191 0.0
H1145 H 0.31576 0.40163 0.19344 0.0
H1146 H 0.31323 0.38088 0.24129 0.0
S1147 S 0.32379 0.28076 0.1548 0.0
N1148 N 0.32356 0.31178 0.13984 0.0
N1149 N 0.32066 0.28912 0.19202 0.0
C1150 C 0.31914 0.31837 0.19382 0.0
C1151 C 0.32077 0.33076 0.1653 0.0
C1152 C 0.30853 0.13969 0.05829 0.0
C1153 C 0.29439 0.10864 0.04213 0.0
C1154 C 0.29178 0.16044 0.05977 0.0
C1155 C 0.26001 0.15025 0.04631 0.0
H1156 H 0.33174 0.14723 0.07215 0.0
H1157 H 0.30241 0.183 0.07529 0.0
S1158 S 0.21605 0.07444 0.99245 0.0
N1159 N 0.25017 0.07148 1.00513 0.0
N1160 N 0.21799 0.10977 1.00892 0.0
C1161 C 0.2476 0.12111 0.02538 0.0
C1162 C 0.26493 0.10024 0.02336 0.0
C1163 C 0.71614 0.65064 0.07559 0.0
C1164 C 0.71966 0.67885 0.06481 0.0
C1165 C 0.68679 0.63025 0.07743 0.0
C1166 C 0.65952 0.63712 0.0686 0.0
H1167 H 0.73634 0.64444 0.08352 0.0
H1168 H 0.68564 0.60924 0.08649 0.0
S1169 S 0.65534 0.70665 0.03615 0.0
N1170 N 0.69287 0.71161 0.04328 0.0
N1171 N 0.63774 0.67334 0.04662 0.0
C1172 C 0.66249 0.66467 0.05663 0.0
C1173 C 0.69246 0.68548 0.05471 0.0
C1174 C 0.71875 0.49482 0.31799 0.0
C1175 C 0.72884 0.52469 0.31039 0.0
C1176 C 0.73604 0.47461 0.31387 0.0
C1177 C 0.76416 0.48368 0.30227 0.0
H1178 H 0.69705 0.48675 0.32655 0.0
H1179 H 0.7271 0.45155 0.31939 0.0
S1180 S 0.8024 0.56081 0.28229 0.0
N1181 N 0.76972 0.56309 0.29263 0.0
N1182 N 0.80244 0.52549 0.28569 0.0
C1183 C 0.77489 0.51384 0.29548 0.0
C1184 C 0.7572 0.53424 0.29937 0.0
C1185 C 0.91439 0.51893 0.53057 0.0
C1186 C 0.90397 0.48727 0.53319 0.0
C1187 C 0.94549 0.53752 0.54099 0.0
C1188 C 0.96729 0.52508 0.55422 0.0
H1189 H 0.89817 0.53002 0.52209 0.0
H1190 H 0.95215 0.56204 0.53964 0.0
S1191 S 0.95282 0.44207 0.56083 0.0
N1192 N 0.91847 0.44327 0.54605 0.0
N1193 N 0.97717 0.47807 0.56542 0.0
C1194 C 0.95765 0.49287 0.55473 0.0
C1195 C 0.92592 0.47397 0.54417 0.0
C1196 C 0.32753 0.09117 0.3406 0.0
C1197 C 0.35695 0.11175 0.35646 0.0
C1198 C 0.30302 0.10217 0.33268 0.0
C1199 C 0.30706 0.13403 0.34061 0.0
H1200 H 0.32392 0.06673 0.33223 0.0
H1201 H 0.2816 0.08612 0.31818 0.0
S1202 S 0.37758 0.1965 0.38725 0.0
N1203 N 0.38721 0.16459 0.38397 0.0
N1204 N 0.3412 0.18539 0.36878 0.0
C1205 C 0.33522 0.15424 0.35944 0.0
C1206 C 0.36022 0.14305 0.36744 0.0
C1207 C 0.40635 0.18429 0.57717 0.0
C1208 C 0.3763 0.17434 0.58452 0.0
C1209 C 0.42628 0.1668 0.58118 0.0
C1210 C 0.41673 0.13861 0.5924 0.0
H1211 H 0.41479 0.20607 0.56896 0.0
H1212 H 0.44952 0.17568 0.57598 0.0
S1213 S 0.33892 0.10056 0.61134 0.0
N1214 N 0.33719 0.13345 0.60145 0.0
N1215 N 0.37425 0.10031 0.60813 0.0
C1216 C 0.38635 0.12795 0.59879 0.0
C1217 C 0.36624 0.14586 0.59504 0.0
C1218 C 0.71658 0.70708 0.35187 0.0
C1219 C 0.72568 0.68042 0.34855 0.0
C1220 C 0.73716 0.73637 0.35009 0.0
C1221 C 0.76766 0.74021 0.34485 0.0
H1222 H 0.69304 0.70523 0.35475 0.0
H1223 H 0.72868 0.75597 0.35199 0.0
S1224 S 0.80436 0.67866 0.33857 0.0
N1225 N 0.76837 0.6604 0.34271 0.0
N1226 N 0.80684 0.71538 0.33923 0.0
C1227 C 0.77756 0.71408 0.34296 0.0
C1228 C 0.75666 0.68425 0.3449 0.0
C1229 C 0.80957 0.44494 0.86533 0.0
C1230 C 0.83827 0.46816 0.8787 0.0
C1231 C 0.80534 0.41356 0.86566 0.0
C1232 C 0.82991 0.40462 0.87899 0.0
H1233 H 0.79132 0.4507 0.85196 0.0
H1234 H 0.784 0.39623 0.85234 0.0
S1235 S 0.90603 0.45699 0.92511 0.0
N1236 N 0.88888 0.48067 0.91209 0.0
N1237 N 0.88095 0.42137 0.91207 0.0
C1238 C 0.85687 0.42781 0.89651 0.0
C1239 C 0.86106 0.45982 0.89656 0.0
C1240 C 0.1265 0.9464 0.07714 0.0
C1241 C 0.10413 0.92214 0.08724 0.0
C1242 C 0.12122 0.97449 0.07096 0.0
C1243 C 0.0928 0.98011 0.07349 0.0
H1244 H 0.14877 0.94396 0.07443 0.0
H1245 H 0.13964 0.99187 0.06368 0.0
S1246 S 1.026 0.92473 0.09894 0.0
N1247 N 0.05217 0.90691 0.09977 0.0
N1248 N 0.04195 0.95784 0.08723 0.0
C1249 C 0.07017 0.95589 0.08325 0.0
C1250 C 0.07585 0.92772 0.09031 0.0
C1251 C 0.94831 0.29633 0.90184 0.0
C1252 C 0.94623 0.29288 0.93319 0.0
C1253 C 0.92534 0.30308 0.88253 0.0
C1254 C 0.89853 0.3062 0.89312 0.0
H1255 H 0.9684 0.29459 0.89211 0.0
H1256 H 0.92878 0.30581 0.85888 0.0
S1257 S 0.88039 0.29784 0.97269 0.0
N1258 N 0.91441 0.29248 0.97371 0.0
N1259 N 0.87074 0.30414 0.93712 0.0
C1260 C 0.89554 0.30198 0.92415 0.0
C1261 C 0.91942 0.29566 0.94419 0.0
C1262 C 0.63004 0.23713 0.59927 0.0
C1263 C 0.60653 0.2483 0.609 0.0
C1264 C 0.6265 0.20455 0.59385 0.0
C1265 C 0.59938 0.18111 0.59815 0.0
H1266 H 0.65206 0.25378 0.59735 0.0
H1267 H 0.64576 0.19783 0.58722 0.0
S1268 S 0.52926 0.19706 0.61993 0.0
N1269 N 0.55393 0.23206 0.62008 0.0
N1270 N 0.54749 0.17228 0.6102 0.0
C1271 C 0.57528 0.19198 0.60651 0.0
C1272 C 0.5788 0.2249 0.61183 0.0
C1273 C 0.59842 0.83269 0.41562 0.0
C1274 C 0.59876 0.81574 0.44009 0.0
C1275 C 0.6218 0.83782 0.39724 0.0
C1276 C 0.64645 0.82606 0.40236 0.0
H1277 H 0.58059 0.8432 0.4113 0.0
H1278 H 0.62106 0.85201 0.37954 0.0
S1279 S 0.65605 0.77656 0.46049 0.0
N1280 N 0.62457 0.78493 0.46662 0.0
N1281 N 0.66811 0.79399 0.43157 0.0
C1282 C 0.64635 0.80782 0.42573 0.0
C1283 C 0.62262 0.80277 0.44465 0.0
C1284 C 0.08796 0.29969 0.47969 0.0
C1285 C 0.08254 0.29183 0.44665 0.0
C1286 C 0.08169 0.27657 0.49817 0.0
C1287 C 0.06949 0.24463 0.48438 0.0
H1288 H 0.09693 0.32394 0.49144 0.0
H1289 H 0.08646 0.2838 0.5235 0.0
S1290 S 0.04944 0.21148 0.39886 0.0
N1291 N 0.06359 0.24958 0.4009 0.0
N1292 N 0.05114 0.20636 0.4356 0.0
C1293 C 0.06394 0.2364 0.45138 0.0
C1294 C 0.07063 0.25991 0.43255 0.0
C1295 C 0.66837 0.27148 0.2984 0.0
C1296 C 0.65753 0.29399 0.28618 0.0
C1297 C 0.70085 0.27492 0.30448 0.0
C1298 C 0.7245 0.30087 0.29833 0.0
H1299 H 0.65158 0.25026 0.30192 0.0
H1300 H 0.70735 0.25648 0.31317 0.0
S1301 S 0.70932 0.36826 0.26952 0.0
N1302 N 0.67427 0.3445 0.27064 0.0
N1303 N 0.73375 0.35076 0.28167 0.0
C1304 C 0.71389 0.324 0.28735 0.0
C1305 C 0.68112 0.32061 0.2814 0.0
C1306 C 0.59339 0.94484 0.98929 0.0
C1307 C 0.60273 0.94928 0.96019 0.0
C1308 C 0.58732 0.96832 1.00924 0.0
C1309 C 0.59089 0.99787 1.00158 0.0
H1310 H 0.59015 0.92265 0.99665 0.0
H1311 H 0.58006 0.96327 0.03113 0.0
S1312 S 0.61544 1.0223 0.92854 0.0
N1313 N 0.6152 0.9859 0.92479 0.0
N1314 N 0.60483 0.03036 0.96264 0.0
C1315 C 0.60061 1.00293 0.97273 0.0
C1316 C 0.60618 0.97863 0.95199 0.0
C1317 C 0.95297 0.77392 0.81304 0.0
C1318 C 0.97734 0.79624 0.80301 0.0
C1319 C 0.92501 0.77941 0.81973 0.0
C1320 C 0.91956 0.808 0.81779 0.0
H1321 H 0.95521 0.75151 0.81529 0.0
H1322 H 0.90754 0.76097 0.82688 0.0
S1323 S 0.97531 0.87481 0.79282 0.0
N1324 N 0.9929 0.84842 0.79127 0.0
N1325 N 0.94217 0.85897 0.80467 0.0
C1326 C 0.9439 0.8306 0.80812 0.0
C1327 C 0.97198 0.82473 0.80058 0.0
C1328 C 0.13589 0.08183 0.92813 0.0
C1329 C 0.11247 0.08171 0.90382 0.0
C1330 C 0.12957 0.07738 0.95837 0.0
C1331 C 0.09931 0.07139 0.96521 0.0
H1332 H 0.15956 0.08645 0.92408 0.0
H1333 H 0.14846 0.07854 0.97649 0.0
S1334 S 1.02961 0.06808 0.90991 0.0
N1335 N 0.05784 0.07539 0.8891 0.0
N1336 N 0.04571 0.0655 0.94494 0.0
C1337 C 0.07562 0.0705 0.94091 0.0
C1338 C 0.08224 0.07605 0.91055 0.0
C1339 C 0.83542 0.45572 0.65658 0.0
C1340 C 0.82786 0.43651 0.62674 0.0
C1341 C 0.85198 0.44866 0.68204 0.0
C1342 C 0.86203 0.42256 0.67819 0.0
H1343 H 0.82834 0.47617 0.66024 0.0
H1344 H 0.8562 0.4632 0.70502 0.0
S1345 S 0.85286 0.36838 0.60337 0.0
N1346 N 0.83438 0.39232 0.59396 0.0
N1347 N 0.86642 0.3798 0.64145 0.0
C1348 C 0.85592 0.40418 0.64805 0.0
C1349 C 0.83858 0.41094 0.62241 0.0
C1350 C 0.51776 0.11187 0.46502 0.0
C1351 C 0.53309 0.11008 0.43931 0.0
C1352 C 0.52911 0.10576 0.49364 0.0
C1353 C 0.55634 0.09778 0.49772 0.0
H1354 H 0.4958 0.11621 0.46263 0.0
H1355 H 0.5158 0.10645 0.51235 0.0
S1356 S 0.60821 0.09565 0.43925 0.0
N1357 N 0.5791 0.10398 0.42083 0.0
N1358 N 0.60058 0.09245 0.47479 0.0
C1359 C 0.57327 0.09837 0.47295 0.0
C1360 C 0.56166 0.10463 0.44373 0.0
C1361 C 0.84774 0.79975 0.19268 0.0
C1362 C 0.82274 0.79865 0.16986 0.0
C1363 C 0.84775 0.80729 0.225 0.0
C1364 C 0.82242 0.81356 0.23637 0.0
H1365 H 0.86714 0.7936 0.1855 0.0
H1366 H 0.8675 0.80703 0.24119 0.0
S1367 S 0.7517 0.81547 0.18637 0.0
N1368 N 0.77251 0.80603 0.16086 0.0
N1369 N 0.77224 0.81988 0.22159 0.0
C1370 C 0.79769 0.81371 0.21377 0.0
C1371 C 0.79794 0.80641 0.18064 0.0
C1372 C 0.10892 0.05426 0.69918 0.0
C1373 C 0.1068 0.07767 0.72249 0.0
C1374 C 0.1014 0.05425 0.66699 0.0
C1375 C 0.09187 0.07801 0.65624 0.0
H1376 H 0.11739 0.03612 0.70588 0.0
H1377 H 0.10413 0.0358 0.65043 0.0
S1378 S 0.08109 0.14422 0.70755 0.0
N1379 N 0.09313 0.12472 0.7325 0.0
N1380 N 0.07932 0.12498 0.67204 0.0
C1381 C 0.08872 0.10115 0.67928 0.0
C1382 C 0.096 0.10087 0.71227 0.0
C1383 C 0.79259 0.39122 0.43336 0.0
C1384 C 0.7925 0.37574 0.45891 0.0
C1385 C 0.79963 0.37937 0.40505 0.0
C1386 C 0.8068 0.3516 0.40124 0.0
H1387 H 0.78918 0.41368 0.43577 0.0
H1388 H 0.80061 0.39281 0.38651 0.0
S1389 S 0.80348 0.29902 0.45896 0.0
N1390 N 0.79564 0.32895 0.47718 0.0
N1391 N 0.80885 0.30656 0.42385 0.0
C1392 C 0.80426 0.33457 0.42573 0.0
C1393 C 0.797 0.34662 0.45456 0.0
C1394 C 0.50308 0.08926 0.26905 0.0
C1395 C 0.47154 0.08405 0.27092 0.0
C1396 C 0.51164 0.07216 0.24492 0.0
C1397 C 0.48912 0.04989 0.22114 0.0
H1398 H 0.52147 0.10516 0.28745 0.0
H1399 H 0.53615 0.07594 0.24527 0.0
S1400 S 0.40369 0.03011 0.21265 0.0
N1401 N 0.41771 0.05677 0.24522 0.0
N1402 N 0.43415 0.02512 0.19923 0.0
C1403 C 0.45762 0.04589 0.22135 0.0
C1404 C 0.44876 0.06297 0.2463 0.0
C1405 C 0.79327 0.78881 0.96467 0.0
C1406 C 0.81801 0.7898 0.98786 0.0
C1407 C 0.79783 0.7939 0.93425 0.0
C1408 C 0.82754 0.80123 0.92575 0.0
H1409 H 0.76993 0.78342 0.96986 0.0
H1410 H 0.7779 0.79266 0.91736 0.0
S1411 S 0.90037 0.80743 0.97774 0.0
N1412 N 0.87343 0.79841 0.9999 0.0
N1413 N 0.88224 0.80954 0.94342 0.0
C1414 C 0.8526 0.80282 0.94883 0.0
C1415 C 0.84778 0.79666 0.97959 0.0
C1416 C 0.87581 0.0679 0.09887 0.0
C1417 C 0.86186 0.08848 0.08765 0.0
C1418 C 0.88791 0.05003 0.07887 0.0
C1419 C 0.88649 0.05211 0.04697 0.0
H1420 H 0.8783 0.0662 0.12348 0.0
H1421 H 0.89992 0.03573 0.08887 0.0
S1422 S 0.84918 0.09946 1.00491 0.0
N1423 N 0.84485 0.10773 0.04174 0.0
N1424 N 0.86787 0.07402 1.0043 0.0
C1425 C 0.87126 0.0713 0.03502 0.0
C1426 C 0.85887 0.08953 0.05534 0.0
C1427 C 0.43275 0.5023 0.09809 0.0
C1428 C 0.427 0.46983 0.09177 0.0
C1429 C 0.46119 0.52367 0.09502 0.0
C1430 C 0.48504 0.5135 0.08533 0.0
H1431 H 0.41494 0.51141 0.10493 0.0
H1432 H 0.46422 0.54833 0.09974 0.0
S1433 S 0.4832 0.43124 0.0688 0.0
N1434 N 0.44865 0.42877 0.0774 0.0
N1435 N 0.50186 0.46882 0.07153 0.0
C1436 C 0.48 0.48117 0.07979 0.0
C1437 C 0.4511 0.4594 0.08306 0.0
C1438 C 0.41231 0.64004 0.80323 0.0
C1439 C 0.43434 0.63392 0.82448 0.0
C1440 C 0.39444 0.65794 0.81354 0.0
C1441 C 0.39771 0.67048 0.84557 0.0
H1442 H 0.40852 0.63068 0.77832 0.0
H1443 H 0.37786 0.662 0.7962 0.0
S1444 S 0.45171 0.66116 0.91105 0.0
N1445 N 0.45846 0.64202 0.87927 0.0
N1446 N 0.42456 0.67546 0.89862 0.0
C1447 C 0.41994 0.66499 0.86712 0.0
C1448 C 0.43829 0.64677 0.8566 0.0
C1449 C 0.20938 0.61881 0.61951 0.0
C1450 C 0.22294 0.63478 0.59685 0.0
C1451 C 0.17708 0.60817 0.61778 0.0
C1452 C 0.15732 0.61283 0.59312 0.0
H1453 H 0.22383 0.61516 0.63915 0.0
H1454 H 0.16759 0.59611 0.63579 0.0
S1455 S 0.18142 0.65227 0.52712 0.0
N1456 N 0.21429 0.65387 0.54852 0.0
N1457 N 0.15368 0.63413 0.54522 0.0
C1458 C 0.17064 0.62835 0.57001 0.0
C1459 C 0.20345 0.63926 0.57188 0.0
C1460 C 0.80884 0.04314 0.82858 0.0
C1461 C 0.81406 0.04561 0.79783 0.0
C1462 C 0.82335 0.027 0.84661 0.0
C1463 C 0.84394 1.01318 0.83473 0.0
H1464 H 0.79274 0.05297 0.83855 0.0
H1465 H 0.81792 0.02476 0.86979 0.0
S1466 S 0.86731 1.01481 0.75652 0.0
N1467 N 0.84258 0.03428 0.75692 0.0
N1468 N 0.86988 1.00396 0.79093 0.0
C1469 C 0.85033 1.01647 0.80452 0.0
C1470 C 0.83533 0.03264 0.78601 0.0
C1471 C 0.76812 0.97588 0.58454 0.0
C1472 C 0.79323 0.98594 0.60999 0.0
C1473 C 0.74938 0.99416 0.57898 0.0
C1474 C 0.75526 0.02305 0.59859 0.0
H1475 H 0.76305 0.95391 0.56858 0.0
H1476 H 0.73038 0.98584 0.55906 0.0
S1477 S 0.81665 0.05969 0.66902 0.0
N1478 N 0.82198 0.02658 0.65568 0.0
N1479 N 0.78661 0.06072 0.64471 0.0
C1480 C 0.77969 0.03324 0.62432 0.0
C1481 C 0.79874 1.0147 0.63017 0.0
C1482 C 0.43891 0.45518 0.81916 0.0
C1483 C 0.42998 0.4772 0.80443 0.0
C1484 C 0.41687 0.42735 0.82259 0.0
C1485 C 0.38486 0.42017 0.81132 0.0
H1486 H 0.46314 0.45964 0.82871 0.0
H1487 H 0.42515 0.41141 0.83427 0.0
S1488 S 0.3492 0.46928 0.76964 0.0
N1489 N 0.38679 0.48938 0.77753 0.0
N1490 N 0.34546 0.43717 0.78393 0.0
C1491 C 0.3756 0.4417 0.796 0.0
C1492 C 0.39808 0.47013 0.79256 0.0
C1493 C 0.29932 0.70133 0.26852 0.0
C1494 C 0.28593 0.68829 0.29288 0.0
C1495 C 0.30771 0.73347 0.26909 0.0
C1496 C 0.30258 0.75323 0.29384 0.0
H1497 H 0.30175 0.6865 0.24809 0.0
H1498 H 0.3168 0.74266 0.2494 0.0
S1499 S 0.27471 0.73179 0.36632 0.0
N1500 N 0.27275 0.69844 0.34477 0.0
N1501 N 0.28808 0.75873 0.34544 0.0
C1502 C 0.29156 0.74092 0.31942 0.0
C1503 C 0.28338 0.70841 0.31907 0.0
C1504 C 0.54653 0.69879 0.54715 0.0
C1505 C 0.56996 0.72848 0.55886 0.0
C1506 C 0.55018 0.66987 0.55283 0.0
C1507 C 0.57749 0.66835 0.57089 0.0
H1508 H 0.52506 0.6977 0.53288 0.0
H1509 H 0.53125 0.64838 0.54271 0.0
S1510 S 0.64629 0.73882 0.60762 0.0
N1511 N 0.62181 0.75351 0.58987 0.0
N1512 N 0.62849 0.70067 0.6006 0.0
C1513 C 0.60092 0.69794 0.58299 0.0
C1514 C 0.59726 0.72726 0.57702 0.0
C1515 C 0.70664 0.33002 0.74099 0.0
C1516 C 0.71247 0.35059 0.71941 0.0
C1517 C 0.73064 0.32493 0.7605 0.0
C1518 C 0.76228 0.34036 0.76021 0.0
H1519 H 0.68298 0.31702 0.74273 0.0
H1520 H 0.72409 0.30875 0.77626 0.0
S1521 S 0.79122 0.39733 0.70895 0.0
N1522 N 0.75297 0.38668 0.69923 0.0
N1523 N 0.79822 0.37791 0.73649 0.0
C1524 C 0.76878 0.36141 0.73911 0.0
C1525 C 0.74402 0.36625 0.71865 0.0
C1526 C 0.06924 0.42047 0.02735 0.0
C1527 C 0.04581 0.39911 0.0392 0.0
C1528 C 0.0737 0.45316 0.03171 0.0
C1529 C 0.05457 0.46683 0.04759 0.0
H1530 H 0.08447 0.41186 1.01441 0.0
H1531 H 0.09223 0.46784 0.02202 0.0
S1532 S 0.98953 0.42196 0.08343 0.0
N1533 N 1.00329 0.3951 0.06813 0.0
N1534 N 1.01106 0.45525 0.07551 0.0
C1535 C 1.03102 0.44572 0.05952 0.0
C1536 C 1.02684 0.41253 0.05557 0.0
C1537 C 0.04074 0.80785 0.24266 0.0
C1538 C 1.03547 0.81708 0.21366 0.0
C1539 C 1.01986 0.80626 0.26359 0.0
C1540 C 0.99262 0.81361 0.25637 0.0
H1541 H 0.06132 0.80185 0.24943 0.0
H1542 H 1.02517 0.79926 0.28569 0.0
S1543 S 0.96723 0.83805 0.18302 0.0
N1544 N 1.00084 0.8335 0.17865 0.0
N1545 N 0.96102 0.82976 0.21773 0.0
C1546 C 0.987 0.82298 0.22748 0.0
C1547 C 1.00853 0.82488 0.2062 0.0
C1548 C 0.555 0.35862 0.15739 0.0
C1549 C 0.58156 0.35131 0.16793 0.0
C1550 C 0.55665 0.38133 0.13863 0.0
C1551 C 0.58498 0.39766 0.13011 0.0
H1552 H 0.53268 0.34615 0.16294 0.0
H1553 H 0.53551 0.38577 0.13032 0.0
S1554 S 0.66195 0.39007 0.15562 0.0
N1555 N 0.63739 0.36382 0.17073 0.0
N1556 N 0.64068 0.40707 0.13645 0.0
C1557 C 0.61189 0.39136 0.14165 0.0
C1558 C 0.61013 0.36806 0.16033 0.0
C1559 C 0.98068 0.36653 0.35105 0.0
C1560 C 0.99375 0.34281 0.34301 0.0
C1561 C 0.94809 0.36135 0.34502 0.0
C1562 C 0.9259 0.33179 0.33121 0.0
H1563 H 0.99593 0.38952 0.36311 0.0
H1564 H 0.9402 0.38069 0.35235 0.0
S1565 S 0.94667 0.26142 0.30371 0.0
N1566 N 0.98082 0.28843 0.31879 0.0
N1567 N 0.92025 0.27851 0.30791 0.0
C1568 C 0.93854 0.30792 0.32219 0.0
C1569 C 0.97197 0.31341 0.32789 0.0
C1570 C 0.05224 0.70794 0.65878 0.0
C1571 C 0.04514 0.70568 0.68914 0.0
C1572 C 0.05265 0.68205 0.63756 0.0
C1573 C 0.04582 0.65217 0.64525 0.0
H1574 H 0.05851 0.73029 0.6514 0.0
H1575 H 0.05907 0.68581 0.61504 0.0
S1576 S 1.02319 0.63227 0.72057 0.0
N1577 N 1.02931 0.67016 0.72499 0.0
N1578 N 1.02972 0.62145 0.68511 0.0
C1579 C 0.03725 0.64905 0.67497 0.0
C1580 C 0.03695 0.67567 0.6968 0.0
C1581 C 0.71703 0.87041 0.88639 0.0
C1582 C 0.68725 0.85697 0.86662 0.0
C1583 C 0.74457 0.8652 0.87858 0.0
C1584 C 0.74469 0.84537 0.85062 0.0
H1585 H 0.7192 0.88523 0.90875 0.0
H1586 H 0.76607 0.87642 0.89532 0.0
S1587 S 0.67357 0.80388 0.78964 0.0
N1588 N 0.66051 0.82292 0.81669 0.0
N1589 N 0.7112 0.81243 0.80253 0.0
C1590 C 0.71513 0.83181 0.83034 0.0
C1591 C 0.68702 0.83774 0.83808 0.0
C1592 C 0.52403 0.58595 0.70423 0.0
C1593 C 0.54145 0.58251 0.73169 0.0
C1594 C 0.53573 0.58778 0.67599 0.0
C1595 C 0.56566 0.58658 0.67362 0.0
H1596 H 0.50066 0.58655 0.70418 0.0
H1597 H 0.52088 0.58981 0.65569 0.0
S1598 S 0.62177 0.57927 0.73879 0.0
N1599 N 0.59092 0.579 0.75469 0.0
N1600 N 0.61301 0.58275 0.70196 0.0
C1601 C 0.58377 0.58398 0.70109 0.0
C1602 C 0.57169 0.58186 0.7299 0.0
C1603 C 0.7708 0.18117 1.00877 0.0
C1604 C 0.80202 0.18501 0.01974 0.0
C1605 C 0.76171 0.18764 0.97956 0.0
C1606 C 0.78364 0.19891 0.96057 0.0
H1607 H 0.75338 0.17399 0.02333 0.0
H1608 H 0.73755 0.18535 0.9725 0.0
S1609 S 0.86823 0.2109 0.97826 0.0
N1610 N 0.85459 0.19815 1.00891 0.0
N1611 N 0.83796 0.21197 0.95428 0.0
C1612 C 0.8148 0.20122 0.97061 0.0
C1613 C 0.8239 0.19391 1.00023 0.0
C1614 C 0.17661 0.56465 0.17001 0.0
C1615 C 0.16696 0.56396 0.19929 0.0
C1616 C 0.15629 0.56425 0.14326 0.0
C1617 C 0.12544 0.56269 0.14466 0.0
H1618 H 0.2005 0.56724 0.16795 0.0
H1619 H 0.16509 0.56587 0.12144 0.0
S1620 S 0.08742 0.55595 0.21467 0.0
N1621 N 0.12363 0.55845 0.22749 0.0
N1622 N 0.08526 0.55735 0.17692 0.0
C1623 C 0.1148 0.55975 0.17324 0.0
C1624 C 0.13562 0.56047 0.20063 0.0
C1625 C 0.82399 0.87297 0.48459 0.0
C1626 C 0.83672 0.85611 0.50384 0.0
C1627 C 0.82198 0.8673 0.45162 0.0
C1628 C 0.83271 0.84454 0.4362 0.0
H1629 H 0.8162 0.89137 0.49511 0.0
H1630 H 0.81239 0.88134 0.43822 0.0
S1631 S 0.86581 0.79206 0.47537 0.0
N1632 N 0.85858 0.81429 0.5045 0.0
N1633 N 0.85489 0.80367 0.44313 0.0
C1634 C 0.84458 0.82682 0.45512 0.0
C1635 C 0.84655 0.83257 0.48865 0.0
C1636 C 0.56493 0.56007 0.92543 0.0
C1637 C 0.54554 0.57499 0.91168 0.0
C1638 C 0.56982 0.5605 0.95797 0.0
C1639 C 0.55541 0.57568 0.97853 0.0
H1640 H 0.57605 0.5473 0.91086 0.0
H1641 H 0.58472 0.54827 0.96694 0.0
S1642 S 0.50385 0.62013 0.95501 0.0
N1643 N 0.51301 0.60689 0.92171 0.0
N1644 N 0.52177 0.60732 0.98252 0.0
C1645 C 0.53649 0.59137 0.96522 0.0
C1646 C 0.53172 0.59115 0.93202 0.0
C1647 C 0.85978 0.22581 0.22213 0.0
C1648 C 0.86291 0.23265 0.19205 0.0
C1649 C 0.85156 0.24535 0.2443 0.0
C1650 C 0.84713 0.27284 0.23758 0.0
H1651 H 0.86058 0.20377 0.22765 0.0
H1652 H 0.84737 0.23817 0.26642 0.0
S1653 S 0.86154 0.306 0.16629 0.0
N1654 N 0.86732 0.27211 0.15929 0.0
N1655 N 0.85266 0.30934 0.20182 0.0
C1656 C 0.85449 0.28226 0.20958 0.0
C1657 C 0.8624 0.26208 0.18663 0.0
C1658 C 0.15102 0.58086 0.37502 0.0
C1659 C 0.16786 0.60725 0.36407 0.0
C1660 C 0.13257 0.5835 0.39782 0.0
C1661 C 0.13074 0.61269 0.41066 0.0
H1662 H 0.15133 0.55795 0.36522 0.0
H1663 H 0.11923 0.56247 0.40506 0.0
S1664 S 0.17417 0.68934 0.3928 0.0
N1665 N 0.18373 0.66368 0.36934 0.0
N1666 N 0.14989 0.6688 0.4129 0.0
C1667 C 0.14855 0.63938 0.40073 0.0
C1668 C 0.16696 0.63662 0.37729 0.0
C1669 C 0.8424 0.84821 0.69321 0.0
C1670 C 0.83875 0.87666 0.68839 0.0
C1671 C 0.83943 0.83815 0.72212 0.0
C1672 C 0.83279 0.85608 0.74769 0.0
H1673 H 0.84812 0.83377 0.6747 0.0
H1674 H 0.84296 0.81629 0.72458 0.0
S1675 S 0.81837 0.93111 0.74688 0.0
N1676 N 0.82609 0.92174 0.71165 0.0
N1677 N 0.82095 0.90291 0.76547 0.0
C1678 C 0.82839 0.88419 0.743 0.0
C1679 C 0.83122 0.8944 0.71359 0.0
C1680 C 0.76735 0.55546 0.54136 0.0
C1681 C 0.79812 0.55819 0.55314 0.0
C1682 C 0.75656 0.58042 0.54816 0.0
C1683 C 0.77617 0.60898 0.56695 0.0
H1684 H 0.75085 0.53334 0.52853 0.0
H1685 H 0.73195 0.57629 0.54102 0.0
S1686 S 0.86024 0.63027 0.59791 0.0
N1687 N 0.84945 0.59336 0.5802 0.0
N1688 N 0.82866 0.64025 0.59312 0.0
C1689 C 0.80769 0.61307 0.57616 0.0
C1690 C 0.81881 0.58765 0.5692 0.0
C1691 C 0.21857 0.14944 0.55614 0.0
C1692 C 0.22171 0.17757 0.54526 0.0
C1693 C 0.18931 0.12826 0.55691 0.0
C1694 C 0.16182 0.13419 0.5468 0.0
H1695 H 0.23893 0.14399 0.5651 0.0
H1696 H 0.1884 0.10745 0.56628 0.0
S1697 S 0.15687 0.20278 0.51288 0.0
N1698 N 0.19455 0.20903 0.52184 0.0
N1699 N 0.13954 0.16923 0.52305 0.0
C1700 C 0.16449 0.16154 0.53446 0.0
C1701 C 0.19438 0.18319 0.53373 0.0
C1702 C 0.23881 1.0196 0.77725 0.0
C1703 C 0.22509 0.02587 0.80338 0.0
C1704 C 0.25783 1.001 0.7773 0.0
C1705 C 0.26415 0.98799 0.80356 0.0
H1706 H 0.23484 0.02912 0.75641 0.0
H1707 H 0.2675 0.99662 0.75643 0.0
S1708 S 0.23495 0.99815 0.87851 0.0
N1709 N 0.21944 1.01782 0.85646 0.0
N1710 N 0.2558 0.98333 0.85684 0.0
C1711 C 0.25058 0.994 0.82991 0.0
C1712 C 0.23093 1.01281 0.82976 0.0
C1713 C 0.42978 0.04221 1.01383 0.0
C1714 C 0.41815 0.05395 0.03949 0.0
C1715 C 0.46137 0.04546 0.01637 0.0
C1716 C 0.48194 0.06006 0.04478 0.0
H1717 H 0.41419 0.02925 0.99211 0.0
H1718 H 0.46932 0.03492 0.99674 0.0
S1719 S 0.46451 0.0986 0.11737 0.0
N1720 N 0.43082 0.08404 0.09298 0.0
N1721 N 0.48979 0.08935 0.09775 0.0
C1722 C 0.47113 0.07371 0.0698 0.0
C1723 C 0.43928 0.07091 0.06714 0.0
C1724 C 0.79956 0.61311 0.84836 0.0
C1725 C 0.78805 0.58317 0.82942 0.0
C1726 C 0.78283 0.63371 0.84708 0.0
C1727 C 0.7539 0.62511 0.82685 0.0
H1728 H 0.82265 0.62164 0.86257 0.0
H1729 H 0.79421 0.65751 0.85972 0.0
S1730 S 0.70981 0.54658 0.77917 0.0
N1731 N 0.74325 0.54373 0.79468 0.0
N1732 N 0.71169 0.58272 0.79255 0.0
C1733 C 0.74042 0.59399 0.81089 0.0
C1734 C 0.75756 0.57297 0.81203 0.0
C1735 C 0.88354 0.66578 0.12091 0.0
C1736 C 0.87825 0.67915 0.09456 0.0
C1737 C 0.90252 0.64715 0.12177 0.0
C1738 C 0.91698 0.64094 0.09627 0.0
H1739 H 0.87286 0.66964 0.14117 0.0
H1740 H 0.90598 0.6376 0.1427 0.0
S1741 S 0.91008 0.66949 0.02121 0.0
N1742 N 0.88896 0.68468 0.04214 0.0
N1743 N 0.92419 0.64911 0.04353 0.0
C1744 C 0.91206 0.65425 0.06978 0.0
C1745 C 0.89283 0.67345 0.06897 0.0
C1746 C 0.21227 0.20976 0.83094 0.0
C1747 C 0.22206 0.18352 0.82911 0.0
C1748 C 0.2325 0.23907 0.8286 0.0
C1749 C 0.26335 0.24336 0.82429 0.0
H1750 H 0.18847 0.20749 0.83307 0.0
H1751 H 0.22357 0.25834 0.82944 0.0
S1752 S 0.30168 0.18303 0.82193 0.0
N1753 N 0.26561 0.16443 0.82557 0.0
N1754 N 0.30346 0.21934 0.82109 0.0
C1755 C 0.27385 0.21763 0.82381 0.0
C1756 C 0.25329 0.18781 0.82628 0.0
C1757 C 0.40474 0.98333 0.37728 0.0
C1758 C 0.4193 0.99954 0.35537 0.0
C1759 C 0.38169 0.95392 0.36744 0.0
C1760 C 0.37191 0.94027 0.33531 0.0
H1761 H 0.41094 0.99365 0.40209 0.0
H1762 H 0.37125 0.94203 0.38512 0.0
S1763 S 0.40163 0.97496 0.26865 0.0
N1764 N 0.42194 1.00074 0.30034 0.0
N1765 N 0.37811 0.94603 0.28158 0.0
C1766 C 0.38616 0.95664 0.31318 0.0
C1767 C 0.41004 0.98614 0.32329 0.0
C1768 C 0.59993 0.44147 0.6169 0.0
C1769 C 0.62797 0.43546 0.613 0.0
C1770 C 0.59384 0.46896 0.60985 0.0
C1771 C 0.61559 0.49323 0.59911 0.0
H1772 H 0.58212 0.42449 0.62534 0.0
H1773 H 0.57176 0.47139 0.61343 0.0
S1774 S 0.69319 0.49054 0.5851 0.0
N1775 N 0.67779 0.45744 0.59708 0.0
N1776 N 0.66706 0.5084 0.58526 0.0
C1777 C 0.64385 0.48769 0.59542 0.0
C1778 C 0.64976 0.45934 0.60189 0.0
C1779 C 0.45228 0.85315 0.3905 0.0
C1780 C 0.44658 0.83399 0.41323 0.0
C1781 C 0.4279 0.85489 0.3685 0.0
C1782 C 0.39649 0.83788 0.36833 0.0
H1783 H 0.47591 0.86703 0.38958 0.0
H1784 H 0.43379 0.87019 0.35181 0.0
S1785 S 0.36857 0.78365 0.42245 0.0
N1786 N 0.40677 0.79711 0.43363 0.0
N1787 N 0.3612 0.80056 0.39288 0.0
C1788 C 0.39042 0.81846 0.39086 0.0
C1789 C 0.4153 0.81645 0.41305 0.0
C1790 C 0.07369 0.71346 0.10528 0.0
C1791 C 0.09336 0.73683 0.0918 0.0
C1792 C 0.07133 0.68152 0.09886 0.0
C1793 C 0.08845 0.67 0.07835 0.0
H1794 H 0.06 0.71995 0.12178 0.0
H1795 H 0.05586 0.66567 0.11061 0.0
S1796 S 0.143 0.7201 0.03532 0.0
N1797 N 0.13009 0.74506 0.05582 0.0
N1798 N 0.12551 0.68548 0.04348 0.0
C1799 C 0.10773 0.69279 0.06387 0.0
C1800 C 0.11018 0.72573 0.07055 0.0
C1801 C 0.10065 0.29336 0.88841 0.0
C1802 C 0.10174 0.30803 0.91933 0.0
C1803 C 0.12402 0.30531 0.87134 0.0
C1804 C 0.14963 0.33231 0.8845 0.0
H1805 H 0.0815 0.27242 0.87711 0.0
H1806 H 0.12229 0.29296 0.84777 0.0
S1807 S 0.1636 0.38015 0.96417 0.0
N1808 N 0.13057 0.35155 0.96221 0.0
N1809 N 0.17463 0.37386 0.92998 0.0
C1810 C 0.15113 0.34736 0.9153 0.0
C1811 C 0.12715 0.3353 0.93271 0.0
C1812 C 0.60214 0.79932 1.00687 0.0
C1813 C 0.59071 0.79438 0.97443 0.0
C1814 C 0.59136 0.77627 0.02454 0.0
C1815 C 0.56904 0.7472 1.01043 0.0
H1816 H 0.61953 0.82127 0.01886 0.0
H1817 H 0.6011 0.78101 0.04935 0.0
S1818 S 0.53128 0.72231 0.92653 0.0
N1819 N 0.5553 0.75819 0.92903 0.0
N1820 N 0.53543 0.71464 0.96232 0.0
C1821 C 0.55727 0.74185 0.9781 0.0
C1822 C 0.56795 0.76551 0.9601 0.0
C1823 C 0.18699 0.83153 0.79464 0.0
C1824 C 0.1625 0.80689 0.80143 0.0
C1825 C 0.21887 0.83387 0.80091 0.0
C1826 C 0.22906 0.81155 0.81419 0.0
H1827 H 0.18143 0.8492 0.78346 0.0
H1828 H 0.2357 0.85338 0.7945 0.0
S1829 S 0.17533 0.74228 0.8376 0.0
N1830 N 0.15162 0.75966 0.82323 0.0
N1831 N 0.21088 0.76387 0.83495 0.0
C1832 C 0.20498 0.787 0.82187 0.0
C1833 C 0.17222 0.78475 0.81561 0.0
C1834 C 0.08691 0.48116 0.47636 0.0
C1835 C 0.07744 0.4507 0.48279 0.0
C1836 C 0.08493 0.50666 0.49722 0.0
C1837 C 0.07437 0.50293 0.52585 0.0
H1838 H 0.09502 0.48521 0.45458 0.0
H1839 H 0.09176 0.5295 0.49087 0.0
S1840 S 0.04765 0.42837 0.55441 0.0
N1841 N 0.05726 0.41855 0.52021 0.0
N1842 N 0.05471 0.46642 0.55962 0.0
C1843 C 0.06563 0.4728 0.53294 0.0
C1844 C 0.06685 0.44675 0.51139 0.0
C1845 C 0.44754 0.25719 0.29461 0.0
C1846 C 0.47137 0.27844 0.28284 0.0
C1847 C 0.41948 0.26288 0.30074 0.0
C1848 C 0.41328 0.29069 0.29642 0.0
H1849 H 0.45029 0.23542 0.29875 0.0
H1850 H 0.40249 0.24519 0.3093 0.0
S1851 S 0.46744 0.35468 0.26628 0.0
N1852 N 0.48561 0.32884 0.26697 0.0
N1853 N 0.43472 0.3398 0.27924 0.0
C1854 C 0.43709 0.31226 0.28501 0.0
C1855 C 0.46529 0.30614 0.2781 0.0
C1856 C 0.59507 0.58 0.43641 0.0
C1857 C 0.62387 0.58351 0.42669 0.0
C1858 C 0.59109 0.57672 0.46741 0.0
C1859 C 0.61597 0.5779 0.49061 0.0
H1860 H 0.57535 0.57979 0.41987 0.0
H1861 H 0.5684 0.57417 0.47351 0.0
S1862 S 0.69636 0.58705 0.47773 0.0
N1863 N 0.67773 0.58745 0.44298 0.0
N1864 N 0.67057 0.58285 0.50142 0.0
C1865 C 0.64496 0.58157 0.48132 0.0
C1866 C 0.64879 0.58391 0.44941 0.0
C1867 C 0.301 0.93707 0.09723 0.0
C1868 C 0.30426 0.96853 0.10829 0.0
C1869 C 0.30857 0.91858 0.11751 0.0
C1870 C 0.31931 0.93062 0.1497 0.0
H1871 H 0.29477 0.92718 0.07232 0.0
H1872 H 0.3079 0.89534 0.10754 0.0
S1873 S 0.32233 1.00767 0.19203 0.0
N1874 N 0.31248 1.00849 0.15456 0.0
N1875 N 0.32622 0.9732 0.1929 0.0
C1876 C 0.31908 0.96059 0.16172 0.0
C1877 C 0.31145 0.97961 0.14097 0.0
C1878 C 0.99385 0.5615 0.92697 0.0
C1879 C 0.97459 0.57991 0.93077 0.0
C1880 C 1.0166 0.56207 0.95172 0.0
C1881 C 1.02065 0.58091 0.98116 0.0
H1882 H 0.99039 0.54533 0.90515 0.0
H1883 H 1.02962 0.54622 0.94832 0.0
S1884 S 0.98052 0.63781 1.00167 0.0
N1885 N 0.96416 0.62069 0.96499 0.0
N1886 N 1.00703 0.62185 1.0116 0.0
C1887 C 1.00349 0.60143 0.98451 0.0
C1888 C 0.98042 0.60096 0.95925 0.0
C1889 C 0.30025 0.30596 0.66317 0.0
C1890 C 0.3255 0.29873 0.6528 0.0
C1891 C 0.29993 0.31447 0.69558 0.0
C1892 C 0.32499 0.31641 0.719 0.0
H1893 H 0.2798 0.30327 0.64625 0.0
H1894 H 0.27951 0.31874 0.70231 0.0
S1895 S 0.3979 0.30221 0.70366 0.0
N1896 N 0.3768 0.29574 0.66838 0.0
N1897 N 0.37685 0.31214 0.72853 0.0
C1898 C 0.35103 0.3107 0.70857 0.0
C1899 C 0.3511 0.30175 0.67578 0.0
C1900 C 0.59692 0.59881 0.23178 0.0
C1901 C 0.60624 0.57471 0.2419 0.0
C1902 C 0.58877 0.59887 0.1994 0.0
C1903 C 0.5893 0.5747 0.17575 0.0
H1904 H 0.59761 0.61864 0.24888 0.0
H1905 H 0.5827 0.61842 0.19291 0.0
S1906 S 0.60981 0.50488 0.1903 0.0
N1907 N 0.61385 0.52529 0.22575 0.0
N1908 N 0.59844 0.52497 0.16568 0.0
C1909 C 0.59726 0.54979 0.18589 0.0
C1910 C 0.60573 0.54993 0.21864 0.0
C1911 C 0.30745 0.93028 0.92222 0.0
C1912 C 0.30478 0.92451 0.95257 0.0
C1913 C 0.31316 0.90875 0.89987 0.0
C1914 C 0.31562 0.88056 0.90702 0.0
H1915 H 0.30744 0.95247 0.91643 0.0
H1916 H 0.31651 0.9146 0.8771 0.0
S1917 S 0.306 0.85288 0.98189 0.0
N1918 N 0.3022 0.88774 0.98797 0.0
N1919 N 0.31175 0.84661 0.9453 0.0
C1920 C 0.31048 0.87344 0.93643 0.0
C1921 C 0.30536 0.89566 0.95943 0.0
C1922 C 0.91238 0.53091 0.74583 0.0
C1923 C 0.92214 0.5523 0.77457 0.0
C1924 C 0.93394 0.52671 0.72705 0.0
C1925 C 0.96595 0.54359 0.73652 0.0
H1926 H 0.88821 0.51628 0.73852 0.0
H1927 H 0.92565 0.50937 0.70552 0.0
S1928 S 1.00266 0.60604 0.80701 0.0
N1929 N 0.96545 0.59323 0.8096 0.0
N1930 N 1.00579 0.58506 0.77443 0.0
C1931 C 0.9757 0.56629 0.76422 0.0
C1932 C 0.95383 0.57074 0.78318 0.0
C1933 C 0.32061 0.2576 0.44573 0.0
C1934 C 0.32074 0.28243 0.46898 0.0
C1935 C 0.32348 0.26145 0.41448 0.0
C1936 C 0.32779 0.29061 0.40547 0.0
H1937 H 0.31716 0.23469 0.45142 0.0
H1938 H 0.32239 0.2415 0.3973 0.0
S1939 S 0.33049 0.3632 0.45739 0.0
N1940 N 0.32536 0.3371 0.48042 0.0
N1941 N 0.3322 0.34473 0.42273 0.0
C1942 C 0.32871 0.31571 0.42874 0.0
C1943 C 0.32482 0.31154 0.46014 0.0
C1944 C 0.37321 0.60809 0.55909 0.0
C1945 C 0.36478 0.60514 0.58868 0.0
C1946 C 0.39114 0.59141 0.54649 0.0
C1947 C 0.40116 0.57113 0.56298 0.0
H1948 H 0.36651 0.6239 0.5458 0.0
H1949 H 0.39797 0.59505 0.52409 0.0
S1950 S 0.38499 0.55449 0.64097 0.0
N1951 N 0.36715 0.57954 0.63371 0.0
N1952 N 0.40122 0.5486 0.61009 0.0
C1953 C 0.39211 0.56715 0.59208 0.0
C1954 C 0.37384 0.58408 0.60493 0.0
C1955 C 0.9442 1.00307 0.5962 0.0
C1956 C 0.93987 0.97097 0.59351 0.0
C1957 C 0.96966 0.02346 0.58681 0.0
C1958 C 0.99188 1.01268 0.57414 0.0
H1959 H 0.92754 1.01267 0.60526 0.0
H1960 H 0.97171 0.04786 0.58926 0.0
S1961 S 0.99291 0.93127 0.56417 0.0
N1962 N 0.96106 0.92968 0.57866 0.0
N1963 N 1.00893 0.96799 0.56098 0.0
C1964 C 0.98832 0.98077 0.57189 0.0
C1965 C 0.96239 0.95996 0.58163 0.0
C1966 C 0.90161 0.11728 0.28299 0.0
C1967 C 0.92842 0.11804 0.30306 0.0
C1968 C 0.88377 0.13555 0.2921 0.0
C1969 C 0.89199 0.15542 0.32162 0.0
H1970 H 0.89398 0.10213 0.26006 0.0
H1971 H 0.86336 0.13415 0.2758 0.0
S1972 S 0.96011 0.16663 0.38294 0.0
N1973 N 0.9626 0.14086 0.35381 0.0
N1974 N 0.92879 0.17524 0.37094 0.0
C1975 C 0.91902 0.157 0.34179 0.0
C1976 C 0.93728 0.13829 0.33252 0.0
C1977 C 0.71612 0.08507 0.12128 0.0
C1978 C 0.73257 0.1172 0.12993 0.0
C1979 C 0.68374 0.07425 0.1116 0.0
C1980 C 0.66727 0.09538 0.11031 0.0
H1981 H 0.7285 0.06848 0.11955 0.0
H1982 H 0.67193 0.04945 0.10312 0.0
S1983 S 0.69953 0.18131 0.13731 0.0
N1984 N 0.73003 0.16956 0.14144 0.0
N1985 N 0.66918 0.14935 0.12357 0.0
C1986 C 0.68328 0.1273 0.12191 0.0
C1987 C 0.71603 0.1382 0.1317 0.0
C1988 C 0.31351 0.52589 0.27851 0.0
C1989 C 0.29754 0.54063 0.29742 0.0
C1990 C 0.32828 0.50625 0.28994 0.0
C1991 C 0.32799 0.50106 0.32076 0.0
H1992 H 0.31384 0.52871 0.25434 0.0
H1993 H 0.33925 0.4943 0.27429 0.0
S1994 S 0.29156 0.53532 0.3806 0.0
N1995 N 0.28375 0.54972 0.34919 0.0
N1996 N 0.31192 0.51267 0.37054 0.0
C1997 C 0.31325 0.51637 0.34038 0.0
C1998 C 0.29789 0.53622 0.32871 0.0
C1999 C 0.25478 0.46457 0.04858 0.0
C2000 C 0.27123 0.47248 0.07971 0.0
C2001 C 0.23579 0.48118 0.03791 0.0
C2002 C 0.23266 0.50647 0.05788 0.0
H2003 H 0.2569 0.44569 0.03211 0.0
H2004 H 0.22389 0.47451 1.01367 0.0
S2005 S 0.26824 0.53498 0.14218 0.0
N2006 N 0.2814 0.50634 0.1309 0.0
N2007 N 0.24572 0.53727 0.11074 0.0
C2008 C 0.24828 0.51415 0.08921 0.0
C2009 C 0.26752 0.49723 0.10015 0.0
C2010 C 0.93821 0.94465 0.31706 0.0
C2011 C 0.92773 0.96462 0.30042 0.0
C2012 C 0.91722 0.9196 0.32652 0.0
C2013 C 0.8848 0.91329 0.31959 0.0
H2014 H 0.96289 0.94875 0.32351 0.0
H2015 H 0.92664 0.90504 0.33931 0.0
S2016 S 0.84521 0.95773 0.27508 0.0
N2017 N 0.88265 0.97576 0.2764 0.0
N2018 N 0.84327 0.92878 0.2941 0.0
C2019 C 0.87397 0.9328 0.30248 0.0
C2020 C 0.89538 0.95837 0.2929 0.0
C2021 C 0.81188 0.19869 0.73989 0.0
C2022 C 0.82572 0.1834 0.75996 0.0
C2023 C 0.81959 0.23128 0.74674 0.0
C2024 C 0.84151 0.24894 0.77351 0.0
H2025 H 0.79198 0.1853 0.72173 0.0
H2026 H 0.80539 0.24195 0.73375 0.0
S2027 S 0.89008 0.22045 0.82774 0.0
N2028 N 0.86659 0.18862 0.80331 0.0
N2029 N 0.88164 0.24986 0.81571 0.0
C2030 C 0.85909 0.23433 0.79024 0.0
C2031 C 0.85101 0.20135 0.78357 0.0
loop_
_geom_bond_atom_site_label_1
_geom_bond_atom_site_label_2
_geom_bond_distance
_geom_bond_site_symmetry_2
_ccdc_geom_bond_type
O0 Cd1 2.223 . S
O0 C8 1.315 . S
Cd1 O0 2.223 . S
Cd1 O4 2.297 . S
Cd1 O5 2.439 . S
Cd1 O11 2.240 . S
Cd2 O3 2.240 . S
Cd2 O10 2.223 1_455 S
Cd2 O12 2.297 . S
Cd2 O13 2.439 . S
O3 Cd2 2.240 . S
O3 C8 1.279 . S
O4 Cd1 2.297 . S
O4 C6 1.247 . S
O5 Cd1 2.439 . S
O5 C6 1.208 . S
C6 O4 1.247 . S
C6 O5 1.208 . S
C7 O12 1.247 . S
C7 O13 1.208 . S
C8 O0 1.315 . S
C8 O3 1.279 . S
C9 O10 1.315 . S
C9 O11 1.279 1_655 S
O10 Cd2 2.223 1_655 S
O10 C9 1.315 . S
O11 Cd1 2.240 . S
O11 C9 1.279 1_455 S
O12 Cd2 2.297 . S
O12 C7 1.247 . S
O13 Cd2 2.439 . S
O13 C7 1.208 . S
O14 Cd15 2.223 . S
O14 C22 1.315 . S
Cd15 O14 2.223 . S
Cd15 O18 2.297 1_455 S
Cd15 O19 2.439 1_455 S
Cd15 O25 2.240 . S
Cd16 O17 2.240 . S
Cd16 O24 2.223 . S
Cd16 O26 2.297 . S
Cd16 O27 2.439 . S
O17 Cd16 2.240 . S
O17 C22 1.279 . S
O18 Cd15 2.297 1_655 S
O18 C20 1.247 . S
O19 Cd15 2.439 1_655 S
O19 C20 1.208 . S
C20 O18 1.247 . S
C20 O19 1.208 . S
C21 O26 1.247 . S
C21 O27 1.208 . S
C22 O14 1.315 . S
C22 O17 1.279 . S
C23 O24 1.315 . S
C23 O25 1.279 . S
O24 Cd16 2.223 . S
O24 C23 1.315 . S
O25 Cd15 2.240 . S
O25 C23 1.279 . S
O26 Cd16 2.297 . S
O26 C21 1.247 . S
O27 Cd16 2.439 . S
O27 C21 1.208 . S
O28 Cd29 2.223 . S
O28 C36 1.315 . S
Cd29 O28 2.223 . S
Cd29 O32 2.297 . S
Cd29 O33 2.439 . S
Cd29 O39 2.240 . S
Cd30 O31 2.240 . S
Cd30 O38 2.223 . S
Cd30 O40 2.297 . S
Cd30 O41 2.439 . S
O31 Cd30 2.240 . S
O31 C36 1.279 . S
O32 Cd29 2.297 . S
O32 C34 1.247 . S
O33 Cd29 2.439 . S
O33 C34 1.208 . S
C34 O32 1.247 . S
C34 O33 1.208 . S
C35 O40 1.247 . S
C35 O41 1.208 . S
C36 O28 1.315 . S
C36 O31 1.279 . S
C37 O38 1.315 . S
C37 O39 1.279 . S
O38 Cd30 2.223 . S
O38 C37 1.315 . S
O39 Cd29 2.240 . S
O39 C37 1.279 . S
O40 Cd30 2.297 . S
O40 C35 1.247 . S
O41 Cd30 2.439 . S
O41 C35 1.208 . S
O42 Cd43 2.223 . S
O42 C50 1.315 . S
Cd43 O42 2.223 . S
Cd43 O46 2.297 . S
Cd43 O47 2.439 . S
Cd43 O53 2.240 . S
Cd44 O45 2.240 . S
Cd44 O52 2.223 . S
Cd44 O54 2.297 . S
Cd44 O55 2.439 . S
O45 Cd44 2.240 . S
O45 C50 1.279 . S
O46 Cd43 2.297 . S
O46 C48 1.247 . S
O47 Cd43 2.439 . S
O47 C48 1.208 . S
C48 O46 1.247 . S
C48 O47 1.208 . S
C49 O54 1.247 . S
C49 O55 1.208 . S
C50 O42 1.315 . S
C50 O45 1.279 . S
C51 O52 1.315 . S
C51 O53 1.279 . S
O52 Cd44 2.223 . S
O52 C51 1.315 . S
O53 Cd43 2.240 . S
O53 C51 1.279 . S
O54 Cd44 2.297 . S
O54 C49 1.247 . S
O55 Cd44 2.439 . S
O55 C49 1.208 . S
O56 Cd57 2.223 . S
O56 C64 1.315 . S
Cd57 O56 2.223 . S
Cd57 O60 2.297 . S
Cd57 O61 2.439 . S
Cd57 O67 2.240 . S
Cd58 O59 2.240 . S
Cd58 O66 2.223 . S
Cd58 O68 2.297 . S
Cd58 O69 2.439 . S
O59 Cd58 2.240 . S
O59 C64 1.279 . S
O60 Cd57 2.297 . S
O60 C62 1.247 . S
O61 Cd57 2.439 . S
O61 C62 1.208 . S
C62 O60 1.247 . S
C62 O61 1.208 . S
C63 O68 1.247 . S
C63 O69 1.208 . S
C64 O56 1.315 . S
C64 O59 1.279 . S
C65 O66 1.315 . S
C65 O67 1.279 . S
O66 Cd58 2.223 . S
O66 C65 1.315 . S
O67 Cd57 2.240 . S
O67 C65 1.279 . S
O68 Cd58 2.297 . S
O68 C63 1.247 . S
O69 Cd58 2.439 . S
O69 C63 1.208 . S
O70 Cd71 2.223 . S
O70 C78 1.315 . S
Cd71 O70 2.223 . S
Cd71 O74 2.297 . S
Cd71 O75 2.439 . S
Cd71 O81 2.240 . S
Cd72 O73 2.240 . S
Cd72 O80 2.223 . S
Cd72 O82 2.297 . S
Cd72 O83 2.439 . S
O73 Cd72 2.240 . S
O73 C78 1.279 . S
O74 Cd71 2.297 . S
O74 C76 1.247 . S
O75 Cd71 2.439 . S
O75 C76 1.208 . S
C76 O74 1.247 . S
C76 O75 1.208 . S
C77 O82 1.247 . S
C77 O83 1.208 . S
C78 O70 1.315 . S
C78 O73 1.279 . S
C79 O80 1.315 . S
C79 O81 1.279 . S
O80 Cd72 2.223 . S
O80 C79 1.315 . S
O81 Cd71 2.240 . S
O81 C79 1.279 . S
O82 Cd72 2.297 . S
O82 C77 1.247 . S
O83 Cd72 2.439 . S
O83 C77 1.208 . S
O84 Cd85 2.223 . S
O84 C92 1.315 . S
Cd85 O84 2.223 . S
Cd85 O88 2.297 . S
Cd85 O89 2.439 . S
Cd85 O95 2.240 . S
Cd86 O87 2.240 . S
Cd86 O94 2.223 . S
Cd86 O96 2.297 . S
Cd86 O97 2.439 . S
O87 Cd86 2.240 . S
O87 C92 1.279 . S
O88 Cd85 2.297 . S
O88 C90 1.247 . S
O89 Cd85 2.439 . S
O89 C90 1.208 . S
C90 O88 1.247 . S
C90 O89 1.208 . S
C91 O96 1.247 . S
C91 O97 1.208 . S
C92 O84 1.315 . S
C92 O87 1.279 . S
C93 O94 1.315 . S
C93 O95 1.279 . S
O94 Cd86 2.223 . S
O94 C93 1.315 . S
O95 Cd85 2.240 . S
O95 C93 1.279 . S
O96 Cd86 2.297 . S
O96 C91 1.247 . S
O97 Cd86 2.439 . S
O97 C91 1.208 . S
O98 Cd99 2.223 1_655 S
O98 C106 1.315 . S
Cd99 O98 2.223 1_455 S
Cd99 O102 2.297 . S
Cd99 O103 2.439 . S
Cd99 O109 2.240 1_455 S
Cd100 O101 2.240 1_655 S
Cd100 O108 2.223 1_554 S
Cd100 O110 2.297 . S
Cd100 O111 2.439 1_655 S
O101 Cd100 2.240 1_455 S
O101 C106 1.279 1_454 S
O102 Cd99 2.297 . S
O102 C104 1.247 . S
O103 Cd99 2.439 . S
O103 C104 1.208 . S
C104 O102 1.247 . S
C104 O103 1.208 . S
C105 O110 1.247 1_455 S
C105 O111 1.208 . S
C106 O98 1.315 . S
C106 O101 1.279 1_656 S
C107 O108 1.315 . S
C107 O109 1.279 . S
O108 Cd100 2.223 1_556 S
O108 C107 1.315 . S
O109 Cd99 2.240 1_655 S
O109 C107 1.279 . S
O110 Cd100 2.297 . S
O110 C105 1.247 1_655 S
O111 Cd100 2.439 1_455 S
O111 C105 1.208 . S
O112 Cd113 2.235 . S
O112 C120 1.315 . S
Cd113 O112 2.235 . S
Cd113 O116 2.257 1_565 S
Cd113 O117 2.407 1_565 S
Cd113 O123 2.276 . S
Cd114 O115 2.240 1_565 S
Cd114 O122 2.223 . S
Cd114 O124 2.297 . S
Cd114 O125 2.439 1_565 S
O115 Cd114 2.240 1_545 S
O115 C120 1.279 1_545 S
O116 Cd113 2.257 1_545 S
O116 C118 1.247 . S
O117 Cd113 2.407 1_545 S
O117 C118 1.208 . S
C118 O116 1.247 . S
C118 O117 1.208 . S
C119 O124 1.247 1_545 S
C119 O125 1.208 . S
C120 O112 1.315 . S
C120 O115 1.279 1_565 S
C121 O122 1.315 . S
C121 O123 1.279 . S
O122 Cd114 2.223 . S
O122 C121 1.315 . S
O123 Cd113 2.276 . S
O123 C121 1.279 . S
O124 Cd114 2.297 . S
O124 C119 1.247 1_565 S
O125 Cd114 2.439 1_545 S
O125 C119 1.208 . S
O126 Cd127 2.223 . S
O126 C134 1.315 . S
Cd127 O126 2.223 . S
Cd127 O130 2.297 . S
Cd127 O131 2.439 . S
Cd127 O137 2.240 . S
Cd128 O129 2.240 . S
Cd128 O136 2.223 . S
Cd128 O138 2.297 . S
Cd128 O139 2.439 . S
O129 Cd128 2.240 . S
O129 C134 1.279 . S
O130 Cd127 2.297 . S
O130 C132 1.247 . S
O131 Cd127 2.439 . S
O131 C132 1.208 . S
C132 O130 1.247 . S
C132 O131 1.208 . S
C133 O138 1.247 . S
C133 O139 1.208 . S
C134 O126 1.315 . S
C134 O129 1.279 . S
C135 O136 1.315 . S
C135 O137 1.279 . S
O136 Cd128 2.223 . S
O136 C135 1.315 . S
O137 Cd127 2.240 . S
O137 C135 1.279 . S
O138 Cd128 2.297 . S
O138 C133 1.247 . S
O139 Cd128 2.439 . S
O139 C133 1.208 . S
O140 Cd141 2.223 . S
O140 C148 1.315 . S
Cd141 O140 2.223 . S
Cd141 O144 2.297 . S
Cd141 O145 2.439 . S
Cd141 O151 2.240 . S
Cd142 O143 2.240 . S
Cd142 O150 2.223 . S
Cd142 O152 2.297 . S
Cd142 O153 2.439 . S
O143 Cd142 2.240 . S
O143 C148 1.279 . S
O144 Cd141 2.297 . S
O144 C146 1.247 . S
O145 Cd141 2.439 . S
O145 C146 1.208 . S
C146 O144 1.247 . S
C146 O145 1.208 . S
C147 O152 1.247 . S
C147 O153 1.208 . S
C148 O140 1.315 . S
C148 O143 1.279 . S
C149 O150 1.315 . S
C149 O151 1.279 . S
O150 Cd142 2.223 . S
O150 C149 1.315 . S
O151 Cd141 2.240 . S
O151 C149 1.279 . S
O152 Cd142 2.297 . S
O152 C147 1.247 . S
O153 Cd142 2.439 . S
O153 C147 1.208 . S
O154 Cd155 2.223 . S
O154 C162 1.315 . S
Cd155 O154 2.223 . S
Cd155 O158 2.297 . S
Cd155 O159 2.439 1_554 S
Cd155 O165 2.240 1_554 S
Cd156 O157 2.240 1_556 S
Cd156 O164 2.223 1_556 S
Cd156 O166 2.297 . S
Cd156 O167 2.439 . S
O157 Cd156 2.240 1_554 S
O157 C162 1.279 . S
O158 Cd155 2.297 . S
O158 C160 1.247 . S
O159 Cd155 2.439 1_556 S
O159 C160 1.208 1_556 S
C160 O158 1.247 . S
C160 O159 1.208 1_554 S
C161 O166 1.247 . S
C161 O167 1.208 . S
C162 O154 1.315 . S
C162 O157 1.279 . S
C163 O164 1.315 . S
C163 O165 1.279 1_554 S
O164 Cd156 2.223 1_554 S
O164 C163 1.315 . S
O165 Cd155 2.240 1_556 S
O165 C163 1.279 1_556 S
O166 Cd156 2.297 . S
O166 C161 1.247 . S
O167 Cd156 2.439 . S
O167 C161 1.208 . S
O168 Cd169 2.223 . S
O168 C176 1.315 . S
Cd169 O168 2.223 . S
Cd169 O172 2.297 . S
Cd169 O173 2.439 . S
Cd169 O179 2.240 . S
Cd170 O171 2.240 . S
Cd170 O178 2.223 . S
Cd170 O180 2.318 . S
Cd170 O181 2.439 . S
O171 Cd170 2.240 . S
O171 C176 1.279 . S
O172 Cd169 2.297 . S
O172 C174 1.247 . S
O173 Cd169 2.439 . S
O173 C174 1.208 . S
C174 O172 1.247 . S
C174 O173 1.208 . S
C175 O180 1.239 1_556 S
C175 O181 1.208 1_556 S
C176 O168 1.315 . S
C176 O171 1.279 . S
C177 O178 1.315 . S
C177 O179 1.279 . S
O178 Cd170 2.223 . S
O178 C177 1.315 . S
O179 Cd169 2.240 . S
O179 C177 1.279 . S
O180 Cd170 2.318 . S
O180 C175 1.239 1_554 S
O181 Cd170 2.439 . S
O181 C175 1.208 1_554 S
O182 Cd183 2.223 . S
O182 C190 1.315 . S
Cd183 O182 2.223 . S
Cd183 O186 2.297 . S
Cd183 O187 2.439 . S
Cd183 O193 2.240 . S
Cd184 O185 2.240 . S
Cd184 O192 2.223 . S
Cd184 O194 2.297 . S
Cd184 O195 2.439 . S
O185 Cd184 2.240 . S
O185 C190 1.279 . S
O186 Cd183 2.297 . S
O186 C188 1.247 . S
O187 Cd183 2.439 . S
O187 C188 1.208 . S
C188 O186 1.247 . S
C188 O187 1.208 . S
C189 O194 1.247 . S
C189 O195 1.208 . S
C190 O182 1.315 . S
C190 O185 1.279 . S
C191 O192 1.315 . S
C191 O193 1.279 . S
O192 Cd184 2.223 . S
O192 C191 1.315 . S
O193 Cd183 2.240 . S
O193 C191 1.279 . S
O194 Cd184 2.297 . S
O194 C189 1.247 . S
O195 Cd184 2.439 . S
O195 C189 1.208 . S
O196 Cd197 2.223 . S
O196 C204 1.315 . S
Cd197 O196 2.223 . S
Cd197 O200 2.297 . S
Cd197 O201 2.439 . S
Cd197 O207 2.240 . S
Cd198 O199 2.240 . S
Cd198 O206 2.223 . S
Cd198 O208 2.297 . S
Cd198 O209 2.439 . S
O199 Cd198 2.240 . S
O199 C204 1.279 . S
O200 Cd197 2.297 . S
O200 C202 1.247 . S
O201 Cd197 2.439 . S
O201 C202 1.208 . S
C202 O200 1.247 . S
C202 O201 1.208 . S
C203 O208 1.247 . S
C203 O209 1.208 . S
C204 O196 1.315 . S
C204 O199 1.279 . S
C205 O206 1.315 . S
C205 O207 1.279 . S
O206 Cd198 2.223 . S
O206 C205 1.315 . S
O207 Cd197 2.240 . S
O207 C205 1.279 . S
O208 Cd198 2.297 . S
O208 C203 1.247 . S
O209 Cd198 2.439 . S
O209 C203 1.208 . S
O210 Cd211 2.223 . S
O210 C218 1.315 . S
Cd211 O210 2.223 . S
Cd211 O214 2.297 . S
Cd211 O215 2.439 . S
Cd211 O221 2.240 . S
Cd212 O213 2.240 . S
Cd212 O220 2.223 . S
Cd212 O222 2.297 . S
Cd212 O223 2.439 . S
O213 Cd212 2.240 . S
O213 C218 1.279 . S
O214 Cd211 2.297 . S
O214 C216 1.247 . S
O215 Cd211 2.439 . S
O215 C216 1.208 . S
C216 O214 1.247 . S
C216 O215 1.208 . S
C217 O222 1.247 . S
C217 O223 1.208 . S
C218 O210 1.315 . S
C218 O213 1.279 . S
C219 O220 1.315 . S
C219 O221 1.279 . S
O220 Cd212 2.223 . S
O220 C219 1.315 . S
O221 Cd211 2.240 . S
O221 C219 1.279 . S
O222 Cd212 2.297 . S
O222 C217 1.247 . S
O223 Cd212 2.439 . S
O223 C217 1.208 . S
O224 Cd225 2.223 . S
O224 C232 1.315 . S
Cd225 O224 2.223 . S
Cd225 O228 2.297 . S
Cd225 O229 2.439 . S
Cd225 O235 2.240 1_545 S
Cd226 O227 2.240 . S
Cd226 O234 2.223 1_545 S
Cd226 O236 2.297 . S
Cd226 O237 2.439 . S
O227 Cd226 2.240 . S
O227 C232 1.279 . S
O228 Cd225 2.297 . S
O228 C230 1.247 . S
O229 Cd225 2.439 . S
O229 C230 1.208 . S
C230 O228 1.247 . S
C230 O229 1.208 . S
C231 O236 1.247 . S
C231 O237 1.208 . S
C232 O224 1.315 . S
C232 O227 1.279 . S
C233 O234 1.315 . S
C233 O235 1.279 . S
O234 Cd226 2.223 1_565 S
O234 C233 1.315 . S
O235 Cd225 2.240 1_565 S
O235 C233 1.279 . S
O236 Cd226 2.297 . S
O236 C231 1.247 . S
O237 Cd226 2.439 . S
O237 C231 1.208 . S
O238 Cd239 2.223 . S
O238 C246 1.315 . S
Cd239 O238 2.223 . S
Cd239 O242 2.297 . S
Cd239 O243 2.439 . S
Cd239 O249 2.240 . S
Cd240 O241 2.240 . S
Cd240 O248 2.223 . S
Cd240 O250 2.297 . S
Cd240 O251 2.439 . S
O241 Cd240 2.240 . S
O241 C246 1.279 . S
O242 Cd239 2.297 . S
O242 C244 1.247 . S
O243 Cd239 2.439 . S
O243 C244 1.208 . S
C244 O242 1.247 . S
C244 O243 1.208 . S
C245 O250 1.247 . S
C245 O251 1.208 . S
C246 O238 1.315 . S
C246 O241 1.279 . S
C247 O248 1.315 . S
C247 O249 1.279 . S
O248 Cd240 2.223 . S
O248 C247 1.315 . S
O249 Cd239 2.240 . S
O249 C247 1.279 . S
O250 Cd240 2.297 . S
O250 C245 1.247 . S
O251 Cd240 2.439 . S
O251 C245 1.208 . S
O252 Cd253 2.223 . S
O252 C260 1.315 . S
Cd253 O252 2.223 . S
Cd253 O256 2.297 . S
Cd253 O257 2.439 . S
Cd253 O263 2.240 . S
Cd254 O255 2.240 . S
Cd254 O262 2.223 . S
Cd254 O264 2.297 . S
Cd254 O265 2.439 . S
O255 Cd254 2.240 . S
O255 C260 1.279 . S
O256 Cd253 2.297 . S
O256 C258 1.247 . S
O257 Cd253 2.439 . S
O257 C258 1.208 . S
C258 O256 1.247 . S
C258 O257 1.208 . S
C259 O264 1.247 . S
C259 O265 1.208 . S
C260 O252 1.315 . S
C260 O255 1.279 . S
C261 O262 1.315 . S
C261 O263 1.279 . S
O262 Cd254 2.223 . S
O262 C261 1.315 . S
O263 Cd253 2.240 . S
O263 C261 1.279 . S
O264 Cd254 2.297 . S
O264 C259 1.247 . S
O265 Cd254 2.439 . S
O265 C259 1.208 . S
O266 Cd267 2.223 . S
O266 C274 1.315 . S
Cd267 O266 2.223 . S
Cd267 O270 2.297 . S
Cd267 O271 2.439 . S
Cd267 O277 2.240 . S
Cd268 O269 2.240 . S
Cd268 O276 2.223 . S
Cd268 O278 2.297 . S
Cd268 O279 2.439 . S
O269 Cd268 2.240 . S
O269 C274 1.279 . S
O270 Cd267 2.297 . S
O270 C272 1.247 . S
O271 Cd267 2.439 . S
O271 C272 1.208 . S
C272 O270 1.247 . S
C272 O271 1.208 . S
C273 O278 1.247 . S
C273 O279 1.208 . S
C274 O266 1.315 . S
C274 O269 1.279 . S
C275 O276 1.315 . S
C275 O277 1.279 . S
O276 Cd268 2.223 . S
O276 C275 1.315 . S
O277 Cd267 2.240 . S
O277 C275 1.279 . S
O278 Cd268 2.297 . S
O278 C273 1.247 . S
O279 Cd268 2.439 . S
O279 C273 1.208 . S
O280 Cd281 2.223 . S
O280 C288 1.315 . S
Cd281 O280 2.223 . S
Cd281 O284 2.297 . S
Cd281 O285 2.439 . S
Cd281 O291 2.240 . S
Cd282 O283 2.240 . S
Cd282 O290 2.223 . S
Cd282 O292 2.295 . S
Cd282 O293 2.439 . S
O283 Cd282 2.240 . S
O283 C288 1.279 . S
O284 Cd281 2.297 . S
O284 C286 1.247 . S
O285 Cd281 2.439 . S
O285 C286 1.208 . S
C286 O284 1.247 . S
C286 O285 1.208 . S
C287 O292 1.248 1_556 S
C287 O293 1.208 1_556 S
C288 O280 1.315 . S
C288 O283 1.279 . S
C289 O290 1.315 . S
C289 O291 1.279 . S
O290 Cd282 2.223 . S
O290 C289 1.315 . S
O291 Cd281 2.240 . S
O291 C289 1.279 . S
O292 Cd282 2.295 . S
O292 C287 1.248 1_554 S
O293 Cd282 2.439 . S
O293 C287 1.208 1_554 S
O294 Cd295 2.223 . S
O294 C302 1.315 . S
Cd295 O294 2.223 . S
Cd295 O298 2.297 . S
Cd295 O299 2.439 . S
Cd295 O305 2.240 . S
Cd296 O297 2.240 . S
Cd296 O304 2.223 . S
Cd296 O306 2.297 . S
Cd296 O307 2.439 . S
O297 Cd296 2.240 . S
O297 C302 1.279 . S
O298 Cd295 2.297 . S
O298 C300 1.247 . S
O299 Cd295 2.439 . S
O299 C300 1.208 . S
C300 O298 1.247 . S
C300 O299 1.208 . S
C301 O306 1.247 . S
C301 O307 1.208 . S
C302 O294 1.315 . S
C302 O297 1.279 . S
C303 O304 1.315 . S
C303 O305 1.279 . S
O304 Cd296 2.223 . S
O304 C303 1.315 . S
O305 Cd295 2.240 . S
O305 C303 1.279 . S
O306 Cd296 2.297 . S
O306 C301 1.247 . S
O307 Cd296 2.439 . S
O307 C301 1.208 . S
O308 Cd309 2.223 . S
O308 C316 1.315 . S
Cd309 O308 2.223 . S
Cd309 O312 2.297 . S
Cd309 O313 2.439 . S
Cd309 O319 2.240 . S
Cd310 O311 2.240 . S
Cd310 O318 2.223 . S
Cd310 O320 2.297 . S
Cd310 O321 2.439 . S
O311 Cd310 2.240 . S
O311 C316 1.279 . S
O312 Cd309 2.297 . S
O312 C314 1.247 . S
O313 Cd309 2.439 . S
O313 C314 1.208 . S
C314 O312 1.247 . S
C314 O313 1.208 . S
C315 O320 1.247 . S
C315 O321 1.208 . S
C316 O308 1.315 . S
C316 O311 1.279 . S
C317 O318 1.315 . S
C317 O319 1.279 . S
O318 Cd310 2.223 . S
O318 C317 1.315 . S
O319 Cd309 2.240 . S
O319 C317 1.279 . S
O320 Cd310 2.297 . S
O320 C315 1.247 . S
O321 Cd310 2.439 . S
O321 C315 1.208 . S
O322 Cd323 2.223 . S
O322 C330 1.315 . S
Cd323 O322 2.223 . S
Cd323 O326 2.297 . S
Cd323 O327 2.439 . S
Cd323 O333 2.240 . S
Cd324 O325 2.240 . S
Cd324 O332 2.223 . S
Cd324 O334 2.297 . S
Cd324 O335 2.439 . S
O325 Cd324 2.240 . S
O325 C330 1.279 . S
O326 Cd323 2.297 . S
O326 C328 1.247 . S
O327 Cd323 2.439 . S
O327 C328 1.208 . S
C328 O326 1.247 . S
C328 O327 1.208 . S
C329 O334 1.247 . S
C329 O335 1.208 . S
C330 O322 1.315 . S
C330 O325 1.279 . S
C331 O332 1.315 . S
C331 O333 1.279 . S
O332 Cd324 2.223 . S
O332 C331 1.315 . S
O333 Cd323 2.240 . S
O333 C331 1.279 . S
O334 Cd324 2.297 . S
O334 C329 1.247 . S
O335 Cd324 2.439 . S
O335 C329 1.208 . S
Dy336 O339 2.307 . S
Dy336 O341 2.395 . S
Dy336 O342 2.379 . S
Dy336 O344 2.339 . S
Dy336 O346 2.298 . S
Dy336 O350 2.275 . S
Dy336 C358 2.738 . S
Dy337 O340 2.295 1_655 S
Dy337 O343 2.259 1_655 S
Dy337 O345 2.278 1_655 S
Dy337 O347 2.432 . S
Dy337 O348 2.414 . S
Dy337 O351 2.319 1_655 S
Dy337 C367 2.779 . S
C338 O350 1.254 . S
C338 O351 1.257 . S
O339 Dy336 2.307 . S
O339 C349 1.266 . S
O340 Dy337 2.295 1_455 S
O340 C349 1.236 . S
O341 Dy336 2.395 . S
O341 C358 1.255 . S
O342 Dy336 2.379 . S
O342 C358 1.249 . S
O343 Dy337 2.259 1_455 S
O343 C359 1.254 . S
O344 Dy336 2.339 . S
O344 C359 1.257 . S
O345 Dy337 2.278 1_455 S
O345 C360 1.266 . S
O346 Dy336 2.298 . S
O346 C360 1.236 . S
O347 Dy337 2.432 . S
O347 C367 1.255 . S
O348 Dy337 2.414 . S
O348 C367 1.249 . S
C349 O339 1.266 . S
C349 O340 1.236 . S
O350 Dy336 2.275 . S
O350 C338 1.254 . S
O351 Dy337 2.319 1_455 S
O351 C338 1.257 . S
C352 C355 1.344 . S
C352 C356 1.328 . S
C352 C358 1.516 . S
C353 C354 1.304 . S
C353 C357 1.323 . S
C354 C353 1.304 . S
C354 C355 1.371 . S
C354 H368 0.930 . S
C355 C352 1.344 . S
C355 C354 1.371 . S
C355 H369 0.931 . S
C356 C352 1.328 . S
C356 C357 1.433 . S
C356 H370 0.931 . S
C357 C353 1.323 . S
C357 C356 1.433 . S
C357 H371 0.933 . S
C358 Dy336 2.738 . S
C358 O341 1.255 . S
C358 O342 1.249 . S
C358 C352 1.516 . S
C359 O343 1.254 . S
C359 O344 1.257 . S
C360 O345 1.266 . S
C360 O346 1.236 . S
C361 C364 1.344 . S
C361 C365 1.328 . S
C361 C367 1.516 . S
C362 C363 1.304 . S
C362 C366 1.323 . S
C363 C362 1.304 . S
C363 C364 1.371 . S
C363 H372 0.930 . S
C364 C361 1.344 . S
C364 C363 1.371 . S
C364 H373 0.931 . S
C365 C361 1.328 . S
C365 C366 1.433 . S
C365 H374 0.931 1_554 S
C366 C362 1.323 . S
C366 C365 1.433 . S
C366 H375 0.933 1_554 S
C367 Dy337 2.779 . S
C367 O347 1.255 . S
C367 O348 1.249 . S
C367 C361 1.516 . S
H368 C354 0.930 . S
H369 C355 0.931 . S
H370 C356 0.931 . S
H371 C357 0.933 . S
H372 C363 0.930 . S
H373 C364 0.931 . S
H374 C365 0.931 1_556 S
H375 C366 0.933 1_556 S
Dy376 O379 2.307 . S
Dy376 O381 2.395 . S
Dy376 O382 2.379 . S
Dy376 O384 2.339 . S
Dy376 O386 2.298 . S
Dy376 O390 2.275 . S
Dy376 C398 2.738 . S
Dy377 O380 2.298 . S
Dy377 O383 2.275 . S
Dy377 O385 2.307 . S
Dy377 O387 2.395 . S
Dy377 O388 2.379 . S
Dy377 O391 2.339 . S
Dy377 C407 2.738 . S
C378 O390 1.254 . S
C378 O391 1.257 . S
O379 Dy376 2.307 . S
O379 C389 1.266 . S
O380 Dy377 2.298 . S
O380 C389 1.236 . S
O381 Dy376 2.395 . S
O381 C398 1.255 . S
O382 Dy376 2.379 . S
O382 C398 1.249 . S
O383 Dy377 2.275 . S
O383 C399 1.254 . S
O384 Dy376 2.339 . S
O384 C399 1.257 . S
O385 Dy377 2.307 . S
O385 C400 1.266 . S
O386 Dy376 2.298 . S
O386 C400 1.236 . S
O387 Dy377 2.395 . S
O387 C407 1.255 . S
O388 Dy377 2.379 . S
O388 C407 1.249 . S
C389 O379 1.266 . S
C389 O380 1.236 . S
O390 Dy376 2.275 . S
O390 C378 1.254 . S
O391 Dy377 2.339 . S
O391 C378 1.257 . S
C392 C395 1.344 . S
C392 C396 1.328 . S
C392 C398 1.516 . S
C393 C394 1.304 . S
C393 C397 1.323 . S
C394 C393 1.304 . S
C394 C395 1.371 . S
C394 H408 0.930 . S
C395 C392 1.344 . S
C395 C394 1.371 . S
C395 H409 0.931 . S
C396 C392 1.328 . S
C396 C397 1.433 . S
C396 H410 0.931 . S
C397 C393 1.323 . S
C397 C396 1.433 . S
C397 H411 0.933 . S
C398 Dy376 2.738 . S
C398 O381 1.255 . S
C398 O382 1.249 . S
C398 C392 1.516 . S
C399 O383 1.254 . S
C399 O384 1.257 . S
C400 O385 1.266 . S
C400 O386 1.236 . S
C401 C404 1.344 . S
C401 C405 1.328 . S
C401 C407 1.516 . S
C402 C403 1.304 . S
C402 C406 1.323 . S
C403 C402 1.304 . S
C403 C404 1.371 . S
C403 H412 0.930 . S
C404 C401 1.344 . S
C404 C403 1.371 . S
C404 H413 0.931 . S
C405 C401 1.328 . S
C405 C406 1.433 . S
C405 H414 0.931 . S
C406 C402 1.323 . S
C406 C405 1.433 . S
C406 H415 0.933 . S
C407 Dy377 2.738 . S
C407 O387 1.255 . S
C407 O388 1.249 . S
C407 C401 1.516 . S
H408 C394 0.930 . S
H409 C395 0.931 . S
H410 C396 0.931 . S
H411 C397 0.933 . S
H412 C403 0.930 . S
H413 C404 0.931 . S
H414 C405 0.931 . S
H415 C406 0.933 . S
Dy416 O419 2.307 . S
Dy416 O421 2.395 . S
Dy416 O422 2.379 . S
Dy416 O424 2.339 . S
Dy416 O426 2.298 . S
Dy416 O430 2.275 . S
Dy416 C438 2.738 . S
Dy417 O420 2.298 . S
Dy417 O423 2.275 . S
Dy417 O425 2.307 . S
Dy417 O427 2.395 . S
Dy417 O428 2.379 . S
Dy417 O431 2.339 . S
Dy417 C447 2.738 . S
C418 O430 1.254 . S
C418 O431 1.257 . S
O419 Dy416 2.307 . S
O419 C429 1.266 1_545 S
O420 Dy417 2.298 . S
O420 C429 1.236 1_545 S
O421 Dy416 2.395 . S
O421 C438 1.255 . S
O422 Dy416 2.379 . S
O422 C438 1.249 . S
O423 Dy417 2.275 . S
O423 C439 1.254 . S
O424 Dy416 2.339 . S
O424 C439 1.257 . S
O425 Dy417 2.307 . S
O425 C440 1.266 . S
O426 Dy416 2.298 . S
O426 C440 1.236 . S
O427 Dy417 2.395 . S
O427 C447 1.255 . S
O428 Dy417 2.379 . S
O428 C447 1.249 . S
C429 O419 1.266 1_565 S
C429 O420 1.236 1_565 S
O430 Dy416 2.275 . S
O430 C418 1.254 . S
O431 Dy417 2.339 . S
O431 C418 1.257 . S
C432 C435 1.344 . S
C432 C436 1.328 . S
C432 C438 1.516 . S
C433 C434 1.304 . S
C433 C437 1.323 . S
C434 C433 1.304 . S
C434 C435 1.371 . S
C434 H448 0.930 . S
C435 C432 1.344 . S
C435 C434 1.371 . S
C435 H449 0.931 . S
C436 C432 1.328 . S
C436 C437 1.433 . S
C436 H450 0.931 . S
C437 C433 1.323 . S
C437 C436 1.433 . S
C437 H451 0.933 . S
C438 Dy416 2.738 . S
C438 O421 1.255 . S
C438 O422 1.249 . S
C438 C432 1.516 . S
C439 O423 1.254 . S
C439 O424 1.257 . S
C440 O425 1.266 . S
C440 O426 1.236 . S
C441 C444 1.344 . S
C441 C445 1.328 . S
C441 C447 1.516 . S
C442 C443 1.304 . S
C442 C446 1.323 . S
C443 C442 1.304 . S
C443 C444 1.371 1_565 S
C443 H452 0.930 . S
C444 C441 1.344 . S
C444 C443 1.371 1_545 S
C444 H453 0.931 . S
C445 C441 1.328 . S
C445 C446 1.433 1_545 S
C445 H454 0.931 . S
C446 C442 1.323 . S
C446 C445 1.433 1_565 S
C446 H455 0.933 . S
C447 Dy417 2.738 . S
C447 O427 1.255 . S
C447 O428 1.249 . S
C447 C441 1.516 . S
H448 C434 0.930 . S
H449 C435 0.931 . S
H450 C436 0.931 . S
H451 C437 0.933 . S
H452 C443 0.930 . S
H453 C444 0.931 . S
H454 C445 0.931 . S
H455 C446 0.933 . S
Dy456 O459 2.307 . S
Dy456 O461 2.395 . S
Dy456 O462 2.379 . S
Dy456 O464 2.339 . S
Dy456 O466 2.298 . S
Dy456 O470 2.275 . S
Dy456 C478 2.738 . S
Dy457 O460 2.298 . S
Dy457 O463 2.275 . S
Dy457 O465 2.307 . S
Dy457 O467 2.395 . S
Dy457 O468 2.379 . S
Dy457 O471 2.339 . S
Dy457 C487 2.738 . S
C458 O470 1.254 . S
C458 O471 1.257 . S
O459 Dy456 2.307 . S
O459 C469 1.266 . S
O460 Dy457 2.298 . S
O460 C469 1.236 . S
O461 Dy456 2.395 . S
O461 C478 1.255 . S
O462 Dy456 2.379 . S
O462 C478 1.249 . S
O463 Dy457 2.275 . S
O463 C479 1.254 . S
O464 Dy456 2.339 . S
O464 C479 1.257 . S
O465 Dy457 2.307 . S
O465 C480 1.266 . S
O466 Dy456 2.298 . S
O466 C480 1.236 . S
O467 Dy457 2.395 . S
O467 C487 1.255 . S
O468 Dy457 2.379 . S
O468 C487 1.249 . S
C469 O459 1.266 . S
C469 O460 1.236 . S
O470 Dy456 2.275 . S
O470 C458 1.254 . S
O471 Dy457 2.339 . S
O471 C458 1.257 . S
C472 C475 1.344 . S
C472 C476 1.328 . S
C472 C478 1.516 . S
C473 C474 1.304 . S
C473 C477 1.323 . S
C474 C473 1.304 . S
C474 C475 1.371 . S
C474 H488 0.930 . S
C475 C472 1.344 . S
C475 C474 1.371 . S
C475 H489 0.931 . S
C476 C472 1.328 . S
C476 C477 1.433 . S
C476 H490 0.931 . S
C477 C473 1.323 . S
C477 C476 1.433 . S
C477 H491 0.933 . S
C478 Dy456 2.738 . S
C478 O461 1.255 . S
C478 O462 1.249 . S
C478 C472 1.516 . S
C479 O463 1.254 . S
C479 O464 1.257 . S
C480 O465 1.266 . S
C480 O466 1.236 . S
C481 C484 1.344 . S
C481 C485 1.328 . S
C481 C487 1.516 . S
C482 C483 1.304 . S
C482 C486 1.323 . S
C483 C482 1.304 . S
C483 C484 1.371 . S
C483 H492 0.930 . S
C484 C481 1.344 . S
C484 C483 1.371 . S
C484 H493 0.931 . S
C485 C481 1.328 . S
C485 C486 1.433 . S
C485 H494 0.931 . S
C486 C482 1.323 . S
C486 C485 1.433 . S
C486 H495 0.933 . S
C487 Dy457 2.738 . S
C487 O467 1.255 . S
C487 O468 1.249 . S
C487 C481 1.516 . S
H488 C474 0.930 . S
H489 C475 0.931 . S
H490 C476 0.931 . S
H491 C477 0.933 . S
H492 C483 0.930 . S
H493 C484 0.931 . S
H494 C485 0.931 . S
H495 C486 0.933 . S
Dy496 O499 2.307 . S
Dy496 O501 2.395 1_545 S
Dy496 O502 2.379 1_545 S
Dy496 O504 2.339 . S
Dy496 O506 2.298 . S
Dy496 O510 2.275 . S
Dy496 C518 2.738 1_545 S
Dy497 O500 2.298 . S
Dy497 O503 2.275 . S
Dy497 O505 2.307 . S
Dy497 O507 2.395 . S
Dy497 O508 2.379 . S
Dy497 O511 2.339 1_455 S
Dy497 C527 2.738 . S
C498 O510 1.254 1_655 S
C498 O511 1.257 . S
O499 Dy496 2.307 . S
O499 C509 1.266 . S
O500 Dy497 2.298 . S
O500 C509 1.236 . S
O501 Dy496 2.395 1_565 S
O501 C518 1.255 . S
O502 Dy496 2.379 1_565 S
O502 C518 1.249 . S
O503 Dy497 2.275 . S
O503 C519 1.254 . S
O504 Dy496 2.339 . S
O504 C519 1.257 . S
O505 Dy497 2.307 . S
O505 C520 1.266 . S
O506 Dy496 2.298 . S
O506 C520 1.236 . S
O507 Dy497 2.395 . S
O507 C527 1.255 . S
O508 Dy497 2.379 . S
O508 C527 1.249 . S
C509 O499 1.266 . S
C509 O500 1.236 . S
O510 Dy496 2.275 . S
O510 C498 1.254 1_455 S
O511 Dy497 2.339 1_655 S
O511 C498 1.257 . S
C512 C515 1.344 . S
C512 C516 1.328 . S
C512 C518 1.516 . S
C513 C514 1.304 . S
C513 C517 1.323 . S
C514 C513 1.304 . S
C514 C515 1.371 . S
C514 H528 0.930 . S
C515 C512 1.344 . S
C515 C514 1.371 . S
C515 H529 0.931 . S
C516 C512 1.328 . S
C516 C517 1.433 . S
C516 H530 0.931 . S
C517 C513 1.323 . S
C517 C516 1.433 . S
C517 H531 0.933 . S
C518 Dy496 2.738 1_565 S
C518 O501 1.255 . S
C518 O502 1.249 . S
C518 C512 1.516 . S
C519 O503 1.254 . S
C519 O504 1.257 . S
C520 O505 1.266 . S
C520 O506 1.236 . S
C521 C524 1.344 . S
C521 C525 1.328 . S
C521 C527 1.516 . S
C522 C523 1.304 . S
C522 C526 1.342 . S
C523 C522 1.304 . S
C523 C524 1.371 . S
C523 H532 0.930 . S
C524 C521 1.344 . S
C524 C523 1.371 . S
C524 H533 0.931 . S
C525 C521 1.328 . S
C525 C526 1.441 . S
C525 H534 0.931 1_455 S
C526 C522 1.342 . S
C526 C525 1.441 . S
C526 H535 0.906 1_455 S
C527 Dy497 2.738 . S
C527 O507 1.255 . S
C527 O508 1.249 . S
C527 C521 1.516 . S
H528 C514 0.930 . S
H529 C515 0.931 . S
H530 C516 0.931 . S
H531 C517 0.933 . S
H532 C523 0.930 . S
H533 C524 0.931 . S
H534 C525 0.931 1_655 S
H535 C526 0.906 1_655 S
Dy536 O539 2.307 . S
Dy536 O541 2.395 . S
Dy536 O542 2.379 . S
Dy536 O544 2.339 . S
Dy536 O546 2.298 . S
Dy536 O550 2.275 . S
Dy536 C558 2.738 . S
Dy537 O540 2.298 . S
Dy537 O543 2.275 . S
Dy537 O545 2.307 . S
Dy537 O547 2.395 . S
Dy537 O548 2.379 . S
Dy537 O551 2.339 . S
Dy537 C567 2.738 . S
C538 O550 1.254 . S
C538 O551 1.257 . S
O539 Dy536 2.307 . S
O539 C549 1.266 . S
O540 Dy537 2.298 . S
O540 C549 1.236 . S
O541 Dy536 2.395 . S
O541 C558 1.255 . S
O542 Dy536 2.379 . S
O542 C558 1.249 . S
O543 Dy537 2.275 . S
O543 C559 1.254 . S
O544 Dy536 2.339 . S
O544 C559 1.257 . S
O545 Dy537 2.307 . S
O545 C560 1.266 . S
O546 Dy536 2.298 . S
O546 C560 1.236 . S
O547 Dy537 2.395 . S
O547 C567 1.255 . S
O548 Dy537 2.379 . S
O548 C567 1.249 . S
C549 O539 1.266 . S
C549 O540 1.236 . S
O550 Dy536 2.275 . S
O550 C538 1.254 . S
O551 Dy537 2.339 . S
O551 C538 1.257 . S
C552 C555 1.344 . S
C552 C556 1.328 . S
C552 C558 1.516 . S
C553 C554 1.304 . S
C553 C557 1.323 . S
C554 C553 1.304 . S
C554 C555 1.371 . S
C554 H568 0.930 . S
C555 C552 1.344 . S
C555 C554 1.371 . S
C555 H569 0.931 . S
C556 C552 1.328 . S
C556 C557 1.433 . S
C556 H570 0.931 . S
C557 C553 1.323 . S
C557 C556 1.433 . S
C557 H571 0.933 . S
C558 Dy536 2.738 . S
C558 O541 1.255 . S
C558 O542 1.249 . S
C558 C552 1.516 . S
C559 O543 1.254 . S
C559 O544 1.257 . S
C560 O545 1.266 . S
C560 O546 1.236 . S
C561 C564 1.344 . S
C561 C565 1.328 . S
C561 C567 1.516 . S
C562 C563 1.304 . S
C562 C566 1.323 . S
C563 C562 1.304 . S
C563 C564 1.371 . S
C563 H572 0.930 . S
C564 C561 1.344 . S
C564 C563 1.371 . S
C564 H573 0.931 . S
C565 C561 1.328 . S
C565 C566 1.433 . S
C565 H574 0.931 . S
C566 C562 1.323 . S
C566 C565 1.433 . S
C566 H575 0.933 . S
C567 Dy537 2.738 . S
C567 O547 1.255 . S
C567 O548 1.249 . S
C567 C561 1.516 . S
H568 C554 0.930 . S
H569 C555 0.931 . S
H570 C556 0.931 . S
H571 C557 0.933 . S
H572 C563 0.930 . S
H573 C564 0.931 . S
H574 C565 0.931 . S
H575 C566 0.933 . S
Dy576 O579 2.307 . S
Dy576 O581 2.395 1_554 S
Dy576 O582 2.379 1_554 S
Dy576 O584 2.339 . S
Dy576 O586 2.298 . S
Dy576 O590 2.275 . S
Dy576 C598 2.738 1_554 S
Dy577 O580 2.298 . S
Dy577 O583 2.275 . S
Dy577 O585 2.307 . S
Dy577 O587 2.395 . S
Dy577 O588 2.381 1_545 S
Dy577 O591 2.339 1_545 S
Dy577 C607 2.738 . S
C578 O590 1.254 . S
C578 O591 1.257 1_545 S
O579 Dy576 2.307 . S
O579 C589 1.266 . S
O580 Dy577 2.298 . S
O580 C589 1.236 . S
O581 Dy576 2.395 1_556 S
O581 C598 1.255 . S
O582 Dy576 2.379 1_556 S
O582 C598 1.249 . S
O583 Dy577 2.275 . S
O583 C599 1.254 . S
O584 Dy576 2.339 . S
O584 C599 1.257 . S
O585 Dy577 2.307 . S
O585 C600 1.266 . S
O586 Dy576 2.298 . S
O586 C600 1.236 . S
O587 Dy577 2.395 . S
O587 C607 1.255 . S
O588 Dy577 2.381 1_565 S
O588 C607 1.252 1_565 S
C589 O579 1.266 . S
C589 O580 1.236 . S
O590 Dy576 2.275 . S
O590 C578 1.254 . S
O591 Dy577 2.339 1_565 S
O591 C578 1.257 1_565 S
C592 C595 1.344 . S
C592 C596 1.328 . S
C592 C598 1.516 . S
C593 C594 1.304 . S
C593 C597 1.323 . S
C594 C593 1.304 . S
C594 C595 1.371 . S
C594 H608 0.930 . S
C595 C592 1.344 . S
C595 C594 1.371 . S
C595 H609 0.931 . S
C596 C592 1.328 . S
C596 C597 1.433 . S
C596 H610 0.931 . S
C597 C593 1.323 . S
C597 C596 1.433 . S
C597 H611 0.933 . S
C598 Dy576 2.738 1_556 S
C598 O581 1.255 . S
C598 O582 1.249 . S
C598 C592 1.516 . S
C599 O583 1.254 . S
C599 O584 1.257 . S
C600 O585 1.266 . S
C600 O586 1.236 . S
C601 C604 1.344 . S
C601 C605 1.328 1_545 S
C601 C607 1.516 . S
C602 C603 1.304 1_565 S
C602 C606 1.323 . S
C603 C602 1.304 1_545 S
C603 C604 1.371 . S
C603 H612 0.930 . S
C604 C601 1.344 . S
C604 C603 1.371 . S
C604 H613 0.931 . S
C605 C601 1.328 1_565 S
C605 C606 1.433 . S
C605 H614 0.931 . S
C606 C602 1.323 . S
C606 C605 1.433 . S
C606 H615 0.933 . S
C607 Dy577 2.738 . S
C607 O587 1.255 . S
C607 O588 1.252 1_545 S
C607 C601 1.516 . S
H608 C594 0.930 . S
H609 C595 0.931 . S
H610 C596 0.931 . S
H611 C597 0.933 . S
H612 C603 0.930 . S
H613 C604 0.931 . S
H614 C605 0.931 . S
H615 C606 0.933 . S
Dy616 O619 2.307 . S
Dy616 O621 2.395 . S
Dy616 O622 2.379 . S
Dy616 O624 2.339 . S
Dy616 O626 2.298 . S
Dy616 O630 2.275 . S
Dy616 C638 2.738 . S
Dy617 O620 2.298 . S
Dy617 O623 2.275 . S
Dy617 O625 2.307 . S
Dy617 O627 2.395 . S
Dy617 O628 2.379 . S
Dy617 O631 2.339 . S
Dy617 C647 2.738 . S
C618 O630 1.254 . S
C618 O631 1.257 . S
O619 Dy616 2.307 . S
O619 C629 1.266 . S
O620 Dy617 2.298 . S
O620 C629 1.236 . S
O621 Dy616 2.395 . S
O621 C638 1.255 . S
O622 Dy616 2.379 . S
O622 C638 1.249 . S
O623 Dy617 2.275 . S
O623 C639 1.254 . S
O624 Dy616 2.339 . S
O624 C639 1.257 . S
O625 Dy617 2.307 . S
O625 C640 1.266 . S
O626 Dy616 2.298 . S
O626 C640 1.236 . S
O627 Dy617 2.395 . S
O627 C647 1.255 . S
O628 Dy617 2.379 . S
O628 C647 1.249 . S
C629 O619 1.266 . S
C629 O620 1.236 . S
O630 Dy616 2.275 . S
O630 C618 1.254 . S
O631 Dy617 2.339 . S
O631 C618 1.257 . S
C632 C635 1.344 . S
C632 C636 1.328 . S
C632 C638 1.516 . S
C633 C634 1.304 . S
C633 C637 1.323 . S
C634 C633 1.304 . S
C634 C635 1.371 . S
C634 H648 0.930 . S
C635 C632 1.344 . S
C635 C634 1.371 . S
C635 H649 0.931 . S
C636 C632 1.328 . S
C636 C637 1.433 . S
C636 H650 0.931 . S
C637 C633 1.323 . S
C637 C636 1.433 . S
C637 H651 0.933 . S
C638 Dy616 2.738 . S
C638 O621 1.255 . S
C638 O622 1.249 . S
C638 C632 1.516 . S
C639 O623 1.254 . S
C639 O624 1.257 . S
C640 O625 1.266 . S
C640 O626 1.236 . S
C641 C644 1.344 . S
C641 C645 1.328 . S
C641 C647 1.516 . S
C642 C643 1.304 . S
C642 C646 1.323 . S
C643 C642 1.304 . S
C643 C644 1.371 . S
C643 H652 0.930 . S
C644 C641 1.344 . S
C644 C643 1.371 . S
C644 H653 0.931 . S
C645 C641 1.328 . S
C645 C646 1.433 . S
C645 H654 0.931 . S
C646 C642 1.323 . S
C646 C645 1.433 . S
C646 H655 0.933 . S
C647 Dy617 2.738 . S
C647 O627 1.255 . S
C647 O628 1.249 . S
C647 C641 1.516 . S
H648 C634 0.930 . S
H649 C635 0.931 . S
H650 C636 0.931 . S
H651 C637 0.933 . S
H652 C643 0.930 . S
H653 C644 0.931 . S
H654 C645 0.931 . S
H655 C646 0.933 . S
Dy656 O659 2.307 . S
Dy656 O661 2.395 . S
Dy656 O662 2.379 . S
Dy656 O664 2.339 . S
Dy656 O666 2.298 . S
Dy656 O670 2.275 . S
Dy656 C678 2.738 . S
Dy657 O660 2.298 . S
Dy657 O663 2.275 . S
Dy657 O665 2.307 . S
Dy657 O667 2.395 . S
Dy657 O668 2.379 . S
Dy657 O671 2.339 . S
Dy657 C687 2.738 . S
C658 O670 1.254 . S
C658 O671 1.257 . S
O659 Dy656 2.307 . S
O659 C669 1.266 . S
O660 Dy657 2.298 . S
O660 C669 1.236 . S
O661 Dy656 2.395 . S
O661 C678 1.255 . S
O662 Dy656 2.379 . S
O662 C678 1.249 . S
O663 Dy657 2.275 . S
O663 C679 1.254 . S
O664 Dy656 2.339 . S
O664 C679 1.257 . S
O665 Dy657 2.307 . S
O665 C680 1.266 . S
O666 Dy656 2.298 . S
O666 C680 1.236 . S
O667 Dy657 2.395 . S
O667 C687 1.255 . S
O668 Dy657 2.379 . S
O668 C687 1.249 . S
C669 O659 1.266 . S
C669 O660 1.236 . S
O670 Dy656 2.275 . S
O670 C658 1.254 . S
O671 Dy657 2.339 . S
O671 C658 1.257 . S
C672 C675 1.344 . S
C672 C676 1.328 . S
C672 C678 1.516 . S
C673 C674 1.304 . S
C673 C677 1.323 . S
C674 C673 1.304 . S
C674 C675 1.371 . S
C674 H688 0.930 . S
C675 C672 1.344 . S
C675 C674 1.371 . S
C675 H689 0.931 . S
C676 C672 1.328 . S
C676 C677 1.433 . S
C676 H690 0.931 . S
C677 C673 1.323 . S
C677 C676 1.433 . S
C677 H691 0.933 . S
C678 Dy656 2.738 . S
C678 O661 1.255 . S
C678 O662 1.249 . S
C678 C672 1.516 . S
C679 O663 1.254 . S
C679 O664 1.257 . S
C680 O665 1.266 . S
C680 O666 1.236 . S
C681 C684 1.344 . S
C681 C685 1.328 . S
C681 C687 1.516 . S
C682 C683 1.304 . S
C682 C686 1.323 1_556 S
C683 C682 1.304 . S
C683 C684 1.371 1_556 S
C683 H692 0.930 . S
C684 C681 1.344 . S
C684 C683 1.371 1_554 S
C684 H693 0.936 . S
C685 C681 1.328 . S
C685 C686 1.433 . S
C685 H694 0.931 . S
C686 C682 1.323 1_554 S
C686 C685 1.433 . S
C686 H695 0.933 . S
C687 Dy657 2.738 . S
C687 O667 1.255 . S
C687 O668 1.249 . S
C687 C681 1.516 . S
H688 C674 0.930 . S
H689 C675 0.931 . S
H690 C676 0.931 . S
H691 C677 0.933 . S
H692 C683 0.930 . S
H693 C684 0.936 . S
H694 C685 0.931 . S
H695 C686 0.933 . S
Dy696 O699 2.307 . S
Dy696 O701 2.395 . S
Dy696 O702 2.379 . S
Dy696 O704 2.339 . S
Dy696 O706 2.298 . S
Dy696 O710 2.275 . S
Dy696 C718 2.738 . S
Dy697 O700 2.298 . S
Dy697 O703 2.275 . S
Dy697 O705 2.307 . S
Dy697 O707 2.395 . S
Dy697 O708 2.379 . S
Dy697 O711 2.339 . S
Dy697 C727 2.738 . S
C698 O710 1.254 . S
C698 O711 1.257 . S
O699 Dy696 2.307 . S
O699 C709 1.266 . S
O700 Dy697 2.298 . S
O700 C709 1.236 . S
O701 Dy696 2.395 . S
O701 C718 1.255 . S
O702 Dy696 2.379 . S
O702 C718 1.249 . S
O703 Dy697 2.275 . S
O703 C719 1.254 . S
O704 Dy696 2.339 . S
O704 C719 1.257 . S
O705 Dy697 2.307 . S
O705 C720 1.266 . S
O706 Dy696 2.298 . S
O706 C720 1.236 . S
O707 Dy697 2.395 . S
O707 C727 1.255 . S
O708 Dy697 2.379 . S
O708 C727 1.249 . S
C709 O699 1.266 . S
C709 O700 1.236 . S
O710 Dy696 2.275 . S
O710 C698 1.254 . S
O711 Dy697 2.339 . S
O711 C698 1.257 . S
C712 C715 1.344 . S
C712 C716 1.328 . S
C712 C718 1.516 . S
C713 C714 1.304 . S
C713 C717 1.323 . S
C714 C713 1.304 . S
C714 C715 1.371 . S
C714 H728 0.930 . S
C715 C712 1.344 . S
C715 C714 1.371 . S
C715 H729 0.931 . S
C716 C712 1.328 . S
C716 C717 1.433 . S
C716 H730 0.931 . S
C717 C713 1.323 . S
C717 C716 1.433 . S
C717 H731 0.933 . S
C718 Dy696 2.738 . S
C718 O701 1.255 . S
C718 O702 1.249 . S
C718 C712 1.516 . S
C719 O703 1.254 . S
C719 O704 1.257 . S
C720 O705 1.266 . S
C720 O706 1.236 . S
C721 C724 1.344 . S
C721 C725 1.328 . S
C721 C727 1.516 . S
C722 C723 1.304 . S
C722 C726 1.323 . S
C723 C722 1.304 . S
C723 C724 1.371 . S
C723 H732 0.930 . S
C724 C721 1.344 . S
C724 C723 1.371 . S
C724 H733 0.931 . S
C725 C721 1.328 . S
C725 C726 1.433 . S
C725 H734 0.931 . S
C726 C722 1.323 . S
C726 C725 1.433 . S
C726 H735 0.933 . S
C727 Dy697 2.738 . S
C727 O707 1.255 . S
C727 O708 1.249 . S
C727 C721 1.516 . S
H728 C714 0.930 . S
H729 C715 0.931 . S
H730 C716 0.931 . S
H731 C717 0.933 . S
H732 C723 0.930 . S
H733 C724 0.931 . S
H734 C725 0.931 . S
H735 C726 0.933 . S
Dy736 O739 2.307 1_455 S
Dy736 O741 2.395 . S
Dy736 O742 2.379 . S
Dy736 O744 2.339 . S
Dy736 O746 2.298 . S
Dy736 O750 2.275 . S
Dy736 C758 2.738 . S
Dy737 O740 2.298 1_455 S
Dy737 O743 2.275 . S
Dy737 O745 2.307 . S
Dy737 O747 2.395 . S
Dy737 O748 2.379 . S
Dy737 O751 2.339 . S
Dy737 C767 2.738 . S
C738 O750 1.254 . S
C738 O751 1.257 . S
O739 Dy736 2.307 1_655 S
O739 C749 1.266 . S
O740 Dy737 2.298 1_655 S
O740 C749 1.236 . S
O741 Dy736 2.395 . S
O741 C758 1.255 . S
O742 Dy736 2.379 . S
O742 C758 1.249 . S
O743 Dy737 2.275 . S
O743 C759 1.254 . S
O744 Dy736 2.339 . S
O744 C759 1.257 . S
O745 Dy737 2.307 . S
O745 C760 1.266 . S
O746 Dy736 2.298 . S
O746 C760 1.236 . S
O747 Dy737 2.395 . S
O747 C767 1.255 . S
O748 Dy737 2.379 . S
O748 C767 1.249 . S
C749 O739 1.266 . S
C749 O740 1.236 . S
O750 Dy736 2.275 . S
O750 C738 1.254 . S
O751 Dy737 2.339 . S
O751 C738 1.257 . S
C752 C755 1.344 . S
C752 C756 1.328 . S
C752 C758 1.516 . S
C753 C754 1.304 . S
C753 C757 1.323 . S
C754 C753 1.304 . S
C754 C755 1.371 . S
C754 H768 0.930 . S
C755 C752 1.344 . S
C755 C754 1.371 . S
C755 H769 0.931 . S
C756 C752 1.328 . S
C756 C757 1.433 . S
C756 H770 0.931 . S
C757 C753 1.323 . S
C757 C756 1.433 . S
C757 H771 0.933 . S
C758 Dy736 2.738 . S
C758 O741 1.255 . S
C758 O742 1.249 . S
C758 C752 1.516 . S
C759 O743 1.254 . S
C759 O744 1.257 . S
C760 O745 1.266 . S
C760 O746 1.236 . S
C761 C764 1.344 . S
C761 C765 1.328 . S
C761 C767 1.516 1_655 S
C762 C763 1.304 . S
C762 C766 1.323 . S
C763 C762 1.304 . S
C763 C764 1.371 . S
C763 H772 0.930 . S
C764 C761 1.344 . S
C764 C763 1.371 . S
C764 H773 0.931 . S
C765 C761 1.328 . S
C765 C766 1.433 . S
C765 H774 0.931 . S
C766 C762 1.323 . S
C766 C765 1.433 . S
C766 H775 0.933 . S
C767 Dy737 2.738 . S
C767 O747 1.255 . S
C767 O748 1.249 . S
C767 C761 1.516 1_455 S
H768 C754 0.930 . S
H769 C755 0.931 . S
H770 C756 0.931 . S
H771 C757 0.933 . S
H772 C763 0.930 . S
H773 C764 0.931 . S
H774 C765 0.931 . S
H775 C766 0.933 . S
Dy776 O779 2.307 . S
Dy776 O781 2.395 . S
Dy776 O782 2.379 . S
Dy776 O784 2.339 . S
Dy776 O786 2.298 . S
Dy776 O790 2.275 . S
Dy776 C798 2.738 . S
Dy777 O780 2.298 . S
Dy777 O783 2.275 . S
Dy777 O785 2.307 . S
Dy777 O787 2.395 . S
Dy777 O788 2.379 . S
Dy777 O791 2.339 . S
Dy777 C807 2.738 . S
C778 O790 1.254 . S
C778 O791 1.257 . S
O779 Dy776 2.307 . S
O779 C789 1.266 . S
O780 Dy777 2.298 . S
O780 C789 1.236 . S
O781 Dy776 2.395 . S
O781 C798 1.255 . S
O782 Dy776 2.379 . S
O782 C798 1.249 . S
O783 Dy777 2.275 . S
O783 C799 1.254 . S
O784 Dy776 2.339 . S
O784 C799 1.257 . S
O785 Dy777 2.307 . S
O785 C800 1.266 . S
O786 Dy776 2.298 . S
O786 C800 1.236 . S
O787 Dy777 2.395 . S
O787 C807 1.255 . S
O788 Dy777 2.379 . S
O788 C807 1.249 . S
C789 O779 1.266 . S
C789 O780 1.236 . S
O790 Dy776 2.275 . S
O790 C778 1.254 . S
O791 Dy777 2.339 . S
O791 C778 1.257 . S
C792 C795 1.344 . S
C792 C796 1.328 . S
C792 C798 1.516 . S
C793 C794 1.304 . S
C793 C797 1.323 . S
C794 C793 1.304 . S
C794 C795 1.371 . S
C794 H808 0.930 . S
C795 C792 1.344 . S
C795 C794 1.371 . S
C795 H809 0.931 . S
C796 C792 1.328 . S
C796 C797 1.433 . S
C796 H810 0.931 . S
C797 C793 1.323 . S
C797 C796 1.433 . S
C797 H811 0.933 . S
C798 Dy776 2.738 . S
C798 O781 1.255 . S
C798 O782 1.249 . S
C798 C792 1.516 . S
C799 O783 1.254 . S
C799 O784 1.257 . S
C800 O785 1.266 . S
C800 O786 1.236 . S
C801 C804 1.344 . S
C801 C805 1.328 . S
C801 C807 1.516 . S
C802 C803 1.304 . S
C802 C806 1.323 . S
C803 C802 1.304 . S
C803 C804 1.371 . S
C803 H812 0.930 . S
C804 C801 1.344 . S
C804 C803 1.371 . S
C804 H813 0.931 . S
C805 C801 1.328 . S
C805 C806 1.433 . S
C805 H814 0.931 . S
C806 C802 1.323 . S
C806 C805 1.433 . S
C806 H815 0.933 . S
C807 Dy777 2.738 . S
C807 O787 1.255 . S
C807 O788 1.249 . S
C807 C801 1.516 . S
H808 C794 0.930 . S
H809 C795 0.931 . S
H810 C796 0.931 . S
H811 C797 0.933 . S
H812 C803 0.930 . S
H813 C804 0.931 . S
H814 C805 0.931 . S
H815 C806 0.933 . S
Dy816 O819 2.307 . S
Dy816 O821 2.395 . S
Dy816 O822 2.379 . S
Dy816 O824 2.339 . S
Dy816 O826 2.298 . S
Dy816 O830 2.275 . S
Dy816 C838 2.738 . S
Dy817 O820 2.298 . S
Dy817 O823 2.275 . S
Dy817 O825 2.307 . S
Dy817 O827 2.395 . S
Dy817 O828 2.379 . S
Dy817 O831 2.339 . S
Dy817 C847 2.738 . S
C818 O830 1.254 . S
C818 O831 1.257 . S
O819 Dy816 2.307 . S
O819 C829 1.266 . S
O820 Dy817 2.298 . S
O820 C829 1.236 . S
O821 Dy816 2.395 . S
O821 C838 1.255 . S
O822 Dy816 2.379 . S
O822 C838 1.249 . S
O823 Dy817 2.275 . S
O823 C839 1.254 . S
O824 Dy816 2.339 . S
O824 C839 1.257 . S
O825 Dy817 2.307 . S
O825 C840 1.266 . S
O826 Dy816 2.298 . S
O826 C840 1.236 . S
O827 Dy817 2.395 . S
O827 C847 1.255 . S
O828 Dy817 2.379 . S
O828 C847 1.249 . S
C829 O819 1.266 . S
C829 O820 1.236 . S
O830 Dy816 2.275 . S
O830 C818 1.254 . S
O831 Dy817 2.339 . S
O831 C818 1.257 . S
C832 C835 1.344 . S
C832 C836 1.328 . S
C832 C838 1.516 . S
C833 C834 1.304 . S
C833 C837 1.323 . S
C834 C833 1.304 . S
C834 C835 1.371 . S
C834 H848 0.930 . S
C835 C832 1.344 . S
C835 C834 1.371 . S
C835 H849 0.931 . S
C836 C832 1.328 . S
C836 C837 1.433 . S
C836 H850 0.931 . S
C837 C833 1.323 . S
C837 C836 1.433 . S
C837 H851 0.933 . S
C838 Dy816 2.738 . S
C838 O821 1.255 . S
C838 O822 1.249 . S
C838 C832 1.516 . S
C839 O823 1.254 . S
C839 O824 1.257 . S
C840 O825 1.266 . S
C840 O826 1.236 . S
C841 C844 1.344 . S
C841 C845 1.328 . S
C841 C847 1.516 . S
C842 C843 1.304 . S
C842 C846 1.323 . S
C843 C842 1.304 . S
C843 C844 1.371 . S
C843 H852 0.930 . S
C844 C841 1.344 . S
C844 C843 1.371 . S
C844 H853 0.931 . S
C845 C841 1.328 . S
C845 C846 1.433 . S
C845 H854 0.931 . S
C846 C842 1.323 . S
C846 C845 1.433 . S
C846 H855 0.933 . S
C847 Dy817 2.738 . S
C847 O827 1.255 . S
C847 O828 1.249 . S
C847 C841 1.516 . S
H848 C834 0.930 . S
H849 C835 0.931 . S
H850 C836 0.931 . S
H851 C837 0.933 . S
H852 C843 0.930 . S
H853 C844 0.931 . S
H854 C845 0.931 . S
H855 C846 0.933 . S
Dy856 O859 2.307 . S
Dy856 O861 2.395 . S
Dy856 O862 2.379 . S
Dy856 O864 2.339 . S
Dy856 O866 2.298 . S
Dy856 O870 2.275 . S
Dy856 C878 2.738 . S
Dy857 O860 2.298 . S
Dy857 O863 2.275 . S
Dy857 O865 2.307 . S
Dy857 O867 2.395 . S
Dy857 O868 2.379 . S
Dy857 O871 2.339 . S
Dy857 C887 2.738 . S
C858 O870 1.254 . S
C858 O871 1.257 . S
O859 Dy856 2.307 . S
O859 C869 1.266 . S
O860 Dy857 2.298 . S
O860 C869 1.236 . S
O861 Dy856 2.395 . S
O861 C878 1.255 . S
O862 Dy856 2.379 . S
O862 C878 1.249 . S
O863 Dy857 2.275 . S
O863 C879 1.254 . S
O864 Dy856 2.339 . S
O864 C879 1.257 . S
O865 Dy857 2.307 . S
O865 C880 1.266 . S
O866 Dy856 2.298 . S
O866 C880 1.236 . S
O867 Dy857 2.395 . S
O867 C887 1.255 . S
O868 Dy857 2.379 . S
O868 C887 1.249 . S
C869 O859 1.266 . S
C869 O860 1.236 . S
O870 Dy856 2.275 . S
O870 C858 1.254 . S
O871 Dy857 2.339 . S
O871 C858 1.257 . S
C872 C875 1.344 . S
C872 C876 1.328 . S
C872 C878 1.516 . S
C873 C874 1.304 . S
C873 C877 1.323 . S
C874 C873 1.304 . S
C874 C875 1.371 . S
C874 H888 0.930 . S
C875 C872 1.344 . S
C875 C874 1.371 . S
C875 H889 0.931 . S
C876 C872 1.328 . S
C876 C877 1.433 . S
C876 H890 0.931 . S
C877 C873 1.323 . S
C877 C876 1.433 . S
C877 H891 0.933 . S
C878 Dy856 2.738 . S
C878 O861 1.255 . S
C878 O862 1.249 . S
C878 C872 1.516 . S
C879 O863 1.254 . S
C879 O864 1.257 . S
C880 O865 1.266 . S
C880 O866 1.236 . S
C881 C884 1.344 . S
C881 C885 1.328 . S
C881 C887 1.516 . S
C882 C883 1.304 . S
C882 C886 1.323 . S
C883 C882 1.304 . S
C883 C884 1.371 . S
C883 H892 0.930 . S
C884 C881 1.344 . S
C884 C883 1.371 . S
C884 H893 0.931 . S
C885 C881 1.328 . S
C885 C886 1.433 . S
C885 H894 0.931 . S
C886 C882 1.323 . S
C886 C885 1.433 . S
C886 H895 0.933 . S
C887 Dy857 2.738 . S
C887 O867 1.255 . S
C887 O868 1.249 . S
C887 C881 1.516 . S
H888 C874 0.930 . S
H889 C875 0.931 . S
H890 C876 0.931 . S
H891 C877 0.933 . S
H892 C883 0.930 . S
H893 C884 0.931 . S
H894 C885 0.931 . S
H895 C886 0.933 . S
Dy896 O899 2.307 . S
Dy896 O901 2.395 . S
Dy896 O902 2.379 . S
Dy896 O904 2.339 . S
Dy896 O906 2.298 . S
Dy896 O910 2.275 . S
Dy896 C918 2.738 . S
Dy897 O900 2.298 . S
Dy897 O903 2.275 . S
Dy897 O905 2.307 . S
Dy897 O907 2.395 . S
Dy897 O908 2.379 . S
Dy897 O911 2.339 . S
Dy897 C927 2.738 . S
C898 O910 1.254 . S
C898 O911 1.257 . S
O899 Dy896 2.307 . S
O899 C909 1.266 . S
O900 Dy897 2.298 . S
O900 C909 1.236 . S
O901 Dy896 2.395 . S
O901 C918 1.255 . S
O902 Dy896 2.379 . S
O902 C918 1.249 . S
O903 Dy897 2.275 . S
O903 C919 1.254 . S
O904 Dy896 2.339 . S
O904 C919 1.257 . S
O905 Dy897 2.307 . S
O905 C920 1.266 . S
O906 Dy896 2.298 . S
O906 C920 1.236 . S
O907 Dy897 2.395 . S
O907 C927 1.255 . S
O908 Dy897 2.379 . S
O908 C927 1.249 . S
C909 O899 1.266 . S
C909 O900 1.236 . S
O910 Dy896 2.275 . S
O910 C898 1.254 . S
O911 Dy897 2.339 . S
O911 C898 1.257 . S
C912 C915 1.344 . S
C912 C916 1.328 . S
C912 C918 1.516 . S
C913 C914 1.304 . S
C913 C917 1.323 . S
C914 C913 1.304 . S
C914 C915 1.371 . S
C914 H928 0.930 . S
C915 C912 1.344 . S
C915 C914 1.371 . S
C915 H929 0.931 . S
C916 C912 1.328 . S
C916 C917 1.433 . S
C916 H930 0.931 . S
C917 C913 1.323 . S
C917 C916 1.433 . S
C917 H931 0.933 . S
C918 Dy896 2.738 . S
C918 O901 1.255 . S
C918 O902 1.249 . S
C918 C912 1.516 . S
C919 O903 1.254 . S
C919 O904 1.257 . S
C920 O905 1.266 . S
C920 O906 1.236 . S
C921 C924 1.344 . S
C921 C925 1.328 . S
C921 C927 1.516 . S
C922 C923 1.304 . S
C922 C926 1.323 . S
C923 C922 1.304 . S
C923 C924 1.371 . S
C923 H932 0.930 . S
C924 C921 1.344 . S
C924 C923 1.371 . S
C924 H933 0.931 . S
C925 C921 1.328 . S
C925 C926 1.433 . S
C925 H934 0.931 . S
C926 C922 1.323 . S
C926 C925 1.433 . S
C926 H935 0.933 . S
C927 Dy897 2.738 . S
C927 O907 1.255 . S
C927 O908 1.249 . S
C927 C921 1.516 . S
H928 C914 0.930 . S
H929 C915 0.931 . S
H930 C916 0.931 . S
H931 C917 0.933 . S
H932 C923 0.930 . S
H933 C924 0.931 . S
H934 C925 0.931 . S
H935 C926 0.933 . S
Dy936 O939 2.307 . S
Dy936 O941 2.395 1_455 S
Dy936 O942 2.379 1_455 S
Dy936 O944 2.339 . S
Dy936 O946 2.298 . S
Dy936 O950 2.275 . S
Dy936 C958 2.738 1_455 S
Dy937 O940 2.298 . S
Dy937 O943 2.275 . S
Dy937 O945 2.307 . S
Dy937 O947 2.395 . S
Dy937 O948 2.379 . S
Dy937 O951 2.339 . S
Dy937 C967 2.738 . S
C938 O950 1.254 . S
C938 O951 1.257 . S
O939 Dy936 2.307 . S
O939 C949 1.266 . S
O940 Dy937 2.298 . S
O940 C949 1.236 . S
O941 Dy936 2.395 1_655 S
O941 C958 1.255 . S
O942 Dy936 2.379 1_655 S
O942 C958 1.249 . S
O943 Dy937 2.275 . S
O943 C959 1.254 . S
O944 Dy936 2.339 . S
O944 C959 1.257 . S
O945 Dy937 2.307 . S
O945 C960 1.266 . S
O946 Dy936 2.298 . S
O946 C960 1.236 . S
O947 Dy937 2.395 . S
O947 C967 1.255 . S
O948 Dy937 2.379 . S
O948 C967 1.249 . S
C949 O939 1.266 . S
C949 O940 1.236 . S
O950 Dy936 2.275 . S
O950 C938 1.254 . S
O951 Dy937 2.339 . S
O951 C938 1.257 . S
C952 C955 1.344 . S
C952 C956 1.328 . S
C952 C958 1.516 . S
C953 C954 1.304 . S
C953 C957 1.323 . S
C954 C953 1.304 . S
C954 C955 1.371 . S
C954 H968 0.930 . S
C955 C952 1.344 . S
C955 C954 1.371 . S
C955 H969 0.931 . S
C956 C952 1.328 . S
C956 C957 1.433 . S
C956 H970 0.931 . S
C957 C953 1.323 . S
C957 C956 1.433 . S
C957 H971 0.933 . S
C958 Dy936 2.738 1_655 S
C958 O941 1.255 . S
C958 O942 1.249 . S
C958 C952 1.516 . S
C959 O943 1.254 . S
C959 O944 1.257 . S
C960 O945 1.266 . S
C960 O946 1.236 . S
C961 C964 1.344 . S
C961 C965 1.328 . S
C961 C967 1.516 . S
C962 C963 1.304 . S
C962 C966 1.323 . S
C963 C962 1.304 . S
C963 C964 1.371 . S
C963 H972 0.930 . S
C964 C961 1.344 . S
C964 C963 1.371 . S
C964 H973 0.931 . S
C965 C961 1.328 . S
C965 C966 1.433 . S
C965 H974 0.931 . S
C966 C962 1.323 . S
C966 C965 1.433 . S
C966 H975 0.964 . S
C967 Dy937 2.738 . S
C967 O947 1.255 . S
C967 O948 1.249 . S
C967 C961 1.516 . S
H968 C954 0.930 . S
H969 C955 0.931 . S
H970 C956 0.931 . S
H971 C957 0.933 . S
H972 C963 0.930 . S
H973 C964 0.931 . S
H974 C965 0.931 . S
H975 C966 0.964 . S
C976 C977 1.369 1_655 S
C976 C978 1.419 1_655 S
C976 H980 0.930 1_554 S
C977 C976 1.369 1_455 S
C977 C986 1.429 . S
C978 C976 1.419 1_455 S
C978 C979 1.363 . S
C978 H981 0.929 1_455 S
C979 C978 1.363 . S
C979 C985 1.428 . S
H980 C976 0.930 1_556 S
H981 C978 0.929 1_655 S
S982 N983 1.613 . S
S982 N984 1.610 . S
N983 S982 1.613 . S
N983 C986 1.350 . S
N984 S982 1.610 . S
N984 C985 1.351 . S
C985 C979 1.428 . S
C985 N984 1.351 . S
C985 C986 1.434 . S
C986 C977 1.429 . S
C986 N983 1.350 . S
C986 C985 1.434 . S
C987 C988 1.369 . S
C987 C989 1.419 . S
C987 H991 0.930 . S
C988 C987 1.369 . S
C988 C997 1.429 . S
C989 C987 1.419 . S
C989 C990 1.363 . S
C989 H992 0.929 . S
C990 C989 1.363 . S
C990 C996 1.428 . S
H991 C987 0.930 . S
H992 C989 0.929 . S
S993 N994 1.613 . S
S993 N995 1.610 . S
N994 S993 1.613 . S
N994 C997 1.350 . S
N995 S993 1.610 . S
N995 C996 1.351 . S
C996 C990 1.428 . S
C996 N995 1.351 . S
C996 C997 1.434 . S
C997 C988 1.429 . S
C997 N994 1.350 . S
C997 C996 1.434 . S
C998 C999 1.369 . S
C998 C1000 1.419 . S
C998 H1002 0.930 . S
C999 C998 1.369 . S
C999 C1008 1.429 . S
C1000 C998 1.419 . S
C1000 C1001 1.363 . S
C1000 H1003 0.929 . S
C1001 C1000 1.363 . S
C1001 C1007 1.428 . S
H1002 C998 0.930 . S
H1003 C1000 0.929 . S
S1004 N1005 1.613 . S
S1004 N1006 1.610 . S
N1005 S1004 1.613 . S
N1005 C1008 1.350 . S
N1006 S1004 1.610 . S
N1006 C1007 1.351 . S
C1007 C1001 1.428 . S
C1007 N1006 1.351 . S
C1007 C1008 1.434 . S
C1008 C999 1.429 . S
C1008 N1005 1.350 . S
C1008 C1007 1.434 . S
C1009 C1010 1.369 . S
C1009 C1011 1.419 . S
C1009 H1013 0.930 . S
C1010 C1009 1.369 . S
C1010 C1019 1.429 . S
C1011 C1009 1.419 . S
C1011 C1012 1.363 . S
C1011 H1014 0.929 . S
C1012 C1011 1.363 . S
C1012 C1018 1.428 . S
H1013 C1009 0.930 . S
H1014 C1011 0.929 . S
S1015 N1016 1.613 . S
S1015 N1017 1.610 . S
N1016 S1015 1.613 . S
N1016 C1019 1.350 . S
N1017 S1015 1.610 . S
N1017 C1018 1.351 . S
C1018 C1012 1.428 . S
C1018 N1017 1.351 . S
C1018 C1019 1.434 . S
C1019 C1010 1.429 . S
C1019 N1016 1.350 . S
C1019 C1018 1.434 . S
C1020 C1021 1.369 . S
C1020 C1022 1.419 . S
C1020 H1024 0.930 . S
C1021 C1020 1.369 . S
C1021 C1030 1.429 . S
C1022 C1020 1.419 . S
C1022 C1023 1.363 . S
C1022 H1025 0.929 . S
C1023 C1022 1.363 . S
C1023 C1029 1.428 . S
H1024 C1020 0.930 . S
H1025 C1022 0.929 . S
S1026 N1027 1.613 . S
S1026 N1028 1.610 . S
N1027 S1026 1.613 . S
N1027 C1030 1.350 . S
N1028 S1026 1.610 . S
N1028 C1029 1.351 . S
C1029 C1023 1.428 . S
C1029 N1028 1.351 . S
C1029 C1030 1.434 . S
C1030 C1021 1.429 . S
C1030 N1027 1.350 . S
C1030 C1029 1.434 . S
C1031 C1032 1.369 . S
C1031 C1033 1.419 . S
C1031 H1035 0.930 . S
C1032 C1031 1.369 . S
C1032 C1041 1.429 . S
C1033 C1031 1.419 . S
C1033 C1034 1.363 . S
C1033 H1036 0.929 . S
C1034 C1033 1.363 . S
C1034 C1040 1.428 . S
H1035 C1031 0.930 . S
H1036 C1033 0.929 . S
S1037 N1038 1.613 . S
S1037 N1039 1.610 . S
N1038 S1037 1.613 . S
N1038 C1041 1.350 . S
N1039 S1037 1.610 . S
N1039 C1040 1.351 . S
C1040 C1034 1.428 . S
C1040 N1039 1.351 . S
C1040 C1041 1.434 . S
C1041 C1032 1.429 . S
C1041 N1038 1.350 . S
C1041 C1040 1.434 . S
C1042 C1043 1.369 . S
C1042 C1044 1.419 . S
C1042 H1046 0.930 . S
C1043 C1042 1.369 . S
C1043 C1052 1.429 . S
C1044 C1042 1.419 . S
C1044 C1045 1.363 . S
C1044 H1047 0.929 . S
C1045 C1044 1.363 . S
C1045 C1051 1.428 . S
H1046 C1042 0.930 . S
H1047 C1044 0.929 . S
S1048 N1049 1.613 . S
S1048 N1050 1.610 . S
N1049 S1048 1.613 . S
N1049 C1052 1.350 . S
N1050 S1048 1.610 . S
N1050 C1051 1.351 . S
C1051 C1045 1.428 . S
C1051 N1050 1.351 . S
C1051 C1052 1.434 . S
C1052 C1043 1.429 . S
C1052 N1049 1.350 . S
C1052 C1051 1.434 . S
C1053 C1054 1.369 . S
C1053 C1055 1.419 . S
C1053 H1057 0.930 . S
C1054 C1053 1.369 . S
C1054 C1063 1.429 . S
C1055 C1053 1.419 . S
C1055 C1056 1.363 . S
C1055 H1058 0.929 . S
C1056 C1055 1.363 . S
C1056 C1062 1.428 . S
H1057 C1053 0.930 . S
H1058 C1055 0.929 . S
S1059 N1060 1.613 . S
S1059 N1061 1.610 . S
N1060 S1059 1.613 . S
N1060 C1063 1.350 . S
N1061 S1059 1.610 . S
N1061 C1062 1.351 . S
C1062 C1056 1.428 . S
C1062 N1061 1.351 . S
C1062 C1063 1.434 . S
C1063 C1054 1.429 . S
C1063 N1060 1.350 . S
C1063 C1062 1.434 . S
C1064 C1065 1.369 1_455 S
C1064 C1066 1.419 . S
C1064 H1068 0.930 . S
C1065 C1064 1.369 1_655 S
C1065 C1074 1.429 . S
C1066 C1064 1.419 . S
C1066 C1067 1.363 . S
C1066 H1069 0.929 . S
C1067 C1066 1.363 . S
C1067 C1073 1.428 1_455 S
H1068 C1064 0.930 . S
H1069 C1066 0.929 . S
S1070 N1071 1.613 . S
S1070 N1072 1.610 . S
N1071 S1070 1.613 . S
N1071 C1074 1.350 . S
N1072 S1070 1.610 . S
N1072 C1073 1.351 . S
C1073 C1067 1.428 1_655 S
C1073 N1072 1.351 . S
C1073 C1074 1.434 . S
C1074 C1065 1.429 . S
C1074 N1071 1.350 . S
C1074 C1073 1.434 . S
C1075 C1076 1.369 . S
C1075 C1077 1.419 . S
C1075 H1079 0.930 . S
C1076 C1075 1.369 . S
C1076 C1085 1.429 . S
C1077 C1075 1.419 . S
C1077 C1078 1.363 . S
C1077 H1080 0.929 . S
C1078 C1077 1.363 . S
C1078 C1084 1.428 . S
H1079 C1075 0.930 . S
H1080 C1077 0.929 . S
S1081 N1082 1.613 . S
S1081 N1083 1.610 . S
N1082 S1081 1.613 . S
N1082 C1085 1.350 . S
N1083 S1081 1.610 . S
N1083 C1084 1.351 . S
C1084 C1078 1.428 . S
C1084 N1083 1.351 . S
C1084 C1085 1.434 . S
C1085 C1076 1.429 . S
C1085 N1082 1.350 . S
C1085 C1084 1.434 . S
C1086 C1087 1.369 . S
C1086 C1088 1.419 . S
C1086 H1090 0.930 . S
C1087 C1086 1.369 . S
C1087 C1096 1.429 . S
C1088 C1086 1.419 . S
C1088 C1089 1.363 . S
C1088 H1091 0.929 . S
C1089 C1088 1.363 . S
C1089 C1095 1.428 . S
H1090 C1086 0.930 . S
H1091 C1088 0.929 . S
S1092 N1093 1.613 . S
S1092 N1094 1.610 . S
N1093 S1092 1.613 . S
N1093 C1096 1.350 . S
N1094 S1092 1.610 . S
N1094 C1095 1.351 . S
C1095 C1089 1.428 . S
C1095 N1094 1.351 . S
C1095 C1096 1.434 . S
C1096 C1087 1.429 . S
C1096 N1093 1.350 . S
C1096 C1095 1.434 . S
C1097 C1098 1.369 . S
C1097 C1099 1.419 . S
C1097 H1101 0.930 . S
C1098 C1097 1.369 . S
C1098 C1107 1.429 . S
C1099 C1097 1.419 . S
C1099 C1100 1.363 . S
C1099 H1102 0.929 . S
C1100 C1099 1.363 . S
C1100 C1106 1.428 . S
H1101 C1097 0.930 . S
H1102 C1099 0.929 . S
S1103 N1104 1.613 . S
S1103 N1105 1.610 . S
N1104 S1103 1.613 . S
N1104 C1107 1.350 . S
N1105 S1103 1.610 . S
N1105 C1106 1.351 . S
C1106 C1100 1.428 . S
C1106 N1105 1.351 . S
C1106 C1107 1.434 . S
C1107 C1098 1.429 . S
C1107 N1104 1.350 . S
C1107 C1106 1.434 . S
C1108 C1109 1.369 1_455 S
C1108 C1110 1.419 . S
C1108 H1112 0.930 . S
C1109 C1108 1.369 1_655 S
C1109 C1118 1.429 . S
C1110 C1108 1.419 . S
C1110 C1111 1.363 . S
C1110 H1113 0.929 . S
C1111 C1110 1.363 . S
C1111 C1117 1.428 . S
H1112 C1108 0.930 . S
H1113 C1110 0.929 . S
S1114 N1115 1.613 . S
S1114 N1116 1.610 1_655 S
N1115 S1114 1.613 . S
N1115 C1118 1.350 . S
N1116 S1114 1.610 1_455 S
N1116 C1117 1.351 . S
C1117 C1111 1.428 . S
C1117 N1116 1.351 . S
C1117 C1118 1.434 1_455 S
C1118 C1109 1.429 . S
C1118 N1115 1.350 . S
C1118 C1117 1.434 1_655 S
C1119 C1120 1.369 . S
C1119 C1121 1.419 . S
C1119 H1123 0.930 . S
C1120 C1119 1.369 . S
C1120 C1129 1.429 . S
C1121 C1119 1.419 . S
C1121 C1122 1.363 . S
C1121 H1124 0.929 . S
C1122 C1121 1.363 . S
C1122 C1128 1.428 . S
H1123 C1119 0.930 . S
H1124 C1121 0.929 . S
S1125 N1126 1.613 . S
S1125 N1127 1.610 . S
N1126 S1125 1.613 . S
N1126 C1129 1.350 . S
N1127 S1125 1.610 . S
N1127 C1128 1.351 . S
C1128 C1122 1.428 . S
C1128 N1127 1.351 . S
C1128 C1129 1.434 . S
C1129 C1120 1.429 . S
C1129 N1126 1.350 . S
C1129 C1128 1.434 . S
C1130 C1131 1.369 . S
C1130 C1132 1.419 . S
C1130 H1134 0.930 . S
C1131 C1130 1.369 . S
C1131 C1140 1.429 . S
C1132 C1130 1.419 . S
C1132 C1133 1.363 . S
C1132 H1135 0.929 . S
C1133 C1132 1.363 . S
C1133 C1139 1.428 . S
H1134 C1130 0.930 . S
H1135 C1132 0.929 . S
S1136 N1137 1.613 . S
S1136 N1138 1.610 . S
N1137 S1136 1.613 . S
N1137 C1140 1.350 . S
N1138 S1136 1.610 . S
N1138 C1139 1.351 . S
C1139 C1133 1.428 . S
C1139 N1138 1.351 . S
C1139 C1140 1.434 . S
C1140 C1131 1.429 . S
C1140 N1137 1.350 . S
C1140 C1139 1.434 . S
C1141 C1142 1.369 . S
C1141 C1143 1.419 . S
C1141 H1145 0.930 . S
C1142 C1141 1.369 . S
C1142 C1151 1.429 . S
C1143 C1141 1.419 . S
C1143 C1144 1.363 . S
C1143 H1146 0.929 . S
C1144 C1143 1.363 . S
C1144 C1150 1.428 . S
H1145 C1141 0.930 . S
H1146 C1143 0.929 . S
S1147 N1148 1.613 . S
S1147 N1149 1.610 . S
N1148 S1147 1.613 . S
N1148 C1151 1.350 . S
N1149 S1147 1.610 . S
N1149 C1150 1.351 . S
C1150 C1144 1.428 . S
C1150 N1149 1.351 . S
C1150 C1151 1.434 . S
C1151 C1142 1.429 . S
C1151 N1148 1.350 . S
C1151 C1150 1.434 . S
C1152 C1153 1.369 . S
C1152 C1154 1.419 1_565 S
C1152 H1156 0.930 . S
C1153 C1152 1.369 . S
C1153 C1162 1.429 . S
C1154 C1152 1.419 1_545 S
C1154 C1155 1.363 . S
C1154 H1157 0.929 . S
C1155 C1154 1.363 . S
C1155 C1161 1.428 1_545 S
H1156 C1152 0.930 . S
H1157 C1154 0.929 . S
S1158 N1159 1.613 . S
S1158 N1160 1.610 . S
N1159 S1158 1.613 . S
N1159 C1162 1.350 . S
N1160 S1158 1.610 . S
N1160 C1161 1.351 . S
C1161 C1155 1.428 1_565 S
C1161 N1160 1.351 . S
C1161 C1162 1.434 . S
C1162 C1153 1.429 . S
C1162 N1159 1.350 . S
C1162 C1161 1.434 . S
C1163 C1164 1.369 . S
C1163 C1165 1.419 . S
C1163 H1167 0.930 . S
C1164 C1163 1.369 . S
C1164 C1173 1.429 . S
C1165 C1163 1.419 . S
C1165 C1166 1.363 . S
C1165 H1168 0.929 . S
C1166 C1165 1.363 . S
C1166 C1172 1.428 . S
H1167 C1163 0.930 . S
H1168 C1165 0.929 . S
S1169 N1170 1.613 . S
S1169 N1171 1.610 . S
N1170 S1169 1.613 . S
N1170 C1173 1.350 1_556 S
N1171 S1169 1.610 . S
N1171 C1172 1.351 1_556 S
C1172 C1166 1.428 . S
C1172 N1171 1.351 1_554 S
C1172 C1173 1.434 . S
C1173 C1164 1.429 . S
C1173 N1170 1.350 1_554 S
C1173 C1172 1.434 . S
C1174 C1175 1.369 . S
C1174 C1176 1.419 . S
C1174 H1178 0.930 . S
C1175 C1174 1.369 . S
C1175 C1184 1.429 . S
C1176 C1174 1.419 . S
C1176 C1177 1.363 . S
C1176 H1179 0.929 . S
C1177 C1176 1.363 . S
C1177 C1183 1.428 . S
H1178 C1174 0.930 . S
H1179 C1176 0.929 . S
S1180 N1181 1.613 . S
S1180 N1182 1.610 . S
N1181 S1180 1.613 . S
N1181 C1184 1.350 . S
N1182 S1180 1.610 . S
N1182 C1183 1.351 . S
C1183 C1177 1.428 . S
C1183 N1182 1.351 . S
C1183 C1184 1.434 . S
C1184 C1175 1.429 . S
C1184 N1181 1.350 . S
C1184 C1183 1.434 . S
C1185 C1186 1.369 . S
C1185 C1187 1.419 . S
C1185 H1189 0.930 . S
C1186 C1185 1.369 . S
C1186 C1195 1.429 . S
C1187 C1185 1.419 . S
C1187 C1188 1.363 . S
C1187 H1190 0.929 . S
C1188 C1187 1.363 . S
C1188 C1194 1.428 . S
H1189 C1185 0.930 . S
H1190 C1187 0.929 . S
S1191 N1192 1.613 . S
S1191 N1193 1.610 . S
N1192 S1191 1.613 . S
N1192 C1195 1.350 . S
N1193 S1191 1.610 . S
N1193 C1194 1.351 . S
C1194 C1188 1.428 . S
C1194 N1193 1.351 . S
C1194 C1195 1.434 . S
C1195 C1186 1.429 . S
C1195 N1192 1.350 . S
C1195 C1194 1.434 . S
C1196 C1197 1.369 . S
C1196 C1198 1.419 . S
C1196 H1200 0.930 . S
C1197 C1196 1.369 . S
C1197 C1206 1.429 . S
C1198 C1196 1.419 . S
C1198 C1199 1.363 . S
C1198 H1201 0.929 . S
C1199 C1198 1.363 . S
C1199 C1205 1.428 . S
H1200 C1196 0.930 . S
H1201 C1198 0.929 . S
S1202 N1203 1.613 . S
S1202 N1204 1.610 . S
N1203 S1202 1.613 . S
N1203 C1206 1.350 . S
N1204 S1202 1.610 . S
N1204 C1205 1.351 . S
C1205 C1199 1.428 . S
C1205 N1204 1.351 . S
C1205 C1206 1.434 . S
C1206 C1197 1.429 . S
C1206 N1203 1.350 . S
C1206 C1205 1.434 . S
C1207 C1208 1.369 . S
C1207 C1209 1.419 . S
C1207 H1211 0.930 . S
C1208 C1207 1.369 . S
C1208 C1217 1.429 . S
C1209 C1207 1.419 . S
C1209 C1210 1.363 . S
C1209 H1212 0.929 . S
C1210 C1209 1.363 . S
C1210 C1216 1.428 . S
H1211 C1207 0.930 . S
H1212 C1209 0.929 . S
S1213 N1214 1.613 . S
S1213 N1215 1.610 . S
N1214 S1213 1.613 . S
N1214 C1217 1.350 . S
N1215 S1213 1.610 . S
N1215 C1216 1.351 . S
C1216 C1210 1.428 . S
C1216 N1215 1.351 . S
C1216 C1217 1.434 . S
C1217 C1208 1.429 . S
C1217 N1214 1.350 . S
C1217 C1216 1.434 . S
C1218 C1219 1.369 . S
C1218 C1220 1.419 . S
C1218 H1222 0.930 . S
C1219 C1218 1.369 . S
C1219 C1228 1.429 . S
C1220 C1218 1.419 . S
C1220 C1221 1.363 . S
C1220 H1223 0.929 . S
C1221 C1220 1.363 . S
C1221 C1227 1.428 . S
H1222 C1218 0.930 . S
H1223 C1220 0.929 . S
S1224 N1225 1.613 . S
S1224 N1226 1.610 . S
N1225 S1224 1.613 . S
N1225 C1228 1.350 . S
N1226 S1224 1.610 . S
N1226 C1227 1.351 . S
C1227 C1221 1.428 . S
C1227 N1226 1.351 . S
C1227 C1228 1.434 . S
C1228 C1219 1.429 . S
C1228 N1225 1.350 . S
C1228 C1227 1.434 . S
C1229 C1230 1.369 . S
C1229 C1231 1.419 . S
C1229 H1233 0.930 . S
C1230 C1229 1.369 . S
C1230 C1239 1.429 . S
C1231 C1229 1.419 . S
C1231 C1232 1.363 . S
C1231 H1234 0.929 . S
C1232 C1231 1.363 . S
C1232 C1238 1.428 . S
H1233 C1229 0.930 . S
H1234 C1231 0.929 . S
S1235 N1236 1.613 . S
S1235 N1237 1.610 . S
N1236 S1235 1.613 . S
N1236 C1239 1.350 . S
N1237 S1235 1.610 . S
N1237 C1238 1.351 . S
C1238 C1232 1.428 . S
C1238 N1237 1.351 . S
C1238 C1239 1.434 . S
C1239 C1230 1.429 . S
C1239 N1236 1.350 . S
C1239 C1238 1.434 . S
C1240 C1241 1.369 . S
C1240 C1242 1.419 . S
C1240 H1244 0.930 . S
C1241 C1240 1.369 . S
C1241 C1250 1.429 . S
C1242 C1240 1.419 . S
C1242 C1243 1.363 . S
C1242 H1245 0.929 . S
C1243 C1242 1.363 . S
C1243 C1249 1.428 . S
H1244 C1240 0.930 . S
H1245 C1242 0.929 . S
S1246 N1247 1.613 1_655 S
S1246 N1248 1.610 1_655 S
N1247 S1246 1.613 1_455 S
N1247 C1250 1.350 . S
N1248 S1246 1.610 1_455 S
N1248 C1249 1.351 . S
C1249 C1243 1.428 . S
C1249 N1248 1.351 . S
C1249 C1250 1.434 . S
C1250 C1241 1.429 . S
C1250 N1247 1.350 . S
C1250 C1249 1.434 . S
C1251 C1252 1.369 . S
C1251 C1253 1.419 . S
C1251 H1255 0.930 . S
C1252 C1251 1.369 . S
C1252 C1261 1.429 . S
C1253 C1251 1.419 . S
C1253 C1254 1.363 . S
C1253 H1256 0.929 . S
C1254 C1253 1.363 . S
C1254 C1260 1.428 . S
H1255 C1251 0.930 . S
H1256 C1253 0.929 . S
S1257 N1258 1.613 . S
S1257 N1259 1.610 . S
N1258 S1257 1.613 . S
N1258 C1261 1.350 . S
N1259 S1257 1.610 . S
N1259 C1260 1.351 . S
C1260 C1254 1.428 . S
C1260 N1259 1.351 . S
C1260 C1261 1.434 . S
C1261 C1252 1.429 . S
C1261 N1258 1.350 . S
C1261 C1260 1.434 . S
C1262 C1263 1.369 . S
C1262 C1264 1.419 . S
C1262 H1266 0.930 . S
C1263 C1262 1.369 . S
C1263 C1272 1.429 . S
C1264 C1262 1.419 . S
C1264 C1265 1.363 . S
C1264 H1267 0.929 . S
C1265 C1264 1.363 . S
C1265 C1271 1.428 . S
H1266 C1262 0.930 . S
H1267 C1264 0.929 . S
S1268 N1269 1.613 . S
S1268 N1270 1.610 . S
N1269 S1268 1.613 . S
N1269 C1272 1.350 . S
N1270 S1268 1.610 . S
N1270 C1271 1.351 . S
C1271 C1265 1.428 . S
C1271 N1270 1.351 . S
C1271 C1272 1.434 . S
C1272 C1263 1.429 . S
C1272 N1269 1.350 . S
C1272 C1271 1.434 . S
C1273 C1274 1.369 . S
C1273 C1275 1.419 . S
C1273 H1277 0.930 . S
C1274 C1273 1.369 . S
C1274 C1283 1.429 . S
C1275 C1273 1.419 . S
C1275 C1276 1.363 . S
C1275 H1278 0.929 . S
C1276 C1275 1.363 . S
C1276 C1282 1.428 . S
H1277 C1273 0.930 . S
H1278 C1275 0.929 . S
S1279 N1280 1.613 . S
S1279 N1281 1.610 . S
N1280 S1279 1.613 . S
N1280 C1283 1.350 . S
N1281 S1279 1.610 . S
N1281 C1282 1.351 . S
C1282 C1276 1.428 . S
C1282 N1281 1.351 . S
C1282 C1283 1.434 . S
C1283 C1274 1.429 . S
C1283 N1280 1.350 . S
C1283 C1282 1.434 . S
C1284 C1285 1.369 . S
C1284 C1286 1.419 . S
C1284 H1288 0.930 . S
C1285 C1284 1.369 . S
C1285 C1294 1.429 . S
C1286 C1284 1.419 . S
C1286 C1287 1.363 . S
C1286 H1289 0.929 . S
C1287 C1286 1.363 . S
C1287 C1293 1.428 . S
H1288 C1284 0.930 . S
H1289 C1286 0.929 . S
S1290 N1291 1.613 . S
S1290 N1292 1.610 . S
N1291 S1290 1.613 . S
N1291 C1294 1.350 . S
N1292 S1290 1.610 . S
N1292 C1293 1.351 . S
C1293 C1287 1.428 . S
C1293 N1292 1.351 . S
C1293 C1294 1.434 . S
C1294 C1285 1.429 . S
C1294 N1291 1.350 . S
C1294 C1293 1.434 . S
C1295 C1296 1.369 . S
C1295 C1297 1.419 . S
C1295 H1299 0.930 . S
C1296 C1295 1.369 . S
C1296 C1305 1.429 . S
C1297 C1295 1.419 . S
C1297 C1298 1.363 . S
C1297 H1300 0.929 . S
C1298 C1297 1.363 . S
C1298 C1304 1.428 . S
H1299 C1295 0.930 . S
H1300 C1297 0.929 . S
S1301 N1302 1.613 . S
S1301 N1303 1.610 . S
N1302 S1301 1.613 . S
N1302 C1305 1.350 . S
N1303 S1301 1.610 . S
N1303 C1304 1.351 . S
C1304 C1298 1.428 . S
C1304 N1303 1.351 . S
C1304 C1305 1.434 . S
C1305 C1296 1.429 . S
C1305 N1302 1.350 . S
C1305 C1304 1.434 . S
C1306 C1307 1.369 . S
C1306 C1308 1.419 . S
C1306 H1310 0.930 . S
C1307 C1306 1.369 . S
C1307 C1316 1.429 . S
C1308 C1306 1.419 . S
C1308 C1309 1.363 . S
C1308 H1311 0.929 . S
C1309 C1308 1.363 . S
C1309 C1315 1.428 . S
H1310 C1306 0.930 . S
H1311 C1308 0.929 . S
S1312 N1313 1.613 1_545 S
S1312 N1314 1.610 . S
N1313 S1312 1.613 1_565 S
N1313 C1316 1.350 . S
N1314 S1312 1.610 . S
N1314 C1315 1.351 1_545 S
C1315 C1309 1.428 . S
C1315 N1314 1.351 1_565 S
C1315 C1316 1.434 . S
C1316 C1307 1.429 . S
C1316 N1313 1.350 . S
C1316 C1315 1.434 . S
C1317 C1318 1.369 . S
C1317 C1319 1.419 . S
C1317 H1321 0.930 . S
C1318 C1317 1.369 . S
C1318 C1327 1.429 . S
C1319 C1317 1.419 . S
C1319 C1320 1.363 . S
C1319 H1322 0.929 . S
C1320 C1319 1.363 . S
C1320 C1326 1.428 . S
H1321 C1317 0.930 . S
H1322 C1319 0.929 . S
S1323 N1324 1.613 . S
S1323 N1325 1.610 . S
N1324 S1323 1.613 . S
N1324 C1327 1.350 . S
N1325 S1323 1.610 . S
N1325 C1326 1.351 . S
C1326 C1320 1.428 . S
C1326 N1325 1.351 . S
C1326 C1327 1.434 . S
C1327 C1318 1.429 . S
C1327 N1324 1.350 . S
C1327 C1326 1.434 . S
C1328 C1329 1.369 . S
C1328 C1330 1.419 . S
C1328 H1332 0.930 . S
C1329 C1328 1.369 . S
C1329 C1338 1.429 . S
C1330 C1328 1.419 . S
C1330 C1331 1.363 . S
C1330 H1333 0.929 . S
C1331 C1330 1.363 . S
C1331 C1337 1.428 . S
H1332 C1328 0.930 . S
H1333 C1330 0.929 . S
S1334 N1335 1.613 . S
S1334 N1336 1.610 . S
N1335 S1334 1.613 . S
N1335 C1338 1.350 . S
N1336 S1334 1.610 . S
N1336 C1337 1.351 . S
C1337 C1331 1.428 . S
C1337 N1336 1.351 . S
C1337 C1338 1.434 . S
C1338 C1329 1.429 . S
C1338 N1335 1.350 . S
C1338 C1337 1.434 . S
C1339 C1340 1.369 . S
C1339 C1341 1.419 . S
C1339 H1343 0.930 . S
C1340 C1339 1.369 . S
C1340 C1349 1.429 . S
C1341 C1339 1.419 . S
C1341 C1342 1.363 . S
C1341 H1344 0.929 . S
C1342 C1341 1.363 . S
C1342 C1348 1.428 . S
H1343 C1339 0.930 . S
H1344 C1341 0.929 . S
S1345 N1346 1.613 . S
S1345 N1347 1.610 . S
N1346 S1345 1.613 . S
N1346 C1349 1.350 . S
N1347 S1345 1.610 . S
N1347 C1348 1.351 . S
C1348 C1342 1.428 . S
C1348 N1347 1.351 . S
C1348 C1349 1.434 . S
C1349 C1340 1.429 . S
C1349 N1346 1.350 . S
C1349 C1348 1.434 . S
C1350 C1351 1.369 . S
C1350 C1352 1.419 . S
C1350 H1354 0.930 . S
C1351 C1350 1.369 . S
C1351 C1360 1.429 1_545 S
C1352 C1350 1.419 . S
C1352 C1353 1.363 . S
C1352 H1355 0.929 . S
C1353 C1352 1.363 . S
C1353 C1359 1.428 . S
H1354 C1350 0.930 . S
H1355 C1352 0.929 . S
S1356 N1357 1.613 . S
S1356 N1358 1.610 . S
N1357 S1356 1.613 . S
N1357 C1360 1.350 . S
N1358 S1356 1.610 . S
N1358 C1359 1.351 1_565 S
C1359 C1353 1.428 . S
C1359 N1358 1.351 1_545 S
C1359 C1360 1.434 1_545 S
C1360 C1351 1.429 1_565 S
C1360 N1357 1.350 . S
C1360 C1359 1.434 1_565 S
C1361 C1362 1.369 . S
C1361 C1363 1.419 . S
C1361 H1365 0.930 . S
C1362 C1361 1.369 . S
C1362 C1371 1.429 . S
C1363 C1361 1.419 . S
C1363 C1364 1.363 . S
C1363 H1366 0.929 . S
C1364 C1363 1.363 . S
C1364 C1370 1.428 . S
H1365 C1361 0.930 . S
H1366 C1363 0.929 . S
S1367 N1368 1.613 . S
S1367 N1369 1.610 . S
N1368 S1367 1.613 . S
N1368 C1371 1.350 . S
N1369 S1367 1.610 . S
N1369 C1370 1.351 . S
C1370 C1364 1.428 . S
C1370 N1369 1.351 . S
C1370 C1371 1.434 . S
C1371 C1362 1.429 . S
C1371 N1368 1.350 . S
C1371 C1370 1.434 . S
C1372 C1373 1.369 . S
C1372 C1374 1.419 . S
C1372 H1376 0.930 . S
C1373 C1372 1.369 . S
C1373 C1382 1.429 . S
C1374 C1372 1.419 . S
C1374 C1375 1.363 . S
C1374 H1377 0.929 . S
C1375 C1374 1.363 . S
C1375 C1381 1.428 . S
H1376 C1372 0.930 . S
H1377 C1374 0.929 . S
S1378 N1379 1.613 . S
S1378 N1380 1.610 . S
N1379 S1378 1.613 . S
N1379 C1382 1.350 . S
N1380 S1378 1.610 . S
N1380 C1381 1.351 . S
C1381 C1375 1.428 . S
C1381 N1380 1.351 . S
C1381 C1382 1.434 . S
C1382 C1373 1.429 . S
C1382 N1379 1.350 . S
C1382 C1381 1.434 . S
C1383 C1384 1.369 . S
C1383 C1385 1.419 . S
C1383 H1387 0.930 . S
C1384 C1383 1.369 . S
C1384 C1393 1.429 . S
C1385 C1383 1.419 . S
C1385 C1386 1.363 . S
C1385 H1388 0.929 . S
C1386 C1385 1.363 . S
C1386 C1392 1.428 . S
H1387 C1383 0.930 . S
H1388 C1385 0.929 . S
S1389 N1390 1.613 . S
S1389 N1391 1.610 . S
N1390 S1389 1.613 . S
N1390 C1393 1.350 . S
N1391 S1389 1.610 . S
N1391 C1392 1.351 . S
C1392 C1386 1.428 . S
C1392 N1391 1.351 . S
C1392 C1393 1.434 . S
C1393 C1384 1.429 . S
C1393 N1390 1.350 . S
C1393 C1392 1.434 . S
C1394 C1395 1.369 . S
C1394 C1396 1.419 . S
C1394 H1398 0.930 1_565 S
C1395 C1394 1.369 . S
C1395 C1404 1.429 . S
C1396 C1394 1.419 . S
C1396 C1397 1.363 . S
C1396 H1399 0.929 . S
C1397 C1396 1.363 . S
C1397 C1403 1.428 . S
H1398 C1394 0.930 1_545 S
H1399 C1396 0.929 . S
S1400 N1401 1.613 . S
S1400 N1402 1.610 . S
N1401 S1400 1.613 . S
N1401 C1404 1.350 . S
N1402 S1400 1.610 . S
N1402 C1403 1.351 . S
C1403 C1397 1.428 . S
C1403 N1402 1.351 . S
C1403 C1404 1.434 . S
C1404 C1395 1.429 . S
C1404 N1401 1.350 . S
C1404 C1403 1.434 . S
C1405 C1406 1.369 . S
C1405 C1407 1.419 . S
C1405 H1409 0.930 . S
C1406 C1405 1.369 . S
C1406 C1415 1.429 . S
C1407 C1405 1.419 . S
C1407 C1408 1.363 . S
C1407 H1410 0.929 . S
C1408 C1407 1.363 . S
C1408 C1414 1.428 . S
H1409 C1405 0.930 . S
H1410 C1407 0.929 . S
S1411 N1412 1.613 . S
S1411 N1413 1.610 . S
N1412 S1411 1.613 . S
N1412 C1415 1.350 . S
N1413 S1411 1.610 . S
N1413 C1414 1.351 . S
C1414 C1408 1.428 . S
C1414 N1413 1.351 . S
C1414 C1415 1.434 . S
C1415 C1406 1.429 . S
C1415 N1412 1.350 . S
C1415 C1414 1.434 . S
C1416 C1417 1.369 . S
C1416 C1418 1.419 . S
C1416 H1420 0.930 . S
C1417 C1416 1.369 . S
C1417 C1426 1.429 . S
C1418 C1416 1.419 . S
C1418 C1419 1.363 . S
C1418 H1421 0.929 . S
C1419 C1418 1.363 . S
C1419 C1425 1.428 . S
H1420 C1416 0.930 . S
H1421 C1418 0.929 . S
S1422 N1423 1.613 . S
S1422 N1424 1.610 . S
N1423 S1422 1.613 . S
N1423 C1426 1.350 . S
N1424 S1422 1.610 . S
N1424 C1425 1.351 . S
C1425 C1419 1.428 . S
C1425 N1424 1.351 . S
C1425 C1426 1.434 . S
C1426 C1417 1.429 . S
C1426 N1423 1.350 . S
C1426 C1425 1.434 . S
C1427 C1428 1.369 . S
C1427 C1429 1.419 . S
C1427 H1431 0.930 . S
C1428 C1427 1.369 . S
C1428 C1437 1.429 . S
C1429 C1427 1.419 . S
C1429 C1430 1.363 . S
C1429 H1432 0.929 . S
C1430 C1429 1.363 . S
C1430 C1436 1.428 . S
H1431 C1427 0.930 . S
H1432 C1429 0.929 . S
S1433 N1434 1.613 . S
S1433 N1435 1.610 . S
N1434 S1433 1.613 . S
N1434 C1437 1.350 . S
N1435 S1433 1.610 . S
N1435 C1436 1.351 . S
C1436 C1430 1.428 . S
C1436 N1435 1.351 . S
C1436 C1437 1.434 . S
C1437 C1428 1.429 . S
C1437 N1434 1.350 . S
C1437 C1436 1.434 . S
C1438 C1439 1.369 . S
C1438 C1440 1.419 . S
C1438 H1442 0.930 . S
C1439 C1438 1.369 . S
C1439 C1448 1.429 . S
C1440 C1438 1.419 . S
C1440 C1441 1.363 . S
C1440 H1443 0.929 . S
C1441 C1440 1.363 . S
C1441 C1447 1.428 . S
H1442 C1438 0.930 . S
H1443 C1440 0.929 . S
S1444 N1445 1.613 . S
S1444 N1446 1.610 . S
N1445 S1444 1.613 . S
N1445 C1448 1.350 . S
N1446 S1444 1.610 . S
N1446 C1447 1.351 . S
C1447 C1441 1.428 . S
C1447 N1446 1.351 . S
C1447 C1448 1.434 . S
C1448 C1439 1.429 . S
C1448 N1445 1.350 . S
C1448 C1447 1.434 . S
C1449 C1450 1.369 . S
C1449 C1451 1.419 . S
C1449 H1453 0.930 . S
C1450 C1449 1.369 . S
C1450 C1459 1.429 . S
C1451 C1449 1.419 . S
C1451 C1452 1.363 . S
C1451 H1454 0.929 . S
C1452 C1451 1.363 . S
C1452 C1458 1.428 . S
H1453 C1449 0.930 . S
H1454 C1451 0.929 . S
S1455 N1456 1.613 . S
S1455 N1457 1.610 . S
N1456 S1455 1.613 . S
N1456 C1459 1.350 . S
N1457 S1455 1.610 . S
N1457 C1458 1.351 . S
C1458 C1452 1.428 . S
C1458 N1457 1.351 . S
C1458 C1459 1.434 . S
C1459 C1450 1.429 . S
C1459 N1456 1.350 . S
C1459 C1458 1.434 . S
C1460 C1461 1.369 . S
C1460 C1462 1.445 . S
C1460 H1464 0.930 . S
C1461 C1460 1.369 . S
C1461 C1470 1.429 . S
C1462 C1460 1.445 . S
C1462 C1463 1.360 . S
C1462 H1465 0.917 1_545 S
C1463 C1462 1.360 . S
C1463 C1469 1.438 . S
H1464 C1460 0.930 . S
H1465 C1462 0.917 1_565 S
S1466 N1467 1.613 . S
S1466 N1468 1.610 . S
N1467 S1466 1.613 . S
N1467 C1470 1.350 . S
N1468 S1466 1.610 . S
N1468 C1469 1.351 . S
C1469 C1463 1.438 . S
C1469 N1468 1.351 . S
C1469 C1470 1.434 . S
C1470 C1461 1.429 . S
C1470 N1467 1.350 . S
C1470 C1469 1.434 . S
C1471 C1472 1.369 . S
C1471 C1473 1.419 . S
C1471 H1475 0.930 . S
C1472 C1471 1.369 . S
C1472 C1481 1.429 . S
C1473 C1471 1.419 . S
C1473 C1474 1.363 . S
C1473 H1476 0.929 . S
C1474 C1473 1.363 . S
C1474 C1480 1.428 . S
H1475 C1471 0.930 . S
H1476 C1473 0.929 . S
S1477 N1478 1.613 1_545 S
S1477 N1479 1.610 . S
N1478 S1477 1.613 1_565 S
N1478 C1481 1.350 . S
N1479 S1477 1.610 . S
N1479 C1480 1.351 1_545 S
C1480 C1474 1.428 . S
C1480 N1479 1.351 1_565 S
C1480 C1481 1.434 . S
C1481 C1472 1.429 . S
C1481 N1478 1.350 . S
C1481 C1480 1.434 . S
C1482 C1483 1.369 . S
C1482 C1484 1.419 . S
C1482 H1486 0.930 . S
C1483 C1482 1.369 . S
C1483 C1492 1.429 . S
C1484 C1482 1.419 . S
C1484 C1485 1.363 . S
C1484 H1487 0.929 . S
C1485 C1484 1.363 . S
C1485 C1491 1.428 . S
H1486 C1482 0.930 . S
H1487 C1484 0.929 . S
S1488 N1489 1.613 . S
S1488 N1490 1.610 . S
N1489 S1488 1.613 . S
N1489 C1492 1.350 . S
N1490 S1488 1.610 . S
N1490 C1491 1.351 . S
C1491 C1485 1.428 . S
C1491 N1490 1.351 . S
C1491 C1492 1.434 . S
C1492 C1483 1.429 . S
C1492 N1489 1.350 . S
C1492 C1491 1.434 . S
C1493 C1494 1.369 . S
C1493 C1495 1.419 . S
C1493 H1497 0.930 . S
C1494 C1493 1.369 . S
C1494 C1503 1.429 . S
C1495 C1493 1.419 . S
C1495 C1496 1.363 . S
C1495 H1498 0.929 . S
C1496 C1495 1.363 . S
C1496 C1502 1.428 . S
H1497 C1493 0.930 . S
H1498 C1495 0.929 . S
S1499 N1500 1.613 . S
S1499 N1501 1.610 . S
N1500 S1499 1.613 . S
N1500 C1503 1.350 . S
N1501 S1499 1.610 . S
N1501 C1502 1.351 . S
C1502 C1496 1.428 . S
C1502 N1501 1.351 . S
C1502 C1503 1.434 . S
C1503 C1494 1.429 . S
C1503 N1500 1.350 . S
C1503 C1502 1.434 . S
C1504 C1505 1.369 . S
C1504 C1506 1.419 . S
C1504 H1508 0.930 . S
C1505 C1504 1.369 . S
C1505 C1514 1.429 . S
C1506 C1504 1.419 . S
C1506 C1507 1.363 . S
C1506 H1509 0.929 . S
C1507 C1506 1.363 . S
C1507 C1513 1.428 . S
H1508 C1504 0.930 . S
H1509 C1506 0.929 . S
S1510 N1511 1.613 . S
S1510 N1512 1.610 . S
N1511 S1510 1.613 . S
N1511 C1514 1.350 . S
N1512 S1510 1.610 . S
N1512 C1513 1.351 . S
C1513 C1507 1.428 . S
C1513 N1512 1.351 . S
C1513 C1514 1.434 . S
C1514 C1505 1.429 . S
C1514 N1511 1.350 . S
C1514 C1513 1.434 . S
C1515 C1516 1.369 . S
C1515 C1517 1.419 . S
C1515 H1519 0.930 . S
C1516 C1515 1.369 . S
C1516 C1525 1.429 . S
C1517 C1515 1.419 . S
C1517 C1518 1.363 . S
C1517 H1520 0.929 . S
C1518 C1517 1.363 . S
C1518 C1524 1.428 . S
H1519 C1515 0.930 . S
H1520 C1517 0.929 . S
S1521 N1522 1.613 . S
S1521 N1523 1.610 . S
N1522 S1521 1.613 . S
N1522 C1525 1.350 . S
N1523 S1521 1.610 . S
N1523 C1524 1.351 . S
C1524 C1518 1.428 . S
C1524 N1523 1.351 . S
C1524 C1525 1.434 . S
C1525 C1516 1.429 . S
C1525 N1522 1.350 . S
C1525 C1524 1.434 . S
C1526 C1527 1.369 . S
C1526 C1528 1.419 . S
C1526 H1530 0.930 . S
C1527 C1526 1.369 . S
C1527 C1536 1.429 1_455 S
C1528 C1526 1.419 . S
C1528 C1529 1.363 . S
C1528 H1531 0.929 . S
C1529 C1528 1.363 . S
C1529 C1535 1.449 . S
H1530 C1526 0.930 . S
H1531 C1528 0.929 . S
S1532 N1533 1.613 . S
S1532 N1534 1.610 . S
N1533 S1532 1.613 . S
N1533 C1536 1.350 . S
N1534 S1532 1.610 . S
N1534 C1535 1.320 1_655 S
C1535 C1529 1.449 . S
C1535 N1534 1.320 1_455 S
C1535 C1536 1.443 1_455 S
C1536 C1527 1.429 1_655 S
C1536 N1533 1.350 . S
C1536 C1535 1.443 1_655 S
C1537 C1538 1.381 . S
C1537 C1539 1.437 . S
C1537 H1541 0.899 1_655 S
C1538 C1537 1.381 . S
C1538 C1547 1.429 . S
C1539 C1537 1.437 . S
C1539 C1540 1.363 . S
C1539 H1542 0.929 . S
C1540 C1539 1.363 . S
C1540 C1546 1.428 . S
H1541 C1537 0.899 1_455 S
H1542 C1539 0.929 . S
S1543 N1544 1.613 . S
S1543 N1545 1.610 . S
N1544 S1543 1.613 . S
N1544 C1547 1.350 . S
N1545 S1543 1.610 . S
N1545 C1546 1.351 . S
C1546 C1540 1.428 . S
C1546 N1545 1.351 . S
C1546 C1547 1.434 . S
C1547 C1538 1.429 . S
C1547 N1544 1.350 . S
C1547 C1546 1.434 . S
C1548 C1549 1.369 . S
C1548 C1550 1.419 . S
C1548 H1552 0.930 . S
C1549 C1548 1.369 . S
C1549 C1558 1.429 . S
C1550 C1548 1.419 . S
C1550 C1551 1.363 . S
C1550 H1553 0.929 . S
C1551 C1550 1.363 . S
C1551 C1557 1.428 . S
H1552 C1548 0.930 . S
H1553 C1550 0.929 . S
S1554 N1555 1.613 . S
S1554 N1556 1.610 . S
N1555 S1554 1.613 . S
N1555 C1558 1.350 . S
N1556 S1554 1.610 . S
N1556 C1557 1.351 . S
C1557 C1551 1.428 . S
C1557 N1556 1.351 . S
C1557 C1558 1.434 . S
C1558 C1549 1.429 . S
C1558 N1555 1.350 . S
C1558 C1557 1.434 . S
C1559 C1560 1.369 . S
C1559 C1561 1.419 . S
C1559 H1563 0.930 . S
C1560 C1559 1.369 . S
C1560 C1569 1.429 . S
C1561 C1559 1.419 . S
C1561 C1562 1.363 . S
C1561 H1564 0.929 . S
C1562 C1561 1.363 . S
C1562 C1568 1.428 . S
H1563 C1559 0.930 . S
H1564 C1561 0.929 . S
S1565 N1566 1.613 . S
S1565 N1567 1.610 . S
N1566 S1565 1.613 . S
N1566 C1569 1.350 . S
N1567 S1565 1.610 . S
N1567 C1568 1.351 . S
C1568 C1562 1.428 . S
C1568 N1567 1.351 . S
C1568 C1569 1.434 . S
C1569 C1560 1.429 . S
C1569 N1566 1.350 . S
C1569 C1568 1.434 . S
C1570 C1571 1.369 . S
C1570 C1572 1.419 . S
C1570 H1574 0.930 . S
C1571 C1570 1.369 . S
C1571 C1580 1.429 . S
C1572 C1570 1.419 . S
C1572 C1573 1.363 . S
C1572 H1575 0.929 . S
C1573 C1572 1.363 . S
C1573 C1579 1.428 . S
H1574 C1570 0.930 . S
H1575 C1572 0.929 . S
S1576 N1577 1.613 . S
S1576 N1578 1.610 . S
N1577 S1576 1.613 . S
N1577 C1580 1.350 . S
N1578 S1576 1.610 . S
N1578 C1579 1.351 . S
C1579 C1573 1.428 . S
C1579 N1578 1.351 . S
C1579 C1580 1.434 . S
C1580 C1571 1.429 . S
C1580 N1577 1.350 . S
C1580 C1579 1.434 . S
C1581 C1582 1.369 . S
C1581 C1583 1.419 . S
C1581 H1585 0.930 . S
C1582 C1581 1.369 . S
C1582 C1591 1.429 . S
C1583 C1581 1.419 . S
C1583 C1584 1.363 . S
C1583 H1586 0.929 . S
C1584 C1583 1.363 . S
C1584 C1590 1.428 . S
H1585 C1581 0.930 . S
H1586 C1583 0.929 . S
S1587 N1588 1.613 . S
S1587 N1589 1.610 . S
N1588 S1587 1.613 . S
N1588 C1591 1.350 . S
N1589 S1587 1.610 . S
N1589 C1590 1.351 . S
C1590 C1584 1.428 . S
C1590 N1589 1.351 . S
C1590 C1591 1.434 . S
C1591 C1582 1.429 . S
C1591 N1588 1.350 . S
C1591 C1590 1.434 . S
C1592 C1593 1.369 . S
C1592 C1594 1.419 . S
C1592 H1596 0.930 . S
C1593 C1592 1.369 . S
C1593 C1602 1.429 . S
C1594 C1592 1.419 . S
C1594 C1595 1.363 . S
C1594 H1597 0.929 . S
C1595 C1594 1.363 . S
C1595 C1601 1.428 . S
H1596 C1592 0.930 . S
H1597 C1594 0.929 . S
S1598 N1599 1.613 . S
S1598 N1600 1.610 . S
N1599 S1598 1.613 . S
N1599 C1602 1.350 . S
N1600 S1598 1.610 . S
N1600 C1601 1.351 . S
C1601 C1595 1.428 . S
C1601 N1600 1.351 . S
C1601 C1602 1.434 . S
C1602 C1593 1.429 . S
C1602 N1599 1.350 . S
C1602 C1601 1.434 . S
C1603 C1604 1.369 . S
C1603 C1605 1.419 . S
C1603 H1607 0.930 . S
C1604 C1603 1.369 . S
C1604 C1613 1.429 1_554 S
C1605 C1603 1.419 . S
C1605 C1606 1.363 1_554 S
C1605 H1608 0.929 . S
C1606 C1605 1.363 1_556 S
C1606 C1612 1.428 . S
H1607 C1603 0.930 . S
H1608 C1605 0.929 . S
S1609 N1610 1.613 . S
S1609 N1611 1.610 . S
N1610 S1609 1.613 . S
N1610 C1613 1.350 . S
N1611 S1609 1.610 . S
N1611 C1612 1.351 . S
C1612 C1606 1.428 . S
C1612 N1611 1.351 . S
C1612 C1613 1.434 . S
C1613 C1604 1.429 1_556 S
C1613 N1610 1.350 . S
C1613 C1612 1.434 . S
C1614 C1615 1.369 . S
C1614 C1616 1.419 . S
C1614 H1618 0.930 . S
C1615 C1614 1.369 . S
C1615 C1624 1.429 . S
C1616 C1614 1.419 . S
C1616 C1617 1.363 . S
C1616 H1619 0.929 . S
C1617 C1616 1.363 . S
C1617 C1623 1.428 . S
H1618 C1614 0.930 . S
H1619 C1616 0.929 . S
S1620 N1621 1.613 . S
S1620 N1622 1.610 . S
N1621 S1620 1.613 . S
N1621 C1624 1.350 . S
N1622 S1620 1.610 . S
N1622 C1623 1.351 . S
C1623 C1617 1.428 . S
C1623 N1622 1.351 . S
C1623 C1624 1.434 . S
C1624 C1615 1.429 . S
C1624 N1621 1.350 . S
C1624 C1623 1.434 . S
C1625 C1626 1.369 . S
C1625 C1627 1.419 . S
C1625 H1629 0.930 . S
C1626 C1625 1.369 . S
C1626 C1635 1.429 . S
C1627 C1625 1.419 . S
C1627 C1628 1.363 . S
C1627 H1630 0.929 . S
C1628 C1627 1.363 . S
C1628 C1634 1.428 . S
H1629 C1625 0.930 . S
H1630 C1627 0.929 . S
S1631 N1632 1.613 . S
S1631 N1633 1.610 . S
N1632 S1631 1.613 . S
N1632 C1635 1.350 . S
N1633 S1631 1.610 . S
N1633 C1634 1.351 . S
C1634 C1628 1.428 . S
C1634 N1633 1.351 . S
C1634 C1635 1.434 . S
C1635 C1626 1.429 . S
C1635 N1632 1.350 . S
C1635 C1634 1.434 . S
C1636 C1637 1.369 . S
C1636 C1638 1.419 . S
C1636 H1640 0.930 . S
C1637 C1636 1.369 . S
C1637 C1646 1.429 . S
C1638 C1636 1.419 . S
C1638 C1639 1.363 . S
C1638 H1641 0.929 . S
C1639 C1638 1.363 . S
C1639 C1645 1.428 . S
H1640 C1636 0.930 . S
H1641 C1638 0.929 . S
S1642 N1643 1.613 . S
S1642 N1644 1.610 . S
N1643 S1642 1.613 . S
N1643 C1646 1.350 . S
N1644 S1642 1.610 . S
N1644 C1645 1.351 . S
C1645 C1639 1.428 . S
C1645 N1644 1.351 . S
C1645 C1646 1.434 . S
C1646 C1637 1.429 . S
C1646 N1643 1.350 . S
C1646 C1645 1.434 . S
C1647 C1648 1.369 . S
C1647 C1649 1.419 . S
C1647 H1651 0.930 . S
C1648 C1647 1.369 . S
C1648 C1657 1.429 . S
C1649 C1647 1.419 . S
C1649 C1650 1.363 . S
C1649 H1652 0.929 . S
C1650 C1649 1.363 . S
C1650 C1656 1.428 . S
H1651 C1647 0.930 . S
H1652 C1649 0.929 . S
S1653 N1654 1.613 . S
S1653 N1655 1.610 . S
N1654 S1653 1.613 . S
N1654 C1657 1.350 . S
N1655 S1653 1.610 . S
N1655 C1656 1.351 . S
C1656 C1650 1.428 . S
C1656 N1655 1.351 . S
C1656 C1657 1.434 . S
C1657 C1648 1.429 . S
C1657 N1654 1.350 . S
C1657 C1656 1.434 . S
C1658 C1659 1.369 . S
C1658 C1660 1.419 . S
C1658 H1662 0.930 . S
C1659 C1658 1.369 . S
C1659 C1668 1.429 . S
C1660 C1658 1.419 . S
C1660 C1661 1.363 . S
C1660 H1663 0.929 . S
C1661 C1660 1.363 . S
C1661 C1667 1.428 . S
H1662 C1658 0.930 . S
H1663 C1660 0.929 . S
S1664 N1665 1.613 . S
S1664 N1666 1.610 . S
N1665 S1664 1.613 . S
N1665 C1668 1.350 . S
N1666 S1664 1.610 . S
N1666 C1667 1.351 . S
C1667 C1661 1.428 . S
C1667 N1666 1.351 . S
C1667 C1668 1.434 . S
C1668 C1659 1.429 . S
C1668 N1665 1.350 . S
C1668 C1667 1.434 . S
C1669 C1670 1.369 . S
C1669 C1671 1.419 . S
C1669 H1673 0.930 . S
C1670 C1669 1.369 . S
C1670 C1679 1.429 . S
C1671 C1669 1.419 . S
C1671 C1672 1.363 . S
C1671 H1674 0.929 . S
C1672 C1671 1.363 . S
C1672 C1678 1.428 . S
H1673 C1669 0.930 . S
H1674 C1671 0.929 . S
S1675 N1676 1.613 . S
S1675 N1677 1.610 . S
N1676 S1675 1.613 . S
N1676 C1679 1.350 . S
N1677 S1675 1.610 . S
N1677 C1678 1.351 . S
C1678 C1672 1.428 . S
C1678 N1677 1.351 . S
C1678 C1679 1.434 . S
C1679 C1670 1.429 . S
C1679 N1676 1.350 . S
C1679 C1678 1.434 . S
C1680 C1681 1.369 . S
C1680 C1682 1.419 . S
C1680 H1684 0.930 . S
C1681 C1680 1.369 . S
C1681 C1690 1.429 . S
C1682 C1680 1.419 . S
C1682 C1683 1.363 . S
C1682 H1685 0.929 . S
C1683 C1682 1.363 . S
C1683 C1689 1.428 . S
H1684 C1680 0.930 . S
H1685 C1682 0.929 . S
S1686 N1687 1.613 . S
S1686 N1688 1.610 . S
N1687 S1686 1.613 . S
N1687 C1690 1.350 . S
N1688 S1686 1.610 . S
N1688 C1689 1.351 . S
C1689 C1683 1.428 . S
C1689 N1688 1.351 . S
C1689 C1690 1.434 . S
C1690 C1681 1.429 . S
C1690 N1687 1.350 . S
C1690 C1689 1.434 . S
C1691 C1692 1.369 . S
C1691 C1693 1.419 . S
C1691 H1695 0.930 . S
C1692 C1691 1.369 . S
C1692 C1701 1.429 . S
C1693 C1691 1.419 . S
C1693 C1694 1.363 . S
C1693 H1696 0.929 . S
C1694 C1693 1.363 . S
C1694 C1700 1.428 . S
H1695 C1691 0.930 . S
H1696 C1693 0.929 . S
S1697 N1698 1.613 . S
S1697 N1699 1.610 . S
N1698 S1697 1.613 . S
N1698 C1701 1.350 . S
N1699 S1697 1.610 . S
N1699 C1700 1.351 . S
C1700 C1694 1.428 . S
C1700 N1699 1.351 . S
C1700 C1701 1.434 . S
C1701 C1692 1.429 . S
C1701 N1698 1.350 . S
C1701 C1700 1.434 . S
C1702 C1703 1.369 . S
C1702 C1704 1.419 . S
C1702 H1706 0.930 . S
C1703 C1702 1.369 . S
C1703 C1712 1.429 . S
C1704 C1702 1.419 . S
C1704 C1705 1.363 . S
C1704 H1707 0.929 . S
C1705 C1704 1.363 . S
C1705 C1711 1.428 . S
H1706 C1702 0.930 . S
H1707 C1704 0.929 . S
S1708 N1709 1.613 . S
S1708 N1710 1.610 . S
N1709 S1708 1.613 . S
N1709 C1712 1.350 . S
N1710 S1708 1.610 . S
N1710 C1711 1.351 . S
C1711 C1705 1.428 . S
C1711 N1710 1.351 . S
C1711 C1712 1.434 . S
C1712 C1703 1.429 . S
C1712 N1709 1.350 . S
C1712 C1711 1.434 . S
C1713 C1714 1.369 . S
C1713 C1715 1.419 1_565 S
C1713 H1717 0.930 1_554 S
C1714 C1713 1.369 . S
C1714 C1723 1.429 . S
C1715 C1713 1.419 1_545 S
C1715 C1716 1.363 . S
C1715 H1718 0.929 . S
C1716 C1715 1.363 . S
C1716 C1722 1.428 . S
H1717 C1713 0.930 1_556 S
H1718 C1715 0.929 . S
S1719 N1720 1.613 . S
S1719 N1721 1.610 1_565 S
N1720 S1719 1.613 . S
N1720 C1723 1.350 . S
N1721 S1719 1.610 1_545 S
N1721 C1722 1.351 . S
C1722 C1716 1.428 . S
C1722 N1721 1.351 . S
C1722 C1723 1.434 1_545 S
C1723 C1714 1.429 . S
C1723 N1720 1.350 . S
C1723 C1722 1.434 1_565 S
C1724 C1725 1.369 . S
C1724 C1726 1.419 . S
C1724 H1728 0.930 . S
C1725 C1724 1.369 . S
C1725 C1734 1.429 . S
C1726 C1724 1.419 . S
C1726 C1727 1.363 . S
C1726 H1729 0.929 . S
C1727 C1726 1.363 . S
C1727 C1733 1.428 . S
H1728 C1724 0.930 . S
H1729 C1726 0.929 . S
S1730 N1731 1.613 . S
S1730 N1732 1.610 . S
N1731 S1730 1.613 . S
N1731 C1734 1.350 . S
N1732 S1730 1.610 . S
N1732 C1733 1.351 . S
C1733 C1727 1.428 . S
C1733 N1732 1.351 . S
C1733 C1734 1.434 . S
C1734 C1725 1.429 . S
C1734 N1731 1.350 . S
C1734 C1733 1.434 . S
C1735 C1736 1.369 . S
C1735 C1737 1.419 . S
C1735 H1739 0.930 . S
C1736 C1735 1.369 . S
C1736 C1745 1.429 . S
C1737 C1735 1.419 . S
C1737 C1738 1.363 . S
C1737 H1740 0.929 . S
C1738 C1737 1.363 . S
C1738 C1744 1.428 . S
H1739 C1735 0.930 . S
H1740 C1737 0.929 . S
S1741 N1742 1.613 . S
S1741 N1743 1.610 . S
N1742 S1741 1.613 . S
N1742 C1745 1.350 . S
N1743 S1741 1.610 . S
N1743 C1744 1.351 . S
C1744 C1738 1.428 . S
C1744 N1743 1.351 . S
C1744 C1745 1.434 . S
C1745 C1736 1.429 . S
C1745 N1742 1.350 . S
C1745 C1744 1.434 . S
C1746 C1747 1.369 . S
C1746 C1748 1.419 . S
C1746 H1750 0.930 . S
C1747 C1746 1.369 . S
C1747 C1756 1.429 . S
C1748 C1746 1.419 . S
C1748 C1749 1.363 . S
C1748 H1751 0.929 . S
C1749 C1748 1.363 . S
C1749 C1755 1.428 . S
H1750 C1746 0.930 . S
H1751 C1748 0.929 . S
S1752 N1753 1.613 . S
S1752 N1754 1.610 . S
N1753 S1752 1.613 . S
N1753 C1756 1.350 . S
N1754 S1752 1.610 . S
N1754 C1755 1.351 . S
C1755 C1749 1.428 . S
C1755 N1754 1.351 . S
C1755 C1756 1.434 . S
C1756 C1747 1.429 . S
C1756 N1753 1.350 . S
C1756 C1755 1.434 . S
C1757 C1758 1.369 . S
C1757 C1759 1.419 . S
C1757 H1761 0.930 . S
C1758 C1757 1.369 . S
C1758 C1767 1.429 . S
C1759 C1757 1.419 . S
C1759 C1760 1.363 . S
C1759 H1762 0.929 . S
C1760 C1759 1.363 . S
C1760 C1766 1.428 . S
H1761 C1757 0.930 . S
H1762 C1759 0.929 . S
S1763 N1764 1.613 . S
S1763 N1765 1.610 . S
N1764 S1763 1.613 . S
N1764 C1767 1.350 . S
N1765 S1763 1.610 . S
N1765 C1766 1.351 . S
C1766 C1760 1.428 . S
C1766 N1765 1.351 . S
C1766 C1767 1.434 . S
C1767 C1758 1.429 . S
C1767 N1764 1.350 . S
C1767 C1766 1.434 . S
C1768 C1769 1.369 . S
C1768 C1770 1.419 . S
C1768 H1772 0.930 . S
C1769 C1768 1.369 . S
C1769 C1778 1.429 . S
C1770 C1768 1.419 . S
C1770 C1771 1.363 . S
C1770 H1773 0.929 . S
C1771 C1770 1.363 . S
C1771 C1777 1.428 . S
H1772 C1768 0.930 . S
H1773 C1770 0.929 . S
S1774 N1775 1.613 . S
S1774 N1776 1.610 . S
N1775 S1774 1.613 . S
N1775 C1778 1.350 . S
N1776 S1774 1.610 . S
N1776 C1777 1.351 . S
C1777 C1771 1.428 . S
C1777 N1776 1.351 . S
C1777 C1778 1.434 . S
C1778 C1769 1.429 . S
C1778 N1775 1.350 . S
C1778 C1777 1.434 . S
C1779 C1780 1.369 . S
C1779 C1781 1.419 . S
C1779 H1783 0.930 . S
C1780 C1779 1.369 . S
C1780 C1789 1.429 . S
C1781 C1779 1.419 . S
C1781 C1782 1.363 . S
C1781 H1784 0.929 . S
C1782 C1781 1.363 . S
C1782 C1788 1.428 . S
H1783 C1779 0.930 . S
H1784 C1781 0.929 . S
S1785 N1786 1.613 . S
S1785 N1787 1.610 . S
N1786 S1785 1.613 . S
N1786 C1789 1.350 . S
N1787 S1785 1.610 . S
N1787 C1788 1.351 . S
C1788 C1782 1.428 . S
C1788 N1787 1.351 . S
C1788 C1789 1.434 . S
C1789 C1780 1.429 . S
C1789 N1786 1.350 . S
C1789 C1788 1.434 . S
C1790 C1791 1.369 . S
C1790 C1792 1.419 . S
C1790 H1794 0.930 . S
C1791 C1790 1.369 . S
C1791 C1800 1.429 . S
C1792 C1790 1.419 . S
C1792 C1793 1.363 . S
C1792 H1795 0.929 . S
C1793 C1792 1.363 . S
C1793 C1799 1.428 . S
H1794 C1790 0.930 . S
H1795 C1792 0.929 . S
S1796 N1797 1.613 . S
S1796 N1798 1.610 . S
N1797 S1796 1.613 . S
N1797 C1800 1.350 . S
N1798 S1796 1.610 . S
N1798 C1799 1.351 . S
C1799 C1793 1.428 . S
C1799 N1798 1.351 . S
C1799 C1800 1.434 . S
C1800 C1791 1.429 . S
C1800 N1797 1.350 . S
C1800 C1799 1.434 . S
C1801 C1802 1.369 . S
C1801 C1803 1.419 . S
C1801 H1805 0.930 . S
C1802 C1801 1.369 . S
C1802 C1811 1.429 . S
C1803 C1801 1.419 . S
C1803 C1804 1.363 . S
C1803 H1806 0.929 . S
C1804 C1803 1.363 . S
C1804 C1810 1.428 . S
H1805 C1801 0.930 . S
H1806 C1803 0.929 . S
S1807 N1808 1.613 . S
S1807 N1809 1.610 . S
N1808 S1807 1.613 . S
N1808 C1811 1.350 . S
N1809 S1807 1.610 . S
N1809 C1810 1.351 . S
C1810 C1804 1.428 . S
C1810 N1809 1.351 . S
C1810 C1811 1.434 . S
C1811 C1802 1.429 . S
C1811 N1808 1.350 . S
C1811 C1810 1.434 . S
C1812 C1813 1.369 . S
C1812 C1814 1.419 . S
C1812 H1816 0.930 . S
C1813 C1812 1.369 . S
C1813 C1822 1.429 . S
C1814 C1812 1.419 . S
C1814 C1815 1.363 . S
C1814 H1817 0.929 . S
C1815 C1814 1.363 . S
C1815 C1821 1.428 . S
H1816 C1812 0.930 . S
H1817 C1814 0.929 . S
S1818 N1819 1.613 . S
S1818 N1820 1.610 . S
N1819 S1818 1.613 . S
N1819 C1822 1.350 . S
N1820 S1818 1.610 . S
N1820 C1821 1.351 . S
C1821 C1815 1.428 . S
C1821 N1820 1.351 . S
C1821 C1822 1.434 . S
C1822 C1813 1.429 . S
C1822 N1819 1.350 . S
C1822 C1821 1.434 . S
C1823 C1824 1.369 . S
C1823 C1825 1.419 . S
C1823 H1827 0.930 . S
C1824 C1823 1.369 . S
C1824 C1833 1.429 . S
C1825 C1823 1.419 . S
C1825 C1826 1.363 . S
C1825 H1828 0.929 . S
C1826 C1825 1.363 . S
C1826 C1832 1.428 . S
H1827 C1823 0.930 . S
H1828 C1825 0.929 . S
S1829 N1830 1.613 . S
S1829 N1831 1.610 . S
N1830 S1829 1.613 . S
N1830 C1833 1.350 . S
N1831 S1829 1.610 . S
N1831 C1832 1.351 . S
C1832 C1826 1.428 . S
C1832 N1831 1.351 . S
C1832 C1833 1.434 . S
C1833 C1824 1.429 . S
C1833 N1830 1.350 . S
C1833 C1832 1.434 . S
C1834 C1835 1.369 . S
C1834 C1836 1.419 . S
C1834 H1838 0.930 . S
C1835 C1834 1.369 . S
C1835 C1844 1.429 . S
C1836 C1834 1.419 . S
C1836 C1837 1.363 . S
C1836 H1839 0.929 . S
C1837 C1836 1.363 . S
C1837 C1843 1.428 . S
H1838 C1834 0.930 . S
H1839 C1836 0.929 . S
S1840 N1841 1.613 . S
S1840 N1842 1.610 . S
N1841 S1840 1.613 . S
N1841 C1844 1.350 . S
N1842 S1840 1.610 . S
N1842 C1843 1.351 . S
C1843 C1837 1.428 . S
C1843 N1842 1.351 . S
C1843 C1844 1.434 . S
C1844 C1835 1.429 . S
C1844 N1841 1.350 . S
C1844 C1843 1.434 . S
C1845 C1846 1.369 . S
C1845 C1847 1.419 . S
C1845 H1849 0.930 . S
C1846 C1845 1.369 . S
C1846 C1855 1.429 . S
C1847 C1845 1.419 . S
C1847 C1848 1.363 . S
C1847 H1850 0.929 . S
C1848 C1847 1.363 . S
C1848 C1854 1.428 . S
H1849 C1845 0.930 . S
H1850 C1847 0.929 . S
S1851 N1852 1.613 . S
S1851 N1853 1.610 . S
N1852 S1851 1.613 . S
N1852 C1855 1.350 . S
N1853 S1851 1.610 . S
N1853 C1854 1.351 . S
C1854 C1848 1.428 . S
C1854 N1853 1.351 . S
C1854 C1855 1.434 . S
C1855 C1846 1.429 . S
C1855 N1852 1.350 . S
C1855 C1854 1.434 . S
C1856 C1857 1.369 . S
C1856 C1858 1.419 . S
C1856 H1860 0.930 . S
C1857 C1856 1.369 . S
C1857 C1866 1.429 . S
C1858 C1856 1.419 . S
C1858 C1859 1.363 . S
C1858 H1861 0.929 . S
C1859 C1858 1.363 . S
C1859 C1865 1.428 . S
H1860 C1856 0.930 . S
H1861 C1858 0.929 . S
S1862 N1863 1.613 . S
S1862 N1864 1.610 . S
N1863 S1862 1.613 . S
N1863 C1866 1.350 . S
N1864 S1862 1.610 . S
N1864 C1865 1.351 . S
C1865 C1859 1.428 . S
C1865 N1864 1.351 . S
C1865 C1866 1.434 . S
C1866 C1857 1.429 . S
C1866 N1863 1.350 . S
C1866 C1865 1.434 . S
C1867 C1868 1.369 . S
C1867 C1869 1.419 . S
C1867 H1871 0.930 . S
C1868 C1867 1.369 . S
C1868 C1877 1.429 . S
C1869 C1867 1.419 . S
C1869 C1870 1.363 . S
C1869 H1872 0.929 . S
C1870 C1869 1.363 . S
C1870 C1876 1.428 . S
H1871 C1867 0.930 . S
H1872 C1869 0.929 . S
S1873 N1874 1.613 . S
S1873 N1875 1.610 . S
N1874 S1873 1.613 . S
N1874 C1877 1.350 . S
N1875 S1873 1.610 . S
N1875 C1876 1.351 . S
C1876 C1870 1.428 . S
C1876 N1875 1.351 . S
C1876 C1877 1.434 . S
C1877 C1868 1.429 . S
C1877 N1874 1.350 . S
C1877 C1876 1.434 . S
C1878 C1879 1.369 . S
C1878 C1880 1.419 1_556 S
C1878 H1882 0.930 . S
C1879 C1878 1.369 . S
C1879 C1888 1.429 . S
C1880 C1878 1.419 1_554 S
C1880 C1881 1.363 . S
C1880 H1883 0.929 . S
C1881 C1880 1.363 . S
C1881 C1887 1.428 1_554 S
H1882 C1878 0.930 . S
H1883 C1880 0.929 . S
S1884 N1885 1.613 . S
S1884 N1886 1.610 1_655 S
N1885 S1884 1.613 . S
N1885 C1888 1.350 . S
N1886 S1884 1.610 1_455 S
N1886 C1887 1.351 1_455 S
C1887 C1881 1.428 1_556 S
C1887 N1886 1.351 1_655 S
C1887 C1888 1.434 . S
C1888 C1879 1.429 . S
C1888 N1885 1.350 . S
C1888 C1887 1.434 . S
C1889 C1890 1.369 . S
C1889 C1891 1.419 . S
C1889 H1893 0.930 . S
C1890 C1889 1.369 . S
C1890 C1899 1.429 . S
C1891 C1889 1.419 . S
C1891 C1892 1.363 . S
C1891 H1894 0.929 . S
C1892 C1891 1.363 . S
C1892 C1898 1.428 . S
H1893 C1889 0.930 . S
H1894 C1891 0.929 . S
S1895 N1896 1.613 . S
S1895 N1897 1.610 . S
N1896 S1895 1.613 . S
N1896 C1899 1.350 . S
N1897 S1895 1.610 . S
N1897 C1898 1.351 . S
C1898 C1892 1.428 . S
C1898 N1897 1.351 . S
C1898 C1899 1.434 . S
C1899 C1890 1.429 . S
C1899 N1896 1.350 . S
C1899 C1898 1.434 . S
C1900 C1901 1.369 . S
C1900 C1902 1.419 . S
C1900 H1904 0.930 . S
C1901 C1900 1.369 . S
C1901 C1910 1.429 . S
C1902 C1900 1.419 . S
C1902 C1903 1.363 . S
C1902 H1905 0.929 . S
C1903 C1902 1.363 . S
C1903 C1909 1.428 . S
H1904 C1900 0.930 . S
H1905 C1902 0.929 . S
S1906 N1907 1.613 . S
S1906 N1908 1.610 . S
N1907 S1906 1.613 . S
N1907 C1910 1.350 . S
N1908 S1906 1.610 . S
N1908 C1909 1.351 . S
C1909 C1903 1.428 . S
C1909 N1908 1.351 . S
C1909 C1910 1.434 . S
C1910 C1901 1.429 . S
C1910 N1907 1.350 . S
C1910 C1909 1.434 . S
C1911 C1912 1.369 . S
C1911 C1913 1.419 . S
C1911 H1915 0.930 . S
C1912 C1911 1.369 . S
C1912 C1921 1.429 . S
C1913 C1911 1.419 . S
C1913 C1914 1.363 . S
C1913 H1916 0.929 . S
C1914 C1913 1.363 . S
C1914 C1920 1.428 . S
H1915 C1911 0.930 . S
H1916 C1913 0.929 . S
S1917 N1918 1.613 . S
S1917 N1919 1.610 . S
N1918 S1917 1.613 . S
N1918 C1921 1.350 . S
N1919 S1917 1.610 . S
N1919 C1920 1.351 . S
C1920 C1914 1.428 . S
C1920 N1919 1.351 . S
C1920 C1921 1.434 . S
C1921 C1912 1.429 . S
C1921 N1918 1.350 . S
C1921 C1920 1.434 . S
C1922 C1923 1.369 . S
C1922 C1924 1.419 . S
C1922 H1926 0.930 . S
C1923 C1922 1.369 . S
C1923 C1932 1.429 . S
C1924 C1922 1.419 . S
C1924 C1925 1.363 . S
C1924 H1927 0.929 . S
C1925 C1924 1.363 . S
C1925 C1931 1.428 . S
H1926 C1922 0.930 . S
H1927 C1924 0.929 . S
S1928 N1929 1.613 . S
S1928 N1930 1.610 . S
N1929 S1928 1.613 . S
N1929 C1932 1.350 . S
N1930 S1928 1.610 . S
N1930 C1931 1.351 . S
C1931 C1925 1.428 . S
C1931 N1930 1.351 . S
C1931 C1932 1.434 . S
C1932 C1923 1.429 . S
C1932 N1929 1.350 . S
C1932 C1931 1.434 . S
C1933 C1934 1.369 . S
C1933 C1935 1.419 . S
C1933 H1937 0.930 . S
C1934 C1933 1.369 . S
C1934 C1943 1.429 . S
C1935 C1933 1.419 . S
C1935 C1936 1.363 . S
C1935 H1938 0.929 . S
C1936 C1935 1.363 . S
C1936 C1942 1.428 . S
H1937 C1933 0.930 . S
H1938 C1935 0.929 . S
S1939 N1940 1.613 . S
S1939 N1941 1.610 . S
N1940 S1939 1.613 . S
N1940 C1943 1.350 . S
N1941 S1939 1.610 . S
N1941 C1942 1.351 . S
C1942 C1936 1.428 . S
C1942 N1941 1.351 . S
C1942 C1943 1.434 . S
C1943 C1934 1.429 . S
C1943 N1940 1.350 . S
C1943 C1942 1.434 . S
C1944 C1945 1.369 . S
C1944 C1946 1.419 . S
C1944 H1948 0.930 . S
C1945 C1944 1.369 . S
C1945 C1954 1.429 . S
C1946 C1944 1.419 . S
C1946 C1947 1.363 . S
C1946 H1949 0.929 . S
C1947 C1946 1.363 . S
C1947 C1953 1.428 . S
H1948 C1944 0.930 . S
H1949 C1946 0.929 . S
S1950 N1951 1.613 . S
S1950 N1952 1.610 . S
N1951 S1950 1.613 . S
N1951 C1954 1.350 . S
N1952 S1950 1.610 . S
N1952 C1953 1.351 . S
C1953 C1947 1.428 . S
C1953 N1952 1.351 . S
C1953 C1954 1.434 . S
C1954 C1945 1.429 . S
C1954 N1951 1.350 . S
C1954 C1953 1.434 . S
C1955 C1956 1.369 . S
C1955 C1957 1.419 . S
C1955 H1959 0.930 . S
C1956 C1955 1.369 . S
C1956 C1965 1.429 . S
C1957 C1955 1.419 . S
C1957 C1958 1.363 . S
C1957 H1960 0.929 1_565 S
C1958 C1957 1.363 . S
C1958 C1964 1.428 . S
H1959 C1955 0.930 . S
H1960 C1957 0.929 1_545 S
S1961 N1962 1.613 . S
S1961 N1963 1.610 . S
N1962 S1961 1.613 . S
N1962 C1965 1.350 . S
N1963 S1961 1.610 . S
N1963 C1964 1.351 . S
C1964 C1958 1.428 . S
C1964 N1963 1.351 . S
C1964 C1965 1.434 . S
C1965 C1956 1.429 . S
C1965 N1962 1.350 . S
C1965 C1964 1.434 . S
C1966 C1967 1.369 . S
C1966 C1968 1.419 . S
C1966 H1970 0.930 . S
C1967 C1966 1.369 . S
C1967 C1976 1.429 . S
C1968 C1966 1.419 . S
C1968 C1969 1.363 . S
C1968 H1971 0.929 . S
C1969 C1968 1.363 . S
C1969 C1975 1.428 . S
H1970 C1966 0.930 . S
H1971 C1968 0.929 . S
S1972 N1973 1.613 . S
S1972 N1974 1.610 . S
N1973 S1972 1.613 . S
N1973 C1976 1.350 . S
N1974 S1972 1.610 . S
N1974 C1975 1.351 . S
C1975 C1969 1.428 . S
C1975 N1974 1.351 . S
C1975 C1976 1.434 . S
C1976 C1967 1.429 . S
C1976 N1973 1.350 . S
C1976 C1975 1.434 . S
C1977 C1978 1.369 . S
C1977 C1979 1.419 . S
C1977 H1981 0.930 . S
C1978 C1977 1.369 . S
C1978 C1987 1.429 . S
C1979 C1977 1.419 . S
C1979 C1980 1.363 . S
C1979 H1982 0.929 . S
C1980 C1979 1.363 . S
C1980 C1986 1.428 . S
H1981 C1977 0.930 . S
H1982 C1979 0.929 . S
S1983 N1984 1.613 . S
S1983 N1985 1.610 . S
N1984 S1983 1.613 . S
N1984 C1987 1.350 . S
N1985 S1983 1.610 . S
N1985 C1986 1.351 . S
C1986 C1980 1.428 . S
C1986 N1985 1.351 . S
C1986 C1987 1.434 . S
C1987 C1978 1.429 . S
C1987 N1984 1.350 . S
C1987 C1986 1.434 . S
C1988 C1989 1.369 . S
C1988 C1990 1.419 . S
C1988 H1992 0.930 . S
C1989 C1988 1.369 . S
C1989 C1998 1.429 . S
C1990 C1988 1.419 . S
C1990 C1991 1.363 . S
C1990 H1993 0.929 . S
C1991 C1990 1.363 . S
C1991 C1997 1.428 . S
H1992 C1988 0.930 . S
H1993 C1990 0.929 . S
S1994 N1995 1.613 . S
S1994 N1996 1.610 . S
N1995 S1994 1.613 . S
N1995 C1998 1.350 . S
N1996 S1994 1.610 . S
N1996 C1997 1.351 . S
C1997 C1991 1.428 . S
C1997 N1996 1.351 . S
C1997 C1998 1.434 . S
C1998 C1989 1.429 . S
C1998 N1995 1.350 . S
C1998 C1997 1.434 . S
C1999 C2000 1.369 . S
C1999 C2001 1.419 . S
C1999 H2003 0.930 . S
C2000 C1999 1.369 . S
C2000 C2009 1.429 . S
C2001 C1999 1.419 . S
C2001 C2002 1.363 . S
C2001 H2004 0.929 . S
C2002 C2001 1.363 . S
C2002 C2008 1.428 . S
H2003 C1999 0.930 . S
H2004 C2001 0.929 . S
S2005 N2006 1.613 . S
S2005 N2007 1.610 . S
N2006 S2005 1.613 . S
N2006 C2009 1.350 . S
N2007 S2005 1.610 . S
N2007 C2008 1.351 . S
C2008 C2002 1.428 . S
C2008 N2007 1.351 . S
C2008 C2009 1.434 . S
C2009 C2000 1.429 . S
C2009 N2006 1.350 . S
C2009 C2008 1.434 . S
C2010 C2011 1.369 . S
C2010 C2012 1.419 . S
C2010 H2014 0.930 . S
C2011 C2010 1.369 . S
C2011 C2020 1.429 . S
C2012 C2010 1.419 . S
C2012 C2013 1.363 . S
C2012 H2015 0.929 . S
C2013 C2012 1.363 . S
C2013 C2019 1.428 . S
H2014 C2010 0.930 . S
H2015 C2012 0.929 . S
S2016 N2017 1.613 . S
S2016 N2018 1.610 . S
N2017 S2016 1.613 . S
N2017 C2020 1.350 . S
N2018 S2016 1.610 . S
N2018 C2019 1.351 . S
C2019 C2013 1.428 . S
C2019 N2018 1.351 . S
C2019 C2020 1.434 . S
C2020 C2011 1.429 . S
C2020 N2017 1.350 . S
C2020 C2019 1.434 . S
C2021 C2022 1.369 . S
C2021 C2023 1.419 . S
C2021 H2025 0.930 . S
C2022 C2021 1.369 . S
C2022 C2031 1.429 . S
C2023 C2021 1.419 . S
C2023 C2024 1.363 . S
C2023 H2026 0.929 . S
C2024 C2023 1.363 . S
C2024 C2030 1.428 . S
H2025 C2021 0.930 . S
H2026 C2023 0.929 . S
S2027 N2028 1.613 . S
S2027 N2029 1.610 . S
N2028 S2027 1.613 . S
N2028 C2031 1.350 . S
N2029 S2027 1.610 . S
N2029 C2030 1.351 . S
C2030 C2024 1.428 . S
C2030 N2029 1.351 . S
C2030 C2031 1.434 . S
C2031 C2022 1.429 . S
C2031 N2028 1.350 . S
C2031 C2030 1.434 . S
C977 C106 2.679 1_454 S
C979 C349 2.703 . S
C988 C65 2.150 . S
C990 C400 2.133 . S
C999 C79 2.033 . S
C1001 C429 2.001 . S
C1012 C473 1.290 . S
C1010 C90 1.287 . S
C1021 C21 1.210 . S
C1023 C513 1.213 . S
C1034 C549 1.691 . S
C1032 C35 1.720 . S
C1045 C599 2.094 . S
C1043 C50 2.079 . S
C1054 C6 2.391 . S
C1056 C629 2.415 . S
C1067 C359 2.282 . S
C1065 C232 2.273 . S
C1076 C245 0.908 . S
C1078 C402 0.934 . S
C1089 C439 1.497 . S
C1087 C274 1.477 . S
C1100 C469 1.492 . S
C1098 C175 1.493 . S
C1109 C231 1.401 . S
C1111 C509 1.397 . S
C1122 C559 1.043 . S
C1120 C246 1.029 . S
C1133 C593 0.892 . S
C1131 C273 0.887 . S
C1144 C639 2.212 . S
C1142 C176 2.199 . S
C1155 C353 1.549 . S
C1153 C160 1.568 . S
C1164 C289 1.810 . S
C1166 C679 1.825 . S
C1177 C713 1.591 . S
C1175 C328 1.567 . S
C1188 C749 1.064 . S
C1186 C317 1.133 . S
C1197 C118 1.648 . S
C1199 C633 1.619 . S
C1208 C132 1.622 . S
C1210 C433 1.640 . S
C1219 C331 1.760 . S
C1221 C799 1.769 . S
C1232 C818 0.590 . S
C1230 C303 0.566 . S
C1243 C360 2.408 1_565 S
C1241 C63 2.410 . S
C1254 C829 2.581 . S
C1252 C107 2.506 . S
C1263 C92 1.885 . S
C1265 C440 1.939 . S
C1274 C78 1.736 . S
C1276 C802 1.658 . S
C1287 C522 1.542 . S
C1285 C8 1.616 . S
C1296 C51 1.897 . S
C1298 C720 1.933 . S
C1309 C578 2.477 1_566 S
C1307 C37 2.376 . S
C1320 C880 2.491 . S
C1318 C20 2.490 . S
C1331 C338 2.085 1_556 S
C1329 C147 2.098 . S
C1342 C833 0.927 . S
C1340 C316 0.959 . S
C1351 C119 1.348 . S
C1353 C418 1.460 . S
C1362 C288 1.638 . S
C1364 C800 1.655 . S
C1373 C148 1.692 . S
C1375 C520 1.703 . S
C1386 C698 1.084 . S
C1384 C315 1.009 . S
C1395 C120 1.162 . S
C1397 C602 1.099 . S
C1406 C287 2.090 . S
C1408 C858 2.077 . S
C1417 C188 1.460 . S
C1419 C362 1.396 . S
C1428 C177 2.042 . S
C1430 C658 2.086 . S
C1439 C258 1.560 . S
C1441 C562 1.568 . S
C1450 C247 1.039 . S
C1452 C760 1.031 . S
C1463 C882 1.495 1_545 S
C1461 C272 1.604 . S
C1472 C216 1.544 . S
C1474 C442 1.522 . S
C1485 C458 2.019 . S
C1483 C261 1.968 . S
C1496 C399 0.584 . S
C1494 C205 0.587 . S
C1505 C76 2.281 . S
C1507 C909 2.306 . S
C1518 C840 2.199 . S
C1516 C93 2.223 . S
C1527 C105 1.704 . S
C1529 C949 1.670 . S
C1538 C62 1.300 1_655 S
C1540 C793 1.309 . S
C1549 C49 1.189 . S
C1551 C673 1.192 . S
C1562 C709 2.038 . S
C1560 C9 2.073 . S
C1573 C759 2.021 . S
C1571 C22 2.004 . S
C1584 C869 2.815 . S
C1582 C36 2.797 . S
C1595 C919 2.226 . S
C1593 C260 2.214 . S
C1604 C189 0.842 . S
C1606 C842 0.834 . S
C1617 C959 1.456 . S
C1615 C204 1.429 . S
C1628 C789 1.354 . S
C1626 C217 1.355 . S
C1639 C669 1.538 1_556 S
C1637 C259 1.530 . S
C1648 C190 1.077 . S
C1650 C719 1.076 . S
C1661 C753 0.993 . S
C1659 C203 0.985 . S
C1670 C218 2.255 . S
C1672 C879 2.271 . S
C1683 C913 1.573 . S
C1681 C314 1.566 . S
C1692 C135 1.850 . S
C1694 C519 1.854 . S
C1705 C553 1.610 . S
C1703 C146 1.597 1_565 S
C1716 C589 1.099 . S
C1714 C163 1.147 . S
C1727 C873 1.622 . S
C1725 C300 1.636 . S
C1736 C286 1.659 . S
C1738 C953 1.662 . S
C1749 C479 1.746 . S
C1747 C149 1.727 . S
C1760 C378 0.618 . S
C1758 C121 0.562 . S
C1769 C91 2.414 . S
C1771 C920 2.414 . S
C1782 C389 2.199 . S
C1780 C77 2.021 . S
C1791 C64 1.874 . S
C1793 C960 1.946 . S
C1802 C104 1.426 . S
C1804 C482 1.448 . S
C1813 C34 1.344 . S
C1815 C682 1.335 . S
C1826 C560 1.925 . S
C1824 C23 1.867 . S
C1835 C7 1.868 . S
C1837 C738 2.081 . S
C1846 C48 2.488 . S
C1848 C640 2.495 . S
C1859 C898 2.035 . S
C1857 C329 2.056 . S
C1868 C162 0.991 . S
C1870 C393 0.941 . S
C1881 C938 1.415 1_655 S
C1879 C301 1.304 . S
C1890 C134 1.635 . S
C1892 C480 1.661 . S
C1901 C330 1.696 . S
C1903 C680 1.714 . S
C1914 C538 1.042 . S
C1912 C161 0.982 . S
C1923 C302 1.155 . S
C1925 C762 1.100 . S
C1936 C618 2.022 . S
C1934 C133 2.044 . S
C1947 C922 1.458 . S
C1945 C244 1.513 . S
C1958 C498 2.082 1_565 S
C1956 C219 2.019 . S
C1967 C230 1.478 . S
C1969 C722 1.453 . S
C1980 C600 1.040 . S
C1978 C191 1.061 . S
C1989 C202 1.668 . S
C1991 C642 1.601 . S
C2000 C174 1.641 . S
C2002 C962 1.618 . S
C2013 C778 2.016 . S
C2011 C233 1.945 . S
C2024 C839 0.570 . S
C2022 C275 0.556 . S
