# Generated by pormake.
# Topology soc, (4,6)-cn, num edge types: 1
# Building blocks:
#     Node 0, Type 0, BuildingBlock: ESEHIV_clean_sbu_0, # of connection points: 4
#     Node 1, Type 0, BuildingBlock: ESEHIV_clean_sbu_0, # of connection points: 4
#     Node 2, Type 0, BuildingBlock: ESEHIV_clean_sbu_0, # of connection points: 4
#     Node 3, Type 0, BuildingBlock: ESEHIV_clean_sbu_0, # of connection points: 4
#     Node 4, Type 0, BuildingBlock: ESEHIV_clean_sbu_0, # of connection points: 4
#     Node 5, Type 0, BuildingBlock: ESEHIV_clean_sbu_0, # of connection points: 4
#     Node 6, Type 0, BuildingBlock: ESEHIV_clean_sbu_0, # of connection points: 4
#     Node 7, Type 0, BuildingBlock: ESEHIV_clean_sbu_0, # of connection points: 4
#     Node 8, Type 0, BuildingBlock: ESEHIV_clean_sbu_0, # of connection points: 4
#     Node 9, Type 0, BuildingBlock: ESEHIV_clean_sbu_0, # of connection points: 4
#     Node 10, Type 0, BuildingBlock: ESEHIV_clean_sbu_0, # of connection points: 4
#     Node 11, Type 0, BuildingBlock: ESEHIV_clean_sbu_0, # of connection points: 4
#     Node 12, Type 1, BuildingBlock: KUMBOL_clean_sbu_0, # of connection points: 6
#     Node 13, Type 1, BuildingBlock: KUMBOL_clean_sbu_0, # of connection points: 6
#     Node 14, Type 1, BuildingBlock: KUMBOL_clean_sbu_0, # of connection points: 6
#     Node 15, Type 1, BuildingBlock: KUMBOL_clean_sbu_0, # of connection points: 6
#     Node 16, Type 1, BuildingBlock: KUMBOL_clean_sbu_0, # of connection points: 6
#     Node 17, Type 1, BuildingBlock: KUMBOL_clean_sbu_0, # of connection points: 6
#     Node 18, Type 1, BuildingBlock: KUMBOL_clean_sbu_0, # of connection points: 6
#     Node 19, Type 1, BuildingBlock: KUMBOL_clean_sbu_0, # of connection points: 6
#     Edge 20, Type (0, 1), BuildingBlock: ZUJKAS_clean_linker_0, # of connection points: 2
#     Edge 21, Type (0, 1), BuildingBlock: ZUJKAS_clean_linker_0, # of connection points: 2
#     Edge 22, Type (0, 1), BuildingBlock: ZUJKAS_clean_linker_0, # of connection points: 2
#     Edge 23, Type (0, 1), BuildingBlock: ZUJKAS_clean_linker_0, # of connection points: 2
#     Edge 24, Type (0, 1), BuildingBlock: ZUJKAS_clean_linker_0, # of connection points: 2
#     Edge 25, Type (0, 1), BuildingBlock: ZUJKAS_clean_linker_0, # of connection points: 2
#     Edge 26, Type (0, 1), BuildingBlock: ZUJKAS_clean_linker_0, # of connection points: 2
#     Edge 27, Type (0, 1), BuildingBlock: ZUJKAS_clean_linker_0, # of connection points: 2
#     Edge 28, Type (0, 1), BuildingBlock: ZUJKAS_clean_linker_0, # of connection points: 2
#     Edge 29, Type (0, 1), BuildingBlock: ZUJKAS_clean_linker_0, # of connection points: 2
#     Edge 30, Type (0, 1), BuildingBlock: ZUJKAS_clean_linker_0, # of connection points: 2
#     Edge 31, Type (0, 1), BuildingBlock: ZUJKAS_clean_linker_0, # of connection points: 2
#     Edge 32, Type (0, 1), BuildingBlock: ZUJKAS_clean_linker_0, # of connection points: 2
#     Edge 33, Type (0, 1), BuildingBlock: ZUJKAS_clean_linker_0, # of connection points: 2
#     Edge 34, Type (0, 1), BuildingBlock: ZUJKAS_clean_linker_0, # of connection points: 2
#     Edge 35, Type (0, 1), BuildingBlock: ZUJKAS_clean_linker_0, # of connection points: 2
#     Edge 36, Type (0, 1), BuildingBlock: ZUJKAS_clean_linker_0, # of connection points: 2
#     Edge 37, Type (0, 1), BuildingBlock: ZUJKAS_clean_linker_0, # of connection points: 2
#     Edge 38, Type (0, 1), BuildingBlock: ZUJKAS_clean_linker_0, # of connection points: 2
#     Edge 39, Type (0, 1), BuildingBlock: ZUJKAS_clean_linker_0, # of connection points: 2
#     Edge 40, Type (0, 1), BuildingBlock: ZUJKAS_clean_linker_0, # of connection points: 2
#     Edge 41, Type (0, 1), BuildingBlock: ZUJKAS_clean_linker_0, # of connection points: 2
#     Edge 42, Type (0, 1), BuildingBlock: ZUJKAS_clean_linker_0, # of connection points: 2
#     Edge 43, Type (0, 1), BuildingBlock: ZUJKAS_clean_linker_0, # of connection points: 2
#     Edge 44, Type (0, 1), BuildingBlock: ZUJKAS_clean_linker_0, # of connection points: 2
#     Edge 45, Type (0, 1), BuildingBlock: ZUJKAS_clean_linker_0, # of connection points: 2
#     Edge 46, Type (0, 1), BuildingBlock: ZUJKAS_clean_linker_0, # of connection points: 2
#     Edge 47, Type (0, 1), BuildingBlock: ZUJKAS_clean_linker_0, # of connection points: 2
#     Edge 48, Type (0, 1), BuildingBlock: ZUJKAS_clean_linker_0, # of connection points: 2
#     Edge 49, Type (0, 1), BuildingBlock: ZUJKAS_clean_linker_0, # of connection points: 2
#     Edge 50, Type (0, 1), BuildingBlock: ZUJKAS_clean_linker_0, # of connection points: 2
#     Edge 51, Type (0, 1), BuildingBlock: ZUJKAS_clean_linker_0, # of connection points: 2
#     Edge 52, Type (0, 1), BuildingBlock: ZUJKAS_clean_linker_0, # of connection points: 2
#     Edge 53, Type (0, 1), BuildingBlock: ZUJKAS_clean_linker_0, # of connection points: 2
#     Edge 54, Type (0, 1), BuildingBlock: ZUJKAS_clean_linker_0, # of connection points: 2
#     Edge 55, Type (0, 1), BuildingBlock: ZUJKAS_clean_linker_0, # of connection points: 2
#     Edge 56, Type (0, 1), BuildingBlock: ZUJKAS_clean_linker_0, # of connection points: 2
#     Edge 57, Type (0, 1), BuildingBlock: ZUJKAS_clean_linker_0, # of connection points: 2
#     Edge 58, Type (0, 1), BuildingBlock: ZUJKAS_clean_linker_0, # of connection points: 2
#     Edge 59, Type (0, 1), BuildingBlock: ZUJKAS_clean_linker_0, # of connection points: 2
#     Edge 60, Type (0, 1), BuildingBlock: ZUJKAS_clean_linker_0, # of connection points: 2
#     Edge 61, Type (0, 1), BuildingBlock: ZUJKAS_clean_linker_0, # of connection points: 2
#     Edge 62, Type (0, 1), BuildingBlock: ZUJKAS_clean_linker_0, # of connection points: 2
#     Edge 63, Type (0, 1), BuildingBlock: ZUJKAS_clean_linker_0, # of connection points: 2
#     Edge 64, Type (0, 1), BuildingBlock: ZUJKAS_clean_linker_0, # of connection points: 2
#     Edge 65, Type (0, 1), BuildingBlock: ZUJKAS_clean_linker_0, # of connection points: 2
#     Edge 66, Type (0, 1), BuildingBlock: ZUJKAS_clean_linker_0, # of connection points: 2
#     Edge 67, Type (0, 1), BuildingBlock: ZUJKAS_clean_linker_0, # of connection points: 2
# Relax obj value: 0.053
# Max RMSD: 0.163
# Mean RMSD: 0.130
data_MOF--net-soc--node1-ESEHIV_clean_sbu_0--node2-KUMBOL_clean_sbu_0--edge1-ZUJKAS_clean_linker_0
_symmetry_space_group_name_H-M    P1
_symmetry_Int_Tables_number       1
_symmetry_cell_setting            triclinic
loop_
_symmetry_equiv_pos_as_xyz
'x, y, z'
_cell_length_a     64.26828
_cell_length_b     62.604329
_cell_length_c     53.768809
_cell_angle_alpha  84.84017
_cell_angle_beta   83.289899
_cell_angle_gamma 75.544345
loop_
_atom_site_label
_atom_site_type_symbol
_atom_site_fract_x
_atom_site_fract_y
_atom_site_fract_z
_atom_type_partial_charge
Cu0 Cu 0.04489 0.03003 0.34074 0.0
N1 N 0.05778 0.04611 0.35946 0.0
N2 N 0.07787 0.06803 0.36941 0.0
C3 C 0.0734 0.0567 0.3513 0.0
C4 C 0.0646 0.06428 0.38983 0.0
C5 C 0.05221 0.05086 0.38361 0.0
O6 O 0.0667 0.00772 0.32264 0.0
C7 C 1.02272 0.0701 0.3149 0.0
O8 O 0.04028 0.07705 0.31562 0.0
H9 H 0.08096 0.05654 0.3323 0.0
H10 H 0.03956 0.04546 0.39566 0.0
N11 N 0.03012 0.01269 0.36226 0.0
N12 N 1.00967 0.98855 0.37231 0.0
C13 C 1.01386 1.00493 0.35594 0.0
C14 C 0.03644 1.00089 0.3834 0.0
C15 C 1.02378 0.986 0.38971 0.0
C16 C 0.08356 0.00901 0.3082 0.0
O17 O 0.0869 0.02846 0.30035 0.0
H18 H 1.00656 0.00987 0.33851 0.0
H19 H 0.05026 1.00193 0.39253 0.0
O20 O 1.02267 0.05017 0.3222 0.0
H21 H 0.0633 0.07138 0.40773 0.0
H22 H 1.0255 0.97358 0.40519 0.0
Cu23 Cu 0.04598 0.03487 0.74159 0.0
N24 N 0.0335 0.01987 0.7211 0.0
N25 N 1.01257 0.99895 0.71103 0.0
C26 C 1.01767 0.00962 0.7293 0.0
C27 C 1.02572 1.00269 0.69049 0.0
C28 C 0.0386 0.01561 0.69675 0.0
O29 O 1.02232 0.05516 0.75997 0.0
C30 C 0.07998 0.99979 0.74641 0.0
O31 O 0.07983 1.00388 0.72203 0.0
H32 H 1.01059 0.0094 0.74857 0.0
H33 H 0.0512 0.02092 0.68456 0.0
N34 N 0.0626 0.05267 0.72362 0.0
N35 N 0.08458 0.07564 0.71809 0.0
C36 C 0.07598 0.0617 0.73432 0.0
C37 C 0.06262 0.06118 0.69973 0.0
C38 C 0.07632 0.07526 0.69621 0.0
C39 C 1.00947 0.06761 0.74531 0.0
O40 O 1.01337 0.06501 0.7211 0.0
H41 H 0.07899 0.05834 0.75384 0.0
H42 H 0.05274 0.05816 0.68613 0.0
O43 O 0.06575 0.01228 0.76075 0.0
H44 H 1.02614 0.9964 0.67229 0.0
H45 H 0.07921 0.08516 0.6792 0.0
Cu46 Cu 0.27398 0.05758 0.08411 0.0
N47 N 0.25028 0.05044 0.07298 0.0
N48 N 0.23311 0.02992 0.05509 0.0
C49 C 0.25159 0.0308 0.064 0.0
C50 C 0.21953 0.04989 0.05852 0.0
C51 C 0.23015 0.06253 0.06972 0.0
O52 O 0.28965 0.02998 0.10071 0.0
C53 C 0.27715 0.08708 0.04391 0.0
O54 O 0.25739 0.09476 0.05406 0.0
H55 H 0.2663 0.01778 0.06285 0.0
H56 H 0.22385 0.07957 0.07423 0.0
N57 N 0.26532 0.07898 0.10769 0.0
N58 N 0.2673 0.10397 0.134 0.0
C59 C 0.27828 0.08948 0.11705 0.0
C60 C 0.24547 0.08694 0.11907 0.0
C61 C 0.2466 0.10238 0.1352 0.0
C62 C 0.27837 0.02275 0.11919 0.0
O63 O 0.2589 0.03479 0.12555 0.0
H64 H 0.29548 0.08616 0.11175 0.0
H65 H 0.23119 0.0817 0.11618 0.0
O66 O 0.28902 0.07011 0.05464 0.0
H67 H 0.20333 0.05514 0.05282 0.0
H68 H 0.23309 0.1117 0.14679 0.0
Cu69 Cu 0.06453 0.29703 0.07264 0.0
N70 N 0.07751 0.31386 0.04766 0.0
N71 N 0.10054 0.32233 0.01593 0.0
C72 C 0.09667 0.30703 0.03404 0.0
C73 C 0.08314 0.33958 0.01833 0.0
C74 C 0.06898 0.3343 0.03787 0.0
O75 O 0.08391 0.28658 0.09933 0.0
C76 C 0.05389 0.27412 0.03358 0.0
O77 O 0.06867 0.28163 0.01902 0.0
H78 H 0.1069 0.29058 0.03615 0.0
H79 H 0.05325 0.3444 0.04391 0.0
N80 N 0.03985 0.31464 0.08891 0.0
N81 N 1.00773 0.32223 0.11165 0.0
C82 C 1.02273 0.30694 0.09885 0.0
C83 C 0.03568 0.33559 0.09561 0.0
C84 C 1.01577 0.34038 0.10952 0.0
C85 C 0.10371 0.27607 0.09715 0.0
O86 O 0.11229 0.26774 0.0757 0.0
H87 H 1.02155 0.29023 0.09701 0.0
H88 H 0.04661 0.34635 0.09141 0.0
O89 O 0.05247 0.27596 0.05723 0.0
H90 H 0.08061 0.3548 1.00659 0.0
H91 H 1.00826 0.35573 0.11821 0.0
Cu92 Cu 0.81615 1.0029 0.99227 0.0
N93 N 0.83012 0.01746 0.96639 0.0
N94 N 0.83548 0.04622 0.94108 0.0
C95 C 0.82209 0.03865 0.95888 0.0
C96 C 0.85256 0.02891 0.93683 0.0
C97 C 0.84922 0.0111 0.95262 0.0
O98 O 0.80137 0.02546 0.01558 0.0
C99 C 0.80964 0.96959 0.96659 0.0
O100 O 0.83072 0.96429 0.96697 0.0
H101 H 0.80671 0.04839 0.96665 0.0
H102 H 0.8601 0.9949 0.95431 0.0
N103 N 0.83509 0.98215 0.01109 0.0
N104 N 0.84423 0.95583 0.04135 0.0
C105 C 0.82831 0.96758 0.0279 0.0
C106 C 0.85614 0.97963 0.01381 0.0
C107 C 0.86183 0.96336 0.03266 0.0
C108 C 0.81408 0.03612 0.02241 0.0
O109 O 0.83455 0.03083 0.01368 0.0
H110 H 0.81165 0.9665 0.03106 0.0
H111 H 0.86635 0.98946 1.00356 0.0
O112 O 0.79871 0.98701 0.97701 0.0
H113 H 0.86669 0.02927 0.92385 0.0
H114 H 0.87751 0.95784 0.03973 0.0
Cu115 Cu 0.0286 0.76198 0.01303 0.0
N116 N 1.0158 0.74706 0.99291 0.0
N117 N 0.99514 0.74048 0.96526 0.0
C118 C 1.00295 0.75588 0.97466 0.0
C119 C 1.00379 0.72122 0.97775 0.0
C120 C 1.01655 0.72532 0.99473 0.0
O121 O 1.00636 0.77863 0.03798 0.0
C122 C 0.06196 0.76386 0.97515 0.0
O123 O 0.05909 0.74401 0.97344 0.0
H124 H 0.99853 0.77341 0.96939 0.0
H125 H 1.02541 0.71335 0.00783 0.0
N126 N 0.04555 0.74149 0.03385 0.0
N127 N 0.07004 0.73204 0.0614 0.0
C128 C 0.06475 0.74333 0.03964 0.0
C129 C 0.0385 0.72837 0.05243 0.0
C130 C 0.05363 0.72253 0.06957 0.0
C131 C 0.98647 0.77779 0.04019 0.0
O132 O 0.97919 0.76954 0.02236 0.0
H133 H 0.07319 0.75514 0.03003 0.0
H134 H 1.02246 0.72548 0.05485 0.0
O135 O 0.04945 0.7762 0.99136 0.0
H136 H 1.00089 0.70532 0.97508 0.0
H137 H 0.05179 0.71381 0.0877 0.0
Cu138 Cu 0.54079 0.53164 0.84203 0.0
N139 N 0.55487 0.54533 0.86177 0.0
N140 N 0.57633 0.56624 0.8705 0.0
C141 C 0.57066 0.55537 0.85279 0.0
C142 C 0.56359 0.56268 0.89154 0.0
C143 C 0.5503 0.54986 0.88605 0.0
O144 O 0.56376 0.51252 0.8213 0.0
C145 C 0.50834 0.55568 0.80898 0.0
O146 O 0.50988 0.53731 0.79809 0.0
H147 H 0.57742 0.55507 0.83339 0.0
H148 H 0.53763 0.54498 0.89857 0.0
N149 N 0.52468 0.51436 0.86205 0.0
N150 N 0.50114 0.49328 0.87199 0.0
C151 C 0.50726 0.50869 0.85557 0.0
C152 C 0.5296 0.50239 0.88355 0.0
C153 C 0.51503 0.48943 0.8898 0.0
C154 C 0.56344 0.49287 0.81718 0.0
O155 O 0.54534 0.48654 0.82244 0.0
H156 H 0.49989 0.51495 0.83849 0.0
H157 H 0.54349 0.50219 0.89322 0.0
O158 O 0.52088 0.55594 0.82553 0.0
H159 H 0.56314 0.56966 0.90934 0.0
H160 H 0.51549 0.47713 0.90536 0.0
Cu161 Cu 0.55008 0.53695 0.24441 0.0
N162 N 0.53676 0.52108 0.22597 0.0
N163 N 0.51515 0.50006 0.21803 0.0
C164 C 0.52141 0.51062 0.23558 0.0
C165 C 0.52709 0.50404 0.19654 0.0
C166 C 0.54046 0.51692 0.20151 0.0
O167 O 0.52746 0.55751 0.2637 0.0
C168 C 0.58508 0.50283 0.2486 0.0
O169 O 0.58425 0.50655 0.22426 0.0
H170 H 0.51494 0.51086 0.25509 0.0
H171 H 0.55239 0.52238 0.18832 0.0
N172 N 0.5656 0.55449 0.22399 0.0
N173 N 0.58783 0.577 0.21422 0.0
C174 C 0.5807 0.56307 0.2319 0.0
C175 C 0.56296 0.5633 0.20047 0.0
C176 C 0.57672 0.5771 0.19435 0.0
C177 C 0.51326 0.56935 0.25022 0.0
O178 O 0.51499 0.56589 0.22625 0.0
H179 H 0.58556 0.55987 0.25075 0.0
H180 H 0.5513 0.56059 0.18892 0.0
O181 O 0.57084 0.51516 0.26307 0.0
H182 H 0.52664 0.4976 0.17864 0.0
H183 H 0.57813 0.58672 0.17675 0.0
Cu184 Cu 0.77621 0.56356 0.57831 0.0
N185 N 0.75904 0.58356 0.55693 0.0
N186 N 0.75327 0.60903 0.52509 0.0
C187 C 0.76513 0.60088 0.54441 0.0
C188 C 0.73849 0.59688 0.52616 0.0
C189 C 0.74217 0.58106 0.54583 0.0
O190 O 0.78704 0.58032 0.60057 0.0
C191 C 0.80019 0.54281 0.53466 0.0
O192 O 0.79387 0.56213 0.52264 0.0
H193 H 0.77938 0.60592 0.54787 0.0
H194 H 0.73447 0.56748 0.55018 0.0
N195 N 0.76003 0.5473 0.59916 0.0
N196 N 0.75444 0.51932 0.62567 0.0
C197 C 0.76887 0.52739 0.6098 0.0
C198 C 0.73915 0.55218 0.6084 0.0
C199 C 0.73561 0.53481 0.62477 0.0
C200 C 0.80164 0.59101 0.596 0.0
O201 O 0.81346 0.58959 0.57428 0.0
H202 H 0.78572 0.51912 0.60595 0.0
H203 H 0.72752 0.56743 0.60401 0.0
O204 O 0.79689 0.54124 0.55855 0.0
H205 H 0.72733 0.59787 0.51226 0.0
H206 H 0.72054 0.53399 0.63568 0.0
Cu207 Cu 0.56225 0.78833 0.5679 0.0
N208 N 0.58231 0.77253 0.54308 0.0
N209 N 0.60907 0.76548 0.51144 0.0
C210 C 0.59954 0.7788 0.53029 0.0
C211 C 0.5974 0.75008 0.51289 0.0
C212 C 0.58104 0.75447 0.5322 0.0
O213 O 0.57842 0.7998 0.58957 0.0
C214 C 0.54307 0.81729 0.52833 0.0
O215 O 0.56223 0.81286 0.51572 0.0
H216 H 0.60444 0.79337 0.53424 0.0
H217 H 0.56854 0.74562 0.53728 0.0
N218 N 0.54503 0.77171 0.58837 0.0
N219 N 0.51691 0.76471 0.61433 0.0
C220 C 0.52494 0.7801 0.59954 0.0
C221 C 0.54984 0.7502 0.59625 0.0
C222 C 0.53264 0.74587 0.61221 0.0
C223 C 0.5925 0.78517 0.60055 0.0
O224 O 0.59466 0.76432 0.5964 0.0
H225 H 0.51662 0.79737 0.59734 0.0
H226 H 0.56489 0.73852 0.59102 0.0
O227 O 0.54107 0.81094 0.55141 0.0
H228 H 0.59977 0.73703 0.50019 0.0
H229 H 0.53182 0.72997 0.62143 0.0
Cu230 Cu 0.31151 0.50492 0.4985 0.0
N231 N 0.3261 0.52008 0.4732 0.0
N232 N 0.3315 0.5488 0.44729 0.0
C233 C 0.31743 0.54072 0.46384 0.0
C234 C 0.3498 0.53247 0.4461 0.0
C235 C 0.3464 0.51475 0.46201 0.0
O236 O 0.29649 0.52713 0.5213 0.0
C237 C 0.30342 0.47318 0.47234 0.0
O238 O 0.32446 0.46677 0.47281 0.0
H239 H 0.30126 0.54991 0.46983 0.0
H240 H 0.358 0.49926 0.46539 0.0
N241 N 0.32884 0.48298 0.51854 0.0
N242 N 0.336 0.45702 0.55004 0.0
C243 C 0.32061 0.47033 0.53679 0.0
C244 C 0.35027 0.47755 0.5202 0.0
C245 C 0.35473 0.46154 0.5396 0.0
C246 C 0.30977 0.5362 0.52949 0.0
O247 O 0.33045 0.52924 0.52228 0.0
H248 H 0.30347 0.47155 0.54081 0.0
H249 H 0.36177 0.48509 0.50867 0.0
O250 O 0.29326 0.49079 0.48274 0.0
H251 H 0.3646 0.53322 0.43455 0.0
H252 H 0.37054 0.45398 0.54562 0.0
Cu253 Cu 0.52544 0.26749 0.51104 0.0
N254 N 0.54664 0.25211 0.4879 0.0
N255 N 0.5764 0.24525 0.46099 0.0
C256 C 0.56435 0.25886 0.4781 0.0
C257 C 0.56581 0.22932 0.45985 0.0
C258 C 0.54745 0.23357 0.47655 0.0
O259 O 0.54016 0.28439 0.52931 0.0
C260 C 0.48999 0.2702 0.4856 0.0
O261 O 0.49572 0.24905 0.49243 0.0
H262 H 0.56804 0.2738 0.48305 0.0
H263 H 0.53549 0.22393 0.47998 0.0
N264 N 0.5151 0.2485 0.53553 0.0
N265 N 0.49504 0.23811 0.56901 0.0
C266 C 0.49883 0.25514 0.55338 0.0
C267 C 0.52195 0.2265 0.53991 0.0
C268 C 0.5096 0.22003 0.56061 0.0
C269 C 0.55583 0.2716 0.54003 0.0
O270 O 0.55945 0.25025 0.53759 0.0
H271 H 0.49026 0.27225 0.55509 0.0
H272 H 0.53509 0.21595 0.52899 0.0
O273 O 0.50096 0.28294 0.49201 0.0
H274 H 0.57103 0.21553 0.44795 0.0
H275 H 0.51115 0.20331 0.56869 0.0
Gd276 Gd 0.30217 0.30626 0.26996 0.0
Gd277 Gd 0.27351 0.27987 0.32353 0.0
C278 C 0.24044 0.3234 0.38759 0.0
C279 C 0.26122 0.30618 0.42219 0.0
C280 C 0.26955 0.2908 0.38125 0.0
C281 C 0.25336 0.30733 0.37186 0.0
C282 C 0.27309 0.28947 0.40679 0.0
C283 C 0.24494 0.32318 0.41258 0.0
C284 C 0.22295 0.33869 0.37799 0.0
C285 C 0.21822 0.33712 0.35363 0.0
N286 N 0.24936 0.30684 0.34773 0.0
C287 C 0.23151 0.32085 0.33877 0.0
H288 H 0.22776 0.32007 0.31991 0.0
C289 C 0.29343 0.25583 0.37549 0.0
N290 N 0.28045 0.27482 0.36592 0.0
C291 C 0.29754 0.25372 0.40069 0.0
C292 C 0.2877 0.27085 0.41629 0.0
H293 H 0.30126 0.2427 0.36333 0.0
H294 H 0.23541 0.33558 0.42485 0.0
H295 H 0.34737 0.26555 0.27132 0.0
H296 H 0.21267 0.35134 0.38944 0.0
H297 H 0.20444 0.34856 0.3462 0.0
H298 H 0.26394 0.30567 0.44177 0.0
H299 H 0.27013 0.34324 0.23357 0.0
H300 H 0.36181 0.23825 0.19938 0.0
H301 H 0.37041 0.2384 0.24301 0.0
H302 H 0.30882 0.28568 0.15041 0.0
H303 H 0.30836 0.23895 0.40802 0.0
H304 H 0.29085 0.26916 0.43582 0.0
H305 H 0.33858 0.25588 0.16497 0.0
H306 H 0.26134 0.34826 0.18946 0.0
N307 N 0.32559 0.28031 0.2442 0.0
C308 C 0.35163 0.25022 0.21172 0.0
C309 C 0.35657 0.25029 0.23632 0.0
C310 C 0.33396 0.26599 0.20314 0.0
C311 C 0.32117 0.28112 0.22002 0.0
C312 C 0.34347 0.26574 0.2523 0.0
N313 N 0.29309 0.3126 0.22838 0.0
C314 C 0.30437 0.29777 0.21184 0.0
C315 C 0.27338 0.33392 0.19555 0.0
C316 C 0.284 0.31814 0.1786 0.0
C317 C 0.2784 0.33108 0.22043 0.0
C318 C 0.29998 0.29998 0.18654 0.0
H319 H 0.28014 0.32042 0.1593 0.0
O320 O 0.30579 0.33982 0.26198 0.0
O321 O 0.28376 0.30979 0.30722 0.0
O322 O 0.25126 0.29403 0.29241 0.0
O323 O 0.27326 0.29915 0.25566 0.0
O324 O 0.27646 0.33649 0.28189 0.0
O325 O 0.33396 0.31297 0.2674 0.0
O326 O 0.26987 0.24636 0.33251 0.0
O327 O 0.29248 0.27619 0.28663 0.0
O328 O 0.32469 0.29207 0.30052 0.0
O329 O 0.304 0.28412 0.33758 0.0
O330 O 0.29922 0.24949 0.31186 0.0
O331 O 0.24216 0.27259 0.32384 0.0
C332 C 0.27256 0.3293 0.30476 0.0
C333 C 0.31209 0.28442 0.16988 0.0
C334 C 0.32905 0.26746 0.17817 0.0
C335 C 0.3268 0.33398 0.26139 0.0
C336 C 0.33891 0.34333 0.24003 0.0
C337 C 0.33569 0.34047 0.21533 0.0
C338 C 0.35384 0.35529 0.24435 0.0
C339 C 0.3655 0.36438 0.22404 0.0
C340 C 0.34705 0.34951 0.19516 0.0
C341 C 0.36181 0.36143 0.19942 0.0
C342 C 0.25465 0.29689 0.26756 0.0
C343 C 0.30362 0.25664 0.28908 0.0
C344 C 0.24905 0.2519 0.33137 0.0
C345 C 0.23591 0.24361 0.35251 0.0
C346 C 0.23501 0.25094 0.37657 0.0
C347 C 0.22394 0.22844 0.34862 0.0
C348 C 0.21108 0.22063 0.36873 0.0
C349 C 0.2226 0.24306 0.39661 0.0
C350 C 0.21074 0.22799 0.39279 0.0
C351 C 0.32222 0.28726 0.32514 0.0
H352 H 0.32438 0.33138 0.21153 0.0
H353 H 0.35651 0.35727 0.26346 0.0
H354 H 0.34434 0.34736 0.17615 0.0
H355 H 0.37015 0.36857 0.18338 0.0
H356 H 0.2438 0.26278 0.37992 0.0
H357 H 0.22434 0.22308 0.32991 0.0
H358 H 0.22213 0.24869 0.41517 0.0
H359 H 0.20139 0.22199 0.40875 0.0
Gd360 Gd 0.78517 0.26934 0.27419 0.0
Gd361 Gd 0.80957 0.29692 0.31796 0.0
C362 C 0.84882 0.34337 0.27499 0.0
C363 C 0.88547 0.32329 0.28076 0.0
C364 C 0.85531 0.30737 0.29757 0.0
C365 C 0.84087 0.32604 0.28848 0.0
C366 C 0.87777 0.30607 0.29408 0.0
C367 C 0.87107 0.34171 0.27093 0.0
C368 C 0.83423 0.36219 0.26623 0.0
C369 C 0.81228 0.36396 0.27176 0.0
N370 N 0.81923 0.32759 0.29321 0.0
C371 C 0.80506 0.34685 0.28565 0.0
H372 H 0.78799 0.35023 0.29039 0.0
C373 C 0.8614 0.27435 0.32342 0.0
N374 N 0.84755 0.2911 0.31104 0.0
C375 C 0.88368 0.27201 0.31974 0.0
C376 C 0.89195 0.28781 0.30474 0.0
H377 H 0.85553 0.26299 0.33703 0.0
H378 H 0.87731 0.35485 0.26063 0.0
H379 H 0.79662 0.22468 0.31391 0.0
H380 H 0.83974 0.37567 0.25571 0.0
H381 H 0.8008 0.37881 0.26574 0.0
H382 H 0.90261 0.32253 0.27803 0.0
H383 H 0.74823 0.30183 0.23871 0.0
H384 H 0.73857 0.20384 0.33746 0.0
H385 H 0.77794 0.19858 0.33823 0.0
H386 H 0.68509 0.25668 0.29441 0.0
H387 H 0.89442 0.25836 0.32917 0.0
H388 H 0.90924 0.28621 0.30232 0.0
H389 H 0.70398 0.22585 0.32141 0.0
H390 H 0.70903 0.3095 0.23517 0.0
N391 N 0.7682 0.24489 0.29968 0.0
C392 C 0.74673 0.21537 0.32668 0.0
C393 C 0.76893 0.21238 0.32721 0.0
C394 C 0.73532 0.23316 0.31216 0.0
C395 C 0.74669 0.24772 0.29849 0.0
C396 C 0.77948 0.22732 0.31346 0.0
N397 N 0.74764 0.27841 0.26993 0.0
C398 C 0.73602 0.26523 0.28353 0.0
C399 C 0.71631 0.29727 0.24918 0.0
C400 C 0.70382 0.2851 0.26454 0.0
C401 C 0.7384 0.29318 0.25154 0.0
C402 C 0.71374 0.26841 0.28146 0.0
H403 H 0.68676 0.28806 0.26243 0.0
O404 O 0.78533 0.26569 0.23422 0.0
O405 O 0.81179 0.28494 0.27976 0.0
O406 O 0.77844 0.32043 0.30832 0.0
O407 O 0.76432 0.30395 0.27877 0.0
O408 O 0.79784 0.29364 0.24649 0.0
O409 O 0.79579 0.23686 0.25876 0.0
O410 O 0.81844 0.28745 0.35596 0.0
O411 O 0.78771 0.27477 0.31403 0.0
O412 O 0.81723 0.24724 0.28389 0.0
O413 O 0.82484 0.25992 0.32053 0.0
O414 O 0.77851 0.29702 0.34214 0.0
O415 O 0.80881 0.32256 0.34323 0.0
C416 C 0.81289 0.29608 0.25916 0.0
C417 C 0.70223 0.25436 0.29559 0.0
C418 C 0.71301 0.23675 0.31088 0.0
C419 C 0.7911 0.24416 0.23617 0.0
C420 C 0.7781 0.23214 0.22409 0.0
C421 C 0.7555 0.23925 0.22635 0.0
C422 C 0.78802 0.21325 0.2106 0.0
C423 C 0.7752 0.20155 0.20028 0.0
C424 C 0.74288 0.22776 0.2163 0.0
C425 C 0.75261 0.20899 0.20345 0.0
C426 C 0.76404 0.32049 0.2926 0.0
C427 C 0.77339 0.28155 0.33182 0.0
C428 C 0.81499 0.30802 0.36151 0.0
C429 C 0.81812 0.31428 0.38653 0.0
C430 C 0.82337 0.29767 0.40572 0.0
C431 C 0.81501 0.33666 0.39189 0.0
C432 C 0.81661 0.34221 0.41637 0.0
C433 C 0.82517 0.30313 0.42982 0.0
C434 C 0.8217 0.32519 0.43517 0.0
C435 C 0.82859 0.24509 0.30338 0.0
H436 H 0.7474 0.25377 0.23572 0.0
H437 H 0.80546 0.20758 0.20838 0.0
H438 H 0.72546 0.23352 0.21837 0.0
H439 H 0.74243 0.20048 0.19551 0.0
H440 H 0.82584 0.2804 0.40223 0.0
H441 H 0.81089 0.3497 0.37734 0.0
H442 H 0.82915 0.29019 0.44447 0.0
H443 H 0.82321 0.32897 0.45406 0.0
Gd444 Gd 0.81468 0.79386 0.30689 0.0
Gd445 Gd 0.79246 0.7668 0.26107 0.0
C446 C 0.8429 0.73896 0.19748 0.0
C447 C 0.82819 0.7606 0.16097 0.0
C448 C 0.80908 0.76669 0.20252 0.0
C449 C 0.82512 0.75048 0.21296 0.0
C450 C 0.81008 0.77135 0.1763 0.0
C451 C 0.84454 0.7444 0.17154 0.0
C452 C 0.8583 0.72199 0.20844 0.0
C453 C 0.8555 0.71649 0.23411 0.0
N454 N 0.82295 0.74542 0.23808 0.0
C455 C 0.83758 0.72828 0.24868 0.0
H456 H 0.83595 0.72381 0.26847 0.0
C457 C 0.77347 0.78889 0.20766 0.0
N458 N 0.79157 0.77644 0.21774 0.0
C459 C 0.77379 0.79425 0.18184 0.0
C460 C 0.79236 0.78582 0.16612 0.0
H461 H 0.75902 0.79539 0.21979 0.0
H462 H 0.85811 0.73577 0.15941 0.0
H463 H 0.77183 0.83762 0.29959 0.0
H464 H 0.87221 0.71282 0.1972 0.0
H465 H 0.8672 0.70321 0.24273 0.0
H466 H 0.82935 0.76415 0.14083 0.0
H467 H 0.84765 0.76561 0.34905 0.0
H468 H 0.73353 0.84658 0.3699 0.0
H469 H 0.73995 0.85759 0.3249 0.0
H470 H 0.77495 0.79387 0.42633 0.0
H471 H 0.75969 0.80481 0.17408 0.0
H472 H 0.79251 0.78982 0.14608 0.0
H473 H 0.74636 0.82226 0.40744 0.0
H474 H 0.84601 0.75543 0.3946 0.0
N475 N 0.78386 0.815 0.32971 0.0
C476 C 0.74775 0.83771 0.35887 0.0
C477 C 0.75134 0.844 0.3335 0.0
C478 C 0.76278 0.82037 0.36984 0.0
C479 C 0.781 0.8093 0.35463 0.0
C480 C 0.76961 0.83254 0.31917 0.0
N481 N 0.81489 0.78397 0.35031 0.0
C482 C 0.79691 0.79308 0.3652 0.0
C483 C 0.83199 0.76586 0.38656 0.0
C484 C 0.81294 0.77357 0.40182 0.0
C485 C 0.83286 0.7717 0.36082 0.0
C486 C 0.7953 0.78787 0.39133 0.0
H487 H 0.81234 0.76916 0.4218 0.0
O488 O 0.84495 0.79944 0.31613 0.0
O489 O 0.81953 0.78093 0.26895 0.0
O490 O 0.80443 0.74199 0.29266 0.0
O491 O 0.8186 0.75849 0.32199 0.0
O492 O 0.84651 0.7746 0.2881 0.0
O493 O 0.81951 0.82705 0.30456 0.0
O494 O 0.76126 0.76192 0.25448 0.0
O495 O 0.78767 0.77953 0.29915 0.0
O496 O 0.80268 0.81866 0.27519 0.0
O497 O 0.78959 0.80179 0.24524 0.0
O498 O 0.76087 0.7867 0.27953 0.0
O499 O 0.78774 0.73364 0.26135 0.0
C500 C 0.83972 0.77292 0.26685 0.0
C501 C 0.77663 0.79793 0.40629 0.0
C502 C 0.7604 0.81416 0.39556 0.0
C503 C 0.83839 0.82088 0.31316 0.0
C504 C 0.84161 0.8337 0.33347 0.0
C505 C 0.82751 0.83554 0.35554 0.0
C506 C 0.85819 0.84502 0.33046 0.0
C507 C 0.86037 0.85831 0.34937 0.0
C508 C 0.82992 0.84819 0.37452 0.0
C509 C 0.8462 0.85955 0.3715 0.0
C510 C 0.81333 0.74142 0.31381 0.0
C511 C 0.76753 0.78789 0.301 0.0
C512 C 0.76794 0.74044 0.25541 0.0
C513 C 0.76221 0.72925 0.23518 0.0
C514 C 0.77407 0.72848 0.21153 0.0
C515 C 0.74469 0.71926 0.23945 0.0
C516 C 0.7388 0.70903 0.21997 0.0
C517 C 0.76816 0.71859 0.19213 0.0
C518 C 0.75058 0.709 0.19623 0.0
C519 C 0.79435 0.81902 0.25369 0.0
H520 H 0.81442 0.82751 0.358 0.0
H521 H 0.86891 0.84402 0.31324 0.0
H522 H 0.81898 0.84939 0.39152 0.0
H523 H 0.84773 0.86934 0.3865 0.0
H524 H 0.78796 0.73534 0.20806 0.0
H525 H 0.7356 0.71958 0.25777 0.0
H526 H 0.77737 0.71819 0.17391 0.0
H527 H 0.7465 0.70108 0.181 0.0
Gd528 Gd 0.31147 0.80561 0.31263 0.0
Gd529 Gd 0.29409 0.77393 0.26777 0.0
C530 C 0.26609 0.7185 0.30902 0.0
C531 C 0.29142 0.68559 0.29373 0.0
C532 C 0.29658 0.72208 0.27926 0.0
C533 C 0.27815 0.73179 0.29404 0.0
C534 C 0.30316 0.69883 0.27857 0.0
C535 C 0.27296 0.6954 0.30898 0.0
C536 C 0.2474 0.72881 0.32353 0.0
C537 C 0.24088 0.7518 0.3225 0.0
N538 N 0.27197 0.7542 0.29381 0.0
C539 C 0.25325 0.76427 0.30731 0.0
H540 H 0.24764 0.7819 0.30671 0.0
C541 C 0.32391 0.7263 0.24722 0.0
N542 N 0.30763 0.73531 0.26485 0.0
C543 C 0.3312 0.70341 0.24609 0.0
C544 C 0.32101 0.68957 0.26215 0.0
H545 H 0.33113 0.73687 0.23372 0.0
H546 H 0.26398 0.68497 0.32049 0.0
H547 H 0.36021 0.79763 0.27748 0.0
H548 H 0.23778 0.71918 0.33534 0.0
H549 H 0.22627 0.75996 0.33339 0.0
H550 H 0.29634 0.66773 0.29358 0.0
H551 H 0.27295 0.84388 0.34397 0.0
H552 H 0.36879 0.85991 0.24574 0.0
H553 H 0.38183 0.81935 0.25114 0.0
H554 H 0.30641 0.91157 0.28004 0.0
H555 H 0.34443 0.69647 0.23252 0.0
H556 H 0.32654 0.67182 0.26108 0.0
H557 H 0.34059 0.89406 0.25645 0.0
H558 H 0.25795 0.88406 0.34151 0.0
N559 N 0.334 0.82516 0.2868 0.0
C560 C 0.35898 0.85037 0.25739 0.0
C561 C 0.36637 0.82751 0.26036 0.0
C562 C 0.33917 0.86071 0.26979 0.0
C563 C 0.32691 0.84753 0.28465 0.0
C564 C 0.35377 0.81515 0.27535 0.0
N565 N 0.29658 0.84436 0.31264 0.0
C566 C 0.30748 0.85738 0.2976 0.0
C567 C 0.27163 0.8768 0.32867 0.0
C568 C 0.28151 0.89023 0.31168 0.0
C569 C 0.27989 0.85391 0.32953 0.0
C570 C 0.30009 0.88066 0.29651 0.0
H571 H 0.2753 0.90801 0.31131 0.0
O572 O 0.31018 0.81356 0.35136 0.0
O573 O 0.30433 0.77393 0.30587 0.0
O574 O 0.2672 0.8041 0.27827 0.0
O575 O 0.27513 0.81648 0.31485 0.0
O576 O 0.29471 0.78489 0.34128 0.0
O577 O 0.34094 0.79927 0.33108 0.0
O578 O 0.29473 0.77018 0.228 0.0
O579 O 0.30169 0.80571 0.27395 0.0
O580 O 0.3392 0.77628 0.30165 0.0
O581 O 0.33002 0.76041 0.26802 0.0
O582 O 0.31407 0.7918 0.24011 0.0
O583 O 0.26404 0.77961 0.25055 0.0
C584 C 0.29599 0.7688 0.32729 0.0
C585 C 0.31194 0.89371 0.28123 0.0
C586 C 0.33145 0.88375 0.2679 0.0
C587 C 0.33112 0.80836 0.35149 0.0
C588 C 0.34084 0.82472 0.36075 0.0
C589 C 0.33301 0.84745 0.35498 0.0
C590 C 0.35872 0.81754 0.37474 0.0
C591 C 0.36892 0.83297 0.38225 0.0
C592 C 0.34319 0.86273 0.36232 0.0
C593 C 0.36117 0.85555 0.37576 0.0
C594 C 0.26201 0.81684 0.29759 0.0
C595 C 0.31202 0.80881 0.25294 0.0
C596 C 0.2738 0.77398 0.22862 0.0
C597 C 0.26531 0.75865 0.21576 0.0
C598 C 0.27483 0.73586 0.21688 0.0
C599 C 0.24762 0.767 0.20171 0.0
C600 C 0.23996 0.7527 0.18841 0.0
C601 C 0.26715 0.72163 0.20387 0.0
C602 C 0.24988 0.72999 0.18956 0.0
C603 C 0.3439 0.76223 0.28354 0.0
H604 H 0.31906 0.85352 0.34487 0.0
H605 H 0.36487 0.80006 0.37946 0.0
H606 H 0.33709 0.88019 0.35761 0.0
H607 H 0.36887 0.86763 0.38145 0.0
H608 H 0.28824 0.72893 0.22758 0.0
H609 H 0.24005 0.78456 0.20083 0.0
H610 H 0.27463 0.70409 0.20488 0.0
H611 H 0.24401 0.71865 0.17971 0.0
Gd612 Gd 0.27566 0.76366 0.77669 0.0
Gd613 Gd 0.30154 0.79051 0.81791 0.0
C614 C 0.3625 0.81074 0.78249 0.0
C615 C 0.38994 0.78776 0.80732 0.0
C616 C 0.3524 0.78602 0.81646 0.0
C617 C 0.34669 0.80157 0.79694 0.0
C618 C 0.37394 0.77966 0.82254 0.0
C619 C 0.38423 0.80323 0.78727 0.0
C620 C 0.35593 0.82764 0.76416 0.0
C621 C 0.334 0.83555 0.76124 0.0
N622 N 0.32552 0.80861 0.79295 0.0
C623 C 0.31892 0.82597 0.77602 0.0
H624 H 0.30211 0.83217 0.77317 0.0
C625 C 0.34064 0.76719 0.85343 0.0
N626 N 0.33653 0.77873 0.83097 0.0
C627 C 0.36174 0.76043 0.86026 0.0
C628 C 0.37856 0.76625 0.84444 0.0
H629 H 0.32765 0.76247 0.86556 0.0
H630 H 0.39663 0.80984 0.77613 0.0
H631 H 0.285 0.72193 0.82232 0.0
H632 H 0.36759 0.83505 0.75262 0.0
H633 H 0.3287 0.8489 0.74743 0.0
H634 H 0.40663 0.78278 0.81144 0.0
H635 H 0.24104 0.79214 0.7366 0.0
H636 H 0.22546 0.70507 0.8472 0.0
H637 H 0.26466 0.6991 0.84923 0.0
H638 H 0.17471 0.75424 0.79722 0.0
H639 H 0.36503 0.75067 0.87765 0.0
H640 H 0.39489 0.76106 0.84981 0.0
H641 H 0.19187 0.72628 0.82842 0.0
H642 H 0.20215 0.79952 0.73124 0.0
N643 N 0.25774 0.74119 0.80459 0.0
C644 C 0.23429 0.71533 0.83522 0.0
C645 C 0.25644 0.71183 0.83633 0.0
C646 C 0.22386 0.73183 0.81847 0.0
C647 C 0.23619 0.74452 0.80298 0.0
C648 C 0.26799 0.72486 0.82076 0.0
N649 N 0.23884 0.77181 0.77024 0.0
C650 C 0.22645 0.76042 0.7855 0.0
C651 C 0.20869 0.78873 0.74679 0.0
C652 C 0.19533 0.77855 0.76358 0.0
C653 C 0.23062 0.78465 0.75 0.0
C654 C 0.20425 0.76377 0.78285 0.0
H655 H 0.17836 0.78157 0.76095 0.0
O656 O 0.27645 0.75954 0.73699 0.0
O657 O 0.30445 0.776 0.78097 0.0
O658 O 0.27613 0.81638 0.79813 0.0
O659 O 0.25573 0.79873 0.77738 0.0
O660 O 0.2923 0.7833 0.74666 0.0
O661 O 0.2815 0.73083 0.76362 0.0
O662 O 0.29625 0.79835 0.85701 0.0
O663 O 0.27233 0.77888 0.81324 0.0
O664 O 0.30505 0.73876 0.79035 0.0
O665 O 0.32182 0.75528 0.81703 0.0
O666 O 0.28394 0.77177 0.84791 0.0
O667 O 0.29308 0.82468 0.82749 0.0
C668 C 0.30793 0.78451 0.75912 0.0
C669 C 0.19181 0.75173 0.79884 0.0
C670 C 0.2016 0.73577 0.81656 0.0
C671 C 0.28147 0.73802 0.7401 0.0
C672 C 0.29925 0.72626 0.72317 0.0
C673 C 0.31991 0.73021 0.72145 0.0
C674 C 0.29536 0.71041 0.70885 0.0
C675 C 0.31184 0.69862 0.69225 0.0
C676 C 0.33649 0.7185 0.70511 0.0
C677 C 0.33252 0.7028 0.69051 0.0
C678 C 0.25958 0.8166 0.78541 0.0
C679 C 0.26836 0.77089 0.83522 0.0
C680 C 0.29294 0.81957 0.85153 0.0
C681 C 0.30389 0.83171 0.86562 0.0
C682 C 0.32642 0.82829 0.86294 0.0
C683 C 0.29138 0.84732 0.88181 0.0
C684 C 0.30122 0.85954 0.89541 0.0
C685 C 0.33635 0.8402 0.87659 0.0
C686 C 0.32386 0.85575 0.89278 0.0
C687 C 0.32036 0.73812 0.80518 0.0
H688 H 0.32321 0.74219 0.73278 0.0
H689 H 0.27945 0.70711 0.71095 0.0
H690 H 0.35242 0.72163 0.70371 0.0
H691 H 0.34552 0.69416 0.67769 0.0
H692 H 0.33632 0.8166 0.85031 0.0
H693 H 0.27395 0.84986 0.88387 0.0
H694 H 0.35375 0.8375 0.87446 0.0
H695 H 0.33186 0.8651 0.90286 0.0
Gd696 Gd 0.31764 0.28666 0.82044 0.0
Gd697 Gd 0.29092 0.26063 0.77752 0.0
C698 C 0.34025 0.22179 0.71916 0.0
C699 C 0.33112 0.24332 0.68037 0.0
C700 C 0.31066 0.2545 0.72005 0.0
C701 C 0.32356 0.2368 0.7326 0.0
C702 C 0.31379 0.25746 0.69365 0.0
C703 C 0.34428 0.22546 0.6931 0.0
C704 C 0.35202 0.20322 0.73218 0.0
C705 C 0.34665 0.19963 0.75783 0.0
N706 N 0.31902 0.23356 0.75776 0.0
C707 C 0.32995 0.21491 0.77034 0.0
H708 H 0.32627 0.21172 0.79014 0.0
C709 C 0.2776 0.28145 0.72103 0.0
N710 N 0.29358 0.26729 0.73334 0.0
C711 C 0.28021 0.28538 0.69498 0.0
C712 C 0.29866 0.27368 0.68127 0.0
H713 H 0.26315 0.29041 0.73155 0.0
H714 H 0.35717 0.21423 0.68253 0.0
H715 H 0.28219 0.33427 0.80223 0.0
H716 H 0.36499 0.19135 0.72254 0.0
H717 H 0.35545 0.18513 0.76803 0.0
H718 H 0.33396 0.24551 0.66015 0.0
H719 H 0.34139 0.25637 0.86895 0.0
H720 H 0.24669 0.36351 0.86755 0.0
H721 H 0.25471 0.36403 0.82152 0.0
H722 H 0.27585 0.31441 0.93506 0.0
H723 H 0.26793 0.29731 0.68551 0.0
H724 H 0.30051 0.2765 0.66104 0.0
H725 H 0.2545 0.34479 0.90971 0.0
H726 H 0.33608 0.25391 0.91521 0.0
N727 N 0.29022 0.31619 0.83683 0.0
C728 C 0.25894 0.3502 0.85919 0.0
C729 C 0.26345 0.35058 0.83321 0.0
C730 C 0.27039 0.33277 0.87407 0.0
C731 C 0.28624 0.31583 0.86225 0.0
C732 C 0.27927 0.33349 0.8223 0.0
N733 N 0.31365 0.28285 0.86477 0.0
C734 C 0.29818 0.29861 0.87658 0.0
C735 C 0.32508 0.26638 0.90462 0.0
C736 C 0.30823 0.28145 0.91701 0.0
C737 C 0.32789 0.26769 0.87843 0.0
C738 C 0.29483 0.29812 0.90305 0.0
H739 H 0.30617 0.28054 0.93734 0.0
O740 O 0.35124 0.28337 0.8251 0.0
O741 O 0.32056 0.27031 0.78492 0.0
O742 O 0.29904 0.23738 0.81216 0.0
O743 O 0.3145 0.25415 0.84007 0.0
O744 O 0.34624 0.25997 0.80652 0.0
O745 O 0.33021 0.31607 0.82053 0.0
O746 O 0.25934 0.25943 0.76756 0.0
O747 O 0.28788 0.27719 0.81294 0.0
O748 O 0.31228 0.30865 0.78436 0.0
O749 O 0.29208 0.29436 0.75932 0.0
O750 O 0.26154 0.28609 0.79232 0.0
O751 O 0.27969 0.2305 0.7849 0.0
C752 C 0.33944 0.25823 0.7853 0.0
C753 C 0.27873 0.31462 0.91479 0.0
C754 C 0.26659 0.33193 0.90035 0.0
C755 C 0.34934 0.30454 0.82554 0.0
C756 C 0.35945 0.3117 0.84571 0.0
C757 C 0.3663 0.29699 0.86615 0.0
C758 C 0.36376 0.33282 0.84379 0.0
C759 C 0.37451 0.3392 0.86229 0.0
C760 C 0.37632 0.30342 0.8848 0.0
C761 C 0.38043 0.32432 0.88293 0.0
C762 C 0.30758 0.23748 0.83348 0.0
C763 C 0.26879 0.28879 0.81291 0.0
C764 C 0.26199 0.23845 0.77412 0.0
C765 C 0.25762 0.22452 0.75558 0.0
C766 C 0.27079 0.22143 0.73288 0.0
C767 C 0.24087 0.21347 0.76081 0.0
C768 C 0.23764 0.19927 0.74344 0.0
C769 C 0.26743 0.20777 0.71551 0.0
C770 C 0.25099 0.19671 0.72071 0.0
C771 C 0.30183 0.30961 0.76418 0.0
H772 H 0.36453 0.28025 0.86753 0.0
H773 H 0.35909 0.34407 0.82775 0.0
H774 H 0.38147 0.29192 0.90043 0.0
H775 H 0.38906 0.32846 0.89722 0.0
H776 H 0.28382 0.22938 0.72861 0.0
H777 H 0.23078 0.2155 0.77847 0.0
H778 H 0.2777 0.20563 0.69801 0.0
H779 H 0.24864 0.18622 0.70686 0.0
Gd780 Gd 0.80918 0.30144 0.81333 0.0
Gd781 Gd 0.78187 0.2728 0.7728 0.0
C782 C 0.7592 0.21363 0.81223 0.0
C783 C 0.78116 0.18318 0.78869 0.0
C784 C 0.78487 0.2207 0.77769 0.0
C785 C 0.76929 0.22841 0.79693 0.0
C786 C 0.79045 0.19809 0.77283 0.0
C787 C 0.76553 0.19094 0.80832 0.0
C788 C 0.74271 0.22215 0.83066 0.0
C789 C 0.73657 0.24487 0.83337 0.0
N790 N 0.76353 0.25043 0.8002 0.0
C791 C 0.74706 0.25886 0.8178 0.0
H792 H 0.74207 0.27631 0.82035 0.0
C793 C 0.80516 0.22934 0.74032 0.0
N794 N 0.79322 0.23558 0.76242 0.0
C795 C 0.81143 0.20709 0.73487 0.0
C796 C 0.80439 0.19131 0.75148 0.0
H797 H 0.81037 0.2416 0.72725 0.0
H798 H 0.75807 0.17933 0.81999 0.0
H799 H 0.84887 0.3001 0.76589 0.0
H800 H 0.7344 0.2114 0.84262 0.0
H801 H 0.72373 0.25164 0.84745 0.0
H802 H 0.78543 0.16572 0.78542 0.0
H803 H 0.78193 0.33067 0.861 0.0
H804 H 0.85157 0.36647 0.74267 0.0
H805 H 0.86484 0.32627 0.73802 0.0
H806 H 0.80107 0.40935 0.80272 0.0
H807 H 0.82153 0.20217 0.7178 0.0
H808 H 0.80906 0.17411 0.7471 0.0
H809 H 0.82732 0.3974 0.76655 0.0
H810 H 0.77003 0.36976 0.8719 0.0
N811 N 0.82638 0.32505 0.78633 0.0
C812 C 0.8445 0.35501 0.75513 0.0
C813 C 0.85207 0.33234 0.75249 0.0
C814 C 0.82832 0.3626 0.77425 0.0
C815 C 0.81958 0.34699 0.78988 0.0
C816 C 0.84295 0.3175 0.76847 0.0
N817 N 0.79744 0.33814 0.82531 0.0
C818 C 0.80448 0.35377 0.80987 0.0
C819 C 0.77952 0.36553 0.85426 0.0
C820 C 0.78508 0.38206 0.83753 0.0
C821 C 0.78629 0.34347 0.84807 0.0
C822 C 0.79818 0.37624 0.81531 0.0
H823 H 0.77993 0.39913 0.84241 0.0
O824 O 0.81738 0.29724 0.85195 0.0
O825 O 0.79669 0.27244 0.80824 0.0
O826 O 0.75756 0.30074 0.7922 0.0
O827 O 0.77423 0.32054 0.81556 0.0
O828 O 0.79222 0.28289 0.84409 0.0
O829 O 0.84278 0.29327 0.82142 0.0
O830 O 0.77436 0.27546 0.73399 0.0
O831 O 0.79452 0.3017 0.77768 0.0
O832 O 0.83387 0.27431 0.79308 0.0
O833 O 0.81689 0.25421 0.77047 0.0
O834 O 0.79946 0.29056 0.74206 0.0
O835 O 0.74848 0.28203 0.76381 0.0
C836 C 0.79002 0.26775 0.83051 0.0
C837 C 0.80598 0.39197 0.79908 0.0
C838 C 0.821 0.38516 0.77855 0.0
C839 C 0.83812 0.29387 0.84566 0.0
C840 C 0.84985 0.30629 0.85885 0.0
C841 C 0.84538 0.3294 0.85546 0.0
C842 C 0.86547 0.29521 0.87511 0.0
C843 C 0.87591 0.30737 0.88833 0.0
C844 C 0.85567 0.34141 0.86844 0.0
C845 C 0.8707 0.33053 0.88489 0.0
C846 C 0.75709 0.31717 0.80643 0.0
C847 C 0.80158 0.30591 0.7554 0.0
C848 C 0.7535 0.27991 0.7398 0.0
C849 C 0.74132 0.26722 0.72762 0.0
C850 C 0.74707 0.24406 0.72985 0.0
C851 C 0.72368 0.27805 0.71399 0.0
C852 C 0.71196 0.26564 0.7029 0.0
C853 C 0.73586 0.23178 0.71867 0.0
C854 C 0.71852 0.24241 0.70527 0.0
C855 C 0.83414 0.25783 0.77904 0.0
H856 H 0.83394 0.33823 0.84279 0.0
H857 H 0.86922 0.27734 0.87774 0.0
H858 H 0.85198 0.35926 0.86573 0.0
H859 H 0.87855 0.34023 0.89472 0.0
H860 H 0.76025 0.23534 0.74019 0.0
H861 H 0.71894 0.29595 0.71238 0.0
H862 H 0.74065 0.2139 0.7204 0.0
H863 H 0.71034 0.23233 0.69651 0.0
Gd864 Gd 0.80275 0.80187 0.75593 0.0
Gd865 Gd 0.77188 0.77734 0.80881 0.0
C866 C 0.74543 0.82096 0.8747 0.0
C867 C 0.7658 0.80047 0.90821 0.0
C868 C 0.77101 0.78612 0.8668 0.0
C869 C 0.75616 0.80448 0.85824 0.0
C870 C 0.77537 0.78345 0.89214 0.0
C871 C 0.75088 0.81923 0.89947 0.0
C872 C 0.72903 0.83826 0.86601 0.0
C873 C 0.72313 0.83831 0.84184 0.0
N874 N 0.75115 0.80544 0.83428 0.0
C875 C 0.73427 0.82158 0.82622 0.0
H876 H 0.72961 0.82209 0.80753 0.0
C877 C 0.79078 0.74962 0.85972 0.0
N878 N 0.77963 0.76991 0.85088 0.0
C879 C 0.79571 0.74618 0.88465 0.0
C880 C 0.78836 0.76335 0.90082 0.0
H881 H 0.79664 0.7364 0.84714 0.0
H882 H 0.74307 0.83191 0.91227 0.0
H883 H 0.84412 0.75651 0.75473 0.0
H884 H 0.72043 0.85128 0.87803 0.0
H885 H 0.71015 0.85134 0.83511 0.0
H886 H 0.76922 0.7989 0.92764 0.0
H887 H 0.77744 0.84486 0.72102 0.0
H888 H 0.85536 0.73358 0.6808 0.0
H889 H 0.86438 0.72971 0.72467 0.0
H890 H 0.80721 0.78954 0.63428 0.0
H891 H 0.8052 0.73034 0.89136 0.0
H892 H 0.79208 0.76062 0.92016 0.0
H893 H 0.83354 0.75577 0.64726 0.0
H894 H 0.76976 0.85444 0.67678 0.0
N895 N 0.82295 0.77513 0.72859 0.0
C896 C 0.84617 0.74533 0.69401 0.0
C897 C 0.8514 0.74316 0.71872 0.0
C898 C 0.82972 0.76313 0.68641 0.0
C899 C 0.81832 0.77799 0.70435 0.0
C900 C 0.8398 0.75847 0.73575 0.0
N901 N 0.79467 0.81189 0.71437 0.0
C902 C 0.80355 0.79695 0.69702 0.0
C903 C 0.77914 0.83814 0.68224 0.0
C904 C 0.78693 0.82241 0.66442 0.0
C905 C 0.78354 0.83271 0.70721 0.0
C906 C 0.7998 0.80172 0.67156 0.0
H907 H 0.78369 0.82673 0.64504 0.0
O908 O 0.81072 0.83386 0.75027 0.0
O909 O 0.78611 0.8054 0.79431 0.0
O910 O 0.74993 0.79546 0.77932 0.0
O911 O 0.77073 0.80286 0.7422 0.0
O912 O 0.78079 0.83337 0.77042 0.0
O913 O 0.83608 0.80403 0.75423 0.0
O914 O 0.76466 0.74514 0.81693 0.0
O915 O 0.78869 0.7736 0.77043 0.0
O916 O 0.82497 0.78245 0.78444 0.0
O917 O 0.80424 0.77572 0.82185 0.0
O918 O 0.79389 0.74575 0.79458 0.0
O919 O 0.73887 0.77416 0.81069 0.0
C920 C 0.77704 0.82574 0.79314 0.0
C921 C 0.81004 0.7863 0.65389 0.0
C922 C 0.82505 0.76707 0.66129 0.0
C923 C 0.83145 0.82539 0.74942 0.0
C924 C 0.84473 0.8337 0.72845 0.0
C925 C 0.84498 0.82725 0.70411 0.0
C926 C 0.85741 0.84808 0.73274 0.0
C927 C 0.87029 0.856 0.71273 0.0
C928 C 0.85735 0.83529 0.68418 0.0
C929 C 0.86989 0.84961 0.68838 0.0
C930 C 0.75213 0.8017 0.75509 0.0
C931 C 0.79789 0.75328 0.77186 0.0
C932 C 0.74388 0.7531 0.8173 0.0
C933 C 0.73068 0.74579 0.83904 0.0
C934 C 0.7291 0.75496 0.86223 0.0
C935 C 0.71939 0.72965 0.83663 0.0
C936 C 0.7065 0.72275 0.85733 0.0
C937 C 0.71669 0.74796 0.88287 0.0
C938 C 0.70548 0.73196 0.88051 0.0
C939 C 0.82283 0.77635 0.80869 0.0
H940 H 0.83571 0.81594 0.70048 0.0
H941 H 0.85754 0.85271 0.75166 0.0
H942 H 0.85728 0.83036 0.66541 0.0
H943 H 0.87921 0.85576 0.67249 0.0
H944 H 0.73734 0.76761 0.86437 0.0
H945 H 0.72031 0.72285 0.81858 0.0
H946 H 0.7157 0.75503 0.90075 0.0
H947 H 0.69607 0.72671 0.89691 0.0
H948 H 0.09695 0.07993 0.40665 0.0
H949 H 0.1205 0.10548 0.40283 0.0
H950 H 0.11665 0.11353 0.32289 0.0
H951 H 0.09243 0.08873 0.32662 0.0
H952 H 0.1602 0.10343 0.37589 0.0
H953 H 0.09908 0.17711 0.34348 0.0
H954 H 0.09207 0.15196 0.35655 0.0
H955 H 0.10368 0.15383 0.32459 0.0
C956 C 0.10091 0.08728 0.38828 0.0
C957 C 0.0926 0.08233 0.367 0.0
C958 C 0.11453 0.10175 0.3861 0.0
C959 C 0.12008 0.11166 0.36263 0.0
C960 C 0.11227 0.10639 0.34125 0.0
H961 H 0.22228 0.18451 0.34004 0.0
H962 H 0.20081 0.15789 0.33591 0.0
C963 C 0.0986 0.09195 0.34341 0.0
C964 C 0.13394 0.12759 0.36067 0.0
H965 H 0.13443 0.18149 0.34445 0.0
C966 C 0.15463 0.12049 0.36893 0.0
C967 C 0.12652 0.14988 0.3518 0.0
C968 C 0.10406 0.15877 0.3438 0.0
C969 C 0.16805 0.13511 0.36878 0.0
C970 C 0.16071 0.15734 0.35967 0.0
C971 C 0.1401 0.16438 0.35118 0.0
C972 C 0.17344 0.17399 0.36062 0.0
C973 C 0.18962 0.12682 0.37924 0.0
C974 C 0.16485 0.1923 0.37507 0.0
C975 C 0.17691 0.20763 0.37719 0.0
C976 C 0.19787 0.205 0.36491 0.0
C977 C 0.20619 0.18702 0.34973 0.0
C978 C 0.19405 0.17167 0.34757 0.0
H979 H 0.19069 0.11092 0.39059 0.0
H980 H 0.20261 0.1241 0.36351 0.0
H981 H 0.19266 0.13912 0.39114 0.0
H982 H 0.14891 0.19452 0.38513 0.0
H983 H 0.16983 0.22153 0.38859 0.0
H984 H 0.98141 0.0655 0.32733 0.0
H985 H 0.94783 0.09401 0.32481 0.0
H986 H 0.98366 0.14008 0.28899 0.0
H987 H 1.01741 0.11187 0.29248 0.0
H988 H 0.95619 0.1592 0.32419 0.0
H989 H 0.91184 0.11808 0.26898 0.0
H990 H 0.91985 0.10177 0.29694 0.0
H991 H 0.94011 0.10729 0.27281 0.0
C992 C 0.98214 0.08157 0.31847 0.0
C993 C 1.00215 0.08633 0.30997 0.0
C994 C 0.96284 0.09789 0.31695 0.0
C995 C 0.96303 0.11922 0.30635 0.0
C996 C 0.98299 0.1238 0.29723 0.0
H997 H 0.85086 0.22045 0.26524 0.0
H998 H 0.88302 0.19005 0.26683 0.0
C999 C 1.00231 0.10759 0.29911 0.0
C1000 C 0.94269 0.13714 0.3061 0.0
H1001 H 0.89112 0.15011 0.2892 0.0
C1002 C 0.94202 0.15721 0.31638 0.0
C1003 C 0.92416 0.13478 0.29572 0.0
C1004 C 0.92407 0.11441 0.28276 0.0
C1005 C 0.92348 0.17484 0.31666 0.0
C1006 C 0.90468 0.17214 0.30722 0.0
C1007 C 0.90537 0.15213 0.2968 0.0
C1008 C 0.88452 0.1902 0.30681 0.0
C1009 C 0.92452 0.1964 0.32637 0.0
C1010 C 0.87422 0.20025 0.32885 0.0
C1011 C 0.85585 0.21788 0.32795 0.0
C1012 C 0.84719 0.22558 0.30506 0.0
C1013 C 0.85704 0.21493 0.28322 0.0
C1014 C 0.8755 0.19752 0.28408 0.0
H1015 H 0.94145 0.19786 0.32592 0.0
H1016 H 0.91541 0.21077 0.31522 0.0
H1017 H 0.91733 0.19724 0.34616 0.0
H1018 H 0.88042 0.19452 0.34677 0.0
H1019 H 0.84842 0.22546 0.34517 0.0
H1020 H 0.97145 1.00074 0.35243 0.0
H1021 H 0.94785 0.97684 0.34606 0.0
H1022 H 0.99287 0.92072 0.37772 0.0
H1023 H 1.01619 0.94465 0.38464 0.0
H1024 H 0.95469 0.94143 0.31825 0.0
H1025 H 0.93756 0.91617 0.4187 0.0
H1026 H 0.95066 0.93828 0.40882 0.0
H1027 H 0.9658 0.90994 0.40806 0.0
C1028 C 0.9762 0.98332 0.35814 0.0
C1029 C 0.99549 0.97461 0.36934 0.0
C1030 C 0.96276 0.96968 0.35446 0.0
C1031 C 0.96841 0.94704 0.36178 0.0
C1032 C 0.98787 0.93823 0.37256 0.0
H1033 H 0.90358 0.84444 0.33399 0.0
H1034 H 0.93137 0.86531 0.33416 0.0
C1035 C 1.00118 0.95192 0.37653 0.0
C1036 C 0.95393 0.93271 0.35801 0.0
H1037 H 0.92439 0.89835 0.38908 0.0
C1038 C 0.94815 0.93195 0.33373 0.0
C1039 C 0.94527 0.92044 0.37825 0.0
C1040 C 0.94995 0.92137 0.40495 0.0
C1041 C 0.93387 0.91931 0.32923 0.0
C1042 C 0.92535 0.90709 0.34944 0.0
C1043 C 0.93125 0.90761 0.37361 0.0
C1044 C 0.90877 0.89516 0.34641 0.0
C1045 C 0.92744 0.91948 0.30312 0.0
C1046 C 0.88701 0.90525 0.35281 0.0
C1047 C 0.87125 0.89348 0.35272 0.0
C1048 C 0.87698 0.87134 0.34633 0.0
C1049 C 0.89873 0.86151 0.33888 0.0
C1050 C 0.91457 0.87334 0.33904 0.0
H1051 H 0.93571 0.92966 0.28928 0.0
H1052 H 0.93135 0.90232 0.29706 0.0
H1053 H 0.90972 0.92609 0.30317 0.0
H1054 H 0.88229 0.9221 0.35849 0.0
H1055 H 0.85457 0.90157 0.35819 0.0
H1056 H 0.12272 1.00455 0.27979 0.0
H1057 H 0.15197 0.97101 0.27554 0.0
H1058 H 0.11289 0.93375 0.32287 0.0
H1059 H 0.08351 0.96685 0.32665 0.0
H1060 H 0.17436 0.94605 0.3115 0.0
H1061 H 0.13378 0.89377 0.26617 0.0
H1062 H 0.12265 0.92305 0.2686 0.0
H1063 H 0.11895 0.9039 0.29482 0.0
C1064 C 0.1202 0.98913 0.28891 0.0
C1065 C 0.10065 0.98845 0.3034 0.0
C1066 C 0.13699 0.96997 0.28656 0.0
C1067 C 0.13459 0.94971 0.29858 0.0
C1068 C 0.11501 0.94897 0.31286 0.0
H1069 H 0.23865 0.83751 0.33846 0.0
H1070 H 0.20782 0.86968 0.33843 0.0
C1071 C 0.09821 0.96803 0.31509 0.0
C1072 C 0.15287 0.92962 0.29735 0.0
H1073 H 0.1666 0.87527 0.28362 0.0
C1074 C 0.17268 0.93063 0.30523 0.0
C1075 C 0.15083 0.90948 0.28897 0.0
C1076 C 0.13047 0.9075 0.27892 0.0
C1077 C 0.19029 0.91203 0.30543 0.0
C1078 C 0.18792 0.89169 0.29802 0.0
C1079 C 0.1683 0.89077 0.28963 0.0
C1080 C 0.2058 0.87132 0.29838 0.0
C1081 C 0.21138 0.91442 0.3132 0.0
C1082 C 0.21434 0.86091 0.27608 0.0
C1083 C 0.23199 0.84252 0.27606 0.0
C1084 C 0.24143 0.83414 0.29836 0.0
C1085 C 0.23212 0.8439 0.32087 0.0
C1086 C 0.2145 0.86231 0.32088 0.0
H1087 H 0.21228 0.93198 0.31194 0.0
H1088 H 0.21289 0.90792 0.33297 0.0
H1089 H 0.22533 0.90489 0.30135 0.0
H1090 H 0.20779 0.86746 0.25853 0.0
H1091 H 0.23878 0.83545 0.25836 0.0
H1092 H 0.09998 0.96335 0.72204 0.0
H1093 H 0.1307 0.93416 0.7336 0.0
H1094 H 0.12966 0.9644 0.80287 0.0
H1095 H 0.09818 0.99379 0.79148 0.0
H1096 H 0.16986 0.94081 0.7402 0.0
H1097 H 0.13694 0.89916 0.82622 0.0
H1098 H 0.11973 0.91783 0.80532 0.0
H1099 H 0.13349 0.92852 0.82671 0.0
C1100 C 0.10604 0.9637 0.73994 0.0
C1101 C 0.09673 0.98094 0.75582 0.0
C1102 C 0.12366 0.94697 0.7465 0.0
C1103 C 0.13256 0.94703 0.76907 0.0
C1104 C 0.1229 0.96382 0.7855 0.0
H1105 H 0.24935 0.85132 0.8157 0.0
H1106 H 0.21963 0.88454 0.81303 0.0
C1107 C 0.10495 0.98061 0.779 0.0
C1108 C 0.15275 0.93018 0.77404 0.0
H1109 H 0.17365 0.88514 0.81227 0.0
C1110 C 0.17071 0.92875 0.75609 0.0
C1111 C 0.15392 0.91449 0.79481 0.0
C1112 C 0.13498 0.91486 0.81432 0.0
C1113 C 0.18951 0.91176 0.7579 0.0
C1114 C 0.19041 0.89565 0.77816 0.0
C1115 C 0.17286 0.89753 0.79672 0.0
C1116 C 0.20888 0.87599 0.77943 0.0
C1117 C 0.20819 0.91099 0.73792 0.0
C1118 C 0.21275 0.86027 0.76136 0.0
C1119 C 0.22967 0.84134 0.76282 0.0
C1120 C 0.2431 0.83771 0.78239 0.0
C1121 C 0.23946 0.85372 0.80022 0.0
C1122 C 0.22238 0.87262 0.79886 0.0
H1123 H 0.20722 0.92727 0.72743 0.0
H1124 H 0.22384 0.90578 0.74624 0.0
H1125 H 0.20792 0.89876 0.72432 0.0
H1126 H 0.20243 0.86247 0.7463 0.0
H1127 H 0.23217 0.82953 0.74864 0.0
H1128 H 0.08694 0.0909 0.76311 0.0
H1129 H 0.11048 0.11372 0.77236 0.0
H1130 H 0.13734 0.1139 0.69501 0.0
H1131 H 0.11378 0.09106 0.68559 0.0
H1132 H 0.15433 0.10517 0.768 0.0
H1133 H 0.12109 0.17928 0.7074 0.0
H1134 H 0.1075 0.15721 0.71516 0.0
H1135 H 0.12938 0.15458 0.69059 0.0
C1136 C 0.09792 0.09567 0.74806 0.0
C1137 C 0.09845 0.08915 0.72356 0.0
C1138 C 0.11128 0.10884 0.75337 0.0
C1139 C 0.12539 0.11584 0.7343 0.0
C1140 C 0.12616 0.10918 0.70989 0.0
H1141 H 0.24181 0.15566 0.73783 0.0
H1142 H 0.2131 0.13623 0.73978 0.0
C1143 C 0.11273 0.09608 0.70453 0.0
C1144 C 0.13983 0.12949 0.74011 0.0
H1145 H 0.15528 0.17739 0.72221 0.0
C1146 C 0.15438 0.12108 0.7582 0.0
C1147 C 0.13958 0.15045 0.72771 0.0
C1148 C 0.12339 0.16104 0.70933 0.0
C1149 C 0.16936 0.1326 0.76335 0.0
C1150 C 0.17005 0.15287 0.74974 0.0
C1151 C 0.15484 0.16177 0.73252 0.0
C1152 C 0.18749 0.16419 0.75146 0.0
C1153 C 0.18443 0.12287 0.78319 0.0
C1154 C 0.18266 0.18643 0.75734 0.0
C1155 C 0.19911 0.19767 0.75606 0.0
C1156 C 0.22056 0.18688 0.74853 0.0
C1157 C 0.22539 0.16442 0.74353 0.0
C1158 C 0.20902 0.15323 0.74487 0.0
H1159 H 0.17732 0.11192 0.79728 0.0
H1160 H 0.19967 0.11273 0.77419 0.0
H1161 H 0.18836 0.13599 0.79305 0.0
H1162 H 0.16611 0.19522 0.76229 0.0
H1163 H 0.19494 0.21501 0.75981 0.0
H1164 H 1.00193 0.08834 0.78997 0.0
H1165 H 0.97225 0.12047 0.8013 0.0
H1166 H 0.946 0.11921 0.73138 0.0
H1167 H 0.97508 0.0875 0.72013 0.0
H1168 H 0.96214 0.16243 0.7721 0.0
H1169 H 0.89353 0.12251 0.78373 0.0
H1170 H 0.92121 0.10696 0.78476 0.0
H1171 H 0.91058 0.11632 0.75511 0.0
C1172 C 0.98958 0.09472 0.7773 0.0
C1173 C 0.99083 0.08536 0.75419 0.0
C1174 C 0.97274 0.11311 0.78371 0.0
C1175 C 0.95678 0.12204 0.76729 0.0
C1176 C 0.95788 0.11238 0.74453 0.0
H1177 H 0.84803 0.22934 0.74138 0.0
H1178 H 0.87852 0.19689 0.74046 0.0
C1179 C 0.97464 0.09428 0.73808 0.0
C1180 C 0.93948 0.14218 0.7728 0.0
H1181 H 0.88474 0.16192 0.77615 0.0
C1182 C 0.94519 0.16233 0.77347 0.0
C1183 C 0.9174 0.14199 0.77438 0.0
C1184 C 0.91027 0.12075 0.7747 0.0
C1185 C 0.92941 0.18246 0.7744 0.0
C1186 C 0.90735 0.18233 0.7751 0.0
C1187 C 0.90165 0.16206 0.77537 0.0
C1188 C 0.88985 0.20297 0.7749 0.0
C1189 C 0.93655 0.20375 0.77344 0.0
C1190 C 0.88621 0.21737 0.79437 0.0
C1191 C 0.86876 0.23595 0.7949 0.0
C1192 C 0.85445 0.24034 0.77613 0.0
C1193 C 0.8585 0.22624 0.7563 0.0
C1194 C 0.87598 0.20772 0.75573 0.0
H1195 H 0.95392 0.20144 0.76662 0.0
H1196 H 0.9269 0.21669 0.76105 0.0
H1197 H 0.93413 0.2098 0.79259 0.0
H1198 H 0.89641 0.21383 0.80964 0.0
H1199 H 0.86592 0.24626 0.81068 0.0
H1200 H 0.97619 1.00325 0.74322 0.0
H1201 H 0.95088 0.9793 0.74822 0.0
H1202 H 0.98869 0.94011 0.6893 0.0
H1203 H 1.01421 0.96368 0.68447 0.0
H1204 H 0.92683 0.96924 0.70979 0.0
H1205 H 0.98254 0.89491 0.74995 0.0
H1206 H 0.98695 0.92234 0.74954 0.0
H1207 H 0.99348 0.90731 0.7216 0.0
C1208 C 0.9792 0.98944 0.73146 0.0
C1209 C 0.99727 0.98532 0.7135 0.0
C1210 C 0.96467 0.97586 0.73427 0.0
C1211 C 0.9681 0.9578 0.71936 0.0
C1212 C 0.98594 0.9538 0.70122 0.0
H1213 H 0.91143 0.85424 0.69186 0.0
H1214 H 0.93375 0.87973 0.69604 0.0
C1215 C 1.00039 0.96743 0.69831 0.0
C1216 C 0.95292 0.94323 0.72239 0.0
H1217 H 0.95025 0.8897 0.73661 0.0
C1218 C 0.93179 0.9519 0.71593 0.0
C1219 C 0.95952 0.92067 0.73047 0.0
C1220 C 0.9818 0.91073 0.73852 0.0
C1221 C 0.91736 0.93831 0.71615 0.0
C1222 C 0.92414 0.91557 0.72361 0.0
C1223 C 0.94507 0.90711 0.73088 0.0
C1224 C 0.91048 0.89989 0.72212 0.0
C1225 C 0.89536 0.9482 0.70725 0.0
C1226 C 0.89009 0.90247 0.7358 0.0
C1227 C 0.8771 0.88802 0.73318 0.0
C1228 C 0.88436 0.87067 0.71695 0.0
C1229 C 0.90512 0.86772 0.70406 0.0
C1230 C 0.91799 0.88218 0.70659 0.0
H1231 H 0.89454 0.96451 0.69685 0.0
H1232 H 0.89106 0.93701 0.69488 0.0
H1233 H 0.88309 0.95066 0.72372 0.0
H1234 H 0.88416 0.91574 0.74833 0.0
H1235 H 0.8612 0.89076 0.74337 0.0
H1236 H 0.30638 0.11454 0.12488 0.0
H1237 H 0.32084 0.13728 0.14958 0.0
H1238 H 0.26193 0.14893 0.19915 0.0
H1239 H 0.24781 0.12534 0.17565 0.0
H1240 H 0.30742 0.17979 0.15871 0.0
H1241 H 0.30568 0.13059 0.24902 0.0
H1242 H 0.30205 0.12016 0.22002 0.0
H1243 H 0.27958 0.13761 0.23759 0.0
C1244 C 0.29657 0.12154 0.14127 0.0
C1245 C 0.27588 0.11778 0.14824 0.0
C1246 C 0.30487 0.13471 0.1553 0.0
C1247 C 0.29269 0.1444 0.17657 0.0
C1248 C 0.27192 0.14109 0.18326 0.0
H1249 H 0.28405 0.26047 0.24592 0.0
H1250 H 0.28727 0.23253 0.21666 0.0
C1251 C 0.2637 0.12779 0.16946 0.0
C1252 C 0.30114 0.15877 0.19128 0.0
H1253 H 0.30576 0.16899 0.25137 0.0
C1254 C 0.30745 0.17721 0.17892 0.0
C1255 C 0.3018 0.15513 0.21757 0.0
C1256 C 0.29715 0.13464 0.23175 0.0
C1257 C 0.31293 0.1929 0.19238 0.0
C1258 C 0.31148 0.19036 0.21891 0.0
C1259 C 0.30664 0.17114 0.23107 0.0
C1260 C 0.31237 0.20842 0.23455 0.0
C1261 C 0.31996 0.21215 0.17804 0.0
C1262 C 0.32524 0.20432 0.25471 0.0
C1263 C 0.32321 0.2205 0.27182 0.0
C1264 C 0.30845 0.24107 0.26889 0.0
C1265 C 0.29609 0.24525 0.24834 0.0
C1266 C 0.298 0.22915 0.2314 0.0
H1267 H 0.32794 0.20759 0.15913 0.0
H1268 H 0.30559 0.22596 0.17535 0.0
H1269 H 0.33129 0.21803 0.18825 0.0
H1270 H 0.33626 0.18833 0.25771 0.0
H1271 H 0.33267 0.21672 0.28775 0.0
H1272 H 0.9993 0.28352 0.13185 0.0
H1273 H 0.9662 0.2783 0.15597 0.0
H1274 H 0.93862 0.34855 0.14936 0.0
H1275 H 0.9715 0.35389 0.12438 0.0
H1276 H 0.94791 0.29498 0.20087 0.0
H1277 H 0.89108 0.32334 0.12806 0.0
H1278 H 0.92002 0.31679 0.12081 0.0
H1279 H 0.90612 0.343 0.13285 0.0
C1280 C 0.98611 0.29788 0.13506 0.0
C1281 C 0.98808 0.31916 0.12591 0.0
C1282 C 0.96722 0.29485 0.14906 0.0
C1283 C 0.9498 0.31298 0.15415 0.0
C1284 C 0.95169 0.33426 0.14522 0.0
H1285 H 0.82052 0.33142 0.22955 0.0
H1286 H 0.85469 0.33503 0.20626 0.0
C1287 C 0.97061 0.33732 0.13119 0.0
C1288 C 0.93005 0.30966 0.1697 0.0
H1289 H 0.87562 0.31772 0.16951 0.0
C1290 C 0.93203 0.29998 0.19411 0.0
C1291 C 0.90947 0.31586 0.16068 0.0
C1292 C 0.90649 0.32512 0.13409 0.0
C1293 C 0.91395 0.29705 0.21018 0.0
C1294 C 0.89306 0.30385 0.20148 0.0
C1295 C 0.89133 0.31298 0.17666 0.0
C1296 C 0.87273 0.30202 0.21739 0.0
C1297 C 0.91794 0.28689 0.23622 0.0
C1298 C 0.87114 0.28241 0.23166 0.0
C1299 C 0.85198 0.28099 0.24625 0.0
C1300 C 0.83359 0.29867 0.24582 0.0
C1301 C 0.83467 0.3178 0.23062 0.0
C1302 C 0.85418 0.31971 0.21712 0.0
H1303 H 0.93161 0.29177 0.24315 0.0
H1304 H 0.90367 0.29162 0.24982 0.0
H1305 H 0.92236 0.26862 0.23567 0.0
H1306 H 0.88461 0.26803 0.23135 0.0
H1307 H 0.85133 0.26572 0.25717 0.0
H1308 H 0.86534 0.94822 0.08332 0.0
H1309 H 0.85778 0.92493 0.12083 0.0
H1310 H 0.80909 0.90625 0.08465 0.0
H1311 H 0.81694 0.92891 0.04708 0.0
H1312 H 0.8175 0.93051 0.14953 0.0
H1313 H 0.84383 0.847 0.11287 0.0
H1314 H 0.85196 0.8707 0.09694 0.0
H1315 H 0.82576 0.8664 0.09383 0.0
C1316 C 0.85342 0.93871 0.08319 0.0
C1317 C 0.8417 0.9404 0.06231 0.0
C1318 C 0.849 0.92558 0.10465 0.0
C1319 C 0.83301 0.91375 0.10539 0.0
C1320 C 0.82173 0.91496 0.08432 0.0
H1321 H 0.7713 0.83276 0.21299 0.0
H1322 H 0.77982 0.85764 0.17769 0.0
C1323 C 0.82609 0.92808 0.06296 0.0
C1324 C 0.82701 0.90126 0.12864 0.0
H1325 H 0.82157 0.85018 0.15176 0.0
C1326 C 0.81856 0.9129 0.15014 0.0
C1327 C 0.82836 0.87833 0.12927 0.0
C1328 C 0.83816 0.86481 0.10707 0.0
C1329 C 0.81084 0.90231 0.17213 0.0
C1330 C 0.81184 0.87948 0.17258 0.0
C1331 C 0.82058 0.86778 0.1512 0.0
C1332 C 0.80451 0.86711 0.19524 0.0
C1333 C 0.80119 0.91572 0.19444 0.0
C1334 C 0.81513 0.86474 0.21702 0.0
C1335 C 0.81036 0.85047 0.23713 0.0
C1336 C 0.79505 0.83812 0.23565 0.0
C1337 C 0.78345 0.84166 0.21446 0.0
C1338 C 0.78826 0.85592 0.19433 0.0
H1339 H 0.79653 0.93369 0.18902 0.0
H1340 H 0.78675 0.91053 0.20382 0.0
H1341 H 0.8133 0.91303 0.20824 0.0
H1342 H 0.82797 0.87296 0.21793 0.0
H1343 H 0.8198 0.84798 0.25302 0.0
H1344 H 0.11165 0.72996 0.04598 0.0
H1345 H 0.13784 0.74045 0.06928 0.0
H1346 H 0.08905 0.75608 0.13167 0.0
H1347 H 0.06334 0.74452 0.10882 0.0
H1348 H 0.13738 0.77923 0.08624 0.0
H1349 H 0.13707 0.71736 0.16708 0.0
H1350 H 0.12446 0.71614 0.1392 0.0
H1351 H 0.11095 0.73498 0.16269 0.0
C1352 C 0.10684 0.73514 0.06491 0.0
C1353 C 0.08583 0.73591 0.07598 0.0
C1354 C 0.12162 0.74133 0.07809 0.0
C1355 C 0.11548 0.74873 0.10238 0.0
C1356 C 0.09435 0.74978 0.1133 0.0
H1357 H 0.19992 0.77635 0.20498 0.0
H1358 H 0.16702 0.78248 0.18352 0.0
C1359 C 0.07971 0.74313 0.10032 0.0
C1360 C 0.13124 0.75546 0.11605 0.0
H1361 H 0.15768 0.74328 0.16886 0.0
C1362 C 0.14173 0.77146 0.10439 0.0
C1363 C 0.13678 0.74543 0.13981 0.0
C1364 C 0.12689 0.72739 0.15284 0.0
C1365 C 0.15813 0.77714 0.11549 0.0
C1366 C 0.16403 0.76662 0.13882 0.0
C1367 C 0.15287 0.75146 0.15105 0.0
C1368 C 0.1837 0.76834 0.14927 0.0
C1369 C 0.1694 0.7939 0.10195 0.0
C1370 C 0.20387 0.75895 0.13677 0.0
C1371 C 0.2225 0.75524 0.14902 0.0
C1372 C 0.2212 0.76096 0.17388 0.0
C1373 C 0.20125 0.77194 0.18573 0.0
C1374 C 0.18252 0.77543 0.17354 0.0
H1375 H 0.15918 0.80497 0.08842 0.0
H1376 H 0.1738 0.80411 0.11542 0.0
H1377 H 0.18448 0.78512 0.09127 0.0
H1378 H 0.20504 0.753 0.11822 0.0
H1379 H 0.23778 0.7468 0.13957 0.0
H1380 H 0.20928 0.03331 0.01588 0.0
H1381 H 0.20986 1.00372 0.98868 0.0
H1382 H 0.25208 0.95734 0.03602 0.0
H1383 H 0.25091 0.98652 0.06353 0.0
H1384 H 0.24659 0.98311 0.96297 0.0
H1385 H 0.21301 0.92015 0.02105 0.0
H1386 H 0.20849 0.94813 0.03022 0.0
H1387 H 0.23289 0.92784 0.03676 0.0
C1388 C 0.21802 0.01663 0.02093 0.0
C1389 C 0.2302 0.0122 0.04168 0.0
C1390 C 0.21842 0.99978 1.00535 0.0
C1391 C 0.2308 0.97828 0.01048 0.0
C1392 C 0.24199 0.97365 0.03198 0.0
H1393 H 0.30798 0.867 0.9427 0.0
H1394 H 0.28674 0.89614 0.9692 0.0
C1395 C 0.24157 0.99042 0.04751 0.0
C1396 C 0.23493 0.96147 0.99171 0.0
H1397 H 0.2399 0.90648 0.98646 0.0
C1398 C 0.24456 0.9665 0.96782 0.0
C1399 C 0.23231 0.93982 0.99811 0.0
C1400 C 0.22089 0.93376 0.02287 0.0
C1401 C 0.25313 0.95006 0.95087 0.0
C1402 C 0.25178 0.92814 0.95798 0.0
C1403 C 0.24101 0.92333 0.98122 0.0
C1404 C 0.26334 0.90971 0.94256 0.0
C1405 C 0.26479 0.95593 0.92615 0.0
C1406 C 0.25697 0.90766 0.91902 0.0
C1407 C 0.26914 0.89116 0.9038 0.0
C1408 C 0.28784 0.87647 0.91194 0.0
C1409 C 0.29383 0.87828 0.93582 0.0
C1410 C 0.28163 0.89474 0.95103 0.0
H1411 H 0.26684 0.97311 0.92495 0.0
H1412 H 0.28097 0.9444 0.92331 0.0
H1413 H 0.25547 0.95432 0.9106 0.0
H1414 H 0.24281 0.91904 0.91229 0.0
H1415 H 0.26422 0.89023 0.88541 0.0
H1416 H 0.10132 0.34261 0.96909 0.0
H1417 H 0.13153 0.33718 0.93631 0.0
H1418 H 0.17105 0.29089 0.98631 0.0
H1419 H 0.14088 0.29619 0.01917 0.0
H1420 H 0.1717 0.34451 0.93533 0.0
H1421 H 0.17839 0.25559 0.92499 0.0
H1422 H 0.15558 0.27278 0.94239 0.0
H1423 H 0.1805 0.26193 0.95635 0.0
C1424 C 0.11646 0.3314 0.97322 0.0
C1425 C 0.11859 0.31976 0.99678 0.0
C1426 C 0.13371 0.32822 0.95439 0.0
C1427 C 0.15345 0.31332 0.95866 0.0
C1428 C 0.1558 0.30202 0.98232 0.0
H1429 H 0.27221 0.26963 0.86057 0.0
H1430 H 0.24555 0.27703 0.89711 0.0
C1431 C 0.13853 0.30512 1.00113 0.0
C1432 C 0.17164 0.31 0.93847 0.0
H1433 H 0.20557 0.27104 0.9024 0.0
C1434 C 0.17911 0.32844 0.92812 0.0
C1435 C 0.18134 0.28903 0.92908 0.0
C1436 C 0.17344 0.26873 0.93858 0.0
C1437 C 0.19603 0.32651 0.90876 0.0
C1438 C 0.20564 0.30557 0.89921 0.0
C1439 C 0.19834 0.28707 0.90979 0.0
C1440 C 0.22267 0.30251 0.87764 0.0
C1441 C 0.20347 0.34697 0.89897 0.0
C1442 C 0.21881 0.31437 0.8545 0.0
C1443 C 0.23422 0.31043 0.83375 0.0
C1444 C 0.25379 0.29453 0.83568 0.0
C1445 C 0.25758 0.28248 0.85873 0.0
C1446 C 0.24226 0.28657 0.87957 0.0
H1447 H 0.20048 0.35914 0.91359 0.0
H1448 H 0.22088 0.34295 0.89234 0.0
H1449 H 0.19428 0.35497 0.88299 0.0
H1450 H 0.20361 0.32627 0.85226 0.0
H1451 H 0.2307 0.31955 0.81603 0.0
H1452 H 0.84996 0.05953 0.89427 0.0
H1453 H 0.84233 0.09744 0.87515 0.0
H1454 H 0.80595 0.12109 0.94401 0.0
H1455 H 0.81355 0.08351 0.96315 0.0
H1456 H 0.78413 0.13629 0.90163 0.0
H1457 H 0.86725 0.14917 0.88852 0.0
H1458 H 0.8643 0.12485 0.87532 0.0
H1459 H 0.86014 0.12692 0.90873 0.0
C1460 C 0.8406 0.07288 0.90538 0.0
C1461 C 0.83222 0.06851 0.93012 0.0
C1462 C 0.83626 0.09449 0.89448 0.0
C1463 C 0.82369 0.11206 0.90825 0.0
C1464 C 0.81562 0.10776 0.93305 0.0
H1465 H 0.77197 0.25373 0.87549 0.0
H1466 H 0.77919 0.21594 0.89506 0.0
C1467 C 0.81989 0.08624 0.9439 0.0
C1468 C 0.81816 0.13486 0.89669 0.0
H1469 H 0.84 0.17704 0.87068 0.0
C1470 C 0.79631 0.14526 0.89489 0.0
C1471 C 0.83411 0.14647 0.88801 0.0
C1472 C 0.85776 0.13641 0.89039 0.0
C1473 C 0.78996 0.16687 0.88416 0.0
C1474 C 0.8059 0.17852 0.87539 0.0
C1475 C 0.82777 0.1681 0.87733 0.0
C1476 C 0.80048 0.20131 0.86353 0.0
C1477 C 0.76629 0.17673 0.88184 0.0
C1478 C 0.81039 0.20575 0.83966 0.0
C1479 C 0.80662 0.22725 0.82883 0.0
C1480 C 0.79244 0.24478 0.84127 0.0
C1481 C 0.78254 0.24041 0.86522 0.0
C1482 C 0.78655 0.21883 0.8763 0.0
H1483 H 0.7572 0.16374 0.88215 0.0
H1484 H 0.75934 0.1871 0.89788 0.0
H1485 H 0.76387 0.18728 0.86427 0.0
H1486 H 0.8213 0.19258 0.82947 0.0
H1487 H 0.81503 0.23003 0.81077 0.0
H1488 H 0.96543 0.71693 0.96311 0.0
H1489 H 0.93758 0.7238 0.93414 0.0
H1490 H 0.95999 0.7797 0.89899 0.0
H1491 H 0.98824 0.77271 0.92777 0.0
H1492 H 0.90485 0.76553 0.92818 0.0
H1493 H 0.95687 0.74092 0.84011 0.0
H1494 H 0.96578 0.7319 0.87082 0.0
H1495 H 0.96463 0.75974 0.85856 0.0
C1496 C 0.9647 0.73046 0.94898 0.0
C1497 C 0.97916 0.74419 0.94764 0.0
C1498 C 0.94868 0.73446 0.93256 0.0
C1499 C 0.9469 0.75211 0.91434 0.0
C1500 C 0.9613 0.76583 0.91279 0.0
H1501 H 0.8565 0.79607 0.80041 0.0
H1502 H 0.88694 0.79078 0.82574 0.0
C1503 C 0.9773 0.76192 0.92933 0.0
C1504 C 0.92942 0.75649 0.8976 0.0
H1505 H 0.91951 0.75438 0.83698 0.0
C1506 C 0.90801 0.76314 0.90823 0.0
C1507 C 0.9337 0.75349 0.8716 0.0
C1508 C 0.95646 0.74599 0.85948 0.0
C1509 C 0.89067 0.76686 0.89351 0.0
C1510 C 0.89489 0.76326 0.86759 0.0
C1511 C 0.91634 0.75701 0.85688 0.0
C1512 C 0.8772 0.7656 0.85143 0.0
C1513 C 0.86801 0.7749 0.90581 0.0
C1514 C 0.86209 0.75267 0.85697 0.0
C1515 C 0.84474 0.75569 0.84259 0.0
C1516 C 0.84229 0.77153 0.82228 0.0
C1517 C 0.858 0.78372 0.81598 0.0
C1518 C 0.87532 0.78079 0.83048 0.0
H1519 H 0.86791 0.78292 0.92345 0.0
H1520 H 0.85775 0.78685 0.89305 0.0
H1521 H 0.86067 0.7606 0.91061 0.0
H1522 H 0.86363 0.74033 0.87256 0.0
H1523 H 0.83336 0.74552 0.84728 0.0
H1524 H 0.14784 0.2627 0.09517 0.0
H1525 H 0.1711 0.26655 0.12657 0.0
H1526 H 0.11505 0.2938 0.17636 0.0
H1527 H 0.09153 0.29024 0.14492 0.0
H1528 H 0.16802 0.31076 0.14867 0.0
H1529 H 0.15661 0.24264 0.21893 0.0
H1530 H 0.15264 0.24213 0.18628 0.0
H1531 H 0.13314 0.26038 0.20617 0.0
C1532 C 0.14036 0.26922 0.11291 0.0
C1533 C 0.11773 0.27609 0.11745 0.0
C1534 C 0.15374 0.27149 0.13083 0.0
C1535 C 0.14485 0.28038 0.15387 0.0
C1536 C 0.12228 0.28673 0.1588 0.0
H1537 H 0.21134 0.29962 0.28187 0.0
H1538 H 0.18359 0.29703 0.25519 0.0
C1539 C 0.10886 0.28467 0.14077 0.0
C1540 C 0.15927 0.28404 0.17207 0.0
H1541 H 0.17958 0.26433 0.22796 0.0
C1542 C 0.17052 0.30065 0.16605 0.0
C1543 C 0.16229 0.27106 0.19488 0.0
C1544 C 0.15066 0.25294 0.2021 0.0
C1545 C 0.1848 0.30455 0.1821 0.0
C1546 C 0.18853 0.29101 0.20453 0.0
C1547 C 0.17686 0.2747 0.21081 0.0
C1548 C 0.20519 0.29285 0.22098 0.0
C1549 C 0.1955 0.32342 0.17494 0.0
C1550 C 0.22668 0.291 0.21088 0.0
C1551 C 0.24243 0.29268 0.22597 0.0
C1552 C 0.23729 0.29598 0.25177 0.0
C1553 C 0.21586 0.29733 0.26207 0.0
C1554 C 0.19999 0.2958 0.24682 0.0
H1555 H 0.18569 0.3364 0.16272 0.0
H1556 H 0.19813 0.33112 0.19175 0.0
H1557 H 0.21139 0.31712 0.16424 0.0
H1558 H 0.23141 0.28794 0.19128 0.0
H1559 H 0.2588 0.29086 0.21738 0.0
H1560 H 0.08771 0.79144 0.98474 0.0
H1561 H 0.12183 0.79531 0.96072 0.0
H1562 H 0.11252 0.75352 0.90556 0.0
H1563 H 0.07915 0.74922 0.92959 0.0
H1564 H 0.15147 0.73937 0.91856 0.0
H1565 H 0.13787 0.82978 0.89775 0.0
H1566 H 0.13427 0.82193 0.93062 0.0
H1567 H 0.11627 0.81687 0.90984 0.0
C1568 C 0.09271 0.78356 0.96718 0.0
C1569 C 0.08055 0.77007 0.95914 0.0
C1570 C 0.11229 0.78576 0.95337 0.0
C1571 C 0.11998 0.7748 0.93102 0.0
C1572 C 0.10726 0.76212 0.92265 0.0
H1573 H 0.22825 0.79346 0.82098 0.0
H1574 H 0.19264 0.79403 0.84363 0.0
C1575 C 0.088 0.75974 0.93645 0.0
C1576 C 0.14178 0.77492 0.91709 0.0
H1577 H 0.17351 0.80822 0.88765 0.0
C1578 C 0.15618 0.75451 0.91182 0.0
C1579 C 0.14815 0.79452 0.90784 0.0
C1580 C 0.13328 0.81703 0.91155 0.0
C1581 C 0.17641 0.75309 0.89781 0.0
C1582 C 0.18311 0.77265 0.88915 0.0
C1583 C 0.16868 0.79313 0.89427 0.0
C1584 C 0.20494 0.77214 0.87494 0.0
C1585 C 0.19005 0.73047 0.89185 0.0
C1586 C 0.22405 0.75985 0.88475 0.0
C1587 C 0.24438 0.75912 0.8715 0.0
C1588 C 0.24636 0.77078 0.84807 0.0
C1589 C 0.22735 0.78368 0.83855 0.0
C1590 C 0.20693 0.78421 0.8517 0.0
H1591 H 0.18 0.71836 0.89191 0.0
H1592 H 0.19941 0.73093 0.87326 0.0
H1593 H 0.20149 0.72442 0.90631 0.0
H1594 H 0.22331 0.75094 0.90291 0.0
H1595 H 0.25867 0.74947 0.87971 0.0
H1596 H 0.31709 0.09514 0.02759 0.0
H1597 H 0.3255 0.11881 0.99042 0.0
H1598 H 0.26132 0.12647 0.96892 0.0
H1599 H 0.25273 0.10384 1.0061 0.0
H1600 H 0.32545 0.11835 0.93925 0.0
H1601 H 0.26232 0.18984 0.97361 0.0
H1602 H 0.27085 0.16484 0.99304 0.0
H1603 H 0.25136 0.16657 0.97094 0.0
C1604 C 0.30495 0.1017 0.01469 0.0
C1605 C 0.28417 0.09793 0.01987 0.0
C1606 C 0.30971 0.11527 0.99354 0.0
C1607 C 0.29379 0.12504 0.97726 0.0
C1608 C 0.27362 0.11985 0.9816 0.0
H1609 H 0.27845 0.21178 0.84233 0.0
H1610 H 0.2767 0.18332 0.87654 0.0
C1611 C 0.26878 0.10673 1.00279 0.0
C1612 C 0.29769 0.1412 0.95616 0.0
H1613 H 0.2761 0.19291 0.9305 0.0
C1614 C 0.31481 0.13473 0.93747 0.0
C1615 C 0.28391 0.16271 0.95386 0.0
C1616 C 0.26624 0.17149 0.97408 0.0
C1617 C 0.31795 0.14886 0.91617 0.0
C1618 C 0.30362 0.16994 0.9135 0.0
C1619 C 0.28684 0.17659 0.9324 0.0
C1620 C 0.30585 0.18562 0.89146 0.0
C1621 C 0.33624 0.14103 0.89635 0.0
C1622 C 0.32289 0.19621 0.8884 0.0
C1623 C 0.32385 0.21251 0.86898 0.0
C1624 C 0.30779 0.21856 0.85224 0.0
C1625 C 0.29113 0.20739 0.85482 0.0
C1626 C 0.29006 0.19121 0.87441 0.0
H1627 H 0.34376 0.12308 0.89915 0.0
H1628 H 0.33044 0.14442 0.87739 0.0
H1629 H 0.34884 0.15024 0.89697 0.0
H1630 H 0.33514 0.19229 0.90144 0.0
H1631 H 0.33711 0.22048 0.8672 0.0
H1632 H 0.05403 0.26337 0.9854 0.0
H1633 H 1.02278 0.2631 0.96349 0.0
H1634 H 0.98143 0.27451 0.03248 0.0
H1635 H 1.01264 0.27466 0.05466 0.0
H1636 H 0.98662 0.23802 0.97485 0.0
H1637 H 0.96119 0.32943 0.97992 0.0
H1638 H 0.9885 0.31397 0.98372 0.0
H1639 H 0.96748 0.31306 0.00857 0.0
C1640 C 0.03839 0.26527 0.9961 0.0
C1641 C 0.0359 0.26909 0.02182 0.0
C1642 C 1.02052 0.26513 0.9835 0.0
C1643 C 0.99974 0.26901 0.99627 0.0
C1644 C 0.99732 0.27157 0.02223 0.0
H1645 H 0.87425 0.31292 0.9381 0.0
H1646 H 0.90351 0.30072 0.96532 0.0
C1647 C 1.01524 0.2715 0.03493 0.0
C1648 C 0.98053 0.2724 0.98197 0.0
H1649 H 0.93945 0.31284 0.95975 0.0
C1650 C 0.97619 0.25433 0.97162 0.0
C1651 C 0.967 0.29369 0.97771 0.0
C1652 C 0.97121 0.31376 0.98787 0.0
C1653 C 0.95848 0.25698 0.95742 0.0
C1654 C 0.94509 0.27839 0.9528 0.0
C1655 C 0.94953 0.2964 0.96326 0.0
C1656 C 0.92648 0.28285 0.93711 0.0
C1657 C 0.95408 0.23671 0.94801 0.0
C1658 C 0.92925 0.27645 0.91223 0.0
C1659 C 0.91227 0.28306 0.89679 0.0
C1660 C 0.89236 0.29656 0.90575 0.0
C1661 C 0.88939 0.30238 0.93078 0.0
C1662 C 0.90618 0.29551 0.9463 0.0
H1663 H 0.96093 0.22158 0.9597 0.0
H1664 H 0.9365 0.23829 0.9479 0.0
H1665 H 0.96184 0.23446 0.92857 0.0
H1666 H 0.94482 0.26723 0.90433 0.0
H1667 H 0.9151 0.27871 0.87742 0.0
H1668 H 0.77227 0.98109 0.94275 0.0
H1669 H 0.75957 0.95767 0.91627 0.0
H1670 H 0.81238 0.90285 0.93425 0.0
H1671 H 0.82511 0.92595 0.96026 0.0
H1672 H 0.78703 0.9359 0.87385 0.0
H1673 H 0.75905 0.8756 0.94334 0.0
H1674 H 0.76119 0.9023 0.95156 0.0
H1675 H 0.78489 0.87996 0.94791 0.0
C1676 C 0.78083 0.96391 0.94144 0.0
C1677 C 0.79969 0.95536 0.95354 0.0
C1678 C 0.77363 0.95059 0.92627 0.0
C1679 C 0.7849 0.92843 0.92351 0.0
C1680 C 0.80321 0.91975 0.9364 0.0
H1681 H 0.79869 0.81775 0.83526 0.0
H1682 H 0.79768 0.84355 0.8672 0.0
C1683 C 0.81055 0.93305 0.95115 0.0
C1684 C 0.77912 0.91476 0.90541 0.0
H1685 H 0.76669 0.86533 0.90084 0.0
C1686 C 0.78216 0.92068 0.8797 0.0
C1687 C 0.7731 0.89475 0.91312 0.0
C1688 C 0.76917 0.8878 0.9405 0.0
C1689 C 0.78039 0.90665 0.86146 0.0
C1690 C 0.77473 0.88639 0.86914 0.0
C1691 C 0.771 0.88083 0.8949 0.0
C1692 C 0.77384 0.87023 0.85077 0.0
C1693 C 0.78581 0.91314 0.83419 0.0
C1694 C 0.76041 0.87636 0.83119 0.0
C1695 C 0.76112 0.86165 0.81279 0.0
C1696 C 0.77472 0.84029 0.81406 0.0
C1697 C 0.78771 0.83394 0.83404 0.0
C1698 C 0.78717 0.84872 0.85229 0.0
H1699 H 0.79525 0.92595 0.83197 0.0
H1700 H 0.79522 0.89861 0.82396 0.0
H1701 H 0.77063 0.92007 0.82526 0.0
H1702 H 0.74962 0.89265 0.82989 0.0
H1703 H 0.75107 0.86698 0.79747 0.0
H1704 H 0.99739 0.76959 0.08888 0.0
H1705 H 0.97259 0.76946 0.12734 0.0
H1706 H 0.91836 0.7957 0.08412 0.0
H1707 H 0.94295 0.79469 0.04575 0.0
H1708 H 0.94354 0.79724 0.15414 0.0
H1709 H 0.8994 0.74397 0.11657 0.0
H1710 H 0.92365 0.74974 0.10008 0.0
H1711 H 0.89788 0.76913 0.09744 0.0
C1712 C 0.98019 0.77569 0.08768 0.0
C1713 C 0.97219 0.78216 0.06416 0.0
C1714 C 0.96593 0.77546 0.10972 0.0
C1715 C 0.94334 0.78183 0.10882 0.0
C1716 C 0.93553 0.78977 0.0855 0.0
H1717 H 0.83116 0.7971 0.222 0.0
H1718 H 0.85608 0.79905 0.18412 0.0
C1719 C 0.94969 0.78955 0.0635 0.0
C1720 C 0.92798 0.77996 0.13199 0.0
H1721 H 0.8833 0.76079 0.15445 0.0
C1722 C 0.9305 0.78909 0.15414 0.0
C1723 C 0.91085 0.7692 0.13247 0.0
C1724 C 0.90792 0.75725 0.11045 0.0
C1725 C 0.91631 0.78822 0.17619 0.0
C1726 C 0.89897 0.77797 0.17636 0.0
C1727 C 0.89642 0.76881 0.15436 0.0
C1728 C 0.88354 0.77632 0.1993 0.0
C1729 C 0.91972 0.79859 0.19916 0.0
C1730 C 0.8904 0.76265 0.22049 0.0
C1731 C 0.87602 0.76124 0.24207 0.0
C1732 C 0.85433 0.7733 0.24299 0.0
C1733 C 0.84754 0.78714 0.22182 0.0
C1734 C 0.86186 0.78837 0.20013 0.0
H1735 H 0.93137 0.80918 0.19486 0.0
H1736 H 0.90416 0.80871 0.20753 0.0
H1737 H 0.92609 0.78535 0.21341 0.0
H1738 H 0.90696 0.75304 0.22035 0.0
H1739 H 0.8819 0.7507 0.25812 0.0
H1740 H 0.25795 0.00634 0.1608 0.0
H1741 H 0.2674 0.96993 0.18214 0.0
H1742 H 0.32442 0.95218 0.13024 0.0
H1743 H 0.31473 0.98902 0.10812 0.0
H1744 H 0.30084 0.91946 0.13851 0.0
H1745 H 0.31354 0.94647 0.2295 0.0
H1746 H 0.28789 0.96085 0.21925 0.0
H1747 H 0.31236 0.96442 0.20121 0.0
C1748 C 0.27265 0.99487 0.15388 0.0
C1749 C 0.28565 1.00077 0.13274 0.0
C1750 C 0.2781 0.974 0.16631 0.0
C1751 C 0.29684 0.95837 0.15819 0.0
C1752 C 0.30996 0.96404 0.13702 0.0
H1753 H 0.34008 0.81949 0.21487 0.0
H1754 H 0.33781 0.85526 0.19118 0.0
C1755 C 0.30448 0.98512 0.12446 0.0
C1756 C 0.30195 0.93601 0.17154 0.0
H1757 H 0.30717 0.91032 0.23005 0.0
C1758 C 0.30267 0.91736 0.15844 0.0
C1759 C 0.30416 0.93323 0.19762 0.0
C1760 C 0.30466 0.95229 0.21266 0.0
C1761 C 0.30467 0.89624 0.17089 0.0
C1762 C 0.30631 0.89361 0.19711 0.0
C1763 C 0.30599 0.91221 0.21004 0.0
C1764 C 0.30794 0.87185 0.2116 0.0
C1765 C 0.30403 0.87712 0.15604 0.0
C1766 C 0.29223 0.86931 0.2314 0.0
C1767 C 0.29363 0.84893 0.24507 0.0
C1768 C 0.31105 0.8308 0.2396 0.0
C1769 C 0.32666 0.8333 0.2197 0.0
C1770 C 0.32527 0.85368 0.20603 0.0
H1771 H 0.29723 0.88282 0.13785 0.0
H1772 H 0.3207 0.86694 0.15198 0.0
H1773 H 0.29427 0.86642 0.16683 0.0
H1774 H 0.27871 0.88304 0.23611 0.0
H1775 H 0.28105 0.84735 0.25987 0.0
H1776 H 0.78299 0.04063 0.06285 0.0
H1777 H 0.77609 0.06856 0.09437 0.0
H1778 H 0.82279 0.09996 0.05209 0.0
H1779 H 0.82982 0.0723 0.02101 0.0
H1780 H 0.81204 0.07698 0.1214 0.0
H1781 H 0.76737 0.15108 0.06799 0.0
H1782 H 0.76825 0.12323 0.06069 0.0
H1783 H 0.79109 0.13477 0.05136 0.0
C1784 C 0.79138 0.0538 0.0601 0.0
C1785 C 0.80691 0.05434 0.03952 0.0
C1786 C 0.78756 0.06961 0.07814 0.0
C1787 C 0.7989 0.08636 0.07547 0.0
C1788 C 0.81375 0.08732 0.05442 0.0
H1789 H 0.80352 0.19848 0.15785 0.0
H1790 H 0.81169 0.16902 0.12829 0.0
C1791 C 0.81776 0.07146 0.0367 0.0
C1792 C 0.7964 0.10221 0.09518 0.0
H1793 H 0.78018 0.15716 0.10568 0.0
C1794 C 0.80487 0.09449 0.11813 0.0
C1795 C 0.78744 0.12506 0.09063 0.0
C1796 C 0.77786 0.13412 0.06642 0.0
C1797 C 0.8049 0.1091 0.13652 0.0
C1798 C 0.79581 0.13199 0.13204 0.0
C1799 C 0.7873 0.13966 0.10907 0.0
C1800 C 0.79381 0.14817 0.15137 0.0
C1801 C 0.81518 0.09996 0.1603 0.0
C1802 C 0.78155 0.146 0.17441 0.0
C1803 C 0.77703 0.16267 0.19126 0.0
C1804 C 0.78457 0.18194 0.18541 0.0
C1805 C 0.79781 0.18364 0.16298 0.0
C1806 C 0.80228 0.16693 0.14601 0.0
H1807 H 0.82708 0.08389 0.15761 0.0
H1808 H 0.82344 0.11167 0.16696 0.0
H1809 H 0.80247 0.09716 0.17517 0.0
H1810 H 0.77449 0.13195 0.17882 0.0
H1811 H 0.76662 0.16105 0.20834 0.0
H1812 H 0.59061 0.58567 0.82663 0.0
H1813 H 0.61525 0.60997 0.82104 0.0
H1814 H 0.62003 0.60441 0.90079 0.0
H1815 H 0.59615 0.57918 0.9065 0.0
H1816 H 0.60949 0.64971 0.83917 0.0
H1817 H 0.68285 0.59353 0.87377 0.0
H1818 H 0.66021 0.58372 0.86667 0.0
H1819 H 0.65958 0.59546 0.89618 0.0
C1820 C 0.59721 0.58913 0.843 0.0
C1821 C 0.59138 0.58024 0.86706 0.0
C1822 C 0.61121 0.60323 0.83975 0.0
C1823 C 0.61976 0.60877 0.86043 0.0
C1824 C 0.61403 0.59998 0.88447 0.0
H1825 H 0.66516 0.72373 0.87691 0.0
H1826 H 0.64494 0.69578 0.87535 0.0
C1827 C 0.6001 0.58577 0.88774 0.0
C1828 C 0.63366 0.62473 0.85698 0.0
H1829 H 0.68215 0.63213 0.86966 0.0
C1830 C 0.62546 0.64578 0.84562 0.0
C1831 C 0.65466 0.6195 0.865 0.0
C1832 C 0.66495 0.59675 0.87584 0.0
C1833 C 0.63735 0.66199 0.84288 0.0
C1834 C 0.6578 0.65717 0.85223 0.0
C1835 C 0.66637 0.63588 0.86274 0.0
C1836 C 0.67007 0.67432 0.85241 0.0
C1837 C 0.62788 0.68412 0.82996 0.0
C1838 C 0.69112 0.67136 0.84044 0.0
C1839 C 0.70289 0.68724 0.84158 0.0
C1840 C 0.69385 0.70625 0.85494 0.0
C1841 C 0.6727 0.70917 0.86672 0.0
C1842 C 0.661 0.69333 0.86558 0.0
H1843 H 0.61585 0.68287 0.81724 0.0
H1844 H 0.61948 0.69584 0.8443 0.0
H1845 H 0.64064 0.69107 0.8189 0.0
H1846 H 0.69848 0.65671 0.83033 0.0
H1847 H 0.71922 0.68439 0.83253 0.0
H1848 H 0.4776 0.56207 0.7756 0.0
H1849 H 0.44595 0.59324 0.77222 0.0
H1850 H 0.46548 0.62396 0.83128 0.0
H1851 H 0.49729 0.5935 0.83418 0.0
H1852 H 0.4127 0.60699 0.80653 0.0
H1853 H 0.45296 0.67548 0.78139 0.0
H1854 H 0.46752 0.64687 0.78042 0.0
H1855 H 0.46168 0.66019 0.80965 0.0
C1856 C 0.47537 0.57568 0.78752 0.0
C1857 C 0.49015 0.5753 0.805 0.0
C1858 C 0.45721 0.59346 0.78565 0.0
C1859 C 0.45346 0.61122 0.80119 0.0
C1860 C 0.46826 0.61087 0.81854 0.0
H1861 H 0.35063 0.72522 0.83907 0.0
H1862 H 0.38237 0.69416 0.83729 0.0
C1863 C 0.48646 0.59328 0.82027 0.0
C1864 C 0.43353 0.6295 0.80036 0.0
H1865 H 0.41545 0.68581 0.79641 0.0
C1866 C 0.41333 0.62421 0.804 0.0
C1867 C 0.43426 0.65204 0.79712 0.0
C1868 C 0.45528 0.65898 0.79167 0.0
C1869 C 0.39394 0.64077 0.80525 0.0
C1870 C 0.39473 0.66325 0.8026 0.0
C1871 C 0.41488 0.66856 0.79862 0.0
C1872 C 0.37488 0.68156 0.80412 0.0
C1873 C 0.37276 0.63411 0.81013 0.0
C1874 C 0.36003 0.68481 0.78613 0.0
C1875 C 0.34191 0.70273 0.78702 0.0
C1876 C 0.33833 0.71788 0.80584 0.0
C1877 C 0.35303 0.71424 0.82409 0.0
C1878 C 0.37116 0.69637 0.82316 0.0
H1879 H 0.37498 0.61656 0.81727 0.0
H1880 H 0.36155 0.64472 0.82392 0.0
H1881 H 0.36505 0.63625 0.79236 0.0
H1882 H 0.36273 0.67379 0.77104 0.0
H1883 H 0.33108 0.70504 0.77248 0.0
H1884 H 0.47834 0.47376 0.90882 0.0
H1885 H 0.45319 0.45117 0.90348 0.0
H1886 H 0.46297 0.46264 0.8232 0.0
H1887 H 0.48832 0.48483 0.82829 0.0
H1888 H 0.41379 0.46343 0.87541 0.0
H1889 H 0.47839 0.39365 0.83766 0.0
H1890 H 0.48408 0.41447 0.85519 0.0
H1891 H 0.47802 0.42078 0.82323 0.0
C1892 C 0.47513 0.47146 0.89005 0.0
C1893 C 0.48536 0.4811 0.86902 0.0
C1894 C 0.46069 0.45868 0.88704 0.0
C1895 C 0.45639 0.45514 0.86295 0.0
C1896 C 0.4662 0.46508 0.84194 0.0
H1897 H 0.39179 0.35877 0.81984 0.0
H1898 H 0.40863 0.39002 0.81735 0.0
C1899 C 0.48055 0.47793 0.84493 0.0
C1900 C 0.44211 0.44054 0.85978 0.0
H1901 H 0.4427 0.38992 0.84057 0.0
C1902 C 0.42003 0.44739 0.8677 0.0
C1903 C 0.45032 0.41977 0.84946 0.0
C1904 C 0.47401 0.41155 0.84101 0.0
C1905 C 0.4059 0.43387 0.86574 0.0
C1906 C 0.41423 0.41271 0.85624 0.0
C1907 C 0.43627 0.40615 0.84777 0.0
C1908 C 0.40092 0.39634 0.8567 0.0
C1909 C 0.38219 0.44252 0.87372 0.0
C1910 C 0.39048 0.38984 0.87947 0.0
C1911 C 0.38054 0.37227 0.88084 0.0
C1912 C 0.38121 0.36046 0.85958 0.0
C1913 C 0.39078 0.36763 0.83651 0.0
C1914 C 0.40058 0.38538 0.83511 0.0
H1915 H 0.37741 0.46086 0.8715 0.0
H1916 H 0.37199 0.43576 0.86272 0.0
H1917 H 0.37887 0.43766 0.89387 0.0
H1918 H 0.3909 0.39762 0.89653 0.0
H1919 H 0.3731 0.36733 0.89884 0.0
H1920 H 0.60495 0.49831 0.81189 0.0
H1921 H 0.63855 0.46926 0.8092 0.0
H1922 H 0.60211 0.42018 0.80821 0.0
H1923 H 0.56853 0.44896 0.81095 0.0
H1924 H 0.63218 0.41071 0.84474 0.0
H1925 H 0.66997 0.43159 0.75027 0.0
H1926 H 0.66113 0.45394 0.7708 0.0
H1927 H 0.64157 0.44193 0.75977 0.0
C1928 C 0.60408 0.4814 0.81057 0.0
C1929 C 0.58397 0.47603 0.81159 0.0
C1930 C 0.62334 0.46479 0.80904 0.0
C1931 C 0.62285 0.44254 0.80842 0.0
C1932 C 0.60287 0.43723 0.80867 0.0
H1933 H 0.72401 0.32596 0.77657 0.0
H1934 H 0.69188 0.35655 0.77816 0.0
C1935 C 0.58367 0.45377 0.81012 0.0
C1936 C 0.64296 0.42458 0.8089 0.0
H1937 H 0.69081 0.40277 0.77501 0.0
C1938 C 0.64503 0.409 0.82952 0.0
C1939 C 0.65966 0.42232 0.78898 0.0
C1940 C 0.65802 0.43819 0.76607 0.0
C1941 C 0.66329 0.39119 0.83074 0.0
C1942 C 0.68003 0.38898 0.81089 0.0
C1943 C 0.678 0.40458 0.79028 0.0
C1944 C 0.69936 0.37009 0.81069 0.0
C1945 C 0.66431 0.37454 0.85295 0.0
C1946 C 0.71421 0.36739 0.8286 0.0
C1947 C 0.73262 0.34976 0.82785 0.0
C1948 C 0.73658 0.33454 0.80913 0.0
C1949 C 0.72144 0.33715 0.79147 0.0
C1950 C 0.70312 0.35479 0.79218 0.0
H1951 H 0.64834 0.37606 0.864 0.0
H1952 H 0.67015 0.35744 0.84673 0.0
H1953 H 0.67583 0.37723 0.86549 0.0
H1954 H 0.71173 0.3791 0.84295 0.0
H1955 H 0.74372 0.34814 0.84189 0.0
H1956 H 0.61278 0.47163 0.22121 0.0
H1957 H 0.6424 0.44227 0.23488 0.0
H1958 H 0.62714 0.46284 0.31065 0.0
H1959 H 0.5968 0.49253 0.29703 0.0
H1960 H 0.67784 0.44772 0.25599 0.0
H1961 H 0.63297 0.39549 0.31935 0.0
H1962 H 0.6198 0.41663 0.29735 0.0
H1963 H 0.62759 0.42419 0.32567 0.0
C1964 C 0.61553 0.46998 0.24086 0.0
C1965 C 0.60241 0.48454 0.25803 0.0
C1966 C 0.63254 0.4531 0.24863 0.0
C1967 C 0.63697 0.45027 0.27377 0.0
C1968 C 0.62382 0.46455 0.29119 0.0
H1969 H 0.74458 0.34729 0.33025 0.0
H1970 H 0.71393 0.37975 0.32814 0.0
C1971 C 0.60657 0.48155 0.28339 0.0
C1972 C 0.65597 0.43275 0.2809 0.0
H1973 H 0.67074 0.38237 0.3127 0.0
C1974 C 0.67631 0.43355 0.26862 0.0
C1975 C 0.65396 0.4143 0.2974 0.0
C1976 C 0.63242 0.41237 0.31064 0.0
C1977 C 0.69454 0.41612 0.27174 0.0
C1978 C 0.69236 0.39728 0.28739 0.0
C1979 C 0.67228 0.39684 0.30061 0.0
C1980 C 0.71053 0.37742 0.289 0.0
C1981 C 0.71595 0.41784 0.25791 0.0
C1982 C 0.71858 0.3653 0.26776 0.0
C1983 C 0.73601 0.34685 0.2689 0.0
C1984 C 0.74568 0.34012 0.29133 0.0
C1985 C 0.73753 0.35222 0.31264 0.0
C1986 C 0.71998 0.37064 0.31153 0.0
H1987 H 0.71619 0.43525 0.25203 0.0
H1988 H 0.72938 0.41069 0.26973 0.0
H1989 H 0.71889 0.40843 0.24079 0.0
H1990 H 0.7114 0.37019 0.25024 0.0
H1991 H 0.74219 0.33816 0.25208 0.0
H1992 H 0.5912 0.61539 0.18797 0.0
H1993 H 0.61646 0.6377 0.1928 0.0
H1994 H 0.64324 0.59172 0.25216 0.0
H1995 H 0.61869 0.56876 0.24673 0.0
H1996 H 0.62109 0.65849 0.23402 0.0
H1997 H 0.69686 0.59662 0.20633 0.0
H1998 H 0.67061 0.59347 0.20101 0.0
H1999 H 0.67999 0.58704 0.23166 0.0
C2000 C 0.60267 0.60976 0.20176 0.0
C2001 C 0.60293 0.59013 0.21683 0.0
C2002 C 0.61699 0.62267 0.20467 0.0
C2003 C 0.63192 0.61624 0.22262 0.0
C2004 C 0.63212 0.5968 0.23786 0.0
H2005 H 0.73205 0.67852 0.25774 0.0
H2006 H 0.70484 0.65662 0.26155 0.0
C2007 C 0.61787 0.58381 0.23491 0.0
C2008 C 0.64704 0.63008 0.22551 0.0
H2009 H 0.70056 0.62981 0.22112 0.0
C2010 C 0.63846 0.65221 0.23124 0.0
C2011 C 0.66972 0.62183 0.22194 0.0
C2012 C 0.6799 0.59851 0.21467 0.0
C2013 C 0.65196 0.66634 0.23332 0.0
C2014 C 0.67457 0.65817 0.22942 0.0
C2015 C 0.68319 0.63595 0.22425 0.0
C2016 C 0.68956 0.67276 0.22877 0.0
C2017 C 0.64197 0.68994 0.23961 0.0
C2018 C 0.6898 0.68913 0.20922 0.0
C2019 C 0.70533 0.70149 0.20693 0.0
C2020 C 0.72085 0.69775 0.22422 0.0
C2021 C 0.72013 0.68187 0.24432 0.0
C2022 C 0.70471 0.66931 0.24644 0.0
H2023 H 0.62496 0.69219 0.24792 0.0
H2024 H 0.65134 0.6953 0.25293 0.0
H2025 H 0.64212 0.70088 0.2222 0.0
H2026 H 0.67842 0.69184 0.19523 0.0
H2027 H 0.7055 0.71368 0.19132 0.0
H2028 H 0.50982 0.59076 0.29384 0.0
H2029 H 0.48173 0.6236 0.30677 0.0
H2030 H 0.44969 0.62229 0.241 0.0
H2031 H 0.47714 0.5898 0.22826 0.0
H2032 H 0.47076 0.66499 0.27888 0.0
H2033 H 0.4004 0.62789 0.29686 0.0
H2034 H 0.42788 0.61139 0.29521 0.0
H2035 H 0.41511 0.62143 0.26694 0.0
C2036 C 0.49654 0.59728 0.28246 0.0
C2037 C 0.49566 0.58764 0.26008 0.0
C2038 C 0.4806 0.61607 0.28977 0.0
C2039 C 0.46345 0.62519 0.27502 0.0
C2040 C 0.46248 0.61531 0.25296 0.0
H2041 H 0.36537 0.73897 0.24378 0.0
H2042 H 0.39534 0.7061 0.24492 0.0
C2043 C 0.47832 0.59676 0.24563 0.0
C2044 C 0.44703 0.64572 0.28145 0.0
H2045 H 0.39249 0.6674 0.28766 0.0
C2046 C 0.45366 0.66548 0.28141 0.0
C2047 C 0.42471 0.64634 0.28468 0.0
C2048 C 0.4166 0.62558 0.28618 0.0
C2049 C 0.43849 0.68597 0.28309 0.0
C2050 C 0.41626 0.6866 0.28489 0.0
C2051 C 0.40961 0.66681 0.28608 0.0
C2052 C 0.39959 0.70769 0.28395 0.0
C2053 C 0.44616 0.70695 0.28172 0.0
C2054 C 0.39238 0.71966 0.30542 0.0
C2055 C 0.37502 0.73834 0.30491 0.0
C2056 C 0.3646 0.74522 0.28293 0.0
C2057 C 0.37269 0.7338 0.26114 0.0
C2058 C 0.38989 0.7151 0.26171 0.0
H2059 H 0.46406 0.70373 0.2796 0.0
H2060 H 0.43973 0.718 0.26561 0.0
H2061 H 0.43983 0.71583 0.29902 0.0
H2062 H 0.39967 0.7141 0.32277 0.0
H2063 H 0.3691 0.74668 0.32206 0.0
H2064 H 0.50408 0.47715 0.26075 0.0
H2065 H 0.47797 0.45416 0.26642 0.0
H2066 H 0.46491 0.46944 0.18913 0.0
H2067 H 0.49062 0.49286 0.18346 0.0
H2068 H 0.42745 0.47264 0.22384 0.0
H2069 H 0.48822 0.39298 0.23723 0.0
H2070 H 0.48879 0.41417 0.25742 0.0
H2071 H 0.49554 0.41801 0.22423 0.0
C2072 C 0.49552 0.4758 0.24502 0.0
C2073 C 0.49952 0.48678 0.2216 0.0
C2074 C 0.48075 0.46248 0.24824 0.0
C2075 C 0.46973 0.45989 0.22811 0.0
C2076 C 0.47336 0.47113 0.20487 0.0
H2077 H 0.40511 0.36265 0.19841 0.0
H2078 H 0.42968 0.38599 0.20217 0.0
C2079 C 0.48817 0.48438 0.2016 0.0
C2080 C 0.45443 0.44541 0.2311 0.0
H2081 H 0.45168 0.3915 0.24082 0.0
C2082 C 0.43267 0.45491 0.22771 0.0
C2083 C 0.4614 0.42229 0.23594 0.0
C2084 C 0.48478 0.41114 0.23873 0.0
C2085 C 0.41768 0.44185 0.22868 0.0
C2086 C 0.42463 0.4187 0.23358 0.0
C2087 C 0.44636 0.40926 0.23731 0.0
C2088 C 0.41006 0.40381 0.23275 0.0
C2089 C 0.39477 0.45286 0.22345 0.0
C2090 C 0.39108 0.40569 0.24912 0.0
C2091 C 0.3768 0.3925 0.24681 0.0
C2092 C 0.38135 0.37712 0.22817 0.0
C2093 C 0.40086 0.37466 0.21259 0.0
C2094 C 0.41503 0.38786 0.21485 0.0
H2095 H 0.3933 0.46984 0.2146 0.0
H2096 H 0.38874 0.44305 0.21095 0.0
H2097 H 0.3842 0.45407 0.24139 0.0
H2098 H 0.38714 0.41757 0.26342 0.0
H2099 H 0.36191 0.39483 0.25909 0.0
H2100 H 0.83376 0.61288 0.59674 0.0
H2101 H 0.83548 0.64006 0.62609 0.0
H2102 H 0.77453 0.63326 0.66465 0.0
H2103 H 0.77316 0.60558 0.63623 0.0
H2104 H 0.81052 0.67931 0.63501 0.0
H2105 H 0.8083 0.62703 0.72326 0.0
H2106 H 0.81223 0.61572 0.69291 0.0
H2107 H 0.78545 0.62825 0.70655 0.0
C2108 C 0.82089 0.61695 0.6117 0.0
C2109 C 0.80348 0.6068 0.61427 0.0
C2110 C 0.82184 0.63257 0.62844 0.0
C2111 C 0.80535 0.63847 0.64802 0.0
C2112 C 0.78783 0.62855 0.65033 0.0
H2113 H 0.77783 0.75957 0.7285 0.0
H2114 H 0.78046 0.73243 0.69753 0.0
C2115 C 0.78702 0.61274 0.63389 0.0
C2116 C 0.80601 0.65556 0.66542 0.0
H2117 H 0.80107 0.66592 0.72744 0.0
C2118 C 0.80865 0.6763 0.65523 0.0
C2119 C 0.80385 0.65167 0.69186 0.0
C2120 C 0.80253 0.62938 0.70428 0.0
C2121 C 0.80888 0.69326 0.67063 0.0
C2122 C 0.80573 0.68973 0.69708 0.0
C2123 C 0.80335 0.66887 0.70723 0.0
C2124 C 0.8051 0.70712 0.71475 0.0
C2125 C 0.81318 0.71452 0.6583 0.0
C2126 C 0.81767 0.70204 0.7352 0.0
C2127 C 0.81575 0.71738 0.75324 0.0
C2128 C 0.8016 0.73838 0.75101 0.0
C2129 C 0.78931 0.74373 0.73035 0.0
C2130 C 0.79092 0.7282 0.71252 0.0
H2131 H 0.82181 0.71213 0.63923 0.0
H2132 H 0.79763 0.72686 0.65636 0.0
H2133 H 0.823 0.72124 0.66973 0.0
H2134 H 0.82872 0.68597 0.73751 0.0
H2135 H 0.8252 0.71275 0.76915 0.0
H2136 H 0.47942 0.79554 0.60671 0.0
H2137 H 0.44449 0.79996 0.63216 0.0
H2138 H 0.47202 0.74499 0.68196 0.0
H2139 H 0.50693 0.74062 0.65686 0.0
H2140 H 0.41877 0.76844 0.64359 0.0
H2141 H 0.4423 0.79304 0.73081 0.0
H2142 H 0.45828 0.79404 0.70096 0.0
H2143 H 0.45951 0.76813 0.71875 0.0
C2144 C 0.47815 0.78452 0.62322 0.0
C2145 C 0.4962 0.7677 0.62959 0.0
C2146 C 0.45807 0.78701 0.63774 0.0
C2147 C 0.4555 0.77301 0.65929 0.0
C2148 C 0.4735 0.75627 0.66573 0.0
H2149 H 0.34772 0.75937 0.77136 0.0
H2150 H 0.383 0.75678 0.74732 0.0
C2151 C 0.4935 0.75364 0.65112 0.0
C2152 C 0.43393 0.77537 0.67451 0.0
H2153 H 0.40778 0.78539 0.73322 0.0
C2154 C 0.41636 0.77229 0.66314 0.0
C2155 C 0.43066 0.78015 0.70017 0.0
C2156 C 0.4486 0.78423 0.71343 0.0
C2157 C 0.39594 0.77341 0.67667 0.0
C2158 C 0.39254 0.7785 0.70228 0.0
C2159 C 0.41015 0.78157 0.71366 0.0
C2160 C 0.37094 0.78066 0.71749 0.0
C2161 C 0.37841 0.76832 0.66351 0.0
C2162 C 0.35218 0.79524 0.70929 0.0
C2163 C 0.33193 0.79664 0.72303 0.0
C2164 C 0.32987 0.78402 0.74577 0.0
C2165 C 0.34866 0.76966 0.75421 0.0
C2166 C 0.36892 0.76812 0.74036 0.0
H2167 H 0.38525 0.75816 0.64723 0.0
H2168 H 0.36823 0.75936 0.67646 0.0
H2169 H 0.36794 0.78402 0.65632 0.0
H2170 H 0.35315 0.80558 0.69215 0.0
H2171 H 0.3178 0.80775 0.71589 0.0
H2172 H 0.30275 0.43706 0.56143 0.0
H2173 H 0.29657 0.4131 0.59862 0.0
H2174 H 0.3559 0.41846 0.62464 0.0
H2175 H 0.36192 0.44292 0.58784 0.0
H2176 H 0.32222 0.37241 0.61547 0.0
H2177 H 0.31186 0.43516 0.68549 0.0
H2178 H 0.311 0.44244 0.6523 0.0
H2179 H 0.33648 0.4317 0.66503 0.0
C2180 C 0.3144 0.43336 0.57514 0.0
C2181 C 0.33277 0.44215 0.57161 0.0
C2182 C 0.3109 0.41951 0.59636 0.0
C2183 C 0.32558 0.41423 0.61467 0.0
C2184 C 0.34412 0.42261 0.61103 0.0
H2185 H 0.33299 0.33297 0.75524 0.0
H2186 H 0.33841 0.35843 0.71912 0.0
C2187 C 0.34767 0.43643 0.58977 0.0
C2188 C 0.32158 0.39973 0.63738 0.0
H2189 H 0.31349 0.39831 0.70147 0.0
C2190 C 0.32022 0.3781 0.63427 0.0
C2191 C 0.31902 0.40712 0.66194 0.0
C2192 C 0.31946 0.43043 0.6665 0.0
C2193 C 0.31676 0.36356 0.655 0.0
C2194 C 0.3141 0.37099 0.67957 0.0
C2195 C 0.3155 0.39261 0.68268 0.0
C2196 C 0.31002 0.35652 0.70226 0.0
C2197 C 0.31654 0.34018 0.65042 0.0
C2198 C 0.29184 0.34755 0.70534 0.0
C2199 C 0.28865 0.33307 0.72604 0.0
C2200 C 0.30353 0.32727 0.74418 0.0
C2201 C 0.32117 0.33711 0.74169 0.0
C2202 C 0.32436 0.35158 0.72095 0.0
H2203 H 0.32456 0.33539 0.6316 0.0
H2204 H 0.32471 0.32823 0.66486 0.0
H2205 H 0.29957 0.33884 0.65134 0.0
H2206 H 0.28017 0.35161 0.6916 0.0
H2207 H 0.27459 0.3263 0.72771 0.0
H2208 H 0.59405 0.24778 0.55471 0.0
H2209 H 0.61754 0.25791 0.58118 0.0
H2210 H 0.5753 0.32315 0.58554 0.0
H2211 H 0.55098 0.31281 0.5589 0.0
H2212 H 0.64006 0.2897 0.57472 0.0
H2213 H 0.58098 0.30265 0.65963 0.0
H2214 H 0.57627 0.28968 0.63288 0.0
H2215 H 0.57336 0.31902 0.63141 0.0
C2216 C 0.58956 0.26436 0.56119 0.0
C2217 C 0.57041 0.27942 0.55478 0.0
C2218 C 0.60318 0.27016 0.57632 0.0
C2219 C 0.5982 0.29121 0.58566 0.0
C2220 C 0.57936 0.30667 0.57889 0.0
H2221 H 0.70713 0.30143 0.66812 0.0
H2222 H 0.67816 0.31426 0.64027 0.0
C2223 C 0.56556 0.30082 0.56352 0.0
C2224 C 0.61292 0.29606 0.60278 0.0
H2225 H 0.61682 0.30212 0.66452 0.0
C2226 C 0.63495 0.29286 0.59428 0.0
C2227 C 0.60627 0.30001 0.62834 0.0
C2228 C 0.58298 0.30292 0.63881 0.0
C2229 C 0.65062 0.29201 0.6108 0.0
C2230 C 0.64407 0.29516 0.6366 0.0
C2231 C 0.62188 0.29978 0.64479 0.0
C2232 C 0.65999 0.29046 0.65578 0.0
C2233 C 0.67413 0.28604 0.60072 0.0
C2234 C 0.65877 0.27392 0.67494 0.0
C2235 C 0.67497 0.26696 0.69115 0.0
C2236 C 0.69303 0.27619 0.68856 0.0
C2237 C 0.69354 0.29386 0.67055 0.0
C2238 C 0.67711 0.301 0.65438 0.0
H2239 H 0.67649 0.27975 0.58166 0.0
H2240 H 0.68067 0.30095 0.59949 0.0
H2241 H 0.68368 0.27323 0.61332 0.0
H2242 H 0.64571 0.26561 0.67671 0.0
H2243 H 0.67373 0.25369 0.70521 0.0
H2244 H 0.80585 0.54037 0.48366 0.0
H2245 H 0.80974 0.50782 0.45999 0.0
H2246 H 0.8116 0.46681 0.52889 0.0
H2247 H 0.80771 0.49932 0.55285 0.0
H2248 H 0.84254 0.44839 0.48787 0.0
H2249 H 0.75888 0.4776 0.46026 0.0
H2250 H 0.7757 0.49683 0.45336 0.0
H2251 H 0.76808 0.489 0.48542 0.0
C2252 C 0.80741 0.5244 0.49384 0.0
C2253 C 0.80635 0.52255 0.52025 0.0
C2254 C 0.80947 0.50581 0.48023 0.0
C2255 C 0.81053 0.48494 0.49267 0.0
C2256 C 0.81066 0.48279 0.5189 0.0
H2257 H 0.78879 0.36288 0.45383 0.0
H2258 H 0.78705 0.39891 0.46949 0.0
C2259 C 0.80853 0.5014 0.53257 0.0
C2260 C 0.81078 0.46551 0.47845 0.0
H2261 H 0.77999 0.44436 0.44395 0.0
C2262 C 0.82894 0.44756 0.47812 0.0
C2263 C 0.79291 0.46438 0.46591 0.0
C2264 C 0.77268 0.48286 0.46632 0.0
C2265 C 0.82972 0.42853 0.46561 0.0
C2266 C 0.81191 0.42742 0.45301 0.0
C2267 C 0.79374 0.44536 0.45332 0.0
C2268 C 0.81125 0.40697 0.4413 0.0
C2269 C 0.84935 0.40942 0.46651 0.0
C2270 C 0.82486 0.39989 0.41966 0.0
C2271 C 0.8257 0.37935 0.41047 0.0
C2272 C 0.8131 0.36551 0.42298 0.0
C2273 C 0.79876 0.37316 0.4439 0.0
C2274 C 0.79774 0.39373 0.45286 0.0
H2275 H 0.86047 0.41165 0.47987 0.0
H2276 H 0.84443 0.39373 0.47206 0.0
H2277 H 0.85828 0.40782 0.44756 0.0
H2278 H 0.83529 0.40995 0.41033 0.0
H2279 H 0.83695 0.37381 0.39439 0.0
H2280 H 0.63366 0.73447 0.48049 0.0
H2281 H 0.66142 0.73914 0.44694 0.0
H2282 H 0.65288 0.80672 0.46467 0.0
H2283 H 0.62482 0.80231 0.49825 0.0
H2284 H 0.65807 0.76669 0.40488 0.0
H2285 H 0.71836 0.78487 0.46034 0.0
H2286 H 0.69603 0.77394 0.47467 0.0
H2287 H 0.6919 0.80288 0.46534 0.0
C2288 C 0.63751 0.75041 0.47741 0.0
C2289 C 0.62662 0.768 0.49238 0.0
C2290 C 0.65361 0.75302 0.45812 0.0
C2291 C 0.65961 0.77322 0.4532 0.0
C2292 C 0.64901 0.79078 0.46824 0.0
H2293 H 0.72587 0.81135 0.31 0.0
H2294 H 0.70028 0.80847 0.34702 0.0
C2295 C 0.63281 0.78821 0.48756 0.0
C2296 C 0.67613 0.776 0.43161 0.0
H2297 H 0.72487 0.78936 0.41596 0.0
C2298 C 0.67265 0.77166 0.4074 0.0
C2299 C 0.69544 0.78219 0.43465 0.0
C2300 C 0.70084 0.78605 0.46017 0.0
C2301 C 0.68757 0.77359 0.38636 0.0
C2302 C 0.70656 0.78042 0.38925 0.0
C2303 C 0.71027 0.78441 0.41351 0.0
C2304 C 0.7227 0.78325 0.36731 0.0
C2305 C 0.68304 0.76777 0.36123 0.0
C2306 C 0.74418 0.77056 0.36641 0.0
C2307 C 0.7589 0.7723 0.3452 0.0
C2308 C 0.75268 0.78714 0.32456 0.0
C2309 C 0.73127 0.79994 0.32563 0.0
C2310 C 0.71657 0.79821 0.34679 0.0
H2311 H 0.67125 0.75727 0.36327 0.0
H2312 H 0.67609 0.78318 0.35011 0.0
H2313 H 0.69809 0.75893 0.35053 0.0
H2314 H 0.74946 0.75888 0.38187 0.0
H2315 H 0.77509 0.76186 0.3449 0.0
H2316 H 0.29339 0.57475 0.43381 0.0
H2317 H 0.28706 0.61189 0.41292 0.0
H2318 H 0.35478 0.60977 0.41068 0.0
H2319 H 0.36122 0.57264 0.43177 0.0
H2320 H 0.32491 0.65021 0.42881 0.0
H2321 H 0.30621 0.62774 0.33767 0.0
H2322 H 0.29181 0.61791 0.36526 0.0
H2323 H 0.32052 0.60756 0.35982 0.0
C2324 C 0.30695 0.58217 0.42896 0.0
C2325 C 0.32785 0.5706 0.43446 0.0
C2326 C 0.30332 0.60337 0.41682 0.0
C2327 C 0.32047 0.61357 0.41 0.0
C2328 C 0.34131 0.60219 0.41563 0.0
H2329 H 0.32607 0.73142 0.31293 0.0
H2330 H 0.33142 0.69405 0.33288 0.0
C2331 C 0.345 0.58089 0.42756 0.0
C2332 C 0.31659 0.63622 0.39733 0.0
H2333 H 0.3013 0.66577 0.34309 0.0
C2334 C 0.31971 0.65364 0.41008 0.0
C2335 C 0.31001 0.64067 0.37279 0.0
C2336 C 0.30707 0.62251 0.3579 0.0
C2337 C 0.31612 0.67538 0.39908 0.0
C2338 C 0.30912 0.6799 0.37472 0.0
C2339 C 0.30637 0.66241 0.36184 0.0
C2340 C 0.30518 0.70257 0.36209 0.0
C2341 C 0.3202 0.69332 0.41343 0.0
C2342 C 0.28845 0.71985 0.37159 0.0
C2343 C 0.28523 0.74127 0.35998 0.0
C2344 C 0.29847 0.74578 0.33845 0.0
C2345 C 0.31526 0.72847 0.32909 0.0
C2346 C 0.3184 0.70706 0.34057 0.0
H2347 H 0.32969 0.68643 0.42955 0.0
H2348 H 0.32897 0.70399 0.40095 0.0
H2349 H 0.30451 0.70387 0.4208 0.0
H2350 H 0.27792 0.71679 0.38805 0.0
H2351 H 0.27237 0.75434 0.36782 0.0
H2352 H 0.45665 0.25122 0.48532 0.0
H2353 H 0.42847 0.25952 0.45688 0.0
H2354 H 0.45288 0.31424 0.42181 0.0
H2355 H 0.48153 0.3059 0.45061 0.0
H2356 H 0.39585 0.29919 0.44779 0.0
H2357 H 0.45259 0.2748 0.36295 0.0
H2358 H 0.46044 0.26717 0.39432 0.0
H2359 H 0.4578 0.29508 0.38154 0.0
C2360 C 0.45598 0.2652 0.47174 0.0
C2361 C 0.47142 0.27786 0.4702 0.0
C2362 C 0.4398 0.26992 0.45547 0.0
C2363 C 0.43867 0.28729 0.43695 0.0
C2364 C 0.45359 0.30055 0.43577 0.0
H2365 H 0.35311 0.31097 0.31495 0.0
H2366 H 0.38107 0.31316 0.34138 0.0
C2367 C 0.46981 0.29593 0.45237 0.0
C2368 C 0.42203 0.29077 0.41883 0.0
H2369 H 0.4155 0.28331 0.3582 0.0
C2370 C 0.40014 0.29598 0.42813 0.0
C2371 C 0.42759 0.28659 0.39315 0.0
C2372 C 0.45085 0.28046 0.38226 0.0
C2373 C 0.38372 0.29675 0.41265 0.0
C2374 C 0.3893 0.29155 0.38722 0.0
C2375 C 0.41117 0.28714 0.37768 0.0
C2376 C 0.37276 0.28975 0.37061 0.0
C2377 C 0.36053 0.30318 0.42379 0.0
C2378 C 0.35917 0.27534 0.37768 0.0
C2379 C 0.34319 0.27411 0.36263 0.0
C2380 C 0.34049 0.28702 0.33994 0.0
C2381 C 0.35472 0.30074 0.33229 0.0
C2382 C 0.37067 0.3021 0.34747 0.0
H2383 H 0.35872 0.31347 0.44007 0.0
H2384 H 0.34977 0.31248 0.4097 0.0
H2385 H 0.35508 0.28801 0.43061 0.0
H2386 H 0.3609 0.26498 0.39493 0.0
H2387 H 0.3331 0.26285 0.3687 0.0
H2388 H 0.59304 0.82644 0.61413 0.0
H2389 H 0.61799 0.83531 0.64079 0.0
H2390 H 0.64877 0.76602 0.65115 0.0
H2391 H 0.62424 0.75702 0.6248 0.0
H2392 H 0.62693 0.81801 0.6929 0.0
H2393 H 0.69806 0.79687 0.62264 0.0
H2394 H 0.67063 0.80285 0.61445 0.0
H2395 H 0.68288 0.7761 0.6283 0.0
C2396 C 0.60511 0.81313 0.62214 0.0
C2397 C 0.60676 0.79104 0.61717 0.0
C2398 C 0.61929 0.81822 0.63737 0.0
C2399 C 0.63535 0.80132 0.64761 0.0
C2400 C 0.63667 0.77931 0.64311 0.0
H2401 H 0.71694 0.78427 0.76617 0.0
H2402 H 0.68708 0.78773 0.74064 0.0
C2403 C 0.62256 0.77421 0.62806 0.0
C2404 C 0.65113 0.8063 0.66278 0.0
H2405 H 0.70529 0.7991 0.66472 0.0
C2406 C 0.64405 0.81422 0.68667 0.0
C2407 C 0.67338 0.80159 0.65444 0.0
C2408 C 0.68174 0.79407 0.62846 0.0
C2409 C 0.65884 0.81656 0.70294 0.0
C2410 C 0.68123 0.81048 0.69516 0.0
C2411 C 0.68815 0.80357 0.6708 0.0
C2412 C 0.69793 0.8103 0.7121 0.0
C2413 C 0.65036 0.8254 0.7283 0.0
C2414 C 0.71406 0.82169 0.70454 0.0
C2415 C 0.73126 0.81952 0.71898 0.0
C2416 C 0.73277 0.80589 0.74122 0.0
C2417 C 0.71619 0.79508 0.74924 0.0
C2418 C 0.69903 0.79713 0.73471 0.0
H2419 H 0.63356 0.83571 0.72822 0.0
H2420 H 0.65019 0.81134 0.74238 0.0
H2421 H 0.66068 0.83544 0.73428 0.0
H2422 H 0.71357 0.83195 0.68718 0.0
H2423 H 0.74339 0.82842 0.71257 0.0
H2424 H 0.59054 0.23371 0.41348 0.0
H2425 H 0.6237 0.23893 0.38899 0.0
H2426 H 0.6404 0.26714 0.452 0.0
H2427 H 0.60702 0.2625 0.47621 0.0
H2428 H 0.64683 0.29107 0.41064 0.0
H2429 H 0.68426 0.20327 0.39315 0.0
H2430 H 0.65819 0.21284 0.38175 0.0
H2431 H 0.6606 0.21158 0.41491 0.0
C2432 C 0.60142 0.2408 0.42215 0.0
C2433 C 0.59623 0.24762 0.44678 0.0
C2434 C 0.62041 0.24371 0.40818 0.0
C2435 C 0.6348 0.25304 0.41878 0.0
C2436 C 0.6296 0.25985 0.4434 0.0
H2437 H 0.76822 0.24838 0.36558 0.0
H2438 H 0.73407 0.24161 0.38591 0.0
C2439 C 0.6105 0.25724 0.45722 0.0
C2440 C 0.65497 0.25639 0.40411 0.0
H2441 H 0.70137 0.22978 0.37085 0.0
C2442 C 0.65877 0.27764 0.40199 0.0
C2443 C 0.67071 0.23883 0.39306 0.0
C2444 C 0.66837 0.21531 0.39602 0.0
C2445 C 0.67785 0.28183 0.3893 0.0
C2446 C 0.69325 0.26443 0.37751 0.0
C2447 C 0.68944 0.24318 0.37957 0.0
C2448 C 0.71387 0.26771 0.364 0.0
C2449 C 0.68155 0.30471 0.38953 0.0
C2450 C 0.71395 0.28436 0.34467 0.0
C2451 C 0.73343 0.28843 0.33344 0.0
C2452 C 0.75318 0.27504 0.3402 0.0
C2453 C 0.75316 0.25822 0.35926 0.0
C2454 C 0.73367 0.25447 0.37095 0.0
H2455 H 0.67168 0.31383 0.40538 0.0
H2456 H 0.69879 0.30403 0.39101 0.0
H2457 H 0.67674 0.31431 0.37188 0.0
H2458 H 0.69895 0.29448 0.33854 0.0
H2459 H 0.73296 0.30203 0.31949 0.0
H2460 H 0.79363 0.6123 0.50743 0.0
H2461 H 0.804 0.63414 0.47049 0.0
H2462 H 0.73715 0.65849 0.45685 0.0
H2463 H 0.72647 0.63668 0.4944 0.0
H2464 H 0.79182 0.63016 0.41924 0.0
H2465 H 0.76465 0.71438 0.45542 0.0
H2466 H 0.77053 0.68971 0.47613 0.0
H2467 H 0.7463 0.6965 0.46059 0.0
C2468 C 0.78101 0.62264 0.49701 0.0
C2469 C 0.75914 0.623 0.50406 0.0
C2470 C 0.78703 0.63494 0.47573 0.0
C2471 C 0.77133 0.64794 0.46113 0.0
C2472 C 0.74945 0.64862 0.4681 0.0
H2473 H 0.78882 0.71162 0.31363 0.0
H2474 H 0.78004 0.68695 0.34874 0.0
C2475 C 0.74339 0.63615 0.48941 0.0
C2476 C 0.77821 0.66013 0.43817 0.0
H2477 H 0.78087 0.71169 0.41382 0.0
C2478 C 0.78936 0.64799 0.41794 0.0
C2479 C 0.7751 0.68332 0.43681 0.0
C2480 C 0.7636 0.69687 0.45838 0.0
C2481 C 0.79754 0.65853 0.39622 0.0
C2482 C 0.79444 0.68172 0.39485 0.0
C2483 C 0.78326 0.69386 0.41508 0.0
C2484 C 0.80226 0.69387 0.37238 0.0
C2485 C 0.8097 0.64484 0.37504 0.0
C2486 C 0.81822 0.7053 0.3738 0.0
C2487 C 0.82352 0.71924 0.35359 0.0
C2488 C 0.81258 0.72234 0.33191 0.0
C2489 C 0.79768 0.70961 0.32996 0.0
C2490 C 0.79251 0.69556 0.35009 0.0
H2491 H 0.81437 0.62697 0.38097 0.0
H2492 H 0.79932 0.64696 0.35946 0.0
H2493 H 0.82448 0.65043 0.36771 0.0
H2494 H 0.82604 0.70401 0.39086 0.0
H2495 H 0.83549 0.72828 0.35539 0.0
H2496 H 0.54085 0.82737 0.478 0.0
H2497 H 0.5099 0.8295 0.45462 0.0
H2498 H 0.47066 0.82169 0.52399 0.0
H2499 H 0.50123 0.82006 0.54754 0.0
H2500 H 0.48978 0.79518 0.45554 0.0
H2501 H 0.4309 0.87155 0.48641 0.0
H2502 H 0.45913 0.86569 0.49129 0.0
H2503 H 0.44115 0.8525 0.51164 0.0
C2504 C 0.52548 0.82675 0.48834 0.0
C2505 C 0.52355 0.8235 0.51463 0.0
C2506 C 0.50786 0.82782 0.47494 0.0
C2507 C 0.48801 0.82578 0.48758 0.0
C2508 C 0.48572 0.82366 0.51387 0.0
H2509 H 0.36924 0.81532 0.43025 0.0
H2510 H 0.39873 0.81005 0.45729 0.0
C2511 C 0.50328 0.82271 0.5273 0.0
C2512 C 0.47029 0.8241 0.4732 0.0
H2513 H 0.41812 0.84839 0.46238 0.0
C2514 C 0.47413 0.80685 0.45698 0.0
C2515 C 0.44981 0.83917 0.47541 0.0
C2516 C 0.44499 0.85839 0.49195 0.0
C2517 C 0.45808 0.80444 0.44265 0.0
C2518 C 0.4378 0.81972 0.44455 0.0
C2519 C 0.43373 0.83664 0.46118 0.0
C2520 C 0.42117 0.81971 0.42785 0.0
C2521 C 0.46285 0.78566 0.4255 0.0
C2522 C 0.4243 0.82655 0.40242 0.0
C2523 C 0.40752 0.82978 0.38718 0.0
C2524 C 0.38751 0.82596 0.39712 0.0
C2525 C 0.38469 0.81808 0.42225 0.0
C2526 C 0.40141 0.81516 0.43763 0.0
H2527 H 0.4774 0.77269 0.43013 0.0
H2528 H 0.44888 0.77804 0.42661 0.0
H2529 H 0.46573 0.79216 0.40584 0.0
H2530 H 0.43938 0.83037 0.39469 0.0
H2531 H 0.40987 0.83602 0.36786 0.0
H2532 H 0.26445 0.48646 0.45218 0.0
H2533 H 0.24874 0.46448 0.42712 0.0
H2534 H 0.30202 0.40824 0.43876 0.0
H2535 H 0.31776 0.42991 0.46334 0.0
H2536 H 0.2731 0.44337 0.38227 0.0
H2537 H 0.24729 0.38293 0.45324 0.0
H2538 H 0.25054 0.40931 0.46116 0.0
H2539 H 0.27372 0.38658 0.45615 0.0
C2540 C 0.27254 0.46929 0.44972 0.0
C2541 C 0.29235 0.4599 0.45959 0.0
C2542 C 0.26359 0.4568 0.43544 0.0
C2543 C 0.2741 0.43468 0.43143 0.0
C2544 C 0.29346 0.42516 0.44201 0.0
H2545 H 0.29289 0.32547 0.34721 0.0
H2546 H 0.28797 0.35266 0.37829 0.0
C2547 C 0.30252 0.43764 0.45588 0.0
C2548 C 0.26646 0.42189 0.4141 0.0
H2549 H 0.25429 0.3723 0.4106 0.0
C2550 C 0.26841 0.4281 0.38839 0.0
C2551 C 0.26053 0.40196 0.42227 0.0
C2552 C 0.2577 0.39485 0.44975 0.0
C2553 C 0.26625 0.41403 0.37044 0.0
C2554 C 0.26135 0.39352 0.37857 0.0
C2555 C 0.25803 0.38801 0.40439 0.0
C2556 C 0.26239 0.37642 0.36078 0.0
C2557 C 0.27085 0.42054 0.343 0.0
C2558 C 0.24936 0.38049 0.34081 0.0
C2559 C 0.25232 0.3649 0.32279 0.0
C2560 C 0.26786 0.34478 0.32496 0.0
C2561 C 0.28045 0.34055 0.34532 0.0
C2562 C 0.27766 0.35615 0.36311 0.0
H2563 H 0.27863 0.43467 0.34021 0.0
H2564 H 0.28154 0.40643 0.33308 0.0
H2565 H 0.25547 0.42552 0.33416 0.0
H2566 H 0.23722 0.39587 0.33888 0.0
H2567 H 0.24256 0.36858 0.30712 0.0
H2568 H 0.4966 0.21002 0.61064 0.0
H2569 H 0.46959 0.21229 0.64699 0.0
H2570 H 0.4306 0.27142 0.61279 0.0
H2571 H 0.45715 0.26892 0.57611 0.0
H2572 H 0.45487 0.24718 0.67916 0.0
H2573 H 0.38764 0.23274 0.63204 0.0
H2574 H 0.41521 0.22672 0.61792 0.0
H2575 H 0.39907 0.25468 0.61732 0.0
C2576 C 0.48214 0.22331 0.61066 0.0
C2577 C 0.47904 0.23923 0.59037 0.0
C2578 C 0.46679 0.22467 0.63153 0.0
C2579 C 0.44796 0.24185 0.63243 0.0
C2580 C 0.44483 0.25781 0.6123 0.0
H2581 H 0.33714 0.28225 0.74028 0.0
H2582 H 0.36373 0.27782 0.70373 0.0
C2583 C 0.46017 0.25649 0.59145 0.0
C2584 C 0.4319 0.24344 0.65477 0.0
H2585 H 0.37918 0.24425 0.67361 0.0
C2586 C 0.43836 0.2463 0.67805 0.0
C2587 C 0.41034 0.24251 0.65318 0.0
C2588 C 0.40264 0.2388 0.62883 0.0
C2589 C 0.42372 0.24864 0.69975 0.0
C2590 C 0.40217 0.24754 0.69821 0.0
C2591 C 0.39573 0.24478 0.67488 0.0
C2592 C 0.38591 0.24978 0.72044 0.0
C2593 C 0.43132 0.25304 0.72389 0.0
C2594 C 0.38934 0.23534 0.74196 0.0
C2595 C 0.37414 0.23798 0.76302 0.0
C2596 C 0.35497 0.25466 0.76262 0.0
C2597 C 0.35154 0.26901 0.74104 0.0
C2598 C 0.36678 0.2665 0.7201 0.0
H2599 H 0.44599 0.25965 0.72037 0.0
H2600 H 0.41853 0.26499 0.73471 0.0
H2601 H 0.43543 0.23734 0.73559 0.0
H2602 H 0.40377 0.22201 0.74247 0.0
H2603 H 0.37723 0.22687 0.77954 0.0
H2604 H 0.72597 0.49501 0.64471 0.0
H2605 H 0.73405 0.45958 0.66937 0.0
H2606 H 0.80106 0.46131 0.66475 0.0
H2607 H 0.79304 0.49692 0.64126 0.0
H2608 H 0.76154 0.42072 0.65494 0.0
H2609 H 0.78805 0.44735 0.73905 0.0
H2610 H 0.77383 0.46674 0.71619 0.0
H2611 H 0.80239 0.45507 0.71036 0.0
C2612 C 0.74233 0.48803 0.64932 0.0
C2613 C 0.75883 0.49882 0.64088 0.0
C2614 C 0.74696 0.46774 0.66328 0.0
C2615 C 0.76811 0.45798 0.66917 0.0
C2616 C 0.78455 0.46874 0.66086 0.0
H2617 H 0.82093 0.31884 0.71087 0.0
H2618 H 0.81378 0.35607 0.68974 0.0
C2619 C 0.77996 0.489 0.64705 0.0
C2620 C 0.7733 0.43604 0.6829 0.0
H2621 H 0.79624 0.40848 0.73445 0.0
C2622 C 0.76902 0.41805 0.6724 0.0
C2623 C 0.78291 0.43266 0.70577 0.0
C2624 C 0.78688 0.45152 0.71865 0.0
C2625 C 0.77443 0.39667 0.68393 0.0
C2626 C 0.78476 0.39317 0.70627 0.0
C2627 C 0.78869 0.4112 0.71705 0.0
C2628 C 0.79051 0.37109 0.71948 0.0
C2629 C 0.76867 0.37806 0.67238 0.0
C2630 C 0.78027 0.36746 0.74337 0.0
C2631 C 0.78439 0.34638 0.75537 0.0
C2632 C 0.79917 0.32861 0.74396 0.0
C2633 C 0.80969 0.33234 0.72018 0.0
C2634 C 0.80554 0.3535 0.7081 0.0
H2635 H 0.75659 0.38431 0.65861 0.0
H2636 H 0.78342 0.3679 0.66243 0.0
H2637 H 0.76211 0.36719 0.68707 0.0
H2638 H 0.76862 0.38081 0.75246 0.0
H2639 H 0.77569 0.34404 0.77338 0.0
H2640 H 0.27326 0.54633 0.56271 0.0
H2641 H 0.26464 0.57551 0.5929 0.0
H2642 H 0.32248 0.59603 0.56358 0.0
H2643 H 0.33115 0.56729 0.53391 0.0
H2644 H 0.2953 0.57978 0.62942 0.0
H2645 H 0.27249 0.65377 0.56448 0.0
H2646 H 0.2708 0.62657 0.55746 0.0
H2647 H 0.29631 0.63403 0.55294 0.0
C2648 C 0.28387 0.55734 0.56257 0.0
C2649 C 0.30286 0.55459 0.54611 0.0
C2650 C 0.279 0.57385 0.57978 0.0
C2651 C 0.29287 0.58794 0.58017 0.0
C2652 C 0.31148 0.58547 0.5633 0.0
H2653 H 0.33775 0.65818 0.68041 0.0
H2654 H 0.32961 0.63115 0.65533 0.0
C2655 C 0.31645 0.56896 0.54647 0.0
C2656 C 0.28913 0.60455 0.59894 0.0
H2657 H 0.28613 0.65924 0.60263 0.0
C2658 C 0.29271 0.59726 0.62384 0.0
C2659 C 0.28567 0.62726 0.59152 0.0
C2660 C 0.2809 0.63594 0.56517 0.0
C2661 C 0.29436 0.61205 0.64121 0.0
C2662 C 0.29275 0.63451 0.63317 0.0
C2663 C 0.28765 0.64197 0.6087 0.0
C2664 C 0.29737 0.6504 0.64923 0.0
C2665 C 0.29828 0.60335 0.66778 0.0
C2666 C 0.28231 0.67053 0.65325 0.0
C2667 C 0.28718 0.68626 0.66689 0.0
C2668 C 0.30716 0.68211 0.67697 0.0
C2669 C 0.32229 0.66195 0.67278 0.0
C2670 C 0.31749 0.64631 0.65886 0.0
H2671 H 0.29187 0.58847 0.67299 0.0
H2672 H 0.31593 0.59848 0.66937 0.0
H2673 H 0.29072 0.61606 0.68138 0.0
H2674 H 0.26683 0.67416 0.64565 0.0
H2675 H 0.27532 0.70179 0.66929 0.0
loop_
_geom_bond_atom_site_label_1
_geom_bond_atom_site_label_2
_geom_bond_distance
_geom_bond_site_symmetry_2
_ccdc_geom_bond_type
Cu0 N1 1.999 . S
Cu0 O6 1.984 . S
Cu0 N11 1.989 1_545 S
Cu0 O20 1.959 1_455 S
N1 Cu0 1.999 . S
N1 C3 1.263 . S
N1 C5 1.389 . S
N2 C3 1.358 . S
N2 C4 1.400 . S
C3 N1 1.263 . S
C3 N2 1.358 . S
C3 H9 0.930 . S
C4 N2 1.400 . S
C4 C5 1.351 . S
C4 H21 0.930 . S
C5 N1 1.389 . S
C5 C4 1.351 . S
C5 H10 0.930 . S
O6 Cu0 1.984 . S
O6 C16 1.277 1_545 S
C7 O8 1.261 . S
C7 O20 1.251 . S
O8 C7 1.261 . S
H9 C3 0.930 . S
H10 C5 0.930 . S
N11 Cu0 1.989 1_565 S
N11 C13 1.342 1_465 S
N11 C14 1.385 . S
N12 C13 1.305 1_565 S
N12 C15 1.336 . S
C13 N11 1.342 1_645 S
C13 N12 1.305 1_545 S
C13 H18 0.959 . S
C14 N11 1.385 . S
C14 C15 1.346 1_455 S
C14 H19 0.930 . S
C15 N12 1.336 . S
C15 C14 1.346 1_655 S
C15 H22 0.929 . S
C16 O6 1.277 1_565 S
C16 O17 1.216 1_565 S
O17 C16 1.216 1_545 S
H18 C13 0.959 . S
H19 C14 0.930 . S
O20 Cu0 1.959 1_655 S
O20 C7 1.251 . S
H21 C4 0.930 . S
H22 C15 0.929 . S
Cu23 N24 1.999 . S
Cu23 O29 1.974 1_455 S
Cu23 N34 1.985 . S
Cu23 O43 1.959 . S
N24 Cu23 1.999 . S
N24 C26 1.263 1_455 S
N24 C28 1.389 1_545 S
N25 C26 1.358 1_565 S
N25 C27 1.400 . S
C26 N24 1.263 1_655 S
C26 N25 1.358 1_545 S
C26 H32 0.930 . S
C27 N25 1.400 . S
C27 C28 1.351 1_655 S
C27 H44 0.930 . S
C28 N24 1.389 1_565 S
C28 C27 1.351 1_455 S
C28 H33 0.930 . S
O29 Cu23 1.974 1_655 S
O29 C39 1.282 . S
C30 O31 1.261 . S
C30 O43 1.251 . S
O31 C30 1.261 . S
H32 C26 0.930 . S
H33 C28 0.930 . S
N34 Cu23 1.985 . S
N34 C36 1.335 . S
N34 C37 1.390 . S
N35 C36 1.345 . S
N35 C38 1.336 . S
C36 N34 1.335 . S
C36 N35 1.345 . S
C36 H41 0.930 . S
C37 N34 1.390 . S
C37 C38 1.346 . S
C37 H42 0.930 . S
C38 N35 1.336 . S
C38 C37 1.346 . S
C38 H45 0.929 . S
C39 O29 1.282 . S
C39 O40 1.216 . S
O40 C39 1.216 . S
H41 C36 0.930 . S
H42 C37 0.930 . S
O43 Cu23 1.959 . S
O43 C30 1.251 . S
H44 C27 0.930 . S
H45 C38 0.929 . S
Cu46 N47 1.999 . S
Cu46 O52 1.974 . S
Cu46 N57 1.985 . S
Cu46 O66 1.959 . S
N47 Cu46 1.999 . S
N47 C49 1.263 . S
N47 C51 1.389 . S
N48 C49 1.358 . S
N48 C50 1.400 . S
C49 N47 1.263 . S
C49 N48 1.358 . S
C49 H55 0.930 . S
C50 N48 1.400 . S
C50 C51 1.351 . S
C50 H67 0.930 1_554 S
C51 N47 1.389 . S
C51 C50 1.351 . S
C51 H56 0.930 . S
O52 Cu46 1.974 . S
O52 C62 1.282 . S
C53 O54 1.261 . S
C53 O66 1.251 . S
O54 C53 1.261 . S
H55 C49 0.930 . S
H56 C51 0.930 . S
N57 Cu46 1.985 . S
N57 C59 1.335 . S
N57 C60 1.390 . S
N58 C59 1.345 . S
N58 C61 1.336 . S
C59 N57 1.335 . S
C59 N58 1.345 . S
C59 H64 0.930 . S
C60 N57 1.390 . S
C60 C61 1.346 . S
C60 H65 0.930 . S
C61 N58 1.336 . S
C61 C60 1.346 . S
C61 H68 0.929 . S
C62 O52 1.282 . S
C62 O63 1.216 . S
O63 C62 1.216 . S
H64 C59 0.930 . S
H65 C60 0.930 . S
O66 Cu46 1.959 . S
O66 C53 1.251 . S
H67 C50 0.930 1_556 S
H68 C61 0.929 . S
Cu69 N70 1.999 . S
Cu69 O75 1.974 . S
Cu69 N80 1.985 . S
Cu69 O89 1.959 . S
N70 Cu69 1.999 . S
N70 C72 1.263 . S
N70 C74 1.389 . S
N71 C72 1.358 . S
N71 C73 1.400 1_554 S
C72 N70 1.263 . S
C72 N71 1.358 . S
C72 H78 0.930 . S
C73 N71 1.400 1_556 S
C73 C74 1.351 1_556 S
C73 H90 0.930 . S
C74 N70 1.389 . S
C74 C73 1.351 1_554 S
C74 H79 0.930 . S
O75 Cu69 1.974 . S
O75 C85 1.282 . S
C76 O77 1.261 . S
C76 O89 1.251 . S
O77 C76 1.261 . S
H78 C72 0.930 . S
H79 C74 0.930 . S
N80 Cu69 1.985 . S
N80 C82 1.335 1_455 S
N80 C83 1.390 . S
N81 C82 1.345 . S
N81 C84 1.336 1_655 S
C82 N80 1.335 1_655 S
C82 N81 1.345 . S
C82 H87 0.930 . S
C83 N80 1.390 . S
C83 C84 1.346 . S
C83 H88 0.930 . S
C84 N81 1.336 1_455 S
C84 C83 1.346 . S
C84 H91 0.936 . S
C85 O75 1.282 . S
C85 O86 1.216 . S
O86 C85 1.216 . S
H87 C82 0.930 . S
H88 C83 0.930 . S
O89 Cu69 1.959 . S
O89 C76 1.251 . S
H90 C73 0.930 . S
H91 C84 0.936 . S
Cu92 N93 1.999 1_554 S
Cu92 O98 1.974 . S
Cu92 N103 1.985 1_545 S
Cu92 O112 1.959 1_544 S
N93 Cu92 1.999 1_556 S
N93 C95 1.263 . S
N93 C97 1.389 . S
N94 C95 1.358 . S
N94 C96 1.400 . S
C95 N93 1.263 . S
C95 N94 1.358 . S
C95 H101 0.930 . S
C96 N94 1.400 . S
C96 C97 1.351 . S
C96 H113 0.930 . S
C97 N93 1.389 . S
C97 C96 1.351 . S
C97 H102 0.930 . S
O98 Cu92 1.974 . S
O98 C108 1.282 . S
C99 O100 1.261 . S
C99 O112 1.251 . S
O100 C99 1.261 . S
H101 C95 0.930 . S
H102 C97 0.930 . S
N103 Cu92 1.985 1_565 S
N103 C105 1.335 . S
N103 C106 1.390 . S
N104 C105 1.345 . S
N104 C107 1.336 . S
C105 N103 1.335 . S
C105 N104 1.345 . S
C105 H110 0.930 . S
C106 N103 1.390 . S
C106 C107 1.346 . S
C106 H111 0.930 . S
C107 N104 1.336 . S
C107 C106 1.346 . S
C107 H114 0.929 . S
C108 O98 1.282 . S
C108 O109 1.216 . S
O109 C108 1.216 . S
H110 C105 0.930 . S
H111 C106 0.930 . S
O112 Cu92 1.959 1_566 S
O112 C99 1.251 . S
H113 C96 0.930 . S
H114 C107 0.929 . S
Cu115 N116 1.999 1_454 S
Cu115 O121 1.974 1_455 S
Cu115 N126 1.985 . S
Cu115 O135 1.959 1_554 S
N116 Cu115 1.999 1_656 S
N116 C118 1.263 . S
N116 C120 1.389 . S
N117 C118 1.358 . S
N117 C119 1.400 . S
C118 N116 1.263 . S
C118 N117 1.358 . S
C118 H124 0.930 . S
C119 N117 1.400 . S
C119 C120 1.351 . S
C119 H136 0.930 . S
C120 N116 1.389 . S
C120 C119 1.351 . S
C120 H125 0.930 1_655 S
O121 Cu115 1.974 1_655 S
O121 C131 1.282 . S
C122 O123 1.261 . S
C122 O135 1.251 . S
O123 C122 1.261 . S
H124 C118 0.930 . S
H125 C120 0.930 1_455 S
N126 Cu115 1.985 . S
N126 C128 1.335 . S
N126 C129 1.390 . S
N127 C128 1.345 . S
N127 C130 1.336 . S
C128 N126 1.335 . S
C128 N127 1.345 . S
C128 H133 0.930 . S
C129 N126 1.390 . S
C129 C130 1.346 . S
C129 H134 0.911 1_455 S
C130 N127 1.336 . S
C130 C129 1.346 . S
C130 H137 0.929 . S
C131 O121 1.282 . S
C131 O132 1.216 . S
O132 C131 1.216 . S
H133 C128 0.930 . S
H134 C129 0.911 1_655 S
O135 Cu115 1.959 1_556 S
O135 C122 1.251 . S
H136 C119 0.930 . S
H137 C130 0.929 . S
Cu138 N139 1.999 . S
Cu138 O144 1.974 . S
Cu138 N149 1.985 . S
Cu138 O158 1.959 . S
N139 Cu138 1.999 . S
N139 C141 1.263 . S
N139 C143 1.389 . S
N140 C141 1.358 . S
N140 C142 1.400 . S
C141 N139 1.263 . S
C141 N140 1.358 . S
C141 H147 0.930 . S
C142 N140 1.400 . S
C142 C143 1.351 . S
C142 H159 0.930 . S
C143 N139 1.389 . S
C143 C142 1.351 . S
C143 H148 0.930 . S
O144 Cu138 1.974 . S
O144 C154 1.282 . S
C145 O146 1.261 . S
C145 O158 1.251 . S
O146 C145 1.261 . S
H147 C141 0.930 . S
H148 C143 0.930 . S
N149 Cu138 1.985 . S
N149 C151 1.335 . S
N149 C152 1.390 . S
N150 C151 1.345 . S
N150 C153 1.336 . S
C151 N149 1.335 . S
C151 N150 1.345 . S
C151 H156 0.930 . S
C152 N149 1.390 . S
C152 C153 1.346 . S
C152 H157 0.930 . S
C153 N150 1.336 . S
C153 C152 1.346 . S
C153 H160 0.929 . S
C154 O144 1.282 . S
C154 O155 1.216 . S
O155 C154 1.216 . S
H156 C151 0.930 . S
H157 C152 0.930 . S
O158 Cu138 1.959 . S
O158 C145 1.251 . S
H159 C142 0.930 . S
H160 C153 0.929 . S
Cu161 N162 1.999 . S
Cu161 O167 1.974 . S
Cu161 N172 1.985 . S
Cu161 O181 1.959 . S
N162 Cu161 1.999 . S
N162 C164 1.263 . S
N162 C166 1.389 . S
N163 C164 1.358 . S
N163 C165 1.400 . S
C164 N162 1.263 . S
C164 N163 1.358 . S
C164 H170 0.930 . S
C165 N163 1.400 . S
C165 C166 1.351 . S
C165 H182 0.930 . S
C166 N162 1.389 . S
C166 C165 1.351 . S
C166 H171 0.930 . S
O167 Cu161 1.974 . S
O167 C177 1.282 . S
C168 O169 1.261 . S
C168 O181 1.251 . S
O169 C168 1.261 . S
H170 C164 0.930 . S
H171 C166 0.930 . S
N172 Cu161 1.985 . S
N172 C174 1.335 . S
N172 C175 1.390 . S
N173 C174 1.345 . S
N173 C176 1.336 . S
C174 N172 1.335 . S
C174 N173 1.345 . S
C174 H179 0.930 . S
C175 N172 1.390 . S
C175 C176 1.346 . S
C175 H180 0.930 . S
C176 N173 1.336 . S
C176 C175 1.346 . S
C176 H183 0.929 . S
C177 O167 1.282 . S
C177 O178 1.216 . S
O178 C177 1.216 . S
H179 C174 0.930 . S
H180 C175 0.930 . S
O181 Cu161 1.959 . S
O181 C168 1.251 . S
H182 C165 0.930 . S
H183 C176 0.929 . S
Cu184 N185 1.999 . S
Cu184 O190 1.974 . S
Cu184 N195 1.985 . S
Cu184 O204 1.959 . S
N185 Cu184 1.999 . S
N185 C187 1.263 . S
N185 C189 1.389 . S
N186 C187 1.358 . S
N186 C188 1.400 . S
C187 N185 1.263 . S
C187 N186 1.358 . S
C187 H193 0.930 . S
C188 N186 1.400 . S
C188 C189 1.351 . S
C188 H205 0.930 . S
C189 N185 1.389 . S
C189 C188 1.351 . S
C189 H194 0.930 . S
O190 Cu184 1.974 . S
O190 C200 1.282 . S
C191 O192 1.261 . S
C191 O204 1.251 . S
O192 C191 1.261 . S
H193 C187 0.930 . S
H194 C189 0.930 . S
N195 Cu184 1.985 . S
N195 C197 1.335 . S
N195 C198 1.390 . S
N196 C197 1.345 . S
N196 C199 1.336 . S
C197 N195 1.335 . S
C197 N196 1.345 . S
C197 H202 0.930 . S
C198 N195 1.390 . S
C198 C199 1.346 . S
C198 H203 0.930 . S
C199 N196 1.336 . S
C199 C198 1.346 . S
C199 H206 0.929 . S
C200 O190 1.282 . S
C200 O201 1.216 . S
O201 C200 1.216 . S
H202 C197 0.930 . S
H203 C198 0.930 . S
O204 Cu184 1.959 . S
O204 C191 1.251 . S
H205 C188 0.930 . S
H206 C199 0.929 . S
Cu207 N208 1.999 . S
Cu207 O213 1.974 . S
Cu207 N218 1.985 . S
Cu207 O227 1.959 . S
N208 Cu207 1.999 . S
N208 C210 1.263 . S
N208 C212 1.389 . S
N209 C210 1.358 . S
N209 C211 1.400 . S
C210 N208 1.263 . S
C210 N209 1.358 . S
C210 H216 0.930 . S
C211 N209 1.400 . S
C211 C212 1.351 . S
C211 H228 0.930 . S
C212 N208 1.389 . S
C212 C211 1.351 . S
C212 H217 0.930 . S
O213 Cu207 1.974 . S
O213 C223 1.282 . S
C214 O215 1.261 . S
C214 O227 1.251 . S
O215 C214 1.261 . S
H216 C210 0.930 . S
H217 C212 0.930 . S
N218 Cu207 1.985 . S
N218 C220 1.335 . S
N218 C221 1.390 . S
N219 C220 1.345 . S
N219 C222 1.336 . S
C220 N218 1.335 . S
C220 N219 1.345 . S
C220 H225 0.930 . S
C221 N218 1.390 . S
C221 C222 1.346 . S
C221 H226 0.930 . S
C222 N219 1.336 . S
C222 C221 1.346 . S
C222 H229 0.929 . S
C223 O213 1.282 . S
C223 O224 1.216 . S
O224 C223 1.216 . S
H225 C220 0.930 . S
H226 C221 0.930 . S
O227 Cu207 1.959 . S
O227 C214 1.251 . S
H228 C211 0.930 . S
H229 C222 0.929 . S
Cu230 N231 1.999 . S
Cu230 O236 1.974 . S
Cu230 N241 1.985 . S
Cu230 O250 1.959 . S
N231 Cu230 1.999 . S
N231 C233 1.263 . S
N231 C235 1.389 . S
N232 C233 1.358 . S
N232 C234 1.400 . S
C233 N231 1.263 . S
C233 N232 1.358 . S
C233 H239 0.930 . S
C234 N232 1.400 . S
C234 C235 1.351 . S
C234 H251 0.930 . S
C235 N231 1.389 . S
C235 C234 1.351 . S
C235 H240 0.930 . S
O236 Cu230 1.974 . S
O236 C246 1.282 . S
C237 O238 1.261 . S
C237 O250 1.251 . S
O238 C237 1.261 . S
H239 C233 0.930 . S
H240 C235 0.930 . S
N241 Cu230 1.985 . S
N241 C243 1.335 . S
N241 C244 1.390 . S
N242 C243 1.345 . S
N242 C245 1.336 . S
C243 N241 1.335 . S
C243 N242 1.345 . S
C243 H248 0.930 . S
C244 N241 1.390 . S
C244 C245 1.346 . S
C244 H249 0.930 . S
C245 N242 1.336 . S
C245 C244 1.346 . S
C245 H252 0.929 . S
C246 O236 1.282 . S
C246 O247 1.216 . S
O247 C246 1.216 . S
H248 C243 0.930 . S
H249 C244 0.930 . S
O250 Cu230 1.959 . S
O250 C237 1.251 . S
H251 C234 0.930 . S
H252 C245 0.929 . S
Cu253 N254 1.999 . S
Cu253 O259 1.974 . S
Cu253 N264 1.985 . S
Cu253 O273 1.959 . S
N254 Cu253 1.999 . S
N254 C256 1.263 . S
N254 C258 1.389 . S
N255 C256 1.358 . S
N255 C257 1.400 . S
C256 N254 1.263 . S
C256 N255 1.358 . S
C256 H262 0.930 . S
C257 N255 1.400 . S
C257 C258 1.351 . S
C257 H274 0.930 . S
C258 N254 1.389 . S
C258 C257 1.351 . S
C258 H263 0.930 . S
O259 Cu253 1.974 . S
O259 C269 1.282 . S
C260 O261 1.261 . S
C260 O273 1.251 . S
O261 C260 1.261 . S
H262 C256 0.930 . S
H263 C258 0.930 . S
N264 Cu253 1.985 . S
N264 C266 1.335 . S
N264 C267 1.390 . S
N265 C266 1.345 . S
N265 C268 1.336 . S
C266 N264 1.335 . S
C266 N265 1.345 . S
C266 H271 0.930 . S
C267 N264 1.390 . S
C267 C268 1.346 . S
C267 H272 0.930 . S
C268 N265 1.336 . S
C268 C267 1.346 . S
C268 H275 0.929 . S
C269 O259 1.282 . S
C269 O270 1.216 . S
O270 C269 1.216 . S
H271 C266 0.930 . S
H272 C267 0.930 . S
O273 Cu253 1.959 . S
O273 C260 1.251 . S
H274 C257 0.930 . S
H275 C268 0.929 . S
Gd276 N307 2.661 . S
Gd276 N313 2.601 . S
Gd276 O320 2.545 . S
Gd276 O321 2.606 . S
Gd276 O323 2.429 . S
Gd276 O324 2.545 . S
Gd276 O325 2.412 . S
Gd276 O327 2.362 . S
Gd276 O328 2.324 . S
Gd276 C335 2.828 . S
Gd277 N286 2.661 . S
Gd277 N290 2.601 . S
Gd277 O321 2.362 . S
Gd277 O322 2.324 . S
Gd277 O326 2.545 . S
Gd277 O327 2.606 . S
Gd277 O329 2.429 . S
Gd277 O330 2.545 . S
Gd277 O331 2.412 . S
Gd277 C344 2.828 . S
C278 C281 1.417 . S
C278 C283 1.431 . S
C278 C284 1.412 . S
C279 C282 1.437 . S
C279 C283 1.317 . S
C279 H298 0.929 . S
C280 C281 1.426 . S
C280 C282 1.413 . S
C280 N290 1.359 . S
C281 C278 1.417 . S
C281 C280 1.426 . S
C281 N286 1.350 . S
C282 C279 1.437 . S
C282 C280 1.413 . S
C282 C292 1.391 . S
C283 C278 1.431 . S
C283 C279 1.317 . S
C283 H294 0.930 . S
C284 C278 1.412 . S
C284 C285 1.355 . S
C284 H296 0.930 . S
C285 C284 1.355 . S
C285 C287 1.402 . S
C285 H297 0.930 . S
N286 Gd277 2.661 . S
N286 C281 1.350 . S
N286 C287 1.307 . S
C287 C285 1.402 . S
C287 N286 1.307 . S
C287 H288 0.930 . S
H288 C287 0.930 . S
C289 N290 1.334 . S
C289 C291 1.394 . S
C289 H293 0.930 . S
N290 Gd277 2.601 . S
N290 C280 1.359 . S
N290 C289 1.334 . S
C291 C289 1.394 . S
C291 C292 1.359 . S
C291 H303 0.930 . S
C292 C282 1.391 . S
C292 C291 1.359 . S
C292 H304 0.929 . S
H293 C289 0.930 . S
H294 C283 0.930 . S
H295 C312 0.930 . S
H296 C284 0.930 . S
H297 C285 0.930 . S
H298 C279 0.929 . S
H299 C317 0.930 . S
H300 C308 0.930 . S
H301 C309 0.930 . S
H302 C333 0.929 . S
H303 C291 0.930 . S
H304 C292 0.929 . S
H305 C334 0.930 . S
H306 C315 0.930 . S
N307 Gd276 2.661 . S
N307 C311 1.350 . S
N307 C312 1.307 . S
C308 H300 0.930 . S
C308 C309 1.355 . S
C308 C310 1.412 . S
C309 H301 0.930 . S
C309 C308 1.355 . S
C309 C312 1.402 . S
C310 C308 1.412 . S
C310 C311 1.417 . S
C310 C334 1.431 . S
C311 N307 1.350 . S
C311 C310 1.417 . S
C311 C314 1.426 . S
C312 H295 0.930 . S
C312 N307 1.307 . S
C312 C309 1.402 . S
N313 Gd276 2.601 . S
N313 C314 1.359 . S
N313 C317 1.334 . S
C314 C311 1.426 . S
C314 N313 1.359 . S
C314 C318 1.413 . S
C315 H306 0.930 . S
C315 C316 1.359 . S
C315 C317 1.394 . S
C316 C315 1.359 . S
C316 C318 1.391 . S
C316 H319 0.929 . S
C317 H299 0.930 . S
C317 N313 1.334 . S
C317 C315 1.394 . S
C318 C314 1.413 . S
C318 C316 1.391 . S
C318 C333 1.437 . S
H319 C316 0.929 . S
O320 Gd276 2.545 . S
O320 C335 1.258 . S
O321 Gd276 2.606 . S
O321 Gd277 2.362 . S
O321 C332 1.284 . S
O322 Gd277 2.324 . S
O322 C342 1.254 . S
O323 Gd276 2.429 . S
O323 C342 1.268 . S
O324 Gd276 2.545 . S
O324 C332 1.250 . S
O325 Gd276 2.412 . S
O325 C335 1.252 . S
O326 Gd277 2.545 . S
O326 C344 1.258 . S
O327 Gd276 2.362 . S
O327 Gd277 2.606 . S
O327 C343 1.284 . S
O328 Gd276 2.324 . S
O328 C351 1.254 . S
O329 Gd277 2.429 . S
O329 C351 1.268 . S
O330 Gd277 2.545 . S
O330 C343 1.250 . S
O331 Gd277 2.412 . S
O331 C344 1.252 . S
C332 O321 1.284 . S
C332 O324 1.250 . S
C333 H302 0.929 . S
C333 C318 1.437 . S
C333 C334 1.317 . S
C334 H305 0.930 . S
C334 C310 1.431 . S
C334 C333 1.317 . S
C335 Gd276 2.828 . S
C335 O320 1.258 . S
C335 O325 1.252 . S
C335 C336 1.497 . S
C336 C335 1.497 . S
C336 C337 1.395 . S
C336 C338 1.380 . S
C337 C336 1.395 . S
C337 C340 1.398 . S
C337 H352 0.930 . S
C338 C336 1.380 . S
C338 C339 1.391 . S
C338 H353 0.930 . S
C339 C338 1.391 . S
C339 C341 1.387 . S
C340 C337 1.398 . S
C340 C341 1.380 . S
C340 H354 0.930 . S
C341 C339 1.387 . S
C341 C340 1.380 . S
C341 H355 0.930 . S
C342 O322 1.254 . S
C342 O323 1.268 . S
C343 O327 1.284 . S
C343 O330 1.250 . S
C344 Gd277 2.828 . S
C344 O326 1.258 . S
C344 O331 1.252 . S
C344 C345 1.497 . S
C345 C344 1.497 . S
C345 C346 1.395 . S
C345 C347 1.380 . S
C346 C345 1.395 . S
C346 C349 1.398 . S
C346 H356 0.930 . S
C347 C345 1.380 . S
C347 C348 1.391 . S
C347 H357 0.930 . S
C348 C347 1.391 . S
C348 C350 1.387 . S
C349 C346 1.398 . S
C349 C350 1.380 . S
C349 H358 0.930 . S
C350 C348 1.387 . S
C350 C349 1.380 . S
C350 H359 0.930 . S
C351 O328 1.254 . S
C351 O329 1.268 . S
H352 C337 0.930 . S
H353 C338 0.930 . S
H354 C340 0.930 . S
H355 C341 0.930 . S
H356 C346 0.930 . S
H357 C347 0.930 . S
H358 C349 0.930 . S
H359 C350 0.930 . S
Gd360 N391 2.661 . S
Gd360 N397 2.601 . S
Gd360 O404 2.545 . S
Gd360 O405 2.606 . S
Gd360 O407 2.429 . S
Gd360 O408 2.545 . S
Gd360 O409 2.412 . S
Gd360 O411 2.362 . S
Gd360 O412 2.324 . S
Gd360 C419 2.828 . S
Gd361 N370 2.661 . S
Gd361 N374 2.601 . S
Gd361 O405 2.362 . S
Gd361 O406 2.324 . S
Gd361 O410 2.545 . S
Gd361 O411 2.606 . S
Gd361 O413 2.429 . S
Gd361 O414 2.545 . S
Gd361 O415 2.412 . S
Gd361 C428 2.828 . S
C362 C365 1.417 . S
C362 C367 1.431 . S
C362 C368 1.412 . S
C363 C366 1.437 . S
C363 C367 1.317 . S
C363 H382 0.929 . S
C364 C365 1.426 . S
C364 C366 1.413 . S
C364 N374 1.359 . S
C365 C362 1.417 . S
C365 C364 1.426 . S
C365 N370 1.350 . S
C366 C363 1.437 . S
C366 C364 1.413 . S
C366 C376 1.391 . S
C367 C362 1.431 . S
C367 C363 1.317 . S
C367 H378 0.930 . S
C368 C362 1.412 . S
C368 C369 1.355 . S
C368 H380 0.930 . S
C369 C368 1.355 . S
C369 C371 1.402 . S
C369 H381 0.930 . S
N370 Gd361 2.661 . S
N370 C365 1.350 . S
N370 C371 1.307 . S
C371 C369 1.402 . S
C371 N370 1.307 . S
C371 H372 0.930 . S
H372 C371 0.930 . S
C373 N374 1.334 . S
C373 C375 1.394 . S
C373 H377 0.930 . S
N374 Gd361 2.601 . S
N374 C364 1.359 . S
N374 C373 1.334 . S
C375 C373 1.394 . S
C375 C376 1.359 . S
C375 H387 0.930 . S
C376 C366 1.391 . S
C376 C375 1.359 . S
C376 H388 0.929 . S
H377 C373 0.930 . S
H378 C367 0.930 . S
H379 C396 0.930 . S
H380 C368 0.930 . S
H381 C369 0.930 . S
H382 C363 0.929 . S
H383 C401 0.930 . S
H384 C392 0.930 . S
H385 C393 0.930 . S
H386 C417 0.929 . S
H387 C375 0.930 . S
H388 C376 0.929 . S
H389 C418 0.930 . S
H390 C399 0.930 . S
N391 Gd360 2.661 . S
N391 C395 1.350 . S
N391 C396 1.307 . S
C392 H384 0.930 . S
C392 C393 1.355 . S
C392 C394 1.412 . S
C393 H385 0.930 . S
C393 C392 1.355 . S
C393 C396 1.402 . S
C394 C392 1.412 . S
C394 C395 1.417 . S
C394 C418 1.431 . S
C395 N391 1.350 . S
C395 C394 1.417 . S
C395 C398 1.426 . S
C396 H379 0.930 . S
C396 N391 1.307 . S
C396 C393 1.402 . S
N397 Gd360 2.601 . S
N397 C398 1.359 . S
N397 C401 1.334 . S
C398 C395 1.426 . S
C398 N397 1.359 . S
C398 C402 1.413 . S
C399 H390 0.930 . S
C399 C400 1.359 . S
C399 C401 1.394 . S
C400 C399 1.359 . S
C400 C402 1.391 . S
C400 H403 0.929 . S
C401 H383 0.930 . S
C401 N397 1.334 . S
C401 C399 1.394 . S
C402 C398 1.413 . S
C402 C400 1.391 . S
C402 C417 1.437 . S
H403 C400 0.929 . S
O404 Gd360 2.545 . S
O404 C419 1.258 . S
O405 Gd360 2.606 . S
O405 Gd361 2.362 . S
O405 C416 1.284 . S
O406 Gd361 2.324 . S
O406 C426 1.254 . S
O407 Gd360 2.429 . S
O407 C426 1.268 . S
O408 Gd360 2.545 . S
O408 C416 1.250 . S
O409 Gd360 2.412 . S
O409 C419 1.252 . S
O410 Gd361 2.545 . S
O410 C428 1.258 . S
O411 Gd360 2.362 . S
O411 Gd361 2.606 . S
O411 C427 1.284 . S
O412 Gd360 2.324 . S
O412 C435 1.254 . S
O413 Gd361 2.429 . S
O413 C435 1.268 . S
O414 Gd361 2.545 . S
O414 C427 1.250 . S
O415 Gd361 2.412 . S
O415 C428 1.252 . S
C416 O405 1.284 . S
C416 O408 1.250 . S
C417 H386 0.929 . S
C417 C402 1.437 . S
C417 C418 1.317 . S
C418 H389 0.930 . S
C418 C394 1.431 . S
C418 C417 1.317 . S
C419 Gd360 2.828 . S
C419 O404 1.258 . S
C419 O409 1.252 . S
C419 C420 1.497 . S
C420 C419 1.497 . S
C420 C421 1.395 . S
C420 C422 1.380 . S
C421 C420 1.395 . S
C421 C424 1.398 . S
C421 H436 0.930 . S
C422 C420 1.380 . S
C422 C423 1.391 . S
C422 H437 0.930 . S
C423 C422 1.391 . S
C423 C425 1.387 . S
C424 C421 1.398 . S
C424 C425 1.380 . S
C424 H438 0.930 . S
C425 C423 1.387 . S
C425 C424 1.380 . S
C425 H439 0.930 . S
C426 O406 1.254 . S
C426 O407 1.268 . S
C427 O411 1.284 . S
C427 O414 1.250 . S
C428 Gd361 2.828 . S
C428 O410 1.258 . S
C428 O415 1.252 . S
C428 C429 1.497 . S
C429 C428 1.497 . S
C429 C430 1.395 . S
C429 C431 1.380 . S
C430 C429 1.395 . S
C430 C433 1.398 . S
C430 H440 0.930 . S
C431 C429 1.380 . S
C431 C432 1.391 . S
C431 H441 0.930 . S
C432 C431 1.391 . S
C432 C434 1.387 . S
C433 C430 1.398 . S
C433 C434 1.380 . S
C433 H442 0.930 . S
C434 C432 1.387 . S
C434 C433 1.380 . S
C434 H443 0.930 . S
C435 O412 1.254 . S
C435 O413 1.268 . S
H436 C421 0.930 . S
H437 C422 0.930 . S
H438 C424 0.930 . S
H439 C425 0.930 . S
H440 C430 0.930 . S
H441 C431 0.930 . S
H442 C433 0.930 . S
H443 C434 0.930 . S
Gd444 N475 2.661 . S
Gd444 N481 2.601 . S
Gd444 O488 2.545 . S
Gd444 O489 2.606 . S
Gd444 O491 2.429 . S
Gd444 O492 2.545 . S
Gd444 O493 2.412 . S
Gd444 O495 2.362 . S
Gd444 O496 2.324 . S
Gd444 C503 2.828 . S
Gd445 N454 2.661 . S
Gd445 N458 2.601 . S
Gd445 O489 2.362 . S
Gd445 O490 2.324 . S
Gd445 O494 2.545 . S
Gd445 O495 2.606 . S
Gd445 O497 2.429 . S
Gd445 O498 2.545 . S
Gd445 O499 2.412 . S
Gd445 C512 2.828 . S
C446 C449 1.417 . S
C446 C451 1.431 . S
C446 C452 1.412 . S
C447 C450 1.437 . S
C447 C451 1.317 . S
C447 H466 0.929 . S
C448 C449 1.426 . S
C448 C450 1.413 . S
C448 N458 1.359 . S
C449 C446 1.417 . S
C449 C448 1.426 . S
C449 N454 1.350 . S
C450 C447 1.437 . S
C450 C448 1.413 . S
C450 C460 1.391 . S
C451 C446 1.431 . S
C451 C447 1.317 . S
C451 H462 0.930 . S
C452 C446 1.412 . S
C452 C453 1.355 . S
C452 H464 0.930 . S
C453 C452 1.355 . S
C453 C455 1.402 . S
C453 H465 0.930 . S
N454 Gd445 2.661 . S
N454 C449 1.350 . S
N454 C455 1.307 . S
C455 C453 1.402 . S
C455 N454 1.307 . S
C455 H456 0.930 . S
H456 C455 0.930 . S
C457 N458 1.334 . S
C457 C459 1.394 . S
C457 H461 0.930 . S
N458 Gd445 2.601 . S
N458 C448 1.359 . S
N458 C457 1.334 . S
C459 C457 1.394 . S
C459 C460 1.359 . S
C459 H471 0.930 . S
C460 C450 1.391 . S
C460 C459 1.359 . S
C460 H472 0.929 . S
H461 C457 0.930 . S
H462 C451 0.930 . S
H463 C480 0.930 . S
H464 C452 0.930 . S
H465 C453 0.930 . S
H466 C447 0.929 . S
H467 C485 0.930 . S
H468 C476 0.930 . S
H469 C477 0.930 . S
H470 C501 0.929 . S
H471 C459 0.930 . S
H472 C460 0.929 . S
H473 C502 0.930 . S
H474 C483 0.930 . S
N475 Gd444 2.661 . S
N475 C479 1.350 . S
N475 C480 1.307 . S
C476 H468 0.930 . S
C476 C477 1.355 . S
C476 C478 1.412 . S
C477 H469 0.930 . S
C477 C476 1.355 . S
C477 C480 1.402 . S
C478 C476 1.412 . S
C478 C479 1.417 . S
C478 C502 1.431 . S
C479 N475 1.350 . S
C479 C478 1.417 . S
C479 C482 1.426 . S
C480 H463 0.930 . S
C480 N475 1.307 . S
C480 C477 1.402 . S
N481 Gd444 2.601 . S
N481 C482 1.359 . S
N481 C485 1.334 . S
C482 C479 1.426 . S
C482 N481 1.359 . S
C482 C486 1.413 . S
C483 H474 0.930 . S
C483 C484 1.359 . S
C483 C485 1.394 . S
C484 C483 1.359 . S
C484 C486 1.391 . S
C484 H487 0.929 . S
C485 H467 0.930 . S
C485 N481 1.334 . S
C485 C483 1.394 . S
C486 C482 1.413 . S
C486 C484 1.391 . S
C486 C501 1.437 . S
H487 C484 0.929 . S
O488 Gd444 2.545 . S
O488 C503 1.258 . S
O489 Gd444 2.606 . S
O489 Gd445 2.362 . S
O489 C500 1.284 . S
O490 Gd445 2.324 . S
O490 C510 1.254 . S
O491 Gd444 2.429 . S
O491 C510 1.268 . S
O492 Gd444 2.545 . S
O492 C500 1.250 . S
O493 Gd444 2.412 . S
O493 C503 1.252 . S
O494 Gd445 2.545 . S
O494 C512 1.258 . S
O495 Gd444 2.362 . S
O495 Gd445 2.606 . S
O495 C511 1.284 . S
O496 Gd444 2.324 . S
O496 C519 1.254 . S
O497 Gd445 2.429 . S
O497 C519 1.268 . S
O498 Gd445 2.545 . S
O498 C511 1.250 . S
O499 Gd445 2.412 . S
O499 C512 1.252 . S
C500 O489 1.284 . S
C500 O492 1.250 . S
C501 H470 0.929 . S
C501 C486 1.437 . S
C501 C502 1.317 . S
C502 H473 0.930 . S
C502 C478 1.431 . S
C502 C501 1.317 . S
C503 Gd444 2.828 . S
C503 O488 1.258 . S
C503 O493 1.252 . S
C503 C504 1.497 . S
C504 C503 1.497 . S
C504 C505 1.395 . S
C504 C506 1.380 . S
C505 C504 1.395 . S
C505 C508 1.398 . S
C505 H520 0.930 . S
C506 C504 1.380 . S
C506 C507 1.391 . S
C506 H521 0.930 . S
C507 C506 1.391 . S
C507 C509 1.387 . S
C508 C505 1.398 . S
C508 C509 1.380 . S
C508 H522 0.930 . S
C509 C507 1.387 . S
C509 C508 1.380 . S
C509 H523 0.930 . S
C510 O490 1.254 . S
C510 O491 1.268 . S
C511 O495 1.284 . S
C511 O498 1.250 . S
C512 Gd445 2.828 . S
C512 O494 1.258 . S
C512 O499 1.252 . S
C512 C513 1.497 . S
C513 C512 1.497 . S
C513 C514 1.395 . S
C513 C515 1.380 . S
C514 C513 1.395 . S
C514 C517 1.398 . S
C514 H524 0.930 . S
C515 C513 1.380 . S
C515 C516 1.391 . S
C515 H525 0.930 . S
C516 C515 1.391 . S
C516 C518 1.387 . S
C517 C514 1.398 . S
C517 C518 1.380 . S
C517 H526 0.930 . S
C518 C516 1.387 . S
C518 C517 1.380 . S
C518 H527 0.930 . S
C519 O496 1.254 . S
C519 O497 1.268 . S
H520 C505 0.930 . S
H521 C506 0.930 . S
H522 C508 0.930 . S
H523 C509 0.930 . S
H524 C514 0.930 . S
H525 C515 0.930 . S
H526 C517 0.930 . S
H527 C518 0.930 . S
Gd528 N559 2.661 . S
Gd528 N565 2.601 . S
Gd528 O572 2.545 . S
Gd528 O573 2.606 . S
Gd528 O575 2.429 . S
Gd528 O576 2.545 . S
Gd528 O577 2.412 . S
Gd528 O579 2.362 . S
Gd528 O580 2.324 . S
Gd528 C587 2.828 . S
Gd529 N538 2.661 . S
Gd529 N542 2.601 . S
Gd529 O573 2.362 . S
Gd529 O574 2.324 . S
Gd529 O578 2.545 . S
Gd529 O579 2.606 . S
Gd529 O581 2.429 . S
Gd529 O582 2.545 . S
Gd529 O583 2.412 . S
Gd529 C596 2.828 . S
C530 C533 1.417 . S
C530 C535 1.431 . S
C530 C536 1.412 . S
C531 C534 1.437 . S
C531 C535 1.317 . S
C531 H550 0.929 . S
C532 C533 1.426 . S
C532 C534 1.413 . S
C532 N542 1.359 . S
C533 C530 1.417 . S
C533 C532 1.426 . S
C533 N538 1.350 . S
C534 C531 1.437 . S
C534 C532 1.413 . S
C534 C544 1.391 . S
C535 C530 1.431 . S
C535 C531 1.317 . S
C535 H546 0.930 . S
C536 C530 1.412 . S
C536 C537 1.355 . S
C536 H548 0.930 . S
C537 C536 1.355 . S
C537 C539 1.402 . S
C537 H549 0.930 . S
N538 Gd529 2.661 . S
N538 C533 1.350 . S
N538 C539 1.307 . S
C539 C537 1.402 . S
C539 N538 1.307 . S
C539 H540 0.930 . S
H540 C539 0.930 . S
C541 N542 1.334 . S
C541 C543 1.394 . S
C541 H545 0.930 . S
N542 Gd529 2.601 . S
N542 C532 1.359 . S
N542 C541 1.334 . S
C543 C541 1.394 . S
C543 C544 1.359 . S
C543 H555 0.930 . S
C544 C534 1.391 . S
C544 C543 1.359 . S
C544 H556 0.929 . S
H545 C541 0.930 . S
H546 C535 0.930 . S
H547 C564 0.930 . S
H548 C536 0.930 . S
H549 C537 0.930 . S
H550 C531 0.929 . S
H551 C569 0.930 . S
H552 C560 0.930 . S
H553 C561 0.930 . S
H554 C585 0.929 . S
H555 C543 0.930 . S
H556 C544 0.929 . S
H557 C586 0.930 . S
H558 C567 0.930 . S
N559 Gd528 2.661 . S
N559 C563 1.350 . S
N559 C564 1.307 . S
C560 H552 0.930 . S
C560 C561 1.355 . S
C560 C562 1.412 . S
C561 H553 0.930 . S
C561 C560 1.355 . S
C561 C564 1.402 . S
C562 C560 1.412 . S
C562 C563 1.417 . S
C562 C586 1.431 . S
C563 N559 1.350 . S
C563 C562 1.417 . S
C563 C566 1.426 . S
C564 H547 0.930 . S
C564 N559 1.307 . S
C564 C561 1.402 . S
N565 Gd528 2.601 . S
N565 C566 1.359 . S
N565 C569 1.334 . S
C566 C563 1.426 . S
C566 N565 1.359 . S
C566 C570 1.413 . S
C567 H558 0.930 . S
C567 C568 1.359 . S
C567 C569 1.394 . S
C568 C567 1.359 . S
C568 C570 1.391 . S
C568 H571 0.929 . S
C569 H551 0.930 . S
C569 N565 1.334 . S
C569 C567 1.394 . S
C570 C566 1.413 . S
C570 C568 1.391 . S
C570 C585 1.437 . S
H571 C568 0.929 . S
O572 Gd528 2.545 . S
O572 C587 1.258 . S
O573 Gd528 2.606 . S
O573 Gd529 2.362 . S
O573 C584 1.284 . S
O574 Gd529 2.324 . S
O574 C594 1.254 . S
O575 Gd528 2.429 . S
O575 C594 1.268 . S
O576 Gd528 2.545 . S
O576 C584 1.250 . S
O577 Gd528 2.412 . S
O577 C587 1.252 . S
O578 Gd529 2.545 . S
O578 C596 1.258 . S
O579 Gd528 2.362 . S
O579 Gd529 2.606 . S
O579 C595 1.284 . S
O580 Gd528 2.324 . S
O580 C603 1.254 . S
O581 Gd529 2.429 . S
O581 C603 1.268 . S
O582 Gd529 2.545 . S
O582 C595 1.250 . S
O583 Gd529 2.412 . S
O583 C596 1.252 . S
C584 O573 1.284 . S
C584 O576 1.250 . S
C585 H554 0.929 . S
C585 C570 1.437 . S
C585 C586 1.317 . S
C586 H557 0.930 . S
C586 C562 1.431 . S
C586 C585 1.317 . S
C587 Gd528 2.828 . S
C587 O572 1.258 . S
C587 O577 1.252 . S
C587 C588 1.497 . S
C588 C587 1.497 . S
C588 C589 1.395 . S
C588 C590 1.380 . S
C589 C588 1.395 . S
C589 C592 1.398 . S
C589 H604 0.930 . S
C590 C588 1.380 . S
C590 C591 1.391 . S
C590 H605 0.930 . S
C591 C590 1.391 . S
C591 C593 1.387 . S
C592 C589 1.398 . S
C592 C593 1.380 . S
C592 H606 0.930 . S
C593 C591 1.387 . S
C593 C592 1.380 . S
C593 H607 0.930 . S
C594 O574 1.254 . S
C594 O575 1.268 . S
C595 O579 1.284 . S
C595 O582 1.250 . S
C596 Gd529 2.828 . S
C596 O578 1.258 . S
C596 O583 1.252 . S
C596 C597 1.497 . S
C597 C596 1.497 . S
C597 C598 1.395 . S
C597 C599 1.380 . S
C598 C597 1.395 . S
C598 C601 1.398 . S
C598 H608 0.930 . S
C599 C597 1.380 . S
C599 C600 1.391 . S
C599 H609 0.930 . S
C600 C599 1.391 . S
C600 C602 1.387 . S
C601 C598 1.398 . S
C601 C602 1.380 . S
C601 H610 0.930 . S
C602 C600 1.387 . S
C602 C601 1.380 . S
C602 H611 0.930 . S
C603 O580 1.254 . S
C603 O581 1.268 . S
H604 C589 0.930 . S
H605 C590 0.930 . S
H606 C592 0.930 . S
H607 C593 0.930 . S
H608 C598 0.930 . S
H609 C599 0.930 . S
H610 C601 0.930 . S
H611 C602 0.930 . S
Gd612 N643 2.661 . S
Gd612 N649 2.601 . S
Gd612 O656 2.545 . S
Gd612 O657 2.606 . S
Gd612 O659 2.429 . S
Gd612 O660 2.545 . S
Gd612 O661 2.412 . S
Gd612 O663 2.362 . S
Gd612 O664 2.324 . S
Gd612 C671 2.828 . S
Gd613 N622 2.661 . S
Gd613 N626 2.601 . S
Gd613 O657 2.362 . S
Gd613 O658 2.324 . S
Gd613 O662 2.545 . S
Gd613 O663 2.606 . S
Gd613 O665 2.429 . S
Gd613 O666 2.545 . S
Gd613 O667 2.412 . S
Gd613 C680 2.828 . S
C614 C617 1.417 . S
C614 C619 1.431 . S
C614 C620 1.412 . S
C615 C618 1.437 . S
C615 C619 1.317 . S
C615 H634 0.929 . S
C616 C617 1.426 . S
C616 C618 1.413 . S
C616 N626 1.359 . S
C617 C614 1.417 . S
C617 C616 1.426 . S
C617 N622 1.350 . S
C618 C615 1.437 . S
C618 C616 1.413 . S
C618 C628 1.391 . S
C619 C614 1.431 . S
C619 C615 1.317 . S
C619 H630 0.930 . S
C620 C614 1.412 . S
C620 C621 1.355 . S
C620 H632 0.930 . S
C621 C620 1.355 . S
C621 C623 1.402 . S
C621 H633 0.930 . S
N622 Gd613 2.661 . S
N622 C617 1.350 . S
N622 C623 1.307 . S
C623 C621 1.402 . S
C623 N622 1.307 . S
C623 H624 0.930 . S
H624 C623 0.930 . S
C625 N626 1.334 . S
C625 C627 1.394 . S
C625 H629 0.930 . S
N626 Gd613 2.601 . S
N626 C616 1.359 . S
N626 C625 1.334 . S
C627 C625 1.394 . S
C627 C628 1.359 . S
C627 H639 0.930 . S
C628 C618 1.391 . S
C628 C627 1.359 . S
C628 H640 0.929 . S
H629 C625 0.930 . S
H630 C619 0.930 . S
H631 C648 0.930 . S
H632 C620 0.930 . S
H633 C621 0.930 . S
H634 C615 0.929 . S
H635 C653 0.930 . S
H636 C644 0.930 . S
H637 C645 0.930 . S
H638 C669 0.929 . S
H639 C627 0.930 . S
H640 C628 0.929 . S
H641 C670 0.930 . S
H642 C651 0.930 . S
N643 Gd612 2.661 . S
N643 C647 1.350 . S
N643 C648 1.307 . S
C644 H636 0.930 . S
C644 C645 1.355 . S
C644 C646 1.412 . S
C645 H637 0.930 . S
C645 C644 1.355 . S
C645 C648 1.402 . S
C646 C644 1.412 . S
C646 C647 1.417 . S
C646 C670 1.431 . S
C647 N643 1.350 . S
C647 C646 1.417 . S
C647 C650 1.426 . S
C648 H631 0.930 . S
C648 N643 1.307 . S
C648 C645 1.402 . S
N649 Gd612 2.601 . S
N649 C650 1.359 . S
N649 C653 1.334 . S
C650 C647 1.426 . S
C650 N649 1.359 . S
C650 C654 1.413 . S
C651 H642 0.930 . S
C651 C652 1.359 . S
C651 C653 1.394 . S
C652 C651 1.359 . S
C652 C654 1.391 . S
C652 H655 0.929 . S
C653 H635 0.930 . S
C653 N649 1.334 . S
C653 C651 1.394 . S
C654 C650 1.413 . S
C654 C652 1.391 . S
C654 C669 1.437 . S
H655 C652 0.929 . S
O656 Gd612 2.545 . S
O656 C671 1.258 . S
O657 Gd612 2.606 . S
O657 Gd613 2.362 . S
O657 C668 1.284 . S
O658 Gd613 2.324 . S
O658 C678 1.254 . S
O659 Gd612 2.429 . S
O659 C678 1.268 . S
O660 Gd612 2.545 . S
O660 C668 1.250 . S
O661 Gd612 2.412 . S
O661 C671 1.252 . S
O662 Gd613 2.545 . S
O662 C680 1.258 . S
O663 Gd612 2.362 . S
O663 Gd613 2.606 . S
O663 C679 1.284 . S
O664 Gd612 2.324 . S
O664 C687 1.254 . S
O665 Gd613 2.429 . S
O665 C687 1.268 . S
O666 Gd613 2.545 . S
O666 C679 1.250 . S
O667 Gd613 2.412 . S
O667 C680 1.252 . S
C668 O657 1.284 . S
C668 O660 1.250 . S
C669 H638 0.929 . S
C669 C654 1.437 . S
C669 C670 1.317 . S
C670 H641 0.930 . S
C670 C646 1.431 . S
C670 C669 1.317 . S
C671 Gd612 2.828 . S
C671 O656 1.258 . S
C671 O661 1.252 . S
C671 C672 1.497 . S
C672 C671 1.497 . S
C672 C673 1.395 . S
C672 C674 1.380 . S
C673 C672 1.395 . S
C673 C676 1.398 . S
C673 H688 0.930 . S
C674 C672 1.380 . S
C674 C675 1.391 . S
C674 H689 0.930 . S
C675 C674 1.391 . S
C675 C677 1.387 . S
C676 C673 1.398 . S
C676 C677 1.380 . S
C676 H690 0.930 . S
C677 C675 1.387 . S
C677 C676 1.380 . S
C677 H691 0.930 . S
C678 O658 1.254 . S
C678 O659 1.268 . S
C679 O663 1.284 . S
C679 O666 1.250 . S
C680 Gd613 2.828 . S
C680 O662 1.258 . S
C680 O667 1.252 . S
C680 C681 1.497 . S
C681 C680 1.497 . S
C681 C682 1.395 . S
C681 C683 1.380 . S
C682 C681 1.395 . S
C682 C685 1.398 . S
C682 H692 0.930 . S
C683 C681 1.380 . S
C683 C684 1.391 . S
C683 H693 0.930 . S
C684 C683 1.391 . S
C684 C686 1.387 . S
C685 C682 1.398 . S
C685 C686 1.380 . S
C685 H694 0.930 . S
C686 C684 1.387 . S
C686 C685 1.380 . S
C686 H695 0.930 . S
C687 O664 1.254 . S
C687 O665 1.268 . S
H688 C673 0.930 . S
H689 C674 0.930 . S
H690 C676 0.930 . S
H691 C677 0.930 . S
H692 C682 0.930 . S
H693 C683 0.930 . S
H694 C685 0.930 . S
H695 C686 0.930 . S
Gd696 N727 2.661 . S
Gd696 N733 2.601 . S
Gd696 O740 2.545 . S
Gd696 O741 2.606 . S
Gd696 O743 2.429 . S
Gd696 O744 2.545 . S
Gd696 O745 2.412 . S
Gd696 O747 2.362 . S
Gd696 O748 2.324 . S
Gd696 C755 2.828 . S
Gd697 N706 2.661 . S
Gd697 N710 2.601 . S
Gd697 O741 2.362 . S
Gd697 O742 2.324 . S
Gd697 O746 2.545 . S
Gd697 O747 2.606 . S
Gd697 O749 2.429 . S
Gd697 O750 2.545 . S
Gd697 O751 2.412 . S
Gd697 C764 2.828 . S
C698 C701 1.417 . S
C698 C703 1.431 . S
C698 C704 1.412 . S
C699 C702 1.437 . S
C699 C703 1.317 . S
C699 H718 0.929 . S
C700 C701 1.426 . S
C700 C702 1.413 . S
C700 N710 1.359 . S
C701 C698 1.417 . S
C701 C700 1.426 . S
C701 N706 1.350 . S
C702 C699 1.437 . S
C702 C700 1.413 . S
C702 C712 1.391 . S
C703 C698 1.431 . S
C703 C699 1.317 . S
C703 H714 0.930 . S
C704 C698 1.412 . S
C704 C705 1.355 . S
C704 H716 0.930 . S
C705 C704 1.355 . S
C705 C707 1.402 . S
C705 H717 0.930 . S
N706 Gd697 2.661 . S
N706 C701 1.350 . S
N706 C707 1.307 . S
C707 C705 1.402 . S
C707 N706 1.307 . S
C707 H708 0.930 . S
H708 C707 0.930 . S
C709 N710 1.334 . S
C709 C711 1.394 . S
C709 H713 0.930 . S
N710 Gd697 2.601 . S
N710 C700 1.359 . S
N710 C709 1.334 . S
C711 C709 1.394 . S
C711 C712 1.359 . S
C711 H723 0.930 . S
C712 C702 1.391 . S
C712 C711 1.359 . S
C712 H724 0.929 . S
H713 C709 0.930 . S
H714 C703 0.930 . S
H715 C732 0.930 . S
H716 C704 0.930 . S
H717 C705 0.930 . S
H718 C699 0.929 . S
H719 C737 0.930 . S
H720 C728 0.930 . S
H721 C729 0.930 . S
H722 C753 0.929 . S
H723 C711 0.930 . S
H724 C712 0.929 . S
H725 C754 0.930 . S
H726 C735 0.930 . S
N727 Gd696 2.661 . S
N727 C731 1.350 . S
N727 C732 1.307 . S
C728 H720 0.930 . S
C728 C729 1.355 . S
C728 C730 1.412 . S
C729 H721 0.930 . S
C729 C728 1.355 . S
C729 C732 1.402 . S
C730 C728 1.412 . S
C730 C731 1.417 . S
C730 C754 1.431 . S
C731 N727 1.350 . S
C731 C730 1.417 . S
C731 C734 1.426 . S
C732 H715 0.930 . S
C732 N727 1.307 . S
C732 C729 1.402 . S
N733 Gd696 2.601 . S
N733 C734 1.359 . S
N733 C737 1.334 . S
C734 C731 1.426 . S
C734 N733 1.359 . S
C734 C738 1.413 . S
C735 H726 0.930 . S
C735 C736 1.359 . S
C735 C737 1.394 . S
C736 C735 1.359 . S
C736 C738 1.391 . S
C736 H739 0.929 . S
C737 H719 0.930 . S
C737 N733 1.334 . S
C737 C735 1.394 . S
C738 C734 1.413 . S
C738 C736 1.391 . S
C738 C753 1.437 . S
H739 C736 0.929 . S
O740 Gd696 2.545 . S
O740 C755 1.258 . S
O741 Gd696 2.606 . S
O741 Gd697 2.362 . S
O741 C752 1.284 . S
O742 Gd697 2.324 . S
O742 C762 1.254 . S
O743 Gd696 2.429 . S
O743 C762 1.268 . S
O744 Gd696 2.545 . S
O744 C752 1.250 . S
O745 Gd696 2.412 . S
O745 C755 1.252 . S
O746 Gd697 2.545 . S
O746 C764 1.258 . S
O747 Gd696 2.362 . S
O747 Gd697 2.606 . S
O747 C763 1.284 . S
O748 Gd696 2.324 . S
O748 C771 1.254 . S
O749 Gd697 2.429 . S
O749 C771 1.268 . S
O750 Gd697 2.545 . S
O750 C763 1.250 . S
O751 Gd697 2.412 . S
O751 C764 1.252 . S
C752 O741 1.284 . S
C752 O744 1.250 . S
C753 H722 0.929 . S
C753 C738 1.437 . S
C753 C754 1.317 . S
C754 H725 0.930 . S
C754 C730 1.431 . S
C754 C753 1.317 . S
C755 Gd696 2.828 . S
C755 O740 1.258 . S
C755 O745 1.252 . S
C755 C756 1.497 . S
C756 C755 1.497 . S
C756 C757 1.395 . S
C756 C758 1.380 . S
C757 C756 1.395 . S
C757 C760 1.398 . S
C757 H772 0.930 . S
C758 C756 1.380 . S
C758 C759 1.391 . S
C758 H773 0.930 . S
C759 C758 1.391 . S
C759 C761 1.387 . S
C760 C757 1.398 . S
C760 C761 1.380 . S
C760 H774 0.930 . S
C761 C759 1.387 . S
C761 C760 1.380 . S
C761 H775 0.930 . S
C762 O742 1.254 . S
C762 O743 1.268 . S
C763 O747 1.284 . S
C763 O750 1.250 . S
C764 Gd697 2.828 . S
C764 O746 1.258 . S
C764 O751 1.252 . S
C764 C765 1.497 . S
C765 C764 1.497 . S
C765 C766 1.395 . S
C765 C767 1.380 . S
C766 C765 1.395 . S
C766 C769 1.398 . S
C766 H776 0.930 . S
C767 C765 1.380 . S
C767 C768 1.391 . S
C767 H777 0.930 . S
C768 C767 1.391 . S
C768 C770 1.387 . S
C769 C766 1.398 . S
C769 C770 1.380 . S
C769 H778 0.930 . S
C770 C768 1.387 . S
C770 C769 1.380 . S
C770 H779 0.930 . S
C771 O748 1.254 . S
C771 O749 1.268 . S
H772 C757 0.930 . S
H773 C758 0.930 . S
H774 C760 0.930 . S
H775 C761 0.930 . S
H776 C766 0.930 . S
H777 C767 0.930 . S
H778 C769 0.930 . S
H779 C770 0.930 . S
Gd780 N811 2.661 . S
Gd780 N817 2.601 . S
Gd780 O824 2.545 . S
Gd780 O825 2.606 . S
Gd780 O827 2.429 . S
Gd780 O828 2.545 . S
Gd780 O829 2.412 . S
Gd780 O831 2.362 . S
Gd780 O832 2.324 . S
Gd780 C839 2.828 . S
Gd781 N790 2.661 . S
Gd781 N794 2.601 . S
Gd781 O825 2.362 . S
Gd781 O826 2.324 . S
Gd781 O830 2.545 . S
Gd781 O831 2.606 . S
Gd781 O833 2.429 . S
Gd781 O834 2.545 . S
Gd781 O835 2.412 . S
Gd781 C848 2.828 . S
C782 C785 1.417 . S
C782 C787 1.431 . S
C782 C788 1.412 . S
C783 C786 1.437 . S
C783 C787 1.317 . S
C783 H802 0.929 . S
C784 C785 1.426 . S
C784 C786 1.413 . S
C784 N794 1.359 . S
C785 C782 1.417 . S
C785 C784 1.426 . S
C785 N790 1.350 . S
C786 C783 1.437 . S
C786 C784 1.413 . S
C786 C796 1.391 . S
C787 C782 1.431 . S
C787 C783 1.317 . S
C787 H798 0.930 . S
C788 C782 1.412 . S
C788 C789 1.355 . S
C788 H800 0.930 . S
C789 C788 1.355 . S
C789 C791 1.402 . S
C789 H801 0.930 . S
N790 Gd781 2.661 . S
N790 C785 1.350 . S
N790 C791 1.307 . S
C791 C789 1.402 . S
C791 N790 1.307 . S
C791 H792 0.930 . S
H792 C791 0.930 . S
C793 N794 1.334 . S
C793 C795 1.394 . S
C793 H797 0.930 . S
N794 Gd781 2.601 . S
N794 C784 1.359 . S
N794 C793 1.334 . S
C795 C793 1.394 . S
C795 C796 1.359 . S
C795 H807 0.930 . S
C796 C786 1.391 . S
C796 C795 1.359 . S
C796 H808 0.929 . S
H797 C793 0.930 . S
H798 C787 0.930 . S
H799 C816 0.930 . S
H800 C788 0.930 . S
H801 C789 0.930 . S
H802 C783 0.929 . S
H803 C821 0.930 . S
H804 C812 0.930 . S
H805 C813 0.930 . S
H806 C837 0.929 . S
H807 C795 0.930 . S
H808 C796 0.929 . S
H809 C838 0.930 . S
H810 C819 0.930 . S
N811 Gd780 2.661 . S
N811 C815 1.350 . S
N811 C816 1.307 . S
C812 H804 0.930 . S
C812 C813 1.355 . S
C812 C814 1.412 . S
C813 H805 0.930 . S
C813 C812 1.355 . S
C813 C816 1.402 . S
C814 C812 1.412 . S
C814 C815 1.417 . S
C814 C838 1.431 . S
C815 N811 1.350 . S
C815 C814 1.417 . S
C815 C818 1.426 . S
C816 H799 0.930 . S
C816 N811 1.307 . S
C816 C813 1.402 . S
N817 Gd780 2.601 . S
N817 C818 1.359 . S
N817 C821 1.334 . S
C818 C815 1.426 . S
C818 N817 1.359 . S
C818 C822 1.413 . S
C819 H810 0.930 . S
C819 C820 1.359 . S
C819 C821 1.394 . S
C820 C819 1.359 . S
C820 C822 1.391 . S
C820 H823 0.929 . S
C821 H803 0.930 . S
C821 N817 1.334 . S
C821 C819 1.394 . S
C822 C818 1.413 . S
C822 C820 1.391 . S
C822 C837 1.437 . S
H823 C820 0.929 . S
O824 Gd780 2.545 . S
O824 C839 1.258 . S
O825 Gd780 2.606 . S
O825 Gd781 2.362 . S
O825 C836 1.284 . S
O826 Gd781 2.324 . S
O826 C846 1.254 . S
O827 Gd780 2.429 . S
O827 C846 1.268 . S
O828 Gd780 2.545 . S
O828 C836 1.250 . S
O829 Gd780 2.412 . S
O829 C839 1.252 . S
O830 Gd781 2.545 . S
O830 C848 1.258 . S
O831 Gd780 2.362 . S
O831 Gd781 2.606 . S
O831 C847 1.284 . S
O832 Gd780 2.324 . S
O832 C855 1.254 . S
O833 Gd781 2.429 . S
O833 C855 1.268 . S
O834 Gd781 2.545 . S
O834 C847 1.250 . S
O835 Gd781 2.412 . S
O835 C848 1.252 . S
C836 O825 1.284 . S
C836 O828 1.250 . S
C837 H806 0.929 . S
C837 C822 1.437 . S
C837 C838 1.317 . S
C838 H809 0.930 . S
C838 C814 1.431 . S
C838 C837 1.317 . S
C839 Gd780 2.828 . S
C839 O824 1.258 . S
C839 O829 1.252 . S
C839 C840 1.497 . S
C840 C839 1.497 . S
C840 C841 1.395 . S
C840 C842 1.380 . S
C841 C840 1.395 . S
C841 C844 1.398 . S
C841 H856 0.930 . S
C842 C840 1.380 . S
C842 C843 1.391 . S
C842 H857 0.930 . S
C843 C842 1.391 . S
C843 C845 1.387 . S
C844 C841 1.398 . S
C844 C845 1.380 . S
C844 H858 0.930 . S
C845 C843 1.387 . S
C845 C844 1.380 . S
C845 H859 0.930 . S
C846 O826 1.254 . S
C846 O827 1.268 . S
C847 O831 1.284 . S
C847 O834 1.250 . S
C848 Gd781 2.828 . S
C848 O830 1.258 . S
C848 O835 1.252 . S
C848 C849 1.497 . S
C849 C848 1.497 . S
C849 C850 1.395 . S
C849 C851 1.380 . S
C850 C849 1.395 . S
C850 C853 1.398 . S
C850 H860 0.930 . S
C851 C849 1.380 . S
C851 C852 1.391 . S
C851 H861 0.930 . S
C852 C851 1.391 . S
C852 C854 1.387 . S
C853 C850 1.398 . S
C853 C854 1.380 . S
C853 H862 0.930 . S
C854 C852 1.387 . S
C854 C853 1.380 . S
C854 H863 0.930 . S
C855 O832 1.254 . S
C855 O833 1.268 . S
H856 C841 0.930 . S
H857 C842 0.930 . S
H858 C844 0.930 . S
H859 C845 0.930 . S
H860 C850 0.930 . S
H861 C851 0.930 . S
H862 C853 0.930 . S
H863 C854 0.930 . S
Gd864 N895 2.661 . S
Gd864 N901 2.601 . S
Gd864 O908 2.545 . S
Gd864 O909 2.606 . S
Gd864 O911 2.429 . S
Gd864 O912 2.545 . S
Gd864 O913 2.412 . S
Gd864 O915 2.362 . S
Gd864 O916 2.324 . S
Gd864 C923 2.828 . S
Gd865 N874 2.661 . S
Gd865 N878 2.601 . S
Gd865 O909 2.362 . S
Gd865 O910 2.324 . S
Gd865 O914 2.545 . S
Gd865 O915 2.606 . S
Gd865 O917 2.429 . S
Gd865 O918 2.545 . S
Gd865 O919 2.412 . S
Gd865 C932 2.828 . S
C866 C869 1.417 . S
C866 C871 1.431 . S
C866 C872 1.412 . S
C867 C870 1.437 . S
C867 C871 1.317 . S
C867 H886 0.929 . S
C868 C869 1.426 . S
C868 C870 1.413 . S
C868 N878 1.359 . S
C869 C866 1.417 . S
C869 C868 1.426 . S
C869 N874 1.350 . S
C870 C867 1.437 . S
C870 C868 1.413 . S
C870 C880 1.391 . S
C871 C866 1.431 . S
C871 C867 1.317 . S
C871 H882 0.930 . S
C872 C866 1.412 . S
C872 C873 1.355 . S
C872 H884 0.930 . S
C873 C872 1.355 . S
C873 C875 1.402 . S
C873 H885 0.930 . S
N874 Gd865 2.661 . S
N874 C869 1.350 . S
N874 C875 1.307 . S
C875 C873 1.402 . S
C875 N874 1.307 . S
C875 H876 0.930 . S
H876 C875 0.930 . S
C877 N878 1.334 . S
C877 C879 1.394 . S
C877 H881 0.930 . S
N878 Gd865 2.601 . S
N878 C868 1.359 . S
N878 C877 1.334 . S
C879 C877 1.394 . S
C879 C880 1.359 . S
C879 H891 0.930 . S
C880 C870 1.391 . S
C880 C879 1.359 . S
C880 H892 0.929 . S
H881 C877 0.930 . S
H882 C871 0.930 . S
H883 C900 0.930 . S
H884 C872 0.930 . S
H885 C873 0.930 . S
H886 C867 0.929 . S
H887 C905 0.930 . S
H888 C896 0.930 . S
H889 C897 0.930 . S
H890 C921 0.929 . S
H891 C879 0.930 . S
H892 C880 0.929 . S
H893 C922 0.930 . S
H894 C903 0.930 . S
N895 Gd864 2.661 . S
N895 C899 1.350 . S
N895 C900 1.307 . S
C896 H888 0.930 . S
C896 C897 1.355 . S
C896 C898 1.412 . S
C897 H889 0.930 . S
C897 C896 1.355 . S
C897 C900 1.402 . S
C898 C896 1.412 . S
C898 C899 1.417 . S
C898 C922 1.431 . S
C899 N895 1.350 . S
C899 C898 1.417 . S
C899 C902 1.426 . S
C900 H883 0.930 . S
C900 N895 1.307 . S
C900 C897 1.402 . S
N901 Gd864 2.601 . S
N901 C902 1.359 . S
N901 C905 1.334 . S
C902 C899 1.426 . S
C902 N901 1.359 . S
C902 C906 1.413 . S
C903 H894 0.930 . S
C903 C904 1.359 . S
C903 C905 1.394 . S
C904 C903 1.359 . S
C904 C906 1.391 . S
C904 H907 0.929 . S
C905 H887 0.930 . S
C905 N901 1.334 . S
C905 C903 1.394 . S
C906 C902 1.413 . S
C906 C904 1.391 . S
C906 C921 1.437 . S
H907 C904 0.929 . S
O908 Gd864 2.545 . S
O908 C923 1.258 . S
O909 Gd864 2.606 . S
O909 Gd865 2.362 . S
O909 C920 1.284 . S
O910 Gd865 2.324 . S
O910 C930 1.254 . S
O911 Gd864 2.429 . S
O911 C930 1.268 . S
O912 Gd864 2.545 . S
O912 C920 1.250 . S
O913 Gd864 2.412 . S
O913 C923 1.252 . S
O914 Gd865 2.545 . S
O914 C932 1.258 . S
O915 Gd864 2.362 . S
O915 Gd865 2.606 . S
O915 C931 1.284 . S
O916 Gd864 2.324 . S
O916 C939 1.254 . S
O917 Gd865 2.429 . S
O917 C939 1.268 . S
O918 Gd865 2.545 . S
O918 C931 1.250 . S
O919 Gd865 2.412 . S
O919 C932 1.252 . S
C920 O909 1.284 . S
C920 O912 1.250 . S
C921 H890 0.929 . S
C921 C906 1.437 . S
C921 C922 1.317 . S
C922 H893 0.930 . S
C922 C898 1.431 . S
C922 C921 1.317 . S
C923 Gd864 2.828 . S
C923 O908 1.258 . S
C923 O913 1.252 . S
C923 C924 1.497 . S
C924 C923 1.497 . S
C924 C925 1.395 . S
C924 C926 1.380 . S
C925 C924 1.395 . S
C925 C928 1.398 . S
C925 H940 0.930 . S
C926 C924 1.380 . S
C926 C927 1.391 . S
C926 H941 0.930 . S
C927 C926 1.391 . S
C927 C929 1.387 . S
C928 C925 1.398 . S
C928 C929 1.380 . S
C928 H942 0.930 . S
C929 C927 1.387 . S
C929 C928 1.380 . S
C929 H943 0.930 . S
C930 O910 1.254 . S
C930 O911 1.268 . S
C931 O915 1.284 . S
C931 O918 1.250 . S
C932 Gd865 2.828 . S
C932 O914 1.258 . S
C932 O919 1.252 . S
C932 C933 1.497 . S
C933 C932 1.497 . S
C933 C934 1.395 . S
C933 C935 1.380 . S
C934 C933 1.395 . S
C934 C937 1.398 . S
C934 H944 0.930 . S
C935 C933 1.380 . S
C935 C936 1.391 . S
C935 H945 0.930 . S
C936 C935 1.391 . S
C936 C938 1.387 . S
C937 C934 1.398 . S
C937 C938 1.380 . S
C937 H946 0.930 . S
C938 C936 1.387 . S
C938 C937 1.380 . S
C938 H947 0.930 . S
C939 O916 1.254 . S
C939 O917 1.268 . S
H940 C925 0.930 . S
H941 C926 0.930 . S
H942 C928 0.930 . S
H943 C929 0.930 . S
H944 C934 0.930 . S
H945 C935 0.930 . S
H946 C937 0.930 . S
H947 C938 0.930 . S
H948 C956 0.929 . S
H949 C958 0.930 . S
H950 C960 0.930 . S
H951 C963 0.929 . S
H952 C966 0.930 . S
H953 C968 0.960 . S
H954 C968 0.960 . S
H955 C968 0.960 . S
C956 H948 0.929 . S
C956 C957 1.377 . S
C956 C958 1.384 . S
C957 C956 1.377 . S
C957 C963 1.390 . S
C958 H949 0.930 . S
C958 C956 1.384 . S
C958 C959 1.372 . S
C959 C958 1.372 . S
C959 C960 1.400 . S
C959 C964 1.490 . S
C960 H950 0.930 . S
C960 C959 1.400 . S
C960 C963 1.386 . S
H961 C977 0.930 . S
H962 C978 0.931 . S
C963 H951 0.929 . S
C963 C957 1.390 . S
C963 C960 1.386 . S
C964 C959 1.490 . S
C964 C966 1.395 . S
C964 C967 1.403 . S
H965 C971 0.930 . S
C966 H952 0.930 . S
C966 C964 1.395 . S
C966 C969 1.403 . S
C967 C964 1.403 . S
C967 C968 1.524 . S
C967 C971 1.400 . S
C968 H953 0.960 . S
C968 H954 0.960 . S
C968 H955 0.960 . S
C968 C967 1.524 . S
C969 C966 1.403 . S
C969 C970 1.392 . S
C969 C973 1.495 . S
C970 C969 1.392 . S
C970 C971 1.385 . S
C970 C972 1.478 . S
C971 H965 0.930 . S
C971 C967 1.400 . S
C971 C970 1.385 . S
C972 C970 1.478 . S
C972 C974 1.381 . S
C972 C978 1.383 . S
C973 C969 1.495 . S
C973 H979 0.959 . S
C973 H980 0.961 . S
C973 H981 0.960 . S
C974 C972 1.381 . S
C974 C975 1.394 . S
C974 H982 0.930 . S
C975 C974 1.394 . S
C975 C976 1.383 . S
C975 H983 0.929 . S
C976 C975 1.383 . S
C976 C977 1.377 . S
C977 H961 0.930 . S
C977 C976 1.377 . S
C977 C978 1.379 . S
C978 H962 0.931 . S
C978 C972 1.383 . S
C978 C977 1.379 . S
H979 C973 0.959 . S
H980 C973 0.961 . S
H981 C973 0.960 . S
H982 C974 0.930 . S
H983 C975 0.929 . S
H984 C992 0.929 . S
H985 C994 0.930 . S
H986 C996 0.930 . S
H987 C999 0.929 . S
H988 C1002 0.930 . S
H989 C1004 0.960 . S
H990 C1004 0.960 . S
H991 C1004 0.960 . S
C992 H984 0.929 . S
C992 C993 1.377 . S
C992 C994 1.384 . S
C993 C992 1.377 . S
C993 C999 1.390 . S
C994 H985 0.930 . S
C994 C992 1.384 . S
C994 C995 1.372 . S
C995 C994 1.372 . S
C995 C996 1.400 . S
C995 C1000 1.490 . S
C996 H986 0.930 . S
C996 C995 1.400 . S
C996 C999 1.386 . S
H997 C1013 0.930 . S
H998 C1014 0.931 . S
C999 H987 0.929 . S
C999 C993 1.390 . S
C999 C996 1.386 . S
C1000 C995 1.490 . S
C1000 C1002 1.395 . S
C1000 C1003 1.403 . S
H1001 C1007 0.930 . S
C1002 H988 0.930 . S
C1002 C1000 1.395 . S
C1002 C1005 1.403 . S
C1003 C1000 1.403 . S
C1003 C1004 1.524 . S
C1003 C1007 1.400 . S
C1004 H989 0.960 . S
C1004 H990 0.960 . S
C1004 H991 0.960 . S
C1004 C1003 1.524 . S
C1005 C1002 1.403 . S
C1005 C1006 1.392 . S
C1005 C1009 1.495 . S
C1006 C1005 1.392 . S
C1006 C1007 1.385 . S
C1006 C1008 1.478 . S
C1007 H1001 0.930 . S
C1007 C1003 1.400 . S
C1007 C1006 1.385 . S
C1008 C1006 1.478 . S
C1008 C1010 1.381 . S
C1008 C1014 1.383 . S
C1009 C1005 1.495 . S
C1009 H1015 0.959 . S
C1009 H1016 0.961 . S
C1009 H1017 0.960 . S
C1010 C1008 1.381 . S
C1010 C1011 1.394 . S
C1010 H1018 0.930 . S
C1011 C1010 1.394 . S
C1011 C1012 1.383 . S
C1011 H1019 0.929 . S
C1012 C1011 1.383 . S
C1012 C1013 1.377 . S
C1013 H997 0.930 . S
C1013 C1012 1.377 . S
C1013 C1014 1.379 . S
C1014 H998 0.931 . S
C1014 C1008 1.383 . S
C1014 C1013 1.379 . S
H1015 C1009 0.959 . S
H1016 C1009 0.961 . S
H1017 C1009 0.960 . S
H1018 C1010 0.930 . S
H1019 C1011 0.929 . S
H1020 C1028 0.929 . S
H1021 C1030 0.930 . S
H1022 C1032 0.930 . S
H1023 C1035 0.929 . S
H1024 C1038 0.930 . S
H1025 C1040 0.960 . S
H1026 C1040 0.960 . S
H1027 C1040 0.960 . S
C1028 H1020 0.929 . S
C1028 C1029 1.377 . S
C1028 C1030 1.384 . S
C1029 C1028 1.377 . S
C1029 C1035 1.390 . S
C1030 H1021 0.930 . S
C1030 C1028 1.384 . S
C1030 C1031 1.372 . S
C1031 C1030 1.372 . S
C1031 C1032 1.400 . S
C1031 C1036 1.490 . S
C1032 H1022 0.930 . S
C1032 C1031 1.400 . S
C1032 C1035 1.386 . S
H1033 C1049 0.930 . S
H1034 C1050 0.931 . S
C1035 H1023 0.929 . S
C1035 C1029 1.390 . S
C1035 C1032 1.386 . S
C1036 C1031 1.490 . S
C1036 C1038 1.395 . S
C1036 C1039 1.403 . S
H1037 C1043 0.930 . S
C1038 H1024 0.930 . S
C1038 C1036 1.395 . S
C1038 C1041 1.403 . S
C1039 C1036 1.403 . S
C1039 C1040 1.524 . S
C1039 C1043 1.400 . S
C1040 H1025 0.960 . S
C1040 H1026 0.960 . S
C1040 H1027 0.960 . S
C1040 C1039 1.524 . S
C1041 C1038 1.403 . S
C1041 C1042 1.392 . S
C1041 C1045 1.495 . S
C1042 C1041 1.392 . S
C1042 C1043 1.385 . S
C1042 C1044 1.478 . S
C1043 H1037 0.930 . S
C1043 C1039 1.400 . S
C1043 C1042 1.385 . S
C1044 C1042 1.478 . S
C1044 C1046 1.381 . S
C1044 C1050 1.383 . S
C1045 C1041 1.495 . S
C1045 H1051 0.959 . S
C1045 H1052 0.961 . S
C1045 H1053 0.960 . S
C1046 C1044 1.381 . S
C1046 C1047 1.394 . S
C1046 H1054 0.930 . S
C1047 C1046 1.394 . S
C1047 C1048 1.383 . S
C1047 H1055 0.929 . S
C1048 C1047 1.383 . S
C1048 C1049 1.377 . S
C1049 H1033 0.930 . S
C1049 C1048 1.377 . S
C1049 C1050 1.379 . S
C1050 H1034 0.931 . S
C1050 C1044 1.383 . S
C1050 C1049 1.379 . S
H1051 C1045 0.959 . S
H1052 C1045 0.961 . S
H1053 C1045 0.960 . S
H1054 C1046 0.930 . S
H1055 C1047 0.929 . S
H1056 C1064 0.929 . S
H1057 C1066 0.930 . S
H1058 C1068 0.930 . S
H1059 C1071 0.929 . S
H1060 C1074 0.930 . S
H1061 C1076 0.960 . S
H1062 C1076 0.960 . S
H1063 C1076 0.960 . S
C1064 H1056 0.929 . S
C1064 C1065 1.377 . S
C1064 C1066 1.384 . S
C1065 C1064 1.377 . S
C1065 C1071 1.390 . S
C1066 H1057 0.930 . S
C1066 C1064 1.384 . S
C1066 C1067 1.372 . S
C1067 C1066 1.372 . S
C1067 C1068 1.400 . S
C1067 C1072 1.490 . S
C1068 H1058 0.930 . S
C1068 C1067 1.400 . S
C1068 C1071 1.386 . S
H1069 C1085 0.930 . S
H1070 C1086 0.931 . S
C1071 H1059 0.929 . S
C1071 C1065 1.390 . S
C1071 C1068 1.386 . S
C1072 C1067 1.490 . S
C1072 C1074 1.395 . S
C1072 C1075 1.403 . S
H1073 C1079 0.930 . S
C1074 H1060 0.930 . S
C1074 C1072 1.395 . S
C1074 C1077 1.403 . S
C1075 C1072 1.403 . S
C1075 C1076 1.524 . S
C1075 C1079 1.400 . S
C1076 H1061 0.960 . S
C1076 H1062 0.960 . S
C1076 H1063 0.960 . S
C1076 C1075 1.524 . S
C1077 C1074 1.403 . S
C1077 C1078 1.392 . S
C1077 C1081 1.495 . S
C1078 C1077 1.392 . S
C1078 C1079 1.385 . S
C1078 C1080 1.478 . S
C1079 H1073 0.930 . S
C1079 C1075 1.400 . S
C1079 C1078 1.385 . S
C1080 C1078 1.478 . S
C1080 C1082 1.381 . S
C1080 C1086 1.383 . S
C1081 C1077 1.495 . S
C1081 H1087 0.959 . S
C1081 H1088 0.961 . S
C1081 H1089 0.960 . S
C1082 C1080 1.381 . S
C1082 C1083 1.394 . S
C1082 H1090 0.930 . S
C1083 C1082 1.394 . S
C1083 C1084 1.383 . S
C1083 H1091 0.929 . S
C1084 C1083 1.383 . S
C1084 C1085 1.377 . S
C1085 H1069 0.930 . S
C1085 C1084 1.377 . S
C1085 C1086 1.379 . S
C1086 H1070 0.931 . S
C1086 C1080 1.383 . S
C1086 C1085 1.379 . S
H1087 C1081 0.959 . S
H1088 C1081 0.961 . S
H1089 C1081 0.960 . S
H1090 C1082 0.930 . S
H1091 C1083 0.929 . S
H1092 C1100 0.929 . S
H1093 C1102 0.930 . S
H1094 C1104 0.930 . S
H1095 C1107 0.929 . S
H1096 C1110 0.930 . S
H1097 C1112 0.960 . S
H1098 C1112 0.960 . S
H1099 C1112 0.960 . S
C1100 H1092 0.929 . S
C1100 C1101 1.377 . S
C1100 C1102 1.384 . S
C1101 C1100 1.377 . S
C1101 C1107 1.390 . S
C1102 H1093 0.930 . S
C1102 C1100 1.384 . S
C1102 C1103 1.372 . S
C1103 C1102 1.372 . S
C1103 C1104 1.400 . S
C1103 C1108 1.490 . S
C1104 H1094 0.930 . S
C1104 C1103 1.400 . S
C1104 C1107 1.386 . S
H1105 C1121 0.930 . S
H1106 C1122 0.931 . S
C1107 H1095 0.929 . S
C1107 C1101 1.390 . S
C1107 C1104 1.386 . S
C1108 C1103 1.490 . S
C1108 C1110 1.395 . S
C1108 C1111 1.403 . S
H1109 C1115 0.930 . S
C1110 H1096 0.930 . S
C1110 C1108 1.395 . S
C1110 C1113 1.403 . S
C1111 C1108 1.403 . S
C1111 C1112 1.524 . S
C1111 C1115 1.400 . S
C1112 H1097 0.960 . S
C1112 H1098 0.960 . S
C1112 H1099 0.960 . S
C1112 C1111 1.524 . S
C1113 C1110 1.403 . S
C1113 C1114 1.392 . S
C1113 C1117 1.495 . S
C1114 C1113 1.392 . S
C1114 C1115 1.385 . S
C1114 C1116 1.478 . S
C1115 H1109 0.930 . S
C1115 C1111 1.400 . S
C1115 C1114 1.385 . S
C1116 C1114 1.478 . S
C1116 C1118 1.381 . S
C1116 C1122 1.383 . S
C1117 C1113 1.495 . S
C1117 H1123 0.959 . S
C1117 H1124 0.961 . S
C1117 H1125 0.960 . S
C1118 C1116 1.381 . S
C1118 C1119 1.394 . S
C1118 H1126 0.930 . S
C1119 C1118 1.394 . S
C1119 C1120 1.383 . S
C1119 H1127 0.929 . S
C1120 C1119 1.383 . S
C1120 C1121 1.377 . S
C1121 H1105 0.930 . S
C1121 C1120 1.377 . S
C1121 C1122 1.379 . S
C1122 H1106 0.931 . S
C1122 C1116 1.383 . S
C1122 C1121 1.379 . S
H1123 C1117 0.959 . S
H1124 C1117 0.961 . S
H1125 C1117 0.960 . S
H1126 C1118 0.930 . S
H1127 C1119 0.929 . S
H1128 C1136 0.929 . S
H1129 C1138 0.930 . S
H1130 C1140 0.930 . S
H1131 C1143 0.929 . S
H1132 C1146 0.930 . S
H1133 C1148 0.960 . S
H1134 C1148 0.960 . S
H1135 C1148 0.960 . S
C1136 H1128 0.929 . S
C1136 C1137 1.377 . S
C1136 C1138 1.384 . S
C1137 C1136 1.377 . S
C1137 C1143 1.390 . S
C1138 H1129 0.930 . S
C1138 C1136 1.384 . S
C1138 C1139 1.372 . S
C1139 C1138 1.372 . S
C1139 C1140 1.400 . S
C1139 C1144 1.490 . S
C1140 H1130 0.930 . S
C1140 C1139 1.400 . S
C1140 C1143 1.386 . S
H1141 C1157 0.930 . S
H1142 C1158 0.931 . S
C1143 H1131 0.929 . S
C1143 C1137 1.390 . S
C1143 C1140 1.386 . S
C1144 C1139 1.490 . S
C1144 C1146 1.395 . S
C1144 C1147 1.403 . S
H1145 C1151 0.930 . S
C1146 H1132 0.930 . S
C1146 C1144 1.395 . S
C1146 C1149 1.403 . S
C1147 C1144 1.403 . S
C1147 C1148 1.524 . S
C1147 C1151 1.400 . S
C1148 H1133 0.960 . S
C1148 H1134 0.960 . S
C1148 H1135 0.960 . S
C1148 C1147 1.524 . S
C1149 C1146 1.403 . S
C1149 C1150 1.392 . S
C1149 C1153 1.495 . S
C1150 C1149 1.392 . S
C1150 C1151 1.385 . S
C1150 C1152 1.478 . S
C1151 H1145 0.930 . S
C1151 C1147 1.400 . S
C1151 C1150 1.385 . S
C1152 C1150 1.478 . S
C1152 C1154 1.381 . S
C1152 C1158 1.383 . S
C1153 C1149 1.495 . S
C1153 H1159 0.959 . S
C1153 H1160 0.961 . S
C1153 H1161 0.960 . S
C1154 C1152 1.381 . S
C1154 C1155 1.394 . S
C1154 H1162 0.930 . S
C1155 C1154 1.394 . S
C1155 C1156 1.383 . S
C1155 H1163 0.929 . S
C1156 C1155 1.383 . S
C1156 C1157 1.377 . S
C1157 H1141 0.930 . S
C1157 C1156 1.377 . S
C1157 C1158 1.379 . S
C1158 H1142 0.931 . S
C1158 C1152 1.383 . S
C1158 C1157 1.379 . S
H1159 C1153 0.959 . S
H1160 C1153 0.961 . S
H1161 C1153 0.960 . S
H1162 C1154 0.930 . S
H1163 C1155 0.929 . S
H1164 C1172 0.929 . S
H1165 C1174 0.930 . S
H1166 C1176 0.930 . S
H1167 C1179 0.929 . S
H1168 C1182 0.930 . S
H1169 C1184 0.960 . S
H1170 C1184 0.960 . S
H1171 C1184 0.960 . S
C1172 H1164 0.929 . S
C1172 C1173 1.377 . S
C1172 C1174 1.384 . S
C1173 C1172 1.377 . S
C1173 C1179 1.390 . S
C1174 H1165 0.930 . S
C1174 C1172 1.384 . S
C1174 C1175 1.372 . S
C1175 C1174 1.372 . S
C1175 C1176 1.400 . S
C1175 C1180 1.490 . S
C1176 H1166 0.930 . S
C1176 C1175 1.400 . S
C1176 C1179 1.386 . S
H1177 C1193 0.930 . S
H1178 C1194 0.931 . S
C1179 H1167 0.929 . S
C1179 C1173 1.390 . S
C1179 C1176 1.386 . S
C1180 C1175 1.490 . S
C1180 C1182 1.395 . S
C1180 C1183 1.403 . S
H1181 C1187 0.930 . S
C1182 H1168 0.930 . S
C1182 C1180 1.395 . S
C1182 C1185 1.403 . S
C1183 C1180 1.403 . S
C1183 C1184 1.524 . S
C1183 C1187 1.400 . S
C1184 H1169 0.960 . S
C1184 H1170 0.960 . S
C1184 H1171 0.960 . S
C1184 C1183 1.524 . S
C1185 C1182 1.403 . S
C1185 C1186 1.392 . S
C1185 C1189 1.495 . S
C1186 C1185 1.392 . S
C1186 C1187 1.385 . S
C1186 C1188 1.478 . S
C1187 H1181 0.930 . S
C1187 C1183 1.400 . S
C1187 C1186 1.385 . S
C1188 C1186 1.478 . S
C1188 C1190 1.381 . S
C1188 C1194 1.383 . S
C1189 C1185 1.495 . S
C1189 H1195 0.959 . S
C1189 H1196 0.961 . S
C1189 H1197 0.960 . S
C1190 C1188 1.381 . S
C1190 C1191 1.394 . S
C1190 H1198 0.930 . S
C1191 C1190 1.394 . S
C1191 C1192 1.383 . S
C1191 H1199 0.929 . S
C1192 C1191 1.383 . S
C1192 C1193 1.377 . S
C1193 H1177 0.930 . S
C1193 C1192 1.377 . S
C1193 C1194 1.379 . S
C1194 H1178 0.931 . S
C1194 C1188 1.383 . S
C1194 C1193 1.379 . S
H1195 C1189 0.959 . S
H1196 C1189 0.961 . S
H1197 C1189 0.960 . S
H1198 C1190 0.930 . S
H1199 C1191 0.929 . S
H1200 C1208 0.929 1_545 S
H1201 C1210 0.930 . S
H1202 C1212 0.930 . S
H1203 C1215 0.929 . S
H1204 C1218 0.930 . S
H1205 C1220 0.960 . S
H1206 C1220 0.960 . S
H1207 C1220 0.960 . S
C1208 H1200 0.929 1_565 S
C1208 C1209 1.377 . S
C1208 C1210 1.384 . S
C1209 C1208 1.377 . S
C1209 C1215 1.390 . S
C1210 H1201 0.930 . S
C1210 C1208 1.384 . S
C1210 C1211 1.372 . S
C1211 C1210 1.372 . S
C1211 C1212 1.400 . S
C1211 C1216 1.490 . S
C1212 H1202 0.930 . S
C1212 C1211 1.400 . S
C1212 C1215 1.386 . S
H1213 C1229 0.930 . S
H1214 C1230 0.931 . S
C1215 H1203 0.929 . S
C1215 C1209 1.390 . S
C1215 C1212 1.386 . S
C1216 C1211 1.490 . S
C1216 C1218 1.395 . S
C1216 C1219 1.403 . S
H1217 C1223 0.930 . S
C1218 H1204 0.930 . S
C1218 C1216 1.395 . S
C1218 C1221 1.403 . S
C1219 C1216 1.403 . S
C1219 C1220 1.524 . S
C1219 C1223 1.400 . S
C1220 H1205 0.960 . S
C1220 H1206 0.960 . S
C1220 H1207 0.960 . S
C1220 C1219 1.524 . S
C1221 C1218 1.403 . S
C1221 C1222 1.392 . S
C1221 C1225 1.495 . S
C1222 C1221 1.392 . S
C1222 C1223 1.385 . S
C1222 C1224 1.478 . S
C1223 H1217 0.930 . S
C1223 C1219 1.400 . S
C1223 C1222 1.385 . S
C1224 C1222 1.478 . S
C1224 C1226 1.381 . S
C1224 C1230 1.383 . S
C1225 C1221 1.495 . S
C1225 H1231 0.959 . S
C1225 H1232 0.961 . S
C1225 H1233 0.960 . S
C1226 C1224 1.381 . S
C1226 C1227 1.394 . S
C1226 H1234 0.930 . S
C1227 C1226 1.394 . S
C1227 C1228 1.383 . S
C1227 H1235 0.929 . S
C1228 C1227 1.383 . S
C1228 C1229 1.377 . S
C1229 H1213 0.930 . S
C1229 C1228 1.377 . S
C1229 C1230 1.379 . S
C1230 H1214 0.931 . S
C1230 C1224 1.383 . S
C1230 C1229 1.379 . S
H1231 C1225 0.959 . S
H1232 C1225 0.961 . S
H1233 C1225 0.960 . S
H1234 C1226 0.930 . S
H1235 C1227 0.929 . S
H1236 C1244 0.929 . S
H1237 C1246 0.930 . S
H1238 C1248 0.930 . S
H1239 C1251 0.929 . S
H1240 C1254 0.930 . S
H1241 C1256 0.960 . S
H1242 C1256 0.960 . S
H1243 C1256 0.960 . S
C1244 H1236 0.929 . S
C1244 C1245 1.377 . S
C1244 C1246 1.384 . S
C1245 C1244 1.377 . S
C1245 C1251 1.390 . S
C1246 H1237 0.930 . S
C1246 C1244 1.384 . S
C1246 C1247 1.372 . S
C1247 C1246 1.372 . S
C1247 C1248 1.400 . S
C1247 C1252 1.490 . S
C1248 H1238 0.930 . S
C1248 C1247 1.400 . S
C1248 C1251 1.386 . S
H1249 C1265 0.930 . S
H1250 C1266 0.931 . S
C1251 H1239 0.929 . S
C1251 C1245 1.390 . S
C1251 C1248 1.386 . S
C1252 C1247 1.490 . S
C1252 C1254 1.395 . S
C1252 C1255 1.403 . S
H1253 C1259 0.930 . S
C1254 H1240 0.930 . S
C1254 C1252 1.395 . S
C1254 C1257 1.403 . S
C1255 C1252 1.403 . S
C1255 C1256 1.524 . S
C1255 C1259 1.400 . S
C1256 H1241 0.960 . S
C1256 H1242 0.960 . S
C1256 H1243 0.960 . S
C1256 C1255 1.524 . S
C1257 C1254 1.403 . S
C1257 C1258 1.392 . S
C1257 C1261 1.495 . S
C1258 C1257 1.392 . S
C1258 C1259 1.385 . S
C1258 C1260 1.478 . S
C1259 H1253 0.930 . S
C1259 C1255 1.400 . S
C1259 C1258 1.385 . S
C1260 C1258 1.478 . S
C1260 C1262 1.381 . S
C1260 C1266 1.383 . S
C1261 C1257 1.495 . S
C1261 H1267 0.959 . S
C1261 H1268 0.961 . S
C1261 H1269 0.960 . S
C1262 C1260 1.381 . S
C1262 C1263 1.394 . S
C1262 H1270 0.930 . S
C1263 C1262 1.394 . S
C1263 C1264 1.383 . S
C1263 H1271 0.929 . S
C1264 C1263 1.383 . S
C1264 C1265 1.377 . S
C1265 H1249 0.930 . S
C1265 C1264 1.377 . S
C1265 C1266 1.379 . S
C1266 H1250 0.931 . S
C1266 C1260 1.383 . S
C1266 C1265 1.379 . S
H1267 C1261 0.959 . S
H1268 C1261 0.961 . S
H1269 C1261 0.960 . S
H1270 C1262 0.930 . S
H1271 C1263 0.929 . S
H1272 C1280 0.929 . S
H1273 C1282 0.930 . S
H1274 C1284 0.930 . S
H1275 C1287 0.929 . S
H1276 C1290 0.930 . S
H1277 C1292 0.960 . S
H1278 C1292 0.960 . S
H1279 C1292 0.960 . S
C1280 H1272 0.929 . S
C1280 C1281 1.377 . S
C1280 C1282 1.384 . S
C1281 C1280 1.377 . S
C1281 C1287 1.390 . S
C1282 H1273 0.930 . S
C1282 C1280 1.384 . S
C1282 C1283 1.372 . S
C1283 C1282 1.372 . S
C1283 C1284 1.400 . S
C1283 C1288 1.490 . S
C1284 H1274 0.930 . S
C1284 C1283 1.400 . S
C1284 C1287 1.386 . S
H1285 C1301 0.930 . S
H1286 C1302 0.931 . S
C1287 H1275 0.929 . S
C1287 C1281 1.390 . S
C1287 C1284 1.386 . S
C1288 C1283 1.490 . S
C1288 C1290 1.395 . S
C1288 C1291 1.403 . S
H1289 C1295 0.930 . S
C1290 H1276 0.930 . S
C1290 C1288 1.395 . S
C1290 C1293 1.403 . S
C1291 C1288 1.403 . S
C1291 C1292 1.524 . S
C1291 C1295 1.400 . S
C1292 H1277 0.960 . S
C1292 H1278 0.960 . S
C1292 H1279 0.960 . S
C1292 C1291 1.524 . S
C1293 C1290 1.403 . S
C1293 C1294 1.392 . S
C1293 C1297 1.495 . S
C1294 C1293 1.392 . S
C1294 C1295 1.385 . S
C1294 C1296 1.478 . S
C1295 H1289 0.930 . S
C1295 C1291 1.400 . S
C1295 C1294 1.385 . S
C1296 C1294 1.478 . S
C1296 C1298 1.381 . S
C1296 C1302 1.383 . S
C1297 C1293 1.495 . S
C1297 H1303 0.959 . S
C1297 H1304 0.961 . S
C1297 H1305 0.960 . S
C1298 C1296 1.381 . S
C1298 C1299 1.394 . S
C1298 H1306 0.930 . S
C1299 C1298 1.394 . S
C1299 C1300 1.383 . S
C1299 H1307 0.929 . S
C1300 C1299 1.383 . S
C1300 C1301 1.377 . S
C1301 H1285 0.930 . S
C1301 C1300 1.377 . S
C1301 C1302 1.379 . S
C1302 H1286 0.931 . S
C1302 C1296 1.383 . S
C1302 C1301 1.379 . S
H1303 C1297 0.959 . S
H1304 C1297 0.961 . S
H1305 C1297 0.960 . S
H1306 C1298 0.930 . S
H1307 C1299 0.929 . S
H1308 C1316 0.929 . S
H1309 C1318 0.930 . S
H1310 C1320 0.930 . S
H1311 C1323 0.929 . S
H1312 C1326 0.930 . S
H1313 C1328 0.960 . S
H1314 C1328 0.960 . S
H1315 C1328 0.960 . S
C1316 H1308 0.929 . S
C1316 C1317 1.377 . S
C1316 C1318 1.384 . S
C1317 C1316 1.377 . S
C1317 C1323 1.390 . S
C1318 H1309 0.930 . S
C1318 C1316 1.384 . S
C1318 C1319 1.372 . S
C1319 C1318 1.372 . S
C1319 C1320 1.400 . S
C1319 C1324 1.490 . S
C1320 H1310 0.930 . S
C1320 C1319 1.400 . S
C1320 C1323 1.386 . S
H1321 C1337 0.930 . S
H1322 C1338 0.931 . S
C1323 H1311 0.929 . S
C1323 C1317 1.390 . S
C1323 C1320 1.386 . S
C1324 C1319 1.490 . S
C1324 C1326 1.395 . S
C1324 C1327 1.403 . S
H1325 C1331 0.930 . S
C1326 H1312 0.930 . S
C1326 C1324 1.395 . S
C1326 C1329 1.403 . S
C1327 C1324 1.403 . S
C1327 C1328 1.524 . S
C1327 C1331 1.400 . S
C1328 H1313 0.960 . S
C1328 H1314 0.960 . S
C1328 H1315 0.960 . S
C1328 C1327 1.524 . S
C1329 C1326 1.403 . S
C1329 C1330 1.392 . S
C1329 C1333 1.495 . S
C1330 C1329 1.392 . S
C1330 C1331 1.385 . S
C1330 C1332 1.478 . S
C1331 H1325 0.930 . S
C1331 C1327 1.400 . S
C1331 C1330 1.385 . S
C1332 C1330 1.478 . S
C1332 C1334 1.381 . S
C1332 C1338 1.383 . S
C1333 C1329 1.495 . S
C1333 H1339 0.959 . S
C1333 H1340 0.961 . S
C1333 H1341 0.960 . S
C1334 C1332 1.381 . S
C1334 C1335 1.394 . S
C1334 H1342 0.930 . S
C1335 C1334 1.394 . S
C1335 C1336 1.383 . S
C1335 H1343 0.929 . S
C1336 C1335 1.383 . S
C1336 C1337 1.377 . S
C1337 H1321 0.930 . S
C1337 C1336 1.377 . S
C1337 C1338 1.379 . S
C1338 H1322 0.931 . S
C1338 C1332 1.383 . S
C1338 C1337 1.379 . S
H1339 C1333 0.959 . S
H1340 C1333 0.961 . S
H1341 C1333 0.960 . S
H1342 C1334 0.930 . S
H1343 C1335 0.929 . S
H1344 C1352 0.929 . S
H1345 C1354 0.930 . S
H1346 C1356 0.930 . S
H1347 C1359 0.929 . S
H1348 C1362 0.930 . S
H1349 C1364 0.960 . S
H1350 C1364 0.960 . S
H1351 C1364 0.960 . S
C1352 H1344 0.929 . S
C1352 C1353 1.377 . S
C1352 C1354 1.384 . S
C1353 C1352 1.377 . S
C1353 C1359 1.390 . S
C1354 H1345 0.930 . S
C1354 C1352 1.384 . S
C1354 C1355 1.372 . S
C1355 C1354 1.372 . S
C1355 C1356 1.400 . S
C1355 C1360 1.490 . S
C1356 H1346 0.930 . S
C1356 C1355 1.400 . S
C1356 C1359 1.386 . S
H1357 C1373 0.930 . S
H1358 C1374 0.931 . S
C1359 H1347 0.929 . S
C1359 C1353 1.390 . S
C1359 C1356 1.386 . S
C1360 C1355 1.490 . S
C1360 C1362 1.395 . S
C1360 C1363 1.403 . S
H1361 C1367 0.930 . S
C1362 H1348 0.930 . S
C1362 C1360 1.395 . S
C1362 C1365 1.403 . S
C1363 C1360 1.403 . S
C1363 C1364 1.524 . S
C1363 C1367 1.400 . S
C1364 H1349 0.960 . S
C1364 H1350 0.960 . S
C1364 H1351 0.960 . S
C1364 C1363 1.524 . S
C1365 C1362 1.403 . S
C1365 C1366 1.392 . S
C1365 C1369 1.495 . S
C1366 C1365 1.392 . S
C1366 C1367 1.385 . S
C1366 C1368 1.478 . S
C1367 H1361 0.930 . S
C1367 C1363 1.400 . S
C1367 C1366 1.385 . S
C1368 C1366 1.478 . S
C1368 C1370 1.381 . S
C1368 C1374 1.383 . S
C1369 C1365 1.495 . S
C1369 H1375 0.959 . S
C1369 H1376 0.961 . S
C1369 H1377 0.960 . S
C1370 C1368 1.381 . S
C1370 C1371 1.394 . S
C1370 H1378 0.930 . S
C1371 C1370 1.394 . S
C1371 C1372 1.383 . S
C1371 H1379 0.929 . S
C1372 C1371 1.383 . S
C1372 C1373 1.377 . S
C1373 H1357 0.930 . S
C1373 C1372 1.377 . S
C1373 C1374 1.379 . S
C1374 H1358 0.931 . S
C1374 C1368 1.383 . S
C1374 C1373 1.379 . S
H1375 C1369 0.959 . S
H1376 C1369 0.961 . S
H1377 C1369 0.960 . S
H1378 C1370 0.930 . S
H1379 C1371 0.929 . S
H1380 C1388 0.929 . S
H1381 C1390 0.930 . S
H1382 C1392 0.930 . S
H1383 C1395 0.929 . S
H1384 C1398 0.930 . S
H1385 C1400 0.960 . S
H1386 C1400 0.960 . S
H1387 C1400 0.960 . S
C1388 H1380 0.929 . S
C1388 C1389 1.377 1_546 S
C1388 C1390 1.384 1_545 S
C1389 C1388 1.377 1_564 S
C1389 C1395 1.390 . S
C1390 H1381 0.930 . S
C1390 C1388 1.384 1_565 S
C1390 C1391 1.372 . S
C1391 C1390 1.372 . S
C1391 C1392 1.400 1_556 S
C1391 C1396 1.490 . S
C1392 H1382 0.930 . S
C1392 C1391 1.400 1_554 S
C1392 C1395 1.386 . S
H1393 C1409 0.930 . S
H1394 C1410 0.931 . S
C1395 H1383 0.929 . S
C1395 C1389 1.390 . S
C1395 C1392 1.386 . S
C1396 C1391 1.490 . S
C1396 C1398 1.395 . S
C1396 C1399 1.403 . S
H1397 C1403 0.930 . S
C1398 H1384 0.930 . S
C1398 C1396 1.395 . S
C1398 C1401 1.403 . S
C1399 C1396 1.403 . S
C1399 C1400 1.524 1_556 S
C1399 C1403 1.400 . S
C1400 H1385 0.960 . S
C1400 H1386 0.960 . S
C1400 H1387 0.960 . S
C1400 C1399 1.524 1_554 S
C1401 C1398 1.403 . S
C1401 C1402 1.392 . S
C1401 C1405 1.495 . S
C1402 C1401 1.392 . S
C1402 C1403 1.385 . S
C1402 C1404 1.478 . S
C1403 H1397 0.930 . S
C1403 C1399 1.400 . S
C1403 C1402 1.385 . S
C1404 C1402 1.478 . S
C1404 C1406 1.381 . S
C1404 C1410 1.383 . S
C1405 C1401 1.495 . S
C1405 H1411 0.959 . S
C1405 H1412 0.961 . S
C1405 H1413 0.960 . S
C1406 C1404 1.381 . S
C1406 C1407 1.394 . S
C1406 H1414 0.930 . S
C1407 C1406 1.394 . S
C1407 C1408 1.383 . S
C1407 H1415 0.929 . S
C1408 C1407 1.383 . S
C1408 C1409 1.377 . S
C1409 H1393 0.930 . S
C1409 C1408 1.377 . S
C1409 C1410 1.379 . S
C1410 H1394 0.931 . S
C1410 C1404 1.383 . S
C1410 C1409 1.379 . S
H1411 C1405 0.959 . S
H1412 C1405 0.961 . S
H1413 C1405 0.960 . S
H1414 C1406 0.930 . S
H1415 C1407 0.929 . S
H1416 C1424 0.929 . S
H1417 C1426 0.930 . S
H1418 C1428 0.930 . S
H1419 C1431 0.929 1_554 S
H1420 C1434 0.930 . S
H1421 C1436 0.960 . S
H1422 C1436 0.960 . S
H1423 C1436 0.960 . S
C1424 H1416 0.929 . S
C1424 C1425 1.377 . S
C1424 C1426 1.384 . S
C1425 C1424 1.377 . S
C1425 C1431 1.390 . S
C1426 H1417 0.930 . S
C1426 C1424 1.384 . S
C1426 C1427 1.372 . S
C1427 C1426 1.372 . S
C1427 C1428 1.400 . S
C1427 C1432 1.490 . S
C1428 H1418 0.930 . S
C1428 C1427 1.400 . S
C1428 C1431 1.386 . S
H1429 C1445 0.930 . S
H1430 C1446 0.931 . S
C1431 H1419 0.929 1_556 S
C1431 C1425 1.390 . S
C1431 C1428 1.386 . S
C1432 C1427 1.490 . S
C1432 C1434 1.395 . S
C1432 C1435 1.403 . S
H1433 C1439 0.930 . S
C1434 H1420 0.930 . S
C1434 C1432 1.395 . S
C1434 C1437 1.403 . S
C1435 C1432 1.403 . S
C1435 C1436 1.524 . S
C1435 C1439 1.400 . S
C1436 H1421 0.960 . S
C1436 H1422 0.960 . S
C1436 H1423 0.960 . S
C1436 C1435 1.524 . S
C1437 C1434 1.403 . S
C1437 C1438 1.392 . S
C1437 C1441 1.495 . S
C1438 C1437 1.392 . S
C1438 C1439 1.385 . S
C1438 C1440 1.478 . S
C1439 H1433 0.930 . S
C1439 C1435 1.400 . S
C1439 C1438 1.385 . S
C1440 C1438 1.478 . S
C1440 C1442 1.381 . S
C1440 C1446 1.383 . S
C1441 C1437 1.495 . S
C1441 H1447 0.959 . S
C1441 H1448 0.961 . S
C1441 H1449 0.960 . S
C1442 C1440 1.381 . S
C1442 C1443 1.394 . S
C1442 H1450 0.930 . S
C1443 C1442 1.394 . S
C1443 C1444 1.383 . S
C1443 H1451 0.929 . S
C1444 C1443 1.383 . S
C1444 C1445 1.377 . S
C1445 H1429 0.930 . S
C1445 C1444 1.377 . S
C1445 C1446 1.379 . S
C1446 H1430 0.931 . S
C1446 C1440 1.383 . S
C1446 C1445 1.379 . S
H1447 C1441 0.959 . S
H1448 C1441 0.961 . S
H1449 C1441 0.960 . S
H1450 C1442 0.930 . S
H1451 C1443 0.929 . S
H1452 C1460 0.929 . S
H1453 C1462 0.930 . S
H1454 C1464 0.930 . S
H1455 C1467 0.929 . S
H1456 C1470 0.930 . S
H1457 C1472 0.960 . S
H1458 C1472 0.960 . S
H1459 C1472 0.960 . S
C1460 H1452 0.929 . S
C1460 C1461 1.377 . S
C1460 C1462 1.384 . S
C1461 C1460 1.377 . S
C1461 C1467 1.390 . S
C1462 H1453 0.930 . S
C1462 C1460 1.384 . S
C1462 C1463 1.372 . S
C1463 C1462 1.372 . S
C1463 C1464 1.400 . S
C1463 C1468 1.490 . S
C1464 H1454 0.930 . S
C1464 C1463 1.400 . S
C1464 C1467 1.386 . S
H1465 C1481 0.930 . S
H1466 C1482 0.931 . S
C1467 H1455 0.929 . S
C1467 C1461 1.390 . S
C1467 C1464 1.386 . S
C1468 C1463 1.490 . S
C1468 C1470 1.395 . S
C1468 C1471 1.403 . S
H1469 C1475 0.930 . S
C1470 H1456 0.930 . S
C1470 C1468 1.395 . S
C1470 C1473 1.403 . S
C1471 C1468 1.403 . S
C1471 C1472 1.524 . S
C1471 C1475 1.400 . S
C1472 H1457 0.960 . S
C1472 H1458 0.960 . S
C1472 H1459 0.960 . S
C1472 C1471 1.524 . S
C1473 C1470 1.403 . S
C1473 C1474 1.392 . S
C1473 C1477 1.495 . S
C1474 C1473 1.392 . S
C1474 C1475 1.385 . S
C1474 C1476 1.478 . S
C1475 H1469 0.930 . S
C1475 C1471 1.400 . S
C1475 C1474 1.385 . S
C1476 C1474 1.478 . S
C1476 C1478 1.381 . S
C1476 C1482 1.383 . S
C1477 C1473 1.495 . S
C1477 H1483 0.959 . S
C1477 H1484 0.961 . S
C1477 H1485 0.960 . S
C1478 C1476 1.381 . S
C1478 C1479 1.394 . S
C1478 H1486 0.930 . S
C1479 C1478 1.394 . S
C1479 C1480 1.383 . S
C1479 H1487 0.929 . S
C1480 C1479 1.383 . S
C1480 C1481 1.377 . S
C1481 H1465 0.930 . S
C1481 C1480 1.377 . S
C1481 C1482 1.379 . S
C1482 H1466 0.931 . S
C1482 C1476 1.383 . S
C1482 C1481 1.379 . S
H1483 C1477 0.959 . S
H1484 C1477 0.961 . S
H1485 C1477 0.960 . S
H1486 C1478 0.930 . S
H1487 C1479 0.929 . S
H1488 C1496 0.929 . S
H1489 C1498 0.930 . S
H1490 C1500 0.930 . S
H1491 C1503 0.929 . S
H1492 C1506 0.930 . S
H1493 C1508 0.960 . S
H1494 C1508 0.960 . S
H1495 C1508 0.960 . S
C1496 H1488 0.929 . S
C1496 C1497 1.377 . S
C1496 C1498 1.384 . S
C1497 C1496 1.377 . S
C1497 C1503 1.390 . S
C1498 H1489 0.930 . S
C1498 C1496 1.384 . S
C1498 C1499 1.372 . S
C1499 C1498 1.372 . S
C1499 C1500 1.400 . S
C1499 C1504 1.490 . S
C1500 H1490 0.930 . S
C1500 C1499 1.400 . S
C1500 C1503 1.386 . S
H1501 C1517 0.930 . S
H1502 C1518 0.931 . S
C1503 H1491 0.929 . S
C1503 C1497 1.390 . S
C1503 C1500 1.386 . S
C1504 C1499 1.490 . S
C1504 C1506 1.395 . S
C1504 C1507 1.403 . S
H1505 C1511 0.930 . S
C1506 H1492 0.930 . S
C1506 C1504 1.395 . S
C1506 C1509 1.403 . S
C1507 C1504 1.403 . S
C1507 C1508 1.524 . S
C1507 C1511 1.400 . S
C1508 H1493 0.960 . S
C1508 H1494 0.960 . S
C1508 H1495 0.960 . S
C1508 C1507 1.524 . S
C1509 C1506 1.403 . S
C1509 C1510 1.392 . S
C1509 C1513 1.495 . S
C1510 C1509 1.392 . S
C1510 C1511 1.385 . S
C1510 C1512 1.478 . S
C1511 H1505 0.930 . S
C1511 C1507 1.400 . S
C1511 C1510 1.385 . S
C1512 C1510 1.478 . S
C1512 C1514 1.381 . S
C1512 C1518 1.383 . S
C1513 C1509 1.495 . S
C1513 H1519 0.959 . S
C1513 H1520 0.961 . S
C1513 H1521 0.960 . S
C1514 C1512 1.381 . S
C1514 C1515 1.394 . S
C1514 H1522 0.930 . S
C1515 C1514 1.394 . S
C1515 C1516 1.383 . S
C1515 H1523 0.929 . S
C1516 C1515 1.383 . S
C1516 C1517 1.377 . S
C1517 H1501 0.930 . S
C1517 C1516 1.377 . S
C1517 C1518 1.379 . S
C1518 H1502 0.931 . S
C1518 C1512 1.383 . S
C1518 C1517 1.379 . S
H1519 C1513 0.959 . S
H1520 C1513 0.961 . S
H1521 C1513 0.960 . S
H1522 C1514 0.930 . S
H1523 C1515 0.929 . S
H1524 C1532 0.929 . S
H1525 C1534 0.930 . S
H1526 C1536 0.930 . S
H1527 C1539 0.929 . S
H1528 C1542 0.930 . S
H1529 C1544 0.960 . S
H1530 C1544 0.960 . S
H1531 C1544 0.960 . S
C1532 H1524 0.929 . S
C1532 C1533 1.377 . S
C1532 C1534 1.384 . S
C1533 C1532 1.377 . S
C1533 C1539 1.390 . S
C1534 H1525 0.930 . S
C1534 C1532 1.384 . S
C1534 C1535 1.372 . S
C1535 C1534 1.372 . S
C1535 C1536 1.400 . S
C1535 C1540 1.490 . S
C1536 H1526 0.930 . S
C1536 C1535 1.400 . S
C1536 C1539 1.386 . S
H1537 C1553 0.930 . S
H1538 C1554 0.931 . S
C1539 H1527 0.929 . S
C1539 C1533 1.390 . S
C1539 C1536 1.386 . S
C1540 C1535 1.490 . S
C1540 C1542 1.395 . S
C1540 C1543 1.403 . S
H1541 C1547 0.930 . S
C1542 H1528 0.930 . S
C1542 C1540 1.395 . S
C1542 C1545 1.403 . S
C1543 C1540 1.403 . S
C1543 C1544 1.524 . S
C1543 C1547 1.400 . S
C1544 H1529 0.960 . S
C1544 H1530 0.960 . S
C1544 H1531 0.960 . S
C1544 C1543 1.524 . S
C1545 C1542 1.403 . S
C1545 C1546 1.392 . S
C1545 C1549 1.495 . S
C1546 C1545 1.392 . S
C1546 C1547 1.385 . S
C1546 C1548 1.478 . S
C1547 H1541 0.930 . S
C1547 C1543 1.400 . S
C1547 C1546 1.385 . S
C1548 C1546 1.478 . S
C1548 C1550 1.381 . S
C1548 C1554 1.383 . S
C1549 C1545 1.495 . S
C1549 H1555 0.959 . S
C1549 H1556 0.961 . S
C1549 H1557 0.960 . S
C1550 C1548 1.381 . S
C1550 C1551 1.394 . S
C1550 H1558 0.930 . S
C1551 C1550 1.394 . S
C1551 C1552 1.383 . S
C1551 H1559 0.929 . S
C1552 C1551 1.383 . S
C1552 C1553 1.377 . S
C1553 H1537 0.930 . S
C1553 C1552 1.377 . S
C1553 C1554 1.379 . S
C1554 H1538 0.931 . S
C1554 C1548 1.383 . S
C1554 C1553 1.379 . S
H1555 C1549 0.959 . S
H1556 C1549 0.961 . S
H1557 C1549 0.960 . S
H1558 C1550 0.930 . S
H1559 C1551 0.929 . S
H1560 C1568 0.929 . S
H1561 C1570 0.930 . S
H1562 C1572 0.930 . S
H1563 C1575 0.929 . S
H1564 C1578 0.930 . S
H1565 C1580 0.960 . S
H1566 C1580 0.960 . S
H1567 C1580 0.960 . S
C1568 H1560 0.929 . S
C1568 C1569 1.377 . S
C1568 C1570 1.384 . S
C1569 C1568 1.377 . S
C1569 C1575 1.390 . S
C1570 H1561 0.930 . S
C1570 C1568 1.384 . S
C1570 C1571 1.372 . S
C1571 C1570 1.372 . S
C1571 C1572 1.400 . S
C1571 C1576 1.490 . S
C1572 H1562 0.930 . S
C1572 C1571 1.400 . S
C1572 C1575 1.386 . S
H1573 C1589 0.930 . S
H1574 C1590 0.931 . S
C1575 H1563 0.929 . S
C1575 C1569 1.390 . S
C1575 C1572 1.386 . S
C1576 C1571 1.490 . S
C1576 C1578 1.395 . S
C1576 C1579 1.403 . S
H1577 C1583 0.930 . S
C1578 H1564 0.930 . S
C1578 C1576 1.395 . S
C1578 C1581 1.403 . S
C1579 C1576 1.403 . S
C1579 C1580 1.524 . S
C1579 C1583 1.400 . S
C1580 H1565 0.960 . S
C1580 H1566 0.960 . S
C1580 H1567 0.960 . S
C1580 C1579 1.524 . S
C1581 C1578 1.403 . S
C1581 C1582 1.392 . S
C1581 C1585 1.495 . S
C1582 C1581 1.392 . S
C1582 C1583 1.385 . S
C1582 C1584 1.478 . S
C1583 H1577 0.930 . S
C1583 C1579 1.400 . S
C1583 C1582 1.385 . S
C1584 C1582 1.478 . S
C1584 C1586 1.381 . S
C1584 C1590 1.383 . S
C1585 C1581 1.495 . S
C1585 H1591 0.959 . S
C1585 H1592 0.961 . S
C1585 H1593 0.960 . S
C1586 C1584 1.381 . S
C1586 C1587 1.394 . S
C1586 H1594 0.930 . S
C1587 C1586 1.394 . S
C1587 C1588 1.383 . S
C1587 H1595 0.929 . S
C1588 C1587 1.383 . S
C1588 C1589 1.377 . S
C1589 H1573 0.930 . S
C1589 C1588 1.377 . S
C1589 C1590 1.379 . S
C1590 H1574 0.931 . S
C1590 C1584 1.383 . S
C1590 C1589 1.379 . S
H1591 C1585 0.959 . S
H1592 C1585 0.961 . S
H1593 C1585 0.960 . S
H1594 C1586 0.930 . S
H1595 C1587 0.929 . S
H1596 C1604 0.929 . S
H1597 C1606 0.937 . S
H1598 C1608 0.930 . S
H1599 C1611 0.929 . S
H1600 C1614 0.930 . S
H1601 C1616 0.960 . S
H1602 C1616 0.960 . S
H1603 C1616 0.960 . S
C1604 H1596 0.929 . S
C1604 C1605 1.377 . S
C1604 C1606 1.384 1_554 S
C1605 C1604 1.377 . S
C1605 C1611 1.390 1_554 S
C1606 H1597 0.937 . S
C1606 C1604 1.384 1_556 S
C1606 C1607 1.372 . S
C1607 C1606 1.372 . S
C1607 C1608 1.400 . S
C1607 C1612 1.490 . S
C1608 H1598 0.930 . S
C1608 C1607 1.400 . S
C1608 C1611 1.386 . S
H1609 C1625 0.930 . S
H1610 C1626 0.931 . S
C1611 H1599 0.929 . S
C1611 C1605 1.390 1_556 S
C1611 C1608 1.386 . S
C1612 C1607 1.490 . S
C1612 C1614 1.395 . S
C1612 C1615 1.403 . S
H1613 C1619 0.930 . S
C1614 H1600 0.930 . S
C1614 C1612 1.395 . S
C1614 C1617 1.403 . S
C1615 C1612 1.403 . S
C1615 C1616 1.524 . S
C1615 C1619 1.400 . S
C1616 H1601 0.960 . S
C1616 H1602 0.960 . S
C1616 H1603 0.960 . S
C1616 C1615 1.524 . S
C1617 C1614 1.403 . S
C1617 C1618 1.392 . S
C1617 C1621 1.495 . S
C1618 C1617 1.392 . S
C1618 C1619 1.385 . S
C1618 C1620 1.478 . S
C1619 H1613 0.930 . S
C1619 C1615 1.400 . S
C1619 C1618 1.385 . S
C1620 C1618 1.478 . S
C1620 C1622 1.381 . S
C1620 C1626 1.383 . S
C1621 C1617 1.495 . S
C1621 H1627 0.959 . S
C1621 H1628 0.961 . S
C1621 H1629 0.960 . S
C1622 C1620 1.381 . S
C1622 C1623 1.394 . S
C1622 H1630 0.930 . S
C1623 C1622 1.394 . S
C1623 C1624 1.383 . S
C1623 H1631 0.929 . S
C1624 C1623 1.383 . S
C1624 C1625 1.377 . S
C1625 H1609 0.930 . S
C1625 C1624 1.377 . S
C1625 C1626 1.379 . S
C1626 H1610 0.931 . S
C1626 C1620 1.383 . S
C1626 C1625 1.379 . S
H1627 C1621 0.959 . S
H1628 C1621 0.961 . S
H1629 C1621 0.960 . S
H1630 C1622 0.930 . S
H1631 C1623 0.929 . S
H1632 C1640 0.929 1_455 S
H1633 C1642 0.930 . S
H1634 C1644 0.930 . S
H1635 C1647 0.929 . S
H1636 C1650 0.930 . S
H1637 C1652 0.960 . S
H1638 C1652 0.960 . S
H1639 C1652 0.960 . S
C1640 H1632 0.929 1_655 S
C1640 C1641 1.377 1_556 S
C1640 C1642 1.384 . S
C1641 C1640 1.377 1_554 S
C1641 C1647 1.390 . S
C1642 H1633 0.930 . S
C1642 C1640 1.384 . S
C1642 C1643 1.372 . S
C1643 C1642 1.372 . S
C1643 C1644 1.400 1_556 S
C1643 C1648 1.490 . S
C1644 H1634 0.930 . S
C1644 C1643 1.400 1_554 S
C1644 C1647 1.386 . S
H1645 C1661 0.930 . S
H1646 C1662 0.931 . S
C1647 H1635 0.929 . S
C1647 C1641 1.390 . S
C1647 C1644 1.386 . S
C1648 C1643 1.490 . S
C1648 C1650 1.395 . S
C1648 C1651 1.403 . S
H1649 C1655 0.930 . S
C1650 H1636 0.930 . S
C1650 C1648 1.395 . S
C1650 C1653 1.403 . S
C1651 C1648 1.403 . S
C1651 C1652 1.524 . S
C1651 C1655 1.400 . S
C1652 H1637 0.960 . S
C1652 H1638 0.960 . S
C1652 H1639 0.960 . S
C1652 C1651 1.524 . S
C1653 C1650 1.403 . S
C1653 C1654 1.392 . S
C1653 C1657 1.495 . S
C1654 C1653 1.392 . S
C1654 C1655 1.385 . S
C1654 C1656 1.478 . S
C1655 H1649 0.930 . S
C1655 C1651 1.400 . S
C1655 C1654 1.385 . S
C1656 C1654 1.478 . S
C1656 C1658 1.381 . S
C1656 C1662 1.383 . S
C1657 C1653 1.495 . S
C1657 H1663 0.959 . S
C1657 H1664 0.961 . S
C1657 H1665 0.960 . S
C1658 C1656 1.381 . S
C1658 C1659 1.394 . S
C1658 H1666 0.930 . S
C1659 C1658 1.394 . S
C1659 C1660 1.383 . S
C1659 H1667 0.929 . S
C1660 C1659 1.383 . S
C1660 C1661 1.377 . S
C1661 H1645 0.930 . S
C1661 C1660 1.377 . S
C1661 C1662 1.379 . S
C1662 H1646 0.931 . S
C1662 C1656 1.383 . S
C1662 C1661 1.379 . S
H1663 C1657 0.959 . S
H1664 C1657 0.961 . S
H1665 C1657 0.960 . S
H1666 C1658 0.930 . S
H1667 C1659 0.929 . S
H1668 C1676 0.929 . S
H1669 C1678 0.930 . S
H1670 C1680 0.930 . S
H1671 C1683 0.929 . S
H1672 C1686 0.930 . S
H1673 C1688 0.960 . S
H1674 C1688 0.960 . S
H1675 C1688 0.960 . S
C1676 H1668 0.929 . S
C1676 C1677 1.377 . S
C1676 C1678 1.384 . S
C1677 C1676 1.377 . S
C1677 C1683 1.390 . S
C1678 H1669 0.930 . S
C1678 C1676 1.384 . S
C1678 C1679 1.372 . S
C1679 C1678 1.372 . S
C1679 C1680 1.400 . S
C1679 C1684 1.490 . S
C1680 H1670 0.930 . S
C1680 C1679 1.400 . S
C1680 C1683 1.386 . S
H1681 C1697 0.930 . S
H1682 C1698 0.931 . S
C1683 H1671 0.929 . S
C1683 C1677 1.390 . S
C1683 C1680 1.386 . S
C1684 C1679 1.490 . S
C1684 C1686 1.395 . S
C1684 C1687 1.403 . S
H1685 C1691 0.930 . S
C1686 H1672 0.930 . S
C1686 C1684 1.395 . S
C1686 C1689 1.403 . S
C1687 C1684 1.403 . S
C1687 C1688 1.524 . S
C1687 C1691 1.400 . S
C1688 H1673 0.960 . S
C1688 H1674 0.960 . S
C1688 H1675 0.960 . S
C1688 C1687 1.524 . S
C1689 C1686 1.403 . S
C1689 C1690 1.392 . S
C1689 C1693 1.495 . S
C1690 C1689 1.392 . S
C1690 C1691 1.385 . S
C1690 C1692 1.478 . S
C1691 H1685 0.930 . S
C1691 C1687 1.400 . S
C1691 C1690 1.385 . S
C1692 C1690 1.478 . S
C1692 C1694 1.381 . S
C1692 C1698 1.383 . S
C1693 C1689 1.495 . S
C1693 H1699 0.959 . S
C1693 H1700 0.961 . S
C1693 H1701 0.960 . S
C1694 C1692 1.381 . S
C1694 C1695 1.394 . S
C1694 H1702 0.930 . S
C1695 C1694 1.394 . S
C1695 C1696 1.383 . S
C1695 H1703 0.929 . S
C1696 C1695 1.383 . S
C1696 C1697 1.377 . S
C1697 H1681 0.930 . S
C1697 C1696 1.377 . S
C1697 C1698 1.379 . S
C1698 H1682 0.931 . S
C1698 C1692 1.383 . S
C1698 C1697 1.379 . S
H1699 C1693 0.959 . S
H1700 C1693 0.961 . S
H1701 C1693 0.960 . S
H1702 C1694 0.930 . S
H1703 C1695 0.929 . S
H1704 C1712 0.929 . S
H1705 C1714 0.930 . S
H1706 C1716 0.930 . S
H1707 C1719 0.929 . S
H1708 C1722 0.930 . S
H1709 C1724 0.960 . S
H1710 C1724 0.960 . S
H1711 C1724 0.960 . S
C1712 H1704 0.929 . S
C1712 C1713 1.377 . S
C1712 C1714 1.384 . S
C1713 C1712 1.377 . S
C1713 C1719 1.390 . S
C1714 H1705 0.930 . S
C1714 C1712 1.384 . S
C1714 C1715 1.372 . S
C1715 C1714 1.372 . S
C1715 C1716 1.400 . S
C1715 C1720 1.490 . S
C1716 H1706 0.930 . S
C1716 C1715 1.400 . S
C1716 C1719 1.386 . S
H1717 C1733 0.930 . S
H1718 C1734 0.931 . S
C1719 H1707 0.929 . S
C1719 C1713 1.390 . S
C1719 C1716 1.386 . S
C1720 C1715 1.490 . S
C1720 C1722 1.395 . S
C1720 C1723 1.403 . S
H1721 C1727 0.930 . S
C1722 H1708 0.930 . S
C1722 C1720 1.395 . S
C1722 C1725 1.403 . S
C1723 C1720 1.403 . S
C1723 C1724 1.524 . S
C1723 C1727 1.400 . S
C1724 H1709 0.960 . S
C1724 H1710 0.960 . S
C1724 H1711 0.960 . S
C1724 C1723 1.524 . S
C1725 C1722 1.403 . S
C1725 C1726 1.392 . S
C1725 C1729 1.495 . S
C1726 C1725 1.392 . S
C1726 C1727 1.385 . S
C1726 C1728 1.478 . S
C1727 H1721 0.930 . S
C1727 C1723 1.400 . S
C1727 C1726 1.385 . S
C1728 C1726 1.478 . S
C1728 C1730 1.381 . S
C1728 C1734 1.383 . S
C1729 C1725 1.495 . S
C1729 H1735 0.959 . S
C1729 H1736 0.961 . S
C1729 H1737 0.960 . S
C1730 C1728 1.381 . S
C1730 C1731 1.394 . S
C1730 H1738 0.930 . S
C1731 C1730 1.394 . S
C1731 C1732 1.383 . S
C1731 H1739 0.929 . S
C1732 C1731 1.383 . S
C1732 C1733 1.377 . S
C1733 H1717 0.930 . S
C1733 C1732 1.377 . S
C1733 C1734 1.379 . S
C1734 H1718 0.931 . S
C1734 C1728 1.383 . S
C1734 C1733 1.379 . S
H1735 C1729 0.959 . S
H1736 C1729 0.961 . S
H1737 C1729 0.960 . S
H1738 C1730 0.930 . S
H1739 C1731 0.929 . S
H1740 C1748 0.929 . S
H1741 C1750 0.930 . S
H1742 C1752 0.930 . S
H1743 C1755 0.929 1_545 S
H1744 C1758 0.930 . S
H1745 C1760 0.960 . S
H1746 C1760 0.960 . S
H1747 C1760 0.960 . S
C1748 H1740 0.929 . S
C1748 C1749 1.403 . S
C1748 C1750 1.384 . S
C1749 C1748 1.403 . S
C1749 C1755 1.392 . S
C1750 H1741 0.930 . S
C1750 C1748 1.384 . S
C1750 C1751 1.372 . S
C1751 C1750 1.372 . S
C1751 C1752 1.400 . S
C1751 C1756 1.490 . S
C1752 H1742 0.930 . S
C1752 C1751 1.400 . S
C1752 C1755 1.386 . S
H1753 C1769 0.930 . S
H1754 C1770 0.931 . S
C1755 H1743 0.929 1_565 S
C1755 C1749 1.392 . S
C1755 C1752 1.386 . S
C1756 C1751 1.490 . S
C1756 C1758 1.395 . S
C1756 C1759 1.403 . S
H1757 C1763 0.930 . S
C1758 H1744 0.930 . S
C1758 C1756 1.395 . S
C1758 C1761 1.403 . S
C1759 C1756 1.403 . S
C1759 C1760 1.524 . S
C1759 C1763 1.400 . S
C1760 H1745 0.960 . S
C1760 H1746 0.960 . S
C1760 H1747 0.960 . S
C1760 C1759 1.524 . S
C1761 C1758 1.403 . S
C1761 C1762 1.392 . S
C1761 C1765 1.495 . S
C1762 C1761 1.392 . S
C1762 C1763 1.385 . S
C1762 C1764 1.478 . S
C1763 H1757 0.930 . S
C1763 C1759 1.400 . S
C1763 C1762 1.385 . S
C1764 C1762 1.478 . S
C1764 C1766 1.381 . S
C1764 C1770 1.383 . S
C1765 C1761 1.495 . S
C1765 H1771 0.959 . S
C1765 H1772 0.961 . S
C1765 H1773 0.960 . S
C1766 C1764 1.381 . S
C1766 C1767 1.394 . S
C1766 H1774 0.930 . S
C1767 C1766 1.394 . S
C1767 C1768 1.383 . S
C1767 H1775 0.929 . S
C1768 C1767 1.383 . S
C1768 C1769 1.377 . S
C1769 H1753 0.930 . S
C1769 C1768 1.377 . S
C1769 C1770 1.379 . S
C1770 H1754 0.931 . S
C1770 C1764 1.383 . S
C1770 C1769 1.379 . S
H1771 C1765 0.959 . S
H1772 C1765 0.961 . S
H1773 C1765 0.960 . S
H1774 C1766 0.930 . S
H1775 C1767 0.929 . S
H1776 C1784 0.929 . S
H1777 C1786 0.930 . S
H1778 C1788 0.930 . S
H1779 C1791 0.929 . S
H1780 C1794 0.930 . S
H1781 C1796 0.960 . S
H1782 C1796 0.960 . S
H1783 C1796 0.960 . S
C1784 H1776 0.929 . S
C1784 C1785 1.377 . S
C1784 C1786 1.384 . S
C1785 C1784 1.377 . S
C1785 C1791 1.390 . S
C1786 H1777 0.930 . S
C1786 C1784 1.384 . S
C1786 C1787 1.372 . S
C1787 C1786 1.372 . S
C1787 C1788 1.400 . S
C1787 C1792 1.490 . S
C1788 H1778 0.930 . S
C1788 C1787 1.400 . S
C1788 C1791 1.386 . S
H1789 C1805 0.930 . S
H1790 C1806 0.931 . S
C1791 H1779 0.929 . S
C1791 C1785 1.390 . S
C1791 C1788 1.386 . S
C1792 C1787 1.490 . S
C1792 C1794 1.395 . S
C1792 C1795 1.403 . S
H1793 C1799 0.930 . S
C1794 H1780 0.930 . S
C1794 C1792 1.395 . S
C1794 C1797 1.403 . S
C1795 C1792 1.403 . S
C1795 C1796 1.524 . S
C1795 C1799 1.400 . S
C1796 H1781 0.960 . S
C1796 H1782 0.960 . S
C1796 H1783 0.960 . S
C1796 C1795 1.524 . S
C1797 C1794 1.403 . S
C1797 C1798 1.392 . S
C1797 C1801 1.495 . S
C1798 C1797 1.392 . S
C1798 C1799 1.385 . S
C1798 C1800 1.478 . S
C1799 H1793 0.930 . S
C1799 C1795 1.400 . S
C1799 C1798 1.385 . S
C1800 C1798 1.478 . S
C1800 C1802 1.381 . S
C1800 C1806 1.383 . S
C1801 C1797 1.495 . S
C1801 H1807 0.959 . S
C1801 H1808 0.961 . S
C1801 H1809 0.960 . S
C1802 C1800 1.381 . S
C1802 C1803 1.394 . S
C1802 H1810 0.930 . S
C1803 C1802 1.394 . S
C1803 C1804 1.383 . S
C1803 H1811 0.929 . S
C1804 C1803 1.383 . S
C1804 C1805 1.377 . S
C1805 H1789 0.930 . S
C1805 C1804 1.377 . S
C1805 C1806 1.379 . S
C1806 H1790 0.931 . S
C1806 C1800 1.383 . S
C1806 C1805 1.379 . S
H1807 C1801 0.959 . S
H1808 C1801 0.961 . S
H1809 C1801 0.960 . S
H1810 C1802 0.930 . S
H1811 C1803 0.929 . S
H1812 C1820 0.929 . S
H1813 C1822 0.930 . S
H1814 C1824 0.930 . S
H1815 C1827 0.929 . S
H1816 C1830 0.930 . S
H1817 C1832 0.960 . S
H1818 C1832 0.960 . S
H1819 C1832 0.960 . S
C1820 H1812 0.929 . S
C1820 C1821 1.377 . S
C1820 C1822 1.384 . S
C1821 C1820 1.377 . S
C1821 C1827 1.390 . S
C1822 H1813 0.930 . S
C1822 C1820 1.384 . S
C1822 C1823 1.372 . S
C1823 C1822 1.372 . S
C1823 C1824 1.400 . S
C1823 C1828 1.490 . S
C1824 H1814 0.930 . S
C1824 C1823 1.400 . S
C1824 C1827 1.386 . S
H1825 C1841 0.930 . S
H1826 C1842 0.931 . S
C1827 H1815 0.929 . S
C1827 C1821 1.390 . S
C1827 C1824 1.386 . S
C1828 C1823 1.490 . S
C1828 C1830 1.395 . S
C1828 C1831 1.403 . S
H1829 C1835 0.930 . S
C1830 H1816 0.930 . S
C1830 C1828 1.395 . S
C1830 C1833 1.403 . S
C1831 C1828 1.403 . S
C1831 C1832 1.524 . S
C1831 C1835 1.400 . S
C1832 H1817 0.960 . S
C1832 H1818 0.960 . S
C1832 H1819 0.960 . S
C1832 C1831 1.524 . S
C1833 C1830 1.403 . S
C1833 C1834 1.392 . S
C1833 C1837 1.495 . S
C1834 C1833 1.392 . S
C1834 C1835 1.385 . S
C1834 C1836 1.478 . S
C1835 H1829 0.930 . S
C1835 C1831 1.400 . S
C1835 C1834 1.385 . S
C1836 C1834 1.478 . S
C1836 C1838 1.381 . S
C1836 C1842 1.383 . S
C1837 C1833 1.495 . S
C1837 H1843 0.959 . S
C1837 H1844 0.961 . S
C1837 H1845 0.960 . S
C1838 C1836 1.381 . S
C1838 C1839 1.394 . S
C1838 H1846 0.930 . S
C1839 C1838 1.394 . S
C1839 C1840 1.383 . S
C1839 H1847 0.929 . S
C1840 C1839 1.383 . S
C1840 C1841 1.377 . S
C1841 H1825 0.930 . S
C1841 C1840 1.377 . S
C1841 C1842 1.379 . S
C1842 H1826 0.931 . S
C1842 C1836 1.383 . S
C1842 C1841 1.379 . S
H1843 C1837 0.959 . S
H1844 C1837 0.961 . S
H1845 C1837 0.960 . S
H1846 C1838 0.930 . S
H1847 C1839 0.929 . S
H1848 C1856 0.929 . S
H1849 C1858 0.930 . S
H1850 C1860 0.930 . S
H1851 C1863 0.929 . S
H1852 C1866 0.930 . S
H1853 C1868 0.960 . S
H1854 C1868 0.960 . S
H1855 C1868 0.960 . S
C1856 H1848 0.929 . S
C1856 C1857 1.377 . S
C1856 C1858 1.384 . S
C1857 C1856 1.377 . S
C1857 C1863 1.390 . S
C1858 H1849 0.930 . S
C1858 C1856 1.384 . S
C1858 C1859 1.372 . S
C1859 C1858 1.372 . S
C1859 C1860 1.400 . S
C1859 C1864 1.490 . S
C1860 H1850 0.930 . S
C1860 C1859 1.400 . S
C1860 C1863 1.386 . S
H1861 C1877 0.930 . S
H1862 C1878 0.931 . S
C1863 H1851 0.929 . S
C1863 C1857 1.390 . S
C1863 C1860 1.386 . S
C1864 C1859 1.490 . S
C1864 C1866 1.395 . S
C1864 C1867 1.403 . S
H1865 C1871 0.930 . S
C1866 H1852 0.930 . S
C1866 C1864 1.395 . S
C1866 C1869 1.403 . S
C1867 C1864 1.403 . S
C1867 C1868 1.524 . S
C1867 C1871 1.400 . S
C1868 H1853 0.960 . S
C1868 H1854 0.960 . S
C1868 H1855 0.960 . S
C1868 C1867 1.524 . S
C1869 C1866 1.403 . S
C1869 C1870 1.392 . S
C1869 C1873 1.495 . S
C1870 C1869 1.392 . S
C1870 C1871 1.385 . S
C1870 C1872 1.478 . S
C1871 H1865 0.930 . S
C1871 C1867 1.400 . S
C1871 C1870 1.385 . S
C1872 C1870 1.478 . S
C1872 C1874 1.381 . S
C1872 C1878 1.383 . S
C1873 C1869 1.495 . S
C1873 H1879 0.959 . S
C1873 H1880 0.961 . S
C1873 H1881 0.960 . S
C1874 C1872 1.381 . S
C1874 C1875 1.394 . S
C1874 H1882 0.930 . S
C1875 C1874 1.394 . S
C1875 C1876 1.383 . S
C1875 H1883 0.929 . S
C1876 C1875 1.383 . S
C1876 C1877 1.377 . S
C1877 H1861 0.930 . S
C1877 C1876 1.377 . S
C1877 C1878 1.379 . S
C1878 H1862 0.931 . S
C1878 C1872 1.383 . S
C1878 C1877 1.379 . S
H1879 C1873 0.959 . S
H1880 C1873 0.961 . S
H1881 C1873 0.960 . S
H1882 C1874 0.930 . S
H1883 C1875 0.929 . S
H1884 C1892 0.929 . S
H1885 C1894 0.930 . S
H1886 C1896 0.930 . S
H1887 C1899 0.929 . S
H1888 C1902 0.930 . S
H1889 C1904 0.960 . S
H1890 C1904 0.960 . S
H1891 C1904 0.960 . S
C1892 H1884 0.929 . S
C1892 C1893 1.377 . S
C1892 C1894 1.384 . S
C1893 C1892 1.377 . S
C1893 C1899 1.390 . S
C1894 H1885 0.930 . S
C1894 C1892 1.384 . S
C1894 C1895 1.372 . S
C1895 C1894 1.372 . S
C1895 C1896 1.400 . S
C1895 C1900 1.490 . S
C1896 H1886 0.930 . S
C1896 C1895 1.400 . S
C1896 C1899 1.386 . S
H1897 C1913 0.930 . S
H1898 C1914 0.931 . S
C1899 H1887 0.929 . S
C1899 C1893 1.390 . S
C1899 C1896 1.386 . S
C1900 C1895 1.490 . S
C1900 C1902 1.395 . S
C1900 C1903 1.403 . S
H1901 C1907 0.930 . S
C1902 H1888 0.930 . S
C1902 C1900 1.395 . S
C1902 C1905 1.403 . S
C1903 C1900 1.403 . S
C1903 C1904 1.524 . S
C1903 C1907 1.400 . S
C1904 H1889 0.960 . S
C1904 H1890 0.960 . S
C1904 H1891 0.960 . S
C1904 C1903 1.524 . S
C1905 C1902 1.403 . S
C1905 C1906 1.392 . S
C1905 C1909 1.495 . S
C1906 C1905 1.392 . S
C1906 C1907 1.385 . S
C1906 C1908 1.478 . S
C1907 H1901 0.930 . S
C1907 C1903 1.400 . S
C1907 C1906 1.385 . S
C1908 C1906 1.478 . S
C1908 C1910 1.381 . S
C1908 C1914 1.383 . S
C1909 C1905 1.495 . S
C1909 H1915 0.959 . S
C1909 H1916 0.961 . S
C1909 H1917 0.960 . S
C1910 C1908 1.381 . S
C1910 C1911 1.394 . S
C1910 H1918 0.930 . S
C1911 C1910 1.394 . S
C1911 C1912 1.383 . S
C1911 H1919 0.929 . S
C1912 C1911 1.383 . S
C1912 C1913 1.377 . S
C1913 H1897 0.930 . S
C1913 C1912 1.377 . S
C1913 C1914 1.379 . S
C1914 H1898 0.931 . S
C1914 C1908 1.383 . S
C1914 C1913 1.379 . S
H1915 C1909 0.959 . S
H1916 C1909 0.961 . S
H1917 C1909 0.960 . S
H1918 C1910 0.930 . S
H1919 C1911 0.929 . S
H1920 C1928 0.929 . S
H1921 C1930 0.930 . S
H1922 C1932 0.930 . S
H1923 C1935 0.929 . S
H1924 C1938 0.930 . S
H1925 C1940 0.960 . S
H1926 C1940 0.960 . S
H1927 C1940 0.960 . S
C1928 H1920 0.929 . S
C1928 C1929 1.377 . S
C1928 C1930 1.384 . S
C1929 C1928 1.377 . S
C1929 C1935 1.390 . S
C1930 H1921 0.930 . S
C1930 C1928 1.384 . S
C1930 C1931 1.372 . S
C1931 C1930 1.372 . S
C1931 C1932 1.400 . S
C1931 C1936 1.490 . S
C1932 H1922 0.930 . S
C1932 C1931 1.400 . S
C1932 C1935 1.386 . S
H1933 C1949 0.930 . S
H1934 C1950 0.931 . S
C1935 H1923 0.929 . S
C1935 C1929 1.390 . S
C1935 C1932 1.386 . S
C1936 C1931 1.490 . S
C1936 C1938 1.395 . S
C1936 C1939 1.403 . S
H1937 C1943 0.930 . S
C1938 H1924 0.930 . S
C1938 C1936 1.395 . S
C1938 C1941 1.403 . S
C1939 C1936 1.403 . S
C1939 C1940 1.524 . S
C1939 C1943 1.400 . S
C1940 H1925 0.960 . S
C1940 H1926 0.960 . S
C1940 H1927 0.960 . S
C1940 C1939 1.524 . S
C1941 C1938 1.403 . S
C1941 C1942 1.392 . S
C1941 C1945 1.495 . S
C1942 C1941 1.392 . S
C1942 C1943 1.385 . S
C1942 C1944 1.478 . S
C1943 H1937 0.930 . S
C1943 C1939 1.400 . S
C1943 C1942 1.385 . S
C1944 C1942 1.478 . S
C1944 C1946 1.381 . S
C1944 C1950 1.383 . S
C1945 C1941 1.495 . S
C1945 H1951 0.959 . S
C1945 H1952 0.961 . S
C1945 H1953 0.960 . S
C1946 C1944 1.381 . S
C1946 C1947 1.394 . S
C1946 H1954 0.930 . S
C1947 C1946 1.394 . S
C1947 C1948 1.383 . S
C1947 H1955 0.929 . S
C1948 C1947 1.383 . S
C1948 C1949 1.377 . S
C1949 H1933 0.930 . S
C1949 C1948 1.377 . S
C1949 C1950 1.379 . S
C1950 H1934 0.931 . S
C1950 C1944 1.383 . S
C1950 C1949 1.379 . S
H1951 C1945 0.959 . S
H1952 C1945 0.961 . S
H1953 C1945 0.960 . S
H1954 C1946 0.930 . S
H1955 C1947 0.929 . S
H1956 C1964 0.929 . S
H1957 C1966 0.930 . S
H1958 C1968 0.930 . S
H1959 C1971 0.929 . S
H1960 C1974 0.930 . S
H1961 C1976 0.960 . S
H1962 C1976 0.960 . S
H1963 C1976 0.960 . S
C1964 H1956 0.929 . S
C1964 C1965 1.377 . S
C1964 C1966 1.384 . S
C1965 C1964 1.377 . S
C1965 C1971 1.390 . S
C1966 H1957 0.930 . S
C1966 C1964 1.384 . S
C1966 C1967 1.372 . S
C1967 C1966 1.372 . S
C1967 C1968 1.400 . S
C1967 C1972 1.490 . S
C1968 H1958 0.930 . S
C1968 C1967 1.400 . S
C1968 C1971 1.386 . S
H1969 C1985 0.930 . S
H1970 C1986 0.931 . S
C1971 H1959 0.929 . S
C1971 C1965 1.390 . S
C1971 C1968 1.386 . S
C1972 C1967 1.490 . S
C1972 C1974 1.395 . S
C1972 C1975 1.403 . S
H1973 C1979 0.930 . S
C1974 H1960 0.930 . S
C1974 C1972 1.395 . S
C1974 C1977 1.403 . S
C1975 C1972 1.403 . S
C1975 C1976 1.524 . S
C1975 C1979 1.400 . S
C1976 H1961 0.960 . S
C1976 H1962 0.960 . S
C1976 H1963 0.960 . S
C1976 C1975 1.524 . S
C1977 C1974 1.403 . S
C1977 C1978 1.392 . S
C1977 C1981 1.495 . S
C1978 C1977 1.392 . S
C1978 C1979 1.385 . S
C1978 C1980 1.478 . S
C1979 H1973 0.930 . S
C1979 C1975 1.400 . S
C1979 C1978 1.385 . S
C1980 C1978 1.478 . S
C1980 C1982 1.381 . S
C1980 C1986 1.383 . S
C1981 C1977 1.495 . S
C1981 H1987 0.959 . S
C1981 H1988 0.961 . S
C1981 H1989 0.960 . S
C1982 C1980 1.381 . S
C1982 C1983 1.394 . S
C1982 H1990 0.930 . S
C1983 C1982 1.394 . S
C1983 C1984 1.383 . S
C1983 H1991 0.929 . S
C1984 C1983 1.383 . S
C1984 C1985 1.377 . S
C1985 H1969 0.930 . S
C1985 C1984 1.377 . S
C1985 C1986 1.379 . S
C1986 H1970 0.931 . S
C1986 C1980 1.383 . S
C1986 C1985 1.379 . S
H1987 C1981 0.959 . S
H1988 C1981 0.961 . S
H1989 C1981 0.960 . S
H1990 C1982 0.930 . S
H1991 C1983 0.929 . S
H1992 C2000 0.929 . S
H1993 C2002 0.930 . S
H1994 C2004 0.930 . S
H1995 C2007 0.929 . S
H1996 C2010 0.930 . S
H1997 C2012 0.960 . S
H1998 C2012 0.960 . S
H1999 C2012 0.960 . S
C2000 H1992 0.929 . S
C2000 C2001 1.377 . S
C2000 C2002 1.384 . S
C2001 C2000 1.377 . S
C2001 C2007 1.390 . S
C2002 H1993 0.930 . S
C2002 C2000 1.384 . S
C2002 C2003 1.372 . S
C2003 C2002 1.372 . S
C2003 C2004 1.400 . S
C2003 C2008 1.490 . S
C2004 H1994 0.930 . S
C2004 C2003 1.400 . S
C2004 C2007 1.386 . S
H2005 C2021 0.930 . S
H2006 C2022 0.931 . S
C2007 H1995 0.929 . S
C2007 C2001 1.390 . S
C2007 C2004 1.386 . S
C2008 C2003 1.490 . S
C2008 C2010 1.395 . S
C2008 C2011 1.403 . S
H2009 C2015 0.930 . S
C2010 H1996 0.930 . S
C2010 C2008 1.395 . S
C2010 C2013 1.403 . S
C2011 C2008 1.403 . S
C2011 C2012 1.524 . S
C2011 C2015 1.400 . S
C2012 H1997 0.960 . S
C2012 H1998 0.960 . S
C2012 H1999 0.960 . S
C2012 C2011 1.524 . S
C2013 C2010 1.403 . S
C2013 C2014 1.392 . S
C2013 C2017 1.495 . S
C2014 C2013 1.392 . S
C2014 C2015 1.385 . S
C2014 C2016 1.478 . S
C2015 H2009 0.930 . S
C2015 C2011 1.400 . S
C2015 C2014 1.385 . S
C2016 C2014 1.478 . S
C2016 C2018 1.381 . S
C2016 C2022 1.383 . S
C2017 C2013 1.495 . S
C2017 H2023 0.959 . S
C2017 H2024 0.961 . S
C2017 H2025 0.960 . S
C2018 C2016 1.381 . S
C2018 C2019 1.394 . S
C2018 H2026 0.930 . S
C2019 C2018 1.394 . S
C2019 C2020 1.383 . S
C2019 H2027 0.929 . S
C2020 C2019 1.383 . S
C2020 C2021 1.377 . S
C2021 H2005 0.930 . S
C2021 C2020 1.377 . S
C2021 C2022 1.379 . S
C2022 H2006 0.931 . S
C2022 C2016 1.383 . S
C2022 C2021 1.379 . S
H2023 C2017 0.959 . S
H2024 C2017 0.961 . S
H2025 C2017 0.960 . S
H2026 C2018 0.930 . S
H2027 C2019 0.929 . S
H2028 C2036 0.929 . S
H2029 C2038 0.930 . S
H2030 C2040 0.930 . S
H2031 C2043 0.929 . S
H2032 C2046 0.930 . S
H2033 C2048 0.960 . S
H2034 C2048 0.960 . S
H2035 C2048 0.960 . S
C2036 H2028 0.929 . S
C2036 C2037 1.377 . S
C2036 C2038 1.384 . S
C2037 C2036 1.377 . S
C2037 C2043 1.390 . S
C2038 H2029 0.930 . S
C2038 C2036 1.384 . S
C2038 C2039 1.372 . S
C2039 C2038 1.372 . S
C2039 C2040 1.400 . S
C2039 C2044 1.490 . S
C2040 H2030 0.930 . S
C2040 C2039 1.400 . S
C2040 C2043 1.386 . S
H2041 C2057 0.930 . S
H2042 C2058 0.931 . S
C2043 H2031 0.929 . S
C2043 C2037 1.390 . S
C2043 C2040 1.386 . S
C2044 C2039 1.490 . S
C2044 C2046 1.395 . S
C2044 C2047 1.403 . S
H2045 C2051 0.930 . S
C2046 H2032 0.930 . S
C2046 C2044 1.395 . S
C2046 C2049 1.403 . S
C2047 C2044 1.403 . S
C2047 C2048 1.524 . S
C2047 C2051 1.400 . S
C2048 H2033 0.960 . S
C2048 H2034 0.960 . S
C2048 H2035 0.960 . S
C2048 C2047 1.524 . S
C2049 C2046 1.403 . S
C2049 C2050 1.392 . S
C2049 C2053 1.495 . S
C2050 C2049 1.392 . S
C2050 C2051 1.385 . S
C2050 C2052 1.478 . S
C2051 H2045 0.930 . S
C2051 C2047 1.400 . S
C2051 C2050 1.385 . S
C2052 C2050 1.478 . S
C2052 C2054 1.381 . S
C2052 C2058 1.383 . S
C2053 C2049 1.495 . S
C2053 H2059 0.959 . S
C2053 H2060 0.961 . S
C2053 H2061 0.960 . S
C2054 C2052 1.381 . S
C2054 C2055 1.394 . S
C2054 H2062 0.930 . S
C2055 C2054 1.394 . S
C2055 C2056 1.383 . S
C2055 H2063 0.929 . S
C2056 C2055 1.383 . S
C2056 C2057 1.377 . S
C2057 H2041 0.930 . S
C2057 C2056 1.377 . S
C2057 C2058 1.379 . S
C2058 H2042 0.931 . S
C2058 C2052 1.383 . S
C2058 C2057 1.379 . S
H2059 C2053 0.959 . S
H2060 C2053 0.961 . S
H2061 C2053 0.960 . S
H2062 C2054 0.930 . S
H2063 C2055 0.929 . S
H2064 C2072 0.929 . S
H2065 C2074 0.930 . S
H2066 C2076 0.930 . S
H2067 C2079 0.929 . S
H2068 C2082 0.930 . S
H2069 C2084 0.960 . S
H2070 C2084 0.960 . S
H2071 C2084 0.960 . S
C2072 H2064 0.929 . S
C2072 C2073 1.377 . S
C2072 C2074 1.384 . S
C2073 C2072 1.377 . S
C2073 C2079 1.390 . S
C2074 H2065 0.930 . S
C2074 C2072 1.384 . S
C2074 C2075 1.372 . S
C2075 C2074 1.372 . S
C2075 C2076 1.400 . S
C2075 C2080 1.490 . S
C2076 H2066 0.930 . S
C2076 C2075 1.400 . S
C2076 C2079 1.386 . S
H2077 C2093 0.930 . S
H2078 C2094 0.931 . S
C2079 H2067 0.929 . S
C2079 C2073 1.390 . S
C2079 C2076 1.386 . S
C2080 C2075 1.490 . S
C2080 C2082 1.395 . S
C2080 C2083 1.403 . S
H2081 C2087 0.930 . S
C2082 H2068 0.930 . S
C2082 C2080 1.395 . S
C2082 C2085 1.403 . S
C2083 C2080 1.403 . S
C2083 C2084 1.524 . S
C2083 C2087 1.400 . S
C2084 H2069 0.960 . S
C2084 H2070 0.960 . S
C2084 H2071 0.960 . S
C2084 C2083 1.524 . S
C2085 C2082 1.403 . S
C2085 C2086 1.392 . S
C2085 C2089 1.495 . S
C2086 C2085 1.392 . S
C2086 C2087 1.385 . S
C2086 C2088 1.478 . S
C2087 H2081 0.930 . S
C2087 C2083 1.400 . S
C2087 C2086 1.385 . S
C2088 C2086 1.478 . S
C2088 C2090 1.381 . S
C2088 C2094 1.383 . S
C2089 C2085 1.495 . S
C2089 H2095 0.959 . S
C2089 H2096 0.961 . S
C2089 H2097 0.960 . S
C2090 C2088 1.381 . S
C2090 C2091 1.394 . S
C2090 H2098 0.930 . S
C2091 C2090 1.394 . S
C2091 C2092 1.383 . S
C2091 H2099 0.929 . S
C2092 C2091 1.383 . S
C2092 C2093 1.377 . S
C2093 H2077 0.930 . S
C2093 C2092 1.377 . S
C2093 C2094 1.379 . S
C2094 H2078 0.931 . S
C2094 C2088 1.383 . S
C2094 C2093 1.379 . S
H2095 C2089 0.959 . S
H2096 C2089 0.961 . S
H2097 C2089 0.960 . S
H2098 C2090 0.930 . S
H2099 C2091 0.929 . S
H2100 C2108 0.929 . S
H2101 C2110 0.930 . S
H2102 C2112 0.930 . S
H2103 C2115 0.929 . S
H2104 C2118 0.930 . S
H2105 C2120 0.960 . S
H2106 C2120 0.960 . S
H2107 C2120 0.960 . S
C2108 H2100 0.929 . S
C2108 C2109 1.377 . S
C2108 C2110 1.384 . S
C2109 C2108 1.377 . S
C2109 C2115 1.390 . S
C2110 H2101 0.930 . S
C2110 C2108 1.384 . S
C2110 C2111 1.372 . S
C2111 C2110 1.372 . S
C2111 C2112 1.400 . S
C2111 C2116 1.490 . S
C2112 H2102 0.930 . S
C2112 C2111 1.400 . S
C2112 C2115 1.386 . S
H2113 C2129 0.930 . S
H2114 C2130 0.931 . S
C2115 H2103 0.929 . S
C2115 C2109 1.390 . S
C2115 C2112 1.386 . S
C2116 C2111 1.490 . S
C2116 C2118 1.395 . S
C2116 C2119 1.403 . S
H2117 C2123 0.930 . S
C2118 H2104 0.930 . S
C2118 C2116 1.395 . S
C2118 C2121 1.403 . S
C2119 C2116 1.403 . S
C2119 C2120 1.524 . S
C2119 C2123 1.400 . S
C2120 H2105 0.960 . S
C2120 H2106 0.960 . S
C2120 H2107 0.960 . S
C2120 C2119 1.524 . S
C2121 C2118 1.403 . S
C2121 C2122 1.392 . S
C2121 C2125 1.495 . S
C2122 C2121 1.392 . S
C2122 C2123 1.385 . S
C2122 C2124 1.478 . S
C2123 H2117 0.930 . S
C2123 C2119 1.400 . S
C2123 C2122 1.385 . S
C2124 C2122 1.478 . S
C2124 C2126 1.381 . S
C2124 C2130 1.383 . S
C2125 C2121 1.495 . S
C2125 H2131 0.959 . S
C2125 H2132 0.961 . S
C2125 H2133 0.960 . S
C2126 C2124 1.381 . S
C2126 C2127 1.394 . S
C2126 H2134 0.930 . S
C2127 C2126 1.394 . S
C2127 C2128 1.383 . S
C2127 H2135 0.929 . S
C2128 C2127 1.383 . S
C2128 C2129 1.377 . S
C2129 H2113 0.930 . S
C2129 C2128 1.377 . S
C2129 C2130 1.379 . S
C2130 H2114 0.931 . S
C2130 C2124 1.383 . S
C2130 C2129 1.379 . S
H2131 C2125 0.959 . S
H2132 C2125 0.961 . S
H2133 C2125 0.960 . S
H2134 C2126 0.930 . S
H2135 C2127 0.929 . S
H2136 C2144 0.929 . S
H2137 C2146 0.930 . S
H2138 C2148 0.930 . S
H2139 C2151 0.929 . S
H2140 C2154 0.930 . S
H2141 C2156 0.960 . S
H2142 C2156 0.960 . S
H2143 C2156 0.960 . S
C2144 H2136 0.929 . S
C2144 C2145 1.377 . S
C2144 C2146 1.384 . S
C2145 C2144 1.377 . S
C2145 C2151 1.390 . S
C2146 H2137 0.930 . S
C2146 C2144 1.384 . S
C2146 C2147 1.372 . S
C2147 C2146 1.372 . S
C2147 C2148 1.400 . S
C2147 C2152 1.490 . S
C2148 H2138 0.930 . S
C2148 C2147 1.400 . S
C2148 C2151 1.386 . S
H2149 C2165 0.930 . S
H2150 C2166 0.931 . S
C2151 H2139 0.929 . S
C2151 C2145 1.390 . S
C2151 C2148 1.386 . S
C2152 C2147 1.490 . S
C2152 C2154 1.395 . S
C2152 C2155 1.403 . S
H2153 C2159 0.930 . S
C2154 H2140 0.930 . S
C2154 C2152 1.395 . S
C2154 C2157 1.403 . S
C2155 C2152 1.403 . S
C2155 C2156 1.524 . S
C2155 C2159 1.400 . S
C2156 H2141 0.960 . S
C2156 H2142 0.960 . S
C2156 H2143 0.960 . S
C2156 C2155 1.524 . S
C2157 C2154 1.403 . S
C2157 C2158 1.392 . S
C2157 C2161 1.495 . S
C2158 C2157 1.392 . S
C2158 C2159 1.385 . S
C2158 C2160 1.478 . S
C2159 H2153 0.930 . S
C2159 C2155 1.400 . S
C2159 C2158 1.385 . S
C2160 C2158 1.478 . S
C2160 C2162 1.381 . S
C2160 C2166 1.383 . S
C2161 C2157 1.495 . S
C2161 H2167 0.959 . S
C2161 H2168 0.961 . S
C2161 H2169 0.960 . S
C2162 C2160 1.381 . S
C2162 C2163 1.394 . S
C2162 H2170 0.930 . S
C2163 C2162 1.394 . S
C2163 C2164 1.383 . S
C2163 H2171 0.929 . S
C2164 C2163 1.383 . S
C2164 C2165 1.377 . S
C2165 H2149 0.930 . S
C2165 C2164 1.377 . S
C2165 C2166 1.379 . S
C2166 H2150 0.931 . S
C2166 C2160 1.383 . S
C2166 C2165 1.379 . S
H2167 C2161 0.959 . S
H2168 C2161 0.961 . S
H2169 C2161 0.960 . S
H2170 C2162 0.930 . S
H2171 C2163 0.929 . S
H2172 C2180 0.929 . S
H2173 C2182 0.930 . S
H2174 C2184 0.930 . S
H2175 C2187 0.929 . S
H2176 C2190 0.930 . S
H2177 C2192 0.960 . S
H2178 C2192 0.960 . S
H2179 C2192 0.960 . S
C2180 H2172 0.929 . S
C2180 C2181 1.377 . S
C2180 C2182 1.384 . S
C2181 C2180 1.377 . S
C2181 C2187 1.390 . S
C2182 H2173 0.930 . S
C2182 C2180 1.384 . S
C2182 C2183 1.372 . S
C2183 C2182 1.372 . S
C2183 C2184 1.400 . S
C2183 C2188 1.490 . S
C2184 H2174 0.930 . S
C2184 C2183 1.400 . S
C2184 C2187 1.386 . S
H2185 C2201 0.930 . S
H2186 C2202 0.931 . S
C2187 H2175 0.929 . S
C2187 C2181 1.390 . S
C2187 C2184 1.386 . S
C2188 C2183 1.490 . S
C2188 C2190 1.395 . S
C2188 C2191 1.403 . S
H2189 C2195 0.930 . S
C2190 H2176 0.930 . S
C2190 C2188 1.395 . S
C2190 C2193 1.403 . S
C2191 C2188 1.403 . S
C2191 C2192 1.524 . S
C2191 C2195 1.400 . S
C2192 H2177 0.960 . S
C2192 H2178 0.960 . S
C2192 H2179 0.960 . S
C2192 C2191 1.524 . S
C2193 C2190 1.403 . S
C2193 C2194 1.392 . S
C2193 C2197 1.495 . S
C2194 C2193 1.392 . S
C2194 C2195 1.385 . S
C2194 C2196 1.478 . S
C2195 H2189 0.930 . S
C2195 C2191 1.400 . S
C2195 C2194 1.385 . S
C2196 C2194 1.478 . S
C2196 C2198 1.381 . S
C2196 C2202 1.383 . S
C2197 C2193 1.495 . S
C2197 H2203 0.959 . S
C2197 H2204 0.961 . S
C2197 H2205 0.960 . S
C2198 C2196 1.381 . S
C2198 C2199 1.394 . S
C2198 H2206 0.930 . S
C2199 C2198 1.394 . S
C2199 C2200 1.383 . S
C2199 H2207 0.929 . S
C2200 C2199 1.383 . S
C2200 C2201 1.377 . S
C2201 H2185 0.930 . S
C2201 C2200 1.377 . S
C2201 C2202 1.379 . S
C2202 H2186 0.931 . S
C2202 C2196 1.383 . S
C2202 C2201 1.379 . S
H2203 C2197 0.959 . S
H2204 C2197 0.961 . S
H2205 C2197 0.960 . S
H2206 C2198 0.930 . S
H2207 C2199 0.929 . S
H2208 C2216 0.929 . S
H2209 C2218 0.930 . S
H2210 C2220 0.930 . S
H2211 C2223 0.929 . S
H2212 C2226 0.930 . S
H2213 C2228 0.960 . S
H2214 C2228 0.960 . S
H2215 C2228 0.960 . S
C2216 H2208 0.929 . S
C2216 C2217 1.377 . S
C2216 C2218 1.384 . S
C2217 C2216 1.377 . S
C2217 C2223 1.390 . S
C2218 H2209 0.930 . S
C2218 C2216 1.384 . S
C2218 C2219 1.372 . S
C2219 C2218 1.372 . S
C2219 C2220 1.400 . S
C2219 C2224 1.490 . S
C2220 H2210 0.930 . S
C2220 C2219 1.400 . S
C2220 C2223 1.386 . S
H2221 C2237 0.930 . S
H2222 C2238 0.931 . S
C2223 H2211 0.929 . S
C2223 C2217 1.390 . S
C2223 C2220 1.386 . S
C2224 C2219 1.490 . S
C2224 C2226 1.395 . S
C2224 C2227 1.403 . S
H2225 C2231 0.930 . S
C2226 H2212 0.930 . S
C2226 C2224 1.395 . S
C2226 C2229 1.403 . S
C2227 C2224 1.403 . S
C2227 C2228 1.524 . S
C2227 C2231 1.400 . S
C2228 H2213 0.960 . S
C2228 H2214 0.960 . S
C2228 H2215 0.960 . S
C2228 C2227 1.524 . S
C2229 C2226 1.403 . S
C2229 C2230 1.392 . S
C2229 C2233 1.495 . S
C2230 C2229 1.392 . S
C2230 C2231 1.385 . S
C2230 C2232 1.478 . S
C2231 H2225 0.930 . S
C2231 C2227 1.400 . S
C2231 C2230 1.385 . S
C2232 C2230 1.478 . S
C2232 C2234 1.381 . S
C2232 C2238 1.383 . S
C2233 C2229 1.495 . S
C2233 H2239 0.959 . S
C2233 H2240 0.961 . S
C2233 H2241 0.960 . S
C2234 C2232 1.381 . S
C2234 C2235 1.394 . S
C2234 H2242 0.930 . S
C2235 C2234 1.394 . S
C2235 C2236 1.383 . S
C2235 H2243 0.929 . S
C2236 C2235 1.383 . S
C2236 C2237 1.377 . S
C2237 H2221 0.930 . S
C2237 C2236 1.377 . S
C2237 C2238 1.379 . S
C2238 H2222 0.931 . S
C2238 C2232 1.383 . S
C2238 C2237 1.379 . S
H2239 C2233 0.959 . S
H2240 C2233 0.961 . S
H2241 C2233 0.960 . S
H2242 C2234 0.930 . S
H2243 C2235 0.929 . S
H2244 C2252 0.929 . S
H2245 C2254 0.930 . S
H2246 C2256 0.930 . S
H2247 C2259 0.929 . S
H2248 C2262 0.930 . S
H2249 C2264 0.960 . S
H2250 C2264 0.960 . S
H2251 C2264 0.960 . S
C2252 H2244 0.929 . S
C2252 C2253 1.377 . S
C2252 C2254 1.384 . S
C2253 C2252 1.377 . S
C2253 C2259 1.390 . S
C2254 H2245 0.930 . S
C2254 C2252 1.384 . S
C2254 C2255 1.372 . S
C2255 C2254 1.372 . S
C2255 C2256 1.400 . S
C2255 C2260 1.490 . S
C2256 H2246 0.930 . S
C2256 C2255 1.400 . S
C2256 C2259 1.386 . S
H2257 C2273 0.930 . S
H2258 C2274 0.931 . S
C2259 H2247 0.929 . S
C2259 C2253 1.390 . S
C2259 C2256 1.386 . S
C2260 C2255 1.490 . S
C2260 C2262 1.395 . S
C2260 C2263 1.403 . S
H2261 C2267 0.930 . S
C2262 H2248 0.930 . S
C2262 C2260 1.395 . S
C2262 C2265 1.403 . S
C2263 C2260 1.403 . S
C2263 C2264 1.524 . S
C2263 C2267 1.400 . S
C2264 H2249 0.960 . S
C2264 H2250 0.960 . S
C2264 H2251 0.960 . S
C2264 C2263 1.524 . S
C2265 C2262 1.403 . S
C2265 C2266 1.392 . S
C2265 C2269 1.495 . S
C2266 C2265 1.392 . S
C2266 C2267 1.385 . S
C2266 C2268 1.478 . S
C2267 H2261 0.930 . S
C2267 C2263 1.400 . S
C2267 C2266 1.385 . S
C2268 C2266 1.478 . S
C2268 C2270 1.381 . S
C2268 C2274 1.383 . S
C2269 C2265 1.495 . S
C2269 H2275 0.959 . S
C2269 H2276 0.961 . S
C2269 H2277 0.960 . S
C2270 C2268 1.381 . S
C2270 C2271 1.394 . S
C2270 H2278 0.930 . S
C2271 C2270 1.394 . S
C2271 C2272 1.383 . S
C2271 H2279 0.929 . S
C2272 C2271 1.383 . S
C2272 C2273 1.377 . S
C2273 H2257 0.930 . S
C2273 C2272 1.377 . S
C2273 C2274 1.379 . S
C2274 H2258 0.931 . S
C2274 C2268 1.383 . S
C2274 C2273 1.379 . S
H2275 C2269 0.959 . S
H2276 C2269 0.961 . S
H2277 C2269 0.960 . S
H2278 C2270 0.930 . S
H2279 C2271 0.929 . S
H2280 C2288 0.929 . S
H2281 C2290 0.930 . S
H2282 C2292 0.930 . S
H2283 C2295 0.929 . S
H2284 C2298 0.930 . S
H2285 C2300 0.960 . S
H2286 C2300 0.960 . S
H2287 C2300 0.960 . S
C2288 H2280 0.929 . S
C2288 C2289 1.377 . S
C2288 C2290 1.384 . S
C2289 C2288 1.377 . S
C2289 C2295 1.390 . S
C2290 H2281 0.930 . S
C2290 C2288 1.384 . S
C2290 C2291 1.372 . S
C2291 C2290 1.372 . S
C2291 C2292 1.400 . S
C2291 C2296 1.490 . S
C2292 H2282 0.930 . S
C2292 C2291 1.400 . S
C2292 C2295 1.386 . S
H2293 C2309 0.930 . S
H2294 C2310 0.931 . S
C2295 H2283 0.929 . S
C2295 C2289 1.390 . S
C2295 C2292 1.386 . S
C2296 C2291 1.490 . S
C2296 C2298 1.395 . S
C2296 C2299 1.403 . S
H2297 C2303 0.930 . S
C2298 H2284 0.930 . S
C2298 C2296 1.395 . S
C2298 C2301 1.403 . S
C2299 C2296 1.403 . S
C2299 C2300 1.524 . S
C2299 C2303 1.400 . S
C2300 H2285 0.960 . S
C2300 H2286 0.960 . S
C2300 H2287 0.960 . S
C2300 C2299 1.524 . S
C2301 C2298 1.403 . S
C2301 C2302 1.392 . S
C2301 C2305 1.495 . S
C2302 C2301 1.392 . S
C2302 C2303 1.385 . S
C2302 C2304 1.478 . S
C2303 H2297 0.930 . S
C2303 C2299 1.400 . S
C2303 C2302 1.385 . S
C2304 C2302 1.478 . S
C2304 C2306 1.381 . S
C2304 C2310 1.383 . S
C2305 C2301 1.495 . S
C2305 H2311 0.959 . S
C2305 H2312 0.961 . S
C2305 H2313 0.960 . S
C2306 C2304 1.381 . S
C2306 C2307 1.394 . S
C2306 H2314 0.930 . S
C2307 C2306 1.394 . S
C2307 C2308 1.383 . S
C2307 H2315 0.929 . S
C2308 C2307 1.383 . S
C2308 C2309 1.377 . S
C2309 H2293 0.930 . S
C2309 C2308 1.377 . S
C2309 C2310 1.379 . S
C2310 H2294 0.931 . S
C2310 C2304 1.383 . S
C2310 C2309 1.379 . S
H2311 C2305 0.959 . S
H2312 C2305 0.961 . S
H2313 C2305 0.960 . S
H2314 C2306 0.930 . S
H2315 C2307 0.929 . S
H2316 C2324 0.929 . S
H2317 C2326 0.930 . S
H2318 C2328 0.930 . S
H2319 C2331 0.929 . S
H2320 C2334 0.930 . S
H2321 C2336 0.960 . S
H2322 C2336 0.960 . S
H2323 C2336 0.960 . S
C2324 H2316 0.929 . S
C2324 C2325 1.377 . S
C2324 C2326 1.384 . S
C2325 C2324 1.377 . S
C2325 C2331 1.390 . S
C2326 H2317 0.930 . S
C2326 C2324 1.384 . S
C2326 C2327 1.372 . S
C2327 C2326 1.372 . S
C2327 C2328 1.400 . S
C2327 C2332 1.490 . S
C2328 H2318 0.930 . S
C2328 C2327 1.400 . S
C2328 C2331 1.386 . S
H2329 C2345 0.930 . S
H2330 C2346 0.931 . S
C2331 H2319 0.929 . S
C2331 C2325 1.390 . S
C2331 C2328 1.386 . S
C2332 C2327 1.490 . S
C2332 C2334 1.395 . S
C2332 C2335 1.403 . S
H2333 C2339 0.930 . S
C2334 H2320 0.930 . S
C2334 C2332 1.395 . S
C2334 C2337 1.403 . S
C2335 C2332 1.403 . S
C2335 C2336 1.524 . S
C2335 C2339 1.400 . S
C2336 H2321 0.960 . S
C2336 H2322 0.960 . S
C2336 H2323 0.960 . S
C2336 C2335 1.524 . S
C2337 C2334 1.403 . S
C2337 C2338 1.392 . S
C2337 C2341 1.495 . S
C2338 C2337 1.392 . S
C2338 C2339 1.385 . S
C2338 C2340 1.478 . S
C2339 H2333 0.930 . S
C2339 C2335 1.400 . S
C2339 C2338 1.385 . S
C2340 C2338 1.478 . S
C2340 C2342 1.381 . S
C2340 C2346 1.383 . S
C2341 C2337 1.495 . S
C2341 H2347 0.959 . S
C2341 H2348 0.961 . S
C2341 H2349 0.960 . S
C2342 C2340 1.381 . S
C2342 C2343 1.394 . S
C2342 H2350 0.930 . S
C2343 C2342 1.394 . S
C2343 C2344 1.383 . S
C2343 H2351 0.929 . S
C2344 C2343 1.383 . S
C2344 C2345 1.377 . S
C2345 H2329 0.930 . S
C2345 C2344 1.377 . S
C2345 C2346 1.379 . S
C2346 H2330 0.931 . S
C2346 C2340 1.383 . S
C2346 C2345 1.379 . S
H2347 C2341 0.959 . S
H2348 C2341 0.961 . S
H2349 C2341 0.960 . S
H2350 C2342 0.930 . S
H2351 C2343 0.929 . S
H2352 C2360 0.929 . S
H2353 C2362 0.930 . S
H2354 C2364 0.930 . S
H2355 C2367 0.929 . S
H2356 C2370 0.930 . S
H2357 C2372 0.960 . S
H2358 C2372 0.960 . S
H2359 C2372 0.960 . S
C2360 H2352 0.929 . S
C2360 C2361 1.377 . S
C2360 C2362 1.384 . S
C2361 C2360 1.377 . S
C2361 C2367 1.390 . S
C2362 H2353 0.930 . S
C2362 C2360 1.384 . S
C2362 C2363 1.372 . S
C2363 C2362 1.372 . S
C2363 C2364 1.400 . S
C2363 C2368 1.490 . S
C2364 H2354 0.930 . S
C2364 C2363 1.400 . S
C2364 C2367 1.386 . S
H2365 C2381 0.930 . S
H2366 C2382 0.931 . S
C2367 H2355 0.929 . S
C2367 C2361 1.390 . S
C2367 C2364 1.386 . S
C2368 C2363 1.490 . S
C2368 C2370 1.395 . S
C2368 C2371 1.403 . S
H2369 C2375 0.930 . S
C2370 H2356 0.930 . S
C2370 C2368 1.395 . S
C2370 C2373 1.403 . S
C2371 C2368 1.403 . S
C2371 C2372 1.524 . S
C2371 C2375 1.400 . S
C2372 H2357 0.960 . S
C2372 H2358 0.960 . S
C2372 H2359 0.960 . S
C2372 C2371 1.524 . S
C2373 C2370 1.403 . S
C2373 C2374 1.392 . S
C2373 C2377 1.495 . S
C2374 C2373 1.392 . S
C2374 C2375 1.385 . S
C2374 C2376 1.478 . S
C2375 H2369 0.930 . S
C2375 C2371 1.400 . S
C2375 C2374 1.385 . S
C2376 C2374 1.478 . S
C2376 C2378 1.381 . S
C2376 C2382 1.383 . S
C2377 C2373 1.495 . S
C2377 H2383 0.959 . S
C2377 H2384 0.961 . S
C2377 H2385 0.960 . S
C2378 C2376 1.381 . S
C2378 C2379 1.394 . S
C2378 H2386 0.930 . S
C2379 C2378 1.394 . S
C2379 C2380 1.383 . S
C2379 H2387 0.929 . S
C2380 C2379 1.383 . S
C2380 C2381 1.377 . S
C2381 H2365 0.930 . S
C2381 C2380 1.377 . S
C2381 C2382 1.379 . S
C2382 H2366 0.931 . S
C2382 C2376 1.383 . S
C2382 C2381 1.379 . S
H2383 C2377 0.959 . S
H2384 C2377 0.961 . S
H2385 C2377 0.960 . S
H2386 C2378 0.930 . S
H2387 C2379 0.929 . S
H2388 C2396 0.929 . S
H2389 C2398 0.930 . S
H2390 C2400 0.930 . S
H2391 C2403 0.929 . S
H2392 C2406 0.930 . S
H2393 C2408 0.960 . S
H2394 C2408 0.960 . S
H2395 C2408 0.960 . S
C2396 H2388 0.929 . S
C2396 C2397 1.377 . S
C2396 C2398 1.384 . S
C2397 C2396 1.377 . S
C2397 C2403 1.390 . S
C2398 H2389 0.930 . S
C2398 C2396 1.384 . S
C2398 C2399 1.372 . S
C2399 C2398 1.372 . S
C2399 C2400 1.400 . S
C2399 C2404 1.490 . S
C2400 H2390 0.930 . S
C2400 C2399 1.400 . S
C2400 C2403 1.386 . S
H2401 C2417 0.930 . S
H2402 C2418 0.931 . S
C2403 H2391 0.929 . S
C2403 C2397 1.390 . S
C2403 C2400 1.386 . S
C2404 C2399 1.490 . S
C2404 C2406 1.395 . S
C2404 C2407 1.403 . S
H2405 C2411 0.930 . S
C2406 H2392 0.930 . S
C2406 C2404 1.395 . S
C2406 C2409 1.403 . S
C2407 C2404 1.403 . S
C2407 C2408 1.524 . S
C2407 C2411 1.400 . S
C2408 H2393 0.960 . S
C2408 H2394 0.960 . S
C2408 H2395 0.960 . S
C2408 C2407 1.524 . S
C2409 C2406 1.403 . S
C2409 C2410 1.392 . S
C2409 C2413 1.495 . S
C2410 C2409 1.392 . S
C2410 C2411 1.385 . S
C2410 C2412 1.478 . S
C2411 H2405 0.930 . S
C2411 C2407 1.400 . S
C2411 C2410 1.385 . S
C2412 C2410 1.478 . S
C2412 C2414 1.381 . S
C2412 C2418 1.383 . S
C2413 C2409 1.495 . S
C2413 H2419 0.959 . S
C2413 H2420 0.961 . S
C2413 H2421 0.960 . S
C2414 C2412 1.381 . S
C2414 C2415 1.394 . S
C2414 H2422 0.930 . S
C2415 C2414 1.394 . S
C2415 C2416 1.383 . S
C2415 H2423 0.929 . S
C2416 C2415 1.383 . S
C2416 C2417 1.377 . S
C2417 H2401 0.930 . S
C2417 C2416 1.377 . S
C2417 C2418 1.379 . S
C2418 H2402 0.931 . S
C2418 C2412 1.383 . S
C2418 C2417 1.379 . S
H2419 C2413 0.959 . S
H2420 C2413 0.961 . S
H2421 C2413 0.960 . S
H2422 C2414 0.930 . S
H2423 C2415 0.929 . S
H2424 C2432 0.929 . S
H2425 C2434 0.930 . S
H2426 C2436 0.930 . S
H2427 C2439 0.929 . S
H2428 C2442 0.930 . S
H2429 C2444 0.960 . S
H2430 C2444 0.960 . S
H2431 C2444 0.960 . S
C2432 H2424 0.929 . S
C2432 C2433 1.377 . S
C2432 C2434 1.384 . S
C2433 C2432 1.377 . S
C2433 C2439 1.390 . S
C2434 H2425 0.930 . S
C2434 C2432 1.384 . S
C2434 C2435 1.372 . S
C2435 C2434 1.372 . S
C2435 C2436 1.400 . S
C2435 C2440 1.490 . S
C2436 H2426 0.930 . S
C2436 C2435 1.400 . S
C2436 C2439 1.386 . S
H2437 C2453 0.930 . S
H2438 C2454 0.931 . S
C2439 H2427 0.929 . S
C2439 C2433 1.390 . S
C2439 C2436 1.386 . S
C2440 C2435 1.490 . S
C2440 C2442 1.395 . S
C2440 C2443 1.403 . S
H2441 C2447 0.930 . S
C2442 H2428 0.930 . S
C2442 C2440 1.395 . S
C2442 C2445 1.403 . S
C2443 C2440 1.403 . S
C2443 C2444 1.524 . S
C2443 C2447 1.400 . S
C2444 H2429 0.960 . S
C2444 H2430 0.960 . S
C2444 H2431 0.960 . S
C2444 C2443 1.524 . S
C2445 C2442 1.403 . S
C2445 C2446 1.392 . S
C2445 C2449 1.495 . S
C2446 C2445 1.392 . S
C2446 C2447 1.385 . S
C2446 C2448 1.478 . S
C2447 H2441 0.930 . S
C2447 C2443 1.400 . S
C2447 C2446 1.385 . S
C2448 C2446 1.478 . S
C2448 C2450 1.381 . S
C2448 C2454 1.383 . S
C2449 C2445 1.495 . S
C2449 H2455 0.959 . S
C2449 H2456 0.961 . S
C2449 H2457 0.960 . S
C2450 C2448 1.381 . S
C2450 C2451 1.394 . S
C2450 H2458 0.930 . S
C2451 C2450 1.394 . S
C2451 C2452 1.383 . S
C2451 H2459 0.929 . S
C2452 C2451 1.383 . S
C2452 C2453 1.377 . S
C2453 H2437 0.930 . S
C2453 C2452 1.377 . S
C2453 C2454 1.379 . S
C2454 H2438 0.931 . S
C2454 C2448 1.383 . S
C2454 C2453 1.379 . S
H2455 C2449 0.959 . S
H2456 C2449 0.961 . S
H2457 C2449 0.960 . S
H2458 C2450 0.930 . S
H2459 C2451 0.929 . S
H2460 C2468 0.929 . S
H2461 C2470 0.930 . S
H2462 C2472 0.930 . S
H2463 C2475 0.929 . S
H2464 C2478 0.930 . S
H2465 C2480 0.960 . S
H2466 C2480 0.960 . S
H2467 C2480 0.960 . S
C2468 H2460 0.929 . S
C2468 C2469 1.377 . S
C2468 C2470 1.384 . S
C2469 C2468 1.377 . S
C2469 C2475 1.390 . S
C2470 H2461 0.930 . S
C2470 C2468 1.384 . S
C2470 C2471 1.372 . S
C2471 C2470 1.372 . S
C2471 C2472 1.400 . S
C2471 C2476 1.490 . S
C2472 H2462 0.930 . S
C2472 C2471 1.400 . S
C2472 C2475 1.386 . S
H2473 C2489 0.930 . S
H2474 C2490 0.931 . S
C2475 H2463 0.929 . S
C2475 C2469 1.390 . S
C2475 C2472 1.386 . S
C2476 C2471 1.490 . S
C2476 C2478 1.395 . S
C2476 C2479 1.403 . S
H2477 C2483 0.930 . S
C2478 H2464 0.930 . S
C2478 C2476 1.395 . S
C2478 C2481 1.403 . S
C2479 C2476 1.403 . S
C2479 C2480 1.524 . S
C2479 C2483 1.400 . S
C2480 H2465 0.960 . S
C2480 H2466 0.960 . S
C2480 H2467 0.960 . S
C2480 C2479 1.524 . S
C2481 C2478 1.403 . S
C2481 C2482 1.392 . S
C2481 C2485 1.495 . S
C2482 C2481 1.392 . S
C2482 C2483 1.385 . S
C2482 C2484 1.478 . S
C2483 H2477 0.930 . S
C2483 C2479 1.400 . S
C2483 C2482 1.385 . S
C2484 C2482 1.478 . S
C2484 C2486 1.381 . S
C2484 C2490 1.383 . S
C2485 C2481 1.495 . S
C2485 H2491 0.959 . S
C2485 H2492 0.961 . S
C2485 H2493 0.960 . S
C2486 C2484 1.381 . S
C2486 C2487 1.394 . S
C2486 H2494 0.930 . S
C2487 C2486 1.394 . S
C2487 C2488 1.383 . S
C2487 H2495 0.929 . S
C2488 C2487 1.383 . S
C2488 C2489 1.377 . S
C2489 H2473 0.930 . S
C2489 C2488 1.377 . S
C2489 C2490 1.379 . S
C2490 H2474 0.931 . S
C2490 C2484 1.383 . S
C2490 C2489 1.379 . S
H2491 C2485 0.959 . S
H2492 C2485 0.961 . S
H2493 C2485 0.960 . S
H2494 C2486 0.930 . S
H2495 C2487 0.929 . S
H2496 C2504 0.929 . S
H2497 C2506 0.930 . S
H2498 C2508 0.930 . S
H2499 C2511 0.929 . S
H2500 C2514 0.930 . S
H2501 C2516 0.960 . S
H2502 C2516 0.960 . S
H2503 C2516 0.960 . S
C2504 H2496 0.929 . S
C2504 C2505 1.377 . S
C2504 C2506 1.384 . S
C2505 C2504 1.377 . S
C2505 C2511 1.390 . S
C2506 H2497 0.930 . S
C2506 C2504 1.384 . S
C2506 C2507 1.372 . S
C2507 C2506 1.372 . S
C2507 C2508 1.400 . S
C2507 C2512 1.490 . S
C2508 H2498 0.930 . S
C2508 C2507 1.400 . S
C2508 C2511 1.386 . S
H2509 C2525 0.930 . S
H2510 C2526 0.931 . S
C2511 H2499 0.929 . S
C2511 C2505 1.390 . S
C2511 C2508 1.386 . S
C2512 C2507 1.490 . S
C2512 C2514 1.395 . S
C2512 C2515 1.403 . S
H2513 C2519 0.930 . S
C2514 H2500 0.930 . S
C2514 C2512 1.395 . S
C2514 C2517 1.403 . S
C2515 C2512 1.403 . S
C2515 C2516 1.524 . S
C2515 C2519 1.400 . S
C2516 H2501 0.960 . S
C2516 H2502 0.960 . S
C2516 H2503 0.960 . S
C2516 C2515 1.524 . S
C2517 C2514 1.403 . S
C2517 C2518 1.392 . S
C2517 C2521 1.495 . S
C2518 C2517 1.392 . S
C2518 C2519 1.385 . S
C2518 C2520 1.478 . S
C2519 H2513 0.930 . S
C2519 C2515 1.400 . S
C2519 C2518 1.385 . S
C2520 C2518 1.478 . S
C2520 C2522 1.381 . S
C2520 C2526 1.383 . S
C2521 C2517 1.495 . S
C2521 H2527 0.959 . S
C2521 H2528 0.961 . S
C2521 H2529 0.960 . S
C2522 C2520 1.381 . S
C2522 C2523 1.394 . S
C2522 H2530 0.930 . S
C2523 C2522 1.394 . S
C2523 C2524 1.383 . S
C2523 H2531 0.929 . S
C2524 C2523 1.383 . S
C2524 C2525 1.377 . S
C2525 H2509 0.930 . S
C2525 C2524 1.377 . S
C2525 C2526 1.379 . S
C2526 H2510 0.931 . S
C2526 C2520 1.383 . S
C2526 C2525 1.379 . S
H2527 C2521 0.959 . S
H2528 C2521 0.961 . S
H2529 C2521 0.960 . S
H2530 C2522 0.930 . S
H2531 C2523 0.929 . S
H2532 C2540 0.929 . S
H2533 C2542 0.930 . S
H2534 C2544 0.930 . S
H2535 C2547 0.929 . S
H2536 C2550 0.930 . S
H2537 C2552 0.960 . S
H2538 C2552 0.960 . S
H2539 C2552 0.960 . S
C2540 H2532 0.929 . S
C2540 C2541 1.377 . S
C2540 C2542 1.384 . S
C2541 C2540 1.377 . S
C2541 C2547 1.390 . S
C2542 H2533 0.930 . S
C2542 C2540 1.384 . S
C2542 C2543 1.372 . S
C2543 C2542 1.372 . S
C2543 C2544 1.400 . S
C2543 C2548 1.490 . S
C2544 H2534 0.930 . S
C2544 C2543 1.400 . S
C2544 C2547 1.386 . S
H2545 C2561 0.930 . S
H2546 C2562 0.931 . S
C2547 H2535 0.929 . S
C2547 C2541 1.390 . S
C2547 C2544 1.386 . S
C2548 C2543 1.490 . S
C2548 C2550 1.395 . S
C2548 C2551 1.403 . S
H2549 C2555 0.930 . S
C2550 H2536 0.930 . S
C2550 C2548 1.395 . S
C2550 C2553 1.403 . S
C2551 C2548 1.403 . S
C2551 C2552 1.524 . S
C2551 C2555 1.400 . S
C2552 H2537 0.960 . S
C2552 H2538 0.960 . S
C2552 H2539 0.960 . S
C2552 C2551 1.524 . S
C2553 C2550 1.403 . S
C2553 C2554 1.392 . S
C2553 C2557 1.495 . S
C2554 C2553 1.392 . S
C2554 C2555 1.385 . S
C2554 C2556 1.478 . S
C2555 H2549 0.930 . S
C2555 C2551 1.400 . S
C2555 C2554 1.385 . S
C2556 C2554 1.478 . S
C2556 C2558 1.381 . S
C2556 C2562 1.383 . S
C2557 C2553 1.495 . S
C2557 H2563 0.959 . S
C2557 H2564 0.961 . S
C2557 H2565 0.960 . S
C2558 C2556 1.381 . S
C2558 C2559 1.394 . S
C2558 H2566 0.930 . S
C2559 C2558 1.394 . S
C2559 C2560 1.383 . S
C2559 H2567 0.929 . S
C2560 C2559 1.383 . S
C2560 C2561 1.377 . S
C2561 H2545 0.930 . S
C2561 C2560 1.377 . S
C2561 C2562 1.379 . S
C2562 H2546 0.931 . S
C2562 C2556 1.383 . S
C2562 C2561 1.379 . S
H2563 C2557 0.959 . S
H2564 C2557 0.961 . S
H2565 C2557 0.960 . S
H2566 C2558 0.930 . S
H2567 C2559 0.929 . S
H2568 C2576 0.929 . S
H2569 C2578 0.930 . S
H2570 C2580 0.930 . S
H2571 C2583 0.929 . S
H2572 C2586 0.930 . S
H2573 C2588 0.960 . S
H2574 C2588 0.960 . S
H2575 C2588 0.960 . S
C2576 H2568 0.929 . S
C2576 C2577 1.377 . S
C2576 C2578 1.384 . S
C2577 C2576 1.377 . S
C2577 C2583 1.390 . S
C2578 H2569 0.930 . S
C2578 C2576 1.384 . S
C2578 C2579 1.372 . S
C2579 C2578 1.372 . S
C2579 C2580 1.400 . S
C2579 C2584 1.490 . S
C2580 H2570 0.930 . S
C2580 C2579 1.400 . S
C2580 C2583 1.386 . S
H2581 C2597 0.930 . S
H2582 C2598 0.931 . S
C2583 H2571 0.929 . S
C2583 C2577 1.390 . S
C2583 C2580 1.386 . S
C2584 C2579 1.490 . S
C2584 C2586 1.395 . S
C2584 C2587 1.403 . S
H2585 C2591 0.930 . S
C2586 H2572 0.930 . S
C2586 C2584 1.395 . S
C2586 C2589 1.403 . S
C2587 C2584 1.403 . S
C2587 C2588 1.524 . S
C2587 C2591 1.400 . S
C2588 H2573 0.960 . S
C2588 H2574 0.960 . S
C2588 H2575 0.960 . S
C2588 C2587 1.524 . S
C2589 C2586 1.403 . S
C2589 C2590 1.392 . S
C2589 C2593 1.495 . S
C2590 C2589 1.392 . S
C2590 C2591 1.385 . S
C2590 C2592 1.478 . S
C2591 H2585 0.930 . S
C2591 C2587 1.400 . S
C2591 C2590 1.385 . S
C2592 C2590 1.478 . S
C2592 C2594 1.381 . S
C2592 C2598 1.383 . S
C2593 C2589 1.495 . S
C2593 H2599 0.959 . S
C2593 H2600 0.961 . S
C2593 H2601 0.960 . S
C2594 C2592 1.381 . S
C2594 C2595 1.394 . S
C2594 H2602 0.930 . S
C2595 C2594 1.394 . S
C2595 C2596 1.383 . S
C2595 H2603 0.929 . S
C2596 C2595 1.383 . S
C2596 C2597 1.377 . S
C2597 H2581 0.930 . S
C2597 C2596 1.377 . S
C2597 C2598 1.379 . S
C2598 H2582 0.931 . S
C2598 C2592 1.383 . S
C2598 C2597 1.379 . S
H2599 C2593 0.959 . S
H2600 C2593 0.961 . S
H2601 C2593 0.960 . S
H2602 C2594 0.930 . S
H2603 C2595 0.929 . S
H2604 C2612 0.929 . S
H2605 C2614 0.930 . S
H2606 C2616 0.930 . S
H2607 C2619 0.929 . S
H2608 C2622 0.930 . S
H2609 C2624 0.960 . S
H2610 C2624 0.960 . S
H2611 C2624 0.960 . S
C2612 H2604 0.929 . S
C2612 C2613 1.377 . S
C2612 C2614 1.384 . S
C2613 C2612 1.377 . S
C2613 C2619 1.390 . S
C2614 H2605 0.930 . S
C2614 C2612 1.384 . S
C2614 C2615 1.372 . S
C2615 C2614 1.372 . S
C2615 C2616 1.400 . S
C2615 C2620 1.490 . S
C2616 H2606 0.930 . S
C2616 C2615 1.400 . S
C2616 C2619 1.386 . S
H2617 C2633 0.930 . S
H2618 C2634 0.931 . S
C2619 H2607 0.929 . S
C2619 C2613 1.390 . S
C2619 C2616 1.386 . S
C2620 C2615 1.490 . S
C2620 C2622 1.395 . S
C2620 C2623 1.403 . S
H2621 C2627 0.930 . S
C2622 H2608 0.930 . S
C2622 C2620 1.395 . S
C2622 C2625 1.403 . S
C2623 C2620 1.403 . S
C2623 C2624 1.524 . S
C2623 C2627 1.400 . S
C2624 H2609 0.960 . S
C2624 H2610 0.960 . S
C2624 H2611 0.960 . S
C2624 C2623 1.524 . S
C2625 C2622 1.403 . S
C2625 C2626 1.392 . S
C2625 C2629 1.495 . S
C2626 C2625 1.392 . S
C2626 C2627 1.385 . S
C2626 C2628 1.478 . S
C2627 H2621 0.930 . S
C2627 C2623 1.400 . S
C2627 C2626 1.385 . S
C2628 C2626 1.478 . S
C2628 C2630 1.381 . S
C2628 C2634 1.383 . S
C2629 C2625 1.495 . S
C2629 H2635 0.959 . S
C2629 H2636 0.961 . S
C2629 H2637 0.960 . S
C2630 C2628 1.381 . S
C2630 C2631 1.394 . S
C2630 H2638 0.930 . S
C2631 C2630 1.394 . S
C2631 C2632 1.383 . S
C2631 H2639 0.929 . S
C2632 C2631 1.383 . S
C2632 C2633 1.377 . S
C2633 H2617 0.930 . S
C2633 C2632 1.377 . S
C2633 C2634 1.379 . S
C2634 H2618 0.931 . S
C2634 C2628 1.383 . S
C2634 C2633 1.379 . S
H2635 C2629 0.959 . S
H2636 C2629 0.961 . S
H2637 C2629 0.960 . S
H2638 C2630 0.930 . S
H2639 C2631 0.929 . S
H2640 C2648 0.929 . S
H2641 C2650 0.930 . S
H2642 C2652 0.930 . S
H2643 C2655 0.929 . S
H2644 C2658 0.930 . S
H2645 C2660 0.960 . S
H2646 C2660 0.960 . S
H2647 C2660 0.960 . S
C2648 H2640 0.929 . S
C2648 C2649 1.377 . S
C2648 C2650 1.384 . S
C2649 C2648 1.377 . S
C2649 C2655 1.390 . S
C2650 H2641 0.930 . S
C2650 C2648 1.384 . S
C2650 C2651 1.372 . S
C2651 C2650 1.372 . S
C2651 C2652 1.400 . S
C2651 C2656 1.490 . S
C2652 H2642 0.930 . S
C2652 C2651 1.400 . S
C2652 C2655 1.386 . S
H2653 C2669 0.930 . S
H2654 C2670 0.931 . S
C2655 H2643 0.929 . S
C2655 C2649 1.390 . S
C2655 C2652 1.386 . S
C2656 C2651 1.490 . S
C2656 C2658 1.395 . S
C2656 C2659 1.403 . S
H2657 C2663 0.930 . S
C2658 H2644 0.930 . S
C2658 C2656 1.395 . S
C2658 C2661 1.403 . S
C2659 C2656 1.403 . S
C2659 C2660 1.524 . S
C2659 C2663 1.400 . S
C2660 H2645 0.960 . S
C2660 H2646 0.960 . S
C2660 H2647 0.960 . S
C2660 C2659 1.524 . S
C2661 C2658 1.403 . S
C2661 C2662 1.392 . S
C2661 C2665 1.495 . S
C2662 C2661 1.392 . S
C2662 C2663 1.385 . S
C2662 C2664 1.478 . S
C2663 H2657 0.930 . S
C2663 C2659 1.400 . S
C2663 C2662 1.385 . S
C2664 C2662 1.478 . S
C2664 C2666 1.381 . S
C2664 C2670 1.383 . S
C2665 C2661 1.495 . S
C2665 H2671 0.959 . S
C2665 H2672 0.961 . S
C2665 H2673 0.960 . S
C2666 C2664 1.381 . S
C2666 C2667 1.394 . S
C2666 H2674 0.930 . S
C2667 C2666 1.394 . S
C2667 C2668 1.383 . S
C2667 H2675 0.929 . S
C2668 C2667 1.383 . S
C2668 C2669 1.377 . S
C2669 H2653 0.930 . S
C2669 C2668 1.377 . S
C2669 C2670 1.379 . S
C2670 H2654 0.931 . S
C2670 C2664 1.383 . S
C2670 C2669 1.379 . S
H2671 C2665 0.959 . S
H2672 C2665 0.961 . S
H2673 C2665 0.960 . S
H2674 C2666 0.930 . S
H2675 C2667 0.929 . S
C976 C348 1.236 . S
C957 N2 1.409 . S
C1012 C435 2.243 . S
C993 C7 2.264 . S
C1048 C507 1.264 . S
C1029 N12 1.387 . S
C1065 C16 2.016 . S
C1084 C594 2.039 . S
C1120 C678 2.257 . S
C1101 C30 2.285 1_565 S
C1156 C768 1.159 . S
C1137 N35 1.262 . S
C1173 C39 2.100 . S
C1192 C855 2.085 . S
C1228 C927 1.167 . S
C1209 N25 1.272 . S
C1264 C343 1.032 . S
C1245 N58 1.005 . S
C1281 N81 1.791 . S
C1300 C416 1.793 . S
C1336 C519 1.051 . S
C1317 N104 1.018 . S
C1353 N127 1.083 . S
C1372 C600 0.927 . S
C1408 C684 0.723 . S
C1389 N48 0.691 1_565 S
C1444 C763 1.455 . S
C1425 N71 1.445 1_556 S
C1461 N94 1.220 . S
C1480 C836 1.227 . S
C1516 C939 1.559 . S
C1497 N117 1.529 . S
C1533 C85 2.064 . S
C1552 C342 2.066 . S
C1569 C122 2.306 . S
C1588 C679 2.264 . S
C1605 C53 1.626 . S
C1624 C762 1.641 . S
C1660 C843 1.270 . S
C1641 C76 1.456 1_655 S
C1696 C920 1.573 . S
C1677 C99 1.666 . S
C1732 C500 1.867 . S
C1713 C131 1.921 . S
C1768 C595 1.671 . S
C1749 C62 1.703 1_565 S
C1785 C108 1.023 . S
C1804 C423 0.974 . S
C1840 C936 1.333 . S
C1821 N140 1.465 . S
C1857 C145 2.253 . S
C1876 C687 2.244 . S
C1912 C759 1.120 . S
C1893 N150 1.285 . S
C1929 C154 2.022 . S
C1948 C846 2.030 . S
C1984 C426 2.255 . S
C1965 C168 2.282 . S
C2001 N173 1.175 . S
C2020 C516 1.084 . S
C2056 C603 2.075 . S
C2037 C177 2.100 . S
C2092 C339 1.235 . S
C2073 N163 1.308 . S
C2128 C931 1.446 . S
C2109 C200 1.459 . S
C2164 C668 2.080 . S
C2145 N219 2.098 . S
C2181 N242 1.271 . S
C2200 C771 1.330 . S
C2236 C852 1.122 . S
C2217 C269 1.400 . S
C2272 C432 0.783 . S
C2253 C191 0.968 . S
C2289 N209 1.713 . S
C2308 C511 1.708 . S
C2325 N232 1.532 . S
C2344 C584 1.533 . S
C2361 C260 2.037 . S
C2380 C351 2.025 . S
C2397 C223 1.754 . S
C2416 C930 1.751 . S
C2433 N255 1.879 . S
C2452 C427 1.873 . S
C2469 N186 1.194 . S
C2488 C510 1.236 . S
C2524 C591 1.042 . S
C2505 C214 1.128 . S
C2560 C332 1.275 . S
C2541 C237 1.339 . S
C2596 C752 1.452 . S
C2577 N265 1.448 . S
C2632 C847 1.286 . S
C2613 N196 1.314 . S
C2668 C675 0.779 . S
C2649 C246 0.703 . S
