# Generated by pormake.
# Topology pth, (4,4)-cn, num edge types: 1
# Building blocks:
#     Node 0, Type 0, BuildingBlock: AZAVOO_clean_sbu_0, # of connection points: 4
#     Node 1, Type 0, BuildingBlock: AZAVOO_clean_sbu_0, # of connection points: 4
#     Node 2, Type 0, BuildingBlock: AZAVOO_clean_sbu_0, # of connection points: 4
#     Node 3, Type 1, BuildingBlock: MUDLON_clean_sbu_0, # of connection points: 4
#     Node 4, Type 1, BuildingBlock: MUDLON_clean_sbu_0, # of connection points: 4
#     Node 5, Type 1, BuildingBlock: MUDLON_clean_sbu_0, # of connection points: 4
#     Edge 6, Type (0, 1), BuildingBlock: FUNLAD_clean_linker_1, # of connection points: 2
#     Edge 7, Type (0, 1), BuildingBlock: FUNLAD_clean_linker_1, # of connection points: 2
#     Edge 8, Type (0, 1), BuildingBlock: FUNLAD_clean_linker_1, # of connection points: 2
#     Edge 9, Type (0, 1), BuildingBlock: FUNLAD_clean_linker_1, # of connection points: 2
#     Edge 10, Type (0, 1), BuildingBlock: FUNLAD_clean_linker_1, # of connection points: 2
#     Edge 11, Type (0, 1), BuildingBlock: FUNLAD_clean_linker_1, # of connection points: 2
#     Edge 12, Type (0, 1), BuildingBlock: FUNLAD_clean_linker_1, # of connection points: 2
#     Edge 13, Type (0, 1), BuildingBlock: FUNLAD_clean_linker_1, # of connection points: 2
#     Edge 14, Type (0, 1), BuildingBlock: FUNLAD_clean_linker_1, # of connection points: 2
#     Edge 15, Type (0, 1), BuildingBlock: FUNLAD_clean_linker_1, # of connection points: 2
#     Edge 16, Type (0, 1), BuildingBlock: FUNLAD_clean_linker_1, # of connection points: 2
#     Edge 17, Type (0, 1), BuildingBlock: FUNLAD_clean_linker_1, # of connection points: 2
# Relax obj value: 0.104
# Max RMSD: 0.230
# Mean RMSD: 0.137
data_MOF--net-pth--node1-AZAVOO_clean_sbu_0--node2-MUDLON_clean_sbu_0--edge1-FUNLAD_clean_linker_1
_symmetry_space_group_name_H-M    P1
_symmetry_Int_Tables_number       1
_symmetry_cell_setting            triclinic
loop_
_symmetry_equiv_pos_as_xyz
'x, y, z'
_cell_length_a     23.350044
_cell_length_b     23.834943
_cell_length_c     61.665899
_cell_angle_alpha  90.697009
_cell_angle_beta   93.466301
_cell_angle_gamma 122.12708
loop_
_atom_site_label
_atom_site_type_symbol
_atom_site_fract_x
_atom_site_fract_y
_atom_site_fract_z
_atom_type_partial_charge
Mg0 Mg 0.15879 0.10136 0.08034 0.0
O1 O 0.06391 0.06128 0.05613 0.0
O2 O 0.08198 0.14465 0.03529 0.0
Mg3 Mg 0.18596 0.23622 0.04567 0.0
C4 C 0.04524 0.08474 0.04063 0.0
C5 C 0.1417 1.00606 0.11547 0.0
O6 O 0.20688 0.05135 0.1171 0.0
O7 O 0.12935 0.16198 0.10078 0.0
O8 O 0.14953 0.24361 0.07873 0.0
O9 O 0.20793 0.07344 0.05576 0.0
O10 O 0.21843 0.171 0.05856 0.0
C11 C 0.13158 0.21557 0.09672 0.0
C12 C 0.23144 0.13191 0.04851 0.0
O13 O 0.10331 0.01113 0.10118 0.0
Mg14 Mg 0.98145 0.0535 0.40782 0.0
O15 O 0.07806 0.09028 0.42998 0.0
O16 O 0.10098 0.18098 0.44913 0.0
Mg17 Mg 0.01544 0.19958 0.44018 0.0
C18 C 0.11473 0.1375 0.44417 0.0
C19 C 0.98044 0.97061 0.3685 0.0
O20 O 0.93344 0.98202 0.36162 0.0
O21 O 0.03336 0.13882 0.38507 0.0
O22 O 0.04128 0.22255 0.4047 0.0
O23 O 0.91955 0.99142 0.43467 0.0
O24 O 0.94683 0.09403 0.42979 0.0
C25 C 0.04661 0.19805 0.38694 0.0
C26 C 0.91833 0.0426 0.44117 0.0
O27 O 1.00939 0.99168 0.38753 0.0
Mg28 Mg 0.02827 0.01257 0.75075 0.0
O29 O 0.07542 0.10603 0.77333 0.0
O30 O 0.99668 0.09594 0.7947 0.0
Mg31 Mg 0.89894 0.99467 0.78581 0.0
C32 C 0.05682 0.1283 0.78851 0.0
C33 C 0.14245 0.03092 0.72346 0.0
O34 O 0.11654 0.97044 0.73 0.0
O35 O 0.96765 0.04546 0.7302 0.0
O36 O 0.88483 0.02514 0.75142 0.0
O37 O 0.05888 0.96438 0.77585 0.0
O38 O 0.96052 0.95751 0.77386 0.0
C39 C 0.91268 0.04257 0.73344 0.0
C40 C 1.00162 0.9444 0.78397 0.0
O41 O 0.11752 0.06435 0.72933 0.0
Mg42 Mg 0.08597 0.59351 0.24266 0.0
C43 C 1.0078 0.50933 0.27967 0.0
O44 O 0.0164 0.56512 0.2873 0.0
C45 C 0.98214 0.6092 0.212 0.0
O46 O 0.93345 0.56825 0.22391 0.0
C47 C 0.10804 0.5127 0.21428 0.0
O48 O 0.04281 0.49016 0.21245 0.0
O49 O 0.14702 0.56367 0.22684 0.0
O50 O 0.02305 0.50565 0.26048 0.0
O51 O 0.13511 0.67779 0.26647 0.0
C52 C 0.09866 0.70189 0.26932 0.0
O53 O 0.04074 0.67652 0.25752 0.0
O54 O 0.04215 0.62242 0.21627 0.0
Mg55 Mg 0.53964 0.11244 0.57771 0.0
C56 C 0.45406 0.05705 0.53418 0.0
O57 O 0.50889 0.06165 0.52777 0.0
C58 C 0.60726 0.0879 0.61299 0.0
O59 O 0.64383 0.15158 0.60956 0.0
C60 C 0.46713 0.13949 0.60694 0.0
O61 O 0.43032 0.0763 0.60058 0.0
O62 O 0.52416 0.17578 0.59907 0.0
O63 O 0.45121 0.06867 0.55416 0.0
O64 O 0.62947 0.15434 0.55943 0.0
C65 C 0.64457 0.11174 0.55483 0.0
O66 O 0.60748 0.05167 0.56182 0.0
O67 O 0.55258 0.05133 0.60102 0.0
Mg68 Mg 0.56239 0.57601 0.91969 0.0
C69 C 0.44208 0.4923 0.89089 0.0
O70 O 0.48072 0.46796 0.88919 0.0
C71 C 0.63968 0.71452 0.94187 0.0
O72 O 0.65231 0.73231 0.92178 0.0
C73 C 0.56244 0.48834 0.95465 0.0
O74 O 0.60106 0.54597 0.96532 0.0
O75 O 0.54409 0.48656 0.9347 0.0
O76 O 0.46401 0.54411 0.90316 0.0
O77 O 0.63568 0.61059 0.89527 0.0
C78 C 0.69942 0.64486 0.89995 0.0
O79 O 0.72355 0.65617 0.92041 0.0
O80 O 0.59963 0.6537 0.9454 0.0
H81 H 0.10075 0.28267 0.10805 0.0
C82 C 0.1178 0.25033 0.11353 0.0
H83 H 0.15485 0.22174 0.14053 0.0
H84 H 0.18357 0.51272 0.16457 0.0
H85 H 0.2658 0.55686 0.13756 0.0
H86 H 0.29208 0.48447 0.11727 0.0
H87 H 0.23445 0.36695 0.12347 0.0
C88 C 0.13606 0.25239 0.13476 0.0
C89 C 0.13315 0.29846 0.15066 0.0
C90 C 0.17104 0.368 0.14803 0.0
C91 C 0.15917 0.41053 0.16077 0.0
C92 C 0.19288 0.47857 0.15624 0.0
C93 C 0.24005 0.5046 0.14063 0.0
C94 C 0.25462 0.46381 0.12914 0.0
C95 C 0.2207 0.39632 0.13272 0.0
H96 H 0.18716 0.49361 0.20526 0.0
C97 C 0.13401 0.47736 0.20249 0.0
H98 H 0.0386 0.40784 0.18648 0.0
H99 H 0.05989 0.16931 0.162 0.0
H100 H 0.98626 0.12653 0.19159 0.0
H101 H 0.97107 0.20114 0.21525 0.0
H102 H 0.02897 0.31892 0.20935 0.0
C103 C 0.09211 0.42499 0.18866 0.0
C104 C 0.113 0.38403 0.17721 0.0
C105 C 0.08033 0.31554 0.18124 0.0
C106 C 0.09003 0.27265 0.16786 0.0
C107 C 0.05488 0.20418 0.1718 0.0
C108 C 0.01245 0.17896 0.18874 0.0
C109 C 1.00382 0.22095 0.20204 0.0
C110 C 0.03714 0.28842 0.19841 0.0
H111 H 0.85997 0.99731 0.4698 0.0
C112 C 0.8849 0.04218 0.46081 0.0
H113 H 0.90336 0.13835 0.45727 0.0
H114 H 0.64166 0.08351 0.49976 0.0
H115 H 0.61226 0.08791 0.46183 0.0
H116 H 0.68569 0.09452 0.43357 0.0
H117 H 0.78867 0.09608 0.44314 0.0
C118 C 0.88098 0.09452 0.46677 0.0
C119 C 0.8381 0.09169 0.48414 0.0
C120 C 0.7789 0.09265 0.47833 0.0
C121 C 0.73717 0.09003 0.49467 0.0
C122 C 0.67652 0.08756 0.48822 0.0
C123 C 0.65865 0.08957 0.46641 0.0
C124 C 0.69994 0.09323 0.45051 0.0
C125 C 0.75916 0.09438 0.45627 0.0
H126 H 0.72352 0.17421 0.53263 0.0
C127 C 0.6973 0.12625 0.53985 0.0
H128 H 0.68439 0.03163 0.54144 0.0
H129 H 0.95125 0.0951 0.50097 0.0
H130 H 0.98131 0.09139 0.53904 0.0
H131 H 0.9086 0.08607 0.56738 0.0
H132 H 0.8056 0.08493 0.55782 0.0
C133 C 0.70928 0.07908 0.53387 0.0
C134 C 0.75563 0.08798 0.51687 0.0
C135 C 0.8153 0.08791 0.52268 0.0
C136 C 0.85684 0.09018 0.50632 0.0
C137 C 0.91708 0.09192 0.51267 0.0
C138 C 0.93513 0.09017 0.53449 0.0
C139 C 0.89422 0.08722 0.55044 0.0
C140 C 0.83509 0.08632 0.54472 0.0
H141 H 0.02183 0.89966 0.81231 0.0
C142 C 0.98502 0.90886 0.80433 0.0
H143 H 0.88777 0.89466 0.8049 0.0
H144 H 0.81761 0.63961 0.86123 0.0
H145 H 0.82245 0.59041 0.82721 0.0
H146 H 0.86418 0.65736 0.79504 0.0
H147 H 0.9024 0.77402 0.79679 0.0
C148 C 0.92485 0.8854 0.81258 0.0
C149 C 0.90604 0.84621 0.83237 0.0
C150 C 0.88277 0.7778 0.8309 0.0
C151 C 0.85627 0.73857 0.84919 0.0
C152 C 0.83563 0.67095 0.84755 0.0
C153 C 0.83866 0.64226 0.82819 0.0
C154 C 0.86233 0.68 0.81009 0.0
C155 C 0.88419 0.74699 0.81133 0.0
H156 H 0.72035 0.67119 0.86605 0.0
C157 C 0.74413 0.67933 0.88246 0.0
H158 H 0.83485 0.73494 0.90271 0.0
H159 H 0.95482 0.9773 0.84131 0.0
H160 H 0.95233 0.02709 0.87557 0.0
H161 H 0.90266 0.95848 0.90694 0.0
H162 H 0.85581 0.84011 0.90436 0.0
C163 C 0.81092 0.7244 0.88625 0.0
C164 C 0.85063 0.76723 0.86861 0.0
C165 C 0.87816 0.83657 0.87052 0.0
C166 C 0.90596 0.87606 0.85236 0.0
C167 C 0.93253 0.94503 0.85457 0.0
C168 C 0.93151 0.97422 0.87414 0.0
C169 C 0.90364 0.93561 0.8918 0.0
C170 C 0.87694 0.86758 0.8901 0.0
H171 H 0.15264 0.94955 0.14147 0.0
C172 C 0.11573 0.95031 0.13005 0.0
H173 H 0.0127 0.89927 0.118 0.0
H174 H 0.97008 0.6259 0.14917 0.0
H175 H 0.94638 0.60462 0.10999 0.0
H176 H 0.96002 0.69266 0.08614 0.0
H177 H 0.99741 0.80248 0.10125 0.0
C178 C 0.05022 0.90081 0.12972 0.0
C179 C 0.02949 0.84445 0.14427 0.0
C180 C 1.00596 0.78012 0.13518 0.0
C181 C 0.99827 0.72929 0.14891 0.0
C182 C 0.97681 0.66614 0.13941 0.0
C183 C 0.96299 0.6533 0.11699 0.0
C184 C 0.97065 0.70288 0.10356 0.0
C185 C 0.99212 0.76571 0.11244 0.0
H186 H 0.91921 0.63868 0.193 0.0
C187 C 0.96979 0.64734 0.19564 0.0
H188 H 0.07229 0.70606 0.18838 0.0
H189 H 0.05917 0.95682 0.16731 0.0
H190 H 0.07927 0.97668 0.20658 0.0
H191 H 0.06987 0.88984 0.23024 0.0
H192 H 0.03955 0.78238 0.21482 0.0
C193 C 0.02123 0.69595 0.18541 0.0
C194 C 0.01382 0.74286 0.17165 0.0
C195 C 0.03178 0.80538 0.18089 0.0
C196 C 0.03875 0.85595 0.16722 0.0
C197 C 0.05536 0.91747 0.17693 0.0
C198 C 0.06651 0.92931 0.19944 0.0
C199 C 0.06113 0.88039 0.21277 0.0
C200 C 0.04391 0.81902 0.2037 0.0
H201 H 0.20152 0.17911 0.46903 0.0
C202 C 0.17078 0.13832 0.45705 0.0
H203 H 0.14698 0.04435 0.44502 0.0
H204 H 0.44674 0.16979 0.5023 0.0
H205 H 0.49302 0.25214 0.47517 0.0
H206 H 0.4183 0.256 0.446 0.0
H207 H 0.29656 0.17815 0.44406 0.0
C208 C 0.17976 0.08702 0.45613 0.0
C209 C 0.22618 0.08158 0.47247 0.0
C210 C 0.29748 0.12574 0.47287 0.0
C211 C 0.34084 0.12155 0.48915 0.0
C212 C 0.41153 0.1688 0.48986 0.0
C213 C 0.43883 0.21672 0.47444 0.0
C214 C 0.39674 0.21904 0.45806 0.0
C215 C 0.32688 0.17425 0.4572 0.0
H216 H 0.40451 0.03683 0.5009 0.0
C217 C 0.40187 0.04991 0.5176 0.0
H218 H 0.35462 0.08125 0.53855 0.0
H219 H 0.09178 0.98886 0.47635 0.0
H220 H 0.04575 0.90404 0.50274 0.0
H221 H 0.12121 0.89429 0.53006 0.0
H222 H 0.24333 0.96962 0.53121 0.0
C223 C 0.35772 0.06769 0.52196 0.0
C224 C 0.31297 0.07139 0.50448 0.0
C225 C 0.24181 0.02656 0.50381 0.0
C226 C 0.19838 0.03167 0.48784 0.0
C227 C 0.12734 0.98682 0.48788 0.0
C228 C 0.10014 0.93792 0.50299 0.0
C229 C 0.14262 0.93248 0.51839 0.0
C230 C 0.21262 0.97612 0.51889 0.0
H231 H 0.16089 0.21414 0.79557 0.0
C232 C 0.10937 0.19068 0.80045 0.0
H233 H 0.04715 0.19112 0.82383 0.0
H234 H 0.29152 0.31679 0.89686 0.0
H235 H 0.21139 0.21044 0.91108 0.0
H236 H 0.10482 0.12983 0.88966 0.0
H237 H 0.07768 0.15467 0.85395 0.0
C238 C 0.09784 0.21533 0.81825 0.0
C239 C 0.15584 0.26858 0.8326 0.0
C240 C 0.1701 0.25357 0.85368 0.0
C241 C 0.23186 0.29974 0.86595 0.0
C242 C 0.24565 0.28309 0.88676 0.0
C243 C 0.20003 0.2224 0.89516 0.0
C244 C 0.14001 0.17702 0.8831 0.0
C245 C 0.12503 0.19202 0.86259 0.0
H246 H 0.34192 0.47835 0.88105 0.0
C247 C 0.37346 0.45786 0.87946 0.0
H248 H 0.38 0.37895 0.86677 0.0
H249 H 0.13678 0.31852 0.79512 0.0
H250 H 0.2162 0.42562 0.78115 0.0
H251 H 0.32561 0.50369 0.80169 0.0
H252 H 0.35591 0.47568 0.83644 0.0
C253 C 0.34937 0.40066 0.86771 0.0
C254 C 0.27917 0.3607 0.85717 0.0
C255 C 0.26252 0.3779 0.83688 0.0
C256 C 0.20031 0.33208 0.82471 0.0
C257 C 0.1843 0.35077 0.80465 0.0
C258 C 0.22921 0.41217 0.79654 0.0
C259 C 0.29076 0.45619 0.80813 0.0
C260 C 0.30754 0.43949 0.82806 0.0
H261 H 0.90707 0.08077 0.70137 0.0
C262 C 0.87861 0.05668 0.71528 0.0
H263 H 0.78372 0.01241 0.72869 0.0
H264 H 0.66683 0.15454 0.67337 0.0
H265 H 0.67794 0.20089 0.70974 0.0
H266 H 0.73536 0.17898 0.7403 0.0
H267 H 0.78151 0.11023 0.73474 0.0
C268 C 0.81262 0.03658 0.71488 0.0
C269 C 0.77743 0.04885 0.69627 0.0
C270 C 0.75101 0.08946 0.69981 0.0
C271 C 0.71906 0.10315 0.68211 0.0
C272 C 0.69265 0.14347 0.68615 0.0
C273 C 0.69846 0.17023 0.70697 0.0
C274 C 0.73066 0.15778 0.72418 0.0
C275 C 0.7568 0.11803 0.72075 0.0
H276 H 0.5983 0.00839 0.63374 0.0
C277 C 0.63016 0.06052 0.63042 0.0
H278 H 0.72067 0.15232 0.63922 0.0
H279 H 0.81046 0.95874 0.68447 0.0
H280 H 0.80099 0.91402 0.648 0.0
H281 H 0.75397 0.94504 0.61685 0.0
H282 H 0.71466 0.01969 0.62208 0.0
C283 C 0.68976 0.09982 0.64218 0.0
C284 C 0.71414 0.07688 0.66085 0.0
C285 C 0.73886 0.03479 0.65737 0.0
C286 C 0.76909 0.01949 0.67519 0.0
C287 C 0.79001 0.97452 0.67143 0.0
C288 C 0.78436 0.94802 0.65058 0.0
C289 C 0.75767 0.9653 0.63305 0.0
C290 C 0.73508 0.00812 0.6363 0.0
H291 H 0.96529 0.06427 0.01513 0.0
C292 C 0.98121 0.04117 0.02713 0.0
H293 H 0.96359 0.95027 0.0383 0.0
H294 H 0.674 0.86223 0.98037 0.0
H295 H 0.65351 0.91471 0.01033 0.0
H296 H 0.74072 0.97501 0.04073 0.0
H297 H 0.84928 0.98371 0.04128 0.0
C298 C 0.94632 0.97468 0.02738 0.0
C299 C 0.89087 0.93332 0.01018 0.0
C300 C 0.82713 0.92736 0.01035 0.0
C301 C 0.77612 0.89109 0.99308 0.0
C302 C 0.71383 0.88778 0.99332 0.0
C303 C 0.70153 0.91792 0.01037 0.0
C304 C 0.75071 0.95201 0.02747 0.0
C305 C 0.81287 0.95684 0.02755 0.0
H306 H 0.67152 0.74323 0.97674 0.0
C307 C 0.68127 0.76136 0.96044 0.0
H308 H 0.74835 0.83871 0.94132 0.0
H309 H 1.00703 0.93422 1.00501 0.0
H310 H 0.02686 0.88035 0.97538 0.0
H311 H 0.93791 0.81603 0.94575 0.0
H312 H 0.82873 0.80517 0.94558 0.0
C313 C 0.73602 0.8216 0.95763 0.0
C314 C 0.78859 0.85993 0.97586 0.0
C315 C 0.85207 0.86527 0.97584 0.0
C316 C 0.90314 0.90181 0.99303 0.0
C317 C 0.96623 0.90673 0.99245 0.0
C318 C 0.97835 0.87607 0.97553 0.0
C319 C 0.92832 0.83991 0.95885 0.0
C320 C 0.86583 0.83426 0.95893 0.0
H321 H 0.97058 0.91577 0.33812 0.0
C322 C 1.00019 0.93578 0.35366 0.0
H323 H 0.08364 0.9488 0.37368 0.0
H324 H 0.06269 0.70059 0.32434 0.0
H325 H 0.03821 0.66264 0.36085 0.0
H326 H 0.02971 0.73085 0.38934 0.0
H327 H 0.04523 0.83735 0.38142 0.0
C328 C 0.05394 0.93006 0.35813 0.0
C329 C 0.0718 0.89516 0.3422 0.0
C330 C 0.06509 0.8342 0.34731 0.0
C331 C 0.07069 0.79513 0.33091 0.0
C332 C 0.06007 0.73278 0.33618 0.0
C333 C 0.0458 0.71028 0.3571 0.0
C334 C 0.04098 0.74867 0.37314 0.0
C335 C 0.05008 0.80976 0.36837 0.0
H336 H 0.16249 0.77039 0.29758 0.0
C337 C 0.11622 0.75192 0.28712 0.0
H338 H 0.02759 0.75397 0.28036 0.0
H339 H 0.10396 0.01675 0.32852 0.0
H340 H 0.13275 0.0568 0.29232 0.0
H341 H 0.13964 0.98794 0.26364 0.0
H342 H 0.11863 0.87893 0.2711 0.0
C343 C 0.07312 0.7714 0.29112 0.0
C344 C 0.08398 0.81776 0.30953 0.0
C345 C 0.09642 0.88125 0.30498 0.0
C346 C 0.09112 0.92035 0.32137 0.0
C347 C 0.10518 0.98415 0.31645 0.0
C348 C 0.12228 0.00793 0.2958 0.0
C349 C 0.12624 0.9692 0.27966 0.0
C350 C 0.11371 0.90664 0.28412 0.0
H351 H 0.21298 0.02352 0.70342 0.0
C352 C 0.19755 0.05694 0.70869 0.0
H353 H 0.21149 0.15155 0.70553 0.0
H354 H 0.46716 0.13886 0.66461 0.0
H355 H 0.50133 0.13386 0.70212 0.0
H356 H 0.43526 0.13348 0.73195 0.0
H357 H 0.33384 0.13705 0.72434 0.0
C358 C 0.22749 0.11805 0.70099 0.0
C359 C 0.27762 0.13751 0.68425 0.0
C360 C 0.33859 0.1389 0.68903 0.0
C361 C 0.37779 0.14115 0.67189 0.0
C362 C 0.43609 0.1383 0.67701 0.0
C363 C 0.4563 0.13548 0.69849 0.0
C364 C 0.41904 0.13515 0.71528 0.0
C365 C 0.36079 0.1368 0.7107 0.0
H366 H 0.47668 0.21595 0.63061 0.0
C367 C 0.44371 0.16528 0.62396 0.0
H368 H 0.34952 0.07483 0.62477 0.0
H369 H 0.17116 0.14923 0.66999 0.0
H370 H 0.14232 0.16327 0.63282 0.0
H371 H 0.21196 0.16974 0.60326 0.0
H372 H 0.31104 0.16208 0.61074 0.0
C373 C 0.38306 0.12491 0.63185 0.0
C374 C 0.35682 0.14388 0.65008 0.0
C375 C 0.30062 0.15064 0.64567 0.0
C376 C 0.2609 0.14752 0.66276 0.0
C377 C 0.20339 0.15172 0.65768 0.0
C378 C 0.18627 0.1598 0.6364 0.0
C379 C 0.22544 0.16338 0.61975 0.0
C380 C 0.2819 0.15868 0.62422 0.0
H381 H 0.27543 0.11674 0.01976 0.0
C382 C 0.27047 0.15275 0.02906 0.0
H383 H 0.2964 0.25195 0.03251 0.0
H384 H 0.55194 0.32711 0.97646 0.0
H385 H 0.59196 0.28707 1.00614 0.0
H386 H 0.51847 0.22656 0.03542 0.0
H387 H 0.40439 0.20461 0.03503 0.0
C388 C 0.30179 0.21604 0.02334 0.0
C389 C 0.34204 0.24042 1.00404 0.0
C390 C 0.40877 0.25316 1.00471 0.0
C391 C 0.4521 0.29018 0.98828 0.0
C392 C 0.51799 0.30116 0.98899 0.0
C393 C 0.54134 0.27812 1.00582 0.0
C394 C 0.49989 0.2439 0.02228 0.0
C395 C 0.43439 0.23154 0.02184 0.0
H396 H 0.53747 0.43426 0.98467 0.0
C397 C 0.52817 0.42792 0.96706 0.0
H398 H 0.46775 0.36256 0.94037 0.0
H399 H 0.21357 0.21429 0.99611 0.0
H400 H 0.17291 0.25247 0.9661 0.0
H401 H 0.24915 0.32051 0.93839 0.0
H402 H 0.36581 0.34997 0.94025 0.0
C403 C 0.47868 0.36875 0.95791 0.0
C404 C 0.42946 0.31637 0.97174 0.0
C405 C 0.36079 0.29852 0.97001 0.0
C406 C 0.31708 0.26033 0.98619 0.0
C407 C 0.24908 0.24406 0.98439 0.0
C408 C 0.22506 0.26544 0.96723 0.0
C409 C 0.26795 0.30364 0.95161 0.0
C410 C 0.33502 0.32022 0.9529 0.0
H411 H 0.06516 0.21591 0.35213 0.0
C412 C 0.05767 0.23532 0.367 0.0
H413 H 0.03929 0.30532 0.38089 0.0
H414 H 0.13641 0.50718 0.30694 0.0
H415 H 0.23658 0.5645 0.33227 0.0
H416 H 0.24973 0.50864 0.36386 0.0
H417 H 0.16281 0.39487 0.37025 0.0
C418 C 0.0476 0.28591 0.36618 0.0
C419 C 0.04356 0.31568 0.34551 0.0
C420 C 0.09471 0.38202 0.34197 0.0
C421 C 0.0869 0.41432 0.32384 0.0
C422 C 0.13922 0.48049 0.32062 0.0
C423 C 0.19714 0.51393 0.33499 0.0
C424 C 0.20455 0.48248 0.35277 0.0
C425 C 0.15418 0.41728 0.35629 0.0
H426 H 0.98417 0.46325 0.31131 0.0
C427 C 0.99789 0.45868 0.29514 0.0
H428 H 0.0342 0.41226 0.27556 0.0
H429 H 0.93466 0.18801 0.34744 0.0
H430 H 0.83636 0.13024 0.32152 0.0
H431 H 0.82472 0.18573 0.28957 0.0
H432 H 0.91141 0.29997 0.28351 0.0
C433 C 0.01758 0.41593 0.2913 0.0
C434 C 0.02747 0.38038 0.30939 0.0
C435 C 0.97765 0.31323 0.31236 0.0
C436 C 0.9852 0.28091 0.33057 0.0
C437 C 0.93274 0.2147 0.33367 0.0
C438 C 0.87573 0.18095 0.31893 0.0
C439 C 0.86912 0.21221 0.30096 0.0
C440 C 0.91919 0.2777 0.29767 0.0
loop_
_geom_bond_atom_site_label_1
_geom_bond_atom_site_label_2
_geom_bond_distance
_geom_bond_site_symmetry_2
_ccdc_geom_bond_type
Mg0 O1 2.028 . S
Mg0 O7 1.986 . S
Mg0 O9 2.114 . S
Mg0 O10 2.251 . S
Mg0 O13 2.010 . S
O1 Mg0 2.028 . S
O1 C4 1.250 . S
O2 Mg3 2.028 . S
O2 C4 1.248 . S
Mg3 O2 2.028 . S
Mg3 O8 2.032 . S
Mg3 O10 2.079 . S
C4 O1 1.250 . S
C4 O2 1.248 . S
C5 O6 1.264 . S
C5 O13 1.249 . S
O6 C5 1.264 . S
O7 Mg0 1.986 . S
O7 C11 1.246 . S
O8 Mg3 2.032 . S
O8 C11 1.259 . S
O9 Mg0 2.114 . S
O9 C12 1.252 . S
O10 Mg0 2.251 . S
O10 Mg3 2.079 . S
O10 C12 1.273 . S
C11 O7 1.246 . S
C11 O8 1.259 . S
C12 O9 1.252 . S
C12 O10 1.273 . S
O13 Mg0 2.010 . S
O13 C5 1.249 . S
Mg14 O15 2.028 1_655 S
Mg14 O21 1.986 1_655 S
Mg14 O23 2.114 1_545 S
Mg14 O24 2.251 . S
Mg14 O27 2.010 1_545 S
O15 Mg14 2.028 1_455 S
O15 C18 1.250 . S
O16 Mg17 2.028 . S
O16 C18 1.248 . S
Mg17 O16 2.028 . S
Mg17 O22 2.032 . S
Mg17 O24 2.079 1_455 S
C18 O15 1.250 . S
C18 O16 1.248 . S
C19 O20 1.264 . S
C19 O27 1.249 . S
O20 C19 1.264 . S
O21 Mg14 1.986 1_455 S
O21 C25 1.246 . S
O22 Mg17 2.032 . S
O22 C25 1.259 . S
O23 Mg14 2.114 1_565 S
O23 C26 1.252 1_565 S
O24 Mg14 2.251 . S
O24 Mg17 2.079 1_655 S
O24 C26 1.273 . S
C25 O21 1.246 . S
C25 O22 1.259 . S
C26 O23 1.252 1_545 S
C26 O24 1.273 . S
O27 Mg14 2.010 1_565 S
O27 C19 1.249 . S
Mg28 O29 2.028 . S
Mg28 O35 1.986 1_455 S
Mg28 O37 2.114 1_545 S
Mg28 O38 2.251 1_455 S
Mg28 O41 2.010 . S
O29 Mg28 2.028 . S
O29 C32 1.250 . S
O30 Mg31 2.028 1_455 S
O30 C32 1.248 . S
Mg31 O30 2.028 1_655 S
Mg31 O36 2.032 . S
Mg31 O38 2.079 . S
C32 O29 1.250 . S
C32 O30 1.248 . S
C33 O34 1.264 1_545 S
C33 O41 1.249 . S
O34 C33 1.264 1_565 S
O35 Mg28 1.986 1_655 S
O35 C39 1.246 . S
O36 Mg31 2.032 . S
O36 C39 1.259 . S
O37 Mg28 2.114 1_565 S
O37 C40 1.252 1_455 S
O38 Mg28 2.251 1_655 S
O38 Mg31 2.079 . S
O38 C40 1.273 1_545 S
C39 O35 1.246 . S
C39 O36 1.259 . S
C40 O37 1.252 1_655 S
C40 O38 1.273 1_565 S
O41 Mg28 2.010 . S
O41 C33 1.249 . S
Mg42 O49 2.141 . S
Mg42 O50 2.048 . S
Mg42 O51 2.048 . S
Mg42 O54 2.141 . S
C43 O44 1.313 1_455 S
C43 O50 1.195 . S
O44 C43 1.313 1_655 S
C45 O46 1.245 1_455 S
C45 O54 1.289 . S
O46 C45 1.245 1_655 S
C47 O48 1.245 1_455 S
C47 O49 1.289 . S
O48 C47 1.245 1_655 S
O49 Mg42 2.141 . S
O49 C47 1.289 . S
O50 Mg42 2.048 . S
O50 C43 1.195 . S
O51 Mg42 2.048 . S
O51 C52 1.195 . S
C52 O51 1.195 . S
C52 O53 1.313 1_455 S
O53 C52 1.313 1_655 S
O54 Mg42 2.141 . S
O54 C45 1.289 . S
Mg55 O62 2.141 . S
Mg55 O63 2.048 . S
Mg55 O64 2.048 . S
Mg55 O67 2.141 . S
C56 O57 1.313 . S
C56 O63 1.195 . S
O57 C56 1.313 . S
C58 O59 1.245 . S
C58 O67 1.289 . S
O59 C58 1.245 . S
C60 O61 1.245 . S
C60 O62 1.289 . S
O61 C60 1.245 . S
O62 Mg55 2.141 . S
O62 C60 1.289 . S
O63 Mg55 2.048 . S
O63 C56 1.195 . S
O64 Mg55 2.048 . S
O64 C65 1.195 . S
C65 O64 1.195 . S
C65 O66 1.313 . S
O66 C65 1.313 . S
O67 Mg55 2.141 . S
O67 C58 1.289 . S
Mg68 O75 2.141 . S
Mg68 O76 2.048 . S
Mg68 O77 2.048 . S
Mg68 O80 2.141 . S
C69 O70 1.313 . S
C69 O76 1.195 . S
O70 C69 1.313 . S
C71 O72 1.245 . S
C71 O80 1.289 . S
O72 C71 1.245 . S
C73 O74 1.245 . S
C73 O75 1.289 . S
O74 C73 1.245 . S
O75 Mg68 2.141 . S
O75 C73 1.289 . S
O76 Mg68 2.048 . S
O76 C69 1.195 . S
O77 Mg68 2.048 . S
O77 C78 1.195 . S
C78 O77 1.195 . S
C78 O79 1.313 . S
O79 C78 1.313 . S
O80 Mg68 2.141 . S
O80 C71 1.289 . S
H81 C82 0.951 1_655 S
C82 H81 0.951 1_455 S
C82 C88 1.265 . S
H83 C88 0.950 . S
H84 C92 0.949 . S
H85 C93 0.950 . S
H86 C94 0.951 . S
H87 C95 0.951 . S
C88 C82 1.265 . S
C88 H83 0.950 . S
C88 C89 1.478 . S
C89 C88 1.478 . S
C89 C90 1.397 . S
C89 C106 1.394 . S
C90 C89 1.397 . S
C90 C91 1.438 . S
C90 C95 1.429 . S
C91 C90 1.438 . S
C91 C92 1.428 . S
C91 C104 1.394 . S
C92 H84 0.949 . S
C92 C91 1.428 . S
C92 C93 1.345 . S
C93 H85 0.950 . S
C93 C92 1.345 . S
C93 C94 1.424 . S
C94 H86 0.951 . S
C94 C93 1.424 . S
C94 C95 1.347 . S
C95 H87 0.951 . S
C95 C90 1.429 . S
C95 C94 1.347 . S
H96 C97 0.951 . S
C97 H96 0.951 . S
C97 C103 1.265 . S
H98 C103 0.950 1_655 S
H99 C107 0.954 . S
H100 C108 0.950 . S
H101 C109 0.951 . S
H102 C110 0.951 . S
C103 C97 1.265 . S
C103 H98 0.950 1_455 S
C103 C104 1.478 . S
C104 C91 1.394 . S
C104 C103 1.478 . S
C104 C105 1.397 . S
C105 C104 1.397 . S
C105 C106 1.438 . S
C105 C110 1.429 1_455 S
C106 C89 1.394 . S
C106 C105 1.438 . S
C106 C107 1.427 . S
C107 H99 0.954 . S
C107 C106 1.427 . S
C107 C108 1.341 1_455 S
C108 H100 0.950 . S
C108 C107 1.341 1_655 S
C108 C109 1.424 . S
C109 H101 0.951 . S
C109 C108 1.424 . S
C109 C110 1.347 . S
C110 H102 0.951 . S
C110 C105 1.429 1_655 S
C110 C109 1.347 . S
H111 C112 0.951 1_565 S
C112 H111 0.951 1_545 S
C112 C118 1.265 . S
H113 C118 0.950 . S
H114 C122 0.949 . S
H115 C123 0.950 . S
H116 C124 0.951 . S
H117 C125 0.951 . S
C118 C112 1.265 . S
C118 H113 0.950 . S
C118 C119 1.478 . S
C119 C118 1.478 . S
C119 C120 1.397 . S
C119 C136 1.394 . S
C120 C119 1.397 . S
C120 C121 1.438 . S
C120 C125 1.429 . S
C121 C120 1.438 . S
C121 C122 1.428 . S
C121 C134 1.394 . S
C122 H114 0.949 . S
C122 C121 1.428 . S
C122 C123 1.345 . S
C123 H115 0.950 . S
C123 C122 1.345 . S
C123 C124 1.424 . S
C124 H116 0.951 . S
C124 C123 1.424 . S
C124 C125 1.347 . S
C125 H117 0.951 . S
C125 C120 1.429 . S
C125 C124 1.347 . S
H126 C127 0.951 . S
C127 H126 0.951 . S
C127 C133 1.265 . S
H128 C133 0.950 . S
H129 C137 0.949 . S
H130 C138 0.950 . S
H131 C139 0.951 . S
H132 C140 0.951 . S
C133 C127 1.265 . S
C133 H128 0.950 . S
C133 C134 1.478 . S
C134 C121 1.394 . S
C134 C133 1.478 . S
C134 C135 1.397 . S
C135 C134 1.397 . S
C135 C136 1.438 . S
C135 C140 1.429 . S
C136 C119 1.394 . S
C136 C135 1.438 . S
C136 C137 1.428 . S
C137 H129 0.949 . S
C137 C136 1.428 . S
C137 C138 1.345 . S
C138 H130 0.950 . S
C138 C137 1.345 . S
C138 C139 1.424 . S
C139 H131 0.951 . S
C139 C138 1.424 . S
C139 C140 1.347 . S
C140 H132 0.951 . S
C140 C135 1.429 . S
C140 C139 1.347 . S
H141 C142 0.951 . S
C142 H141 0.951 . S
C142 C148 1.265 . S
H143 C148 0.950 . S
H144 C152 0.949 . S
H145 C153 0.950 . S
H146 C154 0.951 . S
H147 C155 0.951 . S
C148 C142 1.265 . S
C148 H143 0.950 . S
C148 C149 1.478 . S
C149 C148 1.478 . S
C149 C150 1.397 . S
C149 C166 1.394 . S
C150 C149 1.397 . S
C150 C151 1.438 . S
C150 C155 1.429 . S
C151 C150 1.438 . S
C151 C152 1.428 . S
C151 C164 1.394 . S
C152 H144 0.949 . S
C152 C151 1.428 . S
C152 C153 1.345 . S
C153 H145 0.950 . S
C153 C152 1.345 . S
C153 C154 1.424 . S
C154 H146 0.951 . S
C154 C153 1.424 . S
C154 C155 1.347 . S
C155 H147 0.951 . S
C155 C150 1.429 . S
C155 C154 1.347 . S
H156 C157 0.951 . S
C157 H156 0.951 . S
C157 C163 1.265 . S
H158 C163 0.950 . S
H159 C167 0.949 . S
H160 C168 0.950 1_545 S
H161 C169 0.951 . S
H162 C170 0.951 . S
C163 C157 1.265 . S
C163 H158 0.950 . S
C163 C164 1.478 . S
C164 C151 1.394 . S
C164 C163 1.478 . S
C164 C165 1.397 . S
C165 C164 1.397 . S
C165 C166 1.438 . S
C165 C170 1.429 . S
C166 C149 1.394 . S
C166 C165 1.438 . S
C166 C167 1.428 . S
C167 H159 0.949 . S
C167 C166 1.428 . S
C167 C168 1.345 . S
C168 H160 0.950 1_565 S
C168 C167 1.345 . S
C168 C169 1.424 . S
C169 H161 0.951 . S
C169 C168 1.424 . S
C169 C170 1.347 . S
C170 H162 0.951 . S
C170 C165 1.429 . S
C170 C169 1.347 . S
H171 C172 0.951 . S
C172 H171 0.951 . S
C172 C178 1.265 . S
H173 C178 0.950 . S
H174 C182 0.949 . S
H175 C183 0.950 . S
H176 C184 0.951 . S
H177 C185 0.951 . S
C178 C172 1.265 . S
C178 H173 0.950 . S
C178 C179 1.478 . S
C179 C178 1.478 . S
C179 C180 1.397 . S
C179 C196 1.394 . S
C180 C179 1.397 . S
C180 C181 1.438 . S
C180 C185 1.429 . S
C181 C180 1.438 . S
C181 C182 1.428 . S
C181 C194 1.394 . S
C182 H174 0.949 . S
C182 C181 1.428 . S
C182 C183 1.345 . S
C183 H175 0.950 . S
C183 C182 1.345 . S
C183 C184 1.424 . S
C184 H176 0.951 . S
C184 C183 1.424 . S
C184 C185 1.347 . S
C185 H177 0.951 . S
C185 C180 1.429 . S
C185 C184 1.347 . S
H186 C187 0.951 . S
C187 H186 0.951 . S
C187 C193 1.265 . S
H188 C193 0.950 . S
H189 C197 0.949 . S
H190 C198 0.950 1_545 S
H191 C199 0.951 . S
H192 C200 0.951 . S
C193 C187 1.265 . S
C193 H188 0.950 . S
C193 C194 1.478 . S
C194 C181 1.394 . S
C194 C193 1.478 . S
C194 C195 1.397 . S
C195 C194 1.397 . S
C195 C196 1.438 . S
C195 C200 1.429 . S
C196 C179 1.394 . S
C196 C195 1.438 . S
C196 C197 1.428 . S
C197 H189 0.949 . S
C197 C196 1.428 . S
C197 C198 1.345 . S
C198 H190 0.950 1_565 S
C198 C197 1.345 . S
C198 C199 1.424 . S
C199 H191 0.951 . S
C199 C198 1.424 . S
C199 C200 1.347 . S
C200 H192 0.951 . S
C200 C195 1.429 . S
C200 C199 1.347 . S
H201 C202 0.951 . S
C202 H201 0.951 . S
C202 C208 1.265 . S
H203 C208 0.950 . S
H204 C212 0.949 . S
H205 C213 0.950 . S
H206 C214 0.951 . S
H207 C215 0.951 . S
C208 C202 1.265 . S
C208 H203 0.950 . S
C208 C209 1.478 . S
C209 C208 1.478 . S
C209 C210 1.397 . S
C209 C226 1.394 . S
C210 C209 1.397 . S
C210 C211 1.438 . S
C210 C215 1.429 . S
C211 C210 1.438 . S
C211 C212 1.428 . S
C211 C224 1.394 . S
C212 H204 0.949 . S
C212 C211 1.428 . S
C212 C213 1.345 . S
C213 H205 0.950 . S
C213 C212 1.345 . S
C213 C214 1.424 . S
C214 H206 0.951 . S
C214 C213 1.424 . S
C214 C215 1.347 . S
C215 H207 0.951 . S
C215 C210 1.429 . S
C215 C214 1.347 . S
H216 C217 0.951 . S
C217 H216 0.951 . S
C217 C223 1.265 . S
H218 C223 0.950 . S
H219 C227 0.949 . S
H220 C228 0.950 . S
H221 C229 0.951 . S
H222 C230 0.951 . S
C223 C217 1.265 . S
C223 H218 0.950 . S
C223 C224 1.478 . S
C224 C211 1.394 . S
C224 C223 1.478 . S
C224 C225 1.397 . S
C225 C224 1.397 . S
C225 C226 1.438 . S
C225 C230 1.429 1_545 S
C226 C209 1.394 . S
C226 C225 1.438 . S
C226 C227 1.428 1_545 S
C227 H219 0.949 . S
C227 C226 1.428 1_565 S
C227 C228 1.345 . S
C228 H220 0.950 . S
C228 C227 1.345 . S
C228 C229 1.424 . S
C229 H221 0.951 . S
C229 C228 1.424 . S
C229 C230 1.347 . S
C230 H222 0.951 . S
C230 C225 1.429 1_565 S
C230 C229 1.347 . S
H231 C232 0.951 . S
C232 H231 0.951 . S
C232 C238 1.265 . S
H233 C238 0.950 . S
H234 C242 0.949 . S
H235 C243 0.950 . S
H236 C244 0.951 . S
H237 C245 0.951 . S
C238 C232 1.265 . S
C238 H233 0.950 . S
C238 C239 1.478 . S
C239 C238 1.478 . S
C239 C240 1.397 . S
C239 C256 1.394 . S
C240 C239 1.397 . S
C240 C241 1.438 . S
C240 C245 1.429 . S
C241 C240 1.438 . S
C241 C242 1.428 . S
C241 C254 1.394 . S
C242 H234 0.949 . S
C242 C241 1.428 . S
C242 C243 1.345 . S
C243 H235 0.950 . S
C243 C242 1.345 . S
C243 C244 1.424 . S
C244 H236 0.951 . S
C244 C243 1.424 . S
C244 C245 1.347 . S
C245 H237 0.951 . S
C245 C240 1.429 . S
C245 C244 1.347 . S
H246 C247 0.951 . S
C247 H246 0.951 . S
C247 C253 1.265 . S
H248 C253 0.950 . S
H249 C257 0.949 . S
H250 C258 0.950 . S
H251 C259 0.951 . S
H252 C260 0.951 . S
C253 C247 1.265 . S
C253 H248 0.950 . S
C253 C254 1.478 . S
C254 C241 1.394 . S
C254 C253 1.478 . S
C254 C255 1.397 . S
C255 C254 1.397 . S
C255 C256 1.438 . S
C255 C260 1.429 . S
C256 C239 1.394 . S
C256 C255 1.438 . S
C256 C257 1.428 . S
C257 H249 0.949 . S
C257 C256 1.428 . S
C257 C258 1.345 . S
C258 H250 0.950 . S
C258 C257 1.345 . S
C258 C259 1.424 . S
C259 H251 0.951 . S
C259 C258 1.424 . S
C259 C260 1.347 . S
C260 H252 0.951 . S
C260 C255 1.429 . S
C260 C259 1.347 . S
H261 C262 0.951 . S
C262 H261 0.951 . S
C262 C268 1.265 . S
H263 C268 0.950 . S
H264 C272 0.949 . S
H265 C273 0.950 . S
H266 C274 0.951 . S
H267 C275 0.951 . S
C268 C262 1.265 . S
C268 H263 0.950 . S
C268 C269 1.478 . S
C269 C268 1.478 . S
C269 C270 1.397 . S
C269 C286 1.394 . S
C270 C269 1.397 . S
C270 C271 1.438 . S
C270 C275 1.429 . S
C271 C270 1.438 . S
C271 C272 1.428 . S
C271 C284 1.394 . S
C272 H264 0.949 . S
C272 C271 1.428 . S
C272 C273 1.345 . S
C273 H265 0.950 . S
C273 C272 1.345 . S
C273 C274 1.424 . S
C274 H266 0.951 . S
C274 C273 1.424 . S
C274 C275 1.347 . S
C275 H267 0.951 . S
C275 C270 1.429 . S
C275 C274 1.347 . S
H276 C277 0.951 . S
C277 H276 0.951 . S
C277 C283 1.265 . S
H278 C283 0.950 . S
H279 C287 0.949 . S
H280 C288 0.950 . S
H281 C289 0.951 . S
H282 C290 0.951 . S
C283 C277 1.265 . S
C283 H278 0.950 . S
C283 C284 1.478 . S
C284 C271 1.394 . S
C284 C283 1.478 . S
C284 C285 1.397 . S
C285 C284 1.397 . S
C285 C286 1.438 . S
C285 C290 1.429 1_545 S
C286 C269 1.394 . S
C286 C285 1.438 . S
C286 C287 1.428 1_545 S
C287 H279 0.949 . S
C287 C286 1.428 1_565 S
C287 C288 1.345 . S
C288 H280 0.950 . S
C288 C287 1.345 . S
C288 C289 1.424 . S
C289 H281 0.951 . S
C289 C288 1.424 . S
C289 C290 1.347 . S
C290 H282 0.951 . S
C290 C285 1.429 1_565 S
C290 C289 1.347 . S
H291 C292 0.951 . S
C292 H291 0.951 . S
C292 C298 1.265 . S
H293 C298 0.950 . S
H294 C302 0.949 . S
H295 C303 0.950 . S
H296 C304 0.951 . S
H297 C305 0.951 . S
C298 C292 1.265 . S
C298 H293 0.950 . S
C298 C299 1.478 . S
C299 C298 1.478 . S
C299 C300 1.397 . S
C299 C316 1.394 . S
C300 C299 1.397 . S
C300 C301 1.438 1_554 S
C300 C305 1.429 . S
C301 C300 1.438 1_556 S
C301 C302 1.428 . S
C301 C314 1.394 . S
C302 H294 0.949 . S
C302 C301 1.428 . S
C302 C303 1.345 . S
C303 H295 0.950 . S
C303 C302 1.345 . S
C303 C304 1.424 1_556 S
C304 H296 0.951 . S
C304 C303 1.424 1_554 S
C304 C305 1.347 . S
C305 H297 0.951 . S
C305 C300 1.429 . S
C305 C304 1.347 . S
H306 C307 0.951 . S
C307 H306 0.951 . S
C307 C313 1.265 . S
H308 C313 0.950 . S
H309 C317 0.949 . S
H310 C318 0.958 1_455 S
H311 C319 0.951 . S
H312 C320 0.951 . S
C313 C307 1.265 . S
C313 H308 0.950 . S
C313 C314 1.478 . S
C314 C301 1.394 . S
C314 C313 1.478 . S
C314 C315 1.397 . S
C315 C314 1.397 . S
C315 C316 1.438 1_556 S
C315 C320 1.429 . S
C316 C299 1.394 . S
C316 C315 1.438 1_554 S
C316 C317 1.428 . S
C317 H309 0.949 . S
C317 C316 1.428 . S
C317 C318 1.361 . S
C318 H310 0.958 1_655 S
C318 C317 1.361 . S
C318 C319 1.400 1_554 S
C319 H311 0.951 . S
C319 C318 1.400 1_556 S
C319 C320 1.347 . S
C320 H312 0.951 . S
C320 C315 1.429 . S
C320 C319 1.347 . S
H321 C322 0.951 . S
C322 H321 0.951 . S
C322 C328 1.265 1_655 S
H323 C328 0.950 . S
H324 C332 0.949 . S
H325 C333 0.950 . S
H326 C334 0.951 . S
H327 C335 0.951 . S
C328 C322 1.265 1_455 S
C328 H323 0.950 . S
C328 C329 1.478 . S
C329 C328 1.478 . S
C329 C330 1.397 . S
C329 C346 1.394 1_455 S
C330 C329 1.397 . S
C330 C331 1.438 . S
C330 C335 1.429 . S
C331 C330 1.438 . S
C331 C332 1.428 . S
C331 C344 1.394 . S
C332 H324 0.949 . S
C332 C331 1.428 . S
C332 C333 1.345 . S
C333 H325 0.950 . S
C333 C332 1.345 . S
C333 C334 1.424 . S
C334 H326 0.951 . S
C334 C333 1.424 . S
C334 C335 1.347 . S
C335 H327 0.951 . S
C335 C330 1.429 . S
C335 C334 1.347 . S
H336 C337 0.951 . S
C337 H336 0.951 . S
C337 C343 1.265 1_455 S
H338 C343 0.950 . S
H339 C347 0.949 . S
H340 C348 0.950 . S
H341 C349 0.951 . S
H342 C350 0.951 . S
C343 C337 1.265 1_655 S
C343 H338 0.950 . S
C343 C344 1.478 1_655 S
C344 C331 1.394 . S
C344 C343 1.478 1_455 S
C344 C345 1.397 1_455 S
C345 C344 1.397 1_655 S
C345 C346 1.438 . S
C345 C350 1.429 . S
C346 C329 1.394 1_655 S
C346 C345 1.438 . S
C346 C347 1.428 . S
C347 H339 0.949 . S
C347 C346 1.428 . S
C347 C348 1.345 . S
C348 H340 0.950 . S
C348 C347 1.345 . S
C348 C349 1.424 . S
C349 H341 0.951 . S
C349 C348 1.424 . S
C349 C350 1.347 . S
C350 H342 0.951 . S
C350 C345 1.429 . S
C350 C349 1.347 . S
H351 C352 0.951 . S
C352 H351 0.951 . S
C352 C358 1.265 . S
H353 C358 0.950 . S
H354 C362 0.949 . S
H355 C363 0.950 . S
H356 C364 0.951 . S
H357 C365 0.951 1_565 S
C358 C352 1.265 . S
C358 H353 0.950 . S
C358 C359 1.478 . S
C359 C358 1.478 . S
C359 C360 1.397 . S
C359 C376 1.394 . S
C360 C359 1.397 . S
C360 C361 1.438 . S
C360 C365 1.429 . S
C361 C360 1.438 . S
C361 C362 1.428 . S
C361 C374 1.394 . S
C362 H354 0.949 . S
C362 C361 1.428 . S
C362 C363 1.345 1_545 S
C363 H355 0.950 . S
C363 C362 1.345 1_565 S
C363 C364 1.424 . S
C364 H356 0.951 . S
C364 C363 1.424 . S
C364 C365 1.347 1_565 S
C365 H357 0.951 1_545 S
C365 C360 1.429 . S
C365 C364 1.347 1_545 S
H366 C367 0.951 . S
C367 H366 0.951 . S
C367 C373 1.265 . S
H368 C373 0.950 . S
H369 C377 0.949 . S
H370 C378 0.950 . S
H371 C379 0.951 . S
H372 C380 0.951 . S
C373 C367 1.265 . S
C373 H368 0.950 . S
C373 C374 1.478 . S
C374 C361 1.394 . S
C374 C373 1.478 . S
C374 C375 1.397 . S
C375 C374 1.397 . S
C375 C376 1.438 . S
C375 C380 1.429 . S
C376 C359 1.394 . S
C376 C375 1.438 . S
C376 C377 1.428 . S
C377 H369 0.949 . S
C377 C376 1.428 . S
C377 C378 1.345 . S
C378 H370 0.950 . S
C378 C377 1.345 . S
C378 C379 1.424 . S
C379 H371 0.951 . S
C379 C378 1.424 . S
C379 C380 1.347 . S
C380 H372 0.951 . S
C380 C375 1.429 . S
C380 C379 1.347 . S
H381 C382 0.951 . S
C382 H381 0.951 . S
C382 C388 1.265 . S
H383 C388 0.950 . S
H384 C392 0.949 . S
H385 C393 0.950 . S
H386 C394 0.951 . S
H387 C395 0.951 . S
C388 C382 1.265 . S
C388 H383 0.950 . S
C388 C389 1.478 . S
C389 C388 1.478 . S
C389 C390 1.379 1_554 S
C389 C406 1.394 . S
C390 C389 1.379 1_556 S
C390 C391 1.460 . S
C390 C395 1.425 1_556 S
C391 C390 1.460 . S
C391 C392 1.428 . S
C391 C404 1.394 . S
C392 H384 0.949 . S
C392 C391 1.428 . S
C392 C393 1.345 . S
C393 H385 0.950 . S
C393 C392 1.345 . S
C393 C394 1.424 . S
C394 H386 0.951 . S
C394 C393 1.424 . S
C394 C395 1.347 1_556 S
C395 H387 0.951 . S
C395 C390 1.425 1_554 S
C395 C394 1.347 1_554 S
H396 C397 0.951 . S
C397 H396 0.951 . S
C397 C403 1.265 . S
H398 C403 0.950 . S
H399 C407 0.949 . S
H400 C408 0.950 . S
H401 C409 0.950 1_556 S
H402 C410 0.951 . S
C403 C397 1.265 . S
C403 H398 0.950 . S
C403 C404 1.478 . S
C404 C391 1.394 . S
C404 C403 1.478 . S
C404 C405 1.397 . S
C405 C404 1.397 . S
C405 C406 1.438 1_556 S
C405 C410 1.429 . S
C406 C389 1.394 . S
C406 C405 1.438 1_554 S
C406 C407 1.428 . S
C407 H399 0.949 . S
C407 C406 1.428 . S
C407 C408 1.345 . S
C408 H400 0.950 . S
C408 C407 1.345 . S
C408 C409 1.428 . S
C409 H401 0.950 1_554 S
C409 C408 1.428 . S
C409 C410 1.344 1_554 S
C410 H402 0.951 . S
C410 C405 1.429 . S
C410 C409 1.344 1_556 S
H411 C412 0.951 . S
C412 H411 0.951 . S
C412 C418 1.265 . S
H413 C418 0.950 . S
H414 C422 0.949 . S
H415 C423 0.950 . S
H416 C424 0.951 . S
H417 C425 0.951 . S
C418 C412 1.265 . S
C418 H413 0.950 . S
C418 C419 1.478 . S
C419 C418 1.478 . S
C419 C420 1.397 . S
C419 C436 1.397 . S
C420 C419 1.397 . S
C420 C421 1.438 . S
C420 C425 1.429 . S
C421 C420 1.438 . S
C421 C422 1.428 . S
C421 C434 1.394 . S
C422 H414 0.949 . S
C422 C421 1.428 . S
C422 C423 1.345 . S
C423 H415 0.950 . S
C423 C422 1.345 . S
C423 C424 1.424 . S
C424 H416 0.951 . S
C424 C423 1.424 . S
C424 C425 1.347 . S
C425 H417 0.951 . S
C425 C420 1.429 . S
C425 C424 1.347 . S
H426 C427 0.951 . S
C427 H426 0.951 . S
C427 C433 1.265 . S
H428 C433 0.950 . S
H429 C437 0.949 . S
H430 C438 0.950 . S
H431 C439 0.951 . S
H432 C440 0.951 . S
C433 C427 1.265 . S
C433 H428 0.950 . S
C433 C434 1.478 . S
C434 C421 1.394 . S
C434 C433 1.478 . S
C434 C435 1.397 . S
C435 C434 1.397 . S
C435 C436 1.436 . S
C435 C440 1.429 1_455 S
C436 C419 1.397 . S
C436 C435 1.436 . S
C436 C437 1.426 1_455 S
C437 H429 0.949 . S
C437 C436 1.426 1_655 S
C437 C438 1.345 . S
C438 H430 0.950 . S
C438 C437 1.345 . S
C438 C439 1.424 . S
C439 H431 0.951 . S
C439 C438 1.424 . S
C439 C440 1.347 . S
C440 H432 0.951 . S
C440 C435 1.429 1_655 S
C440 C439 1.347 . S
C97 C47 1.362 . S
C82 C11 1.349 . S
C112 C26 1.522 . S
C127 C65 1.523 . S
C142 C40 1.416 . S
C157 C78 1.417 . S
C172 C5 1.092 1_565 S
C187 C45 1.314 . S
C217 C56 1.521 . S
C202 C18 1.477 . S
C232 C32 1.421 . S
C247 C69 1.420 . S
C277 C58 1.218 . S
C262 C39 1.240 . S
C292 C4 1.300 1_665 S
C307 C71 1.351 . S
C337 C52 1.420 . S
C322 C19 1.162 . S
C367 C60 1.265 . S
C352 C33 0.999 . S
C397 C73 1.319 . S
C382 C12 1.324 . S
C412 C25 1.435 . S
C427 C43 1.420 . S
