# Generated by pormake.
# Topology ocu, (6,8)-cn, num edge types: 1
# Building blocks:
#     Node 0, Type 0, BuildingBlock: KUMJIN_clean_sbu_1, # of connection points: 6
#     Node 1, Type 0, BuildingBlock: KUMJIN_clean_sbu_1, # of connection points: 6
#     Node 2, Type 0, BuildingBlock: KUMJIN_clean_sbu_1, # of connection points: 6
#     Node 3, Type 0, BuildingBlock: KUMJIN_clean_sbu_1, # of connection points: 6
#     Node 4, Type 0, BuildingBlock: KUMJIN_clean_sbu_1, # of connection points: 6
#     Node 5, Type 0, BuildingBlock: KUMJIN_clean_sbu_1, # of connection points: 6
#     Node 6, Type 0, BuildingBlock: KUMJIN_clean_sbu_1, # of connection points: 6
#     Node 7, Type 0, BuildingBlock: KUMJIN_clean_sbu_1, # of connection points: 6
#     Node 8, Type 1, BuildingBlock: AJUNOK_clean_sbu_0, # of connection points: 8
#     Node 9, Type 1, BuildingBlock: AJUNOK_clean_sbu_0, # of connection points: 8
#     Node 10, Type 1, BuildingBlock: AJUNOK_clean_sbu_0, # of connection points: 8
#     Node 11, Type 1, BuildingBlock: AJUNOK_clean_sbu_0, # of connection points: 8
#     Node 12, Type 1, BuildingBlock: AJUNOK_clean_sbu_0, # of connection points: 8
#     Node 13, Type 1, BuildingBlock: AJUNOK_clean_sbu_0, # of connection points: 8
#     Edge 14, Type (0, 1), BuildingBlock: UVAHIK_clean_linker_0, # of connection points: 2
#     Edge 15, Type (0, 1), BuildingBlock: UVAHIK_clean_linker_0, # of connection points: 2
#     Edge 16, Type (0, 1), BuildingBlock: UVAHIK_clean_linker_0, # of connection points: 2
#     Edge 17, Type (0, 1), BuildingBlock: UVAHIK_clean_linker_0, # of connection points: 2
#     Edge 18, Type (0, 1), BuildingBlock: UVAHIK_clean_linker_0, # of connection points: 2
#     Edge 19, Type (0, 1), BuildingBlock: UVAHIK_clean_linker_0, # of connection points: 2
#     Edge 20, Type (0, 1), BuildingBlock: UVAHIK_clean_linker_0, # of connection points: 2
#     Edge 21, Type (0, 1), BuildingBlock: UVAHIK_clean_linker_0, # of connection points: 2
#     Edge 22, Type (0, 1), BuildingBlock: UVAHIK_clean_linker_0, # of connection points: 2
#     Edge 23, Type (0, 1), BuildingBlock: UVAHIK_clean_linker_0, # of connection points: 2
#     Edge 24, Type (0, 1), BuildingBlock: UVAHIK_clean_linker_0, # of connection points: 2
#     Edge 25, Type (0, 1), BuildingBlock: UVAHIK_clean_linker_0, # of connection points: 2
#     Edge 26, Type (0, 1), BuildingBlock: UVAHIK_clean_linker_0, # of connection points: 2
#     Edge 27, Type (0, 1), BuildingBlock: UVAHIK_clean_linker_0, # of connection points: 2
#     Edge 28, Type (0, 1), BuildingBlock: UVAHIK_clean_linker_0, # of connection points: 2
#     Edge 29, Type (0, 1), BuildingBlock: UVAHIK_clean_linker_0, # of connection points: 2
#     Edge 30, Type (0, 1), BuildingBlock: UVAHIK_clean_linker_0, # of connection points: 2
#     Edge 31, Type (0, 1), BuildingBlock: UVAHIK_clean_linker_0, # of connection points: 2
#     Edge 32, Type (0, 1), BuildingBlock: UVAHIK_clean_linker_0, # of connection points: 2
#     Edge 33, Type (0, 1), BuildingBlock: UVAHIK_clean_linker_0, # of connection points: 2
#     Edge 34, Type (0, 1), BuildingBlock: UVAHIK_clean_linker_0, # of connection points: 2
#     Edge 35, Type (0, 1), BuildingBlock: UVAHIK_clean_linker_0, # of connection points: 2
#     Edge 36, Type (0, 1), BuildingBlock: UVAHIK_clean_linker_0, # of connection points: 2
#     Edge 37, Type (0, 1), BuildingBlock: UVAHIK_clean_linker_0, # of connection points: 2
#     Edge 38, Type (0, 1), BuildingBlock: UVAHIK_clean_linker_0, # of connection points: 2
#     Edge 39, Type (0, 1), BuildingBlock: UVAHIK_clean_linker_0, # of connection points: 2
#     Edge 40, Type (0, 1), BuildingBlock: UVAHIK_clean_linker_0, # of connection points: 2
#     Edge 41, Type (0, 1), BuildingBlock: UVAHIK_clean_linker_0, # of connection points: 2
#     Edge 42, Type (0, 1), BuildingBlock: UVAHIK_clean_linker_0, # of connection points: 2
#     Edge 43, Type (0, 1), BuildingBlock: UVAHIK_clean_linker_0, # of connection points: 2
#     Edge 44, Type (0, 1), BuildingBlock: UVAHIK_clean_linker_0, # of connection points: 2
#     Edge 45, Type (0, 1), BuildingBlock: UVAHIK_clean_linker_0, # of connection points: 2
#     Edge 46, Type (0, 1), BuildingBlock: UVAHIK_clean_linker_0, # of connection points: 2
#     Edge 47, Type (0, 1), BuildingBlock: UVAHIK_clean_linker_0, # of connection points: 2
#     Edge 48, Type (0, 1), BuildingBlock: UVAHIK_clean_linker_0, # of connection points: 2
#     Edge 49, Type (0, 1), BuildingBlock: UVAHIK_clean_linker_0, # of connection points: 2
#     Edge 50, Type (0, 1), BuildingBlock: UVAHIK_clean_linker_0, # of connection points: 2
#     Edge 51, Type (0, 1), BuildingBlock: UVAHIK_clean_linker_0, # of connection points: 2
#     Edge 52, Type (0, 1), BuildingBlock: UVAHIK_clean_linker_0, # of connection points: 2
#     Edge 53, Type (0, 1), BuildingBlock: UVAHIK_clean_linker_0, # of connection points: 2
#     Edge 54, Type (0, 1), BuildingBlock: UVAHIK_clean_linker_0, # of connection points: 2
#     Edge 55, Type (0, 1), BuildingBlock: UVAHIK_clean_linker_0, # of connection points: 2
#     Edge 56, Type (0, 1), BuildingBlock: UVAHIK_clean_linker_0, # of connection points: 2
#     Edge 57, Type (0, 1), BuildingBlock: UVAHIK_clean_linker_0, # of connection points: 2
#     Edge 58, Type (0, 1), BuildingBlock: UVAHIK_clean_linker_0, # of connection points: 2
#     Edge 59, Type (0, 1), BuildingBlock: UVAHIK_clean_linker_0, # of connection points: 2
#     Edge 60, Type (0, 1), BuildingBlock: UVAHIK_clean_linker_0, # of connection points: 2
#     Edge 61, Type (0, 1), BuildingBlock: UVAHIK_clean_linker_0, # of connection points: 2
# Relax obj value: 0.123
# Max RMSD: 0.192
# Mean RMSD: 0.162
data_MOF--net-ocu--node1-KUMJIN_clean_sbu_1--node2-AJUNOK_clean_sbu_0--edge1-UVAHIK_clean_linker_0
_symmetry_space_group_name_H-M    P1
_symmetry_Int_Tables_number       1
_symmetry_cell_setting            triclinic
loop_
_symmetry_equiv_pos_as_xyz
'x, y, z'
_cell_length_a     55.447373
_cell_length_b     55.827954
_cell_length_c     49.042128
_cell_angle_alpha  103.07331
_cell_angle_beta   87.119739
_cell_angle_gamma 109.05446
loop_
_atom_site_label
_atom_site_type_symbol
_atom_site_fract_x
_atom_site_fract_y
_atom_site_fract_z
_atom_type_partial_charge
Eu0 Eu 0.21915 0.22849 0.20851 0.0
C1 C 0.29393 0.29592 0.31569 0.0
N2 N 0.29852 0.28624 0.28856 0.0
C3 C 0.33246 0.32586 0.28764 0.0
C4 C 0.3082 0.32136 0.32959 0.0
C5 C 0.31804 0.30046 0.27479 0.0
C6 C 0.3274 0.33644 0.31506 0.0
C7 C 0.27035 0.28954 0.35811 0.0
C8 C 0.27525 0.28016 0.32993 0.0
C9 C 0.28434 0.31497 0.37182 0.0
C10 C 0.30319 0.33082 0.35761 0.0
Eu11 Eu 0.2741 0.24244 0.27017 0.0
N12 N 0.26149 0.25579 0.31599 0.0
C13 C 0.25149 0.27304 0.37168 0.0
C14 C 0.244 0.23922 0.32941 0.0
C15 C 0.2384 0.24771 0.35732 0.0
H16 H 0.32319 0.29211 0.2542 0.0
H17 H 0.22425 0.23462 0.36784 0.0
H18 H 0.17022 0.18068 0.22809 0.0
H19 H 0.27064 0.22897 0.11119 0.0
H20 H 0.23473 0.21937 0.31869 0.0
H21 H 0.24717 0.27954 0.39334 0.0
H22 H 0.2594 0.24774 0.15901 0.0
H23 H 0.34777 0.3371 0.27653 0.0
H24 H 0.28082 0.32254 0.39347 0.0
H25 H 0.31396 0.35033 0.36857 0.0
H26 H 0.1465 0.13458 0.20929 0.0
H27 H 0.3388 0.35605 0.32504 0.0
H28 H 0.24827 0.18284 0.08916 0.0
N29 N 0.19498 0.18418 0.1935 0.0
C30 C 0.20013 0.17265 0.1673 0.0
C31 C 0.16171 0.14498 0.19741 0.0
C32 C 0.18641 0.14645 0.15541 0.0
C33 C 0.17559 0.17104 0.20826 0.0
C34 C 0.16723 0.13257 0.17096 0.0
N35 N 0.23245 0.21228 0.16413 0.0
C36 C 0.25031 0.22744 0.14974 0.0
C37 C 0.22464 0.17567 0.12489 0.0
C38 C 0.21913 0.18712 0.15212 0.0
C39 C 0.24359 0.1909 0.11021 0.0
C40 C 0.25636 0.21694 0.12262 0.0
H41 H 0.15628 0.11242 0.16254 0.0
H42 H 0.18163 0.11491 0.11889 0.0
H43 H 0.21498 0.14044 0.0922 0.0
O44 O 0.20899 0.25112 0.18114 0.0
O45 O 0.24485 0.20208 0.20277 0.0
O46 O 0.28369 0.22647 0.22535 0.0
O47 O 0.17964 0.22328 0.19996 0.0
O48 O 0.25207 0.26621 0.21391 0.0
O49 O 0.28618 0.25823 0.23132 0.0
O50 O 0.28235 0.21251 0.28903 0.0
O51 O 0.24506 0.26484 0.28344 0.0
O52 O 0.21486 0.25656 0.24812 0.0
O53 O 0.3122 0.24761 0.28331 0.0
O54 O 0.24084 0.20523 0.25948 0.0
O55 O 0.20676 0.21681 0.24929 0.0
C56 C 0.26961 0.2066 0.20643 0.0
C57 C 0.16333 0.24488 0.17101 0.0
C58 C 0.14538 0.26864 0.14522 0.0
C59 C 0.12098 0.25114 0.14757 0.0
C60 C 0.13843 0.2279 0.17276 0.0
C61 C 0.11757 0.23107 0.16124 0.0
C62 C 0.16678 0.26564 0.15723 0.0
C63 C 0.2765 0.27207 0.21951 0.0
C64 C 0.18462 0.24013 0.18422 0.0
C65 C 0.19202 0.135 0.12834 0.0
C66 C 0.21102 0.14956 0.11312 0.0
C67 C 0.22502 0.26838 0.27332 0.0
C68 C 0.32725 0.22018 0.30499 0.0
C69 C 0.34389 0.19644 0.3321 0.0
C70 C 0.3685 0.21388 0.33068 0.0
C71 C 0.35242 0.23697 0.30402 0.0
C72 C 0.32302 0.19942 0.31894 0.0
C73 C 0.3727 0.23381 0.31668 0.0
C74 C 0.21695 0.20421 0.26224 0.0
C75 C 0.30646 0.2265 0.29267 0.0
H76 H 0.10432 0.25316 0.13891 0.0
H77 H 0.13491 0.21192 0.18312 0.0
H78 H 0.09858 0.21784 0.16292 0.0
H79 H 0.1857 0.27909 0.15575 0.0
H80 H 0.38471 0.21191 0.34036 0.0
H81 H 0.35663 0.25301 0.29364 0.0
H82 H 0.3039 0.18623 0.3201 0.0
H83 H 0.39184 0.24704 0.31577 0.0
Eu84 Eu 0.72307 0.26058 0.24694 0.0
C85 C 0.80215 0.20232 0.18087 0.0
N86 N 0.77833 0.19169 0.18999 0.0
C87 C 0.76844 0.15846 0.14758 0.0
C88 C 0.80966 0.19197 0.15408 0.0
C89 C 0.76193 0.16928 0.17433 0.0
C90 C 0.79228 0.17007 0.13723 0.0
C91 C 0.84468 0.23375 0.19039 0.0
C92 C 0.81954 0.22288 0.19886 0.0
C93 C 0.85187 0.22419 0.1633 0.0
C94 C 0.83441 0.20334 0.14521 0.0
Eu95 Eu 0.76892 0.21271 0.23503 0.0
N96 N 0.81206 0.23188 0.22489 0.0
C97 C 0.86199 0.25363 0.20958 0.0
C98 C 0.82916 0.25025 0.2442 0.0
C99 C 0.85427 0.26168 0.23671 0.0
H100 H 0.74355 0.1599 0.18234 0.0
H101 H 0.86767 0.27666 0.25185 0.0
H102 H 0.75356 0.3087 0.30106 0.0
H103 H 0.62204 0.20028 0.23585 0.0
H104 H 0.82319 0.25637 0.26517 0.0
H105 H 0.88147 0.26249 0.20384 0.0
H106 H 0.66493 0.21926 0.21927 0.0
H107 H 0.75512 0.1411 0.13504 0.0
H108 H 0.87104 0.23245 0.15634 0.0
H109 H 0.84041 0.1958 0.1246 0.0
H110 H 0.74586 0.3257 0.35038 0.0
H111 H 0.79733 0.16157 0.11653 0.0
H112 H 0.61192 0.21355 0.28546 0.0
N113 N 0.71715 0.27945 0.29392 0.0
C114 C 0.6936 0.26979 0.30424 0.0
C115 C 0.7311 0.30978 0.33774 0.0
C116 C 0.68821 0.27932 0.33227 0.0
C117 C 0.73554 0.29978 0.30985 0.0
C118 C 0.70742 0.29933 0.3491 0.0
N119 N 0.68023 0.24189 0.25962 0.0
C120 C 0.66141 0.22468 0.24125 0.0
C121 C 0.65 0.24037 0.29685 0.0
C122 C 0.67468 0.25048 0.28668 0.0
C123 C 0.63109 0.22173 0.27844 0.0
C124 C 0.63675 0.21411 0.25045 0.0
H125 H 0.70402 0.30717 0.37071 0.0
H126 H 0.65943 0.27584 0.36404 0.0
H127 H 0.626 0.24177 0.33305 0.0
O128 O 0.69871 0.27182 0.22174 0.0
O129 O 0.72048 0.23506 0.27768 0.0
O130 O 0.72781 0.2 0.24831 0.0
O131 O 0.73012 0.30169 0.24766 0.0
O132 O 0.70805 0.22295 0.21516 0.0
O133 O 0.73961 0.20365 0.20066 0.0
O134 O 0.78917 0.20309 0.26699 0.0
O135 O 0.78487 0.25064 0.22149 0.0
O136 O 0.74811 0.25695 0.20904 0.0
O137 O 0.76435 0.1727 0.23459 0.0
O138 O 0.76964 0.24206 0.27549 0.0
O139 O 0.76396 0.27738 0.26308 0.0
C140 C 0.71865 0.21036 0.2715 0.0
C141 C 0.70461 0.31684 0.22048 0.0
C142 C 0.68161 0.3304 0.18879 0.0
C143 C 0.69235 0.35628 0.2034 0.0
C144 C 0.71525 0.34292 0.23462 0.0
C145 C 0.70911 0.36247 0.2261 0.0
C146 C 0.68778 0.31062 0.19733 0.0
C147 C 0.71739 0.20664 0.19802 0.0
C148 C 0.71128 0.29646 0.23004 0.0
C149 C 0.66384 0.26884 0.34254 0.0
C150 C 0.6448 0.24942 0.3249 0.0
C151 C 0.77289 0.26149 0.2082 0.0
C152 C 0.78488 0.15738 0.26607 0.0
C153 C 0.80484 0.14192 0.2988 0.0
C154 C 0.79307 0.11625 0.28396 0.0
C155 C 0.77345 0.13145 0.2516 0.0
C156 C 0.80095 0.16261 0.28962 0.0
C157 C 0.7776 0.11112 0.26048 0.0
C158 C 0.7754 0.26726 0.27807 0.0
C159 C 0.77979 0.1783 0.25585 0.0
H160 H 0.6878 0.37174 0.1971 0.0
H161 H 0.72823 0.34823 0.25241 0.0
H162 H 0.71735 0.38251 0.23717 0.0
H163 H 0.67947 0.29061 0.18608 0.0
H164 H 0.79606 0.1001 0.29044 0.0
H165 H 0.76123 0.12677 0.23329 0.0
H166 H 0.81001 0.18246 0.30094 0.0
H167 H 0.76874 0.09127 0.24913 0.0
Eu168 Eu 0.73978 0.70715 0.2716 0.0
C169 C 0.7986 0.78327 0.1805 0.0
N170 N 0.78731 0.78992 0.20505 0.0
C171 C 0.82276 0.82919 0.21824 0.0
C172 C 0.82308 0.7989 0.17451 0.0
C173 C 0.79834 0.8133 0.22306 0.0
C174 C 0.83541 0.82171 0.19413 0.0
C175 C 0.79515 0.75586 0.13368 0.0
C176 C 0.78486 0.76191 0.16026 0.0
C177 C 0.82007 0.77051 0.12833 0.0
C178 C 0.83403 0.79194 0.14872 0.0
Eu179 Eu 0.74701 0.75994 0.21161 0.0
N180 N 0.76081 0.74803 0.16591 0.0
C181 C 0.77974 0.73587 0.11293 0.0
C182 C 0.74522 0.72944 0.1454 0.0
C183 C 0.75449 0.72296 0.11865 0.0
H184 H 0.78841 0.81977 0.24132 0.0
H185 H 0.74224 0.7079 0.10257 0.0
H186 H 0.6913 0.64934 0.25102 0.0
H187 H 0.75733 0.77353 0.37426 0.0
H188 H 0.72576 0.71937 0.14984 0.0
H189 H 0.78692 0.73074 0.09222 0.0
H190 H 0.76876 0.75325 0.32735 0.0
H191 H 0.83171 0.84734 0.23297 0.0
H192 H 0.82843 0.76593 0.10817 0.0
H193 H 0.85293 0.80355 0.14394 0.0
H194 H 0.64851 0.62788 0.26666 0.0
H195 H 0.85422 0.8342 0.19032 0.0
H196 H 0.71354 0.75651 0.39106 0.0
N197 N 0.69848 0.68332 0.28412 0.0
C198 C 0.6908 0.69385 0.30953 0.0
C199 C 0.65998 0.64667 0.27862 0.0
C200 C 0.66656 0.68175 0.31956 0.0
C201 C 0.68414 0.65922 0.26956 0.0
C202 C 0.65092 0.65823 0.30342 0.0
N203 N 0.73151 0.72673 0.31718 0.0
C204 C 0.74952 0.74639 0.33427 0.0
C205 C 0.7005 0.7265 0.35335 0.0
C206 C 0.70775 0.7159 0.32655 0.0
C207 C 0.7184 0.74786 0.37034 0.0
C208 C 0.74313 0.75758 0.36092 0.0
H209 H 0.63226 0.64832 0.31049 0.0
H210 H 0.64039 0.68395 0.35365 0.0
H211 H 0.66996 0.7232 0.38306 0.0
O212 O 0.76958 0.70367 0.29881 0.0
O213 O 0.72278 0.74135 0.28436 0.0
O214 O 0.728 0.76985 0.25346 0.0
O215 O 0.7411 0.66976 0.27389 0.0
O216 O 0.77211 0.73867 0.2576 0.0
O217 O 0.77088 0.77729 0.25138 0.0
O218 O 0.71364 0.75527 0.18547 0.0
O219 O 0.76199 0.72453 0.19575 0.0
O220 O 0.76144 0.70087 0.23059 0.0
O221 O 0.73429 0.79266 0.21095 0.0
O222 O 0.72659 0.72703 0.22991 0.0
O223 O 0.7125 0.68746 0.23451 0.0
C224 C 0.71982 0.76188 0.27692 0.0
C225 C 0.76896 0.65903 0.30178 0.0
C226 C 0.79824 0.64581 0.32671 0.0
C227 C 0.7824 0.6199 0.31861 0.0
C228 C 0.75363 0.6327 0.29429 0.0
C229 C 0.76032 0.61345 0.3026 0.0
C230 C 0.79151 0.66563 0.31832 0.0
C231 C 0.77677 0.76367 0.26702 0.0
C232 C 0.7603 0.67831 0.29162 0.0
C233 C 0.65903 0.69287 0.34581 0.0
C234 C 0.6759 0.7152 0.36261 0.0
C235 C 0.76774 0.70638 0.20554 0.0
C236 C 0.71652 0.79361 0.16908 0.0
C237 C 0.69581 0.81379 0.1419 0.0
C238 C 0.71958 0.82523 0.13092 0.0
C239 C 0.73993 0.80513 0.15737 0.0
C240 C 0.69433 0.79809 0.16134 0.0
C241 C 0.74143 0.82096 0.13863 0.0
C242 C 0.71154 0.70376 0.22 0.0
C243 C 0.71638 0.78005 0.19191 0.0
H244 H 0.78719 0.6045 0.32476 0.0
H245 H 0.73621 0.62673 0.28186 0.0
H246 H 0.74829 0.59336 0.29654 0.0
H247 H 0.80367 0.68569 0.32438 0.0
H248 H 0.72126 0.8377 0.11641 0.0
H249 H 0.75728 0.80254 0.1634 0.0
H250 H 0.67622 0.78971 0.17054 0.0
H251 H 0.75967 0.83016 0.13024 0.0
Eu252 Eu 0.22157 0.75395 0.23474 0.0
C253 C 0.26472 0.69062 0.29953 0.0
N254 N 0.27668 0.71387 0.29268 0.0
C255 C 0.29823 0.73086 0.33741 0.0
C256 C 0.26888 0.68683 0.32614 0.0
C257 C 0.29354 0.73375 0.3108 0.0
C258 C 0.28582 0.70732 0.34514 0.0
C259 C 0.23585 0.64625 0.28662 0.0
C260 C 0.2483 0.67053 0.27984 0.0
C261 C 0.23978 0.64256 0.31323 0.0
C262 C 0.25629 0.66274 0.33288 0.0
Eu263 Eu 0.2699 0.71586 0.24661 0.0
N264 N 0.24505 0.67442 0.25396 0.0
C265 C 0.22027 0.62609 0.26623 0.0
C266 C 0.23129 0.65419 0.23349 0.0
C267 C 0.21822 0.63001 0.23948 0.0
H268 H 0.30371 0.75163 0.30448 0.0
H269 H 0.20707 0.6142 0.22323 0.0
H270 H 0.18566 0.71734 0.17848 0.0
H271 H 0.28751 0.8543 0.25329 0.0
H272 H 0.23096 0.65596 0.21218 0.0
H273 H 0.2104 0.60719 0.27065 0.0
H274 H 0.26364 0.8134 0.26611 0.0
H275 H 0.31162 0.74667 0.35181 0.0
H276 H 0.2304 0.62401 0.31869 0.0
H277 H 0.25934 0.65945 0.35318 0.0
H278 H 0.17559 0.72161 0.13155 0.0
H279 H 0.28963 0.70508 0.36572 0.0
H280 H 0.28124 0.86079 0.20632 0.0
N281 N 0.21268 0.75521 0.18901 0.0
C282 C 0.2241 0.77827 0.18154 0.0
C283 C 0.18938 0.73761 0.14532 0.0
C284 C 0.21873 0.78166 0.15512 0.0
C285 C 0.19531 0.7351 0.17168 0.0
C286 C 0.20114 0.76098 0.13699 0.0
N287 N 0.24649 0.79469 0.2256 0.0
C288 C 0.26196 0.81483 0.24491 0.0
C289 C 0.25412 0.82222 0.19238 0.0
C290 C 0.24169 0.79836 0.2001 0.0
C291 C 0.27131 0.84222 0.2115 0.0
C292 C 0.27504 0.83857 0.23795 0.0
H293 H 0.19645 0.76288 0.11657 0.0
H294 H 0.22718 0.80838 0.12737 0.0
H295 H 0.25814 0.84381 0.15991 0.0
O296 O 0.20398 0.78247 0.25509 0.0
O297 O 0.24828 0.74737 0.19933 0.0
O298 O 0.2835 0.74754 0.22233 0.0
O299 O 0.18012 0.74525 0.23187 0.0
O300 O 0.24643 0.77035 0.27458 0.0
O301 O 0.28192 0.75943 0.2586 0.0
O302 O 0.2888 0.68817 0.22715 0.0
O303 O 0.24343 0.7233 0.28197 0.0
O304 O 0.20822 0.72125 0.2578 0.0
O305 O 0.31137 0.72565 0.25111 0.0
O306 O 0.24525 0.69976 0.20658 0.0
O307 O 0.20943 0.71035 0.22216 0.0
C308 C 0.27301 0.75272 0.2019 0.0
C309 C 0.16493 0.76325 0.2747 0.0
C310 C 0.16009 0.77659 0.32478 0.0
C311 C 0.13458 0.76025 0.32205 0.0
C312 C 0.1393 0.7473 0.27197 0.0
C313 C 0.12433 0.74547 0.29572 0.0
C314 C 0.17537 0.77695 0.30135 0.0
C315 C 0.27066 0.7727 0.27716 0.0
C316 C 0.18082 0.7664 0.25005 0.0
C317 C 0.23111 0.80542 0.14756 0.0
C318 C 0.24879 0.82559 0.16608 0.0
C319 C 0.21871 0.71729 0.27903 0.0
C320 C 0.32808 0.70877 0.20876 0.0
C321 C 0.33434 0.69564 0.1589 0.0
C322 C 0.35995 0.71184 0.16264 0.0
C323 C 0.35373 0.72454 0.21243 0.0
C324 C 0.31826 0.69576 0.18171 0.0
C325 C 0.36942 0.72654 0.18926 0.0
C326 C 0.22096 0.69714 0.20383 0.0
C327 C 0.3116 0.70485 0.23289 0.0
H328 H 0.1222 0.76014 0.33986 0.0
H329 H 0.13085 0.73654 0.25156 0.0
H330 H 0.10448 0.73341 0.29356 0.0
H331 H 0.19508 0.78953 0.3039 0.0
H332 H 0.37303 0.71192 0.14547 0.0
H333 H 0.36166 0.73496 0.23313 0.0
H334 H 0.29835 0.68391 0.17848 0.0
H335 H 0.38928 0.73851 0.19213 0.0
Eu336 Eu 0.22529 0.75647 0.74569 0.0
C337 C 0.29878 0.6987 0.6741 0.0
N338 N 0.27537 0.68983 0.68518 0.0
C339 C 0.26016 0.65873 0.64206 0.0
C340 C 0.30344 0.68824 0.64609 0.0
C341 C 0.25647 0.66945 0.66995 0.0
C342 C 0.28366 0.66832 0.62999 0.0
C343 C 0.34293 0.72708 0.67996 0.0
C344 C 0.31839 0.718 0.6909 0.0
C345 C 0.34741 0.71693 0.652 0.0
C346 C 0.32773 0.6976 0.63513 0.0
Eu347 Eu 0.27168 0.70942 0.73262 0.0
N348 N 0.31358 0.72781 0.71786 0.0
C349 C 0.3624 0.74595 0.69753 0.0
C350 C 0.33287 0.74522 0.73544 0.0
C351 C 0.35739 0.75485 0.72546 0.0
H352 H 0.23867 0.66079 0.67929 0.0
H353 H 0.37252 0.76883 0.73945 0.0
H354 H 0.25224 0.80899 0.7975 0.0
H355 H 0.12569 0.69506 0.72916 0.0
H356 H 0.3298 0.75126 0.75742 0.0
H357 H 0.38148 0.75335 0.68991 0.0
H358 H 0.17062 0.71334 0.71597 0.0
H359 H 0.245 0.64279 0.63002 0.0
H360 H 0.36611 0.72374 0.64329 0.0
H361 H 0.33159 0.68979 0.61367 0.0
H362 H 0.24107 0.82953 0.84438 0.0
H363 H 0.28652 0.65979 0.60843 0.0
H364 H 0.11187 0.71137 0.7765 0.0
N365 N 0.21638 0.77884 0.79004 0.0
C366 C 0.1923 0.76937 0.79907 0.0
C367 C 0.22723 0.81253 0.83195 0.0
C368 C 0.185 0.78069 0.82554 0.0
C369 C 0.23351 0.8008 0.80548 0.0
C370 C 0.20296 0.80225 0.84218 0.0
N371 N 0.18192 0.73884 0.7557 0.0
C372 C 0.16464 0.72035 0.73668 0.0
C373 C 0.14915 0.73923 0.78974 0.0
C374 C 0.17454 0.74892 0.78135 0.0
C375 C 0.13155 0.71935 0.77083 0.0
C376 C 0.13927 0.71008 0.74408 0.0
H377 H 0.1981 0.81146 0.86265 0.0
H378 H 0.15406 0.77887 0.85465 0.0
H379 H 0.1227 0.74254 0.82335 0.0
O380 O 0.20533 0.76514 0.71293 0.0
O381 O 0.20888 0.71857 0.75915 0.0
O382 O 0.24422 0.70764 0.76912 0.0
O383 O 0.23031 0.7964 0.74469 0.0
O384 O 0.22542 0.727 0.70555 0.0
O385 O 0.23051 0.69164 0.71806 0.0
O386 O 0.29671 0.70104 0.75963 0.0
O387 O 0.27526 0.7366 0.7034 0.0
O388 O 0.26636 0.77039 0.73338 0.0
O389 O 0.27208 0.66984 0.72866 0.0
O390 O 0.28627 0.74766 0.76369 0.0
O391 O 0.25246 0.76226 0.7815 0.0
C392 C 0.22026 0.7072 0.77258 0.0
C393 C 0.21049 0.81035 0.71104 0.0
C394 C 0.18691 0.82437 0.68044 0.0
C395 C 0.20228 0.8502 0.69056 0.0
C396 C 0.22563 0.83643 0.72075 0.0
C397 C 0.22154 0.85615 0.71054 0.0
C398 C 0.19104 0.80432 0.69064 0.0
C399 C 0.21879 0.70187 0.70357 0.0
C400 C 0.21512 0.79011 0.72299 0.0
C401 C 0.15994 0.77055 0.8343 0.0
C402 C 0.14206 0.74987 0.81646 0.0
C403 C 0.27528 0.76079 0.70971 0.0
C404 C 0.28317 0.65916 0.76962 0.0
C405 C 0.29796 0.64599 0.80822 0.0
C406 C 0.27396 0.62694 0.80803 0.0
C407 C 0.25964 0.63938 0.7692 0.0
C408 C 0.30241 0.66214 0.78898 0.0
C409 C 0.255 0.62363 0.78854 0.0
C410 C 0.2759 0.7617 0.78275 0.0
C411 C 0.28842 0.67608 0.74936 0.0
H412 H 0.19922 0.86584 0.68306 0.0
H413 H 0.24071 0.84168 0.73637 0.0
H414 H 0.23325 0.87615 0.71825 0.0
H415 H 0.179 0.78438 0.6831 0.0
H416 H 0.27016 0.614 0.82234 0.0
H417 H 0.2449 0.63587 0.75376 0.0
H418 H 0.32089 0.67687 0.78894 0.0
H419 H 0.23678 0.6085 0.78813 0.0
Eu420 Eu 0.24097 0.2118 0.7757 0.0
C421 C 0.29411 0.2812 0.68 0.0
N422 N 0.28381 0.28736 0.70528 0.0
C423 C 0.31744 0.32817 0.71669 0.0
C424 C 0.31723 0.29812 0.6725 0.0
C425 C 0.29432 0.31094 0.72301 0.0
C426 C 0.32916 0.32155 0.69151 0.0
C427 C 0.28986 0.25308 0.63355 0.0
C428 C 0.28058 0.25887 0.66071 0.0
C429 C 0.31353 0.26919 0.62656 0.0
C430 C 0.3272 0.29163 0.64599 0.0
Eu431 Eu 0.24595 0.25608 0.71455 0.0
N432 N 0.25766 0.24368 0.66793 0.0
C433 C 0.27469 0.23174 0.61392 0.0
C434 C 0.24222 0.22361 0.64854 0.0
C435 C 0.25058 0.21721 0.62131 0.0
H436 H 0.28497 0.31612 0.74224 0.0
H437 H 0.23851 0.20101 0.60612 0.0
H438 H 0.19623 0.15258 0.74688 0.0
H439 H 0.24682 0.27076 0.88105 0.0
H440 H 0.22367 0.21227 0.65431 0.0
H441 H 0.28113 0.22672 0.59282 0.0
H442 H 0.26234 0.25684 0.83385 0.0
H443 H 0.32612 0.34657 0.73114 0.0
H444 H 0.32111 0.26487 0.60589 0.0
H445 H 0.34508 0.30425 0.63999 0.0
H446 H 0.15267 0.12757 0.7566 0.0
H447 H 0.34697 0.33503 0.68655 0.0
H448 H 0.20293 0.24782 0.89376 0.0
N449 N 0.19949 0.18385 0.78252 0.0
C450 C 0.18901 0.19166 0.80734 0.0
C451 C 0.16253 0.14575 0.77083 0.0
C452 C 0.16442 0.17703 0.8143 0.0
C453 C 0.18717 0.16046 0.76508 0.0
C454 C 0.15094 0.15427 0.79531 0.0
N455 N 0.22725 0.22713 0.82004 0.0
C456 C 0.24303 0.24705 0.83918 0.0
C457 C 0.19385 0.22074 0.85345 0.0
C458 C 0.20346 0.21347 0.82679 0.0
C459 C 0.2096 0.24175 0.87302 0.0
C460 C 0.23437 0.2548 0.86592 0.0
H461 H 0.13199 0.14259 0.79986 0.0
H462 H 0.13547 0.17404 0.84591 0.0
H463 H 0.16128 0.21214 0.88019 0.0
O464 O 0.27715 0.21168 0.7925 0.0
O465 O 0.21948 0.24236 0.78409 0.0
O466 O 0.23793 0.27473 0.75911 0.0
O467 O 0.24183 0.18297 0.79877 0.0
O468 O 0.26568 0.2533 0.78162 0.0
O469 O 0.28177 0.26578 0.7411 0.0
O470 O 0.21517 0.25452 0.68653 0.0
O471 O 0.25976 0.22043 0.69866 0.0
O472 O 0.26477 0.20328 0.73691 0.0
O473 O 0.23451 0.29012 0.71585 0.0
O474 O 0.21419 0.22566 0.72942 0.0
O475 O 0.22221 0.19001 0.73373 0.0
C476 C 0.2218 0.26509 0.77784 0.0
C477 C 0.27865 0.17067 0.79816 0.0
C478 C 0.30508 0.14875 0.8149 0.0
C479 C 0.2982 0.12914 0.79025 0.0
C480 C 0.27248 0.15088 0.77374 0.0
C481 C 0.28209 0.13023 0.76994 0.0
C482 C 0.29489 0.16947 0.81893 0.0
C483 C 0.2849 0.26339 0.76668 0.0
C484 C 0.26644 0.1912 0.80279 0.0
C485 C 0.15437 0.18499 0.84036 0.0
C486 C 0.16908 0.20667 0.85992 0.0
C487 C 0.26917 0.20603 0.71063 0.0
C488 C 0.21862 0.29479 0.67415 0.0
C489 C 0.19787 0.31461 0.64637 0.0
C490 C 0.22199 0.32801 0.63758 0.0
C491 C 0.24237 0.3085 0.66477 0.0
C492 C 0.19621 0.29802 0.66495 0.0
C493 C 0.24401 0.32502 0.64676 0.0
C494 C 0.21121 0.20119 0.71994 0.0
C495 C 0.21773 0.27914 0.6953 0.0
H496 H 0.30523 0.11275 0.78673 0.0
H497 H 0.25983 0.1512 0.75777 0.0
H498 H 0.27693 0.11489 0.75118 0.0
H499 H 0.29965 0.18459 0.83793 0.0
H500 H 0.2238 0.34109 0.62373 0.0
H501 H 0.25981 0.30691 0.67183 0.0
H502 H 0.17775 0.28792 0.6723 0.0
H503 H 0.26249 0.33573 0.64005 0.0
Eu504 Eu 0.72239 0.25359 0.73427 0.0
C505 C 0.76818 0.19015 0.7997 0.0
N506 N 0.77822 0.21376 0.7931 0.0
C507 C 0.79801 0.2323 0.8387 0.0
C508 C 0.77195 0.18703 0.82676 0.0
C509 C 0.79366 0.2345 0.81169 0.0
C510 C 0.78691 0.20853 0.84637 0.0
C511 C 0.74414 0.1442 0.78561 0.0
C512 C 0.75452 0.16893 0.77919 0.0
C513 C 0.74705 0.14128 0.81283 0.0
C514 C 0.76104 0.16259 0.83329 0.0
Eu515 Eu 0.77079 0.21556 0.74701 0.0
N516 N 0.75252 0.17213 0.75276 0.0
C517 C 0.73185 0.12289 0.76425 0.0
C518 C 0.74242 0.15092 0.73144 0.0
C519 C 0.73135 0.12622 0.73698 0.0
H520 H 0.80295 0.25266 0.8056 0.0
H521 H 0.72287 0.10965 0.72009 0.0
H522 H 0.68193 0.21999 0.6793 0.0
H523 H 0.77422 0.35772 0.76297 0.0
H524 H 0.74324 0.15265 0.70991 0.0
H525 H 0.72356 0.10364 0.76838 0.0
H526 H 0.75456 0.31366 0.77132 0.0
H527 H 0.81011 0.24886 0.85349 0.0
H528 H 0.73911 0.12245 0.81809 0.0
H529 H 0.76362 0.15988 0.85401 0.0
H530 H 0.67172 0.22596 0.63328 0.0
H531 H 0.79039 0.20685 0.8673 0.0
H532 H 0.76944 0.36614 0.71647 0.0
N533 N 0.7104 0.25713 0.69023 0.0
C534 C 0.72104 0.28085 0.68404 0.0
C535 C 0.68586 0.24144 0.64719 0.0
C536 C 0.71545 0.28529 0.65823 0.0
C537 C 0.69183 0.23804 0.67311 0.0
C538 C 0.69806 0.26502 0.63949 0.0
N539 N 0.74018 0.2969 0.72955 0.0
C540 C 0.75294 0.3169 0.75077 0.0
C541 C 0.74694 0.32627 0.69863 0.0
C542 C 0.73644 0.30123 0.70415 0.0
C543 C 0.76111 0.34663 0.71989 0.0
C544 C 0.76387 0.34197 0.74617 0.0
H545 H 0.69326 0.26768 0.61948 0.0
H546 H 0.72278 0.31364 0.63248 0.0
H547 H 0.75045 0.34944 0.66775 0.0
O548 O 0.69873 0.27745 0.751 0.0
O549 O 0.76349 0.26883 0.72243 0.0
O550 O 0.77465 0.23157 0.70788 0.0
O551 O 0.68134 0.23568 0.73835 0.0
O552 O 0.74354 0.26792 0.77642 0.0
O553 O 0.78129 0.25883 0.76505 0.0
O554 O 0.7952 0.19167 0.73397 0.0
O555 O 0.74282 0.22098 0.78072 0.0
O556 O 0.71105 0.21671 0.75086 0.0
O557 O 0.81218 0.23345 0.74634 0.0
O558 O 0.7386 0.19343 0.71445 0.0
O559 O 0.72534 0.22276 0.69718 0.0
C560 C 0.77683 0.25553 0.70693 0.0
C561 C 0.66501 0.2574 0.77783 0.0
C562 C 0.66357 0.27648 0.8274 0.0
C563 C 0.63834 0.25969 0.82776 0.0
C564 C 0.63988 0.24086 0.77843 0.0
C565 C 0.62673 0.24179 0.80346 0.0
C566 C 0.67703 0.27445 0.80255 0.0
C567 C 0.76799 0.2721 0.78079 0.0
C568 C 0.67833 0.25756 0.75128 0.0
C569 C 0.72667 0.30996 0.6523 0.0
C570 C 0.74241 0.33037 0.67241 0.0
C571 C 0.7185 0.21506 0.77511 0.0
C572 C 0.83052 0.21154 0.70896 0.0
C573 C 0.83354 0.19471 0.65895 0.0
C574 C 0.8596 0.20979 0.66076 0.0
C575 C 0.85643 0.2263 0.71035 0.0
C576 C 0.81896 0.19653 0.68309 0.0
C577 C 0.8708 0.22567 0.68621 0.0
C578 C 0.72604 0.19935 0.69621 0.0
C579 C 0.81576 0.21156 0.7346 0.0
H580 H 0.62712 0.26119 0.84641 0.0
H581 H 0.63037 0.2275 0.75951 0.0
H582 H 0.60721 0.22924 0.80382 0.0
H583 H 0.69658 0.28703 0.80227 0.0
H584 H 0.87174 0.20845 0.64288 0.0
H585 H 0.86555 0.2381 0.73013 0.0
H586 H 0.79878 0.18552 0.68195 0.0
H587 H 0.89091 0.23685 0.6874 0.0
Eu588 Eu 0.71722 0.72506 0.70434 0.0
C589 C 0.7973 0.78976 0.81686 0.0
N590 N 0.80229 0.77853 0.79056 0.0
C591 C 0.84281 0.812 0.79258 0.0
C592 C 0.81462 0.81327 0.8317 0.0
C593 C 0.82514 0.78857 0.77882 0.0
C594 C 0.83735 0.82463 0.81896 0.0
C595 C 0.77051 0.78726 0.85749 0.0
C596 C 0.77556 0.77691 0.82962 0.0
C597 C 0.78712 0.81124 0.87191 0.0
C598 C 0.80911 0.82422 0.85904 0.0
Eu599 Eu 0.77108 0.73942 0.76867 0.0
N600 N 0.75978 0.75382 0.81512 0.0
C601 C 0.74914 0.77297 0.87018 0.0
C602 C 0.73968 0.73921 0.82782 0.0
C603 C 0.73382 0.74869 0.85536 0.0
H604 H 0.82974 0.77834 0.75882 0.0
H605 H 0.7176 0.73722 0.86518 0.0
H606 H 0.66419 0.68068 0.72269 0.0
H607 H 0.77527 0.718 0.61171 0.0
H608 H 0.72819 0.7203 0.81667 0.0
H609 H 0.74459 0.78026 0.89154 0.0
H610 H 0.76272 0.73958 0.65732 0.0
H611 H 0.86071 0.82016 0.78294 0.0
H612 H 0.7834 0.81965 0.89321 0.0
H613 H 0.82206 0.84241 0.87065 0.0
H614 H 0.63839 0.63511 0.70445 0.0
H615 H 0.85115 0.84268 0.82967 0.0
H616 H 0.75079 0.6723 0.59041 0.0
N617 N 0.69106 0.68136 0.68997 0.0
C618 C 0.69706 0.66839 0.66491 0.0
C619 C 0.65498 0.64415 0.69329 0.0
C620 C 0.68225 0.64246 0.65335 0.0
C621 C 0.66999 0.6699 0.70385 0.0
C622 C 0.66119 0.63033 0.66802 0.0
N623 N 0.73208 0.70611 0.662 0.0
C624 C 0.75212 0.71956 0.64829 0.0
C625 C 0.72428 0.66818 0.62437 0.0
C626 C 0.71785 0.68115 0.6504 0.0
C627 C 0.74527 0.68161 0.61047 0.0
C628 C 0.75919 0.70742 0.62245 0.0
H629 H 0.64936 0.61044 0.6598 0.0
H630 H 0.67746 0.60963 0.61822 0.0
H631 H 0.71421 0.63208 0.59295 0.0
O632 O 0.71211 0.75294 0.68142 0.0
O633 O 0.74406 0.70023 0.7005 0.0
O634 O 0.78154 0.72783 0.7231 0.0
O635 O 0.68074 0.7188 0.68429 0.0
O636 O 0.75262 0.75939 0.70609 0.0
O637 O 0.78396 0.76869 0.74089 0.0
O638 O 0.77444 0.71165 0.79306 0.0
O639 O 0.74183 0.76147 0.78138 0.0
O640 O 0.7124 0.753 0.74473 0.0
O641 O 0.8054 0.7283 0.76792 0.0
O642 O 0.73666 0.70406 0.75364 0.0
O643 O 0.70183 0.71392 0.74448 0.0
C644 C 0.7689 0.70655 0.70506 0.0
C645 C 0.66986 0.75515 0.67866 0.0
C646 C 0.64754 0.77976 0.65991 0.0
C647 C 0.63202 0.77928 0.68342 0.0
C648 C 0.65395 0.75507 0.70187 0.0
C649 C 0.6353 0.76715 0.70424 0.0
C650 C 0.66665 0.76771 0.65761 0.0
C651 C 0.77447 0.77354 0.71925 0.0
C652 C 0.68807 0.74022 0.67531 0.0
C653 C 0.68867 0.62953 0.6274 0.0
C654 C 0.70959 0.64233 0.61298 0.0
C655 C 0.72215 0.76501 0.77031 0.0
C656 C 0.81708 0.71803 0.80871 0.0
C657 C 0.83886 0.70157 0.83949 0.0
C658 C 0.85654 0.72676 0.84745 0.0
C659 C 0.83495 0.74287 0.81788 0.0
C660 C 0.81917 0.6972 0.81959 0.0
C661 C 0.85451 0.74711 0.83684 0.0
C662 C 0.71322 0.70362 0.75911 0.0
C663 C 0.79796 0.71391 0.78621 0.0
H664 H 0.61714 0.78818 0.68555 0.0
H665 H 0.6556 0.74517 0.71795 0.0
H666 H 0.62305 0.76678 0.72215 0.0
H667 H 0.67846 0.76755 0.63932 0.0
H668 H 0.87239 0.73076 0.8617 0.0
H669 H 0.83429 0.75909 0.80992 0.0
H670 H 0.80569 0.67786 0.81262 0.0
H671 H 0.8684 0.76631 0.84313 0.0
Cd672 Cd 0.97914 0.96127 0.51969 0.0
Cd673 Cd 0.01312 0.01065 0.45645 0.0
C674 C 0.03264 0.95268 0.52839 0.0
N675 N 0.01017 0.94016 0.51379 0.0
C676 C 0.01863 0.89967 0.50584 0.0
C677 C 0.0408 0.91186 0.52284 0.0
C678 C 0.04836 0.93887 0.53303 0.0
C679 C 0.00336 0.91431 0.50168 0.0
H680 H 0.03761 0.97306 0.53822 0.0
H681 H 0.98508 0.90465 0.49079 0.0
C682 C 0.97206 0.95382 0.4438 0.0
C683 C 0.959 0.01975 0.44852 0.0
C684 C 0.94327 0.03445 0.44663 0.0
C685 C 0.9515 0.06123 0.45866 0.0
C686 C 0.97452 0.07211 0.47437 0.0
C687 C 0.98951 0.05661 0.47604 0.0
N688 N 0.98194 0.03117 0.46243 0.0
H689 H 0.9535 -0.00038 0.4375 0.0
H690 H 0.00799 0.06527 0.48664 0.0
C691 C 0.03385 0.96239 0.43806 0.0
N692 N 0.03731 0.98409 0.45877 0.0
C693 C 0.07032 0.97532 0.48012 0.0
C694 C 0.06651 0.95238 0.4595 0.0
C695 C 0.04804 0.94603 0.43821 0.0
C696 C 0.05558 -0.0089 0.4792 0.0
H697 H 0.0206 0.95803 0.42086 0.0
H698 H 0.05915 0.00914 0.49455 0.0
C699 C 0.02015 0.01877 0.53268 0.0
C700 C 0.94466 0.93044 0.55213 0.0
N701 N 0.95577 -0.01052 0.51993 0.0
C702 C 0.95932 0.01127 0.54065 0.0
C703 C 0.94465 0.02736 0.54088 0.0
C704 C 0.92548 0.02028 0.5203 0.0
C705 C 0.92183 -0.0024 0.49951 0.0
C706 C 0.93731 0.98241 0.4997 0.0
C707 C 0.0485 0.04162 0.42497 0.0
O708 O 0.97626 0.95885 0.46997 0.0
O709 O 0.98261 0.97134 0.43043 0.0
O710 O 0.01669 0.01449 0.50643 0.0
O711 O 0.00924 0.00077 0.54532 0.0
O712 O 0.94135 0.9255 0.52572 0.0
O713 O 0.96404 0.94929 0.56285 0.0
O714 O 0.04713 0.0497 0.45119 0.0
O715 O 0.03316 0.0195 0.41371 0.0
H716 H 0.97282 0.01587 0.55767 0.0
H717 H 0.93392 0.96452 0.4842 0.0
H718 H 0.01206 0.87879 0.49797 0.0
H719 H 0.06534 0.94889 0.54626 0.0
H720 H 0.92576 0.02535 0.43413 0.0
H721 H 0.98144 0.09264 0.4841 0.0
H722 H 0.08455 0.98106 0.49676 0.0
H723 H 0.04523 0.92912 0.42119 0.0
H724 H 0.94725 0.04431 0.55783 0.0
H725 H 0.90676 -0.00861 0.4837 0.0
Cd726 Cd 0.46556 0.97458 0.02754 0.0
Cd727 Cd 0.52403 -0.00395 0.9517 0.0
C728 C 0.50962 0.95919 0.05549 0.0
N729 N 0.49542 0.95243 0.03139 0.0
C730 C 0.51397 0.91883 0.01283 0.0
C731 C 0.52898 0.92572 0.03738 0.0
C732 C 0.52679 0.94634 0.05873 0.0
C733 C 0.49739 0.93265 0.01017 0.0
H734 H 0.50744 0.97444 0.07245 0.0
H735 H 0.4858 0.92728 -0.00869 0.0
C736 C 0.46963 0.95651 0.9534 0.0
C737 C 0.47789 0.01131 0.92738 0.0
C738 C 0.46127 0.02502 0.92494 0.0
C739 C 0.46192 0.04747 0.94527 0.0
C740 C 0.47925 0.05521 0.96808 0.0
C741 C 0.49525 0.04058 0.96999 0.0
N742 N 0.49441 0.01905 0.94973 0.0
H743 H 0.47787 -0.00531 0.91101 0.0
H744 H 0.50872 0.04675 0.98742 0.0
C745 C 0.53611 0.94204 0.91869 0.0
N746 N 0.54596 0.96337 0.93976 0.0
C747 C 0.58382 0.95112 0.94149 0.0
C748 C 0.57452 0.9294 0.919 0.0
C749 C 0.54988 0.92483 0.90824 0.0
C750 C 0.5693 0.96784 0.95145 0.0
H751 H 0.51781 0.93868 0.90917 0.0
H752 H 0.57721 -0.01501 0.96787 0.0
C753 C 0.52152 0.01493 0.02905 0.0
C754 C 0.43123 0.9383 0.05416 0.0
N755 N 0.44328 0.00667 0.03896 0.0
C756 C 0.45378 0.02968 0.05763 0.0
C757 C 0.43957 0.04656 0.06757 0.0
C758 C 0.41396 0.03994 0.05861 0.0
C759 C 0.40389 0.01633 0.03872 0.0
C760 C 0.41882 3e-05 0.02925 0.0
C761 C 0.55777 0.03175 0.92347 0.0
O762 O 0.47613 0.96924 0.97818 0.0
O763 O 0.48547 0.96078 0.93407 0.0
O764 O 0.51749 0.00521 0.00297 0.0
O765 O 0.50369 0.00848 0.04596 0.0
O766 O 0.42806 0.93673 0.02814 0.0
O767 O 0.44971 0.957 0.06718 0.0
O768 O 0.56283 0.03201 0.94861 0.0
O769 O 0.53776 0.0144 0.91169 0.0
H770 H 0.47297 0.03465 0.06575 0.0
H771 H 0.41051 0.98159 0.01472 0.0
H772 H 0.51507 0.90298 -0.0041 0.0
H773 H 0.53778 0.95199 0.07814 0.0
H774 H 0.44858 0.01858 0.90676 0.0
H775 H 0.48043 0.0724 0.98424 0.0
H776 H 0.60263 0.95593 0.95063 0.0
H777 H 0.54125 0.90823 0.89146 0.0
H778 H 0.44837 0.06418 0.0831 0.0
H779 H 0.38451 0.01026 0.03065 0.0
Cd780 Cd 0.96857 0.47724 0.03004 0.0
Cd781 Cd 0.0221 0.4945 0.95273 0.0
C782 C 0.00673 0.45789 0.06218 0.0
N783 N -0.00084 0.4562 0.03566 0.0
C784 C 0.02311 0.42717 0.01745 0.0
C785 C 0.03039 0.42783 0.04477 0.0
C786 C 0.02229 0.44389 0.06718 0.0
C787 C 0.00728 0.44139 0.01337 0.0
H788 H 0.00017 0.4697 0.07964 0.0
H789 H 0.00099 0.44002 -0.0076 0.0
C790 C 0.96726 0.45503 0.95392 0.0
C791 C 0.98411 0.51351 0.92038 0.0
C792 C 0.9686 0.52751 0.91533 0.0
C793 C 0.96054 0.54359 0.93774 0.0
C794 C 0.96775 0.54432 0.96508 0.0
C795 C 0.98354 0.5301 0.96921 0.0
N796 N 0.99163 0.51526 0.94693 0.0
H797 H 0.9907 0.50168 0.90298 0.0
H798 H 0.98987 0.53154 0.99019 0.0
C799 C 0.03618 0.44417 0.91665 0.0
N800 N 0.04317 0.46156 0.94162 0.0
C801 C 0.0773 0.44481 0.94696 0.0
C802 C 0.07112 0.42737 0.92061 0.0
C803 C 0.04978 0.42696 0.90587 0.0
C804 C 0.06318 0.46188 0.95699 0.0
H805 H 0.02052 0.44427 0.90445 0.0
H806 H 0.06887 0.47605 0.97656 0.0
C807 C 0.02333 0.51565 0.02792 0.0
C808 C 0.93338 0.4414 0.05656 0.0
N809 N 0.94699 0.51013 0.04102 0.0
C810 C 0.95358 0.52787 0.06582 0.0
C811 C 0.93998 0.54534 0.07573 0.0
C812 C 0.91895 0.54482 0.06028 0.0
C813 C 0.91283 0.52652 0.03443 0.0
C814 C 0.92706 0.50939 0.02522 0.0
C815 C 0.05775 0.53023 0.92642 0.0
O816 O 0.97349 0.4676 0.97893 0.0
O817 O 0.98326 0.46004 0.93487 0.0
O818 O 0.01612 0.50273 0.00329 0.0
O819 O 0.00785 0.51159 0.04762 0.0
O820 O 0.93418 0.43693 0.02996 0.0
O821 O 0.94829 0.46281 0.07028 0.0
O822 O 0.05635 0.53503 0.95299 0.0
O823 O 0.04317 0.50866 0.91266 0.0
H824 H 0.96901 0.52797 0.07854 0.0
H825 H 0.92168 0.49504 0.00574 0.0
H826 H 0.02878 0.41504 -0.0005 0.0
H827 H 0.02772 0.44539 0.08857 0.0
H828 H 0.96323 0.52607 0.89394 0.0
H829 H 0.96209 0.55651 0.98298 0.0
H830 H 0.09359 0.4461 0.95918 0.0
H831 H 0.04381 0.41369 0.88577 0.0
H832 H 0.94544 0.55855 0.09593 0.0
H833 H 0.89708 0.52529 0.02142 0.0
Cd834 Cd 0.47975 0.46137 0.02149 0.0
Cd835 Cd 0.51373 0.50967 0.95753 0.0
C836 C 0.53043 0.45116 0.03492 0.0
N837 N 0.51052 0.44018 0.01617 0.0
C838 C 0.52248 0.40169 0.00224 0.0
C839 C 0.54235 0.412 0.02271 0.0
C840 C 0.54657 0.43745 0.03852 0.0
C841 C 0.50657 0.41612 -0.00053 0.0
H842 H 0.53284 0.46997 0.04851 0.0
H843 H 0.4903 0.40758 0.98508 0.0
C844 C 0.47013 0.45864 0.95034 0.0
C845 C 0.46058 0.52119 0.9517 0.0
C846 C 0.44609 0.53652 0.9482 0.0
C847 C 0.45582 0.56351 0.95789 0.0
C848 C 0.47908 0.57441 0.97298 0.0
C849 C 0.49305 0.55828 0.97603 0.0
N850 N 0.48409 0.53233 0.9644 0.0
H851 H 0.45371 0.50075 0.94231 0.0
H852 H 0.51195 0.56675 0.98567 0.0
C853 C 0.52955 0.4582 0.945 0.0
N854 N 0.53614 0.48222 0.96229 0.0
C855 C 0.57329 0.4765 0.97871 0.0
C856 C 0.56736 0.45226 0.96006 0.0
C857 C 0.54471 0.44262 0.94396 0.0
C858 C 0.55739 0.49145 0.97926 0.0
H859 H 0.51351 0.45165 0.93056 0.0
H860 H 0.56292 0.51103 -0.00813 0.0
C861 C 0.52312 0.51973 0.0346 0.0
C862 C 0.44542 0.43139 0.05434 0.0
N863 N 0.4501 0.48068 0.01447 0.0
C864 C 0.45729 0.50698 0.01886 0.0
C865 C 0.43921 0.51921 0.01857 0.0
C866 C 0.41343 0.50423 0.01428 0.0
C867 C 0.40644 0.47708 0.00883 0.0
C868 C 0.42533 0.46558 0.00882 0.0
C869 C 0.54869 0.53906 0.92393 0.0
O870 O 0.48064 0.46609 0.97443 0.0
O871 O 0.47942 0.47238 0.93271 0.0
O872 O 0.52062 0.5172 0.00835 0.0
O873 O 0.50973 0.50187 0.04646 0.0
O874 O 0.44716 0.42212 0.02835 0.0
O875 O 0.46013 0.45421 0.06465 0.0
O876 O 0.54535 0.54891 0.94919 0.0
O877 O 0.53599 0.51543 0.91428 0.0
H878 H 0.47683 0.51869 0.02372 0.0
H879 H 0.42012 0.44469 0.00538 0.0
H880 H 0.51864 0.38235 0.98922 0.0
H881 H 0.56115 0.44626 0.05494 0.0
H882 H 0.42826 0.52759 0.93622 0.0
H883 H 0.48728 0.59527 0.98029 0.0
H884 H 0.59095 0.4846 -0.00901 0.0
H885 H 0.53977 0.42399 0.92919 0.0
H886 H 0.44518 0.54026 0.0232 0.0
H887 H 0.38661 0.46505 0.00548 0.0
Cd888 Cd 0.96744 0.47517 0.53104 0.0
Cd889 Cd 0.02515 0.49717 0.45464 0.0
C890 C 0.01611 0.46328 0.55529 0.0
N891 N -0.00206 0.45349 0.53439 0.0
C892 C 0.01223 0.41638 0.51857 0.0
C893 C 0.03119 0.42612 0.53994 0.0
C894 C 0.0331 0.45008 0.5582 0.0
C895 C -0.00413 0.4305 0.51606 0.0
H896 H 0.01719 0.48112 0.57021 0.0
H897 H 0.98116 0.42281 0.49976 0.0
C898 C 0.97145 0.45382 0.45524 0.0
C899 C 0.97677 0.5095 0.42965 0.0
C900 C 0.96045 0.52345 0.42678 0.0
C901 C 0.96316 0.54757 0.44508 0.0
C902 C 0.98196 0.55663 0.46655 0.0
C903 C -0.00245 0.54179 0.46902 0.0
N904 N -0.00508 0.51875 0.45057 0.0
H905 H 0.97525 0.49157 0.41466 0.0
H906 H 0.01224 0.54901 0.48532 0.0
C907 C 0.04044 0.44716 0.41861 0.0
N908 N 0.0477 0.46527 0.44307 0.0
C909 C 0.08299 0.44996 0.44802 0.0
C910 C 0.07645 0.43177 0.42219 0.0
C911 C 0.05442 0.43029 0.4079 0.0
C912 C 0.06846 0.46666 0.45799 0.0
H913 H 0.02419 0.44636 0.4067 0.0
H914 H 0.07436 0.48135 0.47717 0.0
C915 C 0.02053 0.51789 0.52899 0.0
C916 C 0.9335 0.43893 0.55816 0.0
N917 N 0.94424 0.50679 0.54214 0.0
C918 C 0.95473 0.53039 0.55989 0.0
C919 C 0.94038 0.54724 0.56922 0.0
C920 C 0.91459 0.53993 0.56079 0.0
C921 C 0.90438 0.51565 0.54203 0.0
C922 C 0.9195 0.49946 0.53295 0.0
C923 C 0.05926 0.53354 0.42788 0.0
O924 O 0.97542 0.46656 0.48044 0.0
O925 O 0.98812 0.46053 0.43725 0.0
O926 O 0.01584 0.50362 0.50454 0.0
O927 O 0.00453 0.51238 0.54791 0.0
O928 O 0.92934 0.43827 0.53263 0.0
O929 O 0.95282 0.45685 0.57072 0.0
O930 O 0.06114 0.53628 0.45432 0.0
O931 O 0.04215 0.51358 0.41447 0.0
H932 H 0.97406 0.53601 0.56779 0.0
H933 H 0.91116 0.48061 0.51916 0.0
H934 H 0.01003 0.39801 0.50397 0.0
H935 H 0.04708 0.45817 0.57529 0.0
H936 H 0.94649 0.5159 0.40968 0.0
H937 H 0.9847 0.5751 0.48115 0.0
H938 H 0.09983 0.45208 0.45983 0.0
H939 H 0.04823 0.41645 0.38817 0.0
H940 H 0.94923 0.56545 0.58392 0.0
H941 H 0.88474 0.50905 0.53456 0.0
Cd942 Cd 0.468 0.9759 0.52908 0.0
Cd943 Cd 0.52356 -0.00531 0.45247 0.0
C944 C 0.51457 0.9621 0.55553 0.0
N945 N 0.49884 0.95446 0.5325 0.0
C946 C 0.51566 0.91947 0.51422 0.0
C947 C 0.5318 0.92663 0.53804 0.0
C948 C 0.5313 0.94861 0.55861 0.0
C949 C 0.49935 0.93366 0.51187 0.0
H950 H 0.51373 0.97835 0.57199 0.0
H951 H 0.48664 0.92764 0.49379 0.0
C952 C 0.46844 0.95534 0.45358 0.0
C953 C 0.48424 0.01323 0.42091 0.0
C954 C 0.46853 0.02723 0.41632 0.0
C955 C 0.46157 0.04401 0.43889 0.0
C956 C 0.47016 0.04565 0.46592 0.0
C957 C 0.48615 0.0315 0.46956 0.0
N958 N 0.49307 0.01579 0.44715 0.0
H959 H 0.48994 0.00077 0.40336 0.0
H960 H 0.49355 0.03371 0.49026 0.0
C961 C 0.53654 0.94222 0.41802 0.0
N962 N 0.54482 0.96152 0.44142 0.0
C963 C 0.58025 0.94637 0.44618 0.0
C964 C 0.57239 0.92649 0.4217 0.0
C965 C 0.54986 0.92453 0.40795 0.0
C966 C 0.56623 0.96364 0.45565 0.0
H967 H 0.51995 0.94102 0.40642 0.0
H968 H 0.57295 0.97922 0.47395 0.0
C969 C 0.5214 0.01737 0.528 0.0
C970 C 0.43305 0.94026 0.55577 0.0
N971 N 0.44647 0.00886 0.54142 0.0
C972 C 0.45239 0.02544 0.56703 0.0
C973 C 0.43899 0.043 0.57734 0.0
C974 C 0.4188 0.04377 0.56152 0.0
C975 C 0.4133 0.02661 0.53491 0.0
C976 C 0.42736 0.00937 0.52527 0.0
C977 C 0.55921 0.03095 0.42641 0.0
O978 O 0.47491 0.96774 0.47854 0.0
O979 O 0.48438 0.96011 0.4344 0.0
O980 O 0.51639 0.00362 0.50325 0.0
O981 O 0.50513 0.012 0.54672 0.0
O982 O 0.42981 0.93903 0.52988 0.0
O983 O 0.45215 0.95825 0.56861 0.0
O984 O 0.55859 0.0349 0.45301 0.0
O985 O 0.54388 0.00992 0.41245 0.0
H986 H 0.46716 0.02456 0.57999 0.0
H987 H 0.42252 -0.00405 0.50511 0.0
H988 H 0.51542 0.90288 0.49762 0.0
H989 H 0.54298 0.95478 0.57755 0.0
H990 H 0.46217 0.02527 0.39516 0.0
H991 H 0.46542 0.05851 0.48388 0.0
H992 H 0.59725 0.94875 0.45786 0.0
H993 H 0.54301 0.91002 0.38882 0.0
H994 H 0.44392 0.0553 0.5981 0.0
H995 H 0.39819 0.02639 0.52161 0.0
C996 C 0.20147 0.16122 0.27492 0.0
C997 C 0.20011 0.18628 0.27785 0.0
C998 C 0.1848 0.14404 0.28942 0.0
C999 C 0.12481 0.13523 0.32945 0.0
H1000 H 0.14807 0.08686 0.35784 0.0
C1001 C 0.0764 0.08429 0.41693 0.0
C1002 C 0.06696 0.05715 0.4081 0.0
C1003 C 0.09296 0.09904 0.40008 0.0
C1004 C 0.14145 0.10027 0.34987 0.0
H1005 H 0.1813 0.21368 0.29832 0.0
H1006 H 0.15337 0.18448 0.3252 0.0
H1007 H 0.17664 0.11498 0.33001 0.0
H1008 H 0.0679 0.02391 0.37555 0.0
H1009 H 0.09765 0.04988 0.34644 0.0
H1010 H 0.09011 0.12127 0.3507 0.0
C1011 C 0.16622 0.17739 0.31079 0.0
C1012 C 0.15763 0.11621 0.33378 0.0
C1013 C 0.18231 0.19422 0.29564 0.0
C1014 C 0.07485 0.04487 0.38265 0.0
C1015 C 0.09186 0.05959 0.36612 0.0
C1016 C 0.10894 0.11975 0.34605 0.0
C1017 C 0.16704 0.15197 0.30764 0.0
C1018 C 0.14956 0.13406 0.32359 0.0
C1019 C 0.10067 0.08673 0.3746 0.0
C1020 C 0.11726 0.10236 0.35647 0.0
H1021 H 0.21498 0.15477 0.26094 0.0
H1022 H 0.18568 0.1245 0.28607 0.0
H1023 H 0.11764 0.14815 0.32129 0.0
H1024 H 0.0705 0.09413 0.43646 0.0
H1025 H 0.09972 0.12003 0.40686 0.0
C1026 C 0.81093 0.13276 0.34484 0.0
C1027 C 0.82105 0.14614 0.32368 0.0
C1028 C 0.82691 0.1314 0.36511 0.0
C1029 C 0.89287 0.13248 0.37233 0.0
H1030 H 0.87105 0.12189 0.44635 0.0
C1031 C 0.95186 0.10023 0.44143 0.0
C1032 C 0.938 0.07809 0.45146 0.0
C1033 C 0.93923 0.11402 0.43042 0.0
C1034 C 0.8774 0.12483 0.42575 0.0
H1035 H 0.85555 0.17008 0.30807 0.0
H1036 H 0.88374 0.16812 0.34392 0.0
H1037 H 0.84667 0.13846 0.41944 0.0
H1038 H 0.90007 0.05393 0.45931 0.0
H1039 H 0.87791 0.07827 0.44032 0.0
H1040 H 0.92335 0.11846 0.37848 0.0
C1041 C 0.86342 0.15833 0.34462 0.0
C1042 C 0.86345 0.13431 0.41029 0.0
C1043 C 0.8473 0.15975 0.32429 0.0
C1044 C 0.91122 0.07085 0.45161 0.0
C1045 C 0.89858 0.08488 0.44089 0.0
C1046 C 0.90694 0.12326 0.38789 0.0
C1047 C 0.85348 0.14334 0.36469 0.0
C1048 C 0.87059 0.13758 0.38305 0.0
C1049 C 0.91245 0.10617 0.42945 0.0
C1050 C 0.89903 0.11875 0.41449 0.0
H1051 H 0.79071 0.1221 0.34475 0.0
H1052 H 0.81849 0.11948 0.37995 0.0
H1053 H 0.89877 0.13428 0.3513 0.0
H1054 H 0.9725 0.10614 0.44076 0.0
H1055 H 0.95043 0.13047 0.42199 0.0
C1056 C 0.79189 0.80014 0.30793 0.0
C1057 C 0.79501 0.77792 0.29017 0.0
C1058 C 0.81048 0.81559 0.32825 0.0
C1059 C 0.86825 0.8502 0.33881 0.0
H1060 H 0.88475 0.84008 0.41045 0.0
C1061 C 0.95669 0.92031 0.40035 0.0
C1062 C 0.95402 0.92907 0.4291 0.0
C1063 C 0.93815 0.89868 0.38516 0.0
C1064 C 0.88029 0.84317 0.39054 0.0
H1065 H 0.81936 0.75383 0.27968 0.0
H1066 H 0.85257 0.78163 0.31503 0.0
H1067 H 0.84885 0.8074 0.38154 0.0
H1068 H 0.93102 0.92108 0.46509 0.0
H1069 H 0.89757 0.88404 0.43815 0.0
H1070 H 0.89883 0.88601 0.34752 0.0
C1071 C 0.83533 0.78646 0.31366 0.0
C1072 C 0.85996 0.82446 0.37407 0.0
C1073 C 0.81651 0.77075 0.29352 0.0
C1074 C 0.93325 0.91495 0.44281 0.0
C1075 C 0.91426 0.8936 0.42743 0.0
C1076 C 0.88846 0.8688 0.35512 0.0
C1077 C 0.83251 0.80912 0.33075 0.0
C1078 C 0.85395 0.82802 0.3482 0.0
C1079 C 0.91621 0.88574 0.39828 0.0
C1080 C 0.89481 0.86548 0.38112 0.0
H1081 H 0.77529 0.80577 0.30571 0.0
H1082 H 0.8082 0.83315 0.34128 0.0
H1083 H 0.86367 0.85316 0.31885 0.0
H1084 H 0.97291 0.93053 0.38945 0.0
H1085 H 0.94066 0.89255 0.36292 0.0
C1086 C 0.17761 0.82337 0.3464 0.0
C1087 C 0.16894 0.79767 0.34982 0.0
C1088 C 0.17835 0.84374 0.36896 0.0
C1089 C 0.13903 0.8481 0.43077 0.0
H1090 H 0.16247 0.92018 0.42536 0.0
C1091 C 0.07295 0.90906 0.44969 0.0
C1092 C 0.08302 0.93618 0.45861 0.0
C1093 C 0.08911 0.89408 0.44476 0.0
C1094 C 0.15603 0.90031 0.42786 0.0
H1095 H 0.1591 0.77327 0.3799 0.0
H1096 H 0.16208 0.80924 0.42011 0.0
H1097 H 0.18742 0.89247 0.40511 0.0
H1098 H 0.11774 0.96875 0.47094 0.0
H1099 H 0.14576 0.94244 0.46393 0.0
H1100 H 0.10799 0.85613 0.45407 0.0
C1101 C 0.1666 0.81355 0.39966 0.0
C1102 C 0.1702 0.88423 0.41584 0.0
C1103 C 0.16503 0.79295 0.37678 0.0
C1104 C 0.10936 0.94786 0.46428 0.0
C1105 C 0.12549 0.93282 0.45983 0.0
C1106 C 0.12533 0.86433 0.44349 0.0
C1107 C 0.17074 0.83876 0.39548 0.0
C1108 C 0.16108 0.85753 0.4157 0.0
C1109 C 0.11564 0.90585 0.44931 0.0
C1110 C 0.13293 0.89024 0.44093 0.0
H1111 H 0.18104 0.82756 0.32575 0.0
H1112 H 0.18197 0.86271 0.36454 0.0
H1113 H 0.13097 0.82771 0.43106 0.0
H1114 H 0.05265 0.89947 0.44565 0.0
H1115 H 0.0808 0.8734 0.43629 0.0
C1116 C 0.14393 0.82506 0.66991 0.0
C1117 C 0.16615 0.81953 0.66013 0.0
C1118 C 0.12773 0.82882 0.65155 0.0
C1119 C 0.10835 0.82341 0.57971 0.0
H1120 H 0.10752 0.8938 0.60834 0.0
C1121 C 0.06531 0.88003 0.51823 0.0
C1122 C 0.05314 0.89651 0.53481 0.0
C1123 C 0.07825 0.8673 0.5309 0.0
C1124 C 0.10714 0.87397 0.60013 0.0
H1125 H 0.1882 0.81198 0.62348 0.0
H1126 H 0.15946 0.81815 0.59102 0.0
H1127 H 0.12936 0.87507 0.63501 0.0
H1128 H 0.04315 0.91108 0.57707 0.0
H1129 H 0.0646 0.88847 0.59894 0.0
H1130 H 0.08548 0.82227 0.54495 0.0
C1131 C 0.15451 0.81935 0.61283 0.0
C1132 C 0.11976 0.86328 0.61544 0.0
C1133 C 0.17087 0.81575 0.63132 0.0
C1134 C 0.05293 0.89897 0.56389 0.0
C1135 C 0.06537 0.88609 0.57641 0.0
C1136 C 0.09525 0.83406 0.56441 0.0
C1137 C 0.13349 0.82715 0.62307 0.0
C1138 C 0.1202 0.83781 0.60569 0.0
C1139 C 0.07886 0.87068 0.56028 0.0
C1140 C 0.09412 0.85936 0.57477 0.0
H1141 H 0.14016 0.82845 0.69211 0.0
H1142 H 0.11158 0.83473 0.65994 0.0
H1143 H 0.10866 0.80378 0.57164 0.0
H1144 H 0.06545 0.87762 0.4957 0.0
H1145 H 0.08837 0.85552 0.51782 0.0
C1146 C 0.17618 0.1951 0.68683 0.0
C1147 C 0.19539 0.18656 0.69479 0.0
C1148 C 0.15936 0.17993 0.66463 0.0
C1149 C 0.13213 0.14541 0.60884 0.0
H1150 H 0.09943 0.07657 0.62284 0.0
C1151 C 0.05794 0.05885 0.53472 0.0
C1152 C 0.0382 0.04312 0.54826 0.0
C1153 C 0.0773 0.07954 0.5505 0.0
C1154 C 0.10831 0.09575 0.61871 0.0
H1155 H 0.21343 0.15668 0.68491 0.0
H1156 H 0.18376 0.12994 0.64604 0.0
H1157 H 0.13534 0.1067 0.65244 0.0
H1158 H 0.02147 0.03823 0.58841 0.0
H1159 H 0.05481 0.07456 0.61578 0.0
H1160 H 0.10465 0.1343 0.57512 0.0
C1161 C 0.18167 0.14824 0.65715 0.0
C1162 C 0.12904 0.11282 0.63539 0.0
C1163 C 0.19846 0.16338 0.67938 0.0
C1164 C 0.03685 0.04968 0.5775 0.0
C1165 C 0.05591 0.07042 0.59316 0.0
C1166 C 0.11141 0.12812 0.59182 0.0
C1167 C 0.16158 0.15607 0.65018 0.0
C1168 C 0.14102 0.13779 0.63072 0.0
C1169 C 0.07685 0.08481 0.57989 0.0
C1170 C 0.09914 0.10328 0.59695 0.0
H1171 H 0.17339 0.21289 0.69856 0.0
H1172 H 0.14377 0.18612 0.65983 0.0
H1173 H 0.14113 0.16469 0.60503 0.0
H1174 H 0.05919 0.05436 0.51214 0.0
H1175 H 0.09326 0.09044 0.53983 0.0
C1176 C 0.80717 0.14934 0.63596 0.0
C1177 C 0.82303 0.17418 0.63341 0.0
C1178 C 0.80489 0.12781 0.61409 0.0
C1179 C 0.83345 0.10726 0.54513 0.0
H1180 H 0.8529 0.06501 0.58715 0.0
C1181 C 0.91488 0.0611 0.52432 0.0
C1182 C 0.90694 0.0343 0.52308 0.0
C1183 C 0.8973 0.07457 0.53025 0.0
C1184 C 0.84712 0.07634 0.57506 0.0
H1185 H 0.84391 0.19657 0.60391 0.0
H1186 H 0.84159 0.15902 0.56668 0.0
H1187 H 0.82992 0.09377 0.61012 0.0
H1188 H 0.87495 0.0004 0.52672 0.0
H1189 H 0.84443 0.02422 0.53823 0.0
H1190 H 0.85311 0.09099 0.51075 0.0
C1191 C 0.83096 0.1559 0.58539 0.0
C1192 C 0.83362 0.09264 0.58805 0.0
C1193 C 0.8327 0.17751 0.607 0.0
C1194 C 0.88127 0.02102 0.52715 0.0
C1195 C 0.86389 0.03453 0.53367 0.0
C1196 C 0.84743 0.09117 0.53224 0.0
C1197 C 0.81908 0.1307 0.5898 0.0
C1198 C 0.82723 0.10892 0.57355 0.0
C1199 C 0.87187 0.06139 0.53562 0.0
C1200 C 0.85475 0.0761 0.54741 0.0
H1201 H 0.79884 0.14588 0.65572 0.0
H1202 H 0.79455 0.10866 0.6176 0.0
H1203 H 0.82863 0.11933 0.5333 0.0
H1204 H 0.93471 0.07163 0.52145 0.0
H1205 H 0.90382 0.09542 0.53217 0.0
C1206 C 0.78127 0.79892 0.682 0.0
C1207 C 0.79047 0.79472 0.70617 0.0
C1208 C 0.79714 0.8161 0.66705 0.0
C1209 C 0.85598 0.87046 0.66927 0.0
H1210 H 0.85867 0.83888 0.59057 0.0
C1211 C 0.93369 0.91766 0.59773 0.0
C1212 C 0.92664 0.91548 0.56995 0.0
C1213 C 0.91654 0.90409 0.61505 0.0
C1214 C 0.85786 0.84818 0.61236 0.0
H1215 H 0.82308 0.80742 0.73466 0.0
H1216 H 0.85085 0.8374 0.70847 0.0
H1217 H 0.82923 0.8144 0.62059 0.0
H1218 H 0.89614 0.89784 0.53851 0.0
H1219 H 0.86582 0.87459 0.56899 0.0
H1220 H 0.88442 0.90439 0.66101 0.0
C1221 C 0.83133 0.827 0.7011 0.0
C1222 C 0.84107 0.83412 0.62954 0.0
C1223 C 0.81543 0.80963 0.71603 0.0
C1224 C 0.90212 0.8996 0.55977 0.0
C1225 C 0.88482 0.88627 0.57722 0.0
C1226 C 0.87263 0.88468 0.65198 0.0
C1227 C 0.82248 0.82971 0.67604 0.0
C1228 C 0.84001 0.84512 0.65811 0.0
C1229 C 0.89188 0.88831 0.60502 0.0
C1230 C 0.8738 0.87363 0.62335 0.0
H1231 H 0.76203 0.7883 0.67386 0.0
H1232 H 0.78976 0.81826 0.64802 0.0
H1233 H 0.85536 0.87933 0.69124 0.0
H1234 H 0.95257 0.92972 0.60607 0.0
H1235 H 0.92275 0.90571 0.63617 0.0
C1236 C 0.30934 0.19842 0.18445 0.0
C1237 C 0.28274 0.18932 0.18799 0.0
C1238 C 0.32217 0.18225 0.16837 0.0
C1239 C 0.31735 0.1127 0.14204 0.0
H1240 H 0.37244 0.13982 0.09415 0.0
C1241 C 0.37148 0.04613 0.07522 0.0
C1242 C 0.39779 0.05698 0.07075 0.0
C1243 C 0.35671 0.06185 0.08772 0.0
C1244 C 0.3574 0.13184 0.10769 0.0
H1245 H 0.24889 0.15566 0.17667 0.0
H1246 H 0.27131 0.12728 0.14909 0.0
H1247 H 0.34843 0.16744 0.11876 0.0
H1248 H 0.42857 0.09368 0.07559 0.0
H1249 H 0.40331 0.12073 0.09783 0.0
H1250 H 0.32663 0.07734 0.13166 0.0
C1251 C 0.28229 0.14709 0.1588 0.0
C1252 C 0.34345 0.14781 0.12183 0.0
C1253 C 0.26934 0.16347 0.17452 0.0
C1254 C 0.40858 0.08427 0.0789 0.0
C1255 C 0.39383 0.09999 0.09144 0.0
C1256 C 0.33146 0.09679 0.12813 0.0
C1257 C 0.30899 0.15617 0.15552 0.0
C1258 C 0.32323 0.13861 0.1394 0.0
C1259 C 0.36759 0.08913 0.09635 0.0
C1260 C 0.3519 0.10604 0.11074 0.0
H1261 H 0.32042 0.21819 0.19423 0.0
H1262 H 0.34267 0.19009 0.16662 0.0
H1263 H 0.30221 0.10486 0.15559 0.0
H1264 H 0.36224 0.0253 0.06963 0.0
H1265 H 0.33662 0.05245 0.09051 0.0
C1266 C 0.80311 0.27035 0.17001 0.0
C1267 C 0.78799 0.27899 0.19111 0.0
C1268 C 0.81873 0.28748 0.15477 0.0
C1269 C 0.82939 0.35211 0.13885 0.0
H1270 H 0.89504 0.34539 0.11461 0.0
C1271 C 0.90942 0.43064 0.0987 0.0
C1272 C 0.91656 0.42234 0.07123 0.0
C1273 C 0.89401 0.41264 0.1131 0.0
C1274 C 0.87669 0.3473 0.12122 0.0
H1275 H 0.77704 0.3118 0.21339 0.0
H1276 H 0.80515 0.34227 0.1877 0.0
H1277 H 0.86742 0.31515 0.14099 0.0
H1278 H 0.91407 0.38889 0.03749 0.0
H1279 H 0.88739 0.35716 0.06319 0.0
H1280 H 0.8394 0.38502 0.12004 0.0
C1281 C 0.80446 0.32215 0.18205 0.0
C1282 C 0.86078 0.32996 0.13613 0.0
C1283 C 0.78844 0.30483 0.19686 0.0
C1284 C 0.90847 0.39573 0.05853 0.0
C1285 C 0.89348 0.37764 0.07321 0.0
C1286 C 0.84552 0.36972 0.12449 0.0
C1287 C 0.81982 0.31368 0.1608 0.0
C1288 C 0.83687 0.33211 0.14504 0.0
C1289 C 0.886 0.38608 0.10046 0.0
C1290 C 0.86917 0.36734 0.11552 0.0
H1291 H 0.80262 0.2503 0.1651 0.0
H1292 H 0.82978 0.28008 0.13816 0.0
H1293 H 0.81094 0.35407 0.14481 0.0
H1294 H 0.91556 0.45107 0.10897 0.0
H1295 H 0.88846 0.41942 0.13419 0.0
C1296 C 0.66433 0.80887 0.10459 0.0
C1297 C 0.67325 0.819 0.1325 0.0
C1298 C 0.64711 0.81795 0.09333 0.0
C1299 C 0.62647 0.87647 0.10451 0.0
H1300 H 0.57562 0.83369 0.04677 0.0
C1301 C 0.57221 0.92408 0.04786 0.0
C1302 C 0.54612 0.91107 0.04171 0.0
C1303 C 0.58776 0.91132 0.05588 0.0
C1304 C 0.58958 0.84599 0.063 0.0
H1305 H 0.67077 0.84628 0.17073 0.0
H1306 H 0.64025 0.86187 0.15143 0.0
H1307 H 0.60014 0.81377 0.06891 0.0
H1308 H 0.51603 0.87418 0.03796 0.0
H1309 H 0.54276 0.85205 0.05295 0.0
H1310 H 0.61551 0.90852 0.09942 0.0
C1311 C 0.64668 0.84699 0.13801 0.0
C1312 C 0.6039 0.83453 0.07556 0.0
C1313 C 0.66385 0.83778 0.14929 0.0
C1314 C 0.53612 0.88466 0.04251 0.0
C1315 C 0.55156 0.87197 0.05106 0.0
C1316 C 0.61212 0.88787 0.09209 0.0
C1317 C 0.63855 0.83771 0.10961 0.0
C1318 C 0.62256 0.8496 0.0966 0.0
C1319 C 0.57752 0.88532 0.05867 0.0
C1320 C 0.5934 0.87289 0.07109 0.0
H1321 H 0.67164 0.79472 0.09106 0.0
H1322 H 0.64162 0.8104 0.07139 0.0
H1323 H 0.64093 0.88893 0.12017 0.0
H1324 H 0.58049 0.94436 0.04703 0.0
H1325 H 0.60776 0.92212 0.06049 0.0
C1326 C 0.18072 0.66183 0.18775 0.0
C1327 C 0.20511 0.67689 0.18147 0.0
C1328 C 0.16427 0.64418 0.16653 0.0
C1329 C 0.14649 0.63213 0.09434 0.0
H1330 H 0.11422 0.56093 0.10158 0.0
C1331 C 0.04963 0.56155 0.04456 0.0
C1332 C 0.04819 0.53561 0.03394 0.0
C1333 C 0.07241 0.57972 0.05673 0.0
C1334 C 0.12337 0.58063 0.09903 0.0
H1335 H 0.23155 0.68602 0.14842 0.0
H1336 H 0.20217 0.6552 0.11066 0.0
H1337 H 0.14735 0.59059 0.13546 0.0
H1338 H 0.06889 0.50805 0.02655 0.0
H1339 H 0.10882 0.5398 0.04843 0.0
H1340 H 0.12145 0.62238 0.05863 0.0
C1341 C 0.19615 0.65683 0.13217 0.0
C1342 C 0.14214 0.59758 0.11847 0.0
C1343 C 0.21294 0.67413 0.15362 0.0
C1344 C 0.06994 0.52817 0.03421 0.0
C1345 C 0.09259 0.54621 0.04685 0.0
C1346 C 0.12734 0.61523 0.07506 0.0
C1347 C 0.17174 0.64173 0.13858 0.0
C1348 C 0.15369 0.62347 0.1164 0.0
C1349 C 0.09373 0.57191 0.05899 0.0
C1350 C 0.1156 0.58938 0.07737 0.0
H1351 H 0.17425 0.66388 0.20909 0.0
H1352 H 0.14544 0.63289 0.17188 0.0
H1353 H 0.15498 0.65217 0.09266 0.0
H1354 H 0.03279 0.56739 0.04477 0.0
H1355 H 0.07278 0.59936 0.06619 0.0
C1356 C 0.28514 0.78716 0.8318 0.0
C1357 C 0.29303 0.78155 0.80418 0.0
C1358 C 0.30165 0.80664 0.85186 0.0
C1359 C 0.35633 0.86572 0.8585 0.0
H1360 H 0.3702 0.85233 0.9294 0.0
C1361 C 0.42492 0.9448 0.93889 0.0
C1362 C 0.44471 0.93718 0.94674 0.0
C1363 C 0.40277 0.92607 0.92618 0.0
C1364 C 0.36629 0.8563 0.90976 0.0
H1365 H 0.32337 0.7923 0.77517 0.0
H1366 H 0.35233 0.82605 0.81021 0.0
H1367 H 0.33865 0.81858 0.89626 0.0
H1368 H 0.45729 0.90485 0.94893 0.0
H1369 H 0.41822 0.87177 0.92695 0.0
H1370 H 0.38453 0.90297 0.87134 0.0
C1371 C 0.33363 0.81535 0.81651 0.0
C1372 C 0.34824 0.83716 0.89096 0.0
C1373 C 0.31727 0.79581 0.79662 0.0
C1374 C 0.44183 0.91085 0.94339 0.0
C1375 C 0.41958 0.89206 0.93087 0.0
C1376 C 0.37421 0.88486 0.8773 0.0
C1377 C 0.32595 0.8209 0.84426 0.0
C1378 C 0.34344 0.84165 0.86506 0.0
C1379 C 0.40033 0.8996 0.92124 0.0
C1380 C 0.37951 0.8802 0.90294 0.0
H1381 H 0.26634 0.77643 0.83782 0.0
H1382 H 0.29534 0.81082 0.87314 0.0
H1383 H 0.35281 0.86961 0.83865 0.0
H1384 H 0.42724 0.9652 0.94106 0.0
H1385 H 0.3881 0.93227 0.91899 0.0
C1386 C 0.20204 0.30096 0.78295 0.0
C1387 C 0.20675 0.28163 0.79401 0.0
C1388 C 0.18737 0.31598 0.79741 0.0
C1389 C 0.16552 0.34057 0.86783 0.0
H1390 H 0.11253 0.34964 0.82671 0.0
C1391 C 0.09769 0.39802 0.92345 0.0
C1392 C 0.08727 0.41067 0.90765 0.0
C1393 C 0.11207 0.38191 0.91064 0.0
C1394 C 0.12753 0.34795 0.83867 0.0
H1395 H 0.19933 0.26351 0.82943 0.0
H1396 H 0.17478 0.29027 0.8552 0.0
H1397 H 0.13801 0.32349 0.80286 0.0
H1398 H 0.08535 0.417 0.86595 0.0
H1399 H 0.11062 0.39012 0.8441 0.0
H1400 H 0.15571 0.36568 0.90347 0.0
C1401 C 0.1823 0.29362 0.83509 0.0
C1402 C 0.14212 0.33263 0.82483 0.0
C1403 C 0.19643 0.27814 0.82024 0.0
C1404 C 0.09236 0.40718 0.87884 0.0
C1405 C 0.10693 0.39145 0.86617 0.0
C1406 C 0.1512 0.35635 0.88163 0.0
C1407 C 0.17732 0.31267 0.8238 0.0
C1408 C 0.16145 0.32874 0.83908 0.0
C1409 C 0.11687 0.37812 0.88161 0.0
C1410 C 0.13197 0.36056 0.86728 0.0
H1411 H 0.20934 0.30426 0.76277 0.0
H1412 H 0.1841 0.33045 0.78799 0.0
H1413 H 0.18029 0.33818 0.87956 0.0
H1414 H 0.09423 0.40007 0.94565 0.0
H1415 H 0.11898 0.37206 0.92356 0.0
C1416 C 0.70849 0.19551 0.81702 0.0
C1417 C 0.70003 0.19983 0.79261 0.0
C1418 C 0.69208 0.17813 0.83143 0.0
C1419 C 0.62561 0.14588 0.84501 0.0
H1420 H 0.65077 0.0924 0.85896 0.0
C1421 C 0.56288 0.05739 0.88696 0.0
C1422 C 0.57372 0.05127 0.90866 0.0
C1423 C 0.57766 0.07605 0.87289 0.0
C1424 C 0.64363 0.10738 0.85548 0.0
H1425 H 0.6669 0.19149 0.7659 0.0
H1426 H 0.63783 0.16173 0.79191 0.0
H1427 H 0.67735 0.1249 0.83451 0.0
H1428 H 0.60835 0.05966 0.93274 0.0
H1429 H 0.63447 0.09205 0.90765 0.0
H1430 H 0.5919 0.12839 0.86615 0.0
C1431 C 0.6575 0.17117 0.79918 0.0
C1432 C 0.65878 0.12591 0.84149 0.0
C1433 C 0.67415 0.18816 0.78432 0.0
C1434 C 0.59959 0.06408 0.91607 0.0
C1435 C 0.6145 0.08246 0.90165 0.0
C1436 C 0.61044 0.12734 0.85911 0.0
C1437 C 0.6666 0.1654 0.8223 0.0
C1438 C 0.65 0.14544 0.83636 0.0
C1439 C 0.60364 0.08865 0.87998 0.0
C1440 C 0.61942 0.10805 0.86465 0.0
H1441 H 0.72798 0.20507 0.82472 0.0
H1442 H 0.69938 0.17445 0.84961 0.0
H1443 H 0.61852 0.16086 0.84141 0.0
H1444 H 0.54287 0.04795 0.88105 0.0
H1445 H 0.56884 0.08035 0.85618 0.0
C1446 C 0.84993 0.68626 0.8803 0.0
C1447 C 0.84241 0.68061 0.85189 0.0
C1448 C 0.85848 0.66923 0.89118 0.0
C1449 C 0.88637 0.61579 0.86686 0.0
H1450 H 0.88539 0.61518 0.94582 0.0
C1451 C 0.95436 0.57478 0.91128 0.0
C1452 C 0.94597 0.56033 0.93196 0.0
C1453 C 0.94009 0.58889 0.90368 0.0
C1454 C 0.8857 0.61487 0.92365 0.0
H1455 H 0.83607 0.65122 0.8133 0.0
H1456 H 0.84989 0.62084 0.83249 0.0
H1457 H 0.86082 0.63787 0.92812 0.0
H1458 H 0.91643 0.55062 0.96204 0.0
H1459 H 0.89092 0.57481 0.94824 0.0
H1460 H 0.91051 0.59222 0.86212 0.0
C1461 C 0.85014 0.63907 0.84621 0.0
C1462 C 0.87177 0.62821 0.91345 0.0
C1463 C 0.84176 0.65633 0.83522 0.0
C1464 C 0.92335 0.56139 0.94585 0.0
C1465 C 0.90876 0.57534 0.93794 0.0
C1466 C 0.90005 0.60234 0.87697 0.0
C1467 C 0.85953 0.64566 0.87415 0.0
C1468 C 0.87219 0.62927 0.88489 0.0
C1469 C 0.91662 0.58879 0.91617 0.0
C1470 C 0.90045 0.60206 0.90561 0.0
H1471 H 0.85028 0.70456 0.894 0.0
H1472 H 0.86552 0.67535 0.91267 0.0
H1473 H 0.88766 0.6162 0.84487 0.0
H1474 H 0.97206 0.57503 0.90073 0.0
H1475 H 0.94748 0.59978 0.88771 0.0
C1476 C 0.13789 0.28281 0.1024 0.0
C1477 C 0.14683 0.28968 0.13038 0.0
C1478 C 0.13068 0.30021 0.09057 0.0
C1479 C 0.1069 0.3565 0.11424 0.0
H1480 H 0.1037 0.35382 0.03477 0.0
C1481 C 0.0377 0.39759 0.07203 0.0
C1482 C 0.04518 0.41115 0.05047 0.0
C1483 C 0.05214 0.38347 0.07933 0.0
C1484 C 0.10457 0.35505 0.05706 0.0
H1485 H 0.1567 0.32095 0.16728 0.0
H1486 H 0.14517 0.35181 0.14648 0.0
H1487 H 0.12822 0.33064 0.0519 0.0
H1488 H 0.07332 0.41917 0.01858 0.0
H1489 H 0.09903 0.39484 0.03172 0.0
H1490 H 0.08378 0.38116 0.11964 0.0
C1491 C 0.14311 0.33267 0.1337 0.0
C1492 C 0.11851 0.34148 0.06694 0.0
C1493 C 0.15027 0.31517 0.14556 0.0
C1494 C 0.06707 0.40913 0.03547 0.0
C1495 C 0.08179 0.3951 0.043 0.0
C1496 C 0.09315 0.37006 0.10443 0.0
C1497 C 0.13207 0.32508 0.10642 0.0
C1498 C 0.1196 0.34166 0.09572 0.0
C1499 C 0.07487 0.38256 0.06558 0.0
C1500 C 0.09123 0.36919 0.07565 0.0
H1501 H 0.13463 0.26317 0.0903 0.0
H1502 H 0.12227 0.29334 0.06964 0.0
H1503 H 0.10677 0.35704 0.13644 0.0
H1504 H 0.02056 0.39798 0.08349 0.0
H1505 H 0.04544 0.37332 0.09603 0.0
C1506 C 0.18781 0.69881 0.80922 0.0
C1507 C 0.20434 0.69022 0.7899 0.0
C1508 C 0.17183 0.68206 0.8247 0.0
C1509 C 0.16349 0.62034 0.84626 0.0
H1510 H 0.09479 0.6221 0.8625 0.0
C1511 C 0.08486 0.54034 0.88605 0.0
C1512 C 0.07486 0.5491 0.91179 0.0
C1513 C 0.10045 0.55811 0.87149 0.0
C1514 C 0.11399 0.6216 0.85817 0.0
H1515 H 0.21673 0.65768 0.77061 0.0
H1516 H 0.18883 0.62808 0.79726 0.0
H1517 H 0.12265 0.65208 0.83591 0.0
H1518 H 0.07236 0.58298 0.9422 0.0
H1519 H 0.09925 0.61428 0.91611 0.0
H1520 H 0.15432 0.58916 0.86767 0.0
C1521 C 0.18859 0.64789 0.80129 0.0
C1522 C 0.12999 0.63879 0.84313 0.0
C1523 C 0.20467 0.66475 0.78608 0.0
C1524 C 0.08025 0.57587 0.92257 0.0
C1525 C 0.09534 0.59367 0.90762 0.0
C1526 C 0.14735 0.60292 0.86083 0.0
C1527 C 0.17199 0.65635 0.82084 0.0
C1528 C 0.15495 0.63835 0.83703 0.0
C1529 C 0.1057 0.58486 0.88213 0.0
C1530 C 0.12257 0.60347 0.86691 0.0
H1531 H 0.18751 0.71853 0.81266 0.0
H1532 H 0.1596 0.68936 0.83987 0.0
H1533 H 0.18273 0.6198 0.84245 0.0
H1534 H 0.08081 0.51974 0.87731 0.0
H1535 H 0.10823 0.551 0.85178 0.0
C1536 C 0.31728 0.14763 0.86383 0.0
C1537 C 0.32319 0.14697 0.83546 0.0
C1538 C 0.33289 0.1419 0.8816 0.0
C1539 C 0.39738 0.13398 0.88618 0.0
H1540 H 0.36409 0.08673 0.93385 0.0
C1541 C 0.4558 0.09005 0.9435 0.0
C1542 C 0.44539 0.0631 0.9416 0.0
C1543 C 0.44098 0.10402 0.93637 0.0
C1544 C 0.37375 0.09992 0.92063 0.0
H1545 H 0.35079 0.14107 0.80407 0.0
H1546 H 0.37768 0.13122 0.83453 0.0
H1547 H 0.33884 0.105 0.91021 0.0
H1548 H 0.41072 0.03014 0.93257 0.0
H1549 H 0.38489 0.05433 0.92028 0.0
H1550 H 0.43204 0.12805 0.89545 0.0
C1551 C 0.3612 0.13619 0.8434 0.0
C1552 C 0.35925 0.11068 0.90729 0.0
C1553 C 0.34562 0.14168 0.82575 0.0
C1554 C 0.41941 0.05081 0.93393 0.0
C1555 C 0.40453 0.0648 0.92711 0.0
C1556 C 0.41183 0.12325 0.89948 0.0
C1557 C 0.35493 0.13571 0.87149 0.0
C1558 C 0.37073 0.12729 0.88916 0.0
C1559 C 0.41523 0.0915 0.92744 0.0
C1560 C 0.40018 0.1055 0.91634 0.0
H1561 H 0.30006 0.15147 0.87195 0.0
H1562 H 0.3275 0.14199 0.90315 0.0
H1563 H 0.40711 0.14708 0.87291 0.0
H1564 H 0.47574 0.10013 0.94931 0.0
H1565 H 0.44987 0.1246 0.93735 0.0
C1566 C 0.80299 0.31328 0.79578 0.0
C1567 C 0.78213 0.29372 0.80293 0.0
C1568 C 0.81966 0.33148 0.81655 0.0
C1569 C 0.84655 0.33705 0.88376 0.0
H1570 H 0.87074 0.41113 0.88675 0.0
C1571 C 0.94339 0.40987 0.9305 0.0
C1572 C 0.94316 0.43395 0.94671 0.0
C1573 C 0.92084 0.3915 0.9181 0.0
C1574 C 0.86388 0.39053 0.88641 0.0
H1575 H 0.7619 0.27739 0.83679 0.0
H1576 H 0.79165 0.30913 0.87353 0.0
H1577 H 0.83596 0.38253 0.85406 0.0
H1578 H 0.91968 0.45775 0.9637 0.0
H1579 H 0.88002 0.42572 0.94128 0.0
H1580 H 0.87539 0.34497 0.91518 0.0
C1581 C 0.79473 0.31066 0.85191 0.0
C1582 C 0.84417 0.37422 0.86764 0.0
C1583 C 0.77766 0.2928 0.8311 0.0
C1584 C 0.92003 0.43905 0.95161 0.0
C1585 C 0.89753 0.42091 0.93865 0.0
C1586 C 0.86657 0.35334 0.90225 0.0
C1587 C 0.81603 0.32991 0.84471 0.0
C1588 C 0.83543 0.34736 0.86609 0.0
C1589 C 0.89793 0.39731 0.9212 0.0
C1590 C 0.87539 0.38019 0.90365 0.0
H1591 H 0.80681 0.31394 0.77401 0.0
H1592 H 0.83608 0.34599 0.81049 0.0
H1593 H 0.84037 0.3163 0.88255 0.0
H1594 H 0.96121 0.40579 0.92639 0.0
H1595 H 0.92163 0.37352 0.90457 0.0
C1596 C 0.71522 0.79491 0.81626 0.0
C1597 C 0.70851 0.78251 0.78795 0.0
C1598 C 0.70189 0.81093 0.83212 0.0
C1599 C 0.65919 0.84912 0.82297 0.0
H1600 H 0.64203 0.84892 0.90048 0.0
C1601 C 0.58818 0.9008 0.87696 0.0
C1602 C 0.59061 0.91244 0.90584 0.0
C1603 C 0.60314 0.88545 0.86426 0.0
C1604 C 0.64685 0.84958 0.87894 0.0
H1605 H 0.68207 0.77807 0.75463 0.0
H1606 H 0.65915 0.80525 0.78172 0.0
H1607 H 0.66704 0.822 0.87592 0.0
H1608 H 0.61133 0.91614 0.94378 0.0
H1609 H 0.63781 0.89004 0.92157 0.0
H1610 H 0.6396 0.87682 0.82576 0.0
C1611 C 0.67487 0.8029 0.79188 0.0
C1612 C 0.66129 0.83398 0.86475 0.0
C1613 C 0.68803 0.78691 0.77622 0.0
C1614 C 0.6088 0.90793 0.92149 0.0
C1615 C 0.62393 0.89255 0.90869 0.0
C1616 C 0.64499 0.86475 0.83711 0.0
C1617 C 0.68153 0.8154 0.82012 0.0
C1618 C 0.66739 0.83314 0.83631 0.0
C1619 C 0.62155 0.88112 0.87969 0.0
C1620 C 0.63808 0.86507 0.86527 0.0
H1621 H 0.73085 0.79237 0.82622 0.0
H1622 H 0.70791 0.82024 0.85367 0.0
H1623 H 0.66391 0.84976 0.8014 0.0
H1624 H 0.57493 0.90386 0.86372 0.0
H1625 H 0.60002 0.8768 0.84211 0.0
C1626 C 0.78454 0.68723 0.15856 0.0
C1627 C 0.78323 0.6909 0.18795 0.0
C1628 C 0.79891 0.67217 0.14293 0.0
C1629 C 0.85177 0.6453 0.15153 0.0
H1630 H 0.82829 0.59987 0.07904 0.0
C1631 C 0.91504 0.58807 0.08767 0.0
C1632 C 0.90337 0.56271 0.07163 0.0
C1633 C 0.9006 0.60424 0.09974 0.0
C1634 C 0.83519 0.61229 0.09934 0.0
H1635 H 0.79668 0.68125 0.22355 0.0
H1636 H 0.82121 0.65553 0.19684 0.0
H1637 H 0.8031 0.62649 0.10373 0.0
H1638 H 0.86663 0.53513 0.05563 0.0
H1639 H 0.84156 0.56306 0.0767 0.0
H1640 H 0.88341 0.63086 0.14774 0.0
C1641 C 0.81137 0.66433 0.18557 0.0
C1642 C 0.82077 0.62792 0.11345 0.0
C1643 C 0.79693 0.67906 0.20103 0.0
C1644 C 0.8766 0.55449 0.06755 0.0
C1645 C 0.86209 0.57067 0.07975 0.0
C1646 C 0.86616 0.62981 0.13746 0.0
C1647 C 0.81276 0.66053 0.15619 0.0
C1648 C 0.82865 0.64458 0.14001 0.0
C1649 C 0.87375 0.5958 0.09647 0.0
C1650 C 0.8582 0.61283 0.1111 0.0
H1651 H 0.77418 0.69561 0.14755 0.0
H1652 H 0.79939 0.66996 0.12042 0.0
H1653 H 0.85897 0.65801 0.17162 0.0
H1654 H 0.93556 0.59563 0.09091 0.0
H1655 H 0.91071 0.62356 0.11164 0.0
C1656 C 0.31511 0.78405 0.19421 0.0
C1657 C 0.28998 0.76941 0.18471 0.0
C1658 C 0.33055 0.80194 0.17971 0.0
C1659 C 0.327 0.84205 0.13146 0.0
H1660 H 0.39801 0.84741 0.11858 0.0
C1661 C 0.39048 0.90296 0.05808 0.0
C1662 C 0.41479 0.91896 0.06887 0.0
C1663 C 0.37507 0.88485 0.0725 0.0
C1664 C 0.37826 0.84624 0.12225 0.0
H1665 H 0.26197 0.76066 0.15156 0.0
H1666 H 0.28881 0.79252 0.12649 0.0
H1667 H 0.37139 0.81482 0.14289 0.0
H1668 H 0.44236 0.92837 0.10279 0.0
H1669 H 0.41558 0.89648 0.12767 0.0
H1670 H 0.33393 0.87345 0.11069 0.0
C1671 C 0.29634 0.7904 0.14544 0.0
C1672 C 0.36306 0.82764 0.13614 0.0
C1673 C 0.28098 0.77224 0.15979 0.0
C1674 C 0.42358 0.91639 0.0941 0.0
C1675 C 0.40836 0.89806 0.10826 0.0
C1676 C 0.34219 0.8606 0.11747 0.0
C1677 C 0.32118 0.80558 0.15545 0.0
C1678 C 0.33727 0.8253 0.14076 0.0
C1679 C 0.38395 0.8822 0.09764 0.0
C1680 C 0.36791 0.86277 0.11267 0.0
H1681 H 0.32268 0.78232 0.21335 0.0
H1682 H 0.34959 0.81347 0.18796 0.0
H1683 H 0.3073 0.84099 0.13528 0.0
H1684 H 0.3833 0.90461 0.03868 0.0
H1685 H 0.35636 0.87265 0.06381 0.0
C1686 C 0.67883 0.16945 0.18354 0.0
C1687 C 0.70038 0.18802 0.17612 0.0
C1688 C 0.66289 0.15062 0.16276 0.0
C1689 C 0.63673 0.1368 0.09528 0.0
H1690 H 0.62762 0.06473 0.09471 0.0
C1691 C 0.56184 0.05026 0.02444 0.0
C1692 C 0.54604 0.03351 0.0402 0.0
C1693 C 0.58445 0.06892 0.03646 0.0
C1694 C 0.63019 0.08478 0.09448 0.0
H1695 H 0.72256 0.20253 0.14225 0.0
H1696 H 0.69367 0.16976 0.10532 0.0
H1697 H 0.66012 0.09934 0.1257 0.0
H1698 H 0.54135 0.02221 0.08019 0.0
H1699 H 0.58058 0.0546 0.10105 0.0
H1700 H 0.60555 0.12227 0.0655 0.0
C1701 C 0.68948 0.16964 0.12711 0.0
C1702 C 0.64867 0.10441 0.11209 0.0
C1703 C 0.70583 0.18815 0.14798 0.0
C1704 C 0.55326 0.03505 0.06768 0.0
C1705 C 0.57579 0.05338 0.07951 0.0
C1706 C 0.618 0.1171 0.07779 0.0
C1707 C 0.6682 0.15066 0.13452 0.0
C1708 C 0.65153 0.13042 0.11302 0.0
C1709 C 0.59147 0.07056 0.06409 0.0
C1710 C 0.61417 0.091 0.07795 0.0
H1711 H 0.67469 0.16922 0.20534 0.0
H1712 H 0.64642 0.13605 0.16866 0.0
H1713 H 0.63869 0.15691 0.09612 0.0
H1714 H 0.55635 0.04945 0.0033 0.0
H1715 H 0.5963 0.08216 0.02434 0.0
C1716 C 0.67433 0.68898 0.78649 0.0
C1717 C 0.6975 0.68606 0.77614 0.0
C1718 C 0.65941 0.67254 0.80284 0.0
C1719 C 0.64375 0.6084 0.8163 0.0
H1720 H 0.62092 0.63875 0.88777 0.0
C1721 C 0.58391 0.54543 0.89016 0.0
C1722 C 0.56596 0.55469 0.90638 0.0
C1723 C 0.60102 0.561 0.87434 0.0
C1724 C 0.62672 0.62988 0.86766 0.0
H1725 H 0.72334 0.66379 0.77462 0.0
H1726 H 0.69682 0.63466 0.80293 0.0
H1727 H 0.64879 0.66692 0.85987 0.0
H1728 H 0.55045 0.58635 0.91799 0.0
H1729 H 0.57899 0.61288 0.88897 0.0
H1730 H 0.62088 0.57139 0.82331 0.0
C1731 C 0.69037 0.64972 0.79837 0.0
C1732 C 0.64285 0.64607 0.85186 0.0
C1733 C 0.7055 0.66641 0.78232 0.0
C1734 C 0.56458 0.57916 0.90594 0.0
C1735 C 0.58108 0.59438 0.88949 0.0
C1736 C 0.62717 0.59215 0.83187 0.0
C1737 C 0.66729 0.65277 0.80881 0.0
C1738 C 0.65131 0.63546 0.826 0.0
C1739 C 0.59987 0.58575 0.87392 0.0
C1740 C 0.61825 0.60273 0.85764 0.0
H1741 H 0.66785 0.7041 0.78217 0.0
H1742 H 0.64157 0.6751 0.8106 0.0
H1743 H 0.65002 0.59987 0.79627 0.0
H1744 H 0.58519 0.52652 0.8904 0.0
H1745 H 0.6154 0.55382 0.86293 0.0
C1746 C 0.34213 0.64592 0.81619 0.0
C1747 C 0.31865 0.64745 0.82716 0.0
C1748 C 0.36 0.64267 0.8329 0.0
C1749 C 0.38095 0.64655 0.90396 0.0
H1750 H 0.39463 0.58261 0.87015 0.0
C1751 C 0.42859 0.59248 0.96285 0.0
C1752 C 0.44442 0.57989 0.94679 0.0
C1753 C 0.41529 0.60483 0.95023 0.0
C1754 C 0.39147 0.60078 0.87977 0.0
H1755 H 0.29627 0.6489 0.86463 0.0
H1756 H 0.32784 0.64363 0.89405 0.0
H1757 H 0.3691 0.59855 0.84449 0.0
H1758 H 0.46029 0.57155 0.90595 0.0
H1759 H 0.43802 0.59365 0.88417 0.0
H1760 H 0.40362 0.64876 0.9393 0.0
C1761 C 0.33225 0.64473 0.87251 0.0
C1762 C 0.37678 0.60985 0.86503 0.0
C1763 C 0.31417 0.64757 0.85566 0.0
C1764 C 0.44797 0.581 0.91859 0.0
C1765 C 0.43503 0.59346 0.90612 0.0
C1766 C 0.39605 0.63759 0.9187 0.0
C1767 C 0.35489 0.64129 0.86098 0.0
C1768 C 0.37144 0.63283 0.87686 0.0
C1769 C 0.41785 0.60476 0.92146 0.0
C1770 C 0.4016 0.61465 0.90663 0.0
H1771 H 0.34602 0.64567 0.79428 0.0
H1772 H 0.3774 0.64015 0.82359 0.0
H1773 H 0.37693 0.66428 0.91354 0.0
H1774 H 0.42582 0.59191 0.98474 0.0
H1775 H 0.40224 0.61337 0.96265 0.0
C1776 C 0.32662 0.27632 0.79144 0.0
C1777 C 0.30642 0.28307 0.78301 0.0
C1778 C 0.3447 0.29416 0.81133 0.0
C1779 C 0.36977 0.36388 0.84425 0.0
H1780 H 0.38827 0.34133 0.90714 0.0
C1781 C 0.4248 0.43927 0.93588 0.0
C1782 C 0.44747 0.43586 0.94275 0.0
C1783 C 0.40551 0.41843 0.92054 0.0
C1784 C 0.38328 0.34781 0.88964 0.0
H1785 H 0.2882 0.31267 0.78907 0.0
H1786 H 0.31988 0.34403 0.8232 0.0
H1787 H 0.36062 0.30929 0.86909 0.0
H1788 H 0.4675 0.40823 0.9411 0.0
H1789 H 0.43374 0.37151 0.91377 0.0
H1790 H 0.39221 0.40223 0.86446 0.0
C1791 C 0.32238 0.32544 0.81409 0.0
C1792 C 0.36767 0.32952 0.86783 0.0
C1793 C 0.3044 0.30767 0.79439 0.0
C1794 C 0.44988 0.411 0.93627 0.0
C1795 C 0.43063 0.3901 0.9206 0.0
C1796 C 0.3852 0.38205 0.86595 0.0
C1797 C 0.34255 0.3188 0.823 0.0
C1798 C 0.3606 0.3375 0.84509 0.0
C1799 C 0.40891 0.39403 0.91136 0.0
C1800 C 0.39189 0.37429 0.88902 0.0
H1801 H 0.32791 0.25705 0.78334 0.0
H1802 H 0.36011 0.28861 0.81783 0.0
H1803 H 0.36499 0.3705 0.82675 0.0
H1804 H 0.42266 0.45837 0.9408 0.0
H1805 H 0.38868 0.42182 0.91422 0.0
C1806 C 0.68602 0.32375 0.84602 0.0
C1807 C 0.67413 0.2988 0.85122 0.0
C1808 C 0.68792 0.34575 0.86706 0.0
C1809 C 0.67372 0.38125 0.92971 0.0
H1810 H 0.60773 0.36939 0.89592 0.0
C1811 C 0.5979 0.4322 0.97382 0.0
C1812 C 0.58664 0.43923 0.95324 0.0
C1813 C 0.61502 0.4183 0.96614 0.0
C1814 C 0.62615 0.37305 0.90553 0.0
H1815 H 0.6597 0.27741 0.8836 0.0
H1816 H 0.66186 0.31601 0.92 0.0
H1817 H 0.63229 0.34091 0.87676 0.0
H1818 H 0.58586 0.43979 0.90926 0.0
H1819 H 0.61588 0.41609 0.8959 0.0
H1820 H 0.66734 0.4139 0.95838 0.0
C1821 C 0.66999 0.31846 0.89985 0.0
C1822 C 0.6401 0.35676 0.89465 0.0
C1823 C 0.6682 0.29638 0.87885 0.0
C1824 C 0.59382 0.43384 0.92533 0.0
C1825 C 0.61104 0.42043 0.91774 0.0
C1826 C 0.65958 0.39782 0.94075 0.0
C1827 C 0.67758 0.34297 0.89326 0.0
C1828 C 0.66397 0.36084 0.90645 0.0
C1829 C 0.62115 0.41181 0.93788 0.0
C1830 C 0.63587 0.39396 0.92834 0.0
H1831 H 0.69092 0.32644 0.82501 0.0
H1832 H 0.69362 0.36453 0.86154 0.0
H1833 H 0.69214 0.38447 0.93898 0.0
H1834 H 0.59281 0.43676 -0.00452 0.0
H1835 H 0.6226 0.41177 0.98197 0.0
C1836 C 0.63958 0.32716 0.16992 0.0
C1837 C 0.66391 0.32483 0.16489 0.0
C1838 C 0.62485 0.32814 0.14814 0.0
C1839 C 0.63476 0.34931 0.08139 0.0
H1840 H 0.56107 0.33108 0.08223 0.0
C1841 C 0.5825 0.40757 0.03992 0.0
C1842 C 0.55714 0.39588 0.02962 0.0
C1843 C 0.59519 0.39348 0.05027 0.0
C1844 C 0.58161 0.33596 0.08119 0.0
H1845 H 0.69156 0.32031 0.13314 0.0
H1846 H 0.66569 0.32156 0.09471 0.0
H1847 H 0.58248 0.31345 0.11093 0.0
H1848 H 0.52576 0.35943 0.02126 0.0
H1849 H 0.54825 0.33466 0.0384 0.0
H1850 H 0.63394 0.3717 0.05158 0.0
C1851 C 0.65799 0.32292 0.11553 0.0
C1852 C 0.59396 0.32608 0.09801 0.0
C1853 C 0.6727 0.32188 0.1374 0.0
C1854 C 0.54534 0.36919 0.02869 0.0
C1855 C 0.55814 0.35501 0.03895 0.0
C1856 C 0.62241 0.35897 0.06438 0.0
C1857 C 0.63426 0.32705 0.12081 0.0
C1858 C 0.62077 0.33337 0.09912 0.0
C1859 C 0.58305 0.36713 0.05052 0.0
C1860 C 0.59574 0.35324 0.06482 0.0
H1861 H 0.63258 0.32971 0.19106 0.0
H1862 H 0.60687 0.33157 0.15323 0.0
H1863 H 0.65541 0.35555 0.08168 0.0
H1864 H 0.59249 0.42795 0.04084 0.0
H1865 H 0.6142 0.40373 0.05928 0.0
C1866 C 0.70305 0.6756 0.17277 0.0
C1867 C 0.69768 0.69499 0.19327 0.0
C1868 C 0.68542 0.66114 0.15112 0.0
C1869 C 0.63105 0.62135 0.1397 0.0
H1870 H 0.60336 0.63486 0.07586 0.0
C1871 C 0.54158 0.54809 0.08056 0.0
C1872 C 0.54206 0.54292 0.05121 0.0
C1873 C 0.5603 0.56914 0.09647 0.0
C1874 C 0.61101 0.63083 0.09357 0.0
H1875 H 0.67055 0.71531 0.20732 0.0
H1876 H 0.63922 0.68948 0.16937 0.0
H1877 H 0.63843 0.66925 0.1044 0.0
H1878 H 0.56218 0.55602 0.01541 0.0
H1879 H 0.59543 0.59243 0.04333 0.0
H1880 H 0.60415 0.58313 0.12926 0.0
C1881 C 0.65743 0.68622 0.16953 0.0
C1882 C 0.63086 0.65048 0.10985 0.0
C1883 C 0.67527 0.70093 0.19107 0.0
C1884 C 0.56132 0.55955 0.03803 0.0
C1885 C 0.58026 0.58049 0.05399 0.0
C1886 C 0.6112 0.60186 0.12367 0.0
C1887 C 0.66207 0.66561 0.15015 0.0
C1888 C 0.64103 0.64567 0.13283 0.0
C1889 C 0.58007 0.5853 0.08337 0.0
C1890 C 0.60096 0.60635 0.10042 0.0
H1891 H 0.72009 0.67053 0.17451 0.0
H1892 H 0.68914 0.64517 0.13638 0.0
H1893 H 0.63866 0.61745 0.15756 0.0
H1894 H 0.5268 0.53577 0.09129 0.0
H1895 H 0.55938 0.57265 0.11908 0.0
C1896 C 0.33473 0.6781 0.10711 0.0
C1897 C 0.326 0.67442 0.13366 0.0
C1898 C 0.33382 0.65665 0.08557 0.0
C1899 C 0.31792 0.5842 0.06903 0.0
H1900 H 0.38872 0.60247 0.04736 0.0
C1901 C 0.37671 0.51324 0.04052 0.0
C1902 C 0.39415 0.51744 0.01896 0.0
C1903 C 0.36228 0.5298 0.04932 0.0
C1904 C 0.36875 0.59705 0.0527 0.0
H1905 H 0.30596 0.64534 0.15722 0.0
H1906 H 0.30504 0.60855 0.12029 0.0
H1907 H 0.37147 0.63648 0.06913 0.0
H1908 H 0.40916 0.54078 0.98848 0.0
H1909 H 0.38339 0.56923 0.00314 0.0
H1910 H 0.31606 0.5444 0.05391 0.0
C1911 C 0.31242 0.62769 0.11572 0.0
C1912 C 0.35874 0.61658 0.06497 0.0
C1913 C 0.31306 0.64902 0.13707 0.0
C1914 C 0.3958 0.53723 0.00509 0.0
C1915 C 0.38124 0.55355 0.01362 0.0
C1916 C 0.32806 0.56452 0.0568 0.0
C1917 C 0.32467 0.6314 0.09059 0.0
C1918 C 0.33326 0.61046 0.07337 0.0
C1919 C 0.36508 0.55059 0.03646 0.0
C1920 C 0.35357 0.57087 0.04852 0.0
H1921 H 0.34407 0.69747 0.10368 0.0
H1922 H 0.34257 0.65995 0.06591 0.0
H1923 H 0.2983 0.57888 0.07562 0.0
H1924 H 0.37555 0.49831 0.0518 0.0
H1925 H 0.35018 0.52732 0.0672 0.0
C1926 C 0.29805 0.31705 0.2136 0.0
C1927 C 0.29407 0.29034 0.20483 0.0
C1928 C 0.31441 0.33425 0.19882 0.0
C1929 C 0.33448 0.34018 0.13062 0.0
H1930 H 0.40017 0.38849 0.16066 0.0
C1931 C 0.4114 0.391 0.06086 0.0
C1932 C 0.42689 0.41658 0.07193 0.0
C1933 C 0.39412 0.377 0.07781 0.0
C1934 C 0.38168 0.37549 0.15214 0.0
H1935 H 0.30414 0.26033 0.1749 0.0
H1936 H 0.33153 0.29035 0.14788 0.0
H1937 H 0.37183 0.36185 0.19007 0.0
H1938 H 0.43598 0.44791 0.10912 0.0
H1939 H 0.40551 0.42368 0.1385 0.0
H1940 H 0.34387 0.35384 0.09287 0.0
C1941 C 0.32238 0.29796 0.1663 0.0
C1942 C 0.36561 0.36024 0.16894 0.0
C1943 C 0.30679 0.28093 0.1816 0.0
C1944 C 0.42446 0.4281 0.10007 0.0
C1945 C 0.40708 0.41418 0.11695 0.0
C1946 C 0.35033 0.35569 0.11395 0.0
C1947 C 0.32618 0.32466 0.17478 0.0
C1948 C 0.34215 0.34228 0.15808 0.0
C1949 C 0.39188 0.3884 0.10609 0.0
C1950 C 0.37429 0.3732 0.12437 0.0
H1951 H 0.28861 0.32451 0.23183 0.0
H1952 H 0.3174 0.35489 0.20569 0.0
H1953 H 0.31629 0.32643 0.12207 0.0
H1954 H 0.41281 0.38168 0.0392 0.0
H1955 H 0.38291 0.35705 0.06888 0.0
C1956 C 0.80861 0.7 0.68086 0.0
C1957 C 0.78307 0.68952 0.68831 0.0
C1958 C 0.82189 0.68392 0.66534 0.0
C1959 C 0.8223 0.61525 0.64825 0.0
H1960 H 0.86806 0.63675 0.58952 0.0
C1961 C 0.87286 0.54612 0.57999 0.0
C1962 C 0.89838 0.55696 0.57254 0.0
C1963 C 0.85828 0.562 0.59261 0.0
C1964 C 0.85563 0.63045 0.60607 0.0
H1965 H 0.75159 0.65362 0.68497 0.0
H1966 H 0.77486 0.62556 0.65888 0.0
H1967 H 0.84414 0.66463 0.61417 0.0
H1968 H 0.92788 0.59358 0.57186 0.0
H1969 H 0.90271 0.62108 0.59377 0.0
H1970 H 0.83396 0.58129 0.64053 0.0
C1971 C 0.78468 0.64629 0.66479 0.0
C1972 C 0.84179 0.64655 0.62027 0.0
C1973 C 0.77122 0.66245 0.67969 0.0
C1974 C 0.9085 0.58432 0.57752 0.0
C1975 C 0.89385 0.6002 0.58994 0.0
C1976 C 0.8362 0.59922 0.63416 0.0
C1977 C 0.81029 0.6567 0.65731 0.0
C1978 C 0.82489 0.63929 0.64169 0.0
C1979 C 0.86854 0.58939 0.59811 0.0
C1980 C 0.85321 0.60648 0.6128 0.0
H1981 H 0.81832 0.72075 0.68684 0.0
H1982 H 0.84152 0.69283 0.66017 0.0
H1983 H 0.80987 0.609 0.66482 0.0
H1984 H 0.86425 0.52524 0.57677 0.0
H1985 H 0.83884 0.55267 0.59805 0.0
C1986 C 0.305 0.77104 0.6709 0.0
C1987 C 0.2889 0.7785 0.69169 0.0
C1988 C 0.3196 0.78855 0.65552 0.0
C1989 C 0.32394 0.84598 0.6304 0.0
H1990 H 0.39678 0.85695 0.62955 0.0
C1991 C 0.39291 0.90354 0.55777 0.0
C1992 C 0.41571 0.92156 0.5706 0.0
C1993 C 0.37663 0.88603 0.57227 0.0
C1994 C 0.37649 0.85412 0.62968 0.0
H1995 H 0.27393 0.80954 0.7112 0.0
H1996 H 0.29889 0.83993 0.68341 0.0
H1997 H 0.36904 0.82648 0.65553 0.0
H1998 H 0.43959 0.93529 0.6084 0.0
H1999 H 0.41123 0.90476 0.63355 0.0
H2000 H 0.33144 0.87369 0.60454 0.0
C2001 C 0.30067 0.8207 0.67972 0.0
C2002 C 0.36066 0.83661 0.64434 0.0
C2003 C 0.28651 0.80336 0.69564 0.0
C2004 C 0.42208 0.92167 0.598 0.0
C2005 C 0.40594 0.90411 0.61237 0.0
C2006 C 0.33977 0.86334 0.61546 0.0
C2007 C 0.31774 0.81358 0.66003 0.0
C2008 C 0.33429 0.83239 0.64476 0.0
C2009 C 0.38308 0.88617 0.59966 0.0
C2010 C 0.36618 0.86756 0.61503 0.0
H2011 H 0.30674 0.75187 0.66673 0.0
H2012 H 0.33239 0.78254 0.6401 0.0
H2013 H 0.30361 0.84291 0.63044 0.0
H2014 H 0.38761 0.90301 0.53663 0.0
H2015 H 0.35919 0.87215 0.56196 0.0
C2016 C 0.16427 0.33658 0.65268 0.0
C2017 C 0.17519 0.31905 0.63594 0.0
C2018 C 0.14711 0.34551 0.64095 0.0
C2019 C 0.10653 0.33417 0.57706 0.0
H2020 H 0.11605 0.40761 0.60319 0.0
C2021 C 0.03811 0.38464 0.545 0.0
C2022 C 0.04817 0.41116 0.54443 0.0
C2023 C 0.05347 0.37171 0.55334 0.0
C2024 C 0.11322 0.38712 0.59527 0.0
H2025 H 0.17627 0.29671 0.59396 0.0
H2026 H 0.14608 0.3118 0.57352 0.0
H2027 H 0.14144 0.38799 0.62401 0.0
H2028 H 0.08291 0.44413 0.54966 0.0
H2029 H 0.10976 0.42164 0.5633 0.0
H2030 H 0.0786 0.33356 0.54784 0.0
C2031 C 0.15047 0.31859 0.59576 0.0
C2032 C 0.12758 0.37569 0.60767 0.0
C2033 C 0.16776 0.30984 0.60748 0.0
C2034 C 0.07437 0.42389 0.55054 0.0
C2035 C 0.08975 0.41096 0.55855 0.0
C2036 C 0.09207 0.34565 0.56462 0.0
C2037 C 0.14042 0.33718 0.61212 0.0
C2038 C 0.12445 0.34901 0.59892 0.0
C2039 C 0.0794 0.38492 0.56111 0.0
C2040 C 0.09519 0.37236 0.57353 0.0
H2041 H 0.17002 0.34442 0.67455 0.0
H2042 H 0.13955 0.35948 0.65441 0.0
H2043 H 0.10343 0.31357 0.56971 0.0
H2044 H 0.01802 0.37419 0.54042 0.0
H2045 H 0.04465 0.35171 0.55495 0.0
C2046 C 0.70829 0.18367 0.64768 0.0
C2047 C 0.71074 0.17856 0.67393 0.0
C2048 C 0.68988 0.16601 0.62825 0.0
C2049 C 0.62774 0.11655 0.6269 0.0
H2050 H 0.63669 0.10129 0.54654 0.0
C2051 C 0.54174 0.06205 0.55477 0.0
C2052 C 0.54396 0.04036 0.53518 0.0
C2053 C 0.56342 0.0813 0.56772 0.0
C2054 C 0.63397 0.10537 0.56893 0.0
H2055 H 0.69694 0.1508 0.70028 0.0
H2056 H 0.66505 0.11945 0.66597 0.0
H2057 H 0.67339 0.12756 0.57773 0.0
H2058 H 0.57009 0.02245 0.51177 0.0
H2059 H 0.60839 0.05599 0.53503 0.0
H2060 H 0.58858 0.09399 0.6184 0.0
C2061 C 0.67716 0.13722 0.66052 0.0
C2062 C 0.65489 0.12045 0.58674 0.0
C2063 C 0.69562 0.15491 0.67995 0.0
C2064 C 0.56813 0.03918 0.52678 0.0
C2065 C 0.58994 0.05833 0.54011 0.0
C2066 C 0.6069 0.1015 0.60917 0.0
C2067 C 0.67367 0.14297 0.63481 0.0
C2068 C 0.65194 0.12611 0.61587 0.0
C2069 C 0.58764 0.07887 0.56165 0.0
C2070 C 0.60978 0.09582 0.58 0.0
H2071 H 0.71984 0.20187 0.64268 0.0
H2072 H 0.68747 0.17107 0.60873 0.0
H2073 H 0.6248 0.12098 0.64924 0.0
H2074 H 0.52314 0.06338 0.56125 0.0
H2075 H 0.56114 0.09732 0.58366 0.0
C2076 C 0.79978 0.27584 0.32237 0.0
C2077 C 0.79415 0.28484 0.29977 0.0
C2078 C 0.81715 0.29263 0.34331 0.0
C2079 C 0.8485 0.36216 0.37386 0.0
H2080 H 0.8978 0.33755 0.4025 0.0
C2081 C 0.92506 0.4297 0.45597 0.0
C2082 C 0.94956 0.4304 0.44676 0.0
C2083 C 0.90379 0.40943 0.44304 0.0
C2084 C 0.88399 0.34458 0.39486 0.0
H2085 H 0.80271 0.31804 0.28067 0.0
H2086 H 0.83357 0.34732 0.31704 0.0
H2087 H 0.86586 0.30786 0.36754 0.0
H2088 H 0.97165 0.41001 0.41898 0.0
H2089 H 0.93479 0.37462 0.3967 0.0
H2090 H 0.86765 0.3993 0.40002 0.0
C2091 C 0.82401 0.32751 0.319 0.0
C2092 C 0.86564 0.3276 0.37497 0.0
C2093 C 0.80648 0.31075 0.29814 0.0
C2094 C 0.9528 0.40981 0.42622 0.0
C2095 C 0.93172 0.3895 0.41364 0.0
C2096 C 0.86694 0.37919 0.39368 0.0
C2097 C 0.82938 0.31863 0.34187 0.0
C2098 C 0.84796 0.33632 0.36399 0.0
C2099 C 0.90701 0.38958 0.42121 0.0
C2100 C 0.8851 0.37064 0.40398 0.0
H2101 H 0.79046 0.25593 0.32414 0.0
H2102 H 0.82075 0.28532 0.36083 0.0
H2103 H 0.83489 0.36931 0.366 0.0
H2104 H 0.9223 0.44559 0.47174 0.0
H2105 H 0.88487 0.40978 0.4493 0.0
C2106 C 0.68042 0.7658 0.30374 0.0
C2107 C 0.70562 0.77746 0.29603 0.0
C2108 C 0.66604 0.78106 0.31866 0.0
C2109 C 0.67131 0.84533 0.36575 0.0
H2110 H 0.60343 0.83379 0.33783 0.0
C2111 C 0.61472 0.91751 0.41101 0.0
C2112 C 0.58778 0.90853 0.4099 0.0
C2113 C 0.62895 0.90119 0.39847 0.0
C2114 C 0.62212 0.83718 0.34649 0.0
H2115 H 0.73548 0.81437 0.29863 0.0
H2116 H 0.71113 0.84071 0.32605 0.0
H2117 H 0.62781 0.80595 0.31484 0.0
H2118 H 0.55507 0.8743 0.39543 0.0
H2119 H 0.57948 0.846 0.3744 0.0
H2120 H 0.66561 0.87609 0.3978 0.0
C2121 C 0.70222 0.81982 0.32017 0.0
C2122 C 0.63624 0.8211 0.33305 0.0
C2123 C 0.71626 0.80468 0.30446 0.0
C2124 C 0.5757 0.88235 0.39639 0.0
C2125 C 0.58989 0.86598 0.38408 0.0
C2126 C 0.65704 0.86117 0.37952 0.0
C2127 C 0.67668 0.80838 0.3271 0.0
C2128 C 0.66116 0.82497 0.34229 0.0
C2129 C 0.61687 0.87507 0.38447 0.0
C2130 C 0.63214 0.8576 0.37011 0.0
H2131 H 0.67148 0.74495 0.29727 0.0
H2132 H 0.6465 0.77143 0.32358 0.0
H2133 H 0.6903 0.84887 0.37376 0.0
H2134 H 0.62496 0.93751 0.42084 0.0
H2135 H 0.64953 0.90946 0.3992 0.0
C2136 C 0.20371 0.70545 0.32443 0.0
C2137 C 0.20233 0.69941 0.29512 0.0
C2138 C 0.18766 0.68811 0.33933 0.0
C2139 C 0.15333 0.61948 0.33328 0.0
H2140 H 0.11091 0.64177 0.39231 0.0
C2141 C 0.07658 0.54678 0.3838 0.0
C2142 C 0.07563 0.55295 0.41315 0.0
C2143 C 0.0915 0.56517 0.36952 0.0
C2144 C 0.12287 0.63537 0.37608 0.0
H2145 H 0.18424 0.67066 0.25816 0.0
H2146 H 0.15686 0.63993 0.28408 0.0
H2147 H 0.13889 0.67332 0.36739 0.0
H2148 H 0.08897 0.58331 0.45057 0.0
H2149 H 0.11524 0.61557 0.42551 0.0
H2150 H 0.13761 0.58166 0.34194 0.0
C2151 C 0.16976 0.65819 0.2956 0.0
C2152 C 0.13882 0.65338 0.36189 0.0
C2153 C 0.18524 0.67577 0.28082 0.0
C2154 C 0.08962 0.57797 0.42796 0.0
C2155 C 0.10441 0.59648 0.41362 0.0
C2156 C 0.13751 0.60154 0.34752 0.0
C2157 C 0.1707 0.66429 0.32496 0.0
C2158 C 0.15415 0.64553 0.34039 0.0
C2159 C 0.10564 0.59016 0.38427 0.0
C2160 C 0.12214 0.6093 0.36907 0.0
H2161 H 0.2169 0.72365 0.33572 0.0
H2162 H 0.18876 0.69309 0.362 0.0
H2163 H 0.16518 0.61308 0.31691 0.0
H2164 H 0.06586 0.52768 0.37181 0.0
H2165 H 0.09182 0.55987 0.34687 0.0
C2166 C 0.34845 0.18243 0.37599 0.0
C2167 C 0.3418 0.1755 0.34726 0.0
C2168 C 0.35633 0.16595 0.3887 0.0
C2169 C 0.3874 0.11513 0.36749 0.0
H2170 H 0.38374 0.11324 0.44616 0.0
C2171 C 0.45603 0.07658 0.4142 0.0
C2172 C 0.44693 0.06079 0.43353 0.0
C2173 C 0.44167 0.09069 0.40672 0.0
C2174 C 0.38485 0.11336 0.42408 0.0
H2175 H 0.33667 0.14505 0.30984 0.0
H2176 H 0.34933 0.11576 0.33204 0.0
H2177 H 0.35837 0.13467 0.42721 0.0
H2178 H 0.41611 0.04857 0.46144 0.0
H2179 H 0.39038 0.07264 0.44768 0.0
H2180 H 0.41336 0.09363 0.36399 0.0
C2181 C 0.34901 0.13421 0.34479 0.0
C2182 C 0.3704 0.12587 0.4132 0.0
C2183 C 0.34117 0.15075 0.3321 0.0
C2184 C 0.42353 0.06043 0.44629 0.0
C2185 C 0.40885 0.07433 0.43844 0.0
C2186 C 0.40169 0.10267 0.37827 0.0
C2187 C 0.35797 0.1421 0.37294 0.0
C2188 C 0.37157 0.1271 0.38469 0.0
C2189 C 0.41742 0.08912 0.41789 0.0
C2190 C 0.40102 0.10185 0.4068 0.0
H2191 H 0.34963 0.20161 0.3881 0.0
H2192 H 0.36304 0.17291 0.41031 0.0
H2193 H 0.3894 0.11593 0.34561 0.0
H2194 H 0.47427 0.07778 0.40454 0.0
H2195 H 0.44955 0.10259 0.39174 0.0
C2196 C 0.62138 0.77893 0.61933 0.0
C2197 C 0.64236 0.79218 0.63794 0.0
C2198 C 0.61239 0.79211 0.60307 0.0
C2199 C 0.62657 0.85531 0.58032 0.0
H2200 H 0.55281 0.83622 0.57819 0.0
C2201 C 0.57203 0.92208 0.5558 0.0
C2202 C 0.54772 0.91047 0.54251 0.0
C2203 C 0.58558 0.90688 0.56284 0.0
C2204 C 0.57342 0.84164 0.57802 0.0
H2205 H 0.67077 0.82951 0.6536 0.0
H2206 H 0.6552 0.85268 0.62527 0.0
H2207 H 0.5729 0.81127 0.59814 0.0
H2208 H 0.51943 0.87333 0.52502 0.0
H2209 H 0.54307 0.84699 0.53679 0.0
H2210 H 0.6269 0.88614 0.56064 0.0
C2211 C 0.64584 0.83197 0.62278 0.0
C2212 C 0.58505 0.82721 0.58956 0.0
C2213 C 0.65487 0.8187 0.63901 0.0
C2214 C 0.53802 0.88312 0.53522 0.0
C2215 C 0.55152 0.86794 0.54233 0.0
C2216 C 0.61488 0.86982 0.56873 0.0
C2217 C 0.6239 0.81906 0.60522 0.0
C2218 C 0.61181 0.83384 0.59113 0.0
C2219 C 0.57522 0.87954 0.55694 0.0
C2220 C 0.58807 0.86333 0.5676 0.0
H2221 H 0.61116 0.75855 0.61835 0.0
H2222 H 0.59583 0.78126 0.58943 0.0
H2223 H 0.64719 0.86094 0.58078 0.0
H2224 H 0.58044 0.94303 0.56128 0.0
H2225 H 0.60374 0.91667 0.574 0.0
C2226 C 0.69192 0.20327 0.31356 0.0
C2227 C 0.70265 0.19309 0.28889 0.0
C2228 C 0.67588 0.18672 0.32922 0.0
C2229 C 0.63372 0.11982 0.32285 0.0
H2230 H 0.6441 0.13304 0.40318 0.0
C2231 C 0.58337 0.04234 0.38453 0.0
C2232 C 0.57612 0.05028 0.41201 0.0
C2233 C 0.5983 0.06061 0.37011 0.0
C2234 C 0.64059 0.12926 0.38085 0.0
H2235 H 0.70571 0.15758 0.26192 0.0
H2236 H 0.67789 0.12882 0.2894 0.0
H2237 H 0.67096 0.16372 0.37699 0.0
H2238 H 0.57821 0.08342 0.44591 0.0
H2239 H 0.60347 0.1156 0.42037 0.0
H2240 H 0.6031 0.08574 0.32651 0.0
C2241 C 0.68149 0.14956 0.29625 0.0
C2242 C 0.65608 0.14681 0.36587 0.0
C2243 C 0.69753 0.16608 0.28062 0.0
C2244 C 0.58394 0.07682 0.42486 0.0
C2245 C 0.59845 0.09521 0.41021 0.0
C2246 C 0.618 0.10248 0.33784 0.0
C2247 C 0.67035 0.15971 0.32054 0.0
C2248 C 0.65304 0.14201 0.33669 0.0
C2249 C 0.60583 0.08732 0.38263 0.0
C2250 C 0.62151 0.10672 0.36698 0.0
H2251 H 0.69579 0.22399 0.32079 0.0
H2252 H 0.66748 0.19501 0.34786 0.0
H2253 H 0.63072 0.11593 0.3004 0.0
H2254 H 0.57762 0.02193 0.3742 0.0
H2255 H 0.60408 0.0537 0.3492 0.0
C2256 C 0.84195 0.64327 0.33021 0.0
C2257 C 0.82155 0.65044 0.34357 0.0
C2258 C 0.85979 0.63823 0.34547 0.0
C2259 C 0.86401 0.61645 0.41079 0.0
H2260 H 0.93343 0.62394 0.38751 0.0
C2261 C 0.92095 0.5527 0.43573 0.0
C2262 C 0.9475 0.56371 0.44047 0.0
C2263 C 0.90664 0.5671 0.42855 0.0
C2264 C 0.91421 0.62193 0.39463 0.0
H2265 H 0.80434 0.65881 0.3836 0.0
H2266 H 0.836 0.65107 0.41058 0.0
H2267 H 0.9084 0.64427 0.36684 0.0
H2268 H 0.97967 0.59884 0.44231 0.0
H2269 H 0.95483 0.62391 0.42956 0.0
H2270 H 0.86989 0.59398 0.43851 0.0
C2271 C 0.83814 0.64899 0.38819 0.0
C2272 C 0.89968 0.6334 0.38248 0.0
C2273 C 0.82026 0.65399 0.37284 0.0
C2274 C 0.95924 0.58979 0.43884 0.0
C2275 C 0.94501 0.60409 0.43127 0.0
C2276 C 0.87855 0.60493 0.42291 0.0
C2277 C 0.85764 0.64006 0.37459 0.0
C2278 C 0.87417 0.63045 0.38994 0.0
C2279 C 0.91855 0.59282 0.4255 0.0
C2280 C 0.90373 0.6071 0.41465 0.0
H2281 H 0.84295 0.63954 0.30759 0.0
H2282 H 0.87419 0.63111 0.33402 0.0
H2283 H 0.84444 0.61345 0.41705 0.0
H2284 H 0.91129 0.53274 0.43709 0.0
H2285 H 0.88637 0.55767 0.42424 0.0
C2286 C 0.31116 0.80773 0.29267 0.0
C2287 C 0.28677 0.79296 0.29929 0.0
C2288 C 0.32782 0.82546 0.31366 0.0
C2289 C 0.34552 0.83863 0.38627 0.0
H2290 H 0.37892 0.90906 0.37705 0.0
C2291 C 0.44225 0.9094 0.43665 0.0
C2292 C 0.44369 0.93542 0.44659 0.0
C2293 C 0.41964 0.89116 0.42413 0.0
C2294 C 0.36947 0.88958 0.38012 0.0
H2295 H 0.26046 0.78449 0.33263 0.0
H2296 H 0.29016 0.81555 0.36996 0.0
H2297 H 0.34574 0.8791 0.34341 0.0
H2298 H 0.4232 0.9631 0.4524 0.0
H2299 H 0.3836 0.93123 0.42988 0.0
H2300 H 0.37023 0.84893 0.42238 0.0
C2301 C 0.29608 0.81356 0.3484 0.0
C2302 C 0.35068 0.87245 0.36082 0.0
C2303 C 0.27911 0.79613 0.32719 0.0
C2304 C 0.42213 0.94292 0.4452 0.0
C2305 C 0.39967 0.92482 0.43223 0.0
C2306 C 0.36468 0.85572 0.40543 0.0
C2307 C 0.32051 0.82835 0.34169 0.0
C2308 C 0.3387 0.84683 0.36362 0.0
C2309 C 0.39852 0.89899 0.42087 0.0
C2310 C 0.37683 0.88129 0.4024 0.0
H2311 H 0.31741 0.80543 0.27121 0.0
H2312 H 0.34665 0.83653 0.30806 0.0
H2313 H 0.33668 0.81881 0.38855 0.0
H2314 H 0.45895 0.90351 0.43735 0.0
H2315 H 0.41925 0.8714 0.41528 0.0
C2316 C 0.18619 0.28289 0.28326 0.0
C2317 C 0.21096 0.28503 0.29151 0.0
C2318 C 0.17256 0.29832 0.29891 0.0
C2319 C 0.17088 0.34441 0.36843 0.0
H2320 H 0.12306 0.35999 0.32615 0.0
C2321 C 0.10385 0.40307 0.42466 0.0
C2322 C 0.09301 0.41555 0.4091 0.0
C2323 C 0.11862 0.38739 0.41164 0.0
C2324 C 0.13654 0.35657 0.3387 0.0
H2325 H 0.2404 0.30572 0.32361 0.0
H2326 H 0.21682 0.33297 0.35089 0.0
H2327 H 0.14856 0.33482 0.30219 0.0
H2328 H 0.09075 0.42215 0.36764 0.0
H2329 H 0.11703 0.39672 0.34557 0.0
H2330 H 0.15984 0.36765 0.40483 0.0
C2331 C 0.20772 0.31888 0.33225 0.0
C2332 C 0.15102 0.34123 0.3247 0.0
C2333 C 0.22141 0.30315 0.31651 0.0
C2334 C 0.09814 0.41246 0.38035 0.0
C2335 C 0.11328 0.3974 0.36751 0.0
C2336 C 0.15668 0.36032 0.38249 0.0
C2337 C 0.18307 0.31702 0.32352 0.0
C2338 C 0.16833 0.3345 0.33916 0.0
C2339 C 0.1236 0.38404 0.38261 0.0
C2340 C 0.1391 0.3668 0.36793 0.0
H2341 H 0.17699 0.26906 0.26448 0.0
H2342 H 0.15348 0.29525 0.29156 0.0
H2343 H 0.18367 0.33971 0.38071 0.0
H2344 H 0.10039 0.40488 0.44685 0.0
H2345 H 0.12567 0.37759 0.42447 0.0
C2346 C 0.29795 0.17801 0.70615 0.0
C2347 C 0.28433 0.19001 0.6932 0.0
C2348 C 0.31219 0.16307 0.6905 0.0
C2349 C 0.32145 0.12735 0.61757 0.0
H2350 H 0.38361 0.12861 0.65138 0.0
C2351 C 0.37679 0.05414 0.56861 0.0
C2352 C 0.40345 0.0618 0.57326 0.0
C2353 C 0.36243 0.07032 0.58134 0.0
C2354 C 0.36649 0.12803 0.64122 0.0
H2355 H 0.27544 0.19495 0.65279 0.0
H2356 H 0.30017 0.16908 0.62551 0.0
H2357 H 0.35932 0.15553 0.67621 0.0
H2358 H 0.43566 0.09379 0.59406 0.0
H2359 H 0.41109 0.12176 0.61561 0.0
H2360 H 0.329 0.10011 0.58229 0.0
C2361 C 0.29972 0.17113 0.648 0.0
C2362 C 0.35217 0.14338 0.65585 0.0
C2363 C 0.28555 0.18629 0.66377 0.0
C2364 C 0.4152 0.08666 0.59035 0.0
C2365 C 0.40091 0.10284 0.60292 0.0
C2366 C 0.33582 0.11189 0.60288 0.0
C2367 C 0.31349 0.15929 0.66107 0.0
C2368 C 0.32921 0.14328 0.64452 0.0
C2369 C 0.37412 0.0949 0.59917 0.0
C2370 C 0.35866 0.11182 0.61444 0.0
H2371 H 0.29781 0.18025 0.72866 0.0
H2372 H 0.32198 0.15414 0.70166 0.0
H2373 H 0.30393 0.12638 0.6079 0.0
H2374 H 0.36678 0.03519 0.55582 0.0
H2375 H 0.34195 0.06307 0.57782 0.0
C2376 C 0.82054 0.2765 0.69203 0.0
C2377 C 0.7941 0.26815 0.68722 0.0
C2378 C 0.83673 0.29301 0.6764 0.0
C2379 C 0.841 0.317 0.61203 0.0
H2380 H 0.88664 0.38123 0.65596 0.0
C2381 C 0.89248 0.40422 0.56289 0.0
C2382 C 0.91744 0.41909 0.57254 0.0
C2383 C 0.87766 0.38516 0.57656 0.0
C2384 C 0.87434 0.36325 0.64328 0.0
H2385 H 0.76366 0.26871 0.66181 0.0
H2386 H 0.79185 0.29748 0.63432 0.0
H2387 H 0.8616 0.34727 0.67925 0.0
H2388 H 0.94674 0.42553 0.60355 0.0
H2389 H 0.92141 0.39172 0.62663 0.0
H2390 H 0.85386 0.33267 0.57599 0.0
C2391 C 0.80016 0.29145 0.65003 0.0
C2392 C 0.86001 0.34383 0.65667 0.0
C2393 C 0.78404 0.2752 0.66581 0.0
C2394 C 0.9274 0.41454 0.5959 0.0
C2395 C 0.91281 0.39523 0.60922 0.0
C2396 C 0.85557 0.33627 0.59856 0.0
C2397 C 0.82658 0.30101 0.65566 0.0
C2398 C 0.84311 0.32063 0.64117 0.0
C2399 C 0.88773 0.38032 0.59978 0.0
C2400 C 0.87231 0.35972 0.61404 0.0
H2401 H 0.82851 0.27135 0.70873 0.0
H2402 H 0.85708 0.30003 0.68096 0.0
H2403 H 0.82812 0.2992 0.59965 0.0
H2404 H 0.88434 0.40749 0.54499 0.0
H2405 H 0.85826 0.37438 0.56903 0.0
C2406 C 0.18249 0.66142 0.68817 0.0
C2407 C 0.19942 0.68453 0.68263 0.0
C2408 C 0.16378 0.64508 0.66831 0.0
C2409 C 0.14832 0.6267 0.5937 0.0
H2410 H 0.07846 0.60286 0.61753 0.0
C2411 C 0.06716 0.54014 0.53168 0.0
C2412 C 0.04241 0.5415 0.53544 0.0
C2413 C 0.08778 0.56073 0.54539 0.0
C2414 C 0.09781 0.60966 0.61043 0.0
H2415 H 0.21082 0.70876 0.65233 0.0
H2416 H 0.17831 0.67979 0.61719 0.0
H2417 H 0.11166 0.63187 0.65138 0.0
H2418 H 0.01952 0.56573 0.5533 0.0
H2419 H 0.0556 0.6022 0.57622 0.0
H2420 H 0.13442 0.60425 0.55271 0.0
C2421 C 0.17938 0.67445 0.63689 0.0
C2422 C 0.11681 0.62593 0.6299 0.0
C2423 C 0.19775 0.69103 0.65697 0.0
C2424 C 0.0386 0.56442 0.55043 0.0
C2425 C 0.05915 0.5851 0.56366 0.0
C2426 C 0.12928 0.61025 0.57416 0.0
C2427 C 0.16217 0.65148 0.64251 0.0
C2428 C 0.14219 0.63447 0.62172 0.0
C2429 C 0.08368 0.58283 0.5626 0.0
C2430 C 0.10386 0.6016 0.58239 0.0
H2431 H 0.18348 0.65625 0.70801 0.0
H2432 H 0.15069 0.62738 0.673 0.0
H2433 H 0.16789 0.63299 0.58706 0.0
H2434 H 0.07026 0.52238 0.52033 0.0
H2435 H 0.10649 0.55844 0.5443 0.0
loop_
_geom_bond_atom_site_label_1
_geom_bond_atom_site_label_2
_geom_bond_distance
_geom_bond_site_symmetry_2
_ccdc_geom_bond_type
Eu0 N29 2.600 . S
Eu0 N35 2.562 . S
Eu0 O44 2.462 . S
Eu0 O45 2.373 . S
Eu0 O47 2.432 . S
Eu0 O48 2.291 . S
Eu0 O52 2.335 . S
Eu0 O55 2.372 . S
Eu0 C64 2.787 . S
C1 N2 1.365 . S
C1 C4 1.405 . S
C1 C8 1.448 . S
N2 C1 1.365 . S
N2 C5 1.319 . S
N2 Eu11 2.600 . S
C3 C5 1.397 . S
C3 C6 1.367 . S
C3 H23 0.931 . S
C4 C1 1.405 . S
C4 C6 1.403 . S
C4 C10 1.439 . S
C5 N2 1.319 . S
C5 C3 1.397 . S
C5 H16 0.930 . S
C6 C3 1.367 . S
C6 C4 1.403 . S
C6 H27 0.929 . S
C7 C8 1.430 . S
C7 C9 1.387 . S
C7 C13 1.404 . S
C8 C1 1.448 . S
C8 C7 1.430 . S
C8 N12 1.351 . S
C9 C7 1.387 . S
C9 C10 1.374 . S
C9 H24 0.931 . S
C10 C4 1.439 . S
C10 C9 1.374 . S
C10 H25 0.931 . S
Eu11 N2 2.600 . S
Eu11 N12 2.562 . S
Eu11 O46 2.335 . S
Eu11 O49 2.372 . S
Eu11 O50 2.462 . S
Eu11 O51 2.373 . S
Eu11 O53 2.432 . S
Eu11 O54 2.291 . S
Eu11 C75 2.787 . S
N12 C8 1.351 . S
N12 Eu11 2.562 . S
N12 C14 1.325 . S
C13 C7 1.404 . S
C13 C15 1.366 . S
C13 H21 0.930 . S
C14 N12 1.325 . S
C14 C15 1.416 . S
C14 H20 0.929 . S
C15 C13 1.366 . S
C15 C14 1.416 . S
C15 H17 0.930 . S
H16 C5 0.930 . S
H17 C15 0.930 . S
H18 C33 0.930 . S
H19 C40 0.930 . S
H20 C14 0.929 . S
H21 C13 0.930 . S
H22 C36 0.929 . S
H23 C3 0.931 . S
H24 C9 0.931 . S
H25 C10 0.931 . S
H26 C31 0.931 . S
H27 C6 0.929 . S
H28 C39 0.930 . S
N29 Eu0 2.600 . S
N29 C30 1.365 . S
N29 C33 1.319 . S
C30 N29 1.365 . S
C30 C32 1.405 . S
C30 C38 1.448 . S
C31 H26 0.931 . S
C31 C33 1.397 . S
C31 C34 1.367 . S
C32 C30 1.405 . S
C32 C34 1.403 . S
C32 C65 1.439 . S
C33 H18 0.930 . S
C33 N29 1.319 . S
C33 C31 1.397 . S
C34 C31 1.367 . S
C34 C32 1.403 . S
C34 H41 0.929 . S
N35 Eu0 2.562 . S
N35 C36 1.325 . S
N35 C38 1.351 . S
C36 H22 0.929 . S
C36 N35 1.325 . S
C36 C40 1.416 . S
C37 C38 1.430 . S
C37 C39 1.404 . S
C37 C66 1.387 . S
C38 C30 1.448 . S
C38 N35 1.351 . S
C38 C37 1.430 . S
C39 H28 0.930 . S
C39 C37 1.404 . S
C39 C40 1.366 . S
C40 H19 0.930 . S
C40 C36 1.416 . S
C40 C39 1.366 . S
H41 C34 0.929 . S
H42 C65 0.931 . S
H43 C66 0.931 . S
O44 Eu0 2.462 . S
O44 C64 1.252 . S
O45 Eu0 2.373 . S
O45 C56 1.249 . S
O46 Eu11 2.335 . S
O46 C56 1.264 . S
O47 Eu0 2.432 . S
O47 C64 1.268 . S
O48 Eu0 2.291 . S
O48 C63 1.255 . S
O49 Eu11 2.372 . S
O49 C63 1.257 . S
O50 Eu11 2.462 . S
O50 C75 1.252 . S
O51 Eu11 2.373 . S
O51 C67 1.249 . S
O52 Eu0 2.335 . S
O52 C67 1.264 . S
O53 Eu11 2.432 . S
O53 C75 1.268 . S
O54 Eu11 2.291 . S
O54 C74 1.255 . S
O55 Eu0 2.372 . S
O55 C74 1.257 . S
C56 O45 1.249 . S
C56 O46 1.264 . S
C57 C60 1.382 . S
C57 C62 1.390 . S
C57 C64 1.506 . S
C58 C59 1.398 . S
C58 C62 1.392 . S
C59 C58 1.398 . S
C59 C61 1.372 . S
C59 H76 0.931 . S
C60 C57 1.382 . S
C60 C61 1.390 . S
C60 H77 0.931 . S
C61 C59 1.372 . S
C61 C60 1.390 . S
C61 H78 0.929 . S
C62 C57 1.390 . S
C62 C58 1.392 . S
C62 H79 0.930 . S
C63 O48 1.255 . S
C63 O49 1.257 . S
C64 Eu0 2.787 . S
C64 O44 1.252 . S
C64 O47 1.268 . S
C64 C57 1.506 . S
C65 C32 1.439 . S
C65 H42 0.931 . S
C65 C66 1.374 . S
C66 C37 1.387 . S
C66 H43 0.931 . S
C66 C65 1.374 . S
C67 O51 1.249 . S
C67 O52 1.264 . S
C68 C71 1.382 . S
C68 C72 1.390 . S
C68 C75 1.506 . S
C69 C70 1.398 . S
C69 C72 1.392 . S
C70 C69 1.398 . S
C70 C73 1.372 . S
C70 H80 0.931 . S
C71 C68 1.382 . S
C71 C73 1.390 . S
C71 H81 0.931 . S
C72 C68 1.390 . S
C72 C69 1.392 . S
C72 H82 0.930 . S
C73 C70 1.372 . S
C73 C71 1.390 . S
C73 H83 0.929 . S
C74 O54 1.255 . S
C74 O55 1.257 . S
C75 Eu11 2.787 . S
C75 O50 1.252 . S
C75 O53 1.268 . S
C75 C68 1.506 . S
H76 C59 0.931 . S
H77 C60 0.931 . S
H78 C61 0.929 . S
H79 C62 0.930 . S
H80 C70 0.931 . S
H81 C71 0.931 . S
H82 C72 0.930 . S
H83 C73 0.929 . S
Eu84 N113 2.600 . S
Eu84 N119 2.562 . S
Eu84 O128 2.462 . S
Eu84 O129 2.373 . S
Eu84 O131 2.432 . S
Eu84 O132 2.291 . S
Eu84 O136 2.335 . S
Eu84 O139 2.372 . S
Eu84 C148 2.787 . S
C85 N86 1.365 . S
C85 C88 1.405 . S
C85 C92 1.448 . S
N86 C85 1.365 . S
N86 C89 1.319 . S
N86 Eu95 2.600 . S
C87 C89 1.397 . S
C87 C90 1.367 . S
C87 H107 0.931 . S
C88 C85 1.405 . S
C88 C90 1.403 . S
C88 C94 1.439 . S
C89 N86 1.319 . S
C89 C87 1.397 . S
C89 H100 0.930 . S
C90 C87 1.367 . S
C90 C88 1.403 . S
C90 H111 0.929 . S
C91 C92 1.430 . S
C91 C93 1.387 . S
C91 C97 1.404 . S
C92 C85 1.448 . S
C92 C91 1.430 . S
C92 N96 1.351 . S
C93 C91 1.387 . S
C93 C94 1.374 . S
C93 H108 0.931 . S
C94 C88 1.439 . S
C94 C93 1.374 . S
C94 H109 0.931 . S
Eu95 N86 2.600 . S
Eu95 N96 2.562 . S
Eu95 O130 2.335 . S
Eu95 O133 2.372 . S
Eu95 O134 2.462 . S
Eu95 O135 2.373 . S
Eu95 O137 2.432 . S
Eu95 O138 2.291 . S
Eu95 C159 2.787 . S
N96 C92 1.351 . S
N96 Eu95 2.562 . S
N96 C98 1.325 . S
C97 C91 1.404 . S
C97 C99 1.366 . S
C97 H105 0.930 . S
C98 N96 1.325 . S
C98 C99 1.416 . S
C98 H104 0.929 . S
C99 C97 1.366 . S
C99 C98 1.416 . S
C99 H101 0.930 . S
H100 C89 0.930 . S
H101 C99 0.930 . S
H102 C117 0.930 . S
H103 C124 0.930 . S
H104 C98 0.929 . S
H105 C97 0.930 . S
H106 C120 0.929 . S
H107 C87 0.931 . S
H108 C93 0.931 . S
H109 C94 0.931 . S
H110 C115 0.931 . S
H111 C90 0.929 . S
H112 C123 0.930 . S
N113 Eu84 2.600 . S
N113 C114 1.365 . S
N113 C117 1.319 . S
C114 N113 1.365 . S
C114 C116 1.405 . S
C114 C122 1.448 . S
C115 H110 0.931 . S
C115 C117 1.397 . S
C115 C118 1.367 . S
C116 C114 1.405 . S
C116 C118 1.403 . S
C116 C149 1.439 . S
C117 H102 0.930 . S
C117 N113 1.319 . S
C117 C115 1.397 . S
C118 C115 1.367 . S
C118 C116 1.403 . S
C118 H125 0.929 . S
N119 Eu84 2.562 . S
N119 C120 1.325 . S
N119 C122 1.351 . S
C120 H106 0.929 . S
C120 N119 1.325 . S
C120 C124 1.416 . S
C121 C122 1.430 . S
C121 C123 1.404 . S
C121 C150 1.387 . S
C122 C114 1.448 . S
C122 N119 1.351 . S
C122 C121 1.430 . S
C123 H112 0.930 . S
C123 C121 1.404 . S
C123 C124 1.366 . S
C124 H103 0.930 . S
C124 C120 1.416 . S
C124 C123 1.366 . S
H125 C118 0.929 . S
H126 C149 0.931 . S
H127 C150 0.931 . S
O128 Eu84 2.462 . S
O128 C148 1.252 . S
O129 Eu84 2.373 . S
O129 C140 1.249 . S
O130 Eu95 2.335 . S
O130 C140 1.264 . S
O131 Eu84 2.432 . S
O131 C148 1.268 . S
O132 Eu84 2.291 . S
O132 C147 1.255 . S
O133 Eu95 2.372 . S
O133 C147 1.257 . S
O134 Eu95 2.462 . S
O134 C159 1.252 . S
O135 Eu95 2.373 . S
O135 C151 1.249 . S
O136 Eu84 2.335 . S
O136 C151 1.264 . S
O137 Eu95 2.432 . S
O137 C159 1.268 . S
O138 Eu95 2.291 . S
O138 C158 1.255 . S
O139 Eu84 2.372 . S
O139 C158 1.257 . S
C140 O129 1.249 . S
C140 O130 1.264 . S
C141 C144 1.382 . S
C141 C146 1.390 . S
C141 C148 1.506 . S
C142 C143 1.398 . S
C142 C146 1.392 . S
C143 C142 1.398 . S
C143 C145 1.372 . S
C143 H160 0.931 . S
C144 C141 1.382 . S
C144 C145 1.390 . S
C144 H161 0.931 . S
C145 C143 1.372 . S
C145 C144 1.390 . S
C145 H162 0.929 . S
C146 C141 1.390 . S
C146 C142 1.392 . S
C146 H163 0.930 . S
C147 O132 1.255 . S
C147 O133 1.257 . S
C148 Eu84 2.787 . S
C148 O128 1.252 . S
C148 O131 1.268 . S
C148 C141 1.506 . S
C149 C116 1.439 . S
C149 H126 0.931 . S
C149 C150 1.374 . S
C150 C121 1.387 . S
C150 H127 0.931 . S
C150 C149 1.374 . S
C151 O135 1.249 . S
C151 O136 1.264 . S
C152 C155 1.382 . S
C152 C156 1.390 . S
C152 C159 1.506 . S
C153 C154 1.398 . S
C153 C156 1.392 . S
C154 C153 1.398 . S
C154 C157 1.372 . S
C154 H164 0.931 . S
C155 C152 1.382 . S
C155 C157 1.390 . S
C155 H165 0.931 . S
C156 C152 1.390 . S
C156 C153 1.392 . S
C156 H166 0.930 . S
C157 C154 1.372 . S
C157 C155 1.390 . S
C157 H167 0.929 . S
C158 O138 1.255 . S
C158 O139 1.257 . S
C159 Eu95 2.787 . S
C159 O134 1.252 . S
C159 O137 1.268 . S
C159 C152 1.506 . S
H160 C143 0.931 . S
H161 C144 0.931 . S
H162 C145 0.929 . S
H163 C146 0.930 . S
H164 C154 0.931 . S
H165 C155 0.931 . S
H166 C156 0.930 . S
H167 C157 0.929 . S
Eu168 N197 2.600 . S
Eu168 N203 2.562 . S
Eu168 O212 2.462 . S
Eu168 O213 2.373 . S
Eu168 O215 2.432 . S
Eu168 O216 2.291 . S
Eu168 O220 2.335 . S
Eu168 O223 2.372 . S
Eu168 C232 2.787 . S
C169 N170 1.365 . S
C169 C172 1.405 . S
C169 C176 1.448 . S
N170 C169 1.365 . S
N170 C173 1.319 . S
N170 Eu179 2.600 . S
C171 C173 1.397 . S
C171 C174 1.367 . S
C171 H191 0.931 . S
C172 C169 1.405 . S
C172 C174 1.403 . S
C172 C178 1.439 . S
C173 N170 1.319 . S
C173 C171 1.397 . S
C173 H184 0.930 . S
C174 C171 1.367 . S
C174 C172 1.403 . S
C174 H195 0.929 . S
C175 C176 1.430 . S
C175 C177 1.387 . S
C175 C181 1.404 . S
C176 C169 1.448 . S
C176 C175 1.430 . S
C176 N180 1.351 . S
C177 C175 1.387 . S
C177 C178 1.374 . S
C177 H192 0.931 . S
C178 C172 1.439 . S
C178 C177 1.374 . S
C178 H193 0.931 . S
Eu179 N170 2.600 . S
Eu179 N180 2.562 . S
Eu179 O214 2.335 . S
Eu179 O217 2.372 . S
Eu179 O218 2.462 . S
Eu179 O219 2.373 . S
Eu179 O221 2.432 . S
Eu179 O222 2.291 . S
Eu179 C243 2.787 . S
N180 C176 1.351 . S
N180 Eu179 2.562 . S
N180 C182 1.325 . S
C181 C175 1.404 . S
C181 C183 1.366 . S
C181 H189 0.930 . S
C182 N180 1.325 . S
C182 C183 1.416 . S
C182 H188 0.929 . S
C183 C181 1.366 . S
C183 C182 1.416 . S
C183 H185 0.930 . S
H184 C173 0.930 . S
H185 C183 0.930 . S
H186 C201 0.930 . S
H187 C208 0.930 . S
H188 C182 0.929 . S
H189 C181 0.930 . S
H190 C204 0.929 . S
H191 C171 0.931 . S
H192 C177 0.931 . S
H193 C178 0.931 . S
H194 C199 0.931 . S
H195 C174 0.929 . S
H196 C207 0.930 . S
N197 Eu168 2.600 . S
N197 C198 1.365 . S
N197 C201 1.319 . S
C198 N197 1.365 . S
C198 C200 1.405 . S
C198 C206 1.448 . S
C199 H194 0.931 . S
C199 C201 1.397 . S
C199 C202 1.367 . S
C200 C198 1.405 . S
C200 C202 1.403 . S
C200 C233 1.439 . S
C201 H186 0.930 . S
C201 N197 1.319 . S
C201 C199 1.397 . S
C202 C199 1.367 . S
C202 C200 1.403 . S
C202 H209 0.929 . S
N203 Eu168 2.562 . S
N203 C204 1.325 . S
N203 C206 1.351 . S
C204 H190 0.929 . S
C204 N203 1.325 . S
C204 C208 1.416 . S
C205 C206 1.430 . S
C205 C207 1.404 . S
C205 C234 1.387 . S
C206 C198 1.448 . S
C206 N203 1.351 . S
C206 C205 1.430 . S
C207 H196 0.930 . S
C207 C205 1.404 . S
C207 C208 1.366 . S
C208 H187 0.930 . S
C208 C204 1.416 . S
C208 C207 1.366 . S
H209 C202 0.929 . S
H210 C233 0.931 . S
H211 C234 0.931 . S
O212 Eu168 2.462 . S
O212 C232 1.252 . S
O213 Eu168 2.373 . S
O213 C224 1.249 . S
O214 Eu179 2.335 . S
O214 C224 1.264 . S
O215 Eu168 2.432 . S
O215 C232 1.268 . S
O216 Eu168 2.291 . S
O216 C231 1.255 . S
O217 Eu179 2.372 . S
O217 C231 1.257 . S
O218 Eu179 2.462 . S
O218 C243 1.252 . S
O219 Eu179 2.373 . S
O219 C235 1.249 . S
O220 Eu168 2.335 . S
O220 C235 1.264 . S
O221 Eu179 2.432 . S
O221 C243 1.268 . S
O222 Eu179 2.291 . S
O222 C242 1.255 . S
O223 Eu168 2.372 . S
O223 C242 1.257 . S
C224 O213 1.249 . S
C224 O214 1.264 . S
C225 C228 1.382 . S
C225 C230 1.390 . S
C225 C232 1.506 . S
C226 C227 1.398 . S
C226 C230 1.392 . S
C227 C226 1.398 . S
C227 C229 1.372 . S
C227 H244 0.931 . S
C228 C225 1.382 . S
C228 C229 1.390 . S
C228 H245 0.931 . S
C229 C227 1.372 . S
C229 C228 1.390 . S
C229 H246 0.929 . S
C230 C225 1.390 . S
C230 C226 1.392 . S
C230 H247 0.930 . S
C231 O216 1.255 . S
C231 O217 1.257 . S
C232 Eu168 2.787 . S
C232 O212 1.252 . S
C232 O215 1.268 . S
C232 C225 1.506 . S
C233 C200 1.439 . S
C233 H210 0.931 . S
C233 C234 1.374 . S
C234 C205 1.387 . S
C234 H211 0.931 . S
C234 C233 1.374 . S
C235 O219 1.249 . S
C235 O220 1.264 . S
C236 C239 1.382 . S
C236 C240 1.390 . S
C236 C243 1.506 . S
C237 C238 1.398 . S
C237 C240 1.392 . S
C238 C237 1.398 . S
C238 C241 1.372 . S
C238 H248 0.931 . S
C239 C236 1.382 . S
C239 C241 1.390 . S
C239 H249 0.931 . S
C240 C236 1.390 . S
C240 C237 1.392 . S
C240 H250 0.930 . S
C241 C238 1.372 . S
C241 C239 1.390 . S
C241 H251 0.929 . S
C242 O222 1.255 . S
C242 O223 1.257 . S
C243 Eu179 2.787 . S
C243 O218 1.252 . S
C243 O221 1.268 . S
C243 C236 1.506 . S
H244 C227 0.931 . S
H245 C228 0.931 . S
H246 C229 0.929 . S
H247 C230 0.930 . S
H248 C238 0.931 . S
H249 C239 0.931 . S
H250 C240 0.930 . S
H251 C241 0.929 . S
Eu252 N281 2.600 . S
Eu252 N287 2.562 . S
Eu252 O296 2.462 . S
Eu252 O297 2.373 . S
Eu252 O299 2.432 . S
Eu252 O300 2.291 . S
Eu252 O304 2.335 . S
Eu252 O307 2.372 . S
Eu252 C316 2.787 . S
C253 N254 1.365 . S
C253 C256 1.405 . S
C253 C260 1.448 . S
N254 C253 1.365 . S
N254 C257 1.319 . S
N254 Eu263 2.600 . S
C255 C257 1.397 . S
C255 C258 1.367 . S
C255 H275 0.931 . S
C256 C253 1.405 . S
C256 C258 1.403 . S
C256 C262 1.439 . S
C257 N254 1.319 . S
C257 C255 1.397 . S
C257 H268 0.930 . S
C258 C255 1.367 . S
C258 C256 1.403 . S
C258 H279 0.929 . S
C259 C260 1.430 . S
C259 C261 1.387 . S
C259 C265 1.404 . S
C260 C253 1.448 . S
C260 C259 1.430 . S
C260 N264 1.351 . S
C261 C259 1.387 . S
C261 C262 1.374 . S
C261 H276 0.931 . S
C262 C256 1.439 . S
C262 C261 1.374 . S
C262 H277 0.931 . S
Eu263 N254 2.600 . S
Eu263 N264 2.562 . S
Eu263 O298 2.335 . S
Eu263 O301 2.372 . S
Eu263 O302 2.462 . S
Eu263 O303 2.373 . S
Eu263 O305 2.432 . S
Eu263 O306 2.291 . S
Eu263 C327 2.787 . S
N264 C260 1.351 . S
N264 Eu263 2.562 . S
N264 C266 1.325 . S
C265 C259 1.404 . S
C265 C267 1.366 . S
C265 H273 0.930 . S
C266 N264 1.325 . S
C266 C267 1.416 . S
C266 H272 0.929 . S
C267 C265 1.366 . S
C267 C266 1.416 . S
C267 H269 0.930 . S
H268 C257 0.930 . S
H269 C267 0.930 . S
H270 C285 0.930 . S
H271 C292 0.930 . S
H272 C266 0.929 . S
H273 C265 0.930 . S
H274 C288 0.929 . S
H275 C255 0.931 . S
H276 C261 0.931 . S
H277 C262 0.931 . S
H278 C283 0.931 . S
H279 C258 0.929 . S
H280 C291 0.930 . S
N281 Eu252 2.600 . S
N281 C282 1.365 . S
N281 C285 1.319 . S
C282 N281 1.365 . S
C282 C284 1.405 . S
C282 C290 1.448 . S
C283 H278 0.931 . S
C283 C285 1.397 . S
C283 C286 1.367 . S
C284 C282 1.405 . S
C284 C286 1.403 . S
C284 C317 1.439 . S
C285 H270 0.930 . S
C285 N281 1.319 . S
C285 C283 1.397 . S
C286 C283 1.367 . S
C286 C284 1.403 . S
C286 H293 0.929 . S
N287 Eu252 2.562 . S
N287 C288 1.325 . S
N287 C290 1.351 . S
C288 H274 0.929 . S
C288 N287 1.325 . S
C288 C292 1.416 . S
C289 C290 1.430 . S
C289 C291 1.404 . S
C289 C318 1.387 . S
C290 C282 1.448 . S
C290 N287 1.351 . S
C290 C289 1.430 . S
C291 H280 0.930 . S
C291 C289 1.404 . S
C291 C292 1.366 . S
C292 H271 0.930 . S
C292 C288 1.416 . S
C292 C291 1.366 . S
H293 C286 0.929 . S
H294 C317 0.931 . S
H295 C318 0.931 . S
O296 Eu252 2.462 . S
O296 C316 1.252 . S
O297 Eu252 2.373 . S
O297 C308 1.249 . S
O298 Eu263 2.335 . S
O298 C308 1.264 . S
O299 Eu252 2.432 . S
O299 C316 1.268 . S
O300 Eu252 2.291 . S
O300 C315 1.255 . S
O301 Eu263 2.372 . S
O301 C315 1.257 . S
O302 Eu263 2.462 . S
O302 C327 1.252 . S
O303 Eu263 2.373 . S
O303 C319 1.249 . S
O304 Eu252 2.335 . S
O304 C319 1.264 . S
O305 Eu263 2.432 . S
O305 C327 1.268 . S
O306 Eu263 2.291 . S
O306 C326 1.255 . S
O307 Eu252 2.372 . S
O307 C326 1.257 . S
C308 O297 1.249 . S
C308 O298 1.264 . S
C309 C312 1.382 . S
C309 C314 1.390 . S
C309 C316 1.506 . S
C310 C311 1.398 . S
C310 C314 1.392 . S
C311 C310 1.398 . S
C311 C313 1.372 . S
C311 H328 0.931 . S
C312 C309 1.382 . S
C312 C313 1.390 . S
C312 H329 0.931 . S
C313 C311 1.372 . S
C313 C312 1.390 . S
C313 H330 0.929 . S
C314 C309 1.390 . S
C314 C310 1.392 . S
C314 H331 0.930 . S
C315 O300 1.255 . S
C315 O301 1.257 . S
C316 Eu252 2.787 . S
C316 O296 1.252 . S
C316 O299 1.268 . S
C316 C309 1.506 . S
C317 C284 1.439 . S
C317 H294 0.931 . S
C317 C318 1.374 . S
C318 C289 1.387 . S
C318 H295 0.931 . S
C318 C317 1.374 . S
C319 O303 1.249 . S
C319 O304 1.264 . S
C320 C323 1.382 . S
C320 C324 1.390 . S
C320 C327 1.506 . S
C321 C322 1.398 . S
C321 C324 1.392 . S
C322 C321 1.398 . S
C322 C325 1.372 . S
C322 H332 0.931 . S
C323 C320 1.382 . S
C323 C325 1.390 . S
C323 H333 0.931 . S
C324 C320 1.390 . S
C324 C321 1.392 . S
C324 H334 0.930 . S
C325 C322 1.372 . S
C325 C323 1.390 . S
C325 H335 0.929 . S
C326 O306 1.255 . S
C326 O307 1.257 . S
C327 Eu263 2.787 . S
C327 O302 1.252 . S
C327 O305 1.268 . S
C327 C320 1.506 . S
H328 C311 0.931 . S
H329 C312 0.931 . S
H330 C313 0.929 . S
H331 C314 0.930 . S
H332 C322 0.931 . S
H333 C323 0.931 . S
H334 C324 0.930 . S
H335 C325 0.929 . S
Eu336 N365 2.600 . S
Eu336 N371 2.562 . S
Eu336 O380 2.462 . S
Eu336 O381 2.373 . S
Eu336 O383 2.432 . S
Eu336 O384 2.291 . S
Eu336 O388 2.335 . S
Eu336 O391 2.372 . S
Eu336 C400 2.787 . S
C337 N338 1.365 . S
C337 C340 1.405 . S
C337 C344 1.448 . S
N338 C337 1.365 . S
N338 C341 1.319 . S
N338 Eu347 2.600 . S
C339 C341 1.397 . S
C339 C342 1.367 . S
C339 H359 0.931 . S
C340 C337 1.405 . S
C340 C342 1.403 . S
C340 C346 1.439 . S
C341 N338 1.319 . S
C341 C339 1.397 . S
C341 H352 0.930 . S
C342 C339 1.367 . S
C342 C340 1.403 . S
C342 H363 0.929 . S
C343 C344 1.430 . S
C343 C345 1.387 . S
C343 C349 1.404 . S
C344 C337 1.448 . S
C344 C343 1.430 . S
C344 N348 1.351 . S
C345 C343 1.387 . S
C345 C346 1.374 . S
C345 H360 0.931 . S
C346 C340 1.439 . S
C346 C345 1.374 . S
C346 H361 0.931 . S
Eu347 N338 2.600 . S
Eu347 N348 2.562 . S
Eu347 O382 2.335 . S
Eu347 O385 2.372 . S
Eu347 O386 2.462 . S
Eu347 O387 2.373 . S
Eu347 O389 2.432 . S
Eu347 O390 2.291 . S
Eu347 C411 2.787 . S
N348 C344 1.351 . S
N348 Eu347 2.562 . S
N348 C350 1.325 . S
C349 C343 1.404 . S
C349 C351 1.366 . S
C349 H357 0.930 . S
C350 N348 1.325 . S
C350 C351 1.416 . S
C350 H356 0.929 . S
C351 C349 1.366 . S
C351 C350 1.416 . S
C351 H353 0.930 . S
H352 C341 0.930 . S
H353 C351 0.930 . S
H354 C369 0.930 . S
H355 C376 0.930 . S
H356 C350 0.929 . S
H357 C349 0.930 . S
H358 C372 0.929 . S
H359 C339 0.931 . S
H360 C345 0.931 . S
H361 C346 0.931 . S
H362 C367 0.931 . S
H363 C342 0.929 . S
H364 C375 0.930 . S
N365 Eu336 2.600 . S
N365 C366 1.365 . S
N365 C369 1.319 . S
C366 N365 1.365 . S
C366 C368 1.405 . S
C366 C374 1.448 . S
C367 H362 0.931 . S
C367 C369 1.397 . S
C367 C370 1.367 . S
C368 C366 1.405 . S
C368 C370 1.403 . S
C368 C401 1.439 . S
C369 H354 0.930 . S
C369 N365 1.319 . S
C369 C367 1.397 . S
C370 C367 1.367 . S
C370 C368 1.403 . S
C370 H377 0.929 . S
N371 Eu336 2.562 . S
N371 C372 1.325 . S
N371 C374 1.351 . S
C372 H358 0.929 . S
C372 N371 1.325 . S
C372 C376 1.416 . S
C373 C374 1.430 . S
C373 C375 1.404 . S
C373 C402 1.387 . S
C374 C366 1.448 . S
C374 N371 1.351 . S
C374 C373 1.430 . S
C375 H364 0.930 . S
C375 C373 1.404 . S
C375 C376 1.366 . S
C376 H355 0.930 . S
C376 C372 1.416 . S
C376 C375 1.366 . S
H377 C370 0.929 . S
H378 C401 0.931 . S
H379 C402 0.931 . S
O380 Eu336 2.462 . S
O380 C400 1.252 . S
O381 Eu336 2.373 . S
O381 C392 1.249 . S
O382 Eu347 2.335 . S
O382 C392 1.264 . S
O383 Eu336 2.432 . S
O383 C400 1.268 . S
O384 Eu336 2.291 . S
O384 C399 1.255 . S
O385 Eu347 2.372 . S
O385 C399 1.257 . S
O386 Eu347 2.462 . S
O386 C411 1.252 . S
O387 Eu347 2.373 . S
O387 C403 1.249 . S
O388 Eu336 2.335 . S
O388 C403 1.264 . S
O389 Eu347 2.432 . S
O389 C411 1.268 . S
O390 Eu347 2.291 . S
O390 C410 1.255 . S
O391 Eu336 2.372 . S
O391 C410 1.257 . S
C392 O381 1.249 . S
C392 O382 1.264 . S
C393 C396 1.382 . S
C393 C398 1.390 . S
C393 C400 1.506 . S
C394 C395 1.398 . S
C394 C398 1.392 . S
C395 C394 1.398 . S
C395 C397 1.372 . S
C395 H412 0.931 . S
C396 C393 1.382 . S
C396 C397 1.390 . S
C396 H413 0.931 . S
C397 C395 1.372 . S
C397 C396 1.390 . S
C397 H414 0.929 . S
C398 C393 1.390 . S
C398 C394 1.392 . S
C398 H415 0.930 . S
C399 O384 1.255 . S
C399 O385 1.257 . S
C400 Eu336 2.787 . S
C400 O380 1.252 . S
C400 O383 1.268 . S
C400 C393 1.506 . S
C401 C368 1.439 . S
C401 H378 0.931 . S
C401 C402 1.374 . S
C402 C373 1.387 . S
C402 H379 0.931 . S
C402 C401 1.374 . S
C403 O387 1.249 . S
C403 O388 1.264 . S
C404 C407 1.382 . S
C404 C408 1.390 . S
C404 C411 1.506 . S
C405 C406 1.398 . S
C405 C408 1.392 . S
C406 C405 1.398 . S
C406 C409 1.372 . S
C406 H416 0.931 . S
C407 C404 1.382 . S
C407 C409 1.390 . S
C407 H417 0.931 . S
C408 C404 1.390 . S
C408 C405 1.392 . S
C408 H418 0.930 . S
C409 C406 1.372 . S
C409 C407 1.390 . S
C409 H419 0.929 . S
C410 O390 1.255 . S
C410 O391 1.257 . S
C411 Eu347 2.787 . S
C411 O386 1.252 . S
C411 O389 1.268 . S
C411 C404 1.506 . S
H412 C395 0.931 . S
H413 C396 0.931 . S
H414 C397 0.929 . S
H415 C398 0.930 . S
H416 C406 0.931 . S
H417 C407 0.931 . S
H418 C408 0.930 . S
H419 C409 0.929 . S
Eu420 N449 2.600 . S
Eu420 N455 2.562 . S
Eu420 O464 2.462 . S
Eu420 O465 2.373 . S
Eu420 O467 2.432 . S
Eu420 O468 2.291 . S
Eu420 O472 2.335 . S
Eu420 O475 2.372 . S
Eu420 C484 2.787 . S
C421 N422 1.365 . S
C421 C424 1.405 . S
C421 C428 1.448 . S
N422 C421 1.365 . S
N422 C425 1.319 . S
N422 Eu431 2.600 . S
C423 C425 1.397 . S
C423 C426 1.367 . S
C423 H443 0.931 . S
C424 C421 1.405 . S
C424 C426 1.403 . S
C424 C430 1.439 . S
C425 N422 1.319 . S
C425 C423 1.397 . S
C425 H436 0.930 . S
C426 C423 1.367 . S
C426 C424 1.403 . S
C426 H447 0.929 . S
C427 C428 1.430 . S
C427 C429 1.387 . S
C427 C433 1.404 . S
C428 C421 1.448 . S
C428 C427 1.430 . S
C428 N432 1.351 . S
C429 C427 1.387 . S
C429 C430 1.374 . S
C429 H444 0.931 . S
C430 C424 1.439 . S
C430 C429 1.374 . S
C430 H445 0.931 . S
Eu431 N422 2.600 . S
Eu431 N432 2.562 . S
Eu431 O466 2.335 . S
Eu431 O469 2.372 . S
Eu431 O470 2.462 . S
Eu431 O471 2.373 . S
Eu431 O473 2.432 . S
Eu431 O474 2.291 . S
Eu431 C495 2.787 . S
N432 C428 1.351 . S
N432 Eu431 2.562 . S
N432 C434 1.325 . S
C433 C427 1.404 . S
C433 C435 1.366 . S
C433 H441 0.930 . S
C434 N432 1.325 . S
C434 C435 1.416 . S
C434 H440 0.929 . S
C435 C433 1.366 . S
C435 C434 1.416 . S
C435 H437 0.930 . S
H436 C425 0.930 . S
H437 C435 0.930 . S
H438 C453 0.930 . S
H439 C460 0.930 . S
H440 C434 0.929 . S
H441 C433 0.930 . S
H442 C456 0.929 . S
H443 C423 0.931 . S
H444 C429 0.931 . S
H445 C430 0.931 . S
H446 C451 0.931 . S
H447 C426 0.929 . S
H448 C459 0.930 . S
N449 Eu420 2.600 . S
N449 C450 1.365 . S
N449 C453 1.319 . S
C450 N449 1.365 . S
C450 C452 1.405 . S
C450 C458 1.448 . S
C451 H446 0.931 . S
C451 C453 1.397 . S
C451 C454 1.367 . S
C452 C450 1.405 . S
C452 C454 1.403 . S
C452 C485 1.439 . S
C453 H438 0.930 . S
C453 N449 1.319 . S
C453 C451 1.397 . S
C454 C451 1.367 . S
C454 C452 1.403 . S
C454 H461 0.929 . S
N455 Eu420 2.562 . S
N455 C456 1.325 . S
N455 C458 1.351 . S
C456 H442 0.929 . S
C456 N455 1.325 . S
C456 C460 1.416 . S
C457 C458 1.430 . S
C457 C459 1.404 . S
C457 C486 1.387 . S
C458 C450 1.448 . S
C458 N455 1.351 . S
C458 C457 1.430 . S
C459 H448 0.930 . S
C459 C457 1.404 . S
C459 C460 1.366 . S
C460 H439 0.930 . S
C460 C456 1.416 . S
C460 C459 1.366 . S
H461 C454 0.929 . S
H462 C485 0.931 . S
H463 C486 0.931 . S
O464 Eu420 2.462 . S
O464 C484 1.252 . S
O465 Eu420 2.373 . S
O465 C476 1.249 . S
O466 Eu431 2.335 . S
O466 C476 1.264 . S
O467 Eu420 2.432 . S
O467 C484 1.268 . S
O468 Eu420 2.291 . S
O468 C483 1.255 . S
O469 Eu431 2.372 . S
O469 C483 1.257 . S
O470 Eu431 2.462 . S
O470 C495 1.252 . S
O471 Eu431 2.373 . S
O471 C487 1.249 . S
O472 Eu420 2.335 . S
O472 C487 1.264 . S
O473 Eu431 2.432 . S
O473 C495 1.268 . S
O474 Eu431 2.291 . S
O474 C494 1.255 . S
O475 Eu420 2.372 . S
O475 C494 1.257 . S
C476 O465 1.249 . S
C476 O466 1.264 . S
C477 C480 1.382 . S
C477 C482 1.390 . S
C477 C484 1.506 . S
C478 C479 1.398 . S
C478 C482 1.392 . S
C479 C478 1.398 . S
C479 C481 1.372 . S
C479 H496 0.931 . S
C480 C477 1.382 . S
C480 C481 1.390 . S
C480 H497 0.931 . S
C481 C479 1.372 . S
C481 C480 1.390 . S
C481 H498 0.929 . S
C482 C477 1.390 . S
C482 C478 1.392 . S
C482 H499 0.930 . S
C483 O468 1.255 . S
C483 O469 1.257 . S
C484 Eu420 2.787 . S
C484 O464 1.252 . S
C484 O467 1.268 . S
C484 C477 1.506 . S
C485 C452 1.439 . S
C485 H462 0.931 . S
C485 C486 1.374 . S
C486 C457 1.387 . S
C486 H463 0.931 . S
C486 C485 1.374 . S
C487 O471 1.249 . S
C487 O472 1.264 . S
C488 C491 1.382 . S
C488 C492 1.390 . S
C488 C495 1.506 . S
C489 C490 1.398 . S
C489 C492 1.392 . S
C490 C489 1.398 . S
C490 C493 1.372 . S
C490 H500 0.931 . S
C491 C488 1.382 . S
C491 C493 1.390 . S
C491 H501 0.931 . S
C492 C488 1.390 . S
C492 C489 1.392 . S
C492 H502 0.930 . S
C493 C490 1.372 . S
C493 C491 1.390 . S
C493 H503 0.929 . S
C494 O474 1.255 . S
C494 O475 1.257 . S
C495 Eu431 2.787 . S
C495 O470 1.252 . S
C495 O473 1.268 . S
C495 C488 1.506 . S
H496 C479 0.931 . S
H497 C480 0.931 . S
H498 C481 0.929 . S
H499 C482 0.930 . S
H500 C490 0.931 . S
H501 C491 0.931 . S
H502 C492 0.930 . S
H503 C493 0.929 . S
Eu504 N533 2.600 . S
Eu504 N539 2.562 . S
Eu504 O548 2.462 . S
Eu504 O549 2.373 . S
Eu504 O551 2.432 . S
Eu504 O552 2.291 . S
Eu504 O556 2.335 . S
Eu504 O559 2.372 . S
Eu504 C568 2.787 . S
C505 N506 1.365 . S
C505 C508 1.405 . S
C505 C512 1.448 . S
N506 C505 1.365 . S
N506 C509 1.319 . S
N506 Eu515 2.600 . S
C507 C509 1.397 . S
C507 C510 1.367 . S
C507 H527 0.931 . S
C508 C505 1.405 . S
C508 C510 1.403 . S
C508 C514 1.439 . S
C509 N506 1.319 . S
C509 C507 1.397 . S
C509 H520 0.930 . S
C510 C507 1.367 . S
C510 C508 1.403 . S
C510 H531 0.929 . S
C511 C512 1.430 . S
C511 C513 1.387 . S
C511 C517 1.404 . S
C512 C505 1.448 . S
C512 C511 1.430 . S
C512 N516 1.351 . S
C513 C511 1.387 . S
C513 C514 1.374 . S
C513 H528 0.931 . S
C514 C508 1.439 . S
C514 C513 1.374 . S
C514 H529 0.931 . S
Eu515 N506 2.600 . S
Eu515 N516 2.562 . S
Eu515 O550 2.335 . S
Eu515 O553 2.372 . S
Eu515 O554 2.462 . S
Eu515 O555 2.373 . S
Eu515 O557 2.432 . S
Eu515 O558 2.291 . S
Eu515 C579 2.787 . S
N516 C512 1.351 . S
N516 Eu515 2.562 . S
N516 C518 1.325 . S
C517 C511 1.404 . S
C517 C519 1.366 . S
C517 H525 0.930 . S
C518 N516 1.325 . S
C518 C519 1.416 . S
C518 H524 0.929 . S
C519 C517 1.366 . S
C519 C518 1.416 . S
C519 H521 0.930 . S
H520 C509 0.930 . S
H521 C519 0.930 . S
H522 C537 0.930 . S
H523 C544 0.930 . S
H524 C518 0.929 . S
H525 C517 0.930 . S
H526 C540 0.929 . S
H527 C507 0.931 . S
H528 C513 0.931 . S
H529 C514 0.931 . S
H530 C535 0.931 . S
H531 C510 0.929 . S
H532 C543 0.930 . S
N533 Eu504 2.600 . S
N533 C534 1.365 . S
N533 C537 1.319 . S
C534 N533 1.365 . S
C534 C536 1.405 . S
C534 C542 1.448 . S
C535 H530 0.931 . S
C535 C537 1.397 . S
C535 C538 1.367 . S
C536 C534 1.405 . S
C536 C538 1.403 . S
C536 C569 1.439 . S
C537 H522 0.930 . S
C537 N533 1.319 . S
C537 C535 1.397 . S
C538 C535 1.367 . S
C538 C536 1.403 . S
C538 H545 0.929 . S
N539 Eu504 2.562 . S
N539 C540 1.325 . S
N539 C542 1.351 . S
C540 H526 0.929 . S
C540 N539 1.325 . S
C540 C544 1.416 . S
C541 C542 1.430 . S
C541 C543 1.404 . S
C541 C570 1.387 . S
C542 C534 1.448 . S
C542 N539 1.351 . S
C542 C541 1.430 . S
C543 H532 0.930 . S
C543 C541 1.404 . S
C543 C544 1.366 . S
C544 H523 0.930 . S
C544 C540 1.416 . S
C544 C543 1.366 . S
H545 C538 0.929 . S
H546 C569 0.931 . S
H547 C570 0.931 . S
O548 Eu504 2.462 . S
O548 C568 1.252 . S
O549 Eu504 2.373 . S
O549 C560 1.249 . S
O550 Eu515 2.335 . S
O550 C560 1.264 . S
O551 Eu504 2.432 . S
O551 C568 1.268 . S
O552 Eu504 2.291 . S
O552 C567 1.255 . S
O553 Eu515 2.372 . S
O553 C567 1.257 . S
O554 Eu515 2.462 . S
O554 C579 1.252 . S
O555 Eu515 2.373 . S
O555 C571 1.249 . S
O556 Eu504 2.335 . S
O556 C571 1.264 . S
O557 Eu515 2.432 . S
O557 C579 1.268 . S
O558 Eu515 2.291 . S
O558 C578 1.255 . S
O559 Eu504 2.372 . S
O559 C578 1.257 . S
C560 O549 1.249 . S
C560 O550 1.264 . S
C561 C564 1.382 . S
C561 C566 1.390 . S
C561 C568 1.506 . S
C562 C563 1.398 . S
C562 C566 1.392 . S
C563 C562 1.398 . S
C563 C565 1.372 . S
C563 H580 0.931 . S
C564 C561 1.382 . S
C564 C565 1.390 . S
C564 H581 0.931 . S
C565 C563 1.372 . S
C565 C564 1.390 . S
C565 H582 0.929 . S
C566 C561 1.390 . S
C566 C562 1.392 . S
C566 H583 0.930 . S
C567 O552 1.255 . S
C567 O553 1.257 . S
C568 Eu504 2.787 . S
C568 O548 1.252 . S
C568 O551 1.268 . S
C568 C561 1.506 . S
C569 C536 1.439 . S
C569 H546 0.931 . S
C569 C570 1.374 . S
C570 C541 1.387 . S
C570 H547 0.931 . S
C570 C569 1.374 . S
C571 O555 1.249 . S
C571 O556 1.264 . S
C572 C575 1.382 . S
C572 C576 1.390 . S
C572 C579 1.506 . S
C573 C574 1.398 . S
C573 C576 1.392 . S
C574 C573 1.398 . S
C574 C577 1.372 . S
C574 H584 0.931 . S
C575 C572 1.382 . S
C575 C577 1.390 . S
C575 H585 0.931 . S
C576 C572 1.390 . S
C576 C573 1.392 . S
C576 H586 0.930 . S
C577 C574 1.372 . S
C577 C575 1.390 . S
C577 H587 0.929 . S
C578 O558 1.255 . S
C578 O559 1.257 . S
C579 Eu515 2.787 . S
C579 O554 1.252 . S
C579 O557 1.268 . S
C579 C572 1.506 . S
H580 C563 0.931 . S
H581 C564 0.931 . S
H582 C565 0.929 . S
H583 C566 0.930 . S
H584 C574 0.931 . S
H585 C575 0.931 . S
H586 C576 0.930 . S
H587 C577 0.929 . S
Eu588 N617 2.600 . S
Eu588 N623 2.562 . S
Eu588 O632 2.462 . S
Eu588 O633 2.373 . S
Eu588 O635 2.432 . S
Eu588 O636 2.291 . S
Eu588 O640 2.335 . S
Eu588 O643 2.372 . S
Eu588 C652 2.787 . S
C589 N590 1.365 . S
C589 C592 1.405 . S
C589 C596 1.448 . S
N590 C589 1.365 . S
N590 C593 1.319 . S
N590 Eu599 2.600 . S
C591 C593 1.397 . S
C591 C594 1.367 . S
C591 H611 0.931 . S
C592 C589 1.405 . S
C592 C594 1.403 . S
C592 C598 1.439 . S
C593 N590 1.319 . S
C593 C591 1.397 . S
C593 H604 0.930 . S
C594 C591 1.367 . S
C594 C592 1.403 . S
C594 H615 0.929 . S
C595 C596 1.430 . S
C595 C597 1.387 . S
C595 C601 1.404 . S
C596 C589 1.448 . S
C596 C595 1.430 . S
C596 N600 1.351 . S
C597 C595 1.387 . S
C597 C598 1.374 . S
C597 H612 0.931 . S
C598 C592 1.439 . S
C598 C597 1.374 . S
C598 H613 0.931 . S
Eu599 N590 2.600 . S
Eu599 N600 2.562 . S
Eu599 O634 2.335 . S
Eu599 O637 2.372 . S
Eu599 O638 2.462 . S
Eu599 O639 2.373 . S
Eu599 O641 2.432 . S
Eu599 O642 2.291 . S
Eu599 C663 2.787 . S
N600 C596 1.351 . S
N600 Eu599 2.562 . S
N600 C602 1.325 . S
C601 C595 1.404 . S
C601 C603 1.366 . S
C601 H609 0.930 . S
C602 N600 1.325 . S
C602 C603 1.416 . S
C602 H608 0.929 . S
C603 C601 1.366 . S
C603 C602 1.416 . S
C603 H605 0.930 . S
H604 C593 0.930 . S
H605 C603 0.930 . S
H606 C621 0.930 . S
H607 C628 0.930 . S
H608 C602 0.929 . S
H609 C601 0.930 . S
H610 C624 0.929 . S
H611 C591 0.931 . S
H612 C597 0.931 . S
H613 C598 0.931 . S
H614 C619 0.931 . S
H615 C594 0.929 . S
H616 C627 0.930 . S
N617 Eu588 2.600 . S
N617 C618 1.365 . S
N617 C621 1.319 . S
C618 N617 1.365 . S
C618 C620 1.405 . S
C618 C626 1.448 . S
C619 H614 0.931 . S
C619 C621 1.397 . S
C619 C622 1.367 . S
C620 C618 1.405 . S
C620 C622 1.403 . S
C620 C653 1.439 . S
C621 H606 0.930 . S
C621 N617 1.319 . S
C621 C619 1.397 . S
C622 C619 1.367 . S
C622 C620 1.403 . S
C622 H629 0.929 . S
N623 Eu588 2.562 . S
N623 C624 1.325 . S
N623 C626 1.351 . S
C624 H610 0.929 . S
C624 N623 1.325 . S
C624 C628 1.416 . S
C625 C626 1.430 . S
C625 C627 1.404 . S
C625 C654 1.387 . S
C626 C618 1.448 . S
C626 N623 1.351 . S
C626 C625 1.430 . S
C627 H616 0.930 . S
C627 C625 1.404 . S
C627 C628 1.366 . S
C628 H607 0.930 . S
C628 C624 1.416 . S
C628 C627 1.366 . S
H629 C622 0.929 . S
H630 C653 0.931 . S
H631 C654 0.931 . S
O632 Eu588 2.462 . S
O632 C652 1.252 . S
O633 Eu588 2.373 . S
O633 C644 1.249 . S
O634 Eu599 2.335 . S
O634 C644 1.264 . S
O635 Eu588 2.432 . S
O635 C652 1.268 . S
O636 Eu588 2.291 . S
O636 C651 1.255 . S
O637 Eu599 2.372 . S
O637 C651 1.257 . S
O638 Eu599 2.462 . S
O638 C663 1.252 . S
O639 Eu599 2.373 . S
O639 C655 1.249 . S
O640 Eu588 2.335 . S
O640 C655 1.264 . S
O641 Eu599 2.432 . S
O641 C663 1.268 . S
O642 Eu599 2.291 . S
O642 C662 1.255 . S
O643 Eu588 2.372 . S
O643 C662 1.257 . S
C644 O633 1.249 . S
C644 O634 1.264 . S
C645 C648 1.382 . S
C645 C650 1.390 . S
C645 C652 1.506 . S
C646 C647 1.398 . S
C646 C650 1.392 . S
C647 C646 1.398 . S
C647 C649 1.372 . S
C647 H664 0.931 . S
C648 C645 1.382 . S
C648 C649 1.390 . S
C648 H665 0.931 . S
C649 C647 1.372 . S
C649 C648 1.390 . S
C649 H666 0.929 . S
C650 C645 1.390 . S
C650 C646 1.392 . S
C650 H667 0.930 . S
C651 O636 1.255 . S
C651 O637 1.257 . S
C652 Eu588 2.787 . S
C652 O632 1.252 . S
C652 O635 1.268 . S
C652 C645 1.506 . S
C653 C620 1.439 . S
C653 H630 0.931 . S
C653 C654 1.374 . S
C654 C625 1.387 . S
C654 H631 0.931 . S
C654 C653 1.374 . S
C655 O639 1.249 . S
C655 O640 1.264 . S
C656 C659 1.382 . S
C656 C660 1.390 . S
C656 C663 1.506 . S
C657 C658 1.398 . S
C657 C660 1.392 . S
C658 C657 1.398 . S
C658 C661 1.372 . S
C658 H668 0.931 . S
C659 C656 1.382 . S
C659 C661 1.390 . S
C659 H669 0.931 . S
C660 C656 1.390 . S
C660 C657 1.392 . S
C660 H670 0.930 . S
C661 C658 1.372 . S
C661 C659 1.390 . S
C661 H671 0.929 . S
C662 O642 1.255 . S
C662 O643 1.257 . S
C663 Eu599 2.787 . S
C663 O638 1.252 . S
C663 O641 1.268 . S
C663 C656 1.506 . S
H664 C647 0.931 . S
H665 C648 0.931 . S
H666 C649 0.929 . S
H667 C650 0.930 . S
H668 C658 0.931 . S
H669 C659 0.931 . S
H670 C660 0.930 . S
H671 C661 0.929 . S
Cd672 N675 2.334 1_655 S
Cd672 N701 2.304 1_565 S
Cd672 O708 2.268 . S
Cd672 O711 2.273 1_665 S
Cd672 O712 2.417 . S
Cd672 O713 2.330 . S
Cd673 N688 2.304 1_455 S
Cd673 N692 2.334 1_545 S
Cd673 O709 2.273 1_445 S
Cd673 O710 2.268 . S
Cd673 O714 2.417 . S
Cd673 O715 2.330 . S
C674 N675 1.332 . S
C674 C678 1.381 . S
C674 H680 0.931 . S
N675 Cd672 2.334 1_455 S
N675 C674 1.332 . S
N675 C679 1.328 . S
C676 C677 1.396 . S
C676 C679 1.378 . S
C676 H718 0.931 . S
C677 C676 1.396 . S
C677 C678 1.382 . S
C678 C674 1.381 . S
C678 C677 1.382 . S
C678 H719 0.930 . S
C679 N675 1.328 . S
C679 C676 1.378 . S
C679 H681 0.930 1_455 S
H680 C674 0.931 . S
H681 C679 0.930 1_655 S
C682 O708 1.238 . S
C682 O709 1.253 . S
C683 C684 1.379 . S
C683 N688 1.337 . S
C683 H689 0.929 . S
C684 C683 1.379 . S
C684 C685 1.380 . S
C684 H720 0.929 . S
C685 C684 1.380 . S
C685 C686 1.399 . S
C686 C685 1.399 . S
C686 C687 1.376 . S
C686 H721 0.931 . S
C687 C686 1.376 . S
C687 N688 1.338 . S
C687 H690 0.930 1_655 S
N688 Cd673 2.304 1_655 S
N688 C683 1.337 . S
N688 C687 1.338 . S
H689 C683 0.929 . S
H690 C687 0.930 1_455 S
C691 N692 1.332 . S
C691 C695 1.381 . S
C691 H697 0.931 . S
N692 Cd673 2.334 1_565 S
N692 C691 1.332 . S
N692 C696 1.328 . S
C693 C694 1.396 . S
C693 C696 1.378 . S
C693 H722 0.931 . S
C694 C693 1.396 . S
C694 C695 1.382 . S
C695 C691 1.381 . S
C695 C694 1.382 . S
C695 H723 0.930 . S
C696 N692 1.328 . S
C696 C693 1.378 . S
C696 H698 0.930 1_565 S
H697 C691 0.931 . S
H698 C696 0.930 1_545 S
C699 O710 1.238 . S
C699 O711 1.253 . S
C700 O712 1.239 . S
C700 O713 1.230 . S
N701 Cd672 2.304 1_545 S
N701 C702 1.337 . S
N701 C706 1.338 . S
C702 N701 1.337 . S
C702 C703 1.379 . S
C702 H716 0.929 . S
C703 C702 1.379 . S
C703 C704 1.380 . S
C703 H724 0.929 . S
C704 C703 1.380 . S
C704 C705 1.399 . S
C705 C704 1.399 . S
C705 C706 1.376 . S
C705 H725 0.931 . S
C706 N701 1.338 . S
C706 C705 1.376 . S
C706 H717 0.930 1_545 S
C707 O714 1.239 . S
C707 O715 1.230 . S
O708 Cd672 2.268 . S
O708 C682 1.238 . S
O709 Cd673 2.273 1_665 S
O709 C682 1.253 . S
O710 Cd673 2.268 . S
O710 C699 1.238 . S
O711 Cd672 2.273 1_445 S
O711 C699 1.253 . S
O712 Cd672 2.417 . S
O712 C700 1.239 . S
O713 Cd672 2.330 . S
O713 C700 1.230 . S
O714 Cd673 2.417 . S
O714 C707 1.239 . S
O715 Cd673 2.330 . S
O715 C707 1.230 . S
H716 C702 0.929 . S
H717 C706 0.930 1_565 S
H718 C676 0.931 . S
H719 C678 0.930 . S
H720 C684 0.929 . S
H721 C686 0.931 . S
H722 C693 0.931 . S
H723 C695 0.930 . S
H724 C703 0.929 . S
H725 C705 0.931 . S
Cd726 N729 2.334 . S
Cd726 N755 2.304 1_565 S
Cd726 O762 2.268 1_554 S
Cd726 O765 2.273 1_565 S
Cd726 O766 2.417 . S
Cd726 O767 2.330 . S
Cd727 N742 2.304 . S
Cd727 N746 2.334 1_545 S
Cd727 O763 2.273 1_545 S
Cd727 O764 2.268 1_556 S
Cd727 O768 2.417 . S
Cd727 O769 2.330 . S
C728 N729 1.332 . S
C728 C732 1.381 . S
C728 H734 0.931 . S
N729 Cd726 2.334 . S
N729 C728 1.332 . S
N729 C733 1.328 . S
C730 C731 1.396 . S
C730 C733 1.378 . S
C730 H772 0.931 1_554 S
C731 C730 1.396 . S
C731 C732 1.382 . S
C732 C728 1.381 . S
C732 C731 1.382 . S
C732 H773 0.930 . S
C733 N729 1.328 . S
C733 C730 1.378 . S
C733 H735 0.930 1_554 S
H734 C728 0.931 . S
H735 C733 0.930 1_556 S
C736 O762 1.238 . S
C736 O763 1.253 . S
C737 C738 1.379 . S
C737 N742 1.337 . S
C737 H743 0.929 . S
C738 C737 1.379 . S
C738 C739 1.380 . S
C738 H774 0.929 . S
C739 C738 1.380 . S
C739 C740 1.399 . S
C740 C739 1.399 . S
C740 C741 1.376 . S
C740 H775 0.931 1_556 S
C741 C740 1.376 . S
C741 N742 1.338 . S
C741 H744 0.930 1_556 S
N742 Cd727 2.304 . S
N742 C737 1.337 . S
N742 C741 1.338 . S
H743 C737 0.929 . S
H744 C741 0.930 1_554 S
C745 N746 1.332 . S
C745 C749 1.381 . S
C745 H751 0.931 . S
N746 Cd727 2.334 1_565 S
N746 C745 1.332 . S
N746 C750 1.328 . S
C747 C748 1.396 . S
C747 C750 1.378 . S
C747 H776 0.931 . S
C748 C747 1.396 . S
C748 C749 1.382 . S
C749 C745 1.381 . S
C749 C748 1.382 . S
C749 H777 0.930 . S
C750 N746 1.328 . S
C750 C747 1.378 . S
C750 H752 0.930 1_566 S
H751 C745 0.931 . S
H752 C750 0.930 1_544 S
C753 O764 1.238 . S
C753 O765 1.253 . S
C754 O766 1.239 . S
C754 O767 1.230 . S
N755 Cd726 2.304 1_545 S
N755 C756 1.337 . S
N755 C760 1.338 . S
C756 N755 1.337 . S
C756 C757 1.379 . S
C756 H770 0.929 . S
C757 C756 1.379 . S
C757 C758 1.380 . S
C757 H778 0.929 . S
C758 C757 1.380 . S
C758 C759 1.399 . S
C759 C758 1.399 . S
C759 C760 1.376 . S
C759 H779 0.950 . S
C760 N755 1.338 . S
C760 C759 1.376 . S
C760 H771 0.930 1_544 S
C761 O768 1.239 . S
C761 O769 1.230 . S
O762 Cd726 2.268 1_556 S
O762 C736 1.238 . S
O763 Cd727 2.273 1_565 S
O763 C736 1.253 . S
O764 Cd727 2.268 1_554 S
O764 C753 1.238 . S
O765 Cd726 2.273 1_545 S
O765 C753 1.253 . S
O766 Cd726 2.417 . S
O766 C754 1.239 . S
O767 Cd726 2.330 . S
O767 C754 1.230 . S
O768 Cd727 2.417 . S
O768 C761 1.239 . S
O769 Cd727 2.330 . S
O769 C761 1.230 . S
H770 C756 0.929 . S
H771 C760 0.930 1_566 S
H772 C730 0.931 1_556 S
H773 C732 0.930 . S
H774 C738 0.929 . S
H775 C740 0.931 1_554 S
H776 C747 0.931 . S
H777 C749 0.930 . S
H778 C757 0.929 . S
H779 C759 0.950 . S
Cd780 N783 2.334 1_655 S
Cd780 N809 2.304 . S
Cd780 O816 2.268 1_554 S
Cd780 O819 2.273 1_655 S
Cd780 O820 2.417 . S
Cd780 O821 2.330 . S
Cd781 N796 2.304 1_455 S
Cd781 N800 2.334 . S
Cd781 O817 2.273 1_455 S
Cd781 O818 2.268 1_556 S
Cd781 O822 2.417 . S
Cd781 O823 2.330 . S
C782 N783 1.332 . S
C782 C786 1.381 . S
C782 H788 0.931 . S
N783 Cd780 2.334 1_455 S
N783 C782 1.332 . S
N783 C787 1.328 . S
C784 C785 1.396 . S
C784 C787 1.378 . S
C784 H826 0.931 1_554 S
C785 C784 1.396 . S
C785 C786 1.382 . S
C786 C782 1.381 . S
C786 C785 1.382 . S
C786 H827 0.930 . S
C787 N783 1.328 . S
C787 C784 1.378 . S
C787 H789 0.930 1_454 S
H788 C782 0.931 . S
H789 C787 0.930 1_656 S
C790 O816 1.238 . S
C790 O817 1.253 . S
C791 C792 1.379 . S
C791 N796 1.337 . S
C791 H797 0.929 . S
C792 C791 1.379 . S
C792 C793 1.380 . S
C792 H828 0.929 . S
C793 C792 1.380 . S
C793 C794 1.399 . S
C794 C793 1.399 . S
C794 C795 1.376 . S
C794 H829 0.931 1_556 S
C795 C794 1.376 . S
C795 N796 1.338 . S
C795 H798 0.930 1_656 S
N796 Cd781 2.304 1_655 S
N796 C791 1.337 . S
N796 C795 1.338 . S
H797 C791 0.929 . S
H798 C795 0.930 1_454 S
C799 N800 1.332 . S
C799 C803 1.381 . S
C799 H805 0.931 . S
N800 Cd781 2.334 . S
N800 C799 1.332 . S
N800 C804 1.328 . S
C801 C802 1.396 . S
C801 C804 1.378 . S
C801 H830 0.931 . S
C802 C801 1.396 . S
C802 C803 1.382 . S
C803 C799 1.381 . S
C803 C802 1.382 . S
C803 H831 0.930 . S
C804 N800 1.328 . S
C804 C801 1.378 . S
C804 H806 0.930 1_556 S
H805 C799 0.931 . S
H806 C804 0.930 1_554 S
C807 O818 1.238 . S
C807 O819 1.253 . S
C808 O820 1.239 . S
C808 O821 1.230 . S
N809 Cd780 2.304 . S
N809 C810 1.337 . S
N809 C814 1.338 . S
C810 N809 1.337 . S
C810 C811 1.379 . S
C810 H824 0.929 . S
C811 C810 1.379 . S
C811 C812 1.380 . S
C811 H832 0.929 . S
C812 C811 1.380 . S
C812 C813 1.399 . S
C813 C812 1.399 . S
C813 C814 1.376 . S
C813 H833 0.950 . S
C814 N809 1.338 . S
C814 C813 1.376 . S
C814 H825 0.930 1_554 S
C815 O822 1.239 . S
C815 O823 1.230 . S
O816 Cd780 2.268 1_556 S
O816 C790 1.238 . S
O817 Cd781 2.273 1_655 S
O817 C790 1.253 . S
O818 Cd781 2.268 1_554 S
O818 C807 1.238 . S
O819 Cd780 2.273 1_455 S
O819 C807 1.253 . S
O820 Cd780 2.417 . S
O820 C808 1.239 . S
O821 Cd780 2.330 . S
O821 C808 1.230 . S
O822 Cd781 2.417 . S
O822 C815 1.239 . S
O823 Cd781 2.330 . S
O823 C815 1.230 . S
H824 C810 0.929 . S
H825 C814 0.930 1_556 S
H826 C784 0.931 1_556 S
H827 C786 0.930 . S
H828 C792 0.929 . S
H829 C794 0.931 1_554 S
H830 C801 0.931 . S
H831 C803 0.930 . S
H832 C811 0.929 . S
H833 C813 0.950 . S
Cd834 N837 2.334 . S
Cd834 N863 2.304 . S
Cd834 O870 2.268 1_554 S
Cd834 O873 2.273 . S
Cd834 O874 2.417 . S
Cd834 O875 2.330 . S
Cd835 N850 2.304 . S
Cd835 N854 2.334 . S
Cd835 O871 2.273 . S
Cd835 O872 2.268 1_556 S
Cd835 O876 2.417 . S
Cd835 O877 2.330 . S
C836 N837 1.332 . S
C836 C840 1.381 . S
C836 H842 0.931 . S
N837 Cd834 2.334 . S
N837 C836 1.332 . S
N837 C841 1.328 . S
C838 C839 1.396 . S
C838 C841 1.378 . S
C838 H880 0.931 1_554 S
C839 C838 1.396 . S
C839 C840 1.382 . S
C840 C836 1.381 . S
C840 C839 1.382 . S
C840 H881 0.930 . S
C841 N837 1.328 . S
C841 C838 1.378 . S
C841 H843 0.930 1_554 S
H842 C836 0.931 . S
H843 C841 0.930 1_556 S
C844 O870 1.238 . S
C844 O871 1.253 . S
C845 C846 1.379 . S
C845 N850 1.337 . S
C845 H851 0.929 . S
C846 C845 1.379 . S
C846 C847 1.380 . S
C846 H882 0.929 . S
C847 C846 1.380 . S
C847 C848 1.399 . S
C848 C847 1.399 . S
C848 C849 1.376 . S
C848 H883 0.931 1_556 S
C849 C848 1.376 . S
C849 N850 1.338 . S
C849 H852 0.930 1_556 S
N850 Cd835 2.304 . S
N850 C845 1.337 . S
N850 C849 1.338 . S
H851 C845 0.929 . S
H852 C849 0.930 1_554 S
C853 N854 1.332 . S
C853 C857 1.381 . S
C853 H859 0.931 . S
N854 Cd835 2.334 . S
N854 C853 1.332 . S
N854 C858 1.328 . S
C855 C856 1.396 . S
C855 C858 1.378 . S
C855 H884 0.961 . S
C856 C855 1.396 . S
C856 C857 1.382 . S
C857 C853 1.381 . S
C857 C856 1.382 . S
C857 H885 0.930 . S
C858 N854 1.328 . S
C858 C855 1.378 . S
C858 H860 0.930 1_556 S
H859 C853 0.931 . S
H860 C858 0.930 1_554 S
C861 O872 1.238 . S
C861 O873 1.253 . S
C862 O874 1.239 . S
C862 O875 1.230 . S
N863 Cd834 2.304 . S
N863 C864 1.337 . S
N863 C868 1.338 . S
C864 N863 1.337 . S
C864 C865 1.379 . S
C864 H878 0.929 . S
C865 C864 1.379 . S
C865 C866 1.380 . S
C865 H886 0.929 . S
C866 C865 1.380 . S
C866 C867 1.399 . S
C867 C866 1.399 . S
C867 C868 1.376 . S
C867 H887 0.951 . S
C868 N863 1.338 . S
C868 C867 1.376 . S
C868 H879 0.930 1_554 S
C869 O876 1.239 . S
C869 O877 1.230 . S
O870 Cd834 2.268 1_556 S
O870 C844 1.238 . S
O871 Cd835 2.273 . S
O871 C844 1.253 . S
O872 Cd835 2.268 1_554 S
O872 C861 1.238 . S
O873 Cd834 2.273 . S
O873 C861 1.253 . S
O874 Cd834 2.417 . S
O874 C862 1.239 . S
O875 Cd834 2.330 . S
O875 C862 1.230 . S
O876 Cd835 2.417 . S
O876 C869 1.239 . S
O877 Cd835 2.330 . S
O877 C869 1.230 . S
H878 C864 0.929 . S
H879 C868 0.930 1_556 S
H880 C838 0.931 1_556 S
H881 C840 0.930 . S
H882 C846 0.929 . S
H883 C848 0.931 1_554 S
H884 C855 0.961 . S
H885 C857 0.930 . S
H886 C865 0.929 . S
H887 C867 0.951 . S
Cd888 N891 2.334 1_655 S
Cd888 N917 2.304 . S
Cd888 O924 2.268 . S
Cd888 O927 2.273 1_655 S
Cd888 O928 2.417 . S
Cd888 O929 2.330 . S
Cd889 N904 2.304 1_455 S
Cd889 N908 2.334 . S
Cd889 O925 2.273 1_455 S
Cd889 O926 2.268 . S
Cd889 O930 2.417 . S
Cd889 O931 2.330 . S
C890 N891 1.332 . S
C890 C894 1.381 . S
C890 H896 0.931 . S
N891 Cd888 2.334 1_455 S
N891 C890 1.332 . S
N891 C895 1.328 . S
C892 C893 1.396 . S
C892 C895 1.378 . S
C892 H934 0.931 . S
C893 C892 1.396 . S
C893 C894 1.382 . S
C894 C890 1.381 . S
C894 C893 1.382 . S
C894 H935 0.930 . S
C895 N891 1.328 . S
C895 C892 1.378 . S
C895 H897 0.930 1_455 S
H896 C890 0.931 . S
H897 C895 0.930 1_655 S
C898 O924 1.238 . S
C898 O925 1.253 . S
C899 C900 1.379 . S
C899 N904 1.337 . S
C899 H905 0.929 . S
C900 C899 1.379 . S
C900 C901 1.380 . S
C900 H936 0.929 . S
C901 C900 1.380 . S
C901 C902 1.399 . S
C902 C901 1.399 . S
C902 C903 1.376 . S
C902 H937 0.931 . S
C903 C902 1.376 . S
C903 N904 1.338 . S
C903 H906 0.930 1_655 S
N904 Cd889 2.304 1_655 S
N904 C899 1.337 . S
N904 C903 1.338 . S
H905 C899 0.929 . S
H906 C903 0.930 1_455 S
C907 N908 1.332 . S
C907 C911 1.381 . S
C907 H913 0.931 . S
N908 Cd889 2.334 . S
N908 C907 1.332 . S
N908 C912 1.328 . S
C909 C910 1.396 . S
C909 C912 1.378 . S
C909 H938 0.931 . S
C910 C909 1.396 . S
C910 C911 1.382 . S
C911 C907 1.381 . S
C911 C910 1.382 . S
C911 H939 0.930 . S
C912 N908 1.328 . S
C912 C909 1.378 . S
C912 H914 0.930 . S
H913 C907 0.931 . S
H914 C912 0.930 . S
C915 O926 1.238 . S
C915 O927 1.253 . S
C916 O928 1.239 . S
C916 O929 1.230 . S
N917 Cd888 2.304 . S
N917 C918 1.337 . S
N917 C922 1.338 . S
C918 N917 1.337 . S
C918 C919 1.379 . S
C918 H932 0.929 . S
C919 C918 1.379 . S
C919 C920 1.380 . S
C919 H940 0.929 . S
C920 C919 1.380 . S
C920 C921 1.399 . S
C921 C920 1.399 . S
C921 C922 1.376 . S
C921 H941 0.931 . S
C922 N917 1.338 . S
C922 C921 1.376 . S
C922 H933 0.930 . S
C923 O930 1.239 . S
C923 O931 1.230 . S
O924 Cd888 2.268 . S
O924 C898 1.238 . S
O925 Cd889 2.273 1_655 S
O925 C898 1.253 . S
O926 Cd889 2.268 . S
O926 C915 1.238 . S
O927 Cd888 2.273 1_455 S
O927 C915 1.253 . S
O928 Cd888 2.417 . S
O928 C916 1.239 . S
O929 Cd888 2.330 . S
O929 C916 1.230 . S
O930 Cd889 2.417 . S
O930 C923 1.239 . S
O931 Cd889 2.330 . S
O931 C923 1.230 . S
H932 C918 0.929 . S
H933 C922 0.930 . S
H934 C892 0.931 . S
H935 C894 0.930 . S
H936 C900 0.929 . S
H937 C902 0.931 . S
H938 C909 0.931 . S
H939 C911 0.930 . S
H940 C919 0.929 . S
H941 C921 0.931 . S
Cd942 N945 2.334 . S
Cd942 N971 2.304 1_565 S
Cd942 O978 2.268 . S
Cd942 O981 2.273 1_565 S
Cd942 O982 2.417 . S
Cd942 O983 2.330 . S
Cd943 N958 2.304 . S
Cd943 N962 2.334 1_545 S
Cd943 O979 2.273 1_545 S
Cd943 O980 2.268 . S
Cd943 O984 2.417 . S
Cd943 O985 2.330 . S
C944 N945 1.332 . S
C944 C948 1.381 . S
C944 H950 0.931 . S
N945 Cd942 2.334 . S
N945 C944 1.332 . S
N945 C949 1.328 . S
C946 C947 1.396 . S
C946 C949 1.378 . S
C946 H988 0.931 . S
C947 C946 1.396 . S
C947 C948 1.382 . S
C948 C944 1.381 . S
C948 C947 1.382 . S
C948 H989 0.930 . S
C949 N945 1.328 . S
C949 C946 1.378 . S
C949 H951 0.930 . S
H950 C944 0.931 . S
H951 C949 0.930 . S
C952 O978 1.238 . S
C952 O979 1.253 . S
C953 C954 1.379 . S
C953 N958 1.337 . S
C953 H959 0.929 . S
C954 C953 1.379 . S
C954 C955 1.380 . S
C954 H990 0.929 . S
C955 C954 1.380 . S
C955 C956 1.399 . S
C956 C955 1.399 . S
C956 C957 1.376 . S
C956 H991 0.931 . S
C957 C956 1.376 . S
C957 N958 1.338 . S
C957 H960 0.930 . S
N958 Cd943 2.304 . S
N958 C953 1.337 . S
N958 C957 1.338 . S
H959 C953 0.929 . S
H960 C957 0.930 . S
C961 N962 1.332 . S
C961 C965 1.381 . S
C961 H967 0.931 . S
N962 Cd943 2.334 1_565 S
N962 C961 1.332 . S
N962 C966 1.328 . S
C963 C964 1.396 . S
C963 C966 1.378 . S
C963 H992 0.931 . S
C964 C963 1.396 . S
C964 C965 1.382 . S
C965 C961 1.381 . S
C965 C964 1.382 . S
C965 H993 0.930 . S
C966 N962 1.328 . S
C966 C963 1.378 . S
C966 H968 0.930 1_565 S
H967 C961 0.931 . S
H968 C966 0.930 1_545 S
C969 O980 1.238 . S
C969 O981 1.253 . S
C970 O982 1.239 . S
C970 O983 1.230 . S
N971 Cd942 2.304 1_545 S
N971 C972 1.337 . S
N971 C976 1.338 . S
C972 N971 1.337 . S
C972 C973 1.379 . S
C972 H986 0.929 . S
C973 C972 1.379 . S
C973 C974 1.380 . S
C973 H994 0.929 . S
C974 C973 1.380 . S
C974 C975 1.399 . S
C975 C974 1.399 . S
C975 C976 1.376 . S
C975 H995 0.931 . S
C976 N971 1.338 . S
C976 C975 1.376 . S
C976 H987 0.930 1_545 S
C977 O984 1.239 . S
C977 O985 1.230 . S
O978 Cd942 2.268 . S
O978 C952 1.238 . S
O979 Cd943 2.273 1_565 S
O979 C952 1.253 . S
O980 Cd943 2.268 . S
O980 C969 1.238 . S
O981 Cd942 2.273 1_545 S
O981 C969 1.253 . S
O982 Cd942 2.417 . S
O982 C970 1.239 . S
O983 Cd942 2.330 . S
O983 C970 1.230 . S
O984 Cd943 2.417 . S
O984 C977 1.239 . S
O985 Cd943 2.330 . S
O985 C977 1.230 . S
H986 C972 0.929 . S
H987 C976 0.930 1_565 S
H988 C946 0.931 . S
H989 C948 0.930 . S
H990 C954 0.929 . S
H991 C956 0.931 . S
H992 C963 0.931 . S
H993 C965 0.930 . S
H994 C973 0.929 . S
H995 C975 0.931 . S
C996 C997 1.349 . S
C996 C998 1.327 . S
C996 H1021 0.950 . S
C997 C996 1.349 . S
C997 C1013 1.349 . S
C998 C996 1.327 . S
C998 C1017 1.429 . S
C998 H1022 0.950 . S
C999 C1016 1.574 . S
C999 C1018 1.368 . S
C999 H1023 0.949 . S
H1000 C1004 0.949 . S
C1001 C1002 1.349 . S
C1001 C1003 1.327 . S
C1001 H1024 0.950 . S
C1002 C1001 1.349 . S
C1002 C1014 1.349 . S
C1003 C1001 1.327 . S
C1003 C1019 1.429 . S
C1003 H1025 0.950 . S
C1004 H1000 0.949 . S
C1004 C1012 1.574 . S
C1004 C1020 1.368 . S
H1005 C1013 0.950 . S
H1006 C1011 0.950 . S
H1007 C1012 0.949 . S
H1008 C1014 0.950 . S
H1009 C1015 0.950 . S
H1010 C1016 0.949 . S
C1011 H1006 0.950 . S
C1011 C1013 1.327 . S
C1011 C1017 1.429 . S
C1012 C1004 1.574 . S
C1012 H1007 0.949 . S
C1012 C1018 1.368 . S
C1013 C997 1.349 . S
C1013 H1005 0.950 . S
C1013 C1011 1.327 . S
C1014 C1002 1.349 . S
C1014 H1008 0.950 . S
C1014 C1015 1.327 . S
C1015 H1009 0.950 . S
C1015 C1014 1.327 . S
C1015 C1019 1.429 . S
C1016 C999 1.574 . S
C1016 H1010 0.949 . S
C1016 C1020 1.368 . S
C1017 C998 1.429 . S
C1017 C1011 1.429 . S
C1017 C1018 1.523 . S
C1018 C999 1.368 . S
C1018 C1012 1.368 . S
C1018 C1017 1.523 . S
C1019 C1003 1.429 . S
C1019 C1015 1.429 . S
C1019 C1020 1.523 . S
C1020 C1004 1.368 . S
C1020 C1016 1.368 . S
C1020 C1019 1.523 . S
H1021 C996 0.950 . S
H1022 C998 0.950 . S
H1023 C999 0.949 . S
H1024 C1001 0.950 . S
H1025 C1003 0.950 . S
C1026 C1027 1.349 . S
C1026 C1028 1.327 . S
C1026 H1051 0.950 . S
C1027 C1026 1.349 . S
C1027 C1043 1.349 . S
C1028 C1026 1.327 . S
C1028 C1047 1.429 . S
C1028 H1052 0.950 . S
C1029 C1046 1.574 . S
C1029 C1048 1.368 . S
C1029 H1053 0.949 . S
H1030 C1034 0.949 . S
C1031 C1032 1.349 . S
C1031 C1033 1.327 . S
C1031 H1054 0.950 . S
C1032 C1031 1.349 . S
C1032 C1044 1.349 . S
C1033 C1031 1.327 . S
C1033 C1049 1.429 . S
C1033 H1055 0.950 . S
C1034 H1030 0.949 . S
C1034 C1042 1.574 . S
C1034 C1050 1.368 . S
H1035 C1043 0.950 . S
H1036 C1041 0.950 . S
H1037 C1042 0.949 . S
H1038 C1044 0.950 . S
H1039 C1045 0.950 . S
H1040 C1046 0.949 . S
C1041 H1036 0.950 . S
C1041 C1043 1.327 . S
C1041 C1047 1.429 . S
C1042 C1034 1.574 . S
C1042 H1037 0.949 . S
C1042 C1048 1.368 . S
C1043 C1027 1.349 . S
C1043 H1035 0.950 . S
C1043 C1041 1.327 . S
C1044 C1032 1.349 . S
C1044 H1038 0.950 . S
C1044 C1045 1.327 . S
C1045 H1039 0.950 . S
C1045 C1044 1.327 . S
C1045 C1049 1.429 . S
C1046 C1029 1.574 . S
C1046 H1040 0.949 . S
C1046 C1050 1.368 . S
C1047 C1028 1.429 . S
C1047 C1041 1.429 . S
C1047 C1048 1.523 . S
C1048 C1029 1.368 . S
C1048 C1042 1.368 . S
C1048 C1047 1.523 . S
C1049 C1033 1.429 . S
C1049 C1045 1.429 . S
C1049 C1050 1.523 . S
C1050 C1034 1.368 . S
C1050 C1046 1.368 . S
C1050 C1049 1.523 . S
H1051 C1026 0.950 . S
H1052 C1028 0.950 . S
H1053 C1029 0.949 . S
H1054 C1031 0.950 . S
H1055 C1033 0.950 . S
C1056 C1057 1.349 . S
C1056 C1058 1.327 . S
C1056 H1081 0.950 . S
C1057 C1056 1.349 . S
C1057 C1073 1.349 . S
C1058 C1056 1.327 . S
C1058 C1077 1.429 . S
C1058 H1082 0.950 . S
C1059 C1076 1.574 . S
C1059 C1078 1.368 . S
C1059 H1083 0.949 . S
H1060 C1064 0.949 . S
C1061 C1062 1.349 . S
C1061 C1063 1.327 . S
C1061 H1084 0.950 . S
C1062 C1061 1.349 . S
C1062 C1074 1.349 . S
C1063 C1061 1.327 . S
C1063 C1079 1.429 . S
C1063 H1085 0.950 . S
C1064 H1060 0.949 . S
C1064 C1072 1.574 . S
C1064 C1080 1.368 . S
H1065 C1073 0.950 . S
H1066 C1071 0.950 . S
H1067 C1072 0.949 . S
H1068 C1074 0.950 . S
H1069 C1075 0.950 . S
H1070 C1076 0.949 . S
C1071 H1066 0.950 . S
C1071 C1073 1.327 . S
C1071 C1077 1.429 . S
C1072 C1064 1.574 . S
C1072 H1067 0.949 . S
C1072 C1078 1.368 . S
C1073 C1057 1.349 . S
C1073 H1065 0.950 . S
C1073 C1071 1.327 . S
C1074 C1062 1.349 . S
C1074 H1068 0.950 . S
C1074 C1075 1.327 . S
C1075 H1069 0.950 . S
C1075 C1074 1.327 . S
C1075 C1079 1.429 . S
C1076 C1059 1.574 . S
C1076 H1070 0.949 . S
C1076 C1080 1.368 . S
C1077 C1058 1.429 . S
C1077 C1071 1.429 . S
C1077 C1078 1.523 . S
C1078 C1059 1.368 . S
C1078 C1072 1.368 . S
C1078 C1077 1.523 . S
C1079 C1063 1.429 . S
C1079 C1075 1.429 . S
C1079 C1080 1.523 . S
C1080 C1064 1.368 . S
C1080 C1076 1.368 . S
C1080 C1079 1.523 . S
H1081 C1056 0.950 . S
H1082 C1058 0.950 . S
H1083 C1059 0.949 . S
H1084 C1061 0.950 . S
H1085 C1063 0.950 . S
C1086 C1087 1.349 . S
C1086 C1088 1.327 . S
C1086 H1111 0.950 . S
C1087 C1086 1.349 . S
C1087 C1103 1.349 . S
C1088 C1086 1.327 . S
C1088 C1107 1.429 . S
C1088 H1112 0.950 . S
C1089 C1106 1.574 . S
C1089 C1108 1.368 . S
C1089 H1113 0.949 . S
H1090 C1094 0.949 . S
C1091 C1092 1.349 . S
C1091 C1093 1.327 . S
C1091 H1114 0.950 . S
C1092 C1091 1.349 . S
C1092 C1104 1.349 . S
C1093 C1091 1.327 . S
C1093 C1109 1.429 . S
C1093 H1115 0.950 . S
C1094 H1090 0.949 . S
C1094 C1102 1.574 . S
C1094 C1110 1.368 . S
H1095 C1103 0.950 . S
H1096 C1101 0.950 . S
H1097 C1102 0.949 . S
H1098 C1104 0.950 . S
H1099 C1105 0.950 . S
H1100 C1106 0.949 . S
C1101 H1096 0.950 . S
C1101 C1103 1.327 . S
C1101 C1107 1.429 . S
C1102 C1094 1.574 . S
C1102 H1097 0.949 . S
C1102 C1108 1.368 . S
C1103 C1087 1.349 . S
C1103 H1095 0.950 . S
C1103 C1101 1.327 . S
C1104 C1092 1.349 . S
C1104 H1098 0.950 . S
C1104 C1105 1.327 . S
C1105 H1099 0.950 . S
C1105 C1104 1.327 . S
C1105 C1109 1.429 . S
C1106 C1089 1.574 . S
C1106 H1100 0.949 . S
C1106 C1110 1.368 . S
C1107 C1088 1.429 . S
C1107 C1101 1.429 . S
C1107 C1108 1.523 . S
C1108 C1089 1.368 . S
C1108 C1102 1.368 . S
C1108 C1107 1.523 . S
C1109 C1093 1.429 . S
C1109 C1105 1.429 . S
C1109 C1110 1.523 . S
C1110 C1094 1.368 . S
C1110 C1106 1.368 . S
C1110 C1109 1.523 . S
H1111 C1086 0.950 . S
H1112 C1088 0.950 . S
H1113 C1089 0.949 . S
H1114 C1091 0.950 . S
H1115 C1093 0.950 . S
C1116 C1117 1.349 . S
C1116 C1118 1.327 . S
C1116 H1141 0.950 . S
C1117 C1116 1.349 . S
C1117 C1133 1.349 . S
C1118 C1116 1.327 . S
C1118 C1137 1.429 . S
C1118 H1142 0.950 . S
C1119 C1136 1.574 . S
C1119 C1138 1.368 . S
C1119 H1143 0.949 . S
H1120 C1124 0.949 . S
C1121 C1122 1.349 . S
C1121 C1123 1.327 . S
C1121 H1144 0.950 . S
C1122 C1121 1.349 . S
C1122 C1134 1.349 . S
C1123 C1121 1.327 . S
C1123 C1139 1.429 . S
C1123 H1145 0.950 . S
C1124 H1120 0.949 . S
C1124 C1132 1.574 . S
C1124 C1140 1.368 . S
H1125 C1133 0.950 . S
H1126 C1131 0.950 . S
H1127 C1132 0.949 . S
H1128 C1134 0.950 . S
H1129 C1135 0.950 . S
H1130 C1136 0.949 . S
C1131 H1126 0.950 . S
C1131 C1133 1.327 . S
C1131 C1137 1.429 . S
C1132 C1124 1.574 . S
C1132 H1127 0.949 . S
C1132 C1138 1.368 . S
C1133 C1117 1.349 . S
C1133 H1125 0.950 . S
C1133 C1131 1.327 . S
C1134 C1122 1.349 . S
C1134 H1128 0.950 . S
C1134 C1135 1.327 . S
C1135 H1129 0.950 . S
C1135 C1134 1.327 . S
C1135 C1139 1.429 . S
C1136 C1119 1.574 . S
C1136 H1130 0.949 . S
C1136 C1140 1.368 . S
C1137 C1118 1.429 . S
C1137 C1131 1.429 . S
C1137 C1138 1.523 . S
C1138 C1119 1.368 . S
C1138 C1132 1.368 . S
C1138 C1137 1.523 . S
C1139 C1123 1.429 . S
C1139 C1135 1.429 . S
C1139 C1140 1.523 . S
C1140 C1124 1.368 . S
C1140 C1136 1.368 . S
C1140 C1139 1.523 . S
H1141 C1116 0.950 . S
H1142 C1118 0.950 . S
H1143 C1119 0.949 . S
H1144 C1121 0.950 . S
H1145 C1123 0.950 . S
C1146 C1147 1.349 . S
C1146 C1148 1.327 . S
C1146 H1171 0.950 . S
C1147 C1146 1.349 . S
C1147 C1163 1.349 . S
C1148 C1146 1.327 . S
C1148 C1167 1.429 . S
C1148 H1172 0.950 . S
C1149 C1166 1.574 . S
C1149 C1168 1.368 . S
C1149 H1173 0.949 . S
H1150 C1154 0.949 . S
C1151 C1152 1.349 . S
C1151 C1153 1.327 . S
C1151 H1174 0.950 . S
C1152 C1151 1.349 . S
C1152 C1164 1.349 . S
C1153 C1151 1.327 . S
C1153 C1169 1.429 . S
C1153 H1175 0.950 . S
C1154 H1150 0.949 . S
C1154 C1162 1.574 . S
C1154 C1170 1.368 . S
H1155 C1163 0.950 . S
H1156 C1161 0.950 . S
H1157 C1162 0.949 . S
H1158 C1164 0.950 . S
H1159 C1165 0.950 . S
H1160 C1166 0.949 . S
C1161 H1156 0.950 . S
C1161 C1163 1.327 . S
C1161 C1167 1.429 . S
C1162 C1154 1.574 . S
C1162 H1157 0.949 . S
C1162 C1168 1.368 . S
C1163 C1147 1.349 . S
C1163 H1155 0.950 . S
C1163 C1161 1.327 . S
C1164 C1152 1.349 . S
C1164 H1158 0.950 . S
C1164 C1165 1.327 . S
C1165 H1159 0.950 . S
C1165 C1164 1.327 . S
C1165 C1169 1.429 . S
C1166 C1149 1.574 . S
C1166 H1160 0.949 . S
C1166 C1170 1.368 . S
C1167 C1148 1.429 . S
C1167 C1161 1.429 . S
C1167 C1168 1.523 . S
C1168 C1149 1.368 . S
C1168 C1162 1.368 . S
C1168 C1167 1.523 . S
C1169 C1153 1.429 . S
C1169 C1165 1.429 . S
C1169 C1170 1.523 . S
C1170 C1154 1.368 . S
C1170 C1166 1.368 . S
C1170 C1169 1.523 . S
H1171 C1146 0.950 . S
H1172 C1148 0.950 . S
H1173 C1149 0.949 . S
H1174 C1151 0.950 . S
H1175 C1153 0.950 . S
C1176 C1177 1.349 . S
C1176 C1178 1.327 . S
C1176 H1201 0.950 . S
C1177 C1176 1.349 . S
C1177 C1193 1.349 . S
C1178 C1176 1.327 . S
C1178 C1197 1.429 . S
C1178 H1202 0.950 . S
C1179 C1196 1.574 . S
C1179 C1198 1.368 . S
C1179 H1203 0.949 . S
H1180 C1184 0.949 . S
C1181 C1182 1.349 . S
C1181 C1183 1.327 . S
C1181 H1204 0.950 . S
C1182 C1181 1.349 . S
C1182 C1194 1.349 . S
C1183 C1181 1.327 . S
C1183 C1199 1.429 . S
C1183 H1205 0.950 . S
C1184 H1180 0.949 . S
C1184 C1192 1.574 . S
C1184 C1200 1.368 . S
H1185 C1193 0.950 . S
H1186 C1191 0.950 . S
H1187 C1192 0.949 . S
H1188 C1194 0.950 . S
H1189 C1195 0.950 . S
H1190 C1196 0.949 . S
C1191 H1186 0.950 . S
C1191 C1193 1.327 . S
C1191 C1197 1.429 . S
C1192 C1184 1.574 . S
C1192 H1187 0.949 . S
C1192 C1198 1.368 . S
C1193 C1177 1.349 . S
C1193 H1185 0.950 . S
C1193 C1191 1.327 . S
C1194 C1182 1.349 . S
C1194 H1188 0.950 . S
C1194 C1195 1.327 . S
C1195 H1189 0.950 . S
C1195 C1194 1.327 . S
C1195 C1199 1.429 . S
C1196 C1179 1.574 . S
C1196 H1190 0.949 . S
C1196 C1200 1.368 . S
C1197 C1178 1.429 . S
C1197 C1191 1.429 . S
C1197 C1198 1.523 . S
C1198 C1179 1.368 . S
C1198 C1192 1.368 . S
C1198 C1197 1.523 . S
C1199 C1183 1.429 . S
C1199 C1195 1.429 . S
C1199 C1200 1.523 . S
C1200 C1184 1.368 . S
C1200 C1196 1.368 . S
C1200 C1199 1.523 . S
H1201 C1176 0.950 . S
H1202 C1178 0.950 . S
H1203 C1179 0.949 . S
H1204 C1181 0.950 . S
H1205 C1183 0.950 . S
C1206 C1207 1.349 . S
C1206 C1208 1.327 . S
C1206 H1231 0.950 . S
C1207 C1206 1.349 . S
C1207 C1223 1.349 . S
C1208 C1206 1.327 . S
C1208 C1227 1.429 . S
C1208 H1232 0.950 . S
C1209 C1226 1.574 . S
C1209 C1228 1.368 . S
C1209 H1233 0.949 . S
H1210 C1214 0.949 . S
C1211 C1212 1.349 . S
C1211 C1213 1.327 . S
C1211 H1234 0.950 . S
C1212 C1211 1.349 . S
C1212 C1224 1.349 . S
C1213 C1211 1.327 . S
C1213 C1229 1.429 . S
C1213 H1235 0.950 . S
C1214 H1210 0.949 . S
C1214 C1222 1.574 . S
C1214 C1230 1.368 . S
H1215 C1223 0.950 . S
H1216 C1221 0.950 . S
H1217 C1222 0.949 . S
H1218 C1224 0.950 . S
H1219 C1225 0.950 . S
H1220 C1226 0.949 . S
C1221 H1216 0.950 . S
C1221 C1223 1.327 . S
C1221 C1227 1.429 . S
C1222 C1214 1.574 . S
C1222 H1217 0.949 . S
C1222 C1228 1.368 . S
C1223 C1207 1.349 . S
C1223 H1215 0.950 . S
C1223 C1221 1.327 . S
C1224 C1212 1.349 . S
C1224 H1218 0.950 . S
C1224 C1225 1.327 . S
C1225 H1219 0.950 . S
C1225 C1224 1.327 . S
C1225 C1229 1.429 . S
C1226 C1209 1.574 . S
C1226 H1220 0.949 . S
C1226 C1230 1.368 . S
C1227 C1208 1.429 . S
C1227 C1221 1.429 . S
C1227 C1228 1.523 . S
C1228 C1209 1.368 . S
C1228 C1222 1.368 . S
C1228 C1227 1.523 . S
C1229 C1213 1.429 . S
C1229 C1225 1.429 . S
C1229 C1230 1.523 . S
C1230 C1214 1.368 . S
C1230 C1226 1.368 . S
C1230 C1229 1.523 . S
H1231 C1206 0.950 . S
H1232 C1208 0.950 . S
H1233 C1209 0.949 . S
H1234 C1211 0.950 . S
H1235 C1213 0.950 . S
C1236 C1237 1.349 . S
C1236 C1238 1.327 . S
C1236 H1261 0.950 . S
C1237 C1236 1.349 . S
C1237 C1253 1.349 . S
C1238 C1236 1.327 . S
C1238 C1257 1.429 . S
C1238 H1262 0.950 . S
C1239 C1256 1.574 . S
C1239 C1258 1.368 . S
C1239 H1263 0.949 . S
H1240 C1244 0.949 . S
C1241 C1242 1.349 . S
C1241 C1243 1.327 . S
C1241 H1264 0.950 . S
C1242 C1241 1.349 . S
C1242 C1254 1.349 . S
C1243 C1241 1.327 . S
C1243 C1259 1.429 . S
C1243 H1265 0.950 . S
C1244 H1240 0.949 . S
C1244 C1252 1.574 . S
C1244 C1260 1.368 . S
H1245 C1253 0.950 . S
H1246 C1251 0.950 . S
H1247 C1252 0.949 . S
H1248 C1254 0.950 . S
H1249 C1255 0.950 . S
H1250 C1256 0.949 . S
C1251 H1246 0.950 . S
C1251 C1253 1.327 . S
C1251 C1257 1.429 . S
C1252 C1244 1.574 . S
C1252 H1247 0.949 . S
C1252 C1258 1.368 . S
C1253 C1237 1.349 . S
C1253 H1245 0.950 . S
C1253 C1251 1.327 . S
C1254 C1242 1.349 . S
C1254 H1248 0.950 . S
C1254 C1255 1.327 . S
C1255 H1249 0.950 . S
C1255 C1254 1.327 . S
C1255 C1259 1.429 . S
C1256 C1239 1.574 . S
C1256 H1250 0.949 . S
C1256 C1260 1.368 . S
C1257 C1238 1.429 . S
C1257 C1251 1.429 . S
C1257 C1258 1.523 . S
C1258 C1239 1.368 . S
C1258 C1252 1.368 . S
C1258 C1257 1.523 . S
C1259 C1243 1.429 . S
C1259 C1255 1.429 . S
C1259 C1260 1.523 . S
C1260 C1244 1.368 . S
C1260 C1256 1.368 . S
C1260 C1259 1.523 . S
H1261 C1236 0.950 . S
H1262 C1238 0.950 . S
H1263 C1239 0.949 . S
H1264 C1241 0.950 . S
H1265 C1243 0.950 . S
C1266 C1267 1.349 . S
C1266 C1268 1.327 . S
C1266 H1291 0.950 . S
C1267 C1266 1.349 . S
C1267 C1283 1.349 . S
C1268 C1266 1.327 . S
C1268 C1287 1.429 . S
C1268 H1292 0.950 . S
C1269 C1286 1.574 . S
C1269 C1288 1.368 . S
C1269 H1293 0.949 . S
H1270 C1274 0.949 . S
C1271 C1272 1.349 . S
C1271 C1273 1.327 . S
C1271 H1294 0.950 . S
C1272 C1271 1.349 . S
C1272 C1284 1.349 . S
C1273 C1271 1.327 . S
C1273 C1289 1.429 . S
C1273 H1295 0.950 . S
C1274 H1270 0.949 . S
C1274 C1282 1.574 . S
C1274 C1290 1.368 . S
H1275 C1283 0.950 . S
H1276 C1281 0.950 . S
H1277 C1282 0.949 . S
H1278 C1284 0.950 . S
H1279 C1285 0.950 . S
H1280 C1286 0.949 . S
C1281 H1276 0.950 . S
C1281 C1283 1.327 . S
C1281 C1287 1.429 . S
C1282 C1274 1.574 . S
C1282 H1277 0.949 . S
C1282 C1288 1.368 . S
C1283 C1267 1.349 . S
C1283 H1275 0.950 . S
C1283 C1281 1.327 . S
C1284 C1272 1.349 . S
C1284 H1278 0.950 . S
C1284 C1285 1.327 . S
C1285 H1279 0.950 . S
C1285 C1284 1.327 . S
C1285 C1289 1.429 . S
C1286 C1269 1.574 . S
C1286 H1280 0.949 . S
C1286 C1290 1.368 . S
C1287 C1268 1.429 . S
C1287 C1281 1.429 . S
C1287 C1288 1.523 . S
C1288 C1269 1.368 . S
C1288 C1282 1.368 . S
C1288 C1287 1.523 . S
C1289 C1273 1.429 . S
C1289 C1285 1.429 . S
C1289 C1290 1.523 . S
C1290 C1274 1.368 . S
C1290 C1286 1.368 . S
C1290 C1289 1.523 . S
H1291 C1266 0.950 . S
H1292 C1268 0.950 . S
H1293 C1269 0.949 . S
H1294 C1271 0.950 . S
H1295 C1273 0.950 . S
C1296 C1297 1.349 . S
C1296 C1298 1.327 . S
C1296 H1321 0.950 . S
C1297 C1296 1.349 . S
C1297 C1313 1.349 . S
C1298 C1296 1.327 . S
C1298 C1317 1.429 . S
C1298 H1322 0.950 . S
C1299 C1316 1.574 . S
C1299 C1318 1.368 . S
C1299 H1323 0.949 . S
H1300 C1304 0.949 . S
C1301 C1302 1.349 . S
C1301 C1303 1.327 . S
C1301 H1324 0.950 . S
C1302 C1301 1.349 . S
C1302 C1314 1.349 . S
C1303 C1301 1.327 . S
C1303 C1319 1.429 . S
C1303 H1325 0.950 . S
C1304 H1300 0.949 . S
C1304 C1312 1.574 . S
C1304 C1320 1.368 . S
H1305 C1313 0.950 . S
H1306 C1311 0.950 . S
H1307 C1312 0.949 . S
H1308 C1314 0.950 . S
H1309 C1315 0.950 . S
H1310 C1316 0.949 . S
C1311 H1306 0.950 . S
C1311 C1313 1.327 . S
C1311 C1317 1.429 . S
C1312 C1304 1.574 . S
C1312 H1307 0.949 . S
C1312 C1318 1.368 . S
C1313 C1297 1.349 . S
C1313 H1305 0.950 . S
C1313 C1311 1.327 . S
C1314 C1302 1.349 . S
C1314 H1308 0.950 . S
C1314 C1315 1.327 . S
C1315 H1309 0.950 . S
C1315 C1314 1.327 . S
C1315 C1319 1.429 . S
C1316 C1299 1.574 . S
C1316 H1310 0.949 . S
C1316 C1320 1.368 . S
C1317 C1298 1.429 . S
C1317 C1311 1.429 . S
C1317 C1318 1.523 . S
C1318 C1299 1.368 . S
C1318 C1312 1.368 . S
C1318 C1317 1.523 . S
C1319 C1303 1.429 . S
C1319 C1315 1.429 . S
C1319 C1320 1.523 . S
C1320 C1304 1.368 . S
C1320 C1316 1.368 . S
C1320 C1319 1.523 . S
H1321 C1296 0.950 . S
H1322 C1298 0.950 . S
H1323 C1299 0.949 . S
H1324 C1301 0.950 . S
H1325 C1303 0.950 . S
C1326 C1327 1.349 . S
C1326 C1328 1.327 . S
C1326 H1351 0.950 . S
C1327 C1326 1.349 . S
C1327 C1343 1.349 . S
C1328 C1326 1.327 . S
C1328 C1347 1.429 . S
C1328 H1352 0.950 . S
C1329 C1346 1.574 . S
C1329 C1348 1.368 . S
C1329 H1353 0.949 . S
H1330 C1334 0.949 . S
C1331 C1332 1.349 . S
C1331 C1333 1.327 . S
C1331 H1354 0.950 . S
C1332 C1331 1.349 . S
C1332 C1344 1.349 . S
C1333 C1331 1.327 . S
C1333 C1349 1.429 . S
C1333 H1355 0.950 . S
C1334 H1330 0.949 . S
C1334 C1342 1.574 . S
C1334 C1350 1.368 . S
H1335 C1343 0.950 . S
H1336 C1341 0.950 . S
H1337 C1342 0.949 . S
H1338 C1344 0.950 . S
H1339 C1345 0.950 . S
H1340 C1346 0.949 . S
C1341 H1336 0.950 . S
C1341 C1343 1.327 . S
C1341 C1347 1.429 . S
C1342 C1334 1.574 . S
C1342 H1337 0.949 . S
C1342 C1348 1.368 . S
C1343 C1327 1.349 . S
C1343 H1335 0.950 . S
C1343 C1341 1.327 . S
C1344 C1332 1.349 . S
C1344 H1338 0.950 . S
C1344 C1345 1.327 . S
C1345 H1339 0.950 . S
C1345 C1344 1.327 . S
C1345 C1349 1.429 . S
C1346 C1329 1.574 . S
C1346 H1340 0.949 . S
C1346 C1350 1.368 . S
C1347 C1328 1.429 . S
C1347 C1341 1.429 . S
C1347 C1348 1.523 . S
C1348 C1329 1.368 . S
C1348 C1342 1.368 . S
C1348 C1347 1.523 . S
C1349 C1333 1.429 . S
C1349 C1345 1.429 . S
C1349 C1350 1.523 . S
C1350 C1334 1.368 . S
C1350 C1346 1.368 . S
C1350 C1349 1.523 . S
H1351 C1326 0.950 . S
H1352 C1328 0.950 . S
H1353 C1329 0.949 . S
H1354 C1331 0.950 . S
H1355 C1333 0.950 . S
C1356 C1357 1.349 . S
C1356 C1358 1.327 . S
C1356 H1381 0.950 . S
C1357 C1356 1.349 . S
C1357 C1373 1.349 . S
C1358 C1356 1.327 . S
C1358 C1377 1.429 . S
C1358 H1382 0.950 . S
C1359 C1376 1.574 . S
C1359 C1378 1.368 . S
C1359 H1383 0.949 . S
H1360 C1364 0.949 . S
C1361 C1362 1.349 . S
C1361 C1363 1.327 . S
C1361 H1384 0.950 . S
C1362 C1361 1.349 . S
C1362 C1374 1.349 . S
C1363 C1361 1.327 . S
C1363 C1379 1.429 . S
C1363 H1385 0.950 . S
C1364 H1360 0.949 . S
C1364 C1372 1.574 . S
C1364 C1380 1.368 . S
H1365 C1373 0.950 . S
H1366 C1371 0.950 . S
H1367 C1372 0.949 . S
H1368 C1374 0.950 . S
H1369 C1375 0.950 . S
H1370 C1376 0.949 . S
C1371 H1366 0.950 . S
C1371 C1373 1.327 . S
C1371 C1377 1.429 . S
C1372 C1364 1.574 . S
C1372 H1367 0.949 . S
C1372 C1378 1.368 . S
C1373 C1357 1.349 . S
C1373 H1365 0.950 . S
C1373 C1371 1.327 . S
C1374 C1362 1.349 . S
C1374 H1368 0.950 . S
C1374 C1375 1.327 . S
C1375 H1369 0.950 . S
C1375 C1374 1.327 . S
C1375 C1379 1.429 . S
C1376 C1359 1.574 . S
C1376 H1370 0.949 . S
C1376 C1380 1.368 . S
C1377 C1358 1.429 . S
C1377 C1371 1.429 . S
C1377 C1378 1.523 . S
C1378 C1359 1.368 . S
C1378 C1372 1.368 . S
C1378 C1377 1.523 . S
C1379 C1363 1.429 . S
C1379 C1375 1.429 . S
C1379 C1380 1.523 . S
C1380 C1364 1.368 . S
C1380 C1376 1.368 . S
C1380 C1379 1.523 . S
H1381 C1356 0.950 . S
H1382 C1358 0.950 . S
H1383 C1359 0.949 . S
H1384 C1361 0.950 . S
H1385 C1363 0.950 . S
C1386 C1387 1.349 . S
C1386 C1388 1.327 . S
C1386 H1411 0.950 . S
C1387 C1386 1.349 . S
C1387 C1403 1.349 . S
C1388 C1386 1.327 . S
C1388 C1407 1.429 . S
C1388 H1412 0.950 . S
C1389 C1406 1.574 . S
C1389 C1408 1.368 . S
C1389 H1413 0.949 . S
H1390 C1394 0.949 . S
C1391 C1392 1.349 . S
C1391 C1393 1.327 . S
C1391 H1414 0.950 . S
C1392 C1391 1.349 . S
C1392 C1404 1.349 . S
C1393 C1391 1.327 . S
C1393 C1409 1.429 . S
C1393 H1415 0.950 . S
C1394 H1390 0.949 . S
C1394 C1402 1.574 . S
C1394 C1410 1.368 . S
H1395 C1403 0.950 . S
H1396 C1401 0.950 . S
H1397 C1402 0.949 . S
H1398 C1404 0.950 . S
H1399 C1405 0.950 . S
H1400 C1406 0.949 . S
C1401 H1396 0.950 . S
C1401 C1403 1.327 . S
C1401 C1407 1.429 . S
C1402 C1394 1.574 . S
C1402 H1397 0.949 . S
C1402 C1408 1.368 . S
C1403 C1387 1.349 . S
C1403 H1395 0.950 . S
C1403 C1401 1.327 . S
C1404 C1392 1.349 . S
C1404 H1398 0.950 . S
C1404 C1405 1.327 . S
C1405 H1399 0.950 . S
C1405 C1404 1.327 . S
C1405 C1409 1.429 . S
C1406 C1389 1.574 . S
C1406 H1400 0.949 . S
C1406 C1410 1.368 . S
C1407 C1388 1.429 . S
C1407 C1401 1.429 . S
C1407 C1408 1.523 . S
C1408 C1389 1.368 . S
C1408 C1402 1.368 . S
C1408 C1407 1.523 . S
C1409 C1393 1.429 . S
C1409 C1405 1.429 . S
C1409 C1410 1.523 . S
C1410 C1394 1.368 . S
C1410 C1406 1.368 . S
C1410 C1409 1.523 . S
H1411 C1386 0.950 . S
H1412 C1388 0.950 . S
H1413 C1389 0.949 . S
H1414 C1391 0.950 . S
H1415 C1393 0.950 . S
C1416 C1417 1.349 . S
C1416 C1418 1.327 . S
C1416 H1441 0.950 . S
C1417 C1416 1.349 . S
C1417 C1433 1.349 . S
C1418 C1416 1.327 . S
C1418 C1437 1.429 . S
C1418 H1442 0.950 . S
C1419 C1436 1.574 . S
C1419 C1438 1.368 . S
C1419 H1443 0.949 . S
H1420 C1424 0.949 . S
C1421 C1422 1.349 . S
C1421 C1423 1.327 . S
C1421 H1444 0.950 . S
C1422 C1421 1.349 . S
C1422 C1434 1.349 . S
C1423 C1421 1.327 . S
C1423 C1439 1.429 . S
C1423 H1445 0.950 . S
C1424 H1420 0.949 . S
C1424 C1432 1.574 . S
C1424 C1440 1.368 . S
H1425 C1433 0.950 . S
H1426 C1431 0.950 . S
H1427 C1432 0.949 . S
H1428 C1434 0.950 . S
H1429 C1435 0.950 . S
H1430 C1436 0.949 . S
C1431 H1426 0.950 . S
C1431 C1433 1.327 . S
C1431 C1437 1.429 . S
C1432 C1424 1.574 . S
C1432 H1427 0.949 . S
C1432 C1438 1.368 . S
C1433 C1417 1.349 . S
C1433 H1425 0.950 . S
C1433 C1431 1.327 . S
C1434 C1422 1.349 . S
C1434 H1428 0.950 . S
C1434 C1435 1.327 . S
C1435 H1429 0.950 . S
C1435 C1434 1.327 . S
C1435 C1439 1.429 . S
C1436 C1419 1.574 . S
C1436 H1430 0.949 . S
C1436 C1440 1.368 . S
C1437 C1418 1.429 . S
C1437 C1431 1.429 . S
C1437 C1438 1.523 . S
C1438 C1419 1.368 . S
C1438 C1432 1.368 . S
C1438 C1437 1.523 . S
C1439 C1423 1.429 . S
C1439 C1435 1.429 . S
C1439 C1440 1.523 . S
C1440 C1424 1.368 . S
C1440 C1436 1.368 . S
C1440 C1439 1.523 . S
H1441 C1416 0.950 . S
H1442 C1418 0.950 . S
H1443 C1419 0.949 . S
H1444 C1421 0.950 . S
H1445 C1423 0.950 . S
C1446 C1447 1.349 . S
C1446 C1448 1.327 . S
C1446 H1471 0.950 . S
C1447 C1446 1.349 . S
C1447 C1463 1.349 . S
C1448 C1446 1.327 . S
C1448 C1467 1.429 . S
C1448 H1472 0.950 . S
C1449 C1466 1.574 . S
C1449 C1468 1.368 . S
C1449 H1473 0.949 . S
H1450 C1454 0.949 . S
C1451 C1452 1.349 . S
C1451 C1453 1.327 . S
C1451 H1474 0.950 . S
C1452 C1451 1.349 . S
C1452 C1464 1.349 . S
C1453 C1451 1.327 . S
C1453 C1469 1.429 . S
C1453 H1475 0.950 . S
C1454 H1450 0.949 . S
C1454 C1462 1.574 . S
C1454 C1470 1.368 . S
H1455 C1463 0.950 . S
H1456 C1461 0.950 . S
H1457 C1462 0.949 . S
H1458 C1464 0.950 1_554 S
H1459 C1465 0.950 . S
H1460 C1466 0.949 . S
C1461 H1456 0.950 . S
C1461 C1463 1.327 . S
C1461 C1467 1.429 . S
C1462 C1454 1.574 . S
C1462 H1457 0.949 . S
C1462 C1468 1.368 . S
C1463 C1447 1.349 . S
C1463 H1455 0.950 . S
C1463 C1461 1.327 . S
C1464 C1452 1.349 . S
C1464 H1458 0.950 1_556 S
C1464 C1465 1.327 . S
C1465 H1459 0.950 . S
C1465 C1464 1.327 . S
C1465 C1469 1.429 . S
C1466 C1449 1.574 . S
C1466 H1460 0.949 . S
C1466 C1470 1.368 . S
C1467 C1448 1.429 . S
C1467 C1461 1.429 . S
C1467 C1468 1.523 . S
C1468 C1449 1.368 . S
C1468 C1462 1.368 . S
C1468 C1467 1.523 . S
C1469 C1453 1.429 . S
C1469 C1465 1.429 . S
C1469 C1470 1.523 . S
C1470 C1454 1.368 . S
C1470 C1466 1.368 . S
C1470 C1469 1.523 . S
H1471 C1446 0.950 . S
H1472 C1448 0.950 . S
H1473 C1449 0.949 . S
H1474 C1451 0.950 . S
H1475 C1453 0.950 . S
C1476 C1477 1.349 . S
C1476 C1478 1.327 . S
C1476 H1501 0.950 . S
C1477 C1476 1.349 . S
C1477 C1493 1.349 . S
C1478 C1476 1.327 . S
C1478 C1497 1.429 . S
C1478 H1502 0.950 . S
C1479 C1496 1.574 . S
C1479 C1498 1.368 . S
C1479 H1503 0.949 . S
H1480 C1484 0.949 . S
C1481 C1482 1.349 . S
C1481 C1483 1.327 . S
C1481 H1504 0.950 . S
C1482 C1481 1.349 . S
C1482 C1494 1.349 . S
C1483 C1481 1.327 . S
C1483 C1499 1.429 . S
C1483 H1505 0.950 . S
C1484 H1480 0.949 . S
C1484 C1492 1.574 . S
C1484 C1500 1.368 . S
H1485 C1493 0.950 . S
H1486 C1491 0.950 . S
H1487 C1492 0.949 . S
H1488 C1494 0.950 1_556 S
H1489 C1495 0.950 . S
H1490 C1496 0.949 . S
C1491 H1486 0.950 . S
C1491 C1493 1.327 . S
C1491 C1497 1.429 . S
C1492 C1484 1.574 . S
C1492 H1487 0.949 . S
C1492 C1498 1.368 . S
C1493 C1477 1.349 . S
C1493 H1485 0.950 . S
C1493 C1491 1.327 . S
C1494 C1482 1.349 . S
C1494 H1488 0.950 1_554 S
C1494 C1495 1.327 . S
C1495 H1489 0.950 . S
C1495 C1494 1.327 . S
C1495 C1499 1.429 . S
C1496 C1479 1.574 . S
C1496 H1490 0.949 . S
C1496 C1500 1.368 . S
C1497 C1478 1.429 . S
C1497 C1491 1.429 . S
C1497 C1498 1.523 . S
C1498 C1479 1.368 . S
C1498 C1492 1.368 . S
C1498 C1497 1.523 . S
C1499 C1483 1.429 . S
C1499 C1495 1.429 . S
C1499 C1500 1.523 . S
C1500 C1484 1.368 . S
C1500 C1496 1.368 . S
C1500 C1499 1.523 . S
H1501 C1476 0.950 . S
H1502 C1478 0.950 . S
H1503 C1479 0.949 . S
H1504 C1481 0.950 . S
H1505 C1483 0.950 . S
C1506 C1507 1.349 . S
C1506 C1508 1.327 . S
C1506 H1531 0.950 . S
C1507 C1506 1.349 . S
C1507 C1523 1.349 . S
C1508 C1506 1.327 . S
C1508 C1527 1.429 . S
C1508 H1532 0.950 . S
C1509 C1526 1.574 . S
C1509 C1528 1.368 . S
C1509 H1533 0.949 . S
H1510 C1514 0.949 . S
C1511 C1512 1.349 . S
C1511 C1513 1.327 . S
C1511 H1534 0.950 . S
C1512 C1511 1.349 . S
C1512 C1524 1.349 . S
C1513 C1511 1.327 . S
C1513 C1529 1.429 . S
C1513 H1535 0.950 . S
C1514 H1510 0.949 . S
C1514 C1522 1.574 . S
C1514 C1530 1.368 . S
H1515 C1523 0.950 . S
H1516 C1521 0.950 . S
H1517 C1522 0.949 . S
H1518 C1524 0.950 . S
H1519 C1525 0.950 . S
H1520 C1526 0.949 . S
C1521 H1516 0.950 . S
C1521 C1523 1.327 . S
C1521 C1527 1.429 . S
C1522 C1514 1.574 . S
C1522 H1517 0.949 . S
C1522 C1528 1.368 . S
C1523 C1507 1.349 . S
C1523 H1515 0.950 . S
C1523 C1521 1.327 . S
C1524 C1512 1.349 . S
C1524 H1518 0.950 . S
C1524 C1525 1.327 . S
C1525 H1519 0.950 . S
C1525 C1524 1.327 . S
C1525 C1529 1.429 . S
C1526 C1509 1.574 . S
C1526 H1520 0.949 . S
C1526 C1530 1.368 . S
C1527 C1508 1.429 . S
C1527 C1521 1.429 . S
C1527 C1528 1.523 . S
C1528 C1509 1.368 . S
C1528 C1522 1.368 . S
C1528 C1527 1.523 . S
C1529 C1513 1.429 . S
C1529 C1525 1.429 . S
C1529 C1530 1.523 . S
C1530 C1514 1.368 . S
C1530 C1526 1.368 . S
C1530 C1529 1.523 . S
H1531 C1506 0.950 . S
H1532 C1508 0.950 . S
H1533 C1509 0.949 . S
H1534 C1511 0.950 . S
H1535 C1513 0.950 . S
C1536 C1537 1.349 . S
C1536 C1538 1.327 . S
C1536 H1561 0.950 . S
C1537 C1536 1.349 . S
C1537 C1553 1.349 . S
C1538 C1536 1.327 . S
C1538 C1557 1.429 . S
C1538 H1562 0.950 . S
C1539 C1556 1.574 . S
C1539 C1558 1.368 . S
C1539 H1563 0.949 . S
H1540 C1544 0.949 . S
C1541 C1542 1.349 . S
C1541 C1543 1.327 . S
C1541 H1564 0.950 . S
C1542 C1541 1.349 . S
C1542 C1554 1.349 . S
C1543 C1541 1.327 . S
C1543 C1559 1.429 . S
C1543 H1565 0.950 . S
C1544 H1540 0.949 . S
C1544 C1552 1.574 . S
C1544 C1560 1.368 . S
H1545 C1553 0.950 . S
H1546 C1551 0.950 . S
H1547 C1552 0.949 . S
H1548 C1554 0.950 . S
H1549 C1555 0.950 . S
H1550 C1556 0.949 . S
C1551 H1546 0.950 . S
C1551 C1553 1.327 . S
C1551 C1557 1.429 . S
C1552 C1544 1.574 . S
C1552 H1547 0.949 . S
C1552 C1558 1.368 . S
C1553 C1537 1.349 . S
C1553 H1545 0.950 . S
C1553 C1551 1.327 . S
C1554 C1542 1.349 . S
C1554 H1548 0.950 . S
C1554 C1555 1.327 . S
C1555 H1549 0.950 . S
C1555 C1554 1.327 . S
C1555 C1559 1.429 . S
C1556 C1539 1.574 . S
C1556 H1550 0.949 . S
C1556 C1560 1.368 . S
C1557 C1538 1.429 . S
C1557 C1551 1.429 . S
C1557 C1558 1.523 . S
C1558 C1539 1.368 . S
C1558 C1552 1.368 . S
C1558 C1557 1.523 . S
C1559 C1543 1.429 . S
C1559 C1555 1.429 . S
C1559 C1560 1.523 . S
C1560 C1544 1.368 . S
C1560 C1556 1.368 . S
C1560 C1559 1.523 . S
H1561 C1536 0.950 . S
H1562 C1538 0.950 . S
H1563 C1539 0.949 . S
H1564 C1541 0.950 . S
H1565 C1543 0.950 . S
C1566 C1567 1.349 . S
C1566 C1568 1.327 . S
C1566 H1591 0.950 . S
C1567 C1566 1.349 . S
C1567 C1583 1.349 . S
C1568 C1566 1.327 . S
C1568 C1587 1.429 . S
C1568 H1592 0.950 . S
C1569 C1586 1.574 . S
C1569 C1588 1.368 . S
C1569 H1593 0.949 . S
H1570 C1574 0.949 . S
C1571 C1572 1.349 . S
C1571 C1573 1.327 . S
C1571 H1594 0.950 . S
C1572 C1571 1.349 . S
C1572 C1584 1.349 . S
C1573 C1571 1.327 . S
C1573 C1589 1.429 . S
C1573 H1595 0.950 . S
C1574 H1570 0.949 . S
C1574 C1582 1.574 . S
C1574 C1590 1.368 . S
H1575 C1583 0.950 . S
H1576 C1581 0.950 . S
H1577 C1582 0.949 . S
H1578 C1584 0.950 . S
H1579 C1585 0.950 . S
H1580 C1586 0.949 . S
C1581 H1576 0.950 . S
C1581 C1583 1.327 . S
C1581 C1587 1.429 . S
C1582 C1574 1.574 . S
C1582 H1577 0.949 . S
C1582 C1588 1.368 . S
C1583 C1567 1.349 . S
C1583 H1575 0.950 . S
C1583 C1581 1.327 . S
C1584 C1572 1.349 . S
C1584 H1578 0.950 . S
C1584 C1585 1.327 . S
C1585 H1579 0.950 . S
C1585 C1584 1.327 . S
C1585 C1589 1.429 . S
C1586 C1569 1.574 . S
C1586 H1580 0.949 . S
C1586 C1590 1.368 . S
C1587 C1568 1.429 . S
C1587 C1581 1.429 . S
C1587 C1588 1.523 . S
C1588 C1569 1.368 . S
C1588 C1582 1.368 . S
C1588 C1587 1.523 . S
C1589 C1573 1.429 . S
C1589 C1585 1.429 . S
C1589 C1590 1.523 . S
C1590 C1574 1.368 . S
C1590 C1586 1.368 . S
C1590 C1589 1.523 . S
H1591 C1566 0.950 . S
H1592 C1568 0.950 . S
H1593 C1569 0.949 . S
H1594 C1571 0.950 . S
H1595 C1573 0.950 . S
C1596 C1597 1.349 . S
C1596 C1598 1.327 . S
C1596 H1621 0.950 . S
C1597 C1596 1.349 . S
C1597 C1613 1.349 . S
C1598 C1596 1.327 . S
C1598 C1617 1.429 . S
C1598 H1622 0.950 . S
C1599 C1616 1.574 . S
C1599 C1618 1.368 . S
C1599 H1623 0.949 . S
H1600 C1604 0.949 . S
C1601 C1602 1.349 . S
C1601 C1603 1.327 . S
C1601 H1624 0.950 . S
C1602 C1601 1.349 . S
C1602 C1614 1.349 . S
C1603 C1601 1.327 . S
C1603 C1619 1.429 . S
C1603 H1625 0.950 . S
C1604 H1600 0.949 . S
C1604 C1612 1.574 . S
C1604 C1620 1.368 . S
H1605 C1613 0.950 . S
H1606 C1611 0.950 . S
H1607 C1612 0.949 . S
H1608 C1614 0.950 . S
H1609 C1615 0.950 . S
H1610 C1616 0.949 . S
C1611 H1606 0.950 . S
C1611 C1613 1.327 . S
C1611 C1617 1.429 . S
C1612 C1604 1.574 . S
C1612 H1607 0.949 . S
C1612 C1618 1.368 . S
C1613 C1597 1.349 . S
C1613 H1605 0.950 . S
C1613 C1611 1.327 . S
C1614 C1602 1.349 . S
C1614 H1608 0.950 . S
C1614 C1615 1.327 . S
C1615 H1609 0.950 . S
C1615 C1614 1.327 . S
C1615 C1619 1.429 . S
C1616 C1599 1.574 . S
C1616 H1610 0.949 . S
C1616 C1620 1.368 . S
C1617 C1598 1.429 . S
C1617 C1611 1.429 . S
C1617 C1618 1.523 . S
C1618 C1599 1.368 . S
C1618 C1612 1.368 . S
C1618 C1617 1.523 . S
C1619 C1603 1.429 . S
C1619 C1615 1.429 . S
C1619 C1620 1.523 . S
C1620 C1604 1.368 . S
C1620 C1616 1.368 . S
C1620 C1619 1.523 . S
H1621 C1596 0.950 . S
H1622 C1598 0.950 . S
H1623 C1599 0.949 . S
H1624 C1601 0.950 . S
H1625 C1603 0.950 . S
C1626 C1627 1.349 . S
C1626 C1628 1.327 . S
C1626 H1651 0.950 . S
C1627 C1626 1.349 . S
C1627 C1643 1.349 . S
C1628 C1626 1.327 . S
C1628 C1647 1.429 . S
C1628 H1652 0.950 . S
C1629 C1646 1.574 . S
C1629 C1648 1.368 . S
C1629 H1653 0.949 . S
H1630 C1634 0.949 . S
C1631 C1632 1.349 . S
C1631 C1633 1.327 . S
C1631 H1654 0.950 . S
C1632 C1631 1.349 . S
C1632 C1644 1.349 . S
C1633 C1631 1.327 . S
C1633 C1649 1.429 . S
C1633 H1655 0.950 . S
C1634 H1630 0.949 . S
C1634 C1642 1.574 . S
C1634 C1650 1.368 . S
H1635 C1643 0.950 . S
H1636 C1641 0.950 . S
H1637 C1642 0.949 . S
H1638 C1644 0.950 . S
H1639 C1645 0.950 . S
H1640 C1646 0.949 . S
C1641 H1636 0.950 . S
C1641 C1643 1.327 . S
C1641 C1647 1.429 . S
C1642 C1634 1.574 . S
C1642 H1637 0.949 . S
C1642 C1648 1.368 . S
C1643 C1627 1.349 . S
C1643 H1635 0.950 . S
C1643 C1641 1.327 . S
C1644 C1632 1.349 . S
C1644 H1638 0.950 . S
C1644 C1645 1.327 . S
C1645 H1639 0.950 . S
C1645 C1644 1.327 . S
C1645 C1649 1.429 . S
C1646 C1629 1.574 . S
C1646 H1640 0.949 . S
C1646 C1650 1.368 . S
C1647 C1628 1.429 . S
C1647 C1641 1.429 . S
C1647 C1648 1.523 . S
C1648 C1629 1.368 . S
C1648 C1642 1.368 . S
C1648 C1647 1.523 . S
C1649 C1633 1.429 . S
C1649 C1645 1.429 . S
C1649 C1650 1.523 . S
C1650 C1634 1.368 . S
C1650 C1646 1.368 . S
C1650 C1649 1.523 . S
H1651 C1626 0.950 . S
H1652 C1628 0.950 . S
H1653 C1629 0.949 . S
H1654 C1631 0.950 . S
H1655 C1633 0.950 . S
C1656 C1657 1.349 . S
C1656 C1658 1.327 . S
C1656 H1681 0.950 . S
C1657 C1656 1.349 . S
C1657 C1673 1.349 . S
C1658 C1656 1.327 . S
C1658 C1677 1.429 . S
C1658 H1682 0.950 . S
C1659 C1676 1.574 . S
C1659 C1678 1.368 . S
C1659 H1683 0.949 . S
H1660 C1664 0.949 . S
C1661 C1662 1.349 . S
C1661 C1663 1.327 . S
C1661 H1684 0.950 . S
C1662 C1661 1.349 . S
C1662 C1674 1.349 . S
C1663 C1661 1.327 . S
C1663 C1679 1.429 . S
C1663 H1685 0.950 . S
C1664 H1660 0.949 . S
C1664 C1672 1.574 . S
C1664 C1680 1.368 . S
H1665 C1673 0.950 . S
H1666 C1671 0.950 . S
H1667 C1672 0.949 . S
H1668 C1674 0.950 . S
H1669 C1675 0.950 . S
H1670 C1676 0.949 . S
C1671 H1666 0.950 . S
C1671 C1673 1.327 . S
C1671 C1677 1.429 . S
C1672 C1664 1.574 . S
C1672 H1667 0.949 . S
C1672 C1678 1.368 . S
C1673 C1657 1.349 . S
C1673 H1665 0.950 . S
C1673 C1671 1.327 . S
C1674 C1662 1.349 . S
C1674 H1668 0.950 . S
C1674 C1675 1.327 . S
C1675 H1669 0.950 . S
C1675 C1674 1.327 . S
C1675 C1679 1.429 . S
C1676 C1659 1.574 . S
C1676 H1670 0.949 . S
C1676 C1680 1.368 . S
C1677 C1658 1.429 . S
C1677 C1671 1.429 . S
C1677 C1678 1.523 . S
C1678 C1659 1.368 . S
C1678 C1672 1.368 . S
C1678 C1677 1.523 . S
C1679 C1663 1.429 . S
C1679 C1675 1.429 . S
C1679 C1680 1.523 . S
C1680 C1664 1.368 . S
C1680 C1676 1.368 . S
C1680 C1679 1.523 . S
H1681 C1656 0.950 . S
H1682 C1658 0.950 . S
H1683 C1659 0.949 . S
H1684 C1661 0.950 . S
H1685 C1663 0.950 . S
C1686 C1687 1.349 . S
C1686 C1688 1.327 . S
C1686 H1711 0.950 . S
C1687 C1686 1.349 . S
C1687 C1703 1.349 . S
C1688 C1686 1.327 . S
C1688 C1707 1.429 . S
C1688 H1712 0.950 . S
C1689 C1706 1.574 . S
C1689 C1708 1.368 . S
C1689 H1713 0.949 . S
H1690 C1694 0.949 . S
C1691 C1692 1.349 . S
C1691 C1693 1.327 . S
C1691 H1714 0.950 . S
C1692 C1691 1.349 . S
C1692 C1704 1.349 . S
C1693 C1691 1.327 . S
C1693 C1709 1.429 . S
C1693 H1715 0.950 . S
C1694 H1690 0.949 . S
C1694 C1702 1.574 . S
C1694 C1710 1.368 . S
H1695 C1703 0.950 . S
H1696 C1701 0.950 . S
H1697 C1702 0.949 . S
H1698 C1704 0.950 . S
H1699 C1705 0.950 . S
H1700 C1706 0.949 . S
C1701 H1696 0.950 . S
C1701 C1703 1.327 . S
C1701 C1707 1.429 . S
C1702 C1694 1.574 . S
C1702 H1697 0.949 . S
C1702 C1708 1.368 . S
C1703 C1687 1.349 . S
C1703 H1695 0.950 . S
C1703 C1701 1.327 . S
C1704 C1692 1.349 . S
C1704 H1698 0.950 . S
C1704 C1705 1.327 . S
C1705 H1699 0.950 . S
C1705 C1704 1.327 . S
C1705 C1709 1.429 . S
C1706 C1689 1.574 . S
C1706 H1700 0.949 . S
C1706 C1710 1.368 . S
C1707 C1688 1.429 . S
C1707 C1701 1.429 . S
C1707 C1708 1.523 . S
C1708 C1689 1.368 . S
C1708 C1702 1.368 . S
C1708 C1707 1.523 . S
C1709 C1693 1.429 . S
C1709 C1705 1.429 . S
C1709 C1710 1.523 . S
C1710 C1694 1.368 . S
C1710 C1706 1.368 . S
C1710 C1709 1.523 . S
H1711 C1686 0.950 . S
H1712 C1688 0.950 . S
H1713 C1689 0.949 . S
H1714 C1691 0.950 . S
H1715 C1693 0.950 . S
C1716 C1717 1.349 . S
C1716 C1718 1.327 . S
C1716 H1741 0.950 . S
C1717 C1716 1.349 . S
C1717 C1733 1.349 . S
C1718 C1716 1.327 . S
C1718 C1737 1.429 . S
C1718 H1742 0.950 . S
C1719 C1736 1.574 . S
C1719 C1738 1.368 . S
C1719 H1743 0.949 . S
H1720 C1724 0.949 . S
C1721 C1722 1.349 . S
C1721 C1723 1.327 . S
C1721 H1744 0.950 . S
C1722 C1721 1.349 . S
C1722 C1734 1.349 . S
C1723 C1721 1.327 . S
C1723 C1739 1.429 . S
C1723 H1745 0.950 . S
C1724 H1720 0.949 . S
C1724 C1732 1.574 . S
C1724 C1740 1.368 . S
H1725 C1733 0.950 . S
H1726 C1731 0.950 . S
H1727 C1732 0.949 . S
H1728 C1734 0.950 . S
H1729 C1735 0.950 . S
H1730 C1736 0.949 . S
C1731 H1726 0.950 . S
C1731 C1733 1.327 . S
C1731 C1737 1.429 . S
C1732 C1724 1.574 . S
C1732 H1727 0.949 . S
C1732 C1738 1.368 . S
C1733 C1717 1.349 . S
C1733 H1725 0.950 . S
C1733 C1731 1.327 . S
C1734 C1722 1.349 . S
C1734 H1728 0.950 . S
C1734 C1735 1.327 . S
C1735 H1729 0.950 . S
C1735 C1734 1.327 . S
C1735 C1739 1.429 . S
C1736 C1719 1.574 . S
C1736 H1730 0.949 . S
C1736 C1740 1.368 . S
C1737 C1718 1.429 . S
C1737 C1731 1.429 . S
C1737 C1738 1.523 . S
C1738 C1719 1.368 . S
C1738 C1732 1.368 . S
C1738 C1737 1.523 . S
C1739 C1723 1.429 . S
C1739 C1735 1.429 . S
C1739 C1740 1.523 . S
C1740 C1724 1.368 . S
C1740 C1736 1.368 . S
C1740 C1739 1.523 . S
H1741 C1716 0.950 . S
H1742 C1718 0.950 . S
H1743 C1719 0.949 . S
H1744 C1721 0.950 . S
H1745 C1723 0.950 . S
C1746 C1747 1.349 . S
C1746 C1748 1.327 . S
C1746 H1771 0.950 . S
C1747 C1746 1.349 . S
C1747 C1763 1.349 . S
C1748 C1746 1.327 . S
C1748 C1767 1.429 . S
C1748 H1772 0.950 . S
C1749 C1766 1.574 . S
C1749 C1768 1.368 . S
C1749 H1773 0.949 . S
H1750 C1754 0.949 . S
C1751 C1752 1.349 . S
C1751 C1753 1.327 . S
C1751 H1774 0.950 1_556 S
C1752 C1751 1.349 . S
C1752 C1764 1.349 . S
C1753 C1751 1.327 . S
C1753 C1769 1.429 . S
C1753 H1775 0.950 . S
C1754 H1750 0.949 . S
C1754 C1762 1.574 . S
C1754 C1770 1.368 . S
H1755 C1763 0.950 . S
H1756 C1761 0.950 . S
H1757 C1762 0.949 . S
H1758 C1764 0.950 . S
H1759 C1765 0.950 . S
H1760 C1766 0.949 . S
C1761 H1756 0.950 . S
C1761 C1763 1.327 . S
C1761 C1767 1.429 . S
C1762 C1754 1.574 . S
C1762 H1757 0.949 . S
C1762 C1768 1.368 . S
C1763 C1747 1.349 . S
C1763 H1755 0.950 . S
C1763 C1761 1.327 . S
C1764 C1752 1.349 . S
C1764 H1758 0.950 . S
C1764 C1765 1.327 . S
C1765 H1759 0.950 . S
C1765 C1764 1.327 . S
C1765 C1769 1.429 . S
C1766 C1749 1.574 . S
C1766 H1760 0.949 . S
C1766 C1770 1.368 . S
C1767 C1748 1.429 . S
C1767 C1761 1.429 . S
C1767 C1768 1.523 . S
C1768 C1749 1.368 . S
C1768 C1762 1.368 . S
C1768 C1767 1.523 . S
C1769 C1753 1.429 . S
C1769 C1765 1.429 . S
C1769 C1770 1.523 . S
C1770 C1754 1.368 . S
C1770 C1766 1.368 . S
C1770 C1769 1.523 . S
H1771 C1746 0.950 . S
H1772 C1748 0.950 . S
H1773 C1749 0.949 . S
H1774 C1751 0.950 1_554 S
H1775 C1753 0.950 . S
C1776 C1777 1.349 . S
C1776 C1778 1.327 . S
C1776 H1801 0.950 . S
C1777 C1776 1.349 . S
C1777 C1793 1.349 . S
C1778 C1776 1.327 . S
C1778 C1797 1.429 . S
C1778 H1802 0.950 . S
C1779 C1796 1.574 . S
C1779 C1798 1.368 . S
C1779 H1803 0.949 . S
H1780 C1784 0.949 . S
C1781 C1782 1.349 . S
C1781 C1783 1.327 . S
C1781 H1804 0.950 . S
C1782 C1781 1.349 . S
C1782 C1794 1.349 . S
C1783 C1781 1.327 . S
C1783 C1799 1.429 . S
C1783 H1805 0.950 . S
C1784 H1780 0.949 . S
C1784 C1792 1.574 . S
C1784 C1800 1.368 . S
H1785 C1793 0.950 . S
H1786 C1791 0.950 . S
H1787 C1792 0.949 . S
H1788 C1794 0.950 . S
H1789 C1795 0.950 . S
H1790 C1796 0.949 . S
C1791 H1786 0.950 . S
C1791 C1793 1.327 . S
C1791 C1797 1.429 . S
C1792 C1784 1.574 . S
C1792 H1787 0.949 . S
C1792 C1798 1.368 . S
C1793 C1777 1.349 . S
C1793 H1785 0.950 . S
C1793 C1791 1.327 . S
C1794 C1782 1.349 . S
C1794 H1788 0.950 . S
C1794 C1795 1.327 . S
C1795 H1789 0.950 . S
C1795 C1794 1.327 . S
C1795 C1799 1.429 . S
C1796 C1779 1.574 . S
C1796 H1790 0.949 . S
C1796 C1800 1.368 . S
C1797 C1778 1.429 . S
C1797 C1791 1.429 . S
C1797 C1798 1.523 . S
C1798 C1779 1.368 . S
C1798 C1792 1.368 . S
C1798 C1797 1.523 . S
C1799 C1783 1.429 . S
C1799 C1795 1.429 . S
C1799 C1800 1.523 . S
C1800 C1784 1.368 . S
C1800 C1796 1.368 . S
C1800 C1799 1.523 . S
H1801 C1776 0.950 . S
H1802 C1778 0.950 . S
H1803 C1779 0.949 . S
H1804 C1781 0.950 . S
H1805 C1783 0.950 . S
C1806 C1807 1.349 . S
C1806 C1808 1.327 . S
C1806 H1831 0.950 . S
C1807 C1806 1.349 . S
C1807 C1823 1.349 . S
C1808 C1806 1.327 . S
C1808 C1827 1.429 . S
C1808 H1832 0.950 . S
C1809 C1826 1.574 . S
C1809 C1828 1.368 . S
C1809 H1833 0.949 . S
H1810 C1814 0.949 . S
C1811 C1812 1.349 . S
C1811 C1813 1.327 . S
C1811 H1834 0.914 1_556 S
C1812 C1811 1.349 . S
C1812 C1824 1.349 . S
C1813 C1811 1.327 . S
C1813 C1829 1.429 . S
C1813 H1835 0.950 . S
C1814 H1810 0.949 . S
C1814 C1822 1.574 . S
C1814 C1830 1.368 . S
H1815 C1823 0.950 . S
H1816 C1821 0.950 . S
H1817 C1822 0.949 . S
H1818 C1824 0.950 . S
H1819 C1825 0.950 . S
H1820 C1826 0.949 . S
C1821 H1816 0.950 . S
C1821 C1823 1.327 . S
C1821 C1827 1.429 . S
C1822 C1814 1.574 . S
C1822 H1817 0.949 . S
C1822 C1828 1.368 . S
C1823 C1807 1.349 . S
C1823 H1815 0.950 . S
C1823 C1821 1.327 . S
C1824 C1812 1.349 . S
C1824 H1818 0.950 . S
C1824 C1825 1.327 . S
C1825 H1819 0.950 . S
C1825 C1824 1.327 . S
C1825 C1829 1.429 . S
C1826 C1809 1.574 . S
C1826 H1820 0.949 . S
C1826 C1830 1.368 . S
C1827 C1808 1.429 . S
C1827 C1821 1.429 . S
C1827 C1828 1.523 . S
C1828 C1809 1.368 . S
C1828 C1822 1.368 . S
C1828 C1827 1.523 . S
C1829 C1813 1.429 . S
C1829 C1825 1.429 . S
C1829 C1830 1.523 . S
C1830 C1814 1.368 . S
C1830 C1826 1.368 . S
C1830 C1829 1.523 . S
H1831 C1806 0.950 . S
H1832 C1808 0.950 . S
H1833 C1809 0.949 . S
H1834 C1811 0.914 1_554 S
H1835 C1813 0.950 . S
C1836 C1837 1.349 . S
C1836 C1838 1.327 . S
C1836 H1861 0.950 . S
C1837 C1836 1.349 . S
C1837 C1853 1.349 . S
C1838 C1836 1.327 . S
C1838 C1857 1.429 . S
C1838 H1862 0.950 . S
C1839 C1856 1.574 . S
C1839 C1858 1.368 . S
C1839 H1863 0.949 . S
H1840 C1844 0.949 . S
C1841 C1842 1.349 . S
C1841 C1843 1.327 . S
C1841 H1864 0.950 . S
C1842 C1841 1.349 . S
C1842 C1854 1.349 . S
C1843 C1841 1.327 . S
C1843 C1859 1.429 . S
C1843 H1865 0.950 . S
C1844 H1840 0.949 . S
C1844 C1852 1.574 . S
C1844 C1860 1.368 . S
H1845 C1853 0.950 . S
H1846 C1851 0.950 . S
H1847 C1852 0.949 . S
H1848 C1854 0.950 . S
H1849 C1855 0.950 . S
H1850 C1856 0.949 . S
C1851 H1846 0.950 . S
C1851 C1853 1.327 . S
C1851 C1857 1.429 . S
C1852 C1844 1.574 . S
C1852 H1847 0.949 . S
C1852 C1858 1.368 . S
C1853 C1837 1.349 . S
C1853 H1845 0.950 . S
C1853 C1851 1.327 . S
C1854 C1842 1.349 . S
C1854 H1848 0.950 . S
C1854 C1855 1.327 . S
C1855 H1849 0.950 . S
C1855 C1854 1.327 . S
C1855 C1859 1.429 . S
C1856 C1839 1.574 . S
C1856 H1850 0.949 . S
C1856 C1860 1.368 . S
C1857 C1838 1.429 . S
C1857 C1851 1.429 . S
C1857 C1858 1.523 . S
C1858 C1839 1.368 . S
C1858 C1852 1.368 . S
C1858 C1857 1.523 . S
C1859 C1843 1.429 . S
C1859 C1855 1.429 . S
C1859 C1860 1.523 . S
C1860 C1844 1.368 . S
C1860 C1856 1.368 . S
C1860 C1859 1.523 . S
H1861 C1836 0.950 . S
H1862 C1838 0.950 . S
H1863 C1839 0.949 . S
H1864 C1841 0.950 . S
H1865 C1843 0.950 . S
C1866 C1867 1.349 . S
C1866 C1868 1.327 . S
C1866 H1891 0.950 . S
C1867 C1866 1.349 . S
C1867 C1883 1.349 . S
C1868 C1866 1.327 . S
C1868 C1887 1.429 . S
C1868 H1892 0.950 . S
C1869 C1886 1.574 . S
C1869 C1888 1.368 . S
C1869 H1893 0.949 . S
H1870 C1874 0.949 . S
C1871 C1872 1.349 . S
C1871 C1873 1.327 . S
C1871 H1894 0.950 . S
C1872 C1871 1.349 . S
C1872 C1884 1.349 . S
C1873 C1871 1.327 . S
C1873 C1889 1.429 . S
C1873 H1895 0.950 . S
C1874 H1870 0.949 . S
C1874 C1882 1.574 . S
C1874 C1890 1.368 . S
H1875 C1883 0.950 . S
H1876 C1881 0.950 . S
H1877 C1882 0.949 . S
H1878 C1884 0.950 . S
H1879 C1885 0.950 . S
H1880 C1886 0.949 . S
C1881 H1876 0.950 . S
C1881 C1883 1.327 . S
C1881 C1887 1.429 . S
C1882 C1874 1.574 . S
C1882 H1877 0.949 . S
C1882 C1888 1.368 . S
C1883 C1867 1.349 . S
C1883 H1875 0.950 . S
C1883 C1881 1.327 . S
C1884 C1872 1.349 . S
C1884 H1878 0.950 . S
C1884 C1885 1.327 . S
C1885 H1879 0.950 . S
C1885 C1884 1.327 . S
C1885 C1889 1.429 . S
C1886 C1869 1.574 . S
C1886 H1880 0.949 . S
C1886 C1890 1.368 . S
C1887 C1868 1.429 . S
C1887 C1881 1.429 . S
C1887 C1888 1.523 . S
C1888 C1869 1.368 . S
C1888 C1882 1.368 . S
C1888 C1887 1.523 . S
C1889 C1873 1.429 . S
C1889 C1885 1.429 . S
C1889 C1890 1.523 . S
C1890 C1874 1.368 . S
C1890 C1886 1.368 . S
C1890 C1889 1.523 . S
H1891 C1866 0.950 . S
H1892 C1868 0.950 . S
H1893 C1869 0.949 . S
H1894 C1871 0.950 . S
H1895 C1873 0.950 . S
C1896 C1897 1.349 . S
C1896 C1898 1.327 . S
C1896 H1921 0.950 . S
C1897 C1896 1.349 . S
C1897 C1913 1.349 . S
C1898 C1896 1.327 . S
C1898 C1917 1.429 . S
C1898 H1922 0.950 . S
C1899 C1916 1.574 . S
C1899 C1918 1.368 . S
C1899 H1923 0.949 . S
H1900 C1904 0.949 . S
C1901 C1902 1.349 . S
C1901 C1903 1.327 . S
C1901 H1924 0.950 . S
C1902 C1901 1.349 . S
C1902 C1914 1.349 . S
C1903 C1901 1.327 . S
C1903 C1919 1.429 . S
C1903 H1925 0.950 . S
C1904 H1900 0.949 . S
C1904 C1912 1.574 . S
C1904 C1920 1.368 . S
H1905 C1913 0.950 . S
H1906 C1911 0.950 . S
H1907 C1912 0.949 . S
H1908 C1914 0.950 . S
H1909 C1915 0.950 . S
H1910 C1916 0.949 . S
C1911 H1906 0.950 . S
C1911 C1913 1.327 . S
C1911 C1917 1.429 . S
C1912 C1904 1.574 . S
C1912 H1907 0.949 . S
C1912 C1918 1.368 . S
C1913 C1897 1.349 . S
C1913 H1905 0.950 . S
C1913 C1911 1.327 . S
C1914 C1902 1.349 . S
C1914 H1908 0.950 . S
C1914 C1915 1.327 . S
C1915 H1909 0.950 . S
C1915 C1914 1.327 . S
C1915 C1919 1.429 . S
C1916 C1899 1.574 . S
C1916 H1910 0.949 . S
C1916 C1920 1.368 . S
C1917 C1898 1.429 . S
C1917 C1911 1.429 . S
C1917 C1918 1.523 . S
C1918 C1899 1.368 . S
C1918 C1912 1.368 . S
C1918 C1917 1.523 . S
C1919 C1903 1.429 . S
C1919 C1915 1.429 . S
C1919 C1920 1.523 . S
C1920 C1904 1.368 . S
C1920 C1916 1.368 . S
C1920 C1919 1.523 . S
H1921 C1896 0.950 . S
H1922 C1898 0.950 . S
H1923 C1899 0.949 . S
H1924 C1901 0.950 . S
H1925 C1903 0.950 . S
C1926 C1927 1.349 . S
C1926 C1928 1.327 . S
C1926 H1951 0.950 . S
C1927 C1926 1.349 . S
C1927 C1943 1.349 . S
C1928 C1926 1.327 . S
C1928 C1947 1.429 . S
C1928 H1952 0.950 . S
C1929 C1946 1.574 . S
C1929 C1948 1.368 . S
C1929 H1953 0.949 . S
H1930 C1934 0.949 . S
C1931 C1932 1.349 . S
C1931 C1933 1.327 . S
C1931 H1954 0.950 . S
C1932 C1931 1.349 . S
C1932 C1944 1.349 . S
C1933 C1931 1.327 . S
C1933 C1949 1.429 . S
C1933 H1955 0.950 . S
C1934 H1930 0.949 . S
C1934 C1942 1.574 . S
C1934 C1950 1.368 . S
H1935 C1943 0.950 . S
H1936 C1941 0.950 . S
H1937 C1942 0.949 . S
H1938 C1944 0.950 . S
H1939 C1945 0.950 . S
H1940 C1946 0.949 . S
C1941 H1936 0.950 . S
C1941 C1943 1.327 . S
C1941 C1947 1.429 . S
C1942 C1934 1.574 . S
C1942 H1937 0.949 . S
C1942 C1948 1.368 . S
C1943 C1927 1.349 . S
C1943 H1935 0.950 . S
C1943 C1941 1.327 . S
C1944 C1932 1.349 . S
C1944 H1938 0.950 . S
C1944 C1945 1.327 . S
C1945 H1939 0.950 . S
C1945 C1944 1.327 . S
C1945 C1949 1.429 . S
C1946 C1929 1.574 . S
C1946 H1940 0.949 . S
C1946 C1950 1.368 . S
C1947 C1928 1.429 . S
C1947 C1941 1.429 . S
C1947 C1948 1.523 . S
C1948 C1929 1.368 . S
C1948 C1942 1.368 . S
C1948 C1947 1.523 . S
C1949 C1933 1.429 . S
C1949 C1945 1.429 . S
C1949 C1950 1.523 . S
C1950 C1934 1.368 . S
C1950 C1946 1.368 . S
C1950 C1949 1.523 . S
H1951 C1926 0.950 . S
H1952 C1928 0.950 . S
H1953 C1929 0.949 . S
H1954 C1931 0.950 . S
H1955 C1933 0.950 . S
C1956 C1957 1.349 . S
C1956 C1958 1.327 . S
C1956 H1981 0.950 . S
C1957 C1956 1.349 . S
C1957 C1973 1.349 . S
C1958 C1956 1.327 . S
C1958 C1977 1.429 . S
C1958 H1982 0.950 . S
C1959 C1976 1.574 . S
C1959 C1978 1.368 . S
C1959 H1983 0.949 . S
H1960 C1964 0.949 . S
C1961 C1962 1.349 . S
C1961 C1963 1.327 . S
C1961 H1984 0.950 . S
C1962 C1961 1.349 . S
C1962 C1974 1.349 . S
C1963 C1961 1.327 . S
C1963 C1979 1.429 . S
C1963 H1985 0.950 . S
C1964 H1960 0.949 . S
C1964 C1972 1.574 . S
C1964 C1980 1.368 . S
H1965 C1973 0.950 . S
H1966 C1971 0.950 . S
H1967 C1972 0.949 . S
H1968 C1974 0.950 . S
H1969 C1975 0.950 . S
H1970 C1976 0.949 . S
C1971 H1966 0.950 . S
C1971 C1973 1.327 . S
C1971 C1977 1.429 . S
C1972 C1964 1.574 . S
C1972 H1967 0.949 . S
C1972 C1978 1.368 . S
C1973 C1957 1.349 . S
C1973 H1965 0.950 . S
C1973 C1971 1.327 . S
C1974 C1962 1.349 . S
C1974 H1968 0.950 . S
C1974 C1975 1.327 . S
C1975 H1969 0.950 . S
C1975 C1974 1.327 . S
C1975 C1979 1.429 . S
C1976 C1959 1.574 . S
C1976 H1970 0.949 . S
C1976 C1980 1.368 . S
C1977 C1958 1.429 . S
C1977 C1971 1.429 . S
C1977 C1978 1.523 . S
C1978 C1959 1.368 . S
C1978 C1972 1.368 . S
C1978 C1977 1.523 . S
C1979 C1963 1.429 . S
C1979 C1975 1.429 . S
C1979 C1980 1.523 . S
C1980 C1964 1.368 . S
C1980 C1976 1.368 . S
C1980 C1979 1.523 . S
H1981 C1956 0.950 . S
H1982 C1958 0.950 . S
H1983 C1959 0.949 . S
H1984 C1961 0.950 . S
H1985 C1963 0.950 . S
C1986 C1987 1.349 . S
C1986 C1988 1.327 . S
C1986 H2011 0.950 . S
C1987 C1986 1.349 . S
C1987 C2003 1.349 . S
C1988 C1986 1.327 . S
C1988 C2007 1.429 . S
C1988 H2012 0.950 . S
C1989 C2006 1.574 . S
C1989 C2008 1.368 . S
C1989 H2013 0.949 . S
H1990 C1994 0.949 . S
C1991 C1992 1.349 . S
C1991 C1993 1.327 . S
C1991 H2014 0.950 . S
C1992 C1991 1.349 . S
C1992 C2004 1.349 . S
C1993 C1991 1.327 . S
C1993 C2009 1.429 . S
C1993 H2015 0.950 . S
C1994 H1990 0.949 . S
C1994 C2002 1.574 . S
C1994 C2010 1.368 . S
H1995 C2003 0.950 . S
H1996 C2001 0.950 . S
H1997 C2002 0.949 . S
H1998 C2004 0.950 . S
H1999 C2005 0.950 . S
H2000 C2006 0.949 . S
C2001 H1996 0.950 . S
C2001 C2003 1.327 . S
C2001 C2007 1.429 . S
C2002 C1994 1.574 . S
C2002 H1997 0.949 . S
C2002 C2008 1.368 . S
C2003 C1987 1.349 . S
C2003 H1995 0.950 . S
C2003 C2001 1.327 . S
C2004 C1992 1.349 . S
C2004 H1998 0.950 . S
C2004 C2005 1.327 . S
C2005 H1999 0.950 . S
C2005 C2004 1.327 . S
C2005 C2009 1.429 . S
C2006 C1989 1.574 . S
C2006 H2000 0.949 . S
C2006 C2010 1.368 . S
C2007 C1988 1.429 . S
C2007 C2001 1.429 . S
C2007 C2008 1.523 . S
C2008 C1989 1.368 . S
C2008 C2002 1.368 . S
C2008 C2007 1.523 . S
C2009 C1993 1.429 . S
C2009 C2005 1.429 . S
C2009 C2010 1.523 . S
C2010 C1994 1.368 . S
C2010 C2006 1.368 . S
C2010 C2009 1.523 . S
H2011 C1986 0.950 . S
H2012 C1988 0.950 . S
H2013 C1989 0.949 . S
H2014 C1991 0.950 . S
H2015 C1993 0.950 . S
C2016 C2017 1.349 . S
C2016 C2018 1.327 . S
C2016 H2041 0.950 . S
C2017 C2016 1.349 . S
C2017 C2033 1.349 . S
C2018 C2016 1.327 . S
C2018 C2037 1.429 . S
C2018 H2042 0.950 . S
C2019 C2036 1.574 . S
C2019 C2038 1.368 . S
C2019 H2043 0.949 . S
H2020 C2024 0.949 . S
C2021 C2022 1.349 . S
C2021 C2023 1.327 . S
C2021 H2044 0.950 . S
C2022 C2021 1.349 . S
C2022 C2034 1.349 . S
C2023 C2021 1.327 . S
C2023 C2039 1.429 . S
C2023 H2045 0.950 . S
C2024 H2020 0.949 . S
C2024 C2032 1.574 . S
C2024 C2040 1.368 . S
H2025 C2033 0.950 . S
H2026 C2031 0.950 . S
H2027 C2032 0.949 . S
H2028 C2034 0.950 . S
H2029 C2035 0.950 . S
H2030 C2036 0.949 . S
C2031 H2026 0.950 . S
C2031 C2033 1.327 . S
C2031 C2037 1.429 . S
C2032 C2024 1.574 . S
C2032 H2027 0.949 . S
C2032 C2038 1.368 . S
C2033 C2017 1.349 . S
C2033 H2025 0.950 . S
C2033 C2031 1.327 . S
C2034 C2022 1.349 . S
C2034 H2028 0.950 . S
C2034 C2035 1.327 . S
C2035 H2029 0.950 . S
C2035 C2034 1.327 . S
C2035 C2039 1.429 . S
C2036 C2019 1.574 . S
C2036 H2030 0.949 . S
C2036 C2040 1.368 . S
C2037 C2018 1.429 . S
C2037 C2031 1.429 . S
C2037 C2038 1.523 . S
C2038 C2019 1.368 . S
C2038 C2032 1.368 . S
C2038 C2037 1.523 . S
C2039 C2023 1.429 . S
C2039 C2035 1.429 . S
C2039 C2040 1.523 . S
C2040 C2024 1.368 . S
C2040 C2036 1.368 . S
C2040 C2039 1.523 . S
H2041 C2016 0.950 . S
H2042 C2018 0.950 . S
H2043 C2019 0.949 . S
H2044 C2021 0.950 . S
H2045 C2023 0.950 . S
C2046 C2047 1.349 . S
C2046 C2048 1.327 . S
C2046 H2071 0.950 . S
C2047 C2046 1.349 . S
C2047 C2063 1.349 . S
C2048 C2046 1.327 . S
C2048 C2067 1.429 . S
C2048 H2072 0.950 . S
C2049 C2066 1.574 . S
C2049 C2068 1.368 . S
C2049 H2073 0.949 . S
H2050 C2054 0.949 . S
C2051 C2052 1.349 . S
C2051 C2053 1.327 . S
C2051 H2074 0.950 . S
C2052 C2051 1.349 . S
C2052 C2064 1.349 . S
C2053 C2051 1.327 . S
C2053 C2069 1.429 . S
C2053 H2075 0.950 . S
C2054 H2050 0.949 . S
C2054 C2062 1.574 . S
C2054 C2070 1.368 . S
H2055 C2063 0.950 . S
H2056 C2061 0.950 . S
H2057 C2062 0.949 . S
H2058 C2064 0.950 . S
H2059 C2065 0.950 . S
H2060 C2066 0.949 . S
C2061 H2056 0.950 . S
C2061 C2063 1.327 . S
C2061 C2067 1.429 . S
C2062 C2054 1.574 . S
C2062 H2057 0.949 . S
C2062 C2068 1.368 . S
C2063 C2047 1.349 . S
C2063 H2055 0.950 . S
C2063 C2061 1.327 . S
C2064 C2052 1.349 . S
C2064 H2058 0.950 . S
C2064 C2065 1.327 . S
C2065 H2059 0.950 . S
C2065 C2064 1.327 . S
C2065 C2069 1.429 . S
C2066 C2049 1.574 . S
C2066 H2060 0.949 . S
C2066 C2070 1.368 . S
C2067 C2048 1.429 . S
C2067 C2061 1.429 . S
C2067 C2068 1.523 . S
C2068 C2049 1.368 . S
C2068 C2062 1.368 . S
C2068 C2067 1.523 . S
C2069 C2053 1.429 . S
C2069 C2065 1.429 . S
C2069 C2070 1.523 . S
C2070 C2054 1.368 . S
C2070 C2066 1.368 . S
C2070 C2069 1.523 . S
H2071 C2046 0.950 . S
H2072 C2048 0.950 . S
H2073 C2049 0.949 . S
H2074 C2051 0.950 . S
H2075 C2053 0.950 . S
C2076 C2077 1.349 . S
C2076 C2078 1.327 . S
C2076 H2101 0.950 . S
C2077 C2076 1.349 . S
C2077 C2093 1.349 . S
C2078 C2076 1.327 . S
C2078 C2097 1.429 . S
C2078 H2102 0.950 . S
C2079 C2096 1.574 . S
C2079 C2098 1.368 . S
C2079 H2103 0.949 . S
H2080 C2084 0.949 . S
C2081 C2082 1.349 . S
C2081 C2083 1.327 . S
C2081 H2104 0.950 . S
C2082 C2081 1.349 . S
C2082 C2094 1.349 . S
C2083 C2081 1.327 . S
C2083 C2099 1.429 . S
C2083 H2105 0.950 . S
C2084 H2080 0.949 . S
C2084 C2092 1.574 . S
C2084 C2100 1.368 . S
H2085 C2093 0.950 . S
H2086 C2091 0.950 . S
H2087 C2092 0.949 . S
H2088 C2094 0.950 . S
H2089 C2095 0.950 . S
H2090 C2096 0.949 . S
C2091 H2086 0.950 . S
C2091 C2093 1.327 . S
C2091 C2097 1.429 . S
C2092 C2084 1.574 . S
C2092 H2087 0.949 . S
C2092 C2098 1.368 . S
C2093 C2077 1.349 . S
C2093 H2085 0.950 . S
C2093 C2091 1.327 . S
C2094 C2082 1.349 . S
C2094 H2088 0.950 . S
C2094 C2095 1.327 . S
C2095 H2089 0.950 . S
C2095 C2094 1.327 . S
C2095 C2099 1.429 . S
C2096 C2079 1.574 . S
C2096 H2090 0.949 . S
C2096 C2100 1.368 . S
C2097 C2078 1.429 . S
C2097 C2091 1.429 . S
C2097 C2098 1.523 . S
C2098 C2079 1.368 . S
C2098 C2092 1.368 . S
C2098 C2097 1.523 . S
C2099 C2083 1.429 . S
C2099 C2095 1.429 . S
C2099 C2100 1.523 . S
C2100 C2084 1.368 . S
C2100 C2096 1.368 . S
C2100 C2099 1.523 . S
H2101 C2076 0.950 . S
H2102 C2078 0.950 . S
H2103 C2079 0.949 . S
H2104 C2081 0.950 . S
H2105 C2083 0.950 . S
C2106 C2107 1.349 . S
C2106 C2108 1.327 . S
C2106 H2131 0.950 . S
C2107 C2106 1.349 . S
C2107 C2123 1.349 . S
C2108 C2106 1.327 . S
C2108 C2127 1.429 . S
C2108 H2132 0.950 . S
C2109 C2126 1.574 . S
C2109 C2128 1.368 . S
C2109 H2133 0.949 . S
H2110 C2114 0.949 . S
C2111 C2112 1.349 . S
C2111 C2113 1.327 . S
C2111 H2134 0.950 . S
C2112 C2111 1.349 . S
C2112 C2124 1.349 . S
C2113 C2111 1.327 . S
C2113 C2129 1.429 . S
C2113 H2135 0.950 . S
C2114 H2110 0.949 . S
C2114 C2122 1.574 . S
C2114 C2130 1.368 . S
H2115 C2123 0.950 . S
H2116 C2121 0.950 . S
H2117 C2122 0.949 . S
H2118 C2124 0.950 . S
H2119 C2125 0.950 . S
H2120 C2126 0.949 . S
C2121 H2116 0.950 . S
C2121 C2123 1.327 . S
C2121 C2127 1.429 . S
C2122 C2114 1.574 . S
C2122 H2117 0.949 . S
C2122 C2128 1.368 . S
C2123 C2107 1.349 . S
C2123 H2115 0.950 . S
C2123 C2121 1.327 . S
C2124 C2112 1.349 . S
C2124 H2118 0.950 . S
C2124 C2125 1.327 . S
C2125 H2119 0.950 . S
C2125 C2124 1.327 . S
C2125 C2129 1.429 . S
C2126 C2109 1.574 . S
C2126 H2120 0.949 . S
C2126 C2130 1.368 . S
C2127 C2108 1.429 . S
C2127 C2121 1.429 . S
C2127 C2128 1.523 . S
C2128 C2109 1.368 . S
C2128 C2122 1.368 . S
C2128 C2127 1.523 . S
C2129 C2113 1.429 . S
C2129 C2125 1.429 . S
C2129 C2130 1.523 . S
C2130 C2114 1.368 . S
C2130 C2126 1.368 . S
C2130 C2129 1.523 . S
H2131 C2106 0.950 . S
H2132 C2108 0.950 . S
H2133 C2109 0.949 . S
H2134 C2111 0.950 . S
H2135 C2113 0.950 . S
C2136 C2137 1.349 . S
C2136 C2138 1.327 . S
C2136 H2161 0.950 . S
C2137 C2136 1.349 . S
C2137 C2153 1.349 . S
C2138 C2136 1.327 . S
C2138 C2157 1.429 . S
C2138 H2162 0.950 . S
C2139 C2156 1.574 . S
C2139 C2158 1.368 . S
C2139 H2163 0.949 . S
H2140 C2144 0.949 . S
C2141 C2142 1.349 . S
C2141 C2143 1.327 . S
C2141 H2164 0.950 . S
C2142 C2141 1.349 . S
C2142 C2154 1.349 . S
C2143 C2141 1.327 . S
C2143 C2159 1.429 . S
C2143 H2165 0.950 . S
C2144 H2140 0.949 . S
C2144 C2152 1.574 . S
C2144 C2160 1.368 . S
H2145 C2153 0.950 . S
H2146 C2151 0.950 . S
H2147 C2152 0.949 . S
H2148 C2154 0.950 . S
H2149 C2155 0.950 . S
H2150 C2156 0.949 . S
C2151 H2146 0.950 . S
C2151 C2153 1.327 . S
C2151 C2157 1.429 . S
C2152 C2144 1.574 . S
C2152 H2147 0.949 . S
C2152 C2158 1.368 . S
C2153 C2137 1.349 . S
C2153 H2145 0.950 . S
C2153 C2151 1.327 . S
C2154 C2142 1.349 . S
C2154 H2148 0.950 . S
C2154 C2155 1.327 . S
C2155 H2149 0.950 . S
C2155 C2154 1.327 . S
C2155 C2159 1.429 . S
C2156 C2139 1.574 . S
C2156 H2150 0.949 . S
C2156 C2160 1.368 . S
C2157 C2138 1.429 . S
C2157 C2151 1.429 . S
C2157 C2158 1.523 . S
C2158 C2139 1.368 . S
C2158 C2152 1.368 . S
C2158 C2157 1.523 . S
C2159 C2143 1.429 . S
C2159 C2155 1.429 . S
C2159 C2160 1.523 . S
C2160 C2144 1.368 . S
C2160 C2156 1.368 . S
C2160 C2159 1.523 . S
H2161 C2136 0.950 . S
H2162 C2138 0.950 . S
H2163 C2139 0.949 . S
H2164 C2141 0.950 . S
H2165 C2143 0.950 . S
C2166 C2167 1.349 . S
C2166 C2168 1.327 . S
C2166 H2191 0.950 . S
C2167 C2166 1.349 . S
C2167 C2183 1.349 . S
C2168 C2166 1.327 . S
C2168 C2187 1.429 . S
C2168 H2192 0.950 . S
C2169 C2186 1.574 . S
C2169 C2188 1.368 . S
C2169 H2193 0.949 . S
H2170 C2174 0.949 . S
C2171 C2172 1.349 . S
C2171 C2173 1.327 . S
C2171 H2194 0.950 . S
C2172 C2171 1.349 . S
C2172 C2184 1.349 . S
C2173 C2171 1.327 . S
C2173 C2189 1.429 . S
C2173 H2195 0.950 . S
C2174 H2170 0.949 . S
C2174 C2182 1.574 . S
C2174 C2190 1.368 . S
H2175 C2183 0.950 . S
H2176 C2181 0.950 . S
H2177 C2182 0.949 . S
H2178 C2184 0.950 . S
H2179 C2185 0.950 . S
H2180 C2186 0.949 . S
C2181 H2176 0.950 . S
C2181 C2183 1.327 . S
C2181 C2187 1.429 . S
C2182 C2174 1.574 . S
C2182 H2177 0.949 . S
C2182 C2188 1.368 . S
C2183 C2167 1.349 . S
C2183 H2175 0.950 . S
C2183 C2181 1.327 . S
C2184 C2172 1.349 . S
C2184 H2178 0.950 . S
C2184 C2185 1.327 . S
C2185 H2179 0.950 . S
C2185 C2184 1.327 . S
C2185 C2189 1.429 . S
C2186 C2169 1.574 . S
C2186 H2180 0.949 . S
C2186 C2190 1.368 . S
C2187 C2168 1.429 . S
C2187 C2181 1.429 . S
C2187 C2188 1.523 . S
C2188 C2169 1.368 . S
C2188 C2182 1.368 . S
C2188 C2187 1.523 . S
C2189 C2173 1.429 . S
C2189 C2185 1.429 . S
C2189 C2190 1.523 . S
C2190 C2174 1.368 . S
C2190 C2186 1.368 . S
C2190 C2189 1.523 . S
H2191 C2166 0.950 . S
H2192 C2168 0.950 . S
H2193 C2169 0.949 . S
H2194 C2171 0.950 . S
H2195 C2173 0.950 . S
C2196 C2197 1.349 . S
C2196 C2198 1.327 . S
C2196 H2221 0.950 . S
C2197 C2196 1.349 . S
C2197 C2213 1.349 . S
C2198 C2196 1.327 . S
C2198 C2217 1.429 . S
C2198 H2222 0.950 . S
C2199 C2216 1.574 . S
C2199 C2218 1.368 . S
C2199 H2223 0.949 . S
H2200 C2204 0.949 . S
C2201 C2202 1.349 . S
C2201 C2203 1.327 . S
C2201 H2224 0.950 . S
C2202 C2201 1.349 . S
C2202 C2214 1.349 . S
C2203 C2201 1.327 . S
C2203 C2219 1.429 . S
C2203 H2225 0.950 . S
C2204 H2200 0.949 . S
C2204 C2212 1.574 . S
C2204 C2220 1.368 . S
H2205 C2213 0.950 . S
H2206 C2211 0.950 . S
H2207 C2212 0.949 . S
H2208 C2214 0.950 . S
H2209 C2215 0.950 . S
H2210 C2216 0.949 . S
C2211 H2206 0.950 . S
C2211 C2213 1.327 . S
C2211 C2217 1.429 . S
C2212 C2204 1.574 . S
C2212 H2207 0.949 . S
C2212 C2218 1.368 . S
C2213 C2197 1.349 . S
C2213 H2205 0.950 . S
C2213 C2211 1.327 . S
C2214 C2202 1.349 . S
C2214 H2208 0.950 . S
C2214 C2215 1.327 . S
C2215 H2209 0.950 . S
C2215 C2214 1.327 . S
C2215 C2219 1.429 . S
C2216 C2199 1.574 . S
C2216 H2210 0.949 . S
C2216 C2220 1.368 . S
C2217 C2198 1.429 . S
C2217 C2211 1.429 . S
C2217 C2218 1.523 . S
C2218 C2199 1.368 . S
C2218 C2212 1.368 . S
C2218 C2217 1.523 . S
C2219 C2203 1.429 . S
C2219 C2215 1.429 . S
C2219 C2220 1.523 . S
C2220 C2204 1.368 . S
C2220 C2216 1.368 . S
C2220 C2219 1.523 . S
H2221 C2196 0.950 . S
H2222 C2198 0.950 . S
H2223 C2199 0.949 . S
H2224 C2201 0.950 . S
H2225 C2203 0.950 . S
C2226 C2227 1.349 . S
C2226 C2228 1.327 . S
C2226 H2251 0.950 . S
C2227 C2226 1.349 . S
C2227 C2243 1.349 . S
C2228 C2226 1.327 . S
C2228 C2247 1.429 . S
C2228 H2252 0.950 . S
C2229 C2246 1.574 . S
C2229 C2248 1.368 . S
C2229 H2253 0.949 . S
H2230 C2234 0.949 . S
C2231 C2232 1.349 . S
C2231 C2233 1.327 . S
C2231 H2254 0.950 . S
C2232 C2231 1.349 . S
C2232 C2244 1.349 . S
C2233 C2231 1.327 . S
C2233 C2249 1.429 . S
C2233 H2255 0.950 . S
C2234 H2230 0.949 . S
C2234 C2242 1.574 . S
C2234 C2250 1.368 . S
H2235 C2243 0.950 . S
H2236 C2241 0.950 . S
H2237 C2242 0.949 . S
H2238 C2244 0.950 . S
H2239 C2245 0.950 . S
H2240 C2246 0.949 . S
C2241 H2236 0.950 . S
C2241 C2243 1.327 . S
C2241 C2247 1.429 . S
C2242 C2234 1.574 . S
C2242 H2237 0.949 . S
C2242 C2248 1.368 . S
C2243 C2227 1.349 . S
C2243 H2235 0.950 . S
C2243 C2241 1.327 . S
C2244 C2232 1.349 . S
C2244 H2238 0.950 . S
C2244 C2245 1.327 . S
C2245 H2239 0.950 . S
C2245 C2244 1.327 . S
C2245 C2249 1.429 . S
C2246 C2229 1.574 . S
C2246 H2240 0.949 . S
C2246 C2250 1.368 . S
C2247 C2228 1.429 . S
C2247 C2241 1.429 . S
C2247 C2248 1.523 . S
C2248 C2229 1.368 . S
C2248 C2242 1.368 . S
C2248 C2247 1.523 . S
C2249 C2233 1.429 . S
C2249 C2245 1.429 . S
C2249 C2250 1.523 . S
C2250 C2234 1.368 . S
C2250 C2246 1.368 . S
C2250 C2249 1.523 . S
H2251 C2226 0.950 . S
H2252 C2228 0.950 . S
H2253 C2229 0.949 . S
H2254 C2231 0.950 . S
H2255 C2233 0.950 . S
C2256 C2257 1.349 . S
C2256 C2258 1.327 . S
C2256 H2281 0.950 . S
C2257 C2256 1.349 . S
C2257 C2273 1.349 . S
C2258 C2256 1.327 . S
C2258 C2277 1.429 . S
C2258 H2282 0.950 . S
C2259 C2276 1.574 . S
C2259 C2278 1.368 . S
C2259 H2283 0.949 . S
H2260 C2264 0.949 . S
C2261 C2262 1.349 . S
C2261 C2263 1.327 . S
C2261 H2284 0.950 . S
C2262 C2261 1.349 . S
C2262 C2274 1.349 . S
C2263 C2261 1.327 . S
C2263 C2279 1.429 . S
C2263 H2285 0.950 . S
C2264 H2260 0.949 . S
C2264 C2272 1.574 . S
C2264 C2280 1.368 . S
H2265 C2273 0.950 . S
H2266 C2271 0.950 . S
H2267 C2272 0.949 . S
H2268 C2274 0.950 . S
H2269 C2275 0.950 . S
H2270 C2276 0.949 . S
C2271 H2266 0.950 . S
C2271 C2273 1.327 . S
C2271 C2277 1.429 . S
C2272 C2264 1.574 . S
C2272 H2267 0.949 . S
C2272 C2278 1.368 . S
C2273 C2257 1.349 . S
C2273 H2265 0.950 . S
C2273 C2271 1.327 . S
C2274 C2262 1.349 . S
C2274 H2268 0.950 . S
C2274 C2275 1.327 . S
C2275 H2269 0.950 . S
C2275 C2274 1.327 . S
C2275 C2279 1.429 . S
C2276 C2259 1.574 . S
C2276 H2270 0.949 . S
C2276 C2280 1.368 . S
C2277 C2258 1.429 . S
C2277 C2271 1.429 . S
C2277 C2278 1.523 . S
C2278 C2259 1.368 . S
C2278 C2272 1.368 . S
C2278 C2277 1.523 . S
C2279 C2263 1.429 . S
C2279 C2275 1.429 . S
C2279 C2280 1.523 . S
C2280 C2264 1.368 . S
C2280 C2276 1.368 . S
C2280 C2279 1.523 . S
H2281 C2256 0.950 . S
H2282 C2258 0.950 . S
H2283 C2259 0.949 . S
H2284 C2261 0.950 . S
H2285 C2263 0.950 . S
C2286 C2287 1.349 . S
C2286 C2288 1.327 . S
C2286 H2311 0.950 . S
C2287 C2286 1.349 . S
C2287 C2303 1.349 . S
C2288 C2286 1.327 . S
C2288 C2307 1.429 . S
C2288 H2312 0.950 . S
C2289 C2306 1.574 . S
C2289 C2308 1.368 . S
C2289 H2313 0.949 . S
H2290 C2294 0.949 . S
C2291 C2292 1.349 . S
C2291 C2293 1.327 . S
C2291 H2314 0.950 . S
C2292 C2291 1.349 . S
C2292 C2304 1.349 . S
C2293 C2291 1.327 . S
C2293 C2309 1.429 . S
C2293 H2315 0.950 . S
C2294 H2290 0.949 . S
C2294 C2302 1.574 . S
C2294 C2310 1.368 . S
H2295 C2303 0.950 . S
H2296 C2301 0.950 . S
H2297 C2302 0.949 . S
H2298 C2304 0.950 . S
H2299 C2305 0.950 . S
H2300 C2306 0.949 . S
C2301 H2296 0.950 . S
C2301 C2303 1.327 . S
C2301 C2307 1.429 . S
C2302 C2294 1.574 . S
C2302 H2297 0.949 . S
C2302 C2308 1.368 . S
C2303 C2287 1.349 . S
C2303 H2295 0.950 . S
C2303 C2301 1.327 . S
C2304 C2292 1.349 . S
C2304 H2298 0.950 . S
C2304 C2305 1.327 . S
C2305 H2299 0.950 . S
C2305 C2304 1.327 . S
C2305 C2309 1.429 . S
C2306 C2289 1.574 . S
C2306 H2300 0.949 . S
C2306 C2310 1.368 . S
C2307 C2288 1.429 . S
C2307 C2301 1.429 . S
C2307 C2308 1.523 . S
C2308 C2289 1.368 . S
C2308 C2302 1.368 . S
C2308 C2307 1.523 . S
C2309 C2293 1.429 . S
C2309 C2305 1.429 . S
C2309 C2310 1.523 . S
C2310 C2294 1.368 . S
C2310 C2306 1.368 . S
C2310 C2309 1.523 . S
H2311 C2286 0.950 . S
H2312 C2288 0.950 . S
H2313 C2289 0.949 . S
H2314 C2291 0.950 . S
H2315 C2293 0.950 . S
C2316 C2317 1.349 . S
C2316 C2318 1.327 . S
C2316 H2341 0.950 . S
C2317 C2316 1.349 . S
C2317 C2333 1.349 . S
C2318 C2316 1.327 . S
C2318 C2337 1.429 . S
C2318 H2342 0.950 . S
C2319 C2336 1.574 . S
C2319 C2338 1.368 . S
C2319 H2343 0.949 . S
H2320 C2324 0.949 . S
C2321 C2322 1.349 . S
C2321 C2323 1.327 . S
C2321 H2344 0.950 . S
C2322 C2321 1.349 . S
C2322 C2334 1.349 . S
C2323 C2321 1.327 . S
C2323 C2339 1.429 . S
C2323 H2345 0.950 . S
C2324 H2320 0.949 . S
C2324 C2332 1.574 . S
C2324 C2340 1.368 . S
H2325 C2333 0.950 . S
H2326 C2331 0.950 . S
H2327 C2332 0.949 . S
H2328 C2334 0.950 . S
H2329 C2335 0.950 . S
H2330 C2336 0.949 . S
C2331 H2326 0.950 . S
C2331 C2333 1.327 . S
C2331 C2337 1.429 . S
C2332 C2324 1.574 . S
C2332 H2327 0.949 . S
C2332 C2338 1.368 . S
C2333 C2317 1.349 . S
C2333 H2325 0.950 . S
C2333 C2331 1.327 . S
C2334 C2322 1.349 . S
C2334 H2328 0.950 . S
C2334 C2335 1.327 . S
C2335 H2329 0.950 . S
C2335 C2334 1.327 . S
C2335 C2339 1.429 . S
C2336 C2319 1.574 . S
C2336 H2330 0.949 . S
C2336 C2340 1.368 . S
C2337 C2318 1.429 . S
C2337 C2331 1.429 . S
C2337 C2338 1.523 . S
C2338 C2319 1.368 . S
C2338 C2332 1.368 . S
C2338 C2337 1.523 . S
C2339 C2323 1.429 . S
C2339 C2335 1.429 . S
C2339 C2340 1.523 . S
C2340 C2324 1.368 . S
C2340 C2336 1.368 . S
C2340 C2339 1.523 . S
H2341 C2316 0.950 . S
H2342 C2318 0.950 . S
H2343 C2319 0.949 . S
H2344 C2321 0.950 . S
H2345 C2323 0.950 . S
C2346 C2347 1.349 . S
C2346 C2348 1.327 . S
C2346 H2371 0.950 . S
C2347 C2346 1.349 . S
C2347 C2363 1.349 . S
C2348 C2346 1.327 . S
C2348 C2367 1.429 . S
C2348 H2372 0.950 . S
C2349 C2366 1.574 . S
C2349 C2368 1.368 . S
C2349 H2373 0.949 . S
H2350 C2354 0.949 . S
C2351 C2352 1.349 . S
C2351 C2353 1.327 . S
C2351 H2374 0.950 . S
C2352 C2351 1.349 . S
C2352 C2364 1.349 . S
C2353 C2351 1.327 . S
C2353 C2369 1.429 . S
C2353 H2375 0.950 . S
C2354 H2350 0.949 . S
C2354 C2362 1.574 . S
C2354 C2370 1.368 . S
H2355 C2363 0.950 . S
H2356 C2361 0.950 . S
H2357 C2362 0.949 . S
H2358 C2364 0.950 . S
H2359 C2365 0.950 . S
H2360 C2366 0.949 . S
C2361 H2356 0.950 . S
C2361 C2363 1.327 . S
C2361 C2367 1.429 . S
C2362 C2354 1.574 . S
C2362 H2357 0.949 . S
C2362 C2368 1.368 . S
C2363 C2347 1.349 . S
C2363 H2355 0.950 . S
C2363 C2361 1.327 . S
C2364 C2352 1.349 . S
C2364 H2358 0.950 . S
C2364 C2365 1.327 . S
C2365 H2359 0.950 . S
C2365 C2364 1.327 . S
C2365 C2369 1.429 . S
C2366 C2349 1.574 . S
C2366 H2360 0.949 . S
C2366 C2370 1.368 . S
C2367 C2348 1.429 . S
C2367 C2361 1.429 . S
C2367 C2368 1.523 . S
C2368 C2349 1.368 . S
C2368 C2362 1.368 . S
C2368 C2367 1.523 . S
C2369 C2353 1.429 . S
C2369 C2365 1.429 . S
C2369 C2370 1.523 . S
C2370 C2354 1.368 . S
C2370 C2366 1.368 . S
C2370 C2369 1.523 . S
H2371 C2346 0.950 . S
H2372 C2348 0.950 . S
H2373 C2349 0.949 . S
H2374 C2351 0.950 . S
H2375 C2353 0.950 . S
C2376 C2377 1.349 . S
C2376 C2378 1.327 . S
C2376 H2401 0.950 . S
C2377 C2376 1.349 . S
C2377 C2393 1.349 . S
C2378 C2376 1.327 . S
C2378 C2397 1.429 . S
C2378 H2402 0.950 . S
C2379 C2396 1.574 . S
C2379 C2398 1.368 . S
C2379 H2403 0.949 . S
H2380 C2384 0.949 . S
C2381 C2382 1.349 . S
C2381 C2383 1.327 . S
C2381 H2404 0.950 . S
C2382 C2381 1.349 . S
C2382 C2394 1.349 . S
C2383 C2381 1.327 . S
C2383 C2399 1.429 . S
C2383 H2405 0.950 . S
C2384 H2380 0.949 . S
C2384 C2392 1.574 . S
C2384 C2400 1.368 . S
H2385 C2393 0.950 . S
H2386 C2391 0.950 . S
H2387 C2392 0.949 . S
H2388 C2394 0.950 . S
H2389 C2395 0.950 . S
H2390 C2396 0.949 . S
C2391 H2386 0.950 . S
C2391 C2393 1.327 . S
C2391 C2397 1.429 . S
C2392 C2384 1.574 . S
C2392 H2387 0.949 . S
C2392 C2398 1.368 . S
C2393 C2377 1.349 . S
C2393 H2385 0.950 . S
C2393 C2391 1.327 . S
C2394 C2382 1.349 . S
C2394 H2388 0.950 . S
C2394 C2395 1.327 . S
C2395 H2389 0.950 . S
C2395 C2394 1.327 . S
C2395 C2399 1.429 . S
C2396 C2379 1.574 . S
C2396 H2390 0.949 . S
C2396 C2400 1.368 . S
C2397 C2378 1.429 . S
C2397 C2391 1.429 . S
C2397 C2398 1.523 . S
C2398 C2379 1.368 . S
C2398 C2392 1.368 . S
C2398 C2397 1.523 . S
C2399 C2383 1.429 . S
C2399 C2395 1.429 . S
C2399 C2400 1.523 . S
C2400 C2384 1.368 . S
C2400 C2396 1.368 . S
C2400 C2399 1.523 . S
H2401 C2376 0.950 . S
H2402 C2378 0.950 . S
H2403 C2379 0.949 . S
H2404 C2381 0.950 . S
H2405 C2383 0.950 . S
C2406 C2407 1.349 . S
C2406 C2408 1.327 . S
C2406 H2431 0.950 . S
C2407 C2406 1.349 . S
C2407 C2423 1.349 . S
C2408 C2406 1.327 . S
C2408 C2427 1.429 . S
C2408 H2432 0.950 . S
C2409 C2426 1.574 . S
C2409 C2428 1.368 . S
C2409 H2433 0.949 . S
H2410 C2414 0.949 . S
C2411 C2412 1.349 . S
C2411 C2413 1.327 . S
C2411 H2434 0.950 . S
C2412 C2411 1.349 . S
C2412 C2424 1.349 . S
C2413 C2411 1.327 . S
C2413 C2429 1.429 . S
C2413 H2435 0.950 . S
C2414 H2410 0.949 . S
C2414 C2422 1.574 . S
C2414 C2430 1.368 . S
H2415 C2423 0.950 . S
H2416 C2421 0.950 . S
H2417 C2422 0.949 . S
H2418 C2424 0.950 . S
H2419 C2425 0.950 . S
H2420 C2426 0.949 . S
C2421 H2416 0.950 . S
C2421 C2423 1.327 . S
C2421 C2427 1.429 . S
C2422 C2414 1.574 . S
C2422 H2417 0.949 . S
C2422 C2428 1.368 . S
C2423 C2407 1.349 . S
C2423 H2415 0.950 . S
C2423 C2421 1.327 . S
C2424 C2412 1.349 . S
C2424 H2418 0.950 . S
C2424 C2425 1.327 . S
C2425 H2419 0.950 . S
C2425 C2424 1.327 . S
C2425 C2429 1.429 . S
C2426 C2409 1.574 . S
C2426 H2420 0.949 . S
C2426 C2430 1.368 . S
C2427 C2408 1.429 . S
C2427 C2421 1.429 . S
C2427 C2428 1.523 . S
C2428 C2409 1.368 . S
C2428 C2422 1.368 . S
C2428 C2427 1.523 . S
C2429 C2413 1.429 . S
C2429 C2425 1.429 . S
C2429 C2430 1.523 . S
C2430 C2414 1.368 . S
C2430 C2426 1.368 . S
C2430 C2429 1.523 . S
H2431 C2406 0.950 . S
H2432 C2408 0.950 . S
H2433 C2409 0.949 . S
H2434 C2411 0.950 . S
H2435 C2413 0.950 . S
C1002 C707 1.322 . S
C997 C74 1.293 . S
C1032 C685 1.664 . S
C1027 C153 1.598 . S
C1062 C682 0.709 . S
C1057 C231 0.712 . S
C1087 C310 0.619 . S
C1092 C694 0.374 . S
C1117 C394 1.594 . S
C1122 C677 1.658 . S
C1152 C699 0.711 . S
C1147 C494 0.713 . S
C1177 C573 0.618 . S
C1182 C704 0.369 . S
C1207 C651 1.291 . S
C1212 C700 1.320 . S
C1242 C758 2.775 . S
C1237 C56 2.843 . S
C1267 C151 1.282 . S
C1272 C808 1.275 . S
C1302 C731 1.673 . S
C1297 C237 1.591 . S
C1332 C807 0.725 . S
C1327 C326 0.728 . S
C1357 C410 0.712 . S
C1362 C736 0.708 . S
C1392 C802 2.772 . S
C1387 C476 2.841 . S
C1417 C571 1.294 . S
C1422 C761 1.290 . S
C1447 C657 1.597 . S
C1452 C793 1.682 . S
C1477 C58 1.602 . S
C1482 C785 1.685 . S
C1507 C392 1.293 . S
C1512 C815 1.287 . S
C1542 C739 1.689 . S
C1537 C478 1.604 . S
C1572 C790 0.738 . S
C1567 C567 0.739 . S
C1597 C655 2.848 . S
C1602 C748 2.777 . S
C1627 C235 2.856 . S
C1632 C812 2.790 . S
C1662 C754 1.296 . S
C1657 C308 1.301 . S
C1687 C147 0.726 . S
C1692 C753 0.724 . S
C1717 C662 1.293 . S
C1722 C869 1.322 . S
C1747 C405 1.598 . S
C1752 C847 1.664 . S
C1782 C844 0.709 . S
C1777 C483 0.712 . S
C1812 C856 0.374 . S
C1807 C562 0.619 . S
C1837 C142 1.594 . S
C1842 C839 1.658 . S
C1872 C861 0.711 . S
C1867 C242 0.713 . S
C1897 C321 0.618 . S
C1902 C866 0.369 . S
C1927 C63 1.291 . S
C1932 C862 1.320 . S
C1957 C644 2.843 . S
C1962 C920 2.775 . S
C1992 C970 1.275 . S
C1987 C403 1.282 . S
C2017 C489 1.591 . S
C2022 C893 1.673 . S
C2047 C578 0.728 . S
C2052 C969 0.725 . S
C2082 C898 0.708 . S
C2077 C158 0.712 . S
C2107 C224 2.841 . S
C2112 C964 2.772 . S
C2142 C923 1.290 . S
C2137 C319 1.294 . S
C2172 C955 1.682 . S
C2167 C69 1.597 . S
C2202 C947 1.685 . S
C2197 C646 1.602 . S
C2227 C140 1.293 . S
C2232 C977 1.287 . S
C2257 C226 1.604 . S
C2262 C901 1.689 . S
C2292 C952 0.738 . S
C2287 C315 0.739 . S
C2317 C67 2.848 . S
C2322 C910 2.777 . S
C2347 C487 2.856 . S
C2352 C974 2.790 . S
C2382 C916 1.296 . S
C2377 C560 1.301 . S
C2412 C915 0.724 . S
C2407 C399 0.726 . S
