# Generated by pormake.
# Topology gar, (4,6)-cn, num edge types: 1
# Building blocks:
#     Node 0, Type 0, BuildingBlock: QUQFOY_clean_sbu_3, # of connection points: 4
#     Node 1, Type 0, BuildingBlock: QUQFOY_clean_sbu_3, # of connection points: 4
#     Node 2, Type 0, BuildingBlock: QUQFOY_clean_sbu_3, # of connection points: 4
#     Node 3, Type 0, BuildingBlock: QUQFOY_clean_sbu_3, # of connection points: 4
#     Node 4, Type 0, BuildingBlock: QUQFOY_clean_sbu_3, # of connection points: 4
#     Node 5, Type 0, BuildingBlock: QUQFOY_clean_sbu_3, # of connection points: 4
#     Node 6, Type 0, BuildingBlock: QUQFOY_clean_sbu_3, # of connection points: 4
#     Node 7, Type 0, BuildingBlock: QUQFOY_clean_sbu_3, # of connection points: 4
#     Node 8, Type 0, BuildingBlock: QUQFOY_clean_sbu_3, # of connection points: 4
#     Node 9, Type 0, BuildingBlock: QUQFOY_clean_sbu_3, # of connection points: 4
#     Node 10, Type 0, BuildingBlock: QUQFOY_clean_sbu_3, # of connection points: 4
#     Node 11, Type 0, BuildingBlock: QUQFOY_clean_sbu_3, # of connection points: 4
#     Node 12, Type 0, BuildingBlock: QUQFOY_clean_sbu_3, # of connection points: 4
#     Node 13, Type 0, BuildingBlock: QUQFOY_clean_sbu_3, # of connection points: 4
#     Node 14, Type 0, BuildingBlock: QUQFOY_clean_sbu_3, # of connection points: 4
#     Node 15, Type 0, BuildingBlock: QUQFOY_clean_sbu_3, # of connection points: 4
#     Node 16, Type 0, BuildingBlock: QUQFOY_clean_sbu_3, # of connection points: 4
#     Node 17, Type 0, BuildingBlock: QUQFOY_clean_sbu_3, # of connection points: 4
#     Node 18, Type 0, BuildingBlock: QUQFOY_clean_sbu_3, # of connection points: 4
#     Node 19, Type 0, BuildingBlock: QUQFOY_clean_sbu_3, # of connection points: 4
#     Node 20, Type 0, BuildingBlock: QUQFOY_clean_sbu_3, # of connection points: 4
#     Node 21, Type 0, BuildingBlock: QUQFOY_clean_sbu_3, # of connection points: 4
#     Node 22, Type 0, BuildingBlock: QUQFOY_clean_sbu_3, # of connection points: 4
#     Node 23, Type 0, BuildingBlock: QUQFOY_clean_sbu_3, # of connection points: 4
#     Node 24, Type 1, BuildingBlock: KUMBUR_clean_sbu_0, # of connection points: 6
#     Node 25, Type 1, BuildingBlock: KUMBUR_clean_sbu_0, # of connection points: 6
#     Node 26, Type 1, BuildingBlock: KUMBUR_clean_sbu_0, # of connection points: 6
#     Node 27, Type 1, BuildingBlock: KUMBUR_clean_sbu_0, # of connection points: 6
#     Node 28, Type 1, BuildingBlock: KUMBUR_clean_sbu_0, # of connection points: 6
#     Node 29, Type 1, BuildingBlock: KUMBUR_clean_sbu_0, # of connection points: 6
#     Node 30, Type 1, BuildingBlock: KUMBUR_clean_sbu_0, # of connection points: 6
#     Node 31, Type 1, BuildingBlock: KUMBUR_clean_sbu_0, # of connection points: 6
#     Node 32, Type 1, BuildingBlock: KUMBUR_clean_sbu_0, # of connection points: 6
#     Node 33, Type 1, BuildingBlock: KUMBUR_clean_sbu_0, # of connection points: 6
#     Node 34, Type 1, BuildingBlock: KUMBUR_clean_sbu_0, # of connection points: 6
#     Node 35, Type 1, BuildingBlock: KUMBUR_clean_sbu_0, # of connection points: 6
#     Node 36, Type 1, BuildingBlock: KUMBUR_clean_sbu_0, # of connection points: 6
#     Node 37, Type 1, BuildingBlock: KUMBUR_clean_sbu_0, # of connection points: 6
#     Node 38, Type 1, BuildingBlock: KUMBUR_clean_sbu_0, # of connection points: 6
#     Node 39, Type 1, BuildingBlock: KUMBUR_clean_sbu_0, # of connection points: 6
#     Edge 40, Type (0, 1), BuildingBlock: ZUJKAS_clean_linker_0, # of connection points: 2
#     Edge 41, Type (0, 1), BuildingBlock: ZUJKAS_clean_linker_0, # of connection points: 2
#     Edge 42, Type (0, 1), BuildingBlock: ZUJKAS_clean_linker_0, # of connection points: 2
#     Edge 43, Type (0, 1), BuildingBlock: ZUJKAS_clean_linker_0, # of connection points: 2
#     Edge 44, Type (0, 1), BuildingBlock: ZUJKAS_clean_linker_0, # of connection points: 2
#     Edge 45, Type (0, 1), BuildingBlock: ZUJKAS_clean_linker_0, # of connection points: 2
#     Edge 46, Type (0, 1), BuildingBlock: ZUJKAS_clean_linker_0, # of connection points: 2
#     Edge 47, Type (0, 1), BuildingBlock: ZUJKAS_clean_linker_0, # of connection points: 2
#     Edge 48, Type (0, 1), BuildingBlock: ZUJKAS_clean_linker_0, # of connection points: 2
#     Edge 49, Type (0, 1), BuildingBlock: ZUJKAS_clean_linker_0, # of connection points: 2
#     Edge 50, Type (0, 1), BuildingBlock: ZUJKAS_clean_linker_0, # of connection points: 2
#     Edge 51, Type (0, 1), BuildingBlock: ZUJKAS_clean_linker_0, # of connection points: 2
#     Edge 52, Type (0, 1), BuildingBlock: ZUJKAS_clean_linker_0, # of connection points: 2
#     Edge 53, Type (0, 1), BuildingBlock: ZUJKAS_clean_linker_0, # of connection points: 2
#     Edge 54, Type (0, 1), BuildingBlock: ZUJKAS_clean_linker_0, # of connection points: 2
#     Edge 55, Type (0, 1), BuildingBlock: ZUJKAS_clean_linker_0, # of connection points: 2
#     Edge 56, Type (0, 1), BuildingBlock: ZUJKAS_clean_linker_0, # of connection points: 2
#     Edge 57, Type (0, 1), BuildingBlock: ZUJKAS_clean_linker_0, # of connection points: 2
#     Edge 58, Type (0, 1), BuildingBlock: ZUJKAS_clean_linker_0, # of connection points: 2
#     Edge 59, Type (0, 1), BuildingBlock: ZUJKAS_clean_linker_0, # of connection points: 2
#     Edge 60, Type (0, 1), BuildingBlock: ZUJKAS_clean_linker_0, # of connection points: 2
#     Edge 61, Type (0, 1), BuildingBlock: ZUJKAS_clean_linker_0, # of connection points: 2
#     Edge 62, Type (0, 1), BuildingBlock: ZUJKAS_clean_linker_0, # of connection points: 2
#     Edge 63, Type (0, 1), BuildingBlock: ZUJKAS_clean_linker_0, # of connection points: 2
#     Edge 64, Type (0, 1), BuildingBlock: ZUJKAS_clean_linker_0, # of connection points: 2
#     Edge 65, Type (0, 1), BuildingBlock: ZUJKAS_clean_linker_0, # of connection points: 2
#     Edge 66, Type (0, 1), BuildingBlock: ZUJKAS_clean_linker_0, # of connection points: 2
#     Edge 67, Type (0, 1), BuildingBlock: ZUJKAS_clean_linker_0, # of connection points: 2
#     Edge 68, Type (0, 1), BuildingBlock: ZUJKAS_clean_linker_0, # of connection points: 2
#     Edge 69, Type (0, 1), BuildingBlock: ZUJKAS_clean_linker_0, # of connection points: 2
#     Edge 70, Type (0, 1), BuildingBlock: ZUJKAS_clean_linker_0, # of connection points: 2
#     Edge 71, Type (0, 1), BuildingBlock: ZUJKAS_clean_linker_0, # of connection points: 2
#     Edge 72, Type (0, 1), BuildingBlock: ZUJKAS_clean_linker_0, # of connection points: 2
#     Edge 73, Type (0, 1), BuildingBlock: ZUJKAS_clean_linker_0, # of connection points: 2
#     Edge 74, Type (0, 1), BuildingBlock: ZUJKAS_clean_linker_0, # of connection points: 2
#     Edge 75, Type (0, 1), BuildingBlock: ZUJKAS_clean_linker_0, # of connection points: 2
#     Edge 76, Type (0, 1), BuildingBlock: ZUJKAS_clean_linker_0, # of connection points: 2
#     Edge 77, Type (0, 1), BuildingBlock: ZUJKAS_clean_linker_0, # of connection points: 2
#     Edge 78, Type (0, 1), BuildingBlock: ZUJKAS_clean_linker_0, # of connection points: 2
#     Edge 79, Type (0, 1), BuildingBlock: ZUJKAS_clean_linker_0, # of connection points: 2
#     Edge 80, Type (0, 1), BuildingBlock: ZUJKAS_clean_linker_0, # of connection points: 2
#     Edge 81, Type (0, 1), BuildingBlock: ZUJKAS_clean_linker_0, # of connection points: 2
#     Edge 82, Type (0, 1), BuildingBlock: ZUJKAS_clean_linker_0, # of connection points: 2
#     Edge 83, Type (0, 1), BuildingBlock: ZUJKAS_clean_linker_0, # of connection points: 2
#     Edge 84, Type (0, 1), BuildingBlock: ZUJKAS_clean_linker_0, # of connection points: 2
#     Edge 85, Type (0, 1), BuildingBlock: ZUJKAS_clean_linker_0, # of connection points: 2
#     Edge 86, Type (0, 1), BuildingBlock: ZUJKAS_clean_linker_0, # of connection points: 2
#     Edge 87, Type (0, 1), BuildingBlock: ZUJKAS_clean_linker_0, # of connection points: 2
#     Edge 88, Type (0, 1), BuildingBlock: ZUJKAS_clean_linker_0, # of connection points: 2
#     Edge 89, Type (0, 1), BuildingBlock: ZUJKAS_clean_linker_0, # of connection points: 2
#     Edge 90, Type (0, 1), BuildingBlock: ZUJKAS_clean_linker_0, # of connection points: 2
#     Edge 91, Type (0, 1), BuildingBlock: ZUJKAS_clean_linker_0, # of connection points: 2
#     Edge 92, Type (0, 1), BuildingBlock: ZUJKAS_clean_linker_0, # of connection points: 2
#     Edge 93, Type (0, 1), BuildingBlock: ZUJKAS_clean_linker_0, # of connection points: 2
#     Edge 94, Type (0, 1), BuildingBlock: ZUJKAS_clean_linker_0, # of connection points: 2
#     Edge 95, Type (0, 1), BuildingBlock: ZUJKAS_clean_linker_0, # of connection points: 2
#     Edge 96, Type (0, 1), BuildingBlock: ZUJKAS_clean_linker_0, # of connection points: 2
#     Edge 97, Type (0, 1), BuildingBlock: ZUJKAS_clean_linker_0, # of connection points: 2
#     Edge 98, Type (0, 1), BuildingBlock: ZUJKAS_clean_linker_0, # of connection points: 2
#     Edge 99, Type (0, 1), BuildingBlock: ZUJKAS_clean_linker_0, # of connection points: 2
#     Edge 100, Type (0, 1), BuildingBlock: ZUJKAS_clean_linker_0, # of connection points: 2
#     Edge 101, Type (0, 1), BuildingBlock: ZUJKAS_clean_linker_0, # of connection points: 2
#     Edge 102, Type (0, 1), BuildingBlock: ZUJKAS_clean_linker_0, # of connection points: 2
#     Edge 103, Type (0, 1), BuildingBlock: ZUJKAS_clean_linker_0, # of connection points: 2
#     Edge 104, Type (0, 1), BuildingBlock: ZUJKAS_clean_linker_0, # of connection points: 2
#     Edge 105, Type (0, 1), BuildingBlock: ZUJKAS_clean_linker_0, # of connection points: 2
#     Edge 106, Type (0, 1), BuildingBlock: ZUJKAS_clean_linker_0, # of connection points: 2
#     Edge 107, Type (0, 1), BuildingBlock: ZUJKAS_clean_linker_0, # of connection points: 2
#     Edge 108, Type (0, 1), BuildingBlock: ZUJKAS_clean_linker_0, # of connection points: 2
#     Edge 109, Type (0, 1), BuildingBlock: ZUJKAS_clean_linker_0, # of connection points: 2
#     Edge 110, Type (0, 1), BuildingBlock: ZUJKAS_clean_linker_0, # of connection points: 2
#     Edge 111, Type (0, 1), BuildingBlock: ZUJKAS_clean_linker_0, # of connection points: 2
#     Edge 112, Type (0, 1), BuildingBlock: ZUJKAS_clean_linker_0, # of connection points: 2
#     Edge 113, Type (0, 1), BuildingBlock: ZUJKAS_clean_linker_0, # of connection points: 2
#     Edge 114, Type (0, 1), BuildingBlock: ZUJKAS_clean_linker_0, # of connection points: 2
#     Edge 115, Type (0, 1), BuildingBlock: ZUJKAS_clean_linker_0, # of connection points: 2
#     Edge 116, Type (0, 1), BuildingBlock: ZUJKAS_clean_linker_0, # of connection points: 2
#     Edge 117, Type (0, 1), BuildingBlock: ZUJKAS_clean_linker_0, # of connection points: 2
#     Edge 118, Type (0, 1), BuildingBlock: ZUJKAS_clean_linker_0, # of connection points: 2
#     Edge 119, Type (0, 1), BuildingBlock: ZUJKAS_clean_linker_0, # of connection points: 2
#     Edge 120, Type (0, 1), BuildingBlock: ZUJKAS_clean_linker_0, # of connection points: 2
#     Edge 121, Type (0, 1), BuildingBlock: ZUJKAS_clean_linker_0, # of connection points: 2
#     Edge 122, Type (0, 1), BuildingBlock: ZUJKAS_clean_linker_0, # of connection points: 2
#     Edge 123, Type (0, 1), BuildingBlock: ZUJKAS_clean_linker_0, # of connection points: 2
#     Edge 124, Type (0, 1), BuildingBlock: ZUJKAS_clean_linker_0, # of connection points: 2
#     Edge 125, Type (0, 1), BuildingBlock: ZUJKAS_clean_linker_0, # of connection points: 2
#     Edge 126, Type (0, 1), BuildingBlock: ZUJKAS_clean_linker_0, # of connection points: 2
#     Edge 127, Type (0, 1), BuildingBlock: ZUJKAS_clean_linker_0, # of connection points: 2
#     Edge 128, Type (0, 1), BuildingBlock: ZUJKAS_clean_linker_0, # of connection points: 2
#     Edge 129, Type (0, 1), BuildingBlock: ZUJKAS_clean_linker_0, # of connection points: 2
#     Edge 130, Type (0, 1), BuildingBlock: ZUJKAS_clean_linker_0, # of connection points: 2
#     Edge 131, Type (0, 1), BuildingBlock: ZUJKAS_clean_linker_0, # of connection points: 2
#     Edge 132, Type (0, 1), BuildingBlock: ZUJKAS_clean_linker_0, # of connection points: 2
#     Edge 133, Type (0, 1), BuildingBlock: ZUJKAS_clean_linker_0, # of connection points: 2
#     Edge 134, Type (0, 1), BuildingBlock: ZUJKAS_clean_linker_0, # of connection points: 2
#     Edge 135, Type (0, 1), BuildingBlock: ZUJKAS_clean_linker_0, # of connection points: 2
# Relax obj value: 0.112
# Max RMSD: 0.312
# Mean RMSD: 0.145
data_MOF--net-gar--node1-QUQFOY_clean_sbu_3--node2-KUMBUR_clean_sbu_0--edge1-ZUJKAS_clean_linker_0
_symmetry_space_group_name_H-M    P1
_symmetry_Int_Tables_number       1
_symmetry_cell_setting            triclinic
loop_
_symmetry_equiv_pos_as_xyz
'x, y, z'
_cell_length_a     77.077225
_cell_length_b     73.610574
_cell_length_c     72.988081
_cell_angle_alpha  100.66819
_cell_angle_beta   92.915146
_cell_angle_gamma 102.17222
loop_
_atom_site_label
_atom_site_type_symbol
_atom_site_fract_x
_atom_site_fract_y
_atom_site_fract_z
_atom_type_partial_charge
C0 C 0.06494 0.31398 0.35762 0.0
O1 O 0.07699 0.32173 0.34847 0.0
Cd2 Cd 0.10823 0.32524 0.35204 0.0
O3 O 0.06879 0.30617 0.37109 0.0
Cd4 Cd 0.09657 0.30126 0.38705 0.0
C5 C 0.11289 0.34964 0.39752 0.0
O6 O 0.10926 0.29533 0.35843 0.0
O7 O 0.12722 0.29605 0.38198 0.0
O8 O 0.08071 0.2711 0.39399 0.0
C9 C 0.12465 0.2946 0.36442 0.0
O10 O 0.11596 0.34955 0.38052 0.0
C11 C 0.08594 0.27558 0.41137 0.0
O12 O 0.10562 0.33447 0.40277 0.0
O13 O 0.09599 0.29192 0.41727 0.0
C14 C 0.9847 0.77251 0.68999 0.0
O15 O 0.99565 0.76546 0.69846 0.0
Cd16 Cd 0.02167 0.75669 0.68742 0.0
O17 O 0.98735 0.77657 0.67394 0.0
Cd18 Cd 0.00991 0.77533 0.65092 0.0
C19 C 0.00131 0.72733 0.6458 0.0
O20 O 0.03485 0.78201 0.67352 0.0
O21 O 0.0408 0.77281 0.64533 0.0
O22 O 0.01083 0.80655 0.64388 0.0
C23 C 0.04627 0.77797 0.66257 0.0
O24 O 0.00938 0.72967 0.66205 0.0
C25 C 0.00604 0.80048 0.62651 0.0
O26 O 0.9991 0.74143 0.63885 0.0
O27 O 0.00231 0.78261 0.62068 0.0
C28 C 0.56352 0.81957 0.86507 0.0
O29 O 0.57679 0.82619 0.85674 0.0
Cd30 Cd 0.60735 0.82642 0.86312 0.0
O31 O 0.56548 0.81167 0.87899 0.0
Cd32 Cd 0.59096 0.80527 0.89739 0.0
C33 C 0.61061 0.85269 0.90758 0.0
O34 O 0.60513 0.79609 0.87031 0.0
O35 O 0.62117 0.79842 0.89585 0.0
O36 O 0.57274 0.77593 0.90357 0.0
C37 C 0.6196 0.79463 0.8781 0.0
O38 O 0.61549 0.85149 0.89106 0.0
C39 C 0.57715 0.78013 0.92112 0.0
O40 O 0.60114 0.83839 0.91263 0.0
O41 O 0.58751 0.79619 0.92753 0.0
C42 C 0.4876 0.27702 0.19553 0.0
O43 O 0.49875 0.27076 0.20461 0.0
Cd44 Cd 0.5253 0.26254 0.19407 0.0
O45 O 0.49033 0.28054 0.17931 0.0
Cd46 Cd 0.51318 0.27915 0.15666 0.0
C47 C 0.50516 0.23139 0.1534 0.0
O48 O 0.53872 0.28708 0.17907 0.0
O49 O 0.54376 0.27636 0.15091 0.0
O50 O 0.51254 0.30959 0.14835 0.0
C51 C 0.54978 0.28235 0.16793 0.0
O52 O 0.51325 0.23444 0.16974 0.0
C53 C 0.5086 0.30283 0.13095 0.0
O54 O 0.50276 0.24502 0.14577 0.0
O55 O 0.50607 0.28495 0.1257 0.0
C56 C 0.05148 0.80244 0.14875 0.0
O57 O 0.06188 0.79525 0.1578 0.0
Cd58 Cd 0.09161 0.79285 0.15242 0.0
O59 O 0.05669 0.80994 0.1349 0.0
Cd60 Cd 0.08498 0.81584 0.11784 0.0
C61 C 0.08298 0.76727 0.10651 0.0
O62 O 0.10548 0.82249 0.14622 0.0
O63 O 0.11847 0.81888 0.12106 0.0
O64 O 0.08009 0.84814 0.11707 0.0
C65 C 0.1199 0.82205 0.13883 0.0
O66 O 0.0882 0.76904 0.12373 0.0
C67 C 0.08064 0.84748 0.0996 0.0
O68 O 0.07936 0.78138 0.10026 0.0
O69 O 0.08328 0.83207 0.09017 0.0
C70 C 0.48278 0.76382 0.38987 0.0
O71 O 0.49384 0.77147 0.37972 0.0
Cd72 Cd 0.52479 0.78354 0.38816 0.0
O73 O 0.48829 0.76005 0.40537 0.0
Cd74 Cd 0.51955 0.76219 0.42241 0.0
C75 C 0.52423 0.81072 0.43254 0.0
O76 O 0.53678 0.75826 0.39499 0.0
O77 O 0.55261 0.77148 0.4209 0.0
O78 O 0.51383 0.7279 0.42407 0.0
C79 C 0.55218 0.76449 0.40359 0.0
O80 O 0.52668 0.80913 0.41524 0.0
C81 C 0.5183 0.72997 0.44145 0.0
O82 O 0.52066 0.79588 0.43972 0.0
O83 O 0.52225 0.74702 0.45058 0.0
C84 C 0.55035 0.30324 0.65108 0.0
O85 O 0.56093 0.29637 0.66026 0.0
Cd86 Cd 0.58969 0.29212 0.65307 0.0
O87 O 0.55511 0.30985 0.6366 0.0
Cd88 Cd 0.58259 0.31507 0.61819 0.0
C89 C 0.57746 0.26612 0.60728 0.0
O90 O 0.60416 0.32093 0.6455 0.0
O91 O 0.61583 0.31668 0.61954 0.0
O92 O 0.57782 0.34757 0.61836 0.0
C93 C 0.61805 0.31967 0.63729 0.0
O94 O 0.5826 0.26787 0.62453 0.0
C95 C 0.57761 0.34704 0.60086 0.0
O96 O 0.57557 0.28064 0.60064 0.0
O97 O 0.57994 0.33169 0.591 0.0
C98 C 0.9822 0.26419 0.89001 0.0
O99 O 0.99367 0.2725 0.88067 0.0
Cd100 Cd 0.02427 0.28465 0.89047 0.0
O101 O 0.98717 0.25984 0.90543 0.0
Cd102 Cd 0.01815 0.26192 0.92358 0.0
C103 C 0.022 0.31036 0.93506 0.0
O104 O 0.03591 0.25871 0.89647 0.0
O105 O 0.05136 0.27147 0.92268 0.0
O106 O 0.01213 0.22743 0.92487 0.0
C107 C 0.05119 0.26468 0.90537 0.0
O108 O 0.0245 0.30951 0.91784 0.0
C109 C 0.01623 0.22924 0.94229 0.0
O110 O 0.01907 0.29521 0.94179 0.0
O111 O 0.02022 0.24623 0.95158 0.0
C112 C 0.45059 0.04833 0.31367 0.0
O113 O 0.45654 0.04004 0.29931 0.0
Cd114 Cd 0.44059 0.03225 0.26894 0.0
O115 O 0.43584 0.05336 0.31233 0.0
Cd116 Cd 0.41221 0.05317 0.28843 0.0
C117 C 0.40093 0.00557 0.27854 0.0
O118 O 0.43123 0.06021 0.26459 0.0
O119 O 0.40368 0.04899 0.25441 0.0
O120 O 0.41128 0.08548 0.3023 0.0
C121 C 0.41936 0.05608 0.25098 0.0
O122 O 0.41496 0.00632 0.26992 0.0
C123 C 0.39491 0.08164 0.30506 0.0
O124 O 0.39733 0.02058 0.28768 0.0
O125 O 0.3866 0.0644 0.30025 0.0
C126 C 0.31831 0.15581 0.5171 0.0
O127 O 0.30564 0.14671 0.52455 0.0
Cd128 Cd 0.27644 0.15215 0.52608 0.0
O129 O 0.316 0.16921 0.50899 0.0
Cd130 Cd 0.29065 0.18464 0.50209 0.0
C131 C 0.28752 0.1995 0.54886 0.0
O132 O 0.2676 0.15562 0.49568 0.0
O133 O 0.2578 0.18114 0.49875 0.0
O134 O 0.29908 0.18186 0.47012 0.0
C135 C 0.25435 0.16316 0.49501 0.0
O136 O 0.2808 0.182 0.54817 0.0
C137 C 0.29946 0.19882 0.46861 0.0
O138 O 0.2933 0.20518 0.53429 0.0
O139 O 0.29653 0.20988 0.48314 0.0
C140 C 0.14107 0.01396 0.80398 0.0
O141 O 0.13292 0.02221 0.79365 0.0
Cd142 Cd 0.14062 0.02862 0.76321 0.0
O143 O 0.15425 0.00706 0.79753 0.0
Cd144 Cd 0.17049 0.00377 0.76415 0.0
C145 C 0.1844 0.05472 0.76874 0.0
O146 O 0.14257 1.00104 0.74063 0.0
O147 O 0.16739 0.00674 0.729 0.0
O148 O 0.17333 0.9681 0.76239 0.0
C149 C 0.15053 0.00414 0.72625 0.0
O150 O 0.16773 0.05366 0.76591 0.0
C151 C 0.19025 0.97032 0.76389 0.0
O152 O 0.18988 0.03954 0.7701 0.0
O153 O 0.19836 0.9876 0.76528 0.0
C154 C 0.34438 0.9614 0.02358 0.0
O155 O 0.3385 0.9703 0.01218 0.0
Cd156 Cd 0.30844 0.9608 0.99775 0.0
O157 O 0.33423 0.94732 0.02821 0.0
Cd158 Cd 0.3034 0.92902 0.02298 0.0
C159 C 0.30947 0.91544 0.97722 0.0
O160 O 0.2911 0.95644 0.02361 0.0
O161 O 0.27167 0.92979 0.01796 0.0
O162 O 0.3096 0.9268 0.05523 0.0
C163 C 0.27489 0.94775 0.0206 0.0
O164 O 0.30842 0.93189 0.97483 0.0
C165 C 0.30376 0.90895 0.05241 0.0
O166 O 0.30862 0.91126 0.99332 0.0
O167 O 0.29688 0.90062 0.03602 0.0
C168 C 0.33762 0.4251 0.03022 0.0
O169 O 0.32812 0.43278 0.02067 0.0
Cd170 Cd 0.29703 0.42141 0.01224 0.0
O171 O 0.33054 0.41044 0.0365 0.0
Cd172 Cd 0.29966 0.3903 0.03619 0.0
C173 C 0.29735 0.37621 0.98894 0.0
O174 O 0.28491 0.41668 0.04082 0.0
O175 O 0.26702 0.38944 0.03197 0.0
O176 O 0.30847 0.38973 0.06873 0.0
C177 C 0.269 0.40716 0.03773 0.0
O178 O 0.2944 0.39252 0.98853 0.0
C179 C 0.30201 0.37219 0.06773 0.0
O180 O 0.30086 0.37166 0.00453 0.0
O181 O 0.29465 0.36276 0.05185 0.0
C182 C 0.81106 0.11945 0.02345 0.0
O183 O 0.79743 0.11147 0.03046 0.0
Cd184 Cd 0.76848 0.11835 0.02904 0.0
O185 O 0.81047 0.133 0.01496 0.0
Cd186 Cd 0.78866 0.15126 0.00711 0.0
C187 C 0.77943 0.16497 0.052 0.0
O188 O 0.76454 0.12376 0.99825 0.0
O189 O 0.7571 0.15022 0.99822 0.0
O190 O 0.80172 0.15494 0.97788 0.0
C191 C 0.75232 0.13231 0.99564 0.0
O192 O 0.77081 0.14801 0.05124 0.0
C193 C 0.80367 0.17285 0.98096 0.0
O194 O 0.78814 0.16947 0.03852 0.0
O195 O 0.79924 0.18063 0.9965 0.0
C196 C 0.16421 0.54253 0.26625 0.0
O197 O 0.15811 0.54962 0.25341 0.0
Cd198 Cd 0.1665 0.54605 0.2224 0.0
O199 O 0.17605 0.53282 0.26321 0.0
Cd200 Cd 0.19317 0.52352 0.23617 0.0
C201 C 0.20958 0.5697 0.23499 0.0
O202 O 0.16687 0.51311 0.21482 0.0
O203 O 0.19109 0.51565 0.20122 0.0
O204 O 0.19394 0.49489 0.24799 0.0
C205 C 0.17428 0.50985 0.19993 0.0
O206 O 0.19487 0.56917 0.22593 0.0
C207 C 0.21022 0.4953 0.24566 0.0
O208 O 0.21205 0.55537 0.24131 0.0
O209 O 0.2187 0.50909 0.23917 0.0
C210 C 0.83753 0.92449 0.52828 0.0
O211 O 0.82804 0.9318 0.5183 0.0
Cd212 Cd 0.79692 0.92072 0.50951 0.0
O213 O 0.83051 0.90992 0.53474 0.0
Cd214 Cd 0.79974 0.88935 0.53371 0.0
C215 C 0.79674 0.87551 0.48629 0.0
O216 O 0.78479 0.91544 0.53786 0.0
O217 O 0.76696 0.88806 0.5303 0.0
O218 O 0.80662 0.8877 0.56633 0.0
C219 C 0.7689 0.90588 0.53515 0.0
O220 O 0.79384 0.89183 0.48579 0.0
C221 C 0.80164 0.8698 0.56409 0.0
O222 O 0.80047 0.87109 0.50188 0.0
O223 O 0.79606 0.86079 0.54754 0.0
C224 C 0.95599 0.06085 0.3107 0.0
O225 O 0.96276 0.05083 0.29819 0.0
Cd226 Cd 0.95469 0.04379 0.26481 0.0
O227 O 0.94395 0.06935 0.3054 0.0
Cd228 Cd 0.92678 0.07049 0.27063 0.0
C229 C 0.91133 0.01939 0.26462 0.0
O230 O 0.95412 0.07088 0.25056 0.0
O231 O 0.92903 0.06441 0.23449 0.0
O232 O 0.9233 0.1063 0.27867 0.0
C233 C 0.94586 0.06741 0.23428 0.0
O234 O 0.92734 0.01924 0.2612 0.0
C235 C 0.90675 0.10385 0.27351 0.0
O236 O 0.90689 0.03551 0.26912 0.0
O237 O 0.89916 0.08641 0.26769 0.0
C238 C 0.31372 0.6157 0.52231 0.0
O239 O 0.30072 0.60798 0.53036 0.0
Cd240 Cd 0.27159 0.61475 0.53055 0.0
O241 O 0.31254 0.62921 0.51398 0.0
Cd242 Cd 0.29015 0.64774 0.50888 0.0
C243 C 0.28213 0.66081 0.55415 0.0
O244 O 0.26523 0.62046 0.50021 0.0
O245 O 0.25879 0.64768 0.50207 0.0
O246 O 0.30221 0.65359 0.47955 0.0
C247 C 0.25338 0.62983 0.49891 0.0
O248 O 0.27339 0.64388 0.55317 0.0
C249 C 0.30266 0.67125 0.48346 0.0
O250 O 0.29096 0.66541 0.54079 0.0
O251 O 0.29823 0.67782 0.49942 0.0
C252 C 0.45765 0.56203 0.81113 0.0
O253 O 0.466 0.55409 0.79865 0.0
Cd254 Cd 0.4546 0.54497 0.76631 0.0
O255 O 0.44376 0.56785 0.80569 0.0
Cd256 Cd 0.42681 0.56859 0.77064 0.0
C257 C 0.41197 0.51846 0.76691 0.0
O258 O 0.45382 0.57091 0.75022 0.0
O259 O 0.42889 0.55801 0.73458 0.0
O260 O 0.42362 0.60446 0.77692 0.0
C261 C 0.44548 0.56444 0.73406 0.0
O262 O 0.42825 0.51881 0.76434 0.0
C263 C 0.40693 0.60201 0.77259 0.0
O264 O 0.40687 0.53427 0.76997 0.0
O265 O 0.39909 0.58452 0.76787 0.0
C266 C 0.6565 0.02522 0.76315 0.0
O267 O 0.64668 0.02808 0.74996 0.0
Cd268 Cd 0.65565 0.03107 0.71985 0.0
O269 O 0.67217 0.02274 0.76065 0.0
Cd270 Cd 0.69173 0.02029 0.73464 0.0
C271 C 0.6934 0.06663 0.73426 0.0
O272 O 0.66812 0.00409 0.71126 0.0
O273 O 0.69227 0.01528 0.69989 0.0
O274 O 0.7003 0.99364 0.74487 0.0
C275 C 0.67635 0.00555 0.69692 0.0
O276 O 0.67774 0.06148 0.72582 0.0
C277 C 0.71697 1.00047 0.74617 0.0
O278 O 0.7011 0.0546 0.73968 0.0
O279 O 0.72202 0.01663 0.74193 0.0
C280 C 0.81771 0.65692 0.01856 0.0
O281 O 0.80513 0.64917 0.02707 0.0
Cd282 Cd 0.77538 0.65356 0.02657 0.0
O283 O 0.81536 0.66907 0.00876 0.0
Cd284 Cd 0.78969 0.68407 0.00174 0.0
C285 C 0.78426 0.70072 0.04757 0.0
O286 O 0.76691 0.65452 0.99514 0.0
O287 O 0.7569 0.67993 0.99794 0.0
O288 O 0.79838 0.68336 0.96985 0.0
C289 C 0.75364 0.66197 0.9939 0.0
O290 O 0.77668 0.68358 0.04752 0.0
C291 C 0.79782 0.70035 0.96929 0.0
O292 O 0.79183 0.70517 0.03334 0.0
O293 O 0.79436 0.71031 0.98425 0.0
C294 C 0.94354 0.54938 0.82115 0.0
O295 O 0.94981 0.54075 0.80722 0.0
Cd296 Cd 0.9369 0.53406 0.77586 0.0
O297 O 0.92898 0.55474 0.81918 0.0
Cd298 Cd 0.90622 0.55316 0.79324 0.0
C299 C 0.89674 0.50547 0.78115 0.0
O300 O 0.92796 0.56243 0.77257 0.0
O301 O 0.90164 0.55135 0.75879 0.0
O302 O 0.90236 0.5838 0.80987 0.0
C303 C 0.91779 0.55899 0.75766 0.0
O304 O 0.91149 0.5074 0.7738 0.0
C305 C 0.88547 0.5795 0.80716 0.0
O306 O 0.89208 0.51977 0.7905 0.0
O307 O 0.8783 0.56276 0.7985 0.0
C308 C 0.83711 0.45643 0.52319 0.0
O309 O 0.82757 0.46455 0.51418 0.0
Cd310 Cd 0.79624 0.45351 0.50795 0.0
O311 O 0.83 0.44237 0.53029 0.0
Cd312 Cd 0.80016 0.42318 0.53347 0.0
C313 C 0.79755 0.40815 0.48658 0.0
O314 O 0.78685 0.44971 0.53794 0.0
O315 O 0.76762 0.42305 0.53171 0.0
O316 O 0.80976 0.4238 0.56584 0.0
C317 C 0.77076 0.44099 0.5367 0.0
O318 O 0.79426 0.42408 0.48506 0.0
C319 C 0.80554 0.40596 0.56461 0.0
O320 O 0.80072 0.40442 0.50258 0.0
O321 O 0.79871 0.39596 0.54878 0.0
C322 C 0.64051 0.51603 0.30277 0.0
O323 O 0.63298 0.52459 0.29224 0.0
Cd324 Cd 0.64083 0.53043 0.26183 0.0
O325 O 0.65351 0.50859 0.29662 0.0
Cd326 Cd 0.67037 0.50511 0.26359 0.0
C327 C 0.68473 0.55611 0.26829 0.0
O328 O 0.64264 0.50231 0.24004 0.0
O329 O 0.66736 0.50743 0.22818 0.0
O330 O 0.67326 0.46954 0.26255 0.0
C331 C 0.65052 0.50499 0.22552 0.0
O332 O 0.66812 0.55518 0.26521 0.0
C333 C 0.69018 0.47179 0.2637 0.0
O334 O 0.69003 0.5408 0.26957 0.0
O335 O 0.69822 0.48902 0.26463 0.0
Tb336 Tb 0.0268 0.02174 0.00952 0.0
C337 C 0.07286 0.09489 0.0568 0.0
C338 C 0.07787 0.11703 0.03596 0.0
C339 C 0.07791 0.12875 0.06934 0.0
C340 C 0.07404 0.09826 0.03896 0.0
C341 C 0.07524 0.11008 0.0723 0.0
C342 C 0.07926 0.13223 0.05117 0.0
C343 C 0.07438 0.08746 0.0925 0.0
N344 N 0.07073 0.07673 0.05904 0.0
C345 C 0.07233 0.07293 0.07667 0.0
C346 C 0.07558 0.1061 0.09031 0.0
Tb347 Tb 0.06665 0.05361 0.03229 0.0
N348 N 0.07277 0.08318 0.02473 0.0
C349 C 0.07686 0.08616 0.00731 0.0
C350 C 0.08096 0.11999 0.01792 0.0
C351 C 0.08081 0.10448 0.00363 0.0
H352 H 0.07136 0.05856 0.07857 0.0
H353 H 0.08372 0.10658 0.98973 0.0
H354 H 0.08196 0.14673 0.04911 0.0
H355 H 0.07508 0.08426 0.10637 0.0
H356 H 0.07675 0.07451 0.99592 0.0
H357 H 0.01677 0.96335 0.04634 0.0
H358 H 0.08402 0.13418 0.01503 0.0
H359 H 0.01385 0.01983 0.96479 0.0
H360 H 0.01978 0.9965 0.04314 0.0
H361 H 0.00847 0.99647 0.93517 0.0
H362 H 0.07958 0.14062 0.08104 0.0
H363 H 0.01775 0.9386 0.01867 0.0
H364 H 0.01792 0.9296 0.98372 0.0
H365 H 0.07734 0.11737 0.10259 0.0
H366 H 0.01554 0.93872 0.95304 0.0
N367 N 0.02348 0.99108 0.01403 0.0
C368 C 0.02033 0.98598 0.03089 0.0
C369 C 0.0192 0.95321 0.01718 0.0
C370 C 0.02062 0.95817 0.99964 0.0
C371 C 0.01855 0.96711 0.0328 0.0
C372 C 0.02246 0.97741 0.99852 0.0
H373 H 0.01134 0.96356 0.93478 0.0
N374 N 0.02079 1.00078 0.98121 0.0
C375 C 0.01223 0.99238 0.94805 0.0
C376 C 0.02103 0.98246 0.98139 0.0
C377 C 0.01542 0.00566 0.96495 0.0
C378 C 0.01393 0.97384 0.94787 0.0
C379 C 0.01787 0.96853 0.96476 0.0
O380 O 0.00484 0.03287 0.00261 0.0
O381 O 0.04108 0.05126 0.01792 0.0
O382 O 0.04496 0.05858 0.05054 0.0
O383 O 0.02489 0.0296 0.0406 0.0
O384 O 0.02759 0.04281 0.99184 0.0
O385 O 0.00179 0.01067 0.01821 0.0
O386 O 0.08831 0.04797 0.04717 0.0
O387 O 0.05272 0.024 0.0238 0.0
O388 O 0.04647 0.0181 0.98853 0.0
O389 O 0.07002 0.04363 0.00177 0.0
O390 O 0.06555 0.03288 0.05024 0.0
O391 O 0.09149 0.05786 0.02123 0.0
C392 C 0.03734 0.05718 0.00321 0.0
C393 C 0.9767 0.01242 0.99927 0.0
C394 C 0.9461 0.01424 0.99169 0.0
C395 C 0.96273 0.02169 0.00202 0.0
C396 C 0.94368 0.99739 0.97818 0.0
C397 C 0.97412 0.99542 0.98603 0.0
C398 C 0.95765 0.98801 0.97545 0.0
C399 C 0.03099 0.04555 0.05337 0.0
C400 C 0.99379 0.02135 0.01021 0.0
C401 C 0.01766 0.94959 0.96568 0.0
C402 C 0.01903 0.94441 0.98314 0.0
C403 C 0.05664 0.01827 0.03858 0.0
C404 C 0.117 0.06398 0.0427 0.0
C405 C 0.13074 0.05432 0.04265 0.0
C406 C 0.14808 0.0638 0.05014 0.0
C407 C 0.1516 0.08342 0.05743 0.0
C408 C 0.12049 0.08349 0.05013 0.0
C409 C 0.13782 0.09317 0.05743 0.0
C410 C 0.06221 0.02951 0.98751 0.0
C411 C 0.09928 0.05284 0.03509 0.0
H412 H 0.96492 0.03496 0.01214 0.0
H413 H 0.93096 0.99136 0.97 0.0
H414 H 0.98473 0.98793 0.98385 0.0
H415 H 0.95569 0.97495 0.96516 0.0
H416 H 0.12787 0.03928 0.03654 0.0
H417 H 0.16488 0.09111 0.06329 0.0
H418 H 0.10994 0.09114 0.05029 0.0
H419 H 0.14056 0.10825 0.06317 0.0
Tb420 Tb 0.30243 0.77742 0.25484 0.0
C421 C 0.28725 0.84538 0.31057 0.0
C422 C 0.31523 0.86005 0.32914 0.0
C423 C 0.29249 0.87813 0.32755 0.0
C424 C 0.30381 0.84403 0.31745 0.0
C425 C 0.28144 0.86249 0.31545 0.0
C426 C 0.30932 0.87687 0.33447 0.0
C427 C 0.25381 0.84737 0.29668 0.0
N428 N 0.27689 0.83003 0.29889 0.0
C429 C 0.25999 0.8307 0.29253 0.0
C430 C 0.2646 0.86339 0.30816 0.0
Tb431 Tb 0.2865 0.80208 0.29533 0.0
N432 N 0.30916 0.82757 0.31167 0.0
C433 C 0.32696 0.82775 0.31526 0.0
C434 C 0.33254 0.85904 0.33454 0.0
C435 C 0.33858 0.84304 0.32707 0.0
H436 H 0.25094 0.81825 0.28441 0.0
H437 H 0.35239 0.84264 0.32997 0.0
H438 H 0.31789 0.88918 0.34352 0.0
H439 H 0.24056 0.84771 0.29131 0.0
H440 H 0.33308 0.81686 0.30845 0.0
H441 H 0.25425 0.71129 0.2301 0.0
H442 H 0.34167 0.87099 0.34349 0.0
H443 H 0.34732 0.787 0.25681 0.0
H444 H 0.26406 0.74565 0.24098 0.0
H445 H 0.37078 0.76919 0.25434 0.0
H446 H 0.2882 0.8913 0.33153 0.0
H447 H 0.27602 0.69097 0.2291 0.0
H448 H 0.30775 0.68832 0.23414 0.0
H449 H 0.25971 0.87626 0.31154 0.0
H450 H 0.33944 0.70408 0.24137 0.0
N451 N 0.2914 0.74526 0.24693 0.0
C452 C 0.27386 0.73717 0.24093 0.0
C453 C 0.28047 0.70613 0.23419 0.0
C454 C 0.29845 0.71445 0.2398 0.0
C455 C 0.26816 0.71756 0.23463 0.0
C456 C 0.3036 0.73432 0.24595 0.0
H457 H 0.36305 0.73419 0.24863 0.0
N458 N 0.3259 0.76249 0.2539 0.0
C459 C 0.35696 0.7617 0.2532 0.0
C460 C 0.32144 0.74321 0.24972 0.0
C461 C 0.34345 0.77179 0.25471 0.0
C462 C 0.35255 0.74195 0.25001 0.0
C463 C 0.33462 0.73244 0.24778 0.0
O464 O 0.30917 0.79445 0.23479 0.0
O465 O 0.30028 0.80433 0.27126 0.0
O466 O 0.27485 0.80707 0.26872 0.0
O467 O 0.27434 0.77871 0.24923 0.0
O468 O 0.32433 0.80286 0.26132 0.0
O469 O 0.29668 0.76515 0.22613 0.0
O470 O 0.25897 0.79088 0.29559 0.0
O471 O 0.2835 0.77538 0.27549 0.0
O472 O 0.31874 0.77415 0.27945 0.0
O473 O 0.30953 0.79207 0.30616 0.0
O474 O 0.28476 0.77495 0.30386 0.0
O475 O 0.27523 0.80657 0.32087 0.0
C476 C 0.31578 0.81383 0.27105 0.0
C477 C 0.31678 0.77873 0.2065 0.0
C478 C 0.32935 0.78946 0.17943 0.0
C479 C 0.31733 0.79019 0.1932 0.0
C480 C 0.34117 0.77731 0.1793 0.0
C481 C 0.32836 0.7663 0.20603 0.0
C482 C 0.34059 0.76572 0.19254 0.0
C483 C 0.26797 0.79412 0.25354 0.0
C484 C 0.30414 0.78046 0.22073 0.0
C485 C 0.32951 0.71258 0.2428 0.0
C486 C 0.31146 0.70361 0.23869 0.0
C487 C 0.28238 0.76462 0.2873 0.0
C488 C 0.25047 0.78255 0.32407 0.0
C489 C 0.26024 0.77375 0.33508 0.0
C490 C 0.25162 0.76086 0.34554 0.0
C491 C 0.23285 0.75698 0.34477 0.0
C492 C 0.23184 0.77828 0.32331 0.0
C493 C 0.22309 0.76556 0.33363 0.0
C494 C 0.32023 0.78147 0.29781 0.0
C495 C 0.25951 0.79652 0.31365 0.0
H496 H 0.30843 0.79986 0.19369 0.0
H497 H 0.35057 0.77654 0.1688 0.0
H498 H 0.32798 0.75707 0.21598 0.0
H499 H 0.34956 0.75619 0.19227 0.0
H500 H 0.27459 0.777 0.33542 0.0
H501 H 0.22562 0.74761 0.35298 0.0
H502 H 0.22409 0.78495 0.31488 0.0
H503 H 0.20869 0.76246 0.33315 0.0
Tb504 Tb 0.57135 0.04355 0.51413 0.0
C505 C 0.50878 1.00101 0.54942 0.0
C506 C 0.49423 0.97382 0.52565 0.0
C507 C 0.49304 0.9723 0.55856 0.0
C508 C 0.50465 0.9925 0.53082 0.0
C509 C 0.50278 0.99118 0.56356 0.0
C510 C 0.48876 0.96363 0.53962 0.0
C511 C 0.51517 0.01991 0.58634 0.0
N512 N 0.51797 0.01932 0.55361 0.0
C513 C 0.52069 0.02909 0.57179 0.0
C514 C 0.50633 1.00081 0.58223 0.0
Tb515 Tb 0.52681 0.03304 0.52887 0.0
N516 N 0.51008 1.00289 0.5178 0.0
C517 C 0.50446 0.99578 0.49927 0.0
C518 C 0.48921 0.96618 0.50665 0.0
C519 C 0.49418 0.97729 0.49342 0.0
H520 H 0.52756 0.04384 0.57514 0.0
H521 H 0.49013 0.97163 0.4787 0.0
H522 H 0.48088 0.94921 0.53593 0.0
H523 H 0.51771 0.02759 0.60072 0.0
H524 H 0.50818 0.0041 0.4888 0.0
H525 H 0.60515 0.10805 0.56214 0.0
H526 H 0.48116 0.95191 0.50211 0.0
H527 H 0.57636 0.02911 0.46924 0.0
H528 H 0.58795 0.07518 0.55331 0.0
H529 H 0.58856 0.04304 0.44324 0.0
H530 H 0.4884 0.96444 0.56921 0.0
H531 H 0.61525 0.12594 0.53766 0.0
H532 H 0.61711 0.1264 0.5035 0.0
H533 H 0.50197 0.99377 0.59352 0.0
H534 H 0.61246 0.10864 0.47088 0.0
N535 N 0.58721 0.07438 0.5239 0.0
C536 C 0.59197 0.08271 0.54235 0.0
C537 C 0.6073 0.11158 0.53367 0.0
C538 C 0.60323 0.10274 0.51483 0.0
C539 C 0.60178 0.10146 0.5475 0.0
C540 C 0.59321 0.08385 0.51039 0.0
H541 H 0.60222 0.07735 0.44831 0.0
N542 N 0.58241 0.05535 0.48903 0.0
C543 C 0.58914 0.05195 0.45693 0.0
C544 C 0.59069 0.07395 0.49222 0.0
C545 C 0.58219 0.04411 0.4718 0.0
C546 C 0.59676 0.07133 0.45982 0.0
C547 C 0.59797 0.08253 0.47774 0.0
O548 O 0.58669 0.02369 0.50482 0.0
O549 O 0.54821 0.022 0.51675 0.0
O550 O 0.54435 0.02219 0.54657 0.0
O551 O 0.57059 0.04342 0.54413 0.0
O552 O 0.56144 0.01683 0.49374 0.0
O553 O 0.59411 0.04328 0.53114 0.0
O554 O 0.51108 0.0511 0.54155 0.0
O555 O 0.54948 0.05474 0.5255 0.0
O556 O 0.55471 0.05275 0.49425 0.0
O557 O 0.52663 0.03554 0.49918 0.0
O558 O 0.53682 0.05978 0.54908 0.0
O559 O 0.50369 0.03483 0.51344 0.0
C560 C 0.54824 0.00974 0.50216 0.0
C561 C 0.6172 0.03295 0.51525 0.0
C562 C 0.64503 0.02207 0.51452 0.0
C563 C 0.62704 0.01959 0.51831 0.0
C564 C 0.65293 0.03815 0.50753 0.0
C565 C 0.62536 0.04892 0.50842 0.0
C566 C 0.64314 0.05146 0.50455 0.0
C567 C 0.56106 0.03085 0.55258 0.0
C568 C 0.59845 0.02989 0.51923 0.0
C569 C 0.60694 0.10171 0.48183 0.0
C570 C 0.60959 0.11182 0.50039 0.0
C571 C 0.54932 0.06719 0.53994 0.0
C572 C 0.48054 0.04324 0.5307 0.0
C573 C 0.47029 0.05583 0.52645 0.0
C574 C 0.45223 0.05317 0.52999 0.0
C575 C 0.44462 0.03754 0.5378 0.0
C576 C 0.47272 0.02775 0.5384 0.0
C577 C 0.45481 0.02493 0.5419 0.0
C578 C 0.53737 0.04605 0.48953 0.0
C579 C 0.49937 0.04673 0.52701 0.0
H580 H 0.62073 0.00741 0.52387 0.0
H581 H 0.66664 0.04035 0.50414 0.0
H582 H 0.61803 0.05939 0.5061 0.0
H583 H 0.64936 0.06377 0.49918 0.0
H584 H 0.47639 0.06762 0.52023 0.0
H585 H 0.43087 0.03519 0.54102 0.0
H586 H 0.48042 0.01792 0.54174 0.0
H587 H 0.44883 0.013 0.54794 0.0
Tb588 Tb 0.2752 0.29273 0.7662 0.0
C589 C 0.33229 0.2604 0.80213 0.0
C590 C 0.34324 0.28315 0.83084 0.0
C591 C 0.34374 0.24998 0.82909 0.0
C592 C 0.33536 0.27865 0.81222 0.0
C593 C 0.33699 0.24591 0.81018 0.0
C594 C 0.34684 0.2686 0.83943 0.0
C595 C 0.33022 0.22528 0.77968 0.0
N596 N 0.32615 0.25725 0.78385 0.0
C597 C 0.32581 0.24017 0.77235 0.0
C598 C 0.33553 0.22806 0.79876 0.0
Tb599 Tb 0.31862 0.28222 0.77306 0.0
N600 N 0.33206 0.29227 0.8032 0.0
C601 C 0.33802 0.31099 0.81156 0.0
C602 C 0.34802 0.30219 0.83992 0.0
C603 C 0.34574 0.3162 0.83009 0.0
H604 H 0.32158 0.23781 0.75761 0.0
H605 H 0.34985 0.33102 0.83678 0.0
H606 H 0.35268 0.27172 0.8538 0.0
H607 H 0.32947 0.21167 0.77061 0.0
H608 H 0.33633 0.3221 0.80435 0.0
H609 H 0.24514 0.2444 0.70177 0.0
H610 H 0.35405 0.30626 0.85424 0.0
H611 H 0.27144 0.33678 0.78215 0.0
H612 H 0.25833 0.25305 0.73434 0.0
H613 H 0.26322 0.36293 0.76948 0.0
H614 H 0.34722 0.239 0.83563 0.0
H615 H 0.24062 0.26933 0.6847 0.0
H616 H 0.24144 0.30385 0.68561 0.0
H617 H 0.33903 0.21654 0.80439 0.0
H618 H 0.24629 0.33634 0.70418 0.0
N619 N 0.26205 0.2829 0.73594 0.0
C620 C 0.25648 0.26422 0.72729 0.0
C621 C 0.24649 0.27328 0.69908 0.0
C622 C 0.2509 0.29224 0.70843 0.0
C623 C 0.24895 0.25918 0.70869 0.0
C624 C 0.2586 0.29658 0.72711 0.0
H625 H 0.25395 0.35843 0.73568 0.0
N626 N 0.26741 0.31771 0.7557 0.0
C627 C 0.26276 0.34947 0.76026 0.0
C628 C 0.26138 0.31472 0.73741 0.0
C629 C 0.2674 0.33458 0.76739 0.0
C630 C 0.25761 0.34691 0.74116 0.0
C631 C 0.2565 0.32923 0.72954 0.0
O632 O 0.25877 0.30041 0.78724 0.0
O633 O 0.29584 0.28959 0.78582 0.0
O634 O 0.29914 0.25815 0.78003 0.0
O635 O 0.27281 0.26166 0.76521 0.0
O636 O 0.28402 0.31201 0.79307 0.0
O637 O 0.25006 0.27476 0.76671 0.0
O638 O 0.33571 0.27374 0.75307 0.0
O639 O 0.29805 0.2854 0.75346 0.0
O640 O 0.29459 0.31709 0.75953 0.0
O641 O 0.32109 0.31325 0.77382 0.0
O642 O 0.31004 0.26323 0.74595 0.0
O643 O 0.34312 0.30086 0.77172 0.0
C644 C 0.29559 0.30356 0.79871 0.0
C645 C 0.22779 0.28995 0.77926 0.0
C646 C 0.19937 0.29201 0.7923 0.0
C647 C 0.21619 0.28728 0.7934 0.0
C648 C 0.19435 0.29922 0.77677 0.0
C649 C 0.22232 0.29698 0.76389 0.0
C650 C 0.20571 0.30159 0.76268 0.0
C651 C 0.28216 0.25134 0.77317 0.0
C652 C 0.24572 0.28589 0.78091 0.0
C653 C 0.2499 0.32534 0.71059 0.0
C654 C 0.24713 0.30685 0.70002 0.0
C655 C 0.29849 0.27172 0.74033 0.0
C656 C 0.36647 0.28647 0.76132 0.0
C657 C 0.37874 0.29072 0.7482 0.0
C658 C 0.39643 0.28858 0.75086 0.0
C659 C 0.40144 0.28184 0.76672 0.0
C660 C 0.3719 0.27994 0.77704 0.0
C661 C 0.38926 0.27758 0.77966 0.0
C662 C 0.31169 0.32369 0.7661 0.0
C663 C 0.34813 0.28907 0.75856 0.0
H664 H 0.22036 0.28187 0.80534 0.0
H665 H 0.18148 0.30279 0.77539 0.0
H666 H 0.23087 0.29893 0.75282 0.0
H667 H 0.20162 0.30704 0.75076 0.0
H668 H 0.37461 0.29598 0.73615 0.0
H669 H 0.41477 0.27965 0.76905 0.0
H670 H 0.36276 0.27672 0.78732 0.0
H671 H 0.39331 0.27243 0.7918 0.0
Tb672 Tb 0.04572 0.05898 0.53499 0.0
C673 C 0.0685 0.00851 0.4698 0.0
C674 C 0.04339 1.00059 0.44629 0.0
C675 C 0.07331 1.00166 0.43681 0.0
C676 C 0.05048 0.00588 0.4652 0.0
C677 C 0.08012 0.00603 0.45571 0.0
C678 C 0.05495 0.99895 0.4321 0.0
C679 C 0.104 0.01076 0.48005 0.0
N680 N 0.07449 0.01255 0.4882 0.0
C681 C 0.09192 0.01303 0.4935 0.0
C682 C 0.09813 0.00748 0.46106 0.0
Tb683 Tb 0.05376 0.01646 0.50922 0.0
N684 N 0.03978 0.00738 0.47933 0.0
C685 C 0.02165 1.00228 0.47543 0.0
C686 C 0.02489 0.99646 0.44224 0.0
C687 C 0.01397 0.99705 0.4569 0.0
H688 H 0.09668 0.01568 0.50812 0.0
H689 H 0.99962 0.99352 0.45395 0.0
H690 H 0.04979 0.9951 0.41748 0.0
H691 H 0.11784 0.01158 0.48434 0.0
H692 H 0.01291 1.00268 0.4865 0.0
H693 H 0.09715 0.07888 0.59305 0.0
H694 H 0.01891 0.99228 0.42791 0.0
H695 H 0.00434 0.06582 0.53373 0.0
H696 H 0.08546 0.07056 0.55999 0.0
H697 H 0.98265 0.07263 0.556 0.0
H698 H 0.08203 0.99986 0.42575 0.0
H699 H 0.07659 0.08148 0.61784 0.0
H700 H 0.04539 0.08119 0.62643 0.0
H701 H 0.1075 0.00566 0.45067 0.0
H702 H 0.01405 0.07962 0.6163 0.0
N703 N 0.05817 0.06731 0.56557 0.0
C704 C 0.07616 0.07142 0.57048 0.0
C705 C 0.0713 0.07755 0.60327 0.0
C706 C 0.05306 0.07471 0.5982 0.0
C707 C 0.08294 0.07621 0.58932 0.0
C708 C 0.04689 0.06974 0.579 0.0
H709 H 0.99062 0.07693 0.59003 0.0
N710 N 0.02457 0.06556 0.55473 0.0
C711 C 0.99572 0.07146 0.56109 0.0
C712 C 0.02942 0.06891 0.57337 0.0
C713 C 0.00815 0.06753 0.54847 0.0
C714 C 1.00025 0.07382 0.58028 0.0
C715 C 0.0174 0.07293 0.58667 0.0
O716 O 0.03796 0.08062 0.52357 0.0
O717 O 0.0445 0.04183 0.50675 0.0
O718 O 0.07199 0.0397 0.50065 0.0
O719 O 0.07345 0.06182 0.52794 0.0
O720 O 0.02369 0.05382 0.51274 0.0
O721 O 0.0633 0.08582 0.53956 0.0
O722 O 0.0644 0.99466 0.51696 0.0
O723 O 0.05476 0.03321 0.53761 0.0
O724 O 0.02566 0.03688 0.54299 0.0
O725 O 0.0265 0.01233 0.518 0.0
O726 O 0.07566 0.02124 0.53138 0.0
O727 O 0.03684 0.98943 0.50618 0.0
C728 C 0.02976 0.0438 0.49932 0.0
C729 C 0.05022 0.11204 0.53898 0.0
C730 C 0.04962 0.1441 0.53501 0.0
C731 C 0.05166 0.12568 0.52776 0.0
C732 C 0.04617 0.14868 0.55385 0.0
C733 C 0.0467 0.11674 0.55771 0.0
C734 C 0.04469 0.13503 0.56509 0.0
C735 C 0.07995 0.05566 0.51215 0.0
C736 C 0.05242 0.09308 0.53053 0.0
C737 C 0.02312 0.07671 0.60585 0.0
C738 C 0.04095 0.07759 0.61161 0.0
C739 C 0.06941 0.03083 0.54498 0.0
C740 C 0.05046 0.96327 0.50225 0.0
C741 C 0.04342 0.94771 0.51016 0.0
C742 C 0.04534 0.92949 0.50214 0.0
C743 C 0.05418 0.9269 0.48583 0.0
C744 C 0.05905 0.96056 0.4858 0.0
C745 C 0.06081 0.94237 0.4776 0.0
C746 C 0.01903 0.01977 0.5327 0.0
C747 C 0.04943 0.98214 0.51225 0.0
H748 H 0.05465 0.12197 0.51336 0.0
H749 H 0.04443 0.16271 0.55983 0.0
H750 H 0.04556 0.10636 0.56658 0.0
H751 H 0.04196 0.13865 0.57955 0.0
H752 H 0.03699 0.94988 0.52303 0.0
H753 H 0.05592 0.91295 0.4795 0.0
H754 H 0.06459 0.97243 0.47951 0.0
H755 H 0.06757 0.94031 0.46499 0.0
Tb756 Tb 0.31776 0.80216 0.76463 0.0
C757 C 0.2741 0.74316 0.80245 0.0
C758 C 0.28285 0.71425 0.78916 0.0
C759 C 0.27275 0.71822 0.82034 0.0
C760 C 0.28067 0.73258 0.78804 0.0
C761 C 0.26952 0.73592 0.81856 0.0
C762 C 0.27942 0.70738 0.80564 0.0
C763 C 0.2567 0.7629 0.82861 0.0
N764 N 0.27082 0.75996 0.79994 0.0
C765 C 0.26135 0.76936 0.81227 0.0
C766 C 0.2611 0.74628 0.83195 0.0
Tb767 Tb 0.27957 0.77 0.77319 0.0
N768 N 0.28346 0.73964 0.77229 0.0
C769 C 0.28688 0.72819 0.75646 0.0
C770 C 0.28762 0.70307 0.7734 0.0
C771 C 0.28928 0.70994 0.75686 0.0
H772 H 0.25774 0.78215 0.80985 0.0
H773 H 0.29251 0.70124 0.74442 0.0
H774 H 0.28124 0.69344 0.80687 0.0
H775 H 0.24967 0.77073 0.83859 0.0
H776 H 0.28831 0.73314 0.7435 0.0
H777 H 0.30664 0.87144 0.79388 0.0
H778 H 0.28946 0.68892 0.77368 0.0
H779 H 0.33614 0.7876 0.72588 0.0
H780 H 0.30959 0.839 0.79441 0.0
H781 H 0.34436 0.7991 0.69726 0.0
H782 H 0.26953 0.71248 0.83271 0.0
H783 H 0.31054 0.88407 0.76488 0.0
H784 H 0.31817 0.87932 0.73152 0.0
H785 H 0.25734 0.74122 0.84453 0.0
H786 H 0.32864 0.85964 0.70519 0.0
N787 N 0.31431 0.83257 0.7656 0.0
C788 C 0.31121 0.84409 0.78153 0.0
C789 C 0.3116 0.86964 0.76491 0.0
C790 C 0.3158 0.85824 0.74898 0.0
C791 C 0.30952 0.86261 0.78133 0.0
C792 C 0.31725 0.83962 0.74986 0.0
H793 H 0.33888 0.82989 0.69247 0.0
N794 N 0.3257 0.81148 0.73732 0.0
C795 C 0.33837 0.80755 0.70779 0.0
C796 C 0.32329 0.82872 0.7352 0.0
C797 C 0.33368 0.80109 0.72412 0.0
C798 C 0.3352 0.8249 0.7051 0.0
C799 C 0.32781 0.83587 0.71902 0.0
O800 O 0.3449 0.80147 0.76438 0.0
O801 O 0.30844 0.77431 0.7721 0.0
O802 O 0.29498 0.7797 0.80028 0.0
O803 O 0.31307 0.80727 0.79439 0.0
O804 O 0.32694 0.77611 0.75351 0.0
O805 O 0.33583 0.82067 0.78591 0.0
O806 O 0.2529 0.77235 0.77104 0.0
O807 O 0.28908 0.79797 0.76611 0.0
O808 O 0.30063 0.79376 0.73836 0.0
O809 O 0.28568 0.76495 0.74394 0.0
O810 O 0.27042 0.79615 0.78444 0.0
O811 O 0.26148 0.75017 0.75274 0.0
C812 C 0.31818 0.7645 0.76268 0.0
C813 C 0.36531 0.8299 0.77822 0.0
C814 C 0.39733 0.84167 0.78558 0.0
C815 C 0.38168 0.82793 0.78571 0.0
C816 C 0.39634 0.85763 0.77791 0.0
C817 C 0.36444 0.84583 0.77056 0.0
C818 C 0.37994 0.85964 0.77041 0.0
C819 C 0.30636 0.79619 0.80584 0.0
C820 C 0.34952 0.81512 0.77903 0.0
C821 C 0.3254 0.85395 0.71757 0.0
C822 C 0.31941 0.86514 0.73255 0.0
C823 C 0.27948 0.80791 0.77558 0.0
C824 C 0.23129 0.74448 0.75894 0.0
C825 C 0.21691 0.7442 0.74646 0.0
C826 C 0.19954 0.73488 0.7488 0.0
C827 C 0.19712 0.72428 0.76307 0.0
C828 C 0.22879 0.73393 0.77309 0.0
C829 C 0.21175 0.7236 0.77492 0.0
C830 C 0.29024 0.77672 0.73249 0.0
C831 C 0.24812 0.7575 0.75764 0.0
H832 H 0.38215 0.81574 0.79196 0.0
H833 H 0.40821 0.86841 0.77752 0.0
H834 H 0.35189 0.84769 0.76485 0.0
H835 H 0.37924 0.87193 0.76448 0.0
H836 H 0.21932 0.75199 0.73526 0.0
H837 H 0.18396 0.71705 0.76552 0.0
H838 H 0.23983 0.73391 0.78282 0.0
H839 H 0.20977 0.71558 0.78595 0.0
Tb840 Tb 0.54871 0.03102 0.03884 0.0
C841 C 0.512 0.06526 0.98536 0.0
C842 C 0.49251 0.03708 0.96674 0.0
C843 C 0.48334 0.06711 0.97122 0.0
C844 C 0.50861 0.0462 0.97778 0.0
C845 C 0.49973 0.07615 0.98162 0.0
C846 C 0.4797 0.04756 0.96385 0.0
C847 C 0.52166 0.10422 0.99664 0.0
N848 N 0.52799 0.07338 0.99522 0.0
C849 C 0.53338 0.09277 0.99989 0.0
C850 C 0.50461 0.09585 0.98778 0.0
Tb851 Tb 0.54623 0.05347 1.00045 0.0
N852 N 0.52152 0.03678 0.98053 0.0
C853 C 0.51936 0.01814 0.97209 0.0
C854 C 0.48997 0.01783 0.95863 0.0
C855 C 0.50353 0.00837 0.96119 0.0
H856 H 0.54657 0.09933 0.00677 0.0
H857 H 0.50181 0.99354 0.95479 0.0
H858 H 0.46718 0.04081 0.95553 0.0
H859 H 0.5258 0.11949 1.00094 0.0
H860 H 0.52963 0.01058 0.97398 0.0
H861 H 0.5686 0.08827 0.10069 0.0
H862 H 0.47776 0.01027 0.9501 0.0
H863 H 0.56946 0.99424 0.02948 0.0
H864 H 0.54728 0.06328 0.07932 0.0
H865 H 0.60006 0.99015 0.03021 0.0
H866 H 0.47363 0.07518 0.96838 0.0
H867 H 0.60095 0.09054 0.0995 0.0
H868 H 0.62543 0.07567 0.08677 0.0
H869 H 0.49558 0.10474 0.98517 0.0
H870 H 0.6341 0.04847 0.06752 0.0
N871 N 0.56701 0.05274 0.06328 0.0
C872 C 0.56123 0.06454 0.07739 0.0
C873 C 0.59158 0.07978 0.08949 0.0
C874 C 0.59737 0.06607 0.07693 0.0
C875 C 0.57336 0.07859 0.09014 0.0
C876 C 0.58456 0.05235 0.06419 0.0
H877 H 0.62471 0.01632 0.04648 0.0
N878 N 0.5764 0.02372 0.04249 0.0
C879 C 0.59738 0.00371 0.03641 0.0
C880 C 0.58943 0.03724 0.05339 0.0
C881 C 0.57995 0.00637 0.03555 0.0
C882 C 0.61123 0.01844 0.04567 0.0
C883 C 0.60725 0.03521 0.05497 0.0
O884 O 0.5406 1.00331 0.0439 0.0
O885 O 0.53166 0.033 0.01556 0.0
O886 O 0.53405 0.06944 0.02298 0.0
O887 O 0.53658 0.05472 0.04863 0.0
O888 O 0.53158 0.03284 0.01583 0.0
O889 O 0.53069 0.0263 0.0589 0.0
O890 O 0.56348 0.0743 0.98962 0.0
O891 O 0.564 0.04797 0.02184 0.0
O892 O 0.55083 0.00938 0.0152 0.0
O893 O 0.55786 0.02833 0.99304 0.0
O894 O 0.56593 0.07542 0.01937 0.0
O895 O 0.55477 0.04578 0.97383 0.0
C896 C 0.51445 0.02747 0.01403 0.0
C897 C 0.53389 1.00256 0.07528 0.0
C898 C 0.52475 1.00228 0.10672 0.0
C899 C 0.52266 0.00694 0.0891 0.0
C900 C 0.5379 0.99239 0.11021 0.0
C901 C 0.54712 0.99286 0.07895 0.0
C902 C 0.549 0.98771 0.09633 0.0
C903 C 0.53193 0.06793 0.04063 0.0
C904 C 0.53137 0.00865 0.05745 0.0
C905 C 0.62031 0.0496 0.06641 0.0
C906 C 0.61537 0.06506 0.07737 0.0
C907 C 0.57329 0.06449 0.02752 0.0
C908 C 0.5613 0.06985 0.95654 0.0
C909 C 0.57247 0.06606 0.9425 0.0
C910 C 0.57041 0.07184 0.92539 0.0
C911 C 0.55703 0.08165 0.92254 0.0
C912 C 0.5479 0.0795 0.95345 0.0
C913 C 0.54586 0.08546 0.93655 0.0
C914 C 0.55686 0.01224 0.99912 0.0
C915 C 0.5637 0.06284 0.97384 0.0
H916 H 0.51224 0.01414 0.08611 0.0
H917 H 0.53981 0.98864 0.12371 0.0
H918 H 0.55601 0.98933 0.06849 0.0
H919 H 0.55921 0.98024 0.09914 0.0
H920 H 0.58248 0.05812 0.94476 0.0
H921 H 0.55522 0.08639 0.90953 0.0
H922 H 0.53896 0.08237 0.96389 0.0
H923 H 0.53552 0.09294 0.93425 0.0
Tb924 Tb 0.31122 0.30131 0.27926 0.0
C925 C 0.23595 0.26433 0.24926 0.0
C926 C 0.22266 0.26154 0.27825 0.0
C927 C 0.20381 0.26015 0.25015 0.0
C928 C 0.23774 0.26349 0.26795 0.0
C929 C 0.21892 0.26279 0.24016 0.0
C930 C 0.20568 0.2596 0.26919 0.0
C931 C 0.23257 0.26418 0.21137 0.0
N932 N 0.25074 0.26576 0.2398 0.0
C933 C 0.24898 0.26477 0.22078 0.0
C934 C 0.21745 0.26323 0.22111 0.0
Tb935 Tb 0.27606 0.26208 0.25574 0.0
N936 N 0.25424 0.26441 0.276 0.0
C937 C 0.25653 0.26444 0.29477 0.0
C938 C 0.225 0.26133 0.2973 0.0
C939 C 0.24206 0.26299 0.30562 0.0
H940 H 0.26016 0.26384 0.21256 0.0
H941 H 0.24411 0.2632 0.32045 0.0
H942 H 0.19394 0.25784 0.27682 0.0
H943 H 0.2315 0.26376 0.19644 0.0
H944 H 0.26949 0.26637 0.30194 0.0
H945 H 0.33041 0.36165 0.24579 0.0
H946 H 0.21379 0.26003 0.3057 0.0
H947 H 0.3395 0.2859 0.30714 0.0
H948 H 0.31088 0.34095 0.26258 0.0
H949 H 0.37049 0.28391 0.30893 0.0
H950 H 0.19063 0.2587 0.24333 0.0
H951 H 0.36056 0.35672 0.24004 0.0
H952 H 0.38493 0.34039 0.24661 0.0
H953 H 0.20464 0.2622 0.21367 0.0
H954 H 0.39611 0.31938 0.26446 0.0
N955 N 0.32915 0.32317 0.26538 0.0
C956 C 0.32391 0.33838 0.26017 0.0
C957 C 0.35191 0.34733 0.24724 0.0
C958 C 0.35794 0.33319 0.2544 0.0
C959 C 0.33496 0.35023 0.25056 0.0
C960 C 0.34612 0.32125 0.2636 0.0
H961 H 0.39101 0.29903 0.28855 0.0
N962 N 0.3407 0.29919 0.28323 0.0
C963 C 0.36545 0.29055 0.29838 0.0
C964 C 0.3522 0.30894 0.27306 0.0
C965 C 0.34747 0.29124 0.29681 0.0
C966 C 0.37698 0.29909 0.28684 0.0
C967 C 0.37053 0.30881 0.27426 0.0
O968 O 0.30385 0.30338 0.30681 0.0
O969 O 0.28276 0.2891 0.27477 0.0
O970 O 0.28075 0.28326 0.23766 0.0
O971 O 0.30901 0.30216 0.24918 0.0
O972 O 0.29111 0.317 0.27369 0.0
O973 O 0.32085 0.32691 0.29882 0.0
O974 O 0.26841 0.2401 0.23215 0.0
O975 O 0.30411 0.27321 0.26304 0.0
O976 O 0.31176 0.27667 0.2923 0.0
O977 O 0.28654 0.25272 0.28027 0.0
O978 O 0.29698 0.25578 0.23746 0.0
O979 O 0.26678 0.23435 0.25998 0.0
C980 C 0.27728 0.30357 0.27246 0.0
C981 C 0.29956 0.33335 0.31999 0.0
C982 C 0.28124 0.35622 0.31739 0.0
C983 C 0.29424 0.34659 0.31061 0.0
C984 C 0.27393 0.35285 0.33404 0.0
C985 C 0.29225 0.33032 0.33667 0.0
C986 C 0.27953 0.34008 0.34367 0.0
C987 C 0.29523 0.2962 0.23622 0.0
C988 C 0.31126 0.32126 0.31166 0.0
C989 C 0.38207 0.31952 0.26393 0.0
C990 C 0.37572 0.33154 0.25382 0.0
C991 C 0.31031 0.2653 0.24899 0.0
C992 C 0.27352 0.21089 0.23615 0.0
C993 C 0.28574 0.20616 0.2483 0.0
C994 C 0.29348 0.19074 0.24234 0.0
C995 C 0.28921 0.18031 0.22387 0.0
C996 C 0.26926 0.20027 0.21781 0.0
C997 C 0.27718 0.18511 0.21169 0.0
C998 C 0.30041 0.26051 0.29288 0.0
C999 C 0.26538 0.22707 0.24211 0.0
H1000 H 0.29968 0.34889 0.29762 0.0
H1001 H 0.26398 0.36018 0.33968 0.0
H1002 H 0.29606 0.32005 0.34403 0.0
H1003 H 0.27382 0.33755 0.35645 0.0
H1004 H 0.28934 0.2145 0.26235 0.0
H1005 H 0.29487 0.16821 0.21899 0.0
H1006 H 0.25989 0.20378 0.20821 0.0
H1007 H 0.27386 0.17697 0.19753 0.0
Tb1008 Tb 0.54609 0.5588 0.03494 0.0
C1009 C 0.56754 0.50768 0.9688 0.0
C1010 C 0.54232 0.50017 0.94548 0.0
C1011 C 0.57207 0.50065 0.93575 0.0
C1012 C 0.54954 0.50536 0.96435 0.0
C1013 C 0.57903 0.50503 0.9546 0.0
C1014 C 0.55373 0.49824 0.93119 0.0
C1015 C 0.60309 0.50982 0.97875 0.0
N1016 N 0.57368 0.51178 0.98717 0.0
C1017 C 0.59114 0.51224 0.99232 0.0
C1018 C 0.59705 0.5064 0.9598 0.0
Tb1019 Tb 0.55319 0.51609 0.00837 0.0
N1020 N 0.53899 0.50719 0.97858 0.0
C1021 C 0.52083 0.50257 0.97482 0.0
C1022 C 0.52382 0.49657 0.94158 0.0
C1023 C 0.51302 0.49751 0.95633 0.0
H1024 H 0.59605 0.51499 0.00689 0.0
H1025 H 0.49867 0.4944 0.95349 0.0
H1026 H 0.54846 0.49443 0.91661 0.0
H1027 H 0.61695 0.51062 0.98292 0.0
H1028 H 0.51218 0.50325 0.98596 0.0
H1029 H 0.59871 0.57724 0.09175 0.0
H1030 H 0.51774 0.49264 0.92728 0.0
H1031 H 0.5053 0.5669 0.03528 0.0
H1032 H 0.58632 0.5701 0.05893 0.0
H1033 H 0.48412 0.57335 0.05838 0.0
H1034 H 0.58069 0.4987 0.92461 0.0
H1035 H 0.57869 0.57846 0.11717 0.0
H1036 H 0.54771 0.57798 0.12669 0.0
H1037 H 0.60632 0.50447 0.94932 0.0
H1038 H 0.51629 0.57709 0.11756 0.0
N1039 N 0.55921 0.56633 0.06525 0.0
C1040 C 0.57728 0.57051 0.06971 0.0
C1041 C 0.57311 0.5752 0.1027 0.0
C1042 C 0.55479 0.57251 0.09814 0.0
C1043 C 0.58445 0.57461 0.08841 0.0
C1044 C 0.54824 0.56823 0.07907 0.0
H1045 H 0.49255 0.57593 0.09208 0.0
N1046 N 0.52556 0.56519 0.05551 0.0
C1047 C 0.49715 0.57163 0.06297 0.0
C1048 C 0.53072 0.56774 0.074 0.0
C1049 C 0.50926 0.56794 0.04988 0.0
C1050 C 0.50192 0.57301 0.08197 0.0
C1051 C 0.51904 0.57147 0.08775 0.0
O1052 O 0.53827 0.5809 0.0244 0.0
O1053 O 0.54429 0.54181 0.00656 0.0
O1054 O 0.57136 0.53916 0.99956 0.0
O1055 O 0.57358 0.56135 0.027 0.0
O1056 O 0.52397 0.55451 0.01299 0.0
O1057 O 0.56383 0.58554 0.03981 0.0
O1058 O 0.56353 0.49413 0.01623 0.0
O1059 O 0.5547 0.53271 0.0369 0.0
O1060 O 0.5256 0.53678 0.04252 0.0
O1061 O 0.52602 0.51227 0.01732 0.0
O1062 O 0.57534 0.52047 0.03018 0.0
O1063 O 0.53601 0.48924 0.00533 0.0
C1064 C 0.52966 0.5443 0.99941 0.0
C1065 C 0.55036 0.61174 0.04133 0.0
C1066 C 0.54772 0.64377 0.03937 0.0
C1067 C 0.55016 0.62584 0.03088 0.0
C1068 C 0.54554 0.64741 0.05862 0.0
C1069 C 0.54814 0.61552 0.0605 0.0
C1070 C 0.54573 0.63331 0.06908 0.0
C1071 C 0.57971 0.555 0.01101 0.0
C1072 C 0.55273 0.59324 0.03163 0.0
C1073 C 0.52511 0.57444 0.10677 0.0
C1074 C 0.54299 0.57493 0.11197 0.0
C1075 C 0.56935 0.53009 0.04396 0.0
C1076 C 0.54915 0.46273 0.00215 0.0
C1077 C 0.54569 0.44828 0.01236 0.0
C1078 C 0.5467 0.42968 0.00443 0.0
C1079 C 0.55089 0.42568 0.98579 0.0
C1080 C 0.55342 0.45866 0.98363 0.0
C1081 C 0.55422 0.44013 0.97548 0.0
C1082 C 0.51873 0.51978 0.0321 0.0
C1083 C 0.54841 0.48184 0.01165 0.0
H1084 H 0.55217 0.62287 0.01612 0.0
H1085 H 0.54353 0.66105 0.06554 0.0
H1086 H 0.54831 0.60481 0.06881 0.0
H1087 H 0.544 0.6362 0.08388 0.0
H1088 H 0.54208 0.45159 0.02657 0.0
H1089 H 0.55187 0.41151 0.97929 0.0
H1090 H 0.55613 0.46971 0.97557 0.0
H1091 H 0.55754 0.43697 0.96118 0.0
Tb1092 Tb 0.81652 0.3034 0.26641 0.0
C1093 C 0.7727 0.24384 0.30274 0.0
C1094 C 0.7824 0.21546 0.28967 0.0
C1095 C 0.7719 0.219 0.32068 0.0
C1096 C 0.77982 0.23365 0.28853 0.0
C1097 C 0.76808 0.23642 0.31875 0.0
C1098 C 0.77904 0.2085 0.30612 0.0
C1099 C 0.75387 0.26247 0.3282 0.0
N1100 N 0.76879 0.26028 0.30001 0.0
C1101 C 0.75854 0.26904 0.31192 0.0
C1102 C 0.75897 0.24628 0.33183 0.0
Tb1103 Tb 0.77794 0.27093 0.27366 0.0
N1104 N 0.78241 0.24076 0.27279 0.0
C1105 C 0.78588 0.2294 0.25693 0.0
C1106 C 0.78733 0.20445 0.27392 0.0
C1107 C 0.78868 0.21129 0.25734 0.0
H1108 H 0.75437 0.28146 0.30918 0.0
H1109 H 0.79199 0.20269 0.24488 0.0
H1110 H 0.78121 0.19469 0.30738 0.0
H1111 H 0.74627 0.26984 0.33787 0.0
H1112 H 0.78712 0.23435 0.24395 0.0
H1113 H 0.80406 0.37269 0.29331 0.0
H1114 H 0.78946 0.19041 0.27419 0.0
H1115 H 0.83674 0.28863 0.22889 0.0
H1116 H 0.80727 0.34056 0.2949 0.0
H1117 H 0.84603 0.29971 0.20045 0.0
H1118 H 0.76867 0.21315 0.33298 0.0
H1119 H 0.80896 0.3848 0.26414 0.0
H1120 H 0.81846 0.37983 0.23149 0.0
H1121 H 0.75517 0.24108 0.34433 0.0
H1122 H 0.83012 0.36001 0.20623 0.0
N1123 N 0.81332 0.3338 0.26656 0.0
C1124 C 0.80946 0.34544 0.28199 0.0
C1125 C 0.81033 0.37056 0.2647 0.0
C1126 C 0.81544 0.35911 0.24937 0.0
C1127 C 0.80763 0.3638 0.2812 0.0
C1128 C 0.81698 0.34065 0.25083 0.0
H1129 H 0.84081 0.33028 0.1947 0.0
N1130 N 0.82584 0.31248 0.23936 0.0
C1131 C 0.83965 0.30824 0.21051 0.0
C1132 C 0.82359 0.32963 0.23674 0.0
C1133 C 0.83432 0.30201 0.22676 0.0
C1134 C 0.83663 0.32547 0.20728 0.0
C1135 C 0.82875 0.33655 0.22061 0.0
O1136 O 0.84326 0.30126 0.26843 0.0
O1137 O 0.80696 0.27546 0.27386 0.0
O1138 O 0.79215 0.28154 0.30135 0.0
O1139 O 0.81051 0.30906 0.29572 0.0
O1140 O 0.82567 0.27738 0.25544 0.0
O1141 O 0.83436 0.32288 0.28732 0.0
O1142 O 0.75086 0.27207 0.27178 0.0
O1143 O 0.78769 0.29893 0.26685 0.0
O1144 O 0.80048 0.29495 0.23949 0.0
O1145 O 0.7847 0.26621 0.24458 0.0
O1146 O 0.76804 0.29678 0.28408 0.0
O1147 O 0.76059 0.2519 0.2521 0.0
C1148 C 0.81683 0.26573 0.2645 0.0
C1149 C 0.86452 0.32926 0.28083 0.0
C1150 C 0.89679 0.33799 0.28755 0.0
C1151 C 0.88018 0.32644 0.28916 0.0
C1152 C 0.89741 0.35289 0.2778 0.0
C1153 C 0.86524 0.34411 0.27113 0.0
C1154 C 0.88168 0.35593 0.2697 0.0
C1155 C 0.80311 0.29828 0.30711 0.0
C1156 C 0.84788 0.31589 0.28211 0.0
C1157 C 0.82639 0.3545 0.21859 0.0
C1158 C 0.81973 0.36578 0.23296 0.0
C1159 C 0.77756 0.30867 0.27569 0.0
C1160 C 0.73081 0.24318 0.25901 0.0
C1161 C 0.7144 0.24537 0.25194 0.0
C1162 C 0.6987 0.23182 0.2524 0.0
C1163 C 0.69964 0.21583 0.26 0.0
C1164 C 0.73167 0.22726 0.26675 0.0
C1165 C 0.71609 0.21365 0.26723 0.0
C1166 C 0.79023 0.2779 0.23329 0.0
C1167 C 0.74667 0.25773 0.2578 0.0
H1168 H 0.87935 0.31511 0.29691 0.0
H1169 H 0.91001 0.36195 0.27614 0.0
H1170 H 0.85324 0.34652 0.26465 0.0
H1171 H 0.88225 0.36735 0.26214 0.0
H1172 H 0.71391 0.25757 0.24571 0.0
H1173 H 0.6877 0.20517 0.2605 0.0
H1174 H 0.74427 0.22528 0.27223 0.0
H1175 H 0.71677 0.20136 0.27316 0.0
Tb1176 Tb 0.05622 0.52985 0.54248 0.0
C1177 C 0.00347 0.54995 0.48775 0.0
C1178 C 0.9822 0.52036 0.47584 0.0
C1179 C 0.97289 0.55021 0.47813 0.0
C1180 C 0.9995 0.53047 0.48335 0.0
C1181 C 0.99038 0.56015 0.48477 0.0
C1182 C 0.96879 0.53032 0.4737 0.0
C1183 C 0.01325 0.58903 0.49351 0.0
N1184 N 0.02054 0.55893 0.49397 0.0
C1185 C 0.02575 0.57825 0.49618 0.0
C1186 C 0.99542 0.57996 0.48802 0.0
Tb1187 Tb 0.03999 0.54018 0.49862 0.0
N1188 N 0.01289 0.52148 0.48545 0.0
C1189 C 0.01016 0.50235 0.47885 0.0
C1190 C 0.97907 0.50065 0.47018 0.0
C1191 C 0.9932 0.49165 0.4714 0.0
H1192 H 0.03946 0.58541 0.50054 0.0
H1193 H 0.99103 0.47645 0.4667 0.0
H1194 H 0.95537 0.52281 0.46814 0.0
H1195 H 0.01736 0.60433 0.49571 0.0
H1196 H 0.02084 0.49509 0.4798 0.0
H1197 H 0.10512 0.59376 0.57419 0.0
H1198 H 0.96596 0.49233 0.4644 0.0
H1199 H 0.05669 0.48459 0.54025 0.0
H1200 H 0.07547 0.57516 0.56067 0.0
H1201 H 0.07859 0.46568 0.54582 0.0
H1202 H 0.96257 0.55776 0.47593 0.0
H1203 H 0.1299 0.57774 0.57778 0.0
H1204 H 0.14026 0.54721 0.57507 0.0
H1205 H 0.98578 0.58834 0.4859 0.0
H1206 H 0.13301 0.51226 0.56744 0.0
N1207 N 0.08319 0.54861 0.55598 0.0
C1208 C 0.086 0.56782 0.56214 0.0
C1209 C 0.11685 0.56944 0.57179 0.0
C1210 C 0.11364 0.54968 0.56652 0.0
C1211 C 0.10289 0.57851 0.56983 0.0
C1212 C 0.09643 0.53958 0.5587 0.0
H1213 H 0.10995 0.48169 0.55677 0.0
N1214 N 0.07552 0.5111 0.54753 0.0
C1215 C 0.08269 0.48099 0.54819 0.0
C1216 C 0.09244 0.52009 0.55435 0.0
C1217 C 0.0703 0.49177 0.54509 0.0
C1218 C 0.10039 0.49007 0.55433 0.0
C1219 C 0.10541 0.50989 0.55775 0.0
O1220 O 0.04143 0.51377 0.55964 0.0
O1221 O 0.03444 0.52656 0.52182 0.0
O1222 O 0.02715 0.55489 0.52074 0.0
O1223 O 0.04694 0.55661 0.5467 0.0
O1224 O 0.03532 0.50377 0.53344 0.0
O1225 O 0.05269 0.54372 0.56946 0.0
O1226 O 0.054 0.55625 0.48086 0.0
O1227 O 0.06183 0.54351 0.51925 0.0
O1228 O 0.06918 0.51526 0.52051 0.0
O1229 O 0.04956 0.51351 0.49436 0.0
O1230 O 0.06093 0.56621 0.50749 0.0
O1231 O 0.04367 0.52608 0.47183 0.0
C1232 C 0.02606 0.50999 0.52189 0.0
C1233 C 0.04791 0.52451 0.59209 0.0
C1234 C 0.03855 0.52299 0.62317 0.0
C1235 C 0.03595 0.52733 0.60548 0.0
C1236 C 0.05339 0.51569 0.62734 0.0
C1237 C 0.06283 0.51745 0.59637 0.0
C1238 C 0.06554 0.51307 0.614 0.0
C1239 C 0.03359 0.56186 0.53839 0.0
C1240 C 0.04368 0.52816 0.57356 0.0
C1241 C 0.12279 0.51982 0.56488 0.0
C1242 C 0.12691 0.5397 0.56923 0.0
C1243 C 0.07022 0.56006 0.51908 0.0
C1244 C 0.04624 0.54461 0.44866 0.0
C1245 C 0.05852 0.54504 0.4352 0.0
C1246 C 0.0538 0.54786 0.41727 0.0
C1247 C 0.03657 0.55043 0.41306 0.0
C1248 C 0.02908 0.54707 0.44428 0.0
C1249 C 0.0243 0.55002 0.42653 0.0
C1250 C 0.0629 0.50833 0.50282 0.0
C1251 C 0.05184 0.54168 0.46713 0.0
H1252 H 0.02429 0.53252 0.60194 0.0
H1253 H 0.05567 0.51222 0.64092 0.0
H1254 H 0.07219 0.51514 0.58612 0.0
H1255 H 0.077 0.50753 0.61729 0.0
H1256 H 0.07184 0.54337 0.4388 0.0
H1257 H 0.03248 0.55245 0.3993 0.0
H1258 H 0.01943 0.54671 0.45449 0.0
H1259 H 0.01104 0.5519 0.42317 0.0
Tb1260 Tb 0.77593 0.79245 0.26484 0.0
C1261 C 0.83495 0.76332 0.30159 0.0
C1262 C 0.84643 0.78743 0.32922 0.0
C1263 C 0.84798 0.75476 0.32891 0.0
C1264 C 0.83777 0.78186 0.31091 0.0
C1265 C 0.84056 0.74963 0.3102 0.0
C1266 C 0.85094 0.77368 0.33841 0.0
C1267 C 0.83364 0.72775 0.28041 0.0
N1268 N 0.82835 0.75917 0.28339 0.0
C1269 C 0.82841 0.7419 0.27249 0.0
C1270 C 0.83943 0.73152 0.29945 0.0
Tb1271 Tb 0.81987 0.78304 0.27145 0.0
N1272 N 0.83362 0.79472 0.30132 0.0
C1273 C 0.83913 0.8137 0.30887 0.0
C1274 C 0.85117 0.80675 0.33732 0.0
C1275 C 0.84769 0.81995 0.32701 0.0
H1276 H 0.82386 0.73881 0.25777 0.0
H1277 H 0.85166 0.83496 0.33299 0.0
H1278 H 0.85737 0.77764 0.35257 0.0
H1279 H 0.83318 0.71396 0.27183 0.0
H1280 H 0.83667 0.82426 0.30128 0.0
H1281 H 0.74747 0.74192 0.20109 0.0
H1282 H 0.85817 0.81165 0.35118 0.0
H1283 H 0.76885 0.83521 0.27969 0.0
H1284 H 0.76018 0.75179 0.23375 0.0
H1285 H 0.759 0.86015 0.26624 0.0
H1286 H 0.85218 0.74441 0.33587 0.0
H1287 H 0.74231 0.76587 0.183 0.0
H1288 H 0.74187 0.79994 0.18286 0.0
H1289 H 0.84362 0.7206 0.30553 0.0
H1290 H 0.74496 0.83248 0.20078 0.0
N1291 N 0.76309 0.78144 0.23448 0.0
C1292 C 0.75806 0.76258 0.2263 0.0
C1293 C 0.74799 0.77037 0.19743 0.0
C1294 C 0.75172 0.78947 0.20631 0.0
C1295 C 0.75081 0.75682 0.20762 0.0
C1296 C 0.75919 0.79454 0.22509 0.0
H1297 H 0.75078 0.85495 0.23214 0.0
N1298 N 0.76667 0.8162 0.25342 0.0
C1299 C 0.75965 0.84691 0.25723 0.0
C1300 C 0.76107 0.8127 0.23498 0.0
C1301 C 0.76518 0.83271 0.26481 0.0
C1302 C 0.75513 0.84397 0.23797 0.0
C1303 C 0.75537 0.8265 0.22664 0.0
O1304 O 0.75898 0.80014 0.28537 0.0
O1305 O 0.797 0.78998 0.28427 0.0
O1306 O 0.80096 0.75869 0.2788 0.0
O1307 O 0.77416 0.76167 0.26455 0.0
O1308 O 0.78462 0.81191 0.29169 0.0
O1309 O 0.75161 0.77347 0.26617 0.0
O1310 O 0.83676 0.77395 0.25151 0.0
O1311 O 0.79899 0.78575 0.25189 0.0
O1312 O 0.7945 0.81796 0.25922 0.0
O1313 O 0.82194 0.81376 0.271 0.0
O1314 O 0.81097 0.76339 0.24488 0.0
O1315 O 0.84409 0.80163 0.26908 0.0
C1316 C 0.7966 0.80384 0.29718 0.0
C1317 C 0.7282 0.78756 0.27703 0.0
C1318 C 0.69849 0.78649 0.28802 0.0
C1319 C 0.7162 0.78435 0.2907 0.0
C1320 C 0.69325 0.79232 0.27168 0.0
C1321 C 0.72246 0.79309 0.26081 0.0
C1322 C 0.70514 0.79557 0.25824 0.0
C1323 C 0.78389 0.75162 0.27236 0.0
C1324 C 0.74657 0.78488 0.27962 0.0
C1325 C 0.74915 0.822 0.20755 0.0
C1326 C 0.74737 0.80348 0.19736 0.0
C1327 C 0.79945 0.77182 0.23902 0.0
C1328 C 0.86756 0.78728 0.25904 0.0
C1329 C 0.87961 0.79109 0.24558 0.0
C1330 C 0.89745 0.78944 0.24833 0.0
C1331 C 0.90283 0.78358 0.2646 0.0
C1332 C 0.87339 0.78168 0.27517 0.0
C1333 C 0.89089 0.77975 0.27787 0.0
C1334 C 0.8119 0.8244 0.26458 0.0
C1335 C 0.84906 0.78947 0.25628 0.0
H1336 H 0.72053 0.77983 0.30315 0.0
H1337 H 0.67992 0.79451 0.26931 0.0
H1338 H 0.73131 0.79539 0.25007 0.0
H1339 H 0.70088 0.79996 0.24571 0.0
H1340 H 0.87518 0.79566 0.23321 0.0
H1341 H 0.91629 0.78177 0.26703 0.0
H1342 H 0.86447 0.77887 0.28573 0.0
H1343 H 0.89523 0.77531 0.29033 0.0
Tb1344 Tb 0.80442 0.2742 0.74846 0.0
C1345 C 0.79638 0.34646 0.79817 0.0
C1346 C 0.82717 0.35924 0.81028 0.0
C1347 C 0.8068 0.3803 0.81097 0.0
C1348 C 0.81305 0.34361 0.80248 0.0
C1349 C 0.79311 0.36492 0.8021 0.0
C1350 C 0.82378 0.37743 0.81519 0.0
C1351 C 0.76302 0.35177 0.78833 0.0
N1352 N 0.78357 0.33127 0.78939 0.0
C1353 C 0.76678 0.33375 0.78502 0.0
C1354 C 0.77623 0.36744 0.79693 0.0
Tb1355 Tb 0.79004 0.30185 0.78856 0.0
N1356 N 0.81578 0.32581 0.79743 0.0
C1357 C 0.83301 0.32353 0.79718 0.0
C1358 C 0.84444 0.35633 0.81202 0.0
C1359 C 0.84742 0.33849 0.80488 0.0
H1360 H 0.75585 0.32188 0.77941 0.0
H1361 H 0.86089 0.33633 0.80488 0.0
H1362 H 0.83437 0.3895 0.82156 0.0
H1363 H 0.74976 0.35347 0.78461 0.0
H1364 H 0.83613 0.3106 0.79029 0.0
H1365 H 0.77292 0.26491 0.67838 0.0
H1366 H 0.85564 0.36797 0.81776 0.0
H1367 H 0.81612 0.24074 0.77129 0.0
H1368 H 0.79008 0.28284 0.70784 0.0
H1369 H 0.81104 0.2068 0.76621 0.0
H1370 H 0.80447 0.39451 0.81428 0.0
H1371 H 0.76292 0.23003 0.67338 0.0
H1372 H 0.76322 0.20006 0.68485 0.0
H1373 H 0.77323 0.38138 0.79965 0.0
H1374 H 0.77403 0.18431 0.70858 0.0
N1375 N 0.78926 0.25851 0.72009 0.0
C1376 C 0.7858 0.26763 0.70597 0.0
C1377 C 0.77036 0.23787 0.68647 0.0
C1378 C 0.77494 0.22849 0.70036 0.0
C1379 C 0.77602 0.25752 0.6892 0.0
C1380 C 0.78457 0.23935 0.71721 0.0
H1381 H 0.79291 0.18676 0.73805 0.0
N1382 N 0.80008 0.24162 0.7465 0.0
C1383 C 0.80497 0.2133 0.75618 0.0
C1384 C 0.7904 0.23059 0.73071 0.0
C1385 C 0.80773 0.23302 0.75897 0.0
C1386 C 0.79461 0.20202 0.74039 0.0
C1387 C 0.78709 0.21057 0.72746 0.0
O1388 O 0.8323 0.27987 0.75434 0.0
O1389 O 0.80617 0.30173 0.76569 0.0
O1390 O 0.77251 0.30137 0.76324 0.0
O1391 O 0.77682 0.27617 0.74057 0.0
O1392 O 0.8064 0.30039 0.73753 0.0
O1393 O 0.82044 0.27306 0.72599 0.0
O1394 O 0.76375 0.2981 0.79563 0.0
O1395 O 0.78623 0.27503 0.76941 0.0
O1396 O 0.8187 0.27186 0.77496 0.0
O1397 O 0.81085 0.29087 0.80151 0.0
O1398 O 0.7825 0.27386 0.79655 0.0
O1399 O 0.78603 0.30974 0.81694 0.0
C1400 C 0.80665 0.31154 0.75328 0.0
C1401 C 0.84772 0.29608 0.73295 0.0
C1402 C 0.85476 0.32228 0.71639 0.0
C1403 C 0.84286 0.3062 0.71969 0.0
C1404 C 0.87171 0.32815 0.72634 0.0
C1405 C 0.86469 0.30221 0.74284 0.0
C1406 C 0.8766 0.31816 0.73954 0.0
C1407 C 0.76806 0.28952 0.74674 0.0
C1408 C 0.83517 0.27943 0.73689 0.0
C1409 C 0.77689 0.19967 0.71111 0.0
C1410 C 0.77073 0.20863 0.69762 0.0
C1411 C 0.78166 0.26373 0.78009 0.0
C1412 C 0.75942 0.29125 0.82533 0.0
C1413 C 0.76868 0.28217 0.83656 0.0
C1414 C 0.75935 0.2697 0.847 0.0
C1415 C 0.74063 0.26639 0.846 0.0
C1416 C 0.74077 0.28791 0.82469 0.0
C1417 C 0.73144 0.27551 0.83495 0.0
C1418 C 0.82021 0.27886 0.79339 0.0
C1419 C 0.76871 0.30362 0.81352 0.0
H1420 H 0.8299 0.30154 0.71176 0.0
H1421 H 0.88108 0.34052 0.72401 0.0
H1422 H 0.86871 0.29468 0.75317 0.0
H1423 H 0.88965 0.32282 0.74725 0.0
H1424 H 0.78309 0.28483 0.83724 0.0
H1425 H 0.73305 0.25661 0.85362 0.0
H1426 H 0.73341 0.29475 0.81605 0.0
H1427 H 0.71704 0.27286 0.83425 0.0
Tb1428 Tb 0.80318 0.8025 0.77575 0.0
C1429 C 0.73683 0.75605 0.74856 0.0
C1430 C 0.72353 0.73762 0.7706 0.0
C1431 C 0.70514 0.75235 0.75272 0.0
C1432 C 0.73865 0.74561 0.76216 0.0
C1433 C 0.71987 0.75909 0.74339 0.0
C1434 C 0.70693 0.74151 0.76619 0.0
C1435 C 0.73249 0.77296 0.71842 0.0
N1436 N 0.75133 0.76215 0.73958 0.0
C1437 C 0.74887 0.76928 0.72373 0.0
C1438 C 0.71801 0.76824 0.72854 0.0
Tb1439 Tb 0.77806 0.75635 0.75088 0.0
N1440 N 0.75478 0.74166 0.76574 0.0
C1441 C 0.7558 0.72764 0.77561 0.0
C1442 C 0.72527 0.72515 0.7825 0.0
C1443 C 0.74139 0.7198 0.78466 0.0
H1444 H 0.75899 0.77173 0.71435 0.0
H1445 H 0.74262 0.70926 0.79291 0.0
H1446 H 0.69527 0.73569 0.77272 0.0
H1447 H 0.73095 0.77902 0.70617 0.0
H1448 H 0.76771 0.72215 0.77638 0.0
H1449 H 0.81775 0.86826 0.75131 0.0
H1450 H 0.714 0.7188 0.78925 0.0
H1451 H 0.82981 0.78005 0.79646 0.0
H1452 H 0.79838 0.84026 0.75976 0.0
H1453 H 0.86177 0.78376 0.80413 0.0
H1454 H 0.69214 0.75482 0.74909 0.0
H1455 H 0.85048 0.87232 0.75453 0.0
H1456 H 0.87699 0.86113 0.76558 0.0
H1457 H 0.70526 0.77087 0.72421 0.0
H1458 H 0.88891 0.83853 0.78064 0.0
N1459 N 0.81989 0.82761 0.76566 0.0
C1460 C 0.81267 0.84167 0.76067 0.0
C1461 C 0.84204 0.85978 0.75776 0.0
C1462 C 0.84941 0.84624 0.76457 0.0
C1463 C 0.82357 0.85759 0.75602 0.0
C1464 C 0.83783 0.83012 0.76848 0.0
H1465 H 0.88339 0.80957 0.79484 0.0
N1466 N 0.83281 0.8028 0.78162 0.0
C1467 C 0.85712 0.7933 0.79641 0.0
C1468 C 0.84452 0.81732 0.77682 0.0
C1469 C 0.83887 0.79123 0.79192 0.0
C1470 C 0.86927 0.80784 0.7911 0.0
C1471 C 0.86302 0.82033 0.78154 0.0
O1472 O 0.8126 0.81338 0.8041 0.0
O1473 O 0.77796 0.78232 0.76976 0.0
O1474 O 0.78483 0.77583 0.73135 0.0
O1475 O 0.80416 0.80444 0.7463 0.0
O1476 O 0.77784 0.80966 0.76865 0.0
O1477 O 0.79274 0.82437 0.79059 0.0
O1478 O 0.78448 0.74484 0.72401 0.0
O1479 O 0.80344 0.77582 0.75788 0.0
O1480 O 0.79959 0.78292 0.79527 0.0
O1481 O 0.78608 0.75227 0.77889 0.0
O1482 O 0.80318 0.74781 0.75644 0.0
O1483 O 0.76717 0.72769 0.7393 0.0
C1484 C 0.76771 0.79318 0.76798 0.0
C1485 C 0.81504 0.84671 0.81121 0.0
C1486 C 0.81914 0.8804 0.81031 0.0
C1487 C 0.80844 0.86191 0.80679 0.0
C1488 C 0.83639 0.88378 0.81932 0.0
C1489 C 0.83235 0.85037 0.82019 0.0
C1490 C 0.84288 0.86883 0.82431 0.0
C1491 C 0.79485 0.79291 0.73126 0.0
C1492 C 0.80421 0.82712 0.80511 0.0
C1493 C 0.87466 0.83603 0.77715 0.0
C1494 C 0.86788 0.84887 0.76853 0.0
C1495 C 0.81345 0.76451 0.75884 0.0
C1496 C 0.78552 0.71255 0.72019 0.0
C1497 C 0.79368 0.70616 0.73462 0.0
C1498 C 0.8023 0.69105 0.73066 0.0
C1499 C 0.80243 0.68227 0.7118 0.0
C1500 C 0.78599 0.70381 0.70155 0.0
C1501 C 0.7944 0.6887 0.69739 0.0
C1502 C 0.79338 0.76454 0.79439 0.0
C1503 C 0.77589 0.7278 0.72458 0.0
H1504 H 0.79499 0.85928 0.80019 0.0
H1505 H 0.84498 0.89786 0.82214 0.0
H1506 H 0.83786 0.83896 0.82375 0.0
H1507 H 0.85624 0.87151 0.83109 0.0
H1508 H 0.79328 0.713 0.74897 0.0
H1509 H 0.80849 0.67026 0.70811 0.0
H1510 H 0.77967 0.70852 0.69024 0.0
H1511 H 0.79457 0.68183 0.68297 0.0
Tb1512 Tb 0.52553 0.52799 0.50936 0.0
C1513 C 0.57178 0.59088 0.54906 0.0
C1514 C 0.58252 0.60897 0.52582 0.0
C1515 C 0.57558 0.62528 0.5556 0.0
C1516 C 0.57732 0.59141 0.5315 0.0
C1517 C 0.57152 0.60795 0.56159 0.0
C1518 C 0.5811 0.62579 0.53772 0.0
C1519 C 0.56648 0.59014 0.58603 0.0
N1520 N 0.5682 0.57389 0.55442 0.0
C1521 C 0.56722 0.57376 0.5732 0.0
C1522 C 0.56813 0.60725 0.58008 0.0
Tb1523 Tb 0.56806 0.54728 0.53134 0.0
N1524 N 0.57825 0.57481 0.52024 0.0
C1525 C 0.58628 0.57533 0.50392 0.0
C1526 C 0.58939 0.60919 0.50853 0.0
C1527 C 0.59156 0.59232 0.49769 0.0
H1528 H 0.56704 0.56105 0.57865 0.0
H1529 H 0.5976 0.59241 0.48463 0.0
H1530 H 0.58474 0.63932 0.53344 0.0
H1531 H 0.565 0.58959 0.6006 0.0
H1532 H 0.58937 0.56297 0.49567 0.0
H1533 H 0.49329 0.48607 0.55744 0.0
H1534 H 0.59373 0.62237 0.50377 0.0
H1535 H 0.52792 0.5116 0.4627 0.0
H1536 H 0.50202 0.51446 0.54469 0.0
H1537 H 0.53087 0.48233 0.44266 0.0
H1538 H 0.57517 0.63844 0.56493 0.0
H1539 H 0.49782 0.45537 0.54051 0.0
H1540 H 0.50668 0.43678 0.51167 0.0
H1541 H 0.56783 0.62001 0.59011 0.0
H1542 H 0.51797 0.43591 0.48077 0.0
N1543 N 0.51433 0.50138 0.52162 0.0
C1544 C 0.50549 0.50179 0.5375 0.0
C1545 C 0.50231 0.4681 0.53502 0.0
C1546 C 0.50974 0.46729 0.51793 0.0
C1547 C 0.49986 0.48539 0.54465 0.0
C1548 C 0.51549 0.48433 0.51143 0.0
H1549 H 0.52713 0.4528 0.45493 0.0
N1550 N 0.52589 0.50036 0.48786 0.0
C1551 C 0.52879 0.48257 0.45726 0.0
C1552 C 0.52176 0.48384 0.49408 0.0
C1553 C 0.52768 0.49946 0.46907 0.0
C1554 C 0.52659 0.46596 0.46419 0.0
C1555 C 0.52228 0.46628 0.48257 0.0
O1556 O 0.51067 0.53038 0.48518 0.0
O1557 O 0.54739 0.55302 0.51341 0.0
O1558 O 0.54895 0.54148 0.55322 0.0
O1559 O 0.52138 0.5403 0.53858 0.0
O1560 O 0.52264 0.55694 0.5191 0.0
O1561 O 0.49818 0.52667 0.51035 0.0
O1562 O 0.58391 0.54419 0.55449 0.0
O1563 O 0.54619 0.5223 0.52729 0.0
O1564 O 0.54455 0.53349 0.48734 0.0
O1565 O 0.57237 0.53571 0.50202 0.0
O1566 O 0.57083 0.51827 0.5216 0.0
O1567 O 0.5953 0.54908 0.52901 0.0
C1568 C 0.53865 0.56577 0.51799 0.0
C1569 C 0.47942 0.51681 0.48233 0.0
C1570 C 0.44724 0.51226 0.47691 0.0
C1571 C 0.46351 0.5219 0.48703 0.0
C1572 C 0.44697 0.49726 0.46183 0.0
C1573 C 0.47908 0.50161 0.46744 0.0
C1574 C 0.46285 0.49186 0.45726 0.0
C1575 C 0.53195 0.54269 0.55416 0.0
C1576 C 0.49586 0.52844 0.49311 0.0
C1577 C 0.5175 0.44946 0.48935 0.0
C1578 C 0.51112 0.44996 0.50697 0.0
C1579 C 0.55483 0.50948 0.52277 0.0
C1580 C 0.61505 0.55765 0.55624 0.0
C1581 C 0.63026 0.55065 0.55262 0.0
C1582 C 0.64687 0.56009 0.56207 0.0
C1583 C 0.64818 0.57682 0.57543 0.0
C1584 C 0.61641 0.57458 0.56928 0.0
C1585 C 0.63299 0.58411 0.57887 0.0
C1586 C 0.56172 0.53292 0.48643 0.0
C1587 C 0.59831 0.54649 0.54586 0.0
H1588 H 0.46389 0.53387 0.49837 0.0
H1589 H 0.43455 0.48971 0.4537 0.0
H1590 H 0.49123 0.49741 0.46358 0.0
H1591 H 0.46259 0.48022 0.44569 0.0
H1592 H 0.62906 0.53744 0.54262 0.0
H1593 H 0.66089 0.58425 0.58305 0.0
H1594 H 0.6048 0.58035 0.57208 0.0
H1595 H 0.63406 0.59711 0.58904 0.0
Tb1596 Tb 0.07093 0.54349 0.01334 0.0
C1597 C 0.00991 0.5008 0.05081 0.0
C1598 C 0.99592 0.47302 0.02748 0.0
C1599 C 0.99534 0.47196 0.06053 0.0
C1600 C 0.00574 0.49197 0.03232 0.0
C1601 C 0.00452 0.49107 0.06519 0.0
C1602 C 0.99106 0.46293 0.04168 0.0
C1603 C 0.01657 0.52021 0.08754 0.0
N1604 N 0.01867 0.51927 0.05465 0.0
C1605 C 0.02156 0.52925 0.07274 0.0
C1606 C 0.00817 0.50098 0.08377 0.0
Tb1607 Tb 0.02701 0.53272 0.02958 0.0
N1608 N 0.01057 0.5023 0.0191 0.0
C1609 C 0.00481 0.49482 1.00067 0.0
C1610 C 0.99092 0.46497 0.00855 0.0
C1611 C 0.99517 0.47602 0.99511 0.0
H1612 H 0.02815 0.54408 0.07587 0.0
H1613 H 0.9911 0.47006 0.98044 0.0
H1614 H 0.98365 0.44831 0.03825 0.0
H1615 H 0.01923 0.52808 0.10184 0.0
H1616 H 0.00803 0.50303 0.99003 0.0
H1617 H 0.10907 0.60551 0.06165 0.0
H1618 H 0.98345 0.45043 0.00421 0.0
H1619 H 0.06815 0.5319 0.96682 0.0
H1620 H 0.09002 0.57348 0.05264 0.0
H1621 H 0.07733 0.54735 0.94064 0.0
H1622 H 0.99119 0.46417 0.07137 0.0
H1623 H 0.1186 0.62394 0.03739 0.0
H1624 H 0.11779 0.62596 0.0034 0.0
H1625 H 0.00426 0.49402 0.09525 0.0
H1626 H 0.10896 0.61022 0.97043 0.0
N1627 N 0.08795 0.57368 0.02341 0.0
C1628 C 0.0938 0.58128 0.04181 0.0
C1629 C 0.10989 0.60996 0.03335 0.0
C1630 C 0.10422 0.60201 0.01454 0.0
C1631 C 0.10466 0.59954 0.04704 0.0
C1632 C 0.09331 0.58355 0.00998 0.0
H1633 H 0.09399 0.58083 0.94687 0.0
N1634 N 0.079 0.55652 0.98792 0.0
C1635 C 0.08055 0.55523 0.9549 0.0
C1636 C 0.08857 0.57469 0.99155 0.0
C1637 C 0.07542 0.5465 0.96985 0.0
C1638 C 0.08991 0.57414 0.95847 0.0
C1639 C 0.09428 0.58404 0.97699 0.0
O1640 O 0.08602 0.5246 1.00098 0.0
O1641 O 0.04824 0.52179 0.01669 0.0
O1642 O 0.04496 0.522 0.04687 0.0
O1643 O 0.07161 0.54222 0.04324 0.0
O1644 O 0.06048 0.51685 0.99295 0.0
O1645 O 0.0944 0.54193 0.02844 0.0
O1646 O 0.01117 0.55074 0.04212 0.0
O1647 O 0.04977 0.55433 0.02643 0.0
O1648 O 0.05322 0.55481 0.99658 0.0
O1649 O 0.02645 0.53448 0.99971 0.0
O1650 O 0.03721 0.55955 0.04987 0.0
O1651 O 0.00397 0.5346 0.01399 0.0
C1652 C 0.04791 0.50951 0.00202 0.0
C1653 C 0.11677 0.53249 0.01046 0.0
C1654 C 0.14463 0.52171 0.00897 0.0
C1655 C 0.12707 0.51969 0.01408 0.0
C1656 C 0.15179 0.53688 1.00038 0.0
C1657 C 0.12416 0.54757 0.00198 0.0
C1658 C 0.14162 0.54975 0.99701 0.0
C1659 C 0.06201 0.52994 0.05203 0.0
C1660 C 0.0982 0.52942 0.01509 0.0
C1661 C 0.10452 0.60273 0.9814 0.0
C1662 C 0.10954 0.61169 1.00017 0.0
C1663 C 0.04997 0.56676 0.04093 0.0
C1664 C 0.98063 0.54237 0.03132 0.0
C1665 C 0.97027 0.55551 0.02891 0.0
C1666 C 0.95222 0.55214 0.03257 0.0
C1667 C 0.94471 0.53529 0.03851 0.0
C1668 C 0.97289 0.52572 0.03728 0.0
C1669 C 0.955 0.52222 0.04083 0.0
C1670 C 0.03629 0.54675 0.99107 0.0
C1671 C 0.99947 0.54633 0.02759 0.0
H1672 H 0.12128 0.50793 0.02049 0.0
H1673 H 0.16532 0.53889 0.99644 0.0
H1674 H 0.11644 0.55754 0.99909 0.0
H1675 H 0.14727 0.56142 0.99045 0.0
H1676 H 0.97636 0.56846 0.02447 0.0
H1677 H 0.93081 0.53208 0.04116 0.0
H1678 H 0.98064 0.51546 0.03918 0.0
H1679 H 0.94906 0.5093 0.04536 0.0
H1680 H 0.0131 0.19229 0.92444 0.0
H1681 H 0.01724 0.16521 0.93787 0.0
H1682 H 0.02658 0.20055 0.99305 0.0
H1683 H 0.02262 0.22789 0.97966 0.0
H1684 H 0.04932 0.16358 0.96025 0.0
H1685 H 0.98895 0.15194 0.99895 0.0
H1686 H 0.99041 0.16468 0.97996 0.0
H1687 H 0.0022 0.17578 0.0024 0.0
C1688 C 0.01584 0.19435 0.93948 0.0
C1689 C 0.01743 0.21241 0.95091 0.0
C1690 C 0.01826 0.17877 0.94716 0.0
C1691 C 0.02209 0.18063 0.96655 0.0
C1692 C 0.0234 0.19856 0.97809 0.0
H1693 H 0.03489 0.0898 0.02882 0.0
H1694 H 0.03272 0.12082 0.02162 0.0
C1695 C 0.02117 0.21425 0.97038 0.0
C1696 C 0.02557 0.16401 0.97437 0.0
H1697 H 0.00867 0.13176 0.00103 0.0
C1698 C 0.04043 0.15668 0.96922 0.0
C1699 C 0.01422 0.15505 0.98633 0.0
C1700 C 0.99796 0.1621 0.99223 0.0
C1701 C 0.04416 0.14073 0.97547 0.0
C1702 C 0.03239 0.13116 0.98679 0.0
C1703 C 0.01776 0.13884 0.99237 0.0
C1704 C 0.0344 0.11259 0.99178 0.0
C1705 C 0.06098 0.13459 0.97005 0.0
C1706 C 0.03586 0.09734 0.97761 0.0
C1707 C 0.03743 0.07989 0.98178 0.0
C1708 C 0.03749 0.07685 1.00026 0.0
C1709 C 0.03554 0.09183 0.01454 0.0
C1710 C 0.03409 0.10953 0.01034 0.0
H1711 H 0.07134 0.14674 0.96774 0.0
H1712 H 0.06652 0.12823 0.98098 0.0
H1713 H 0.058 0.12395 0.95674 0.0
H1714 H 0.03542 0.09876 0.96311 0.0
H1715 H 0.03841 0.06853 0.97035 0.0
H1716 H 0.12529 0.82607 0.17684 0.0
H1717 H 0.15108 0.82207 0.19532 0.0
H1718 H 0.17716 0.81052 0.14498 0.0
H1719 H 0.15145 0.81483 0.12639 0.0
H1720 H 0.16474 0.79101 0.19414 0.0
H1721 H 0.21661 0.84931 0.17857 0.0
H1722 H 0.19312 0.84737 0.17302 0.0
H1723 H 0.20504 0.83302 0.15806 0.0
C1724 C 0.13659 0.82291 0.16967 0.0
C1725 C 0.13627 0.82088 0.15008 0.0
C1726 C 0.15135 0.82055 0.18029 0.0
C1727 C 0.16627 0.81618 0.17168 0.0
C1728 C 0.16605 0.81428 0.1521 0.0
H1729 H 0.24607 0.76818 0.22538 0.0
H1730 H 0.22184 0.7732 0.20521 0.0
C1731 C 0.15127 0.81667 0.14144 0.0
C1732 C 0.18162 0.81292 0.18316 0.0
H1733 H 0.22664 0.82794 0.19506 0.0
C1734 C 0.17827 0.79911 0.19432 0.0
C1735 C 0.19931 0.82358 0.18366 0.0
C1736 C 0.20377 0.83928 0.17284 0.0
C1737 C 0.192 0.7956 0.20576 0.0
C1738 C 0.20977 0.80593 0.20589 0.0
C1739 C 0.21311 0.81985 0.19487 0.0
C1740 C 0.22495 0.80288 0.21779 0.0
C1741 C 0.18723 0.78118 0.21798 0.0
C1742 C 0.2353 0.81797 0.23123 0.0
C1743 C 0.24929 0.81516 0.24269 0.0
C1744 C 0.25333 0.79717 0.24103 0.0
C1745 C 0.24325 0.78218 0.22723 0.0
C1746 C 0.22926 0.785 0.21575 0.0
H1747 H 0.1728 0.77833 0.22007 0.0
H1748 H 0.19036 0.76763 0.21116 0.0
H1749 H 0.195 0.78602 0.23191 0.0
H1750 H 0.23243 0.83195 0.23301 0.0
H1751 H 0.25701 0.82718 0.25278 0.0
H1752 H 0.52953 0.84377 0.41972 0.0
H1753 H 0.53043 0.87565 0.43663 0.0
H1754 H 0.5217 0.85479 0.48756 0.0
H1755 H 0.52076 0.82229 0.47053 0.0
H1756 H 0.50276 0.88836 0.45671 0.0
H1757 H 0.566 0.90051 0.50227 0.0
H1758 H 0.56052 0.88201 0.48147 0.0
H1759 H 0.54918 0.87933 0.50198 0.0
C1760 C 0.52786 0.84576 0.43454 0.0
C1761 C 0.5251 0.83024 0.44369 0.0
C1762 C 0.52835 0.86415 0.44422 0.0
C1763 C 0.52625 0.86778 0.46342 0.0
C1764 C 0.52357 0.85243 0.47278 0.0
H1765 H 0.54223 0.98611 0.52781 0.0
H1766 H 0.53427 0.95115 0.52082 0.0
C1767 C 0.52297 0.83383 0.463 0.0
C1768 C 0.52656 0.88768 0.47307 0.0
H1769 H 0.55272 0.92649 0.50264 0.0
C1770 C 0.51356 0.89661 0.46697 0.0
C1771 C 0.54053 0.89851 0.48656 0.0
C1772 C 0.55496 0.88975 0.49349 0.0
C1773 C 0.51449 0.91608 0.47341 0.0
C1774 C 0.52907 0.92722 0.48603 0.0
C1775 C 0.54157 0.91808 0.49292 0.0
C1776 C 0.5325 0.94848 0.49069 0.0
C1777 C 0.49988 0.92451 0.46633 0.0
C1778 C 0.5342 0.95877 0.47621 0.0
C1779 C 0.53854 0.97862 0.4802 0.0
C1780 C 0.54127 0.98884 0.49876 0.0
C1781 C 0.53964 0.97867 0.51336 0.0
C1782 C 0.53527 0.95867 0.50935 0.0
H1783 H 0.48705 0.9138 0.463 0.0
H1784 H 0.49789 0.93677 0.47672 0.0
H1785 H 0.50348 0.92941 0.45325 0.0
H1786 H 0.53272 0.95143 0.46173 0.0
H1787 H 0.54013 0.98605 0.46867 0.0
H1788 H 0.53504 0.28498 0.6774 0.0
H1789 H 0.50592 0.28452 0.68875 0.0
H1790 H 0.49506 0.32038 0.65116 0.0
H1791 H 0.5246 0.32097 0.63952 0.0
H1792 H 0.48703 0.33194 0.68923 0.0
H1793 H 0.45691 0.25606 0.66132 0.0
H1794 H 0.47849 0.25969 0.67368 0.0
H1795 H 0.47643 0.26868 0.65255 0.0
C1796 C 0.52654 0.29277 0.67139 0.0
C1797 C 0.53225 0.30302 0.65747 0.0
C1798 C 0.50977 0.29236 0.67786 0.0
C1799 C 0.49816 0.30215 0.67062 0.0
C1800 C 0.50375 0.31257 0.65683 0.0
H1801 H 0.39175 0.28056 0.71231 0.0
H1802 H 0.41455 0.28602 0.69042 0.0
C1803 C 0.52062 0.31288 0.65018 0.0
C1804 C 0.48058 0.30185 0.67827 0.0
H1805 H 0.44375 0.27116 0.68751 0.0
C1806 C 0.47738 0.31872 0.68856 0.0
C1807 C 0.46782 0.28466 0.67717 0.0
C1808 C 0.46997 0.26627 0.66541 0.0
C1809 C 0.46237 0.31863 0.69879 0.0
C1810 C 0.4504 0.30118 0.69898 0.0
C1811 C 0.45299 0.28453 0.68762 0.0
C1812 C 0.43609 0.29958 0.71199 0.0
C1813 C 0.45967 0.33723 0.70957 0.0
C1814 C 0.44053 0.30541 0.7314 0.0
C1815 C 0.42755 0.30238 0.74388 0.0
C1816 C 0.40978 0.29325 0.73732 0.0
C1817 C 0.40524 0.28778 0.71785 0.0
C1818 C 0.41829 0.29081 0.70532 0.0
H1819 H 0.46574 0.34922 0.70298 0.0
H1820 H 0.4453 0.33703 0.7105 0.0
H1821 H 0.46628 0.33992 0.72399 0.0
H1822 H 0.45419 0.3118 0.73697 0.0
H1823 H 0.43151 0.30697 0.75876 0.0
H1824 H 0.99049 0.79264 0.5906 0.0
H1825 H 0.99399 0.8136 0.56797 0.0
H1826 H 0.02681 0.85842 0.60996 0.0
H1827 H 0.02267 0.83787 0.63282 0.0
H1828 H 0.00588 0.87245 0.58988 0.0
H1829 H 0.03804 0.82489 0.54176 0.0
H1830 H 0.01589 0.81369 0.54561 0.0
H1831 H 0.03312 0.82102 0.56479 0.0
C1832 C 0.99827 0.80705 0.59504 0.0
C1833 C 0.00642 0.81359 0.61342 0.0
C1834 C 0.00041 0.81894 0.58205 0.0
C1835 C 0.0111 0.8374 0.5871 0.0
C1836 C 0.01861 0.84419 0.60569 0.0
H1837 H 0.06482 0.9067 0.51463 0.0
H1838 H 0.05548 0.88376 0.53463 0.0
C1839 C 0.01621 0.83243 0.61875 0.0
C1840 C 0.01487 0.84959 0.57305 0.0
H1841 H 0.03202 0.8516 0.53105 0.0
C1842 C 0.01158 0.86789 0.57701 0.0
C1843 C 0.02264 0.84375 0.55641 0.0
C1844 C 0.02781 0.82485 0.55195 0.0
C1845 C 0.01594 0.88057 0.56489 0.0
C1846 C 0.02311 0.87449 0.54793 0.0
C1847 C 0.02631 0.85615 0.54392 0.0
C1848 C 0.02826 0.88726 0.53462 0.0
C1849 C 0.01346 0.90056 0.57084 0.0
C1850 C 0.01593 0.89636 0.52745 0.0
C1851 C 0.02135 0.90967 0.51632 0.0
C1852 C 0.03903 0.91366 0.51171 0.0
C1853 C 0.05108 0.90373 0.51791 0.0
C1854 C 0.04576 0.8907 0.52936 0.0
H1855 H 0.01299 0.90442 0.58623 0.0
H1856 H 0.02439 0.91101 0.56669 0.0
H1857 H 0.00064 0.9017 0.56404 0.0
H1858 H 0.00222 0.89349 0.53079 0.0
H1859 H 0.01182 0.9171 0.51156 0.0
H1860 H 0.53085 0.8014 0.87353 0.0
H1861 H 0.50144 0.80367 0.86077 0.0
H1862 H 0.52671 0.84446 0.82935 0.0
H1863 H 0.5559 0.84206 0.8416 0.0
H1864 H 0.48565 0.8349 0.86217 0.0
H1865 H 0.49461 0.80356 0.78917 0.0
H1866 H 0.50895 0.80217 0.80896 0.0
H1867 H 0.51246 0.82335 0.79937 0.0
C1868 C 0.5301 0.81085 0.86391 0.0
C1869 C 0.54568 0.82133 0.85836 0.0
C1870 C 0.51333 0.81213 0.85666 0.0
C1871 C 0.51199 0.82392 0.84383 0.0
C1872 C 0.5275 0.8349 0.83886 0.0
H1873 H 0.42369 0.86845 0.80821 0.0
H1874 H 0.45121 0.86357 0.82285 0.0
C1875 C 0.54417 0.83354 0.84593 0.0
C1876 C 0.49446 0.82483 0.83541 0.0
H1877 H 0.47095 0.81991 0.79327 0.0
C1878 C 0.4823 0.83146 0.84713 0.0
C1879 C 0.49009 0.82004 0.8158 0.0
C1880 C 0.50214 0.8117 0.80261 0.0
C1881 C 0.46608 0.83406 0.83965 0.0
C1882 C 0.4622 0.8303 0.81998 0.0
C1883 C 0.4741 0.82306 0.80834 0.0
C1884 C 0.44574 0.83346 0.81109 0.0
C1885 C 0.45321 0.84065 0.85287 0.0
C1886 C 0.43398 0.81834 0.79906 0.0
C1887 C 0.41851 0.82116 0.79042 0.0
C1888 C 0.41447 0.83918 0.79368 0.0
C1889 C 0.42649 0.85444 0.80538 0.0
C1890 C 0.44205 0.85161 0.81397 0.0
H1891 H 0.45582 0.83775 0.86704 0.0
H1892 H 0.45474 0.85619 0.85429 0.0
H1893 H 0.4392 0.83362 0.84748 0.0
H1894 H 0.43672 0.80428 0.79648 0.0
H1895 H 0.40966 0.8092 0.78122 0.0
H1896 H 0.49915 0.21966 0.11549 0.0
H1897 H 0.49564 0.18745 0.0977 0.0
H1898 H 0.4952 0.16639 0.14911 0.0
H1899 H 0.49946 0.19876 0.16705 0.0
H1900 H 0.51957 0.15573 0.12928 0.0
H1901 H 0.45792 0.14009 0.08191 0.0
H1902 H 0.47186 0.16224 0.07979 0.0
H1903 H 0.46286 0.15969 0.10175 0.0
C1904 C 0.49785 0.20812 0.12299 0.0
C1905 C 0.49978 0.21173 0.14266 0.0
C1906 C 0.49567 0.18965 0.11279 0.0
C1907 C 0.49493 0.17444 0.12205 0.0
C1908 C 0.49569 0.17791 0.14168 0.0
H1909 H 0.5139 0.06301 0.07123 0.0
H1910 H 0.50175 0.08657 0.09178 0.0
C1911 C 0.49817 0.1964 0.1519 0.0
C1912 C 0.49632 0.15566 0.11149 0.0
H1913 H 0.48073 0.12307 0.07121 0.0
C1914 C 0.51076 0.14832 0.11687 0.0
C1915 C 0.48486 0.14598 0.09528 0.0
C1916 C 0.46841 0.15234 0.08949 0.0
C1917 C 0.51473 0.13229 0.10585 0.0
C1918 C 0.50395 0.1234 0.08907 0.0
C1919 C 0.48899 0.13008 0.08409 0.0
C1920 C 0.50922 0.10842 0.07569 0.0
C1921 C 0.53101 0.12559 0.11163 0.0
C1922 C 0.5172 0.11296 0.05983 0.0
C1923 C 0.52433 0.09969 0.04823 0.0
C1924 C 0.52344 0.0816 0.05221 0.0
C1925 C 0.51492 0.0769 0.06786 0.0
C1926 C 0.50786 0.09024 0.07953 0.0
H1927 H 0.53885 0.1351 0.12429 0.0
H1928 H 0.52684 0.11115 0.11467 0.0
H1929 H 0.53977 0.12469 0.10003 0.0
H1930 H 0.51855 0.12706 0.05685 0.0
H1931 H 0.5312 0.10393 0.03667 0.0
H1932 H 0.15966 0.29414 0.37245 0.0
H1933 H 0.18454 0.30354 0.35412 0.0
H1934 H 0.14829 0.31491 0.31284 0.0
H1935 H 0.12339 0.30402 0.33014 0.0
H1936 H 0.16956 0.29966 0.29558 0.0
H1937 H 0.21079 0.35469 0.35095 0.0
H1938 H 0.2065 0.333 0.35938 0.0
H1939 H 0.18819 0.34349 0.35385 0.0
C1940 C 0.15704 0.29849 0.35938 0.0
C1941 C 0.13962 0.29856 0.35288 0.0
C1942 C 0.17128 0.3042 0.34908 0.0
C1943 C 0.1684 0.31069 0.33246 0.0
C1944 C 0.15093 0.31025 0.32574 0.0
H1945 H 0.25316 0.3182 0.2546 0.0
H1946 H 0.22672 0.32777 0.26742 0.0
C1947 C 0.13668 0.30401 0.3357 0.0
C1948 C 0.18347 0.31673 0.32148 0.0
H1949 H 0.22713 0.33976 0.3267 0.0
C1950 C 0.18208 0.30873 0.30229 0.0
C1951 C 0.19948 0.32946 0.32987 0.0
C1952 C 0.2012 0.34082 0.34958 0.0
C1953 C 0.19687 0.31126 0.29188 0.0
C1954 C 0.21363 0.32148 0.30114 0.0
C1955 C 0.21445 0.33135 0.31971 0.0
C1956 C 0.23061 0.31869 0.29366 0.0
C1957 C 0.19432 0.30246 0.27129 0.0
C1958 C 0.24225 0.31177 0.30459 0.0
C1959 C 0.25743 0.30704 0.29756 0.0
C1960 C 0.26088 0.30816 0.27915 0.0
C1961 C 0.25004 0.31621 0.2685 0.0
C1962 C 0.23504 0.32169 0.27582 0.0
H1963 H 0.18176 0.29138 0.26748 0.0
H1964 H 0.19371 0.31372 0.2632 0.0
H1965 H 0.20554 0.29612 0.26686 0.0
H1966 H 0.23944 0.30966 0.31854 0.0
H1967 H 0.26646 0.30235 0.30653 0.0
H1968 H 0.98058 0.06368 0.22819 0.0
H1969 H 0.99476 0.05996 0.19884 0.0
H1970 H 0.94673 0.06445 0.16887 0.0
H1971 H 0.93226 0.06699 0.19809 0.0
H1972 H 0.95792 0.04148 0.14648 0.0
H1973 H 0.02016 0.09501 0.17093 0.0
H1974 H 0.01772 0.07683 0.18446 0.0
H1975 H 0.00194 0.0919 0.18536 0.0
C1976 C 0.973 0.064 0.21541 0.0
C1977 C 0.9551 0.06582 0.21598 0.0
C1978 C 0.9813 0.06206 0.19834 0.0
C1979 C 0.97236 0.06241 0.18095 0.0
C1980 C 0.95441 0.06414 0.18161 0.0
H1981 H 0.03306 0.07848 0.08057 0.0
H1982 H 0.01894 0.0824 0.11005 0.0
C1983 C 0.94601 0.0657 0.1986 0.0
C1984 C 0.98124 0.06041 0.1622 0.0
H1985 H 0.02004 0.07434 0.14166 0.0
C1986 C 0.97151 0.04886 0.14563 0.0
C1987 C 0.99896 0.07008 0.1601 0.0
C1988 C 0.01022 0.0843 0.1761 0.0
C1989 C 0.97867 0.04657 0.12785 0.0
C1990 C 0.99673 0.05534 0.12599 0.0
C1991 C 0.00639 0.06714 0.14248 0.0
C1992 C 0.00565 0.05284 0.10731 0.0
C1993 C 0.96625 0.03525 0.11109 0.0
C1994 C 0.00365 0.03493 0.0952 0.0
C1995 C 0.01153 0.03275 0.07794 0.0
C1996 C 0.02236 0.04824 0.07199 0.0
C1997 C 0.02488 0.06607 0.08429 0.0
C1998 C 0.01671 0.06832 0.10144 0.0
H1999 H 0.95215 0.03553 0.1133 0.0
H2000 H 0.96948 0.04075 0.09821 0.0
H2001 H 0.96732 0.02022 0.1089 0.0
H2002 H 0.99611 0.02234 0.09914 0.0
H2003 H 0.00932 0.01866 0.06935 0.0
H2004 H 0.32061 0.66575 0.45213 0.0
H2005 H 0.32184 0.68355 0.42674 0.0
H2006 H 0.29084 0.71971 0.45683 0.0
H2007 H 0.29083 0.70308 0.4825 0.0
H2008 H 0.29732 0.68514 0.40423 0.0
H2009 H 0.32341 0.75908 0.43903 0.0
H2010 H 0.32492 0.73996 0.45088 0.0
H2011 H 0.30547 0.75012 0.4518 0.0
C2012 C 0.3146 0.67792 0.45348 0.0
C2013 C 0.30576 0.68317 0.4693 0.0
C2014 C 0.31524 0.68804 0.43898 0.0
C2015 C 0.30675 0.70329 0.43995 0.0
C2016 C 0.2982 0.70862 0.45597 0.0
H2017 H 0.24196 0.72573 0.35494 0.0
H2018 H 0.25845 0.71215 0.37592 0.0
C2019 C 0.29803 0.69893 0.47063 0.0
C2020 C 0.30467 0.71216 0.42351 0.0
H2021 H 0.2999 0.75406 0.41295 0.0
C2022 C 0.2984 0.7003 0.406 0.0
C2023 C 0.30665 0.73199 0.42539 0.0
C2024 C 0.31571 0.74594 0.44278 0.0
C2025 C 0.29254 0.70755 0.39093 0.0
C2026 C 0.29194 0.72696 0.39379 0.0
C2027 C 0.29974 0.73904 0.41075 0.0
C2028 C 0.28224 0.73483 0.38013 0.0
C2029 C 0.28696 0.69419 0.37224 0.0
C2030 C 0.28959 0.75263 0.37613 0.0
C2031 C 0.27964 0.76113 0.36518 0.0
C2032 C 0.26224 0.75175 0.35731 0.0
C2033 C 0.25511 0.73366 0.36092 0.0
C2034 C 0.26481 0.72554 0.37254 0.0
H2035 H 0.29526 0.68347 0.37008 0.0
H2036 H 0.27294 0.68637 0.37199 0.0
H2037 H 0.28814 0.70183 0.36044 0.0
H2038 H 0.30293 0.76024 0.38189 0.0
H2039 H 0.28559 0.77528 0.36334 0.0
H2040 H 0.68271 0.0246 0.66828 0.0
H2041 H 0.66121 0.02351 0.64198 0.0
H2042 H 0.62507 0.97712 0.65808 0.0
H2043 H 0.64624 0.97856 0.68472 0.0
H2044 H 0.64289 0.99684 0.61153 0.0
H2045 H 0.59668 0.0182 0.66327 0.0
H2046 H 0.61956 0.01837 0.67 0.0
H2047 H 0.60304 0.99642 0.66491 0.0
C2048 C 0.67039 0.01384 0.66589 0.0
C2049 C 0.66599 1.0018 0.6786 0.0
C2050 C 0.65809 0.01328 0.65093 0.0
C2051 C 0.64137 1.00059 0.64846 0.0
C2052 C 0.6377 0.98736 0.66009 0.0
H2053 H 0.55111 0.99958 0.56842 0.0
H2054 H 0.56915 0.98985 0.59208 0.0
C2055 C 0.64985 0.98809 0.67517 0.0
C2056 C 0.6273 1.00231 0.63475 0.0
H2057 H 0.5868 0.01401 0.63141 0.0
C2058 C 0.63055 1.00039 0.61584 0.0
C2059 C 0.61125 0.00708 0.64048 0.0
C2060 C 0.60743 0.01032 0.66078 0.0
C2061 C 0.61829 1.00343 0.60253 0.0
C2062 C 0.60246 0.00854 0.60834 0.0
C2063 C 0.5989 0.00987 0.62709 0.0
C2064 C 0.59064 0.01479 0.59554 0.0
C2065 C 0.62252 1.00171 0.5824 0.0
C2066 C 0.59653 0.03229 0.59042 0.0
C2067 C 0.58636 0.03787 0.57713 0.0
C2068 C 0.57007 0.02603 0.5687 0.0
C2069 C 0.56364 0.00895 0.57466 0.0
C2070 C 0.57391 1.00335 0.58806 0.0
H2071 H 0.63319 0.99382 0.57941 0.0
H2072 H 0.61044 0.99444 0.57274 0.0
H2073 H 0.62713 0.01612 0.57942 0.0
H2074 H 0.60928 0.04142 0.59636 0.0
H2075 H 0.59158 0.05126 0.57308 0.0
H2076 H 0.31099 0.34409 0.98257 0.0
H2077 H 0.31308 0.32414 0.9521 0.0
H2078 H 0.28615 0.35862 0.92428 0.0
H2079 H 0.28407 0.37853 0.95437 0.0
H2080 H 0.27394 0.3159 0.91243 0.0
H2081 H 0.34676 0.34531 0.91209 0.0
H2082 H 0.33836 0.33735 0.93254 0.0
H2083 H 0.33314 0.3582 0.92644 0.0
C2084 C 0.30536 0.34728 0.96997 0.0
C2085 C 0.29744 0.36298 0.97092 0.0
C2086 C 0.30663 0.33592 0.95259 0.0
C2087 C 0.29986 0.34 0.93596 0.0
C2088 C 0.29147 0.35525 0.93695 0.0
H2089 H 0.30461 0.33621 0.82378 0.0
H2090 H 0.30788 0.34074 0.85788 0.0
C2091 C 0.29034 0.36665 0.9542 0.0
C2092 C 0.3019 0.32905 0.91728 0.0
H2093 H 0.33124 0.32735 0.8838 0.0
C2094 C 0.28654 0.31792 0.90627 0.0
C2095 C 0.31836 0.33184 0.90932 0.0
C2096 C 0.33517 0.34384 0.92059 0.0
C2097 C 0.28702 0.31041 0.88719 0.0
C2098 C 0.30328 0.31417 0.87895 0.0
C2099 C 0.31884 0.32437 0.89022 0.0
C2100 C 0.30361 0.31083 0.85831 0.0
C2101 C 0.26989 0.29973 0.87561 0.0
C2102 C 0.30049 0.29247 0.8472 0.0
C2103 C 0.29872 0.28986 0.82758 0.0
C2104 C 0.30014 0.30561 0.81896 0.0
C2105 C 0.30368 0.32389 0.83014 0.0
C2106 C 0.30559 0.32649 0.84959 0.0
H2107 H 0.25819 0.29896 0.88396 0.0
H2108 H 0.26749 0.30667 0.86374 0.0
H2109 H 0.271 0.28506 0.86965 0.0
H2110 H 0.29892 0.28021 0.8537 0.0
H2111 H 0.29564 0.2756 0.81922 0.0
H2112 H 0.9637 0.03103 0.32431 0.0
H2113 H 0.97587 0.02916 0.35513 0.0
H2114 H 0.97611 0.0881 0.37497 0.0
H2115 H 0.96285 0.08964 0.34397 0.0
H2116 H 0.00389 0.04047 0.375 0.0
H2117 H 0.95883 0.0732 0.42004 0.0
H2118 H 0.95454 0.06757 0.39493 0.0
H2119 H 0.9701 0.08911 0.4064 0.0
C2120 C 0.96598 0.04365 0.33525 0.0
C2121 C 0.96182 0.06045 0.33117 0.0
C2122 C 0.97323 0.04258 0.35317 0.0
C2123 C 0.97709 0.05832 0.36829 0.0
C2124 C 0.97297 0.07528 0.3643 0.0
H2125 H 0.04931 0.04959 0.46811 0.0
H2126 H 0.03803 0.05375 0.4373 0.0
C2127 C 0.96532 0.07626 0.34626 0.0
C2128 C 0.98576 0.05667 0.38753 0.0
H2129 H 0.98433 0.06764 0.43551 0.0
C2130 C 0.99939 0.04643 0.38814 0.0
C2131 C 0.9803 0.06401 0.40529 0.0
C2132 C 0.96503 0.07391 0.4067 0.0
C2133 C 0.00731 0.04333 0.40516 0.0
C2134 C 0.00226 0.0512 0.42295 0.0
C2135 C 0.98869 0.06151 0.42235 0.0
C2136 C 0.00997 0.04827 0.44209 0.0
C2137 C 0.02055 0.03081 0.4036 0.0
C2138 C 0.99862 0.04421 0.45614 0.0
C2139 C 0.00523 0.04222 0.47401 0.0
C2140 C 0.02356 0.04382 0.47894 0.0
C2141 C 0.03509 0.0477 0.46498 0.0
C2142 C 0.02846 0.05001 0.44706 0.0
H2143 H 0.01864 0.02107 0.38971 0.0
H2144 H 0.03425 0.03981 0.40517 0.0
H2145 H 0.01942 0.02213 0.41457 0.0
H2146 H 0.98439 0.04262 0.45339 0.0
H2147 H 0.99578 0.03951 0.48421 0.0
H2148 H 0.30171 0.69749 0.56335 0.0
H2149 H 0.301 0.72111 0.59166 0.0
H2150 H 0.26002 0.68098 0.61043 0.0
H2151 H 0.26071 0.65727 0.58246 0.0
H2152 H 0.27027 0.73573 0.60865 0.0
H2153 H 0.30382 0.69544 0.65112 0.0
H2154 H 0.30379 0.69187 0.62597 0.0
H2155 H 0.28437 0.68168 0.63634 0.0
C2156 C 0.2925 0.69372 0.57348 0.0
C2157 C 0.28149 0.6754 0.57083 0.0
C2158 C 0.29204 0.70726 0.58953 0.0
C2159 C 0.28055 0.70265 0.60307 0.0
C2160 C 0.26907 0.68467 0.60013 0.0
H2161 H 0.26741 0.74348 0.71625 0.0
H2162 H 0.26311 0.7283 0.68342 0.0
C2163 C 0.26958 0.67113 0.5842 0.0
C2164 C 0.28151 0.71592 0.62105 0.0
H2165 H 0.2926 0.72051 0.66765 0.0
C2166 C 0.27523 0.73256 0.6216 0.0
C2167 C 0.28812 0.71168 0.63777 0.0
C2168 C 0.29556 0.69429 0.63786 0.0
C2169 C 0.27472 0.74477 0.63874 0.0
C2170 C 0.2809 0.7402 0.6555 0.0
C2171 C 0.28768 0.72385 0.65476 0.0
C2172 C 0.28017 0.75159 0.67424 0.0
C2173 C 0.26711 0.76205 0.63886 0.0
C2174 C 0.29042 0.77019 0.67982 0.0
C2175 C 0.29265 0.77914 0.69872 0.0
C2176 C 0.28522 0.76931 0.71226 0.0
C2177 C 0.27379 0.75131 0.70632 0.0
C2178 C 0.27124 0.7426 0.6875 0.0
H2179 H 0.25921 0.76117 0.62543 0.0
H2180 H 0.25849 0.76395 0.65048 0.0
H2181 H 0.27819 0.77482 0.64101 0.0
H2182 H 0.29749 0.77736 0.66981 0.0
H2183 H 0.30086 0.79333 0.70276 0.0
H2184 H 0.67588 0.03058 0.79699 0.0
H2185 H 0.66479 0.0352 0.82807 0.0
H2186 H 0.61123 0.02598 0.80229 0.0
H2187 H 0.62209 0.02143 0.77137 0.0
H2188 H 0.6459 0.06458 0.84001 0.0
H2189 H 0.60614 0.99333 0.8431 0.0
H2190 H 0.62354 0.99697 0.82758 0.0
H2191 H 0.60177 1.00052 0.82143 0.0
C2192 C 0.6617 0.02918 0.79797 0.0
C2193 C 0.64985 0.02575 0.78178 0.0
C2194 C 0.65542 0.03183 0.81569 0.0
C2195 C 0.63721 0.0307 0.81738 0.0
C2196 C 0.6253 0.02657 0.80123 0.0
H2197 H 0.56009 0.0582 0.88823 0.0
H2198 H 0.57855 0.04835 0.86368 0.0
C2199 C 0.63156 0.02412 0.78359 0.0
C2200 C 0.63061 0.03582 0.8358 0.0
H2201 H 0.59863 0.01983 0.8632 0.0
C2202 C 0.63586 0.05474 0.84539 0.0
C2203 C 0.61752 0.0229 0.84263 0.0
C2204 C 0.61202 1.00224 0.83325 0.0
C2205 C 0.62743 0.06143 0.861 0.0
C2206 C 0.61366 0.04871 0.86722 0.0
C2207 C 0.60912 0.02955 0.85824 0.0
C2208 C 0.60289 0.05524 0.88215 0.0
C2209 C 0.63257 0.08222 0.87002 0.0
C2210 C 0.61056 0.06246 0.90057 0.0
C2211 C 0.6001 0.0683 0.91458 0.0
C2212 C 0.58178 0.06686 0.91036 0.0
C2213 C 0.5742 0.05974 0.89184 0.0
C2214 C 0.58467 0.05395 0.87786 0.0
H2215 H 0.64118 0.0907 0.86145 0.0
H2216 H 0.6205 0.08804 0.87227 0.0
H2217 H 0.64 0.08398 0.88389 0.0
H2218 H 0.62458 0.06338 0.90415 0.0
H2219 H 0.60632 0.07385 0.92872 0.0
H2220 H 0.31933 0.38858 0.10229 0.0
H2221 H 0.3191 0.37494 0.13038 0.0
H2222 H 0.28526 0.32278 0.09951 0.0
H2223 H 0.28571 0.33623 0.07118 0.0
H2224 H 0.29042 0.36262 0.14883 0.0
H2225 H 0.32369 0.30357 0.12533 0.0
H2226 H 0.324 0.32262 0.11284 0.0
H2227 H 0.30463 0.30348 0.11009 0.0
C2228 C 0.31197 0.37413 0.1014 0.0
C2229 C 0.30257 0.36347 0.08446 0.0
C2230 C 0.31184 0.36636 0.1175 0.0
C2231 C 0.30233 0.34776 0.11704 0.0
C2232 C 0.293 0.33702 0.10012 0.0
H2233 H 0.2677 0.29857 0.21218 0.0
H2234 H 0.26955 0.31094 0.18328 0.0
C2235 C 0.2932 0.34476 0.08396 0.0
C2236 C 0.30155 0.34004 0.13451 0.0
H2237 H 0.31074 0.30406 0.15428 0.0
C2238 C 0.2949 0.34984 0.15001 0.0
C2239 C 0.30755 0.32344 0.13613 0.0
C2240 C 0.31553 0.31274 0.12028 0.0
C2241 C 0.29386 0.34337 0.16695 0.0
C2242 C 0.29946 0.32657 0.1684 0.0
C2243 C 0.30633 0.31688 0.15304 0.0
C2244 C 0.29836 0.31893 0.18584 0.0
C2245 C 0.28699 0.35465 0.18329 0.0
C2246 C 0.31394 0.31926 0.19681 0.0
C2247 C 0.31292 0.31213 0.2133 0.0
C2248 C 0.29629 0.30423 0.21898 0.0
C2249 C 0.28071 0.30405 0.20799 0.0
C2250 C 0.28174 0.31131 0.19156 0.0
H2251 H 0.28627 0.369 0.18103 0.0
H2252 H 0.27341 0.34702 0.18531 0.0
H2253 H 0.29567 0.35618 0.19636 0.0
H2254 H 0.3269 0.32515 0.19266 0.0
H2255 H 0.32519 0.31259 0.22146 0.0
H2256 H 0.23937 0.93469 0.02356 0.0
H2257 H 0.21656 0.95358 0.02732 0.0
H2258 H 0.25563 1.00338 0.02228 0.0
H2259 H 0.27841 0.98478 0.01867 0.0
H2260 H 0.2218 0.98804 0.0578 0.0
H2261 H 0.21056 1.00202 0.98635 0.0
H2262 H 0.21909 0.98197 0.99064 0.0
H2263 H 0.23346 0.00523 0.99516 0.0
C2264 C 0.24299 0.9496 0.02298 0.0
C2265 C 0.26065 0.95833 0.02096 0.0
C2266 C 0.23 0.96033 0.02513 0.0
C2267 C 0.23447 0.97977 0.02493 0.0
C2268 C 0.25193 0.98833 0.02224 0.0
H2269 H 0.18212 0.0738 0.04037 0.0
H2270 H 0.20379 0.05367 0.03579 0.0
C2271 C 0.26492 0.97771 0.0203 0.0
C2272 C 0.22146 0.99165 0.02921 0.0
H2273 H 0.19882 0.02026 0.01094 0.0
C2274 C 0.2166 0.99498 0.04756 0.0
C2275 C 0.21499 1.00077 0.01581 0.0
C2276 C 0.21964 0.99727 0.99582 0.0
C2277 C 0.20572 0.00768 0.05306 0.0
C2278 C 0.19922 0.01687 0.03966 0.0
C2279 C 0.20395 0.01332 0.02122 0.0
C2280 C 0.18699 0.02972 0.04426 0.0
C2281 C 0.20176 0.01151 0.07328 0.0
C2282 C 0.17057 0.02303 0.05084 0.0
C2283 C 0.15839 0.03457 0.05378 0.0
C2284 C 0.16221 0.0529 0.04979 0.0
C2285 C 0.17889 0.05982 0.04373 0.0
C2286 C 0.19118 0.04828 0.04095 0.0
H2287 H 0.21206 0.00832 0.08262 0.0
H2288 H 0.20096 0.02651 0.07806 0.0
H2289 H 0.18877 1.00224 0.07479 0.0
H2290 H 0.1669 0.00865 0.05314 0.0
H2291 H 0.14571 0.02891 0.05867 0.0
H2292 H 0.74316 0.62342 0.98447 0.0
H2293 H 0.71305 0.60388 0.98286 0.0
H2294 H 0.69246 0.65438 0.99656 0.0
H2295 H 0.72251 0.67404 0.9978 0.0
H2296 H 0.6927 0.60285 0.01169 0.0
H2297 H 0.65681 0.62311 0.95371 0.0
H2298 H 0.68084 0.62871 0.95761 0.0
H2299 H 0.66809 0.64319 0.97122 0.0
C2300 C 0.73219 0.63038 0.98686 0.0
C2301 C 0.73522 0.65028 0.9913 0.0
C2302 C 0.71498 0.61919 0.98592 0.0
C2303 C 0.70046 0.62765 0.98938 0.0
C2304 C 0.70338 0.64753 0.99341 0.0
H2305 H 0.60332 0.58429 0.03385 0.0
H2306 H 0.63243 0.60084 0.02714 0.0
C2307 C 0.7206 0.65875 0.99425 0.0
C2308 C 0.68259 0.6157 0.99043 0.0
H2309 H 0.63867 0.60677 0.97403 0.0
C2310 C 0.68093 0.60357 0.0033 0.0
C2311 C 0.66725 0.61647 0.97933 0.0
C2312 C 0.66832 0.62843 0.96455 0.0
C2313 C 0.6643 0.5927 0.00585 0.0
C2314 C 0.64887 0.59423 0.99547 0.0
C2315 C 0.65054 0.6058 0.9821 0.0
C2316 C 0.63087 0.58452 0.999 0.0
C2317 C 0.66335 0.57972 0.01971 0.0
C2318 C 0.62014 0.57019 0.98518 0.0
C2319 C 0.60339 0.56066 0.98895 0.0
C2320 C 0.59711 0.5654 0.00658 0.0
C2321 C 0.60775 0.58014 0.02017 0.0
C2322 C 0.62445 0.5896 0.01641 0.0
H2323 H 0.67649 0.57645 0.02283 0.0
H2324 H 0.65917 0.58675 0.03302 0.0
H2325 H 0.65342 0.5662 0.01439 0.0
H2326 H 0.62483 0.56619 0.9716 0.0
H2327 H 0.5954 0.54958 0.97807 0.0
H2328 H 0.6762 0.43273 0.26038 0.0
H2329 H 0.69162 0.4068 0.26133 0.0
H2330 H 0.74218 0.44676 0.26849 0.0
H2331 H 0.72679 0.47267 0.26773 0.0
H2332 H 0.71365 0.38953 0.2413 0.0
H2333 H 0.75248 0.42097 0.30956 0.0
H2334 H 0.73495 0.43087 0.30096 0.0
H2335 H 0.75682 0.43609 0.29291 0.0
C2336 C 0.69062 0.43617 0.26224 0.0
C2337 C 0.69993 0.45534 0.26409 0.0
C2338 C 0.6996 0.42107 0.26275 0.0
C2339 C 0.71846 0.42418 0.26539 0.0
C2340 C 0.72776 0.44334 0.26697 0.0
H2341 H 0.77589 0.32605 0.24378 0.0
H2342 H 0.76276 0.35331 0.2405 0.0
C2343 C 0.71879 0.45842 0.26637 0.0
C2344 C 0.72816 0.40764 0.26631 0.0
H2345 H 0.76002 0.3936 0.29232 0.0
C2346 C 0.7238 0.39063 0.25253 0.0
C2347 C 0.74149 0.40814 0.28089 0.0
C2348 C 0.74662 0.42489 0.29703 0.0
C2349 C 0.73215 0.37492 0.25276 0.0
C2350 C 0.74576 0.3756 0.26713 0.0
C2351 C 0.74995 0.39252 0.28101 0.0
C2352 C 0.75489 0.3588 0.26878 0.0
C2353 C 0.72575 0.35734 0.23774 0.0
C2354 C 0.75597 0.35237 0.28583 0.0
C2355 C 0.76368 0.33678 0.28772 0.0
C2356 C 0.77125 0.32673 0.27287 0.0
C2357 C 0.77057 0.33324 0.25578 0.0
C2358 C 0.76268 0.34891 0.25383 0.0
H2359 H 0.71234 0.35679 0.231 0.0
H2360 H 0.73516 0.35736 0.22673 0.0
H2361 H 0.72514 0.34432 0.24352 0.0
H2362 H 0.75037 0.3592 0.29783 0.0
H2363 H 0.76359 0.33241 0.3011 0.0
H2364 H 0.85674 0.48502 0.50877 0.0
H2365 H 0.88905 0.49307 0.50805 0.0
H2366 H 0.89417 0.44955 0.53889 0.0
H2367 H 0.86184 0.44142 0.53985 0.0
H2368 H 0.91871 0.48513 0.55174 0.0
H2369 H 0.91685 0.45915 0.47498 0.0
H2370 H 0.90314 0.47574 0.48179 0.0
H2371 H 0.898 0.45287 0.48809 0.0
C2372 C 0.86471 0.47721 0.51551 0.0
C2373 C 0.85671 0.46246 0.52424 0.0
C2374 C 0.88315 0.48176 0.51496 0.0
C2375 C 0.89384 0.4716 0.52306 0.0
C2376 C 0.88603 0.45738 0.5324 0.0
H2377 H 0.00657 0.47384 0.51332 0.0
H2378 H 0.97401 0.46325 0.51279 0.0
C2379 C 0.86758 0.4528 0.53296 0.0
C2380 C 0.91324 0.47589 0.52185 0.0
H2381 H 0.94494 0.47621 0.49085 0.0
C2382 C 0.92448 0.48307 0.53846 0.0
C2383 C 0.92061 0.47299 0.50447 0.0
C2384 C 0.90906 0.46461 0.4863 0.0
C2385 C 0.943 0.48792 0.53811 0.0
C2386 C 0.95031 0.48557 0.52071 0.0
C2387 C 0.93915 0.47798 0.50412 0.0
C2388 C 0.96955 0.49168 0.51954 0.0
C2389 C 0.95465 0.49567 0.55631 0.0
C2390 C 0.97751 0.51106 0.52324 0.0
C2391 C 0.99589 0.51704 0.52355 0.0
C2392 C 0.00656 0.50375 0.5198 0.0
C2393 C 0.99853 0.48431 0.51593 0.0
C2394 C 0.98005 0.47829 0.5156 0.0
H2395 H 0.94726 0.49317 0.56862 0.0
H2396 H 0.96637 0.48911 0.55647 0.0
H2397 H 0.95967 0.51119 0.55773 0.0
H2398 H 0.96953 0.52153 0.52633 0.0
H2399 H 0.00167 0.53204 0.52729 0.0
H2400 H 0.3617 0.07812 0.31735 0.0
H2401 H 0.34326 0.10154 0.31849 0.0
H2402 H 0.388 0.14234 0.30644 0.0
H2403 H 0.40665 0.11937 0.30605 0.0
H2404 H 0.36311 0.15934 0.3268 0.0
H2405 H 0.33177 0.10452 0.26386 0.0
H2406 H 0.3308 0.09686 0.28582 0.0
H2407 H 0.35196 0.10339 0.27668 0.0
C2408 C 0.36775 0.09231 0.31563 0.0
C2409 C 0.38541 0.09679 0.31102 0.0
C2410 C 0.35723 0.10567 0.31635 0.0
C2411 C 0.36418 0.1234 0.31197 0.0
C2412 C 0.38239 0.12866 0.30973 0.0
H2413 H 0.32511 0.18083 0.23611 0.0
H2414 H 0.34255 0.1672 0.25663 0.0
C2415 C 0.39299 0.11546 0.30937 0.0
C2416 C 0.35214 0.13452 0.30546 0.0
H2417 H 0.3229 0.13318 0.26833 0.0
C2418 C 0.35406 0.1536 0.31422 0.0
C2419 C 0.34063 0.12698 0.2888 0.0
C2420 C 0.3387 0.10688 0.27811 0.0
C2421 C 0.34504 0.16549 0.30641 0.0
C2422 C 0.33397 0.15797 0.28955 0.0
C2423 C 0.33152 0.13878 0.28126 0.0
C2424 C 0.32559 0.16976 0.27928 0.0
C2425 C 0.34798 0.18614 0.31559 0.0
C2426 C 0.31057 0.17602 0.2855 0.0
C2427 C 0.30053 0.18367 0.27375 0.0
C2428 C 0.30535 0.185 0.25562 0.0
C2429 C 0.32096 0.17967 0.24988 0.0
C2430 C 0.331 0.17208 0.26163 0.0
H2431 H 0.35816 0.19013 0.32782 0.0
H2432 H 0.35226 0.19518 0.3053 0.0
H2433 H 0.33525 0.18916 0.32038 0.0
H2434 H 0.30608 0.17402 0.29896 0.0
H2435 H 0.28846 0.18756 0.27846 0.0
H2436 H 0.32941 0.1341 0.53957 0.0
H2437 H 0.35673 0.12259 0.53945 0.0
H2438 H 0.37413 0.15289 0.49606 0.0
H2439 H 0.34646 0.16457 0.496 0.0
H2440 H 0.37653 0.11446 0.48857 0.0
H2441 H 0.4079 0.15023 0.55938 0.0
H2442 H 0.38501 0.13875 0.55989 0.0
H2443 H 0.39044 0.15807 0.5477 0.0
C2444 C 0.33907 0.13853 0.53008 0.0
C2445 C 0.33571 0.15025 0.51775 0.0
C2446 C 0.35478 0.13203 0.53015 0.0
C2447 C 0.36759 0.1371 0.51795 0.0
C2448 C 0.36446 0.14896 0.50571 0.0
H2449 H 0.46265 0.09198 0.53498 0.0
H2450 H 0.44453 0.11425 0.52919 0.0
C2451 C 0.34869 0.15565 0.50572 0.0
C2452 C 0.38349 0.12872 0.51737 0.0
H2453 H 0.4163 0.12101 0.54615 0.0
C2454 C 0.3855 0.11618 0.50103 0.0
C2455 C 0.39539 0.13122 0.53349 0.0
C2456 C 0.39471 0.14546 0.55104 0.0
C2457 C 0.39825 0.10504 0.50083 0.0
C2458 C 0.409 0.10623 0.51752 0.0
C2459 C 0.40788 0.11982 0.53343 0.0
C2460 C 0.42049 0.09264 0.51929 0.0
C2461 C 0.39983 0.09189 0.48282 0.0
C2462 C 0.41303 0.07305 0.51568 0.0
C2463 C 0.4234 0.06026 0.51878 0.0
C2464 C 0.44142 0.06677 0.52583 0.0
C2465 C 0.4489 0.0864 0.5293 0.0
C2466 C 0.43853 0.09919 0.52609 0.0
H2467 H 0.39583 0.09742 0.47046 0.0
H2468 H 0.41364 0.08985 0.48182 0.0
H2469 H 0.39075 0.07788 0.48221 0.0
H2470 H 0.39904 0.06764 0.5109 0.0
H2471 H 0.41722 0.04526 0.51575 0.0
H2472 H 0.72239 0.5676 0.2742 0.0
H2473 H 0.74113 0.59986 0.27659 0.0
H2474 H 0.694 0.621 0.26791 0.0
H2475 H 0.67554 0.58959 0.26594 0.0
H2476 H 0.74693 0.62541 0.25308 0.0
H2477 H 0.71682 0.65888 0.31356 0.0
H2478 H 0.71277 0.63347 0.3061 0.0
H2479 H 0.70003 0.64694 0.29484 0.0
C2480 C 0.71601 0.57914 0.27297 0.0
C2481 C 0.69722 0.57559 0.27006 0.0
C2482 C 0.72679 0.59772 0.27428 0.0
C2483 C 0.71916 0.6134 0.27291 0.0
C2484 C 0.70049 0.60966 0.26966 0.0
H2485 H 0.74974 0.73124 0.25888 0.0
H2486 H 0.73556 0.69835 0.25966 0.0
C2487 C 0.68983 0.59134 0.26838 0.0
C2488 C 0.73028 0.63356 0.27448 0.0
H2489 H 0.7328 0.6801 0.29562 0.0
C2490 C 0.74395 0.63726 0.26262 0.0
C2491 C 0.72674 0.64946 0.2869 0.0
C2492 C 0.71343 0.64699 0.3012 0.0
C2493 C 0.75342 0.65604 0.26233 0.0
C2494 C 0.74931 0.67188 0.27417 0.0
C2495 C 0.73598 0.66819 0.28633 0.0
C2496 C 0.75835 0.6923 0.27382 0.0
C2497 C 0.76747 0.65896 0.24889 0.0
C2498 C 0.77597 0.70045 0.2818 0.0
C2499 C 0.78414 0.71958 0.28165 0.0
C2500 C 0.77511 0.73123 0.27324 0.0
C2501 C 0.75739 0.72299 0.26541 0.0
C2502 C 0.74917 0.70399 0.26581 0.0
H2503 H 0.76821 0.64549 0.23948 0.0
H2504 H 0.76467 0.66912 0.24024 0.0
H2505 H 0.78068 0.66524 0.2569 0.0
H2506 H 0.78342 0.69204 0.28835 0.0
H2507 H 0.79753 0.72524 0.28829 0.0
H2508 H 0.86398 0.49552 0.79424 0.0
H2509 H 0.84473 0.46361 0.78985 0.0
H2510 H 0.88334 0.44052 0.75786 0.0
H2511 H 0.90267 0.47212 0.76211 0.0
H2512 H 0.83956 0.43096 0.74433 0.0
H2513 H 0.8649 0.41754 0.81239 0.0
H2514 H 0.86143 0.44062 0.81033 0.0
H2515 H 0.87951 0.43229 0.79974 0.0
C2516 C 0.86837 0.48366 0.78624 0.0
C2517 C 0.8849 0.48637 0.77857 0.0
C2518 C 0.85733 0.46551 0.78371 0.0
C2519 C 0.86268 0.44989 0.77348 0.0
C2520 C 0.87902 0.45252 0.7657 0.0
H2521 H 0.8409 0.33021 0.75978 0.0
H2522 H 0.85282 0.36439 0.76406 0.0
C2523 C 0.89006 0.47058 0.76823 0.0
C2524 C 0.85172 0.43054 0.77138 0.0
H2525 H 0.84728 0.39162 0.79108 0.0
C2526 C 0.8408 0.42237 0.75469 0.0
C2527 C 0.85372 0.41952 0.78487 0.0
C2528 C 0.86549 0.42781 0.80291 0.0
C2529 C 0.83215 0.40308 0.75088 0.0
C2530 C 0.83445 0.3919 0.76426 0.0
C2531 C 0.84516 0.40029 0.78108 0.0
C2532 C 0.82698 0.37121 0.7607 0.0
C2533 C 0.82152 0.39464 0.73218 0.0
C2534 C 0.80853 0.36367 0.75709 0.0
C2535 C 0.80178 0.34409 0.75439 0.0
C2536 C 0.81335 0.33203 0.75607 0.0
C2537 C 0.83176 0.33946 0.75911 0.0
C2538 C 0.83853 0.35891 0.7615 0.0
H2539 H 0.8247 0.40394 0.72186 0.0
H2540 H 0.82406 0.38051 0.7263 0.0
H2541 H 0.8071 0.39281 0.73403 0.0
H2542 H 0.79935 0.37291 0.75667 0.0
H2543 H 0.78756 0.33843 0.75145 0.0
H2544 H 0.07557 0.88202 0.11717 0.0
H2545 H 0.07178 0.90899 0.10346 0.0
H2546 H 0.07685 0.87777 0.04866 0.0
H2547 H 0.08048 0.85053 0.06233 0.0
H2548 H 0.09442 0.93071 0.08436 0.0
H2549 H 0.0321 0.89658 0.03831 0.0
H2550 H 0.04013 0.88591 0.05644 0.0
H2551 H 0.05009 0.88467 0.03464 0.0
C2552 C 0.07581 0.88077 0.10217 0.0
C2553 C 0.07829 0.86393 0.09091 0.0
C2554 C 0.07364 0.8963 0.09431 0.0
C2555 C 0.07374 0.89553 0.0749 0.0
C2556 C 0.0763 0.87875 0.06359 0.0
H2557 H 0.06269 0.98741 0.01288 0.0
H2558 H 0.06748 0.95707 0.01987 0.0
C2559 C 0.07852 0.86316 0.07147 0.0
C2560 C 0.07173 0.91255 0.06687 0.0
H2561 H 0.04526 0.92825 0.03674 0.0
C2562 C 0.08368 0.93006 0.0739 0.0
C2563 C 0.05783 0.91193 0.05304 0.0
C2564 C 0.04419 0.89383 0.04523 0.0
C2565 C 0.08204 0.94678 0.06778 0.0
C2566 C 0.06783 0.94632 0.05442 0.0
C2567 C 0.05617 0.92873 0.04693 0.0
C2568 C 0.06415 0.9642 0.04944 0.0
C2569 C 0.09562 0.96491 0.07575 0.0
C2570 C 0.06031 0.97821 0.0635 0.0
C2571 C 0.05753 0.99533 0.05952 0.0
C2572 C 0.05815 0.99897 0.04127 0.0
C2573 C 0.0618 0.98493 0.027 0.0
C2574 C 0.06461 0.96762 0.03103 0.0
H2575 H 0.10831 0.96201 0.0811 0.0
H2576 H 0.09851 0.97385 0.06509 0.0
H2577 H 0.09031 0.9731 0.08765 0.0
H2578 H 0.05957 0.97596 0.07771 0.0
H2579 H 0.05488 0.00586 0.07086 0.0
H2580 H 0.9691 0.25812 0.85369 0.0
H2581 H 0.93912 0.25763 0.84103 0.0
H2582 H 0.92162 0.26255 0.89651 0.0
H2583 H 0.952 0.26308 0.90944 0.0
H2584 H 0.9053 0.23341 0.84283 0.0
H2585 H 0.90839 0.30825 0.87729 0.0
H2586 H 0.92809 0.29866 0.87538 0.0
H2587 H 0.91271 0.29229 0.89199 0.0
C2588 C 0.95887 0.25885 0.86327 0.0
C2589 C 0.96306 0.26068 0.88264 0.0
C2590 C 0.94166 0.25858 0.85595 0.0
C2591 C 0.92807 0.26037 0.86776 0.0
C2592 C 0.93192 0.26144 0.88709 0.0
H2593 H 0.82445 0.28321 0.83187 0.0
H2594 H 0.84895 0.27725 0.85107 0.0
C2595 C 0.94924 0.26151 0.89447 0.0
C2596 C 0.91022 0.26162 0.85952 0.0
H2597 H 0.88342 0.29277 0.85616 0.0
C2598 C 0.90042 0.24633 0.84592 0.0
C2599 C 0.90371 0.27842 0.86352 0.0
C2600 C 0.91374 0.29544 0.87775 0.0
C2601 C 0.88459 0.24744 0.83604 0.0
C2602 C 0.87853 0.26459 0.83931 0.0
C2603 C 0.88798 0.27965 0.85345 0.0
C2604 C 0.86306 0.2675 0.82763 0.0
C2605 C 0.87449 0.23008 0.82224 0.0
C2606 C 0.86267 0.26419 0.80798 0.0
C2607 C 0.84855 0.26733 0.79697 0.0
C2608 C 0.83452 0.27428 0.80526 0.0
C2609 C 0.83496 0.27779 0.82495 0.0
C2610 C 0.84902 0.27442 0.83597 0.0
H2611 H 0.87685 0.21688 0.82622 0.0
H2612 H 0.85993 0.22934 0.82125 0.0
H2613 H 0.87926 0.23052 0.80821 0.0
H2614 H 0.87352 0.25952 0.80107 0.0
H2615 H 0.84895 0.26476 0.78192 0.0
H2616 H 0.57618 0.25462 0.56858 0.0
H2617 H 0.57097 0.22171 0.55057 0.0
H2618 H 0.56425 0.20071 0.60167 0.0
H2619 H 0.56946 0.23298 0.61952 0.0
H2620 H 0.59144 0.192 0.55765 0.0
H2621 H 0.51918 0.17116 0.5651 0.0
H2622 H 0.53087 0.1956 0.56735 0.0
H2623 H 0.53233 0.18361 0.58652 0.0
C2624 C 0.57342 0.24295 0.5759 0.0
C2625 C 0.57327 0.24653 0.59553 0.0
C2626 C 0.57053 0.22417 0.56562 0.0
C2627 C 0.56708 0.2087 0.57477 0.0
C2628 C 0.5667 0.21233 0.59426 0.0
H2629 H 0.55505 0.09251 0.57249 0.0
H2630 H 0.55998 0.12706 0.57749 0.0
C2631 C 0.56977 0.2309 0.60447 0.0
C2632 C 0.56428 0.18861 0.56451 0.0
H2633 H 0.53453 0.14584 0.55848 0.0
C2634 C 0.57886 0.18196 0.5573 0.0
C2635 C 0.54791 0.17544 0.56419 0.0
C2636 C 0.53161 0.18179 0.57104 0.0
C2637 C 0.57777 0.16239 0.55091 0.0
C2638 C 0.56172 0.14917 0.55168 0.0
C2639 C 0.54688 0.15594 0.55793 0.0
C2640 C 0.56049 0.12826 0.54815 0.0
C2641 C 0.59415 0.15582 0.54473 0.0
C2642 C 0.55935 0.11734 0.52995 0.0
C2643 C 0.55648 0.09742 0.52703 0.0
C2644 C 0.55488 0.08817 0.54232 0.0
C2645 C 0.55643 0.09924 0.56047 0.0
C2646 C 0.55921 0.11899 0.56334 0.0
H2647 H 0.60549 0.16785 0.54434 0.0
H2648 H 0.59821 0.14733 0.55458 0.0
H2649 H 0.59114 0.14656 0.53059 0.0
H2650 H 0.56011 0.12414 0.51798 0.0
H2651 H 0.55493 0.08927 0.51286 0.0
H2652 H 0.58701 0.78021 0.41771 0.0
H2653 H 0.6135 0.78418 0.40024 0.0
H2654 H 0.5808 0.75617 0.34901 0.0
H2655 H 0.55435 0.75234 0.36625 0.0
H2656 H 0.62877 0.75748 0.37703 0.0
H2657 H 0.60638 0.80659 0.33683 0.0
H2658 H 0.59625 0.8008 0.35739 0.0
H2659 H 0.59021 0.78473 0.33512 0.0
C2660 C 0.58547 0.77487 0.40273 0.0
C2661 C 0.5685 0.76611 0.39337 0.0
C2662 C 0.60064 0.77712 0.39277 0.0
C2663 C 0.59913 0.77078 0.37325 0.0
C2664 C 0.58228 0.76155 0.36399 0.0
H2665 H 0.66357 0.76759 0.28085 0.0
H2666 H 0.64091 0.76397 0.30286 0.0
C2667 C 0.56715 0.75929 0.37391 0.0
C2668 C 0.61502 0.77392 0.3624 0.0
H2669 H 0.63077 0.79378 0.32601 0.0
C2670 C 0.62931 0.76557 0.36599 0.0
C2671 C 0.61581 0.7846 0.34808 0.0
C2672 C 0.60143 0.79486 0.34421 0.0
C2673 C 0.64397 0.76691 0.3551 0.0
C2674 C 0.64444 0.77708 0.34037 0.0
C2675 C 0.63037 0.78586 0.33718 0.0
C2676 C 0.65887 0.77814 0.32747 0.0
C2677 C 0.65849 0.75686 0.35896 0.0
C2678 C 0.67668 0.78713 0.33394 0.0
C2679 C 0.68977 0.78928 0.32128 0.0
C2680 C 0.68525 0.78264 0.3019 0.0
C2681 C 0.6675 0.77317 0.29561 0.0
C2682 C 0.65451 0.77102 0.30821 0.0
H2683 H 0.65436 0.74646 0.36805 0.0
H2684 H 0.66234 0.74935 0.34568 0.0
H2685 H 0.67044 0.76747 0.36619 0.0
H2686 H 0.68036 0.79302 0.34869 0.0
H2687 H 0.70325 0.79679 0.32659 0.0
H2688 H 0.0655 0.23934 0.40275 0.0
H2689 H 0.05759 0.21748 0.42411 0.0
H2690 H 0.08708 0.25998 0.47019 0.0
H2691 H 0.0949 0.28195 0.44904 0.0
H2692 H 0.0812 0.20427 0.44627 0.0
H2693 H 0.03873 0.24314 0.49021 0.0
H2694 H 0.04458 0.24815 0.46773 0.0
H2695 H 0.06032 0.25721 0.48808 0.0
C2696 C 0.07019 0.24407 0.41745 0.0
C2697 C 0.08078 0.26239 0.42421 0.0
C2698 C 0.06567 0.23157 0.42963 0.0
C2699 C 0.07152 0.23722 0.44877 0.0
C2700 C 0.08211 0.25548 0.45554 0.0
H2701 H 0.06719 0.18153 0.54385 0.0
H2702 H 0.0719 0.20422 0.52288 0.0
C2703 C 0.08665 0.26797 0.4434 0.0
C2704 C 0.06726 0.22375 0.46153 0.0
H2705 H 0.04691 0.2173 0.50108 0.0
C2706 C 0.07359 0.20703 0.45818 0.0
C2707 C 0.05741 0.22748 0.4771 0.0
C2708 C 0.04972 0.24488 0.48096 0.0
C2709 C 0.07064 0.19407 0.47019 0.0
C2710 C 0.06082 0.1978 0.48577 0.0
C2711 C 0.05445 0.21451 0.48912 0.0
C2712 C 0.05703 0.18446 0.49872 0.0
C2713 C 0.07842 0.17671 0.46635 0.0
C2714 C 0.04669 0.16605 0.49219 0.0
C2715 C 0.04392 0.15312 0.50411 0.0
C2716 C 0.05138 0.15838 0.52285 0.0
C2717 C 0.06118 0.17707 0.52954 0.0
C2718 C 0.06395 0.19002 0.51757 0.0
H2719 H 0.08913 0.17828 0.45675 0.0
H2720 H 0.08395 0.17377 0.47957 0.0
H2721 H 0.06775 0.16424 0.45967 0.0
H2722 H 0.0409 0.16163 0.47779 0.0
H2723 H 0.036 0.13895 0.49863 0.0
H2724 H 0.5733 0.26568 0.14783 0.0
H2725 H 0.59842 0.25465 0.16037 0.0
H2726 H 0.58904 0.27866 0.21651 0.0
H2727 H 0.56389 0.2896 0.20419 0.0
H2728 H 0.62972 0.27474 0.18434 0.0
H2729 H 0.58613 0.22172 0.21667 0.0
H2730 H 0.57772 0.2328 0.19906 0.0
H2731 H 0.58241 0.24527 0.22302 0.0
C2732 C 0.57673 0.26882 0.16284 0.0
C2733 C 0.56652 0.27832 0.17506 0.0
C2734 C 0.59102 0.26245 0.16995 0.0
C2735 C 0.59521 0.26546 0.18934 0.0
C2736 C 0.58568 0.27584 0.20151 0.0
H2737 H 0.68618 0.26406 0.25832 0.0
H2738 H 0.66048 0.27021 0.24156 0.0
C2739 C 0.57142 0.2822 0.19443 0.0
C2740 C 0.60944 0.25763 0.19702 0.0
H2741 H 0.61734 0.22857 0.22637 0.0
C2742 C 0.62703 0.26449 0.19335 0.0
C2743 C 0.60577 0.24398 0.20846 0.0
C2744 C 0.58696 0.23534 0.21191 0.0
C2745 C 0.64121 0.2588 0.2017 0.0
C2746 C 0.63762 0.24612 0.21412 0.0
C2747 C 0.61998 0.23847 0.217 0.0
C2748 C 0.65216 0.24169 0.22514 0.0
C2749 C 0.65996 0.26662 0.19744 0.0
C2750 C 0.65541 0.22337 0.22198 0.0
C2751 C 0.67013 0.2198 0.23155 0.0
C2752 C 0.68165 0.23453 0.2444 0.0
C2753 C 0.67768 0.25256 0.24825 0.0
C2754 C 0.66306 0.2561 0.23869 0.0
H2755 H 0.66009 0.27212 0.18425 0.0
H2756 H 0.66652 0.27851 0.20902 0.0
H2757 H 0.66793 0.25559 0.19627 0.0
H2758 H 0.64697 0.21207 0.21166 0.0
H2759 H 0.67295 0.20581 0.22829 0.0
H2760 H 0.62803 0.88693 0.90078 0.0
H2761 H 0.62669 0.91825 0.91816 0.0
H2762 H 0.59816 0.89237 0.95951 0.0
H2763 H 0.59974 0.86115 0.94255 0.0
H2764 H 0.59454 0.92656 0.92131 0.0
H2765 H 0.62923 0.93925 0.99211 0.0
H2766 H 0.63322 0.92162 0.97301 0.0
H2767 H 0.61447 0.91625 0.98642 0.0
C2768 C 0.62198 0.88793 0.9139 0.0
C2769 C 0.61371 0.87152 0.92012 0.0
C2770 C 0.62125 0.90586 0.92382 0.0
C2771 C 0.61237 0.90764 0.94014 0.0
C2772 C 0.60539 0.89138 0.94715 0.0
H2773 H 0.55009 0.97464 1.00042 0.0
H2774 H 0.56566 0.95101 0.98537 0.0
C2775 C 0.60616 0.87348 0.93731 0.0
C2776 C 0.60752 0.92571 0.94792 0.0
H2777 H 0.605 0.95533 0.98908 0.0
C2778 C 0.59721 0.93317 0.93604 0.0
C2779 C 0.61094 0.93422 0.96714 0.0
C2780 C 0.62273 0.92751 0.98034 0.0
C2781 C 0.58929 0.94816 0.9431 0.0
C2782 C 0.59192 0.95593 0.96247 0.0
C2783 C 0.60293 0.94915 0.97422 0.0
C2784 C 0.58236 0.97023 0.97099 0.0
C2785 C 0.57737 0.95488 0.93002 0.0
C2786 C 0.58649 0.9887 0.96758 0.0
C2787 C 0.57761 1.00222 0.97613 0.0
C2788 C 0.56459 0.99744 0.98829 0.0
C2789 C 0.56017 0.97876 0.99123 0.0
C2790 C 0.56907 0.96529 0.98272 0.0
H2791 H 0.57476 0.94557 0.91588 0.0
H2792 H 0.56442 0.95544 0.93586 0.0
H2793 H 0.58379 0.96943 0.92851 0.0
H2794 H 0.5968 0.99274 0.95861 0.0
H2795 H 0.58141 0.01656 0.97373 0.0
H2796 H 0.97465 0.76442 0.7234 0.0
H2797 H 0.9457 0.76405 0.73552 0.0
H2798 H 0.92779 0.7842 0.68768 0.0
H2799 H 0.95677 0.7846 0.67526 0.0
H2800 H 0.92113 0.80292 0.72659 0.0
H2801 H 0.89867 0.72422 0.70927 0.0
H2802 H 0.92058 0.73397 0.72126 0.0
H2803 H 0.9161 0.73701 0.69779 0.0
C2804 C 0.96464 0.76892 0.71546 0.0
C2805 C 0.96795 0.77439 0.69826 0.0
C2806 C 0.9481 0.76859 0.72239 0.0
C2807 C 0.93466 0.77375 0.71226 0.0
C2808 C 0.93807 0.78 0.69553 0.0
H2809 H 0.8285 0.78682 0.73534 0.0
H2810 H 0.85777 0.78901 0.72401 0.0
C2811 C 0.95462 0.78027 0.68851 0.0
C2812 C 0.917 0.77258 0.71923 0.0
H2813 H 0.8798 0.74117 0.72608 0.0
C2814 C 0.912 0.78947 0.72646 0.0
C2815 C 0.9054 0.75496 0.71916 0.0
C2816 C 0.91032 0.73645 0.71136 0.0
C2817 C 0.89567 0.78924 0.73404 0.0
C2818 C 0.88379 0.7716 0.73376 0.0
C2819 C 0.88887 0.75468 0.72638 0.0
C2820 C 0.86594 0.77032 0.74076 0.0
C2821 C 0.89176 0.80789 0.74298 0.0
C2822 C 0.86031 0.7583 0.75325 0.0
C2823 C 0.8432 0.75647 0.75919 0.0
C2824 C 0.83171 0.76711 0.75323 0.0
C2825 C 0.83728 0.779 0.7407 0.0
C2826 C 0.85412 0.78036 0.73429 0.0
H2827 H 0.90419 0.81891 0.74791 0.0
H2828 H 0.88402 0.81306 0.7326 0.0
H2829 H 0.88394 0.80618 0.75505 0.0
H2830 H 0.86912 0.75025 0.75831 0.0
H2831 H 0.839 0.74695 0.76861 0.0
H2832 H 0.15925 0.01264 0.8384 0.0
H2833 H 0.14774 0.01454 0.86964 0.0
H2834 H 0.09599 0.01519 0.84519 0.0
H2835 H 0.10733 0.01371 0.81442 0.0
H2836 H 0.12706 0.04579 0.88907 0.0
H2837 H 0.08778 0.97165 0.8783 0.0
H2838 H 0.10697 0.97821 0.86569 0.0
H2839 H 0.08635 0.98414 0.85946 0.0
C2840 C 0.14536 0.01294 0.83957 0.0
C2841 C 0.13437 0.01288 0.82339 0.0
C2842 C 0.13873 0.01418 0.85763 0.0
C2843 C 0.12077 0.01502 0.86024 0.0
C2844 C 0.1098 0.01453 0.84403 0.0
H2845 H 0.04816 0.01047 0.95129 0.0
H2846 H 0.06241 0.00785 0.92208 0.0
C2847 C 0.11643 0.01364 0.82619 0.0
C2848 C 0.11333 0.01672 0.87957 0.0
H2849 H 0.08405 0.99248 0.90566 0.0
C2850 C 0.11779 0.03403 0.89272 0.0
C2851 C 0.1008 1.00175 0.88464 0.0
C2852 C 0.09516 0.9828 0.87141 0.0
C2853 C 0.11001 0.03686 0.91014 0.0
C2854 C 0.09767 0.02171 0.91551 0.0
C2855 C 0.09337 0.00434 0.90225 0.0
C2856 C 0.08876 0.02357 0.93422 0.0
C2857 C 0.11454 0.05658 0.92206 0.0
C2858 C 0.09825 0.03305 0.95175 0.0
C2859 C 0.08977 0.03501 0.96869 0.0
C2860 C 0.07145 0.02702 0.96923 0.0
C2861 C 0.06213 0.01695 0.95189 0.0
C2862 C 0.07049 0.01538 0.93489 0.0
H2863 H 0.1187 0.06748 0.9135 0.0
H2864 H 0.10305 0.05989 0.92952 0.0
H2865 H 0.12591 0.05777 0.9325 0.0
H2866 H 0.11242 0.03887 0.95254 0.0
H2867 H 0.09775 0.04267 0.98151 0.0
H2868 H 0.80613 0.36895 0.56461 0.0
H2869 H 0.81323 0.35535 0.59146 0.0
H2870 H 0.81877 0.40986 0.62811 0.0
H2871 H 0.81242 0.42367 0.60126 0.0
H2872 H 0.8457 0.39503 0.63533 0.0
H2873 H 0.78361 0.34013 0.63184 0.0
H2874 H 0.79404 0.33755 0.61039 0.0
H2875 H 0.78556 0.3584 0.61817 0.0
C2876 C 0.80871 0.37797 0.57843 0.0
C2877 C 0.80873 0.39736 0.58086 0.0
C2878 C 0.81263 0.37015 0.59379 0.0
C2879 C 0.81623 0.3815 0.61188 0.0
C2880 C 0.816 0.40081 0.61431 0.0
H2881 H 0.82442 0.33545 0.71325 0.0
H2882 H 0.81511 0.35109 0.68874 0.0
C2883 C 0.81236 0.40868 0.59895 0.0
C2884 C 0.82129 0.3736 0.62815 0.0
H2885 H 0.80836 0.33774 0.65169 0.0
C2886 C 0.83745 0.38259 0.63899 0.0
C2887 C 0.81042 0.35754 0.63312 0.0
C2888 C 0.79236 0.34797 0.62288 0.0
C2889 C 0.84319 0.37579 0.65441 0.0
C2890 C 0.83278 0.35915 0.65877 0.0
C2891 C 0.81644 0.35038 0.6482 0.0
C2892 C 0.83874 0.35043 0.67403 0.0
C2893 C 0.86024 0.38668 0.66602 0.0
C2894 C 0.8551 0.34489 0.67389 0.0
C2895 C 0.86052 0.33622 0.68797 0.0
C2896 C 0.8495 0.33257 0.70221 0.0
C2897 C 0.83311 0.33806 0.70234 0.0
C2898 C 0.82779 0.34696 0.68838 0.0
H2899 H 0.86338 0.40179 0.66467 0.0
H2900 H 0.85944 0.38612 0.68106 0.0
H2901 H 0.87145 0.38039 0.66103 0.0
H2902 H 0.86354 0.34695 0.6627 0.0
H2903 H 0.87308 0.33185 0.68743 0.0
H2904 H 0.48317 0.04105 0.32187 0.0
H2905 H 0.49855 0.04472 0.35297 0.0
H2906 H 0.45598 0.06671 0.37841 0.0
H2907 H 0.44047 0.06319 0.34748 0.0
H2908 H 0.50626 0.0819 0.38607 0.0
H2909 H 0.46212 0.01524 0.39753 0.0
H2910 H 0.46614 0.01937 0.37431 0.0
H2911 H 0.45221 0.03202 0.38806 0.0
C2912 C 0.47714 0.04682 0.33406 0.0
C2913 C 0.46054 0.05169 0.33223 0.0
C2914 C 0.48597 0.04897 0.35175 0.0
C2915 C 0.47829 0.05592 0.36779 0.0
C2916 C 0.46202 0.06131 0.36607 0.0
H2917 H 0.50314 0.04895 0.48273 0.0
H2918 H 0.48912 0.05422 0.45408 0.0
C2919 C 0.4532 0.05925 0.34841 0.0
C2920 C 0.48672 0.05637 0.3864 0.0
H2921 H 0.48431 0.0316 0.42154 0.0
C2922 C 0.5015 0.071 0.39395 0.0
C2923 C 0.48025 0.04217 0.3965 0.0
C2924 C 0.46434 0.02621 0.38877 0.0
C2925 C 0.51009 0.07181 0.41158 0.0
C2926 C 0.50394 0.05726 0.42151 0.0
C2927 C 0.48899 0.04276 0.41393 0.0
C2928 C 0.51302 0.05628 0.43951 0.0
C2929 C 0.52541 0.08839 0.41946 0.0
C2930 C 0.53116 0.05592 0.44092 0.0
C2931 C 0.53927 0.05328 0.45744 0.0
C2932 C 0.52927 0.05028 0.47256 0.0
C2933 C 0.51117 0.0509 0.47121 0.0
C2934 C 0.50315 0.05399 0.45487 0.0
H2935 H 0.5244 0.10102 0.41352 0.0
H2936 H 0.52596 0.09231 0.43495 0.0
H2937 H 0.53811 0.08453 0.41566 0.0
H2938 H 0.53894 0.0571 0.42909 0.0
H2939 H 0.55317 0.05292 0.45806 0.0
H2940 H 0.76256 0.69769 0.07554 0.0
H2941 H 0.76499 0.71879 0.10582 0.0
H2942 H 0.80916 0.75743 0.0898 0.0
H2943 H 0.80688 0.73603 0.05914 0.0
H2944 H 0.81678 0.7478 0.12322 0.0
H2945 H 0.75234 0.76904 0.12492 0.0
H2946 H 0.74897 0.74384 0.11754 0.0
H2947 H 0.76045 0.75923 0.10332 0.0
C2948 C 0.77264 0.71082 0.07825 0.0
C2949 C 0.7846 0.7151 0.0649 0.0
C2950 C 0.77387 0.72302 0.09557 0.0
C2951 C 0.78705 0.7399 0.10005 0.0
C2952 C 0.79874 0.74458 0.08658 0.0
H2953 H 0.79839 0.80037 0.21939 0.0
H2954 H 0.79585 0.79695 0.18499 0.0
C2955 C 0.79742 0.73236 0.06906 0.0
C2956 C 0.78977 0.75108 0.11958 0.0
H2957 H 0.76669 0.76796 0.15529 0.0
C2958 C 0.806 0.75274 0.13009 0.0
C2959 C 0.77579 0.7577 0.12863 0.0
C2960 C 0.75848 0.75754 0.11793 0.0
C2961 C 0.80804 0.75926 0.14958 0.0
C2962 C 0.79349 0.76414 0.15881 0.0
C2963 C 0.77777 0.76402 0.14819 0.0
C2964 C 0.79361 0.76659 0.17943 0.0
C2965 C 0.82545 0.75987 0.16037 0.0
C2966 C 0.79276 0.75064 0.18754 0.0
C2967 C 0.79402 0.75252 0.20694 0.0
C2968 C 0.79595 0.77037 0.21867 0.0
C2969 C 0.79651 0.7864 0.21061 0.0
C2970 C 0.79517 0.78448 0.19104 0.0
H2971 H 0.83655 0.76028 0.1512 0.0
H2972 H 0.8289 0.77242 0.17205 0.0
H2973 H 0.82413 0.74695 0.16646 0.0
H2974 H 0.79146 0.73672 0.17882 0.0
H2975 H 0.79373 0.73999 0.21282 0.0
H2976 H 0.11443 1.00284 0.71692 0.0
H2977 H 0.0998 0.00745 0.68786 0.0
H2978 H 0.15042 0.01659 0.66472 0.0
H2979 H 0.16495 0.01173 0.69351 0.0
H2980 H 0.10108 0.03566 0.66876 0.0
H2981 H 0.12307 0.97932 0.62109 0.0
H2982 H 0.12593 0.98189 0.64617 0.0
H2983 H 0.14158 0.99643 0.63436 0.0
C2984 C 0.12252 0.00566 0.70563 0.0
C2985 C 0.14109 0.00661 0.70796 0.0
C2986 C 0.11404 0.00842 0.6888 0.0
C2987 C 0.12362 0.01208 0.6733 0.0
C2988 C 0.14221 0.01327 0.67578 0.0
H2989 H 0.10309 0.03206 0.55882 0.0
H2990 H 0.11466 0.02807 0.58919 0.0
C2991 C 0.15068 0.01058 0.69257 0.0
C2992 C 0.1144 0.01483 0.65487 0.0
H2993 H 0.11065 1.0007 0.60669 0.0
C2994 C 0.10316 0.02783 0.65525 0.0
C2995 C 0.11665 0.00485 0.63674 0.0
C2996 C 0.1273 0.98971 0.6345 0.0
C2997 C 0.09497 0.03152 0.63861 0.0
C2998 C 0.09747 0.02172 0.62046 0.0
C2999 C 0.10849 0.00852 0.62017 0.0
C3000 C 0.08965 0.0253 0.60171 0.0
C3001 C 0.08429 0.0466 0.64074 0.0
C3002 C 0.07139 0.02539 0.59763 0.0
C3003 C 0.06459 0.02788 0.57981 0.0
C3004 C 0.07577 0.0304 0.56524 0.0
C3005 C 0.0939 0.03039 0.56945 0.0
C3006 C 0.10063 0.02795 0.58707 0.0
H3007 H 0.0877 0.05643 0.65457 0.0
H3008 H 0.08656 0.05501 0.6296 0.0
H3009 H 0.0699 0.03975 0.63963 0.0
H3010 H 0.06212 0.02295 0.60802 0.0
H3011 H 0.0505 0.02732 0.57731 0.0
H3012 H 0.78551 0.40738 0.45056 0.0
H3013 H 0.79061 0.38649 0.42218 0.0
H3014 H 0.82 0.35838 0.45552 0.0
H3015 H 0.81442 0.37877 0.48402 0.0
H3016 H 0.82191 0.38274 0.40854 0.0
H3017 H 0.78574 0.31383 0.42297 0.0
H3018 H 0.7838 0.33629 0.43656 0.0
H3019 H 0.8032 0.32711 0.44057 0.0
C3020 C 0.79284 0.39657 0.45187 0.0
C3021 C 0.7994 0.39459 0.46953 0.0
C3022 C 0.79583 0.38472 0.43565 0.0
C3023 C 0.80554 0.37076 0.43676 0.0
C3024 C 0.81214 0.36875 0.45436 0.0
H3025 H 0.83459 0.31474 0.32814 0.0
H3026 H 0.83867 0.33107 0.36122 0.0
C3027 C 0.80894 0.38044 0.47063 0.0
C3028 C 0.80887 0.3586 0.41934 0.0
H3029 H 0.79961 0.31289 0.39497 0.0
C3030 C 0.81717 0.36744 0.40559 0.0
C3031 C 0.80275 0.33865 0.41564 0.0
C3032 C 0.79325 0.32837 0.42962 0.0
C3033 C 0.8187 0.35699 0.38786 0.0
C3034 C 0.81215 0.33709 0.38399 0.0
C3035 C 0.8047 0.32815 0.39807 0.0
C3036 C 0.81044 0.32572 0.36477 0.0
C3037 C 0.82633 0.36747 0.37311 0.0
C3038 C 0.79333 0.31685 0.35607 0.0
C3039 C 0.79107 0.30741 0.33746 0.0
C3040 C 0.80583 0.30653 0.32721 0.0
C3041 C 0.82302 0.31512 0.33592 0.0
C3042 C 0.82534 0.3245 0.35469 0.0
H3043 H 0.82778 0.38305 0.37741 0.0
H3044 H 0.83972 0.36475 0.3706 0.0
H3045 H 0.81773 0.36244 0.35968 0.0
H3046 H 0.78164 0.31786 0.3635 0.0
H3047 H 0.7777 0.30181 0.33085 0.0
H3048 H 0.44452 0.08 0.23724 0.0
H3049 H 0.45944 0.0721 0.20904 0.0
H3050 H 0.42288 0.01732 0.19483 0.0
H3051 H 0.4074 0.02564 0.22252 0.0
H3052 H 0.47653 0.0445 0.2066 0.0
H3053 H 0.4283 0.02904 0.14371 0.0
H3054 H 0.42402 0.04147 0.16618 0.0
H3055 H 0.42036 0.01601 0.16122 0.0
C3056 C 0.43923 0.06663 0.22761 0.0
C3057 C 0.42483 0.05345 0.23189 0.0
C3058 C 0.44779 0.06207 0.21159 0.0
C3059 C 0.4423 0.04411 0.19981 0.0
C3060 C 0.42713 0.03141 0.20344 0.0
H3061 H 0.50749 0.98137 0.13053 0.0
H3062 H 0.48712 0.99109 0.15335 0.0
C3063 C 0.41829 0.03616 0.21928 0.0
C3064 C 0.45405 0.03775 0.18573 0.0
H3065 H 0.45533 0.01815 0.13973 0.0
C3066 C 0.47188 0.03888 0.19196 0.0
C3067 C 0.44795 0.03028 0.16666 0.0
C3068 C 0.42916 0.02928 0.159 0.0
C3069 C 0.48376 0.03274 0.17966 0.0
C3070 C 0.4776 0.02507 0.16074 0.0
C3071 C 0.45985 0.0239 0.15439 0.0
C3072 C 0.4898 0.01912 0.14719 0.0
C3073 C 0.5029 0.03462 0.18681 0.0
C3074 C 0.49811 0.03185 0.13657 0.0
C3075 C 0.50981 0.02648 0.12378 0.0
C3076 C 0.51328 0.0082 0.12132 0.0
C3077 C 0.50514 0.99556 0.13225 0.0
C3078 C 0.49343 1.00101 0.14511 0.0
H3079 H 0.50568 0.04126 0.20193 0.0
H3080 H 0.50609 0.0204 0.18462 0.0
H3081 H 0.51191 0.04336 0.17876 0.0
H3082 H 0.49557 0.04597 0.13822 0.0
H3083 H 0.51613 0.03663 0.11578 0.0
H3084 H 0.796 0.73567 0.96325 0.0
H3085 H 0.79634 0.74626 0.93328 0.0
H3086 H 0.80398 0.69194 0.90539 0.0
H3087 H 0.80362 0.68123 0.93517 0.0
H3088 H 0.82323 0.7475 0.90665 0.0
H3089 H 0.75865 0.6988 0.87657 0.0
H3090 H 0.76562 0.70438 0.90135 0.0
H3091 H 0.77496 0.68784 0.88583 0.0
C3092 C 0.79791 0.72603 0.95077 0.0
C3093 C 0.79971 0.70757 0.95161 0.0
C3094 C 0.79807 0.7321 0.93365 0.0
C3095 C 0.79988 0.71977 0.91706 0.0
C3096 C 0.80224 0.70157 0.91796 0.0
H3097 H 0.79419 0.72846 0.79902 0.0
H3098 H 0.79642 0.71747 0.82862 0.0
C3099 C 0.80215 0.69552 0.93504 0.0
C3100 C 0.79912 0.72586 0.89877 0.0
H3101 H 0.77451 0.71655 0.85643 0.0
C3102 C 0.81257 0.74078 0.89567 0.0
C3103 C 0.78526 0.71697 0.88442 0.0
C3104 C 0.7702 0.7012 0.88716 0.0
C3105 C 0.81266 0.74692 0.87853 0.0
C3106 C 0.79865 0.73823 0.86425 0.0
C3107 C 0.78526 0.72321 0.86733 0.0
C3108 C 0.79735 0.74485 0.84623 0.0
C3109 C 0.82802 0.76239 0.87578 0.0
C3110 C 0.79682 0.76379 0.84621 0.0
C3111 C 0.79566 0.77011 0.82937 0.0
C3112 C 0.79465 0.75754 0.8121 0.0
C3113 C 0.79481 0.73847 0.81207 0.0
C3114 C 0.79615 0.73219 0.82899 0.0
H3115 H 0.84005 0.76318 0.88521 0.0
H3116 H 0.83152 0.76015 0.86109 0.0
H3117 H 0.82421 0.77627 0.87915 0.0
H3118 H 0.79716 0.77372 0.85925 0.0
H3119 H 0.79528 0.78482 0.8299 0.0
H3120 H 0.81749 0.09183 0.04145 0.0
H3121 H 0.84211 0.07574 0.03801 0.0
H3122 H 0.86554 0.11285 0.00219 0.0
H3123 H 0.84106 0.12922 0.00568 0.0
H3124 H 0.84849 0.05701 0.00278 0.0
H3125 H 0.90832 0.11107 0.03761 0.0
H3126 H 0.88589 0.11305 0.0421 0.0
H3127 H 0.89483 0.1188 0.02111 0.0
C3128 C 0.82804 0.09683 0.03311 0.0
C3129 C 0.82723 0.11169 0.02368 0.0
C3130 C 0.84208 0.08762 0.03118 0.0
C3131 C 0.8556 0.09316 0.01989 0.0
C3132 C 0.85534 0.10856 0.01118 0.0
H3133 H 0.92357 0.02273 0.96598 0.0
H3134 H 0.90122 0.04187 0.97236 0.0
C3135 C 0.84129 0.11783 0.01313 0.0
C3136 C 0.86887 0.08154 0.0157 0.0
H3137 H 0.91336 0.08263 0.01951 0.0
C3138 C 0.86268 0.06257 0.00648 0.0
C3139 C 0.88731 0.08891 0.0206 0.0
C3140 C 0.89454 0.10903 0.03104 0.0
C3141 C 0.87449 0.05071 0.00195 0.0
C3142 C 0.89295 0.05814 0.00655 0.0
C3143 C 0.89917 0.07709 0.01587 0.0
C3144 C 0.90598 0.04622 0.0025 0.0
C3145 C 0.86712 0.03024 0.9926 0.0
C3146 C 0.91594 0.04241 0.01735 0.0
C3147 C 0.92857 0.0315 0.01376 0.0
C3148 C 0.93155 0.02432 0.99524 0.0
C3149 C 0.92135 0.02789 0.98036 0.0
C3150 C 0.90868 0.03885 0.98398 0.0
H3151 H 0.85255 0.02581 0.99354 0.0
H3152 H 0.8695 0.02829 0.97757 0.0
H3153 H 0.87392 0.02074 0.99902 0.0
H3154 H 0.91394 0.04792 0.03173 0.0
H3155 H 0.93611 0.02879 0.0255 0.0
H3156 H 0.35615 0.45665 0.01955 0.0
H3157 H 0.38819 0.46967 0.02378 0.0
H3158 H 0.39559 0.42562 0.05291 0.0
H3159 H 0.36325 0.41225 0.04871 0.0
H3160 H 0.41512 0.46842 0.06922 0.0
H3161 H 0.4243 0.43872 0.99552 0.0
H3162 H 0.40549 0.4495 0.99891 0.0
H3163 H 0.40603 0.42835 0.00762 0.0
C3164 C 0.36449 0.44967 0.02692 0.0
C3165 C 0.35709 0.43329 0.03368 0.0
C3166 C 0.38282 0.45718 0.02933 0.0
C3167 C 0.39418 0.44853 0.03854 0.0
C3168 C 0.38695 0.43246 0.04575 0.0
H3169 H 0.50735 0.48132 0.02453 0.0
H3170 H 0.47835 0.46256 0.02896 0.0
C3171 C 0.36851 0.42485 0.0433 0.0
C3172 C 0.41364 0.45615 0.03988 0.0
H3173 H 0.448 0.46283 0.01249 0.0
C3174 C 0.42246 0.467 0.05694 0.0
C3175 C 0.42314 0.45406 0.02388 0.0
C3176 C 0.41436 0.44191 0.00543 0.0
C3177 C 0.44047 0.47651 0.0582 0.0
C3178 C 0.44969 0.47542 0.04185 0.0
C3179 C 0.44098 0.46382 0.02502 0.0
C3180 C 0.46807 0.4867 0.04148 0.0
C3181 C 0.44934 0.48764 0.077 0.0
C3182 C 0.47215 0.50654 0.04729 0.0
C3183 C 0.48889 0.51728 0.04505 0.0
C3184 C 0.5017 0.50849 0.03644 0.0
C3185 C 0.49772 0.4886 0.03099 0.0
C3186 C 0.48113 0.47783 0.03357 0.0
H3187 H 0.44299 0.48173 0.08861 0.0
H3188 H 0.46377 0.48773 0.07841 0.0
H3189 H 0.44784 0.50251 0.07862 0.0
H3190 H 0.46218 0.51384 0.05292 0.0
H3191 H 0.49146 0.53247 0.04931 0.0
H3192 H 0.42088 0.64131 0.77959 0.0
H3193 H 0.40576 0.66739 0.779 0.0
H3194 H 0.35531 0.62723 0.76549 0.0
H3195 H 0.37056 0.60107 0.76547 0.0
H3196 H 0.35249 0.65251 0.74702 0.0
H3197 H 0.3816 0.69629 0.81557 0.0
H3198 H 0.39869 0.69257 0.8005 0.0
H3199 H 0.38499 0.67268 0.80796 0.0
C3200 C 0.40653 0.63787 0.7766 0.0
C3201 C 0.39723 0.61857 0.77273 0.0
C3202 C 0.39767 0.6531 0.77645 0.0
C3203 C 0.37889 0.65006 0.77268 0.0
C3204 C 0.36964 0.6307 0.7686 0.0
H3205 H 0.32091 0.74722 0.79458 0.0
H3206 H 0.33433 0.71994 0.79732 0.0
C3207 C 0.37851 0.61546 0.76866 0.0
C3208 C 0.36905 0.66662 0.77241 0.0
H3209 H 0.36637 0.71143 0.79571 0.0
C3210 C 0.35567 0.66528 0.75783 0.0
C3211 C 0.37229 0.68368 0.78645 0.0
C3212 C 0.38502 0.68635 0.8036 0.0
C3213 C 0.34624 0.67996 0.75663 0.0
C3214 C 0.35017 0.69742 0.77012 0.0
C3215 C 0.36315 0.69858 0.785 0.0
C3216 C 0.34132 0.71445 0.76872 0.0
C3217 C 0.3316 0.67615 0.74098 0.0
C3218 C 0.34051 0.72144 0.75196 0.0
C3219 C 0.33266 0.737 0.75039 0.0
C3220 C 0.32504 0.74672 0.76539 0.0
C3221 C 0.32605 0.74011 0.7824 0.0
C3222 C 0.334 0.72439 0.784 0.0
H3223 H 0.3259 0.6607 0.73625 0.0
H3224 H 0.32064 0.68319 0.74531 0.0
H3225 H 0.33718 0.68159 0.72882 0.0
H3226 H 0.34636 0.71509 0.73993 0.0
H3227 H 0.33271 0.7416 0.73712 0.0
H3228 H 0.2257 0.64756 0.50024 0.0
H3229 H 0.19486 0.63421 0.5051 0.0
H3230 H 0.20714 0.57942 0.5031 0.0
H3231 H 0.23813 0.59264 0.49829 0.0
H3232 H 0.17349 0.58161 0.48127 0.0
H3233 H 0.18184 0.61732 0.55638 0.0
H3234 H 0.18994 0.63194 0.54003 0.0
H3235 H 0.20044 0.6131 0.54341 0.0
C3236 C 0.22181 0.63262 0.50062 0.0
C3237 C 0.23435 0.62116 0.49905 0.0
C3238 C 0.20425 0.62507 0.50349 0.0
C3239 C 0.19896 0.60599 0.50479 0.0
C3240 C 0.21114 0.59425 0.50229 0.0
H3241 H 0.09525 0.53842 0.51663 0.0
H3242 H 0.12713 0.54923 0.51575 0.0
C3243 C 0.22877 0.6018 0.49948 0.0
C3244 C 0.18072 0.59845 0.50906 0.0
H3245 H 0.15245 0.60185 0.54338 0.0
C3246 C 0.16887 0.58586 0.49486 0.0
C3247 C 0.17491 0.60416 0.52683 0.0
C3248 C 0.18743 0.61727 0.54264 0.0
C3249 C 0.15103 0.57923 0.4978 0.0
C3250 C 0.14514 0.58507 0.51555 0.0
C3251 C 0.15709 0.59744 0.52984 0.0
C3252 C 0.12643 0.57888 0.51921 0.0
C3253 C 0.13851 0.56653 0.48172 0.0
C3254 C 0.11568 0.59211 0.52246 0.0
C3255 C 0.09739 0.58595 0.5234 0.0
C3256 C 0.08973 0.56654 0.5213 0.0
C3257 C 0.1007 0.55345 0.51879 0.0
C3258 C 0.11896 0.5596 0.51804 0.0
H3259 H 0.14412 0.56698 0.46804 0.0
H3260 H 0.13609 0.55166 0.48376 0.0
H3261 H 0.12547 0.57066 0.48111 0.0
H3262 H 0.12129 0.60708 0.52343 0.0
H3263 H 0.08914 0.59627 0.52514 0.0
H3264 H 0.75297 0.01335 0.75508 0.0
H3265 H 0.77381 0.99634 0.76696 0.0
H3266 H 0.7308 0.94731 0.76345 0.0
H3267 H 0.70989 0.96428 0.75201 0.0
H3268 H 0.75128 0.95693 0.79718 0.0
H3269 H 0.79383 0.95366 0.73789 0.0
H3270 H 0.79165 0.97702 0.74853 0.0
H3271 H 0.77248 0.95994 0.7363 0.0
C3272 C 0.748 0.9989 0.75674 0.0
C3273 C 0.7298 0.99013 0.75261 0.0
C3274 C 0.75993 0.98919 0.76344 0.0
C3275 C 0.75387 0.97051 0.76589 0.0
C3276 C 0.73574 0.96172 0.76166 0.0
H3277 H 0.80019 0.87846 0.77717 0.0
H3278 H 0.78677 0.9027 0.76748 0.0
C3279 C 0.72381 0.97143 0.7551 0.0
C3280 C 0.76617 0.96011 0.77336 0.0
H3281 H 0.80194 0.94067 0.76342 0.0
C3282 C 0.76247 0.95352 0.78991 0.0
C3283 C 0.78067 0.95562 0.76374 0.0
C3284 C 0.78487 0.96177 0.74555 0.0
C3285 C 0.77258 0.94211 0.79686 0.0
C3286 C 0.787 0.93752 0.7872 0.0
C3287 C 0.79099 0.94447 0.77089 0.0
C3288 C 0.79676 0.9238 0.79266 0.0
C3289 C 0.76726 0.93431 0.81399 0.0
C3290 C 0.80716 0.92781 0.80988 0.0
C3291 C 0.8149 0.91391 0.8155 0.0
C3292 C 0.81226 0.8958 0.80398 0.0
C3293 C 0.80234 0.89217 0.78646 0.0
C3294 C 0.79473 0.90604 0.78084 0.0
H3295 H 0.75405 0.93666 0.81794 0.0
H3296 H 0.76676 0.91886 0.81157 0.0
H3297 H 0.77733 0.94141 0.82597 0.0
H3298 H 0.80898 0.94154 0.81911 0.0
H3299 H 0.82241 0.91711 0.82909 0.0
H3300 H 0.73337 0.88967 0.52465 0.0
H3301 H 0.70926 0.90628 0.52095 0.0
H3302 H 0.74638 0.96003 0.54031 0.0
H3303 H 0.7704 0.94373 0.54396 0.0
H3304 H 0.69677 0.93518 0.54813 0.0
H3305 H 0.72478 0.96197 0.48717 0.0
H3306 H 0.73088 0.94226 0.49535 0.0
H3307 H 0.7407 0.9662 0.5072 0.0
C3308 C 0.73633 0.90502 0.52826 0.0
C3309 C 0.75383 0.91539 0.53441 0.0
C3310 C 0.72256 0.91446 0.52615 0.0
C3311 C 0.72614 0.93436 0.53009 0.0
C3312 C 0.74342 0.94466 0.53693 0.0
H3313 H 0.67972 0.02902 0.52914 0.0
H3314 H 0.69761 0.00595 0.53266 0.0
C3315 C 0.75712 0.9353 0.53904 0.0
C3316 C 0.71217 0.94467 0.52652 0.0
H3317 H 0.70291 0.97692 0.50156 0.0
C3318 C 0.6979 0.9441 0.53777 0.0
C3319 C 0.71368 0.95619 0.51292 0.0
C3320 C 0.72824 0.95661 0.49983 0.0
C3321 C 0.6856 0.95557 0.5364 0.0
C3322 C 0.68764 0.96772 0.52337 0.0
C3323 C 0.70149 0.96769 0.51165 0.0
C3324 C 0.6762 0.98138 0.52226 0.0
C3325 C 0.67099 0.95528 0.54939 0.0
C3326 C 0.65821 0.97518 0.51528 0.0
C3327 C 0.64795 0.98836 0.51305 0.0
C3328 C 0.65556 0.00797 0.51773 0.0
C3329 C 0.67352 0.01405 0.52508 0.0
C3330 C 0.68374 1.0009 0.52724 0.0
H3331 H 0.67274 0.9471 0.56045 0.0
H3332 H 0.67057 0.96997 0.55618 0.0
H3333 H 0.65793 0.94868 0.5412 0.0
H3334 H 0.65223 0.96016 0.5111 0.0
H3335 H 0.63423 0.98317 0.50715 0.0
H3336 H 0.37448 0.50764 0.76506 0.0
H3337 H 0.35582 0.47576 0.7647 0.0
H3338 H 0.40305 0.45377 0.76877 0.0
H3339 H 0.42154 0.48503 0.76885 0.0
H3340 H 0.35722 0.43721 0.73774 0.0
H3341 H 0.37259 0.43815 0.81307 0.0
H3342 H 0.37429 0.45966 0.80402 0.0
H3343 H 0.39114 0.4462 0.80034 0.0
C3344 C 0.38092 0.49605 0.76589 0.0
C3345 C 0.39972 0.49927 0.76696 0.0
C3346 C 0.37018 0.4777 0.76564 0.0
C3347 C 0.37788 0.46207 0.7668 0.0
C3348 C 0.39658 0.46535 0.76796 0.0
H3349 H 0.3461 0.34332 0.77958 0.0
H3350 H 0.36089 0.37599 0.77903 0.0
C3351 C 0.40722 0.48345 0.76795 0.0
C3352 C 0.36677 0.44232 0.7668 0.0
H3353 H 0.35751 0.40886 0.79426 0.0
C3354 C 0.35712 0.43111 0.75018 0.0
C3355 C 0.36673 0.43392 0.78281 0.0
C3356 C 0.37662 0.44505 0.80116 0.0
C3357 C 0.348 0.4119 0.74901 0.0
C3358 C 0.34784 0.40346 0.76512 0.0
C3359 C 0.35737 0.41488 0.78179 0.0
C3360 C 0.33843 0.38288 0.76498 0.0
C3361 C 0.33939 0.40066 0.73014 0.0
C3362 C 0.32057 0.37512 0.75738 0.0
C3363 C 0.31208 0.35607 0.75739 0.0
C3364 C 0.32087 0.34403 0.76546 0.0
C3365 C 0.33865 0.35185 0.77322 0.0
C3366 C 0.34721 0.3708 0.77298 0.0
H3367 H 0.34554 0.40677 0.71855 0.0
H3368 H 0.34049 0.38564 0.7282 0.0
H3369 H 0.32508 0.40106 0.72899 0.0
H3370 H 0.31299 0.38386 0.75156 0.0
H3371 H 0.29855 0.3508 0.75103 0.0
H3372 H 0.21161 0.60124 0.21984 0.0
H3373 H 0.23004 0.63296 0.23232 0.0
H3374 H 0.25537 0.61155 0.27514 0.0
H3375 H 0.23717 0.57962 0.26264 0.0
H3376 H 0.23317 0.64568 0.28347 0.0
H3377 H 0.29028 0.6532 0.2396 0.0
H3378 H 0.26865 0.64058 0.22823 0.0
H3379 H 0.27958 0.63068 0.24495 0.0
C3380 C 0.22137 0.60316 0.23165 0.0
C3381 C 0.22285 0.58794 0.24032 0.0
C3382 C 0.23187 0.62127 0.23874 0.0
C3383 C 0.24395 0.62446 0.25462 0.0
C3384 C 0.24612 0.60923 0.26281 0.0
H3385 H 0.30501 0.7419 0.29286 0.0
H3386 H 0.29752 0.70728 0.28918 0.0
C3387 C 0.23575 0.59103 0.2556 0.0
C3388 C 0.25279 0.64408 0.26361 0.0
H3389 H 0.28552 0.68123 0.25836 0.0
C3390 C 0.24471 0.65349 0.27811 0.0
C3391 C 0.26803 0.65397 0.25686 0.0
C3392 C 0.27731 0.64416 0.24161 0.0
C3393 C 0.25077 0.67301 0.28513 0.0
C3394 C 0.26507 0.68331 0.27718 0.0
C3395 C 0.27414 0.67348 0.26392 0.0
C3396 C 0.26954 0.70432 0.28085 0.0
C3397 C 0.24163 0.68243 0.30078 0.0
C3398 C 0.25633 0.71413 0.27733 0.0
C3399 C 0.26066 0.73381 0.2792 0.0
C3400 C 0.27833 0.7439 0.28406 0.0
C3401 C 0.29143 0.73427 0.28832 0.0
C3402 C 0.28713 0.71455 0.2864 0.0
H3403 H 0.23628 0.67237 0.30982 0.0
H3404 H 0.25084 0.69502 0.30963 0.0
H3405 H 0.2302 0.68707 0.29472 0.0
H3406 H 0.24275 0.70653 0.27265 0.0
H3407 H 0.25028 0.74114 0.27653 0.0
H3408 H 0.51627 0.69316 0.42376 0.0
H3409 H 0.52106 0.66642 0.43745 0.0
H3410 H 0.52928 0.70199 0.49248 0.0
H3411 H 0.52475 0.729 0.47885 0.0
H3412 H 0.5541 0.66649 0.46302 0.0
H3413 H 0.48981 0.65187 0.49479 0.0
H3414 H 0.49247 0.6639 0.4753 0.0
H3415 H 0.50207 0.67615 0.49832 0.0
C3416 C 0.51895 0.69534 0.43881 0.0
C3417 C 0.52002 0.71335 0.45015 0.0
C3418 C 0.52178 0.67998 0.44662 0.0
C3419 C 0.52549 0.68205 0.46604 0.0
C3420 C 0.52633 0.69992 0.47748 0.0
H3421 H 0.53276 0.59903 0.53657 0.0
H3422 H 0.53144 0.62765 0.52447 0.0
C3423 C 0.52372 0.71539 0.46964 0.0
C3424 C 0.52875 0.66561 0.47421 0.0
H3425 H 0.51014 0.63321 0.49983 0.0
C3426 C 0.5445 0.6592 0.47108 0.0
C3427 C 0.51636 0.65612 0.48487 0.0
C3428 C 0.49914 0.66219 0.48853 0.0
C3429 C 0.5483 0.64388 0.47853 0.0
C3430 C 0.53571 0.63402 0.4889 0.0
C3431 C 0.51993 0.64053 0.49197 0.0
C3432 C 0.53847 0.61707 0.49677 0.0
C3433 C 0.56613 0.63895 0.4757 0.0
C3434 C 0.54323 0.60137 0.48559 0.0
C3435 C 0.54455 0.58515 0.49278 0.0
C3436 C 0.54084 0.58403 0.51126 0.0
C3437 C 0.53607 0.59962 0.52241 0.0
C3438 C 0.53515 0.61596 0.51539 0.0
H3439 H 0.57623 0.65133 0.47343 0.0
H3440 H 0.57115 0.63395 0.48793 0.0
H3441 H 0.56475 0.62755 0.46308 0.0
H3442 H 0.54526 0.60127 0.47102 0.0
H3443 H 0.54764 0.57313 0.48361 0.0
H3444 H 0.64741 0.30856 0.62283 0.0
H3445 H 0.67299 0.30221 0.64 0.0
H3446 H 0.65153 0.3193 0.69221 0.0
H3447 H 0.62585 0.32526 0.67518 0.0
H3448 H 0.69899 0.32436 0.66628 0.0
H3449 H 0.65933 0.26795 0.69754 0.0
H3450 H 0.64999 0.27712 0.67896 0.0
H3451 H 0.65219 0.28985 0.70284 0.0
C3452 C 0.64817 0.31104 0.63797 0.0
C3453 C 0.63445 0.31731 0.64758 0.0
C3454 C 0.66281 0.30736 0.6478 0.0
C3455 C 0.66408 0.30982 0.66745 0.0
C3456 C 0.6507 0.31673 0.67707 0.0
H3457 H 0.75548 0.32154 0.74621 0.0
H3458 H 0.73072 0.32545 0.72624 0.0
C3459 C 0.63605 0.32031 0.66727 0.0
C3460 C 0.67941 0.30537 0.67793 0.0
H3461 H 0.68971 0.2798 0.71008 0.0
C3462 C 0.69692 0.31452 0.67575 0.0
C3463 C 0.67688 0.29229 0.69015 0.0
C3464 C 0.6586 0.28108 0.69239 0.0
C3465 C 0.71178 0.31148 0.68587 0.0
C3466 C 0.70917 0.29908 0.69868 0.0
C3467 C 0.69175 0.28944 0.70041 0.0
C3468 C 0.72431 0.29645 0.71084 0.0
C3469 C 0.73023 0.32153 0.68272 0.0
C3470 C 0.7289 0.27874 0.70913 0.0
C3471 C 0.74313 0.27642 0.72069 0.0
C3472 C 0.75285 0.2917 0.73445 0.0
C3473 C 0.74812 0.30935 0.73612 0.0
C3474 C 0.73406 0.31169 0.7245 0.0
H3475 H 0.73031 0.3268 0.66939 0.0
H3476 H 0.73516 0.3339 0.69437 0.0
H3477 H 0.73965 0.31198 0.68246 0.0
H3478 H 0.72157 0.26673 0.69874 0.0
H3479 H 0.74639 0.26263 0.71898 0.0
H3480 H 0.0326 0.32437 0.97289 0.0
H3481 H 0.03527 0.35719 0.99021 0.0
H3482 H 0.01414 0.37195 0.94058 0.0
H3483 H 0.01184 0.33969 0.92327 0.0
H3484 H 0.05582 0.39279 0.97453 0.0
H3485 H 0.98515 0.39141 0.98739 0.0
H3486 H 0.99433 0.37051 0.98515 0.0
H3487 H 0.9891 0.37932 0.9647 0.0
C3488 C 0.02832 0.33457 0.96579 0.0
C3489 C 0.02206 0.32938 0.94666 0.0
C3490 C 0.0299 0.35333 0.97567 0.0
C3491 C 0.02482 0.36705 0.96671 0.0
C3492 C 0.01805 0.36165 0.94784 0.0
H3493 H 0.04001 0.48465 0.96908 0.0
H3494 H 0.03399 0.44994 0.96339 0.0
C3495 C 0.0168 0.34316 0.93794 0.0
C3496 C 0.02749 0.38735 0.97634 0.0
H3497 H 0.00463 0.42188 0.99065 0.0
C3498 C 0.04469 0.39908 0.97846 0.0
C3499 C 0.01296 0.39564 0.98134 0.0
C3500 C 0.99431 0.38362 0.97969 0.0
C3501 C 0.04758 0.4189 0.98458 0.0
C3502 C 0.03294 0.42727 0.98876 0.0
C3503 C 0.01585 0.41548 0.98746 0.0
C3504 C 0.03509 0.44831 0.99266 0.0
C3505 C 0.06618 0.43096 0.98583 0.0
C3506 C 0.03746 0.459 0.01107 0.0
C3507 C 0.04096 0.47896 0.01437 0.0
C3508 C 0.04186 0.48852 0.9993 0.0
C3509 C 0.03914 0.47769 0.98096 0.0
C3510 C 0.03572 0.45786 0.97768 0.0
H3511 H 0.0764 0.4223 0.98439 0.0
H3512 H 0.06707 0.43924 0.97451 0.0
H3513 H 0.06924 0.44124 0.9994 0.0
H3514 H 0.03713 0.45194 0.02285 0.0
H3515 H 0.04348 0.48686 0.02865 0.0
H3516 H 0.03571 0.7835 0.17442 0.0
H3517 H 0.00648 0.78293 0.18551 0.0
H3518 H 0.99607 0.81931 0.14828 0.0
H3519 H 0.02575 0.82011 0.137 0.0
H3520 H 0.98743 0.83086 0.18504 0.0
H3521 H 0.95771 0.75465 0.1592 0.0
H3522 H 0.97902 0.75832 0.17209 0.0
H3523 H 0.97755 0.76678 0.15056 0.0
C3524 C 0.02726 0.79135 0.16841 0.0
C3525 C 0.03318 0.80185 0.15474 0.0
C3526 C 0.01041 0.79086 0.17472 0.0
C3527 C 0.99889 0.80078 0.16752 0.0
C3528 C 0.00467 0.81139 0.15391 0.0
H3529 H 0.8926 0.77973 0.20979 0.0
H3530 H 0.91525 0.7845 0.18761 0.0
C3531 C 0.02163 0.81182 0.14746 0.0
C3532 C 0.98128 0.80059 0.17514 0.0
H3533 H 0.94465 0.77025 0.18532 0.0
C3534 C 0.9779 0.81765 0.1848 0.0
C3535 C 0.96862 0.78343 0.17457 0.0
C3536 C 0.9708 0.76479 0.16337 0.0
C3537 C 0.96286 0.81783 0.19495 0.0
C3538 C 0.95104 0.80046 0.19575 0.0
C3539 C 0.95378 0.78357 0.18499 0.0
C3540 C 0.93676 0.79926 0.20884 0.0
C3541 C 0.95995 0.83665 0.20496 0.0
C3542 C 0.94121 0.80601 0.22815 0.0
C3543 C 0.92832 0.80339 0.2408 0.0
C3544 C 0.91062 0.79374 0.23451 0.0
C3545 C 0.90604 0.78736 0.21512 0.0
C3546 C 0.91901 0.78999 0.20243 0.0
H3547 H 0.96579 0.84825 0.19777 0.0
H3548 H 0.94556 0.83631 0.20586 0.0
H3549 H 0.96669 0.84006 0.21937 0.0
H3550 H 0.95484 0.8128 0.23357 0.0
H3551 H 0.93231 0.80868 0.25559 0.0
H3552 H 0.51835 0.34149 0.13763 0.0
H3553 H 0.52283 0.36168 0.11437 0.0
H3554 H 0.50397 0.31267 0.07005 0.0
H3555 H 0.49951 0.2923 0.09318 0.0
H3556 H 0.54666 0.35326 0.08387 0.0
H3557 H 0.47794 0.35546 0.05826 0.0
H3558 H 0.48316 0.35103 0.08123 0.0
H3559 H 0.48219 0.33288 0.06086 0.0
C3560 C 0.51482 0.33504 0.12297 0.0
C3561 C 0.50867 0.31529 0.11723 0.0
C3562 C 0.51741 0.34659 0.10972 0.0
C3563 C 0.51368 0.33862 0.09057 0.0
C3564 C 0.50676 0.31906 0.08481 0.0
H3565 H 0.52787 0.39273 0.99359 0.0
H3566 H 0.52075 0.36912 0.01339 0.0
C3567 C 0.50427 0.30746 0.09804 0.0
C3568 C 0.51868 0.3505 0.07662 0.0
H3569 H 0.5017 0.371 0.04367 0.0
C3570 C 0.53686 0.35715 0.07504 0.0
C3571 C 0.50582 0.35522 0.065 0.0
C3572 C 0.48615 0.34841 0.06637 0.0
C3573 C 0.54258 0.36858 0.06217 0.0
C3574 C 0.52974 0.37392 0.05096 0.0
C3575 C 0.51152 0.3669 0.05228 0.0
C3576 C 0.53495 0.38764 0.03862 0.0
C3577 C 0.56233 0.37464 0.06061 0.0
C3578 C 0.54534 0.40581 0.04622 0.0
C3579 C 0.54967 0.41914 0.03493 0.0
C3580 C 0.54335 0.41476 0.01585 0.0
C3581 C 0.5331 0.39647 0.00818 0.0
C3582 C 0.52889 0.38304 0.0195 0.0
H3583 H 0.56964 0.36444 0.06503 0.0
H3584 H 0.56513 0.37592 0.04608 0.0
H3585 H 0.56765 0.38864 0.07 0.0
H3586 H 0.54985 0.40984 0.061 0.0
H3587 H 0.5578 0.43299 0.04126 0.0
H3588 H 0.05336 0.33179 0.33159 0.0
H3589 H 0.02302 0.33303 0.3225 0.0
H3590 H 0.00358 0.29878 0.36231 0.0
H3591 H 0.03433 0.29761 0.37186 0.0
H3592 H 0.99515 0.30154 0.3077 0.0
H3593 H 0.98002 0.34526 0.37324 0.0
H3594 H 0.00253 0.34404 0.36837 0.0
H3595 H 0.98813 0.32442 0.37523 0.0
C3596 C 0.04273 0.3245 0.33853 0.0
C3597 C 0.0463 0.31454 0.35245 0.0
C3598 C 0.02537 0.32526 0.33329 0.0
C3599 C 0.01113 0.31609 0.34179 0.0
C3600 C 0.01448 0.30614 0.35575 0.0
H3601 H 0.90424 0.30338 0.28815 0.0
H3602 H 0.93063 0.29673 0.30288 0.0
C3603 C 0.03201 0.30541 0.36111 0.0
C3604 C 0.99288 0.31675 0.33532 0.0
H3605 H 0.95821 0.33715 0.34755 0.0
C3606 C 0.98693 0.30911 0.31644 0.0
C3607 C 0.98241 0.32684 0.34678 0.0
C3608 C 0.98854 0.33575 0.36702 0.0
C3609 C 0.97103 0.31188 0.30846 0.0
C3610 C 0.9606 0.32214 0.31985 0.0
C3611 C 0.96627 0.32929 0.3389 0.0
C3612 C 0.94411 0.32622 0.31201 0.0
C3613 C 0.96605 0.30456 0.28771 0.0
C3614 C 0.94272 0.34505 0.31279 0.0
C3615 C 0.92742 0.34896 0.30475 0.0
C3616 C 0.91327 0.33406 0.29581 0.0
C3617 C 0.91476 0.31522 0.29515 0.0
C3618 C 0.92993 0.31135 0.30337 0.0
H3619 H 0.97766 0.30152 0.28027 0.0
H3620 H 0.95573 0.29114 0.28553 0.0
H3621 H 0.96054 0.31491 0.28126 0.0
H3622 H 0.95356 0.35672 0.31946 0.0
H3623 H 0.9266 0.36361 0.30575 0.0
H3624 H 0.00063 0.69379 0.65696 0.0
H3625 H 0.99876 0.66293 0.63672 0.0
H3626 H 0.98877 0.68615 0.5882 0.0
H3627 H 0.99059 0.71715 0.60828 0.0
H3628 H 0.97264 0.63748 0.60221 0.0
H3629 H 0.04122 0.67317 0.58998 0.0
H3630 H 0.03032 0.68192 0.60997 0.0
H3631 H 0.02347 0.68517 0.58717 0.0
C3632 C 0.99757 0.69225 0.64203 0.0
C3633 C 0.99618 0.70801 0.63417 0.0
C3634 C 0.99636 0.67457 0.63052 0.0
C3635 C 0.99377 0.67244 0.61105 0.0
C3636 C 0.99075 0.68764 0.60325 0.0
H3637 H 0.00353 0.57347 0.52859 0.0
H3638 H 0.99201 0.59947 0.54579 0.0
C3639 C 0.99188 0.70534 0.61475 0.0
C3640 C 0.99765 0.65566 0.59906 0.0
H3641 H 0.03121 0.64107 0.57608 0.0
C3642 C 0.98533 0.63819 0.59629 0.0
C3643 C 0.01435 0.65678 0.59169 0.0
C3644 C 0.02821 0.6752 0.59486 0.0
C3645 C 0.98944 0.62161 0.58635 0.0
C3646 C 0.00622 0.62276 0.5791 0.0
C3647 C 0.01836 0.64031 0.5817 0.0
C3648 C 0.01198 0.60593 0.56939 0.0
C3649 C 0.97612 0.60295 0.58417 0.0
C3650 C 0.02707 0.6011 0.57694 0.0
C3651 C 0.03392 0.58655 0.56701 0.0
C3652 C 0.02581 0.57663 0.54928 0.0
C3653 C 0.01032 0.5811 0.54202 0.0
C3654 C 0.00353 0.59575 0.55195 0.0
H3655 H 0.9654 0.60389 0.59369 0.0
H3656 H 0.96983 0.59867 0.56955 0.0
H3657 H 0.98282 0.59166 0.58699 0.0
H3658 H 0.03378 0.60887 0.5904 0.0
H3659 H 0.04577 0.58339 0.5731 0.0
H3660 H 0.65359 0.7944 0.89083 0.0
H3661 H 0.67947 0.79506 0.87248 0.0
H3662 H 0.64628 0.79392 0.82273 0.0
H3663 H 0.62046 0.79315 0.84074 0.0
H3664 H 0.68112 0.76674 0.8385 0.0
H3665 H 0.68985 0.84033 0.82632 0.0
H3666 H 0.67813 0.83246 0.84526 0.0
H3667 H 0.66752 0.82597 0.8218 0.0
C3668 C 0.65183 0.79422 0.87598 0.0
C3669 C 0.63505 0.79374 0.86722 0.0
C3670 C 0.66659 0.7947 0.86558 0.0
C3671 C 0.66471 0.79492 0.84642 0.0
C3672 C 0.64796 0.79414 0.8376 0.0
H3673 H 0.73674 0.80335 0.75924 0.0
H3674 H 0.71095 0.80239 0.77784 0.0
C3675 C 0.63323 0.79353 0.8479 0.0
C3676 C 0.68004 0.7949 0.83526 0.0
H3677 H 0.70682 0.82092 0.80932 0.0
C3678 C 0.68686 0.77857 0.83214 0.0
C3679 C 0.68722 0.81036 0.82697 0.0
C3680 C 0.68044 0.82837 0.83032 0.0
C3681 C 0.70055 0.777 0.82051 0.0
C3682 C 0.70791 0.7925 0.81213 0.0
C3683 C 0.7011 0.80896 0.81549 0.0
C3684 C 0.72301 0.79226 0.80036 0.0
C3685 C 0.7065 0.75851 0.81721 0.0
C3686 C 0.73837 0.78715 0.80686 0.0
C3687 C 0.75251 0.78674 0.79585 0.0
C3688 C 0.75196 0.7923 0.77849 0.0
C3689 C 0.73714 0.79853 0.77237 0.0
C3690 C 0.72255 0.7981 0.78305 0.0
H3691 H 0.69517 0.74635 0.81725 0.0
H3692 H 0.71239 0.75595 0.80379 0.0
H3693 H 0.71659 0.75881 0.82873 0.0
H3694 H 0.73952 0.78357 0.82053 0.0
H3695 H 0.76412 0.78264 0.80126 0.0
H3696 H 0.43483 0.53859 0.70037 0.0
H3697 H 0.44993 0.53472 0.67164 0.0
H3698 H 0.49173 0.58322 0.6965 0.0
H3699 H 0.47736 0.58594 0.72573 0.0
H3700 H 0.45717 0.54872 0.64516 0.0
H3701 H 0.52531 0.55552 0.67622 0.0
H3702 H 0.50676 0.55426 0.69027 0.0
H3703 H 0.51781 0.57662 0.68489 0.0
C3704 C 0.44738 0.54834 0.69987 0.0
C3705 C 0.45477 0.56249 0.71585 0.0
C3706 C 0.45614 0.54616 0.68314 0.0
C3707 C 0.47265 0.55825 0.68127 0.0
C3708 C 0.47968 0.57284 0.69713 0.0
H3709 H 0.5039 0.55936 0.564 0.0
H3710 H 0.49053 0.56376 0.59367 0.0
C3711 C 0.47118 0.57464 0.71407 0.0
C3712 C 0.4819 0.55585 0.66276 0.0
H3713 H 0.52262 0.5584 0.64431 0.0
C3714 C 0.47152 0.55073 0.64524 0.0
C3715 C 0.50071 0.55789 0.66189 0.0
C3716 C 0.51325 0.56115 0.67931 0.0
C3717 C 0.47899 0.54787 0.62767 0.0
C3718 C 0.49787 0.5512 0.62679 0.0
C3719 C 0.50826 0.55608 0.64429 0.0
C3720 C 0.50698 0.54936 0.60821 0.0
C3721 C 0.46616 0.54035 0.61029 0.0
C3722 C 0.52192 0.54095 0.60584 0.0
C3723 C 0.53021 0.53913 0.58875 0.0
C3724 C 0.52385 0.54537 0.57303 0.0
C3725 C 0.50917 0.55401 0.57544 0.0
C3726 C 0.50122 0.5563 0.59263 0.0
H3727 H 0.4533 0.53199 0.61348 0.0
H3728 H 0.46319 0.55242 0.60457 0.0
H3729 H 0.47168 0.53111 0.5994 0.0
H3730 H 0.52713 0.53545 0.61719 0.0
H3731 H 0.54143 0.53239 0.58775 0.0
H3732 H 0.80508 0.21041 0.98256 0.0
H3733 H 0.8058 0.22645 0.95613 0.0
H3734 H 0.81404 0.17639 0.91965 0.0
H3735 H 0.81294 0.15999 0.94601 0.0
H3736 H 0.82796 0.23436 0.92717 0.0
H3737 H 0.76428 0.18148 0.90115 0.0
H3738 H 0.77491 0.18419 0.92437 0.0
H3739 H 0.78369 0.17215 0.90448 0.0
C3740 C 0.80749 0.20293 0.96902 0.0
C3741 C 0.80853 0.18379 0.96625 0.0
C3742 C 0.80798 0.21216 0.95395 0.0
C3743 C 0.80959 0.20244 0.93591 0.0
C3744 C 0.81248 0.18399 0.93345 0.0
H3745 H 0.78795 0.25373 0.83903 0.0
H3746 H 0.80321 0.23727 0.85888 0.0
C3747 C 0.81186 0.17467 0.94851 0.0
C3748 C 0.80542 0.21063 0.91966 0.0
H3749 H 0.77203 0.2066 0.8856 0.0
C3750 C 0.81596 0.22812 0.91778 0.0
C3751 C 0.78959 0.20252 0.90764 0.0
C3752 C 0.77735 0.18413 0.90949 0.0
C3753 C 0.81069 0.23806 0.90459 0.0
C3754 C 0.79455 0.23023 0.89315 0.0
C3755 C 0.78447 0.21239 0.89441 0.0
C3756 C 0.78658 0.24131 0.8816 0.0
C3757 C 0.82174 0.25731 0.90363 0.0
C3758 C 0.77232 0.249 0.88796 0.0
C3759 C 0.76368 0.25843 0.87681 0.0
C3760 C 0.76907 0.26022 0.859 0.0
C3761 C 0.78359 0.25273 0.85277 0.0
C3762 C 0.7923 0.24331 0.86402 0.0
H3763 H 0.83395 0.26148 0.91359 0.0
H3764 H 0.8257 0.25728 0.88922 0.0
H3765 H 0.81367 0.26815 0.90683 0.0
H3766 H 0.76777 0.24753 0.90153 0.0
H3767 H 0.75276 0.26433 0.88214 0.0
H3768 H 0.14137 0.48691 0.19303 0.0
H3769 H 0.12041 0.48214 0.16542 0.0
H3770 H 0.16083 0.51594 0.13927 0.0
H3771 H 0.18206 0.52007 0.16661 0.0
H3772 H 0.10915 0.51053 0.15605 0.0
H3773 H 0.13794 0.47576 0.09501 0.0
H3774 H 0.14602 0.47616 0.11878 0.0
H3775 H 0.15375 0.49612 0.10793 0.0
C3776 C 0.14592 0.4928 0.18111 0.0
C3777 C 0.16326 0.5039 0.18189 0.0
C3778 C 0.13394 0.49008 0.16537 0.0
C3779 C 0.13904 0.49859 0.15022 0.0
C3780 C 0.1567 0.50883 0.15057 0.0
H3781 H 0.09566 0.54574 0.06837 0.0
H3782 H 0.1121 0.53505 0.09203 0.0
C3783 C 0.16882 0.51128 0.16623 0.0
C3784 C 0.12531 0.49919 0.13553 0.0
H3785 H 0.11686 0.49455 0.08836 0.0
C3786 C 0.11061 0.50658 0.14123 0.0
C3787 C 0.1272 0.49403 0.11621 0.0
C3788 C 0.14199 0.48489 0.10914 0.0
C3789 C 0.09834 0.51 0.12817 0.0
C3790 C 0.10089 0.50592 0.10899 0.0
C3791 C 0.11505 0.4977 0.10317 0.0
C3792 C 0.09033 0.5122 0.095 0.0
C3793 C 0.08335 0.51898 0.13496 0.0
C3794 C 0.07253 0.50298 0.0891 0.0
C3795 C 0.06299 0.50905 0.07547 0.0
C3796 C 0.0712 0.52442 0.06764 0.0
C3797 C 0.08892 0.53381 0.074 0.0
C3798 C 0.09839 0.5277 0.08749 0.0
H3799 H 0.08388 0.52234 0.15049 0.0
H3800 H 0.08386 0.53225 0.12962 0.0
H3801 H 0.07037 0.50917 0.12941 0.0
H3802 H 0.06615 0.49095 0.09481 0.0
H3803 H 0.0494 0.50145 0.07079 0.0
H3804 H 0.78244 0.8772 0.45193 0.0
H3805 H 0.78358 0.85663 0.42196 0.0
H3806 H 0.81149 0.82283 0.44966 0.0
H3807 H 0.81037 0.84345 0.47999 0.0
H3808 H 0.82782 0.83557 0.41831 0.0
H3809 H 0.75638 0.80146 0.39991 0.0
H3810 H 0.76013 0.82668 0.40782 0.0
H3811 H 0.76559 0.81225 0.42367 0.0
C3812 C 0.78866 0.86528 0.45175 0.0
C3813 C 0.79632 0.86199 0.46838 0.0
C3814 C 0.78918 0.85344 0.43459 0.0
C3815 C 0.7974 0.83805 0.43361 0.0
C3816 C 0.80493 0.83454 0.45016 0.0
H3817 H 0.79674 0.77551 0.3171 0.0
H3818 H 0.79935 0.77943 0.35152 0.0
C3819 C 0.80425 0.84631 0.46745 0.0
C3820 C 0.79917 0.82679 0.415 0.0
H3821 H 0.77458 0.80355 0.37395 0.0
C3822 C 0.81622 0.82814 0.40872 0.0
C3823 C 0.78405 0.81684 0.4026 0.0
C3824 C 0.76551 0.81403 0.40889 0.0
C3825 C 0.81839 0.82126 0.38989 0.0
C3826 C 0.80318 0.81286 0.37714 0.0
C3827 C 0.78624 0.81007 0.38376 0.0
C3828 C 0.80422 0.81007 0.35666 0.0
C3829 C 0.83684 0.8235 0.38348 0.0
C3830 C 0.80623 0.82596 0.34829 0.0
C3831 C 0.80452 0.82375 0.32886 0.0
C3832 C 0.80116 0.80563 0.31739 0.0
C3833 C 0.79974 0.78966 0.32569 0.0
C3834 C 0.80117 0.79187 0.34527 0.0
H3835 H 0.84739 0.82886 0.39535 0.0
H3836 H 0.83849 0.80958 0.37577 0.0
H3837 H 0.83864 0.83353 0.37372 0.0
H3838 H 0.80833 0.84008 0.35684 0.0
H3839 H 0.80542 0.83622 0.32276 0.0
H3840 H 0.43981 0.5623 0.84439 0.0
H3841 H 0.45178 0.55955 0.87566 0.0
H3842 H 0.50334 0.56016 0.8555 0.0
H3843 H 0.49167 0.56302 0.82481 0.0
H3844 H 0.46663 0.53209 0.88817 0.0
H3845 H 0.51918 0.59801 0.90338 0.0
H3846 H 0.5018 0.59341 0.88452 0.0
H3847 H 0.52099 0.58321 0.88144 0.0
C3848 C 0.4538 0.56232 0.84669 0.0
C3849 C 0.46463 0.56322 0.83163 0.0
C3850 C 0.46071 0.56053 0.86473 0.0
C3851 C 0.47881 0.55988 0.86864 0.0
C3852 C 0.48955 0.56104 0.85362 0.0
H3853 H 0.54831 0.54691 0.96694 0.0
H3854 H 0.53637 0.54978 0.9357 0.0
C3855 C 0.48268 0.56264 0.83573 0.0
C3856 C 0.48649 0.55734 0.88782 0.0
H3857 H 0.52122 0.57563 0.92271 0.0
C3858 C 0.47848 0.54181 0.8957 0.0
C3859 C 0.50222 0.56959 0.89811 0.0
C3860 C 0.51147 0.58709 0.89156 0.0
C3861 C 0.48568 0.53808 0.91274 0.0
C3862 C 0.50133 0.55041 0.92311 0.0
C3863 C 0.50936 0.56592 0.91521 0.0
C3864 C 0.50902 0.54789 0.9423 0.0
C3865 C 0.47663 0.52036 0.91907 0.0
C3866 C 0.49812 0.54592 0.95711 0.0
C3867 C 0.50496 0.54414 0.97493 0.0
C3868 C 0.5231 0.54418 0.97912 0.0
C3869 C 0.53421 0.54628 0.96443 0.0
C3870 C 0.52731 0.54813 0.94644 0.0
H3871 H 0.46926 0.50939 0.90708 0.0
H3872 H 0.48639 0.51421 0.92622 0.0
H3873 H 0.46683 0.52387 0.92898 0.0
H3874 H 0.48419 0.54624 0.95511 0.0
H3875 H 0.49589 0.54298 0.98574 0.0
H3876 H 0.7983 0.20197 0.06025 0.0
H3877 H 0.7993 0.22528 0.08925 0.0
H3878 H 0.76125 0.18438 0.11064 0.0
H3879 H 0.76019 0.161 0.08193 0.0
H3880 H 0.76921 0.23885 0.1095 0.0
H3881 H 0.80831 0.19973 0.14766 0.0
H3882 H 0.80643 0.19661 0.12245 0.0
H3883 H 0.78837 0.18546 0.13407 0.0
C3884 C 0.79005 0.19797 0.07107 0.0
C3885 C 0.77936 0.17953 0.0689 0.0
C3886 C 0.79058 0.21133 0.08754 0.0
C3887 C 0.78045 0.20641 0.10201 0.0
C3888 C 0.76925 0.18832 0.09961 0.0
H3889 H 0.76969 0.24358 0.21609 0.0
H3890 H 0.76659 0.22908 0.18312 0.0
C3891 C 0.76873 0.17498 0.08322 0.0
C3892 C 0.78249 0.21952 0.12026 0.0
H3893 H 0.79692 0.22378 0.16604 0.0
C3894 C 0.77541 0.23576 0.12189 0.0
C3895 C 0.79071 0.21539 0.13624 0.0
C3896 C 0.79904 0.19844 0.13509 0.0
C3897 C 0.77558 0.24754 0.13945 0.0
C3898 C 0.78324 0.24297 0.15552 0.0
C3899 C 0.79093 0.22714 0.15367 0.0
C3900 C 0.78262 0.25347 0.17469 0.0
C3901 C 0.76698 0.26428 0.14083 0.0
C3902 C 0.79209 0.27233 0.18077 0.0
C3903 C 0.79373 0.28086 0.19978 0.0
C3904 C 0.78634 0.27043 0.21292 0.0
C3905 C 0.77593 0.25197 0.20649 0.0
C3906 C 0.77408 0.24361 0.18759 0.0
H3907 H 0.75876 0.26378 0.12771 0.0
H3908 H 0.75843 0.26488 0.15263 0.0
H3909 H 0.77751 0.27756 0.14357 0.0
H3910 H 0.79887 0.28014 0.17103 0.0
H3911 H 0.80129 0.29531 0.2042 0.0
H3912 H 0.14482 0.56811 0.27958 0.0
H3913 H 0.12923 0.56988 0.30783 0.0
H3914 H 0.1505 0.5242 0.32243 0.0
H3915 H 0.16647 0.52248 0.29415 0.0
H3916 H 0.10349 0.53883 0.31322 0.0
H3917 H 0.15668 0.56295 0.37252 0.0
H3918 H 0.16065 0.56617 0.34902 0.0
H3919 H 0.15901 0.54327 0.35486 0.0
C3920 C 0.14643 0.5586 0.28891 0.0
C3921 C 0.15673 0.545 0.28454 0.0
C3922 C 0.13755 0.55969 0.30508 0.0
C3923 C 0.13876 0.54723 0.3172 0.0
C3924 C 0.14962 0.53414 0.31336 0.0
H3925 H 0.07651 0.52404 0.4097 0.0
H3926 H 0.09788 0.52401 0.38603 0.0
C3927 C 0.15866 0.53311 0.29718 0.0
C3928 C 0.1271 0.54672 0.33262 0.0
H3929 H 0.12692 0.55439 0.38017 0.0
C3930 C 0.10861 0.54226 0.32787 0.0
C3931 C 0.13387 0.55103 0.35165 0.0
C3932 C 0.15364 0.55627 0.35743 0.0
C3933 C 0.09666 0.54213 0.34165 0.0
C3934 C 0.1034 0.54684 0.3607 0.0
C3935 C 0.12187 0.55091 0.36551 0.0
C3936 C 0.09132 0.54768 0.37573 0.0
C3937 C 0.07689 0.53677 0.33574 0.0
C3938 C 0.0808 0.56119 0.37787 0.0
C3939 C 0.06862 0.5613 0.39138 0.0
C3940 C 0.06685 0.54793 0.40303 0.0
C3941 C 0.07769 0.53464 0.40105 0.0
C3942 C 0.08987 0.53456 0.38754 0.0
H3943 H 0.07394 0.52928 0.32087 0.0
H3944 H 0.06971 0.52754 0.34466 0.0
H3945 H 0.07161 0.54983 0.33734 0.0
H3946 H 0.08195 0.57159 0.369 0.0
H3947 H 0.0607 0.57192 0.3928 0.0
H3948 H 0.79267 0.83159 0.56359 0.0
H3949 H 0.79121 0.81597 0.5906 0.0
H3950 H 0.80919 0.8704 0.62777 0.0
H3951 H 0.81067 0.88609 0.601 0.0
H3952 H 0.81897 0.81811 0.62039 0.0
H3953 H 0.76131 0.84586 0.6465 0.0
H3954 H 0.76737 0.84553 0.62288 0.0
H3955 H 0.77949 0.86365 0.64187 0.0
C3956 C 0.79639 0.84022 0.57752 0.0
C3957 C 0.80169 0.8601 0.58016 0.0
C3958 C 0.79556 0.83127 0.59291 0.0
C3959 C 0.79985 0.84206 0.61117 0.0
C3960 C 0.80556 0.86184 0.6138 0.0
H3961 H 0.80533 0.8289 0.72474 0.0
H3962 H 0.80652 0.83899 0.69488 0.0
C3963 C 0.80647 0.87078 0.59847 0.0
C3964 C 0.79816 0.83283 0.6276 0.0
H3965 H 0.7766 0.83182 0.66724 0.0
C3966 C 0.80959 0.82089 0.63055 0.0
C3967 C 0.78584 0.83645 0.64075 0.0
C3968 C 0.77267 0.84843 0.63782 0.0
C3969 C 0.80952 0.81313 0.64678 0.0
C3970 C 0.79757 0.81726 0.66019 0.0
C3971 C 0.78581 0.82875 0.65695 0.0
C3972 C 0.7976 0.81067 0.67819 0.0
C3973 C 0.82267 0.80119 0.64984 0.0
C3974 C 0.7922 0.79136 0.67877 0.0
C3975 C 0.7915 0.78554 0.69599 0.0
C3976 C 0.7962 0.79893 0.71294 0.0
C3977 C 0.8018 0.81819 0.71216 0.0
C3978 C 0.8024 0.824 0.69501 0.0
H3979 H 0.83302 0.80205 0.63978 0.0
H3980 H 0.82935 0.80572 0.66431 0.0
H3981 H 0.81546 0.78615 0.64804 0.0
H3982 H 0.78824 0.78084 0.66593 0.0
H3983 H 0.78721 0.77055 0.69601 0.0
H3984 H 0.73562 0.4294 0.52227 0.0
H3985 H 0.71357 0.44931 0.52314 0.0
H3986 H 0.75232 0.49646 0.55632 0.0
H3987 H 0.77429 0.47701 0.55514 0.0
H3988 H 0.69967 0.46881 0.55276 0.0
H3989 H 0.73687 0.51917 0.51338 0.0
H3990 H 0.74211 0.49653 0.51412 0.0
H3991 H 0.75061 0.51663 0.53289 0.0
C3992 C 0.73931 0.44399 0.5298 0.0
C3993 C 0.75667 0.45177 0.53846 0.0
C3994 C 0.72679 0.45534 0.53022 0.0
C3995 C 0.73153 0.47449 0.53934 0.0
C3996 C 0.74859 0.48191 0.54868 0.0
H3997 H 0.66928 0.55129 0.58744 0.0
H3998 H 0.69014 0.53046 0.58052 0.0
C3999 C 0.76108 0.47073 0.54811 0.0
C4000 C 0.71874 0.48691 0.53967 0.0
H4001 H 0.71511 0.5305 0.53238 0.0
C4002 C 0.7029 0.48217 0.54809 0.0
C4003 C 0.72282 0.50416 0.53319 0.0
C4004 C 0.73894 0.50932 0.5227 0.0
C4005 C 0.69154 0.49479 0.55119 0.0
C4006 C 0.69643 0.5127 0.54614 0.0
C4007 C 0.71169 0.51696 0.53671 0.0
C4008 C 0.68572 0.52713 0.55043 0.0
C4009 C 0.67444 0.48887 0.55989 0.0
C4010 C 0.67727 0.53297 0.53584 0.0
C4011 C 0.66556 0.54497 0.53977 0.0
C4012 C 0.66224 0.55137 0.55836 0.0
C4013 C 0.67172 0.54663 0.57303 0.0
C4014 C 0.6834 0.53455 0.56907 0.0
H4015 H 0.67041 0.47321 0.55834 0.0
H4016 H 0.67637 0.49525 0.57507 0.0
H4017 H 0.66342 0.49389 0.55347 0.0
H4018 H 0.67907 0.52755 0.52138 0.0
H4019 H 0.65843 0.54853 0.52824 0.0
H4020 H 0.22331 0.17557 0.4981 0.0
H4021 H 0.19322 0.15626 0.49816 0.0
H4022 H 0.21366 0.10546 0.48796 0.0
H4023 H 0.24374 0.12459 0.48812 0.0
H4024 H 0.17148 0.12577 0.47124 0.0
H4025 H 0.18975 0.10344 0.53694 0.0
H4026 H 0.20364 0.12276 0.52881 0.0
H4027 H 0.20361 0.09863 0.5184 0.0
C4028 C 0.22137 0.16028 0.49573 0.0
C4029 C 0.23593 0.15161 0.49333 0.0
C4030 C 0.20418 0.14928 0.49573 0.0
C4031 C 0.2013 0.12948 0.49337 0.0
C4032 C 0.21567 0.12075 0.49015 0.0
H4033 H 0.09712 0.04982 0.48018 0.0
H4034 H 0.1265 0.06712 0.47447 0.0
C4035 C 0.23284 0.13171 0.49019 0.0
C4036 C 0.18342 0.11802 0.49511 0.0
H4037 H 0.16085 0.08952 0.52209 0.0
C4038 C 0.16911 0.11779 0.48232 0.0
C4039 C 0.1804 0.10782 0.5097 0.0
C4040 C 0.1951 0.10824 0.52437 0.0
C4041 C 0.1518 0.10757 0.48373 0.0
C4042 C 0.14885 0.09718 0.49819 0.0
C4043 C 0.16319 0.09739 0.51093 0.0
C4044 C 0.13085 0.08683 0.50113 0.0
C4045 C 0.13675 0.10842 0.4701 0.0
C4046 C 0.12368 0.09196 0.5181 0.0
C4047 C 0.1071 0.08195 0.52152 0.0
C4048 C 0.09731 0.06648 0.50806 0.0
C4049 C 0.1044 0.06149 0.49094 0.0
C4050 C 0.1211 0.0715 0.48755 0.0
H4051 H 0.14049 0.12029 0.46259 0.0
H4052 H 0.13323 0.09497 0.45952 0.0
H4053 H 0.12472 0.11007 0.4774 0.0
H4054 H 0.13099 0.10373 0.52877 0.0
H4055 H 0.10207 0.08627 0.53484 0.0
H4056 H 0.17602 0.93119 0.75865 0.0
H4057 H 0.19098 0.90498 0.75905 0.0
H4058 H 0.24178 0.94468 0.7706 0.0
H4059 H 0.22679 0.97091 0.76956 0.0
H4060 H 0.24829 0.91525 0.74956 0.0
H4061 H 0.20707 0.88322 0.79975 0.0
H4062 H 0.19362 0.88381 0.77923 0.0
H4063 H 0.2053 0.9057 0.79439 0.0
C4064 C 0.19039 0.93453 0.76136 0.0
C4065 C 0.19986 0.95372 0.76418 0.0
C4066 C 0.19913 0.91925 0.7618 0.0
C4067 C 0.21791 0.92213 0.76541 0.0
C4068 C 0.22741 0.94133 0.7679 0.0
H4069 H 0.2663 0.83211 0.80138 0.0
H4070 H 0.2529 0.85877 0.79834 0.0
C4071 C 0.21867 0.95663 0.76735 0.0
C4072 C 0.22753 0.90548 0.76637 0.0
H4073 H 0.22571 0.86472 0.78425 0.0
C4074 C 0.24322 0.90431 0.75725 0.0
C4075 C 0.22172 0.89076 0.77653 0.0
C4076 C 0.20614 0.89099 0.78819 0.0
C4077 C 0.25268 0.88946 0.75775 0.0
C4078 C 0.24648 0.87436 0.76736 0.0
C4079 C 0.23089 0.87568 0.77662 0.0
C4080 C 0.25607 0.85776 0.7689 0.0
C4081 C 0.26974 0.89068 0.74839 0.0
C4082 C 0.26303 0.84731 0.75362 0.0
C4083 C 0.27122 0.83182 0.7555 0.0
C4084 C 0.27279 0.82579 0.77275 0.0
C4085 C 0.26575 0.83612 0.78785 0.0
C4086 C 0.2578 0.85159 0.78604 0.0
H4087 H 0.27567 0.90546 0.74708 0.0
H4088 H 0.27972 0.88553 0.75631 0.0
H4089 H 0.26689 0.88183 0.73406 0.0
H4090 H 0.26172 0.85068 0.73989 0.0
H4091 H 0.27589 0.82423 0.74326 0.0
H4092 H 0.36214 0.94256 0.04446 0.0
H4093 H 0.39438 0.94835 0.05199 0.0
H4094 H 0.40191 0.99712 0.02598 0.0
H4095 H 0.3698 0.99141 0.01817 0.0
H4096 H 0.41916 0.96561 0.01127 0.0
H4097 H 0.43279 0.99253 0.08835 0.0
H4098 H 0.41437 0.97277 0.07905 0.0
H4099 H 0.41349 0.99599 0.07549 0.0
C4100 C 0.37062 0.95475 0.04065 0.0
C4101 C 0.36345 0.96642 0.0305 0.0
C4102 C 0.38901 0.95805 0.04507 0.0
C4103 C 0.40039 0.97316 0.03958 0.0
C4104 C 0.39322 0.98541 0.03037 0.0
H4105 H 0.49465 0.04135 0.03955 0.0
H4106 H 0.46943 0.02264 0.05152 0.0
C4107 C 0.3749 0.98209 0.02586 0.0
C4108 C 0.41981 0.97497 0.04101 0.0
H4109 H 0.45759 0.99384 0.07059 0.0
C4110 C 0.42766 0.97137 0.02425 0.0
C4111 C 0.43061 0.98227 0.05806 0.0
C4112 C 0.42251 0.98619 0.07635 0.0
C4113 C 0.44611 0.97655 0.02374 0.0
C4114 C 0.45702 0.98503 0.04068 0.0
C4115 C 0.4492 0.98715 0.05771 0.0
C4116 C 0.47549 0.99558 0.04017 0.0
C4117 C 0.45344 0.97461 0.00482 0.0
C4118 C 0.48801 0.98664 0.0311 0.0
C4119 C 0.50225 0.99738 0.0239 0.0
C4120 C 0.50456 0.01714 0.02672 0.0
C4121 C 0.49332 0.02616 0.03773 0.0
C4122 C 0.47895 0.01546 0.0446 0.0
H4123 H 0.44274 0.97007 0.99305 0.0
H4124 H 0.46198 0.9883 0.00325 0.0
H4125 H 0.46166 0.96383 0.00348 0.0
H4126 H 0.48568 0.97132 0.02779 0.0
H4127 H 0.51059 0.99021 0.01498 0.0
H4128 H 0.89589 0.61481 0.82964 0.0
H4129 H 0.88035 0.64076 0.83122 0.0
H4130 H 0.8365 0.60295 0.79464 0.0
H4131 H 0.85135 0.57703 0.79404 0.0
H4132 H 0.8756 0.65602 0.80462 0.0
H4133 H 0.80843 0.63343 0.82426 0.0
H4134 H 0.82552 0.62099 0.82878 0.0
H4135 H 0.81138 0.61401 0.80694 0.0
C4136 C 0.88262 0.61195 0.82254 0.0
C4137 C 0.87487 0.59397 0.81157 0.0
C4138 C 0.87375 0.62678 0.82344 0.0
C4139 C 0.85713 0.6239 0.81318 0.0
C4140 C 0.84898 0.60557 0.80323 0.0
H4141 H 0.83228 0.67646 0.7303 0.0
H4142 H 0.8458 0.66472 0.75506 0.0
C4143 C 0.85763 0.5907 0.80268 0.0
C4144 C 0.84987 0.64022 0.80963 0.0
H4145 H 0.81022 0.64959 0.79645 0.0
C4146 C 0.86132 0.65497 0.80347 0.0
C4147 C 0.83139 0.63967 0.80882 0.0
C4148 C 0.8186 0.62626 0.81782 0.0
C4149 C 0.85455 0.66744 0.79427 0.0
C4150 C 0.83589 0.66444 0.79028 0.0
C4151 C 0.82456 0.65145 0.7987 0.0
C4152 C 0.828 0.67265 0.77564 0.0
C4153 C 0.86755 0.68321 0.78835 0.0
C4154 C 0.81282 0.68012 0.77848 0.0
C4155 C 0.80436 0.68586 0.76389 0.0
C4156 C 0.81111 0.68465 0.7462 0.0
C4157 C 0.82646 0.6774 0.74354 0.0
C4158 C 0.83457 0.67114 0.75794 0.0
H4159 H 0.87907 0.68904 0.79912 0.0
H4160 H 0.87289 0.67748 0.77521 0.0
H4161 H 0.86124 0.69496 0.78609 0.0
H4162 H 0.8073 0.6812 0.7919 0.0
H4163 H 0.79232 0.69089 0.76649 0.0
H4164 H 0.84345 0.65822 0.99361 0.0
H4165 H 0.86916 0.6432 0.99358 0.0
H4166 H 0.85615 0.62693 0.04588 0.0
H4167 H 0.83055 0.64148 0.04588 0.0
H4168 H 0.89981 0.64665 0.02091 0.0
H4169 H 0.85311 0.57625 0.00873 0.0
H4170 H 0.84617 0.59741 0.00525 0.0
H4171 H 0.84863 0.59262 0.02843 0.0
C4172 C 0.84628 0.6517 0.00523 0.0
C4173 C 0.83481 0.65077 0.01959 0.0
C4174 C 0.86094 0.64312 0.00518 0.0
C4175 C 0.8643 0.6336 0.01953 0.0
C4176 C 0.85357 0.63384 0.03447 0.0
H4177 H 0.92817 0.56375 0.0557 0.0
H4178 H 0.90831 0.58462 0.05092 0.0
C4179 C 0.83894 0.6422 0.03445 0.0
C4180 C 0.87817 0.62226 0.0186 0.0
H4181 H 0.88329 0.57736 0.01889 0.0
C4182 C 0.89626 0.63146 0.02019 0.0
C4183 C 0.87348 0.60241 0.01748 0.0
C4184 C 0.85429 0.59154 0.01469 0.0
C4185 C 0.90978 0.62144 0.02177 0.0
C4186 C 0.905 0.60175 0.02162 0.0
C4187 C 0.88693 0.59248 0.01921 0.0
C4188 C 0.91832 0.59051 0.02499 0.0
C4189 C 0.92902 0.63205 0.0244 0.0
C4190 C 0.93067 0.58697 0.01204 0.0
C4191 C 0.94203 0.5749 0.01469 0.0
C4192 C 0.94113 0.56605 0.03026 0.0
C4193 C 0.92902 0.57004 0.04339 0.0
C4194 C 0.91773 0.58208 0.04075 0.0
H4195 H 0.93039 0.64767 0.02731 0.0
H4196 H 0.93629 0.62817 0.0361 0.0
H4197 H 0.93548 0.62807 0.01147 0.0
H4198 H 0.93115 0.59307 0.99961 0.0
H4199 H 0.95107 0.57198 0.00421 0.0
H4200 H 0.17579 0.08613 0.75912 0.0
H4201 H 0.19394 0.11769 0.76089 0.0
H4202 H 0.2394 0.10055 0.78318 0.0
H4203 H 0.22111 0.06821 0.78084 0.0
H4204 H 0.20913 0.14455 0.78768 0.0
H4205 H 0.26397 0.12755 0.74635 0.0
H4206 H 0.24409 0.10991 0.74742 0.0
H4207 H 0.26158 0.11652 0.76631 0.0
C4208 C 0.18969 0.0888 0.76435 0.0
C4209 C 0.19676 0.07415 0.76981 0.0
C4210 C 0.20018 0.10718 0.76539 0.0
C4211 C 0.21837 0.11204 0.77199 0.0
C4212 C 0.22561 0.09748 0.77754 0.0
H4213 H 0.29473 0.22521 0.79039 0.0
H4214 H 0.28032 0.19211 0.79041 0.0
C4215 C 0.21503 0.07883 0.77634 0.0
C4216 C 0.22906 0.13242 0.7734 0.0
H4217 H 0.26692 0.15977 0.76079 0.0
C4218 C 0.22175 0.14769 0.7817 0.0
C4219 C 0.24571 0.13714 0.76579 0.0
C4220 C 0.25426 0.12196 0.75581 0.0
C4221 C 0.23027 0.16696 0.78253 0.0
C4222 C 0.24675 0.17165 0.77471 0.0
C4223 C 0.25433 0.15649 0.7668 0.0
C4224 C 0.25596 0.19208 0.77432 0.0
C4225 C 0.22157 0.18223 0.79207 0.0
C4226 C 0.24745 0.20357 0.76515 0.0
C4227 C 0.25584 0.22256 0.76488 0.0
C4228 C 0.27315 0.23095 0.77378 0.0
C4229 C 0.28163 0.21944 0.78303 0.0
C4230 C 0.27328 0.20035 0.78313 0.0
H4231 H 0.21191 0.17686 0.80168 0.0
H4232 H 0.23168 0.19452 0.80018 0.0
H4233 H 0.21419 0.18729 0.78131 0.0
H4234 H 0.23425 0.19778 0.75796 0.0
H4235 H 0.24868 0.23065 0.75755 0.0
H4236 H 0.40149 0.97143 0.2565 0.0
H4237 H 0.38211 0.94057 0.25659 0.0
H4238 H 0.35362 0.96665 0.29955 0.0
H4239 H 0.37293 0.99768 0.29959 0.0
H4240 H 0.36636 0.93465 0.30715 0.0
H4241 H 0.32851 0.91944 0.23731 0.0
H4242 H 0.35218 0.92726 0.23695 0.0
H4243 H 0.33982 0.94313 0.24911 0.0
C4244 C 0.39103 0.97066 0.26588 0.0
C4245 C 0.38878 0.987 0.27808 0.0
C4246 C 0.37988 0.95305 0.26579 0.0
C4247 C 0.36633 0.95145 0.27789 0.0
C4248 C 0.36394 0.96769 0.29 0.0
H4249 H 0.29513 0.83973 0.26951 0.0
H4250 H 0.30531 0.87421 0.274 0.0
C4251 C 0.37499 0.98537 0.29 0.0
C4252 C 0.35565 0.93254 0.27881 0.0
H4253 H 0.32858 0.89286 0.25194 0.0
C4254 C 0.35787 0.92558 0.2952 0.0
C4255 C 0.34441 0.9209 0.26329 0.0
C4256 C 0.34091 0.92809 0.24571 0.0
C4257 C 0.34993 0.90684 0.29609 0.0
C4258 C 0.33967 0.89478 0.28012 0.0
C4259 C 0.33659 0.90209 0.26411 0.0
C4260 C 0.33321 0.87421 0.2792 0.0
C4261 C 0.35277 0.90004 0.314 0.0
C4262 C 0.34552 0.86283 0.28053 0.0
C4263 C 0.3397 0.8432 0.27815 0.0
C4264 C 0.32148 0.83465 0.27458 0.0
C4265 C 0.30917 0.84601 0.27302 0.0
C4266 C 0.31498 0.86568 0.27541 0.0
H4267 H 0.35644 0.91202 0.32625 0.0
H4268 H 0.34055 0.89017 0.31646 0.0
H4269 H 0.36374 0.89237 0.31294 0.0
H4270 H 0.35968 0.86908 0.28292 0.0
H4271 H 0.34946 0.83466 0.27903 0.0
H4272 H 0.5768 0.35074 0.5638 0.0
H4273 H 0.57169 0.3778 0.55067 0.0
H4274 H 0.56584 0.40751 0.60589 0.0
H4275 H 0.57124 0.38078 0.61907 0.0
H4276 H 0.54337 0.39447 0.5501 0.0
H4277 H 0.60131 0.44795 0.58893 0.0
H4278 H 0.5988 0.42289 0.58822 0.0
H4279 H 0.58699 0.43657 0.60407 0.0
C4280 C 0.57454 0.36308 0.57318 0.0
C4281 C 0.5746 0.36351 0.59257 0.0
C4282 C 0.57157 0.3786 0.56563 0.0
C4283 C 0.56868 0.39505 0.57724 0.0
C4284 C 0.5685 0.39535 0.59657 0.0
H4285 H 0.54358 0.50174 0.55645 0.0
H4286 H 0.54555 0.47361 0.56958 0.0
C4287 C 0.57148 0.3799 0.60412 0.0
C4288 C 0.56545 0.41165 0.56916 0.0
H4289 H 0.57996 0.45969 0.57256 0.0
C4290 C 0.5515 0.40868 0.55496 0.0
C4291 C 0.57589 0.43039 0.57544 0.0
C4292 C 0.59169 0.43466 0.58987 0.0
C4293 C 0.54761 0.42375 0.54715 0.0
C4294 C 0.55796 0.44243 0.55352 0.0
C4295 C 0.57188 0.44546 0.56773 0.0
C4296 C 0.55509 0.45884 0.54503 0.0
C4297 C 0.53203 0.41978 0.53257 0.0
C4298 C 0.55961 0.45999 0.52679 0.0
C4299 C 0.55858 0.47607 0.51935 0.0
C4300 C 0.55268 0.49133 0.52976 0.0
C4301 C 0.54773 0.49004 0.54786 0.0
C4302 C 0.549 0.47401 0.55543 0.0
H4303 H 0.52428 0.40488 0.53025 0.0
H4304 H 0.52305 0.42941 0.53704 0.0
H4305 H 0.53683 0.42262 0.51908 0.0
H4306 H 0.56456 0.44871 0.51851 0.0
H4307 H 0.56283 0.4768 0.50553 0.0
H4308 H 0.46762 0.75399 0.35407 0.0
H4309 H 0.43745 0.75448 0.34252 0.0
H4310 H 0.42402 0.76813 0.39924 0.0
H4311 H 0.45442 0.76738 0.41102 0.0
H4312 H 0.39999 0.73392 0.35451 0.0
H4313 H 0.41764 0.81295 0.3683 0.0
H4314 H 0.43455 0.79935 0.36437 0.0
H4315 H 0.42403 0.80054 0.38575 0.0
C4316 C 0.45817 0.75668 0.36415 0.0
C4317 C 0.46347 0.76059 0.3835 0.0
C4318 C 0.4409 0.75699 0.35749 0.0
C4319 C 0.42848 0.76148 0.36996 0.0
C4320 C 0.4334 0.76464 0.38934 0.0
H4321 H 0.33092 0.79603 0.33533 0.0
H4322 H 0.3555 0.79024 0.35436 0.0
C4323 C 0.45072 0.76406 0.39606 0.0
C4324 C 0.41092 0.76395 0.3624 0.0
H4325 H 0.39004 0.79777 0.35151 0.0
C4326 C 0.3977 0.74788 0.35405 0.0
C4327 C 0.40787 0.78214 0.36183 0.0
C4328 C 0.42171 0.79984 0.37047 0.0
C4329 C 0.38165 0.7495 0.34495 0.0
C4330 C 0.37895 0.76771 0.34352 0.0
C4331 C 0.392 0.78379 0.35243 0.0
C4332 C 0.36318 0.77041 0.33219 0.0
C4333 C 0.36773 0.73161 0.33712 0.0
C4334 C 0.35908 0.76125 0.3133 0.0
C4335 C 0.34488 0.76438 0.30243 0.0
C4336 C 0.33457 0.77717 0.30991 0.0
C4337 C 0.33855 0.78618 0.32892 0.0
C4338 C 0.35269 0.7829 0.33987 0.0
H4339 H 0.36875 0.72026 0.34497 0.0
H4340 H 0.35404 0.73415 0.33758 0.0
H4341 H 0.36987 0.72633 0.32234 0.0
H4342 H 0.36708 0.75188 0.30675 0.0
H4343 H 0.34209 0.75679 0.28809 0.0
H4344 H 0.06056 0.75084 0.07398 0.0
H4345 H 0.05508 0.71759 0.057 0.0
H4346 H 0.09493 0.70719 0.09488 0.0
H4347 H 0.10042 0.73997 0.11168 0.0
H4348 H 0.09661 0.69058 0.05679 0.0
H4349 H 0.02828 0.67266 0.07952 0.0
H4350 H 0.0333 0.6922 0.06758 0.0
H4351 H 0.04426 0.69413 0.09037 0.0
C4352 C 0.06832 0.74152 0.07847 0.0
C4353 C 0.08084 0.7481 0.09431 0.0
C4354 C 0.06509 0.72247 0.06886 0.0
C4355 C 0.07444 0.70974 0.0748 0.0
C4356 C 0.08749 0.71661 0.09002 0.0
H4357 H 0.05728 0.59162 0.07389 0.0
H4358 H 0.0634 0.6263 0.07954 0.0
C4359 C 0.09057 0.73543 0.09967 0.0
C4360 C 0.07037 0.68907 0.06602 0.0
H4361 H 0.0395 0.64753 0.06356 0.0
C4362 C 0.08398 0.68121 0.05789 0.0
C4363 C 0.05402 0.67674 0.06777 0.0
C4364 C 0.0391 0.68422 0.07687 0.0
C4365 C 0.08183 0.66144 0.05192 0.0
C4366 C 0.06566 0.6491 0.05414 0.0
C4367 C 0.05188 0.65697 0.06177 0.0
C4368 C 0.06334 0.62799 0.05028 0.0
C4369 C 0.09727 0.65375 0.04451 0.0
C4370 C 0.06146 0.61725 0.03192 0.0
C4371 C 0.05792 0.59729 0.02865 0.0
C4372 C 0.05642 0.58772 0.04371 0.0
C4373 C 0.05864 0.59857 0.06202 0.0
C4374 C 0.06206 0.61841 0.06526 0.0
H4375 H 0.10904 0.66518 0.04375 0.0
H4376 H 0.10117 0.64467 0.05382 0.0
H4377 H 0.09325 0.64484 0.03031 0.0
H4378 H 0.06216 0.62427 0.02009 0.0
H4379 H 0.05574 0.58941 0.01436 0.0
H4380 H 0.05464 0.24773 0.86959 0.0
H4381 H 0.08126 0.25108 0.85258 0.0
H4382 H 0.1116 0.28911 0.90118 0.0
H4383 H 0.08509 0.28521 0.9185 0.0
H4384 H 0.09953 0.28087 0.84255 0.0
H4385 H 0.1457 0.25594 0.88755 0.0
H4386 H 0.12223 0.25273 0.89052 0.0
H4387 H 0.13734 0.27511 0.90014 0.0
C4388 C 0.06703 0.25664 0.87675 0.0
C4389 C 0.06771 0.26616 0.89545 0.0
C4390 C 0.08228 0.25857 0.86699 0.0
C4391 C 0.09863 0.27016 0.87558 0.0
C4392 C 0.09936 0.27966 0.8943 0.0
H4393 H 0.18149 0.31757 0.80977 0.0
H4394 H 0.15813 0.31241 0.8309 0.0
C4395 C 0.08412 0.27754 0.90418 0.0
C4396 C 0.11446 0.27313 0.86447 0.0
H4397 H 0.15859 0.27171 0.864 0.0
C4398 C 0.11239 0.27876 0.84726 0.0
C4399 C 0.13129 0.27017 0.87037 0.0
C4400 C 0.13426 0.26296 0.88805 0.0
C4401 C 0.12656 0.28169 0.83595 0.0
C4402 C 0.14359 0.27956 0.84221 0.0
C4403 C 0.14565 0.27363 0.85928 0.0
C4404 C 0.15928 0.28332 0.83109 0.0
C4405 C 0.12294 0.28662 0.81716 0.0
C4406 C 0.16857 0.26911 0.82499 0.0
C4407 C 0.18222 0.27216 0.81309 0.0
C4408 C 0.18677 0.28946 0.80699 0.0
C4409 C 0.17808 0.30397 0.81392 0.0
C4410 C 0.16464 0.30099 0.82594 0.0
H4411 H 0.10855 0.28207 0.81209 0.0
H4412 H 0.12693 0.30223 0.81847 0.0
H4413 H 0.13062 0.27989 0.80646 0.0
H4414 H 0.16484 0.2554 0.82888 0.0
H4415 H 0.18864 0.26071 0.80799 0.0
H4416 H 0.58556 0.78522 0.95875 0.0
H4417 H 0.57806 0.76198 0.9787 0.0
H4418 H 0.54809 0.72135 0.93153 0.0
H4419 H 0.55575 0.74443 0.91135 0.0
H4420 H 0.54508 0.7424 0.98705 0.0
H4421 H 0.58377 0.69326 0.95045 0.0
H4422 H 0.58613 0.71728 0.94702 0.0
H4423 H 0.56737 0.69909 0.93556 0.0
C4424 C 0.57729 0.77138 0.95262 0.0
C4425 C 0.57135 0.76661 0.93344 0.0
C4426 C 0.57301 0.75813 0.96405 0.0
C4427 C 0.56278 0.73988 0.95651 0.0
C4428 C 0.5563 0.73526 0.93752 0.0
H4429 H 0.53173 0.63947 0.00404 0.0
H4430 H 0.53418 0.66315 0.98427 0.0
C4431 C 0.5606 0.7485 0.92605 0.0
C4432 C 0.55921 0.72562 0.96853 0.0
H4433 H 0.56694 0.68295 0.97427 0.0
C4434 C 0.54984 0.72939 0.98427 0.0
C4435 C 0.56552 0.70872 0.96488 0.0
C4436 C 0.5764 0.70435 0.94867 0.0
C4437 C 0.54644 0.71657 0.9964 0.0
C4438 C 0.55279 0.69971 0.99276 0.0
C4439 C 0.56205 0.69589 0.97695 0.0
C4440 C 0.55025 0.68591 0.0053 0.0
C4441 C 0.53592 0.72103 0.01287 0.0
C4442 C 0.55844 0.69093 0.0237 0.0
C4443 C 0.55718 0.6774 0.03501 0.0
C4444 C 0.5478 0.65859 0.02804 0.0
C4445 C 0.53927 0.65377 0.00973 0.0
C4446 C 0.54057 0.66728 0.99845 0.0
H4447 H 0.52843 0.73205 0.01118 0.0
H4448 H 0.52637 0.70809 0.0148 0.0
H4449 H 0.54522 0.72642 0.02577 0.0
H4450 H 0.56625 0.70517 0.02911 0.0
H4451 H 0.56409 0.68149 0.04894 0.0
H4452 H 0.05575 0.7763 0.69842 0.0
H4453 H 0.0823 0.76782 0.71042 0.0
H4454 H 0.10164 0.76319 0.65566 0.0
H4455 H 0.07444 0.77083 0.64322 0.0
H4456 H 0.10648 0.73432 0.67164 0.0
H4457 H 0.13078 0.80177 0.72254 0.0
H4458 H 0.10856 0.79076 0.72628 0.0
H4459 H 0.11281 0.79866 0.70464 0.0
C4460 C 0.06569 0.77365 0.68891 0.0
C4461 C 0.06311 0.77439 0.6699 0.0
C4462 C 0.0809 0.76886 0.69583 0.0
C4463 C 0.0941 0.76529 0.68403 0.0
C4464 C 0.09162 0.76602 0.66501 0.0
H4465 H 0.19691 0.76661 0.73529 0.0
H4466 H 0.1724 0.77179 0.71671 0.0
C4467 C 0.07618 0.77049 0.65796 0.0
C4468 C 0.11034 0.76061 0.69171 0.0
H4469 H 0.14301 0.77567 0.72778 0.0
C4470 C 0.11468 0.74344 0.68375 0.0
C4471 C 0.12111 0.77268 0.70733 0.0
C4472 C 0.11818 0.79208 0.71554 0.0
C4473 C 0.12935 0.73783 0.69131 0.0
C4474 C 0.13946 0.7494 0.70764 0.0
C4475 C 0.13518 0.76667 0.71536 0.0
C4476 C 0.15501 0.74456 0.71675 0.0
C4477 C 0.13398 0.71979 0.68152 0.0
C4478 C 0.15365 0.72726 0.72271 0.0
C4479 C 0.16819 0.72376 0.73269 0.0
C4480 C 0.18415 0.73775 0.73736 0.0
C4481 C 0.18524 0.7551 0.73146 0.0
C4482 C 0.17103 0.75828 0.72102 0.0
H4483 H 0.12873 0.71602 0.66652 0.0
H4484 H 0.14862 0.72105 0.68241 0.0
H4485 H 0.12785 0.70795 0.68824 0.0
H4486 H 0.14126 0.71663 0.72004 0.0
H4487 H 0.16683 0.71021 0.73687 0.0
H4488 H 0.11076 0.35572 0.43538 0.0
H4489 H 0.10761 0.38512 0.45545 0.0
H4490 H 0.11654 0.41426 0.40951 0.0
H4491 H 0.12014 0.38513 0.38946 0.0
H4492 H 0.13039 0.43731 0.44474 0.0
H4493 H 0.05988 0.39904 0.44383 0.0
H4494 H 0.07598 0.38787 0.45309 0.0
H4495 H 0.07522 0.38977 0.42887 0.0
C4496 C 0.11251 0.36849 0.42967 0.0
C4497 C 0.11528 0.36799 0.41071 0.0
C4498 C 0.11067 0.38525 0.44115 0.0
C4499 C 0.11135 0.40164 0.43376 0.0
C4500 C 0.11582 0.40167 0.4154 0.0
H4501 H 0.05179 0.48697 0.46771 0.0
H4502 H 0.06507 0.46242 0.4505 0.0
C4503 C 0.11785 0.38498 0.40395 0.0
C4504 C 0.10514 0.41786 0.4442 0.0
H4505 H 0.0681 0.43013 0.46167 0.0
C4506 C 0.11681 0.4358 0.44854 0.0
C4507 C 0.08727 0.41583 0.44865 0.0
C4508 C 0.07378 0.39715 0.44324 0.0
C4509 C 0.11109 0.4518 0.45746 0.0
C4510 C 0.09335 0.44962 0.46237 0.0
C4511 C 0.08171 0.43171 0.45793 0.0
C4512 C 0.08641 0.46565 0.47214 0.0
C4513 C 0.12392 0.47092 0.46112 0.0
C4514 C 0.09408 0.47562 0.48994 0.0
C4515 C 0.08661 0.48974 0.49974 0.0
C4516 C 0.07113 0.49389 0.49205 0.0
C4517 C 0.06364 0.48406 0.47408 0.0
C4518 C 0.07122 0.47004 0.46422 0.0
H4519 H 0.13499 0.47104 0.45194 0.0
H4520 H 0.11701 0.48225 0.45893 0.0
H4521 H 0.12983 0.47432 0.47587 0.0
H4522 H 0.10559 0.4722 0.49645 0.0
H4523 H 0.09294 0.49727 0.5134 0.0
H4524 H 0.46166 0.29292 0.18235 0.0
H4525 H 0.43196 0.29181 0.19309 0.0
H4526 H 0.44471 0.262 0.23576 0.0
H4527 H 0.47447 0.26352 0.22558 0.0
H4528 H 0.4067 0.25956 0.19315 0.0
H4529 H 0.42326 0.30196 0.26547 0.0
H4530 H 0.43937 0.30204 0.24838 0.0
H4531 H 0.43449 0.28283 0.26075 0.0
C4532 C 0.45824 0.28644 0.19425 0.0
C4533 C 0.47043 0.27836 0.20314 0.0
C4534 C 0.44127 0.28577 0.20032 0.0
C4535 C 0.43624 0.27701 0.21534 0.0
C4536 C 0.44848 0.26923 0.22444 0.0
H4537 H 0.33659 0.2549 0.26761 0.0
H4538 H 0.36714 0.25596 0.25899 0.0
C4539 C 0.46548 0.27006 0.21853 0.0
C4540 C 0.41783 0.27492 0.22074 0.0
H4541 H 0.39359 0.28388 0.25759 0.0
C4542 C 0.40376 0.26519 0.20718 0.0
C4543 C 0.41412 0.28183 0.23915 0.0
C4544 C 0.4286 0.29289 0.25423 0.0
C4545 C 0.38601 0.26228 0.21152 0.0
C4546 C 0.38225 0.26967 0.22983 0.0
C4547 C 0.3964 0.27876 0.24349 0.0
C4548 C 0.36378 0.26877 0.23497 0.0
C4549 C 0.37158 0.25081 0.19658 0.0
C4550 C 0.35186 0.27582 0.22452 0.0
C4551 C 0.33442 0.27478 0.22919 0.0
C4552 C 0.32894 0.26772 0.24499 0.0
C4553 C 0.34083 0.26093 0.25567 0.0
C4554 C 0.35816 0.26142 0.25068 0.0
H4555 H 0.37684 0.24074 0.18623 0.0
H4556 H 0.36033 0.24263 0.2027 0.0
H4557 H 0.36642 0.26052 0.18888 0.0
H4558 H 0.35599 0.28202 0.21266 0.0
H4559 H 0.32519 0.27942 0.22043 0.0
H4560 H 0.60905 0.52377 0.31439 0.0
H4561 H 0.59734 0.52541 0.34479 0.0
H4562 H 0.64323 0.50884 0.36668 0.0
H4563 H 0.6553 0.50731 0.33581 0.0
H4564 H 0.58603 0.50101 0.36633 0.0
H4565 H 0.64317 0.55349 0.40783 0.0
H4566 H 0.64123 0.54811 0.38257 0.0
H4567 H 0.64881 0.53233 0.39559 0.0
C4568 C 0.61687 0.52041 0.32553 0.0
C4569 C 0.63341 0.51544 0.3221 0.0
C4570 C 0.60998 0.52136 0.34321 0.0
C4571 C 0.61925 0.51764 0.35874 0.0
C4572 C 0.63569 0.51231 0.35542 0.0
H4573 H 0.59438 0.52466 0.47836 0.0
H4574 H 0.60765 0.52057 0.44848 0.0
C4575 C 0.64261 0.5112 0.33749 0.0
C4576 C 0.61133 0.51921 0.3779 0.0
H4577 H 0.61962 0.54108 0.42462 0.0
C4578 C 0.59351 0.50983 0.379 0.0
C4579 C 0.62066 0.5306 0.39493 0.0
C4580 C 0.63946 0.54187 0.39526 0.0
C4581 C 0.58508 0.51124 0.39605 0.0
C4582 C 0.59427 0.52293 0.41304 0.0
C4583 C 0.61218 0.53215 0.41199 0.0
C4584 C 0.58574 0.5256 0.43185 0.0
C4585 C 0.56643 0.49953 0.39563 0.0
C4586 C 0.56883 0.5302 0.43342 0.0
C4587 C 0.56105 0.53247 0.45077 0.0
C4588 C 0.56984 0.53044 0.46752 0.0
C4589 C 0.5869 0.52627 0.46603 0.0
C4590 C 0.59464 0.52394 0.4487 0.0
H4591 H 0.56359 0.48699 0.38391 0.0
H4592 H 0.56425 0.49447 0.40893 0.0
H4593 H 0.55672 0.50829 0.39348 0.0
H4594 H 0.5616 0.53236 0.42121 0.0
H4595 H 0.54817 0.53613 0.45105 0.0
H4596 H 0.29181 0.87102 0.05063 0.0
H4597 H 0.2988 0.85265 0.07355 0.0
H4598 H 0.32922 0.90384 0.10964 0.0
H4599 H 0.32206 0.92241 0.08694 0.0
H4600 H 0.33343 0.85056 0.08633 0.0
H4601 H 0.29611 0.87843 0.14448 0.0
H4602 H 0.29211 0.8817 0.12085 0.0
H4603 H 0.31145 0.89588 0.13549 0.0
C4604 C 0.29976 0.87841 0.06356 0.0
C4605 C 0.30633 0.89815 0.06704 0.0
C4606 C 0.30382 0.86789 0.07657 0.0
C4607 C 0.31446 0.87694 0.09325 0.0
C4608 C 0.32078 0.89667 0.09694 0.0
H4609 H 0.35771 0.81262 0.1681 0.0
H4610 H 0.35646 0.83494 0.14706 0.0
C4611 C 0.31667 0.90723 0.08396 0.0
C4612 C 0.31924 0.8655 0.10648 0.0
H4613 H 0.31248 0.85597 0.14983 0.0
C4614 C 0.32899 0.8518 0.10028 0.0
C4615 C 0.31342 0.86728 0.12463 0.0
C4616 C 0.30258 0.8815 0.13179 0.0
C4617 C 0.33262 0.83937 0.11161 0.0
C4618 C 0.32644 0.84088 0.12958 0.0
C4619 C 0.31721 0.85498 0.13601 0.0
C4620 C 0.32775 0.8268 0.14123 0.0
C4621 C 0.34232 0.82421 0.10405 0.0
C4622 C 0.31207 0.81485 0.14465 0.0
C4623 C 0.31275 0.80222 0.15652 0.0
C4624 C 0.32914 0.80138 0.16527 0.0
C4625 C 0.34494 0.81292 0.16138 0.0
C4626 C 0.34424 0.82566 0.14946 0.0
H4627 H 0.34408 0.82337 0.08892 0.0
H4628 H 0.3557 0.82734 0.11184 0.0
H4629 H 0.33496 0.81014 0.10607 0.0
H4630 H 0.29925 0.8155 0.1383 0.0
H4631 H 0.3004 0.7933 0.15913 0.0
H4632 H 0.9416 0.57677 0.85146 0.0
H4633 H 0.95954 0.58441 0.88173 0.0
H4634 H 0.98551 0.53867 0.86298 0.0
H4635 H 0.96826 0.53151 0.83265 0.0
H4636 H 0.9608 0.56472 0.90757 0.0
H4637 H 0.02798 0.57979 0.8838 0.0
H4638 H 0.00822 0.57792 0.86856 0.0
H4639 H 0.016 0.55699 0.8712 0.0
C4640 C 0.95122 0.56844 0.85382 0.0
C4641 C 0.95364 0.55363 0.83969 0.0
C4642 C 0.9615 0.57287 0.87104 0.0
C4643 C 0.97424 0.56248 0.87441 0.0
C4644 C 0.97629 0.54738 0.86045 0.0
H4645 H 0.00569 0.52703 0.97006 0.0
H4646 H 0.99136 0.53503 0.94316 0.0
C4647 C 0.96627 0.54316 0.84319 0.0
C4648 C 0.9845 0.56626 0.89291 0.0
H4649 H 0.02586 0.56797 0.91302 0.0
C4650 C 0.97509 0.56589 0.90884 0.0
C4651 C 0.00324 0.56841 0.89475 0.0
C4652 C 0.01442 0.57104 0.87865 0.0
C4653 C 0.98369 0.56592 0.92621 0.0
C4654 C 0.002 0.5656 0.92746 0.0
C4655 C 0.01171 0.56771 0.91195 0.0
C4656 C 0.01083 0.56119 0.94401 0.0
C4657 C 0.97294 0.56582 0.94292 0.0
C4658 C 0.02706 0.57275 0.95285 0.0
C4659 C 0.03556 0.56794 0.96804 0.0
C4660 C 0.02789 0.55154 0.9746 0.0
C4661 C 0.01181 0.53989 0.96552 0.0
C4662 C 0.00348 0.54456 0.95024 0.0
H4663 H 0.96208 0.57347 0.9417 0.0
H4664 H 0.96661 0.55096 0.94352 0.0
H4665 H 0.98139 0.57249 0.95623 0.0
H4666 H 0.03309 0.58551 0.94807 0.0
H4667 H 0.04797 0.57719 0.97479 0.0
H4668 H 0.28141 0.19003 0.58254 0.0
H4669 H 0.28171 0.21062 0.6126 0.0
H4670 H 0.29637 0.25982 0.58782 0.0
H4671 H 0.29619 0.23898 0.55706 0.0
H4672 H 0.31636 0.26101 0.62389 0.0
H4673 H 0.24351 0.24123 0.62736 0.0
H4674 H 0.25282 0.22089 0.62054 0.0
H4675 H 0.25368 0.23788 0.60556 0.0
C4676 C 0.28465 0.20521 0.58326 0.0
C4677 C 0.28857 0.21279 0.56719 0.0
C4678 C 0.28474 0.21699 0.60056 0.0
C4679 C 0.28864 0.23674 0.60242 0.0
C4680 C 0.29311 0.24457 0.58664 0.0
H4681 H 0.29838 0.30045 0.7207 0.0
H4682 H 0.29491 0.2969 0.6863 0.0
C4683 C 0.29303 0.23267 0.5691 0.0
C4684 C 0.28821 0.24866 0.62117 0.0
H4685 H 0.26161 0.25144 0.65717 0.0
C4686 C 0.3043 0.25951 0.63104 0.0
C4687 C 0.27245 0.24677 0.63048 0.0
C4688 C 0.2546 0.23621 0.62037 0.0
C4689 C 0.30529 0.26696 0.65039 0.0
C4690 C 0.28981 0.26349 0.66 0.0
C4691 C 0.27348 0.25403 0.6498 0.0
C4692 C 0.29088 0.26631 0.68074 0.0
C4693 C 0.32309 0.27717 0.66079 0.0
C4694 C 0.28946 0.25033 0.68892 0.0
C4695 C 0.29141 0.25232 0.70833 0.0
C4696 C 0.29445 0.2703 0.72004 0.0
C4697 C 0.29564 0.28639 0.71195 0.0
C4698 C 0.29381 0.28439 0.69236 0.0
H4699 H 0.33393 0.27858 0.65133 0.0
H4700 H 0.3223 0.29156 0.6681 0.0
H4701 H 0.32659 0.26941 0.67161 0.0
H4702 H 0.28726 0.23627 0.68023 0.0
H4703 H 0.29069 0.23974 0.71423 0.0
H4704 H 0.66447 0.5108 0.19204 0.0
H4705 H 0.64963 0.51535 0.16319 0.0
H4706 H 0.59975 0.50901 0.18793 0.0
H4707 H 0.61463 0.50465 0.21687 0.0
H4708 H 0.62445 0.49448 0.13708 0.0
H4709 H 0.59686 0.55538 0.16824 0.0
H4710 H 0.61281 0.5468 0.18132 0.0
H4711 H 0.5896 0.53493 0.17831 0.0
C4712 C 0.65033 0.51039 0.19148 0.0
C4713 C 0.64099 0.50733 0.20726 0.0
C4714 C 0.64172 0.51303 0.17473 0.0
C4715 C 0.62333 0.51302 0.17288 0.0
C4716 C 0.61394 0.50973 0.1886 0.0
H4717 H 0.5507 0.52607 0.07633 0.0
H4718 H 0.56278 0.52196 0.10706 0.0
C4719 C 0.62254 0.507 0.20533 0.0
C4720 C 0.61416 0.51588 0.15452 0.0
H4721 H 0.58747 0.54189 0.13624 0.0
C4722 C 0.61645 0.50496 0.1371 0.0
C4723 C 0.60335 0.52937 0.15379 0.0
C4724 C 0.60061 0.54243 0.17137 0.0
C4725 C 0.60843 0.50685 0.11965 0.0
C4726 C 0.59788 0.52054 0.11886 0.0
C4727 C 0.59538 0.53134 0.13629 0.0
C4728 C 0.59009 0.52417 0.1002 0.0
C4729 C 0.61101 0.49352 0.10217 0.0
C4730 C 0.60105 0.52754 0.0857 0.0
C4731 C 0.59412 0.52993 0.06816 0.0
C4732 C 0.57588 0.52952 0.06408 0.0
C4733 C 0.56482 0.52674 0.07869 0.0
C4734 C 0.57183 0.52428 0.09642 0.0
H4735 H 0.61368 0.48014 0.1054 0.0
H4736 H 0.59913 0.4899 0.09181 0.0
H4737 H 0.6227 0.50038 0.09569 0.0
H4738 H 0.61519 0.52827 0.08786 0.0
H4739 H 0.60324 0.53202 0.05753 0.0
H4740 H 0.32309 0.88442 0.9789 0.0
H4741 H 0.3298 0.86176 0.95277 0.0
H4742 H 0.30946 0.89149 0.91381 0.0
H4743 H 0.30345 0.91464 0.93987 0.0
H4744 H 0.30937 0.83747 0.92625 0.0
H4745 H 0.35532 0.88658 0.89297 0.0
H4746 H 0.34867 0.89379 0.91606 0.0
H4747 H 0.33504 0.89462 0.8955 0.0
C4748 C 0.32011 0.88616 0.96475 0.0
C4749 C 0.3128 0.90134 0.9614 0.0
C4750 C 0.32403 0.87325 0.94985 0.0
C4751 C 0.32057 0.8752 0.93135 0.0
C4752 C 0.31287 0.8901 0.92799 0.0
H4753 H 0.28373 0.7995 0.83277 0.0
H4754 H 0.29103 0.81538 0.86531 0.0
C4755 C 0.30924 0.9032 0.94287 0.0
C4756 C 0.32386 0.86104 0.91545 0.0
H4757 H 0.33874 0.8575 0.87209 0.0
C4758 C 0.31615 0.84179 0.91458 0.0
C4759 C 0.33332 0.86647 0.90051 0.0
C4760 C 0.34374 0.88648 0.90144 0.0
C4761 C 0.31619 0.82815 0.89841 0.0
C4762 C 0.32351 0.83407 0.88254 0.0
C4763 C 0.33273 0.85297 0.88409 0.0
C4764 C 0.31962 0.82177 0.86366 0.0
C4765 C 0.30793 0.80765 0.89837 0.0
C4766 C 0.33318 0.82029 0.85169 0.0
C4767 C 0.32889 0.81132 0.8329 0.0
C4768 C 0.31104 0.80353 0.82594 0.0
C4769 C 0.29758 0.80456 0.83799 0.0
C4770 C 0.30181 0.8137 0.85665 0.0
H4771 H 0.31016 0.8044 0.91246 0.0
H4772 H 0.29331 0.80496 0.89492 0.0
H4773 H 0.31344 0.79785 0.88801 0.0
H4774 H 0.34699 0.82664 0.85672 0.0
H4775 H 0.33946 0.81083 0.8237 0.0
H4776 H 0.94807 0.58129 0.75033 0.0
H4777 H 0.96559 0.57429 0.72405 0.0
H4778 H 0.92366 0.52592 0.69891 0.0
H4779 H 0.90583 0.53316 0.72506 0.0
H4780 H 0.97567 0.5394 0.71869 0.0
H4781 H 0.94083 0.54938 0.65382 0.0
H4782 H 0.93665 0.56037 0.67693 0.0
H4783 H 0.92757 0.53556 0.66815 0.0
C4784 C 0.94233 0.56957 0.73885 0.0
C4785 C 0.92568 0.55772 0.73969 0.0
C4786 C 0.95236 0.56555 0.72391 0.0
C4787 C 0.94594 0.54955 0.70964 0.0
C4788 C 0.92874 0.53847 0.7097 0.0
H4789 H 0.02202 0.49807 0.64376 0.0
H4790 H 0.99832 0.50231 0.66432 0.0
C4791 C 0.91856 0.54263 0.72461 0.0
C4792 C 0.95831 0.54325 0.69635 0.0
H4793 H 0.96679 0.53723 0.6505 0.0
C4794 C 0.97372 0.53884 0.70375 0.0
C4795 C 0.95559 0.54244 0.67693 0.0
C4796 C 0.93934 0.54729 0.6684 0.0
C4797 C 0.98686 0.53428 0.69234 0.0
C4798 C 0.9843 0.53375 0.67293 0.0
C4799 C 0.96863 0.53761 0.66541 0.0
C4800 C 0.9984 0.5308 0.66048 0.0
C4801 C 0.00367 0.53086 0.70126 0.0
C4802 C 0.00613 0.54535 0.65149 0.0
C4803 C 0.01954 0.54295 0.6398 0.0
C4804 C 0.02545 0.52594 0.63687 0.0
C4805 C 0.01786 0.51142 0.64604 0.0
C4806 C 0.00431 0.51379 0.65769 0.0
H4807 H 0.0051 0.53568 0.71673 0.0
H4808 H 0.00332 0.51544 0.69813 0.0
H4809 H 0.01563 0.53829 0.69556 0.0
H4810 H 0.00181 0.55861 0.65358 0.0
H4811 H 0.02525 0.55439 0.63296 0.0
H4812 H 0.302 0.17653 0.435 0.0
H4813 H 0.30395 0.18547 0.4044 0.0
H4814 H 0.30453 0.24329 0.42992 0.0
H4815 H 0.30236 0.23444 0.46073 0.0
H4816 H 0.27676 0.20801 0.38916 0.0
H4817 H 0.34942 0.2405 0.39472 0.0
H4818 H 0.34048 0.22219 0.40732 0.0
H4819 H 0.33709 0.24569 0.41465 0.0
C4820 C 0.3027 0.19121 0.4342 0.0
C4821 C 0.30204 0.20478 0.45037 0.0
C4822 C 0.30377 0.19625 0.41666 0.0
C4823 C 0.30441 0.21501 0.41492 0.0
C4824 C 0.30412 0.22873 0.43101 0.0
H4825 H 0.31584 0.27855 0.32749 0.0
H4826 H 0.317 0.26582 0.35579 0.0
C4827 C 0.30289 0.22366 0.4486 0.0
C4828 C 0.30475 0.22006 0.39614 0.0
H4829 H 0.33226 0.24161 0.3675 0.0
C4830 C 0.28887 0.21531 0.38432 0.0
C4831 C 0.32057 0.22954 0.38997 0.0
C4832 C 0.33795 0.23478 0.40221 0.0
C4833 C 0.28823 0.22037 0.36666 0.0
C4834 C 0.30411 0.2299 0.36037 0.0
C4835 C 0.32009 0.23425 0.37216 0.0
C4836 C 0.30424 0.23695 0.34243 0.0
C4837 C 0.27038 0.2162 0.35538 0.0
C4838 C 0.29703 0.22496 0.32516 0.0
C4839 C 0.29603 0.23238 0.30883 0.0
C4840 C 0.30284 0.25177 0.30932 0.0
C4841 C 0.31078 0.26348 0.32643 0.0
C4842 C 0.31139 0.2562 0.34274 0.0
H4843 H 0.25916 0.21363 0.36423 0.0
H4844 H 0.26902 0.22807 0.3484 0.0
H4845 H 0.26911 0.2032 0.34444 0.0
H4846 H 0.29193 0.20994 0.32433 0.0
H4847 H 0.28981 0.223 0.2959 0.0
H4848 H 0.32392 0.59212 0.54346 0.0
H4849 H 0.34789 0.57518 0.53837 0.0
H4850 H 0.36286 0.60317 0.49271 0.0
H4851 H 0.33934 0.62059 0.49807 0.0
H4852 H 0.34922 0.55024 0.50722 0.0
H4853 H 0.41092 0.60693 0.51885 0.0
H4854 H 0.3899 0.61124 0.52623 0.0
H4855 H 0.39475 0.61075 0.50229 0.0
C4856 C 0.33257 0.59496 0.53259 0.0
C4857 C 0.3297 0.60762 0.52111 0.0
C4858 C 0.34624 0.58527 0.5297 0.0
C4859 C 0.35723 0.588 0.51525 0.0
C4860 C 0.35481 0.60116 0.50422 0.0
H4861 H 0.42332 0.52191 0.45375 0.0
H4862 H 0.40008 0.53908 0.46331 0.0
C4863 C 0.34129 0.61103 0.50724 0.0
C4864 C 0.36992 0.57571 0.51046 0.0
H4865 H 0.41319 0.57633 0.50208 0.0
C4866 C 0.36324 0.55596 0.50629 0.0
C4867 C 0.38822 0.58319 0.50929 0.0
C4868 C 0.3964 0.60418 0.51459 0.0
C4869 C 0.3743 0.54352 0.50053 0.0
C4870 C 0.39236 0.55106 0.49878 0.0
C4871 C 0.39919 0.57072 0.50324 0.0
C4872 C 0.40457 0.53869 0.49271 0.0
C4873 C 0.3667 0.52241 0.49621 0.0
C4874 C 0.41425 0.53246 0.50609 0.0
C4875 C 0.42738 0.52265 0.50069 0.0
C4876 C 0.431 0.51899 0.48184 0.0
C4877 C 0.4206 0.52436 0.46832 0.0
C4878 C 0.40749 0.53427 0.47375 0.0
H4879 H 0.35227 0.51878 0.49817 0.0
H4880 H 0.36864 0.51646 0.48153 0.0
H4881 H 0.37397 0.51554 0.50545 0.0
H4882 H 0.41209 0.53578 0.52077 0.0
H4883 H 0.43522 0.5186 0.51135 0.0
H4884 H 0.85596 0.95568 0.51694 0.0
H4885 H 0.88788 0.96921 0.52164 0.0
H4886 H 0.89533 0.92665 0.5528 0.0
H4887 H 0.86308 0.91285 0.54822 0.0
H4888 H 0.91517 0.96646 0.56864 0.0
H4889 H 0.92408 0.94123 0.49404 0.0
H4890 H 0.90628 0.95347 0.49746 0.0
H4891 H 0.90481 0.93134 0.50503 0.0
C4892 C 0.86428 0.94913 0.52486 0.0
C4893 C 0.85692 0.93302 0.53204 0.0
C4894 C 0.88256 0.95692 0.52751 0.0
C4895 C 0.89395 0.94879 0.53736 0.0
C4896 C 0.88671 0.93307 0.54509 0.0
H4897 H 0.00657 0.98148 0.52242 0.0
H4898 H 0.97752 0.96282 0.52658 0.0
C4899 C 0.86832 0.92519 0.54241 0.0
C4900 C 0.91343 0.95653 0.53882 0.0
H4901 H 0.94766 0.96533 0.51165 0.0
C4902 C 0.92242 0.96602 0.55627 0.0
C4903 C 0.92285 0.95566 0.52269 0.0
C4904 C 0.91408 0.94473 0.50376 0.0
C4905 C 0.9405 0.9754 0.55788 0.0
C4906 C 0.94964 0.97558 0.54152 0.0
C4907 C 0.94072 0.96537 0.52421 0.0
C4908 C 0.96821 0.98662 0.54164 0.0
C4909 C 0.94957 0.98492 0.57709 0.0
C4910 C 0.97296 0.0062 0.54912 0.0
C4911 C 0.98981 0.01688 0.5471 0.0
C4912 C 0.00201 0.00835 0.53697 0.0
C4913 C 0.99742 0.98865 0.53001 0.0
C4914 C 0.98078 0.97791 0.53242 0.0
H4915 H 0.94317 0.97799 0.58809 0.0
H4916 H 0.96394 0.98466 0.57808 0.0
H4917 H 0.94835 0.99992 0.58007 0.0
H4918 H 0.96342 0.01342 0.55589 0.0
H4919 H 0.99295 0.0319 0.55282 0.0
H4920 H 0.91958 0.14322 0.28549 0.0
H4921 H 0.90408 0.16922 0.28558 0.0
H4922 H 0.85586 0.12869 0.26157 0.0
H4923 H 0.87122 0.10275 0.2619 0.0
H4924 H 0.88994 0.18515 0.26225 0.0
H4925 H 0.83231 0.158 0.29893 0.0
H4926 H 0.85114 0.14704 0.29703 0.0
H4927 H 0.8338 0.1415 0.27801 0.0
C4928 C 0.90561 0.13968 0.28036 0.0
C4929 C 0.89692 0.12035 0.27386 0.0
C4930 C 0.89659 0.15482 0.28036 0.0
C4931 C 0.87826 0.15163 0.27398 0.0
C4932 C 0.86965 0.13227 0.26726 0.0
H4933 H 0.831 0.24269 0.23876 0.0
H4934 H 0.84489 0.2163 0.24145 0.0
C4935 C 0.87866 0.11713 0.26729 0.0
C4936 C 0.86859 0.16833 0.27383 0.0
H4937 H 0.83001 0.18389 0.28423 0.0
C4938 C 0.87684 0.18465 0.26716 0.0
C4939 C 0.85144 0.16874 0.28043 0.0
C4940 C 0.84172 0.153 0.28919 0.0
C4941 C 0.86871 0.20039 0.26647 0.0
C4942 C 0.85125 0.20042 0.27229 0.0
C4943 C 0.84315 0.18437 0.27943 0.0
C4944 C 0.84135 0.21665 0.2707 0.0
C4945 C 0.87938 0.21721 0.25988 0.0
C4946 C 0.83345 0.22603 0.28586 0.0
C4947 C 0.82508 0.24147 0.28424 0.0
C4948 C 0.82387 0.24805 0.26724 0.0
C4949 C 0.83143 0.23836 0.25215 0.0
C4950 C 0.83971 0.22311 0.25375 0.0
H4951 H 0.89393 0.21811 0.26209 0.0
H4952 H 0.87593 0.21567 0.24465 0.0
H4953 H 0.87654 0.23072 0.26728 0.0
H4954 H 0.8341 0.22172 0.29922 0.0
H4955 H 0.81984 0.24843 0.29643 0.0
H4956 H 0.73865 0.09475 0.9944 0.0
H4957 H 0.70803 0.07984 0.99867 0.0
H4958 H 0.69295 0.13336 1.00099 0.0
H4959 H 0.72342 0.14832 0.99646 0.0
H4960 H 0.6911 0.09052 0.03015 0.0
H4961 H 0.65288 0.09626 0.96585 0.0
H4962 H 0.67679 0.09899 0.96768 0.0
H4963 H 0.66711 0.11842 0.97747 0.0
C4964 C 0.72872 0.10325 0.99542 0.0
C4965 C 0.73343 0.12273 0.99518 0.0
C4966 C 0.71128 0.09472 0.99791 0.0
C4967 C 0.69826 0.10549 1.00005 0.0
C4968 C 0.70275 0.12474 0.99905 0.0
H4969 H 0.59694 0.09683 0.04434 0.0
H4970 H 0.62877 0.10528 0.03957 0.0
C4971 C 0.72018 0.13328 0.99653 0.0
C4972 C 0.68039 0.09708 0.0049 0.0
H4973 H 0.63605 0.09009 0.99161 0.0
C4974 C 0.67905 0.09025 0.02165 0.0
C4975 C 0.66475 0.09662 0.99367 0.0
C4976 C 0.66541 0.10279 0.97507 0.0
C4977 C 0.66239 0.0836 0.02779 0.0
C4978 C 0.64687 0.08393 0.01695 0.0
C4979 C 0.64814 0.09018 0.99996 0.0
C4980 C 0.62902 0.07782 0.02288 0.0
C4981 C 0.6613 0.07631 0.04578 0.0
C4982 C 0.61903 0.0595 0.01545 0.0
C4983 C 0.60102 0.05469 0.01815 0.0
C4984 C 0.59282 0.06815 0.02841 0.0
C4985 C 0.60309 0.0862 0.03662 0.0
C4986 C 0.62116 0.09101 0.03391 0.0
H4987 H 0.67468 0.07704 0.05269 0.0
H4988 H 0.65401 0.08469 0.0556 0.0
H4989 H 0.65364 0.06135 0.04282 0.0
H4990 H 0.62494 0.04925 0.00679 0.0
H4991 H 0.59335 0.04075 0.01138 0.0
H4992 H 0.19503 0.46429 0.25942 0.0
H4993 H 0.20935 0.43991 0.26767 0.0
H4994 H 0.25892 0.46778 0.25016 0.0
H4995 H 0.24474 0.49242 0.24203 0.0
H4996 H 0.22766 0.4151 0.245 0.0
H4997 H 0.27144 0.46403 0.30492 0.0
H4998 H 0.25239 0.47005 0.29414 0.0
H4999 H 0.27253 0.47114 0.28266 0.0
C5000 C 0.20898 0.46526 0.25732 0.0
C5001 C 0.21881 0.48037 0.25025 0.0
C5002 C 0.21711 0.45127 0.26196 0.0
C5003 C 0.2352 0.45219 0.25969 0.0
C5004 C 0.24499 0.46701 0.25225 0.0
H5005 H 0.30148 0.38274 0.30084 0.0
H5006 H 0.29122 0.40488 0.28394 0.0
C5007 C 0.23686 0.48103 0.24759 0.0
C5008 C 0.24383 0.43788 0.26571 0.0
H5009 H 0.27359 0.43216 0.29919 0.0
C5010 C 0.2378 0.4188 0.25675 0.0
C5011 C 0.2571 0.44284 0.28098 0.0
C5012 C 0.26372 0.46309 0.29137 0.0
C5013 C 0.24451 0.40445 0.26291 0.0
C5014 C 0.2573 0.40935 0.27862 0.0
C5015 C 0.26376 0.42849 0.28715 0.0
C5016 C 0.26332 0.39484 0.28729 0.0
C5017 C 0.23782 0.38419 0.25261 0.0
C5018 C 0.25102 0.38192 0.29478 0.0
C5019 C 0.25683 0.3693 0.30443 0.0
C5020 C 0.27506 0.36941 0.30683 0.0
C5021 C 0.28733 0.38221 0.29909 0.0
C5022 C 0.28152 0.39488 0.28947 0.0
H5023 H 0.23258 0.38347 0.23796 0.0
H5024 H 0.24853 0.37617 0.25237 0.0
H5025 H 0.22678 0.37711 0.25981 0.0
H5026 H 0.23695 0.38191 0.29358 0.0
H5027 H 0.24706 0.35949 0.31005 0.0
H5028 H 0.2688 0.44292 0.05547 0.0
H5029 H 0.2455 0.46041 0.05272 0.0
H5030 H 0.2125 0.41131 0.01579 0.0
H5031 H 0.23559 0.39347 0.01912 0.0
H5032 H 0.23432 0.46982 0.0223 0.0
H5033 H 0.17615 0.42757 0.0486 0.0
H5034 H 0.19839 0.42385 0.05204 0.0
H5035 H 0.18509 0.41374 0.0301 0.0
C5036 C 0.25644 0.43573 0.04704 0.0
C5037 C 0.25402 0.41683 0.0375 0.0
C5038 C 0.24313 0.44576 0.04546 0.0
C5039 C 0.22714 0.43719 0.03416 0.0
C5040 C 0.2245 0.41813 0.02495 0.0
H5041 H 0.16428 0.50391 0.98453 0.0
H5042 H 0.18333 0.48256 0.99053 0.0
C5043 C 0.23776 0.40797 0.02676 0.0
C5044 C 0.2141 0.44882 0.03082 0.0
H5045 H 0.17032 0.45117 0.03209 0.0
C5046 C 0.22035 0.46575 0.02457 0.0
C5047 C 0.19588 0.44369 0.03395 0.0
C5048 C 0.1885 0.42632 0.04172 0.0
C5049 C 0.20897 0.47759 0.02122 0.0
C5050 C 0.19061 0.47207 0.02355 0.0
C5051 C 0.18434 0.45527 0.03005 0.0
C5052 C 0.17784 0.48372 0.01947 0.0
C5053 C 0.21689 0.49612 0.01564 0.0
C5054 C 0.16771 0.49074 0.03345 0.0
C5055 C 0.15659 0.50275 0.02994 0.0
C5056 C 0.15548 0.50801 0.01242 0.0
C5057 C 0.16516 0.50043 0.99828 0.0
C5058 C 0.17608 0.48826 0.00171 0.0
H5059 H 0.23142 0.50081 0.01998 0.0
H5060 H 0.21505 0.49426 1.00017 0.0
H5061 H 0.21031 0.50753 0.02193 0.0
H5062 H 0.16876 0.48735 0.04723 0.0
H5063 H 0.14928 0.50839 0.04111 0.0
H5064 H 0.87519 0.01013 0.27205 0.0
H5065 H 0.85668 0.97831 0.27234 0.0
H5066 H 0.90073 0.95319 0.25669 0.0
H5067 H 0.91896 0.98426 0.2562 0.0
H5068 H 0.84776 0.94247 0.2424 0.0
H5069 H 0.88644 0.93299 0.30462 0.0
H5070 H 0.88728 0.95601 0.29894 0.0
H5071 H 0.89966 0.94029 0.28658 0.0
C5072 C 0.88092 0.99785 0.26857 0.0
C5073 C 0.89881 1.0002 0.26417 0.0
C5074 C 0.87028 0.97954 0.26876 0.0
C5075 C 0.87724 0.96304 0.26481 0.0
C5076 C 0.89491 0.96543 0.26012 0.0
H5077 H 0.84793 0.84094 0.26653 0.0
H5078 H 0.86249 0.87376 0.26608 0.0
C5079 C 0.9054 0.98349 0.25978 0.0
C5080 C 0.86647 0.94331 0.26553 0.0
H5081 H 0.86628 0.90564 0.2873 0.0
C5082 C 0.8517 0.93451 0.25237 0.0
C5083 C 0.87156 0.93249 0.27826 0.0
C5084 C 0.88701 0.94091 0.29302 0.0
C5085 C 0.84242 0.91537 0.2512 0.0
C5086 C 0.84749 0.90448 0.26401 0.0
C5087 C 0.86213 0.9135 0.27735 0.0
C5088 C 0.83817 0.88383 0.26374 0.0
C5089 C 0.82783 0.90683 0.23552 0.0
C5090 C 0.81942 0.87778 0.26269 0.0
C5091 C 0.81099 0.85868 0.26248 0.0
C5092 C 0.82086 0.84481 0.26393 0.0
C5093 C 0.83963 0.85092 0.26536 0.0
C5094 C 0.84807 0.86994 0.26517 0.0
H5095 H 0.82966 0.91432 0.22362 0.0
H5096 H 0.82733 0.89158 0.23019 0.0
H5097 H 0.81481 0.90827 0.24073 0.0
H5098 H 0.81113 0.8879 0.26233 0.0
H5099 H 0.79666 0.85496 0.26158 0.0
H5100 H 0.68438 0.0956 0.71988 0.0
H5101 H 0.69949 0.1292 0.72729 0.0
H5102 H 0.73749 0.11729 0.7663 0.0
H5103 H 0.72291 0.08371 0.75851 0.0
H5104 H 0.70481 0.15478 0.75931 0.0
H5105 H 0.77039 0.14642 0.736 0.0
H5106 H 0.75085 0.12725 0.73083 0.0
H5107 H 0.76369 0.13257 0.75327 0.0
C5108 C 0.69605 0.10012 0.72991 0.0
C5109 C 0.70256 0.08694 0.73844 0.0
C5110 C 0.70464 0.11933 0.73416 0.0
C5111 C 0.71984 0.12572 0.74706 0.0
C5112 C 0.72612 0.11263 0.75587 0.0
H5113 H 0.78403 0.23671 0.80001 0.0
H5114 H 0.76843 0.2031 0.7924 0.0
C5115 C 0.7177 0.09342 0.75146 0.0
C5116 C 0.72892 0.1461 0.75165 0.0
H5117 H 0.7696 0.17633 0.75509 0.0
C5118 C 0.71893 0.15953 0.75806 0.0
C5119 C 0.74736 0.15231 0.75008 0.0
C5120 C 0.75864 0.13889 0.74198 0.0
C5121 C 0.72697 0.17896 0.76316 0.0
C5122 C 0.74543 0.18501 0.76192 0.0
C5123 C 0.75542 0.17162 0.75574 0.0
C5124 C 0.75459 0.20525 0.76663 0.0
C5125 C 0.71584 0.1929 0.77022 0.0
C5126 C 0.75199 0.21742 0.75457 0.0
C5127 C 0.76101 0.23647 0.75877 0.0
C5128 C 0.77287 0.24352 0.77499 0.0
C5129 C 0.77518 0.23142 0.78724 0.0
C5130 C 0.76629 0.21233 0.78295 0.0
H5131 H 0.7023 0.1857 0.7729 0.0
H5132 H 0.72253 0.20259 0.78335 0.0
H5133 H 0.71446 0.2017 0.75966 0.0
H5134 H 0.74306 0.21214 0.74186 0.0
H5135 H 0.75859 0.24566 0.74942 0.0
loop_
_geom_bond_atom_site_label_1
_geom_bond_atom_site_label_2
_geom_bond_distance
_geom_bond_site_symmetry_2
_ccdc_geom_bond_type
C0 O1 1.306 . S
C0 O3 1.160 . S
O1 C0 1.306 . S
O1 Cd2 2.228 . S
Cd2 O1 2.228 . S
Cd2 O6 2.273 . S
Cd2 O10 2.277 . S
O3 C0 1.160 . S
O3 Cd4 2.203 . S
Cd4 O3 2.203 . S
Cd4 O6 2.411 . S
Cd4 O7 2.333 . S
Cd4 O8 2.352 . S
Cd4 O12 2.277 . S
Cd4 O13 2.356 . S
C5 O10 1.209 . S
C5 O12 1.226 . S
O6 Cd2 2.273 . S
O6 Cd4 2.411 . S
O6 C9 1.320 . S
O7 Cd4 2.333 . S
O7 C9 1.214 . S
O8 Cd4 2.352 . S
O8 C11 1.258 . S
C9 O6 1.320 . S
C9 O7 1.214 . S
O10 Cd2 2.277 . S
O10 C5 1.209 . S
C11 O8 1.258 . S
C11 O13 1.282 . S
O12 Cd4 2.277 . S
O12 C5 1.226 . S
O13 Cd4 2.356 . S
O13 C11 1.282 . S
C14 O15 1.306 . S
C14 O17 1.160 . S
O15 C14 1.306 . S
O15 Cd16 2.228 1_655 S
Cd16 O15 2.228 1_455 S
Cd16 O20 2.273 . S
Cd16 O24 2.277 1_455 S
O17 C14 1.160 . S
O17 Cd18 2.203 1_655 S
Cd18 O17 2.203 1_455 S
Cd18 O20 2.411 . S
Cd18 O21 2.333 . S
Cd18 O22 2.352 . S
Cd18 O26 2.277 1_455 S
Cd18 O27 2.356 . S
C19 O24 1.209 . S
C19 O26 1.226 . S
O20 Cd16 2.273 . S
O20 Cd18 2.411 . S
O20 C23 1.320 . S
O21 Cd18 2.333 . S
O21 C23 1.214 . S
O22 Cd18 2.352 . S
O22 C25 1.258 . S
C23 O20 1.320 . S
C23 O21 1.214 . S
O24 Cd16 2.277 1_655 S
O24 C19 1.209 . S
C25 O22 1.258 . S
C25 O27 1.282 . S
O26 Cd18 2.277 1_655 S
O26 C19 1.226 . S
O27 Cd18 2.356 . S
O27 C25 1.282 . S
C28 O29 1.306 . S
C28 O31 1.160 . S
O29 C28 1.306 . S
O29 Cd30 2.228 . S
Cd30 O29 2.228 . S
Cd30 O34 2.273 . S
Cd30 O38 2.277 . S
O31 C28 1.160 . S
O31 Cd32 2.203 . S
Cd32 O31 2.203 . S
Cd32 O34 2.411 . S
Cd32 O35 2.333 . S
Cd32 O36 2.352 . S
Cd32 O40 2.277 . S
Cd32 O41 2.356 . S
C33 O38 1.209 . S
C33 O40 1.226 . S
O34 Cd30 2.273 . S
O34 Cd32 2.411 . S
O34 C37 1.320 . S
O35 Cd32 2.333 . S
O35 C37 1.214 . S
O36 Cd32 2.352 . S
O36 C39 1.258 . S
C37 O34 1.320 . S
C37 O35 1.214 . S
O38 Cd30 2.277 . S
O38 C33 1.209 . S
C39 O36 1.258 . S
C39 O41 1.282 . S
O40 Cd32 2.277 . S
O40 C33 1.226 . S
O41 Cd32 2.356 . S
O41 C39 1.282 . S
C42 O43 1.306 . S
C42 O45 1.160 . S
O43 C42 1.306 . S
O43 Cd44 2.228 . S
Cd44 O43 2.228 . S
Cd44 O48 2.273 . S
Cd44 O52 2.277 . S
O45 C42 1.160 . S
O45 Cd46 2.203 . S
Cd46 O45 2.203 . S
Cd46 O48 2.411 . S
Cd46 O49 2.333 . S
Cd46 O50 2.352 . S
Cd46 O54 2.277 . S
Cd46 O55 2.356 . S
C47 O52 1.209 . S
C47 O54 1.226 . S
O48 Cd44 2.273 . S
O48 Cd46 2.411 . S
O48 C51 1.320 . S
O49 Cd46 2.333 . S
O49 C51 1.214 . S
O50 Cd46 2.352 . S
O50 C53 1.258 . S
C51 O48 1.320 . S
C51 O49 1.214 . S
O52 Cd44 2.277 . S
O52 C47 1.209 . S
C53 O50 1.258 . S
C53 O55 1.282 . S
O54 Cd46 2.277 . S
O54 C47 1.226 . S
O55 Cd46 2.356 . S
O55 C53 1.282 . S
C56 O57 1.306 . S
C56 O59 1.160 . S
O57 C56 1.306 . S
O57 Cd58 2.228 . S
Cd58 O57 2.228 . S
Cd58 O62 2.273 . S
Cd58 O66 2.277 . S
O59 C56 1.160 . S
O59 Cd60 2.203 . S
Cd60 O59 2.203 . S
Cd60 O62 2.411 . S
Cd60 O63 2.333 . S
Cd60 O64 2.352 . S
Cd60 O68 2.277 . S
Cd60 O69 2.356 . S
C61 O66 1.209 . S
C61 O68 1.226 . S
O62 Cd58 2.273 . S
O62 Cd60 2.411 . S
O62 C65 1.320 . S
O63 Cd60 2.333 . S
O63 C65 1.214 . S
O64 Cd60 2.352 . S
O64 C67 1.258 . S
C65 O62 1.320 . S
C65 O63 1.214 . S
O66 Cd58 2.277 . S
O66 C61 1.209 . S
C67 O64 1.258 . S
C67 O69 1.282 . S
O68 Cd60 2.277 . S
O68 C61 1.226 . S
O69 Cd60 2.356 . S
O69 C67 1.282 . S
C70 O71 1.306 . S
C70 O73 1.160 . S
O71 C70 1.306 . S
O71 Cd72 2.228 . S
Cd72 O71 2.228 . S
Cd72 O76 2.273 . S
Cd72 O80 2.277 . S
O73 C70 1.160 . S
O73 Cd74 2.203 . S
Cd74 O73 2.203 . S
Cd74 O76 2.411 . S
Cd74 O77 2.333 . S
Cd74 O78 2.352 . S
Cd74 O82 2.277 . S
Cd74 O83 2.356 . S
C75 O80 1.209 . S
C75 O82 1.226 . S
O76 Cd72 2.273 . S
O76 Cd74 2.411 . S
O76 C79 1.320 . S
O77 Cd74 2.333 . S
O77 C79 1.214 . S
O78 Cd74 2.352 . S
O78 C81 1.258 . S
C79 O76 1.320 . S
C79 O77 1.214 . S
O80 Cd72 2.277 . S
O80 C75 1.209 . S
C81 O78 1.258 . S
C81 O83 1.282 . S
O82 Cd74 2.277 . S
O82 C75 1.226 . S
O83 Cd74 2.356 . S
O83 C81 1.282 . S
C84 O85 1.306 . S
C84 O87 1.160 . S
O85 C84 1.306 . S
O85 Cd86 2.228 . S
Cd86 O85 2.228 . S
Cd86 O90 2.273 . S
Cd86 O94 2.277 . S
O87 C84 1.160 . S
O87 Cd88 2.203 . S
Cd88 O87 2.203 . S
Cd88 O90 2.411 . S
Cd88 O91 2.333 . S
Cd88 O92 2.352 . S
Cd88 O96 2.277 . S
Cd88 O97 2.356 . S
C89 O94 1.209 . S
C89 O96 1.226 . S
O90 Cd86 2.273 . S
O90 Cd88 2.411 . S
O90 C93 1.320 . S
O91 Cd88 2.333 . S
O91 C93 1.214 . S
O92 Cd88 2.352 . S
O92 C95 1.258 . S
C93 O90 1.320 . S
C93 O91 1.214 . S
O94 Cd86 2.277 . S
O94 C89 1.209 . S
C95 O92 1.258 . S
C95 O97 1.282 . S
O96 Cd88 2.277 . S
O96 C89 1.226 . S
O97 Cd88 2.356 . S
O97 C95 1.282 . S
C98 O99 1.306 . S
C98 O101 1.160 . S
O99 C98 1.306 . S
O99 Cd100 2.228 1_655 S
Cd100 O99 2.228 1_455 S
Cd100 O104 2.273 . S
Cd100 O108 2.277 . S
O101 C98 1.160 . S
O101 Cd102 2.203 1_655 S
Cd102 O101 2.203 1_455 S
Cd102 O104 2.411 . S
Cd102 O105 2.333 . S
Cd102 O106 2.352 . S
Cd102 O110 2.277 . S
Cd102 O111 2.356 . S
C103 O108 1.209 . S
C103 O110 1.226 . S
O104 Cd100 2.273 . S
O104 Cd102 2.411 . S
O104 C107 1.320 . S
O105 Cd102 2.333 . S
O105 C107 1.214 . S
O106 Cd102 2.352 . S
O106 C109 1.258 . S
C107 O104 1.320 . S
C107 O105 1.214 . S
O108 Cd100 2.277 . S
O108 C103 1.209 . S
C109 O106 1.258 . S
C109 O111 1.282 . S
O110 Cd102 2.277 . S
O110 C103 1.226 . S
O111 Cd102 2.356 . S
O111 C109 1.282 . S
C112 O113 1.306 . S
C112 O115 1.160 . S
O113 C112 1.306 . S
O113 Cd114 2.228 . S
Cd114 O113 2.228 . S
Cd114 O118 2.273 . S
Cd114 O122 2.277 1_545 S
O115 C112 1.160 . S
O115 Cd116 2.203 . S
Cd116 O115 2.203 . S
Cd116 O118 2.411 . S
Cd116 O119 2.333 . S
Cd116 O120 2.352 . S
Cd116 O124 2.277 . S
Cd116 O125 2.356 . S
C117 O122 1.209 . S
C117 O124 1.226 1_565 S
O118 Cd114 2.273 . S
O118 Cd116 2.411 . S
O118 C121 1.320 . S
O119 Cd116 2.333 . S
O119 C121 1.214 . S
O120 Cd116 2.352 . S
O120 C123 1.258 . S
C121 O118 1.320 . S
C121 O119 1.214 . S
O122 Cd114 2.277 1_565 S
O122 C117 1.209 . S
C123 O120 1.258 . S
C123 O125 1.282 . S
O124 Cd116 2.277 . S
O124 C117 1.226 1_545 S
O125 Cd116 2.356 . S
O125 C123 1.282 . S
C126 O127 1.306 . S
C126 O129 1.160 . S
O127 C126 1.306 . S
O127 Cd128 2.228 . S
Cd128 O127 2.228 . S
Cd128 O132 2.273 . S
Cd128 O136 2.277 . S
O129 C126 1.160 . S
O129 Cd130 2.203 . S
Cd130 O129 2.203 . S
Cd130 O132 2.411 . S
Cd130 O133 2.333 . S
Cd130 O134 2.352 . S
Cd130 O138 2.277 . S
Cd130 O139 2.356 . S
C131 O136 1.209 . S
C131 O138 1.226 . S
O132 Cd128 2.273 . S
O132 Cd130 2.411 . S
O132 C135 1.320 . S
O133 Cd130 2.333 . S
O133 C135 1.214 . S
O134 Cd130 2.352 . S
O134 C137 1.258 . S
C135 O132 1.320 . S
C135 O133 1.214 . S
O136 Cd128 2.277 . S
O136 C131 1.209 . S
C137 O134 1.258 . S
C137 O139 1.282 . S
O138 Cd130 2.277 . S
O138 C131 1.226 . S
O139 Cd130 2.356 . S
O139 C137 1.282 . S
C140 O141 1.306 . S
C140 O143 1.180 . S
O141 C140 1.306 . S
O141 Cd142 2.228 . S
Cd142 O141 2.228 . S
Cd142 O146 2.273 1_545 S
Cd142 O150 2.277 . S
O143 C140 1.180 . S
O143 Cd144 2.206 1_545 S
Cd144 O143 2.206 1_565 S
Cd144 O146 2.411 . S
Cd144 O147 2.333 . S
Cd144 O148 2.352 . S
Cd144 O152 2.277 1_565 S
Cd144 O153 2.356 . S
C145 O150 1.209 . S
C145 O152 1.226 . S
O146 Cd142 2.273 1_565 S
O146 Cd144 2.411 . S
O146 C149 1.320 . S
O147 Cd144 2.333 . S
O147 C149 1.214 . S
O148 Cd144 2.352 . S
O148 C151 1.258 . S
C149 O146 1.320 . S
C149 O147 1.214 . S
O150 Cd142 2.277 . S
O150 C145 1.209 . S
C151 O148 1.258 . S
C151 O153 1.282 . S
O152 Cd144 2.277 1_545 S
O152 C145 1.226 . S
O153 Cd144 2.356 . S
O153 C151 1.282 . S
C154 O155 1.306 . S
C154 O157 1.160 . S
O155 C154 1.306 . S
O155 Cd156 2.228 1_554 S
Cd156 O155 2.228 1_556 S
Cd156 O160 2.273 1_556 S
Cd156 O164 2.277 . S
O157 C154 1.160 . S
O157 Cd158 2.203 . S
Cd158 O157 2.203 . S
Cd158 O160 2.411 . S
Cd158 O161 2.333 . S
Cd158 O162 2.352 . S
Cd158 O166 2.277 1_554 S
Cd158 O167 2.356 . S
C159 O164 1.209 . S
C159 O166 1.226 . S
O160 Cd156 2.273 1_554 S
O160 Cd158 2.411 . S
O160 C163 1.320 . S
O161 Cd158 2.333 . S
O161 C163 1.214 . S
O162 Cd158 2.352 . S
O162 C165 1.258 . S
C163 O160 1.320 . S
C163 O161 1.214 . S
O164 Cd156 2.277 . S
O164 C159 1.209 . S
C165 O162 1.258 . S
C165 O167 1.282 . S
O166 Cd158 2.277 1_556 S
O166 C159 1.226 . S
O167 Cd158 2.356 . S
O167 C165 1.282 . S
C168 O169 1.306 . S
C168 O171 1.160 . S
O169 C168 1.306 . S
O169 Cd170 2.228 . S
Cd170 O169 2.228 . S
Cd170 O174 2.273 . S
Cd170 O178 2.277 . S
O171 C168 1.160 . S
O171 Cd172 2.203 . S
Cd172 O171 2.203 . S
Cd172 O174 2.411 . S
Cd172 O175 2.333 . S
Cd172 O176 2.352 . S
Cd172 O180 2.277 . S
Cd172 O181 2.356 . S
C173 O178 1.210 . S
C173 O180 1.269 . S
O174 Cd170 2.273 . S
O174 Cd172 2.411 . S
O174 C177 1.320 . S
O175 Cd172 2.333 . S
O175 C177 1.214 . S
O176 Cd172 2.352 . S
O176 C179 1.258 . S
C177 O174 1.320 . S
C177 O175 1.214 . S
O178 Cd170 2.277 . S
O178 C173 1.210 . S
C179 O176 1.258 . S
C179 O181 1.282 . S
O180 Cd172 2.277 . S
O180 C173 1.269 . S
O181 Cd172 2.356 . S
O181 C179 1.282 . S
C182 O183 1.306 . S
C182 O185 1.160 . S
O183 C182 1.306 . S
O183 Cd184 2.228 . S
Cd184 O183 2.228 . S
Cd184 O188 2.273 . S
Cd184 O192 2.277 . S
O185 C182 1.160 . S
O185 Cd186 2.203 . S
Cd186 O185 2.203 . S
Cd186 O188 2.411 . S
Cd186 O189 2.333 . S
Cd186 O190 2.352 1_554 S
Cd186 O194 2.277 . S
Cd186 O195 2.356 . S
C187 O192 1.209 . S
C187 O194 1.226 . S
O188 Cd184 2.273 . S
O188 Cd186 2.411 . S
O188 C191 1.320 . S
O189 Cd186 2.333 . S
O189 C191 1.214 . S
O190 Cd186 2.352 1_556 S
O190 C193 1.258 . S
C191 O188 1.320 . S
C191 O189 1.214 . S
O192 Cd184 2.277 . S
O192 C187 1.209 . S
C193 O190 1.258 . S
C193 O195 1.282 1_556 S
O194 Cd186 2.277 . S
O194 C187 1.226 . S
O195 Cd186 2.356 . S
O195 C193 1.282 1_554 S
C196 O197 1.306 . S
C196 O199 1.160 . S
O197 C196 1.306 . S
O197 Cd198 2.228 . S
Cd198 O197 2.228 . S
Cd198 O202 2.273 . S
Cd198 O206 2.277 . S
O199 C196 1.160 . S
O199 Cd200 2.203 . S
Cd200 O199 2.203 . S
Cd200 O202 2.411 . S
Cd200 O203 2.333 . S
Cd200 O204 2.352 . S
Cd200 O208 2.277 . S
Cd200 O209 2.356 . S
C201 O206 1.209 . S
C201 O208 1.226 . S
O202 Cd198 2.273 . S
O202 Cd200 2.411 . S
O202 C205 1.320 . S
O203 Cd200 2.333 . S
O203 C205 1.214 . S
O204 Cd200 2.352 . S
O204 C207 1.258 . S
C205 O202 1.320 . S
C205 O203 1.214 . S
O206 Cd198 2.277 . S
O206 C201 1.209 . S
C207 O204 1.258 . S
C207 O209 1.282 . S
O208 Cd200 2.277 . S
O208 C201 1.226 . S
O209 Cd200 2.356 . S
O209 C207 1.282 . S
C210 O211 1.306 . S
C210 O213 1.160 . S
O211 C210 1.306 . S
O211 Cd212 2.228 . S
Cd212 O211 2.228 . S
Cd212 O216 2.273 . S
Cd212 O220 2.277 . S
O213 C210 1.160 . S
O213 Cd214 2.203 . S
Cd214 O213 2.203 . S
Cd214 O216 2.411 . S
Cd214 O217 2.333 . S
Cd214 O218 2.352 . S
Cd214 O222 2.277 . S
Cd214 O223 2.356 . S
C215 O220 1.209 . S
C215 O222 1.226 . S
O216 Cd212 2.273 . S
O216 Cd214 2.411 . S
O216 C219 1.320 . S
O217 Cd214 2.333 . S
O217 C219 1.214 . S
O218 Cd214 2.352 . S
O218 C221 1.258 . S
C219 O216 1.320 . S
C219 O217 1.214 . S
O220 Cd212 2.277 . S
O220 C215 1.209 . S
C221 O218 1.258 . S
C221 O223 1.282 . S
O222 Cd214 2.277 . S
O222 C215 1.226 . S
O223 Cd214 2.356 . S
O223 C221 1.282 . S
C224 O225 1.306 . S
C224 O227 1.160 . S
O225 C224 1.306 . S
O225 Cd226 2.228 . S
Cd226 O225 2.228 . S
Cd226 O230 2.273 . S
Cd226 O234 2.277 . S
O227 C224 1.160 . S
O227 Cd228 2.203 . S
Cd228 O227 2.203 . S
Cd228 O230 2.411 . S
Cd228 O231 2.333 . S
Cd228 O232 2.352 . S
Cd228 O236 2.277 . S
Cd228 O237 2.356 . S
C229 O234 1.209 . S
C229 O236 1.226 . S
O230 Cd226 2.273 . S
O230 Cd228 2.411 . S
O230 C233 1.320 . S
O231 Cd228 2.333 . S
O231 C233 1.214 . S
O232 Cd228 2.352 . S
O232 C235 1.258 . S
C233 O230 1.320 . S
C233 O231 1.214 . S
O234 Cd226 2.277 . S
O234 C229 1.209 . S
C235 O232 1.258 . S
C235 O237 1.282 . S
O236 Cd228 2.277 . S
O236 C229 1.226 . S
O237 Cd228 2.356 . S
O237 C235 1.282 . S
C238 O239 1.306 . S
C238 O241 1.160 . S
O239 C238 1.306 . S
O239 Cd240 2.228 . S
Cd240 O239 2.228 . S
Cd240 O244 2.273 . S
Cd240 O248 2.277 . S
O241 C238 1.160 . S
O241 Cd242 2.203 . S
Cd242 O241 2.203 . S
Cd242 O244 2.411 . S
Cd242 O245 2.333 . S
Cd242 O246 2.352 . S
Cd242 O250 2.277 . S
Cd242 O251 2.356 . S
C243 O248 1.209 . S
C243 O250 1.226 . S
O244 Cd240 2.273 . S
O244 Cd242 2.411 . S
O244 C247 1.320 . S
O245 Cd242 2.333 . S
O245 C247 1.214 . S
O246 Cd242 2.352 . S
O246 C249 1.258 . S
C247 O244 1.320 . S
C247 O245 1.214 . S
O248 Cd240 2.277 . S
O248 C243 1.209 . S
C249 O246 1.258 . S
C249 O251 1.282 . S
O250 Cd242 2.277 . S
O250 C243 1.226 . S
O251 Cd242 2.356 . S
O251 C249 1.282 . S
C252 O253 1.306 . S
C252 O255 1.160 . S
O253 C252 1.306 . S
O253 Cd254 2.228 . S
Cd254 O253 2.228 . S
Cd254 O258 2.273 . S
Cd254 O262 2.277 . S
O255 C252 1.160 . S
O255 Cd256 2.203 . S
Cd256 O255 2.203 . S
Cd256 O258 2.411 . S
Cd256 O259 2.333 . S
Cd256 O260 2.352 . S
Cd256 O264 2.277 . S
Cd256 O265 2.356 . S
C257 O262 1.209 . S
C257 O264 1.226 . S
O258 Cd254 2.273 . S
O258 Cd256 2.411 . S
O258 C261 1.320 . S
O259 Cd256 2.333 . S
O259 C261 1.214 . S
O260 Cd256 2.352 . S
O260 C263 1.258 . S
C261 O258 1.320 . S
C261 O259 1.214 . S
O262 Cd254 2.277 . S
O262 C257 1.209 . S
C263 O260 1.258 . S
C263 O265 1.282 . S
O264 Cd256 2.277 . S
O264 C257 1.226 . S
O265 Cd256 2.356 . S
O265 C263 1.282 . S
C266 O267 1.306 . S
C266 O269 1.160 . S
O267 C266 1.306 . S
O267 Cd268 2.228 . S
Cd268 O267 2.228 . S
Cd268 O272 2.273 . S
Cd268 O276 2.277 . S
O269 C266 1.160 . S
O269 Cd270 2.203 . S
Cd270 O269 2.203 . S
Cd270 O272 2.411 . S
Cd270 O273 2.333 . S
Cd270 O274 2.352 . S
Cd270 O278 2.277 . S
Cd270 O279 2.356 . S
C271 O276 1.209 . S
C271 O278 1.226 . S
O272 Cd268 2.273 . S
O272 Cd270 2.411 . S
O272 C275 1.320 . S
O273 Cd270 2.333 . S
O273 C275 1.214 . S
O274 Cd270 2.352 . S
O274 C277 1.258 . S
C275 O272 1.320 . S
C275 O273 1.214 . S
O276 Cd268 2.277 . S
O276 C271 1.209 . S
C277 O274 1.258 . S
C277 O279 1.282 . S
O278 Cd270 2.277 . S
O278 C271 1.226 . S
O279 Cd270 2.356 . S
O279 C277 1.282 . S
C280 O281 1.306 . S
C280 O283 1.160 1_554 S
O281 C280 1.306 . S
O281 Cd282 2.228 . S
Cd282 O281 2.228 . S
Cd282 O286 2.273 1_554 S
Cd282 O290 2.277 . S
O283 C280 1.160 1_556 S
O283 Cd284 2.203 . S
Cd284 O283 2.203 . S
Cd284 O286 2.411 . S
Cd284 O287 2.333 . S
Cd284 O288 2.352 . S
Cd284 O292 2.277 1_556 S
Cd284 O293 2.356 . S
C285 O290 1.209 . S
C285 O292 1.226 . S
O286 Cd282 2.273 1_556 S
O286 Cd284 2.411 . S
O286 C289 1.320 . S
O287 Cd284 2.333 . S
O287 C289 1.214 . S
O288 Cd284 2.352 . S
O288 C291 1.258 . S
C289 O286 1.320 . S
C289 O287 1.214 . S
O290 Cd282 2.277 . S
O290 C285 1.209 . S
C291 O288 1.258 . S
C291 O293 1.282 . S
O292 Cd284 2.277 1_554 S
O292 C285 1.226 . S
O293 Cd284 2.356 . S
O293 C291 1.282 . S
C294 O295 1.306 . S
C294 O297 1.160 . S
O295 C294 1.306 . S
O295 Cd296 2.228 . S
Cd296 O295 2.228 . S
Cd296 O300 2.273 . S
Cd296 O304 2.277 . S
O297 C294 1.160 . S
O297 Cd298 2.203 . S
Cd298 O297 2.203 . S
Cd298 O300 2.411 . S
Cd298 O301 2.333 . S
Cd298 O302 2.352 . S
Cd298 O306 2.277 . S
Cd298 O307 2.356 . S
C299 O304 1.209 . S
C299 O306 1.226 . S
O300 Cd296 2.273 . S
O300 Cd298 2.411 . S
O300 C303 1.320 . S
O301 Cd298 2.333 . S
O301 C303 1.214 . S
O302 Cd298 2.352 . S
O302 C305 1.258 . S
C303 O300 1.320 . S
C303 O301 1.214 . S
O304 Cd296 2.277 . S
O304 C299 1.209 . S
C305 O302 1.258 . S
C305 O307 1.282 . S
O306 Cd298 2.277 . S
O306 C299 1.226 . S
O307 Cd298 2.356 . S
O307 C305 1.282 . S
C308 O309 1.306 . S
C308 O311 1.160 . S
O309 C308 1.306 . S
O309 Cd310 2.228 . S
Cd310 O309 2.228 . S
Cd310 O314 2.273 . S
Cd310 O318 2.277 . S
O311 C308 1.160 . S
O311 Cd312 2.203 . S
Cd312 O311 2.203 . S
Cd312 O314 2.411 . S
Cd312 O315 2.333 . S
Cd312 O316 2.352 . S
Cd312 O320 2.277 . S
Cd312 O321 2.356 . S
C313 O318 1.209 . S
C313 O320 1.226 . S
O314 Cd310 2.273 . S
O314 Cd312 2.411 . S
O314 C317 1.320 . S
O315 Cd312 2.333 . S
O315 C317 1.214 . S
O316 Cd312 2.352 . S
O316 C319 1.258 . S
C317 O314 1.320 . S
C317 O315 1.214 . S
O318 Cd310 2.277 . S
O318 C313 1.209 . S
C319 O316 1.258 . S
C319 O321 1.282 . S
O320 Cd312 2.277 . S
O320 C313 1.226 . S
O321 Cd312 2.356 . S
O321 C319 1.282 . S
C322 O323 1.306 . S
C322 O325 1.160 . S
O323 C322 1.306 . S
O323 Cd324 2.228 . S
Cd324 O323 2.228 . S
Cd324 O328 2.273 . S
Cd324 O332 2.277 . S
O325 C322 1.160 . S
O325 Cd326 2.203 . S
Cd326 O325 2.203 . S
Cd326 O328 2.411 . S
Cd326 O329 2.333 . S
Cd326 O330 2.352 . S
Cd326 O334 2.277 . S
Cd326 O335 2.356 . S
C327 O332 1.209 . S
C327 O334 1.226 . S
O328 Cd324 2.273 . S
O328 Cd326 2.411 . S
O328 C331 1.320 . S
O329 Cd326 2.333 . S
O329 C331 1.214 . S
O330 Cd326 2.352 . S
O330 C333 1.258 . S
C331 O328 1.320 . S
C331 O329 1.214 . S
O332 Cd324 2.277 . S
O332 C327 1.209 . S
C333 O330 1.258 . S
C333 O335 1.282 . S
O334 Cd326 2.277 . S
O334 C327 1.226 . S
O335 Cd326 2.356 . S
O335 C333 1.282 . S
Tb336 N367 2.660 1_545 S
Tb336 N374 2.600 1_544 S
Tb336 O380 2.511 1_454 S
Tb336 O381 2.610 . S
Tb336 O383 2.320 . S
Tb336 O384 2.552 . S
Tb336 O385 2.413 1_455 S
Tb336 O387 2.362 . S
Tb336 O388 2.421 1_554 S
Tb336 C400 2.833 1_454 S
C337 C340 1.432 . S
C337 C341 1.414 . S
C337 N344 1.359 . S
C338 C340 1.417 . S
C338 C342 1.432 . S
C338 C350 1.410 . S
C339 C341 1.444 . S
C339 C342 1.317 . S
C339 H362 0.929 . S
C340 C337 1.432 . S
C340 C338 1.417 . S
C340 N348 1.360 . S
C341 C337 1.414 . S
C341 C339 1.444 . S
C341 C346 1.385 . S
C342 C338 1.432 . S
C342 C339 1.317 . S
C342 H354 0.930 . S
C343 C345 1.392 . S
C343 C346 1.370 . S
C343 H355 0.931 . S
N344 C337 1.359 . S
N344 C345 1.327 . S
N344 Tb347 2.600 . S
C345 C343 1.392 . S
C345 N344 1.327 . S
C345 H352 0.930 . S
C346 C341 1.385 . S
C346 C343 1.370 . S
C346 H365 0.930 . S
Tb347 N344 2.600 . S
Tb347 N348 2.660 . S
Tb347 O381 2.362 . S
Tb347 O382 2.421 . S
Tb347 O386 2.546 . S
Tb347 O387 2.610 . S
Tb347 O389 2.326 1_554 S
Tb347 O390 2.552 . S
Tb347 O391 2.413 . S
Tb347 C411 2.833 . S
N348 C340 1.360 . S
N348 Tb347 2.660 . S
N348 C349 1.335 . S
C349 N348 1.335 . S
C349 C351 1.390 1_554 S
C349 H356 0.917 1_554 S
C350 C338 1.410 . S
C350 C351 1.345 1_554 S
C350 H358 0.919 1_554 S
C351 C349 1.390 1_556 S
C351 C350 1.345 1_556 S
C351 H353 0.930 . S
H352 C345 0.930 . S
H353 C351 0.930 . S
H354 C342 0.930 . S
H355 C343 0.931 . S
H356 C349 0.917 1_556 S
H357 C371 0.930 . S
H358 C350 0.919 1_556 S
H359 C377 0.930 1_545 S
H360 C368 0.930 1_545 S
H361 C375 0.931 . S
H362 C339 0.929 . S
H363 C369 0.930 . S
H364 C402 0.930 . S
H365 C346 0.930 . S
H366 C401 0.929 . S
N367 Tb336 2.660 1_565 S
N367 C368 1.305 . S
N367 C372 1.360 . S
C368 H360 0.930 1_565 S
C368 N367 1.305 . S
C368 C371 1.407 . S
C369 H363 0.930 . S
C369 C370 1.410 . S
C369 C371 1.345 1_655 S
C370 C369 1.410 . S
C370 C372 1.417 1_655 S
C370 C402 1.432 . S
C371 H357 0.930 . S
C371 C368 1.407 . S
C371 C369 1.345 1_455 S
C372 N367 1.360 . S
C372 C370 1.417 1_455 S
C372 C376 1.432 1_554 S
H373 C378 0.930 . S
N374 Tb336 2.600 1_566 S
N374 C376 1.359 . S
N374 C377 1.327 . S
C375 H361 0.931 . S
C375 C377 1.392 . S
C375 C378 1.370 1_455 S
C376 C372 1.432 1_556 S
C376 N374 1.359 . S
C376 C379 1.414 1_455 S
C377 H359 0.930 1_565 S
C377 N374 1.327 . S
C377 C375 1.392 . S
C378 H373 0.930 . S
C378 C375 1.370 1_655 S
C378 C379 1.385 . S
C379 C376 1.414 1_655 S
C379 C378 1.385 . S
C379 C401 1.444 . S
O380 Tb336 2.511 1_656 S
O380 C400 1.283 . S
O381 Tb336 2.610 . S
O381 Tb347 2.362 . S
O381 C392 1.283 . S
O382 Tb347 2.421 . S
O382 C399 1.262 . S
O383 Tb336 2.320 . S
O383 C399 1.260 . S
O384 Tb336 2.552 . S
O384 C392 1.243 . S
O385 Tb336 2.413 1_655 S
O385 C400 1.256 1_554 S
O386 Tb347 2.546 . S
O386 C411 1.251 . S
O387 Tb336 2.362 . S
O387 Tb347 2.610 . S
O387 C403 1.283 . S
O388 Tb336 2.421 1_556 S
O388 C410 1.262 . S
O389 Tb347 2.326 1_556 S
O389 C410 1.256 . S
O390 Tb347 2.552 . S
O390 C403 1.243 . S
O391 Tb347 2.413 . S
O391 C411 1.256 . S
C392 O381 1.283 . S
C392 O384 1.243 . S
C393 C395 1.382 1_556 S
C393 C397 1.393 . S
C393 C400 1.500 . S
C394 C395 1.400 . S
C394 C396 1.384 1_554 S
C395 C393 1.382 1_554 S
C395 C394 1.400 . S
C395 H412 0.930 . S
C396 C394 1.384 1_556 S
C396 C398 1.392 . S
C396 H413 0.931 . S
C397 C393 1.393 . S
C397 C398 1.401 . S
C397 H414 0.930 . S
C398 C396 1.392 . S
C398 C397 1.401 . S
C398 H415 0.930 . S
C399 O382 1.262 . S
C399 O383 1.260 . S
C400 Tb336 2.833 1_656 S
C400 O380 1.283 . S
C400 O385 1.256 1_556 S
C400 C393 1.500 . S
C401 H366 0.929 . S
C401 C379 1.444 . S
C401 C402 1.317 1_556 S
C402 H364 0.930 . S
C402 C370 1.432 . S
C402 C401 1.317 1_554 S
C403 O387 1.283 . S
C403 O390 1.243 . S
C404 C405 1.382 . S
C404 C408 1.393 . S
C404 C411 1.500 . S
C405 C404 1.382 . S
C405 C406 1.400 . S
C405 H416 0.930 . S
C406 C405 1.400 . S
C406 C407 1.384 . S
C407 C406 1.384 . S
C407 C409 1.392 . S
C407 H417 0.931 . S
C408 C404 1.393 . S
C408 C409 1.401 . S
C408 H418 0.930 . S
C409 C407 1.392 . S
C409 C408 1.401 . S
C409 H419 0.930 . S
C410 O388 1.262 . S
C410 O389 1.256 . S
C411 Tb347 2.833 . S
C411 O386 1.251 . S
C411 O391 1.256 . S
C411 C404 1.500 . S
H412 C395 0.930 . S
H413 C396 0.931 . S
H414 C397 0.930 . S
H415 C398 0.930 . S
H416 C405 0.930 . S
H417 C407 0.931 . S
H418 C408 0.930 . S
H419 C409 0.930 . S
Tb420 N451 2.660 . S
Tb420 N458 2.600 . S
Tb420 O464 2.546 . S
Tb420 O465 2.610 . S
Tb420 O467 2.320 . S
Tb420 O468 2.552 . S
Tb420 O469 2.413 . S
Tb420 O471 2.362 . S
Tb420 O472 2.421 . S
Tb420 C484 2.833 . S
C421 C424 1.432 . S
C421 C425 1.414 . S
C421 N428 1.359 . S
C422 C424 1.417 . S
C422 C426 1.432 . S
C422 C434 1.410 . S
C423 C425 1.444 . S
C423 C426 1.317 . S
C423 H446 0.929 . S
C424 C421 1.432 . S
C424 C422 1.417 . S
C424 N432 1.360 . S
C425 C421 1.414 . S
C425 C423 1.444 . S
C425 C430 1.385 . S
C426 C422 1.432 . S
C426 C423 1.317 . S
C426 H438 0.930 . S
C427 C429 1.392 . S
C427 C430 1.370 . S
C427 H439 0.931 . S
N428 C421 1.359 . S
N428 C429 1.327 . S
N428 Tb431 2.600 . S
C429 C427 1.392 . S
C429 N428 1.327 . S
C429 H436 0.930 . S
C430 C425 1.385 . S
C430 C427 1.370 . S
C430 H449 0.930 . S
Tb431 N428 2.600 . S
Tb431 N432 2.660 . S
Tb431 O465 2.362 . S
Tb431 O466 2.421 . S
Tb431 O470 2.546 . S
Tb431 O471 2.610 . S
Tb431 O473 2.320 . S
Tb431 O474 2.552 . S
Tb431 O475 2.413 . S
Tb431 C495 2.833 . S
N432 C424 1.360 . S
N432 Tb431 2.660 . S
N432 C433 1.305 . S
C433 N432 1.305 . S
C433 C435 1.407 . S
C433 H440 0.930 . S
C434 C422 1.410 . S
C434 C435 1.345 . S
C434 H442 0.930 . S
C435 C433 1.407 . S
C435 C434 1.345 . S
C435 H437 0.930 . S
H436 C429 0.930 . S
H437 C435 0.930 . S
H438 C426 0.930 . S
H439 C427 0.931 . S
H440 C433 0.930 . S
H441 C455 0.930 . S
H442 C434 0.930 . S
H443 C461 0.930 . S
H444 C452 0.930 . S
H445 C459 0.931 . S
H446 C423 0.929 . S
H447 C453 0.930 . S
H448 C486 0.930 . S
H449 C430 0.930 . S
H450 C485 0.929 . S
N451 Tb420 2.660 . S
N451 C452 1.305 . S
N451 C456 1.360 . S
C452 H444 0.930 . S
C452 N451 1.305 . S
C452 C455 1.407 . S
C453 H447 0.930 . S
C453 C454 1.410 . S
C453 C455 1.345 . S
C454 C453 1.410 . S
C454 C456 1.417 . S
C454 C486 1.432 . S
C455 H441 0.930 . S
C455 C452 1.407 . S
C455 C453 1.345 . S
C456 N451 1.360 . S
C456 C454 1.417 . S
C456 C460 1.432 . S
H457 C462 0.930 . S
N458 Tb420 2.600 . S
N458 C460 1.359 . S
N458 C461 1.327 . S
C459 H445 0.931 . S
C459 C461 1.392 . S
C459 C462 1.370 . S
C460 C456 1.432 . S
C460 N458 1.359 . S
C460 C463 1.414 . S
C461 H443 0.930 . S
C461 N458 1.327 . S
C461 C459 1.392 . S
C462 H457 0.930 . S
C462 C459 1.370 . S
C462 C463 1.385 . S
C463 C460 1.414 . S
C463 C462 1.385 . S
C463 C485 1.444 . S
O464 Tb420 2.546 . S
O464 C484 1.251 . S
O465 Tb420 2.610 . S
O465 Tb431 2.362 . S
O465 C476 1.283 . S
O466 Tb431 2.421 . S
O466 C483 1.262 . S
O467 Tb420 2.320 . S
O467 C483 1.260 . S
O468 Tb420 2.552 . S
O468 C476 1.243 . S
O469 Tb420 2.413 . S
O469 C484 1.256 . S
O470 Tb431 2.546 . S
O470 C495 1.251 . S
O471 Tb420 2.362 . S
O471 Tb431 2.610 . S
O471 C487 1.283 . S
O472 Tb420 2.421 . S
O472 C494 1.262 . S
O473 Tb431 2.320 . S
O473 C494 1.260 . S
O474 Tb431 2.552 . S
O474 C487 1.243 . S
O475 Tb431 2.413 . S
O475 C495 1.256 . S
C476 O465 1.283 . S
C476 O468 1.243 . S
C477 C479 1.382 . S
C477 C481 1.393 . S
C477 C484 1.500 . S
C478 C479 1.400 . S
C478 C480 1.384 . S
C479 C477 1.382 . S
C479 C478 1.400 . S
C479 H496 0.930 . S
C480 C478 1.384 . S
C480 C482 1.392 . S
C480 H497 0.931 . S
C481 C477 1.393 . S
C481 C482 1.401 . S
C481 H498 0.930 . S
C482 C480 1.392 . S
C482 C481 1.401 . S
C482 H499 0.930 . S
C483 O466 1.262 . S
C483 O467 1.260 . S
C484 Tb420 2.833 . S
C484 O464 1.251 . S
C484 O469 1.256 . S
C484 C477 1.500 . S
C485 H450 0.929 . S
C485 C463 1.444 . S
C485 C486 1.317 . S
C486 H448 0.930 . S
C486 C454 1.432 . S
C486 C485 1.317 . S
C487 O471 1.283 . S
C487 O474 1.243 . S
C488 C489 1.382 . S
C488 C492 1.393 . S
C488 C495 1.500 . S
C489 C488 1.382 . S
C489 C490 1.400 . S
C489 H500 0.930 . S
C490 C489 1.400 . S
C490 C491 1.384 . S
C491 C490 1.384 . S
C491 C493 1.392 . S
C491 H501 0.931 . S
C492 C488 1.393 . S
C492 C493 1.401 . S
C492 H502 0.930 . S
C493 C491 1.392 . S
C493 C492 1.401 . S
C493 H503 0.930 . S
C494 O472 1.262 . S
C494 O473 1.260 . S
C495 Tb431 2.833 . S
C495 O470 1.251 . S
C495 O475 1.256 . S
C495 C488 1.500 . S
H496 C479 0.930 . S
H497 C480 0.931 . S
H498 C481 0.930 . S
H499 C482 0.930 . S
H500 C489 0.930 . S
H501 C491 0.931 . S
H502 C492 0.930 . S
H503 C493 0.930 . S
Tb504 N535 2.660 . S
Tb504 N542 2.600 . S
Tb504 O548 2.546 . S
Tb504 O549 2.610 . S
Tb504 O551 2.320 . S
Tb504 O552 2.552 1_545 S
Tb504 O553 2.413 . S
Tb504 O555 2.362 . S
Tb504 O556 2.421 . S
Tb504 C568 2.833 . S
C505 C508 1.432 . S
C505 C509 1.414 . S
C505 N512 1.359 1_565 S
C506 C508 1.417 . S
C506 C510 1.432 . S
C506 C518 1.410 . S
C507 C509 1.444 . S
C507 C510 1.317 . S
C507 H530 0.929 . S
C508 C505 1.432 . S
C508 C506 1.417 . S
C508 N516 1.402 . S
C509 C505 1.414 . S
C509 C507 1.444 . S
C509 C514 1.385 . S
C510 C506 1.432 . S
C510 C507 1.317 . S
C510 H522 0.930 . S
C511 C513 1.392 . S
C511 C514 1.370 1_545 S
C511 H523 0.931 . S
N512 C505 1.359 1_545 S
N512 C513 1.327 . S
N512 Tb515 2.600 . S
C513 C511 1.392 . S
C513 N512 1.327 . S
C513 H520 0.930 . S
C514 C509 1.385 . S
C514 C511 1.370 1_565 S
C514 H533 0.930 . S
Tb515 N512 2.600 . S
Tb515 N516 2.615 1_545 S
Tb515 O549 2.362 . S
Tb515 O550 2.421 . S
Tb515 O554 2.546 . S
Tb515 O555 2.610 . S
Tb515 O557 2.320 . S
Tb515 O558 2.552 . S
Tb515 O559 2.413 . S
Tb515 C579 2.833 . S
N516 C508 1.402 . S
N516 Tb515 2.615 1_565 S
N516 C517 1.313 . S
C517 N516 1.313 . S
C517 C519 1.407 . S
C517 H524 0.895 1_565 S
C518 C506 1.410 . S
C518 C519 1.345 . S
C518 H526 0.930 . S
C519 C517 1.407 . S
C519 C518 1.345 . S
C519 H521 0.930 . S
H520 C513 0.930 . S
H521 C519 0.930 . S
H522 C510 0.930 . S
H523 C511 0.931 . S
H524 C517 0.895 1_545 S
H525 C539 0.930 . S
H526 C518 0.930 . S
H527 C545 0.930 . S
H528 C536 0.930 . S
H529 C543 0.931 . S
H530 C507 0.929 . S
H531 C537 0.930 . S
H532 C570 0.930 . S
H533 C514 0.930 . S
H534 C569 0.929 . S
N535 Tb504 2.660 . S
N535 C536 1.305 . S
N535 C540 1.360 . S
C536 H528 0.930 . S
C536 N535 1.305 . S
C536 C539 1.407 . S
C537 H531 0.930 . S
C537 C538 1.410 . S
C537 C539 1.345 . S
C538 C537 1.410 . S
C538 C540 1.417 . S
C538 C570 1.432 . S
C539 H525 0.930 . S
C539 C536 1.407 . S
C539 C537 1.345 . S
C540 N535 1.360 . S
C540 C538 1.417 . S
C540 C544 1.432 . S
H541 C546 0.930 . S
N542 Tb504 2.600 . S
N542 C544 1.359 . S
N542 C545 1.327 . S
C543 H529 0.931 . S
C543 C545 1.392 . S
C543 C546 1.370 . S
C544 C540 1.432 . S
C544 N542 1.359 . S
C544 C547 1.414 . S
C545 H527 0.930 . S
C545 N542 1.327 . S
C545 C543 1.392 . S
C546 H541 0.930 . S
C546 C543 1.370 . S
C546 C547 1.385 . S
C547 C544 1.414 . S
C547 C546 1.385 . S
C547 C569 1.444 . S
O548 Tb504 2.546 . S
O548 C568 1.251 . S
O549 Tb504 2.610 . S
O549 Tb515 2.362 . S
O549 C560 1.283 1_545 S
O550 Tb515 2.421 . S
O550 C567 1.262 . S
O551 Tb504 2.320 . S
O551 C567 1.260 . S
O552 Tb504 2.552 1_565 S
O552 C560 1.243 . S
O553 Tb504 2.413 . S
O553 C568 1.256 . S
O554 Tb515 2.546 . S
O554 C579 1.251 . S
O555 Tb504 2.362 . S
O555 Tb515 2.610 . S
O555 C571 1.283 . S
O556 Tb504 2.421 . S
O556 C578 1.262 . S
O557 Tb515 2.320 . S
O557 C578 1.260 . S
O558 Tb515 2.552 . S
O558 C571 1.243 . S
O559 Tb515 2.413 . S
O559 C579 1.256 . S
C560 O549 1.283 1_565 S
C560 O552 1.243 . S
C561 C563 1.382 . S
C561 C565 1.393 . S
C561 C568 1.500 . S
C562 C563 1.400 1_565 S
C562 C564 1.384 . S
C563 C561 1.382 . S
C563 C562 1.400 1_545 S
C563 H580 0.930 . S
C564 C562 1.384 . S
C564 C566 1.347 1_565 S
C564 H581 0.931 . S
C565 C561 1.393 . S
C565 C566 1.442 . S
C565 H582 0.930 . S
C566 C564 1.347 1_545 S
C566 C565 1.442 . S
C566 H583 0.938 . S
C567 O550 1.262 . S
C567 O551 1.260 . S
C568 Tb504 2.833 . S
C568 O548 1.251 . S
C568 O553 1.256 . S
C568 C561 1.500 . S
C569 H534 0.929 . S
C569 C547 1.444 . S
C569 C570 1.317 . S
C570 H532 0.930 . S
C570 C538 1.432 . S
C570 C569 1.317 . S
C571 O555 1.283 . S
C571 O558 1.243 . S
C572 C573 1.382 . S
C572 C576 1.393 . S
C572 C579 1.500 . S
C573 C572 1.382 . S
C573 C574 1.400 . S
C573 H584 0.930 . S
C574 C573 1.400 . S
C574 C575 1.384 . S
C575 C574 1.384 . S
C575 C577 1.392 . S
C575 H585 0.931 . S
C576 C572 1.393 . S
C576 C577 1.401 . S
C576 H586 0.930 . S
C577 C575 1.392 . S
C577 C576 1.401 . S
C577 H587 0.930 . S
C578 O556 1.262 . S
C578 O557 1.260 . S
C579 Tb515 2.833 . S
C579 O554 1.251 . S
C579 O559 1.256 . S
C579 C572 1.500 . S
H580 C563 0.930 . S
H581 C564 0.931 . S
H582 C565 0.930 . S
H583 C566 0.938 . S
H584 C573 0.930 . S
H585 C575 0.931 . S
H586 C576 0.930 . S
H587 C577 0.930 . S
Tb588 N619 2.660 . S
Tb588 N626 2.600 . S
Tb588 O632 2.546 . S
Tb588 O633 2.610 . S
Tb588 O635 2.320 . S
Tb588 O636 2.552 . S
Tb588 O637 2.413 . S
Tb588 O639 2.362 . S
Tb588 O640 2.421 . S
Tb588 C652 2.833 . S
C589 C592 1.432 . S
C589 C593 1.414 . S
C589 N596 1.359 . S
C590 C592 1.417 . S
C590 C594 1.432 . S
C590 C602 1.410 . S
C591 C593 1.444 . S
C591 C594 1.317 . S
C591 H614 0.929 . S
C592 C589 1.432 . S
C592 C590 1.417 . S
C592 N600 1.360 . S
C593 C589 1.414 . S
C593 C591 1.444 . S
C593 C598 1.385 . S
C594 C590 1.432 . S
C594 C591 1.317 . S
C594 H606 0.930 . S
C595 C597 1.392 . S
C595 C598 1.370 . S
C595 H607 0.931 . S
N596 C589 1.359 . S
N596 C597 1.327 . S
N596 Tb599 2.600 . S
C597 C595 1.392 . S
C597 N596 1.327 . S
C597 H604 0.930 . S
C598 C593 1.385 . S
C598 C595 1.370 . S
C598 H617 0.930 . S
Tb599 N596 2.600 . S
Tb599 N600 2.660 . S
Tb599 O633 2.362 . S
Tb599 O634 2.421 . S
Tb599 O638 2.546 . S
Tb599 O639 2.610 . S
Tb599 O641 2.320 . S
Tb599 O642 2.552 . S
Tb599 O643 2.413 . S
Tb599 C663 2.833 . S
N600 C592 1.360 . S
N600 Tb599 2.660 . S
N600 C601 1.305 . S
C601 N600 1.305 . S
C601 C603 1.407 . S
C601 H608 0.930 . S
C602 C590 1.410 . S
C602 C603 1.345 . S
C602 H610 0.930 . S
C603 C601 1.407 . S
C603 C602 1.345 . S
C603 H605 0.930 . S
H604 C597 0.930 . S
H605 C603 0.930 . S
H606 C594 0.930 . S
H607 C595 0.931 . S
H608 C601 0.930 . S
H609 C623 0.930 . S
H610 C602 0.930 . S
H611 C629 0.930 . S
H612 C620 0.930 . S
H613 C627 0.931 . S
H614 C591 0.929 . S
H615 C621 0.930 . S
H616 C654 0.930 . S
H617 C598 0.930 . S
H618 C653 0.929 . S
N619 Tb588 2.660 . S
N619 C620 1.305 . S
N619 C624 1.360 . S
C620 H612 0.930 . S
C620 N619 1.305 . S
C620 C623 1.407 . S
C621 H615 0.930 . S
C621 C622 1.410 . S
C621 C623 1.345 . S
C622 C621 1.410 . S
C622 C624 1.417 . S
C622 C654 1.432 . S
C623 H609 0.930 . S
C623 C620 1.407 . S
C623 C621 1.345 . S
C624 N619 1.360 . S
C624 C622 1.417 . S
C624 C628 1.432 . S
H625 C630 0.930 . S
N626 Tb588 2.600 . S
N626 C628 1.359 . S
N626 C629 1.327 . S
C627 H613 0.931 . S
C627 C629 1.392 . S
C627 C630 1.370 . S
C628 C624 1.432 . S
C628 N626 1.359 . S
C628 C631 1.414 . S
C629 H611 0.930 . S
C629 N626 1.327 . S
C629 C627 1.392 . S
C630 H625 0.930 . S
C630 C627 1.370 . S
C630 C631 1.385 . S
C631 C628 1.414 . S
C631 C630 1.385 . S
C631 C653 1.444 . S
O632 Tb588 2.546 . S
O632 C652 1.251 . S
O633 Tb588 2.610 . S
O633 Tb599 2.362 . S
O633 C644 1.283 . S
O634 Tb599 2.421 . S
O634 C651 1.262 . S
O635 Tb588 2.320 . S
O635 C651 1.260 . S
O636 Tb588 2.552 . S
O636 C644 1.243 . S
O637 Tb588 2.413 . S
O637 C652 1.256 . S
O638 Tb599 2.546 . S
O638 C663 1.251 . S
O639 Tb588 2.362 . S
O639 Tb599 2.610 . S
O639 C655 1.283 . S
O640 Tb588 2.421 . S
O640 C662 1.262 . S
O641 Tb599 2.320 . S
O641 C662 1.260 . S
O642 Tb599 2.552 . S
O642 C655 1.243 . S
O643 Tb599 2.413 . S
O643 C663 1.256 . S
C644 O633 1.283 . S
C644 O636 1.243 . S
C645 C647 1.382 . S
C645 C649 1.393 . S
C645 C652 1.500 . S
C646 C647 1.400 . S
C646 C648 1.384 . S
C647 C645 1.382 . S
C647 C646 1.400 . S
C647 H664 0.930 . S
C648 C646 1.384 . S
C648 C650 1.392 . S
C648 H665 0.931 . S
C649 C645 1.393 . S
C649 C650 1.401 . S
C649 H666 0.930 . S
C650 C648 1.392 . S
C650 C649 1.401 . S
C650 H667 0.930 . S
C651 O634 1.262 . S
C651 O635 1.260 . S
C652 Tb588 2.833 . S
C652 O632 1.251 . S
C652 O637 1.256 . S
C652 C645 1.500 . S
C653 H618 0.929 . S
C653 C631 1.444 . S
C653 C654 1.317 . S
C654 H616 0.930 . S
C654 C622 1.432 . S
C654 C653 1.317 . S
C655 O639 1.283 . S
C655 O642 1.243 . S
C656 C657 1.382 . S
C656 C660 1.393 . S
C656 C663 1.500 . S
C657 C656 1.382 . S
C657 C658 1.400 . S
C657 H668 0.930 . S
C658 C657 1.400 . S
C658 C659 1.384 . S
C659 C658 1.384 . S
C659 C661 1.392 . S
C659 H669 0.931 . S
C660 C656 1.393 . S
C660 C661 1.401 . S
C660 H670 0.930 . S
C661 C659 1.392 . S
C661 C660 1.401 . S
C661 H671 0.930 . S
C662 O640 1.262 . S
C662 O641 1.260 . S
C663 Tb599 2.833 . S
C663 O638 1.251 . S
C663 O643 1.256 . S
C663 C656 1.500 . S
H664 C647 0.930 . S
H665 C648 0.931 . S
H666 C649 0.930 . S
H667 C650 0.930 . S
H668 C657 0.930 . S
H669 C659 0.931 . S
H670 C660 0.930 . S
H671 C661 0.930 . S
Tb672 N703 2.660 . S
Tb672 N710 2.600 . S
Tb672 O716 2.546 . S
Tb672 O717 2.610 . S
Tb672 O719 2.320 . S
Tb672 O720 2.552 . S
Tb672 O721 2.413 . S
Tb672 O723 2.362 . S
Tb672 O724 2.421 . S
Tb672 C736 2.833 . S
C673 C676 1.432 . S
C673 C677 1.414 . S
C673 N680 1.359 . S
C674 C676 1.417 . S
C674 C678 1.432 . S
C674 C686 1.410 . S
C675 C677 1.444 . S
C675 C678 1.317 . S
C675 H698 0.929 . S
C676 C673 1.432 . S
C676 C674 1.417 . S
C676 N684 1.360 . S
C677 C673 1.414 . S
C677 C675 1.444 . S
C677 C682 1.385 . S
C678 C674 1.432 . S
C678 C675 1.317 . S
C678 H690 0.930 . S
C679 C681 1.392 . S
C679 C682 1.370 . S
C679 H691 0.931 . S
N680 C673 1.359 . S
N680 C681 1.327 . S
N680 Tb683 2.600 1_565 S
C681 C679 1.392 . S
C681 N680 1.327 . S
C681 H688 0.930 1_565 S
C682 C677 1.385 . S
C682 C679 1.370 . S
C682 H701 0.930 . S
Tb683 N680 2.600 1_545 S
Tb683 N684 2.660 1_545 S
Tb683 O717 2.362 . S
Tb683 O718 2.421 . S
Tb683 O722 2.546 1_545 S
Tb683 O723 2.610 . S
Tb683 O725 2.320 . S
Tb683 O726 2.552 . S
Tb683 O727 2.413 1_545 S
Tb683 C747 2.833 1_545 S
N684 C676 1.360 . S
N684 Tb683 2.660 1_565 S
N684 C685 1.305 . S
C685 N684 1.305 . S
C685 C687 1.407 . S
C685 H692 0.930 . S
C686 C674 1.410 . S
C686 C687 1.345 . S
C686 H694 0.930 . S
C687 C685 1.407 . S
C687 C686 1.345 . S
C687 H689 0.930 1_455 S
H688 C681 0.930 1_545 S
H689 C687 0.930 1_655 S
H690 C678 0.930 . S
H691 C679 0.931 . S
H692 C685 0.930 . S
H693 C707 0.930 . S
H694 C686 0.930 . S
H695 C713 0.930 . S
H696 C704 0.930 . S
H697 C711 0.931 1_655 S
H698 C675 0.929 . S
H699 C705 0.930 . S
H700 C738 0.930 . S
H701 C682 0.930 . S
H702 C737 0.929 . S
N703 Tb672 2.660 . S
N703 C704 1.305 . S
N703 C708 1.360 . S
C704 H696 0.930 . S
C704 N703 1.305 . S
C704 C707 1.407 . S
C705 H699 0.930 . S
C705 C706 1.410 . S
C705 C707 1.345 . S
C706 C705 1.410 . S
C706 C708 1.417 . S
C706 C738 1.432 . S
C707 H693 0.930 . S
C707 C704 1.407 . S
C707 C705 1.345 . S
C708 N703 1.360 . S
C708 C706 1.417 . S
C708 C712 1.432 . S
H709 C714 0.930 . S
N710 Tb672 2.600 . S
N710 C712 1.359 . S
N710 C713 1.327 . S
C711 H697 0.931 1_455 S
C711 C713 1.392 . S
C711 C714 1.370 . S
C712 C708 1.432 . S
C712 N710 1.359 . S
C712 C715 1.414 . S
C713 H695 0.930 . S
C713 N710 1.327 . S
C713 C711 1.392 . S
C714 H709 0.930 . S
C714 C711 1.370 . S
C714 C715 1.385 . S
C715 C712 1.414 . S
C715 C714 1.385 . S
C715 C737 1.444 . S
O716 Tb672 2.546 . S
O716 C736 1.251 . S
O717 Tb672 2.610 . S
O717 Tb683 2.362 . S
O717 C728 1.283 . S
O718 Tb683 2.421 . S
O718 C735 1.262 . S
O719 Tb672 2.320 . S
O719 C735 1.260 . S
O720 Tb672 2.552 . S
O720 C728 1.243 . S
O721 Tb672 2.413 . S
O721 C736 1.256 . S
O722 Tb683 2.546 1_565 S
O722 C747 1.251 . S
O723 Tb672 2.362 . S
O723 Tb683 2.610 . S
O723 C739 1.283 . S
O724 Tb672 2.421 . S
O724 C746 1.262 . S
O725 Tb683 2.320 . S
O725 C746 1.260 . S
O726 Tb683 2.552 . S
O726 C739 1.243 . S
O727 Tb683 2.413 1_565 S
O727 C747 1.256 . S
C728 O717 1.283 . S
C728 O720 1.243 . S
C729 C731 1.382 . S
C729 C733 1.393 . S
C729 C736 1.500 . S
C730 C731 1.400 . S
C730 C732 1.384 . S
C731 C729 1.382 . S
C731 C730 1.400 . S
C731 H748 0.930 . S
C732 C730 1.384 . S
C732 C734 1.392 . S
C732 H749 0.931 . S
C733 C729 1.393 . S
C733 C734 1.401 . S
C733 H750 0.930 . S
C734 C732 1.392 . S
C734 C733 1.401 . S
C734 H751 0.930 . S
C735 O718 1.262 . S
C735 O719 1.260 . S
C736 Tb672 2.833 . S
C736 O716 1.251 . S
C736 O721 1.256 . S
C736 C729 1.500 . S
C737 H702 0.929 . S
C737 C715 1.444 . S
C737 C738 1.317 . S
C738 H700 0.930 . S
C738 C706 1.432 . S
C738 C737 1.317 . S
C739 O723 1.283 . S
C739 O726 1.243 . S
C740 C741 1.382 . S
C740 C744 1.393 . S
C740 C747 1.500 . S
C741 C740 1.382 . S
C741 C742 1.400 . S
C741 H752 0.930 . S
C742 C741 1.400 . S
C742 C743 1.384 . S
C743 C742 1.384 . S
C743 C745 1.392 . S
C743 H753 0.931 . S
C744 C740 1.393 . S
C744 C745 1.401 . S
C744 H754 0.930 . S
C745 C743 1.392 . S
C745 C744 1.401 . S
C745 H755 0.930 . S
C746 O724 1.262 . S
C746 O725 1.260 . S
C747 Tb683 2.833 1_565 S
C747 O722 1.251 . S
C747 O727 1.256 . S
C747 C740 1.500 . S
H748 C731 0.930 . S
H749 C732 0.931 . S
H750 C733 0.930 . S
H751 C734 0.930 . S
H752 C741 0.930 . S
H753 C743 0.931 . S
H754 C744 0.930 . S
H755 C745 0.930 . S
Tb756 N787 2.660 . S
Tb756 N794 2.600 . S
Tb756 O800 2.546 . S
Tb756 O801 2.610 . S
Tb756 O803 2.320 . S
Tb756 O804 2.552 . S
Tb756 O805 2.413 . S
Tb756 O807 2.362 . S
Tb756 O808 2.421 . S
Tb756 C820 2.833 . S
C757 C760 1.432 . S
C757 C761 1.414 . S
C757 N764 1.359 . S
C758 C760 1.417 . S
C758 C762 1.432 . S
C758 C770 1.410 . S
C759 C761 1.444 . S
C759 C762 1.317 . S
C759 H782 0.929 . S
C760 C757 1.432 . S
C760 C758 1.417 . S
C760 N768 1.360 . S
C761 C757 1.414 . S
C761 C759 1.444 . S
C761 C766 1.385 . S
C762 C758 1.432 . S
C762 C759 1.317 . S
C762 H774 0.930 . S
C763 C765 1.392 . S
C763 C766 1.370 . S
C763 H775 0.931 . S
N764 C757 1.359 . S
N764 C765 1.327 . S
N764 Tb767 2.600 . S
C765 C763 1.392 . S
C765 N764 1.327 . S
C765 H772 0.930 . S
C766 C761 1.385 . S
C766 C763 1.370 . S
C766 H785 0.930 . S
Tb767 N764 2.600 . S
Tb767 N768 2.660 . S
Tb767 O801 2.362 . S
Tb767 O802 2.421 . S
Tb767 O806 2.546 . S
Tb767 O807 2.610 . S
Tb767 O809 2.320 . S
Tb767 O810 2.552 . S
Tb767 O811 2.413 . S
Tb767 C831 2.833 . S
N768 C760 1.360 . S
N768 Tb767 2.660 . S
N768 C769 1.305 . S
C769 N768 1.305 . S
C769 C771 1.407 . S
C769 H776 0.930 . S
C770 C758 1.410 . S
C770 C771 1.345 . S
C770 H778 0.930 . S
C771 C769 1.407 . S
C771 C770 1.345 . S
C771 H773 0.930 . S
H772 C765 0.930 . S
H773 C771 0.930 . S
H774 C762 0.930 . S
H775 C763 0.931 . S
H776 C769 0.930 . S
H777 C791 0.930 . S
H778 C770 0.930 . S
H779 C797 0.930 . S
H780 C788 0.930 . S
H781 C795 0.931 . S
H782 C759 0.929 . S
H783 C789 0.930 . S
H784 C822 0.930 . S
H785 C766 0.930 . S
H786 C821 0.929 . S
N787 Tb756 2.660 . S
N787 C788 1.305 . S
N787 C792 1.360 . S
C788 H780 0.930 . S
C788 N787 1.305 . S
C788 C791 1.407 . S
C789 H783 0.930 . S
C789 C790 1.410 . S
C789 C791 1.345 . S
C790 C789 1.410 . S
C790 C792 1.417 . S
C790 C822 1.432 . S
C791 H777 0.930 . S
C791 C788 1.407 . S
C791 C789 1.345 . S
C792 N787 1.360 . S
C792 C790 1.417 . S
C792 C796 1.432 . S
H793 C798 0.930 . S
N794 Tb756 2.600 . S
N794 C796 1.359 . S
N794 C797 1.327 . S
C795 H781 0.931 . S
C795 C797 1.392 . S
C795 C798 1.370 . S
C796 C792 1.432 . S
C796 N794 1.359 . S
C796 C799 1.414 . S
C797 H779 0.930 . S
C797 N794 1.327 . S
C797 C795 1.392 . S
C798 H793 0.930 . S
C798 C795 1.370 . S
C798 C799 1.385 . S
C799 C796 1.414 . S
C799 C798 1.385 . S
C799 C821 1.444 . S
O800 Tb756 2.546 . S
O800 C820 1.251 . S
O801 Tb756 2.610 . S
O801 Tb767 2.362 . S
O801 C812 1.283 . S
O802 Tb767 2.421 . S
O802 C819 1.262 . S
O803 Tb756 2.320 . S
O803 C819 1.260 . S
O804 Tb756 2.552 . S
O804 C812 1.243 . S
O805 Tb756 2.413 . S
O805 C820 1.256 . S
O806 Tb767 2.546 . S
O806 C831 1.251 . S
O807 Tb756 2.362 . S
O807 Tb767 2.610 . S
O807 C823 1.283 . S
O808 Tb756 2.421 . S
O808 C830 1.262 . S
O809 Tb767 2.320 . S
O809 C830 1.260 . S
O810 Tb767 2.552 . S
O810 C823 1.243 . S
O811 Tb767 2.413 . S
O811 C831 1.256 . S
C812 O801 1.283 . S
C812 O804 1.243 . S
C813 C815 1.382 . S
C813 C817 1.393 . S
C813 C820 1.500 . S
C814 C815 1.400 . S
C814 C816 1.384 . S
C815 C813 1.382 . S
C815 C814 1.400 . S
C815 H832 0.930 . S
C816 C814 1.384 . S
C816 C818 1.392 . S
C816 H833 0.931 . S
C817 C813 1.393 . S
C817 C818 1.401 . S
C817 H834 0.930 . S
C818 C816 1.392 . S
C818 C817 1.401 . S
C818 H835 0.930 . S
C819 O802 1.262 . S
C819 O803 1.260 . S
C820 Tb756 2.833 . S
C820 O800 1.251 . S
C820 O805 1.256 . S
C820 C813 1.500 . S
C821 H786 0.929 . S
C821 C799 1.444 . S
C821 C822 1.317 . S
C822 H784 0.930 . S
C822 C790 1.432 . S
C822 C821 1.317 . S
C823 O807 1.283 . S
C823 O810 1.243 . S
C824 C825 1.382 . S
C824 C828 1.393 . S
C824 C831 1.500 . S
C825 C824 1.382 . S
C825 C826 1.400 . S
C825 H836 0.930 . S
C826 C825 1.400 . S
C826 C827 1.384 . S
C827 C826 1.384 . S
C827 C829 1.392 . S
C827 H837 0.931 . S
C828 C824 1.393 . S
C828 C829 1.401 . S
C828 H838 0.930 . S
C829 C827 1.392 . S
C829 C828 1.401 . S
C829 H839 0.930 . S
C830 O808 1.262 . S
C830 O809 1.260 . S
C831 Tb767 2.833 . S
C831 O806 1.251 . S
C831 O811 1.256 . S
C831 C824 1.500 . S
H832 C815 0.930 . S
H833 C816 0.931 . S
H834 C817 0.930 . S
H835 C818 0.930 . S
H836 C825 0.930 . S
H837 C827 0.931 . S
H838 C828 0.930 . S
H839 C829 0.930 . S
Tb840 N871 2.660 . S
Tb840 N878 2.600 . S
Tb840 O884 2.546 . S
Tb840 O885 2.610 . S
Tb840 O887 2.320 . S
Tb840 O888 2.552 . S
Tb840 O889 2.413 . S
Tb840 O891 2.362 . S
Tb840 O892 2.421 . S
Tb840 C904 2.833 . S
C841 C844 1.432 . S
C841 C845 1.414 . S
C841 N848 1.359 . S
C842 C844 1.417 . S
C842 C846 1.432 . S
C842 C854 1.410 1_545 S
C843 C845 1.444 . S
C843 C846 1.317 . S
C843 H866 0.929 . S
C844 C841 1.432 . S
C844 C842 1.417 . S
C844 N852 1.360 . S
C845 C841 1.414 . S
C845 C843 1.444 . S
C845 C850 1.385 . S
C846 C842 1.432 . S
C846 C843 1.317 . S
C846 H858 0.930 . S
C847 C849 1.392 . S
C847 C850 1.370 . S
C847 H859 0.931 . S
N848 C841 1.359 . S
N848 C849 1.327 . S
N848 Tb851 2.600 . S
C849 C847 1.392 . S
C849 N848 1.327 . S
C849 H856 0.930 . S
C850 C845 1.385 . S
C850 C847 1.370 . S
C850 H869 0.930 . S
Tb851 N848 2.600 . S
Tb851 N852 2.660 . S
Tb851 O885 2.362 1_556 S
Tb851 O886 2.421 1_556 S
Tb851 O890 2.546 . S
Tb851 O891 2.610 1_556 S
Tb851 O893 2.320 . S
Tb851 O894 2.554 . S
Tb851 O895 2.413 . S
Tb851 C915 2.833 . S
N852 C844 1.360 . S
N852 Tb851 2.660 . S
N852 C853 1.356 . S
C853 N852 1.356 . S
C853 C855 1.387 1_545 S
C853 H860 0.899 1_545 S
C854 C842 1.410 1_565 S
C854 C855 1.345 . S
C854 H862 0.930 . S
C855 C853 1.387 1_565 S
C855 C854 1.345 . S
C855 H857 0.930 . S
H856 C849 0.930 . S
H857 C855 0.930 . S
H858 C846 0.930 . S
H859 C847 0.931 . S
H860 C853 0.899 1_565 S
H861 C875 0.930 . S
H862 C854 0.930 . S
H863 C881 0.930 . S
H864 C872 0.930 . S
H865 C879 0.931 . S
H866 C843 0.929 . S
H867 C873 0.930 . S
H868 C906 0.930 . S
H869 C850 0.930 . S
H870 C905 0.929 . S
N871 Tb840 2.660 . S
N871 C872 1.305 . S
N871 C876 1.360 . S
C872 H864 0.930 . S
C872 N871 1.305 . S
C872 C875 1.407 . S
C873 H867 0.930 . S
C873 C874 1.410 . S
C873 C875 1.345 . S
C874 C873 1.410 . S
C874 C876 1.417 . S
C874 C906 1.432 . S
C875 H861 0.930 . S
C875 C872 1.407 . S
C875 C873 1.345 . S
C876 N871 1.360 . S
C876 C874 1.417 . S
C876 C880 1.432 . S
H877 C882 0.930 . S
N878 Tb840 2.600 . S
N878 C880 1.359 . S
N878 C881 1.327 1_545 S
C879 H865 0.931 . S
C879 C881 1.392 . S
C879 C882 1.370 . S
C880 C876 1.432 . S
C880 N878 1.359 . S
C880 C883 1.414 . S
C881 H863 0.930 . S
C881 N878 1.327 1_565 S
C881 C879 1.392 . S
C882 H877 0.930 . S
C882 C879 1.370 . S
C882 C883 1.385 1_565 S
C883 C880 1.414 . S
C883 C882 1.385 1_545 S
C883 C905 1.444 . S
O884 Tb840 2.546 . S
O884 C904 1.251 . S
O885 Tb840 2.610 . S
O885 Tb851 2.362 1_554 S
O885 C896 1.283 . S
O886 Tb851 2.421 1_554 S
O886 C903 1.262 . S
O887 Tb840 2.320 . S
O887 C903 1.260 . S
O888 Tb840 2.552 . S
O888 C896 1.243 . S
O889 Tb840 2.413 . S
O889 C904 1.256 . S
O890 Tb851 2.546 . S
O890 C915 1.251 . S
O891 Tb840 2.362 . S
O891 Tb851 2.610 1_554 S
O891 C907 1.283 . S
O892 Tb840 2.421 . S
O892 C914 1.262 . S
O893 Tb851 2.320 . S
O893 C914 1.260 1_556 S
O894 Tb851 2.554 . S
O894 C907 1.198 1_556 S
O895 Tb851 2.413 . S
O895 C915 1.256 . S
C896 O885 1.283 . S
C896 O888 1.243 . S
C897 C899 1.382 . S
C897 C901 1.393 1_545 S
C897 C904 1.500 . S
C898 C899 1.400 . S
C898 C900 1.384 . S
C899 C897 1.382 . S
C899 C898 1.400 . S
C899 H916 0.930 . S
C900 C898 1.384 . S
C900 C902 1.392 1_545 S
C900 H917 0.931 . S
C901 C897 1.393 1_565 S
C901 C902 1.401 . S
C901 H918 0.930 . S
C902 C900 1.392 1_565 S
C902 C901 1.401 . S
C902 H919 0.930 . S
C903 O886 1.262 . S
C903 O887 1.260 . S
C904 Tb840 2.833 . S
C904 O884 1.251 . S
C904 O889 1.256 . S
C904 C897 1.500 . S
C905 H870 0.929 . S
C905 C883 1.444 . S
C905 C906 1.317 . S
C906 H868 0.930 . S
C906 C874 1.432 . S
C906 C905 1.317 . S
C907 O891 1.283 . S
C907 O894 1.198 1_554 S
C908 C909 1.382 . S
C908 C912 1.393 . S
C908 C915 1.500 . S
C909 C908 1.382 . S
C909 C910 1.400 . S
C909 H920 0.930 . S
C910 C909 1.400 . S
C910 C911 1.384 . S
C911 C910 1.384 . S
C911 C913 1.392 . S
C911 H921 0.931 . S
C912 C908 1.393 . S
C912 C913 1.401 . S
C912 H922 0.930 . S
C913 C911 1.392 . S
C913 C912 1.401 . S
C913 H923 0.930 . S
C914 O892 1.262 . S
C914 O893 1.260 1_554 S
C915 Tb851 2.833 . S
C915 O890 1.251 . S
C915 O895 1.256 . S
C915 C908 1.500 . S
H916 C899 0.930 . S
H917 C900 0.931 . S
H918 C901 0.930 . S
H919 C902 0.930 . S
H920 C909 0.930 . S
H921 C911 0.931 . S
H922 C912 0.930 . S
H923 C913 0.930 . S
Tb924 N955 2.660 . S
Tb924 N962 2.600 . S
Tb924 O968 2.546 . S
Tb924 O969 2.610 . S
Tb924 O971 2.320 . S
Tb924 O972 2.552 . S
Tb924 O973 2.413 . S
Tb924 O975 2.362 . S
Tb924 O976 2.421 . S
Tb924 C988 2.833 . S
C925 C928 1.432 . S
C925 C929 1.414 . S
C925 N932 1.359 . S
C926 C928 1.417 . S
C926 C930 1.432 . S
C926 C938 1.410 . S
C927 C929 1.444 . S
C927 C930 1.317 . S
C927 H950 0.929 . S
C928 C925 1.432 . S
C928 C926 1.417 . S
C928 N936 1.360 . S
C929 C925 1.414 . S
C929 C927 1.444 . S
C929 C934 1.385 . S
C930 C926 1.432 . S
C930 C927 1.317 . S
C930 H942 0.930 . S
C931 C933 1.392 . S
C931 C934 1.370 . S
C931 H943 0.931 . S
N932 C925 1.359 . S
N932 C933 1.327 . S
N932 Tb935 2.600 . S
C933 C931 1.392 . S
C933 N932 1.327 . S
C933 H940 0.930 . S
C934 C929 1.385 . S
C934 C931 1.370 . S
C934 H953 0.930 . S
Tb935 N932 2.600 . S
Tb935 N936 2.660 . S
Tb935 O969 2.362 . S
Tb935 O970 2.421 . S
Tb935 O974 2.546 . S
Tb935 O975 2.610 . S
Tb935 O977 2.320 . S
Tb935 O978 2.552 . S
Tb935 O979 2.413 . S
Tb935 C999 2.833 . S
N936 C928 1.360 . S
N936 Tb935 2.660 . S
N936 C937 1.305 . S
C937 N936 1.305 . S
C937 C939 1.407 . S
C937 H944 0.930 . S
C938 C926 1.410 . S
C938 C939 1.345 . S
C938 H946 0.930 . S
C939 C937 1.407 . S
C939 C938 1.345 . S
C939 H941 0.930 . S
H940 C933 0.930 . S
H941 C939 0.930 . S
H942 C930 0.930 . S
H943 C931 0.931 . S
H944 C937 0.930 . S
H945 C959 0.930 . S
H946 C938 0.930 . S
H947 C965 0.930 . S
H948 C956 0.930 . S
H949 C963 0.931 . S
H950 C927 0.929 . S
H951 C957 0.930 . S
H952 C990 0.930 . S
H953 C934 0.930 . S
H954 C989 0.929 . S
N955 Tb924 2.660 . S
N955 C956 1.305 . S
N955 C960 1.360 . S
C956 H948 0.930 . S
C956 N955 1.305 . S
C956 C959 1.407 . S
C957 H951 0.930 . S
C957 C958 1.410 . S
C957 C959 1.345 . S
C958 C957 1.410 . S
C958 C960 1.417 . S
C958 C990 1.432 . S
C959 H945 0.930 . S
C959 C956 1.407 . S
C959 C957 1.345 . S
C960 N955 1.360 . S
C960 C958 1.417 . S
C960 C964 1.432 . S
H961 C966 0.930 . S
N962 Tb924 2.600 . S
N962 C964 1.359 . S
N962 C965 1.327 . S
C963 H949 0.931 . S
C963 C965 1.392 . S
C963 C966 1.370 . S
C964 C960 1.432 . S
C964 N962 1.359 . S
C964 C967 1.414 . S
C965 H947 0.930 . S
C965 N962 1.327 . S
C965 C963 1.392 . S
C966 H961 0.930 . S
C966 C963 1.370 . S
C966 C967 1.385 . S
C967 C964 1.414 . S
C967 C966 1.385 . S
C967 C989 1.444 . S
O968 Tb924 2.546 . S
O968 C988 1.251 . S
O969 Tb924 2.610 . S
O969 Tb935 2.362 . S
O969 C980 1.283 . S
O970 Tb935 2.421 . S
O970 C987 1.262 . S
O971 Tb924 2.320 . S
O971 C987 1.260 . S
O972 Tb924 2.552 . S
O972 C980 1.243 . S
O973 Tb924 2.413 . S
O973 C988 1.256 . S
O974 Tb935 2.546 . S
O974 C999 1.251 . S
O975 Tb924 2.362 . S
O975 Tb935 2.610 . S
O975 C991 1.283 . S
O976 Tb924 2.421 . S
O976 C998 1.262 . S
O977 Tb935 2.320 . S
O977 C998 1.260 . S
O978 Tb935 2.552 . S
O978 C991 1.243 . S
O979 Tb935 2.413 . S
O979 C999 1.256 . S
C980 O969 1.283 . S
C980 O972 1.243 . S
C981 C983 1.382 . S
C981 C985 1.393 . S
C981 C988 1.500 . S
C982 C983 1.400 . S
C982 C984 1.384 . S
C983 C981 1.382 . S
C983 C982 1.400 . S
C983 H1000 0.930 . S
C984 C982 1.384 . S
C984 C986 1.392 . S
C984 H1001 0.931 . S
C985 C981 1.393 . S
C985 C986 1.401 . S
C985 H1002 0.930 . S
C986 C984 1.392 . S
C986 C985 1.401 . S
C986 H1003 0.930 . S
C987 O970 1.262 . S
C987 O971 1.260 . S
C988 Tb924 2.833 . S
C988 O968 1.251 . S
C988 O973 1.256 . S
C988 C981 1.500 . S
C989 H954 0.929 . S
C989 C967 1.444 . S
C989 C990 1.317 . S
C990 H952 0.930 . S
C990 C958 1.432 . S
C990 C989 1.317 . S
C991 O975 1.283 . S
C991 O978 1.243 . S
C992 C993 1.382 . S
C992 C996 1.393 . S
C992 C999 1.500 . S
C993 C992 1.382 . S
C993 C994 1.400 . S
C993 H1004 0.930 . S
C994 C993 1.400 . S
C994 C995 1.384 . S
C995 C994 1.384 . S
C995 C997 1.392 . S
C995 H1005 0.931 . S
C996 C992 1.393 . S
C996 C997 1.401 . S
C996 H1006 0.930 . S
C997 C995 1.392 . S
C997 C996 1.401 . S
C997 H1007 0.930 . S
C998 O976 1.262 . S
C998 O977 1.260 . S
C999 Tb935 2.833 . S
C999 O974 1.251 . S
C999 O979 1.256 . S
C999 C992 1.500 . S
H1000 C983 0.930 . S
H1001 C984 0.931 . S
H1002 C985 0.930 . S
H1003 C986 0.930 . S
H1004 C993 0.930 . S
H1005 C995 0.931 . S
H1006 C996 0.930 . S
H1007 C997 0.930 . S
Tb1008 N1039 2.660 . S
Tb1008 N1046 2.600 . S
Tb1008 O1052 2.546 . S
Tb1008 O1053 2.610 1_554 S
Tb1008 O1055 2.320 . S
Tb1008 O1056 2.552 1_554 S
Tb1008 O1057 2.413 . S
Tb1008 O1059 2.362 . S
Tb1008 O1060 2.421 . S
Tb1008 C1072 2.833 . S
C1009 C1012 1.432 . S
C1009 C1013 1.414 . S
C1009 N1016 1.359 . S
C1010 C1012 1.417 . S
C1010 C1014 1.432 . S
C1010 C1022 1.410 . S
C1011 C1013 1.444 . S
C1011 C1014 1.317 . S
C1011 H1034 0.929 . S
C1012 C1009 1.432 . S
C1012 C1010 1.417 . S
C1012 N1020 1.360 . S
C1013 C1009 1.414 . S
C1013 C1011 1.444 . S
C1013 C1018 1.385 . S
C1014 C1010 1.432 . S
C1014 C1011 1.317 . S
C1014 H1026 0.930 . S
C1015 C1017 1.392 . S
C1015 C1018 1.370 . S
C1015 H1027 0.931 . S
N1016 C1009 1.359 . S
N1016 C1017 1.327 . S
N1016 Tb1019 2.600 1_556 S
C1017 C1015 1.392 . S
C1017 N1016 1.327 . S
C1017 H1024 0.930 . S
C1018 C1013 1.385 . S
C1018 C1015 1.370 . S
C1018 H1037 0.930 . S
Tb1019 N1016 2.600 1_554 S
Tb1019 N1020 2.660 1_554 S
Tb1019 O1053 2.362 1_554 S
Tb1019 O1054 2.421 . S
Tb1019 O1058 2.546 . S
Tb1019 O1059 2.610 . S
Tb1019 O1061 2.320 . S
Tb1019 O1062 2.552 . S
Tb1019 O1063 2.413 . S
Tb1019 C1083 2.833 . S
N1020 C1012 1.360 . S
N1020 Tb1019 2.660 1_556 S
N1020 C1021 1.305 . S
C1021 N1020 1.305 . S
C1021 C1023 1.407 . S
C1021 H1028 0.930 . S
C1022 C1010 1.410 . S
C1022 C1023 1.345 . S
C1022 H1030 0.930 . S
C1023 C1021 1.407 . S
C1023 C1022 1.345 . S
C1023 H1025 0.930 . S
H1024 C1017 0.930 . S
H1025 C1023 0.930 . S
H1026 C1014 0.930 . S
H1027 C1015 0.931 . S
H1028 C1021 0.930 . S
H1029 C1043 0.930 . S
H1030 C1022 0.930 . S
H1031 C1049 0.930 . S
H1032 C1040 0.930 . S
H1033 C1047 0.931 . S
H1034 C1011 0.929 . S
H1035 C1041 0.930 . S
H1036 C1074 0.930 . S
H1037 C1018 0.930 . S
H1038 C1073 0.929 . S
N1039 Tb1008 2.660 . S
N1039 C1040 1.305 . S
N1039 C1044 1.360 . S
C1040 H1032 0.930 . S
C1040 N1039 1.305 . S
C1040 C1043 1.407 . S
C1041 H1035 0.930 . S
C1041 C1042 1.410 . S
C1041 C1043 1.345 . S
C1042 C1041 1.410 . S
C1042 C1044 1.417 . S
C1042 C1074 1.432 . S
C1043 H1029 0.930 . S
C1043 C1040 1.407 . S
C1043 C1041 1.345 . S
C1044 N1039 1.360 . S
C1044 C1042 1.417 . S
C1044 C1048 1.432 . S
H1045 C1050 0.930 . S
N1046 Tb1008 2.600 . S
N1046 C1048 1.359 . S
N1046 C1049 1.327 . S
C1047 H1033 0.931 . S
C1047 C1049 1.392 . S
C1047 C1050 1.370 . S
C1048 C1044 1.432 . S
C1048 N1046 1.359 . S
C1048 C1051 1.414 . S
C1049 H1031 0.930 . S
C1049 N1046 1.327 . S
C1049 C1047 1.392 . S
C1050 H1045 0.930 . S
C1050 C1047 1.370 . S
C1050 C1051 1.385 . S
C1051 C1048 1.414 . S
C1051 C1050 1.385 . S
C1051 C1073 1.444 . S
O1052 Tb1008 2.546 . S
O1052 C1072 1.251 . S
O1053 Tb1008 2.610 1_556 S
O1053 Tb1019 2.362 1_556 S
O1053 C1064 1.283 . S
O1054 Tb1019 2.421 . S
O1054 C1071 1.262 . S
O1055 Tb1008 2.320 . S
O1055 C1071 1.260 . S
O1056 Tb1008 2.552 1_556 S
O1056 C1064 1.243 . S
O1057 Tb1008 2.413 . S
O1057 C1072 1.256 . S
O1058 Tb1019 2.546 . S
O1058 C1083 1.251 . S
O1059 Tb1008 2.362 . S
O1059 Tb1019 2.610 . S
O1059 C1075 1.283 . S
O1060 Tb1008 2.421 . S
O1060 C1082 1.262 . S
O1061 Tb1019 2.320 . S
O1061 C1082 1.260 . S
O1062 Tb1019 2.552 . S
O1062 C1075 1.243 . S
O1063 Tb1019 2.413 . S
O1063 C1083 1.256 . S
C1064 O1053 1.283 . S
C1064 O1056 1.243 . S
C1065 C1067 1.382 . S
C1065 C1069 1.393 . S
C1065 C1072 1.500 . S
C1066 C1067 1.398 1_556 S
C1066 C1068 1.383 1_556 S
C1067 C1065 1.382 . S
C1067 C1066 1.398 1_554 S
C1067 H1084 0.930 . S
C1068 C1066 1.383 1_554 S
C1068 C1070 1.392 . S
C1068 H1085 0.931 . S
C1069 C1065 1.393 . S
C1069 C1070 1.401 . S
C1069 H1086 0.930 . S
C1070 C1068 1.392 . S
C1070 C1069 1.401 . S
C1070 H1087 0.930 . S
C1071 O1054 1.262 . S
C1071 O1055 1.260 . S
C1072 Tb1008 2.833 . S
C1072 O1052 1.251 . S
C1072 O1057 1.256 . S
C1072 C1065 1.500 . S
C1073 H1038 0.929 . S
C1073 C1051 1.444 . S
C1073 C1074 1.317 . S
C1074 H1036 0.930 . S
C1074 C1042 1.432 . S
C1074 C1073 1.317 . S
C1075 O1059 1.283 . S
C1075 O1062 1.243 . S
C1076 C1077 1.382 . S
C1076 C1080 1.393 . S
C1076 C1083 1.500 . S
C1077 C1076 1.382 . S
C1077 C1078 1.400 . S
C1077 H1088 0.930 . S
C1078 C1077 1.400 . S
C1078 C1079 1.384 . S
C1079 C1078 1.384 . S
C1079 C1081 1.392 . S
C1079 H1089 0.931 . S
C1080 C1076 1.393 . S
C1080 C1081 1.401 . S
C1080 H1090 0.930 . S
C1081 C1079 1.392 . S
C1081 C1080 1.401 . S
C1081 H1091 0.930 . S
C1082 O1060 1.262 . S
C1082 O1061 1.260 . S
C1083 Tb1019 2.833 . S
C1083 O1058 1.251 . S
C1083 O1063 1.256 . S
C1083 C1076 1.500 . S
H1084 C1067 0.930 . S
H1085 C1068 0.931 . S
H1086 C1069 0.930 . S
H1087 C1070 0.930 . S
H1088 C1077 0.930 . S
H1089 C1079 0.931 . S
H1090 C1080 0.930 . S
H1091 C1081 0.930 . S
Tb1092 N1123 2.660 . S
Tb1092 N1130 2.600 . S
Tb1092 O1136 2.546 . S
Tb1092 O1137 2.610 . S
Tb1092 O1139 2.320 . S
Tb1092 O1140 2.552 . S
Tb1092 O1141 2.413 . S
Tb1092 O1143 2.362 . S
Tb1092 O1144 2.421 . S
Tb1092 C1156 2.833 . S
C1093 C1096 1.432 . S
C1093 C1097 1.414 . S
C1093 N1100 1.359 . S
C1094 C1096 1.417 . S
C1094 C1098 1.432 . S
C1094 C1106 1.410 . S
C1095 C1097 1.444 . S
C1095 C1098 1.317 . S
C1095 H1118 0.929 . S
C1096 C1093 1.432 . S
C1096 C1094 1.417 . S
C1096 N1104 1.360 . S
C1097 C1093 1.414 . S
C1097 C1095 1.444 . S
C1097 C1102 1.385 . S
C1098 C1094 1.432 . S
C1098 C1095 1.317 . S
C1098 H1110 0.930 . S
C1099 C1101 1.392 . S
C1099 C1102 1.370 . S
C1099 H1111 0.931 . S
N1100 C1093 1.359 . S
N1100 C1101 1.327 . S
N1100 Tb1103 2.600 . S
C1101 C1099 1.392 . S
C1101 N1100 1.327 . S
C1101 H1108 0.930 . S
C1102 C1097 1.385 . S
C1102 C1099 1.370 . S
C1102 H1121 0.930 . S
Tb1103 N1100 2.600 . S
Tb1103 N1104 2.660 . S
Tb1103 O1137 2.362 . S
Tb1103 O1138 2.421 . S
Tb1103 O1142 2.546 . S
Tb1103 O1143 2.610 . S
Tb1103 O1145 2.320 . S
Tb1103 O1146 2.552 . S
Tb1103 O1147 2.413 . S
Tb1103 C1167 2.833 . S
N1104 C1096 1.360 . S
N1104 Tb1103 2.660 . S
N1104 C1105 1.305 . S
C1105 N1104 1.305 . S
C1105 C1107 1.407 . S
C1105 H1112 0.930 . S
C1106 C1094 1.410 . S
C1106 C1107 1.345 . S
C1106 H1114 0.930 . S
C1107 C1105 1.407 . S
C1107 C1106 1.345 . S
C1107 H1109 0.930 . S
H1108 C1101 0.930 . S
H1109 C1107 0.930 . S
H1110 C1098 0.930 . S
H1111 C1099 0.931 . S
H1112 C1105 0.930 . S
H1113 C1127 0.930 . S
H1114 C1106 0.930 . S
H1115 C1133 0.930 . S
H1116 C1124 0.930 . S
H1117 C1131 0.931 . S
H1118 C1095 0.929 . S
H1119 C1125 0.930 . S
H1120 C1158 0.930 . S
H1121 C1102 0.930 . S
H1122 C1157 0.929 . S
N1123 Tb1092 2.660 . S
N1123 C1124 1.305 . S
N1123 C1128 1.360 . S
C1124 H1116 0.930 . S
C1124 N1123 1.305 . S
C1124 C1127 1.407 . S
C1125 H1119 0.930 . S
C1125 C1126 1.410 . S
C1125 C1127 1.345 . S
C1126 C1125 1.410 . S
C1126 C1128 1.417 . S
C1126 C1158 1.432 . S
C1127 H1113 0.930 . S
C1127 C1124 1.407 . S
C1127 C1125 1.345 . S
C1128 N1123 1.360 . S
C1128 C1126 1.417 . S
C1128 C1132 1.432 . S
H1129 C1134 0.930 . S
N1130 Tb1092 2.600 . S
N1130 C1132 1.359 . S
N1130 C1133 1.327 . S
C1131 H1117 0.931 . S
C1131 C1133 1.392 . S
C1131 C1134 1.370 . S
C1132 C1128 1.432 . S
C1132 N1130 1.359 . S
C1132 C1135 1.414 . S
C1133 H1115 0.930 . S
C1133 N1130 1.327 . S
C1133 C1131 1.392 . S
C1134 H1129 0.930 . S
C1134 C1131 1.370 . S
C1134 C1135 1.385 . S
C1135 C1132 1.414 . S
C1135 C1134 1.385 . S
C1135 C1157 1.444 . S
O1136 Tb1092 2.546 . S
O1136 C1156 1.251 . S
O1137 Tb1092 2.610 . S
O1137 Tb1103 2.362 . S
O1137 C1148 1.283 . S
O1138 Tb1103 2.421 . S
O1138 C1155 1.262 . S
O1139 Tb1092 2.320 . S
O1139 C1155 1.260 . S
O1140 Tb1092 2.552 . S
O1140 C1148 1.243 . S
O1141 Tb1092 2.413 . S
O1141 C1156 1.256 . S
O1142 Tb1103 2.546 . S
O1142 C1167 1.251 . S
O1143 Tb1092 2.362 . S
O1143 Tb1103 2.610 . S
O1143 C1159 1.283 . S
O1144 Tb1092 2.421 . S
O1144 C1166 1.262 . S
O1145 Tb1103 2.320 . S
O1145 C1166 1.260 . S
O1146 Tb1103 2.552 . S
O1146 C1159 1.243 . S
O1147 Tb1103 2.413 . S
O1147 C1167 1.256 . S
C1148 O1137 1.283 . S
C1148 O1140 1.243 . S
C1149 C1151 1.382 . S
C1149 C1153 1.393 . S
C1149 C1156 1.500 . S
C1150 C1151 1.400 . S
C1150 C1152 1.384 . S
C1151 C1149 1.382 . S
C1151 C1150 1.400 . S
C1151 H1168 0.930 . S
C1152 C1150 1.384 . S
C1152 C1154 1.392 . S
C1152 H1169 0.931 . S
C1153 C1149 1.393 . S
C1153 C1154 1.401 . S
C1153 H1170 0.930 . S
C1154 C1152 1.392 . S
C1154 C1153 1.401 . S
C1154 H1171 0.930 . S
C1155 O1138 1.262 . S
C1155 O1139 1.260 . S
C1156 Tb1092 2.833 . S
C1156 O1136 1.251 . S
C1156 O1141 1.256 . S
C1156 C1149 1.500 . S
C1157 H1122 0.929 . S
C1157 C1135 1.444 . S
C1157 C1158 1.317 . S
C1158 H1120 0.930 . S
C1158 C1126 1.432 . S
C1158 C1157 1.317 . S
C1159 O1143 1.283 . S
C1159 O1146 1.243 . S
C1160 C1161 1.382 . S
C1160 C1164 1.393 . S
C1160 C1167 1.500 . S
C1161 C1160 1.382 . S
C1161 C1162 1.400 . S
C1161 H1172 0.930 . S
C1162 C1161 1.400 . S
C1162 C1163 1.384 . S
C1163 C1162 1.384 . S
C1163 C1165 1.392 . S
C1163 H1173 0.931 . S
C1164 C1160 1.393 . S
C1164 C1165 1.401 . S
C1164 H1174 0.930 . S
C1165 C1163 1.392 . S
C1165 C1164 1.401 . S
C1165 H1175 0.930 . S
C1166 O1144 1.262 . S
C1166 O1145 1.260 . S
C1167 Tb1103 2.833 . S
C1167 O1142 1.251 . S
C1167 O1147 1.256 . S
C1167 C1160 1.500 . S
H1168 C1151 0.930 . S
H1169 C1152 0.931 . S
H1170 C1153 0.930 . S
H1171 C1154 0.930 . S
H1172 C1161 0.930 . S
H1173 C1163 0.931 . S
H1174 C1164 0.930 . S
H1175 C1165 0.930 . S
Tb1176 N1207 2.660 . S
Tb1176 N1214 2.600 . S
Tb1176 O1220 2.546 . S
Tb1176 O1221 2.610 . S
Tb1176 O1223 2.320 . S
Tb1176 O1224 2.552 . S
Tb1176 O1225 2.413 . S
Tb1176 O1227 2.362 . S
Tb1176 O1228 2.421 . S
Tb1176 C1240 2.833 . S
C1177 C1180 1.432 . S
C1177 C1181 1.414 1_455 S
C1177 N1184 1.359 . S
C1178 C1180 1.417 1_655 S
C1178 C1182 1.432 . S
C1178 C1190 1.410 . S
C1179 C1181 1.444 . S
C1179 C1182 1.317 . S
C1179 H1202 0.929 . S
C1180 C1177 1.432 . S
C1180 C1178 1.417 1_455 S
C1180 N1188 1.360 . S
C1181 C1177 1.414 1_655 S
C1181 C1179 1.444 . S
C1181 C1186 1.385 . S
C1182 C1178 1.432 . S
C1182 C1179 1.317 . S
C1182 H1194 0.930 . S
C1183 C1185 1.392 . S
C1183 C1186 1.370 1_455 S
C1183 H1195 0.931 . S
N1184 C1177 1.359 . S
N1184 C1185 1.327 . S
N1184 Tb1187 2.600 . S
C1185 C1183 1.392 . S
C1185 N1184 1.327 . S
C1185 H1192 0.930 . S
C1186 C1181 1.385 . S
C1186 C1183 1.370 1_655 S
C1186 H1205 0.930 . S
Tb1187 N1184 2.600 . S
Tb1187 N1188 2.660 . S
Tb1187 O1221 2.362 . S
Tb1187 O1222 2.421 . S
Tb1187 O1226 2.546 . S
Tb1187 O1227 2.610 . S
Tb1187 O1229 2.320 . S
Tb1187 O1230 2.552 . S
Tb1187 O1231 2.413 . S
Tb1187 C1251 2.833 . S
N1188 C1180 1.360 . S
N1188 Tb1187 2.660 . S
N1188 C1189 1.305 . S
C1189 N1188 1.305 . S
C1189 C1191 1.407 1_455 S
C1189 H1196 0.930 . S
C1190 C1178 1.410 . S
C1190 C1191 1.345 . S
C1190 H1198 0.930 . S
C1191 C1189 1.407 1_655 S
C1191 C1190 1.345 . S
C1191 H1193 0.930 . S
H1192 C1185 0.930 . S
H1193 C1191 0.930 . S
H1194 C1182 0.930 . S
H1195 C1183 0.931 . S
H1196 C1189 0.930 . S
H1197 C1211 0.930 . S
H1198 C1190 0.930 . S
H1199 C1217 0.930 . S
H1200 C1208 0.930 . S
H1201 C1215 0.931 . S
H1202 C1179 0.929 . S
H1203 C1209 0.930 . S
H1204 C1242 0.930 . S
H1205 C1186 0.930 . S
H1206 C1241 0.929 . S
N1207 Tb1176 2.660 . S
N1207 C1208 1.305 . S
N1207 C1212 1.360 . S
C1208 H1200 0.930 . S
C1208 N1207 1.305 . S
C1208 C1211 1.407 . S
C1209 H1203 0.930 . S
C1209 C1210 1.410 . S
C1209 C1211 1.345 . S
C1210 C1209 1.410 . S
C1210 C1212 1.417 . S
C1210 C1242 1.432 . S
C1211 H1197 0.930 . S
C1211 C1208 1.407 . S
C1211 C1209 1.345 . S
C1212 N1207 1.360 . S
C1212 C1210 1.417 . S
C1212 C1216 1.432 . S
H1213 C1218 0.930 . S
N1214 Tb1176 2.600 . S
N1214 C1216 1.359 . S
N1214 C1217 1.327 . S
C1215 H1201 0.931 . S
C1215 C1217 1.392 . S
C1215 C1218 1.370 . S
C1216 C1212 1.432 . S
C1216 N1214 1.359 . S
C1216 C1219 1.414 . S
C1217 H1199 0.930 . S
C1217 N1214 1.327 . S
C1217 C1215 1.392 . S
C1218 H1213 0.930 . S
C1218 C1215 1.370 . S
C1218 C1219 1.385 . S
C1219 C1216 1.414 . S
C1219 C1218 1.385 . S
C1219 C1241 1.444 . S
O1220 Tb1176 2.546 . S
O1220 C1240 1.251 . S
O1221 Tb1176 2.610 . S
O1221 Tb1187 2.362 . S
O1221 C1232 1.283 . S
O1222 Tb1187 2.421 . S
O1222 C1239 1.262 . S
O1223 Tb1176 2.320 . S
O1223 C1239 1.260 . S
O1224 Tb1176 2.552 . S
O1224 C1232 1.243 . S
O1225 Tb1176 2.413 . S
O1225 C1240 1.256 . S
O1226 Tb1187 2.546 . S
O1226 C1251 1.251 . S
O1227 Tb1176 2.362 . S
O1227 Tb1187 2.610 . S
O1227 C1243 1.283 . S
O1228 Tb1176 2.421 . S
O1228 C1250 1.262 . S
O1229 Tb1187 2.320 . S
O1229 C1250 1.260 . S
O1230 Tb1187 2.552 . S
O1230 C1243 1.243 . S
O1231 Tb1187 2.413 . S
O1231 C1251 1.256 . S
C1232 O1221 1.283 . S
C1232 O1224 1.243 . S
C1233 C1235 1.382 . S
C1233 C1237 1.393 . S
C1233 C1240 1.500 . S
C1234 C1235 1.400 . S
C1234 C1236 1.384 . S
C1235 C1233 1.382 . S
C1235 C1234 1.400 . S
C1235 H1252 0.930 . S
C1236 C1234 1.384 . S
C1236 C1238 1.392 . S
C1236 H1253 0.931 . S
C1237 C1233 1.393 . S
C1237 C1238 1.401 . S
C1237 H1254 0.930 . S
C1238 C1236 1.392 . S
C1238 C1237 1.401 . S
C1238 H1255 0.930 . S
C1239 O1222 1.262 . S
C1239 O1223 1.260 . S
C1240 Tb1176 2.833 . S
C1240 O1220 1.251 . S
C1240 O1225 1.256 . S
C1240 C1233 1.500 . S
C1241 H1206 0.929 . S
C1241 C1219 1.444 . S
C1241 C1242 1.317 . S
C1242 H1204 0.930 . S
C1242 C1210 1.432 . S
C1242 C1241 1.317 . S
C1243 O1227 1.283 . S
C1243 O1230 1.243 . S
C1244 C1245 1.382 . S
C1244 C1248 1.393 . S
C1244 C1251 1.500 . S
C1245 C1244 1.382 . S
C1245 C1246 1.400 . S
C1245 H1256 0.930 . S
C1246 C1245 1.400 . S
C1246 C1247 1.384 . S
C1247 C1246 1.384 . S
C1247 C1249 1.392 . S
C1247 H1257 0.931 . S
C1248 C1244 1.393 . S
C1248 C1249 1.401 . S
C1248 H1258 0.930 . S
C1249 C1247 1.392 . S
C1249 C1248 1.401 . S
C1249 H1259 0.930 . S
C1250 O1228 1.262 . S
C1250 O1229 1.260 . S
C1251 Tb1187 2.833 . S
C1251 O1226 1.251 . S
C1251 O1231 1.256 . S
C1251 C1244 1.500 . S
H1252 C1235 0.930 . S
H1253 C1236 0.931 . S
H1254 C1237 0.930 . S
H1255 C1238 0.930 . S
H1256 C1245 0.930 . S
H1257 C1247 0.931 . S
H1258 C1248 0.930 . S
H1259 C1249 0.930 . S
Tb1260 N1291 2.660 . S
Tb1260 N1298 2.600 . S
Tb1260 O1304 2.546 . S
Tb1260 O1305 2.610 . S
Tb1260 O1307 2.320 . S
Tb1260 O1308 2.552 . S
Tb1260 O1309 2.413 . S
Tb1260 O1311 2.362 . S
Tb1260 O1312 2.421 . S
Tb1260 C1324 2.833 . S
C1261 C1264 1.432 . S
C1261 C1265 1.414 . S
C1261 N1268 1.359 . S
C1262 C1264 1.417 . S
C1262 C1266 1.432 . S
C1262 C1274 1.410 . S
C1263 C1265 1.444 . S
C1263 C1266 1.317 . S
C1263 H1286 0.929 . S
C1264 C1261 1.432 . S
C1264 C1262 1.417 . S
C1264 N1272 1.360 . S
C1265 C1261 1.414 . S
C1265 C1263 1.444 . S
C1265 C1270 1.385 . S
C1266 C1262 1.432 . S
C1266 C1263 1.317 . S
C1266 H1278 0.930 . S
C1267 C1269 1.392 . S
C1267 C1270 1.370 . S
C1267 H1279 0.931 . S
N1268 C1261 1.359 . S
N1268 C1269 1.327 . S
N1268 Tb1271 2.600 . S
C1269 C1267 1.392 . S
C1269 N1268 1.327 . S
C1269 H1276 0.930 . S
C1270 C1265 1.385 . S
C1270 C1267 1.370 . S
C1270 H1289 0.930 . S
Tb1271 N1268 2.600 . S
Tb1271 N1272 2.660 . S
Tb1271 O1305 2.362 . S
Tb1271 O1306 2.421 . S
Tb1271 O1310 2.546 . S
Tb1271 O1311 2.610 . S
Tb1271 O1313 2.320 . S
Tb1271 O1314 2.552 . S
Tb1271 O1315 2.413 . S
Tb1271 C1335 2.833 . S
N1272 C1264 1.360 . S
N1272 Tb1271 2.660 . S
N1272 C1273 1.305 . S
C1273 N1272 1.305 . S
C1273 C1275 1.407 . S
C1273 H1280 0.930 . S
C1274 C1262 1.410 . S
C1274 C1275 1.345 . S
C1274 H1282 0.930 . S
C1275 C1273 1.407 . S
C1275 C1274 1.345 . S
C1275 H1277 0.930 . S
H1276 C1269 0.930 . S
H1277 C1275 0.930 . S
H1278 C1266 0.930 . S
H1279 C1267 0.931 . S
H1280 C1273 0.930 . S
H1281 C1295 0.930 . S
H1282 C1274 0.930 . S
H1283 C1301 0.930 . S
H1284 C1292 0.930 . S
H1285 C1299 0.931 . S
H1286 C1263 0.929 . S
H1287 C1293 0.930 . S
H1288 C1326 0.930 . S
H1289 C1270 0.930 . S
H1290 C1325 0.929 . S
N1291 Tb1260 2.660 . S
N1291 C1292 1.305 . S
N1291 C1296 1.360 . S
C1292 H1284 0.930 . S
C1292 N1291 1.305 . S
C1292 C1295 1.407 . S
C1293 H1287 0.930 . S
C1293 C1294 1.410 . S
C1293 C1295 1.345 . S
C1294 C1293 1.410 . S
C1294 C1296 1.417 . S
C1294 C1326 1.432 . S
C1295 H1281 0.930 . S
C1295 C1292 1.407 . S
C1295 C1293 1.345 . S
C1296 N1291 1.360 . S
C1296 C1294 1.417 . S
C1296 C1300 1.432 . S
H1297 C1302 0.930 . S
N1298 Tb1260 2.600 . S
N1298 C1300 1.359 . S
N1298 C1301 1.327 . S
C1299 H1285 0.931 . S
C1299 C1301 1.392 . S
C1299 C1302 1.370 . S
C1300 C1296 1.432 . S
C1300 N1298 1.359 . S
C1300 C1303 1.414 . S
C1301 H1283 0.930 . S
C1301 N1298 1.327 . S
C1301 C1299 1.392 . S
C1302 H1297 0.930 . S
C1302 C1299 1.370 . S
C1302 C1303 1.385 . S
C1303 C1300 1.414 . S
C1303 C1302 1.385 . S
C1303 C1325 1.444 . S
O1304 Tb1260 2.546 . S
O1304 C1324 1.251 . S
O1305 Tb1260 2.610 . S
O1305 Tb1271 2.362 . S
O1305 C1316 1.283 . S
O1306 Tb1271 2.421 . S
O1306 C1323 1.262 . S
O1307 Tb1260 2.320 . S
O1307 C1323 1.260 . S
O1308 Tb1260 2.552 . S
O1308 C1316 1.243 . S
O1309 Tb1260 2.413 . S
O1309 C1324 1.256 . S
O1310 Tb1271 2.546 . S
O1310 C1335 1.251 . S
O1311 Tb1260 2.362 . S
O1311 Tb1271 2.610 . S
O1311 C1327 1.283 . S
O1312 Tb1260 2.421 . S
O1312 C1334 1.262 . S
O1313 Tb1271 2.320 . S
O1313 C1334 1.260 . S
O1314 Tb1271 2.552 . S
O1314 C1327 1.243 . S
O1315 Tb1271 2.413 . S
O1315 C1335 1.256 . S
C1316 O1305 1.283 . S
C1316 O1308 1.243 . S
C1317 C1319 1.382 . S
C1317 C1321 1.393 . S
C1317 C1324 1.500 . S
C1318 C1319 1.400 . S
C1318 C1320 1.384 . S
C1319 C1317 1.382 . S
C1319 C1318 1.400 . S
C1319 H1336 0.930 . S
C1320 C1318 1.384 . S
C1320 C1322 1.392 . S
C1320 H1337 0.931 . S
C1321 C1317 1.393 . S
C1321 C1322 1.401 . S
C1321 H1338 0.930 . S
C1322 C1320 1.392 . S
C1322 C1321 1.401 . S
C1322 H1339 0.930 . S
C1323 O1306 1.262 . S
C1323 O1307 1.260 . S
C1324 Tb1260 2.833 . S
C1324 O1304 1.251 . S
C1324 O1309 1.256 . S
C1324 C1317 1.500 . S
C1325 H1290 0.929 . S
C1325 C1303 1.444 . S
C1325 C1326 1.317 . S
C1326 H1288 0.930 . S
C1326 C1294 1.432 . S
C1326 C1325 1.317 . S
C1327 O1311 1.283 . S
C1327 O1314 1.243 . S
C1328 C1329 1.382 . S
C1328 C1332 1.393 . S
C1328 C1335 1.500 . S
C1329 C1328 1.382 . S
C1329 C1330 1.400 . S
C1329 H1340 0.930 . S
C1330 C1329 1.400 . S
C1330 C1331 1.384 . S
C1331 C1330 1.384 . S
C1331 C1333 1.392 . S
C1331 H1341 0.931 . S
C1332 C1328 1.393 . S
C1332 C1333 1.401 . S
C1332 H1342 0.930 . S
C1333 C1331 1.392 . S
C1333 C1332 1.401 . S
C1333 H1343 0.930 . S
C1334 O1312 1.262 . S
C1334 O1313 1.260 . S
C1335 Tb1271 2.833 . S
C1335 O1310 1.251 . S
C1335 O1315 1.256 . S
C1335 C1328 1.500 . S
H1336 C1319 0.930 . S
H1337 C1320 0.931 . S
H1338 C1321 0.930 . S
H1339 C1322 0.930 . S
H1340 C1329 0.930 . S
H1341 C1331 0.931 . S
H1342 C1332 0.930 . S
H1343 C1333 0.930 . S
Tb1344 N1375 2.660 . S
Tb1344 N1382 2.600 . S
Tb1344 O1388 2.546 . S
Tb1344 O1389 2.610 . S
Tb1344 O1391 2.320 . S
Tb1344 O1392 2.552 . S
Tb1344 O1393 2.413 . S
Tb1344 O1395 2.362 . S
Tb1344 O1396 2.421 . S
Tb1344 C1408 2.833 . S
C1345 C1348 1.432 . S
C1345 C1349 1.414 . S
C1345 N1352 1.359 . S
C1346 C1348 1.417 . S
C1346 C1350 1.432 . S
C1346 C1358 1.410 . S
C1347 C1349 1.444 . S
C1347 C1350 1.317 . S
C1347 H1370 0.929 . S
C1348 C1345 1.432 . S
C1348 C1346 1.417 . S
C1348 N1356 1.360 . S
C1349 C1345 1.414 . S
C1349 C1347 1.444 . S
C1349 C1354 1.385 . S
C1350 C1346 1.432 . S
C1350 C1347 1.317 . S
C1350 H1362 0.930 . S
C1351 C1353 1.392 . S
C1351 C1354 1.370 . S
C1351 H1363 0.931 . S
N1352 C1345 1.359 . S
N1352 C1353 1.327 . S
N1352 Tb1355 2.600 . S
C1353 C1351 1.392 . S
C1353 N1352 1.327 . S
C1353 H1360 0.930 . S
C1354 C1349 1.385 . S
C1354 C1351 1.370 . S
C1354 H1373 0.930 . S
Tb1355 N1352 2.600 . S
Tb1355 N1356 2.660 . S
Tb1355 O1389 2.362 . S
Tb1355 O1390 2.421 . S
Tb1355 O1394 2.546 . S
Tb1355 O1395 2.610 . S
Tb1355 O1397 2.320 . S
Tb1355 O1398 2.552 . S
Tb1355 O1399 2.413 . S
Tb1355 C1419 2.833 . S
N1356 C1348 1.360 . S
N1356 Tb1355 2.660 . S
N1356 C1357 1.305 . S
C1357 N1356 1.305 . S
C1357 C1359 1.407 . S
C1357 H1364 0.930 . S
C1358 C1346 1.410 . S
C1358 C1359 1.345 . S
C1358 H1366 0.930 . S
C1359 C1357 1.407 . S
C1359 C1358 1.345 . S
C1359 H1361 0.930 . S
H1360 C1353 0.930 . S
H1361 C1359 0.930 . S
H1362 C1350 0.930 . S
H1363 C1351 0.931 . S
H1364 C1357 0.930 . S
H1365 C1379 0.930 . S
H1366 C1358 0.930 . S
H1367 C1385 0.930 . S
H1368 C1376 0.930 . S
H1369 C1383 0.931 . S
H1370 C1347 0.929 . S
H1371 C1377 0.930 . S
H1372 C1410 0.930 . S
H1373 C1354 0.930 . S
H1374 C1409 0.929 . S
N1375 Tb1344 2.660 . S
N1375 C1376 1.305 . S
N1375 C1380 1.360 . S
C1376 H1368 0.930 . S
C1376 N1375 1.305 . S
C1376 C1379 1.407 . S
C1377 H1371 0.930 . S
C1377 C1378 1.410 . S
C1377 C1379 1.345 . S
C1378 C1377 1.410 . S
C1378 C1380 1.417 . S
C1378 C1410 1.432 . S
C1379 H1365 0.930 . S
C1379 C1376 1.407 . S
C1379 C1377 1.345 . S
C1380 N1375 1.360 . S
C1380 C1378 1.417 . S
C1380 C1384 1.432 . S
H1381 C1386 0.930 . S
N1382 Tb1344 2.600 . S
N1382 C1384 1.359 . S
N1382 C1385 1.327 . S
C1383 H1369 0.931 . S
C1383 C1385 1.392 . S
C1383 C1386 1.370 . S
C1384 C1380 1.432 . S
C1384 N1382 1.359 . S
C1384 C1387 1.414 . S
C1385 H1367 0.930 . S
C1385 N1382 1.327 . S
C1385 C1383 1.392 . S
C1386 H1381 0.930 . S
C1386 C1383 1.370 . S
C1386 C1387 1.385 . S
C1387 C1384 1.414 . S
C1387 C1386 1.385 . S
C1387 C1409 1.444 . S
O1388 Tb1344 2.546 . S
O1388 C1408 1.251 . S
O1389 Tb1344 2.610 . S
O1389 Tb1355 2.362 . S
O1389 C1400 1.283 . S
O1390 Tb1355 2.421 . S
O1390 C1407 1.262 . S
O1391 Tb1344 2.320 . S
O1391 C1407 1.260 . S
O1392 Tb1344 2.552 . S
O1392 C1400 1.243 . S
O1393 Tb1344 2.413 . S
O1393 C1408 1.256 . S
O1394 Tb1355 2.546 . S
O1394 C1419 1.251 . S
O1395 Tb1344 2.362 . S
O1395 Tb1355 2.610 . S
O1395 C1411 1.283 . S
O1396 Tb1344 2.421 . S
O1396 C1418 1.262 . S
O1397 Tb1355 2.320 . S
O1397 C1418 1.260 . S
O1398 Tb1355 2.552 . S
O1398 C1411 1.243 . S
O1399 Tb1355 2.413 . S
O1399 C1419 1.256 . S
C1400 O1389 1.283 . S
C1400 O1392 1.243 . S
C1401 C1403 1.382 . S
C1401 C1405 1.393 . S
C1401 C1408 1.500 . S
C1402 C1403 1.400 . S
C1402 C1404 1.384 . S
C1403 C1401 1.382 . S
C1403 C1402 1.400 . S
C1403 H1420 0.930 . S
C1404 C1402 1.384 . S
C1404 C1406 1.392 . S
C1404 H1421 0.931 . S
C1405 C1401 1.393 . S
C1405 C1406 1.401 . S
C1405 H1422 0.930 . S
C1406 C1404 1.392 . S
C1406 C1405 1.401 . S
C1406 H1423 0.930 . S
C1407 O1390 1.262 . S
C1407 O1391 1.260 . S
C1408 Tb1344 2.833 . S
C1408 O1388 1.251 . S
C1408 O1393 1.256 . S
C1408 C1401 1.500 . S
C1409 H1374 0.929 . S
C1409 C1387 1.444 . S
C1409 C1410 1.317 . S
C1410 H1372 0.930 . S
C1410 C1378 1.432 . S
C1410 C1409 1.317 . S
C1411 O1395 1.283 . S
C1411 O1398 1.243 . S
C1412 C1413 1.382 . S
C1412 C1416 1.393 . S
C1412 C1419 1.500 . S
C1413 C1412 1.382 . S
C1413 C1414 1.400 . S
C1413 H1424 0.930 . S
C1414 C1413 1.400 . S
C1414 C1415 1.384 . S
C1415 C1414 1.384 . S
C1415 C1417 1.392 . S
C1415 H1425 0.931 . S
C1416 C1412 1.393 . S
C1416 C1417 1.401 . S
C1416 H1426 0.930 . S
C1417 C1415 1.392 . S
C1417 C1416 1.401 . S
C1417 H1427 0.930 . S
C1418 O1396 1.262 . S
C1418 O1397 1.260 . S
C1419 Tb1355 2.833 . S
C1419 O1394 1.251 . S
C1419 O1399 1.256 . S
C1419 C1412 1.500 . S
H1420 C1403 0.930 . S
H1421 C1404 0.931 . S
H1422 C1405 0.930 . S
H1423 C1406 0.930 . S
H1424 C1413 0.930 . S
H1425 C1415 0.931 . S
H1426 C1416 0.930 . S
H1427 C1417 0.930 . S
Tb1428 N1459 2.660 . S
Tb1428 N1466 2.600 . S
Tb1428 O1472 2.546 . S
Tb1428 O1473 2.610 . S
Tb1428 O1475 2.320 . S
Tb1428 O1476 2.552 . S
Tb1428 O1477 2.413 . S
Tb1428 O1479 2.362 . S
Tb1428 O1480 2.421 . S
Tb1428 C1492 2.833 . S
C1429 C1432 1.432 . S
C1429 C1433 1.414 . S
C1429 N1436 1.359 . S
C1430 C1432 1.417 . S
C1430 C1434 1.432 . S
C1430 C1442 1.410 . S
C1431 C1433 1.444 . S
C1431 C1434 1.317 . S
C1431 H1454 0.929 . S
C1432 C1429 1.432 . S
C1432 C1430 1.417 . S
C1432 N1440 1.360 . S
C1433 C1429 1.414 . S
C1433 C1431 1.444 . S
C1433 C1438 1.385 . S
C1434 C1430 1.432 . S
C1434 C1431 1.317 . S
C1434 H1446 0.930 . S
C1435 C1437 1.392 . S
C1435 C1438 1.370 . S
C1435 H1447 0.931 . S
N1436 C1429 1.359 . S
N1436 C1437 1.327 . S
N1436 Tb1439 2.600 . S
C1437 C1435 1.392 . S
C1437 N1436 1.327 . S
C1437 H1444 0.930 . S
C1438 C1433 1.385 . S
C1438 C1435 1.370 . S
C1438 H1457 0.930 . S
Tb1439 N1436 2.600 . S
Tb1439 N1440 2.660 . S
Tb1439 O1473 2.362 . S
Tb1439 O1474 2.421 . S
Tb1439 O1478 2.546 . S
Tb1439 O1479 2.610 . S
Tb1439 O1481 2.320 . S
Tb1439 O1482 2.552 . S
Tb1439 O1483 2.413 . S
Tb1439 C1503 2.833 . S
N1440 C1432 1.360 . S
N1440 Tb1439 2.660 . S
N1440 C1441 1.305 . S
C1441 N1440 1.305 . S
C1441 C1443 1.407 . S
C1441 H1448 0.930 . S
C1442 C1430 1.410 . S
C1442 C1443 1.345 . S
C1442 H1450 0.930 . S
C1443 C1441 1.407 . S
C1443 C1442 1.345 . S
C1443 H1445 0.930 . S
H1444 C1437 0.930 . S
H1445 C1443 0.930 . S
H1446 C1434 0.930 . S
H1447 C1435 0.931 . S
H1448 C1441 0.930 . S
H1449 C1463 0.930 . S
H1450 C1442 0.930 . S
H1451 C1469 0.930 . S
H1452 C1460 0.930 . S
H1453 C1467 0.931 . S
H1454 C1431 0.929 . S
H1455 C1461 0.930 . S
H1456 C1494 0.930 . S
H1457 C1438 0.930 . S
H1458 C1493 0.929 . S
N1459 Tb1428 2.660 . S
N1459 C1460 1.305 . S
N1459 C1464 1.360 . S
C1460 H1452 0.930 . S
C1460 N1459 1.305 . S
C1460 C1463 1.407 . S
C1461 H1455 0.930 . S
C1461 C1462 1.410 . S
C1461 C1463 1.345 . S
C1462 C1461 1.410 . S
C1462 C1464 1.417 . S
C1462 C1494 1.432 . S
C1463 H1449 0.930 . S
C1463 C1460 1.407 . S
C1463 C1461 1.345 . S
C1464 N1459 1.360 . S
C1464 C1462 1.417 . S
C1464 C1468 1.432 . S
H1465 C1470 0.930 . S
N1466 Tb1428 2.600 . S
N1466 C1468 1.359 . S
N1466 C1469 1.327 . S
C1467 H1453 0.931 . S
C1467 C1469 1.392 . S
C1467 C1470 1.370 . S
C1468 C1464 1.432 . S
C1468 N1466 1.359 . S
C1468 C1471 1.414 . S
C1469 H1451 0.930 . S
C1469 N1466 1.327 . S
C1469 C1467 1.392 . S
C1470 H1465 0.930 . S
C1470 C1467 1.370 . S
C1470 C1471 1.385 . S
C1471 C1468 1.414 . S
C1471 C1470 1.385 . S
C1471 C1493 1.444 . S
O1472 Tb1428 2.546 . S
O1472 C1492 1.251 . S
O1473 Tb1428 2.610 . S
O1473 Tb1439 2.362 . S
O1473 C1484 1.283 . S
O1474 Tb1439 2.421 . S
O1474 C1491 1.262 . S
O1475 Tb1428 2.320 . S
O1475 C1491 1.260 . S
O1476 Tb1428 2.552 . S
O1476 C1484 1.243 . S
O1477 Tb1428 2.413 . S
O1477 C1492 1.256 . S
O1478 Tb1439 2.546 . S
O1478 C1503 1.251 . S
O1479 Tb1428 2.362 . S
O1479 Tb1439 2.610 . S
O1479 C1495 1.283 . S
O1480 Tb1428 2.421 . S
O1480 C1502 1.262 . S
O1481 Tb1439 2.320 . S
O1481 C1502 1.260 . S
O1482 Tb1439 2.552 . S
O1482 C1495 1.243 . S
O1483 Tb1439 2.413 . S
O1483 C1503 1.256 . S
C1484 O1473 1.283 . S
C1484 O1476 1.243 . S
C1485 C1487 1.382 . S
C1485 C1489 1.393 . S
C1485 C1492 1.500 . S
C1486 C1487 1.400 . S
C1486 C1488 1.384 . S
C1487 C1485 1.382 . S
C1487 C1486 1.400 . S
C1487 H1504 0.930 . S
C1488 C1486 1.384 . S
C1488 C1490 1.392 . S
C1488 H1505 0.931 . S
C1489 C1485 1.393 . S
C1489 C1490 1.401 . S
C1489 H1506 0.930 . S
C1490 C1488 1.392 . S
C1490 C1489 1.401 . S
C1490 H1507 0.930 . S
C1491 O1474 1.262 . S
C1491 O1475 1.260 . S
C1492 Tb1428 2.833 . S
C1492 O1472 1.251 . S
C1492 O1477 1.256 . S
C1492 C1485 1.500 . S
C1493 H1458 0.929 . S
C1493 C1471 1.444 . S
C1493 C1494 1.317 . S
C1494 H1456 0.930 . S
C1494 C1462 1.432 . S
C1494 C1493 1.317 . S
C1495 O1479 1.283 . S
C1495 O1482 1.243 . S
C1496 C1497 1.382 . S
C1496 C1500 1.393 . S
C1496 C1503 1.500 . S
C1497 C1496 1.382 . S
C1497 C1498 1.400 . S
C1497 H1508 0.930 . S
C1498 C1497 1.400 . S
C1498 C1499 1.384 . S
C1499 C1498 1.384 . S
C1499 C1501 1.392 . S
C1499 H1509 0.931 . S
C1500 C1496 1.393 . S
C1500 C1501 1.401 . S
C1500 H1510 0.930 . S
C1501 C1499 1.392 . S
C1501 C1500 1.401 . S
C1501 H1511 0.930 . S
C1502 O1480 1.262 . S
C1502 O1481 1.260 . S
C1503 Tb1439 2.833 . S
C1503 O1478 1.251 . S
C1503 O1483 1.256 . S
C1503 C1496 1.500 . S
H1504 C1487 0.930 . S
H1505 C1488 0.931 . S
H1506 C1489 0.930 . S
H1507 C1490 0.930 . S
H1508 C1497 0.930 . S
H1509 C1499 0.931 . S
H1510 C1500 0.930 . S
H1511 C1501 0.930 . S
Tb1512 N1543 2.660 . S
Tb1512 N1550 2.600 . S
Tb1512 O1556 2.546 . S
Tb1512 O1557 2.610 . S
Tb1512 O1559 2.320 . S
Tb1512 O1560 2.552 . S
Tb1512 O1561 2.413 . S
Tb1512 O1563 2.362 . S
Tb1512 O1564 2.421 . S
Tb1512 C1576 2.833 . S
C1513 C1516 1.432 . S
C1513 C1517 1.414 . S
C1513 N1520 1.359 . S
C1514 C1516 1.417 . S
C1514 C1518 1.432 . S
C1514 C1526 1.410 . S
C1515 C1517 1.444 . S
C1515 C1518 1.317 . S
C1515 H1538 0.929 . S
C1516 C1513 1.432 . S
C1516 C1514 1.417 . S
C1516 N1524 1.360 . S
C1517 C1513 1.414 . S
C1517 C1515 1.444 . S
C1517 C1522 1.385 . S
C1518 C1514 1.432 . S
C1518 C1515 1.317 . S
C1518 H1530 0.930 . S
C1519 C1521 1.392 . S
C1519 C1522 1.370 . S
C1519 H1531 0.931 . S
N1520 C1513 1.359 . S
N1520 C1521 1.327 . S
N1520 Tb1523 2.600 . S
C1521 C1519 1.392 . S
C1521 N1520 1.327 . S
C1521 H1528 0.930 . S
C1522 C1517 1.385 . S
C1522 C1519 1.370 . S
C1522 H1541 0.930 . S
Tb1523 N1520 2.600 . S
Tb1523 N1524 2.660 . S
Tb1523 O1557 2.362 . S
Tb1523 O1558 2.421 . S
Tb1523 O1562 2.546 . S
Tb1523 O1563 2.610 . S
Tb1523 O1565 2.320 . S
Tb1523 O1566 2.552 . S
Tb1523 O1567 2.413 . S
Tb1523 C1587 2.833 . S
N1524 C1516 1.360 . S
N1524 Tb1523 2.660 . S
N1524 C1525 1.305 . S
C1525 N1524 1.305 . S
C1525 C1527 1.407 . S
C1525 H1532 0.930 . S
C1526 C1514 1.410 . S
C1526 C1527 1.345 . S
C1526 H1534 0.930 . S
C1527 C1525 1.407 . S
C1527 C1526 1.345 . S
C1527 H1529 0.930 . S
H1528 C1521 0.930 . S
H1529 C1527 0.930 . S
H1530 C1518 0.930 . S
H1531 C1519 0.931 . S
H1532 C1525 0.930 . S
H1533 C1547 0.930 . S
H1534 C1526 0.930 . S
H1535 C1553 0.930 . S
H1536 C1544 0.930 . S
H1537 C1551 0.931 . S
H1538 C1515 0.929 . S
H1539 C1545 0.930 . S
H1540 C1578 0.930 . S
H1541 C1522 0.930 . S
H1542 C1577 0.929 . S
N1543 Tb1512 2.660 . S
N1543 C1544 1.305 . S
N1543 C1548 1.360 . S
C1544 H1536 0.930 . S
C1544 N1543 1.305 . S
C1544 C1547 1.407 . S
C1545 H1539 0.930 . S
C1545 C1546 1.410 . S
C1545 C1547 1.345 . S
C1546 C1545 1.410 . S
C1546 C1548 1.417 . S
C1546 C1578 1.432 . S
C1547 H1533 0.930 . S
C1547 C1544 1.407 . S
C1547 C1545 1.345 . S
C1548 N1543 1.360 . S
C1548 C1546 1.417 . S
C1548 C1552 1.432 . S
H1549 C1554 0.930 . S
N1550 Tb1512 2.600 . S
N1550 C1552 1.359 . S
N1550 C1553 1.327 . S
C1551 H1537 0.931 . S
C1551 C1553 1.392 . S
C1551 C1554 1.370 . S
C1552 C1548 1.432 . S
C1552 N1550 1.359 . S
C1552 C1555 1.414 . S
C1553 H1535 0.930 . S
C1553 N1550 1.327 . S
C1553 C1551 1.392 . S
C1554 H1549 0.930 . S
C1554 C1551 1.370 . S
C1554 C1555 1.385 . S
C1555 C1552 1.414 . S
C1555 C1554 1.385 . S
C1555 C1577 1.444 . S
O1556 Tb1512 2.546 . S
O1556 C1576 1.251 . S
O1557 Tb1512 2.610 . S
O1557 Tb1523 2.362 . S
O1557 C1568 1.283 . S
O1558 Tb1523 2.421 . S
O1558 C1575 1.262 . S
O1559 Tb1512 2.320 . S
O1559 C1575 1.260 . S
O1560 Tb1512 2.552 . S
O1560 C1568 1.243 . S
O1561 Tb1512 2.413 . S
O1561 C1576 1.256 . S
O1562 Tb1523 2.546 . S
O1562 C1587 1.251 . S
O1563 Tb1512 2.362 . S
O1563 Tb1523 2.610 . S
O1563 C1579 1.283 . S
O1564 Tb1512 2.421 . S
O1564 C1586 1.262 . S
O1565 Tb1523 2.320 . S
O1565 C1586 1.260 . S
O1566 Tb1523 2.552 . S
O1566 C1579 1.243 . S
O1567 Tb1523 2.413 . S
O1567 C1587 1.256 . S
C1568 O1557 1.283 . S
C1568 O1560 1.243 . S
C1569 C1571 1.382 . S
C1569 C1573 1.393 . S
C1569 C1576 1.500 . S
C1570 C1571 1.400 . S
C1570 C1572 1.384 . S
C1571 C1569 1.382 . S
C1571 C1570 1.400 . S
C1571 H1588 0.930 . S
C1572 C1570 1.384 . S
C1572 C1574 1.392 . S
C1572 H1589 0.931 . S
C1573 C1569 1.393 . S
C1573 C1574 1.401 . S
C1573 H1590 0.930 . S
C1574 C1572 1.392 . S
C1574 C1573 1.401 . S
C1574 H1591 0.930 . S
C1575 O1558 1.262 . S
C1575 O1559 1.260 . S
C1576 Tb1512 2.833 . S
C1576 O1556 1.251 . S
C1576 O1561 1.256 . S
C1576 C1569 1.500 . S
C1577 H1542 0.929 . S
C1577 C1555 1.444 . S
C1577 C1578 1.317 . S
C1578 H1540 0.930 . S
C1578 C1546 1.432 . S
C1578 C1577 1.317 . S
C1579 O1563 1.283 . S
C1579 O1566 1.243 . S
C1580 C1581 1.382 . S
C1580 C1584 1.393 . S
C1580 C1587 1.500 . S
C1581 C1580 1.382 . S
C1581 C1582 1.400 . S
C1581 H1592 0.930 . S
C1582 C1581 1.400 . S
C1582 C1583 1.384 . S
C1583 C1582 1.384 . S
C1583 C1585 1.392 . S
C1583 H1593 0.931 . S
C1584 C1580 1.393 . S
C1584 C1585 1.401 . S
C1584 H1594 0.930 . S
C1585 C1583 1.392 . S
C1585 C1584 1.401 . S
C1585 H1595 0.930 . S
C1586 O1564 1.262 . S
C1586 O1565 1.260 . S
C1587 Tb1523 2.833 . S
C1587 O1562 1.251 . S
C1587 O1567 1.256 . S
C1587 C1580 1.500 . S
H1588 C1571 0.930 . S
H1589 C1572 0.931 . S
H1590 C1573 0.930 . S
H1591 C1574 0.930 . S
H1592 C1581 0.930 . S
H1593 C1583 0.931 . S
H1594 C1584 0.930 . S
H1595 C1585 0.930 . S
Tb1596 N1627 2.660 . S
Tb1596 N1634 2.600 1_554 S
Tb1596 O1640 2.546 1_554 S
Tb1596 O1641 2.610 . S
Tb1596 O1643 2.320 . S
Tb1596 O1644 2.552 . S
Tb1596 O1645 2.413 . S
Tb1596 O1647 2.362 . S
Tb1596 O1648 2.421 1_554 S
Tb1596 C1660 2.820 1_554 S
C1597 C1600 1.432 . S
C1597 C1601 1.414 . S
C1597 N1604 1.359 1_655 S
C1598 C1600 1.417 . S
C1598 C1602 1.432 . S
C1598 C1610 1.410 1_554 S
C1599 C1601 1.444 . S
C1599 C1602 1.317 . S
C1599 H1622 0.929 . S
C1600 C1597 1.432 . S
C1600 C1598 1.417 . S
C1600 N1608 1.360 1_655 S
C1601 C1597 1.414 . S
C1601 C1599 1.444 . S
C1601 C1606 1.385 . S
C1602 C1598 1.432 . S
C1602 C1599 1.317 . S
C1602 H1614 0.930 . S
C1603 C1605 1.392 . S
C1603 C1606 1.370 1_455 S
C1603 H1615 0.931 . S
N1604 C1597 1.359 1_455 S
N1604 C1605 1.327 . S
N1604 Tb1607 2.600 . S
C1605 C1603 1.392 . S
C1605 N1604 1.327 . S
C1605 H1612 0.930 . S
C1606 C1601 1.385 . S
C1606 C1603 1.370 1_655 S
C1606 H1625 0.930 . S
Tb1607 N1604 2.600 . S
Tb1607 N1608 2.660 . S
Tb1607 O1641 2.362 . S
Tb1607 O1642 2.421 . S
Tb1607 O1646 2.546 . S
Tb1607 O1647 2.610 . S
Tb1607 O1649 2.268 1_554 S
Tb1607 O1650 2.552 . S
Tb1607 O1651 2.413 1_455 S
Tb1607 C1671 2.833 1_455 S
N1608 C1600 1.360 1_455 S
N1608 Tb1607 2.660 . S
N1608 C1609 1.305 1_554 S
C1609 N1608 1.305 1_556 S
C1609 C1611 1.401 1_455 S
C1609 H1616 0.937 . S
C1610 C1598 1.410 1_556 S
C1610 C1611 1.345 . S
C1610 H1618 0.930 . S
C1611 C1609 1.401 1_655 S
C1611 C1610 1.345 . S
C1611 H1613 0.930 . S
H1612 C1605 0.930 . S
H1613 C1611 0.930 . S
H1614 C1602 0.930 . S
H1615 C1603 0.931 . S
H1616 C1609 0.937 . S
H1617 C1631 0.930 . S
H1618 C1610 0.930 . S
H1619 C1637 0.930 . S
H1620 C1628 0.930 . S
H1621 C1635 0.931 . S
H1622 C1599 0.929 . S
H1623 C1629 0.930 . S
H1624 C1662 0.930 . S
H1625 C1606 0.930 . S
H1626 C1661 0.929 . S
N1627 Tb1596 2.660 . S
N1627 C1628 1.305 . S
N1627 C1632 1.360 . S
C1628 H1620 0.930 . S
C1628 N1627 1.305 . S
C1628 C1631 1.407 . S
C1629 H1623 0.930 . S
C1629 C1630 1.410 . S
C1629 C1631 1.345 . S
C1630 C1629 1.410 . S
C1630 C1632 1.417 . S
C1630 C1662 1.432 . S
C1631 H1617 0.930 . S
C1631 C1628 1.407 . S
C1631 C1629 1.345 . S
C1632 N1627 1.360 . S
C1632 C1630 1.417 . S
C1632 C1636 1.432 1_554 S
H1633 C1638 0.930 . S
N1634 Tb1596 2.600 1_556 S
N1634 C1636 1.359 . S
N1634 C1637 1.327 . S
C1635 H1621 0.931 . S
C1635 C1637 1.392 . S
C1635 C1638 1.370 . S
C1636 C1632 1.432 1_556 S
C1636 N1634 1.359 . S
C1636 C1639 1.414 . S
C1637 H1619 0.930 . S
C1637 N1634 1.327 . S
C1637 C1635 1.392 . S
C1638 H1633 0.930 . S
C1638 C1635 1.370 . S
C1638 C1639 1.385 . S
C1639 C1636 1.414 . S
C1639 C1638 1.385 . S
C1639 C1661 1.444 . S
O1640 Tb1596 2.546 1_556 S
O1640 C1660 1.296 . S
O1641 Tb1596 2.610 . S
O1641 Tb1607 2.362 . S
O1641 C1652 1.283 . S
O1642 Tb1607 2.421 . S
O1642 C1659 1.262 . S
O1643 Tb1596 2.320 . S
O1643 C1659 1.260 . S
O1644 Tb1596 2.552 . S
O1644 C1652 1.243 . S
O1645 Tb1596 2.413 . S
O1645 C1660 1.202 1_554 S
O1646 Tb1607 2.546 . S
O1646 C1671 1.251 1_455 S
O1647 Tb1596 2.362 . S
O1647 Tb1607 2.610 . S
O1647 C1663 1.283 . S
O1648 Tb1596 2.421 1_556 S
O1648 C1670 1.262 . S
O1649 Tb1607 2.268 1_556 S
O1649 C1670 1.303 . S
O1650 Tb1607 2.552 . S
O1650 C1663 1.243 . S
O1651 Tb1607 2.413 1_655 S
O1651 C1671 1.256 . S
C1652 O1641 1.283 . S
C1652 O1644 1.243 . S
C1653 C1655 1.382 1_556 S
C1653 C1657 1.393 . S
C1653 C1660 1.510 . S
C1654 C1655 1.400 . S
C1654 C1656 1.384 1_554 S
C1655 C1653 1.382 1_554 S
C1655 C1654 1.400 . S
C1655 H1672 0.930 . S
C1656 C1654 1.384 1_556 S
C1656 C1658 1.392 . S
C1656 H1673 0.931 . S
C1657 C1653 1.393 . S
C1657 C1658 1.401 . S
C1657 H1674 0.930 . S
C1658 C1656 1.392 . S
C1658 C1657 1.401 . S
C1658 H1675 0.930 . S
C1659 O1642 1.262 . S
C1659 O1643 1.260 . S
C1660 Tb1596 2.820 1_556 S
C1660 O1640 1.296 . S
C1660 O1645 1.202 1_556 S
C1660 C1653 1.510 . S
C1661 H1626 0.929 . S
C1661 C1639 1.444 . S
C1661 C1662 1.317 1_556 S
C1662 H1624 0.930 . S
C1662 C1630 1.432 . S
C1662 C1661 1.317 1_554 S
C1663 O1647 1.283 . S
C1663 O1650 1.243 . S
C1664 C1665 1.382 . S
C1664 C1668 1.393 . S
C1664 C1671 1.500 . S
C1665 C1664 1.382 . S
C1665 C1666 1.400 . S
C1665 H1676 0.930 . S
C1666 C1665 1.400 . S
C1666 C1667 1.384 . S
C1667 C1666 1.384 . S
C1667 C1669 1.392 . S
C1667 H1677 0.931 . S
C1668 C1664 1.393 . S
C1668 C1669 1.401 . S
C1668 H1678 0.930 . S
C1669 C1667 1.392 . S
C1669 C1668 1.401 . S
C1669 H1679 0.930 . S
C1670 O1648 1.262 . S
C1670 O1649 1.303 . S
C1671 Tb1607 2.833 1_655 S
C1671 O1646 1.251 1_655 S
C1671 O1651 1.256 . S
C1671 C1664 1.500 . S
H1672 C1655 0.930 . S
H1673 C1656 0.931 . S
H1674 C1657 0.930 . S
H1675 C1658 0.930 . S
H1676 C1665 0.930 . S
H1677 C1667 0.931 . S
H1678 C1668 0.930 . S
H1679 C1669 0.930 . S
H1680 C1688 0.929 1_655 S
H1681 C1690 0.930 1_655 S
H1682 C1692 0.930 . S
H1683 C1695 0.929 . S
H1684 C1698 0.930 . S
H1685 C1700 0.960 . S
H1686 C1700 0.960 . S
H1687 C1700 0.960 . S
C1688 H1680 0.929 1_455 S
C1688 C1689 1.377 . S
C1688 C1690 1.384 . S
C1689 C1688 1.377 . S
C1689 C1695 1.390 . S
C1690 H1681 0.930 1_455 S
C1690 C1688 1.384 . S
C1690 C1691 1.372 . S
C1691 C1690 1.372 . S
C1691 C1692 1.400 . S
C1691 C1696 1.490 . S
C1692 H1682 0.930 . S
C1692 C1691 1.400 . S
C1692 C1695 1.386 . S
H1693 C1709 0.930 . S
H1694 C1710 0.931 . S
C1695 H1683 0.929 . S
C1695 C1689 1.390 . S
C1695 C1692 1.386 . S
C1696 C1691 1.490 . S
C1696 C1698 1.395 . S
C1696 C1699 1.403 . S
H1697 C1703 0.930 . S
C1698 H1684 0.930 . S
C1698 C1696 1.395 . S
C1698 C1701 1.403 . S
C1699 C1696 1.403 . S
C1699 C1700 1.524 1_556 S
C1699 C1703 1.400 1_556 S
C1700 H1685 0.960 . S
C1700 H1686 0.960 . S
C1700 H1687 0.960 . S
C1700 C1699 1.524 1_554 S
C1701 C1698 1.403 . S
C1701 C1702 1.392 . S
C1701 C1705 1.495 . S
C1702 C1701 1.392 . S
C1702 C1703 1.385 1_556 S
C1702 C1704 1.478 . S
C1703 H1697 0.930 . S
C1703 C1699 1.400 1_554 S
C1703 C1702 1.385 1_554 S
C1704 C1702 1.478 . S
C1704 C1706 1.381 . S
C1704 C1710 1.383 1_556 S
C1705 C1701 1.495 . S
C1705 H1711 0.959 . S
C1705 H1712 0.961 . S
C1705 H1713 0.960 . S
C1706 C1704 1.381 . S
C1706 C1707 1.394 1_556 S
C1706 H1714 0.930 . S
C1707 C1706 1.394 1_554 S
C1707 C1708 1.383 . S
C1707 H1715 0.929 . S
C1708 C1707 1.383 . S
C1708 C1709 1.377 . S
C1709 H1693 0.930 . S
C1709 C1708 1.377 . S
C1709 C1710 1.379 . S
C1710 H1694 0.931 . S
C1710 C1704 1.383 1_554 S
C1710 C1709 1.379 . S
H1711 C1705 0.959 . S
H1712 C1705 0.961 . S
H1713 C1705 0.960 . S
H1714 C1706 0.930 . S
H1715 C1707 0.929 . S
H1716 C1724 0.929 . S
H1717 C1726 0.930 . S
H1718 C1728 0.930 . S
H1719 C1731 0.929 . S
H1720 C1734 0.930 . S
H1721 C1736 0.960 . S
H1722 C1736 0.960 . S
H1723 C1736 0.960 . S
C1724 H1716 0.929 . S
C1724 C1725 1.377 . S
C1724 C1726 1.384 . S
C1725 C1724 1.377 . S
C1725 C1731 1.390 . S
C1726 H1717 0.930 . S
C1726 C1724 1.384 . S
C1726 C1727 1.372 . S
C1727 C1726 1.372 . S
C1727 C1728 1.400 . S
C1727 C1732 1.490 . S
C1728 H1718 0.930 . S
C1728 C1727 1.400 . S
C1728 C1731 1.386 . S
H1729 C1745 0.930 . S
H1730 C1746 0.931 . S
C1731 H1719 0.929 . S
C1731 C1725 1.390 . S
C1731 C1728 1.386 . S
C1732 C1727 1.490 . S
C1732 C1734 1.395 . S
C1732 C1735 1.403 . S
H1733 C1739 0.930 . S
C1734 H1720 0.930 . S
C1734 C1732 1.395 . S
C1734 C1737 1.403 . S
C1735 C1732 1.403 . S
C1735 C1736 1.524 . S
C1735 C1739 1.400 . S
C1736 H1721 0.960 . S
C1736 H1722 0.960 . S
C1736 H1723 0.960 . S
C1736 C1735 1.524 . S
C1737 C1734 1.403 . S
C1737 C1738 1.392 . S
C1737 C1741 1.495 . S
C1738 C1737 1.392 . S
C1738 C1739 1.385 . S
C1738 C1740 1.478 . S
C1739 H1733 0.930 . S
C1739 C1735 1.400 . S
C1739 C1738 1.385 . S
C1740 C1738 1.478 . S
C1740 C1742 1.381 . S
C1740 C1746 1.383 . S
C1741 C1737 1.495 . S
C1741 H1747 0.959 . S
C1741 H1748 0.961 . S
C1741 H1749 0.960 . S
C1742 C1740 1.381 . S
C1742 C1743 1.394 . S
C1742 H1750 0.930 . S
C1743 C1742 1.394 . S
C1743 C1744 1.383 . S
C1743 H1751 0.929 . S
C1744 C1743 1.383 . S
C1744 C1745 1.377 . S
C1745 H1729 0.930 . S
C1745 C1744 1.377 . S
C1745 C1746 1.379 . S
C1746 H1730 0.931 . S
C1746 C1740 1.383 . S
C1746 C1745 1.379 . S
H1747 C1741 0.959 . S
H1748 C1741 0.961 . S
H1749 C1741 0.960 . S
H1750 C1742 0.930 . S
H1751 C1743 0.929 . S
H1752 C1760 0.929 . S
H1753 C1762 0.930 . S
H1754 C1764 0.930 . S
H1755 C1767 0.929 . S
H1756 C1770 0.930 . S
H1757 C1772 0.960 . S
H1758 C1772 0.960 . S
H1759 C1772 0.960 . S
C1760 H1752 0.929 . S
C1760 C1761 1.377 . S
C1760 C1762 1.384 . S
C1761 C1760 1.377 . S
C1761 C1767 1.390 . S
C1762 H1753 0.930 . S
C1762 C1760 1.384 . S
C1762 C1763 1.372 . S
C1763 C1762 1.372 . S
C1763 C1764 1.400 . S
C1763 C1768 1.490 . S
C1764 H1754 0.930 . S
C1764 C1763 1.400 . S
C1764 C1767 1.386 . S
H1765 C1781 0.930 . S
H1766 C1782 0.931 . S
C1767 H1755 0.929 . S
C1767 C1761 1.390 . S
C1767 C1764 1.386 . S
C1768 C1763 1.490 . S
C1768 C1770 1.395 . S
C1768 C1771 1.403 . S
H1769 C1775 0.930 . S
C1770 H1756 0.930 . S
C1770 C1768 1.395 . S
C1770 C1773 1.403 . S
C1771 C1768 1.403 . S
C1771 C1772 1.524 . S
C1771 C1775 1.400 . S
C1772 H1757 0.960 . S
C1772 H1758 0.960 . S
C1772 H1759 0.960 . S
C1772 C1771 1.524 . S
C1773 C1770 1.403 . S
C1773 C1774 1.392 . S
C1773 C1777 1.495 . S
C1774 C1773 1.392 . S
C1774 C1775 1.385 . S
C1774 C1776 1.478 . S
C1775 H1769 0.930 . S
C1775 C1771 1.400 . S
C1775 C1774 1.385 . S
C1776 C1774 1.478 . S
C1776 C1778 1.381 . S
C1776 C1782 1.383 . S
C1777 C1773 1.495 . S
C1777 H1783 0.959 . S
C1777 H1784 0.961 . S
C1777 H1785 0.960 . S
C1778 C1776 1.381 . S
C1778 C1779 1.394 . S
C1778 H1786 0.930 . S
C1779 C1778 1.394 . S
C1779 C1780 1.383 . S
C1779 H1787 0.929 . S
C1780 C1779 1.383 . S
C1780 C1781 1.377 . S
C1781 H1765 0.930 . S
C1781 C1780 1.377 . S
C1781 C1782 1.379 . S
C1782 H1766 0.931 . S
C1782 C1776 1.383 . S
C1782 C1781 1.379 . S
H1783 C1777 0.959 . S
H1784 C1777 0.961 . S
H1785 C1777 0.960 . S
H1786 C1778 0.930 . S
H1787 C1779 0.929 . S
H1788 C1796 0.929 . S
H1789 C1798 0.930 . S
H1790 C1800 0.930 . S
H1791 C1803 0.929 . S
H1792 C1806 0.930 . S
H1793 C1808 0.960 . S
H1794 C1808 0.960 . S
H1795 C1808 0.960 . S
C1796 H1788 0.929 . S
C1796 C1797 1.377 . S
C1796 C1798 1.384 . S
C1797 C1796 1.377 . S
C1797 C1803 1.390 . S
C1798 H1789 0.930 . S
C1798 C1796 1.384 . S
C1798 C1799 1.372 . S
C1799 C1798 1.372 . S
C1799 C1800 1.400 . S
C1799 C1804 1.490 . S
C1800 H1790 0.930 . S
C1800 C1799 1.400 . S
C1800 C1803 1.386 . S
H1801 C1817 0.930 . S
H1802 C1818 0.931 . S
C1803 H1791 0.929 . S
C1803 C1797 1.390 . S
C1803 C1800 1.386 . S
C1804 C1799 1.490 . S
C1804 C1806 1.395 . S
C1804 C1807 1.403 . S
H1805 C1811 0.930 . S
C1806 H1792 0.930 . S
C1806 C1804 1.395 . S
C1806 C1809 1.403 . S
C1807 C1804 1.403 . S
C1807 C1808 1.524 . S
C1807 C1811 1.400 . S
C1808 H1793 0.960 . S
C1808 H1794 0.960 . S
C1808 H1795 0.960 . S
C1808 C1807 1.524 . S
C1809 C1806 1.403 . S
C1809 C1810 1.392 . S
C1809 C1813 1.495 . S
C1810 C1809 1.392 . S
C1810 C1811 1.385 . S
C1810 C1812 1.478 . S
C1811 H1805 0.930 . S
C1811 C1807 1.400 . S
C1811 C1810 1.385 . S
C1812 C1810 1.478 . S
C1812 C1814 1.381 . S
C1812 C1818 1.383 . S
C1813 C1809 1.495 . S
C1813 H1819 0.959 . S
C1813 H1820 0.961 . S
C1813 H1821 0.960 . S
C1814 C1812 1.381 . S
C1814 C1815 1.394 . S
C1814 H1822 0.930 . S
C1815 C1814 1.394 . S
C1815 C1816 1.383 . S
C1815 H1823 0.929 . S
C1816 C1815 1.383 . S
C1816 C1817 1.377 . S
C1817 H1801 0.930 . S
C1817 C1816 1.377 . S
C1817 C1818 1.379 . S
C1818 H1802 0.931 . S
C1818 C1812 1.383 . S
C1818 C1817 1.379 . S
H1819 C1813 0.959 . S
H1820 C1813 0.961 . S
H1821 C1813 0.960 . S
H1822 C1814 0.930 . S
H1823 C1815 0.929 . S
H1824 C1832 0.929 . S
H1825 C1834 0.930 . S
H1826 C1836 0.930 . S
H1827 C1839 0.929 . S
H1828 C1842 0.930 . S
H1829 C1844 0.960 . S
H1830 C1844 0.960 . S
H1831 C1844 0.960 . S
C1832 H1824 0.929 . S
C1832 C1833 1.377 1_655 S
C1832 C1834 1.384 . S
C1833 C1832 1.377 1_455 S
C1833 C1839 1.390 . S
C1834 H1825 0.930 . S
C1834 C1832 1.384 . S
C1834 C1835 1.372 1_655 S
C1835 C1834 1.372 1_455 S
C1835 C1836 1.400 . S
C1835 C1840 1.490 . S
C1836 H1826 0.930 . S
C1836 C1835 1.400 . S
C1836 C1839 1.386 . S
H1837 C1853 0.930 . S
H1838 C1854 0.931 . S
C1839 H1827 0.929 . S
C1839 C1833 1.390 . S
C1839 C1836 1.386 . S
C1840 C1835 1.490 . S
C1840 C1842 1.395 . S
C1840 C1843 1.403 . S
H1841 C1847 0.930 . S
C1842 H1828 0.930 . S
C1842 C1840 1.395 . S
C1842 C1845 1.403 . S
C1843 C1840 1.403 . S
C1843 C1844 1.524 . S
C1843 C1847 1.400 . S
C1844 H1829 0.960 . S
C1844 H1830 0.960 . S
C1844 H1831 0.960 . S
C1844 C1843 1.524 . S
C1845 C1842 1.403 . S
C1845 C1846 1.392 . S
C1845 C1849 1.495 . S
C1846 C1845 1.392 . S
C1846 C1847 1.385 . S
C1846 C1848 1.478 . S
C1847 H1841 0.930 . S
C1847 C1843 1.400 . S
C1847 C1846 1.385 . S
C1848 C1846 1.478 . S
C1848 C1850 1.381 . S
C1848 C1854 1.383 . S
C1849 C1845 1.495 . S
C1849 H1855 0.959 . S
C1849 H1856 0.961 . S
C1849 H1857 0.960 . S
C1850 C1848 1.381 . S
C1850 C1851 1.394 . S
C1850 H1858 0.930 . S
C1851 C1850 1.394 . S
C1851 C1852 1.383 . S
C1851 H1859 0.929 . S
C1852 C1851 1.383 . S
C1852 C1853 1.377 . S
C1853 H1837 0.930 . S
C1853 C1852 1.377 . S
C1853 C1854 1.379 . S
C1854 H1838 0.931 . S
C1854 C1848 1.383 . S
C1854 C1853 1.379 . S
H1855 C1849 0.959 . S
H1856 C1849 0.961 . S
H1857 C1849 0.960 . S
H1858 C1850 0.930 . S
H1859 C1851 0.929 . S
H1860 C1868 0.929 . S
H1861 C1870 0.930 . S
H1862 C1872 0.930 . S
H1863 C1875 0.929 . S
H1864 C1878 0.930 . S
H1865 C1880 0.960 . S
H1866 C1880 0.960 . S
H1867 C1880 0.960 . S
C1868 H1860 0.929 . S
C1868 C1869 1.377 . S
C1868 C1870 1.384 . S
C1869 C1868 1.377 . S
C1869 C1875 1.390 . S
C1870 H1861 0.930 . S
C1870 C1868 1.384 . S
C1870 C1871 1.372 . S
C1871 C1870 1.372 . S
C1871 C1872 1.400 . S
C1871 C1876 1.490 . S
C1872 H1862 0.930 . S
C1872 C1871 1.400 . S
C1872 C1875 1.386 . S
H1873 C1889 0.930 . S
H1874 C1890 0.931 . S
C1875 H1863 0.929 . S
C1875 C1869 1.390 . S
C1875 C1872 1.386 . S
C1876 C1871 1.490 . S
C1876 C1878 1.395 . S
C1876 C1879 1.403 . S
H1877 C1883 0.930 . S
C1878 H1864 0.930 . S
C1878 C1876 1.395 . S
C1878 C1881 1.403 . S
C1879 C1876 1.403 . S
C1879 C1880 1.524 . S
C1879 C1883 1.400 . S
C1880 H1865 0.960 . S
C1880 H1866 0.960 . S
C1880 H1867 0.960 . S
C1880 C1879 1.524 . S
C1881 C1878 1.403 . S
C1881 C1882 1.392 . S
C1881 C1885 1.495 . S
C1882 C1881 1.392 . S
C1882 C1883 1.385 . S
C1882 C1884 1.478 . S
C1883 H1877 0.930 . S
C1883 C1879 1.400 . S
C1883 C1882 1.385 . S
C1884 C1882 1.478 . S
C1884 C1886 1.381 . S
C1884 C1890 1.383 . S
C1885 C1881 1.495 . S
C1885 H1891 0.959 . S
C1885 H1892 0.961 . S
C1885 H1893 0.960 . S
C1886 C1884 1.381 . S
C1886 C1887 1.394 . S
C1886 H1894 0.930 . S
C1887 C1886 1.394 . S
C1887 C1888 1.383 . S
C1887 H1895 0.929 . S
C1888 C1887 1.383 . S
C1888 C1889 1.377 . S
C1889 H1873 0.930 . S
C1889 C1888 1.377 . S
C1889 C1890 1.379 . S
C1890 H1874 0.931 . S
C1890 C1884 1.383 . S
C1890 C1889 1.379 . S
H1891 C1885 0.959 . S
H1892 C1885 0.961 . S
H1893 C1885 0.960 . S
H1894 C1886 0.930 . S
H1895 C1887 0.929 . S
H1896 C1904 0.929 . S
H1897 C1906 0.930 . S
H1898 C1908 0.930 . S
H1899 C1911 0.929 . S
H1900 C1914 0.930 . S
H1901 C1916 0.960 . S
H1902 C1916 0.960 . S
H1903 C1916 0.960 . S
C1904 H1896 0.929 . S
C1904 C1905 1.377 . S
C1904 C1906 1.384 . S
C1905 C1904 1.377 . S
C1905 C1911 1.390 . S
C1906 H1897 0.930 . S
C1906 C1904 1.384 . S
C1906 C1907 1.372 . S
C1907 C1906 1.372 . S
C1907 C1908 1.400 . S
C1907 C1912 1.490 . S
C1908 H1898 0.930 . S
C1908 C1907 1.400 . S
C1908 C1911 1.386 . S
H1909 C1925 0.930 . S
H1910 C1926 0.931 . S
C1911 H1899 0.929 . S
C1911 C1905 1.390 . S
C1911 C1908 1.386 . S
C1912 C1907 1.490 . S
C1912 C1914 1.395 . S
C1912 C1915 1.403 . S
H1913 C1919 0.930 . S
C1914 H1900 0.930 . S
C1914 C1912 1.395 . S
C1914 C1917 1.403 . S
C1915 C1912 1.403 . S
C1915 C1916 1.524 . S
C1915 C1919 1.400 . S
C1916 H1901 0.960 . S
C1916 H1902 0.960 . S
C1916 H1903 0.960 . S
C1916 C1915 1.524 . S
C1917 C1914 1.403 . S
C1917 C1918 1.392 . S
C1917 C1921 1.495 . S
C1918 C1917 1.392 . S
C1918 C1919 1.385 . S
C1918 C1920 1.478 . S
C1919 H1913 0.930 . S
C1919 C1915 1.400 . S
C1919 C1918 1.385 . S
C1920 C1918 1.478 . S
C1920 C1922 1.381 . S
C1920 C1926 1.383 . S
C1921 C1917 1.495 . S
C1921 H1927 0.959 . S
C1921 H1928 0.961 . S
C1921 H1929 0.960 . S
C1922 C1920 1.381 . S
C1922 C1923 1.394 . S
C1922 H1930 0.930 . S
C1923 C1922 1.394 . S
C1923 C1924 1.383 . S
C1923 H1931 0.929 . S
C1924 C1923 1.383 . S
C1924 C1925 1.377 . S
C1925 H1909 0.930 . S
C1925 C1924 1.377 . S
C1925 C1926 1.379 . S
C1926 H1910 0.931 . S
C1926 C1920 1.383 . S
C1926 C1925 1.379 . S
H1927 C1921 0.959 . S
H1928 C1921 0.961 . S
H1929 C1921 0.960 . S
H1930 C1922 0.930 . S
H1931 C1923 0.929 . S
H1932 C1940 0.929 . S
H1933 C1942 0.930 . S
H1934 C1944 0.930 . S
H1935 C1947 0.929 . S
H1936 C1950 0.930 . S
H1937 C1952 0.960 . S
H1938 C1952 0.960 . S
H1939 C1952 0.960 . S
C1940 H1932 0.929 . S
C1940 C1941 1.377 . S
C1940 C1942 1.384 . S
C1941 C1940 1.377 . S
C1941 C1947 1.390 . S
C1942 H1933 0.930 . S
C1942 C1940 1.384 . S
C1942 C1943 1.372 . S
C1943 C1942 1.372 . S
C1943 C1944 1.400 . S
C1943 C1948 1.490 . S
C1944 H1934 0.930 . S
C1944 C1943 1.400 . S
C1944 C1947 1.386 . S
H1945 C1961 0.930 . S
H1946 C1962 0.931 . S
C1947 H1935 0.929 . S
C1947 C1941 1.390 . S
C1947 C1944 1.386 . S
C1948 C1943 1.490 . S
C1948 C1950 1.395 . S
C1948 C1951 1.403 . S
H1949 C1955 0.930 . S
C1950 H1936 0.930 . S
C1950 C1948 1.395 . S
C1950 C1953 1.403 . S
C1951 C1948 1.403 . S
C1951 C1952 1.524 . S
C1951 C1955 1.400 . S
C1952 H1937 0.960 . S
C1952 H1938 0.960 . S
C1952 H1939 0.960 . S
C1952 C1951 1.524 . S
C1953 C1950 1.403 . S
C1953 C1954 1.392 . S
C1953 C1957 1.495 . S
C1954 C1953 1.392 . S
C1954 C1955 1.385 . S
C1954 C1956 1.478 . S
C1955 H1949 0.930 . S
C1955 C1951 1.400 . S
C1955 C1954 1.385 . S
C1956 C1954 1.478 . S
C1956 C1958 1.381 . S
C1956 C1962 1.383 . S
C1957 C1953 1.495 . S
C1957 H1963 0.959 . S
C1957 H1964 0.961 . S
C1957 H1965 0.960 . S
C1958 C1956 1.381 . S
C1958 C1959 1.394 . S
C1958 H1966 0.930 . S
C1959 C1958 1.394 . S
C1959 C1960 1.383 . S
C1959 H1967 0.929 . S
C1960 C1959 1.383 . S
C1960 C1961 1.377 . S
C1961 H1945 0.930 . S
C1961 C1960 1.377 . S
C1961 C1962 1.379 . S
C1962 H1946 0.931 . S
C1962 C1956 1.383 . S
C1962 C1961 1.379 . S
H1963 C1957 0.959 . S
H1964 C1957 0.961 . S
H1965 C1957 0.960 . S
H1966 C1958 0.930 . S
H1967 C1959 0.929 . S
H1968 C1976 0.929 . S
H1969 C1978 0.930 . S
H1970 C1980 0.930 . S
H1971 C1983 0.929 . S
H1972 C1986 0.930 . S
H1973 C1988 0.960 . S
H1974 C1988 0.960 . S
H1975 C1988 0.960 . S
C1976 H1968 0.929 . S
C1976 C1977 1.377 . S
C1976 C1978 1.384 . S
C1977 C1976 1.377 . S
C1977 C1983 1.390 . S
C1978 H1969 0.930 . S
C1978 C1976 1.384 . S
C1978 C1979 1.372 . S
C1979 C1978 1.372 . S
C1979 C1980 1.400 . S
C1979 C1984 1.490 . S
C1980 H1970 0.930 . S
C1980 C1979 1.400 . S
C1980 C1983 1.386 . S
H1981 C1997 0.930 . S
H1982 C1998 0.931 . S
C1983 H1971 0.929 . S
C1983 C1977 1.390 . S
C1983 C1980 1.386 . S
C1984 C1979 1.490 . S
C1984 C1986 1.395 . S
C1984 C1987 1.403 1_655 S
H1985 C1991 0.930 . S
C1986 H1972 0.930 . S
C1986 C1984 1.395 . S
C1986 C1989 1.403 . S
C1987 C1984 1.403 1_455 S
C1987 C1988 1.524 . S
C1987 C1991 1.400 . S
C1988 H1973 0.960 . S
C1988 H1974 0.960 . S
C1988 H1975 0.960 . S
C1988 C1987 1.524 . S
C1989 C1986 1.403 . S
C1989 C1990 1.364 1_655 S
C1989 C1993 1.495 . S
C1990 C1989 1.364 1_455 S
C1990 C1991 1.396 . S
C1990 C1992 1.497 . S
C1991 H1985 0.930 . S
C1991 C1987 1.400 . S
C1991 C1990 1.396 . S
C1992 C1990 1.497 . S
C1992 C1994 1.381 . S
C1992 C1998 1.383 . S
C1993 C1989 1.495 . S
C1993 H1999 0.959 . S
C1993 H2000 0.961 . S
C1993 H2001 0.960 . S
C1994 C1992 1.381 . S
C1994 C1995 1.394 . S
C1994 H2002 0.930 . S
C1995 C1994 1.394 . S
C1995 C1996 1.383 . S
C1995 H2003 0.929 . S
C1996 C1995 1.383 . S
C1996 C1997 1.377 . S
C1997 H1981 0.930 . S
C1997 C1996 1.377 . S
C1997 C1998 1.379 . S
C1998 H1982 0.931 . S
C1998 C1992 1.383 . S
C1998 C1997 1.379 . S
H1999 C1993 0.959 . S
H2000 C1993 0.961 . S
H2001 C1993 0.960 . S
H2002 C1994 0.930 . S
H2003 C1995 0.929 . S
H2004 C2012 0.929 . S
H2005 C2014 0.930 . S
H2006 C2016 0.930 . S
H2007 C2019 0.929 . S
H2008 C2022 0.930 . S
H2009 C2024 0.960 . S
H2010 C2024 0.960 . S
H2011 C2024 0.960 . S
C2012 H2004 0.929 . S
C2012 C2013 1.377 . S
C2012 C2014 1.384 . S
C2013 C2012 1.377 . S
C2013 C2019 1.390 . S
C2014 H2005 0.930 . S
C2014 C2012 1.384 . S
C2014 C2015 1.372 . S
C2015 C2014 1.372 . S
C2015 C2016 1.400 . S
C2015 C2020 1.490 . S
C2016 H2006 0.930 . S
C2016 C2015 1.400 . S
C2016 C2019 1.386 . S
H2017 C2033 0.930 . S
H2018 C2034 0.931 . S
C2019 H2007 0.929 . S
C2019 C2013 1.390 . S
C2019 C2016 1.386 . S
C2020 C2015 1.490 . S
C2020 C2022 1.395 . S
C2020 C2023 1.403 . S
H2021 C2027 0.930 . S
C2022 H2008 0.930 . S
C2022 C2020 1.395 . S
C2022 C2025 1.403 . S
C2023 C2020 1.403 . S
C2023 C2024 1.524 . S
C2023 C2027 1.400 . S
C2024 H2009 0.960 . S
C2024 H2010 0.960 . S
C2024 H2011 0.960 . S
C2024 C2023 1.524 . S
C2025 C2022 1.403 . S
C2025 C2026 1.392 . S
C2025 C2029 1.495 . S
C2026 C2025 1.392 . S
C2026 C2027 1.385 . S
C2026 C2028 1.478 . S
C2027 H2021 0.930 . S
C2027 C2023 1.400 . S
C2027 C2026 1.385 . S
C2028 C2026 1.478 . S
C2028 C2030 1.381 . S
C2028 C2034 1.383 . S
C2029 C2025 1.495 . S
C2029 H2035 0.959 . S
C2029 H2036 0.961 . S
C2029 H2037 0.960 . S
C2030 C2028 1.381 . S
C2030 C2031 1.394 . S
C2030 H2038 0.930 . S
C2031 C2030 1.394 . S
C2031 C2032 1.383 . S
C2031 H2039 0.929 . S
C2032 C2031 1.383 . S
C2032 C2033 1.377 . S
C2033 H2017 0.930 . S
C2033 C2032 1.377 . S
C2033 C2034 1.379 . S
C2034 H2018 0.931 . S
C2034 C2028 1.383 . S
C2034 C2033 1.379 . S
H2035 C2029 0.959 . S
H2036 C2029 0.961 . S
H2037 C2029 0.960 . S
H2038 C2030 0.930 . S
H2039 C2031 0.929 . S
H2040 C2048 0.929 . S
H2041 C2050 0.930 . S
H2042 C2052 0.930 . S
H2043 C2055 0.929 . S
H2044 C2058 0.930 . S
H2045 C2060 0.960 . S
H2046 C2060 0.960 . S
H2047 C2060 0.960 . S
C2048 H2040 0.929 . S
C2048 C2049 1.377 . S
C2048 C2050 1.384 . S
C2049 C2048 1.377 . S
C2049 C2055 1.390 . S
C2050 H2041 0.930 . S
C2050 C2048 1.384 . S
C2050 C2051 1.372 . S
C2051 C2050 1.372 . S
C2051 C2052 1.400 . S
C2051 C2056 1.490 . S
C2052 H2042 0.930 . S
C2052 C2051 1.400 . S
C2052 C2055 1.386 . S
H2053 C2069 0.942 . S
H2054 C2070 0.931 . S
C2055 H2043 0.929 . S
C2055 C2049 1.390 . S
C2055 C2052 1.386 . S
C2056 C2051 1.490 . S
C2056 C2058 1.395 . S
C2056 C2059 1.403 . S
H2057 C2063 0.930 . S
C2058 H2044 0.930 . S
C2058 C2056 1.395 . S
C2058 C2061 1.403 . S
C2059 C2056 1.403 . S
C2059 C2060 1.524 . S
C2059 C2063 1.400 . S
C2060 H2045 0.960 . S
C2060 H2046 0.960 . S
C2060 H2047 0.960 . S
C2060 C2059 1.524 . S
C2061 C2058 1.403 . S
C2061 C2062 1.392 . S
C2061 C2065 1.495 . S
C2062 C2061 1.392 . S
C2062 C2063 1.385 . S
C2062 C2064 1.478 . S
C2063 H2057 0.930 . S
C2063 C2059 1.400 . S
C2063 C2062 1.385 . S
C2064 C2062 1.478 . S
C2064 C2066 1.381 . S
C2064 C2070 1.383 . S
C2065 C2061 1.495 . S
C2065 H2071 0.959 . S
C2065 H2072 0.961 . S
C2065 H2073 0.960 . S
C2066 C2064 1.381 . S
C2066 C2067 1.394 . S
C2066 H2074 0.930 . S
C2067 C2066 1.394 . S
C2067 C2068 1.383 . S
C2067 H2075 0.929 . S
C2068 C2067 1.383 . S
C2068 C2069 1.377 . S
C2069 H2053 0.942 . S
C2069 C2068 1.377 . S
C2069 C2070 1.379 . S
C2070 H2054 0.931 . S
C2070 C2064 1.383 . S
C2070 C2069 1.379 . S
H2071 C2065 0.959 . S
H2072 C2065 0.961 . S
H2073 C2065 0.960 . S
H2074 C2066 0.930 . S
H2075 C2067 0.929 . S
H2076 C2084 0.929 . S
H2077 C2086 0.930 . S
H2078 C2088 0.930 . S
H2079 C2091 0.929 . S
H2080 C2094 0.930 . S
H2081 C2096 0.960 . S
H2082 C2096 0.960 . S
H2083 C2096 0.960 . S
C2084 H2076 0.929 . S
C2084 C2085 1.377 . S
C2084 C2086 1.384 . S
C2085 C2084 1.377 . S
C2085 C2091 1.390 . S
C2086 H2077 0.930 . S
C2086 C2084 1.384 . S
C2086 C2087 1.372 . S
C2087 C2086 1.372 . S
C2087 C2088 1.400 . S
C2087 C2092 1.490 . S
C2088 H2078 0.930 . S
C2088 C2087 1.400 . S
C2088 C2091 1.386 . S
H2089 C2105 0.930 . S
H2090 C2106 0.931 . S
C2091 H2079 0.929 . S
C2091 C2085 1.390 . S
C2091 C2088 1.386 . S
C2092 C2087 1.490 . S
C2092 C2094 1.395 . S
C2092 C2095 1.403 . S
H2093 C2099 0.930 . S
C2094 H2080 0.930 . S
C2094 C2092 1.395 . S
C2094 C2097 1.403 . S
C2095 C2092 1.403 . S
C2095 C2096 1.524 . S
C2095 C2099 1.400 . S
C2096 H2081 0.960 . S
C2096 H2082 0.960 . S
C2096 H2083 0.960 . S
C2096 C2095 1.524 . S
C2097 C2094 1.403 . S
C2097 C2098 1.392 . S
C2097 C2101 1.495 . S
C2098 C2097 1.392 . S
C2098 C2099 1.385 . S
C2098 C2100 1.478 . S
C2099 H2093 0.930 . S
C2099 C2095 1.400 . S
C2099 C2098 1.385 . S
C2100 C2098 1.478 . S
C2100 C2102 1.381 . S
C2100 C2106 1.383 . S
C2101 C2097 1.495 . S
C2101 H2107 0.959 . S
C2101 H2108 0.961 . S
C2101 H2109 0.960 . S
C2102 C2100 1.381 . S
C2102 C2103 1.394 . S
C2102 H2110 0.930 . S
C2103 C2102 1.394 . S
C2103 C2104 1.383 . S
C2103 H2111 0.929 . S
C2104 C2103 1.383 . S
C2104 C2105 1.377 . S
C2105 H2089 0.930 . S
C2105 C2104 1.377 . S
C2105 C2106 1.379 . S
C2106 H2090 0.931 . S
C2106 C2100 1.383 . S
C2106 C2105 1.379 . S
H2107 C2101 0.959 . S
H2108 C2101 0.961 . S
H2109 C2101 0.960 . S
H2110 C2102 0.930 . S
H2111 C2103 0.929 . S
H2112 C2120 0.929 . S
H2113 C2122 0.930 . S
H2114 C2124 0.930 . S
H2115 C2127 0.929 . S
H2116 C2130 0.930 . S
H2117 C2132 0.960 . S
H2118 C2132 0.960 . S
H2119 C2132 0.960 . S
C2120 H2112 0.929 . S
C2120 C2121 1.377 . S
C2120 C2122 1.384 . S
C2121 C2120 1.377 . S
C2121 C2127 1.390 . S
C2122 H2113 0.930 . S
C2122 C2120 1.384 . S
C2122 C2123 1.372 . S
C2123 C2122 1.372 . S
C2123 C2124 1.400 . S
C2123 C2128 1.490 . S
C2124 H2114 0.930 . S
C2124 C2123 1.400 . S
C2124 C2127 1.386 . S
H2125 C2141 0.930 . S
H2126 C2142 0.931 . S
C2127 H2115 0.929 . S
C2127 C2121 1.390 . S
C2127 C2124 1.386 . S
C2128 C2123 1.490 . S
C2128 C2130 1.395 1_655 S
C2128 C2131 1.403 . S
H2129 C2135 0.930 . S
C2130 H2116 0.930 . S
C2130 C2128 1.395 1_455 S
C2130 C2133 1.403 . S
C2131 C2128 1.403 . S
C2131 C2132 1.524 . S
C2131 C2135 1.400 . S
C2132 H2117 0.960 . S
C2132 H2118 0.960 . S
C2132 H2119 0.960 . S
C2132 C2131 1.524 . S
C2133 C2130 1.403 . S
C2133 C2134 1.392 . S
C2133 C2137 1.495 . S
C2134 C2133 1.392 . S
C2134 C2135 1.385 1_455 S
C2134 C2136 1.478 . S
C2135 H2129 0.930 . S
C2135 C2131 1.400 . S
C2135 C2134 1.385 1_655 S
C2136 C2134 1.478 . S
C2136 C2138 1.381 . S
C2136 C2142 1.383 . S
C2137 C2133 1.495 . S
C2137 H2143 0.959 . S
C2137 H2144 0.961 . S
C2137 H2145 0.960 . S
C2138 C2136 1.381 . S
C2138 C2139 1.394 . S
C2138 H2146 0.930 . S
C2139 C2138 1.394 . S
C2139 C2140 1.383 . S
C2139 H2147 0.929 . S
C2140 C2139 1.383 . S
C2140 C2141 1.377 . S
C2141 H2125 0.930 . S
C2141 C2140 1.377 . S
C2141 C2142 1.379 . S
C2142 H2126 0.931 . S
C2142 C2136 1.383 . S
C2142 C2141 1.379 . S
H2143 C2137 0.959 . S
H2144 C2137 0.961 . S
H2145 C2137 0.960 . S
H2146 C2138 0.930 . S
H2147 C2139 0.929 . S
H2148 C2156 0.929 . S
H2149 C2158 0.930 . S
H2150 C2160 0.930 . S
H2151 C2163 0.929 . S
H2152 C2166 0.930 . S
H2153 C2168 0.960 . S
H2154 C2168 0.960 . S
H2155 C2168 0.960 . S
C2156 H2148 0.929 . S
C2156 C2157 1.377 . S
C2156 C2158 1.384 . S
C2157 C2156 1.377 . S
C2157 C2163 1.390 . S
C2158 H2149 0.930 . S
C2158 C2156 1.384 . S
C2158 C2159 1.372 . S
C2159 C2158 1.372 . S
C2159 C2160 1.400 . S
C2159 C2164 1.490 . S
C2160 H2150 0.930 . S
C2160 C2159 1.400 . S
C2160 C2163 1.386 . S
H2161 C2177 0.930 . S
H2162 C2178 0.931 . S
C2163 H2151 0.929 . S
C2163 C2157 1.390 . S
C2163 C2160 1.386 . S
C2164 C2159 1.490 . S
C2164 C2166 1.395 . S
C2164 C2167 1.403 . S
H2165 C2171 0.930 . S
C2166 H2152 0.930 . S
C2166 C2164 1.395 . S
C2166 C2169 1.403 . S
C2167 C2164 1.403 . S
C2167 C2168 1.524 . S
C2167 C2171 1.400 . S
C2168 H2153 0.960 . S
C2168 H2154 0.960 . S
C2168 H2155 0.960 . S
C2168 C2167 1.524 . S
C2169 C2166 1.403 . S
C2169 C2170 1.392 . S
C2169 C2173 1.495 . S
C2170 C2169 1.392 . S
C2170 C2171 1.385 . S
C2170 C2172 1.478 . S
C2171 H2165 0.930 . S
C2171 C2167 1.400 . S
C2171 C2170 1.385 . S
C2172 C2170 1.478 . S
C2172 C2174 1.381 . S
C2172 C2178 1.383 . S
C2173 C2169 1.495 . S
C2173 H2179 0.959 . S
C2173 H2180 0.961 . S
C2173 H2181 0.960 . S
C2174 C2172 1.381 . S
C2174 C2175 1.394 . S
C2174 H2182 0.930 . S
C2175 C2174 1.394 . S
C2175 C2176 1.383 . S
C2175 H2183 0.929 . S
C2176 C2175 1.383 . S
C2176 C2177 1.377 . S
C2177 H2161 0.930 . S
C2177 C2176 1.377 . S
C2177 C2178 1.379 . S
C2178 H2162 0.931 . S
C2178 C2172 1.383 . S
C2178 C2177 1.379 . S
H2179 C2173 0.959 . S
H2180 C2173 0.961 . S
H2181 C2173 0.960 . S
H2182 C2174 0.930 . S
H2183 C2175 0.929 . S
H2184 C2192 0.929 . S
H2185 C2194 0.930 . S
H2186 C2196 0.930 . S
H2187 C2199 0.929 . S
H2188 C2202 0.930 . S
H2189 C2204 0.986 . S
H2190 C2204 0.960 . S
H2191 C2204 0.960 . S
C2192 H2184 0.929 . S
C2192 C2193 1.377 . S
C2192 C2194 1.384 . S
C2193 C2192 1.377 . S
C2193 C2199 1.390 . S
C2194 H2185 0.930 . S
C2194 C2192 1.384 . S
C2194 C2195 1.372 . S
C2195 C2194 1.372 . S
C2195 C2196 1.400 . S
C2195 C2200 1.490 . S
C2196 H2186 0.930 . S
C2196 C2195 1.400 . S
C2196 C2199 1.386 . S
H2197 C2213 0.930 . S
H2198 C2214 0.931 . S
C2199 H2187 0.929 . S
C2199 C2193 1.390 . S
C2199 C2196 1.386 . S
C2200 C2195 1.490 . S
C2200 C2202 1.395 . S
C2200 C2203 1.403 . S
H2201 C2207 0.930 . S
C2202 H2188 0.930 . S
C2202 C2200 1.395 . S
C2202 C2205 1.403 . S
C2203 C2200 1.403 . S
C2203 C2204 1.524 . S
C2203 C2207 1.400 . S
C2204 H2189 0.986 . S
C2204 H2190 0.960 . S
C2204 H2191 0.960 . S
C2204 C2203 1.524 . S
C2205 C2202 1.403 . S
C2205 C2206 1.392 . S
C2205 C2209 1.495 . S
C2206 C2205 1.392 . S
C2206 C2207 1.385 . S
C2206 C2208 1.478 . S
C2207 H2201 0.930 . S
C2207 C2203 1.400 . S
C2207 C2206 1.385 . S
C2208 C2206 1.478 . S
C2208 C2210 1.381 . S
C2208 C2214 1.383 . S
C2209 C2205 1.495 . S
C2209 H2215 0.959 . S
C2209 H2216 0.961 . S
C2209 H2217 0.960 . S
C2210 C2208 1.381 . S
C2210 C2211 1.394 . S
C2210 H2218 0.930 . S
C2211 C2210 1.394 . S
C2211 C2212 1.383 . S
C2211 H2219 0.929 . S
C2212 C2211 1.383 . S
C2212 C2213 1.377 . S
C2213 H2197 0.930 . S
C2213 C2212 1.377 . S
C2213 C2214 1.379 . S
C2214 H2198 0.931 . S
C2214 C2208 1.383 . S
C2214 C2213 1.379 . S
H2215 C2209 0.959 . S
H2216 C2209 0.961 . S
H2217 C2209 0.960 . S
H2218 C2210 0.930 . S
H2219 C2211 0.929 . S
H2220 C2228 0.929 . S
H2221 C2230 0.930 . S
H2222 C2232 0.930 . S
H2223 C2235 0.929 . S
H2224 C2238 0.930 . S
H2225 C2240 0.960 . S
H2226 C2240 0.960 . S
H2227 C2240 0.960 . S
C2228 H2220 0.929 . S
C2228 C2229 1.377 . S
C2228 C2230 1.384 . S
C2229 C2228 1.377 . S
C2229 C2235 1.390 . S
C2230 H2221 0.930 . S
C2230 C2228 1.384 . S
C2230 C2231 1.372 . S
C2231 C2230 1.372 . S
C2231 C2232 1.400 . S
C2231 C2236 1.490 . S
C2232 H2222 0.930 . S
C2232 C2231 1.400 . S
C2232 C2235 1.386 . S
H2233 C2249 0.930 . S
H2234 C2250 0.931 . S
C2235 H2223 0.929 . S
C2235 C2229 1.390 . S
C2235 C2232 1.386 . S
C2236 C2231 1.490 . S
C2236 C2238 1.395 . S
C2236 C2239 1.403 . S
H2237 C2243 0.930 . S
C2238 H2224 0.930 . S
C2238 C2236 1.395 . S
C2238 C2241 1.403 . S
C2239 C2236 1.403 . S
C2239 C2240 1.524 . S
C2239 C2243 1.400 . S
C2240 H2225 0.960 . S
C2240 H2226 0.960 . S
C2240 H2227 0.960 . S
C2240 C2239 1.524 . S
C2241 C2238 1.403 . S
C2241 C2242 1.392 . S
C2241 C2245 1.495 . S
C2242 C2241 1.392 . S
C2242 C2243 1.385 . S
C2242 C2244 1.478 . S
C2243 H2237 0.930 . S
C2243 C2239 1.400 . S
C2243 C2242 1.385 . S
C2244 C2242 1.478 . S
C2244 C2246 1.381 . S
C2244 C2250 1.383 . S
C2245 C2241 1.495 . S
C2245 H2251 0.959 . S
C2245 H2252 0.961 . S
C2245 H2253 0.960 . S
C2246 C2244 1.381 . S
C2246 C2247 1.394 . S
C2246 H2254 0.930 . S
C2247 C2246 1.394 . S
C2247 C2248 1.383 . S
C2247 H2255 0.929 . S
C2248 C2247 1.383 . S
C2248 C2249 1.377 . S
C2249 H2233 0.930 . S
C2249 C2248 1.377 . S
C2249 C2250 1.379 . S
C2250 H2234 0.931 . S
C2250 C2244 1.383 . S
C2250 C2249 1.379 . S
H2251 C2245 0.959 . S
H2252 C2245 0.961 . S
H2253 C2245 0.960 . S
H2254 C2246 0.930 . S
H2255 C2247 0.929 . S
H2256 C2264 0.929 1_556 S
H2257 C2266 0.919 1_556 S
H2258 C2268 0.930 . S
H2259 C2271 0.929 . S
H2260 C2274 0.930 . S
H2261 C2276 0.905 1_545 S
H2262 C2276 0.983 1_556 S
H2263 C2276 0.967 1_545 S
C2264 H2256 0.929 1_554 S
C2264 C2265 1.377 . S
C2264 C2266 1.384 . S
C2265 C2264 1.377 . S
C2265 C2271 1.390 . S
C2266 H2257 0.919 1_554 S
C2266 C2264 1.384 . S
C2266 C2267 1.372 . S
C2267 C2266 1.372 . S
C2267 C2268 1.400 . S
C2267 C2272 1.490 . S
C2268 H2258 0.930 . S
C2268 C2267 1.400 . S
C2268 C2271 1.386 . S
H2269 C2285 0.930 . S
H2270 C2286 0.931 . S
C2271 H2259 0.929 . S
C2271 C2265 1.390 . S
C2271 C2268 1.386 . S
C2272 C2267 1.490 . S
C2272 C2274 1.395 . S
C2272 C2275 1.403 . S
H2273 C2279 0.930 1_545 S
C2274 H2260 0.930 . S
C2274 C2272 1.395 . S
C2274 C2277 1.403 . S
C2275 C2272 1.403 . S
C2275 C2276 1.553 . S
C2275 C2279 1.400 . S
C2276 H2261 0.905 1_565 S
C2276 H2262 0.983 1_554 S
C2276 H2263 0.967 1_565 S
C2276 C2275 1.553 . S
C2277 C2274 1.403 . S
C2277 C2278 1.392 . S
C2277 C2281 1.495 . S
C2278 C2277 1.392 . S
C2278 C2279 1.385 . S
C2278 C2280 1.478 . S
C2279 H2273 0.930 1_565 S
C2279 C2275 1.400 . S
C2279 C2278 1.385 . S
C2280 C2278 1.478 . S
C2280 C2282 1.381 . S
C2280 C2286 1.383 1_565 S
C2281 C2277 1.495 . S
C2281 H2287 0.959 . S
C2281 H2288 0.961 . S
C2281 H2289 0.960 . S
C2282 C2280 1.381 . S
C2282 C2283 1.394 . S
C2282 H2290 0.930 . S
C2283 C2282 1.394 . S
C2283 C2284 1.383 1_565 S
C2283 H2291 0.929 . S
C2284 C2283 1.383 1_545 S
C2284 C2285 1.377 . S
C2285 H2269 0.930 . S
C2285 C2284 1.377 . S
C2285 C2286 1.379 . S
C2286 H2270 0.931 . S
C2286 C2280 1.383 1_545 S
C2286 C2285 1.379 . S
H2287 C2281 0.959 . S
H2288 C2281 0.961 . S
H2289 C2281 0.960 . S
H2290 C2282 0.930 . S
H2291 C2283 0.929 . S
H2292 C2300 0.929 . S
H2293 C2302 0.930 . S
H2294 C2304 0.930 . S
H2295 C2307 0.929 . S
H2296 C2310 0.930 . S
H2297 C2312 0.960 . S
H2298 C2312 0.960 . S
H2299 C2312 0.960 1_554 S
C2300 H2292 0.929 . S
C2300 C2301 1.377 . S
C2300 C2302 1.384 . S
C2301 C2300 1.377 . S
C2301 C2307 1.390 1_556 S
C2302 H2293 0.930 . S
C2302 C2300 1.384 . S
C2302 C2303 1.372 . S
C2303 C2302 1.372 . S
C2303 C2304 1.400 1_556 S
C2303 C2308 1.490 . S
C2304 H2294 0.930 . S
C2304 C2303 1.400 1_554 S
C2304 C2307 1.386 . S
H2305 C2321 0.930 . S
H2306 C2322 0.931 . S
C2307 H2295 0.929 . S
C2307 C2301 1.390 1_554 S
C2307 C2304 1.386 . S
C2308 C2303 1.490 . S
C2308 C2310 1.390 1_556 S
C2308 C2311 1.403 . S
H2309 C2315 0.930 . S
C2310 H2296 0.930 . S
C2310 C2308 1.390 1_554 S
C2310 C2313 1.408 . S
C2311 C2308 1.403 . S
C2311 C2312 1.524 . S
C2311 C2315 1.404 . S
C2312 H2297 0.960 . S
C2312 H2298 0.960 . S
C2312 H2299 0.960 1_556 S
C2312 C2311 1.524 . S
C2313 C2310 1.408 . S
C2313 C2314 1.392 . S
C2313 C2317 1.495 . S
C2314 C2313 1.392 . S
C2314 C2315 1.381 1_554 S
C2314 C2316 1.478 . S
C2315 H2309 0.930 . S
C2315 C2311 1.404 . S
C2315 C2314 1.381 1_556 S
C2316 C2314 1.478 . S
C2316 C2318 1.381 1_554 S
C2316 C2322 1.383 . S
C2317 C2313 1.495 . S
C2317 H2323 0.959 . S
C2317 H2324 0.961 . S
C2317 H2325 0.960 1_554 S
C2318 C2316 1.381 1_556 S
C2318 C2319 1.394 . S
C2318 H2326 0.930 . S
C2319 C2318 1.394 . S
C2319 C2320 1.383 1_556 S
C2319 H2327 0.929 . S
C2320 C2319 1.383 1_554 S
C2320 C2321 1.377 . S
C2321 H2305 0.930 . S
C2321 C2320 1.377 . S
C2321 C2322 1.379 . S
C2322 H2306 0.931 . S
C2322 C2316 1.383 . S
C2322 C2321 1.379 . S
H2323 C2317 0.959 . S
H2324 C2317 0.961 . S
H2325 C2317 0.960 1_556 S
H2326 C2318 0.930 . S
H2327 C2319 0.929 . S
H2328 C2336 0.929 . S
H2329 C2338 0.930 . S
H2330 C2340 0.930 . S
H2331 C2343 0.929 . S
H2332 C2346 0.930 . S
H2333 C2348 0.960 . S
H2334 C2348 0.960 . S
H2335 C2348 0.960 . S
C2336 H2328 0.929 . S
C2336 C2337 1.377 . S
C2336 C2338 1.384 . S
C2337 C2336 1.377 . S
C2337 C2343 1.390 . S
C2338 H2329 0.930 . S
C2338 C2336 1.384 . S
C2338 C2339 1.372 . S
C2339 C2338 1.372 . S
C2339 C2340 1.400 . S
C2339 C2344 1.490 . S
C2340 H2330 0.930 . S
C2340 C2339 1.400 . S
C2340 C2343 1.386 . S
H2341 C2357 0.930 . S
H2342 C2358 0.931 . S
C2343 H2331 0.929 . S
C2343 C2337 1.390 . S
C2343 C2340 1.386 . S
C2344 C2339 1.490 . S
C2344 C2346 1.395 . S
C2344 C2347 1.403 . S
H2345 C2351 0.930 . S
C2346 H2332 0.930 . S
C2346 C2344 1.395 . S
C2346 C2349 1.403 . S
C2347 C2344 1.403 . S
C2347 C2348 1.524 . S
C2347 C2351 1.400 . S
C2348 H2333 0.960 . S
C2348 H2334 0.960 . S
C2348 H2335 0.960 . S
C2348 C2347 1.524 . S
C2349 C2346 1.403 . S
C2349 C2350 1.392 . S
C2349 C2353 1.495 . S
C2350 C2349 1.392 . S
C2350 C2351 1.385 . S
C2350 C2352 1.478 . S
C2351 H2345 0.930 . S
C2351 C2347 1.400 . S
C2351 C2350 1.385 . S
C2352 C2350 1.478 . S
C2352 C2354 1.381 . S
C2352 C2358 1.383 . S
C2353 C2349 1.495 . S
C2353 H2359 0.959 . S
C2353 H2360 0.961 . S
C2353 H2361 0.960 . S
C2354 C2352 1.381 . S
C2354 C2355 1.394 . S
C2354 H2362 0.930 . S
C2355 C2354 1.394 . S
C2355 C2356 1.383 . S
C2355 H2363 0.929 . S
C2356 C2355 1.383 . S
C2356 C2357 1.377 . S
C2357 H2341 0.930 . S
C2357 C2356 1.377 . S
C2357 C2358 1.379 . S
C2358 H2342 0.931 . S
C2358 C2352 1.383 . S
C2358 C2357 1.379 . S
H2359 C2353 0.959 . S
H2360 C2353 0.961 . S
H2361 C2353 0.960 . S
H2362 C2354 0.930 . S
H2363 C2355 0.929 . S
H2364 C2372 0.929 . S
H2365 C2374 0.930 . S
H2366 C2376 0.930 . S
H2367 C2379 0.929 . S
H2368 C2382 0.930 . S
H2369 C2384 0.960 . S
H2370 C2384 0.960 . S
H2371 C2384 0.960 . S
C2372 H2364 0.929 . S
C2372 C2373 1.377 . S
C2372 C2374 1.384 . S
C2373 C2372 1.377 . S
C2373 C2379 1.390 . S
C2374 H2365 0.930 . S
C2374 C2372 1.384 . S
C2374 C2375 1.372 . S
C2375 C2374 1.372 . S
C2375 C2376 1.400 . S
C2375 C2380 1.490 . S
C2376 H2366 0.930 . S
C2376 C2375 1.400 . S
C2376 C2379 1.386 . S
H2377 C2393 0.930 . S
H2378 C2394 0.931 . S
C2379 H2367 0.929 . S
C2379 C2373 1.390 . S
C2379 C2376 1.386 . S
C2380 C2375 1.490 . S
C2380 C2382 1.395 . S
C2380 C2383 1.403 . S
H2381 C2387 0.930 . S
C2382 H2368 0.930 . S
C2382 C2380 1.395 . S
C2382 C2385 1.403 . S
C2383 C2380 1.403 . S
C2383 C2384 1.524 . S
C2383 C2387 1.400 . S
C2384 H2369 0.960 . S
C2384 H2370 0.960 . S
C2384 H2371 0.960 . S
C2384 C2383 1.524 . S
C2385 C2382 1.403 . S
C2385 C2386 1.392 . S
C2385 C2389 1.495 . S
C2386 C2385 1.392 . S
C2386 C2387 1.385 . S
C2386 C2388 1.478 . S
C2387 H2381 0.930 . S
C2387 C2383 1.400 . S
C2387 C2386 1.385 . S
C2388 C2386 1.478 . S
C2388 C2390 1.381 . S
C2388 C2394 1.383 . S
C2389 C2385 1.495 . S
C2389 H2395 0.959 . S
C2389 H2396 0.961 . S
C2389 H2397 0.960 . S
C2390 C2388 1.381 . S
C2390 C2391 1.403 . S
C2390 H2398 0.930 . S
C2391 C2390 1.403 . S
C2391 C2392 1.376 1_655 S
C2391 H2399 0.929 1_655 S
C2392 C2391 1.376 1_455 S
C2392 C2393 1.377 . S
C2393 H2377 0.930 . S
C2393 C2392 1.377 . S
C2393 C2394 1.379 1_455 S
C2394 H2378 0.931 . S
C2394 C2388 1.383 . S
C2394 C2393 1.379 1_655 S
H2395 C2389 0.959 . S
H2396 C2389 0.961 . S
H2397 C2389 0.960 . S
H2398 C2390 0.930 . S
H2399 C2391 0.929 1_455 S
H2400 C2408 0.929 . S
H2401 C2410 0.930 . S
H2402 C2412 0.930 . S
H2403 C2415 0.929 . S
H2404 C2418 0.930 . S
H2405 C2420 0.960 . S
H2406 C2420 0.960 . S
H2407 C2420 0.960 . S
C2408 H2400 0.929 . S
C2408 C2409 1.377 . S
C2408 C2410 1.384 . S
C2409 C2408 1.377 . S
C2409 C2415 1.390 . S
C2410 H2401 0.930 . S
C2410 C2408 1.384 . S
C2410 C2411 1.372 . S
C2411 C2410 1.372 . S
C2411 C2412 1.400 . S
C2411 C2416 1.490 . S
C2412 H2402 0.930 . S
C2412 C2411 1.400 . S
C2412 C2415 1.386 . S
H2413 C2429 0.930 . S
H2414 C2430 0.931 . S
C2415 H2403 0.929 . S
C2415 C2409 1.390 . S
C2415 C2412 1.386 . S
C2416 C2411 1.490 . S
C2416 C2418 1.395 . S
C2416 C2419 1.403 . S
H2417 C2423 0.930 . S
C2418 H2404 0.930 . S
C2418 C2416 1.395 . S
C2418 C2421 1.403 . S
C2419 C2416 1.403 . S
C2419 C2420 1.524 . S
C2419 C2423 1.400 . S
C2420 H2405 0.960 . S
C2420 H2406 0.960 . S
C2420 H2407 0.960 . S
C2420 C2419 1.524 . S
C2421 C2418 1.403 . S
C2421 C2422 1.392 . S
C2421 C2425 1.495 . S
C2422 C2421 1.392 . S
C2422 C2423 1.385 . S
C2422 C2424 1.478 . S
C2423 H2417 0.930 . S
C2423 C2419 1.400 . S
C2423 C2422 1.385 . S
C2424 C2422 1.478 . S
C2424 C2426 1.381 . S
C2424 C2430 1.383 . S
C2425 C2421 1.495 . S
C2425 H2431 0.959 . S
C2425 H2432 0.961 . S
C2425 H2433 0.960 . S
C2426 C2424 1.381 . S
C2426 C2427 1.394 . S
C2426 H2434 0.930 . S
C2427 C2426 1.394 . S
C2427 C2428 1.383 . S
C2427 H2435 0.929 . S
C2428 C2427 1.383 . S
C2428 C2429 1.377 . S
C2429 H2413 0.930 . S
C2429 C2428 1.377 . S
C2429 C2430 1.379 . S
C2430 H2414 0.931 . S
C2430 C2424 1.383 . S
C2430 C2429 1.379 . S
H2431 C2425 0.959 . S
H2432 C2425 0.961 . S
H2433 C2425 0.960 . S
H2434 C2426 0.930 . S
H2435 C2427 0.929 . S
H2436 C2444 0.929 . S
H2437 C2446 0.930 . S
H2438 C2448 0.930 . S
H2439 C2451 0.929 . S
H2440 C2454 0.930 . S
H2441 C2456 0.960 . S
H2442 C2456 0.960 . S
H2443 C2456 0.960 . S
C2444 H2436 0.929 . S
C2444 C2445 1.377 . S
C2444 C2446 1.384 . S
C2445 C2444 1.377 . S
C2445 C2451 1.390 . S
C2446 H2437 0.930 . S
C2446 C2444 1.384 . S
C2446 C2447 1.372 . S
C2447 C2446 1.372 . S
C2447 C2448 1.400 . S
C2447 C2452 1.490 . S
C2448 H2438 0.930 . S
C2448 C2447 1.400 . S
C2448 C2451 1.386 . S
H2449 C2465 0.930 . S
H2450 C2466 0.931 . S
C2451 H2439 0.929 . S
C2451 C2445 1.390 . S
C2451 C2448 1.386 . S
C2452 C2447 1.490 . S
C2452 C2454 1.395 . S
C2452 C2455 1.403 . S
H2453 C2459 0.930 . S
C2454 H2440 0.930 . S
C2454 C2452 1.395 . S
C2454 C2457 1.403 . S
C2455 C2452 1.403 . S
C2455 C2456 1.524 . S
C2455 C2459 1.400 . S
C2456 H2441 0.960 . S
C2456 H2442 0.960 . S
C2456 H2443 0.960 . S
C2456 C2455 1.524 . S
C2457 C2454 1.403 . S
C2457 C2458 1.392 . S
C2457 C2461 1.495 . S
C2458 C2457 1.392 . S
C2458 C2459 1.385 . S
C2458 C2460 1.478 . S
C2459 H2453 0.930 . S
C2459 C2455 1.400 . S
C2459 C2458 1.385 . S
C2460 C2458 1.478 . S
C2460 C2462 1.381 . S
C2460 C2466 1.383 . S
C2461 C2457 1.495 . S
C2461 H2467 0.959 . S
C2461 H2468 0.961 . S
C2461 H2469 0.960 . S
C2462 C2460 1.381 . S
C2462 C2463 1.394 . S
C2462 H2470 0.930 . S
C2463 C2462 1.394 . S
C2463 C2464 1.383 . S
C2463 H2471 0.929 . S
C2464 C2463 1.383 . S
C2464 C2465 1.377 . S
C2465 H2449 0.930 . S
C2465 C2464 1.377 . S
C2465 C2466 1.379 . S
C2466 H2450 0.931 . S
C2466 C2460 1.383 . S
C2466 C2465 1.379 . S
H2467 C2461 0.959 . S
H2468 C2461 0.961 . S
H2469 C2461 0.960 . S
H2470 C2462 0.930 . S
H2471 C2463 0.929 . S
H2472 C2480 0.929 . S
H2473 C2482 0.930 . S
H2474 C2484 0.930 . S
H2475 C2487 0.929 . S
H2476 C2490 0.930 . S
H2477 C2492 0.960 . S
H2478 C2492 0.960 . S
H2479 C2492 0.960 . S
C2480 H2472 0.929 . S
C2480 C2481 1.377 . S
C2480 C2482 1.384 . S
C2481 C2480 1.377 . S
C2481 C2487 1.390 . S
C2482 H2473 0.930 . S
C2482 C2480 1.384 . S
C2482 C2483 1.372 . S
C2483 C2482 1.372 . S
C2483 C2484 1.400 . S
C2483 C2488 1.490 . S
C2484 H2474 0.930 . S
C2484 C2483 1.400 . S
C2484 C2487 1.386 . S
H2485 C2501 0.930 . S
H2486 C2502 0.931 . S
C2487 H2475 0.929 . S
C2487 C2481 1.390 . S
C2487 C2484 1.386 . S
C2488 C2483 1.490 . S
C2488 C2490 1.395 . S
C2488 C2491 1.403 . S
H2489 C2495 0.930 . S
C2490 H2476 0.930 . S
C2490 C2488 1.395 . S
C2490 C2493 1.403 . S
C2491 C2488 1.403 . S
C2491 C2492 1.524 . S
C2491 C2495 1.400 . S
C2492 H2477 0.960 . S
C2492 H2478 0.960 . S
C2492 H2479 0.960 . S
C2492 C2491 1.524 . S
C2493 C2490 1.403 . S
C2493 C2494 1.392 . S
C2493 C2497 1.495 . S
C2494 C2493 1.392 . S
C2494 C2495 1.385 . S
C2494 C2496 1.478 . S
C2495 H2489 0.930 . S
C2495 C2491 1.400 . S
C2495 C2494 1.385 . S
C2496 C2494 1.478 . S
C2496 C2498 1.381 . S
C2496 C2502 1.383 . S
C2497 C2493 1.495 . S
C2497 H2503 0.959 . S
C2497 H2504 0.961 . S
C2497 H2505 0.960 . S
C2498 C2496 1.381 . S
C2498 C2499 1.394 . S
C2498 H2506 0.930 . S
C2499 C2498 1.394 . S
C2499 C2500 1.383 . S
C2499 H2507 0.929 . S
C2500 C2499 1.383 . S
C2500 C2501 1.377 . S
C2501 H2485 0.930 . S
C2501 C2500 1.377 . S
C2501 C2502 1.379 . S
C2502 H2486 0.931 . S
C2502 C2496 1.383 . S
C2502 C2501 1.379 . S
H2503 C2497 0.959 . S
H2504 C2497 0.961 . S
H2505 C2497 0.960 . S
H2506 C2498 0.930 . S
H2507 C2499 0.929 . S
H2508 C2516 0.929 . S
H2509 C2518 0.930 . S
H2510 C2520 0.930 . S
H2511 C2523 0.929 . S
H2512 C2526 0.930 . S
H2513 C2528 0.960 . S
H2514 C2528 0.960 . S
H2515 C2528 0.960 . S
C2516 H2508 0.929 . S
C2516 C2517 1.377 . S
C2516 C2518 1.384 . S
C2517 C2516 1.377 . S
C2517 C2523 1.390 . S
C2518 H2509 0.930 . S
C2518 C2516 1.384 . S
C2518 C2519 1.372 . S
C2519 C2518 1.372 . S
C2519 C2520 1.400 . S
C2519 C2524 1.490 . S
C2520 H2510 0.930 . S
C2520 C2519 1.400 . S
C2520 C2523 1.386 . S
H2521 C2537 0.930 . S
H2522 C2538 0.931 . S
C2523 H2511 0.929 . S
C2523 C2517 1.390 . S
C2523 C2520 1.386 . S
C2524 C2519 1.490 . S
C2524 C2526 1.395 . S
C2524 C2527 1.403 . S
H2525 C2531 0.930 . S
C2526 H2512 0.930 . S
C2526 C2524 1.395 . S
C2526 C2529 1.403 . S
C2527 C2524 1.403 . S
C2527 C2528 1.524 . S
C2527 C2531 1.400 . S
C2528 H2513 0.960 . S
C2528 H2514 0.960 . S
C2528 H2515 0.960 . S
C2528 C2527 1.524 . S
C2529 C2526 1.403 . S
C2529 C2530 1.392 . S
C2529 C2533 1.495 . S
C2530 C2529 1.392 . S
C2530 C2531 1.385 . S
C2530 C2532 1.478 . S
C2531 H2525 0.930 . S
C2531 C2527 1.400 . S
C2531 C2530 1.385 . S
C2532 C2530 1.478 . S
C2532 C2534 1.381 . S
C2532 C2538 1.383 . S
C2533 C2529 1.495 . S
C2533 H2539 0.959 . S
C2533 H2540 0.961 . S
C2533 H2541 0.960 . S
C2534 C2532 1.381 . S
C2534 C2535 1.394 . S
C2534 H2542 0.930 . S
C2535 C2534 1.394 . S
C2535 C2536 1.383 . S
C2535 H2543 0.929 . S
C2536 C2535 1.383 . S
C2536 C2537 1.377 . S
C2537 H2521 0.930 . S
C2537 C2536 1.377 . S
C2537 C2538 1.379 . S
C2538 H2522 0.931 . S
C2538 C2532 1.383 . S
C2538 C2537 1.379 . S
H2539 C2533 0.959 . S
H2540 C2533 0.961 . S
H2541 C2533 0.960 . S
H2542 C2534 0.930 . S
H2543 C2535 0.929 . S
H2544 C2552 0.929 . S
H2545 C2554 0.930 . S
H2546 C2556 0.930 . S
H2547 C2559 0.929 . S
H2548 C2562 0.930 . S
H2549 C2564 0.960 . S
H2550 C2564 0.960 . S
H2551 C2564 0.960 . S
C2552 H2544 0.929 . S
C2552 C2553 1.377 . S
C2552 C2554 1.384 . S
C2553 C2552 1.377 . S
C2553 C2559 1.390 . S
C2554 H2545 0.930 . S
C2554 C2552 1.384 . S
C2554 C2555 1.372 . S
C2555 C2554 1.372 . S
C2555 C2556 1.400 . S
C2555 C2560 1.490 . S
C2556 H2546 0.930 . S
C2556 C2555 1.400 . S
C2556 C2559 1.386 . S
H2557 C2573 0.930 . S
H2558 C2574 0.931 . S
C2559 H2547 0.929 . S
C2559 C2553 1.390 . S
C2559 C2556 1.386 . S
C2560 C2555 1.490 . S
C2560 C2562 1.395 . S
C2560 C2563 1.403 . S
H2561 C2567 0.930 . S
C2562 H2548 0.930 . S
C2562 C2560 1.395 . S
C2562 C2565 1.403 . S
C2563 C2560 1.403 . S
C2563 C2564 1.524 . S
C2563 C2567 1.400 . S
C2564 H2549 0.960 . S
C2564 H2550 0.960 . S
C2564 H2551 0.960 . S
C2564 C2563 1.524 . S
C2565 C2562 1.403 . S
C2565 C2566 1.392 . S
C2565 C2569 1.495 . S
C2566 C2565 1.392 . S
C2566 C2567 1.385 . S
C2566 C2568 1.478 . S
C2567 H2561 0.930 . S
C2567 C2563 1.400 . S
C2567 C2566 1.385 . S
C2568 C2566 1.478 . S
C2568 C2570 1.381 . S
C2568 C2574 1.383 . S
C2569 C2565 1.495 . S
C2569 H2575 0.959 . S
C2569 H2576 0.961 . S
C2569 H2577 0.960 . S
C2570 C2568 1.381 . S
C2570 C2571 1.394 . S
C2570 H2578 0.930 . S
C2571 C2570 1.394 . S
C2571 C2572 1.383 . S
C2571 H2579 0.929 . S
C2572 C2571 1.383 . S
C2572 C2573 1.377 . S
C2573 H2557 0.930 . S
C2573 C2572 1.377 . S
C2573 C2574 1.379 . S
C2574 H2558 0.931 . S
C2574 C2568 1.383 . S
C2574 C2573 1.379 . S
H2575 C2569 0.959 . S
H2576 C2569 0.961 . S
H2577 C2569 0.960 . S
H2578 C2570 0.930 . S
H2579 C2571 0.929 . S
H2580 C2588 0.929 . S
H2581 C2590 0.930 . S
H2582 C2592 0.930 . S
H2583 C2595 0.929 . S
H2584 C2598 0.930 . S
H2585 C2600 0.960 . S
H2586 C2600 0.960 . S
H2587 C2600 0.960 . S
C2588 H2580 0.929 . S
C2588 C2589 1.377 . S
C2588 C2590 1.384 . S
C2589 C2588 1.377 . S
C2589 C2595 1.390 . S
C2590 H2581 0.930 . S
C2590 C2588 1.384 . S
C2590 C2591 1.372 . S
C2591 C2590 1.372 . S
C2591 C2592 1.400 . S
C2591 C2596 1.490 . S
C2592 H2582 0.930 . S
C2592 C2591 1.400 . S
C2592 C2595 1.386 . S
H2593 C2609 0.930 . S
H2594 C2610 0.931 . S
C2595 H2583 0.929 . S
C2595 C2589 1.390 . S
C2595 C2592 1.386 . S
C2596 C2591 1.490 . S
C2596 C2598 1.395 . S
C2596 C2599 1.403 . S
H2597 C2603 0.930 . S
C2598 H2584 0.930 . S
C2598 C2596 1.395 . S
C2598 C2601 1.403 . S
C2599 C2596 1.403 . S
C2599 C2600 1.524 . S
C2599 C2603 1.400 . S
C2600 H2585 0.960 . S
C2600 H2586 0.960 . S
C2600 H2587 0.960 . S
C2600 C2599 1.524 . S
C2601 C2598 1.403 . S
C2601 C2602 1.392 . S
C2601 C2605 1.495 . S
C2602 C2601 1.392 . S
C2602 C2603 1.385 . S
C2602 C2604 1.478 . S
C2603 H2597 0.930 . S
C2603 C2599 1.400 . S
C2603 C2602 1.385 . S
C2604 C2602 1.478 . S
C2604 C2606 1.381 . S
C2604 C2610 1.383 . S
C2605 C2601 1.495 . S
C2605 H2611 0.959 . S
C2605 H2612 0.961 . S
C2605 H2613 0.960 . S
C2606 C2604 1.381 . S
C2606 C2607 1.394 . S
C2606 H2614 0.930 . S
C2607 C2606 1.394 . S
C2607 C2608 1.383 . S
C2607 H2615 0.929 . S
C2608 C2607 1.383 . S
C2608 C2609 1.377 . S
C2609 H2593 0.930 . S
C2609 C2608 1.377 . S
C2609 C2610 1.379 . S
C2610 H2594 0.931 . S
C2610 C2604 1.383 . S
C2610 C2609 1.379 . S
H2611 C2605 0.959 . S
H2612 C2605 0.961 . S
H2613 C2605 0.960 . S
H2614 C2606 0.930 . S
H2615 C2607 0.929 . S
H2616 C2624 0.929 . S
H2617 C2626 0.930 . S
H2618 C2628 0.930 . S
H2619 C2631 0.929 . S
H2620 C2634 0.930 . S
H2621 C2636 0.960 . S
H2622 C2636 0.960 . S
H2623 C2636 0.960 . S
C2624 H2616 0.929 . S
C2624 C2625 1.377 . S
C2624 C2626 1.384 . S
C2625 C2624 1.377 . S
C2625 C2631 1.390 . S
C2626 H2617 0.930 . S
C2626 C2624 1.384 . S
C2626 C2627 1.372 . S
C2627 C2626 1.372 . S
C2627 C2628 1.400 . S
C2627 C2632 1.490 . S
C2628 H2618 0.930 . S
C2628 C2627 1.400 . S
C2628 C2631 1.386 . S
H2629 C2645 0.930 . S
H2630 C2646 0.931 . S
C2631 H2619 0.929 . S
C2631 C2625 1.390 . S
C2631 C2628 1.386 . S
C2632 C2627 1.490 . S
C2632 C2634 1.395 . S
C2632 C2635 1.403 . S
H2633 C2639 0.930 . S
C2634 H2620 0.930 . S
C2634 C2632 1.395 . S
C2634 C2637 1.403 . S
C2635 C2632 1.403 . S
C2635 C2636 1.524 . S
C2635 C2639 1.400 . S
C2636 H2621 0.960 . S
C2636 H2622 0.960 . S
C2636 H2623 0.960 . S
C2636 C2635 1.524 . S
C2637 C2634 1.403 . S
C2637 C2638 1.392 . S
C2637 C2641 1.495 . S
C2638 C2637 1.392 . S
C2638 C2639 1.385 . S
C2638 C2640 1.478 . S
C2639 H2633 0.930 . S
C2639 C2635 1.400 . S
C2639 C2638 1.385 . S
C2640 C2638 1.478 . S
C2640 C2642 1.381 . S
C2640 C2646 1.383 . S
C2641 C2637 1.495 . S
C2641 H2647 0.959 . S
C2641 H2648 0.961 . S
C2641 H2649 0.960 . S
C2642 C2640 1.381 . S
C2642 C2643 1.394 . S
C2642 H2650 0.930 . S
C2643 C2642 1.394 . S
C2643 C2644 1.383 . S
C2643 H2651 0.929 . S
C2644 C2643 1.383 . S
C2644 C2645 1.377 . S
C2645 H2629 0.930 . S
C2645 C2644 1.377 . S
C2645 C2646 1.379 . S
C2646 H2630 0.931 . S
C2646 C2640 1.383 . S
C2646 C2645 1.379 . S
H2647 C2641 0.959 . S
H2648 C2641 0.961 . S
H2649 C2641 0.960 . S
H2650 C2642 0.930 . S
H2651 C2643 0.929 . S
H2652 C2660 0.929 . S
H2653 C2662 0.930 . S
H2654 C2664 0.930 . S
H2655 C2667 0.929 . S
H2656 C2670 0.930 . S
H2657 C2672 0.960 . S
H2658 C2672 0.960 . S
H2659 C2672 0.960 . S
C2660 H2652 0.929 . S
C2660 C2661 1.377 . S
C2660 C2662 1.384 . S
C2661 C2660 1.377 . S
C2661 C2667 1.390 . S
C2662 H2653 0.930 . S
C2662 C2660 1.384 . S
C2662 C2663 1.372 . S
C2663 C2662 1.372 . S
C2663 C2664 1.400 . S
C2663 C2668 1.490 . S
C2664 H2654 0.930 . S
C2664 C2663 1.400 . S
C2664 C2667 1.386 . S
H2665 C2681 0.930 . S
H2666 C2682 0.931 . S
C2667 H2655 0.929 . S
C2667 C2661 1.390 . S
C2667 C2664 1.386 . S
C2668 C2663 1.490 . S
C2668 C2670 1.395 . S
C2668 C2671 1.403 . S
H2669 C2675 0.930 . S
C2670 H2656 0.930 . S
C2670 C2668 1.395 . S
C2670 C2673 1.403 . S
C2671 C2668 1.403 . S
C2671 C2672 1.524 . S
C2671 C2675 1.400 . S
C2672 H2657 0.960 . S
C2672 H2658 0.960 . S
C2672 H2659 0.960 . S
C2672 C2671 1.524 . S
C2673 C2670 1.403 . S
C2673 C2674 1.392 . S
C2673 C2677 1.495 . S
C2674 C2673 1.392 . S
C2674 C2675 1.385 . S
C2674 C2676 1.478 . S
C2675 H2669 0.930 . S
C2675 C2671 1.400 . S
C2675 C2674 1.385 . S
C2676 C2674 1.478 . S
C2676 C2678 1.381 . S
C2676 C2682 1.383 . S
C2677 C2673 1.495 . S
C2677 H2683 0.959 . S
C2677 H2684 0.961 . S
C2677 H2685 0.960 . S
C2678 C2676 1.381 . S
C2678 C2679 1.394 . S
C2678 H2686 0.930 . S
C2679 C2678 1.394 . S
C2679 C2680 1.383 . S
C2679 H2687 0.929 . S
C2680 C2679 1.383 . S
C2680 C2681 1.377 . S
C2681 H2665 0.930 . S
C2681 C2680 1.377 . S
C2681 C2682 1.379 . S
C2682 H2666 0.931 . S
C2682 C2676 1.383 . S
C2682 C2681 1.379 . S
H2683 C2677 0.959 . S
H2684 C2677 0.961 . S
H2685 C2677 0.960 . S
H2686 C2678 0.930 . S
H2687 C2679 0.929 . S
H2688 C2696 0.929 . S
H2689 C2698 0.930 . S
H2690 C2700 0.930 . S
H2691 C2703 0.929 . S
H2692 C2706 0.930 . S
H2693 C2708 0.960 . S
H2694 C2708 0.960 . S
H2695 C2708 0.960 . S
C2696 H2688 0.929 . S
C2696 C2697 1.377 . S
C2696 C2698 1.384 . S
C2697 C2696 1.377 . S
C2697 C2703 1.390 . S
C2698 H2689 0.930 . S
C2698 C2696 1.384 . S
C2698 C2699 1.372 . S
C2699 C2698 1.372 . S
C2699 C2700 1.400 . S
C2699 C2704 1.490 . S
C2700 H2690 0.930 . S
C2700 C2699 1.400 . S
C2700 C2703 1.386 . S
H2701 C2717 0.930 . S
H2702 C2718 0.931 . S
C2703 H2691 0.929 . S
C2703 C2697 1.390 . S
C2703 C2700 1.386 . S
C2704 C2699 1.490 . S
C2704 C2706 1.395 . S
C2704 C2707 1.403 . S
H2705 C2711 0.930 . S
C2706 H2692 0.930 . S
C2706 C2704 1.395 . S
C2706 C2709 1.403 . S
C2707 C2704 1.403 . S
C2707 C2708 1.524 . S
C2707 C2711 1.400 . S
C2708 H2693 0.960 . S
C2708 H2694 0.960 . S
C2708 H2695 0.960 . S
C2708 C2707 1.524 . S
C2709 C2706 1.403 . S
C2709 C2710 1.392 . S
C2709 C2713 1.495 . S
C2710 C2709 1.392 . S
C2710 C2711 1.385 . S
C2710 C2712 1.478 . S
C2711 H2705 0.930 . S
C2711 C2707 1.400 . S
C2711 C2710 1.385 . S
C2712 C2710 1.478 . S
C2712 C2714 1.381 . S
C2712 C2718 1.383 . S
C2713 C2709 1.495 . S
C2713 H2719 0.959 . S
C2713 H2720 0.961 . S
C2713 H2721 0.960 . S
C2714 C2712 1.381 . S
C2714 C2715 1.394 . S
C2714 H2722 0.930 . S
C2715 C2714 1.394 . S
C2715 C2716 1.383 . S
C2715 H2723 0.929 . S
C2716 C2715 1.383 . S
C2716 C2717 1.377 . S
C2717 H2701 0.930 . S
C2717 C2716 1.377 . S
C2717 C2718 1.379 . S
C2718 H2702 0.931 . S
C2718 C2712 1.383 . S
C2718 C2717 1.379 . S
H2719 C2713 0.959 . S
H2720 C2713 0.961 . S
H2721 C2713 0.960 . S
H2722 C2714 0.930 . S
H2723 C2715 0.929 . S
H2724 C2732 0.929 . S
H2725 C2734 0.930 . S
H2726 C2736 0.930 . S
H2727 C2739 0.929 . S
H2728 C2742 0.930 . S
H2729 C2744 0.960 . S
H2730 C2744 0.960 . S
H2731 C2744 0.960 . S
C2732 H2724 0.929 . S
C2732 C2733 1.377 . S
C2732 C2734 1.384 . S
C2733 C2732 1.377 . S
C2733 C2739 1.390 . S
C2734 H2725 0.930 . S
C2734 C2732 1.384 . S
C2734 C2735 1.372 . S
C2735 C2734 1.372 . S
C2735 C2736 1.400 . S
C2735 C2740 1.490 . S
C2736 H2726 0.930 . S
C2736 C2735 1.400 . S
C2736 C2739 1.386 . S
H2737 C2753 0.930 . S
H2738 C2754 0.931 . S
C2739 H2727 0.929 . S
C2739 C2733 1.390 . S
C2739 C2736 1.386 . S
C2740 C2735 1.490 . S
C2740 C2742 1.395 . S
C2740 C2743 1.403 . S
H2741 C2747 0.930 . S
C2742 H2728 0.930 . S
C2742 C2740 1.395 . S
C2742 C2745 1.403 . S
C2743 C2740 1.403 . S
C2743 C2744 1.524 . S
C2743 C2747 1.400 . S
C2744 H2729 0.960 . S
C2744 H2730 0.960 . S
C2744 H2731 0.960 . S
C2744 C2743 1.524 . S
C2745 C2742 1.403 . S
C2745 C2746 1.392 . S
C2745 C2749 1.495 . S
C2746 C2745 1.392 . S
C2746 C2747 1.385 . S
C2746 C2748 1.478 . S
C2747 H2741 0.930 . S
C2747 C2743 1.400 . S
C2747 C2746 1.385 . S
C2748 C2746 1.478 . S
C2748 C2750 1.381 . S
C2748 C2754 1.383 . S
C2749 C2745 1.495 . S
C2749 H2755 0.959 . S
C2749 H2756 0.961 . S
C2749 H2757 0.960 . S
C2750 C2748 1.381 . S
C2750 C2751 1.394 . S
C2750 H2758 0.930 . S
C2751 C2750 1.394 . S
C2751 C2752 1.383 . S
C2751 H2759 0.929 . S
C2752 C2751 1.383 . S
C2752 C2753 1.377 . S
C2753 H2737 0.930 . S
C2753 C2752 1.377 . S
C2753 C2754 1.379 . S
C2754 H2738 0.931 . S
C2754 C2748 1.383 . S
C2754 C2753 1.379 . S
H2755 C2749 0.959 . S
H2756 C2749 0.961 . S
H2757 C2749 0.960 . S
H2758 C2750 0.930 . S
H2759 C2751 0.929 . S
H2760 C2768 0.929 . S
H2761 C2770 0.930 . S
H2762 C2772 0.930 . S
H2763 C2775 0.929 . S
H2764 C2778 0.930 . S
H2765 C2780 0.960 . S
H2766 C2780 0.960 . S
H2767 C2780 0.960 . S
C2768 H2760 0.929 . S
C2768 C2769 1.377 . S
C2768 C2770 1.384 . S
C2769 C2768 1.377 . S
C2769 C2775 1.390 . S
C2770 H2761 0.930 . S
C2770 C2768 1.384 . S
C2770 C2771 1.372 . S
C2771 C2770 1.372 . S
C2771 C2772 1.400 . S
C2771 C2776 1.490 . S
C2772 H2762 0.930 . S
C2772 C2771 1.400 . S
C2772 C2775 1.386 . S
H2773 C2789 0.943 . S
H2774 C2790 0.931 . S
C2775 H2763 0.929 . S
C2775 C2769 1.390 . S
C2775 C2772 1.386 . S
C2776 C2771 1.490 . S
C2776 C2778 1.395 . S
C2776 C2779 1.403 . S
H2777 C2783 0.930 . S
C2778 H2764 0.930 . S
C2778 C2776 1.395 . S
C2778 C2781 1.403 . S
C2779 C2776 1.403 . S
C2779 C2780 1.524 . S
C2779 C2783 1.400 . S
C2780 H2765 0.960 . S
C2780 H2766 0.960 . S
C2780 H2767 0.960 . S
C2780 C2779 1.524 . S
C2781 C2778 1.403 . S
C2781 C2782 1.392 . S
C2781 C2785 1.495 . S
C2782 C2781 1.392 . S
C2782 C2783 1.385 . S
C2782 C2784 1.478 . S
C2783 H2777 0.930 . S
C2783 C2779 1.400 . S
C2783 C2782 1.385 . S
C2784 C2782 1.478 . S
C2784 C2786 1.381 . S
C2784 C2790 1.383 . S
C2785 C2781 1.495 . S
C2785 H2791 0.959 . S
C2785 H2792 0.961 . S
C2785 H2793 0.960 . S
C2786 C2784 1.381 . S
C2786 C2787 1.395 . S
C2786 H2794 0.930 . S
C2787 C2786 1.395 . S
C2787 C2788 1.384 . S
C2787 H2795 0.928 1_565 S
C2788 C2787 1.384 . S
C2788 C2789 1.371 1_556 S
C2789 H2773 0.943 . S
C2789 C2788 1.371 1_554 S
C2789 C2790 1.373 1_554 S
C2790 H2774 0.931 . S
C2790 C2784 1.383 . S
C2790 C2789 1.373 1_556 S
H2791 C2785 0.959 . S
H2792 C2785 0.961 . S
H2793 C2785 0.960 . S
H2794 C2786 0.930 . S
H2795 C2787 0.928 1_545 S
H2796 C2804 0.929 . S
H2797 C2806 0.930 . S
H2798 C2808 0.930 . S
H2799 C2811 0.929 . S
H2800 C2814 0.930 . S
H2801 C2816 0.960 . S
H2802 C2816 0.960 . S
H2803 C2816 0.960 . S
C2804 H2796 0.929 . S
C2804 C2805 1.377 . S
C2804 C2806 1.384 . S
C2805 C2804 1.377 . S
C2805 C2811 1.390 . S
C2806 H2797 0.930 . S
C2806 C2804 1.384 . S
C2806 C2807 1.372 . S
C2807 C2806 1.372 . S
C2807 C2808 1.400 . S
C2807 C2812 1.490 . S
C2808 H2798 0.930 . S
C2808 C2807 1.400 . S
C2808 C2811 1.386 . S
H2809 C2825 0.930 . S
H2810 C2826 0.931 . S
C2811 H2799 0.929 . S
C2811 C2805 1.390 . S
C2811 C2808 1.386 . S
C2812 C2807 1.490 . S
C2812 C2814 1.395 . S
C2812 C2815 1.403 . S
H2813 C2819 0.930 . S
C2814 H2800 0.930 . S
C2814 C2812 1.395 . S
C2814 C2817 1.403 . S
C2815 C2812 1.403 . S
C2815 C2816 1.524 . S
C2815 C2819 1.400 . S
C2816 H2801 0.960 . S
C2816 H2802 0.960 . S
C2816 H2803 0.960 . S
C2816 C2815 1.524 . S
C2817 C2814 1.403 . S
C2817 C2818 1.392 . S
C2817 C2821 1.495 . S
C2818 C2817 1.392 . S
C2818 C2819 1.385 . S
C2818 C2820 1.478 . S
C2819 H2813 0.930 . S
C2819 C2815 1.400 . S
C2819 C2818 1.385 . S
C2820 C2818 1.478 . S
C2820 C2822 1.381 . S
C2820 C2826 1.383 . S
C2821 C2817 1.495 . S
C2821 H2827 0.959 . S
C2821 H2828 0.961 . S
C2821 H2829 0.960 . S
C2822 C2820 1.381 . S
C2822 C2823 1.394 . S
C2822 H2830 0.930 . S
C2823 C2822 1.394 . S
C2823 C2824 1.383 . S
C2823 H2831 0.929 . S
C2824 C2823 1.383 . S
C2824 C2825 1.377 . S
C2825 H2809 0.930 . S
C2825 C2824 1.377 . S
C2825 C2826 1.379 . S
C2826 H2810 0.931 . S
C2826 C2820 1.383 . S
C2826 C2825 1.379 . S
H2827 C2821 0.959 . S
H2828 C2821 0.961 . S
H2829 C2821 0.960 . S
H2830 C2822 0.930 . S
H2831 C2823 0.929 . S
H2832 C2840 0.929 . S
H2833 C2842 0.925 1_565 S
H2834 C2844 0.930 . S
H2835 C2847 0.929 . S
H2836 C2850 0.930 . S
H2837 C2852 0.960 . S
H2838 C2852 0.960 . S
H2839 C2852 0.960 . S
C2840 H2832 0.929 . S
C2840 C2841 1.377 1_565 S
C2840 C2842 1.384 1_565 S
C2841 C2840 1.377 1_545 S
C2841 C2847 1.390 . S
C2842 H2833 0.925 1_545 S
C2842 C2840 1.384 1_545 S
C2842 C2843 1.377 . S
C2843 C2842 1.377 . S
C2843 C2844 1.400 . S
C2843 C2848 1.490 . S
C2844 H2834 0.930 . S
C2844 C2843 1.400 . S
C2844 C2847 1.386 . S
H2845 C2861 0.930 . S
H2846 C2862 0.931 . S
C2847 H2835 0.929 . S
C2847 C2841 1.390 . S
C2847 C2844 1.386 . S
C2848 C2843 1.490 . S
C2848 C2850 1.395 . S
C2848 C2851 1.403 1_545 S
H2849 C2855 0.930 1_565 S
C2850 H2836 0.930 . S
C2850 C2848 1.395 . S
C2850 C2853 1.403 . S
C2851 C2848 1.403 1_565 S
C2851 C2852 1.524 . S
C2851 C2855 1.400 1_565 S
C2852 H2837 0.960 . S
C2852 H2838 0.960 . S
C2852 H2839 0.960 . S
C2852 C2851 1.524 . S
C2853 C2850 1.403 . S
C2853 C2854 1.392 . S
C2853 C2857 1.495 . S
C2854 C2853 1.392 . S
C2854 C2855 1.385 . S
C2854 C2856 1.478 . S
C2855 H2849 0.930 1_545 S
C2855 C2851 1.400 1_545 S
C2855 C2854 1.385 . S
C2856 C2854 1.478 . S
C2856 C2858 1.381 . S
C2856 C2862 1.383 . S
C2857 C2853 1.495 . S
C2857 H2863 0.959 . S
C2857 H2864 0.961 . S
C2857 H2865 0.960 . S
C2858 C2856 1.381 . S
C2858 C2859 1.394 . S
C2858 H2866 0.930 . S
C2859 C2858 1.394 . S
C2859 C2860 1.383 . S
C2859 H2867 0.929 . S
C2860 C2859 1.383 . S
C2860 C2861 1.377 . S
C2861 H2845 0.930 . S
C2861 C2860 1.377 . S
C2861 C2862 1.379 . S
C2862 H2846 0.931 . S
C2862 C2856 1.383 . S
C2862 C2861 1.379 . S
H2863 C2857 0.959 . S
H2864 C2857 0.961 . S
H2865 C2857 0.960 . S
H2866 C2858 0.930 . S
H2867 C2859 0.929 . S
H2868 C2876 0.929 . S
H2869 C2878 0.930 . S
H2870 C2880 0.930 . S
H2871 C2883 0.929 . S
H2872 C2886 0.930 . S
H2873 C2888 0.960 . S
H2874 C2888 0.960 . S
H2875 C2888 0.960 . S
C2876 H2868 0.929 . S
C2876 C2877 1.377 . S
C2876 C2878 1.384 . S
C2877 C2876 1.377 . S
C2877 C2883 1.390 . S
C2878 H2869 0.930 . S
C2878 C2876 1.384 . S
C2878 C2879 1.372 . S
C2879 C2878 1.372 . S
C2879 C2880 1.400 . S
C2879 C2884 1.490 . S
C2880 H2870 0.930 . S
C2880 C2879 1.400 . S
C2880 C2883 1.386 . S
H2881 C2897 0.930 . S
H2882 C2898 0.931 . S
C2883 H2871 0.929 . S
C2883 C2877 1.390 . S
C2883 C2880 1.386 . S
C2884 C2879 1.490 . S
C2884 C2886 1.395 . S
C2884 C2887 1.403 . S
H2885 C2891 0.930 . S
C2886 H2872 0.930 . S
C2886 C2884 1.395 . S
C2886 C2889 1.403 . S
C2887 C2884 1.403 . S
C2887 C2888 1.524 . S
C2887 C2891 1.400 . S
C2888 H2873 0.960 . S
C2888 H2874 0.960 . S
C2888 H2875 0.960 . S
C2888 C2887 1.524 . S
C2889 C2886 1.403 . S
C2889 C2890 1.392 . S
C2889 C2893 1.495 . S
C2890 C2889 1.392 . S
C2890 C2891 1.385 . S
C2890 C2892 1.478 . S
C2891 H2885 0.930 . S
C2891 C2887 1.400 . S
C2891 C2890 1.385 . S
C2892 C2890 1.478 . S
C2892 C2894 1.381 . S
C2892 C2898 1.383 . S
C2893 C2889 1.495 . S
C2893 H2899 0.959 . S
C2893 H2900 0.961 . S
C2893 H2901 0.960 . S
C2894 C2892 1.381 . S
C2894 C2895 1.394 . S
C2894 H2902 0.930 . S
C2895 C2894 1.394 . S
C2895 C2896 1.383 . S
C2895 H2903 0.929 . S
C2896 C2895 1.383 . S
C2896 C2897 1.377 . S
C2897 H2881 0.930 . S
C2897 C2896 1.377 . S
C2897 C2898 1.379 . S
C2898 H2882 0.931 . S
C2898 C2892 1.383 . S
C2898 C2897 1.379 . S
H2899 C2893 0.959 . S
H2900 C2893 0.961 . S
H2901 C2893 0.960 . S
H2902 C2894 0.930 . S
H2903 C2895 0.929 . S
H2904 C2912 0.929 . S
H2905 C2914 0.930 . S
H2906 C2916 0.930 . S
H2907 C2919 0.929 . S
H2908 C2922 0.930 . S
H2909 C2924 0.960 . S
H2910 C2924 0.954 1_565 S
H2911 C2924 0.960 . S
C2912 H2904 0.929 . S
C2912 C2913 1.377 . S
C2912 C2914 1.384 . S
C2913 C2912 1.377 . S
C2913 C2919 1.390 . S
C2914 H2905 0.930 . S
C2914 C2912 1.384 . S
C2914 C2915 1.372 . S
C2915 C2914 1.372 . S
C2915 C2916 1.400 . S
C2915 C2920 1.490 . S
C2916 H2906 0.930 . S
C2916 C2915 1.400 . S
C2916 C2919 1.386 . S
H2917 C2933 0.930 . S
H2918 C2934 0.931 . S
C2919 H2907 0.929 . S
C2919 C2913 1.390 . S
C2919 C2916 1.386 . S
C2920 C2915 1.490 . S
C2920 C2922 1.395 . S
C2920 C2923 1.403 . S
H2921 C2927 0.930 . S
C2922 H2908 0.930 . S
C2922 C2920 1.395 . S
C2922 C2925 1.403 . S
C2923 C2920 1.403 . S
C2923 C2924 1.524 . S
C2923 C2927 1.400 . S
C2924 H2909 0.960 . S
C2924 H2910 0.954 1_545 S
C2924 H2911 0.960 . S
C2924 C2923 1.524 . S
C2925 C2922 1.403 . S
C2925 C2926 1.392 . S
C2925 C2929 1.495 . S
C2926 C2925 1.392 . S
C2926 C2927 1.385 . S
C2926 C2928 1.478 . S
C2927 H2921 0.930 . S
C2927 C2923 1.400 . S
C2927 C2926 1.385 . S
C2928 C2926 1.478 . S
C2928 C2930 1.381 . S
C2928 C2934 1.383 . S
C2929 C2925 1.495 . S
C2929 H2935 0.959 . S
C2929 H2936 0.961 . S
C2929 H2937 0.960 . S
C2930 C2928 1.381 . S
C2930 C2931 1.394 . S
C2930 H2938 0.930 . S
C2931 C2930 1.394 . S
C2931 C2932 1.383 . S
C2931 H2939 0.929 . S
C2932 C2931 1.383 . S
C2932 C2933 1.377 . S
C2933 H2917 0.930 . S
C2933 C2932 1.377 . S
C2933 C2934 1.379 . S
C2934 H2918 0.931 . S
C2934 C2928 1.383 . S
C2934 C2933 1.379 . S
H2935 C2929 0.959 . S
H2936 C2929 0.961 . S
H2937 C2929 0.960 . S
H2938 C2930 0.930 . S
H2939 C2931 0.929 . S
H2940 C2948 0.929 . S
H2941 C2950 0.930 . S
H2942 C2952 0.930 . S
H2943 C2955 0.929 . S
H2944 C2958 0.930 . S
H2945 C2960 0.960 . S
H2946 C2960 0.960 . S
H2947 C2960 0.960 . S
C2948 H2940 0.929 . S
C2948 C2949 1.377 . S
C2948 C2950 1.384 . S
C2949 C2948 1.377 . S
C2949 C2955 1.390 . S
C2950 H2941 0.930 . S
C2950 C2948 1.384 . S
C2950 C2951 1.372 . S
C2951 C2950 1.372 . S
C2951 C2952 1.400 . S
C2951 C2956 1.490 . S
C2952 H2942 0.930 . S
C2952 C2951 1.400 . S
C2952 C2955 1.386 . S
H2953 C2969 0.930 . S
H2954 C2970 0.931 . S
C2955 H2943 0.929 . S
C2955 C2949 1.390 . S
C2955 C2952 1.386 . S
C2956 C2951 1.490 . S
C2956 C2958 1.395 . S
C2956 C2959 1.403 . S
H2957 C2963 0.930 . S
C2958 H2944 0.930 . S
C2958 C2956 1.395 . S
C2958 C2961 1.403 . S
C2959 C2956 1.403 . S
C2959 C2960 1.524 . S
C2959 C2963 1.400 . S
C2960 H2945 0.960 . S
C2960 H2946 0.960 . S
C2960 H2947 0.960 . S
C2960 C2959 1.524 . S
C2961 C2958 1.403 . S
C2961 C2962 1.392 . S
C2961 C2965 1.495 . S
C2962 C2961 1.392 . S
C2962 C2963 1.385 . S
C2962 C2964 1.478 . S
C2963 H2957 0.930 . S
C2963 C2959 1.400 . S
C2963 C2962 1.385 . S
C2964 C2962 1.478 . S
C2964 C2966 1.381 . S
C2964 C2970 1.383 . S
C2965 C2961 1.495 . S
C2965 H2971 0.959 . S
C2965 H2972 0.961 . S
C2965 H2973 0.960 . S
C2966 C2964 1.381 . S
C2966 C2967 1.394 . S
C2966 H2974 0.930 . S
C2967 C2966 1.394 . S
C2967 C2968 1.383 . S
C2967 H2975 0.929 . S
C2968 C2967 1.383 . S
C2968 C2969 1.377 . S
C2969 H2953 0.930 . S
C2969 C2968 1.377 . S
C2969 C2970 1.379 . S
C2970 H2954 0.931 . S
C2970 C2964 1.383 . S
C2970 C2969 1.379 . S
H2971 C2965 0.959 . S
H2972 C2965 0.961 . S
H2973 C2965 0.960 . S
H2974 C2966 0.930 . S
H2975 C2967 0.929 . S
H2976 C2984 0.929 . S
H2977 C2986 0.930 . S
H2978 C2988 0.930 . S
H2979 C2991 0.929 . S
H2980 C2994 0.930 . S
H2981 C2996 0.960 . S
H2982 C2996 0.960 . S
H2983 C2996 0.960 . S
C2984 H2976 0.929 . S
C2984 C2985 1.377 . S
C2984 C2986 1.384 . S
C2985 C2984 1.377 . S
C2985 C2991 1.390 1_565 S
C2986 H2977 0.930 . S
C2986 C2984 1.384 . S
C2986 C2987 1.372 1_565 S
C2987 C2986 1.372 1_545 S
C2987 C2988 1.400 . S
C2987 C2992 1.490 . S
C2988 H2978 0.930 . S
C2988 C2987 1.400 . S
C2988 C2991 1.386 . S
H2989 C3005 0.930 . S
H2990 C3006 0.931 . S
C2991 H2979 0.929 . S
C2991 C2985 1.390 1_545 S
C2991 C2988 1.386 . S
C2992 C2987 1.490 . S
C2992 C2994 1.395 . S
C2992 C2995 1.404 . S
H2993 C2999 0.936 . S
C2994 H2980 0.930 . S
C2994 C2992 1.395 . S
C2994 C2997 1.403 . S
C2995 C2992 1.404 . S
C2995 C2996 1.520 1_545 S
C2995 C2999 1.403 . S
C2996 H2981 0.960 . S
C2996 H2982 0.960 . S
C2996 H2983 0.960 . S
C2996 C2995 1.520 1_565 S
C2997 C2994 1.403 . S
C2997 C2998 1.392 . S
C2997 C3001 1.495 . S
C2998 C2997 1.392 . S
C2998 C2999 1.385 . S
C2998 C3000 1.478 . S
C2999 H2993 0.936 . S
C2999 C2995 1.403 . S
C2999 C2998 1.385 . S
C3000 C2998 1.478 . S
C3000 C3002 1.381 . S
C3000 C3006 1.383 . S
C3001 C2997 1.495 . S
C3001 H3007 0.959 . S
C3001 H3008 0.961 . S
C3001 H3009 0.960 . S
C3002 C3000 1.381 . S
C3002 C3003 1.394 . S
C3002 H3010 0.930 . S
C3003 C3002 1.394 . S
C3003 C3004 1.383 . S
C3003 H3011 0.929 . S
C3004 C3003 1.383 . S
C3004 C3005 1.377 . S
C3005 H2989 0.930 . S
C3005 C3004 1.377 . S
C3005 C3006 1.379 . S
C3006 H2990 0.931 . S
C3006 C3000 1.383 . S
C3006 C3005 1.379 . S
H3007 C3001 0.959 . S
H3008 C3001 0.961 . S
H3009 C3001 0.960 . S
H3010 C3002 0.930 . S
H3011 C3003 0.929 . S
H3012 C3020 0.929 . S
H3013 C3022 0.930 . S
H3014 C3024 0.930 . S
H3015 C3027 0.929 . S
H3016 C3030 0.930 . S
H3017 C3032 0.960 . S
H3018 C3032 0.960 . S
H3019 C3032 0.960 . S
C3020 H3012 0.929 . S
C3020 C3021 1.377 . S
C3020 C3022 1.384 . S
C3021 C3020 1.377 . S
C3021 C3027 1.390 . S
C3022 H3013 0.930 . S
C3022 C3020 1.384 . S
C3022 C3023 1.372 . S
C3023 C3022 1.372 . S
C3023 C3024 1.400 . S
C3023 C3028 1.490 . S
C3024 H3014 0.930 . S
C3024 C3023 1.400 . S
C3024 C3027 1.386 . S
H3025 C3041 0.930 . S
H3026 C3042 0.931 . S
C3027 H3015 0.929 . S
C3027 C3021 1.390 . S
C3027 C3024 1.386 . S
C3028 C3023 1.490 . S
C3028 C3030 1.395 . S
C3028 C3031 1.403 . S
H3029 C3035 0.930 . S
C3030 H3016 0.930 . S
C3030 C3028 1.395 . S
C3030 C3033 1.403 . S
C3031 C3028 1.403 . S
C3031 C3032 1.524 . S
C3031 C3035 1.400 . S
C3032 H3017 0.960 . S
C3032 H3018 0.960 . S
C3032 H3019 0.960 . S
C3032 C3031 1.524 . S
C3033 C3030 1.403 . S
C3033 C3034 1.392 . S
C3033 C3037 1.495 . S
C3034 C3033 1.392 . S
C3034 C3035 1.385 . S
C3034 C3036 1.478 . S
C3035 H3029 0.930 . S
C3035 C3031 1.400 . S
C3035 C3034 1.385 . S
C3036 C3034 1.478 . S
C3036 C3038 1.381 . S
C3036 C3042 1.383 . S
C3037 C3033 1.495 . S
C3037 H3043 0.959 . S
C3037 H3044 0.961 . S
C3037 H3045 0.960 . S
C3038 C3036 1.381 . S
C3038 C3039 1.394 . S
C3038 H3046 0.930 . S
C3039 C3038 1.394 . S
C3039 C3040 1.383 . S
C3039 H3047 0.929 . S
C3040 C3039 1.383 . S
C3040 C3041 1.377 . S
C3041 H3025 0.930 . S
C3041 C3040 1.377 . S
C3041 C3042 1.379 . S
C3042 H3026 0.931 . S
C3042 C3036 1.383 . S
C3042 C3041 1.379 . S
H3043 C3037 0.959 . S
H3044 C3037 0.961 . S
H3045 C3037 0.960 . S
H3046 C3038 0.930 . S
H3047 C3039 0.929 . S
H3048 C3056 0.929 . S
H3049 C3058 0.930 . S
H3050 C3060 0.881 1_565 S
H3051 C3063 0.929 1_565 S
H3052 C3066 0.930 . S
H3053 C3068 0.973 . S
H3054 C3068 0.937 1_545 S
H3055 C3068 0.989 . S
C3056 H3048 0.929 . S
C3056 C3057 1.377 . S
C3056 C3058 1.384 . S
C3057 C3056 1.377 . S
C3057 C3063 1.390 . S
C3058 H3049 0.930 . S
C3058 C3056 1.384 . S
C3058 C3059 1.372 . S
C3059 C3058 1.372 . S
C3059 C3060 1.400 . S
C3059 C3064 1.490 . S
C3060 H3050 0.881 1_545 S
C3060 C3059 1.400 . S
C3060 C3063 1.386 . S
H3061 C3077 0.930 . S
H3062 C3078 0.931 . S
C3063 H3051 0.929 1_545 S
C3063 C3057 1.390 . S
C3063 C3060 1.386 . S
C3064 C3059 1.490 . S
C3064 C3066 1.395 . S
C3064 C3067 1.403 . S
H3065 C3071 0.930 . S
C3066 H3052 0.930 . S
C3066 C3064 1.395 . S
C3066 C3069 1.403 . S
C3067 C3064 1.403 . S
C3067 C3068 1.506 1_545 S
C3067 C3071 1.400 . S
C3068 H3053 0.973 . S
C3068 H3054 0.937 1_565 S
C3068 H3055 0.989 . S
C3068 C3067 1.506 1_565 S
C3069 C3066 1.403 . S
C3069 C3070 1.392 . S
C3069 C3073 1.495 . S
C3070 C3069 1.392 . S
C3070 C3071 1.385 . S
C3070 C3072 1.478 . S
C3071 H3065 0.930 . S
C3071 C3067 1.400 . S
C3071 C3070 1.385 . S
C3072 C3070 1.478 . S
C3072 C3074 1.381 . S
C3072 C3078 1.383 . S
C3073 C3069 1.495 . S
C3073 H3079 0.959 . S
C3073 H3080 0.961 . S
C3073 H3081 0.960 . S
C3074 C3072 1.381 . S
C3074 C3075 1.394 . S
C3074 H3082 0.930 . S
C3075 C3074 1.394 . S
C3075 C3076 1.383 . S
C3075 H3083 0.929 . S
C3076 C3075 1.383 . S
C3076 C3077 1.377 . S
C3077 H3061 0.930 . S
C3077 C3076 1.377 . S
C3077 C3078 1.379 . S
C3078 H3062 0.931 . S
C3078 C3072 1.383 . S
C3078 C3077 1.379 . S
H3079 C3073 0.959 . S
H3080 C3073 0.961 . S
H3081 C3073 0.960 . S
H3082 C3074 0.930 . S
H3083 C3075 0.929 . S
H3084 C3092 0.929 . S
H3085 C3094 0.930 . S
H3086 C3096 0.930 . S
H3087 C3099 0.929 . S
H3088 C3102 0.930 . S
H3089 C3104 0.960 . S
H3090 C3104 0.960 . S
H3091 C3104 0.960 . S
C3092 H3084 0.929 . S
C3092 C3093 1.377 . S
C3092 C3094 1.384 . S
C3093 C3092 1.377 . S
C3093 C3099 1.390 . S
C3094 H3085 0.930 . S
C3094 C3092 1.384 . S
C3094 C3095 1.372 . S
C3095 C3094 1.372 . S
C3095 C3096 1.400 . S
C3095 C3100 1.490 . S
C3096 H3086 0.930 . S
C3096 C3095 1.400 . S
C3096 C3099 1.386 . S
H3097 C3113 0.930 . S
H3098 C3114 0.931 . S
C3099 H3087 0.929 . S
C3099 C3093 1.390 . S
C3099 C3096 1.386 . S
C3100 C3095 1.490 . S
C3100 C3102 1.395 . S
C3100 C3103 1.403 . S
H3101 C3107 0.930 . S
C3102 H3088 0.930 . S
C3102 C3100 1.395 . S
C3102 C3105 1.403 . S
C3103 C3100 1.403 . S
C3103 C3104 1.524 . S
C3103 C3107 1.400 . S
C3104 H3089 0.960 . S
C3104 H3090 0.960 . S
C3104 H3091 0.960 . S
C3104 C3103 1.524 . S
C3105 C3102 1.403 . S
C3105 C3106 1.392 . S
C3105 C3109 1.495 . S
C3106 C3105 1.392 . S
C3106 C3107 1.385 . S
C3106 C3108 1.478 . S
C3107 H3101 0.930 . S
C3107 C3103 1.400 . S
C3107 C3106 1.385 . S
C3108 C3106 1.478 . S
C3108 C3110 1.381 . S
C3108 C3114 1.383 . S
C3109 C3105 1.495 . S
C3109 H3115 0.959 . S
C3109 H3116 0.961 . S
C3109 H3117 0.960 . S
C3110 C3108 1.381 . S
C3110 C3111 1.394 . S
C3110 H3118 0.930 . S
C3111 C3110 1.394 . S
C3111 C3112 1.383 . S
C3111 H3119 0.929 . S
C3112 C3111 1.383 . S
C3112 C3113 1.377 . S
C3113 H3097 0.930 . S
C3113 C3112 1.377 . S
C3113 C3114 1.379 . S
C3114 H3098 0.931 . S
C3114 C3108 1.383 . S
C3114 C3113 1.379 . S
H3115 C3109 0.959 . S
H3116 C3109 0.961 . S
H3117 C3109 0.960 . S
H3118 C3110 0.930 . S
H3119 C3111 0.929 . S
H3120 C3128 0.929 . S
H3121 C3130 0.930 . S
H3122 C3132 0.930 1_556 S
H3123 C3135 0.929 1_556 S
H3124 C3138 0.930 . S
H3125 C3140 0.960 . S
H3126 C3140 0.960 . S
H3127 C3140 0.960 . S
C3128 H3120 0.929 . S
C3128 C3129 1.377 . S
C3128 C3130 1.384 . S
C3129 C3128 1.377 . S
C3129 C3135 1.390 . S
C3130 H3121 0.930 . S
C3130 C3128 1.384 . S
C3130 C3131 1.372 . S
C3131 C3130 1.372 . S
C3131 C3132 1.400 . S
C3131 C3136 1.490 . S
C3132 H3122 0.930 1_554 S
C3132 C3131 1.400 . S
C3132 C3135 1.386 . S
H3133 C3149 0.930 . S
H3134 C3150 0.931 . S
C3135 H3123 0.929 1_554 S
C3135 C3129 1.390 . S
C3135 C3132 1.386 . S
C3136 C3131 1.490 . S
C3136 C3138 1.395 . S
C3136 C3139 1.403 . S
H3137 C3143 0.930 . S
C3138 H3124 0.930 . S
C3138 C3136 1.395 . S
C3138 C3141 1.403 . S
C3139 C3136 1.403 . S
C3139 C3140 1.524 . S
C3139 C3143 1.400 . S
C3140 H3125 0.960 . S
C3140 H3126 0.960 . S
C3140 H3127 0.960 . S
C3140 C3139 1.524 . S
C3141 C3138 1.403 . S
C3141 C3142 1.392 . S
C3141 C3145 1.495 . S
C3142 C3141 1.392 . S
C3142 C3143 1.385 . S
C3142 C3144 1.478 . S
C3143 H3137 0.930 . S
C3143 C3139 1.400 . S
C3143 C3142 1.385 . S
C3144 C3142 1.478 . S
C3144 C3146 1.381 . S
C3144 C3150 1.383 1_554 S
C3145 C3141 1.495 . S
C3145 H3151 0.959 . S
C3145 H3152 0.961 . S
C3145 H3153 0.960 . S
C3146 C3144 1.381 . S
C3146 C3147 1.394 . S
C3146 H3154 0.930 . S
C3147 C3146 1.394 . S
C3147 C3148 1.383 . S
C3147 H3155 0.929 . S
C3148 C3147 1.383 . S
C3148 C3149 1.377 1_554 S
C3149 H3133 0.930 . S
C3149 C3148 1.377 1_556 S
C3149 C3150 1.379 . S
C3150 H3134 0.931 . S
C3150 C3144 1.383 1_556 S
C3150 C3149 1.379 . S
H3151 C3145 0.959 . S
H3152 C3145 0.961 . S
H3153 C3145 0.960 . S
H3154 C3146 0.930 . S
H3155 C3147 0.929 . S
H3156 C3164 0.929 . S
H3157 C3166 0.930 . S
H3158 C3168 0.930 . S
H3159 C3171 0.929 . S
H3160 C3174 0.930 . S
H3161 C3176 0.960 . S
H3162 C3176 0.960 . S
H3163 C3176 0.960 . S
C3164 H3156 0.929 . S
C3164 C3165 1.377 . S
C3164 C3166 1.384 . S
C3165 C3164 1.377 . S
C3165 C3171 1.390 . S
C3166 H3157 0.930 . S
C3166 C3164 1.384 . S
C3166 C3167 1.372 . S
C3167 C3166 1.372 . S
C3167 C3168 1.400 . S
C3167 C3172 1.490 . S
C3168 H3158 0.930 . S
C3168 C3167 1.400 . S
C3168 C3171 1.386 . S
H3169 C3185 0.930 . S
H3170 C3186 0.931 . S
C3171 H3159 0.929 . S
C3171 C3165 1.390 . S
C3171 C3168 1.386 . S
C3172 C3167 1.490 . S
C3172 C3174 1.395 . S
C3172 C3175 1.403 . S
H3173 C3179 0.930 . S
C3174 H3160 0.930 . S
C3174 C3172 1.395 . S
C3174 C3177 1.403 . S
C3175 C3172 1.403 . S
C3175 C3176 1.524 . S
C3175 C3179 1.400 . S
C3176 H3161 0.960 . S
C3176 H3162 0.960 . S
C3176 H3163 0.960 . S
C3176 C3175 1.524 . S
C3177 C3174 1.403 . S
C3177 C3178 1.392 . S
C3177 C3181 1.495 . S
C3178 C3177 1.392 . S
C3178 C3179 1.385 . S
C3178 C3180 1.478 . S
C3179 H3173 0.930 . S
C3179 C3175 1.400 . S
C3179 C3178 1.385 . S
C3180 C3178 1.478 . S
C3180 C3182 1.381 . S
C3180 C3186 1.383 . S
C3181 C3177 1.495 . S
C3181 H3187 0.959 . S
C3181 H3188 0.961 . S
C3181 H3189 0.960 . S
C3182 C3180 1.381 . S
C3182 C3183 1.394 . S
C3182 H3190 0.930 . S
C3183 C3182 1.394 . S
C3183 C3184 1.383 . S
C3183 H3191 0.929 . S
C3184 C3183 1.383 . S
C3184 C3185 1.377 . S
C3185 H3169 0.930 . S
C3185 C3184 1.377 . S
C3185 C3186 1.379 . S
C3186 H3170 0.931 . S
C3186 C3180 1.383 . S
C3186 C3185 1.379 . S
H3187 C3181 0.959 . S
H3188 C3181 0.961 . S
H3189 C3181 0.960 . S
H3190 C3182 0.930 . S
H3191 C3183 0.929 . S
H3192 C3200 0.929 . S
H3193 C3202 0.930 . S
H3194 C3204 0.930 . S
H3195 C3207 0.929 . S
H3196 C3210 0.930 . S
H3197 C3212 0.960 . S
H3198 C3212 0.960 . S
H3199 C3212 0.960 . S
C3200 H3192 0.929 . S
C3200 C3201 1.377 . S
C3200 C3202 1.384 . S
C3201 C3200 1.377 . S
C3201 C3207 1.390 . S
C3202 H3193 0.930 . S
C3202 C3200 1.384 . S
C3202 C3203 1.372 . S
C3203 C3202 1.372 . S
C3203 C3204 1.400 . S
C3203 C3208 1.490 . S
C3204 H3194 0.930 . S
C3204 C3203 1.400 . S
C3204 C3207 1.386 . S
H3205 C3221 0.930 . S
H3206 C3222 0.931 . S
C3207 H3195 0.929 . S
C3207 C3201 1.390 . S
C3207 C3204 1.386 . S
C3208 C3203 1.490 . S
C3208 C3210 1.395 . S
C3208 C3211 1.403 . S
H3209 C3215 0.930 . S
C3210 H3196 0.930 . S
C3210 C3208 1.395 . S
C3210 C3213 1.403 . S
C3211 C3208 1.403 . S
C3211 C3212 1.524 . S
C3211 C3215 1.400 . S
C3212 H3197 0.960 . S
C3212 H3198 0.960 . S
C3212 H3199 0.960 . S
C3212 C3211 1.524 . S
C3213 C3210 1.403 . S
C3213 C3214 1.392 . S
C3213 C3217 1.495 . S
C3214 C3213 1.392 . S
C3214 C3215 1.385 . S
C3214 C3216 1.478 . S
C3215 H3209 0.930 . S
C3215 C3211 1.400 . S
C3215 C3214 1.385 . S
C3216 C3214 1.478 . S
C3216 C3218 1.381 . S
C3216 C3222 1.383 . S
C3217 C3213 1.495 . S
C3217 H3223 0.959 . S
C3217 H3224 0.961 . S
C3217 H3225 0.960 . S
C3218 C3216 1.381 . S
C3218 C3219 1.394 . S
C3218 H3226 0.930 . S
C3219 C3218 1.394 . S
C3219 C3220 1.383 . S
C3219 H3227 0.929 . S
C3220 C3219 1.383 . S
C3220 C3221 1.377 . S
C3221 H3205 0.930 . S
C3221 C3220 1.377 . S
C3221 C3222 1.379 . S
C3222 H3206 0.931 . S
C3222 C3216 1.383 . S
C3222 C3221 1.379 . S
H3223 C3217 0.959 . S
H3224 C3217 0.961 . S
H3225 C3217 0.960 . S
H3226 C3218 0.930 . S
H3227 C3219 0.929 . S
H3228 C3236 0.929 . S
H3229 C3238 0.930 . S
H3230 C3240 0.930 . S
H3231 C3243 0.929 . S
H3232 C3246 0.930 . S
H3233 C3248 0.960 . S
H3234 C3248 0.960 . S
H3235 C3248 0.960 . S
C3236 H3228 0.929 . S
C3236 C3237 1.377 . S
C3236 C3238 1.384 . S
C3237 C3236 1.377 . S
C3237 C3243 1.390 . S
C3238 H3229 0.930 . S
C3238 C3236 1.384 . S
C3238 C3239 1.372 . S
C3239 C3238 1.372 . S
C3239 C3240 1.400 . S
C3239 C3244 1.490 . S
C3240 H3230 0.930 . S
C3240 C3239 1.400 . S
C3240 C3243 1.386 . S
H3241 C3257 0.930 . S
H3242 C3258 0.931 . S
C3243 H3231 0.929 . S
C3243 C3237 1.390 . S
C3243 C3240 1.386 . S
C3244 C3239 1.490 . S
C3244 C3246 1.395 . S
C3244 C3247 1.403 . S
H3245 C3251 0.930 . S
C3246 H3232 0.930 . S
C3246 C3244 1.395 . S
C3246 C3249 1.403 . S
C3247 C3244 1.403 . S
C3247 C3248 1.524 . S
C3247 C3251 1.400 . S
C3248 H3233 0.960 . S
C3248 H3234 0.960 . S
C3248 H3235 0.960 . S
C3248 C3247 1.524 . S
C3249 C3246 1.403 . S
C3249 C3250 1.392 . S
C3249 C3253 1.495 . S
C3250 C3249 1.392 . S
C3250 C3251 1.385 . S
C3250 C3252 1.478 . S
C3251 H3245 0.930 . S
C3251 C3247 1.400 . S
C3251 C3250 1.385 . S
C3252 C3250 1.478 . S
C3252 C3254 1.381 . S
C3252 C3258 1.383 . S
C3253 C3249 1.495 . S
C3253 H3259 0.959 . S
C3253 H3260 0.961 . S
C3253 H3261 0.960 . S
C3254 C3252 1.381 . S
C3254 C3255 1.394 . S
C3254 H3262 0.930 . S
C3255 C3254 1.394 . S
C3255 C3256 1.383 . S
C3255 H3263 0.929 . S
C3256 C3255 1.383 . S
C3256 C3257 1.377 . S
C3257 H3241 0.930 . S
C3257 C3256 1.377 . S
C3257 C3258 1.379 . S
C3258 H3242 0.931 . S
C3258 C3252 1.383 . S
C3258 C3257 1.379 . S
H3259 C3253 0.959 . S
H3260 C3253 0.961 . S
H3261 C3253 0.960 . S
H3262 C3254 0.930 . S
H3263 C3255 0.929 . S
H3264 C3272 0.929 . S
H3265 C3274 0.930 . S
H3266 C3276 0.930 . S
H3267 C3279 0.929 . S
H3268 C3282 0.930 . S
H3269 C3284 0.960 . S
H3270 C3284 0.960 . S
H3271 C3284 0.960 . S
C3272 H3264 0.929 . S
C3272 C3273 1.377 1_545 S
C3272 C3274 1.384 1_545 S
C3273 C3272 1.377 1_565 S
C3273 C3279 1.390 . S
C3274 H3265 0.930 . S
C3274 C3272 1.384 1_565 S
C3274 C3275 1.372 . S
C3275 C3274 1.372 . S
C3275 C3276 1.400 . S
C3275 C3280 1.490 . S
C3276 H3266 0.930 . S
C3276 C3275 1.400 . S
C3276 C3279 1.386 . S
H3277 C3293 0.930 . S
H3278 C3294 0.931 . S
C3279 H3267 0.929 . S
C3279 C3273 1.390 . S
C3279 C3276 1.386 . S
C3280 C3275 1.490 . S
C3280 C3282 1.395 . S
C3280 C3283 1.403 . S
H3281 C3287 0.930 . S
C3282 H3268 0.930 . S
C3282 C3280 1.395 . S
C3282 C3285 1.403 . S
C3283 C3280 1.403 . S
C3283 C3284 1.524 . S
C3283 C3287 1.400 . S
C3284 H3269 0.960 . S
C3284 H3270 0.960 . S
C3284 H3271 0.960 . S
C3284 C3283 1.524 . S
C3285 C3282 1.403 . S
C3285 C3286 1.392 . S
C3285 C3289 1.495 . S
C3286 C3285 1.392 . S
C3286 C3287 1.385 . S
C3286 C3288 1.478 . S
C3287 H3281 0.930 . S
C3287 C3283 1.400 . S
C3287 C3286 1.385 . S
C3288 C3286 1.478 . S
C3288 C3290 1.381 . S
C3288 C3294 1.383 . S
C3289 C3285 1.495 . S
C3289 H3295 0.959 . S
C3289 H3296 0.961 . S
C3289 H3297 0.960 . S
C3290 C3288 1.381 . S
C3290 C3291 1.394 . S
C3290 H3298 0.930 . S
C3291 C3290 1.394 . S
C3291 C3292 1.383 . S
C3291 H3299 0.929 . S
C3292 C3291 1.383 . S
C3292 C3293 1.377 . S
C3293 H3277 0.930 . S
C3293 C3292 1.377 . S
C3293 C3294 1.379 . S
C3294 H3278 0.931 . S
C3294 C3288 1.383 . S
C3294 C3293 1.379 . S
H3295 C3289 0.959 . S
H3296 C3289 0.961 . S
H3297 C3289 0.960 . S
H3298 C3290 0.930 . S
H3299 C3291 0.929 . S
H3300 C3308 0.929 . S
H3301 C3310 0.930 . S
H3302 C3312 0.930 . S
H3303 C3315 0.929 . S
H3304 C3318 0.930 . S
H3305 C3320 0.960 . S
H3306 C3320 0.960 . S
H3307 C3320 0.960 . S
C3308 H3300 0.929 . S
C3308 C3309 1.377 . S
C3308 C3310 1.384 . S
C3309 C3308 1.377 . S
C3309 C3315 1.390 . S
C3310 H3301 0.930 . S
C3310 C3308 1.384 . S
C3310 C3311 1.372 . S
C3311 C3310 1.372 . S
C3311 C3312 1.400 . S
C3311 C3316 1.490 . S
C3312 H3302 0.930 . S
C3312 C3311 1.400 . S
C3312 C3315 1.386 . S
H3313 C3329 0.930 1_545 S
H3314 C3330 0.931 . S
C3315 H3303 0.929 . S
C3315 C3309 1.390 . S
C3315 C3312 1.386 . S
C3316 C3311 1.490 . S
C3316 C3318 1.395 . S
C3316 C3319 1.403 . S
H3317 C3323 0.930 . S
C3318 H3304 0.930 . S
C3318 C3316 1.395 . S
C3318 C3321 1.403 . S
C3319 C3316 1.403 . S
C3319 C3320 1.524 . S
C3319 C3323 1.400 . S
C3320 H3305 0.960 . S
C3320 H3306 0.960 . S
C3320 H3307 0.960 . S
C3320 C3319 1.524 . S
C3321 C3318 1.403 . S
C3321 C3322 1.392 . S
C3321 C3325 1.495 . S
C3322 C3321 1.392 . S
C3322 C3323 1.385 . S
C3322 C3324 1.478 . S
C3323 H3317 0.930 . S
C3323 C3319 1.400 . S
C3323 C3322 1.385 . S
C3324 C3322 1.478 . S
C3324 C3326 1.381 . S
C3324 C3330 1.383 . S
C3325 C3321 1.495 . S
C3325 H3331 0.959 . S
C3325 H3332 0.961 . S
C3325 H3333 0.960 . S
C3326 C3324 1.381 . S
C3326 C3327 1.394 . S
C3326 H3334 0.930 . S
C3327 C3326 1.394 . S
C3327 C3328 1.383 . S
C3327 H3335 0.929 . S
C3328 C3327 1.383 . S
C3328 C3329 1.377 . S
C3329 H3313 0.930 1_565 S
C3329 C3328 1.377 . S
C3329 C3330 1.379 . S
C3330 H3314 0.931 . S
C3330 C3324 1.383 . S
C3330 C3329 1.379 . S
H3331 C3325 0.959 . S
H3332 C3325 0.961 . S
H3333 C3325 0.960 . S
H3334 C3326 0.930 . S
H3335 C3327 0.929 . S
H3336 C3344 0.929 . S
H3337 C3346 0.930 . S
H3338 C3348 0.930 . S
H3339 C3351 0.929 . S
H3340 C3354 0.930 . S
H3341 C3356 0.960 . S
H3342 C3356 0.960 . S
H3343 C3356 0.960 . S
C3344 H3336 0.929 . S
C3344 C3345 1.377 . S
C3344 C3346 1.384 . S
C3345 C3344 1.377 . S
C3345 C3351 1.390 . S
C3346 H3337 0.930 . S
C3346 C3344 1.384 . S
C3346 C3347 1.372 . S
C3347 C3346 1.372 . S
C3347 C3348 1.400 . S
C3347 C3352 1.490 . S
C3348 H3338 0.930 . S
C3348 C3347 1.400 . S
C3348 C3351 1.386 . S
H3349 C3365 0.930 . S
H3350 C3366 0.931 . S
C3351 H3339 0.929 . S
C3351 C3345 1.390 . S
C3351 C3348 1.386 . S
C3352 C3347 1.490 . S
C3352 C3354 1.395 . S
C3352 C3355 1.403 . S
H3353 C3359 0.930 . S
C3354 H3340 0.930 . S
C3354 C3352 1.395 . S
C3354 C3357 1.403 . S
C3355 C3352 1.403 . S
C3355 C3356 1.524 . S
C3355 C3359 1.400 . S
C3356 H3341 0.960 . S
C3356 H3342 0.960 . S
C3356 H3343 0.960 . S
C3356 C3355 1.524 . S
C3357 C3354 1.403 . S
C3357 C3358 1.392 . S
C3357 C3361 1.495 . S
C3358 C3357 1.392 . S
C3358 C3359 1.385 . S
C3358 C3360 1.478 . S
C3359 H3353 0.930 . S
C3359 C3355 1.400 . S
C3359 C3358 1.385 . S
C3360 C3358 1.478 . S
C3360 C3362 1.381 . S
C3360 C3366 1.383 . S
C3361 C3357 1.495 . S
C3361 H3367 0.959 . S
C3361 H3368 0.961 . S
C3361 H3369 0.960 . S
C3362 C3360 1.381 . S
C3362 C3363 1.394 . S
C3362 H3370 0.930 . S
C3363 C3362 1.394 . S
C3363 C3364 1.383 . S
C3363 H3371 0.929 . S
C3364 C3363 1.383 . S
C3364 C3365 1.377 . S
C3365 H3349 0.930 . S
C3365 C3364 1.377 . S
C3365 C3366 1.379 . S
C3366 H3350 0.931 . S
C3366 C3360 1.383 . S
C3366 C3365 1.379 . S
H3367 C3361 0.959 . S
H3368 C3361 0.961 . S
H3369 C3361 0.960 . S
H3370 C3362 0.930 . S
H3371 C3363 0.929 . S
H3372 C3380 0.929 . S
H3373 C3382 0.930 . S
H3374 C3384 0.930 . S
H3375 C3387 0.929 . S
H3376 C3390 0.930 . S
H3377 C3392 0.960 . S
H3378 C3392 0.960 . S
H3379 C3392 0.960 . S
C3380 H3372 0.929 . S
C3380 C3381 1.377 . S
C3380 C3382 1.384 . S
C3381 C3380 1.377 . S
C3381 C3387 1.390 . S
C3382 H3373 0.930 . S
C3382 C3380 1.384 . S
C3382 C3383 1.372 . S
C3383 C3382 1.372 . S
C3383 C3384 1.400 . S
C3383 C3388 1.490 . S
C3384 H3374 0.930 . S
C3384 C3383 1.400 . S
C3384 C3387 1.386 . S
H3385 C3401 0.930 . S
H3386 C3402 0.931 . S
C3387 H3375 0.929 . S
C3387 C3381 1.390 . S
C3387 C3384 1.386 . S
C3388 C3383 1.490 . S
C3388 C3390 1.395 . S
C3388 C3391 1.403 . S
H3389 C3395 0.930 . S
C3390 H3376 0.930 . S
C3390 C3388 1.395 . S
C3390 C3393 1.403 . S
C3391 C3388 1.403 . S
C3391 C3392 1.524 . S
C3391 C3395 1.400 . S
C3392 H3377 0.960 . S
C3392 H3378 0.960 . S
C3392 H3379 0.960 . S
C3392 C3391 1.524 . S
C3393 C3390 1.403 . S
C3393 C3394 1.392 . S
C3393 C3397 1.495 . S
C3394 C3393 1.392 . S
C3394 C3395 1.385 . S
C3394 C3396 1.478 . S
C3395 H3389 0.930 . S
C3395 C3391 1.400 . S
C3395 C3394 1.385 . S
C3396 C3394 1.478 . S
C3396 C3398 1.381 . S
C3396 C3402 1.383 . S
C3397 C3393 1.495 . S
C3397 H3403 0.959 . S
C3397 H3404 0.961 . S
C3397 H3405 0.960 . S
C3398 C3396 1.381 . S
C3398 C3399 1.394 . S
C3398 H3406 0.930 . S
C3399 C3398 1.394 . S
C3399 C3400 1.383 . S
C3399 H3407 0.929 . S
C3400 C3399 1.383 . S
C3400 C3401 1.377 . S
C3401 H3385 0.930 . S
C3401 C3400 1.377 . S
C3401 C3402 1.379 . S
C3402 H3386 0.931 . S
C3402 C3396 1.383 . S
C3402 C3401 1.379 . S
H3403 C3397 0.959 . S
H3404 C3397 0.961 . S
H3405 C3397 0.960 . S
H3406 C3398 0.930 . S
H3407 C3399 0.929 . S
H3408 C3416 0.929 . S
H3409 C3418 0.930 . S
H3410 C3420 0.930 . S
H3411 C3423 0.929 . S
H3412 C3426 0.930 . S
H3413 C3428 0.960 . S
H3414 C3428 0.960 . S
H3415 C3428 0.960 . S
C3416 H3408 0.929 . S
C3416 C3417 1.377 . S
C3416 C3418 1.384 . S
C3417 C3416 1.377 . S
C3417 C3423 1.390 . S
C3418 H3409 0.930 . S
C3418 C3416 1.384 . S
C3418 C3419 1.372 . S
C3419 C3418 1.372 . S
C3419 C3420 1.400 . S
C3419 C3424 1.490 . S
C3420 H3410 0.930 . S
C3420 C3419 1.400 . S
C3420 C3423 1.386 . S
H3421 C3437 0.930 . S
H3422 C3438 0.931 . S
C3423 H3411 0.929 . S
C3423 C3417 1.390 . S
C3423 C3420 1.386 . S
C3424 C3419 1.490 . S
C3424 C3426 1.395 . S
C3424 C3427 1.403 . S
H3425 C3431 0.930 . S
C3426 H3412 0.930 . S
C3426 C3424 1.395 . S
C3426 C3429 1.403 . S
C3427 C3424 1.403 . S
C3427 C3428 1.524 . S
C3427 C3431 1.400 . S
C3428 H3413 0.960 . S
C3428 H3414 0.960 . S
C3428 H3415 0.960 . S
C3428 C3427 1.524 . S
C3429 C3426 1.403 . S
C3429 C3430 1.392 . S
C3429 C3433 1.495 . S
C3430 C3429 1.392 . S
C3430 C3431 1.385 . S
C3430 C3432 1.478 . S
C3431 H3425 0.930 . S
C3431 C3427 1.400 . S
C3431 C3430 1.385 . S
C3432 C3430 1.478 . S
C3432 C3434 1.381 . S
C3432 C3438 1.383 . S
C3433 C3429 1.495 . S
C3433 H3439 0.959 . S
C3433 H3440 0.961 . S
C3433 H3441 0.960 . S
C3434 C3432 1.381 . S
C3434 C3435 1.394 . S
C3434 H3442 0.930 . S
C3435 C3434 1.394 . S
C3435 C3436 1.383 . S
C3435 H3443 0.929 . S
C3436 C3435 1.383 . S
C3436 C3437 1.377 . S
C3437 H3421 0.930 . S
C3437 C3436 1.377 . S
C3437 C3438 1.379 . S
C3438 H3422 0.931 . S
C3438 C3432 1.383 . S
C3438 C3437 1.379 . S
H3439 C3433 0.959 . S
H3440 C3433 0.961 . S
H3441 C3433 0.960 . S
H3442 C3434 0.930 . S
H3443 C3435 0.929 . S
H3444 C3452 0.929 . S
H3445 C3454 0.930 . S
H3446 C3456 0.930 . S
H3447 C3459 0.929 . S
H3448 C3462 0.930 . S
H3449 C3464 0.960 . S
H3450 C3464 0.960 . S
H3451 C3464 0.960 . S
C3452 H3444 0.929 . S
C3452 C3453 1.377 . S
C3452 C3454 1.384 . S
C3453 C3452 1.377 . S
C3453 C3459 1.390 . S
C3454 H3445 0.930 . S
C3454 C3452 1.384 . S
C3454 C3455 1.372 . S
C3455 C3454 1.372 . S
C3455 C3456 1.400 . S
C3455 C3460 1.490 . S
C3456 H3446 0.930 . S
C3456 C3455 1.400 . S
C3456 C3459 1.386 . S
H3457 C3473 0.930 . S
H3458 C3474 0.931 . S
C3459 H3447 0.929 . S
C3459 C3453 1.390 . S
C3459 C3456 1.386 . S
C3460 C3455 1.490 . S
C3460 C3462 1.395 . S
C3460 C3463 1.403 . S
H3461 C3467 0.930 . S
C3462 H3448 0.930 . S
C3462 C3460 1.395 . S
C3462 C3465 1.403 . S
C3463 C3460 1.403 . S
C3463 C3464 1.524 . S
C3463 C3467 1.400 . S
C3464 H3449 0.960 . S
C3464 H3450 0.960 . S
C3464 H3451 0.960 . S
C3464 C3463 1.524 . S
C3465 C3462 1.403 . S
C3465 C3466 1.392 . S
C3465 C3469 1.495 . S
C3466 C3465 1.392 . S
C3466 C3467 1.385 . S
C3466 C3468 1.478 . S
C3467 H3461 0.930 . S
C3467 C3463 1.400 . S
C3467 C3466 1.385 . S
C3468 C3466 1.478 . S
C3468 C3470 1.381 . S
C3468 C3474 1.383 . S
C3469 C3465 1.495 . S
C3469 H3475 0.959 . S
C3469 H3476 0.961 . S
C3469 H3477 0.960 . S
C3470 C3468 1.381 . S
C3470 C3471 1.394 . S
C3470 H3478 0.930 . S
C3471 C3470 1.394 . S
C3471 C3472 1.383 . S
C3471 H3479 0.929 . S
C3472 C3471 1.383 . S
C3472 C3473 1.377 . S
C3473 H3457 0.930 . S
C3473 C3472 1.377 . S
C3473 C3474 1.379 . S
C3474 H3458 0.931 . S
C3474 C3468 1.383 . S
C3474 C3473 1.379 . S
H3475 C3469 0.959 . S
H3476 C3469 0.961 . S
H3477 C3469 0.960 . S
H3478 C3470 0.930 . S
H3479 C3471 0.929 . S
H3480 C3488 0.929 . S
H3481 C3490 0.930 . S
H3482 C3492 0.930 . S
H3483 C3495 0.929 . S
H3484 C3498 0.930 . S
H3485 C3500 0.938 1_654 S
H3486 C3500 0.926 1_554 S
H3487 C3500 0.994 1_655 S
C3488 H3480 0.929 . S
C3488 C3489 1.377 . S
C3488 C3490 1.384 . S
C3489 C3488 1.377 . S
C3489 C3495 1.390 . S
C3490 H3481 0.930 . S
C3490 C3488 1.384 . S
C3490 C3491 1.372 . S
C3491 C3490 1.372 . S
C3491 C3492 1.400 . S
C3491 C3496 1.490 . S
C3492 H3482 0.930 . S
C3492 C3491 1.400 . S
C3492 C3495 1.386 . S
H3493 C3509 0.930 . S
H3494 C3510 0.931 . S
C3495 H3483 0.929 . S
C3495 C3489 1.390 . S
C3495 C3492 1.386 . S
C3496 C3491 1.490 . S
C3496 C3498 1.395 . S
C3496 C3499 1.403 . S
H3497 C3503 0.930 1_554 S
C3498 H3484 0.930 . S
C3498 C3496 1.395 . S
C3498 C3501 1.403 . S
C3499 C3496 1.403 . S
C3499 C3500 1.549 . S
C3499 C3503 1.400 . S
C3500 H3485 0.938 1_456 S
C3500 H3486 0.926 1_556 S
C3500 H3487 0.994 1_455 S
C3500 C3499 1.549 . S
C3501 C3498 1.403 . S
C3501 C3502 1.392 . S
C3501 C3505 1.495 . S
C3502 C3501 1.392 . S
C3502 C3503 1.385 . S
C3502 C3504 1.478 . S
C3503 H3497 0.930 1_556 S
C3503 C3499 1.400 . S
C3503 C3502 1.385 . S
C3504 C3502 1.478 . S
C3504 C3506 1.381 1_556 S
C3504 C3510 1.383 . S
C3505 C3501 1.495 . S
C3505 H3511 0.959 . S
C3505 H3512 0.961 . S
C3505 H3513 0.960 . S
C3506 C3504 1.381 1_554 S
C3506 C3507 1.394 . S
C3506 H3514 0.930 . S
C3507 C3506 1.394 . S
C3507 C3508 1.383 . S
C3507 H3515 0.929 . S
C3508 C3507 1.383 . S
C3508 C3509 1.377 1_554 S
C3509 H3493 0.930 . S
C3509 C3508 1.377 1_556 S
C3509 C3510 1.379 . S
C3510 H3494 0.931 . S
C3510 C3504 1.383 . S
C3510 C3509 1.379 . S
H3511 C3505 0.959 . S
H3512 C3505 0.961 . S
H3513 C3505 0.960 . S
H3514 C3506 0.930 . S
H3515 C3507 0.929 . S
H3516 C3524 0.929 . S
H3517 C3526 0.930 . S
H3518 C3528 0.930 . S
H3519 C3531 0.929 . S
H3520 C3534 0.930 . S
H3521 C3536 0.960 . S
H3522 C3536 0.960 . S
H3523 C3536 0.960 . S
C3524 H3516 0.929 . S
C3524 C3525 1.377 . S
C3524 C3526 1.384 . S
C3525 C3524 1.377 . S
C3525 C3531 1.390 . S
C3526 H3517 0.930 . S
C3526 C3524 1.384 . S
C3526 C3527 1.372 1_455 S
C3527 C3526 1.372 1_655 S
C3527 C3528 1.400 . S
C3527 C3532 1.490 . S
C3528 H3518 0.930 . S
C3528 C3527 1.400 . S
C3528 C3531 1.386 1_655 S
H3529 C3545 0.930 . S
H3530 C3546 0.931 . S
C3531 H3519 0.929 . S
C3531 C3525 1.390 . S
C3531 C3528 1.386 1_455 S
C3532 C3527 1.490 . S
C3532 C3534 1.395 . S
C3532 C3535 1.403 . S
H3533 C3539 0.930 . S
C3534 H3520 0.930 . S
C3534 C3532 1.395 . S
C3534 C3537 1.403 . S
C3535 C3532 1.403 . S
C3535 C3536 1.524 . S
C3535 C3539 1.400 . S
C3536 H3521 0.960 . S
C3536 H3522 0.960 . S
C3536 H3523 0.960 . S
C3536 C3535 1.524 . S
C3537 C3534 1.403 . S
C3537 C3538 1.392 . S
C3537 C3541 1.495 . S
C3538 C3537 1.392 . S
C3538 C3539 1.385 . S
C3538 C3540 1.478 . S
C3539 H3533 0.930 . S
C3539 C3535 1.400 . S
C3539 C3538 1.385 . S
C3540 C3538 1.478 . S
C3540 C3542 1.381 . S
C3540 C3546 1.383 . S
C3541 C3537 1.495 . S
C3541 H3547 0.959 . S
C3541 H3548 0.961 . S
C3541 H3549 0.960 . S
C3542 C3540 1.381 . S
C3542 C3543 1.394 . S
C3542 H3550 0.930 . S
C3543 C3542 1.394 . S
C3543 C3544 1.383 . S
C3543 H3551 0.929 . S
C3544 C3543 1.383 . S
C3544 C3545 1.377 . S
C3545 H3529 0.930 . S
C3545 C3544 1.377 . S
C3545 C3546 1.379 . S
C3546 H3530 0.931 . S
C3546 C3540 1.383 . S
C3546 C3545 1.379 . S
H3547 C3541 0.959 . S
H3548 C3541 0.961 . S
H3549 C3541 0.960 . S
H3550 C3542 0.930 . S
H3551 C3543 0.929 . S
H3552 C3560 0.929 . S
H3553 C3562 0.930 . S
H3554 C3564 0.930 . S
H3555 C3567 0.929 . S
H3556 C3570 0.930 . S
H3557 C3572 0.960 . S
H3558 C3572 0.960 . S
H3559 C3572 0.960 . S
C3560 H3552 0.929 . S
C3560 C3561 1.377 . S
C3560 C3562 1.384 . S
C3561 C3560 1.377 . S
C3561 C3567 1.390 . S
C3562 H3553 0.930 . S
C3562 C3560 1.384 . S
C3562 C3563 1.372 . S
C3563 C3562 1.372 . S
C3563 C3564 1.400 . S
C3563 C3568 1.490 . S
C3564 H3554 0.930 . S
C3564 C3563 1.400 . S
C3564 C3567 1.386 . S
H3565 C3581 0.930 . S
H3566 C3582 0.931 . S
C3567 H3555 0.929 . S
C3567 C3561 1.390 . S
C3567 C3564 1.386 . S
C3568 C3563 1.490 . S
C3568 C3570 1.395 . S
C3568 C3571 1.403 . S
H3569 C3575 0.930 . S
C3570 H3556 0.930 . S
C3570 C3568 1.395 . S
C3570 C3573 1.403 . S
C3571 C3568 1.403 . S
C3571 C3572 1.524 . S
C3571 C3575 1.400 . S
C3572 H3557 0.960 . S
C3572 H3558 0.960 . S
C3572 H3559 0.960 . S
C3572 C3571 1.524 . S
C3573 C3570 1.403 . S
C3573 C3574 1.392 . S
C3573 C3577 1.495 . S
C3574 C3573 1.392 . S
C3574 C3575 1.385 . S
C3574 C3576 1.478 . S
C3575 H3569 0.930 . S
C3575 C3571 1.400 . S
C3575 C3574 1.385 . S
C3576 C3574 1.478 . S
C3576 C3578 1.381 . S
C3576 C3582 1.383 . S
C3577 C3573 1.495 . S
C3577 H3583 0.959 . S
C3577 H3584 0.961 . S
C3577 H3585 0.960 . S
C3578 C3576 1.381 . S
C3578 C3579 1.394 . S
C3578 H3586 0.930 . S
C3579 C3578 1.394 . S
C3579 C3580 1.383 . S
C3579 H3587 0.929 . S
C3580 C3579 1.383 . S
C3580 C3581 1.377 . S
C3581 H3565 0.930 . S
C3581 C3580 1.377 . S
C3581 C3582 1.379 . S
C3582 H3566 0.931 . S
C3582 C3576 1.383 . S
C3582 C3581 1.379 . S
H3583 C3577 0.959 . S
H3584 C3577 0.961 . S
H3585 C3577 0.960 . S
H3586 C3578 0.930 . S
H3587 C3579 0.929 . S
H3588 C3596 0.929 . S
H3589 C3598 0.930 . S
H3590 C3600 0.930 . S
H3591 C3603 0.929 . S
H3592 C3606 0.930 1_455 S
H3593 C3608 0.960 . S
H3594 C3608 0.960 1_455 S
H3595 C3608 0.960 . S
C3596 H3588 0.929 . S
C3596 C3597 1.377 . S
C3596 C3598 1.384 . S
C3597 C3596 1.377 . S
C3597 C3603 1.390 . S
C3598 H3589 0.930 . S
C3598 C3596 1.384 . S
C3598 C3599 1.372 . S
C3599 C3598 1.372 . S
C3599 C3600 1.400 . S
C3599 C3604 1.477 1_455 S
C3600 H3590 0.930 . S
C3600 C3599 1.400 . S
C3600 C3603 1.386 . S
H3601 C3617 0.930 . S
H3602 C3618 0.931 . S
C3603 H3591 0.929 . S
C3603 C3597 1.390 . S
C3603 C3600 1.386 . S
C3604 C3599 1.477 1_655 S
C3604 C3606 1.396 . S
C3604 C3607 1.414 . S
H3605 C3611 0.930 . S
C3606 H3592 0.930 1_655 S
C3606 C3604 1.396 . S
C3606 C3609 1.403 . S
C3607 C3604 1.414 . S
C3607 C3608 1.524 . S
C3607 C3611 1.400 . S
C3608 H3593 0.960 . S
C3608 H3594 0.960 1_655 S
C3608 H3595 0.960 . S
C3608 C3607 1.524 . S
C3609 C3606 1.403 . S
C3609 C3610 1.392 . S
C3609 C3613 1.495 . S
C3610 C3609 1.392 . S
C3610 C3611 1.385 . S
C3610 C3612 1.478 . S
C3611 H3605 0.930 . S
C3611 C3607 1.400 . S
C3611 C3610 1.385 . S
C3612 C3610 1.478 . S
C3612 C3614 1.381 . S
C3612 C3618 1.383 . S
C3613 C3609 1.495 . S
C3613 H3619 0.959 . S
C3613 H3620 0.961 . S
C3613 H3621 0.960 . S
C3614 C3612 1.381 . S
C3614 C3615 1.394 . S
C3614 H3622 0.930 . S
C3615 C3614 1.394 . S
C3615 C3616 1.383 . S
C3615 H3623 0.929 . S
C3616 C3615 1.383 . S
C3616 C3617 1.377 . S
C3617 H3601 0.930 . S
C3617 C3616 1.377 . S
C3617 C3618 1.379 . S
C3618 H3602 0.931 . S
C3618 C3612 1.383 . S
C3618 C3617 1.379 . S
H3619 C3613 0.959 . S
H3620 C3613 0.961 . S
H3621 C3613 0.960 . S
H3622 C3614 0.930 . S
H3623 C3615 0.929 . S
H3624 C3632 0.929 . S
H3625 C3634 0.930 . S
H3626 C3636 0.930 . S
H3627 C3639 0.929 . S
H3628 C3642 0.930 . S
H3629 C3644 0.960 . S
H3630 C3644 0.960 . S
H3631 C3644 0.960 . S
C3632 H3624 0.929 . S
C3632 C3633 1.377 . S
C3632 C3634 1.384 . S
C3633 C3632 1.377 . S
C3633 C3639 1.390 1_655 S
C3634 H3625 0.930 . S
C3634 C3632 1.384 . S
C3634 C3635 1.372 1_655 S
C3635 C3634 1.372 1_455 S
C3635 C3636 1.400 . S
C3635 C3640 1.490 . S
C3636 H3626 0.930 . S
C3636 C3635 1.400 . S
C3636 C3639 1.386 . S
H3637 C3653 0.930 . S
H3638 C3654 0.931 . S
C3639 H3627 0.929 . S
C3639 C3633 1.390 1_455 S
C3639 C3636 1.386 . S
C3640 C3635 1.490 . S
C3640 C3642 1.395 1_455 S
C3640 C3643 1.403 . S
H3641 C3647 0.930 . S
C3642 H3628 0.930 . S
C3642 C3640 1.395 1_655 S
C3642 C3645 1.403 . S
C3643 C3640 1.403 . S
C3643 C3644 1.524 . S
C3643 C3647 1.400 . S
C3644 H3629 0.960 . S
C3644 H3630 0.960 . S
C3644 H3631 0.960 . S
C3644 C3643 1.524 . S
C3645 C3642 1.403 . S
C3645 C3646 1.392 1_655 S
C3645 C3649 1.495 . S
C3646 C3645 1.392 1_455 S
C3646 C3647 1.385 . S
C3646 C3648 1.478 . S
C3647 H3641 0.930 . S
C3647 C3643 1.400 . S
C3647 C3646 1.385 . S
C3648 C3646 1.478 . S
C3648 C3650 1.381 . S
C3648 C3654 1.383 . S
C3649 C3645 1.495 . S
C3649 H3655 0.959 . S
C3649 H3656 0.961 . S
C3649 H3657 0.960 . S
C3650 C3648 1.381 . S
C3650 C3651 1.394 . S
C3650 H3658 0.930 . S
C3651 C3650 1.394 . S
C3651 C3652 1.383 . S
C3651 H3659 0.929 . S
C3652 C3651 1.383 . S
C3652 C3653 1.377 . S
C3653 H3637 0.930 . S
C3653 C3652 1.377 . S
C3653 C3654 1.379 . S
C3654 H3638 0.931 . S
C3654 C3648 1.383 . S
C3654 C3653 1.379 . S
H3655 C3649 0.959 . S
H3656 C3649 0.961 . S
H3657 C3649 0.960 . S
H3658 C3650 0.930 . S
H3659 C3651 0.929 . S
H3660 C3668 0.929 . S
H3661 C3670 0.930 . S
H3662 C3672 0.930 . S
H3663 C3675 0.929 . S
H3664 C3678 0.930 . S
H3665 C3680 0.960 . S
H3666 C3680 0.960 . S
H3667 C3680 0.960 . S
C3668 H3660 0.929 . S
C3668 C3669 1.377 . S
C3668 C3670 1.384 . S
C3669 C3668 1.377 . S
C3669 C3675 1.390 . S
C3670 H3661 0.930 . S
C3670 C3668 1.384 . S
C3670 C3671 1.372 . S
C3671 C3670 1.372 . S
C3671 C3672 1.400 . S
C3671 C3676 1.490 . S
C3672 H3662 0.930 . S
C3672 C3671 1.400 . S
C3672 C3675 1.386 . S
H3673 C3689 0.930 . S
H3674 C3690 0.931 . S
C3675 H3663 0.929 . S
C3675 C3669 1.390 . S
C3675 C3672 1.386 . S
C3676 C3671 1.490 . S
C3676 C3678 1.395 . S
C3676 C3679 1.403 . S
H3677 C3683 0.930 . S
C3678 H3664 0.930 . S
C3678 C3676 1.395 . S
C3678 C3681 1.403 . S
C3679 C3676 1.403 . S
C3679 C3680 1.524 . S
C3679 C3683 1.400 . S
C3680 H3665 0.960 . S
C3680 H3666 0.960 . S
C3680 H3667 0.960 . S
C3680 C3679 1.524 . S
C3681 C3678 1.403 . S
C3681 C3682 1.392 . S
C3681 C3685 1.495 . S
C3682 C3681 1.392 . S
C3682 C3683 1.385 . S
C3682 C3684 1.478 . S
C3683 H3677 0.930 . S
C3683 C3679 1.400 . S
C3683 C3682 1.385 . S
C3684 C3682 1.478 . S
C3684 C3686 1.381 . S
C3684 C3690 1.383 . S
C3685 C3681 1.495 . S
C3685 H3691 0.959 . S
C3685 H3692 0.961 . S
C3685 H3693 0.960 . S
C3686 C3684 1.381 . S
C3686 C3687 1.394 . S
C3686 H3694 0.930 . S
C3687 C3686 1.394 . S
C3687 C3688 1.383 . S
C3687 H3695 0.929 . S
C3688 C3687 1.383 . S
C3688 C3689 1.377 . S
C3689 H3673 0.930 . S
C3689 C3688 1.377 . S
C3689 C3690 1.379 . S
C3690 H3674 0.931 . S
C3690 C3684 1.383 . S
C3690 C3689 1.379 . S
H3691 C3685 0.959 . S
H3692 C3685 0.961 . S
H3693 C3685 0.960 . S
H3694 C3686 0.930 . S
H3695 C3687 0.929 . S
H3696 C3704 0.929 . S
H3697 C3706 0.930 . S
H3698 C3708 0.930 . S
H3699 C3711 0.929 . S
H3700 C3714 0.930 . S
H3701 C3716 0.960 . S
H3702 C3716 0.960 . S
H3703 C3716 0.960 . S
C3704 H3696 0.929 . S
C3704 C3705 1.377 . S
C3704 C3706 1.384 . S
C3705 C3704 1.377 . S
C3705 C3711 1.390 . S
C3706 H3697 0.930 . S
C3706 C3704 1.384 . S
C3706 C3707 1.372 . S
C3707 C3706 1.372 . S
C3707 C3708 1.400 . S
C3707 C3712 1.490 . S
C3708 H3698 0.930 . S
C3708 C3707 1.400 . S
C3708 C3711 1.386 . S
H3709 C3725 0.930 . S
H3710 C3726 0.931 . S
C3711 H3699 0.929 . S
C3711 C3705 1.390 . S
C3711 C3708 1.386 . S
C3712 C3707 1.490 . S
C3712 C3714 1.395 . S
C3712 C3715 1.403 . S
H3713 C3719 0.930 . S
C3714 H3700 0.930 . S
C3714 C3712 1.395 . S
C3714 C3717 1.403 . S
C3715 C3712 1.403 . S
C3715 C3716 1.524 . S
C3715 C3719 1.400 . S
C3716 H3701 0.960 . S
C3716 H3702 0.960 . S
C3716 H3703 0.960 . S
C3716 C3715 1.524 . S
C3717 C3714 1.403 . S
C3717 C3718 1.392 . S
C3717 C3721 1.495 . S
C3718 C3717 1.392 . S
C3718 C3719 1.385 . S
C3718 C3720 1.478 . S
C3719 H3713 0.930 . S
C3719 C3715 1.400 . S
C3719 C3718 1.385 . S
C3720 C3718 1.478 . S
C3720 C3722 1.381 . S
C3720 C3726 1.383 . S
C3721 C3717 1.495 . S
C3721 H3727 0.959 . S
C3721 H3728 0.961 . S
C3721 H3729 0.960 . S
C3722 C3720 1.381 . S
C3722 C3723 1.394 . S
C3722 H3730 0.930 . S
C3723 C3722 1.394 . S
C3723 C3724 1.383 . S
C3723 H3731 0.929 . S
C3724 C3723 1.383 . S
C3724 C3725 1.377 . S
C3725 H3709 0.930 . S
C3725 C3724 1.377 . S
C3725 C3726 1.379 . S
C3726 H3710 0.931 . S
C3726 C3720 1.383 . S
C3726 C3725 1.379 . S
H3727 C3721 0.959 . S
H3728 C3721 0.961 . S
H3729 C3721 0.960 . S
H3730 C3722 0.930 . S
H3731 C3723 0.929 . S
H3732 C3740 0.929 . S
H3733 C3742 0.930 . S
H3734 C3744 0.930 . S
H3735 C3747 0.929 . S
H3736 C3750 0.930 . S
H3737 C3752 0.960 . S
H3738 C3752 0.960 . S
H3739 C3752 0.960 . S
C3740 H3732 0.929 . S
C3740 C3741 1.377 . S
C3740 C3742 1.384 . S
C3741 C3740 1.377 . S
C3741 C3747 1.390 . S
C3742 H3733 0.930 . S
C3742 C3740 1.384 . S
C3742 C3743 1.372 . S
C3743 C3742 1.372 . S
C3743 C3744 1.400 . S
C3743 C3748 1.490 . S
C3744 H3734 0.930 . S
C3744 C3743 1.400 . S
C3744 C3747 1.386 . S
H3745 C3761 0.930 . S
H3746 C3762 0.931 . S
C3747 H3735 0.929 . S
C3747 C3741 1.390 . S
C3747 C3744 1.386 . S
C3748 C3743 1.490 . S
C3748 C3750 1.395 . S
C3748 C3751 1.403 . S
H3749 C3755 0.930 . S
C3750 H3736 0.930 . S
C3750 C3748 1.395 . S
C3750 C3753 1.403 . S
C3751 C3748 1.403 . S
C3751 C3752 1.524 . S
C3751 C3755 1.400 . S
C3752 H3737 0.960 . S
C3752 H3738 0.960 . S
C3752 H3739 0.960 . S
C3752 C3751 1.524 . S
C3753 C3750 1.403 . S
C3753 C3754 1.392 . S
C3753 C3757 1.495 . S
C3754 C3753 1.392 . S
C3754 C3755 1.385 . S
C3754 C3756 1.478 . S
C3755 H3749 0.930 . S
C3755 C3751 1.400 . S
C3755 C3754 1.385 . S
C3756 C3754 1.478 . S
C3756 C3758 1.381 . S
C3756 C3762 1.383 . S
C3757 C3753 1.495 . S
C3757 H3763 0.959 . S
C3757 H3764 0.961 . S
C3757 H3765 0.960 . S
C3758 C3756 1.381 . S
C3758 C3759 1.394 . S
C3758 H3766 0.930 . S
C3759 C3758 1.394 . S
C3759 C3760 1.383 . S
C3759 H3767 0.929 . S
C3760 C3759 1.383 . S
C3760 C3761 1.377 . S
C3761 H3745 0.930 . S
C3761 C3760 1.377 . S
C3761 C3762 1.379 . S
C3762 H3746 0.931 . S
C3762 C3756 1.383 . S
C3762 C3761 1.379 . S
H3763 C3757 0.959 . S
H3764 C3757 0.961 . S
H3765 C3757 0.960 . S
H3766 C3758 0.930 . S
H3767 C3759 0.929 . S
H3768 C3776 0.929 . S
H3769 C3778 0.930 . S
H3770 C3780 0.930 . S
H3771 C3783 0.929 . S
H3772 C3786 0.930 . S
H3773 C3788 0.960 . S
H3774 C3788 0.960 . S
H3775 C3788 0.960 . S
C3776 H3768 0.929 . S
C3776 C3777 1.377 . S
C3776 C3778 1.384 . S
C3777 C3776 1.377 . S
C3777 C3783 1.390 . S
C3778 H3769 0.930 . S
C3778 C3776 1.384 . S
C3778 C3779 1.372 . S
C3779 C3778 1.372 . S
C3779 C3780 1.400 . S
C3779 C3784 1.490 . S
C3780 H3770 0.930 . S
C3780 C3779 1.400 . S
C3780 C3783 1.386 . S
H3781 C3797 0.930 . S
H3782 C3798 0.931 . S
C3783 H3771 0.929 . S
C3783 C3777 1.390 . S
C3783 C3780 1.386 . S
C3784 C3779 1.490 . S
C3784 C3786 1.395 . S
C3784 C3787 1.403 . S
H3785 C3791 0.930 . S
C3786 H3772 0.930 . S
C3786 C3784 1.395 . S
C3786 C3789 1.403 . S
C3787 C3784 1.403 . S
C3787 C3788 1.524 . S
C3787 C3791 1.400 . S
C3788 H3773 0.960 . S
C3788 H3774 0.960 . S
C3788 H3775 0.960 . S
C3788 C3787 1.524 . S
C3789 C3786 1.403 . S
C3789 C3790 1.392 . S
C3789 C3793 1.495 . S
C3790 C3789 1.392 . S
C3790 C3791 1.385 . S
C3790 C3792 1.478 . S
C3791 H3785 0.930 . S
C3791 C3787 1.400 . S
C3791 C3790 1.385 . S
C3792 C3790 1.478 . S
C3792 C3794 1.381 . S
C3792 C3798 1.383 . S
C3793 C3789 1.495 . S
C3793 H3799 0.959 . S
C3793 H3800 0.961 . S
C3793 H3801 0.960 . S
C3794 C3792 1.381 . S
C3794 C3795 1.394 . S
C3794 H3802 0.930 . S
C3795 C3794 1.394 . S
C3795 C3796 1.383 . S
C3795 H3803 0.929 . S
C3796 C3795 1.383 . S
C3796 C3797 1.377 . S
C3797 H3781 0.930 . S
C3797 C3796 1.377 . S
C3797 C3798 1.379 . S
C3798 H3782 0.931 . S
C3798 C3792 1.383 . S
C3798 C3797 1.379 . S
H3799 C3793 0.959 . S
H3800 C3793 0.961 . S
H3801 C3793 0.960 . S
H3802 C3794 0.930 . S
H3803 C3795 0.929 . S
H3804 C3812 0.929 . S
H3805 C3814 0.930 . S
H3806 C3816 0.930 . S
H3807 C3819 0.929 . S
H3808 C3822 0.930 . S
H3809 C3824 0.960 . S
H3810 C3824 0.960 . S
H3811 C3824 0.960 . S
C3812 H3804 0.929 . S
C3812 C3813 1.377 . S
C3812 C3814 1.384 . S
C3813 C3812 1.377 . S
C3813 C3819 1.390 . S
C3814 H3805 0.930 . S
C3814 C3812 1.384 . S
C3814 C3815 1.372 . S
C3815 C3814 1.372 . S
C3815 C3816 1.400 . S
C3815 C3820 1.490 . S
C3816 H3806 0.930 . S
C3816 C3815 1.400 . S
C3816 C3819 1.386 . S
H3817 C3833 0.930 . S
H3818 C3834 0.931 . S
C3819 H3807 0.929 . S
C3819 C3813 1.390 . S
C3819 C3816 1.386 . S
C3820 C3815 1.490 . S
C3820 C3822 1.395 . S
C3820 C3823 1.403 . S
H3821 C3827 0.930 . S
C3822 H3808 0.930 . S
C3822 C3820 1.395 . S
C3822 C3825 1.403 . S
C3823 C3820 1.403 . S
C3823 C3824 1.524 . S
C3823 C3827 1.400 . S
C3824 H3809 0.960 . S
C3824 H3810 0.960 . S
C3824 H3811 0.960 . S
C3824 C3823 1.524 . S
C3825 C3822 1.403 . S
C3825 C3826 1.392 . S
C3825 C3829 1.495 . S
C3826 C3825 1.392 . S
C3826 C3827 1.385 . S
C3826 C3828 1.478 . S
C3827 H3821 0.930 . S
C3827 C3823 1.400 . S
C3827 C3826 1.385 . S
C3828 C3826 1.478 . S
C3828 C3830 1.381 . S
C3828 C3834 1.383 . S
C3829 C3825 1.495 . S
C3829 H3835 0.959 . S
C3829 H3836 0.961 . S
C3829 H3837 0.960 . S
C3830 C3828 1.381 . S
C3830 C3831 1.394 . S
C3830 H3838 0.930 . S
C3831 C3830 1.394 . S
C3831 C3832 1.383 . S
C3831 H3839 0.929 . S
C3832 C3831 1.383 . S
C3832 C3833 1.377 . S
C3833 H3817 0.930 . S
C3833 C3832 1.377 . S
C3833 C3834 1.379 . S
C3834 H3818 0.931 . S
C3834 C3828 1.383 . S
C3834 C3833 1.379 . S
H3835 C3829 0.959 . S
H3836 C3829 0.961 . S
H3837 C3829 0.960 . S
H3838 C3830 0.930 . S
H3839 C3831 0.929 . S
H3840 C3848 0.929 . S
H3841 C3850 0.930 . S
H3842 C3852 0.930 . S
H3843 C3855 0.929 . S
H3844 C3858 0.930 . S
H3845 C3860 0.960 . S
H3846 C3860 0.960 . S
H3847 C3860 0.960 . S
C3848 H3840 0.929 . S
C3848 C3849 1.377 . S
C3848 C3850 1.384 . S
C3849 C3848 1.377 . S
C3849 C3855 1.390 . S
C3850 H3841 0.930 . S
C3850 C3848 1.384 . S
C3850 C3851 1.372 . S
C3851 C3850 1.372 . S
C3851 C3852 1.400 . S
C3851 C3856 1.490 . S
C3852 H3842 0.930 . S
C3852 C3851 1.400 . S
C3852 C3855 1.386 . S
H3853 C3869 0.930 . S
H3854 C3870 0.931 . S
C3855 H3843 0.929 . S
C3855 C3849 1.390 . S
C3855 C3852 1.386 . S
C3856 C3851 1.490 . S
C3856 C3858 1.395 . S
C3856 C3859 1.403 . S
H3857 C3863 0.930 . S
C3858 H3844 0.930 . S
C3858 C3856 1.395 . S
C3858 C3861 1.403 . S
C3859 C3856 1.403 . S
C3859 C3860 1.524 . S
C3859 C3863 1.400 . S
C3860 H3845 0.960 . S
C3860 H3846 0.960 . S
C3860 H3847 0.960 . S
C3860 C3859 1.524 . S
C3861 C3858 1.403 . S
C3861 C3862 1.392 . S
C3861 C3865 1.495 . S
C3862 C3861 1.392 . S
C3862 C3863 1.385 . S
C3862 C3864 1.478 . S
C3863 H3857 0.930 . S
C3863 C3859 1.400 . S
C3863 C3862 1.385 . S
C3864 C3862 1.478 . S
C3864 C3866 1.381 . S
C3864 C3870 1.383 . S
C3865 C3861 1.495 . S
C3865 H3871 0.959 . S
C3865 H3872 0.961 . S
C3865 H3873 0.960 . S
C3866 C3864 1.381 . S
C3866 C3867 1.394 . S
C3866 H3874 0.930 . S
C3867 C3866 1.394 . S
C3867 C3868 1.383 . S
C3867 H3875 0.929 . S
C3868 C3867 1.383 . S
C3868 C3869 1.377 . S
C3869 H3853 0.930 . S
C3869 C3868 1.377 . S
C3869 C3870 1.379 . S
C3870 H3854 0.931 . S
C3870 C3864 1.383 . S
C3870 C3869 1.379 . S
H3871 C3865 0.959 . S
H3872 C3865 0.961 . S
H3873 C3865 0.960 . S
H3874 C3866 0.930 . S
H3875 C3867 0.929 . S
H3876 C3884 0.929 . S
H3877 C3886 0.930 . S
H3878 C3888 0.930 . S
H3879 C3891 0.929 . S
H3880 C3894 0.930 . S
H3881 C3896 0.960 . S
H3882 C3896 0.960 . S
H3883 C3896 0.960 . S
C3884 H3876 0.929 . S
C3884 C3885 1.377 . S
C3884 C3886 1.384 . S
C3885 C3884 1.377 . S
C3885 C3891 1.390 . S
C3886 H3877 0.930 . S
C3886 C3884 1.384 . S
C3886 C3887 1.372 . S
C3887 C3886 1.372 . S
C3887 C3888 1.400 . S
C3887 C3892 1.490 . S
C3888 H3878 0.930 . S
C3888 C3887 1.400 . S
C3888 C3891 1.386 . S
H3889 C3905 0.930 . S
H3890 C3906 0.931 . S
C3891 H3879 0.929 . S
C3891 C3885 1.390 . S
C3891 C3888 1.386 . S
C3892 C3887 1.490 . S
C3892 C3894 1.395 . S
C3892 C3895 1.403 . S
H3893 C3899 0.930 . S
C3894 H3880 0.930 . S
C3894 C3892 1.395 . S
C3894 C3897 1.403 . S
C3895 C3892 1.403 . S
C3895 C3896 1.524 . S
C3895 C3899 1.400 . S
C3896 H3881 0.960 . S
C3896 H3882 0.960 . S
C3896 H3883 0.960 . S
C3896 C3895 1.524 . S
C3897 C3894 1.403 . S
C3897 C3898 1.392 . S
C3897 C3901 1.495 . S
C3898 C3897 1.392 . S
C3898 C3899 1.385 . S
C3898 C3900 1.478 . S
C3899 H3893 0.930 . S
C3899 C3895 1.400 . S
C3899 C3898 1.385 . S
C3900 C3898 1.478 . S
C3900 C3902 1.381 . S
C3900 C3906 1.383 . S
C3901 C3897 1.495 . S
C3901 H3907 0.959 . S
C3901 H3908 0.961 . S
C3901 H3909 0.960 . S
C3902 C3900 1.381 . S
C3902 C3903 1.394 . S
C3902 H3910 0.930 . S
C3903 C3902 1.394 . S
C3903 C3904 1.383 . S
C3903 H3911 0.929 . S
C3904 C3903 1.383 . S
C3904 C3905 1.377 . S
C3905 H3889 0.930 . S
C3905 C3904 1.377 . S
C3905 C3906 1.379 . S
C3906 H3890 0.931 . S
C3906 C3900 1.383 . S
C3906 C3905 1.379 . S
H3907 C3901 0.959 . S
H3908 C3901 0.961 . S
H3909 C3901 0.960 . S
H3910 C3902 0.930 . S
H3911 C3903 0.929 . S
H3912 C3920 0.929 . S
H3913 C3922 0.930 . S
H3914 C3924 0.930 . S
H3915 C3927 0.929 . S
H3916 C3930 0.930 . S
H3917 C3932 0.960 . S
H3918 C3932 0.960 . S
H3919 C3932 0.960 . S
C3920 H3912 0.929 . S
C3920 C3921 1.377 . S
C3920 C3922 1.384 . S
C3921 C3920 1.377 . S
C3921 C3927 1.390 . S
C3922 H3913 0.930 . S
C3922 C3920 1.384 . S
C3922 C3923 1.372 . S
C3923 C3922 1.372 . S
C3923 C3924 1.400 . S
C3923 C3928 1.490 . S
C3924 H3914 0.930 . S
C3924 C3923 1.400 . S
C3924 C3927 1.386 . S
H3925 C3941 0.930 . S
H3926 C3942 0.931 . S
C3927 H3915 0.929 . S
C3927 C3921 1.390 . S
C3927 C3924 1.386 . S
C3928 C3923 1.490 . S
C3928 C3930 1.395 . S
C3928 C3931 1.403 . S
H3929 C3935 0.930 . S
C3930 H3916 0.930 . S
C3930 C3928 1.395 . S
C3930 C3933 1.403 . S
C3931 C3928 1.403 . S
C3931 C3932 1.524 . S
C3931 C3935 1.400 . S
C3932 H3917 0.960 . S
C3932 H3918 0.960 . S
C3932 H3919 0.960 . S
C3932 C3931 1.524 . S
C3933 C3930 1.403 . S
C3933 C3934 1.392 . S
C3933 C3937 1.495 . S
C3934 C3933 1.392 . S
C3934 C3935 1.385 . S
C3934 C3936 1.478 . S
C3935 H3929 0.930 . S
C3935 C3931 1.400 . S
C3935 C3934 1.385 . S
C3936 C3934 1.478 . S
C3936 C3938 1.381 . S
C3936 C3942 1.383 . S
C3937 C3933 1.495 . S
C3937 H3943 0.959 . S
C3937 H3944 0.961 . S
C3937 H3945 0.960 . S
C3938 C3936 1.381 . S
C3938 C3939 1.394 . S
C3938 H3946 0.930 . S
C3939 C3938 1.394 . S
C3939 C3940 1.383 . S
C3939 H3947 0.929 . S
C3940 C3939 1.383 . S
C3940 C3941 1.377 . S
C3941 H3925 0.930 . S
C3941 C3940 1.377 . S
C3941 C3942 1.379 . S
C3942 H3926 0.931 . S
C3942 C3936 1.383 . S
C3942 C3941 1.379 . S
H3943 C3937 0.959 . S
H3944 C3937 0.961 . S
H3945 C3937 0.960 . S
H3946 C3938 0.930 . S
H3947 C3939 0.929 . S
H3948 C3956 0.929 . S
H3949 C3958 0.930 . S
H3950 C3960 0.930 . S
H3951 C3963 0.929 . S
H3952 C3966 0.930 . S
H3953 C3968 0.960 . S
H3954 C3968 0.960 . S
H3955 C3968 0.960 . S
C3956 H3948 0.929 . S
C3956 C3957 1.377 . S
C3956 C3958 1.384 . S
C3957 C3956 1.377 . S
C3957 C3963 1.390 . S
C3958 H3949 0.930 . S
C3958 C3956 1.384 . S
C3958 C3959 1.372 . S
C3959 C3958 1.372 . S
C3959 C3960 1.400 . S
C3959 C3964 1.490 . S
C3960 H3950 0.930 . S
C3960 C3959 1.400 . S
C3960 C3963 1.386 . S
H3961 C3977 0.930 . S
H3962 C3978 0.931 . S
C3963 H3951 0.929 . S
C3963 C3957 1.390 . S
C3963 C3960 1.386 . S
C3964 C3959 1.490 . S
C3964 C3966 1.395 . S
C3964 C3967 1.403 . S
H3965 C3971 0.930 . S
C3966 H3952 0.930 . S
C3966 C3964 1.395 . S
C3966 C3969 1.403 . S
C3967 C3964 1.403 . S
C3967 C3968 1.524 . S
C3967 C3971 1.400 . S
C3968 H3953 0.960 . S
C3968 H3954 0.960 . S
C3968 H3955 0.960 . S
C3968 C3967 1.524 . S
C3969 C3966 1.403 . S
C3969 C3970 1.392 . S
C3969 C3973 1.495 . S
C3970 C3969 1.392 . S
C3970 C3971 1.385 . S
C3970 C3972 1.478 . S
C3971 H3965 0.930 . S
C3971 C3967 1.400 . S
C3971 C3970 1.385 . S
C3972 C3970 1.478 . S
C3972 C3974 1.381 . S
C3972 C3978 1.383 . S
C3973 C3969 1.495 . S
C3973 H3979 0.959 . S
C3973 H3980 0.961 . S
C3973 H3981 0.960 . S
C3974 C3972 1.381 . S
C3974 C3975 1.394 . S
C3974 H3982 0.930 . S
C3975 C3974 1.394 . S
C3975 C3976 1.383 . S
C3975 H3983 0.929 . S
C3976 C3975 1.383 . S
C3976 C3977 1.377 . S
C3977 H3961 0.930 . S
C3977 C3976 1.377 . S
C3977 C3978 1.379 . S
C3978 H3962 0.931 . S
C3978 C3972 1.383 . S
C3978 C3977 1.379 . S
H3979 C3973 0.959 . S
H3980 C3973 0.961 . S
H3981 C3973 0.960 . S
H3982 C3974 0.930 . S
H3983 C3975 0.929 . S
H3984 C3992 0.929 . S
H3985 C3994 0.930 . S
H3986 C3996 0.930 . S
H3987 C3999 0.929 . S
H3988 C4002 0.930 . S
H3989 C4004 0.960 . S
H3990 C4004 0.960 . S
H3991 C4004 0.960 . S
C3992 H3984 0.929 . S
C3992 C3993 1.377 . S
C3992 C3994 1.384 . S
C3993 C3992 1.377 . S
C3993 C3999 1.390 . S
C3994 H3985 0.930 . S
C3994 C3992 1.384 . S
C3994 C3995 1.372 . S
C3995 C3994 1.372 . S
C3995 C3996 1.400 . S
C3995 C4000 1.490 . S
C3996 H3986 0.930 . S
C3996 C3995 1.400 . S
C3996 C3999 1.386 . S
H3997 C4013 0.930 . S
H3998 C4014 0.931 . S
C3999 H3987 0.929 . S
C3999 C3993 1.390 . S
C3999 C3996 1.386 . S
C4000 C3995 1.490 . S
C4000 C4002 1.395 . S
C4000 C4003 1.403 . S
H4001 C4007 0.930 . S
C4002 H3988 0.930 . S
C4002 C4000 1.395 . S
C4002 C4005 1.403 . S
C4003 C4000 1.403 . S
C4003 C4004 1.524 . S
C4003 C4007 1.400 . S
C4004 H3989 0.960 . S
C4004 H3990 0.960 . S
C4004 H3991 0.960 . S
C4004 C4003 1.524 . S
C4005 C4002 1.403 . S
C4005 C4006 1.392 . S
C4005 C4009 1.495 . S
C4006 C4005 1.392 . S
C4006 C4007 1.385 . S
C4006 C4008 1.478 . S
C4007 H4001 0.930 . S
C4007 C4003 1.400 . S
C4007 C4006 1.385 . S
C4008 C4006 1.478 . S
C4008 C4010 1.381 . S
C4008 C4014 1.383 . S
C4009 C4005 1.495 . S
C4009 H4015 0.959 . S
C4009 H4016 0.961 . S
C4009 H4017 0.960 . S
C4010 C4008 1.381 . S
C4010 C4011 1.394 . S
C4010 H4018 0.930 . S
C4011 C4010 1.394 . S
C4011 C4012 1.383 . S
C4011 H4019 0.929 . S
C4012 C4011 1.383 . S
C4012 C4013 1.377 . S
C4013 H3997 0.930 . S
C4013 C4012 1.377 . S
C4013 C4014 1.379 . S
C4014 H3998 0.931 . S
C4014 C4008 1.383 . S
C4014 C4013 1.379 . S
H4015 C4009 0.959 . S
H4016 C4009 0.961 . S
H4017 C4009 0.960 . S
H4018 C4010 0.930 . S
H4019 C4011 0.929 . S
H4020 C4028 0.929 . S
H4021 C4030 0.930 . S
H4022 C4032 0.930 . S
H4023 C4035 0.929 . S
H4024 C4038 0.930 . S
H4025 C4040 0.960 . S
H4026 C4040 0.960 . S
H4027 C4040 0.960 . S
C4028 H4020 0.929 . S
C4028 C4029 1.377 . S
C4028 C4030 1.384 . S
C4029 C4028 1.377 . S
C4029 C4035 1.390 . S
C4030 H4021 0.930 . S
C4030 C4028 1.384 . S
C4030 C4031 1.372 . S
C4031 C4030 1.372 . S
C4031 C4032 1.400 . S
C4031 C4036 1.490 . S
C4032 H4022 0.930 . S
C4032 C4031 1.400 . S
C4032 C4035 1.386 . S
H4033 C4049 0.930 . S
H4034 C4050 0.931 . S
C4035 H4023 0.929 . S
C4035 C4029 1.390 . S
C4035 C4032 1.386 . S
C4036 C4031 1.490 . S
C4036 C4038 1.395 . S
C4036 C4039 1.403 . S
H4037 C4043 0.930 . S
C4038 H4024 0.930 . S
C4038 C4036 1.395 . S
C4038 C4041 1.403 . S
C4039 C4036 1.403 . S
C4039 C4040 1.524 . S
C4039 C4043 1.400 . S
C4040 H4025 0.960 . S
C4040 H4026 0.960 . S
C4040 H4027 0.960 . S
C4040 C4039 1.524 . S
C4041 C4038 1.403 . S
C4041 C4042 1.392 . S
C4041 C4045 1.495 . S
C4042 C4041 1.392 . S
C4042 C4043 1.385 . S
C4042 C4044 1.478 . S
C4043 H4037 0.930 . S
C4043 C4039 1.400 . S
C4043 C4042 1.385 . S
C4044 C4042 1.478 . S
C4044 C4046 1.381 . S
C4044 C4050 1.383 . S
C4045 C4041 1.495 . S
C4045 H4051 0.959 . S
C4045 H4052 0.961 . S
C4045 H4053 0.960 . S
C4046 C4044 1.381 . S
C4046 C4047 1.394 . S
C4046 H4054 0.930 . S
C4047 C4046 1.394 . S
C4047 C4048 1.383 . S
C4047 H4055 0.929 . S
C4048 C4047 1.383 . S
C4048 C4049 1.377 . S
C4049 H4033 0.930 . S
C4049 C4048 1.377 . S
C4049 C4050 1.379 . S
C4050 H4034 0.931 . S
C4050 C4044 1.383 . S
C4050 C4049 1.379 . S
H4051 C4045 0.959 . S
H4052 C4045 0.961 . S
H4053 C4045 0.960 . S
H4054 C4046 0.930 . S
H4055 C4047 0.929 . S
H4056 C4064 0.929 . S
H4057 C4066 0.930 . S
H4058 C4068 0.930 . S
H4059 C4071 0.929 . S
H4060 C4074 0.930 . S
H4061 C4076 0.960 . S
H4062 C4076 0.960 . S
H4063 C4076 0.960 . S
C4064 H4056 0.929 . S
C4064 C4065 1.377 . S
C4064 C4066 1.384 . S
C4065 C4064 1.377 . S
C4065 C4071 1.390 . S
C4066 H4057 0.930 . S
C4066 C4064 1.384 . S
C4066 C4067 1.372 . S
C4067 C4066 1.372 . S
C4067 C4068 1.400 . S
C4067 C4072 1.490 . S
C4068 H4058 0.930 . S
C4068 C4067 1.400 . S
C4068 C4071 1.386 . S
H4069 C4085 0.930 . S
H4070 C4086 0.931 . S
C4071 H4059 0.929 . S
C4071 C4065 1.390 . S
C4071 C4068 1.386 . S
C4072 C4067 1.490 . S
C4072 C4074 1.395 . S
C4072 C4075 1.403 . S
H4073 C4079 0.930 . S
C4074 H4060 0.930 . S
C4074 C4072 1.395 . S
C4074 C4077 1.403 . S
C4075 C4072 1.403 . S
C4075 C4076 1.524 . S
C4075 C4079 1.400 . S
C4076 H4061 0.960 . S
C4076 H4062 0.960 . S
C4076 H4063 0.960 . S
C4076 C4075 1.524 . S
C4077 C4074 1.403 . S
C4077 C4078 1.392 . S
C4077 C4081 1.495 . S
C4078 C4077 1.392 . S
C4078 C4079 1.385 . S
C4078 C4080 1.478 . S
C4079 H4073 0.930 . S
C4079 C4075 1.400 . S
C4079 C4078 1.385 . S
C4080 C4078 1.478 . S
C4080 C4082 1.381 . S
C4080 C4086 1.383 . S
C4081 C4077 1.495 . S
C4081 H4087 0.959 . S
C4081 H4088 0.961 . S
C4081 H4089 0.960 . S
C4082 C4080 1.381 . S
C4082 C4083 1.394 . S
C4082 H4090 0.930 . S
C4083 C4082 1.394 . S
C4083 C4084 1.383 . S
C4083 H4091 0.929 . S
C4084 C4083 1.383 . S
C4084 C4085 1.377 . S
C4085 H4069 0.930 . S
C4085 C4084 1.377 . S
C4085 C4086 1.379 . S
C4086 H4070 0.931 . S
C4086 C4080 1.383 . S
C4086 C4085 1.379 . S
H4087 C4081 0.959 . S
H4088 C4081 0.961 . S
H4089 C4081 0.960 . S
H4090 C4082 0.930 . S
H4091 C4083 0.929 . S
H4092 C4100 0.929 . S
H4093 C4102 0.930 . S
H4094 C4104 0.930 1_556 S
H4095 C4107 0.929 1_556 S
H4096 C4110 0.930 . S
H4097 C4112 0.960 . S
H4098 C4112 0.960 . S
H4099 C4112 0.960 . S
C4100 H4092 0.929 . S
C4100 C4101 1.377 . S
C4100 C4102 1.384 . S
C4101 C4100 1.377 . S
C4101 C4107 1.390 . S
C4102 H4093 0.930 . S
C4102 C4100 1.384 . S
C4102 C4103 1.372 . S
C4103 C4102 1.372 . S
C4103 C4104 1.400 . S
C4103 C4108 1.490 . S
C4104 H4094 0.930 1_554 S
C4104 C4103 1.400 . S
C4104 C4107 1.386 . S
H4105 C4121 0.930 1_556 S
H4106 C4122 0.931 1_556 S
C4107 H4095 0.929 1_554 S
C4107 C4101 1.390 . S
C4107 C4104 1.386 . S
C4108 C4103 1.490 . S
C4108 C4110 1.395 . S
C4108 C4111 1.403 . S
H4109 C4115 0.930 . S
C4110 H4096 0.930 . S
C4110 C4108 1.395 . S
C4110 C4113 1.403 . S
C4111 C4108 1.403 . S
C4111 C4112 1.524 1_565 S
C4111 C4115 1.400 1_565 S
C4112 H4097 0.960 . S
C4112 H4098 0.960 . S
C4112 H4099 0.960 . S
C4112 C4111 1.524 1_545 S
C4113 C4110 1.403 . S
C4113 C4114 1.392 . S
C4113 C4117 1.495 . S
C4114 C4113 1.392 . S
C4114 C4115 1.385 1_565 S
C4114 C4116 1.478 1_565 S
C4115 H4109 0.930 . S
C4115 C4111 1.400 1_545 S
C4115 C4114 1.385 1_545 S
C4116 C4114 1.478 1_545 S
C4116 C4118 1.381 . S
C4116 C4122 1.383 . S
C4117 C4113 1.495 . S
C4117 H4123 0.959 . S
C4117 H4124 0.981 . S
C4117 H4125 0.960 . S
C4118 C4116 1.381 . S
C4118 C4119 1.394 . S
C4118 H4126 0.930 1_545 S
C4119 C4118 1.394 . S
C4119 C4120 1.383 . S
C4119 H4127 0.929 . S
C4120 C4119 1.383 . S
C4120 C4121 1.377 . S
C4121 H4105 0.930 1_554 S
C4121 C4120 1.377 . S
C4121 C4122 1.379 . S
C4122 H4106 0.931 1_554 S
C4122 C4116 1.383 . S
C4122 C4121 1.379 . S
H4123 C4117 0.959 . S
H4124 C4117 0.981 . S
H4125 C4117 0.960 . S
H4126 C4118 0.930 1_565 S
H4127 C4119 0.929 . S
H4128 C4136 0.929 . S
H4129 C4138 0.930 . S
H4130 C4140 0.930 . S
H4131 C4143 0.929 . S
H4132 C4146 0.930 . S
H4133 C4148 0.960 . S
H4134 C4148 0.960 . S
H4135 C4148 0.960 . S
C4136 H4128 0.929 . S
C4136 C4137 1.377 . S
C4136 C4138 1.384 . S
C4137 C4136 1.377 . S
C4137 C4143 1.390 . S
C4138 H4129 0.930 . S
C4138 C4136 1.384 . S
C4138 C4139 1.372 . S
C4139 C4138 1.372 . S
C4139 C4140 1.400 . S
C4139 C4144 1.490 . S
C4140 H4130 0.930 . S
C4140 C4139 1.400 . S
C4140 C4143 1.386 . S
H4141 C4157 0.930 . S
H4142 C4158 0.931 . S
C4143 H4131 0.929 . S
C4143 C4137 1.390 . S
C4143 C4140 1.386 . S
C4144 C4139 1.490 . S
C4144 C4146 1.395 . S
C4144 C4147 1.403 . S
H4145 C4151 0.930 . S
C4146 H4132 0.930 . S
C4146 C4144 1.395 . S
C4146 C4149 1.403 . S
C4147 C4144 1.403 . S
C4147 C4148 1.524 . S
C4147 C4151 1.400 . S
C4148 H4133 0.960 . S
C4148 H4134 0.960 . S
C4148 H4135 0.960 . S
C4148 C4147 1.524 . S
C4149 C4146 1.403 . S
C4149 C4150 1.392 . S
C4149 C4153 1.495 . S
C4150 C4149 1.392 . S
C4150 C4151 1.385 . S
C4150 C4152 1.478 . S
C4151 H4145 0.930 . S
C4151 C4147 1.400 . S
C4151 C4150 1.385 . S
C4152 C4150 1.478 . S
C4152 C4154 1.381 . S
C4152 C4158 1.383 . S
C4153 C4149 1.495 . S
C4153 H4159 0.959 . S
C4153 H4160 0.961 . S
C4153 H4161 0.960 . S
C4154 C4152 1.381 . S
C4154 C4155 1.394 . S
C4154 H4162 0.930 . S
C4155 C4154 1.394 . S
C4155 C4156 1.383 . S
C4155 H4163 0.929 . S
C4156 C4155 1.383 . S
C4156 C4157 1.377 . S
C4157 H4141 0.930 . S
C4157 C4156 1.377 . S
C4157 C4158 1.379 . S
C4158 H4142 0.931 . S
C4158 C4152 1.383 . S
C4158 C4157 1.379 . S
H4159 C4153 0.959 . S
H4160 C4153 0.961 . S
H4161 C4153 0.960 . S
H4162 C4154 0.930 . S
H4163 C4155 0.929 . S
H4164 C4172 0.929 . S
H4165 C4174 0.930 . S
H4166 C4176 0.930 . S
H4167 C4179 0.929 . S
H4168 C4182 0.930 1_556 S
H4169 C4184 0.960 . S
H4170 C4184 0.960 . S
H4171 C4184 0.960 . S
C4172 H4164 0.929 . S
C4172 C4173 1.377 1_556 S
C4172 C4174 1.384 . S
C4173 C4172 1.377 1_554 S
C4173 C4179 1.390 . S
C4174 H4165 0.930 . S
C4174 C4172 1.384 . S
C4174 C4175 1.372 1_556 S
C4175 C4174 1.372 1_554 S
C4175 C4176 1.400 . S
C4175 C4180 1.490 . S
C4176 H4166 0.930 . S
C4176 C4175 1.400 . S
C4176 C4179 1.386 . S
H4177 C4193 0.930 . S
H4178 C4194 0.931 . S
C4179 H4167 0.929 . S
C4179 C4173 1.390 . S
C4179 C4176 1.386 . S
C4180 C4175 1.490 . S
C4180 C4182 1.395 . S
C4180 C4183 1.403 . S
H4181 C4187 0.930 . S
C4182 H4168 0.930 1_554 S
C4182 C4180 1.395 . S
C4182 C4185 1.403 . S
C4183 C4180 1.403 . S
C4183 C4184 1.524 . S
C4183 C4187 1.400 . S
C4184 H4169 0.960 . S
C4184 H4170 0.960 . S
C4184 H4171 0.960 . S
C4184 C4183 1.524 . S
C4185 C4182 1.403 . S
C4185 C4186 1.392 . S
C4185 C4189 1.495 1_554 S
C4186 C4185 1.392 . S
C4186 C4187 1.385 . S
C4186 C4188 1.478 . S
C4187 H4181 0.930 . S
C4187 C4183 1.400 . S
C4187 C4186 1.385 . S
C4188 C4186 1.478 . S
C4188 C4190 1.381 . S
C4188 C4194 1.383 . S
C4189 C4185 1.495 1_556 S
C4189 H4195 0.959 . S
C4189 H4196 0.961 1_556 S
C4189 H4197 0.960 . S
C4190 C4188 1.381 . S
C4190 C4191 1.394 . S
C4190 H4198 0.930 1_554 S
C4191 C4190 1.394 . S
C4191 C4192 1.383 . S
C4191 H4199 0.916 1_554 S
C4192 C4191 1.383 . S
C4192 C4193 1.377 . S
C4193 H4177 0.930 . S
C4193 C4192 1.377 . S
C4193 C4194 1.379 . S
C4194 H4178 0.931 . S
C4194 C4188 1.383 . S
C4194 C4193 1.379 . S
H4195 C4189 0.959 . S
H4196 C4189 0.961 1_554 S
H4197 C4189 0.960 . S
H4198 C4190 0.930 1_556 S
H4199 C4191 0.916 1_556 S
H4200 C4208 0.929 . S
H4201 C4210 0.930 . S
H4202 C4212 0.930 . S
H4203 C4215 0.929 . S
H4204 C4218 0.930 . S
H4205 C4220 0.960 . S
H4206 C4220 0.960 . S
H4207 C4220 0.960 . S
C4208 H4200 0.929 . S
C4208 C4209 1.377 . S
C4208 C4210 1.384 . S
C4209 C4208 1.377 . S
C4209 C4215 1.390 . S
C4210 H4201 0.930 . S
C4210 C4208 1.384 . S
C4210 C4211 1.372 . S
C4211 C4210 1.372 . S
C4211 C4212 1.400 . S
C4211 C4216 1.490 . S
C4212 H4202 0.930 . S
C4212 C4211 1.400 . S
C4212 C4215 1.386 . S
H4213 C4229 0.930 . S
H4214 C4230 0.931 . S
C4215 H4203 0.929 . S
C4215 C4209 1.390 . S
C4215 C4212 1.386 . S
C4216 C4211 1.490 . S
C4216 C4218 1.395 . S
C4216 C4219 1.403 . S
H4217 C4223 0.930 . S
C4218 H4204 0.930 . S
C4218 C4216 1.395 . S
C4218 C4221 1.403 . S
C4219 C4216 1.403 . S
C4219 C4220 1.524 . S
C4219 C4223 1.400 . S
C4220 H4205 0.960 . S
C4220 H4206 0.960 . S
C4220 H4207 0.960 . S
C4220 C4219 1.524 . S
C4221 C4218 1.403 . S
C4221 C4222 1.392 . S
C4221 C4225 1.495 . S
C4222 C4221 1.392 . S
C4222 C4223 1.385 . S
C4222 C4224 1.478 . S
C4223 H4217 0.930 . S
C4223 C4219 1.400 . S
C4223 C4222 1.385 . S
C4224 C4222 1.478 . S
C4224 C4226 1.381 . S
C4224 C4230 1.383 . S
C4225 C4221 1.495 . S
C4225 H4231 0.959 . S
C4225 H4232 0.961 . S
C4225 H4233 0.960 . S
C4226 C4224 1.381 . S
C4226 C4227 1.394 . S
C4226 H4234 0.930 . S
C4227 C4226 1.394 . S
C4227 C4228 1.383 . S
C4227 H4235 0.929 . S
C4228 C4227 1.383 . S
C4228 C4229 1.377 . S
C4229 H4213 0.930 . S
C4229 C4228 1.377 . S
C4229 C4230 1.379 . S
C4230 H4214 0.931 . S
C4230 C4224 1.383 . S
C4230 C4229 1.379 . S
H4231 C4225 0.959 . S
H4232 C4225 0.961 . S
H4233 C4225 0.960 . S
H4234 C4226 0.930 . S
H4235 C4227 0.929 . S
H4236 C4244 0.929 . S
H4237 C4246 0.930 . S
H4238 C4248 0.930 . S
H4239 C4251 0.929 . S
H4240 C4254 0.930 . S
H4241 C4256 0.960 . S
H4242 C4256 0.960 . S
H4243 C4256 0.960 . S
C4244 H4236 0.929 . S
C4244 C4245 1.377 . S
C4244 C4246 1.384 . S
C4245 C4244 1.377 . S
C4245 C4251 1.390 . S
C4246 H4237 0.930 . S
C4246 C4244 1.384 . S
C4246 C4247 1.372 . S
C4247 C4246 1.372 . S
C4247 C4248 1.400 . S
C4247 C4252 1.490 . S
C4248 H4238 0.930 . S
C4248 C4247 1.400 . S
C4248 C4251 1.386 . S
H4249 C4265 0.930 . S
H4250 C4266 0.931 . S
C4251 H4239 0.929 . S
C4251 C4245 1.390 . S
C4251 C4248 1.386 . S
C4252 C4247 1.490 . S
C4252 C4254 1.395 . S
C4252 C4255 1.403 . S
H4253 C4259 0.930 . S
C4254 H4240 0.930 . S
C4254 C4252 1.395 . S
C4254 C4257 1.403 . S
C4255 C4252 1.403 . S
C4255 C4256 1.524 . S
C4255 C4259 1.400 . S
C4256 H4241 0.960 . S
C4256 H4242 0.960 . S
C4256 H4243 0.960 . S
C4256 C4255 1.524 . S
C4257 C4254 1.403 . S
C4257 C4258 1.392 . S
C4257 C4261 1.495 . S
C4258 C4257 1.392 . S
C4258 C4259 1.385 . S
C4258 C4260 1.478 . S
C4259 H4253 0.930 . S
C4259 C4255 1.400 . S
C4259 C4258 1.385 . S
C4260 C4258 1.478 . S
C4260 C4262 1.381 . S
C4260 C4266 1.383 . S
C4261 C4257 1.495 . S
C4261 H4267 0.959 . S
C4261 H4268 0.961 . S
C4261 H4269 0.960 . S
C4262 C4260 1.381 . S
C4262 C4263 1.394 . S
C4262 H4270 0.930 . S
C4263 C4262 1.394 . S
C4263 C4264 1.383 . S
C4263 H4271 0.929 . S
C4264 C4263 1.383 . S
C4264 C4265 1.377 . S
C4265 H4249 0.930 . S
C4265 C4264 1.377 . S
C4265 C4266 1.379 . S
C4266 H4250 0.931 . S
C4266 C4260 1.383 . S
C4266 C4265 1.379 . S
H4267 C4261 0.959 . S
H4268 C4261 0.961 . S
H4269 C4261 0.960 . S
H4270 C4262 0.930 . S
H4271 C4263 0.929 . S
H4272 C4280 0.929 . S
H4273 C4282 0.930 . S
H4274 C4284 0.930 . S
H4275 C4287 0.929 . S
H4276 C4290 0.930 . S
H4277 C4292 0.960 . S
H4278 C4292 0.960 . S
H4279 C4292 0.960 . S
C4280 H4272 0.929 . S
C4280 C4281 1.377 . S
C4280 C4282 1.384 . S
C4281 C4280 1.377 . S
C4281 C4287 1.390 . S
C4282 H4273 0.930 . S
C4282 C4280 1.384 . S
C4282 C4283 1.372 . S
C4283 C4282 1.372 . S
C4283 C4284 1.400 . S
C4283 C4288 1.490 . S
C4284 H4274 0.930 . S
C4284 C4283 1.400 . S
C4284 C4287 1.386 . S
H4285 C4301 0.930 . S
H4286 C4302 0.931 . S
C4287 H4275 0.929 . S
C4287 C4281 1.390 . S
C4287 C4284 1.386 . S
C4288 C4283 1.490 . S
C4288 C4290 1.395 . S
C4288 C4291 1.403 . S
H4289 C4295 0.930 . S
C4290 H4276 0.930 . S
C4290 C4288 1.395 . S
C4290 C4293 1.403 . S
C4291 C4288 1.403 . S
C4291 C4292 1.524 . S
C4291 C4295 1.400 . S
C4292 H4277 0.960 . S
C4292 H4278 0.960 . S
C4292 H4279 0.960 . S
C4292 C4291 1.524 . S
C4293 C4290 1.403 . S
C4293 C4294 1.392 . S
C4293 C4297 1.495 . S
C4294 C4293 1.392 . S
C4294 C4295 1.385 . S
C4294 C4296 1.478 . S
C4295 H4289 0.930 . S
C4295 C4291 1.400 . S
C4295 C4294 1.385 . S
C4296 C4294 1.478 . S
C4296 C4298 1.381 . S
C4296 C4302 1.383 . S
C4297 C4293 1.495 . S
C4297 H4303 0.959 . S
C4297 H4304 0.961 . S
C4297 H4305 0.960 . S
C4298 C4296 1.381 . S
C4298 C4299 1.394 . S
C4298 H4306 0.930 . S
C4299 C4298 1.394 . S
C4299 C4300 1.383 . S
C4299 H4307 0.929 . S
C4300 C4299 1.383 . S
C4300 C4301 1.377 . S
C4301 H4285 0.930 . S
C4301 C4300 1.377 . S
C4301 C4302 1.379 . S
C4302 H4286 0.931 . S
C4302 C4296 1.383 . S
C4302 C4301 1.379 . S
H4303 C4297 0.959 . S
H4304 C4297 0.961 . S
H4305 C4297 0.960 . S
H4306 C4298 0.930 . S
H4307 C4299 0.929 . S
H4308 C4316 0.929 . S
H4309 C4318 0.930 . S
H4310 C4320 0.930 . S
H4311 C4323 0.929 . S
H4312 C4326 0.930 . S
H4313 C4328 0.960 . S
H4314 C4328 0.960 . S
H4315 C4328 0.960 . S
C4316 H4308 0.929 . S
C4316 C4317 1.377 . S
C4316 C4318 1.384 . S
C4317 C4316 1.377 . S
C4317 C4323 1.390 . S
C4318 H4309 0.930 . S
C4318 C4316 1.384 . S
C4318 C4319 1.372 . S
C4319 C4318 1.372 . S
C4319 C4320 1.400 . S
C4319 C4324 1.490 . S
C4320 H4310 0.930 . S
C4320 C4319 1.400 . S
C4320 C4323 1.386 . S
H4321 C4337 0.930 . S
H4322 C4338 0.931 . S
C4323 H4311 0.929 . S
C4323 C4317 1.390 . S
C4323 C4320 1.386 . S
C4324 C4319 1.490 . S
C4324 C4326 1.395 . S
C4324 C4327 1.403 . S
H4325 C4331 0.930 . S
C4326 H4312 0.930 . S
C4326 C4324 1.395 . S
C4326 C4329 1.403 . S
C4327 C4324 1.403 . S
C4327 C4328 1.524 . S
C4327 C4331 1.400 . S
C4328 H4313 0.960 . S
C4328 H4314 0.960 . S
C4328 H4315 0.960 . S
C4328 C4327 1.524 . S
C4329 C4326 1.403 . S
C4329 C4330 1.392 . S
C4329 C4333 1.495 . S
C4330 C4329 1.392 . S
C4330 C4331 1.385 . S
C4330 C4332 1.478 . S
C4331 H4325 0.930 . S
C4331 C4327 1.400 . S
C4331 C4330 1.385 . S
C4332 C4330 1.478 . S
C4332 C4334 1.381 . S
C4332 C4338 1.383 . S
C4333 C4329 1.495 . S
C4333 H4339 0.959 . S
C4333 H4340 0.961 . S
C4333 H4341 0.960 . S
C4334 C4332 1.381 . S
C4334 C4335 1.394 . S
C4334 H4342 0.930 . S
C4335 C4334 1.394 . S
C4335 C4336 1.383 . S
C4335 H4343 0.929 . S
C4336 C4335 1.383 . S
C4336 C4337 1.377 . S
C4337 H4321 0.930 . S
C4337 C4336 1.377 . S
C4337 C4338 1.379 . S
C4338 H4322 0.931 . S
C4338 C4332 1.383 . S
C4338 C4337 1.379 . S
H4339 C4333 0.959 . S
H4340 C4333 0.961 . S
H4341 C4333 0.960 . S
H4342 C4334 0.930 . S
H4343 C4335 0.929 . S
H4344 C4352 0.929 . S
H4345 C4354 0.930 . S
H4346 C4356 0.930 . S
H4347 C4359 0.929 . S
H4348 C4362 0.930 . S
H4349 C4364 0.960 . S
H4350 C4364 0.960 . S
H4351 C4364 0.960 . S
C4352 H4344 0.929 . S
C4352 C4353 1.377 . S
C4352 C4354 1.384 . S
C4353 C4352 1.377 . S
C4353 C4359 1.390 . S
C4354 H4345 0.930 . S
C4354 C4352 1.384 . S
C4354 C4355 1.372 . S
C4355 C4354 1.372 . S
C4355 C4356 1.400 . S
C4355 C4360 1.490 . S
C4356 H4346 0.930 . S
C4356 C4355 1.400 . S
C4356 C4359 1.386 . S
H4357 C4373 0.930 . S
H4358 C4374 0.931 . S
C4359 H4347 0.929 . S
C4359 C4353 1.390 . S
C4359 C4356 1.386 . S
C4360 C4355 1.490 . S
C4360 C4362 1.395 . S
C4360 C4363 1.403 . S
H4361 C4367 0.930 . S
C4362 H4348 0.930 . S
C4362 C4360 1.395 . S
C4362 C4365 1.403 . S
C4363 C4360 1.403 . S
C4363 C4364 1.524 . S
C4363 C4367 1.400 . S
C4364 H4349 0.960 . S
C4364 H4350 0.960 . S
C4364 H4351 0.960 . S
C4364 C4363 1.524 . S
C4365 C4362 1.403 . S
C4365 C4366 1.392 . S
C4365 C4369 1.495 . S
C4366 C4365 1.392 . S
C4366 C4367 1.385 . S
C4366 C4368 1.478 . S
C4367 H4361 0.930 . S
C4367 C4363 1.400 . S
C4367 C4366 1.385 . S
C4368 C4366 1.478 . S
C4368 C4370 1.381 . S
C4368 C4374 1.383 . S
C4369 C4365 1.495 . S
C4369 H4375 0.959 . S
C4369 H4376 0.961 . S
C4369 H4377 0.960 . S
C4370 C4368 1.381 . S
C4370 C4371 1.394 . S
C4370 H4378 0.930 . S
C4371 C4370 1.394 . S
C4371 C4372 1.383 . S
C4371 H4379 0.929 . S
C4372 C4371 1.383 . S
C4372 C4373 1.377 . S
C4373 H4357 0.930 . S
C4373 C4372 1.377 . S
C4373 C4374 1.379 . S
C4374 H4358 0.931 . S
C4374 C4368 1.383 . S
C4374 C4373 1.379 . S
H4375 C4369 0.959 . S
H4376 C4369 0.961 . S
H4377 C4369 0.960 . S
H4378 C4370 0.930 . S
H4379 C4371 0.929 . S
H4380 C4388 0.929 . S
H4381 C4390 0.930 . S
H4382 C4392 0.930 . S
H4383 C4395 0.929 . S
H4384 C4398 0.930 . S
H4385 C4400 0.960 . S
H4386 C4400 0.960 . S
H4387 C4400 0.960 . S
C4388 H4380 0.929 . S
C4388 C4389 1.377 . S
C4388 C4390 1.384 . S
C4389 C4388 1.377 . S
C4389 C4395 1.390 . S
C4390 H4381 0.930 . S
C4390 C4388 1.384 . S
C4390 C4391 1.372 . S
C4391 C4390 1.372 . S
C4391 C4392 1.400 . S
C4391 C4396 1.490 . S
C4392 H4382 0.930 . S
C4392 C4391 1.400 . S
C4392 C4395 1.386 . S
H4393 C4409 0.930 . S
H4394 C4410 0.931 . S
C4395 H4383 0.929 . S
C4395 C4389 1.390 . S
C4395 C4392 1.386 . S
C4396 C4391 1.490 . S
C4396 C4398 1.395 . S
C4396 C4399 1.403 . S
H4397 C4403 0.930 . S
C4398 H4384 0.930 . S
C4398 C4396 1.395 . S
C4398 C4401 1.403 . S
C4399 C4396 1.403 . S
C4399 C4400 1.524 . S
C4399 C4403 1.400 . S
C4400 H4385 0.960 . S
C4400 H4386 0.960 . S
C4400 H4387 0.960 . S
C4400 C4399 1.524 . S
C4401 C4398 1.403 . S
C4401 C4402 1.392 . S
C4401 C4405 1.495 . S
C4402 C4401 1.392 . S
C4402 C4403 1.385 . S
C4402 C4404 1.478 . S
C4403 H4397 0.930 . S
C4403 C4399 1.400 . S
C4403 C4402 1.385 . S
C4404 C4402 1.478 . S
C4404 C4406 1.381 . S
C4404 C4410 1.383 . S
C4405 C4401 1.495 . S
C4405 H4411 0.959 . S
C4405 H4412 0.961 . S
C4405 H4413 0.960 . S
C4406 C4404 1.381 . S
C4406 C4407 1.394 . S
C4406 H4414 0.930 . S
C4407 C4406 1.394 . S
C4407 C4408 1.383 . S
C4407 H4415 0.929 . S
C4408 C4407 1.383 . S
C4408 C4409 1.377 . S
C4409 H4393 0.930 . S
C4409 C4408 1.377 . S
C4409 C4410 1.379 . S
C4410 H4394 0.931 . S
C4410 C4404 1.383 . S
C4410 C4409 1.379 . S
H4411 C4405 0.959 . S
H4412 C4405 0.961 . S
H4413 C4405 0.960 . S
H4414 C4406 0.930 . S
H4415 C4407 0.929 . S
H4416 C4424 0.929 . S
H4417 C4426 0.930 . S
H4418 C4428 0.930 . S
H4419 C4431 0.929 . S
H4420 C4434 0.930 . S
H4421 C4436 0.960 . S
H4422 C4436 0.960 . S
H4423 C4436 0.960 . S
C4424 H4416 0.929 . S
C4424 C4425 1.377 . S
C4424 C4426 1.384 . S
C4425 C4424 1.377 . S
C4425 C4431 1.390 . S
C4426 H4417 0.930 . S
C4426 C4424 1.384 . S
C4426 C4427 1.372 . S
C4427 C4426 1.372 . S
C4427 C4428 1.400 . S
C4427 C4432 1.490 . S
C4428 H4418 0.930 . S
C4428 C4427 1.400 . S
C4428 C4431 1.386 . S
H4429 C4445 0.930 . S
H4430 C4446 0.931 . S
C4431 H4419 0.929 . S
C4431 C4425 1.390 . S
C4431 C4428 1.386 . S
C4432 C4427 1.490 . S
C4432 C4434 1.395 . S
C4432 C4435 1.403 . S
H4433 C4439 0.930 . S
C4434 H4420 0.930 . S
C4434 C4432 1.395 . S
C4434 C4437 1.403 . S
C4435 C4432 1.403 . S
C4435 C4436 1.524 . S
C4435 C4439 1.400 . S
C4436 H4421 0.960 . S
C4436 H4422 0.960 . S
C4436 H4423 0.960 . S
C4436 C4435 1.524 . S
C4437 C4434 1.403 . S
C4437 C4438 1.392 . S
C4437 C4441 1.495 . S
C4438 C4437 1.392 . S
C4438 C4439 1.385 . S
C4438 C4440 1.478 . S
C4439 H4433 0.930 . S
C4439 C4435 1.400 . S
C4439 C4438 1.385 . S
C4440 C4438 1.478 . S
C4440 C4442 1.381 . S
C4440 C4446 1.383 . S
C4441 C4437 1.495 . S
C4441 H4447 0.959 . S
C4441 H4448 0.961 . S
C4441 H4449 0.960 . S
C4442 C4440 1.381 . S
C4442 C4443 1.394 . S
C4442 H4450 0.930 . S
C4443 C4442 1.394 . S
C4443 C4444 1.383 . S
C4443 H4451 0.929 1_556 S
C4444 C4443 1.383 . S
C4444 C4445 1.377 . S
C4445 H4429 0.930 . S
C4445 C4444 1.377 . S
C4445 C4446 1.379 . S
C4446 H4430 0.931 . S
C4446 C4440 1.383 . S
C4446 C4445 1.379 . S
H4447 C4441 0.959 . S
H4448 C4441 0.961 . S
H4449 C4441 0.960 . S
H4450 C4442 0.930 . S
H4451 C4443 0.929 1_554 S
H4452 C4460 0.929 . S
H4453 C4462 0.930 . S
H4454 C4464 0.930 . S
H4455 C4467 0.929 . S
H4456 C4470 0.930 . S
H4457 C4472 0.960 . S
H4458 C4472 0.960 . S
H4459 C4472 0.960 . S
C4460 H4452 0.929 . S
C4460 C4461 1.377 . S
C4460 C4462 1.384 . S
C4461 C4460 1.377 . S
C4461 C4467 1.390 . S
C4462 H4453 0.930 . S
C4462 C4460 1.384 . S
C4462 C4463 1.372 . S
C4463 C4462 1.372 . S
C4463 C4464 1.400 . S
C4463 C4468 1.490 . S
C4464 H4454 0.930 . S
C4464 C4463 1.400 . S
C4464 C4467 1.386 . S
H4465 C4481 0.930 . S
H4466 C4482 0.931 . S
C4467 H4455 0.929 . S
C4467 C4461 1.390 . S
C4467 C4464 1.386 . S
C4468 C4463 1.490 . S
C4468 C4470 1.395 . S
C4468 C4471 1.403 . S
H4469 C4475 0.930 . S
C4470 H4456 0.930 . S
C4470 C4468 1.395 . S
C4470 C4473 1.403 . S
C4471 C4468 1.403 . S
C4471 C4472 1.524 . S
C4471 C4475 1.400 . S
C4472 H4457 0.960 . S
C4472 H4458 0.960 . S
C4472 H4459 0.960 . S
C4472 C4471 1.524 . S
C4473 C4470 1.403 . S
C4473 C4474 1.392 . S
C4473 C4477 1.495 . S
C4474 C4473 1.392 . S
C4474 C4475 1.385 . S
C4474 C4476 1.478 . S
C4475 H4469 0.930 . S
C4475 C4471 1.400 . S
C4475 C4474 1.385 . S
C4476 C4474 1.478 . S
C4476 C4478 1.381 . S
C4476 C4482 1.383 . S
C4477 C4473 1.495 . S
C4477 H4483 0.959 . S
C4477 H4484 0.961 . S
C4477 H4485 0.960 . S
C4478 C4476 1.381 . S
C4478 C4479 1.394 . S
C4478 H4486 0.930 . S
C4479 C4478 1.394 . S
C4479 C4480 1.383 . S
C4479 H4487 0.929 . S
C4480 C4479 1.383 . S
C4480 C4481 1.377 . S
C4481 H4465 0.930 . S
C4481 C4480 1.377 . S
C4481 C4482 1.379 . S
C4482 H4466 0.931 . S
C4482 C4476 1.383 . S
C4482 C4481 1.379 . S
H4483 C4477 0.959 . S
H4484 C4477 0.961 . S
H4485 C4477 0.960 . S
H4486 C4478 0.930 . S
H4487 C4479 0.929 . S
H4488 C4496 0.929 . S
H4489 C4498 0.930 . S
H4490 C4500 0.930 . S
H4491 C4503 0.929 . S
H4492 C4506 0.930 . S
H4493 C4508 0.960 . S
H4494 C4508 0.960 . S
H4495 C4508 0.960 . S
C4496 H4488 0.929 . S
C4496 C4497 1.377 . S
C4496 C4498 1.384 . S
C4497 C4496 1.377 . S
C4497 C4503 1.390 . S
C4498 H4489 0.930 . S
C4498 C4496 1.384 . S
C4498 C4499 1.372 . S
C4499 C4498 1.372 . S
C4499 C4500 1.400 . S
C4499 C4504 1.490 . S
C4500 H4490 0.930 . S
C4500 C4499 1.400 . S
C4500 C4503 1.386 . S
H4501 C4517 0.930 . S
H4502 C4518 0.931 . S
C4503 H4491 0.929 . S
C4503 C4497 1.390 . S
C4503 C4500 1.386 . S
C4504 C4499 1.490 . S
C4504 C4506 1.395 . S
C4504 C4507 1.403 . S
H4505 C4511 0.930 . S
C4506 H4492 0.930 . S
C4506 C4504 1.395 . S
C4506 C4509 1.403 . S
C4507 C4504 1.403 . S
C4507 C4508 1.524 . S
C4507 C4511 1.400 . S
C4508 H4493 0.960 . S
C4508 H4494 0.960 . S
C4508 H4495 0.960 . S
C4508 C4507 1.524 . S
C4509 C4506 1.403 . S
C4509 C4510 1.392 . S
C4509 C4513 1.495 . S
C4510 C4509 1.392 . S
C4510 C4511 1.385 . S
C4510 C4512 1.478 . S
C4511 H4505 0.930 . S
C4511 C4507 1.400 . S
C4511 C4510 1.385 . S
C4512 C4510 1.478 . S
C4512 C4514 1.381 . S
C4512 C4518 1.383 . S
C4513 C4509 1.495 . S
C4513 H4519 0.959 . S
C4513 H4520 0.961 . S
C4513 H4521 0.960 . S
C4514 C4512 1.381 . S
C4514 C4515 1.394 . S
C4514 H4522 0.930 . S
C4515 C4514 1.394 . S
C4515 C4516 1.383 . S
C4515 H4523 0.929 . S
C4516 C4515 1.383 . S
C4516 C4517 1.377 . S
C4517 H4501 0.930 . S
C4517 C4516 1.377 . S
C4517 C4518 1.379 . S
C4518 H4502 0.931 . S
C4518 C4512 1.383 . S
C4518 C4517 1.379 . S
H4519 C4513 0.959 . S
H4520 C4513 0.961 . S
H4521 C4513 0.960 . S
H4522 C4514 0.930 . S
H4523 C4515 0.929 . S
H4524 C4532 0.929 . S
H4525 C4534 0.930 . S
H4526 C4536 0.930 . S
H4527 C4539 0.929 . S
H4528 C4542 0.930 . S
H4529 C4544 0.960 . S
H4530 C4544 0.960 . S
H4531 C4544 0.960 . S
C4532 H4524 0.929 . S
C4532 C4533 1.377 . S
C4532 C4534 1.384 . S
C4533 C4532 1.377 . S
C4533 C4539 1.390 . S
C4534 H4525 0.930 . S
C4534 C4532 1.384 . S
C4534 C4535 1.372 . S
C4535 C4534 1.372 . S
C4535 C4536 1.400 . S
C4535 C4540 1.490 . S
C4536 H4526 0.930 . S
C4536 C4535 1.400 . S
C4536 C4539 1.386 . S
H4537 C4553 0.930 . S
H4538 C4554 0.931 . S
C4539 H4527 0.929 . S
C4539 C4533 1.390 . S
C4539 C4536 1.386 . S
C4540 C4535 1.490 . S
C4540 C4542 1.395 . S
C4540 C4543 1.403 . S
H4541 C4547 0.930 . S
C4542 H4528 0.930 . S
C4542 C4540 1.395 . S
C4542 C4545 1.403 . S
C4543 C4540 1.403 . S
C4543 C4544 1.524 . S
C4543 C4547 1.400 . S
C4544 H4529 0.960 . S
C4544 H4530 0.960 . S
C4544 H4531 0.960 . S
C4544 C4543 1.524 . S
C4545 C4542 1.403 . S
C4545 C4546 1.392 . S
C4545 C4549 1.495 . S
C4546 C4545 1.392 . S
C4546 C4547 1.385 . S
C4546 C4548 1.478 . S
C4547 H4541 0.930 . S
C4547 C4543 1.400 . S
C4547 C4546 1.385 . S
C4548 C4546 1.478 . S
C4548 C4550 1.381 . S
C4548 C4554 1.383 . S
C4549 C4545 1.495 . S
C4549 H4555 0.959 . S
C4549 H4556 0.961 . S
C4549 H4557 0.960 . S
C4550 C4548 1.381 . S
C4550 C4551 1.394 . S
C4550 H4558 0.930 . S
C4551 C4550 1.394 . S
C4551 C4552 1.383 . S
C4551 H4559 0.929 . S
C4552 C4551 1.383 . S
C4552 C4553 1.377 . S
C4553 H4537 0.930 . S
C4553 C4552 1.377 . S
C4553 C4554 1.379 . S
C4554 H4538 0.931 . S
C4554 C4548 1.383 . S
C4554 C4553 1.379 . S
H4555 C4549 0.959 . S
H4556 C4549 0.961 . S
H4557 C4549 0.960 . S
H4558 C4550 0.930 . S
H4559 C4551 0.929 . S
H4560 C4568 0.929 . S
H4561 C4570 0.930 . S
H4562 C4572 0.930 . S
H4563 C4575 0.929 . S
H4564 C4578 0.930 . S
H4565 C4580 0.960 . S
H4566 C4580 0.960 . S
H4567 C4580 0.960 . S
C4568 H4560 0.929 . S
C4568 C4569 1.377 . S
C4568 C4570 1.384 . S
C4569 C4568 1.377 . S
C4569 C4575 1.390 . S
C4570 H4561 0.930 . S
C4570 C4568 1.384 . S
C4570 C4571 1.372 . S
C4571 C4570 1.372 . S
C4571 C4572 1.400 . S
C4571 C4576 1.490 . S
C4572 H4562 0.930 . S
C4572 C4571 1.400 . S
C4572 C4575 1.386 . S
H4573 C4589 0.930 . S
H4574 C4590 0.931 . S
C4575 H4563 0.929 . S
C4575 C4569 1.390 . S
C4575 C4572 1.386 . S
C4576 C4571 1.490 . S
C4576 C4578 1.395 . S
C4576 C4579 1.403 . S
H4577 C4583 0.930 . S
C4578 H4564 0.930 . S
C4578 C4576 1.395 . S
C4578 C4581 1.403 . S
C4579 C4576 1.403 . S
C4579 C4580 1.524 . S
C4579 C4583 1.400 . S
C4580 H4565 0.960 . S
C4580 H4566 0.960 . S
C4580 H4567 0.960 . S
C4580 C4579 1.524 . S
C4581 C4578 1.403 . S
C4581 C4582 1.392 . S
C4581 C4585 1.495 . S
C4582 C4581 1.392 . S
C4582 C4583 1.385 . S
C4582 C4584 1.478 . S
C4583 H4577 0.930 . S
C4583 C4579 1.400 . S
C4583 C4582 1.385 . S
C4584 C4582 1.478 . S
C4584 C4586 1.381 . S
C4584 C4590 1.383 . S
C4585 C4581 1.495 . S
C4585 H4591 0.959 . S
C4585 H4592 0.961 . S
C4585 H4593 0.960 . S
C4586 C4584 1.381 . S
C4586 C4587 1.394 . S
C4586 H4594 0.930 . S
C4587 C4586 1.394 . S
C4587 C4588 1.383 . S
C4587 H4595 0.929 . S
C4588 C4587 1.383 . S
C4588 C4589 1.377 . S
C4589 H4573 0.930 . S
C4589 C4588 1.377 . S
C4589 C4590 1.379 . S
C4590 H4574 0.931 . S
C4590 C4584 1.383 . S
C4590 C4589 1.379 . S
H4591 C4585 0.959 . S
H4592 C4585 0.961 . S
H4593 C4585 0.960 . S
H4594 C4586 0.930 . S
H4595 C4587 0.929 . S
H4596 C4604 0.929 . S
H4597 C4606 0.930 . S
H4598 C4608 0.930 . S
H4599 C4611 0.929 . S
H4600 C4614 0.930 . S
H4601 C4616 0.960 . S
H4602 C4616 0.960 . S
H4603 C4616 0.960 . S
C4604 H4596 0.929 . S
C4604 C4605 1.377 . S
C4604 C4606 1.384 . S
C4605 C4604 1.377 . S
C4605 C4611 1.390 . S
C4606 H4597 0.930 . S
C4606 C4604 1.384 . S
C4606 C4607 1.372 . S
C4607 C4606 1.372 . S
C4607 C4608 1.400 . S
C4607 C4612 1.490 . S
C4608 H4598 0.930 . S
C4608 C4607 1.400 . S
C4608 C4611 1.386 . S
H4609 C4625 0.930 . S
H4610 C4626 0.931 . S
C4611 H4599 0.929 . S
C4611 C4605 1.390 . S
C4611 C4608 1.386 . S
C4612 C4607 1.490 . S
C4612 C4614 1.395 . S
C4612 C4615 1.403 . S
H4613 C4619 0.930 . S
C4614 H4600 0.930 . S
C4614 C4612 1.395 . S
C4614 C4617 1.403 . S
C4615 C4612 1.403 . S
C4615 C4616 1.524 . S
C4615 C4619 1.400 . S
C4616 H4601 0.960 . S
C4616 H4602 0.960 . S
C4616 H4603 0.960 . S
C4616 C4615 1.524 . S
C4617 C4614 1.403 . S
C4617 C4618 1.392 . S
C4617 C4621 1.495 . S
C4618 C4617 1.392 . S
C4618 C4619 1.385 . S
C4618 C4620 1.478 . S
C4619 H4613 0.930 . S
C4619 C4615 1.400 . S
C4619 C4618 1.385 . S
C4620 C4618 1.478 . S
C4620 C4622 1.381 . S
C4620 C4626 1.383 . S
C4621 C4617 1.495 . S
C4621 H4627 0.959 . S
C4621 H4628 0.961 . S
C4621 H4629 0.960 . S
C4622 C4620 1.381 . S
C4622 C4623 1.394 . S
C4622 H4630 0.930 . S
C4623 C4622 1.394 . S
C4623 C4624 1.383 . S
C4623 H4631 0.929 . S
C4624 C4623 1.383 . S
C4624 C4625 1.377 . S
C4625 H4609 0.930 . S
C4625 C4624 1.377 . S
C4625 C4626 1.379 . S
C4626 H4610 0.931 . S
C4626 C4620 1.383 . S
C4626 C4625 1.379 . S
H4627 C4621 0.959 . S
H4628 C4621 0.961 . S
H4629 C4621 0.960 . S
H4630 C4622 0.930 . S
H4631 C4623 0.929 . S
H4632 C4640 0.929 . S
H4633 C4642 0.930 . S
H4634 C4644 0.930 . S
H4635 C4647 0.929 . S
H4636 C4650 0.930 . S
H4637 C4652 0.960 1_455 S
H4638 C4652 0.960 . S
H4639 C4652 0.960 . S
C4640 H4632 0.929 . S
C4640 C4641 1.377 . S
C4640 C4642 1.384 . S
C4641 C4640 1.377 . S
C4641 C4647 1.390 . S
C4642 H4633 0.930 . S
C4642 C4640 1.384 . S
C4642 C4643 1.372 . S
C4643 C4642 1.372 . S
C4643 C4644 1.400 . S
C4643 C4648 1.490 . S
C4644 H4634 0.930 . S
C4644 C4643 1.400 . S
C4644 C4647 1.386 . S
H4645 C4661 0.930 . S
H4646 C4662 0.931 . S
C4647 H4635 0.929 . S
C4647 C4641 1.390 . S
C4647 C4644 1.386 . S
C4648 C4643 1.490 . S
C4648 C4650 1.395 . S
C4648 C4651 1.403 . S
H4649 C4655 0.930 1_455 S
C4650 H4636 0.930 . S
C4650 C4648 1.395 . S
C4650 C4653 1.403 . S
C4651 C4648 1.403 . S
C4651 C4652 1.524 . S
C4651 C4655 1.400 . S
C4652 H4637 0.960 1_655 S
C4652 H4638 0.960 . S
C4652 H4639 0.960 . S
C4652 C4651 1.524 . S
C4653 C4650 1.403 . S
C4653 C4654 1.392 . S
C4653 C4657 1.495 . S
C4654 C4653 1.392 . S
C4654 C4655 1.385 . S
C4654 C4656 1.478 1_655 S
C4655 H4649 0.930 1_655 S
C4655 C4651 1.400 . S
C4655 C4654 1.385 . S
C4656 C4654 1.478 1_455 S
C4656 C4658 1.381 . S
C4656 C4662 1.383 . S
C4657 C4653 1.495 . S
C4657 H4663 0.959 . S
C4657 H4664 0.961 . S
C4657 H4665 0.960 . S
C4658 C4656 1.381 . S
C4658 C4659 1.394 . S
C4658 H4666 0.930 . S
C4659 C4658 1.394 . S
C4659 C4660 1.383 . S
C4659 H4667 0.929 . S
C4660 C4659 1.383 . S
C4660 C4661 1.377 . S
C4661 H4645 0.930 . S
C4661 C4660 1.377 . S
C4661 C4662 1.379 . S
C4662 H4646 0.931 . S
C4662 C4656 1.383 . S
C4662 C4661 1.379 . S
H4663 C4657 0.959 . S
H4664 C4657 0.961 . S
H4665 C4657 0.960 . S
H4666 C4658 0.930 . S
H4667 C4659 0.929 . S
H4668 C4676 0.929 . S
H4669 C4678 0.930 . S
H4670 C4680 0.930 . S
H4671 C4683 0.929 . S
H4672 C4686 0.930 . S
H4673 C4688 0.960 . S
H4674 C4688 0.960 . S
H4675 C4688 0.960 . S
C4676 H4668 0.929 . S
C4676 C4677 1.377 . S
C4676 C4678 1.384 . S
C4677 C4676 1.377 . S
C4677 C4683 1.390 . S
C4678 H4669 0.930 . S
C4678 C4676 1.384 . S
C4678 C4679 1.372 . S
C4679 C4678 1.372 . S
C4679 C4680 1.400 . S
C4679 C4684 1.490 . S
C4680 H4670 0.930 . S
C4680 C4679 1.400 . S
C4680 C4683 1.386 . S
H4681 C4697 0.930 . S
H4682 C4698 0.931 . S
C4683 H4671 0.929 . S
C4683 C4677 1.390 . S
C4683 C4680 1.386 . S
C4684 C4679 1.490 . S
C4684 C4686 1.395 . S
C4684 C4687 1.403 . S
H4685 C4691 0.930 . S
C4686 H4672 0.930 . S
C4686 C4684 1.395 . S
C4686 C4689 1.403 . S
C4687 C4684 1.403 . S
C4687 C4688 1.524 . S
C4687 C4691 1.400 . S
C4688 H4673 0.960 . S
C4688 H4674 0.960 . S
C4688 H4675 0.960 . S
C4688 C4687 1.524 . S
C4689 C4686 1.403 . S
C4689 C4690 1.392 . S
C4689 C4693 1.495 . S
C4690 C4689 1.392 . S
C4690 C4691 1.385 . S
C4690 C4692 1.478 . S
C4691 H4685 0.930 . S
C4691 C4687 1.400 . S
C4691 C4690 1.385 . S
C4692 C4690 1.478 . S
C4692 C4694 1.381 . S
C4692 C4698 1.383 . S
C4693 C4689 1.495 . S
C4693 H4699 0.959 . S
C4693 H4700 0.961 . S
C4693 H4701 0.960 . S
C4694 C4692 1.381 . S
C4694 C4695 1.394 . S
C4694 H4702 0.930 . S
C4695 C4694 1.394 . S
C4695 C4696 1.383 . S
C4695 H4703 0.929 . S
C4696 C4695 1.383 . S
C4696 C4697 1.377 . S
C4697 H4681 0.930 . S
C4697 C4696 1.377 . S
C4697 C4698 1.379 . S
C4698 H4682 0.931 . S
C4698 C4692 1.383 . S
C4698 C4697 1.379 . S
H4699 C4693 0.959 . S
H4700 C4693 0.961 . S
H4701 C4693 0.960 . S
H4702 C4694 0.930 . S
H4703 C4695 0.929 . S
H4704 C4712 0.929 . S
H4705 C4714 0.930 . S
H4706 C4716 0.930 . S
H4707 C4719 0.929 . S
H4708 C4722 0.930 . S
H4709 C4724 0.960 . S
H4710 C4724 0.960 . S
H4711 C4724 0.960 . S
C4712 H4704 0.929 . S
C4712 C4713 1.377 . S
C4712 C4714 1.384 . S
C4713 C4712 1.377 . S
C4713 C4719 1.390 . S
C4714 H4705 0.930 . S
C4714 C4712 1.384 . S
C4714 C4715 1.372 . S
C4715 C4714 1.372 . S
C4715 C4716 1.400 . S
C4715 C4720 1.490 . S
C4716 H4706 0.930 . S
C4716 C4715 1.400 . S
C4716 C4719 1.386 . S
H4717 C4733 0.930 . S
H4718 C4734 0.931 . S
C4719 H4707 0.929 . S
C4719 C4713 1.390 . S
C4719 C4716 1.386 . S
C4720 C4715 1.490 . S
C4720 C4722 1.395 . S
C4720 C4723 1.403 . S
H4721 C4727 0.930 . S
C4722 H4708 0.930 . S
C4722 C4720 1.395 . S
C4722 C4725 1.403 . S
C4723 C4720 1.403 . S
C4723 C4724 1.524 . S
C4723 C4727 1.400 . S
C4724 H4709 0.960 . S
C4724 H4710 0.960 . S
C4724 H4711 0.960 . S
C4724 C4723 1.524 . S
C4725 C4722 1.403 . S
C4725 C4726 1.392 . S
C4725 C4729 1.495 . S
C4726 C4725 1.392 . S
C4726 C4727 1.385 . S
C4726 C4728 1.478 . S
C4727 H4721 0.930 . S
C4727 C4723 1.400 . S
C4727 C4726 1.385 . S
C4728 C4726 1.478 . S
C4728 C4730 1.381 . S
C4728 C4734 1.383 . S
C4729 C4725 1.495 . S
C4729 H4735 0.959 . S
C4729 H4736 0.961 . S
C4729 H4737 0.960 . S
C4730 C4728 1.381 . S
C4730 C4731 1.394 . S
C4730 H4738 0.930 . S
C4731 C4730 1.394 . S
C4731 C4732 1.383 . S
C4731 H4739 0.929 . S
C4732 C4731 1.383 . S
C4732 C4733 1.377 . S
C4733 H4717 0.930 . S
C4733 C4732 1.377 . S
C4733 C4734 1.379 . S
C4734 H4718 0.931 . S
C4734 C4728 1.383 . S
C4734 C4733 1.379 . S
H4735 C4729 0.959 . S
H4736 C4729 0.961 . S
H4737 C4729 0.960 . S
H4738 C4730 0.930 . S
H4739 C4731 0.929 . S
H4740 C4748 0.929 . S
H4741 C4750 0.930 . S
H4742 C4752 0.930 . S
H4743 C4755 0.929 . S
H4744 C4758 0.930 . S
H4745 C4760 0.960 . S
H4746 C4760 0.960 . S
H4747 C4760 0.960 . S
C4748 H4740 0.929 . S
C4748 C4749 1.377 . S
C4748 C4750 1.384 . S
C4749 C4748 1.377 . S
C4749 C4755 1.390 . S
C4750 H4741 0.930 . S
C4750 C4748 1.384 . S
C4750 C4751 1.372 . S
C4751 C4750 1.372 . S
C4751 C4752 1.400 . S
C4751 C4756 1.490 . S
C4752 H4742 0.930 . S
C4752 C4751 1.400 . S
C4752 C4755 1.386 . S
H4753 C4769 0.930 . S
H4754 C4770 0.931 . S
C4755 H4743 0.929 . S
C4755 C4749 1.390 . S
C4755 C4752 1.386 . S
C4756 C4751 1.490 . S
C4756 C4758 1.395 . S
C4756 C4759 1.403 . S
H4757 C4763 0.930 . S
C4758 H4744 0.930 . S
C4758 C4756 1.395 . S
C4758 C4761 1.403 . S
C4759 C4756 1.403 . S
C4759 C4760 1.524 . S
C4759 C4763 1.400 . S
C4760 H4745 0.960 . S
C4760 H4746 0.960 . S
C4760 H4747 0.960 . S
C4760 C4759 1.524 . S
C4761 C4758 1.403 . S
C4761 C4762 1.392 . S
C4761 C4765 1.495 . S
C4762 C4761 1.392 . S
C4762 C4763 1.385 . S
C4762 C4764 1.478 . S
C4763 H4757 0.930 . S
C4763 C4759 1.400 . S
C4763 C4762 1.385 . S
C4764 C4762 1.478 . S
C4764 C4766 1.381 . S
C4764 C4770 1.383 . S
C4765 C4761 1.495 . S
C4765 H4771 0.959 . S
C4765 H4772 0.961 . S
C4765 H4773 0.960 . S
C4766 C4764 1.381 . S
C4766 C4767 1.394 . S
C4766 H4774 0.930 . S
C4767 C4766 1.394 . S
C4767 C4768 1.383 . S
C4767 H4775 0.929 . S
C4768 C4767 1.383 . S
C4768 C4769 1.377 . S
C4769 H4753 0.930 . S
C4769 C4768 1.377 . S
C4769 C4770 1.379 . S
C4770 H4754 0.931 . S
C4770 C4764 1.383 . S
C4770 C4769 1.379 . S
H4771 C4765 0.959 . S
H4772 C4765 0.961 . S
H4773 C4765 0.960 . S
H4774 C4766 0.930 . S
H4775 C4767 0.929 . S
H4776 C4784 0.929 . S
H4777 C4786 0.930 . S
H4778 C4788 0.930 . S
H4779 C4791 0.929 . S
H4780 C4794 0.930 . S
H4781 C4796 0.960 . S
H4782 C4796 0.960 . S
H4783 C4796 0.960 . S
C4784 H4776 0.929 . S
C4784 C4785 1.377 . S
C4784 C4786 1.384 . S
C4785 C4784 1.377 . S
C4785 C4791 1.390 . S
C4786 H4777 0.930 . S
C4786 C4784 1.384 . S
C4786 C4787 1.372 . S
C4787 C4786 1.372 . S
C4787 C4788 1.400 . S
C4787 C4792 1.490 . S
C4788 H4778 0.930 . S
C4788 C4787 1.400 . S
C4788 C4791 1.386 . S
H4789 C4805 0.930 . S
H4790 C4806 0.931 . S
C4791 H4779 0.929 . S
C4791 C4785 1.390 . S
C4791 C4788 1.386 . S
C4792 C4787 1.490 . S
C4792 C4794 1.395 . S
C4792 C4795 1.403 . S
H4793 C4799 0.930 . S
C4794 H4780 0.930 . S
C4794 C4792 1.395 . S
C4794 C4797 1.403 . S
C4795 C4792 1.403 . S
C4795 C4796 1.524 . S
C4795 C4799 1.400 . S
C4796 H4781 0.960 . S
C4796 H4782 0.960 . S
C4796 H4783 0.960 . S
C4796 C4795 1.524 . S
C4797 C4794 1.403 . S
C4797 C4798 1.392 . S
C4797 C4801 1.495 1_655 S
C4798 C4797 1.392 . S
C4798 C4799 1.385 . S
C4798 C4800 1.478 . S
C4799 H4793 0.930 . S
C4799 C4795 1.400 . S
C4799 C4798 1.385 . S
C4800 C4798 1.478 . S
C4800 C4802 1.381 . S
C4800 C4806 1.383 . S
C4801 C4797 1.495 1_455 S
C4801 H4807 0.959 . S
C4801 H4808 0.961 . S
C4801 H4809 0.960 . S
C4802 C4800 1.381 . S
C4802 C4803 1.394 1_655 S
C4802 H4810 0.930 . S
C4803 C4802 1.394 1_455 S
C4803 C4804 1.383 . S
C4803 H4811 0.929 . S
C4804 C4803 1.383 . S
C4804 C4805 1.377 1_455 S
C4805 H4789 0.930 . S
C4805 C4804 1.377 1_655 S
C4805 C4806 1.379 . S
C4806 H4790 0.931 . S
C4806 C4800 1.383 . S
C4806 C4805 1.379 . S
H4807 C4801 0.959 . S
H4808 C4801 0.961 . S
H4809 C4801 0.960 . S
H4810 C4802 0.930 . S
H4811 C4803 0.929 . S
H4812 C4820 0.929 . S
H4813 C4822 0.930 . S
H4814 C4824 0.930 . S
H4815 C4827 0.929 . S
H4816 C4830 0.930 . S
H4817 C4832 0.960 . S
H4818 C4832 0.960 . S
H4819 C4832 0.960 . S
C4820 H4812 0.929 . S
C4820 C4821 1.377 . S
C4820 C4822 1.384 . S
C4821 C4820 1.377 . S
C4821 C4827 1.390 . S
C4822 H4813 0.930 . S
C4822 C4820 1.384 . S
C4822 C4823 1.372 . S
C4823 C4822 1.372 . S
C4823 C4824 1.400 . S
C4823 C4828 1.490 . S
C4824 H4814 0.930 . S
C4824 C4823 1.400 . S
C4824 C4827 1.386 . S
H4825 C4841 0.930 . S
H4826 C4842 0.931 . S
C4827 H4815 0.929 . S
C4827 C4821 1.390 . S
C4827 C4824 1.386 . S
C4828 C4823 1.490 . S
C4828 C4830 1.395 . S
C4828 C4831 1.403 . S
H4829 C4835 0.930 . S
C4830 H4816 0.930 . S
C4830 C4828 1.395 . S
C4830 C4833 1.403 . S
C4831 C4828 1.403 . S
C4831 C4832 1.524 . S
C4831 C4835 1.400 . S
C4832 H4817 0.960 . S
C4832 H4818 0.960 . S
C4832 H4819 0.960 . S
C4832 C4831 1.524 . S
C4833 C4830 1.403 . S
C4833 C4834 1.392 . S
C4833 C4837 1.495 . S
C4834 C4833 1.392 . S
C4834 C4835 1.385 . S
C4834 C4836 1.478 . S
C4835 H4829 0.930 . S
C4835 C4831 1.400 . S
C4835 C4834 1.385 . S
C4836 C4834 1.478 . S
C4836 C4838 1.381 . S
C4836 C4842 1.383 . S
C4837 C4833 1.495 . S
C4837 H4843 0.959 . S
C4837 H4844 0.961 . S
C4837 H4845 0.960 . S
C4838 C4836 1.381 . S
C4838 C4839 1.394 . S
C4838 H4846 0.930 . S
C4839 C4838 1.394 . S
C4839 C4840 1.383 . S
C4839 H4847 0.929 . S
C4840 C4839 1.383 . S
C4840 C4841 1.377 . S
C4841 H4825 0.930 . S
C4841 C4840 1.377 . S
C4841 C4842 1.379 . S
C4842 H4826 0.931 . S
C4842 C4836 1.383 . S
C4842 C4841 1.379 . S
H4843 C4837 0.959 . S
H4844 C4837 0.961 . S
H4845 C4837 0.960 . S
H4846 C4838 0.930 . S
H4847 C4839 0.929 . S
H4848 C4856 0.929 . S
H4849 C4858 0.930 . S
H4850 C4860 0.930 . S
H4851 C4863 0.929 . S
H4852 C4866 0.930 . S
H4853 C4868 0.960 . S
H4854 C4868 0.960 . S
H4855 C4868 0.960 . S
C4856 H4848 0.929 . S
C4856 C4857 1.377 . S
C4856 C4858 1.384 . S
C4857 C4856 1.377 . S
C4857 C4863 1.390 . S
C4858 H4849 0.930 . S
C4858 C4856 1.384 . S
C4858 C4859 1.372 . S
C4859 C4858 1.372 . S
C4859 C4860 1.400 . S
C4859 C4864 1.490 . S
C4860 H4850 0.930 . S
C4860 C4859 1.400 . S
C4860 C4863 1.386 . S
H4861 C4877 0.930 . S
H4862 C4878 0.931 . S
C4863 H4851 0.929 . S
C4863 C4857 1.390 . S
C4863 C4860 1.386 . S
C4864 C4859 1.490 . S
C4864 C4866 1.395 . S
C4864 C4867 1.403 . S
H4865 C4871 0.930 . S
C4866 H4852 0.930 . S
C4866 C4864 1.395 . S
C4866 C4869 1.403 . S
C4867 C4864 1.403 . S
C4867 C4868 1.524 . S
C4867 C4871 1.400 . S
C4868 H4853 0.960 . S
C4868 H4854 0.960 . S
C4868 H4855 0.960 . S
C4868 C4867 1.524 . S
C4869 C4866 1.403 . S
C4869 C4870 1.392 . S
C4869 C4873 1.495 . S
C4870 C4869 1.392 . S
C4870 C4871 1.385 . S
C4870 C4872 1.478 . S
C4871 H4865 0.930 . S
C4871 C4867 1.400 . S
C4871 C4870 1.385 . S
C4872 C4870 1.478 . S
C4872 C4874 1.381 . S
C4872 C4878 1.383 . S
C4873 C4869 1.495 . S
C4873 H4879 0.959 . S
C4873 H4880 0.961 . S
C4873 H4881 0.960 . S
C4874 C4872 1.381 . S
C4874 C4875 1.394 . S
C4874 H4882 0.930 . S
C4875 C4874 1.394 . S
C4875 C4876 1.383 . S
C4875 H4883 0.929 . S
C4876 C4875 1.383 . S
C4876 C4877 1.377 . S
C4877 H4861 0.930 . S
C4877 C4876 1.377 . S
C4877 C4878 1.379 . S
C4878 H4862 0.931 . S
C4878 C4872 1.383 . S
C4878 C4877 1.379 . S
H4879 C4873 0.959 . S
H4880 C4873 0.961 . S
H4881 C4873 0.960 . S
H4882 C4874 0.930 . S
H4883 C4875 0.929 . S
H4884 C4892 0.929 . S
H4885 C4894 0.930 . S
H4886 C4896 0.930 . S
H4887 C4899 0.929 . S
H4888 C4902 0.930 . S
H4889 C4904 0.960 . S
H4890 C4904 0.960 . S
H4891 C4904 0.960 . S
C4892 H4884 0.929 . S
C4892 C4893 1.377 . S
C4892 C4894 1.384 . S
C4893 C4892 1.377 . S
C4893 C4899 1.390 . S
C4894 H4885 0.930 . S
C4894 C4892 1.384 . S
C4894 C4895 1.372 . S
C4895 C4894 1.372 . S
C4895 C4896 1.400 . S
C4895 C4900 1.490 . S
C4896 H4886 0.930 . S
C4896 C4895 1.400 . S
C4896 C4899 1.386 . S
H4897 C4913 0.930 1_455 S
H4898 C4914 0.931 . S
C4899 H4887 0.929 . S
C4899 C4893 1.390 . S
C4899 C4896 1.386 . S
C4900 C4895 1.490 . S
C4900 C4902 1.395 . S
C4900 C4903 1.403 . S
H4901 C4907 0.930 . S
C4902 H4888 0.930 . S
C4902 C4900 1.395 . S
C4902 C4905 1.403 . S
C4903 C4900 1.403 . S
C4903 C4904 1.524 . S
C4903 C4907 1.400 . S
C4904 H4889 0.960 . S
C4904 H4890 0.960 . S
C4904 H4891 0.960 . S
C4904 C4903 1.524 . S
C4905 C4902 1.403 . S
C4905 C4906 1.392 . S
C4905 C4909 1.495 . S
C4906 C4905 1.392 . S
C4906 C4907 1.385 . S
C4906 C4908 1.478 . S
C4907 H4901 0.930 . S
C4907 C4903 1.400 . S
C4907 C4906 1.385 . S
C4908 C4906 1.478 . S
C4908 C4910 1.438 . S
C4908 C4914 1.383 . S
C4909 C4905 1.495 . S
C4909 H4915 0.958 . S
C4909 H4916 0.959 . S
C4909 H4917 0.960 1_565 S
C4910 C4908 1.438 . S
C4910 C4911 1.374 1_565 S
C4910 H4918 0.897 1_565 S
C4911 C4910 1.374 1_545 S
C4911 C4912 1.383 . S
C4911 H4919 0.929 . S
C4912 C4911 1.383 . S
C4912 C4913 1.377 1_545 S
C4913 H4897 0.930 1_655 S
C4913 C4912 1.377 1_565 S
C4913 C4914 1.379 . S
C4914 H4898 0.931 . S
C4914 C4908 1.383 . S
C4914 C4913 1.379 . S
H4915 C4909 0.958 . S
H4916 C4909 0.959 . S
H4917 C4909 0.960 1_545 S
H4918 C4910 0.897 1_545 S
H4919 C4911 0.929 . S
H4920 C4928 0.929 . S
H4921 C4930 0.930 . S
H4922 C4932 0.930 . S
H4923 C4935 0.929 . S
H4924 C4938 0.930 . S
H4925 C4940 0.960 . S
H4926 C4940 0.960 . S
H4927 C4940 0.960 . S
C4928 H4920 0.929 . S
C4928 C4929 1.377 . S
C4928 C4930 1.384 . S
C4929 C4928 1.377 . S
C4929 C4935 1.390 . S
C4930 H4921 0.930 . S
C4930 C4928 1.384 . S
C4930 C4931 1.372 . S
C4931 C4930 1.372 . S
C4931 C4932 1.400 . S
C4931 C4936 1.490 . S
C4932 H4922 0.930 . S
C4932 C4931 1.400 . S
C4932 C4935 1.386 . S
H4933 C4949 0.930 . S
H4934 C4950 0.931 . S
C4935 H4923 0.929 . S
C4935 C4929 1.390 . S
C4935 C4932 1.386 . S
C4936 C4931 1.490 . S
C4936 C4938 1.395 . S
C4936 C4939 1.403 . S
H4937 C4943 0.930 . S
C4938 H4924 0.930 . S
C4938 C4936 1.395 . S
C4938 C4941 1.403 . S
C4939 C4936 1.403 . S
C4939 C4940 1.524 . S
C4939 C4943 1.400 . S
C4940 H4925 0.960 . S
C4940 H4926 0.960 . S
C4940 H4927 0.960 . S
C4940 C4939 1.524 . S
C4941 C4938 1.403 . S
C4941 C4942 1.392 . S
C4941 C4945 1.495 . S
C4942 C4941 1.392 . S
C4942 C4943 1.385 . S
C4942 C4944 1.478 . S
C4943 H4937 0.930 . S
C4943 C4939 1.400 . S
C4943 C4942 1.385 . S
C4944 C4942 1.478 . S
C4944 C4946 1.381 . S
C4944 C4950 1.383 . S
C4945 C4941 1.495 . S
C4945 H4951 0.959 . S
C4945 H4952 0.961 . S
C4945 H4953 0.960 . S
C4946 C4944 1.381 . S
C4946 C4947 1.394 . S
C4946 H4954 0.930 . S
C4947 C4946 1.394 . S
C4947 C4948 1.383 . S
C4947 H4955 0.929 . S
C4948 C4947 1.383 . S
C4948 C4949 1.377 . S
C4949 H4933 0.930 . S
C4949 C4948 1.377 . S
C4949 C4950 1.379 . S
C4950 H4934 0.931 . S
C4950 C4944 1.383 . S
C4950 C4949 1.379 . S
H4951 C4945 0.959 . S
H4952 C4945 0.961 . S
H4953 C4945 0.960 . S
H4954 C4946 0.930 . S
H4955 C4947 0.929 . S
H4956 C4964 0.929 1_556 S
H4957 C4966 0.930 1_556 S
H4958 C4968 0.930 . S
H4959 C4971 0.929 . S
H4960 C4974 0.930 . S
H4961 C4976 0.960 . S
H4962 C4976 0.960 . S
H4963 C4976 0.960 . S
C4964 H4956 0.929 1_554 S
C4964 C4965 1.377 . S
C4964 C4966 1.384 . S
C4965 C4964 1.377 . S
C4965 C4971 1.390 . S
C4966 H4957 0.930 1_554 S
C4966 C4964 1.384 . S
C4966 C4967 1.372 . S
C4967 C4966 1.372 . S
C4967 C4968 1.400 . S
C4967 C4972 1.490 . S
C4968 H4958 0.930 . S
C4968 C4967 1.400 . S
C4968 C4971 1.386 . S
H4969 C4985 0.930 . S
H4970 C4986 0.931 . S
C4971 H4959 0.929 . S
C4971 C4965 1.390 . S
C4971 C4968 1.386 . S
C4972 C4967 1.490 . S
C4972 C4974 1.395 . S
C4972 C4975 1.403 . S
H4973 C4979 0.930 . S
C4974 H4960 0.930 . S
C4974 C4972 1.395 . S
C4974 C4977 1.403 . S
C4975 C4972 1.403 . S
C4975 C4976 1.524 . S
C4975 C4979 1.400 . S
C4976 H4961 0.960 . S
C4976 H4962 0.960 . S
C4976 H4963 0.960 . S
C4976 C4975 1.524 . S
C4977 C4974 1.403 . S
C4977 C4978 1.392 . S
C4977 C4981 1.492 1_554 S
C4978 C4977 1.392 . S
C4978 C4979 1.385 . S
C4978 C4980 1.478 . S
C4979 H4973 0.930 . S
C4979 C4975 1.400 . S
C4979 C4978 1.385 . S
C4980 C4978 1.478 . S
C4980 C4982 1.371 1_554 S
C4980 C4986 1.383 . S
C4981 C4977 1.492 1_556 S
C4981 H4987 0.964 . S
C4981 H4988 0.949 1_556 S
C4981 H4989 0.970 . S
C4982 C4980 1.371 1_556 S
C4982 C4983 1.392 1_556 S
C4982 H4990 0.943 . S
C4983 C4982 1.392 1_554 S
C4983 C4984 1.384 . S
C4983 H4991 0.928 1_554 S
C4984 C4983 1.384 . S
C4984 C4985 1.377 . S
C4985 H4969 0.930 . S
C4985 C4984 1.377 . S
C4985 C4986 1.379 . S
C4986 H4970 0.931 . S
C4986 C4980 1.383 . S
C4986 C4985 1.379 . S
H4987 C4981 0.964 . S
H4988 C4981 0.949 1_554 S
H4989 C4981 0.970 . S
H4990 C4982 0.943 . S
H4991 C4983 0.928 1_556 S
H4992 C5000 0.929 . S
H4993 C5002 0.930 . S
H4994 C5004 0.930 . S
H4995 C5007 0.929 . S
H4996 C5010 0.930 . S
H4997 C5012 0.960 . S
H4998 C5012 0.960 . S
H4999 C5012 0.960 . S
C5000 H4992 0.929 . S
C5000 C5001 1.377 . S
C5000 C5002 1.384 . S
C5001 C5000 1.377 . S
C5001 C5007 1.390 . S
C5002 H4993 0.930 . S
C5002 C5000 1.384 . S
C5002 C5003 1.372 . S
C5003 C5002 1.372 . S
C5003 C5004 1.400 . S
C5003 C5008 1.490 . S
C5004 H4994 0.930 . S
C5004 C5003 1.400 . S
C5004 C5007 1.386 . S
H5005 C5021 0.930 . S
H5006 C5022 0.931 . S
C5007 H4995 0.929 . S
C5007 C5001 1.390 . S
C5007 C5004 1.386 . S
C5008 C5003 1.490 . S
C5008 C5010 1.395 . S
C5008 C5011 1.403 . S
H5009 C5015 0.930 . S
C5010 H4996 0.930 . S
C5010 C5008 1.395 . S
C5010 C5013 1.403 . S
C5011 C5008 1.403 . S
C5011 C5012 1.524 . S
C5011 C5015 1.400 . S
C5012 H4997 0.960 . S
C5012 H4998 0.960 . S
C5012 H4999 0.960 . S
C5012 C5011 1.524 . S
C5013 C5010 1.403 . S
C5013 C5014 1.392 . S
C5013 C5017 1.495 . S
C5014 C5013 1.392 . S
C5014 C5015 1.385 . S
C5014 C5016 1.478 . S
C5015 H5009 0.930 . S
C5015 C5011 1.400 . S
C5015 C5014 1.385 . S
C5016 C5014 1.478 . S
C5016 C5018 1.381 . S
C5016 C5022 1.383 . S
C5017 C5013 1.495 . S
C5017 H5023 0.959 . S
C5017 H5024 0.961 . S
C5017 H5025 0.960 . S
C5018 C5016 1.381 . S
C5018 C5019 1.394 . S
C5018 H5026 0.930 . S
C5019 C5018 1.394 . S
C5019 C5020 1.383 . S
C5019 H5027 0.929 . S
C5020 C5019 1.383 . S
C5020 C5021 1.377 . S
C5021 H5005 0.930 . S
C5021 C5020 1.377 . S
C5021 C5022 1.379 . S
C5022 H5006 0.931 . S
C5022 C5016 1.383 . S
C5022 C5021 1.379 . S
H5023 C5017 0.959 . S
H5024 C5017 0.961 . S
H5025 C5017 0.960 . S
H5026 C5018 0.930 . S
H5027 C5019 0.929 . S
H5028 C5036 0.929 . S
H5029 C5038 0.930 . S
H5030 C5040 0.930 . S
H5031 C5043 0.929 . S
H5032 C5046 0.930 . S
H5033 C5048 0.960 . S
H5034 C5048 0.960 . S
H5035 C5048 0.960 . S
C5036 H5028 0.929 . S
C5036 C5037 1.377 . S
C5036 C5038 1.384 . S
C5037 C5036 1.377 . S
C5037 C5043 1.390 . S
C5038 H5029 0.930 . S
C5038 C5036 1.384 . S
C5038 C5039 1.372 . S
C5039 C5038 1.372 . S
C5039 C5040 1.400 . S
C5039 C5044 1.490 . S
C5040 H5030 0.930 . S
C5040 C5039 1.400 . S
C5040 C5043 1.386 . S
H5041 C5057 0.939 . S
H5042 C5058 0.931 1_556 S
C5043 H5031 0.929 . S
C5043 C5037 1.390 . S
C5043 C5040 1.386 . S
C5044 C5039 1.490 . S
C5044 C5046 1.395 . S
C5044 C5047 1.403 . S
H5045 C5051 0.930 . S
C5046 H5032 0.930 . S
C5046 C5044 1.395 . S
C5046 C5049 1.403 . S
C5047 C5044 1.403 . S
C5047 C5048 1.524 . S
C5047 C5051 1.400 . S
C5048 H5033 0.960 . S
C5048 H5034 0.960 . S
C5048 H5035 0.960 . S
C5048 C5047 1.524 . S
C5049 C5046 1.403 . S
C5049 C5050 1.392 . S
C5049 C5053 1.495 . S
C5050 C5049 1.392 . S
C5050 C5051 1.385 . S
C5050 C5052 1.478 . S
C5051 H5045 0.930 . S
C5051 C5047 1.400 . S
C5051 C5050 1.385 . S
C5052 C5050 1.478 . S
C5052 C5054 1.381 . S
C5052 C5058 1.383 . S
C5053 C5049 1.495 . S
C5053 H5059 0.959 . S
C5053 H5060 0.961 . S
C5053 H5061 0.960 . S
C5054 C5052 1.381 . S
C5054 C5055 1.394 . S
C5054 H5062 0.930 . S
C5055 C5054 1.394 . S
C5055 C5056 1.383 . S
C5055 H5063 0.929 . S
C5056 C5055 1.383 . S
C5056 C5057 1.370 1_554 S
C5057 H5041 0.939 . S
C5057 C5056 1.370 1_556 S
C5057 C5058 1.377 1_556 S
C5058 H5042 0.931 1_554 S
C5058 C5052 1.383 . S
C5058 C5057 1.377 1_554 S
H5059 C5053 0.959 . S
H5060 C5053 0.961 . S
H5061 C5053 0.960 . S
H5062 C5054 0.930 . S
H5063 C5055 0.929 . S
H5064 C5072 0.929 1_545 S
H5065 C5074 0.930 . S
H5066 C5076 0.930 . S
H5067 C5079 0.929 . S
H5068 C5082 0.930 . S
H5069 C5084 0.960 . S
H5070 C5084 0.960 . S
H5071 C5084 0.960 . S
C5072 H5064 0.929 1_565 S
C5072 C5073 1.377 . S
C5072 C5074 1.384 . S
C5073 C5072 1.377 . S
C5073 C5079 1.390 . S
C5074 H5065 0.930 . S
C5074 C5072 1.384 . S
C5074 C5075 1.372 . S
C5075 C5074 1.372 . S
C5075 C5076 1.400 . S
C5075 C5080 1.490 . S
C5076 H5066 0.930 . S
C5076 C5075 1.400 . S
C5076 C5079 1.386 . S
H5077 C5093 0.930 . S
H5078 C5094 0.931 . S
C5079 H5067 0.929 . S
C5079 C5073 1.390 . S
C5079 C5076 1.386 . S
C5080 C5075 1.490 . S
C5080 C5082 1.395 . S
C5080 C5083 1.403 . S
H5081 C5087 0.930 . S
C5082 H5068 0.930 . S
C5082 C5080 1.395 . S
C5082 C5085 1.403 . S
C5083 C5080 1.403 . S
C5083 C5084 1.524 . S
C5083 C5087 1.400 . S
C5084 H5069 0.960 . S
C5084 H5070 0.960 . S
C5084 H5071 0.960 . S
C5084 C5083 1.524 . S
C5085 C5082 1.403 . S
C5085 C5086 1.392 . S
C5085 C5089 1.495 . S
C5086 C5085 1.392 . S
C5086 C5087 1.385 . S
C5086 C5088 1.478 . S
C5087 H5081 0.930 . S
C5087 C5083 1.400 . S
C5087 C5086 1.385 . S
C5088 C5086 1.478 . S
C5088 C5090 1.381 . S
C5088 C5094 1.383 . S
C5089 C5085 1.495 . S
C5089 H5095 0.959 . S
C5089 H5096 0.961 . S
C5089 H5097 0.960 . S
C5090 C5088 1.381 . S
C5090 C5091 1.394 . S
C5090 H5098 0.930 . S
C5091 C5090 1.394 . S
C5091 C5092 1.383 . S
C5091 H5099 0.929 . S
C5092 C5091 1.383 . S
C5092 C5093 1.377 . S
C5093 H5077 0.930 . S
C5093 C5092 1.377 . S
C5093 C5094 1.379 . S
C5094 H5078 0.931 . S
C5094 C5088 1.383 . S
C5094 C5093 1.379 . S
H5095 C5089 0.959 . S
H5096 C5089 0.961 . S
H5097 C5089 0.960 . S
H5098 C5090 0.930 . S
H5099 C5091 0.929 . S
H5100 C5108 0.929 . S
H5101 C5110 0.930 . S
H5102 C5112 0.930 . S
H5103 C5115 0.929 . S
H5104 C5118 0.930 . S
H5105 C5120 0.960 . S
H5106 C5120 0.960 . S
H5107 C5120 0.960 . S
C5108 H5100 0.929 . S
C5108 C5109 1.377 . S
C5108 C5110 1.384 . S
C5109 C5108 1.377 . S
C5109 C5115 1.390 . S
C5110 H5101 0.930 . S
C5110 C5108 1.384 . S
C5110 C5111 1.372 . S
C5111 C5110 1.372 . S
C5111 C5112 1.400 . S
C5111 C5116 1.490 . S
C5112 H5102 0.930 . S
C5112 C5111 1.400 . S
C5112 C5115 1.386 . S
H5113 C5129 0.930 . S
H5114 C5130 0.931 . S
C5115 H5103 0.929 . S
C5115 C5109 1.390 . S
C5115 C5112 1.386 . S
C5116 C5111 1.490 . S
C5116 C5118 1.395 . S
C5116 C5119 1.403 . S
H5117 C5123 0.930 . S
C5118 H5104 0.930 . S
C5118 C5116 1.395 . S
C5118 C5121 1.403 . S
C5119 C5116 1.403 . S
C5119 C5120 1.524 . S
C5119 C5123 1.400 . S
C5120 H5105 0.960 . S
C5120 H5106 0.960 . S
C5120 H5107 0.960 . S
C5120 C5119 1.524 . S
C5121 C5118 1.403 . S
C5121 C5122 1.392 . S
C5121 C5125 1.495 . S
C5122 C5121 1.392 . S
C5122 C5123 1.385 . S
C5122 C5124 1.478 . S
C5123 H5117 0.930 . S
C5123 C5119 1.400 . S
C5123 C5122 1.385 . S
C5124 C5122 1.478 . S
C5124 C5126 1.381 . S
C5124 C5130 1.383 . S
C5125 C5121 1.495 . S
C5125 H5131 0.959 . S
C5125 H5132 0.961 . S
C5125 H5133 0.960 . S
C5126 C5124 1.381 . S
C5126 C5127 1.394 . S
C5126 H5134 0.930 . S
C5127 C5126 1.394 . S
C5127 C5128 1.383 . S
C5127 H5135 0.929 . S
C5128 C5127 1.383 . S
C5128 C5129 1.377 . S
C5129 H5113 0.930 . S
C5129 C5128 1.377 . S
C5129 C5130 1.379 . S
C5130 H5114 0.931 . S
C5130 C5124 1.383 . S
C5130 C5129 1.379 . S
H5131 C5125 0.959 . S
H5132 C5125 0.961 . S
H5133 C5125 0.960 . S
H5134 C5126 0.930 . S
H5135 C5127 0.929 . S
C1689 C109 1.582 . S
C1708 C392 1.427 . S
C1725 C65 2.218 . S
C1744 C483 2.135 . S
C1761 C75 1.450 . S
C1780 C560 1.352 . S
C1816 C658 1.587 . S
C1797 C84 1.728 . S
C1833 C25 1.574 . S
C1852 C742 1.540 . S
C1888 C814 0.923 . S
C1869 C28 0.908 . S
C1924 C903 0.650 . S
C1905 C47 0.688 . S
C1941 C9 1.290 . S
C1960 C980 1.188 . S
C1996 C399 1.998 . S
C1977 C233 2.117 . S
C2013 C249 0.532 . S
C2032 C490 0.655 . S
C2068 C567 1.193 . S
C2049 C275 1.266 . S
C2104 C644 1.496 . S
C2085 C173 1.532 1_556 S
C2121 C224 2.065 . S
C2140 C728 1.965 . S
C2176 C830 1.089 . S
C2157 C243 1.144 . S
C2212 C910 0.686 . S
C2193 C266 0.727 . S
C2248 C987 1.273 . S
C2229 C179 1.380 . S
C2284 C406 1.466 . S
C2265 C163 1.577 . S
C2301 C289 2.016 . S
C2320 C1071 1.917 . S
C2356 C1159 2.100 . S
C2337 C333 2.270 . S
C2392 C1232 0.427 . S
C2373 C308 0.270 . S
C2409 C123 0.710 . S
C2428 C994 0.754 . S
C2445 C126 1.460 . S
C2464 C574 1.400 . S
C2481 C327 2.379 . S
C2500 C1323 2.264 . S
C2536 C1400 0.737 . S
C2517 C299 0.752 . S
C2572 C403 1.443 1_565 S
C2553 C67 1.608 . S
C2608 C1418 2.174 . S
C2589 C98 2.194 . S
C2625 C89 1.492 . S
C2644 C571 1.418 . S
C2661 C79 1.798 . S
C2680 C1318 1.670 . S
C2716 C730 1.551 . S
C2697 C11 1.595 . S
C2733 C51 0.950 . S
C2752 C1162 0.957 . S
C2788 C914 0.732 1_566 S
C2769 C33 0.770 . S
C2824 C1495 1.179 . S
C2805 C14 1.293 . S
C2860 C410 1.995 . S
C2841 C140 2.108 . S
C2896 C1402 0.562 . S
C2877 C319 0.544 . S
C2913 C112 1.255 . S
C2932 C578 1.255 . S
C2949 C285 1.609 . S
C2968 C1327 1.462 . S
C2985 C149 2.136 . S
C3004 C739 1.996 . S
C3040 C1155 1.089 . S
C3021 C313 1.187 . S
C3057 C121 0.789 . S
C3076 C898 0.778 . S
C3093 C291 1.431 . S
C3112 C1502 1.343 . S
C3129 C182 1.577 . S
C3148 C394 1.441 . S
C3165 C168 2.012 . S
C3184 C1082 1.961 . S
C3201 C263 2.329 . S
C3220 C812 2.161 . S
C3237 C247 0.318 . S
C3256 C1243 0.523 . S
C3292 C1486 0.680 . S
C3273 C277 0.680 1_565 S
C3309 C219 1.517 . S
C3328 C562 1.460 . S
C3364 C662 2.346 . S
C3345 C257 2.426 . S
C3400 C487 0.693 . S
C3381 C201 0.764 . S
C3417 C81 1.583 . S
C3436 C1568 1.441 . S
C3472 C1407 2.137 . S
C3453 C93 2.216 . S
C3489 C103 1.453 . S
C3508 C1652 1.322 . S
C3525 C56 1.727 . S
C3544 C1330 1.605 . S
C3561 C53 1.577 . S
C3580 C1078 1.514 . S
C3616 C1150 0.811 . S
C3597 C0 0.902 . S
C3652 C1239 0.738 . S
C3633 C19 0.689 . S
C3688 C1484 1.157 . S
C3669 C37 1.292 . S
C3724 C1575 2.002 . S
C3705 C261 2.117 . S
C3741 C193 0.537 . S
C3760 C1414 0.588 . S
C3796 C1659 1.220 . S
C3777 C205 1.267 . S
C3832 C1316 1.481 . S
C3813 C215 1.581 . S
C3868 C1064 1.959 . S
C3849 C252 2.068 . S
C3885 C187 1.144 . S
C3904 C1166 1.105 . S
C3940 C1246 0.672 . S
C3921 C196 0.723 . S
C3957 C221 1.378 . S
C3976 C1491 1.241 . S
C4012 C1582 1.493 . S
C3993 C317 1.577 . S
C4029 C135 2.016 . S
C4048 C735 1.950 . S
C4084 C823 2.115 . S
C4065 C151 2.278 . S
C4120 C896 0.446 . S
C4101 C154 0.289 . S
C4156 C1498 0.735 . S
C4137 C305 0.714 . S
C4173 C280 1.461 . S
C4192 C1666 1.436 . S
C4228 C651 2.286 . S
C4209 C145 2.372 . S
C4264 C476 0.702 . S
C4245 C117 0.752 . S
C4281 C95 1.611 . S
C4300 C1579 1.517 . S
C4336 C494 2.191 . S
C4317 C70 2.193 . S
C4353 C61 1.488 . S
C4372 C1663 1.421 . S
C4389 C107 1.797 . S
C4408 C646 1.629 . S
C4425 C39 1.596 . S
C4444 C1066 1.497 . S
C4480 C826 0.886 . S
C4461 C23 0.953 . S
C4497 C5 0.756 . S
C4516 C1250 0.803 . S
C4533 C42 1.294 . S
C4552 C991 1.123 . S
C4588 C1586 2.001 . S
C4569 C322 2.106 . S
C4605 C165 0.553 . S
C4624 C478 0.566 . S
C4660 C1670 1.228 . S
C4641 C294 1.259 . S
C4677 C131 1.609 . S
C4696 C655 1.512 . S
C4713 C331 2.133 . S
C4732 C1075 1.954 . S
C4768 C819 1.139 . S
C4749 C159 1.186 . S
C4785 C303 0.788 . S
C4804 C1234 0.738 . S
C4840 C998 1.339 . S
C4821 C137 1.430 . S
C4876 C1570 1.464 . S
C4857 C238 1.578 . S
C4912 C746 1.963 1_655 S
C4893 C210 2.012 . S
C4929 C235 2.326 . S
C4948 C1148 2.148 . S
C4984 C907 0.550 . S
C4965 C191 0.319 . S
C5001 C207 0.683 . S
C5020 C982 0.751 . S
C5037 C177 1.518 . S
C5056 C1654 1.403 . S
C5092 C1334 2.328 . S
C5073 C229 2.426 1_565 S
C5128 C1411 0.706 . S
C5109 C271 0.764 . S
