# Generated by pormake.
# Topology tsx, (6,3)-cn, num edge types: 1
# Building blocks:
#     Node 0, Type 0, BuildingBlock: VOLQOD_clean_sbu_1, # of connection points: 6
#     Node 1, Type 0, BuildingBlock: VOLQOD_clean_sbu_1, # of connection points: 6
#     Node 2, Type 1, BuildingBlock: WUSLED_clean_sbu_0, # of connection points: 3
#     Node 3, Type 1, BuildingBlock: WUSLED_clean_sbu_0, # of connection points: 3
#     Node 4, Type 1, BuildingBlock: WUSLED_clean_sbu_0, # of connection points: 3
#     Node 5, Type 1, BuildingBlock: WUSLED_clean_sbu_0, # of connection points: 3
#     Edge 6, Type (0, 1), BuildingBlock: OJICUG_clean_linker_0, # of connection points: 2
#     Edge 7, Type (0, 1), BuildingBlock: OJICUG_clean_linker_0, # of connection points: 2
#     Edge 8, Type (0, 1), BuildingBlock: OJICUG_clean_linker_0, # of connection points: 2
#     Edge 9, Type (0, 1), BuildingBlock: OJICUG_clean_linker_0, # of connection points: 2
#     Edge 10, Type (0, 1), BuildingBlock: OJICUG_clean_linker_0, # of connection points: 2
#     Edge 11, Type (0, 1), BuildingBlock: OJICUG_clean_linker_0, # of connection points: 2
#     Edge 12, Type (0, 1), BuildingBlock: OJICUG_clean_linker_0, # of connection points: 2
#     Edge 13, Type (0, 1), BuildingBlock: OJICUG_clean_linker_0, # of connection points: 2
#     Edge 14, Type (0, 1), BuildingBlock: OJICUG_clean_linker_0, # of connection points: 2
#     Edge 15, Type (0, 1), BuildingBlock: OJICUG_clean_linker_0, # of connection points: 2
#     Edge 16, Type (0, 1), BuildingBlock: OJICUG_clean_linker_0, # of connection points: 2
#     Edge 17, Type (0, 1), BuildingBlock: OJICUG_clean_linker_0, # of connection points: 2
# Relax obj value: 0.070
# Max RMSD: 0.104
# Mean RMSD: 0.078
data_MOF--net-tsx--node1-VOLQOD_clean_sbu_1--node2-WUSLED_clean_sbu_0--edge1-OJICUG_clean_linker_0
_symmetry_space_group_name_H-M    P1
_symmetry_Int_Tables_number       1
_symmetry_cell_setting            triclinic
loop_
_symmetry_equiv_pos_as_xyz
'x, y, z'
_cell_length_a     21.530978
_cell_length_b     22.288759
_cell_length_c     41.260665
_cell_angle_alpha  90.730467
_cell_angle_beta   89.915722
_cell_angle_gamma 90.183821
loop_
_atom_site_label
_atom_site_type_symbol
_atom_site_fract_x
_atom_site_fract_y
_atom_site_fract_z
_atom_type_partial_charge
O0 O 0.05462 0.98761 0.08658 0.0
Zn1 Zn 0.08358 0.98987 0.0393 0.0
O2 O 0.0113 -0.00081 0.01045 0.0
Zn3 Zn 0.00116 0.92541 0.98443 0.0
Zn4 Zn 0.93515 0.01293 0.036 0.0
Zn5 Zn 0.02495 0.06794 0.98179 0.0
O6 O 0.99534 0.94567 0.93663 0.0
O7 O 0.0295 0.0399 0.93449 0.0
O8 O 0.13557 0.91509 0.02664 0.0
O9 O 0.0774 0.87268 0.98828 0.0
O10 O 0.92542 0.87664 0.99917 0.0
O11 O 0.87906 0.93943 0.03361 0.0
O12 O 0.88597 0.08628 0.01994 0.0
O13 O 0.1398 0.06332 0.03616 0.0
O14 O 0.95143 0.12485 0.98408 0.0
O15 O 0.10236 0.11593 0.99523 0.0
C16 C 0.00469 0.00547 0.10046 0.0
C17 C 0.01208 0.99135 0.92034 0.0
C18 C 0.88122 0.88881 0.01887 0.0
C19 C 0.12661 0.8735 1.00546 0.0
C20 C 0.89982 0.12654 0.99931 0.0
C21 C 0.1422 0.10897 0.01781 0.0
O22 O 0.95748 0.02133 0.08389 0.0
O23 O 0.5554 0.48636 0.5859 0.0
Zn24 Zn 0.58448 0.48883 0.53866 0.0
O25 O 0.51219 0.498 0.50984 0.0
Zn26 Zn 0.50222 0.42401 0.48394 0.0
Zn27 Zn 0.43598 0.51186 0.53533 0.0
Zn28 Zn 0.52577 0.56675 0.48118 0.0
O29 O 0.49638 0.44425 0.43615 0.0
O30 O 0.53072 0.53844 0.43395 0.0
O31 O 0.63677 0.41423 0.52598 0.0
O32 O 0.57866 0.37132 0.48776 0.0
O33 O 0.42643 0.37525 0.49876 0.0
O34 O 0.37992 0.43834 0.53298 0.0
O35 O 0.38666 0.58518 0.51922 0.0
O36 O 0.64042 0.56251 0.53566 0.0
O37 O 0.45195 0.6234 0.48319 0.0
O38 O 0.6029 0.61514 0.49477 0.0
C39 C 0.50548 0.50427 0.59977 0.0
C40 C 0.51326 0.48987 0.41984 0.0
C41 C 0.38214 0.38759 0.51837 0.0
C42 C 0.62795 0.37246 0.50488 0.0
C43 C 0.40037 0.62522 0.49843 0.0
C44 C 0.64268 0.60827 0.51738 0.0
O45 O 0.45832 0.52025 0.5832 0.0
C46 C 0.91092 0.1039 0.46223 0.0
C47 C 0.87496 0.1289 0.43748 0.0
C48 C 0.81915 0.19204 0.47696 0.0
C49 C 0.82964 0.17236 0.44474 0.0
C50 C 0.85576 0.16692 0.5016 0.0
C51 C 0.90093 0.12341 0.4943 0.0
U52 U 0.00662 0.00506 0.40315 0.0
O53 O 0.03524 0.91035 0.40689 0.0
O54 O 0.10621 0.98104 0.40329 0.0
C55 C 0.09484 0.92328 0.40566 0.0
C56 C 0.9587 0.05753 0.45516 0.0
C57 C 0.1391 0.88604 0.42432 0.0
C58 C 0.16704 0.82084 0.46925 0.0
C59 C 0.1249 0.86039 0.45443 0.0
C60 C 0.23753 0.83216 0.42408 0.0
C61 C 0.22406 0.80583 0.45417 0.0
C62 C 0.19594 0.87168 0.40957 0.0
C63 C 0.97613 0.02376 0.3104 0.0
C64 C 0.03913 0.0296 0.26121 0.0
C65 C 0.93139 -0.00053 0.25751 0.0
C66 C 0.92558 0.00519 0.29124 0.0
C67 C 0.98794 0.01259 0.24188 0.0
C68 C 0.03331 0.03521 0.29503 0.0
C69 C 0.96609 0.03643 0.34554 0.0
O70 O 0.93824 0.00634 0.44304 0.0
O71 O 0.00955 0.07632 0.44076 0.0
O72 O 0.01047 0.06507 0.36125 0.0
O73 O 0.94019 0.99378 0.36271 0.0
H74 H 0.88194 0.1148 0.41251 0.0
H75 H 0.80326 0.19103 0.42498 0.0
H76 H 0.84882 0.18007 0.52669 0.0
H77 H 0.92797 0.1047 0.51384 0.0
H78 H 0.15488 0.8021 0.49249 0.0
H79 H 0.08112 0.87028 0.46627 0.0
H80 H 0.27967 0.82102 0.41103 0.0
H81 H 0.20764 0.88993 0.3861 0.0
H82 H 0.08328 0.04063 0.25016 0.0
H83 H 0.8912 0.98517 0.24366 0.0
H84 H 0.88087 -0.00362 0.30233 0.0
H85 H 0.0732 0.05001 0.30897 0.0
C86 C 0.91259 0.88972 0.56045 0.0
C87 C 0.92656 0.82924 0.56654 0.0
C88 C 0.82546 0.79683 0.5454 0.0
C89 C 0.88368 0.78354 0.55912 0.0
C90 C 0.81166 0.85745 0.53934 0.0
C91 C 0.85468 0.90311 0.54664 0.0
U92 U 0.0109 0.99068 0.61771 0.0
O93 O 0.03294 0.08728 0.61564 0.0
O94 O 0.10816 0.02117 0.61368 0.0
C95 C 0.09302 0.07823 0.61243 0.0
C96 C 0.95852 0.9388 0.56687 0.0
C97 C 0.12859 0.11737 0.58983 0.0
C98 C 0.22898 0.14668 0.56702 0.0
C99 C 0.19113 0.10454 0.58263 0.0
C100 C 0.14225 0.21492 0.56428 0.0
C101 C 0.20558 0.20319 0.55839 0.0
C102 C 0.10437 0.17274 0.57986 0.0
C103 C 0.99389 0.96332 0.71075 0.0
C104 C 0.98586 0.02387 0.76032 0.0
C105 C 0.02241 0.92157 0.76299 0.0
C106 C 0.01606 0.91561 0.72934 0.0
C107 C 0.00631 0.97539 0.77908 0.0
C108 C 0.97958 0.01789 0.72657 0.0
C109 C 0.98037 0.95268 0.67582 0.0
O110 O 0.93697 0.98807 0.58064 0.0
O111 O 0.01303 0.92311 0.57831 0.0
O112 O 0.02481 0.92839 0.6582 0.0
O113 O 0.94952 0.99438 0.66041 0.0
H114 H 0.9709 0.81691 0.57682 0.0
H115 H 0.89677 0.73757 0.56368 0.0
H116 H 0.76722 0.8699 0.52924 0.0
H117 H 0.84262 0.94912 0.54137 0.0
H118 H 0.27753 0.13605 0.56331 0.0
H119 H 0.21184 0.06297 0.59048 0.0
H120 H 0.12218 0.25749 0.55759 0.0
H121 H 0.05674 0.18471 0.58529 0.0
H122 H 0.97252 0.06583 0.77182 0.0
H123 H 0.03938 0.8836 0.77644 0.0
H124 H 0.0271 0.87293 0.71789 0.0
H125 H 0.96196 0.0555 0.71305 0.0
C126 C 0.40838 0.60434 0.96098 0.0
C127 C 0.34478 0.58938 0.96086 0.0
C128 C 0.31626 0.69174 0.97734 0.0
C129 C 0.29952 0.63238 0.96884 0.0
C130 C 0.37997 0.70648 0.97774 0.0
C131 C 0.42527 0.66343 0.96978 0.0
U132 U 0.50674 0.50511 0.90253 0.0
O133 O 0.53621 0.41076 0.90662 0.0
O134 O 0.60656 0.48204 0.9031 0.0
C135 C 0.5957 0.42421 0.90565 0.0
C136 C 0.45719 0.5582 0.95389 0.0
C137 C 0.63984 0.38769 0.92477 0.0
C138 C 0.6662 0.32106 0.96933 0.0
C139 C 0.62424 0.36042 0.95427 0.0
C140 C 0.73941 0.33589 0.92568 0.0
C141 C 0.72444 0.30779 0.9551 0.0
C142 C 0.69797 0.37526 0.91093 0.0
C143 C 0.47654 0.52231 0.80963 0.0
C144 C 0.53965 0.52823 0.7605 0.0
C145 C 0.43203 0.49767 0.75675 0.0
C146 C 0.42612 0.50346 0.79046 0.0
C147 C 0.48856 0.511 0.74115 0.0
C148 C 0.53372 0.53392 0.7943 0.0
C149 C 0.46627 0.53524 0.84471 0.0
O150 O 0.43836 0.5059 0.94238 0.0
O151 O 0.50846 0.57704 0.93986 0.0
O152 O 0.5103 0.56449 0.86037 0.0
O153 O 0.44073 0.49257 0.862 0.0
H154 H 0.32972 0.5442 0.95485 0.0
H155 H 0.25124 0.61864 0.96881 0.0
H156 H 0.39502 0.75163 0.98381 0.0
H157 H 0.47375 0.67647 0.97062 0.0
H158 H 0.65287 0.30098 0.99206 0.0
H159 H 0.57945 0.36879 0.9654 0.0
H160 H 0.78258 0.32615 0.91325 0.0
H161 H 0.71079 0.39477 0.88793 0.0
H162 H 0.58378 0.53941 0.74946 0.0
H163 H 0.39193 0.48319 0.74287 0.0
H164 H 0.38141 0.49452 0.80152 0.0
H165 H 0.57351 0.54893 0.80827 0.0
C166 C 0.41329 0.38965 0.06001 0.0
C167 C 0.42691 0.32923 0.06647 0.0
C168 C 0.32592 0.29691 0.04517 0.0
C169 C 0.38391 0.2836 0.05914 0.0
C170 C 0.31249 0.35745 0.03872 0.0
C171 C 0.35564 0.40304 0.04591 0.0
U172 U 0.51161 0.49005 0.11742 0.0
O173 O 0.53334 0.58674 0.11571 0.0
O174 O 0.60876 0.52086 0.11345 0.0
C175 C 0.59343 0.5779 0.11242 0.0
C176 C 0.45922 0.43868 0.06645 0.0
C177 C 0.62876 0.61739 0.08991 0.0
C178 C 0.72887 0.64715 0.06696 0.0
C179 C 0.69125 0.60476 0.08251 0.0
C180 C 0.642 0.7153 0.0647 0.0
C181 C 0.70529 0.70374 0.05861 0.0
C182 C 0.60435 0.67286 0.08021 0.0
C183 C 0.49475 0.46183 0.21032 0.0
C184 C 0.4873 0.52242 0.25988 0.0
C185 C 0.52302 0.41984 0.26252 0.0
C186 C 0.51656 0.41394 0.22888 0.0
C187 C 0.50739 0.47379 0.27862 0.0
C188 C 0.48093 0.51651 0.22614 0.0
C189 C 0.4812 0.45135 0.17539 0.0
O190 O 0.43766 0.4878 0.08036 0.0
O191 O 0.51379 0.42293 0.07779 0.0
O192 O 0.52572 0.42737 0.15771 0.0
O193 O 0.45018 0.49308 0.16009 0.0
H194 H 0.47104 0.31691 0.077 0.0
H195 H 0.39671 0.23766 0.06401 0.0
H196 H 0.26824 0.36993 0.02841 0.0
H197 H 0.34387 0.44901 0.04037 0.0
H198 H 0.77741 0.63666 0.06309 0.0
H199 H 0.71211 0.56311 0.09014 0.0
H200 H 0.62179 0.75792 0.05822 0.0
H201 H 0.55674 0.68468 0.08581 0.0
H202 H 0.47432 0.56449 0.27139 0.0
H203 H 0.53971 0.38174 0.27596 0.0
H204 H 0.52724 0.37119 0.21741 0.0
H205 H 0.46362 0.55427 0.21262 0.0
C206 C 0.19711 0.20562 1.0034 0.0
C207 C 0.19065 0.15602 0.02393 0.0
H208 H 0.24497 0.28782 0.99343 0.0
C209 C 0.22974 0.15283 0.05119 0.0
H210 H 0.16808 0.20971 0.98213 0.0
C211 C 0.27337 0.19812 0.05794 0.0
C212 C 0.27969 0.24803 0.03757 0.0
H213 H 0.22604 0.11568 0.06776 0.0
H214 H 0.30131 0.19447 0.07962 0.0
C215 C 0.24105 0.25084 0.01007 0.0
C216 C 0.16517 0.78155 0.97543 0.0
C217 C 0.17482 0.82618 0.99942 0.0
H218 H 0.20148 0.70579 0.94936 0.0
C219 C 0.23146 0.82579 0.01645 0.0
H220 H 0.12249 0.78024 0.96157 0.0
C221 C 0.2771 0.78236 0.00949 0.0
C222 C 0.26748 0.73796 0.9853 0.0
H223 H 0.24078 0.85927 0.03508 0.0
H224 H 0.31978 0.78334 0.02333 0.0
C225 C 0.21062 0.73832 0.96849 0.0
C226 C 0.83857 0.78294 0.01468 0.0
C227 C 0.83339 0.84225 0.02656 0.0
H228 H 0.80226 0.69312 0.01499 0.0
C229 C 0.78366 0.85597 0.04756 0.0
H230 H 0.87611 0.77054 0.99846 0.0
C231 C 0.74144 0.81156 0.05709 0.0
C232 C 0.74754 0.75185 0.04602 0.0
H233 H 0.77796 0.90097 0.0573 0.0
H234 H 0.70521 0.82378 0.07414 0.0
C235 C 0.79635 0.73836 0.02434 0.0
C236 C 0.7905 0.16864 0.99689 0.0
C237 C 0.85473 0.17519 0.99141 0.0
H238 H 0.69906 0.20408 0.9894 0.0
C239 C 0.87566 0.22772 0.97629 0.0
H240 H 0.77261 0.12872 0.00839 0.0
C241 C 0.83375 0.27146 0.96598 0.0
C242 C 0.76912 0.26382 0.9698 0.0
H243 H 0.92477 0.23492 0.97204 0.0
H244 H 0.85236 0.31114 0.95458 0.0
C245 C 0.74823 0.21218 0.98607 0.0
C246 C 0.73017 0.65209 0.55083 0.0
C247 C 0.69087 0.65553 0.52366 0.0
H248 H 0.8017 0.69362 0.57934 0.0
C249 C 0.69686 0.70557 0.5034 0.0
H250 H 0.72685 0.6146 0.56719 0.0
C251 C 0.74055 0.75094 0.51024 0.0
C252 C 0.77942 0.74785 0.53764 0.0
H253 H 0.66765 0.70988 0.48222 0.0
H254 H 0.7441 0.78828 0.4938 0.0
C255 C 0.77357 0.69752 0.55774 0.0
C256 C 0.73315 0.32551 0.51587 0.0
C257 C 0.67647 0.32538 0.49887 0.0
H258 H 0.82245 0.28469 0.52222 0.0
C259 C 0.6671 0.28046 0.47499 0.0
H260 H 0.74239 0.35936 0.53432 0.0
C261 C 0.71297 0.23756 0.46808 0.0
C262 C 0.76993 0.23788 0.48479 0.0
H263 H 0.6242 0.27846 0.46135 0.0
H264 H 0.70336 0.20365 0.44972 0.0
C265 C 0.77912 0.28237 0.50897 0.0
C266 C 0.28429 0.35518 0.54694 0.0
C267 C 0.33421 0.34114 0.52612 0.0
H268 H 0.20553 0.32344 0.57344 0.0
C269 C 0.33944 0.28167 0.5145 0.0
H270 H 0.27852 0.40031 0.55648 0.0
C271 C 0.29707 0.23725 0.52424 0.0
C272 C 0.24805 0.25109 0.54572 0.0
H273 H 0.37713 0.26901 0.49843 0.0
H274 H 0.30303 0.19189 0.51508 0.0
C275 C 0.24192 0.31095 0.55654 0.0
C276 C 0.29115 0.66804 0.49688 0.0
C277 C 0.35515 0.67375 0.49039 0.0
H278 H 0.19963 0.70402 0.49029 0.0
C279 C 0.37565 0.72534 0.4742 0.0
H280 H 0.27355 0.62891 0.50923 0.0
C281 C 0.33355 0.76889 0.46386 0.0
C282 C 0.2691 0.76207 0.46877 0.0
H283 H 0.42456 0.73194 0.46913 0.0
H284 H 0.35185 0.8078 0.4516 0.0
C285 C 0.24868 0.71144 0.48608 0.0
C286 C 0.05088 0.98824 0.15591 0.0
C287 C 0.00096 0.00741 0.13664 0.0
H288 H 0.08587 0.9739 0.20384 0.0
C289 C 0.94697 0.02826 0.15236 0.0
H290 H 0.09319 0.97174 0.14477 0.0
C291 C 0.94293 0.02982 0.18626 0.0
C292 C 0.99266 0.01045 0.20559 0.0
H293 H 0.90759 0.04367 0.13848 0.0
H294 H 0.90089 0.04714 0.1973 0.0
C295 C 0.0468 0.98976 0.18989 0.0
C296 C 0.99141 0.93477 0.86825 0.0
C297 C 0.01109 0.98766 0.8842 0.0
H298 H 0.97358 0.88976 0.82312 0.0
C299 C 0.02951 0.03669 0.8652 0.0
H300 H 0.9766 0.89611 0.88194 0.0
C301 C 0.02819 0.03285 0.83122 0.0
C302 C 0.00854 0.97985 0.81531 0.0
H303 H 0.04507 0.07814 0.87655 0.0
H304 H 0.04327 0.07125 0.81742 0.0
C305 C 0.9901 0.93095 0.83437 0.0
C306 C 0.44767 0.52684 0.65165 0.0
C307 C 0.50171 0.5061 0.63594 0.0
H308 H 0.40152 0.54554 0.69659 0.0
C309 C 0.55164 0.48693 0.65521 0.0
H310 H 0.40829 0.54224 0.63778 0.0
C311 C 0.54751 0.48835 0.68918 0.0
C312 C 0.49333 0.50893 0.70488 0.0
H313 H 0.59398 0.47051 0.64407 0.0
H314 H 0.58659 0.47252 0.70314 0.0
C315 C 0.44359 0.52829 0.68555 0.0
C316 C 0.53111 0.53498 0.3647 0.0
C317 C 0.51232 0.4861 0.38371 0.0
H318 H 0.54514 0.56939 0.31691 0.0
C319 C 0.49227 0.43331 0.36779 0.0
H320 H 0.54696 0.57635 0.37603 0.0
C321 C 0.49093 0.42947 0.33391 0.0
C322 C 0.50972 0.47823 0.31484 0.0
H323 H 0.47718 0.39478 0.38149 0.0
H324 H 0.4741 0.38838 0.32267 0.0
C325 C 0.52977 0.53111 0.33072 0.0
loop_
_geom_bond_atom_site_label_1
_geom_bond_atom_site_label_2
_geom_bond_distance
_geom_bond_site_symmetry_2
_ccdc_geom_bond_type
O0 Zn1 1.953 . S
O0 C16 1.225 1_565 S
Zn1 O0 1.953 . S
Zn1 O2 1.949 1_565 S
Zn1 O8 1.919 . S
Zn1 O13 1.924 1_565 S
O2 Zn1 1.949 1_545 S
O2 Zn3 1.923 1_444 S
O2 Zn4 1.950 1_455 S
O2 Zn5 1.945 1_554 S
Zn3 O2 1.923 1_666 S
Zn3 O6 1.933 . S
Zn3 O9 1.941 1_655 S
Zn3 O10 1.965 . S
Zn4 O2 1.950 1_655 S
Zn4 O11 1.938 1_545 S
Zn4 O12 1.906 . S
Zn4 O22 1.953 . S
Zn5 O2 1.945 1_556 S
Zn5 O7 1.932 . S
Zn5 O14 1.977 1_455 S
Zn5 O15 1.910 . S
O6 Zn3 1.933 . S
O6 C17 1.226 1_665 S
O7 Zn5 1.932 . S
O7 C17 1.307 . S
O8 Zn1 1.919 . S
O8 C19 1.253 1_554 S
O9 Zn3 1.941 1_455 S
O9 C19 1.283 . S
O10 Zn3 1.965 . S
O10 C18 1.303 1_556 S
O11 Zn4 1.938 1_565 S
O11 C18 1.247 . S
O12 Zn4 1.906 . S
O12 C20 1.304 1_554 S
O13 Zn1 1.924 1_545 S
O13 C21 1.311 . S
O14 Zn5 1.977 1_655 S
O14 C20 1.272 . S
O15 Zn5 1.910 . S
O15 C21 1.231 1_556 S
C16 O0 1.225 1_545 S
C16 O22 1.298 1_455 S
C17 O6 1.226 1_445 S
C17 O7 1.307 . S
C18 O10 1.303 1_554 S
C18 O11 1.247 . S
C19 O8 1.253 1_556 S
C19 O9 1.283 . S
C20 O12 1.304 1_556 S
C20 O14 1.272 . S
C21 O13 1.311 . S
C21 O15 1.231 1_554 S
O22 Zn4 1.953 . S
O22 C16 1.298 1_655 S
O23 Zn24 1.953 . S
O23 C39 1.225 . S
Zn24 O23 1.953 . S
Zn24 O25 1.949 . S
Zn24 O31 1.919 . S
Zn24 O36 1.924 . S
O25 Zn24 1.949 . S
O25 Zn26 1.923 . S
O25 Zn27 1.950 . S
O25 Zn28 1.945 . S
Zn26 O25 1.923 . S
Zn26 O29 1.933 . S
Zn26 O32 1.941 . S
Zn26 O33 1.965 . S
Zn27 O25 1.950 . S
Zn27 O34 1.938 . S
Zn27 O35 1.906 . S
Zn27 O45 1.953 . S
Zn28 O25 1.945 . S
Zn28 O30 1.932 . S
Zn28 O37 1.977 . S
Zn28 O38 1.910 . S
O29 Zn26 1.933 . S
O29 C40 1.226 . S
O30 Zn28 1.932 . S
O30 C40 1.307 . S
O31 Zn24 1.919 . S
O31 C42 1.253 . S
O32 Zn26 1.941 . S
O32 C42 1.283 . S
O33 Zn26 1.965 . S
O33 C41 1.303 . S
O34 Zn27 1.938 . S
O34 C41 1.247 . S
O35 Zn27 1.906 . S
O35 C43 1.304 . S
O36 Zn24 1.924 . S
O36 C44 1.311 . S
O37 Zn28 1.977 . S
O37 C43 1.272 . S
O38 Zn28 1.910 . S
O38 C44 1.231 . S
C39 O23 1.225 . S
C39 O45 1.298 . S
C40 O29 1.226 . S
C40 O30 1.307 . S
C41 O33 1.303 . S
C41 O34 1.247 . S
C42 O31 1.253 . S
C42 O32 1.283 . S
C43 O35 1.304 . S
C43 O37 1.272 . S
C44 O36 1.311 . S
C44 O38 1.231 . S
O45 Zn27 1.953 . S
O45 C39 1.298 . S
C46 C47 1.264 . S
C46 C51 1.479 . S
C46 C56 1.465 . S
C47 C46 1.264 . S
C47 C49 1.339 . S
C47 H74 0.931 . S
C48 C49 1.395 . S
C48 C50 1.320 . S
C49 C47 1.339 . S
C49 C48 1.395 . S
C49 H75 0.929 . S
C50 C48 1.320 . S
C50 C51 1.405 . S
C50 H76 0.930 . S
C51 C46 1.479 . S
C51 C50 1.405 . S
C51 H77 0.931 . S
U52 O53 2.454 1_545 S
U52 O54 2.458 1_545 S
U52 C55 2.984 1_545 S
U52 C56 2.847 1_455 S
U52 C69 2.882 . S
U52 O70 2.441 1_455 S
U52 O71 2.420 1_455 S
U52 O72 2.455 1_545 S
U52 O73 2.449 . S
O53 U52 2.454 1_565 S
O53 C55 1.353 . S
O54 U52 2.458 1_565 S
O54 C55 1.286 . S
C55 U52 2.984 1_565 S
C55 O53 1.353 . S
C55 O54 1.286 . S
C55 C57 1.363 . S
C56 C46 1.465 . S
C56 U52 2.847 1_655 S
C56 O70 1.249 . S
C56 O71 1.202 . S
C57 C55 1.363 . S
C57 C59 1.408 . S
C57 C62 1.342 . S
C58 C59 1.310 . S
C58 C61 1.461 . S
C58 H78 0.932 . S
C59 C57 1.408 . S
C59 C58 1.310 . S
C59 H79 0.930 . S
C60 C61 1.474 . S
C60 C62 1.285 . S
C60 H80 0.929 . S
C61 C58 1.461 . S
C61 C60 1.474 . S
C62 C57 1.342 . S
C62 C60 1.285 . S
C62 H81 0.930 . S
C63 C66 1.424 1_455 S
C63 C68 1.245 1_545 S
C63 C69 1.428 . S
C64 C67 1.260 1_565 S
C64 C68 1.477 . S
C64 H82 0.932 . S
C65 C66 1.384 . S
C65 C67 1.479 1_655 S
C65 H83 0.929 . S
C66 C63 1.424 1_655 S
C66 C65 1.384 . S
C66 H84 0.928 . S
C67 C64 1.260 1_545 S
C67 C65 1.479 1_455 S
C68 C63 1.245 1_565 S
C68 C64 1.477 . S
C68 H85 0.932 . S
C69 U52 2.882 . S
C69 C63 1.428 . S
C69 O72 1.301 1_545 S
C69 O73 1.282 . S
O70 U52 2.441 1_655 S
O70 C56 1.249 . S
O71 U52 2.420 1_655 S
O71 C56 1.202 . S
O72 U52 2.455 1_565 S
O72 C69 1.301 1_565 S
O73 U52 2.449 . S
O73 C69 1.282 . S
H74 C47 0.931 . S
H75 C49 0.929 . S
H76 C50 0.930 . S
H77 C51 0.931 . S
H78 C58 0.932 . S
H79 C59 0.930 . S
H80 C60 0.929 . S
H81 C62 0.930 . S
H82 C64 0.932 . S
H83 C65 0.929 . S
H84 C66 0.928 . S
H85 C68 0.932 . S
C86 C87 1.264 . S
C86 C91 1.479 . S
C86 C96 1.465 . S
C87 C86 1.264 . S
C87 C89 1.339 . S
C87 H114 0.931 . S
C88 C89 1.395 . S
C88 C90 1.320 . S
C89 C87 1.339 . S
C89 C88 1.395 . S
C89 H115 0.929 . S
C90 C88 1.320 . S
C90 C91 1.405 . S
C90 H116 0.930 . S
C91 C86 1.479 . S
C91 C90 1.405 . S
C91 H117 0.931 . S
U92 O93 2.454 1_565 S
U92 O94 2.458 1_565 S
U92 C95 2.984 1_565 S
U92 C96 2.847 1_455 S
U92 C109 2.882 . S
U92 O110 2.441 1_455 S
U92 O111 2.420 1_455 S
U92 O112 2.455 1_565 S
U92 O113 2.449 . S
O93 U92 2.454 1_545 S
O93 C95 1.353 . S
O94 U92 2.458 1_545 S
O94 C95 1.286 . S
C95 U92 2.984 1_545 S
C95 O93 1.353 . S
C95 O94 1.286 . S
C95 C97 1.363 . S
C96 C86 1.465 . S
C96 U92 2.847 1_655 S
C96 O110 1.249 . S
C96 O111 1.202 . S
C97 C95 1.363 . S
C97 C99 1.408 . S
C97 C102 1.342 . S
C98 C99 1.310 . S
C98 C101 1.461 . S
C98 H118 0.932 . S
C99 C97 1.408 . S
C99 C98 1.310 . S
C99 H119 0.930 . S
C100 C101 1.474 . S
C100 C102 1.285 . S
C100 H120 0.929 . S
C101 C98 1.461 . S
C101 C100 1.474 . S
C102 C97 1.342 . S
C102 C100 1.285 . S
C102 H121 0.930 . S
C103 C106 1.424 1_455 S
C103 C108 1.245 1_565 S
C103 C109 1.428 . S
C104 C107 1.260 1_545 S
C104 C108 1.477 . S
C104 H122 0.932 . S
C105 C106 1.384 . S
C105 C107 1.479 1_655 S
C105 H123 0.929 . S
C106 C103 1.424 1_655 S
C106 C105 1.384 . S
C106 H124 0.928 . S
C107 C104 1.260 1_565 S
C107 C105 1.479 1_455 S
C108 C103 1.245 1_545 S
C108 C104 1.477 . S
C108 H125 0.932 . S
C109 U92 2.882 . S
C109 C103 1.428 . S
C109 O112 1.301 1_565 S
C109 O113 1.282 . S
O110 U92 2.441 1_655 S
O110 C96 1.249 . S
O111 U92 2.420 1_655 S
O111 C96 1.202 . S
O112 U92 2.455 1_545 S
O112 C109 1.301 1_545 S
O113 U92 2.449 . S
O113 C109 1.282 . S
H114 C87 0.931 . S
H115 C89 0.929 . S
H116 C90 0.930 . S
H117 C91 0.931 . S
H118 C98 0.932 . S
H119 C99 0.930 . S
H120 C100 0.929 . S
H121 C102 0.930 . S
H122 C104 0.932 . S
H123 C105 0.929 . S
H124 C106 0.928 . S
H125 C108 0.932 . S
C126 C127 1.264 . S
C126 C131 1.479 . S
C126 C136 1.465 . S
C127 C126 1.264 . S
C127 C129 1.339 . S
C127 H154 0.931 . S
C128 C129 1.395 . S
C128 C130 1.320 . S
C129 C127 1.339 . S
C129 C128 1.395 . S
C129 H155 0.929 . S
C130 C128 1.320 . S
C130 C131 1.405 . S
C130 H156 0.930 1_556 S
C131 C126 1.479 . S
C131 C130 1.405 . S
C131 H157 0.931 . S
U132 O133 2.454 . S
U132 O134 2.458 . S
U132 C135 2.984 . S
U132 C136 2.847 . S
U132 C149 2.882 . S
U132 O150 2.441 . S
U132 O151 2.420 . S
U132 O152 2.455 . S
U132 O153 2.449 . S
O133 U132 2.454 . S
O133 C135 1.353 . S
O134 U132 2.458 . S
O134 C135 1.286 . S
C135 U132 2.984 . S
C135 O133 1.353 . S
C135 O134 1.286 . S
C135 C137 1.363 . S
C136 C126 1.465 . S
C136 U132 2.847 . S
C136 O150 1.249 . S
C136 O151 1.202 . S
C137 C135 1.363 . S
C137 C139 1.408 . S
C137 C142 1.342 . S
C138 C139 1.310 . S
C138 C141 1.461 . S
C138 H158 0.932 1_556 S
C139 C137 1.408 . S
C139 C138 1.310 . S
C139 H159 0.930 . S
C140 C141 1.474 . S
C140 C142 1.285 . S
C140 H160 0.929 . S
C141 C138 1.461 . S
C141 C140 1.474 . S
C142 C137 1.342 . S
C142 C140 1.285 . S
C142 H161 0.930 . S
C143 C146 1.424 . S
C143 C148 1.245 . S
C143 C149 1.428 . S
C144 C147 1.260 . S
C144 C148 1.477 . S
C144 H162 0.932 . S
C145 C146 1.384 . S
C145 C147 1.479 . S
C145 H163 0.929 . S
C146 C143 1.424 . S
C146 C145 1.384 . S
C146 H164 0.928 . S
C147 C144 1.260 . S
C147 C145 1.479 . S
C148 C143 1.245 . S
C148 C144 1.477 . S
C148 H165 0.932 . S
C149 U132 2.882 . S
C149 C143 1.428 . S
C149 O152 1.301 . S
C149 O153 1.282 . S
O150 U132 2.441 . S
O150 C136 1.249 . S
O151 U132 2.420 . S
O151 C136 1.202 . S
O152 U132 2.455 . S
O152 C149 1.301 . S
O153 U132 2.449 . S
O153 C149 1.282 . S
H154 C127 0.931 . S
H155 C129 0.929 . S
H156 C130 0.930 1_554 S
H157 C131 0.931 . S
H158 C138 0.932 1_554 S
H159 C139 0.930 . S
H160 C140 0.929 . S
H161 C142 0.930 . S
H162 C144 0.932 . S
H163 C145 0.929 . S
H164 C146 0.928 . S
H165 C148 0.932 . S
C166 C167 1.264 . S
C166 C171 1.479 . S
C166 C176 1.465 . S
C167 C166 1.264 . S
C167 C169 1.339 . S
C167 H194 0.931 . S
C168 C169 1.395 . S
C168 C170 1.320 . S
C169 C167 1.339 . S
C169 C168 1.395 . S
C169 H195 0.929 . S
C170 C168 1.320 . S
C170 C171 1.405 . S
C170 H196 0.930 1_554 S
C171 C166 1.479 . S
C171 C170 1.405 . S
C171 H197 0.931 . S
U172 O173 2.454 . S
U172 O174 2.458 . S
U172 C175 2.984 . S
U172 C176 2.847 . S
U172 C189 2.882 . S
U172 O190 2.441 . S
U172 O191 2.420 . S
U172 O192 2.455 . S
U172 O193 2.449 . S
O173 U172 2.454 . S
O173 C175 1.353 . S
O174 U172 2.458 . S
O174 C175 1.286 . S
C175 U172 2.984 . S
C175 O173 1.353 . S
C175 O174 1.286 . S
C175 C177 1.363 . S
C176 C166 1.465 . S
C176 U172 2.847 . S
C176 O190 1.249 . S
C176 O191 1.202 . S
C177 C175 1.363 . S
C177 C179 1.408 . S
C177 C182 1.342 . S
C178 C179 1.310 . S
C178 C181 1.461 . S
C178 H198 0.932 1_554 S
C179 C177 1.408 . S
C179 C178 1.310 . S
C179 H199 0.930 . S
C180 C181 1.474 . S
C180 C182 1.285 . S
C180 H200 0.929 . S
C181 C178 1.461 . S
C181 C180 1.474 . S
C182 C177 1.342 . S
C182 C180 1.285 . S
C182 H201 0.930 . S
C183 C186 1.424 . S
C183 C188 1.245 . S
C183 C189 1.428 . S
C184 C187 1.260 . S
C184 C188 1.477 . S
C184 H202 0.932 . S
C185 C186 1.384 . S
C185 C187 1.479 . S
C185 H203 0.929 . S
C186 C183 1.424 . S
C186 C185 1.384 . S
C186 H204 0.928 . S
C187 C184 1.260 . S
C187 C185 1.479 . S
C188 C183 1.245 . S
C188 C184 1.477 . S
C188 H205 0.932 . S
C189 U172 2.882 . S
C189 C183 1.428 . S
C189 O192 1.301 . S
C189 O193 1.282 . S
O190 U172 2.441 . S
O190 C176 1.249 . S
O191 U172 2.420 . S
O191 C176 1.202 . S
O192 U172 2.455 . S
O192 C189 1.301 . S
O193 U172 2.449 . S
O193 C189 1.282 . S
H194 C167 0.931 . S
H195 C169 0.929 . S
H196 C170 0.930 1_556 S
H197 C171 0.931 . S
H198 C178 0.932 1_556 S
H199 C179 0.930 . S
H200 C180 0.929 . S
H201 C182 0.930 . S
H202 C184 0.932 . S
H203 C185 0.929 . S
H204 C186 0.928 . S
H205 C188 0.932 . S
C206 C207 1.387 1_556 S
C206 H210 0.950 . S
C206 C215 1.390 . S
C207 C206 1.387 1_554 S
C207 C209 1.387 . S
H208 C215 0.950 . S
C209 C207 1.387 . S
C209 C211 1.390 . S
C209 H213 0.950 . S
H210 C206 0.950 . S
C211 C209 1.390 . S
C211 C212 1.387 . S
C211 H214 0.950 . S
C212 C211 1.387 . S
C212 C215 1.387 1_554 S
H213 C209 0.950 . S
H214 C211 0.950 . S
C215 C206 1.390 . S
C215 H208 0.950 . S
C215 C212 1.387 1_556 S
C216 C217 1.387 . S
C216 H220 0.950 . S
C216 C225 1.390 . S
C217 C216 1.387 . S
C217 C219 1.387 1_556 S
H218 C225 0.950 . S
C219 C217 1.387 1_554 S
C219 C221 1.390 . S
C219 H223 0.950 . S
H220 C216 0.950 . S
C221 C219 1.390 . S
C221 C222 1.387 1_554 S
C221 H224 0.950 . S
C222 C221 1.387 1_556 S
C222 C225 1.387 . S
H223 C219 0.950 . S
H224 C221 0.950 . S
C225 C216 1.390 . S
C225 H218 0.950 . S
C225 C222 1.387 . S
C226 C227 1.387 1_556 S
C226 H230 0.950 . S
C226 C235 1.390 . S
C227 C226 1.387 1_554 S
C227 C229 1.387 . S
H228 C235 0.950 . S
C229 C227 1.387 . S
C229 C231 1.390 . S
C229 H233 0.950 . S
H230 C226 0.950 . S
C231 C229 1.390 . S
C231 C232 1.387 . S
C231 H234 0.950 . S
C232 C231 1.387 . S
C232 C235 1.387 1_554 S
H233 C229 0.950 . S
H234 C231 0.950 . S
C235 C226 1.390 . S
C235 H228 0.950 . S
C235 C232 1.387 1_556 S
C236 C237 1.387 1_554 S
C236 H240 0.950 . S
C236 C245 1.390 . S
C237 C236 1.387 1_556 S
C237 C239 1.387 . S
H238 C245 0.950 . S
C239 C237 1.387 . S
C239 C241 1.390 . S
C239 H243 0.950 . S
H240 C236 0.950 . S
C241 C239 1.390 . S
C241 C242 1.387 . S
C241 H244 0.950 . S
C242 C241 1.387 . S
C242 C245 1.387 1_556 S
H243 C239 0.950 . S
H244 C241 0.950 . S
C245 C236 1.390 . S
C245 H238 0.950 . S
C245 C242 1.387 1_554 S
C246 C247 1.387 . S
C246 H250 0.950 . S
C246 C255 1.390 . S
C247 C246 1.387 . S
C247 C249 1.387 . S
H248 C255 0.950 . S
C249 C247 1.387 . S
C249 C251 1.390 . S
C249 H253 0.950 . S
H250 C246 0.950 . S
C251 C249 1.390 . S
C251 C252 1.387 . S
C251 H254 0.950 . S
C252 C251 1.387 . S
C252 C255 1.387 . S
H253 C249 0.950 . S
H254 C251 0.950 . S
C255 C246 1.390 . S
C255 H248 0.950 . S
C255 C252 1.387 . S
C256 C257 1.387 . S
C256 H260 0.950 . S
C256 C265 1.390 . S
C257 C256 1.387 . S
C257 C259 1.387 . S
H258 C265 0.950 . S
C259 C257 1.387 . S
C259 C261 1.390 . S
C259 H263 0.950 . S
H260 C256 0.950 . S
C261 C259 1.390 . S
C261 C262 1.387 . S
C261 H264 0.950 . S
C262 C261 1.387 . S
C262 C265 1.387 . S
H263 C259 0.950 . S
H264 C261 0.950 . S
C265 C256 1.390 . S
C265 H258 0.950 . S
C265 C262 1.387 . S
C266 C267 1.387 . S
C266 H270 0.950 . S
C266 C275 1.390 . S
C267 C266 1.387 . S
C267 C269 1.387 . S
H268 C275 0.950 . S
C269 C267 1.387 . S
C269 C271 1.390 . S
C269 H273 0.950 . S
H270 C266 0.950 . S
C271 C269 1.390 . S
C271 C272 1.387 . S
C271 H274 0.950 . S
C272 C271 1.387 . S
C272 C275 1.387 . S
H273 C269 0.950 . S
H274 C271 0.950 . S
C275 C266 1.390 . S
C275 H268 0.950 . S
C275 C272 1.387 . S
C276 C277 1.387 . S
C276 H280 0.950 . S
C276 C285 1.390 . S
C277 C276 1.387 . S
C277 C279 1.387 . S
H278 C285 0.950 . S
C279 C277 1.387 . S
C279 C281 1.390 . S
C279 H283 0.950 . S
H280 C276 0.950 . S
C281 C279 1.390 . S
C281 C282 1.387 . S
C281 H284 0.950 . S
C282 C281 1.387 . S
C282 C285 1.387 . S
H283 C279 0.950 . S
H284 C281 0.950 . S
C285 C276 1.390 . S
C285 H278 0.950 . S
C285 C282 1.387 . S
C286 C287 1.387 1_565 S
C286 H290 0.950 . S
C286 C295 1.390 . S
C287 C286 1.387 1_545 S
C287 C289 1.387 . S
H288 C295 0.950 . S
C289 C287 1.387 . S
C289 C291 1.390 1_455 S
C289 H293 0.950 . S
H290 C286 0.950 . S
C291 C289 1.390 1_655 S
C291 C292 1.387 1_655 S
C291 H294 0.950 . S
C292 C291 1.387 1_455 S
C292 C295 1.387 1_545 S
H293 C289 0.950 . S
H294 C291 0.950 . S
C295 C286 1.390 . S
C295 H288 0.950 . S
C295 C292 1.387 1_565 S
C296 C297 1.387 1_655 S
C296 H300 0.950 . S
C296 C305 1.390 . S
C297 C296 1.387 1_455 S
C297 C299 1.387 1_545 S
H298 C305 0.950 . S
C299 C297 1.387 1_565 S
C299 C301 1.390 . S
C299 H303 0.950 . S
H300 C296 0.950 . S
C301 C299 1.390 . S
C301 C302 1.386 1_565 S
C301 H304 0.950 . S
C302 C301 1.386 1_545 S
C302 C305 1.389 1_455 S
H303 C299 0.950 . S
H304 C301 0.950 . S
C305 C296 1.390 . S
C305 H298 0.950 . S
C305 C302 1.389 1_655 S
C306 C307 1.387 . S
C306 H310 0.950 . S
C306 C315 1.390 . S
C307 C306 1.387 . S
C307 C309 1.387 . S
H308 C315 0.950 . S
C309 C307 1.387 . S
C309 C311 1.390 . S
C309 H313 0.950 . S
H310 C306 0.950 . S
C311 C309 1.390 . S
C311 C312 1.387 . S
C311 H314 0.950 . S
C312 C311 1.387 . S
C312 C315 1.387 . S
H313 C309 0.950 . S
H314 C311 0.950 . S
C315 C306 1.390 . S
C315 H308 0.950 . S
C315 C312 1.387 . S
C316 C317 1.387 . S
C316 H320 0.950 . S
C316 C325 1.390 . S
C317 C316 1.387 . S
C317 C319 1.387 . S
H318 C325 0.950 . S
C319 C317 1.387 . S
C319 C321 1.390 . S
C319 H323 0.950 . S
H320 C316 0.950 . S
C321 C319 1.390 . S
C321 C322 1.387 . S
C321 H324 0.950 . S
C322 C321 1.387 . S
C322 C325 1.387 . S
H323 C319 0.950 . S
H324 C321 0.950 . S
C325 C316 1.390 . S
C325 H318 0.950 . S
C325 C322 1.387 . S
C212 C168 1.521 . S
C207 C21 1.514 . S
C217 C19 1.503 . S
C222 C128 1.509 . S
C227 C18 1.488 . S
C232 C181 1.484 . S
C237 C20 1.509 . S
C242 C141 1.493 . S
C247 C44 1.515 . S
C252 C88 1.520 . S
C257 C42 1.504 . S
C262 C48 1.510 . S
C272 C101 1.484 . S
C267 C41 1.489 . S
C282 C61 1.493 . S
C277 C43 1.509 . S
C287 C16 1.497 . S
C292 C67 1.481 . S
C297 C17 1.463 . S
C302 C107 1.454 1_545 S
C312 C147 1.482 . S
C307 C39 1.497 . S
C317 C40 1.463 . S
C322 C187 1.455 . S
