# Generated by pormake.
# Topology iac, (4,6)-cn, num edge types: 1
# Building blocks:
#     Node 0, Type 0, BuildingBlock: CEKHIL_clean_sbu_0, # of connection points: 4
#     Node 1, Type 0, BuildingBlock: CEKHIL_clean_sbu_0, # of connection points: 4
#     Node 2, Type 0, BuildingBlock: CEKHIL_clean_sbu_0, # of connection points: 4
#     Node 3, Type 0, BuildingBlock: CEKHIL_clean_sbu_0, # of connection points: 4
#     Node 4, Type 0, BuildingBlock: CEKHIL_clean_sbu_0, # of connection points: 4
#     Node 5, Type 0, BuildingBlock: CEKHIL_clean_sbu_0, # of connection points: 4
#     Node 6, Type 0, BuildingBlock: CEKHIL_clean_sbu_0, # of connection points: 4
#     Node 7, Type 0, BuildingBlock: CEKHIL_clean_sbu_0, # of connection points: 4
#     Node 8, Type 0, BuildingBlock: CEKHIL_clean_sbu_0, # of connection points: 4
#     Node 9, Type 0, BuildingBlock: CEKHIL_clean_sbu_0, # of connection points: 4
#     Node 10, Type 0, BuildingBlock: CEKHIL_clean_sbu_0, # of connection points: 4
#     Node 11, Type 0, BuildingBlock: CEKHIL_clean_sbu_0, # of connection points: 4
#     Node 12, Type 0, BuildingBlock: CEKHIL_clean_sbu_0, # of connection points: 4
#     Node 13, Type 0, BuildingBlock: CEKHIL_clean_sbu_0, # of connection points: 4
#     Node 14, Type 0, BuildingBlock: CEKHIL_clean_sbu_0, # of connection points: 4
#     Node 15, Type 0, BuildingBlock: CEKHIL_clean_sbu_0, # of connection points: 4
#     Node 16, Type 0, BuildingBlock: CEKHIL_clean_sbu_0, # of connection points: 4
#     Node 17, Type 0, BuildingBlock: CEKHIL_clean_sbu_0, # of connection points: 4
#     Node 18, Type 0, BuildingBlock: CEKHIL_clean_sbu_0, # of connection points: 4
#     Node 19, Type 0, BuildingBlock: CEKHIL_clean_sbu_0, # of connection points: 4
#     Node 20, Type 0, BuildingBlock: CEKHIL_clean_sbu_0, # of connection points: 4
#     Node 21, Type 0, BuildingBlock: CEKHIL_clean_sbu_0, # of connection points: 4
#     Node 22, Type 0, BuildingBlock: CEKHIL_clean_sbu_0, # of connection points: 4
#     Node 23, Type 0, BuildingBlock: CEKHIL_clean_sbu_0, # of connection points: 4
#     Node 24, Type 1, BuildingBlock: JUFBIX_clean_sbu_0, # of connection points: 6
#     Node 25, Type 1, BuildingBlock: JUFBIX_clean_sbu_0, # of connection points: 6
#     Node 26, Type 1, BuildingBlock: JUFBIX_clean_sbu_0, # of connection points: 6
#     Node 27, Type 1, BuildingBlock: JUFBIX_clean_sbu_0, # of connection points: 6
#     Node 28, Type 1, BuildingBlock: JUFBIX_clean_sbu_0, # of connection points: 6
#     Node 29, Type 1, BuildingBlock: JUFBIX_clean_sbu_0, # of connection points: 6
#     Node 30, Type 1, BuildingBlock: JUFBIX_clean_sbu_0, # of connection points: 6
#     Node 31, Type 1, BuildingBlock: JUFBIX_clean_sbu_0, # of connection points: 6
#     Node 32, Type 1, BuildingBlock: JUFBIX_clean_sbu_0, # of connection points: 6
#     Node 33, Type 1, BuildingBlock: JUFBIX_clean_sbu_0, # of connection points: 6
#     Node 34, Type 1, BuildingBlock: JUFBIX_clean_sbu_0, # of connection points: 6
#     Node 35, Type 1, BuildingBlock: JUFBIX_clean_sbu_0, # of connection points: 6
#     Node 36, Type 1, BuildingBlock: JUFBIX_clean_sbu_0, # of connection points: 6
#     Node 37, Type 1, BuildingBlock: JUFBIX_clean_sbu_0, # of connection points: 6
#     Node 38, Type 1, BuildingBlock: JUFBIX_clean_sbu_0, # of connection points: 6
#     Node 39, Type 1, BuildingBlock: JUFBIX_clean_sbu_0, # of connection points: 6
#     Edge 40, Type (0, 1), BuildingBlock: XUDNAN_clean_linker_2, # of connection points: 2
#     Edge 41, Type (0, 1), BuildingBlock: XUDNAN_clean_linker_2, # of connection points: 2
#     Edge 42, Type (0, 1), BuildingBlock: XUDNAN_clean_linker_2, # of connection points: 2
#     Edge 43, Type (0, 1), BuildingBlock: XUDNAN_clean_linker_2, # of connection points: 2
#     Edge 44, Type (0, 1), BuildingBlock: XUDNAN_clean_linker_2, # of connection points: 2
#     Edge 45, Type (0, 1), BuildingBlock: XUDNAN_clean_linker_2, # of connection points: 2
#     Edge 46, Type (0, 1), BuildingBlock: XUDNAN_clean_linker_2, # of connection points: 2
#     Edge 47, Type (0, 1), BuildingBlock: XUDNAN_clean_linker_2, # of connection points: 2
#     Edge 48, Type (0, 1), BuildingBlock: XUDNAN_clean_linker_2, # of connection points: 2
#     Edge 49, Type (0, 1), BuildingBlock: XUDNAN_clean_linker_2, # of connection points: 2
#     Edge 50, Type (0, 1), BuildingBlock: XUDNAN_clean_linker_2, # of connection points: 2
#     Edge 51, Type (0, 1), BuildingBlock: XUDNAN_clean_linker_2, # of connection points: 2
#     Edge 52, Type (0, 1), BuildingBlock: XUDNAN_clean_linker_2, # of connection points: 2
#     Edge 53, Type (0, 1), BuildingBlock: XUDNAN_clean_linker_2, # of connection points: 2
#     Edge 54, Type (0, 1), BuildingBlock: XUDNAN_clean_linker_2, # of connection points: 2
#     Edge 55, Type (0, 1), BuildingBlock: XUDNAN_clean_linker_2, # of connection points: 2
#     Edge 56, Type (0, 1), BuildingBlock: XUDNAN_clean_linker_2, # of connection points: 2
#     Edge 57, Type (0, 1), BuildingBlock: XUDNAN_clean_linker_2, # of connection points: 2
#     Edge 58, Type (0, 1), BuildingBlock: XUDNAN_clean_linker_2, # of connection points: 2
#     Edge 59, Type (0, 1), BuildingBlock: XUDNAN_clean_linker_2, # of connection points: 2
#     Edge 60, Type (0, 1), BuildingBlock: XUDNAN_clean_linker_2, # of connection points: 2
#     Edge 61, Type (0, 1), BuildingBlock: XUDNAN_clean_linker_2, # of connection points: 2
#     Edge 62, Type (0, 1), BuildingBlock: XUDNAN_clean_linker_2, # of connection points: 2
#     Edge 63, Type (0, 1), BuildingBlock: XUDNAN_clean_linker_2, # of connection points: 2
#     Edge 64, Type (0, 1), BuildingBlock: XUDNAN_clean_linker_2, # of connection points: 2
#     Edge 65, Type (0, 1), BuildingBlock: XUDNAN_clean_linker_2, # of connection points: 2
#     Edge 66, Type (0, 1), BuildingBlock: XUDNAN_clean_linker_2, # of connection points: 2
#     Edge 67, Type (0, 1), BuildingBlock: XUDNAN_clean_linker_2, # of connection points: 2
#     Edge 68, Type (0, 1), BuildingBlock: XUDNAN_clean_linker_2, # of connection points: 2
#     Edge 69, Type (0, 1), BuildingBlock: XUDNAN_clean_linker_2, # of connection points: 2
#     Edge 70, Type (0, 1), BuildingBlock: XUDNAN_clean_linker_2, # of connection points: 2
#     Edge 71, Type (0, 1), BuildingBlock: XUDNAN_clean_linker_2, # of connection points: 2
#     Edge 72, Type (0, 1), BuildingBlock: XUDNAN_clean_linker_2, # of connection points: 2
#     Edge 73, Type (0, 1), BuildingBlock: XUDNAN_clean_linker_2, # of connection points: 2
#     Edge 74, Type (0, 1), BuildingBlock: XUDNAN_clean_linker_2, # of connection points: 2
#     Edge 75, Type (0, 1), BuildingBlock: XUDNAN_clean_linker_2, # of connection points: 2
#     Edge 76, Type (0, 1), BuildingBlock: XUDNAN_clean_linker_2, # of connection points: 2
#     Edge 77, Type (0, 1), BuildingBlock: XUDNAN_clean_linker_2, # of connection points: 2
#     Edge 78, Type (0, 1), BuildingBlock: XUDNAN_clean_linker_2, # of connection points: 2
#     Edge 79, Type (0, 1), BuildingBlock: XUDNAN_clean_linker_2, # of connection points: 2
#     Edge 80, Type (0, 1), BuildingBlock: XUDNAN_clean_linker_2, # of connection points: 2
#     Edge 81, Type (0, 1), BuildingBlock: XUDNAN_clean_linker_2, # of connection points: 2
#     Edge 82, Type (0, 1), BuildingBlock: XUDNAN_clean_linker_2, # of connection points: 2
#     Edge 83, Type (0, 1), BuildingBlock: XUDNAN_clean_linker_2, # of connection points: 2
#     Edge 84, Type (0, 1), BuildingBlock: XUDNAN_clean_linker_2, # of connection points: 2
#     Edge 85, Type (0, 1), BuildingBlock: XUDNAN_clean_linker_2, # of connection points: 2
#     Edge 86, Type (0, 1), BuildingBlock: XUDNAN_clean_linker_2, # of connection points: 2
#     Edge 87, Type (0, 1), BuildingBlock: XUDNAN_clean_linker_2, # of connection points: 2
#     Edge 88, Type (0, 1), BuildingBlock: XUDNAN_clean_linker_2, # of connection points: 2
#     Edge 89, Type (0, 1), BuildingBlock: XUDNAN_clean_linker_2, # of connection points: 2
#     Edge 90, Type (0, 1), BuildingBlock: XUDNAN_clean_linker_2, # of connection points: 2
#     Edge 91, Type (0, 1), BuildingBlock: XUDNAN_clean_linker_2, # of connection points: 2
#     Edge 92, Type (0, 1), BuildingBlock: XUDNAN_clean_linker_2, # of connection points: 2
#     Edge 93, Type (0, 1), BuildingBlock: XUDNAN_clean_linker_2, # of connection points: 2
#     Edge 94, Type (0, 1), BuildingBlock: XUDNAN_clean_linker_2, # of connection points: 2
#     Edge 95, Type (0, 1), BuildingBlock: XUDNAN_clean_linker_2, # of connection points: 2
#     Edge 96, Type (0, 1), BuildingBlock: XUDNAN_clean_linker_2, # of connection points: 2
#     Edge 97, Type (0, 1), BuildingBlock: XUDNAN_clean_linker_2, # of connection points: 2
#     Edge 98, Type (0, 1), BuildingBlock: XUDNAN_clean_linker_2, # of connection points: 2
#     Edge 99, Type (0, 1), BuildingBlock: XUDNAN_clean_linker_2, # of connection points: 2
#     Edge 100, Type (0, 1), BuildingBlock: XUDNAN_clean_linker_2, # of connection points: 2
#     Edge 101, Type (0, 1), BuildingBlock: XUDNAN_clean_linker_2, # of connection points: 2
#     Edge 102, Type (0, 1), BuildingBlock: XUDNAN_clean_linker_2, # of connection points: 2
#     Edge 103, Type (0, 1), BuildingBlock: XUDNAN_clean_linker_2, # of connection points: 2
#     Edge 104, Type (0, 1), BuildingBlock: XUDNAN_clean_linker_2, # of connection points: 2
#     Edge 105, Type (0, 1), BuildingBlock: XUDNAN_clean_linker_2, # of connection points: 2
#     Edge 106, Type (0, 1), BuildingBlock: XUDNAN_clean_linker_2, # of connection points: 2
#     Edge 107, Type (0, 1), BuildingBlock: XUDNAN_clean_linker_2, # of connection points: 2
#     Edge 108, Type (0, 1), BuildingBlock: XUDNAN_clean_linker_2, # of connection points: 2
#     Edge 109, Type (0, 1), BuildingBlock: XUDNAN_clean_linker_2, # of connection points: 2
#     Edge 110, Type (0, 1), BuildingBlock: XUDNAN_clean_linker_2, # of connection points: 2
#     Edge 111, Type (0, 1), BuildingBlock: XUDNAN_clean_linker_2, # of connection points: 2
#     Edge 112, Type (0, 1), BuildingBlock: XUDNAN_clean_linker_2, # of connection points: 2
#     Edge 113, Type (0, 1), BuildingBlock: XUDNAN_clean_linker_2, # of connection points: 2
#     Edge 114, Type (0, 1), BuildingBlock: XUDNAN_clean_linker_2, # of connection points: 2
#     Edge 115, Type (0, 1), BuildingBlock: XUDNAN_clean_linker_2, # of connection points: 2
#     Edge 116, Type (0, 1), BuildingBlock: XUDNAN_clean_linker_2, # of connection points: 2
#     Edge 117, Type (0, 1), BuildingBlock: XUDNAN_clean_linker_2, # of connection points: 2
#     Edge 118, Type (0, 1), BuildingBlock: XUDNAN_clean_linker_2, # of connection points: 2
#     Edge 119, Type (0, 1), BuildingBlock: XUDNAN_clean_linker_2, # of connection points: 2
#     Edge 120, Type (0, 1), BuildingBlock: XUDNAN_clean_linker_2, # of connection points: 2
#     Edge 121, Type (0, 1), BuildingBlock: XUDNAN_clean_linker_2, # of connection points: 2
#     Edge 122, Type (0, 1), BuildingBlock: XUDNAN_clean_linker_2, # of connection points: 2
#     Edge 123, Type (0, 1), BuildingBlock: XUDNAN_clean_linker_2, # of connection points: 2
#     Edge 124, Type (0, 1), BuildingBlock: XUDNAN_clean_linker_2, # of connection points: 2
#     Edge 125, Type (0, 1), BuildingBlock: XUDNAN_clean_linker_2, # of connection points: 2
#     Edge 126, Type (0, 1), BuildingBlock: XUDNAN_clean_linker_2, # of connection points: 2
#     Edge 127, Type (0, 1), BuildingBlock: XUDNAN_clean_linker_2, # of connection points: 2
#     Edge 128, Type (0, 1), BuildingBlock: XUDNAN_clean_linker_2, # of connection points: 2
#     Edge 129, Type (0, 1), BuildingBlock: XUDNAN_clean_linker_2, # of connection points: 2
#     Edge 130, Type (0, 1), BuildingBlock: XUDNAN_clean_linker_2, # of connection points: 2
#     Edge 131, Type (0, 1), BuildingBlock: XUDNAN_clean_linker_2, # of connection points: 2
#     Edge 132, Type (0, 1), BuildingBlock: XUDNAN_clean_linker_2, # of connection points: 2
#     Edge 133, Type (0, 1), BuildingBlock: XUDNAN_clean_linker_2, # of connection points: 2
#     Edge 134, Type (0, 1), BuildingBlock: XUDNAN_clean_linker_2, # of connection points: 2
#     Edge 135, Type (0, 1), BuildingBlock: XUDNAN_clean_linker_2, # of connection points: 2
# Relax obj value: 0.230
# Max RMSD: 0.237
# Mean RMSD: 0.114
data_MOF--net-iac--node1-CEKHIL_clean_sbu_0--node2-JUFBIX_clean_sbu_0--edge1-XUDNAN_clean_linker_2
_symmetry_space_group_name_H-M    P1
_symmetry_Int_Tables_number       1
_symmetry_cell_setting            triclinic
loop_
_symmetry_equiv_pos_as_xyz
'x, y, z'
_cell_length_a     54.464283
_cell_length_b     55.109712
_cell_length_c     54.043591
_cell_angle_alpha  89.236166
_cell_angle_beta   88.329517
_cell_angle_gamma 89.006734
loop_
_atom_site_label
_atom_site_type_symbol
_atom_site_fract_x
_atom_site_fract_y
_atom_site_fract_z
_atom_type_partial_charge
Co0 Co 0.02926 0.289 0.15147 0.0
O1 O 0.99466 0.29139 0.14268 0.0
O2 O 1.00691 0.28 0.17938 0.0
C3 C 0.03959 0.32709 0.13536 0.0
O4 O 0.06285 0.28534 0.16935 0.0
Co5 Co 0.0707 0.28687 0.11457 0.0
O6 O 0.0938 0.29147 0.14207 0.0
C7 C 0.04114 0.24293 0.11991 0.0
C8 C 0.98859 0.28463 0.16508 0.0
C9 C 0.08611 0.28825 0.16431 0.0
O10 O 0.03069 0.25345 0.13895 0.0
O11 O 0.05688 0.25412 0.10611 0.0
O12 O 0.02996 0.32408 0.15739 0.0
O13 O 0.04166 0.30721 0.12266 0.0
Co14 Co 0.06133 0.78288 0.42064 0.0
O15 O 0.09491 0.78725 0.43008 0.0
O16 O 0.08264 0.78117 0.39191 0.0
C17 C 0.0446 0.81369 0.44251 0.0
O18 O 0.0295 0.77913 0.40289 0.0
Co19 Co 0.01848 0.77037 0.45753 0.0
O20 O 0.99688 0.77623 0.42899 0.0
C21 C 0.05655 0.73357 0.4445 0.0
C22 C 0.1005 0.78529 0.4066 0.0
C23 C 1.00625 0.77811 0.40718 0.0
O24 O 0.06448 0.74676 0.42627 0.0
O25 O 0.04033 0.74086 0.46047 0.0
O26 O 0.0556 0.8179 0.42126 0.0
O27 O 0.04593 0.79162 0.45073 0.0
Co28 Co 0.53082 0.78817 0.65089 0.0
O29 O 0.49588 0.78963 0.64338 0.0
O30 O 0.50963 0.78135 0.68029 0.0
C31 C 0.53943 0.82472 0.63001 0.0
O32 O 0.56489 0.78574 0.66802 0.0
Co33 Co 0.57213 0.78439 0.61377 0.0
O34 O 0.59598 0.78943 0.64046 0.0
C35 C 0.54181 0.74102 0.62159 0.0
C36 C 0.49072 0.78467 0.66647 0.0
C37 C 0.58824 0.78752 0.66282 0.0
O38 O 0.5321 0.75185 0.64086 0.0
O39 O 0.55706 0.75191 0.60698 0.0
O40 O 0.53131 0.82413 0.65285 0.0
O41 O 0.54195 0.80339 0.62023 0.0
Co42 Co 0.54105 0.27342 0.91623 0.0
O43 O 0.57632 0.27247 0.91081 0.0
O44 O 0.54873 0.27303 0.88141 0.0
C45 C 0.53991 0.3024 0.94523 0.0
O46 O 0.50397 0.27587 0.91353 0.0
Co47 Co 0.51455 0.26127 0.96642 0.0
O48 O 0.48591 0.27809 0.95133 0.0
C49 C 0.53841 0.2225 0.93641 0.0
C50 C 0.57167 0.27263 0.88733 0.0
C51 C 0.48522 0.28021 0.92786 0.0
O52 O 0.54037 0.23686 0.91755 0.0
O53 O 0.53086 0.22938 0.95791 0.0
O54 O 0.54193 0.3084 0.9219 0.0
O55 O 0.54065 0.27946 0.95016 0.0
Co56 Co 0.16915 0.01392 0.31373 0.0
O57 O 0.17824 0.98168 0.30386 0.0
O58 O 0.20313 0.01329 0.30296 0.0
C59 C 0.14923 1.00306 0.34874 0.0
O60 O 0.16701 0.0494 0.32251 0.0
Co61 Co 0.11531 0.03233 0.32071 0.0
O62 O 0.12951 0.06085 0.33675 0.0
C63 C 0.13735 0.02512 0.27042 0.0
C64 C 0.19981 0.99046 0.29867 0.0
C65 C 0.15215 0.06497 0.3325 0.0
O66 O 0.15865 0.02123 0.27931 0.0
O67 O 0.11779 0.02852 0.28377 0.0
O68 O 0.17297 0.00533 0.3485 0.0
O69 O 0.13857 0.00623 0.32792 0.0
Co70 Co 0.25294 0.90522 0.53097 0.0
O71 O 0.21846 0.89885 0.53097 0.0
O72 O 0.23543 0.93247 0.54458 0.0
C73 C 0.26337 0.89344 0.49276 0.0
O74 O 0.28701 0.91831 0.5337 0.0
Co75 Co 0.2913 0.86294 0.52705 0.0
O76 O 0.31496 0.88983 0.52205 0.0
C77 C 0.26392 0.87106 0.57387 0.0
C78 C 0.21581 0.91996 0.54129 0.0
C79 C 0.30908 0.91145 0.52824 0.0
O80 O 0.25487 0.89068 0.56478 0.0
O81 O 0.2773 0.85607 0.5613 0.0
O82 O 0.2533 0.91472 0.49632 0.0
O83 O 0.2634 0.87889 0.51175 0.0
Co84 Co 0.41477 0.06328 0.77469 0.0
O85 O 0.4189 0.09749 0.77228 0.0
O86 O 0.38654 0.07807 0.75895 0.0
C87 C 0.42528 0.05835 0.81396 0.0
O88 O 0.40487 0.02757 0.77572 0.0
Co89 Co 0.46211 0.03204 0.783 0.0
O90 O 0.43713 0.00759 0.79232 0.0
C91 C 0.45466 0.05553 0.73504 0.0
C92 C 0.3979 0.09846 0.76166 0.0
C93 C 0.41472 0.00868 0.78609 0.0
O94 O 0.4322 0.05985 0.74168 0.0
O95 O 0.47047 0.04625 0.74961 0.0
O96 O 0.40313 0.06562 0.80895 0.0
O97 O 0.44085 0.05796 0.79545 0.0
Co98 Co 0.28701 0.15619 0.02749 0.0
O99 O 0.32339 0.15907 0.02633 0.0
O100 O 0.30365 0.12559 0.03481 0.0
C101 C 0.28016 0.17776 0.99076 0.0
O102 O 0.25169 0.1423 0.02925 0.0
Co103 Co 0.2476 0.19533 0.03057 0.0
O104 O 0.22233 0.17048 0.02416 0.0
C105 C 0.27643 0.18518 0.07537 0.0
C106 C 0.32469 0.13592 0.03147 0.0
C107 C 0.22883 0.1483 0.02648 0.0
O108 O 0.28552 0.16589 0.06456 0.0
O109 O 0.26241 0.20022 0.06397 0.0
O110 O 0.28701 0.15502 0.99059 0.0
O111 O 0.27826 0.18685 0.01272 0.0
Co112 Co 0.75693 0.41896 0.02931 0.0
O113 O 0.72207 0.41978 0.03539 0.0
O114 O 0.74828 0.44661 0.04913 0.0
C115 C 0.75627 0.41152 0.98871 0.0
O116 O 0.79331 0.42495 0.02621 0.0
Co117 Co 0.78513 0.37268 0.01172 0.0
O118 O 0.81331 0.39482 0.00612 0.0
C119 C 0.76286 0.37511 0.06189 0.0
C120 C 0.72578 0.43945 0.04767 0.0
C121 C 0.81271 0.41584 0.01568 0.0
O122 O 0.76107 0.39828 0.05975 0.0
O123 O 0.76954 0.36128 0.04397 0.0
O124 O 0.75279 0.43353 0.99658 0.0
O125 O 0.75769 0.39473 0.00555 0.0
Co126 Co 0.91935 0.55646 0.26797 0.0
O127 O 0.91446 0.59107 0.26905 0.0
O128 O 0.88541 0.56425 0.26271 0.0
C129 C 0.94235 0.55203 0.30156 0.0
O130 O 0.91673 0.51994 0.26645 0.0
Co131 Co 0.97089 0.53206 0.26008 0.0
O132 O 0.95376 0.50181 0.26999 0.0
C133 C 0.94623 0.55593 0.21827 0.0
C134 C 0.89157 0.58678 0.26469 0.0
C135 C 0.93044 0.50096 0.26929 0.0
O136 O 0.92646 0.5588 0.23141 0.0
O137 O 0.96636 0.54726 0.22657 0.0
O138 O 0.9186 0.55428 0.30398 0.0
O139 O 0.95145 0.55524 0.27943 0.0
Co140 Co 0.78778 0.65616 0.52514 0.0
O141 O 0.82396 0.65906 0.52412 0.0
O142 O 0.80424 0.62538 0.53221 0.0
C143 C 0.78205 0.67779 0.48843 0.0
O144 O 0.75234 0.6425 0.52685 0.0
Co145 Co 0.74884 0.69517 0.52786 0.0
O146 O 0.72309 0.67075 0.52182 0.0
C147 C 0.77766 0.68532 0.57263 0.0
C148 C 0.82521 0.63586 0.52887 0.0
C149 C 0.72949 0.64856 0.5242 0.0
O150 O 0.78642 0.66583 0.56204 0.0
O151 O 0.76373 0.70038 0.56114 0.0
O152 O 0.788 0.65484 0.48846 0.0
O153 O 0.77981 0.68711 0.51028 0.0
Co154 Co 0.65211 0.50689 0.81084 0.0
O155 O 0.64187 0.4771 0.79616 0.0
O156 O 0.67889 0.49324 0.79184 0.0
C157 C 0.636 0.49996 0.84866 0.0
O158 O 0.67024 0.5361 0.82251 0.0
Co159 Co 0.61643 0.5465 0.83188 0.0
O160 O 0.64619 0.56331 0.84243 0.0
C161 C 0.62049 0.53761 0.77823 0.0
C162 C 0.66406 0.47601 0.78656 0.0
C163 C 0.66721 0.5559 0.83451 0.0
O164 O 0.64035 0.52519 0.78125 0.0
O165 O 0.6072 0.54605 0.79617 0.0
O166 O 0.65714 0.49014 0.84241 0.0
O167 O 0.62479 0.51203 0.83165 0.0
Co168 Co 0.03773 0.79137 0.90595 0.0
O169 O 0.07261 0.79212 0.91322 0.0
O170 O 0.059 0.78461 0.87644 0.0
C171 C 0.02888 0.82773 0.9269 0.0
O172 O 1.0034 0.79047 0.88929 0.0
Co173 Co 0.99747 0.78691 0.94429 0.0
O174 O 0.97283 0.78894 0.91777 0.0
C175 C 0.02804 0.74348 0.9354 0.0
C176 C 0.07789 0.78774 0.89013 0.0
C177 C 0.98011 0.78968 0.89519 0.0
O178 O 0.03667 0.75464 0.9157 0.0
O179 O 0.01372 0.75436 0.95098 0.0
O180 O 0.03699 0.8275 0.90406 0.0
O181 O 0.02672 0.80615 0.93664 0.0
Co182 Co 1.00094 0.30538 0.64641 0.0
O183 O 0.96702 0.30199 0.63749 0.0
O184 O 0.98468 0.28343 0.66909 0.0
C185 C 1.00029 0.34603 0.64203 0.0
O186 O 0.03398 0.3043 0.66282 0.0
Co187 Co 0.04198 0.32885 0.61367 0.0
O188 O 0.06372 0.32441 0.64228 0.0
C189 C 0.02491 0.27915 0.60339 0.0
C190 C 0.96487 0.28795 0.65694 0.0
C191 C 0.05615 0.31179 0.66078 0.0
O192 O 0.01203 0.27827 0.62379 0.0
O193 O 0.03569 0.29831 0.5954 0.0
O194 O 0.99216 0.33618 0.66261 0.0
O195 O 0.00809 0.33131 0.62516 0.0
Co196 Co 0.53705 0.29236 0.40498 0.0
O197 O 0.57217 0.29452 0.41108 0.0
O198 O 0.55763 0.28539 0.37511 0.0
C199 C 0.52794 0.32889 0.42529 0.0
O200 O 0.5024 0.29001 0.389 0.0
Co201 Co 0.49672 0.28865 0.44346 0.0
O202 O 0.47183 0.29099 0.41748 0.0
C203 C 0.52662 0.24442 0.43452 0.0
C204 C 0.57683 0.28971 0.38795 0.0
C205 C 0.47907 0.29015 0.39495 0.0
O206 O 0.5375 0.25598 0.4162 0.0
O207 O 0.51038 0.25483 0.44848 0.0
O208 O 0.5353 0.32841 0.40221 0.0
O209 O 0.52619 0.30749 0.43549 0.0
Co210 Co 0.50642 0.80609 0.14243 0.0
O211 O 0.47291 0.80212 0.1327 0.0
O212 O 0.49083 0.78258 0.16368 0.0
C213 C 0.50532 0.84671 0.14041 0.0
O214 O 0.53885 0.80568 0.15964 0.0
Co215 Co 0.54725 0.83 0.11074 0.0
O216 O 0.56775 0.82806 0.14057 0.0
C217 C 0.5299 0.78137 0.09808 0.0
C218 C 0.47122 0.78672 0.15109 0.0
C219 C 0.56021 0.81513 0.15884 0.0
O220 O 0.51794 0.78005 0.11892 0.0
O221 O 0.54097 0.80052 0.09055 0.0
O222 O 0.49683 0.8356 0.16015 0.0
O223 O 0.5132 0.8332 0.12243 0.0
Co224 Co 0.89231 0.06641 0.78141 0.0
O225 O 0.89754 0.09961 0.78892 0.0
O226 O 0.86871 0.08642 0.76441 0.0
C227 C 0.89411 0.0529 0.82034 0.0
O228 O 0.88098 0.03351 0.77058 0.0
Co229 Co 0.93266 0.02715 0.7929 0.0
O230 O 0.90581 1.00459 0.78645 0.0
C231 C 0.93753 0.05841 0.7483 0.0
C232 C 0.87859 0.10443 0.77561 0.0
C233 C 0.88656 0.01117 0.77514 0.0
O234 O 0.91631 0.0683 0.75255 0.0
O235 O 0.94767 0.04286 0.76271 0.0
O236 O 0.87376 0.06248 0.81265 0.0
O237 O 0.91291 0.05392 0.80534 0.0
Co238 Co 0.80566 0.15021 0.4837 0.0
O239 O 0.83564 0.16338 0.495 0.0
O240 O 0.82546 0.12453 0.49718 0.0
C241 C 0.80787 0.17065 0.44787 0.0
O242 O 0.77754 0.12939 0.47368 0.0
Co243 Co 0.7602 0.18071 0.47052 0.0
O244 O 0.74652 0.15062 0.4574 0.0
C245 C 0.77153 0.17072 0.52311 0.0
C246 C 0.84165 0.14113 0.50062 0.0
C247 C 0.75669 0.13049 0.46328 0.0
O248 O 0.78917 0.15619 0.51664 0.0
O249 O 0.75908 0.18326 0.50759 0.0
O250 O 0.81928 0.1499 0.45015 0.0
O251 O 0.79568 0.17852 0.46706 0.0
Co252 Co 0.66462 0.0107 0.29796 0.0
O253 O 0.66732 0.97728 0.28912 0.0
O254 O 0.69846 1.0027 0.28999 0.0
C255 C 0.64086 1.00374 0.33169 0.0
O256 O 0.6691 0.04586 0.30675 0.0
Co257 Co 0.61404 0.03786 0.30127 0.0
O258 O 0.63316 0.06635 0.31091 0.0
C259 C 0.63777 0.02639 0.25279 0.0
C260 C 0.69079 0.98074 0.2869 0.0
C261 C 0.65652 0.0653 0.31121 0.0
O262 O 0.65814 0.02046 0.26283 0.0
O263 O 0.61777 0.0309 0.26504 0.0
O264 O 0.66457 1.00151 0.33288 0.0
O265 O 0.63233 0.00891 0.31024 0.0
Co266 Co 0.77947 0.90936 0.02057 0.0
O267 O 0.74477 0.90151 0.01905 0.0
O268 O 0.75777 0.93736 0.02899 0.0
C269 C 0.78853 0.8907 0.98284 0.0
O270 O 0.8135 0.92636 0.0232 0.0
Co271 Co 0.82174 0.87334 0.0211 0.0
O272 O 0.84482 0.90043 0.01584 0.0
C273 C 0.79171 0.87908 0.06731 0.0
C274 C 0.73914 0.92375 0.02476 0.0
C275 C 0.83689 0.92186 0.01994 0.0
O276 O 0.77998 0.89709 0.05692 0.0
O277 O 0.8083 0.86669 0.0556 0.0
O278 O 0.78063 0.91307 0.98385 0.0
O279 O 0.79117 0.88054 0.00437 0.0
Co280 Co 0.30299 0.66428 0.00822 0.0
O281 O 0.33716 0.66002 0.01454 0.0
O282 O 0.30817 0.63391 0.0256 0.0
C283 C 0.30878 0.67521 0.96843 0.0
O284 O 0.26623 0.66211 0.00447 0.0
Co285 Co 0.28116 0.71442 0.99227 0.0
O286 O 0.24949 0.69732 0.99112 0.0
C287 C 0.2904 0.70387 0.04511 0.0
C288 C 0.33137 0.63916 0.02426 0.0
C289 C 0.24767 0.67528 0.99821 0.0
O290 O 0.29717 0.68197 0.04008 0.0
O291 O 0.28533 0.71987 0.02853 0.0
O292 O 0.30866 0.65243 0.97482 0.0
O293 O 0.30702 0.69057 0.98625 0.0
Co294 Co 0.15747 0.50701 0.80106 0.0
O295 O 0.14406 0.4755 0.79658 0.0
O296 O 0.17647 0.49002 0.77589 0.0
C297 C 0.15694 0.50355 0.84241 0.0
O298 O 0.17711 0.53791 0.80093 0.0
Co299 Co 0.12991 0.54728 0.83068 0.0
O300 O 0.16093 0.5654 0.82722 0.0
C301 C 0.11632 0.53698 0.77909 0.0
C302 C 0.16221 0.4718 0.78095 0.0
C303 C 0.17766 0.55846 0.81181 0.0
O304 O 0.13447 0.52184 0.77633 0.0
O305 O 0.11062 0.54718 0.79968 0.0
O306 O 0.17537 0.49468 0.82956 0.0
O307 O 0.13932 0.51337 0.83015 0.0
Co308 Co 0.27881 0.41294 0.5235 0.0
O309 O 0.24262 0.41081 0.5243 0.0
O310 O 0.26301 0.44238 0.53616 0.0
C311 C 0.28409 0.39781 0.48356 0.0
O312 O 0.31442 0.4259 0.52424 0.0
Co313 Co 0.31584 0.37326 0.52049 0.0
O314 O 0.3432 0.39698 0.52006 0.0
C315 C 0.28888 0.37817 0.56778 0.0
C316 C 0.24183 0.43282 0.53275 0.0
C317 C 0.33729 0.41923 0.52266 0.0
O318 O 0.2804 0.39857 0.559 0.0
O319 O 0.30205 0.36383 0.5543 0.0
O320 O 0.27834 0.42035 0.48799 0.0
O321 O 0.28603 0.38429 0.50337 0.0
Co322 Co 0.3903 0.56576 0.2803 0.0
O323 O 0.39109 0.60034 0.28032 0.0
O324 O 0.36463 0.57844 0.25992 0.0
C325 C 0.39335 0.56139 0.32113 0.0
O326 O 0.38305 0.53016 0.27687 0.0
Co327 Co 0.43382 0.53371 0.29871 0.0
O328 O 0.40797 0.50892 0.3019 0.0
C329 C 0.4368 0.55758 0.24946 0.0
C330 C 0.37184 0.59964 0.26673 0.0
C331 C 0.38902 0.51076 0.28874 0.0
O332 O 0.41434 0.56494 0.2516 0.0
O333 O 0.44817 0.54589 0.2664 0.0
O334 O 0.37208 0.56627 0.31188 0.0
O335 O 0.41203 0.56103 0.30587 0.0
Co336 Co 0.0307 0.04062 0.01398 0.0
C337 C 0.02606 0.07392 0.05409 0.0
Co338 Co 0.03667 0.02364 0.04991 0.0
C339 C 0.00922 0.04287 0.96808 0.0
C340 C 0.02523 0.07717 0.97515 0.0
N341 N 0.02311 0.05434 0.98417 0.0
N342 N 1.00199 0.0575 0.94959 0.0
C343 C 0.01196 0.07923 0.9538 0.0
H344 H 1.00258 0.02465 0.97113 0.0
H345 H 0.03439 0.09167 0.9843 0.0
C346 C 0.04094 0.98975 0.01061 0.0
N347 N 0.04391 0.009 0.07948 0.0
C348 C 0.05863 0.01763 0.09674 0.0
C349 C 0.03891 0.98606 0.08686 0.0
N350 N 0.06343 1.00082 0.11423 0.0
C351 C 0.0512 0.98087 0.10823 0.0
C352 C 0.98801 0.01928 0.03702 0.0
O353 O 0.03703 0.00868 0.99733 0.0
O354 O 0.04299 0.9929 0.03372 0.0
O355 O 1.00256 0.01433 0.05443 0.0
O356 O 0.99624 0.03142 0.0185 0.0
O357 O 0.03005 0.05444 0.06646 0.0
H358 H 0.02798 0.97357 0.07676 0.0
H359 H 0.06685 0.03539 0.09575 0.0
O360 O 0.02456 0.07216 0.03061 0.0
O361 O 0.06463 0.0501 0.00937 0.0
O362 O 0.07116 0.03301 0.04536 0.0
C363 C 0.07924 0.04545 0.02685 0.0
H364 H 0.00893 0.09561 0.94296 0.0
H365 H 0.05159 0.96375 0.11828 0.0
Co366 Co 0.30022 0.80228 0.28954 0.0
C367 C 0.28793 0.75478 0.28477 0.0
Co368 Co 0.27319 0.79701 0.26069 0.0
C369 C 0.32122 0.82723 0.32888 0.0
C370 C 0.34009 0.79334 0.3231 0.0
N371 N 0.32211 0.80782 0.31407 0.0
N372 N 0.33761 0.82547 0.34695 0.0
C373 C 0.34941 0.80404 0.3437 0.0
H374 H 0.30744 0.84157 0.32766 0.0
H375 H 0.34517 0.77564 0.31599 0.0
C376 C 0.28579 0.84453 0.26474 0.0
N377 N 0.25161 0.79115 0.23597 0.0
C378 C 0.25373 0.77178 0.22117 0.0
C379 C 0.23361 0.80508 0.22622 0.0
N380 N 0.23816 0.77301 0.20239 0.0
C381 C 0.2255 0.79405 0.20522 0.0
C382 C 0.25143 0.80543 0.30625 0.0
O383 O 0.29975 0.83593 0.28122 0.0
O384 O 0.27231 0.83031 0.25312 0.0
O385 O 0.24683 0.80126 0.28379 0.0
O386 O 0.27362 0.80709 0.31256 0.0
O387 O 0.27413 0.76364 0.2684 0.0
H388 H 0.22783 0.82271 0.23303 0.0
H389 H 0.26799 0.75796 0.22285 0.0
O390 O 0.30073 0.76887 0.2973 0.0
O391 O 0.32639 0.79686 0.26699 0.0
O392 O 0.3 0.79238 0.23753 0.0
C393 C 0.32199 0.79224 0.24466 0.0
H394 H 0.36286 0.79624 0.35598 0.0
H395 H 0.21235 0.80144 0.19238 0.0
Co396 Co 0.51749 0.0323 0.52085 0.0
C397 C 0.53915 0.07648 0.50719 0.0
Co398 Co 0.55478 0.03393 0.53469 0.0
C399 C 0.46638 0.02128 0.52321 0.0
C400 C 0.47777 0.03556 0.48773 0.0
N401 N 0.48588 0.03029 0.51059 0.0
N402 N 0.44656 0.02039 0.50901 0.0
C403 C 0.45356 0.02917 0.48662 0.0
H404 H 0.46708 0.01416 0.54196 0.0
H405 H 0.48905 0.04259 0.47256 0.0
C406 C 0.53329 0.98958 0.54797 0.0
N407 N 0.58707 0.03598 0.54321 0.0
C408 C 0.6044 0.04378 0.52695 0.0
C409 C 0.59947 0.02821 0.56313 0.0
N410 N 0.62718 0.0412 0.53554 0.0
C411 C 0.62434 0.03137 0.55841 0.0
C412 C 0.52083 0.052 0.56761 0.0
O413 O 0.51592 0.99921 0.5355 0.0
O414 O 0.55257 1.00196 0.55064 0.0
O415 O 0.54384 0.04851 0.56452 0.0
O416 O 0.50632 0.04584 0.55092 0.0
O417 O 0.55692 0.06629 0.51847 0.0
H418 H 0.59111 0.02006 0.57956 0.0
H419 H 0.60039 0.05011 0.50843 0.0
O420 O 0.51921 0.06489 0.50626 0.0
O421 O 0.52851 0.0189 0.49082 0.0
O422 O 0.56561 0.01908 0.50488 0.0
C423 C 0.55117 0.01421 0.4878 0.0
H424 H 0.44223 0.03006 0.4705 0.0
H425 H 0.63908 0.02665 0.57069 0.0
Co426 Co 0.29176 0.29448 0.78684 0.0
C427 C 0.28022 0.30372 0.73758 0.0
Co428 Co 0.26158 0.27137 0.77559 0.0
C429 C 0.33597 0.3041 0.81203 0.0
C430 C 0.32037 0.33665 0.79658 0.0
N431 N 0.31769 0.31235 0.79768 0.0
N432 N 0.34961 0.32227 0.82034 0.0
C433 C 0.33989 0.34282 0.81076 0.0
H434 H 0.33817 0.28529 0.81772 0.0
H435 H 0.30812 0.34915 0.78723 0.0
C436 C 0.27352 0.26284 0.8254 0.0
N437 N 0.23504 0.25423 0.76518 0.0
C438 C 0.2165 0.26414 0.75227 0.0
C439 C 0.22802 0.23137 0.77053 0.0
N440 N 0.19796 0.24865 0.74958 0.0
C441 C 0.20507 0.22792 0.76105 0.0
C442 C 0.30612 0.24946 0.7675 0.0
O443 O 0.28846 0.27968 0.81961 0.0
O444 O 0.25911 0.25579 0.8088 0.0
O445 O 0.28324 0.24663 0.76524 0.0
O446 O 0.31386 0.26901 0.77659 0.0
O447 O 0.26461 0.28713 0.74243 0.0
H448 H 0.23843 0.21844 0.78143 0.0
H449 H 0.21597 0.28295 0.74624 0.0
O450 O 0.29467 0.30957 0.75453 0.0
O451 O 0.26957 0.3197 0.79626 0.0
O452 O 0.2396 0.2964 0.78584 0.0
C453 C 0.24682 0.31667 0.7933 0.0
H454 H 0.34593 0.361 0.81448 0.0
H455 H 0.19426 0.21167 0.76296 0.0
Co456 Co 0.02118 0.02149 0.54214 0.0
C457 C 0.01561 0.0472 0.58468 0.0
Co458 Co 0.04623 0.05235 0.54312 0.0
C459 C 1.00769 0.97421 0.52878 0.0
C460 C 0.97749 0.99205 0.54752 0.0
N461 N 1.00115 0.995 0.54012 0.0
N462 N 0.98911 0.95849 0.52835 0.0
C463 C 0.97004 0.96941 0.54038 0.0
H464 H 0.02583 0.97066 0.52077 0.0
H465 H 0.96627 0.00565 0.55693 0.0
C466 C 0.05211 0.02665 0.50049 0.0
N467 N 0.06602 0.07891 0.54467 0.0
C468 C 0.05825 0.10068 0.55299 0.0
C469 C 0.08917 0.08241 0.53592 0.0
N470 N 0.07536 0.11775 0.54965 0.0
C471 C 0.09491 0.10651 0.53877 0.0
C472 C 0.06598 0.01029 0.56219 0.0
O473 O 0.03454 0.01468 0.51014 0.0
O474 O 0.06025 0.04462 0.5119 0.0
O475 O 0.07028 0.03264 0.55831 0.0
O476 O 0.04549 1.0018 0.55631 0.0
O477 O 0.03218 0.06002 0.57441 0.0
H478 H 0.1007 0.06863 0.52717 0.0
H479 H 0.03975 0.10431 0.56003 0.0
O480 O 0.00814 0.02848 0.57395 0.0
O481 O 0.99691 0.04123 0.52819 0.0
O482 O 0.02192 0.07195 0.52796 0.0
C483 C 1.00103 0.06344 0.52358 0.0
H484 H 0.95191 0.9619 0.54309 0.0
H485 H 0.11179 0.11518 0.5328 0.0
Co486 Co 0.29038 0.80168 0.78632 0.0
C487 C 0.24196 0.78718 0.80157 0.0
Co488 Co 0.27728 0.76944 0.76753 0.0
C489 C 0.31285 0.84822 0.79574 0.0
C490 C 0.29454 0.83249 0.82754 0.0
N491 N 0.29958 0.82884 0.80328 0.0
N492 N 0.31642 0.86362 0.8145 0.0
C493 C 0.30482 0.85377 0.83446 0.0
H494 H 0.32048 0.85052 0.77715 0.0
H495 H 0.28446 0.82014 0.8396 0.0
C496 C 0.32561 0.78388 0.7523 0.0
N497 N 0.26798 0.74197 0.75153 0.0
C498 C 0.25847 0.72225 0.76287 0.0
C499 C 0.27142 0.7357 0.72763 0.0
N500 N 0.25611 0.7037 0.74722 0.0
C501 C 0.2642 0.71202 0.72493 0.0
C502 C 0.26634 0.81159 0.74292 0.0
O503 O 0.32215 0.80024 0.76857 0.0
O504 O 0.30839 0.76895 0.74899 0.0
O505 O 0.26377 0.78878 0.74306 0.0
O506 O 0.27739 0.82154 0.76047 0.0
O507 O 0.24586 0.77021 0.78612 0.0
H508 H 0.27947 0.74725 0.71334 0.0
H509 H 0.25461 0.72112 0.78261 0.0
O510 O 0.25876 0.80272 0.80398 0.0
O511 O 0.30326 0.78166 0.81184 0.0
O512 O 0.29116 0.74982 0.79211 0.0
C513 C 0.30167 0.75879 0.81033 0.0
H514 H 0.30409 0.86128 0.85288 0.0
H515 H 0.26523 0.70166 0.70805 0.0
Co516 Co 0.52601 0.01897 0.01233 0.0
C517 C 0.57477 0.00778 0.02329 0.0
Co518 Co 0.53977 0.04356 0.03996 0.0
C519 C 0.50163 1.00394 0.96971 0.0
C520 C 0.51234 0.97322 0.99171 0.0
N521 N 0.51346 0.99771 0.99032 0.0
N522 N 0.49309 0.98448 0.9583 0.0
C523 C 0.49951 0.96498 0.97194 0.0
H524 H 0.49869 0.02249 0.96345 0.0
H525 H 0.51995 0.96212 0.00637 0.0
C526 C 0.49033 0.05359 0.02882 0.0
N527 N 0.55293 0.06408 0.06235 0.0
C528 C 0.56476 0.05594 0.08233 0.0
C529 C 0.55598 0.08836 0.06209 0.0
N530 N 0.57503 0.07391 0.09469 0.0
C531 C 0.56981 0.09449 0.08208 0.0
C532 C 0.54652 0.05995 0.99149 0.0
O533 O 0.49468 0.03538 0.01501 0.0
O534 O 0.5078 0.06127 0.0418 0.0
O535 O 0.55032 0.06415 0.01406 0.0
O536 O 0.53581 0.04056 0.98591 0.0
O537 O 0.57162 0.02563 0.03791 0.0
H538 H 0.54923 0.10065 0.04797 0.0
H539 H 0.5667 0.03691 0.08725 0.0
O540 O 0.557 1.00221 0.00984 0.0
O541 O 0.51629 0.99799 0.03833 0.0
O542 O 0.52897 0.0226 0.06635 0.0
C543 C 0.51909 1.00281 0.0609 0.0
H544 H 0.4952 0.94638 0.9679 0.0
H545 H 0.57555 0.11248 0.08695 0.0
Co546 Co 0.27694 0.2678 0.29497 0.0
C547 C 0.32674 0.28068 0.29618 0.0
Co548 Co 0.28486 0.29907 0.27093 0.0
C549 C 0.25287 0.22408 0.31182 0.0
C550 C 0.27809 0.23744 0.33786 0.0
N551 N 0.26985 0.24121 0.31476 0.0
N552 N 0.2499 0.21016 0.33235 0.0
C553 C 0.26574 0.21841 0.34877 0.0
H554 H 0.24187 0.22274 0.29553 0.0
H555 H 0.29132 0.24863 0.34669 0.0
C556 C 0.23519 0.28634 0.26925 0.0
N557 N 0.29197 0.32663 0.25277 0.0
C558 C 0.30545 0.34421 0.2622 0.0
C559 C 0.28145 0.33685 0.23277 0.0
N560 N 0.30293 0.36538 0.24994 0.0
C561 C 0.28822 0.36091 0.23098 0.0
C562 C 0.28849 0.25621 0.24415 0.0
O563 O 0.24222 0.27053 0.28521 0.0
O564 O 0.25082 0.30172 0.26137 0.0
O565 O 0.29098 0.27912 0.24232 0.0
O566 O 0.28357 0.24707 0.26566 0.0
O567 O 0.31941 0.29616 0.28017 0.0
H568 H 0.268 0.32814 0.22169 0.0
H569 H 0.31516 0.34213 0.27931 0.0
O570 O 0.31125 0.2654 0.30463 0.0
O571 O 0.27064 0.28826 0.32386 0.0
O572 O 0.27836 0.31948 0.30012 0.0
C573 C 0.27347 0.31102 0.32174 0.0
H574 H 0.26779 0.21151 0.36746 0.0
H575 H 0.28109 0.37448 0.21829 0.0
Co576 Co 0.51927 0.51263 0.04843 0.0
C577 C 0.51443 0.54478 0.08685 0.0
Co578 Co 0.5325 0.54929 0.03911 0.0
C579 C 0.51882 0.46141 0.04616 0.0
C580 C 0.48834 0.4742 0.06848 0.0
N581 N 0.50862 0.4817 0.05587 0.0
N582 N 0.50546 0.44163 0.05144 0.0
C583 C 0.48636 0.44941 0.0658 0.0
H584 H 0.53528 0.46127 0.03444 0.0
H585 H 0.47518 0.48611 0.07781 0.0
C586 C 0.53809 0.51714 1.00066 0.0
N587 N 0.54368 0.57979 0.03089 0.0
C588 C 0.53372 0.60147 0.0372 0.0
C589 C 0.56402 0.58506 0.01716 0.0
N590 N 0.54706 0.62009 0.02797 0.0
C591 C 0.56612 0.60982 0.0153 0.0
C592 C 0.56818 0.51883 0.05788 0.0
O593 O 0.52776 0.50259 0.01581 0.0
O594 O 0.5414 0.53883 0.00705 0.0
O595 O 0.56412 0.54032 0.0501 0.0
O596 O 0.55092 0.50366 0.05843 0.0
O597 O 0.52355 0.55966 0.07117 0.0
H598 H 0.57667 0.57173 0.00928 0.0
H599 H 0.51699 0.60352 0.04835 0.0
O600 O 0.51124 0.52285 0.08087 0.0
O601 O 0.48735 0.52189 0.03861 0.0
O602 O 0.50088 0.5581 0.02862 0.0
C603 C 0.48322 0.54338 0.03081 0.0
H604 H 0.47128 0.43831 0.07245 0.0
H605 H 0.58094 0.61948 0.006 0.0
Co606 Co 0.78323 0.30733 0.27204 0.0
C607 C 0.73649 0.29352 0.29144 0.0
Co608 Co 0.77177 0.27188 0.259 0.0
C609 C 0.80921 0.35226 0.27339 0.0
C610 C 0.78773 0.34558 0.30652 0.0
N611 N 0.79254 0.33702 0.28355 0.0
N612 N 0.81511 0.36968 0.28922 0.0
C613 C 0.80181 0.3656 0.31013 0.0
H614 H 0.81835 0.34956 0.25555 0.0
H615 H 0.77627 0.33672 0.32047 0.0
C616 C 0.81877 0.28518 0.24027 0.0
N617 N 0.76219 0.24172 0.24898 0.0
C618 C 0.75619 0.22354 0.26477 0.0
C619 C 0.75691 0.23347 0.22636 0.0
N620 N 0.74737 0.20436 0.25313 0.0
C621 C 0.74748 0.21042 0.22892 0.0
C622 C 0.75768 0.30936 0.22842 0.0
O623 O 0.81451 0.30351 0.25395 0.0
O624 O 0.80212 0.26923 0.23902 0.0
O625 O 0.75609 0.28669 0.23237 0.0
O626 O 0.76908 0.32229 0.24354 0.0
O627 O 0.7413 0.2745 0.279 0.0
H628 H 0.75891 0.24382 0.2093 0.0
H629 H 0.7569 0.22477 0.28472 0.0
O630 O 0.7521 0.3105 0.29041 0.0
O631 O 0.79743 0.29261 0.29992 0.0
O632 O 0.78787 0.25723 0.28572 0.0
C633 C 0.79789 0.26971 0.30195 0.0
H634 H 0.80347 0.37537 0.32723 0.0
H635 H 0.74083 0.19921 0.21433 0.0
Co636 Co 0.03299 0.52646 0.5194 0.0
C637 C 0.07942 0.51945 0.53914 0.0
Co638 Co 0.03789 0.54947 0.55159 0.0
C639 C 0.01606 0.51455 0.47187 0.0
C640 C 0.03645 0.48486 0.48753 0.0
N641 N 0.02785 0.50748 0.49235 0.0
N642 N 0.01715 0.49743 0.45435 0.0
C643 C 0.03008 0.47871 0.46395 0.0
H644 H 1.0079 0.53244 0.46935 0.0
H645 H 0.04731 0.4739 0.50002 0.0
C646 C 0.99127 0.5561 0.53192 0.0
N647 N 0.04303 0.56849 0.57852 0.0
C648 C 0.05197 0.56092 0.6003 0.0
C649 C 0.03775 0.59229 0.58144 0.0
N650 N 0.0523 0.57894 0.61686 0.0
C651 C 0.04336 0.59877 0.60511 0.0
C652 C 0.05205 0.57143 0.50744 0.0
O653 O 0.99982 0.5397 0.51748 0.0
O654 O 1.00508 0.56375 0.54864 0.0
O655 O 0.05066 0.57377 0.53073 0.0
O656 O 0.04495 0.55186 0.49799 0.0
O657 O 0.07076 0.53516 0.55436 0.0
H658 H 0.02992 0.60403 0.56741 0.0
H659 H 0.05727 0.54226 0.60419 0.0
O660 O 0.06594 0.5131 0.52162 0.0
O661 O 0.02127 0.50145 0.5407 0.0
O662 O 0.02503 0.52489 0.57273 0.0
C663 C 0.01915 0.50467 0.56392 0.0
H664 H 0.03494 0.46207 0.45443 0.0
H665 H 0.04089 0.61659 0.61308 0.0
Co666 Co 0.80302 0.78598 0.27869 0.0
C667 C 0.78144 0.79759 0.23326 0.0
Co668 Co 0.76486 0.77403 0.27771 0.0
C669 C 0.85339 0.78526 0.29308 0.0
C670 C 0.84561 0.81453 0.2679 0.0
N671 N 0.83524 0.79545 0.27984 0.0
N672 N 0.87464 0.79721 0.28986 0.0
C673 C 0.8699 0.81558 0.27395 0.0
H674 H 0.85107 0.76942 0.30492 0.0
H675 H 0.83603 0.82716 0.25594 0.0
C676 C 0.78594 0.76291 0.32343 0.0
N677 N 0.73256 0.76507 0.27624 0.0
C678 C 0.71444 0.77792 0.26544 0.0
C679 C 0.72188 0.74464 0.2849 0.0
N680 N 0.69287 0.76633 0.26682 0.0
C681 C 0.69739 0.74539 0.27917 0.0
C682 C 0.79828 0.73894 0.26267 0.0
O683 O 0.80392 0.77409 0.31306 0.0
O684 O 0.76649 0.76063 0.31121 0.0
O685 O 0.77537 0.74342 0.2651 0.0
O686 O 0.81341 0.75533 0.26757 0.0
O687 O 0.7632 0.78754 0.24426 0.0
H688 H 0.73137 0.73002 0.29441 0.0
H689 H 0.71704 0.79553 0.25672 0.0
O690 O 0.80163 0.79797 0.24451 0.0
O691 O 0.79284 0.81656 0.28971 0.0
O692 O 0.75461 0.80482 0.29018 0.0
C693 C 0.77021 0.82132 0.29333 0.0
H694 H 0.88284 0.82926 0.26785 0.0
H695 H 0.68415 0.73133 0.28311 0.0
Co696 Co 0.76666 0.29869 0.7701 0.0
C697 C 0.77413 0.24953 0.77102 0.0
Co698 Co 0.7513 0.28087 0.73814 0.0
C699 C 0.77175 0.33185 0.81023 0.0
C700 C 0.80337 0.30862 0.80502 0.0
N701 N 0.78114 0.31399 0.79582 0.0
N702 N 0.78714 0.3376 0.82824 0.0
C703 C 0.80705 0.32303 0.82507 0.0
H704 H 0.75354 0.33972 0.80823 0.0
H705 H 0.81583 0.29467 0.79797 0.0
C706 C 0.74432 0.33031 0.73734 0.0
N707 N 0.73687 0.26523 0.71279 0.0
C708 C 0.74678 0.24736 0.69881 0.0
C709 C 0.71383 0.2685 0.70475 0.0
N710 N 0.73088 0.23932 0.68227 0.0
C711 C 0.71011 0.25261 0.68589 0.0
C712 C 0.71877 0.28609 0.77876 0.0
O713 O 0.75693 0.32886 0.75672 0.0
O714 O 0.73944 0.31112 0.72588 0.0
O715 O 0.72205 0.27751 0.75725 0.0
O716 O 0.73629 0.29697 0.78866 0.0
O717 O 0.76325 0.25062 0.75057 0.0
H718 H 0.70063 0.2816 0.71214 0.0
H719 H 0.76552 0.2408 0.70042 0.0
O720 O 0.77641 0.26871 0.78332 0.0
O721 O 0.79687 0.29971 0.75177 0.0
O722 O 0.78101 0.28397 0.71893 0.0
C723 C 0.79948 0.29201 0.7298 0.0
H724 H 0.82288 0.32251 0.83674 0.0
H725 H 0.69345 0.25103 0.67563 0.0
Co726 Co 0.78043 0.76393 0.79078 0.0
C727 C 0.82926 0.78126 0.79359 0.0
Co728 Co 0.78623 0.79781 0.77039 0.0
C729 C 0.76655 0.71478 0.80402 0.0
C730 C 0.78205 0.73384 0.83395 0.0
N731 N 0.77612 0.73627 0.80991 0.0
N732 N 0.76603 0.69935 0.82357 0.0
C733 C 0.77557 0.7112 0.84247 0.0
H734 H 0.75972 0.71065 0.78597 0.0
H735 H 0.79054 0.74767 0.84465 0.0
C736 C 0.73747 0.78102 0.76737 0.0
N737 N 0.79033 0.82544 0.75162 0.0
C738 C 0.80175 0.8458 0.75779 0.0
C739 C 0.78147 0.83004 0.72893 0.0
N740 N 0.80034 0.86301 0.73991 0.0
C741 C 0.78757 0.85322 0.72169 0.0
C742 C 0.79261 0.75526 0.74111 0.0
O743 O 0.74585 0.7636 0.78073 0.0
O744 O 0.75169 0.79857 0.7622 0.0
O745 O 0.79263 0.7784 0.74066 0.0
O746 O 0.78925 0.74461 0.76199 0.0
O747 O 0.82113 0.79713 0.77833 0.0
H748 H 0.771 0.81744 0.71846 0.0
H749 H 0.81038 0.84811 0.77538 0.0
O750 O 0.81471 0.7646 0.80093 0.0
O751 O 0.77171 0.7829 0.81919 0.0
O752 O 0.77984 0.81733 0.8008 0.0
C753 C 0.7742 0.8057 0.82072 0.0
H754 H 0.77784 0.70388 0.86098 0.0
H755 H 0.78307 0.86211 0.70438 0.0
Co756 Co 0.53098 0.54161 0.51277 0.0
C757 C 0.52545 0.57359 0.55344 0.0
Co758 Co 0.53692 0.52339 0.54798 0.0
C759 C 0.5069 0.55067 0.46788 0.0
C760 C 0.5304 0.57989 0.47669 0.0
N761 N 0.52428 0.55708 0.48354 0.0
N762 N 0.50118 0.56886 0.45221 0.0
C763 C 0.51591 0.58733 0.45748 0.0
H764 H 0.49678 0.53396 0.46963 0.0
H765 H 0.5429 0.59113 0.48646 0.0
C766 C 0.54174 0.49087 0.50824 0.0
N767 N 0.54356 0.50895 0.57786 0.0
C768 C 0.55304 0.52078 0.59684 0.0
C769 C 0.53932 0.4863 0.58663 0.0
N770 N 0.55452 0.50676 0.6172 0.0
C771 C 0.54621 0.48487 0.61102 0.0
C772 C 0.48837 0.51891 0.53406 0.0
O773 O 0.53639 0.50989 0.49546 0.0
O774 O 0.54505 0.49362 0.53128 0.0
O775 O 0.50319 0.51232 0.55074 0.0
O776 O 0.49624 0.53331 0.51708 0.0
O777 O 0.52821 0.55359 0.56513 0.0
H778 H 0.53109 0.47207 0.57625 0.0
H779 H 0.55846 0.53959 0.59596 0.0
O780 O 0.52553 0.57275 0.52992 0.0
O781 O 0.56524 0.55022 0.50857 0.0
O782 O 0.57109 0.53412 0.54509 0.0
C783 C 0.57947 0.54617 0.52647 0.0
H784 H 0.5151 0.60529 0.44915 0.0
H785 H 0.5443 0.46943 0.62348 0.0
Co786 Co 0.03029 0.5252 0.01767 0.0
C787 C 0.04163 0.57365 0.0031 0.0
Co788 Co 0.05823 0.54117 0.0407 0.0
C789 C 0.98498 0.50329 0.00874 0.0
C790 C 1.00457 0.50936 0.97443 0.0
N791 N 1.00619 0.51191 0.99915 0.0
N792 N 0.96995 0.49591 0.99119 0.0
C793 C 0.98216 0.49938 0.96946 0.0
H794 H 0.98035 0.50277 0.02836 0.0
H795 H 0.01846 0.51497 0.96092 0.0
C796 C 0.04674 0.49271 0.05533 0.0
N797 N 0.08228 0.55486 0.05903 0.0
C798 C 0.10193 0.56607 0.04883 0.0
C799 C 0.08208 0.56087 0.08318 0.0
N800 N 0.11372 0.5792 0.06536 0.0
C801 C 0.10131 0.57625 0.08705 0.0
C802 C 0.01162 0.55039 0.05841 0.0
O803 O 0.0323 0.49495 0.03724 0.0
O804 O 0.05979 0.51099 0.06048 0.0
O805 O 0.03403 0.55393 0.06241 0.0
O806 O 1.00577 0.53781 0.04012 0.0
O807 O 0.05618 0.5713 0.02106 0.0
H808 H 0.06784 0.556 0.09662 0.0
H809 H 0.10613 0.56663 0.02912 0.0
O810 O 0.02855 0.55547 0.99792 0.0
O811 O 0.05456 0.51291 0.99573 0.0
O812 O 0.08272 0.52841 0.01856 0.0
C813 C 0.07704 0.51643 0.99977 0.0
H814 H 0.97497 0.49596 0.95139 0.0
H815 H 0.10502 0.58561 0.10398 0.0
H816 H 0.0504 0.21752 0.07591 0.0
H817 H 0.01901 0.20812 0.15002 0.0
H818 H 0.01123 0.16503 0.14111 0.0
H819 H 1.00686 0.17859 0.0456 0.0
H820 H 0.02937 0.16664 0.02368 0.0
H821 H 0.03276 0.19666 0.03583 0.0
H822 H 0.07614 0.18484 0.05079 0.0
H823 H 0.07274 0.15493 0.03846 0.0
H824 H 0.07994 0.15848 0.07053 0.0
H825 H 0.00906 0.12136 0.12466 0.0
H826 H 0.00985 0.08285 0.10166 0.0
H827 H 0.0397 0.12027 0.03678 0.0
C828 C 0.04184 0.20647 0.09033 0.0
C829 C 0.03548 0.21667 0.11391 0.0
C830 C 0.02411 0.2012 0.1319 0.0
C831 C 0.01966 0.17651 0.12697 0.0
C832 C 0.02624 0.16711 0.1037 0.0
C833 C 0.03684 0.18174 0.08554 0.0
C834 C 0.04169 0.16723 0.06187 0.0
C835 C 0.02678 0.17792 0.04048 0.0
C836 C 0.06928 0.16633 0.05503 0.0
C837 C 0.03247 0.14208 0.06954 0.0
C838 C 0.02383 0.14241 0.09387 0.0
C839 C 0.01549 0.12115 0.10553 0.0
C840 C 0.016 0.09921 0.09223 0.0
C841 C 0.02436 0.09822 0.06712 0.0
C842 C 0.0326 0.12024 0.0557 0.0
H843 H 0.11587 0.78319 0.35829 0.0
H844 H 0.14177 0.79609 0.4321 0.0
H845 H 0.18326 0.80445 0.41432 0.0
H846 H 0.17034 0.75319 0.3347 0.0
H847 H 0.16797 0.76654 0.30422 0.0
H848 H 0.14066 0.76158 0.32304 0.0
H849 H 0.12874 0.80715 0.31841 0.0
H850 H 0.15617 0.8123 0.29979 0.0
H851 H 0.15012 0.82987 0.32726 0.0
H852 H 0.22193 0.81136 0.38804 0.0
H853 H 0.25494 0.81438 0.35584 0.0
H854 H 0.20271 0.79743 0.29964 0.0
C855 C 0.13026 0.78767 0.37079 0.0
C856 C 0.12565 0.78897 0.39658 0.0
C857 C 0.14496 0.79493 0.41227 0.0
C858 C 0.16852 0.7998 0.40234 0.0
C859 C 0.17232 0.79865 0.37675 0.0
C860 C 0.15371 0.79261 0.36124 0.0
C861 C 0.16244 0.79238 0.33444 0.0
C862 C 0.16023 0.76691 0.32347 0.0
C863 C 0.14854 0.81157 0.31908 0.0
C864 C 0.18896 0.79911 0.33723 0.0
C865 C 0.19435 0.80275 0.36173 0.0
C866 C 0.21789 0.80861 0.3688 0.0
C867 C 0.23649 0.81034 0.35037 0.0
C868 C 0.23138 0.8062 0.32521 0.0
C869 C 0.20719 0.80088 0.31865 0.0
H870 H 0.55214 0.87278 0.64099 0.0
H871 H 0.52319 0.82898 0.5829 0.0
H872 H 0.51753 0.86575 0.55697 0.0
H873 H 0.51421 0.9266 0.63189 0.0
H874 H 0.53834 0.9479 0.63655 0.0
H875 H 0.5395 0.91839 0.65128 0.0
H876 H 0.58248 0.91023 0.63123 0.0
H877 H 0.58151 0.93978 0.61657 0.0
H878 H 0.58671 0.91307 0.59812 0.0
H879 H 0.5119 0.90809 0.53808 0.0
H880 H 0.51292 0.95127 0.5251 0.0
H881 H 0.55031 0.96855 0.59218 0.0
C882 C 0.5447 0.87094 0.62277 0.0
C883 C 0.53801 0.84764 0.61419 0.0
C884 C 0.52858 0.8463 0.59005 0.0
C885 C 0.52514 0.86725 0.57515 0.0
C886 C 0.53174 0.88983 0.5841 0.0
C887 C 0.54188 0.8918 0.60714 0.0
C888 C 0.54865 0.91825 0.61154 0.0
C889 C 0.53432 0.92838 0.63417 0.0
C890 C 0.57649 0.92046 0.61454 0.0
C891 C 0.54044 0.9308 0.58762 0.0
C892 C 0.53029 0.91402 0.5723 0.0
C893 C 0.52017 0.92124 0.54983 0.0
C894 C 0.52072 0.94596 0.54261 0.0
C895 C 0.53185 0.96357 0.55732 0.0
C896 C 0.5419 0.95565 0.58023 0.0
H897 H 0.46733 0.26576 0.88392 0.0
H898 H 0.4517 0.31345 0.94579 0.0
H899 H 0.41528 0.33009 0.92452 0.0
H900 H 0.44999 0.30601 0.83569 0.0
H901 H 0.43588 0.28317 0.81752 0.0
H902 H 0.46048 0.27485 0.83768 0.0
H903 H 0.43282 0.24301 0.85988 0.0
H904 H 0.40822 0.25104 0.8396 0.0
H905 H 0.40325 0.25231 0.87268 0.0
H906 H 0.3826 0.34368 0.8948 0.0
H907 H 0.35259 0.3492 0.86146 0.0
H908 H 0.38772 0.29034 0.8208 0.0
C909 C 0.4561 0.27958 0.89304 0.0
C910 C 0.46225 0.28844 0.91641 0.0
C911 C 0.44711 0.30636 0.92794 0.0
C912 C 0.42653 0.316 0.91594 0.0
C913 C 0.42117 0.30712 0.89269 0.0
C914 C 0.43522 0.28895 0.88161 0.0
C915 C 0.42515 0.28208 0.85689 0.0
C916 C 0.444 0.28682 0.8357 0.0
C917 C 0.41686 0.25554 0.8573 0.0
C918 C 0.40345 0.29951 0.85558 0.0
C919 C 0.40165 0.31403 0.87625 0.0
C920 C 0.38367 0.33223 0.87868 0.0
C921 C 0.36687 0.33537 0.85965 0.0
C922 C 0.36798 0.32014 0.83877 0.0
C923 C 0.3865 0.30204 0.83674 0.0
H924 H 0.04647 0.86278 0.43533 0.0
H925 H 0.01125 0.80705 0.48059 0.0
H926 H 0.98908 0.83864 0.50475 0.0
H927 H 0.05755 0.90167 0.48395 0.0
H928 H 0.05219 0.92933 0.46661 0.0
H929 H 0.06265 0.90239 0.45083 0.0
H930 H 0.02523 0.90554 0.42228 0.0
H931 H 0.0147 0.93254 0.4381 0.0
H932 H 0.99462 0.90704 0.43586 0.0
H933 H 0.97314 0.87631 0.52601 0.0
H934 H 0.96709 0.91715 0.5442 0.0
H935 H 0.01346 0.94775 0.48565 0.0
C936 C 0.03372 0.85725 0.45001 0.0
C937 C 0.03039 0.83253 0.45599 0.0
C938 C 0.01398 0.82594 0.47565 0.0
C939 C 1.00121 0.84373 0.4894 0.0
C940 C 1.00513 0.868 0.48327 0.0
C941 C 0.02106 0.87478 0.46408 0.0
C942 C 0.02378 0.90202 0.46271 0.0
C943 C 0.05063 0.90926 0.46625 0.0
C944 C 0.01399 0.91239 0.43829 0.0
C945 C 1.00746 0.90941 0.48452 0.0
C946 C 0.99647 0.88963 0.49589 0.0
C947 C 0.98144 0.89198 0.51712 0.0
C948 C 0.97803 0.91516 0.52728 0.0
C949 C 0.98993 0.93541 0.51637 0.0
C950 C 1.00432 0.93248 0.49445 0.0
H951 H 0.47066 0.7947 0.71363 0.0
H952 H 0.45124 0.77059 0.64081 0.0
H953 H 0.40792 0.76737 0.65505 0.0
H954 H 0.42747 0.75795 0.74985 0.0
H955 H 0.41971 0.78137 0.77183 0.0
H956 H 0.44955 0.78079 0.75652 0.0
H957 H 0.44246 0.82484 0.74083 0.0
H958 H 0.41259 0.82554 0.75609 0.0
H959 H 0.41554 0.83217 0.7234 0.0
H960 H 0.36665 0.76526 0.67739 0.0
H961 H 0.32983 0.76779 0.70498 0.0
H962 H 0.37375 0.7969 0.76296 0.0
C963 C 0.45729 0.78856 0.70077 0.0
C964 C 0.46459 0.78262 0.67604 0.0
C965 C 0.44631 0.77516 0.65976 0.0
C966 C 0.42157 0.77324 0.66774 0.0
C967 C 0.41494 0.77928 0.69206 0.0
C968 C 0.43217 0.78712 0.70831 0.0
C969 C 0.41969 0.7936 0.73312 0.0
C970 C 0.4297 0.77746 0.75407 0.0
C971 C 0.42276 0.82065 0.73868 0.0
C972 C 0.39288 0.78795 0.72834 0.0
C973 C 0.39073 0.77942 0.70457 0.0
C974 C 0.36815 0.77211 0.69595 0.0
C975 C 0.34726 0.77356 0.71185 0.0
C976 C 0.34862 0.78267 0.73619 0.0
C977 C 0.3719 0.7901 0.74442 0.0
H978 H 0.56715 0.19641 0.96672 0.0
H979 H 0.52387 0.19075 0.90124 0.0
H980 H 0.52869 0.14587 0.90308 0.0
H981 H 0.60913 0.14146 0.95378 0.0
H982 H 0.60944 0.13413 0.98638 0.0
H983 H 0.6073 0.16538 0.97623 0.0
H984 H 0.5676 0.17116 0.00337 0.0
H985 H 0.56958 0.14011 0.01346 0.0
H986 H 0.5421 0.15136 0.99911 0.0
H987 H 0.53023 0.10208 0.91821 0.0
H988 H 0.52946 0.06463 0.94405 0.0
H989 H 0.57408 0.09954 0.99789 0.0
C990 C 0.55951 0.18569 0.95225 0.0
C991 C 0.54526 0.19674 0.93383 0.0
C992 C 0.53514 0.18242 0.91531 0.0
C993 C 0.53782 0.15698 0.91623 0.0
C994 C 0.55122 0.14645 0.93538 0.0
C995 C 0.56238 0.16051 0.95272 0.0
C996 C 0.5733 0.14518 0.97311 0.0
C997 C 0.60147 0.14662 0.97231 0.0
C998 C 0.56248 0.15238 0.99874 0.0
C999 C 0.56503 0.12041 0.96564 0.0
C1000 C 0.55272 0.12126 0.9436 0.0
C1001 C 0.5405 0.10105 0.93505 0.0
C1002 C 0.54016 0.07983 0.94982 0.0
C1003 C 0.55178 0.07921 0.97293 0.0
C1004 C 0.56526 0.09938 0.98019 0.0
H1005 H 0.13471 0.30328 0.16238 0.0
H1006 H 0.0809 0.27021 0.21236 0.0
H1007 H 0.11237 0.26642 0.2445 0.0
H1008 H 0.18728 0.26741 0.18063 0.0
H1009 H 0.20834 0.29224 0.17816 0.0
H1010 H 0.18168 0.29213 0.15922 0.0
H1011 H 0.16832 0.33422 0.17614 0.0
H1012 H 0.19496 0.33437 0.19513 0.0
H1013 H 0.16471 0.33828 0.2091 0.0
H1014 H 0.15167 0.26412 0.27101 0.0
H1015 H 0.19269 0.26656 0.28953 0.0
H1016 H 0.2202 0.30368 0.22347 0.0
C1017 C 0.12941 0.29526 0.18009 0.0
C1018 C 0.10497 0.28697 0.18453 0.0
C1019 C 0.0992 0.27679 0.20822 0.0
C1020 C 0.11711 0.27449 0.22667 0.0
C1021 C 0.14097 0.28269 0.22157 0.0
C1022 C 0.14701 0.29315 0.19886 0.0
C1023 C 0.1738 0.30097 0.19811 0.0
C1024 C 0.18864 0.28737 0.17783 0.0
C1025 C 0.17554 0.3286 0.1944 0.0
C1026 C 0.18202 0.29323 0.22383 0.0
C1027 C 0.16291 0.28245 0.23703 0.0
C1028 C 0.16654 0.27285 0.26081 0.0
C1029 C 0.19002 0.27431 0.27127 0.0
C1030 C 0.20985 0.2857 0.25836 0.0
C1031 C 0.20548 0.29532 0.23425 0.0
H1032 H 0.10513 0.04991 0.24153 0.0
H1033 H 0.16311 0.99496 0.23948 0.0
H1034 H 0.15313 0.98547 0.19644 0.0
H1035 H 0.06251 0.01926 0.2116 0.0
H1036 H 0.05026 0.04423 0.19366 0.0
H1037 H 0.06461 0.04994 0.22247 0.0
H1038 H 0.09502 0.07934 0.20044 0.0
H1039 H 0.08044 0.07412 0.17151 0.0
H1040 H 0.11307 0.06913 0.17397 0.0
H1041 H 0.13108 0.97602 0.15808 0.0
H1042 H 0.10236 0.97182 0.12363 0.0
H1043 H 0.06121 0.035 0.14898 0.0
C1044 C 0.1162 0.03646 0.23167 0.0
C1045 C 0.1348 0.02313 0.24361 0.0
C1046 C 0.14892 0.00551 0.23042 0.0
C1047 C 0.14335 0.99997 0.20604 0.0
C1048 C 0.12415 0.01273 0.19508 0.0
C1049 C 0.11127 0.03113 0.20718 0.0
C1050 C 0.09046 0.04099 0.19189 0.0
C1051 C 0.0655 0.03843 0.20574 0.0
C1052 C 0.09503 0.06747 0.18397 0.0
C1053 C 0.09268 0.02424 0.17004 0.0
C1054 C 0.11227 0.0081 0.17216 0.0
C1055 C 0.11619 0.98903 0.15574 0.0
C1056 C 0.09977 0.98659 0.13651 0.0
C1057 C 0.08003 1.00327 0.13389 0.0
C1058 C 0.07661 0.02243 0.15059 0.0
H1059 H 0.28445 0.85011 0.47933 0.0
H1060 H 0.27617 0.92532 0.45572 0.0
H1061 H 0.30219 0.91701 0.41859 0.0
H1062 H 0.34838 0.84058 0.45513 0.0
H1063 H 0.34232 0.81015 0.44542 0.0
H1064 H 0.32593 0.82263 0.47192 0.0
H1065 H 0.28431 0.81381 0.45191 0.0
H1066 H 0.30059 0.80093 0.42571 0.0
H1067 H 0.27864 0.82533 0.42118 0.0
H1068 H 0.32442 0.89988 0.38217 0.0
H1069 H 0.33803 0.87409 0.34712 0.0
H1070 H 0.3328 0.81026 0.39425 0.0
C1071 C 0.2884 0.86488 0.46648 0.0
C1072 C 0.27837 0.88833 0.47033 0.0
C1073 C 0.28363 0.90717 0.45303 0.0
C1074 C 0.29862 0.90271 0.43206 0.0
C1075 C 0.30826 0.87936 0.42878 0.0
C1076 C 0.30324 0.86071 0.44541 0.0
C1077 C 0.3136 0.83672 0.43622 0.0
C1078 C 0.33376 0.82695 0.45318 0.0
C1079 C 0.29306 0.81812 0.43359 0.0
C1080 C 0.32427 0.84462 0.41129 0.0
C1081 C 0.32149 0.8694 0.40763 0.0
C1082 C 0.32729 0.88057 0.38499 0.0
C1083 C 0.33506 0.86589 0.36526 0.0
C1084 C 0.3369 0.84043 0.36836 0.0
C1085 C 0.33243 0.82979 0.39186 0.0
H1086 H 0.49901 0.0451 0.71187 0.0
H1087 H 0.42771 0.07925 0.69996 0.0
H1088 H 0.43988 0.08762 0.65654 0.0
H1089 H 0.53506 0.08563 0.66952 0.0
H1090 H 0.55473 0.06099 0.65898 0.0
H1091 H 0.54179 0.06051 0.69007 0.0
H1092 H 0.52292 0.0185 0.68227 0.0
H1093 H 0.53588 0.01882 0.65131 0.0
H1094 H 0.50331 0.01495 0.6563 0.0
H1095 H 0.45713 0.0874 0.61382 0.0
H1096 H 0.47843 0.07799 0.5741 0.0
H1097 H 0.53911 0.0454 0.61359 0.0
C1098 C 0.4861 0.05473 0.70027 0.0
C1099 C 0.4624 0.06147 0.70933 0.0
C1100 C 0.44595 0.0738 0.69345 0.0
C1101 C 0.45275 0.07884 0.66879 0.0
C1102 C 0.47611 0.07166 0.66039 0.0
C1103 C 0.49259 0.05994 0.67563 0.0
C1104 C 0.5157 0.05221 0.66143 0.0
C1105 C 0.53815 0.06565 0.67055 0.0
C1106 C 0.51966 0.02448 0.66291 0.0
C1107 C 0.50919 0.06053 0.63563 0.0
C1108 C 0.4864 0.07201 0.63553 0.0
C1109 C 0.47523 0.07898 0.61366 0.0
C1110 C 0.48739 0.07351 0.59124 0.0
C1111 C 0.51046 0.06131 0.59099 0.0
C1112 C 0.5218 0.05538 0.61342 0.0
H1113 H 0.27675 0.1647 0.94037 0.0
H1114 H 0.27787 0.22709 0.98846 0.0
H1115 H 0.27559 0.25437 0.95218 0.0
H1116 H 0.31275 0.19052 0.88932 0.0
H1117 H 0.29491 0.17777 0.86526 0.0
H1118 H 0.29671 0.16254 0.89489 0.0
H1119 H 0.24931 0.16338 0.89935 0.0
H1120 H 0.24739 0.17862 0.86972 0.0
H1121 H 0.23285 0.19194 0.89681 0.0
H1122 H 0.27594 0.27559 0.91075 0.0
H1123 H 0.27537 0.28929 0.86714 0.0
H1124 H 0.27041 0.21462 0.84375 0.0
C1125 C 0.27641 0.1841 0.94326 0.0
C1126 C 0.27759 0.19353 0.9677 0.0
C1127 C 0.27697 0.21914 0.9703 0.0
C1128 C 0.27573 0.23492 0.94965 0.0
C1129 C 0.27471 0.22517 0.92601 0.0
C1130 C 0.27469 0.20036 0.9226 0.0
C1131 C 0.27292 0.195 0.89492 0.0
C1132 C 0.29568 0.1806 0.88555 0.0
C1133 C 0.24921 0.18142 0.88991 0.0
C1134 C 0.27223 0.2206 0.88344 0.0
C1135 C 0.27354 0.23762 0.90189 0.0
C1136 C 0.27454 0.26239 0.89623 0.0
C1137 C 0.27421 0.27004 0.87127 0.0
C1138 C 0.27239 0.25327 0.85177 0.0
C1139 C 0.27123 0.22807 0.85812 0.0
H1140 H 0.15537 0.02449 0.39323 0.0
H1141 H 0.10914 0.97527 0.35447 0.0
H1142 H 0.0805 0.97356 0.39073 0.0
H1143 H 0.14393 0.99983 0.45705 0.0
H1144 H 0.14307 0.02968 0.47029 0.0
H1145 H 0.162 0.02373 0.44307 0.0
H1146 H 0.14019 0.05923 0.42006 0.0
H1147 H 0.12097 0.06507 0.44704 0.0
H1148 H 0.10723 0.05925 0.41781 0.0
H1149 H 0.05555 0.97948 0.42949 0.0
H1150 H 0.03508 0.99361 0.46815 0.0
H1151 H 0.09608 0.04134 0.48041 0.0
C1152 C 0.13964 0.01274 0.39285 0.0
C1153 C 0.13451 0.99961 0.37151 0.0
C1154 C 0.11333 0.98518 0.37096 0.0
C1155 C 0.09705 0.98408 0.39141 0.0
C1156 C 0.10216 0.99779 0.41201 0.0
C1157 C 0.1229 0.01188 0.41293 0.0
C1158 C 0.12265 0.02689 0.43616 0.0
C1159 C 0.14419 0.01959 0.45262 0.0
C1160 C 0.12276 0.05422 0.42988 0.0
C1161 C 0.09833 0.01939 0.44785 0.0
C1162 C 0.08701 1.00229 0.43384 0.0
C1163 C 0.06423 0.99282 0.4407 0.0
C1164 C 0.05272 1.00103 0.46259 0.0
C1165 C 0.0639 0.01873 0.47708 0.0
C1166 C 0.08699 0.02798 0.46956 0.0
H1167 H 0.26255 0.82737 0.59841 0.0
H1168 H 0.25587 0.90512 0.60926 0.0
H1169 H 0.25114 0.89844 0.65433 0.0
H1170 H 0.21766 0.81055 0.64827 0.0
H1171 H 0.23515 0.78379 0.65673 0.0
H1172 H 0.23596 0.79467 0.62512 0.0
H1173 H 0.28352 0.79665 0.62584 0.0
H1174 H 0.28281 0.7857 0.65733 0.0
H1175 H 0.29765 0.81388 0.64955 0.0
H1176 H 0.25319 0.88354 0.69832 0.0
H1177 H 0.25898 0.86092 0.73776 0.0
H1178 H 0.2605 0.79325 0.69753 0.0
C1179 C 0.2598 0.84292 0.61028 0.0
C1180 C 0.25963 0.86669 0.60049 0.0
C1181 C 0.25591 0.88669 0.61648 0.0
C1182 C 0.25318 0.88311 0.64207 0.0
C1183 C 0.25368 0.85943 0.65123 0.0
C1184 C 0.25652 0.83966 0.6358 0.0
C1185 C 0.25733 0.81614 0.65035 0.0
C1186 C 0.2352 0.80036 0.64479 0.0
C1187 C 0.28178 0.8023 0.64548 0.0
C1188 C 0.2555 0.82585 0.67634 0.0
C1189 C 0.25339 0.85084 0.67657 0.0
C1190 C 0.25416 0.86391 0.69848 0.0
C1191 C 0.2575 0.851 0.72072 0.0
C1192 C 0.25971 0.82541 0.72066 0.0
C1193 C 0.25814 0.81279 0.69824 0.0
H1194 H 0.47016 0.046 0.83094 0.0
H1195 H 0.39218 0.04105 0.84863 0.0
H1196 H 0.40135 0.01509 0.885 0.0
H1197 H 0.48772 0.98496 0.84963 0.0
H1198 H 0.51611 0.9943 0.86262 0.0
H1199 H 0.50335 0.01114 0.83708 0.0
H1200 H 0.50348 0.05085 0.86245 0.0
H1201 H 0.51689 0.03426 0.88767 0.0
H1202 H 0.48874 0.05136 0.89275 0.0
H1203 H 0.41928 0.99099 0.92015 0.0
H1204 H 0.44486 0.97641 0.9548 0.0
H1205 H 0.51044 0.99768 0.91386 0.0
C1206 C 0.45502 0.03946 0.84249 0.0
C1207 C 0.43053 0.0454 0.8371 0.0
C1208 C 0.41114 0.03678 0.85267 0.0
C1209 C 0.41614 0.02178 0.87311 0.0
C1210 C 0.44056 0.01572 0.87757 0.0
C1211 C 0.45968 0.02468 0.86294 0.0
C1212 C 0.48436 0.01731 0.87279 0.0
C1213 C 0.49872 1.00095 0.85443 0.0
C1214 C 0.49922 0.03977 0.87931 0.0
C1215 C 0.47619 1.00326 0.89562 0.0
C1216 C 0.45087 1.00201 0.89782 0.0
C1217 C 0.43911 0.99147 0.91845 0.0
C1218 C 0.45365 0.98304 0.93786 0.0
C1219 C 0.47938 0.98557 0.93634 0.0
C1220 C 0.49079 0.99499 0.91476 0.0
H1221 H 0.27154 0.22921 0.09919 0.0
H1222 H 0.2928 0.15417 0.11289 0.0
H1223 H 0.29847 0.16365 0.15718 0.0
H1224 H 0.31516 0.25564 0.1401 0.0
H1225 H 0.29441 0.27976 0.14976 0.0
H1226 H 0.29196 0.26682 0.11951 0.0
H1227 H 0.24626 0.25725 0.1292 0.0
H1228 H 0.24865 0.27018 0.15945 0.0
H1229 H 0.23821 0.23954 0.15643 0.0
H1230 H 0.29923 0.18188 0.20193 0.0
H1231 H 0.29859 0.2069 0.23984 0.0
H1232 H 0.27963 0.27042 0.19585 0.0
C1233 C 0.27746 0.21465 0.11139 0.0
C1234 C 0.28157 0.19074 0.10217 0.0
C1235 C 0.28954 0.17257 0.11912 0.0
C1236 C 0.29272 0.17783 0.14447 0.0
C1237 C 0.28824 0.20153 0.15287 0.0
C1238 C 0.28107 0.21968 0.13661 0.0
C1239 C 0.27786 0.24382 0.14991 0.0
C1240 C 0.29593 0.26262 0.13918 0.0
C1241 C 0.25116 0.25324 0.14867 0.0
C1242 C 0.28419 0.23656 0.17629 0.0
C1243 C 0.28985 0.21203 0.1778 0.0
C1244 C 0.29513 0.20113 0.20066 0.0
C1245 C 0.29471 0.21553 0.22223 0.0
C1246 C 0.28949 0.24085 0.22108 0.0
C1247 C 0.28422 0.25129 0.19755 0.0
H1248 H 0.18115 0.15015 0.00853 0.0
H1249 H 0.23211 0.10225 0.04649 0.0
H1250 H 0.20025 0.07088 0.04987 0.0
H1251 H 0.12589 0.13318 0.04248 0.0
H1252 H 0.10684 0.13436 0.01575 0.0
H1253 H 0.1335 0.15314 0.01678 0.0
H1254 H 0.14952 0.13474 0.97535 0.0
H1255 H 0.1229 0.11581 0.9746 0.0
H1256 H 0.15326 0.10229 0.97291 0.0
H1257 H 0.16132 0.04528 0.05175 0.0
H1258 H 0.12042 0.02676 0.04878 0.0
H1259 H 0.09521 0.08927 0.00651 0.0
C1260 C 0.18567 0.13305 0.01752 0.0
C1261 C 0.20942 0.12894 0.02735 0.0
C1262 C 0.21432 0.10607 0.03873 0.0
C1263 C 0.19621 0.08806 0.04082 0.0
C1264 C 0.17307 0.09274 0.03107 0.0
C1265 C 0.16786 0.11458 0.01933 0.0
C1266 C 0.14169 0.1147 0.00988 0.0
C1267 C 0.12607 0.13506 0.02196 0.0
C1268 C 0.14186 0.11702 0.9815 0.0
C1269 C 0.13286 0.08974 0.01847 0.0
C1270 C 0.15122 0.07745 0.03087 0.0
C1271 C 0.14703 0.05465 0.04171 0.0
C1272 C 0.12365 0.04421 0.03992 0.0
C1273 C 0.10456 0.05614 0.02695 0.0
C1274 C 0.10949 0.07925 0.01598 0.0
H1275 H 0.67828 0.42565 0.05356 0.0
H1276 H 0.72666 0.48615 0.06394 0.0
H1277 H 0.69078 0.51241 0.07444 0.0
H1278 H 0.63447 0.45646 0.02297 0.0
H1279 H 0.60838 0.441 0.03655 0.0
H1280 H 0.63782 0.42588 0.03484 0.0
H1281 H 0.63595 0.41826 0.08232 0.0
H1282 H 0.60628 0.43326 0.08414 0.0
H1283 H 0.63084 0.44348 0.10286 0.0
H1284 H 0.64989 0.53358 0.07513 0.0
H1285 H 0.60699 0.5473 0.06901 0.0
H1286 H 0.58558 0.47252 0.0602 0.0
C1287 C 0.68136 0.44423 0.05878 0.0
C1288 C 0.70511 0.45394 0.05793 0.0
C1289 C 0.70853 0.47836 0.06464 0.0
C1290 C 0.68829 0.49339 0.07067 0.0
C1291 C 0.66493 0.48349 0.07039 0.0
C1292 C 0.66142 0.45933 0.06507 0.0
C1293 C 0.63447 0.45368 0.06356 0.0
C1294 C 0.62845 0.44369 0.03796 0.0
C1295 C 0.62641 0.43613 0.08447 0.0
C1296 C 0.62345 0.47871 0.0674 0.0
C1297 C 0.64123 0.49565 0.07161 0.0
C1298 C 0.63569 0.52042 0.07262 0.0
C1299 C 0.61137 0.52806 0.06897 0.0
C1300 C 0.59304 0.51091 0.06445 0.0
C1301 C 0.59912 0.48596 0.06425 0.0
H1302 H 0.88528 0.48939 0.25327 0.0
H1303 H 0.94813 0.45953 0.29161 0.0
H1304 H 0.92593 0.42117 0.29892 0.0
H1305 H 0.83966 0.46527 0.29223 0.0
H1306 H 0.81875 0.45889 0.26799 0.0
H1307 H 0.84031 0.48309 0.264 0.0
H1308 H 0.85744 0.46372 0.22344 0.0
H1309 H 0.83578 0.4395 0.2272 0.0
H1310 H 0.86817 0.43259 0.22386 0.0
H1311 H 0.89533 0.38789 0.3055 0.0
H1312 H 0.85914 0.36106 0.30863 0.0
H1313 H 0.81732 0.4123 0.2648 0.0
C1314 C 0.8945 0.4747 0.26298 0.0
C1315 C 0.91836 0.47737 0.27196 0.0
C1316 C 0.92988 0.45773 0.28446 0.0
C1317 C 0.91743 0.43595 0.28873 0.0
C1318 C 0.89371 0.4341 0.27999 0.0
C1319 C 0.8825 0.45284 0.2671 0.0
C1320 C 0.85666 0.44662 0.26027 0.0
C1321 C 0.83774 0.46453 0.27182 0.0
C1322 C 0.85439 0.44554 0.23201 0.0
C1323 C 0.85474 0.4217 0.27203 0.0
C1324 C 0.87633 0.41474 0.28324 0.0
C1325 C 0.87848 0.39298 0.29649 0.0
C1326 C 0.85799 0.37798 0.29827 0.0
C1327 C 0.83593 0.38489 0.28682 0.0
C1328 C 0.83428 0.40681 0.27341 0.0
H1329 H 0.87324 0.64881 0.54101 0.0
H1330 H 0.83048 0.5891 0.51489 0.0
H1331 H 0.86784 0.56339 0.51221 0.0
H1332 H 0.92926 0.63626 0.50456 0.0
H1333 H 0.94981 0.64326 0.52892 0.0
H1334 H 0.91996 0.65784 0.52796 0.0
H1335 H 0.91003 0.64265 0.57257 0.0
H1336 H 0.93986 0.62807 0.57367 0.0
H1337 H 0.91256 0.61068 0.57975 0.0
H1338 H 0.9098 0.54424 0.51036 0.0
H1339 H 0.95313 0.53133 0.51376 0.0
H1340 H 0.96999 0.60105 0.54493 0.0
C1341 C 0.87183 0.63035 0.53465 0.0
C1342 C 0.84871 0.62111 0.52799 0.0
C1343 C 0.84776 0.5967 0.52013 0.0
C1344 C 0.86899 0.58191 0.51845 0.0
C1345 C 0.89136 0.59141 0.52513 0.0
C1346 C 0.89299 0.61492 0.53346 0.0
C1347 C 0.91938 0.61992 0.5406 0.0
C1348 C 0.93024 0.64055 0.52455 0.0
C1349 C 0.92052 0.62567 0.5683 0.0
C1350 C 0.93219 0.59566 0.53478 0.0
C1351 C 0.91559 0.57968 0.52552 0.0
C1352 C 0.92289 0.55652 0.51784 0.0
C1353 C 0.94767 0.54935 0.51978 0.0
C1354 C 0.96514 0.56496 0.5298 0.0
C1355 C 0.95713 0.58851 0.53746 0.0
H1356 H 0.18167 0.09008 0.30121 0.0
H1357 H 0.14416 0.09407 0.37292 0.0
H1358 H 0.164 0.13353 0.38033 0.0
H1359 H 0.23773 0.11335 0.3179 0.0
H1360 H 0.24295 0.13031 0.28954 0.0
H1361 H 0.22462 0.10347 0.28956 0.0
H1362 H 0.18847 0.12817 0.27097 0.0
H1363 H 0.20677 0.15511 0.27072 0.0
H1364 H 0.17709 0.1551 0.28639 0.0
H1365 H 0.19182 0.17006 0.38117 0.0
H1366 H 0.22191 0.20283 0.37384 0.0
H1367 H 0.2385 0.17544 0.30042 0.0
C1368 C 0.17746 0.09942 0.31838 0.0
C1369 C 0.16164 0.08923 0.33663 0.0
C1370 C 0.15624 0.10185 0.35876 0.0
C1371 C 0.16744 0.12412 0.36309 0.0
C1372 C 0.1834 0.1335 0.3448 0.0
C1373 C 0.18799 0.12171 0.3227 0.0
C1374 C 0.20599 0.13522 0.30608 0.0
C1375 C 0.22919 0.11966 0.30046 0.0
C1376 C 0.19385 0.14392 0.28213 0.0
C1377 C 0.21145 0.15622 0.32251 0.0
C1378 C 0.19837 0.15492 0.34482 0.0
C1379 C 0.20181 0.17148 0.36362 0.0
C1380 C 0.21899 0.18985 0.35939 0.0
C1381 C 0.2322 0.19155 0.33651 0.0
C1382 C 0.22821 0.17467 0.31785 0.0
H1383 H 0.34806 0.9181 0.49631 0.0
H1384 H 0.31261 0.94571 0.56336 0.0
H1385 H 0.34406 0.97736 0.56558 0.0
H1386 H 0.41066 0.92859 0.51242 0.0
H1387 H 0.42002 0.93807 0.48157 0.0
H1388 H 0.39536 0.91698 0.48602 0.0
H1389 H 0.36677 0.94556 0.46095 0.0
H1390 H 0.3913 0.96684 0.45657 0.0
H1391 H 0.36232 0.97663 0.47036 0.0
H1392 H 0.38016 1.00465 0.56141 0.0
H1393 H 0.41743 0.02779 0.54929 0.0
H1394 H 0.4268 0.98475 0.48319 0.0
C1395 C 0.34718 0.93068 0.51156 0.0
C1396 C 0.32829 0.9295 0.52982 0.0
C1397 C 0.32715 0.94647 0.54926 0.0
C1398 C 0.34486 0.96441 0.55068 0.0
C1399 C 0.3632 0.96529 0.53225 0.0
C1400 C 0.36436 0.94906 0.51292 0.0
C1401 C 0.38535 0.95461 0.49497 0.0
C1402 C 0.40395 0.9333 0.49369 0.0
C1403 C 0.37586 0.96132 0.46919 0.0
C1404 C 0.39593 0.97633 0.50737 0.0
C1405 C 0.38306 0.98206 0.52899 0.0
C1406 C 0.39021 1.00061 0.54435 0.0
C1407 C 0.41124 0.0136 0.53742 0.0
C1408 C 0.42433 0.00817 0.5152 0.0
C1409 C 0.41652 0.98949 0.49994 0.0
H1410 H 0.90023 0.6354 0.26392 0.0
H1411 H 0.84216 0.58301 0.25799 0.0
H1412 H 0.81195 0.61652 0.25267 0.0
H1413 H 0.86619 0.6781 0.29915 0.0
H1414 H 0.8799 0.70416 0.28416 0.0
H1415 H 0.89688 0.67594 0.28584 0.0
H1416 H 0.9031 0.67665 0.23804 0.0
H1417 H 0.88592 0.70482 0.23624 0.0
H1418 H 0.87669 0.67907 0.21875 0.0
H1419 H 0.78775 0.656 0.25091 0.0
H1420 H 0.7716 0.69813 0.25402 0.0
H1421 H 0.84608 0.72392 0.25985 0.0
C1422 C 0.88119 0.63094 0.26135 0.0
C1423 C 0.8735 0.60666 0.26139 0.0
C1424 C 0.84842 0.60155 0.25801 0.0
C1425 C 0.83116 0.62043 0.25487 0.0
C1426 C 0.83937 0.64423 0.25494 0.0
C1427 C 0.86381 0.6495 0.25807 0.0
C1428 C 0.86781 0.67652 0.25856 0.0
C1429 C 0.8783 0.68411 0.2834 0.0
C1430 C 0.88435 0.68474 0.23659 0.0
C1431 C 0.84171 0.68565 0.25582 0.0
C1432 C 0.82555 0.66683 0.25355 0.0
C1433 C 0.80027 0.67092 0.25234 0.0
C1434 C 0.79127 0.69488 0.25407 0.0
C1435 C 0.80759 0.71429 0.25704 0.0
C1436 C 0.83312 0.70953 0.25731 0.0
H1437 H 0.711 0.46066 0.77928 0.0
H1438 H 0.63635 0.44571 0.7592 0.0
H1439 H 0.65149 0.41033 0.73499 0.0
H1440 H 0.74339 0.43831 0.72158 0.0
H1441 H 0.76803 0.4252 0.73917 0.0
H1442 H 0.75214 0.4522 0.74995 0.0
H1443 H 0.74204 0.43081 0.79206 0.0
H1444 H 0.75816 0.40409 0.78148 0.0
H1445 H 0.72663 0.40212 0.79229 0.0
H1446 H 0.67398 0.37382 0.71811 0.0
H1447 H 0.70019 0.33689 0.71534 0.0
H1448 H 0.75968 0.37531 0.74805 0.0
C1449 C 0.69793 0.45035 0.76917 0.0
C1450 C 0.67261 0.45589 0.77081 0.0
C1451 C 0.65588 0.44165 0.75805 0.0
C1452 C 0.66435 0.42175 0.74406 0.0
C1453 C 0.68952 0.41647 0.74316 0.0
C1454 C 0.70602 0.43031 0.7556 0.0
C1455 C 0.73139 0.41879 0.75532 0.0
C1456 C 0.74982 0.43457 0.74062 0.0
C1457 C 0.74002 0.41364 0.78184 0.0
C1458 C 0.7264 0.39567 0.74181 0.0
C1459 C 0.70239 0.39499 0.73417 0.0
C1460 C 0.69293 0.37434 0.72354 0.0
C1461 C 0.70799 0.35349 0.72191 0.0
C1462 C 0.73192 0.35344 0.73141 0.0
C1463 C 0.74154 0.37508 0.74035 0.0
H1464 H 0.03134 0.87738 0.9126 0.0
H1465 H 0.02686 0.83016 0.97741 0.0
H1466 H 0.03025 0.86563 0.00427 0.0
H1467 H 0.07432 0.92005 0.9359 0.0
H1468 H 0.05975 0.94681 0.92307 0.0
H1469 H 0.05678 0.91794 0.90825 0.0
H1470 H 0.00945 0.92234 0.91132 0.0
H1471 H 0.01231 0.95132 0.92598 0.0
H1472 H 0.99458 0.92777 0.94103 0.0
H1473 H 0.03662 0.90569 0.02472 0.0
H1474 H 0.04097 0.94777 0.03778 0.0
H1475 H 0.03859 0.9722 0.96113 0.0
C1476 C 0.03086 0.87452 0.93246 0.0
C1477 C 0.02886 0.85048 0.94266 0.0
C1478 C 0.02829 0.84797 0.96884 0.0
C1479 C 0.03032 0.86817 0.98438 0.0
C1480 C 0.03257 0.89136 0.97385 0.0
C1481 C 0.03241 0.89482 0.9485 0.0
C1482 C 0.03445 0.92205 0.94235 0.0
C1483 C 0.05771 0.927 0.92644 0.0
C1484 C 0.01132 0.93142 0.92939 0.0
C1485 C 0.03623 0.93319 0.96812 0.0
C1486 C 0.03527 0.91491 0.98587 0.0
C1487 C 0.03717 0.92009 0.01092 0.0
C1488 C 0.03978 0.94434 0.01818 0.0
C1489 C 0.04025 0.96392 1.00075 0.0
C1490 C 0.03843 0.95799 0.97516 0.0
H1491 H 0.91908 0.30252 0.64166 0.0
H1492 H 0.95604 0.25718 0.69586 0.0
H1493 H 0.91659 0.25074 0.71812 0.0
H1494 H 0.88049 0.33266 0.68237 0.0
H1495 H 0.85376 0.3338 0.66346 0.0
H1496 H 0.88394 0.33192 0.64911 0.0
H1497 H 0.87209 0.29319 0.62594 0.0
H1498 H 0.84165 0.29517 0.63988 0.0
H1499 H 0.85981 0.26773 0.64322 0.0
H1500 H 0.87561 0.25483 0.73827 0.0
H1501 H 0.83352 0.26534 0.75295 0.0
H1502 H 0.82135 0.30628 0.68521 0.0
C1503 C 0.91871 0.29056 0.65772 0.0
C1504 C 0.94064 0.2803 0.667 0.0
C1505 C 0.93949 0.26517 0.68836 0.0
C1506 C 0.91715 0.26139 0.70115 0.0
C1507 C 0.89605 0.27262 0.69217 0.0
C1508 C 0.89644 0.28649 0.67069 0.0
C1509 C 0.87132 0.29781 0.66612 0.0
C1510 C 0.87246 0.3257 0.66522 0.0
C1511 C 0.86058 0.28788 0.64238 0.0
C1512 C 0.85709 0.28896 0.68895 0.0
C1513 C 0.87181 0.2744 0.70363 0.0
C1514 C 0.86374 0.26574 0.72671 0.0
C1515 C 0.83994 0.27199 0.73497 0.0
C1516 C 0.82441 0.28654 0.72013 0.0
C1517 C 0.83291 0.29491 0.69669 0.0
H1518 H 0.49674 0.20939 0.45613 0.0
H1519 H 0.5713 0.21984 0.42836 0.0
H1520 H 0.5827 0.1786 0.44378 0.0
H1521 H 0.51041 0.17628 0.51106 0.0
H1522 H 0.48516 0.15574 0.50922 0.0
H1523 H 0.48286 0.18568 0.49564 0.0
H1524 H 0.47326 0.16718 0.45332 0.0
H1525 H 0.47531 0.13717 0.46683 0.0
H1526 H 0.49405 0.14485 0.43991 0.0
H1527 H 0.58658 0.13653 0.46633 0.0
H1528 H 0.58143 0.09697 0.488 0.0
H1529 H 0.50346 0.11222 0.49784 0.0
C1530 C 0.51545 0.20296 0.45299 0.0
C1531 C 0.53311 0.21822 0.44089 0.0
C1532 C 0.55731 0.20874 0.43727 0.0
C1533 C 0.56399 0.18527 0.44618 0.0
C1534 C 0.54621 0.17097 0.45839 0.0
C1535 C 0.52227 0.17936 0.46127 0.0
C1536 C 0.50642 0.1603 0.47449 0.0
C1537 C 0.49557 0.17009 0.49905 0.0
C1538 C 0.48605 0.15188 0.45763 0.0
C1539 C 0.52515 0.13994 0.47903 0.0
C1540 C 0.54811 0.14656 0.46989 0.0
C1541 C 0.56855 0.13121 0.47314 0.0
C1542 C 0.56546 0.10868 0.48565 0.0
C1543 C 0.54201 0.10107 0.49459 0.0
C1544 C 0.52162 0.11713 0.49104 0.0
H1545 H 0.61005 0.82288 0.16158 0.0
H1546 H 0.5472 0.79459 0.20337 0.0
H1547 H 0.5742 0.78175 0.23688 0.0
H1548 H 0.65103 0.77583 0.17621 0.0
H1549 H 0.67754 0.79462 0.17902 0.0
H1550 H 0.65309 0.80414 0.15923 0.0
H1551 H 0.64854 0.84467 0.18289 0.0
H1552 H 0.6731 0.83524 0.20269 0.0
H1553 H 0.64362 0.84405 0.21603 0.0
H1554 H 0.60794 0.76828 0.26399 0.0
H1555 H 0.6468 0.75642 0.28373 0.0
H1556 H 0.68778 0.79346 0.22493 0.0
C1557 C 0.60191 0.81444 0.17799 0.0
C1558 C 0.57649 0.80973 0.17975 0.0
C1559 C 0.56662 0.79833 0.20145 0.0
C1560 C 0.58179 0.79103 0.2207 0.0
C1561 C 0.60679 0.79539 0.21814 0.0
C1562 C 0.61683 0.80701 0.19748 0.0
C1563 C 0.64453 0.80817 0.19888 0.0
C1564 C 0.65729 0.79489 0.17704 0.0
C1565 C 0.65293 0.83461 0.20021 0.0
C1566 C 0.64842 0.79477 0.22314 0.0
C1567 C 0.62639 0.78773 0.23404 0.0
C1568 C 0.62533 0.77395 0.25584 0.0
C1569 C 0.64744 0.76714 0.26681 0.0
C1570 C 0.67023 0.77413 0.25595 0.0
C1571 C 0.67062 0.78829 0.23394 0.0
H1572 H 0.01708 0.23188 0.6184 0.0
H1573 H 0.04542 0.27571 0.55686 0.0
H1574 H 0.06165 0.23894 0.53657 0.0
H1575 H 0.0665 0.19141 0.62142 0.0
H1576 H 0.04873 0.16469 0.62806 0.0
H1577 H 0.0369 0.19407 0.63706 0.0
H1578 H 0.99745 0.18744 0.61246 0.0
H1579 H 0.00893 0.15777 0.60387 0.0
H1580 H 1.00013 0.17937 0.58026 0.0
H1581 H 0.07897 0.19833 0.52508 0.0
H1582 H 0.09067 0.15497 0.52024 0.0
H1583 H 0.05045 0.13756 0.58836 0.0
C1584 C 0.02609 0.23369 0.60036 0.0
C1585 C 0.0301 0.25672 0.58937 0.0
C1586 C 0.04225 0.25829 0.56581 0.0
C1587 C 0.0516 0.23752 0.55409 0.0
C1588 C 0.0484 0.21525 0.56597 0.0
C1589 C 0.03546 0.21308 0.58828 0.0
C1590 C 0.0352 0.18698 0.59731 0.0
C1591 C 0.04757 0.18414 0.62245 0.0
C1592 C 0.00886 0.17732 0.59854 0.0
C1593 C 0.05044 0.17505 0.57687 0.0
C1594 C 0.05798 0.19167 0.55902 0.0
C1595 C 0.07295 0.18503 0.53877 0.0
C1596 C 0.07975 0.16052 0.53631 0.0
C1597 C 0.07139 0.14312 0.55392 0.0
C1598 C 0.05687 0.15059 0.57458 0.0
H1599 H 0.59709 0.26946 0.34416 0.0
H1600 H 0.61493 0.31447 0.40617 0.0
H1601 H 0.65646 0.32041 0.38806 0.0
H1602 H 0.65811 0.23971 0.33913 0.0
H1603 H 0.65833 0.23831 0.30583 0.0
H1604 H 0.6296 0.23771 0.32322 0.0
H1605 H 0.61384 0.2747 0.29793 0.0
H1606 H 0.64257 0.27546 0.28055 0.0
H1607 H 0.63148 0.30209 0.29666 0.0
H1608 H 0.69547 0.32389 0.36223 0.0
H1609 H 0.73092 0.32083 0.33295 0.0
H1610 H 0.69096 0.27065 0.28859 0.0
C1611 C 0.60979 0.28048 0.35395 0.0
C1612 C 0.60244 0.29158 0.37673 0.0
C1613 C 0.61987 0.30569 0.38888 0.0
C1614 C 0.6436 0.30927 0.37863 0.0
C1615 C 0.65022 0.2983 0.35624 0.0
C1616 C 0.63403 0.28381 0.34419 0.0
C1617 C 0.64645 0.2735 0.32074 0.0
C1618 C 0.64822 0.24565 0.32233 0.0
C1619 C 0.63277 0.28194 0.2976 0.0
C1620 C 0.6719 0.28474 0.32138 0.0
C1621 C 0.67343 0.29922 0.34194 0.0
C1622 C 0.69453 0.31238 0.34623 0.0
C1623 C 0.71463 0.3106 0.32934 0.0
C1624 C 0.71405 0.29545 0.30837 0.0
C1625 C 0.69223 0.28226 0.30448 0.0
H1626 H 0.48954 0.86917 0.09963 0.0
H1627 H 0.51691 0.88299 0.17242 0.0
H1628 H 0.51842 0.92714 0.16217 0.0
H1629 H 0.52615 0.90777 0.06692 0.0
H1630 H 0.50344 0.9175 0.04513 0.0
H1631 H 0.50116 0.88822 0.05987 0.0
H1632 H 0.45711 0.89912 0.07619 0.0
H1633 H 0.45923 0.92852 0.06135 0.0
H1634 H 0.45194 0.92624 0.09403 0.0
H1635 H 0.52324 0.96863 0.14047 0.0
H1636 H 0.5289 1.00292 0.11077 0.0
H1637 H 0.49577 0.96068 0.05376 0.0
C1638 C 0.4953 0.88161 0.11362 0.0
C1639 C 0.50317 0.87301 0.1367 0.0
C1640 C 0.51064 0.88953 0.15466 0.0
C1641 C 0.51154 0.91452 0.14897 0.0
C1642 C 0.50424 0.92242 0.12557 0.0
C1643 C 0.4958 0.90636 0.10842 0.0
C1644 C 0.49062 0.91866 0.08401 0.0
C1645 C 0.50628 0.90738 0.06276 0.0
C1646 C 0.46309 0.9181 0.07859 0.0
C1647 C 0.4986 0.94401 0.08954 0.0
C1648 C 0.50621 0.94608 0.1136 0.0
C1649 C 0.51673 0.96735 0.12181 0.0
C1650 C 0.51989 0.98671 0.10483 0.0
C1651 C 0.51265 0.98447 0.08001 0.0
C1652 C 0.50127 0.96308 0.07266 0.0
H1653 H 0.93204 0.77345 0.89912 0.0
H1654 H 0.98384 0.80538 0.84624 0.0
H1655 H 0.95162 0.80649 0.8147 0.0
H1656 H 0.90258 0.73481 0.85505 0.0
H1657 H 0.87245 0.73833 0.86938 0.0
H1658 H 0.89938 0.7405 0.88777 0.0
H1659 H 0.88472 0.78292 0.90263 0.0
H1660 H 0.85776 0.78087 0.88428 0.0
H1661 H 0.8779 0.8063 0.88008 0.0
H1662 H 0.91176 0.80633 0.78918 0.0
H1663 H 0.87057 0.80153 0.7717 0.0
H1664 H 0.84553 0.7665 0.83987 0.0
C1665 C 0.93672 0.78069 0.88091 0.0
C1666 C 0.96079 0.78949 0.87545 0.0
C1667 C 0.96582 0.7985 0.85114 0.0
C1668 C 0.94748 0.79926 0.83304 0.0
C1669 C 0.924 0.79058 0.83912 0.0
C1670 C 0.91872 0.78114 0.86245 0.0
C1671 C 0.89227 0.77233 0.86417 0.0
C1672 C 0.89164 0.74486 0.8694 0.0
C1673 C 0.87728 0.78645 0.88397 0.0
C1674 C 0.88333 0.77838 0.83827 0.0
C1675 C 0.9018 0.7892 0.82417 0.0
C1676 C 0.89742 0.79753 0.80008 0.0
C1677 C 0.87384 0.79472 0.79022 0.0
C1678 C 0.85467 0.78319 0.80403 0.0
C1679 C 0.85978 0.77487 0.82845 0.0
H1680 H 0.89473 0.08237 0.85898 0.0
H1681 H 0.9048 0.0077 0.83694 0.0
H1682 H 0.92873 0.99915 0.8741 0.0
H1683 H 0.95058 0.09145 0.87027 0.0
H1684 H 0.94789 0.11061 0.89703 0.0
H1685 H 0.92312 0.10954 0.87595 0.0
H1686 H 0.89253 0.09681 0.91106 0.0
H1687 H 0.9169 0.09903 0.93277 0.0
H1688 H 0.89993 0.07135 0.93093 0.0
H1689 H 0.96108 1.00178 0.90388 0.0
H1690 H 0.99545 0.01375 0.92939 0.0
H1691 H 0.96639 0.08746 0.93185 0.0
C1692 C 0.90042 0.06387 0.86321 0.0
C1693 C 0.89757 0.04546 0.84585 0.0
C1694 C 0.90639 0.02172 0.85062 0.0
C1695 C 0.92007 0.0168 0.87161 0.0
C1696 C 0.92472 0.03592 0.88732 0.0
C1697 C 0.91464 0.05893 0.88379 0.0
C1698 C 0.92638 0.07732 0.90014 0.0
C1699 C 0.93765 0.09844 0.88492 0.0
C1700 C 0.90783 0.08667 0.91991 0.0
C1701 C 0.94604 0.06154 0.9116 0.0
C1702 C 0.94433 0.03764 0.90447 0.0
C1703 C 0.96205 0.02021 0.91039 0.0
C1704 C 0.98162 0.02723 0.92462 0.0
C1705 C 0.98338 0.05147 0.93265 0.0
C1706 C 0.96545 0.06884 0.9259 0.0
H1707 H 0.73485 0.19872 0.54397 0.0
H1708 H 0.79525 0.14991 0.56251 0.0
H1709 H 0.78739 0.15809 0.60684 0.0
H1710 H 0.74776 0.24284 0.58527 0.0
H1711 H 0.71626 0.25083 0.59302 0.0
H1712 H 0.72404 0.23809 0.56334 0.0
H1713 H 0.69272 0.20377 0.57163 0.0
H1714 H 0.68483 0.21646 0.60145 0.0
H1715 H 0.69492 0.18522 0.59923 0.0
H1716 H 0.77645 0.17566 0.64836 0.0
H1717 H 0.76349 0.20149 0.68355 0.0
H1718 H 0.7108 0.23877 0.63717 0.0
C1719 C 0.74615 0.18931 0.5573 0.0
C1720 C 0.76566 0.17368 0.54974 0.0
C1721 C 0.78013 0.16193 0.56785 0.0
C1722 C 0.77575 0.16637 0.59309 0.0
C1723 C 0.75669 0.18235 0.59983 0.0
C1724 C 0.74204 0.19351 0.58244 0.0
C1725 C 0.72434 0.21169 0.59413 0.0
C1726 C 0.72836 0.23737 0.5833 0.0
C1727 C 0.69762 0.2038 0.59145 0.0
C1728 C 0.732 0.20978 0.6207 0.0
C1729 C 0.7504 0.19249 0.62374 0.0
C1730 C 0.76178 0.18897 0.64629 0.0
C1731 C 0.75445 0.20384 0.66608 0.0
C1732 C 0.73611 0.2221 0.66306 0.0
C1733 C 0.72443 0.22461 0.64022 0.0
H1734 H 0.65211 0.00597 0.38053 0.0
H1735 H 0.59234 0.99384 0.33101 0.0
H1736 H 0.56374 0.98912 0.36683 0.0
H1737 H 0.63074 0.96497 0.43161 0.0
H1738 H 0.63995 0.98556 0.45513 0.0
H1739 H 0.65663 0.98441 0.42585 0.0
H1740 H 0.64932 0.0307 0.41955 0.0
H1741 H 0.63286 0.03193 0.44883 0.0
H1742 H 0.61839 0.04288 0.42117 0.0
H1743 H 0.54104 0.9899 0.40684 0.0
H1744 H 0.52495 0.99871 0.44893 0.0
H1745 H 0.59923 0.01082 0.47264 0.0
C1746 C 0.63311 1.00182 0.37734 0.0
C1747 C 0.62434 1.0001 0.35319 0.0
C1748 C 0.59931 0.99522 0.3495 0.0
C1749 C 0.583 0.9923 0.36968 0.0
C1750 C 0.59209 0.99437 0.39332 0.0
C1751 C 0.6165 0.99914 0.3973 0.0
C1752 C 0.62091 1.00314 0.42443 0.0
C1753 C 0.63807 0.98333 0.43486 0.0
C1754 C 0.63094 0.02867 0.42873 0.0
C1755 C 0.59501 1.00064 0.43485 0.0
C1756 C 0.57877 0.99513 0.41666 0.0
C1757 C 0.55356 0.99383 0.42139 0.0
C1758 C 0.54461 0.99891 0.44529 0.0
C1759 C 0.56088 0.00534 0.46395 0.0
C1760 C 0.58642 0.00557 0.4588 0.0
H1761 H 0.82242 0.85696 0.10094 0.0
H1762 H 0.74715 0.88208 0.09314 0.0
H1763 H 0.73631 0.86384 0.13419 0.0
H1764 H 0.81026 0.80056 0.13073 0.0
H1765 H 0.83546 0.80174 0.15155 0.0
H1766 H 0.83741 0.81726 0.12203 0.0
H1767 H 0.84596 0.85764 0.14385 0.0
H1768 H 0.8443 0.84219 0.17343 0.0
H1769 H 0.82489 0.86839 0.16778 0.0
H1770 H 0.73314 0.83911 0.17512 0.0
H1771 H 0.73882 0.81568 0.21391 0.0
H1772 H 0.81695 0.80936 0.19692 0.0
C1773 C 0.80367 0.85893 0.10796 0.0
C1774 C 0.78562 0.87108 0.09355 0.0
C1775 C 0.76138 0.87316 0.10368 0.0
C1776 C 0.75504 0.86265 0.127 0.0
C1777 C 0.77319 0.8504 0.14041 0.0
C1778 C 0.79717 0.849 0.13143 0.0
C1779 C 0.81338 0.83528 0.14964 0.0
C1780 C 0.8248 0.81235 0.13777 0.0
C1781 C 0.83331 0.85187 0.15924 0.0
C1782 C 0.79479 0.82874 0.17015 0.0
C1783 C 0.77163 0.83739 0.16432 0.0
C1784 C 0.75129 0.83261 0.17987 0.0
C1785 C 0.7547 0.81907 0.20191 0.0
C1786 C 0.77835 0.81058 0.20876 0.0
C1787 C 0.79864 0.81563 0.19247 0.0
H1788 H 0.95749 0.02442 0.71848 0.0
H1789 H 0.94388 0.10191 0.72389 0.0
H1790 H 0.96422 0.10802 0.68253 0.0
H1791 H 0.01598 0.02567 0.68599 0.0
H1792 H 0.00915 1.00028 0.66683 0.0
H1793 H 0.99531 1.00261 0.69739 0.0
H1794 H 0.95203 0.99976 0.67891 0.0
H1795 H 0.96573 0.99746 0.6483 0.0
H1796 H 0.94314 0.02094 0.65494 0.0
H1797 H 0.98732 0.10507 0.64112 0.0
H1798 H 1.00677 0.09316 0.60096 0.0
H1799 H 1.00067 0.01726 0.62205 0.0
C1800 C 0.95914 0.04271 0.71107 0.0
C1801 C 0.94974 0.06281 0.72428 0.0
C1802 C 0.95133 0.08642 0.7139 0.0
C1803 C 0.96284 0.09 0.69058 0.0
C1804 C 0.97199 0.06967 0.67797 0.0
C1805 C 0.96986 0.04648 0.68774 0.0
C1806 C 0.97943 0.02746 0.66994 0.0
C1807 C 1.00127 0.01317 0.68069 0.0
C1808 C 0.95885 0.01041 0.66259 0.0
C1809 C 0.98749 0.04353 0.64857 0.0
C1810 C 0.98348 0.06785 0.65364 0.0
C1811 C 0.99033 0.08609 0.63687 0.0
C1812 C 1.00139 0.0792 0.61424 0.0
C1813 C 1.00486 0.05434 0.60861 0.0
C1814 C 0.99784 0.03636 0.62594 0.0
H1815 H 0.80537 0.16208 0.39848 0.0
H1816 H 0.82276 0.21657 0.45201 0.0
H1817 H 0.83018 0.24635 0.4183 0.0
H1818 H 0.84725 0.18402 0.34611 0.0
H1819 H 0.82454 0.1781 0.32343 0.0
H1820 H 0.82619 0.15941 0.351 0.0
H1821 H 0.78024 0.16888 0.36113 0.0
H1822 H 0.77848 0.18761 0.33378 0.0
H1823 H 0.76994 0.20006 0.36352 0.0
H1824 H 0.82985 0.27139 0.38062 0.0
H1825 H 0.81856 0.29125 0.34135 0.0
H1826 H 0.79973 0.22118 0.31199 0.0
C1827 C 0.81147 0.18009 0.40283 0.0
C1828 C 0.81377 0.18723 0.42749 0.0
C1829 C 0.82098 0.21101 0.433 0.0
C1830 C 0.82549 0.2279 0.41403 0.0
C1831 C 0.82251 0.22064 0.38977 0.0
C1832 C 0.81551 0.19736 0.38406 0.0
C1833 C 0.80973 0.19544 0.35698 0.0
C1834 C 0.82803 0.17822 0.34359 0.0
C1835 C 0.78302 0.18755 0.35368 0.0
C1836 C 0.81346 0.22149 0.34876 0.0
C1837 C 0.82151 0.23554 0.36778 0.0
C1838 C 0.82402 0.26057 0.36536 0.0
C1839 C 0.81748 0.27168 0.34306 0.0
C1840 C 0.80827 0.25772 0.32374 0.0
C1841 C 0.80697 0.23226 0.3264 0.0
H1842 H 0.60314 0.01145 0.22228 0.0
H1843 H 0.67007 0.05259 0.22417 0.0
H1844 H 0.66228 0.06897 0.18207 0.0
H1845 H 0.60644 0.99834 0.15419 0.0
H1846 H 0.57352 1.00118 0.15242 0.0
H1847 H 0.58708 0.98998 0.18045 0.0
H1848 H 0.56332 0.0235 0.20497 0.0
H1849 H 0.55037 0.03532 0.17699 0.0
H1850 H 0.56752 0.0549 0.19631 0.0
H1851 H 0.64304 0.08565 0.14257 0.0
H1852 H 0.6173 0.09608 0.10648 0.0
H1853 H 0.56371 0.04363 0.13211 0.0
C1854 C 0.61662 0.02316 0.21337 0.0
C1855 C 0.63725 0.03067 0.22606 0.0
C1856 C 0.65439 0.04634 0.2143 0.0
C1857 C 0.64999 0.05585 0.19057 0.0
C1858 C 0.62865 0.04906 0.17899 0.0
C1859 C 0.61263 0.03252 0.18979 0.0
C1860 C 0.59025 0.02921 0.17452 0.0
C1861 C 0.58928 1.00313 0.16481 0.0
C1862 C 0.56648 0.03616 0.18907 0.0
C1863 C 0.59565 0.04712 0.15389 0.0
C1864 C 0.61784 0.05844 0.15656 0.0
C1865 C 0.62584 0.07658 0.14008 0.0
C1866 C 0.61106 0.08263 0.11991 0.0
C1867 C 0.58876 0.07048 0.11666 0.0
C1868 C 0.58091 0.05289 0.1341 0.0
H1869 H 0.7903 0.9042 0.93183 0.0
H1870 H 0.78281 0.84202 0.98154 0.0
H1871 H 0.77669 0.81573 0.9461 0.0
H1872 H 0.74636 0.88615 0.8866 0.0
H1873 H 0.7643 0.89554 0.85971 0.0
H1874 H 0.76778 0.91056 0.8888 0.0
H1875 H 0.81443 0.90096 0.88694 0.0
H1876 H 0.81109 0.88611 0.85773 0.0
H1877 H 0.82498 0.87 0.88313 0.0
H1878 H 0.76849 0.79605 0.90661 0.0
H1879 H 0.76514 0.78204 0.86425 0.0
H1880 H 0.78191 0.85439 0.83622 0.0
C1881 C 0.78752 0.88502 0.93519 0.0
C1882 C 0.78697 0.87539 0.9599 0.0
C1883 C 0.78342 0.8501 0.96316 0.0
C1884 C 0.77976 0.83489 0.94301 0.0
C1885 C 0.7801 0.84484 0.91917 0.0
C1886 C 0.78444 0.86916 0.9149 0.0
C1887 C 0.78498 0.87439 0.88688 0.0
C1888 C 0.76464 0.89276 0.8801 0.0
C1889 C 0.81038 0.8834 0.87815 0.0
C1890 C 0.77995 0.84929 0.87634 0.0
C1891 C 0.77686 0.8328 0.89561 0.0
C1892 C 0.77123 0.80873 0.89136 0.0
C1893 C 0.7693 0.80094 0.86692 0.0
C1894 C 0.7734 0.81681 0.8463 0.0
C1895 C 0.77861 0.8416 0.85128 0.0
H1896 H 0.88563 0.92195 0.00355 0.0
H1897 H 0.83155 0.96596 0.04376 0.0
H1898 H 0.86377 0.99572 0.05235 0.0
H1899 H 0.93608 0.93114 0.04225 0.0
H1900 H 0.95877 0.93285 0.01736 0.0
H1901 H 0.93139 0.91557 0.01368 0.0
H1902 H 0.92137 0.94051 0.9742 0.0
H1903 H 0.94886 0.95771 0.97771 0.0
H1904 H 0.91954 0.97316 0.97567 0.0
H1905 H 0.90367 0.01978 0.05899 0.0
H1906 H 0.94563 0.03679 0.05988 0.0
H1907 H 0.97322 0.97814 0.01381 0.0
C1908 C 0.8804 0.93796 0.01397 0.0
C1909 C 0.85573 0.94141 0.02295 0.0
C1910 C 0.85003 0.96278 0.03646 0.0
C1911 C 0.86836 0.97979 0.04156 0.0
C1912 C 0.89249 0.97557 0.03278 0.0
C1913 C 0.8984 0.9553 0.0189 0.0
C1914 C 0.92562 0.95499 0.01137 0.0
C1915 C 0.93873 0.93229 0.02179 0.0
C1916 C 0.92904 0.9567 0.98306 0.0
C1917 C 0.93431 0.97793 0.02359 0.0
C1918 C 0.91496 0.98958 0.03593 0.0
C1919 C 0.91878 0.01081 0.04916 0.0
C1920 C 0.94272 0.02037 0.04965 0.0
C1921 C 0.96271 0.00891 0.0369 0.0
C1922 C 0.95829 0.9874 0.02368 0.0
H1923 H 0.3806 0.64625 0.02272 0.0
H1924 H 0.32584 0.59123 0.03756 0.0
H1925 H 0.3589 0.55994 0.03992 0.0
H1926 H 0.41845 0.61169 0.98315 0.0
H1927 H 0.44689 0.62346 0.99381 0.0
H1928 H 0.41926 0.64182 0.99567 0.0
H1929 H 0.42433 0.6471 0.04288 0.0
H1930 H 0.45233 0.62927 0.04102 0.0
H1931 H 0.42795 0.62059 0.06243 0.0
H1932 H 0.39821 0.53447 0.03804 0.0
H1933 H 0.4406 0.51759 0.03597 0.0
H1934 H 0.46842 0.58984 0.02084 0.0
C1935 C 0.37552 0.62771 0.02697 0.0
C1936 C 0.3507 0.62113 0.03003 0.0
C1937 C 0.34481 0.59665 0.03536 0.0
C1938 C 0.36342 0.57876 0.03656 0.0
C1939 C 0.38769 0.58578 0.03245 0.0
C1940 C 0.39375 0.60974 0.02811 0.0
C1941 C 0.42103 0.61262 0.02358 0.0
C1942 C 0.42672 0.62301 0.9975 0.0
C1943 C 0.43206 0.62831 0.04368 0.0
C1944 C 0.42944 0.58649 0.0258 0.0
C1945 C 0.41004 0.57122 0.03094 0.0
C1946 C 0.41355 0.54627 0.03407 0.0
C1947 C 0.43765 0.53684 0.03268 0.0
C1948 C 0.45779 0.55238 0.02811 0.0
C1949 C 0.45344 0.57741 0.02412 0.0
H1950 H 0.18109 0.60614 0.82486 0.0
H1951 H 0.216 0.55085 0.7786 0.0
H1952 H 0.24178 0.58204 0.7583 0.0
H1953 H 0.17578 0.64978 0.77962 0.0
H1954 H 0.18218 0.67535 0.79872 0.0
H1955 H 0.1692 0.64842 0.81249 0.0
H1956 H 0.20521 0.64481 0.84274 0.0
H1957 H 0.21808 0.67206 0.82936 0.0
H1958 H 0.2364 0.64454 0.83061 0.0
H1959 H 0.25967 0.61996 0.73921 0.0
H1960 H 0.27125 0.66143 0.7258 0.0
H1961 H 0.22398 0.69137 0.78415 0.0
C1962 C 0.19466 0.6004 0.811 0.0
C1963 C 0.19646 0.57602 0.80334 0.0
C1964 C 0.21426 0.56941 0.78486 0.0
C1965 C 0.22899 0.587 0.77316 0.0
C1966 C 0.22586 0.61105 0.78033 0.0
C1967 C 0.20945 0.6177 0.79914 0.0
C1968 C 0.20837 0.64492 0.80224 0.0
C1969 C 0.18234 0.65521 0.798 0.0
C1970 C 0.21757 0.65199 0.82775 0.0
C1971 C 0.22613 0.65257 0.78173 0.0
C1972 C 0.23618 0.63282 0.76938 0.0
C1973 C 0.25219 0.63556 0.74896 0.0
C1974 C 0.25843 0.65915 0.74129 0.0
C1975 C 0.24861 0.67958 0.75402 0.0
C1976 C 0.23215 0.6761 0.77436 0.0
H1977 H 0.19533 0.42777 0.51269 0.0
H1978 H 0.2354 0.47059 0.56427 0.0
H1979 H 0.19847 0.49617 0.5721 0.0
H1980 H 0.16212 0.47834 0.48609 0.0
H1981 H 0.134 0.46217 0.48238 0.0
H1982 H 0.163 0.44594 0.48183 0.0
H1983 H 0.14721 0.41769 0.51724 0.0
H1984 H 0.11813 0.43381 0.51783 0.0
H1985 H 0.13539 0.43074 0.54569 0.0
H1986 H 0.15724 0.51773 0.57439 0.0
H1987 H 0.11533 0.53456 0.56964 0.0
H1988 H 0.10136 0.47982 0.51503 0.0
C1989 C 0.19619 0.44232 0.52588 0.0
C1990 C 0.21842 0.44692 0.53805 0.0
C1991 C 0.21876 0.46653 0.55476 0.0
C1992 C 0.19778 0.48121 0.55937 0.0
C1993 C 0.17633 0.47645 0.54696 0.0
C1994 C 0.17534 0.45756 0.53044 0.0
C1995 C 0.15014 0.45723 0.51878 0.0
C1996 C 0.15246 0.46115 0.4906 0.0
C1997 C 0.13694 0.43345 0.52528 0.0
C1998 C 0.13726 0.47884 0.53127 0.0
C1999 C 0.15271 0.48949 0.54763 0.0
C2000 C 0.14504 0.50954 0.56156 0.0
C2001 C 0.12109 0.51902 0.55873 0.0
C2002 C 0.10484 0.50876 0.54188 0.0
C2003 C 0.11323 0.4883 0.52798 0.0
H2004 H 0.88975 0.96271 0.78551 0.0
H2005 H 0.84665 0.0165 0.74537 0.0
H2006 H 0.82015 0.98399 0.73074 0.0
H2007 H 0.88802 0.91578 0.74052 0.0
H2008 H 0.88567 0.89183 0.76346 0.0
H2009 H 0.90124 0.91937 0.77042 0.0
H2010 H 0.87253 0.92547 0.80909 0.0
H2011 H 0.85691 0.89794 0.80227 0.0
H2012 H 0.83971 0.926 0.80558 0.0
H2013 H 0.79837 0.94528 0.72077 0.0
H2014 H 0.78227 0.90375 0.71759 0.0
H2015 H 0.84049 0.87642 0.76402 0.0
C2016 C 0.87481 0.96777 0.77358 0.0
C2017 C 0.87031 0.99213 0.76652 0.0
C2018 C 0.85042 0.99792 0.75104 0.0
C2019 C 0.83532 0.9796 0.74258 0.0
C2020 C 0.84041 0.95575 0.74986 0.0
C2021 C 0.85963 0.94986 0.76508 0.0
C2022 C 0.86109 0.923 0.77065 0.0
C2023 C 0.88545 0.91185 0.76065 0.0
C2024 C 0.85733 0.91781 0.79855 0.0
C2025 C 0.83961 0.91463 0.75622 0.0
C2026 C 0.82793 0.93368 0.74426 0.0
C2027 C 0.80741 0.9302 0.72999 0.0
C2028 C 0.79851 0.90659 0.72818 0.0
C2029 C 0.81011 0.88696 0.74066 0.0
C2030 C 0.83104 0.89112 0.75459 0.0
H2031 H 0.70822 0.12653 0.45252 0.0
H2032 H 0.77139 0.08451 0.47678 0.0
H2033 H 0.74405 0.05248 0.4925 0.0
H2034 H 0.67442 0.12004 0.50189 0.0
H2035 H 0.64478 0.1168 0.48842 0.0
H2036 H 0.6686 0.13244 0.47152 0.0
H2037 H 0.66496 0.10338 0.43468 0.0
H2038 H 0.64066 0.08763 0.45121 0.0
H2039 H 0.66736 0.07105 0.43976 0.0
H2040 H 0.71041 0.03162 0.51621 0.0
H2041 H 0.67262 0.02036 0.53999 0.0
H2042 H 0.63199 0.0763 0.50062 0.0
C2043 C 0.71641 0.11003 0.45989 0.0
C2044 C 0.74189 0.10823 0.4637 0.0
C2045 C 0.75188 0.08642 0.47375 0.0
C2046 C 0.73647 0.06805 0.48276 0.0
C2047 C 0.7112 0.07147 0.48099 0.0
C2048 C 0.70124 0.09157 0.46901 0.0
C2049 C 0.67361 0.09277 0.47265 0.0
C2050 C 0.66488 0.11693 0.48433 0.0
C2051 C 0.66089 0.08844 0.44812 0.0
C2052 C 0.66996 0.07163 0.49036 0.0
C2053 C 0.69167 0.05915 0.49453 0.0
C2054 C 0.69313 0.04073 0.51247 0.0
C2055 C 0.67173 0.03471 0.52617 0.0
C2056 C 0.64934 0.04727 0.52195 0.0
C2057 C 0.64863 0.06585 0.50374 0.0
H2058 H 0.20848 0.45456 0.77134 0.0
H2059 H 0.13254 0.43262 0.77894 0.0
H2060 H 0.14608 0.38968 0.78149 0.0
H2061 H 0.23268 0.39899 0.73716 0.0
H2062 H 0.26083 0.39937 0.75383 0.0
H2063 H 0.24486 0.42744 0.74687 0.0
H2064 H 0.24422 0.43774 0.79356 0.0
H2065 H 0.25926 0.40934 0.80081 0.0
H2066 H 0.23013 0.41704 0.81561 0.0
H2067 H 0.16793 0.35002 0.78903 0.0
H2068 H 0.1967 0.31579 0.79696 0.0
H2069 H 0.25822 0.36439 0.78738 0.0
C2070 C 0.19468 0.44064 0.77226 0.0
C2071 C 0.16947 0.44678 0.77457 0.0
C2072 C 0.15193 0.42817 0.7768 0.0
C2073 C 0.15946 0.40377 0.7784 0.0
C2074 C 0.18456 0.39841 0.77778 0.0
C2075 C 0.20192 0.41626 0.7743 0.0
C2076 C 0.22771 0.40603 0.77689 0.0
C2077 C 0.24238 0.40808 0.75222 0.0
C2078 C 0.2411 0.41827 0.79797 0.0
C2079 C 0.22208 0.3799 0.78329 0.0
C2080 C 0.19713 0.37577 0.78335 0.0
C2081 C 0.18753 0.353 0.78888 0.0
C2082 C 0.20396 0.33376 0.79363 0.0
C2083 C 0.22962 0.33756 0.7932 0.0
C2084 C 0.23868 0.36104 0.78839 0.0
H2085 H 0.38126 0.64479 0.28284 0.0
H2086 H 0.32734 0.60349 0.24433 0.0
H2087 H 0.29821 0.63838 0.24709 0.0
H2088 H 0.34057 0.67093 0.32595 0.0
H2089 H 0.35545 0.69988 0.32635 0.0
H2090 H 0.37307 0.67285 0.31902 0.0
H2091 H 0.38802 0.69189 0.27713 0.0
H2092 H 0.37121 0.7193 0.2848 0.0
H2093 H 0.36573 0.7042 0.25616 0.0
H2094 H 0.27461 0.67735 0.25589 0.0
H2095 H 0.26009 0.71893 0.26596 0.0
H2096 H 0.32903 0.73234 0.30127 0.0
C2097 C 0.36355 0.6432 0.27446 0.0
C2098 C 0.35651 0.62152 0.26334 0.0
C2099 C 0.3331 0.62008 0.25278 0.0
C2100 C 0.3164 0.63968 0.25445 0.0
C2101 C 0.32352 0.66036 0.26677 0.0
C2102 C 0.34668 0.66234 0.27623 0.0
C2103 C 0.34975 0.68613 0.28916 0.0
C2104 C 0.35502 0.68219 0.31675 0.0
C2105 C 0.36986 0.70127 0.27602 0.0
C2106 C 0.32458 0.69722 0.28572 0.0
C2107 C 0.30969 0.68219 0.27271 0.0
C2108 C 0.28604 0.68923 0.26621 0.0
C2109 C 0.27788 0.71273 0.27221 0.0
C2110 C 0.29334 0.72864 0.28469 0.0
C2111 C 0.31657 0.7204 0.29229 0.0
H2112 H 0.5496 0.71624 0.5774 0.0
H2113 H 0.52045 0.70588 0.65225 0.0
H2114 H 0.51247 0.66282 0.64295 0.0
H2115 H 0.5055 0.6779 0.54775 0.0
H2116 H 0.52752 0.66642 0.52508 0.0
H2117 H 0.53109 0.69623 0.53766 0.0
H2118 H 0.57492 0.68431 0.55129 0.0
H2119 H 0.57137 0.65458 0.53859 0.0
H2120 H 0.57931 0.65769 0.57051 0.0
H2121 H 0.50995 0.61919 0.62564 0.0
H2122 H 0.51033 0.58118 0.60175 0.0
H2123 H 0.5384 0.62017 0.53705 0.0
C2124 C 0.54149 0.705 0.59193 0.0
C2125 C 0.53583 0.71486 0.61579 0.0
C2126 C 0.52501 0.69918 0.63391 0.0
C2127 C 0.52046 0.67452 0.62875 0.0
C2128 C 0.52641 0.66547 0.60516 0.0
C2129 C 0.53646 0.6804 0.58695 0.0
C2130 C 0.54079 0.6664 0.56294 0.0
C2131 C 0.5253 0.67739 0.54213 0.0
C2132 C 0.56823 0.66571 0.5554 0.0
C2133 C 0.53187 0.64115 0.57041 0.0
C2134 C 0.52384 0.64095 0.59495 0.0
C2135 C 0.51589 0.61942 0.60635 0.0
C2136 C 0.51615 0.59778 0.59255 0.0
C2137 C 0.5239 0.59742 0.56722 0.0
C2138 C 0.53176 0.61968 0.55613 0.0
H2139 H 0.6206 0.28293 0.89224 0.0
H2140 H 0.56696 0.26269 0.83864 0.0
H2141 H 0.59895 0.26392 0.80553 0.0
H2142 H 0.65277 0.32513 0.85232 0.0
H2143 H 0.68275 0.31737 0.86362 0.0
H2144 H 0.65595 0.31407 0.88363 0.0
H2145 H 0.66745 0.26884 0.89137 0.0
H2146 H 0.69434 0.27204 0.87147 0.0
H2147 H 0.6723 0.24901 0.86535 0.0
H2148 H 0.6359 0.26728 0.77837 0.0
H2149 H 0.67628 0.27312 0.75793 0.0
H2150 H 0.70663 0.29262 0.8283 0.0
C2151 C 0.61569 0.27857 0.87356 0.0
C2152 C 0.59133 0.27263 0.86798 0.0
C2153 C 0.5855 0.26731 0.84331 0.0
C2154 C 0.60353 0.26794 0.82437 0.0
C2155 C 0.62728 0.27408 0.83039 0.0
C2156 C 0.63348 0.27937 0.8543 0.0
C2157 C 0.66036 0.286 0.85543 0.0
C2158 C 0.66311 0.3122 0.86427 0.0
C2159 C 0.67444 0.26789 0.87188 0.0
C2160 C 0.6682 0.28356 0.8284 0.0
C2161 C 0.64877 0.27655 0.81441 0.0
C2162 C 0.65128 0.27278 0.78908 0.0
C2163 C 0.67434 0.27614 0.77766 0.0
C2164 C 0.69462 0.28334 0.79152 0.0
C2165 C 0.69143 0.28724 0.81723 0.0
H2166 H 0.02912 0.34866 0.08904 0.0
H2167 H 0.06093 0.36356 0.15968 0.0
H2168 H 0.06706 0.40623 0.14666 0.0
H2169 H 0.06734 0.39004 0.05063 0.0
H2170 H 0.04243 0.4 0.03152 0.0
H2171 H 0.0422 0.37007 0.04539 0.0
H2172 H 0.99957 0.3794 0.0657 0.0
H2173 H 0.99973 0.40938 0.05198 0.0
H2174 H 0.99553 0.40567 0.08501 0.0
H2175 H 0.06969 0.44803 0.12619 0.0
H2176 H 0.06675 0.4856 0.10097 0.0
H2177 H 0.03053 0.446 0.04399 0.0
C2178 C 0.03784 0.3608 0.10154 0.0
C2179 C 0.04505 0.35233 0.12537 0.0
C2180 C 0.05556 0.36926 0.14133 0.0
C2181 C 0.05909 0.39368 0.13406 0.0
C2182 C 0.0516 0.40154 0.11073 0.0
C2183 C 0.04101 0.38567 0.09471 0.0
C2184 C 0.03333 0.39942 0.07125 0.0
C2185 C 0.04715 0.38927 0.04834 0.0
C2186 C 1.00538 0.3984 0.06831 0.0
C2187 C 0.04133 0.42532 0.07656 0.0
C2188 C 0.05205 0.42598 0.09939 0.0
C2189 C 0.06124 0.44762 0.10833 0.0
C2190 C 0.05951 0.46903 0.09375 0.0
C2191 C 0.04834 0.46922 0.07034 0.0
C2192 C 0.03907 0.4468 0.0618 0.0
H2193 H 0.95618 0.77172 0.40663 0.0
H2194 H 0.01965 0.78813 0.35908 0.0
H2195 H 0.9929 0.79228 0.32336 0.0
H2196 H 0.92368 0.73688 0.3608 0.0
H2197 H 0.89392 0.74849 0.37078 0.0
H2198 H 0.91821 0.7454 0.39261 0.0
H2199 H 0.91307 0.79091 0.40351 0.0
H2200 H 0.88879 0.79409 0.38176 0.0
H2201 H 0.91507 0.8135 0.37913 0.0
H2202 H 0.95936 0.79776 0.29347 0.0
H2203 H 0.92065 0.80298 0.27101 0.0
H2204 H 0.8792 0.78195 0.33732 0.0
C2205 C 0.96449 0.77598 0.38868 0.0
C2206 C 0.99003 0.77959 0.38572 0.0
C2207 C 1.00015 0.78519 0.36188 0.0
C2208 C 0.98513 0.78757 0.34142 0.0
C2209 C 0.96006 0.78408 0.345 0.0
C2210 C 0.94978 0.77825 0.36796 0.0
C2211 C 0.92216 0.77618 0.36682 0.0
C2212 C 0.91402 0.75019 0.37312 0.0
C2213 C 0.90901 0.79478 0.38381 0.0
C2214 C 0.91855 0.7823 0.33977 0.0
C2215 C 0.94066 0.78673 0.32752 0.0
C2216 C 0.94193 0.79405 0.30275 0.0
C2217 C 0.91993 0.79708 0.2902 0.0
C2218 C 0.89711 0.79266 0.30242 0.0
C2219 C 0.89648 0.78492 0.32743 0.0
H2220 H 0.54108 0.35217 0.94183 0.0
H2221 H 0.52544 0.29263 0.99299 0.0
H2222 H 0.51424 0.32182 0.02568 0.0
H2223 H 0.56863 0.39045 0.98679 0.0
H2224 H 0.55612 0.41819 0.97391 0.0
H2225 H 0.5625 0.39259 0.95422 0.0
H2226 H 0.5174 0.39378 0.94011 0.0
H2227 H 0.51095 0.41939 0.95974 0.0
H2228 H 0.49272 0.39248 0.96303 0.0
H2229 H 0.50346 0.35753 0.05264 0.0
H2230 H 0.49682 0.39759 0.07249 0.0
H2231 H 0.52113 0.43331 0.00438 0.0
C2232 C 0.53529 0.34531 0.95991 0.0
C2233 C 0.53393 0.32016 0.96479 0.0
C2234 C 0.5265 0.31184 0.98875 0.0
C2235 C 0.52008 0.32827 0.00748 0.0
C2236 C 0.52147 0.35295 1.00206 0.0
C2237 C 0.52914 0.36147 0.97895 0.0
C2238 C 0.52957 0.3889 0.97818 0.0
C2239 C 0.55577 0.39806 0.97297 0.0
C2240 C 0.51158 0.39924 0.95914 0.0
C2241 C 0.52085 0.39439 0.00438 0.0
C2242 C 0.51609 0.37346 0.01785 0.0
C2243 C 0.50729 0.37408 0.04235 0.0
C2244 C 0.50349 0.39679 0.05344 0.0
C2245 C 0.50879 0.41837 0.04007 0.0
C2246 C 0.51744 0.41704 0.01521 0.0
H2247 H 0.96494 0.29837 0.20946 0.0
H2248 H 0.95197 0.26539 0.1388 0.0
H2249 H 0.90804 0.26106 0.15065 0.0
H2250 H 0.9211 0.26371 0.24718 0.0
H2251 H 0.9108 0.2892 0.26552 0.0
H2252 H 0.94157 0.28839 0.25233 0.0
H2253 H 0.93371 0.32992 0.23083 0.0
H2254 H 0.90291 0.33083 0.24396 0.0
H2255 H 0.90787 0.33367 0.21094 0.0
H2256 H 0.86531 0.25882 0.17086 0.0
H2257 H 0.82664 0.26286 0.19573 0.0
H2258 H 0.86526 0.3014 0.25175 0.0
C2259 C 0.95286 0.29001 0.19663 0.0
C2260 C 0.96213 0.28183 0.17325 0.0
C2261 C 0.94548 0.27161 0.1568 0.0
C2262 C 0.92042 0.26905 0.16342 0.0
C2263 C 0.91182 0.27733 0.18645 0.0
C2264 C 0.92744 0.28799 0.20269 0.0
C2265 C 0.913 0.29672 0.22564 0.0
C2266 C 0.92217 0.28373 0.24906 0.0
C2267 C 0.91447 0.32443 0.22797 0.0
C2268 C 0.88697 0.28908 0.2199 0.0
C2269 C 0.88684 0.27759 0.19733 0.0
C2270 C 0.86524 0.26803 0.18843 0.0
C2271 C 0.84328 0.27035 0.20275 0.0
C2272 C 0.84263 0.28262 0.22566 0.0
C2273 C 0.86494 0.29217 0.2342 0.0
H2274 H 0.06889 0.71067 0.48675 0.0
H2275 H 0.06216 0.69967 0.4081 0.0
H2276 H 0.06717 0.65523 0.41466 0.0
H2277 H 0.11352 0.65803 0.49812 0.0
H2278 H 0.09891 0.65199 0.52787 0.0
H2279 H 0.10028 0.68266 0.51593 0.0
H2280 H 0.05293 0.68675 0.52132 0.0
H2281 H 0.05135 0.65615 0.5329 0.0
H2282 H 0.03375 0.66525 0.50651 0.0
H2283 H 0.06361 0.61212 0.43149 0.0
H2284 H 0.05517 0.57496 0.45642 0.0
H2285 H 0.06635 0.61518 0.52352 0.0
C2286 C 0.06945 0.69891 0.47082 0.0
C2287 C 0.06528 0.70833 0.44697 0.0
C2288 C 0.06572 0.69263 0.42648 0.0
C2289 C 0.0685 0.66743 0.43007 0.0
C2290 C 0.07143 0.65852 0.45414 0.0
C2291 C 0.07256 0.67394 0.47408 0.0
C2292 C 0.07325 0.66012 0.49834 0.0
C2293 C 0.09797 0.66339 0.51079 0.0
C2294 C 0.05153 0.6675 0.51576 0.0
C2295 C 0.07075 0.63458 0.48918 0.0
C2296 C 0.07005 0.63381 0.46366 0.0
C2297 C 0.06488 0.61241 0.45143 0.0
C2298 C 0.06001 0.59142 0.46572 0.0
C2299 C 0.06024 0.59216 0.49189 0.0
C2300 C 0.06635 0.61389 0.50354 0.0
H2301 H 0.63664 0.80327 0.66167 0.0
H2302 H 0.58315 0.76754 0.70994 0.0
H2303 H 0.61477 0.76193 0.74169 0.0
H2304 H 0.68952 0.76695 0.67756 0.0
H2305 H 0.71037 0.792 0.67667 0.0
H2306 H 0.68363 0.79291 0.65783 0.0
H2307 H 0.67005 0.83375 0.67755 0.0
H2308 H 0.69678 0.83282 0.69644 0.0
H2309 H 0.66658 0.83569 0.71075 0.0
H2310 H 0.65435 0.75754 0.76759 0.0
H2311 H 0.69547 0.75899 0.78614 0.0
H2312 H 0.72228 0.80072 0.72276 0.0
C2313 C 0.63145 0.79436 0.67897 0.0
C2314 C 0.60707 0.78581 0.68302 0.0
C2315 C 0.6014 0.77441 0.70615 0.0
C2316 C 0.61941 0.77102 0.72435 0.0
C2317 C 0.64323 0.77945 0.71963 0.0
C2318 C 0.64912 0.79127 0.69758 0.0
C2319 C 0.67585 0.79923 0.69727 0.0
C2320 C 0.69071 0.78704 0.67607 0.0
C2321 C 0.6774 0.82703 0.69539 0.0
C2322 C 0.68423 0.7899 0.72242 0.0
C2323 C 0.66525 0.77822 0.73495 0.0
C2324 C 0.6691 0.76701 0.75798 0.0
C2325 C 0.69263 0.76788 0.76844 0.0
C2326 C 0.71224 0.78033 0.75632 0.0
C2327 C 0.70769 0.79149 0.73293 0.0
H2328 H 0.62785 0.50531 0.74124 0.0
H2329 H 0.59064 0.57333 0.75945 0.0
H2330 H 0.57024 0.57307 0.71915 0.0
H2331 H 0.63605 0.51608 0.67435 0.0
H2332 H 0.62989 0.48495 0.66723 0.0
H2333 H 0.64371 0.49218 0.69604 0.0
H2334 H 0.6089 0.46964 0.71992 0.0
H2335 H 0.59464 0.46271 0.69128 0.0
H2336 H 0.57737 0.47859 0.71517 0.0
H2337 H 0.55272 0.56446 0.67823 0.0
H2338 H 0.53899 0.54809 0.63869 0.0
H2339 H 0.58547 0.48433 0.64865 0.0
C2340 C 0.61597 0.52052 0.73644 0.0
C2341 C 0.61103 0.53957 0.75315 0.0
C2342 C 0.59475 0.55873 0.74668 0.0
C2343 C 0.58311 0.5587 0.72392 0.0
C2344 C 0.58783 0.53925 0.70817 0.0
C2345 C 0.60388 0.52053 0.7141 0.0
C2346 C 0.60437 0.50089 0.6948 0.0
C2347 C 0.63003 0.49839 0.68236 0.0
C2348 C 0.5958 0.47653 0.70597 0.0
C2349 C 0.58589 0.51141 0.67713 0.0
C2350 C 0.57679 0.53366 0.68509 0.0
C2351 C 0.55971 0.5471 0.67177 0.0
C2352 C 0.55203 0.53769 0.64947 0.0
C2353 C 0.56119 0.515 0.64098 0.0
C2354 C 0.57806 0.50156 0.65509 0.0
H2355 H 0.77925 0.37174 0.96931 0.0
H2356 H 0.7418 0.43878 0.94876 0.0
H2357 H 0.74673 0.42794 0.90445 0.0
H2358 H 0.82397 0.3724 0.91818 0.0
H2359 H 0.82398 0.33985 0.91525 0.0
H2360 H 0.81774 0.35341 0.94497 0.0
H2361 H 0.77649 0.33064 0.94882 0.0
H2362 H 0.78256 0.31706 0.91913 0.0
H2363 H 0.75449 0.33419 0.92469 0.0
H2364 H 0.75307 0.40758 0.8626 0.0
H2365 H 0.76324 0.3811 0.82678 0.0
H2366 H 0.79861 0.32932 0.87572 0.0
C2367 C 0.77217 0.38423 0.95553 0.0
C2368 C 0.76002 0.406 0.96233 0.0
C2369 C 0.7512 0.42199 0.94378 0.0
C2370 C 0.75389 0.41598 0.91866 0.0
C2371 C 0.76584 0.39417 0.91258 0.0
C2372 C 0.77513 0.37876 0.93054 0.0
C2373 C 0.78729 0.35647 0.91942 0.0
C2374 C 0.81488 0.35549 0.92477 0.0
C2375 C 0.77443 0.33323 0.92856 0.0
C2376 C 0.78298 0.36142 0.89236 0.0
C2377 C 0.77048 0.38317 0.88869 0.0
C2378 C 0.7632 0.39072 0.86524 0.0
C2379 C 0.76891 0.37561 0.84508 0.0
C2380 C 0.78199 0.35347 0.8486 0.0
C2381 C 0.78916 0.34646 0.87251 0.0
H2382 H 0.93944 0.52623 0.17999 0.0
H2383 H 0.95429 0.6005 0.19863 0.0
H2384 H 0.96306 0.61012 0.15446 0.0
H2385 H 0.98607 0.51758 0.1418 0.0
H2386 H 0.97164 0.49936 0.11908 0.0
H2387 H 0.95928 0.50014 0.15014 0.0
H2388 H 0.91689 0.51397 0.13399 0.0
H2389 H 0.92916 0.51313 0.10264 0.0
H2390 H 0.91464 0.54049 0.11424 0.0
H2391 H 0.98173 0.60836 0.1129 0.0
H2392 H 1.00651 0.59598 0.07606 0.0
H2393 H 0.97703 0.5237 0.08207 0.0
C2394 C 0.94335 0.54474 0.17437 0.0
C2395 C 0.94594 0.5628 0.19217 0.0
C2396 C 0.9519 0.58667 0.18487 0.0
C2397 C 0.95677 0.59226 0.15989 0.0
C2398 C 0.95515 0.57378 0.14264 0.0
C2399 C 0.94805 0.55056 0.14947 0.0
C2400 C 0.95149 0.53312 0.1282 0.0
C2401 C 0.96812 0.5113 0.13524 0.0
C2402 C 0.92655 0.52469 0.11923 0.0
C2403 C 0.96386 0.54955 0.10917 0.0
C2404 C 0.96525 0.5731 0.11764 0.0
C2405 C 0.97984 0.59036 0.10551 0.0
C2406 C 0.99393 0.5832 0.08473 0.0
C2407 C 0.99297 0.55915 0.0762 0.0
C2408 C 0.97708 0.54244 0.08786 0.0
H2409 H 0.76696 0.66904 0.43999 0.0
H2410 H 0.80138 0.72283 0.48473 0.0
H2411 H 0.80678 0.74936 0.44789 0.0
H2412 H 0.80296 0.67851 0.38324 0.0
H2413 H 0.7775 0.67573 0.36296 0.0
H2414 H 0.77709 0.66018 0.39251 0.0
H2415 H 0.73554 0.68108 0.40418 0.0
H2416 H 0.7358 0.69663 0.37463 0.0
H2417 H 0.73291 0.71372 0.4028 0.0
H2418 H 0.81118 0.7693 0.4054 0.0
H2419 H 0.80883 0.78365 0.36195 0.0
H2420 H 0.76707 0.7202 0.3444 0.0
C2421 C 0.77563 0.68641 0.44198 0.0
C2422 C 0.78391 0.69366 0.46548 0.0
C2423 C 0.79483 0.71674 0.46716 0.0
C2424 C 0.7981 0.73196 0.44621 0.0
C2425 C 0.78985 0.72437 0.42341 0.0
C2426 C 0.77835 0.70235 0.42119 0.0
C2427 C 0.77 0.69936 0.39464 0.0
C2428 C 0.78264 0.67712 0.38263 0.0
C2429 C 0.74189 0.69759 0.39403 0.0
C2430 C 0.77883 0.72292 0.38232 0.0
C2431 C 0.79066 0.73683 0.39925 0.0
C2432 C 0.8016 0.7587 0.39213 0.0
C2433 C 0.80025 0.76672 0.3673 0.0
C2434 C 0.78749 0.75338 0.34965 0.0
C2435 C 0.77661 0.73112 0.35745 0.0
H2436 H 0.61029 0.53465 0.87321 0.0
H2437 H 0.63578 0.45995 0.87928 0.0
H2438 H 0.6107 0.45498 0.91814 0.0
H2439 H 0.61108 0.54718 0.93886 0.0
H2440 H 0.58443 0.56695 0.93754 0.0
H2441 H 0.60472 0.56395 0.91083 0.0
H2442 H 0.56768 0.55196 0.88474 0.0
H2443 H 0.54737 0.55431 0.91153 0.0
H2444 H 0.54932 0.52644 0.89444 0.0
H2445 H 0.58027 0.45806 0.95479 0.0
H2446 H 0.55334 0.47073 0.99014 0.0
H2447 H 0.54994 0.54394 0.95975 0.0
C2448 C 0.61078 0.51732 0.88285 0.0
C2449 C 0.62472 0.49762 0.87344 0.0
C2450 C 0.62524 0.47526 0.88653 0.0
C2451 C 0.6109 0.47224 0.90836 0.0
C2452 C 0.59663 0.49192 0.91675 0.0
C2453 C 0.59701 0.51418 0.90467 0.0
C2454 C 0.58087 0.53279 0.91772 0.0
C2455 C 0.59619 0.55396 0.92678 0.0
C2456 C 0.56008 0.5419 0.90111 0.0
C2457 C 0.57106 0.51753 0.939 0.0
C2458 C 0.58001 0.49391 0.93802 0.0
C2459 C 0.57329 0.47654 0.95582 0.0
C2460 C 0.5578 0.48383 0.97565 0.0
C2461 C 0.54964 0.50831 0.97755 0.0
C2462 C 0.55591 0.52512 0.95868 0.0
H2463 H 0.77298 0.39139 0.10798 0.0
H2464 H 0.73792 0.33338 0.06952 0.0
H2465 H 0.72643 0.3141 0.10962 0.0
H2466 H 0.80046 0.3534 0.15175 0.0
H2467 H 0.79736 0.37436 0.17702 0.0
H2468 H 0.79921 0.38565 0.14567 0.0
H2469 H 0.75805 0.40922 0.15285 0.0
H2470 H 0.75599 0.39772 0.18422 0.0
H2471 H 0.73117 0.39309 0.16355 0.0
H2472 H 0.72148 0.29962 0.15275 0.0
H2473 H 0.7283 0.28739 0.19593 0.0
H2474 H 0.76869 0.35347 0.20693 0.0
C2475 C 0.76249 0.37486 0.10814 0.0
C2476 C 0.75609 0.36387 0.08585 0.0
C2477 C 0.74296 0.34197 0.08652 0.0
C2478 C 0.73613 0.33108 0.10915 0.0
C2479 C 0.74282 0.34224 0.13087 0.0
C2480 C 0.75601 0.36345 0.1306 0.0
C2481 C 0.76367 0.36991 0.1564 0.0
C2482 C 0.79184 0.37087 0.15778 0.0
C2483 C 0.75149 0.39391 0.16474 0.0
C2484 C 0.75339 0.34858 0.17105 0.0
C2485 C 0.74084 0.33325 0.15601 0.0
C2486 C 0.73105 0.31155 0.1648 0.0
C2487 C 0.73505 0.30477 0.18937 0.0
C2488 C 0.74906 0.31948 0.20477 0.0
C2489 C 0.7576 0.34206 0.19571 0.0
H2490 H 0.9303 0.55023 0.35103 0.0
H2491 H 0.98845 0.5318 0.29757 0.0
H2492 H 0.01245 0.51273 0.33074 0.0
H2493 H 0.97097 0.56669 0.39892 0.0
H2494 H 0.95142 0.5551 0.42367 0.0
H2495 H 0.93817 0.56596 0.39539 0.0
H2496 H 0.91707 0.52456 0.39044 0.0
H2497 H 0.9305 0.51348 0.41859 0.0
H2498 H 0.93548 0.49705 0.39021 0.0
H2499 H 0.0298 0.49488 0.3695 0.0
H2500 H 0.04189 0.48481 0.41233 0.0
H2501 H 0.97403 0.5174 0.44076 0.0
C2502 C 0.94806 0.54212 0.34633 0.0
C2503 C 0.95735 0.54215 0.3217 0.0
C2504 C 0.98084 0.53178 0.31628 0.0
C2505 C 0.99459 0.5208 0.33497 0.0
C2506 C 0.98475 0.52074 0.35902 0.0
C2507 C 0.96226 0.53154 0.36485 0.0
C2508 C 0.95665 0.53042 0.39242 0.0
C2509 C 0.95417 0.55607 0.40323 0.0
C2510 C 0.93356 0.51548 0.39825 0.0
C2511 C 0.97955 0.51739 0.40114 0.0
C2512 C 0.99532 0.51155 0.38155 0.0
C2513 C 0.01764 0.49939 0.38502 0.0
C2514 C 0.02428 0.49359 0.40928 0.0
C2515 C 0.00883 0.50038 0.42959 0.0
C2516 C 0.98609 0.51211 0.42541 0.0
H2517 H 0.77072 0.72893 0.59692 0.0
H2518 H 0.79743 0.65525 0.609 0.0
H2519 H 0.80499 0.66504 0.6528 0.0
H2520 H 0.81467 0.75811 0.63539 0.0
H2521 H 0.79295 0.78079 0.6465 0.0
H2522 H 0.78962 0.76787 0.61636 0.0
H2523 H 0.74527 0.75523 0.62858 0.0
H2524 H 0.74853 0.76818 0.65869 0.0
H2525 H 0.73999 0.7369 0.65604 0.0
H2526 H 0.80744 0.68302 0.69692 0.0
H2527 H 0.80693 0.70745 0.73511 0.0
H2528 H 0.78099 0.77009 0.6935 0.0
C2529 C 0.7782 0.71474 0.60867 0.0
C2530 C 0.78332 0.69111 0.59917 0.0
C2531 C 0.79331 0.67341 0.6155 0.0
C2532 C 0.79762 0.67885 0.64054 0.0
C2533 C 0.79219 0.70225 0.64922 0.0
C2534 C 0.78289 0.71996 0.6336 0.0
C2535 C 0.77884 0.74381 0.64725 0.0
C2536 C 0.79498 0.76383 0.63568 0.0
C2537 C 0.75153 0.75147 0.64766 0.0
C2538 C 0.78715 0.73686 0.67309 0.0
C2539 C 0.79459 0.71274 0.67395 0.0
C2540 C 0.80193 0.70197 0.6962 0.0
C2541 C 0.8016 0.71605 0.7179 0.0
C2542 C 0.79437 0.74092 0.71749 0.0
C2543 C 0.78719 0.75134 0.69454 0.0
H2544 H 0.68153 0.6506 0.50696 0.0
H2545 H 0.7328 0.60256 0.54432 0.0
H2546 H 0.70079 0.57139 0.54835 0.0
H2547 H 0.62669 0.63398 0.54192 0.0
H2548 H 0.60715 0.63519 0.51557 0.0
H2549 H 0.63393 0.65387 0.51606 0.0
H2550 H 0.64924 0.63537 0.47445 0.0
H2551 H 0.6225 0.61657 0.47415 0.0
H2552 H 0.65278 0.60289 0.47199 0.0
H2553 H 0.66171 0.546 0.55095 0.0
H2554 H 0.6207 0.52758 0.54842 0.0
H2555 H 0.59528 0.59003 0.50619 0.0
C2556 C 0.68608 0.63351 0.51595 0.0
C2557 C 0.70997 0.6293 0.52541 0.0
C2558 C 0.71491 0.60645 0.53682 0.0
C2559 C 0.69671 0.58856 0.53929 0.0
C2560 C 0.67344 0.59333 0.52991 0.0
C2561 C 0.66817 0.61515 0.51814 0.0
C2562 C 0.64185 0.61539 0.5091 0.0
C2563 C 0.62651 0.63583 0.52141 0.0
C2564 C 0.64159 0.61769 0.48073 0.0
C2565 C 0.63304 0.59048 0.51787 0.0
C2566 C 0.65149 0.57816 0.53009 0.0
C2567 C 0.64733 0.55541 0.54106 0.0
C2568 C 0.62389 0.54501 0.53952 0.0
C2569 C 0.60474 0.55695 0.52666 0.0
C2570 C 0.60962 0.58003 0.5156 0.0
H2571 H 0.20263 0.96671 0.55074 0.0
H2572 H 0.17483 0.89341 0.5513 0.0
H2573 H 0.13416 0.90885 0.56587 0.0
H2574 H 0.16479 0.99028 0.60415 0.0
H2575 H 0.16014 0.01928 0.58904 0.0
H2576 H 0.18816 1.00212 0.58322 0.0
H2577 H 0.18059 1.00367 0.536 0.0
H2578 H 0.15289 0.02106 0.54171 0.0
H2579 H 0.15184 0.99315 0.5248 0.0
H2580 H 0.09605 0.93225 0.57524 0.0
H2581 H 0.062 0.96211 0.57359 0.0
H2582 H 0.11446 0.02037 0.56621 0.0
C2583 C 0.1881 0.95388 0.55446 0.0
C2584 C 0.19172 0.92893 0.55012 0.0
C2585 C 0.17226 0.91265 0.55454 0.0
C2586 C 0.14926 0.9212 0.56311 0.0
C2587 C 0.14618 0.94601 0.56709 0.0
C2588 C 0.16501 0.96215 0.56268 0.0
C2589 C 0.1561 0.98816 0.56487 0.0
C2590 C 0.16801 1.00069 0.58662 0.0
C2591 C 0.16061 1.00231 0.54039 0.0
C2592 C 0.12908 0.98415 0.57011 0.0
C2593 C 0.12386 0.95971 0.57203 0.0
C2594 C 0.09989 0.95145 0.57423 0.0
C2595 C 0.08069 0.96855 0.57325 0.0
C2596 C 0.08568 0.99351 0.56975 0.0
C2597 C 0.11014 1.00144 0.56931 0.0
H2598 H 0.37927 0.98429 0.76056 0.0
H2599 H 0.4163 0.98671 0.8305 0.0
H2600 H 0.39371 0.95102 0.84551 0.0
H2601 H 0.31974 0.96237 0.78565 0.0
H2602 H 0.3152 0.94231 0.76017 0.0
H2603 H 0.33246 0.96967 0.75534 0.0
H2604 H 0.36923 0.94428 0.73766 0.0
H2605 H 0.35216 0.91685 0.7426 0.0
H2606 H 0.38186 0.91978 0.75601 0.0
H2607 H 0.36936 0.91477 0.85274 0.0
H2608 H 0.34403 0.87835 0.85181 0.0
H2609 H 0.32308 0.89672 0.7769 0.0
C2610 C 0.38218 0.97745 0.77914 0.0
C2611 C 0.39933 0.98831 0.79451 0.0
C2612 C 0.40316 0.97866 0.81852 0.0
C2613 C 0.39042 0.95842 0.82724 0.0
C2614 C 0.37405 0.94776 0.8116 0.0
C2615 C 0.36984 0.95675 0.78806 0.0
C2616 C 0.35227 0.9406 0.77476 0.0
C2617 C 0.32851 0.95457 0.76862 0.0
C2618 C 0.36462 0.92973 0.75137 0.0
C2619 C 0.34758 0.92118 0.79449 0.0
C2620 C 0.36022 0.92597 0.81562 0.0
C2621 C 0.35918 0.91085 0.8364 0.0
C2622 C 0.34467 0.89026 0.83573 0.0
C2623 C 0.33145 0.88482 0.81438 0.0
C2624 C 0.33308 0.90043 0.79341 0.0
H2625 H 0.37457 0.15051 0.03182 0.0
H2626 H 0.32855 0.08689 0.03273 0.0
H2627 H 0.36521 0.06054 0.03302 0.0
H2628 H 0.42394 0.12544 0.99256 0.0
H2629 H 0.44853 0.13866 0.00914 0.0
H2630 H 0.41873 0.1534 0.00899 0.0
H2631 H 0.41696 0.15269 0.05685 0.0
H2632 H 0.44675 0.13792 0.05714 0.0
H2633 H 0.42093 0.12424 0.07323 0.0
H2634 H 0.40601 0.04027 0.03118 0.0
H2635 H 0.44933 0.027 0.02962 0.0
H2636 H 0.47197 0.102 0.0325 0.0
C2637 C 0.37225 0.13104 0.03214 0.0
C2638 C 0.34825 0.12099 0.03222 0.0
C2639 C 0.34636 0.09533 0.03273 0.0
C2640 C 0.36723 0.08004 0.03285 0.0
C2641 C 0.39039 0.09035 0.03275 0.0
C2642 C 0.39323 0.11521 0.03262 0.0
C2643 C 0.42067 0.12104 0.03287 0.0
C2644 C 0.42842 0.1355 0.0095 0.0
C2645 C 0.42668 0.1348 0.05642 0.0
C2646 C 0.43257 0.09561 0.03292 0.0
C2647 C 0.4145 0.07833 0.03267 0.0
C2648 C 0.4203 0.05364 0.03162 0.0
C2649 C 0.4451 0.04625 0.0307 0.0
C2650 C 0.46431 0.06326 0.03118 0.0
C2651 C 0.45784 0.08843 0.03253 0.0
H2652 H 0.67019 0.59861 0.85998 0.0
H2653 H 0.7119 0.55049 0.81079 0.0
H2654 H 0.74374 0.58126 0.80536 0.0
H2655 H 0.67972 0.65108 0.82763 0.0
H2656 H 0.68338 0.6706 0.85372 0.0
H2657 H 0.66551 0.64358 0.85724 0.0
H2658 H 0.69271 0.62847 0.89304 0.0
H2659 H 0.71044 0.65573 0.88999 0.0
H2660 H 0.72558 0.62643 0.88823 0.0
H2661 H 0.76653 0.61959 0.79857 0.0
H2662 H 0.7825 0.66154 0.79661 0.0
H2663 H 0.72833 0.68377 0.85224 0.0
C2664 C 0.68637 0.59424 0.84869 0.0
C2665 C 0.68841 0.57218 0.83573 0.0
C2666 C 0.70985 0.56723 0.82099 0.0
C2667 C 0.72808 0.58462 0.81771 0.0
C2668 C 0.72492 0.60663 0.82975 0.0
C2669 C 0.70497 0.61127 0.84551 0.0
C2670 C 0.70536 0.63693 0.85513 0.0
C2671 C 0.68212 0.65138 0.84799 0.0
C2672 C 0.70873 0.63688 0.88327 0.0
C2673 C 0.72794 0.64626 0.84136 0.0
C2674 C 0.73895 0.62849 0.8268 0.0
C2675 C 0.75856 0.63348 0.81044 0.0
C2676 C 0.76735 0.65722 0.80924 0.0
C2677 C 0.75668 0.67535 0.8245 0.0
C2678 C 0.73691 0.66983 0.84083 0.0
H2679 H 0.855 0.40935 0.98692 0.0
H2680 H 0.82051 0.45647 0.04221 0.0
H2681 H 0.85634 0.48287 0.03992 0.0
H2682 H 0.91664 0.41398 0.00839 0.0
H2683 H 0.93074 0.41424 0.97779 0.0
H2684 H 0.90216 0.39888 0.98342 0.0
H2685 H 0.88227 0.42459 0.9486 0.0
H2686 H 0.91075 0.44018 0.94301 0.0
H2687 H 0.88291 0.45724 0.94991 0.0
H2688 H 0.89538 0.50361 0.03294 0.0
H2689 H 0.93711 0.51748 0.02194 0.0
H2690 H 0.94695 0.45818 0.97051 0.0
C2691 C 0.85506 0.42516 0.99861 0.0
C2692 C 0.83492 0.43083 0.01472 0.0
C2693 C 0.83564 0.45177 0.02962 0.0
C2694 C 0.8559 0.46693 0.02847 0.0
C2695 C 0.87526 0.46101 0.01224 0.0
C2696 C 0.87516 0.44067 0.99759 0.0
C2697 C 0.89868 0.43855 0.98198 0.0
C2698 C 0.91289 0.41501 0.98828 0.0
C2699 C 0.89332 0.44024 0.95423 0.0
C2700 C 0.91201 0.46074 0.99042 0.0
C2701 C 0.89803 0.47339 0.00786 0.0
C2702 C 0.90651 0.49398 0.01923 0.0
C2703 C 0.93017 0.50166 0.01294 0.0
C2704 C 0.94501 0.48885 0.99542 0.0
C2705 C 0.9357 0.46839 0.98368 0.0
H2706 H 0.34939 0.11198 0.7578 0.0
H2707 H 0.42371 0.13857 0.74967 0.0
H2708 H 0.40764 0.18028 0.74465 0.0
H2709 H 0.32002 0.15844 0.71477 0.0
H2710 H 0.29289 0.16068 0.73458 0.0
H2711 H 0.30987 0.13236 0.73251 0.0
H2712 H 0.31399 0.13173 0.78017 0.0
H2713 H 0.29735 0.1601 0.78236 0.0
H2714 H 0.32756 0.15719 0.79496 0.0
H2715 H 0.38469 0.21908 0.7484 0.0
H2716 H 0.35547 0.25276 0.75764 0.0
H2717 H 0.29575 0.20161 0.76241 0.0
C2718 C 0.36214 0.12651 0.75398 0.0
C2719 C 0.38771 0.12217 0.75401 0.0
C2720 C 0.404 0.14162 0.74971 0.0
C2721 C 0.39507 0.16535 0.74673 0.0
C2722 C 0.3698 0.1693 0.74792 0.0
C2723 C 0.35348 0.15044 0.75108 0.0
C2724 C 0.32737 0.16 0.7544 0.0
C2725 C 0.31161 0.15242 0.73277 0.0
C2726 C 0.31592 0.15177 0.77946 0.0
C2727 C 0.33179 0.18705 0.75376 0.0
C2728 C 0.35636 0.19203 0.74974 0.0
C2729 C 0.36529 0.21553 0.7509 0.0
C2730 C 0.34863 0.2345 0.75633 0.0
C2731 C 0.3234 0.22977 0.76044 0.0
C2732 C 0.31489 0.20579 0.75879 0.0
H2733 H 0.19456 0.95299 0.26776 0.0
H2734 H 0.249 0.99296 0.30656 0.0
H2735 H 0.28094 0.96277 0.29369 0.0
H2736 H 0.21187 0.89737 0.28483 0.0
H2737 H 0.20666 0.88249 0.25598 0.0
H2738 H 0.1899 0.90979 0.26355 0.0
H2739 H 0.20559 0.92988 0.22251 0.0
H2740 H 0.22253 0.90246 0.21484 0.0
H2741 H 0.23814 0.931 0.21561 0.0
H2742 H 0.30349 0.92373 0.28565 0.0
H2743 H 0.31522 0.88048 0.28122 0.0
H2744 H 0.24713 0.8678 0.24421 0.0
C2745 C 0.21338 0.95569 0.27289 0.0
C2746 C 0.2195 0.97499 0.28818 0.0
C2747 C 0.24416 0.9782 0.2947 0.0
C2748 C 0.26236 0.96125 0.28738 0.0
C2749 C 0.25559 0.94179 0.27293 0.0
C2750 C 0.23175 0.9393 0.26527 0.0
C2751 C 0.22846 0.91559 0.25218 0.0
C2752 C 0.20805 0.90043 0.26492 0.0
C2753 C 0.22339 0.92001 0.22465 0.0
C2754 C 0.25359 0.9042 0.25549 0.0
C2755 C 0.26918 0.91971 0.26709 0.0
C2756 C 0.29185 0.91172 0.27574 0.0
C2757 C 0.29833 0.88712 0.27322 0.0
C2758 C 0.28218 0.87094 0.26211 0.0
C2759 C 0.26014 0.8799 0.25215 0.0
H2760 H 0.53045 0.37846 0.4105 0.0
H2761 H 0.52657 0.33164 0.47566 0.0
H2762 H 0.53054 0.36716 0.50221 0.0
H2763 H 0.57404 0.42104 0.43312 0.0
H2764 H 0.55947 0.44783 0.42035 0.0
H2765 H 0.55619 0.41893 0.40568 0.0
H2766 H 0.50891 0.42357 0.40923 0.0
H2767 H 0.51207 0.45258 0.42374 0.0
H2768 H 0.49437 0.42915 0.43906 0.0
H2769 H 0.53756 0.40694 0.52227 0.0
H2770 H 0.54222 0.44892 0.53524 0.0
H2771 H 0.53867 0.47348 0.45867 0.0
C2772 C 0.53022 0.37572 0.43037 0.0
C2773 C 0.52822 0.35176 0.44076 0.0
C2774 C 0.52799 0.34938 0.46695 0.0
C2775 C 0.53036 0.36961 0.48232 0.0
C2776 C 0.53262 0.39269 0.4716 0.0
C2777 C 0.53212 0.39606 0.44626 0.0
C2778 C 0.53423 0.42326 0.43998 0.0
C2779 C 0.55736 0.42804 0.42382 0.0
C2780 C 0.51101 0.4327 0.42724 0.0
C2781 C 0.53636 0.43446 0.46569 0.0
C2782 C 0.5356 0.41622 0.48348 0.0
C2783 C 0.53793 0.42134 0.50846 0.0
C2784 C 0.54074 0.44554 0.51566 0.0
C2785 C 0.54094 0.46513 0.49824 0.0
C2786 C 0.53869 0.45926 0.47268 0.0
H2787 H 0.42539 0.80464 0.14161 0.0
H2788 H 0.46408 0.74752 0.18128 0.0
H2789 H 0.42592 0.73744 0.20433 0.0
H2790 H 0.39535 0.82746 0.1895 0.0
H2791 H 0.3664 0.83465 0.17556 0.0
H2792 H 0.39393 0.83283 0.15658 0.0
H2793 H 0.37453 0.80058 0.12913 0.0
H2794 H 0.34656 0.80261 0.14776 0.0
H2795 H 0.36174 0.77362 0.14325 0.0
H2796 H 0.38872 0.74089 0.23026 0.0
H2797 H 0.35269 0.75514 0.25508 0.0
H2798 H 0.33631 0.80918 0.19874 0.0
C2799 C 0.42544 0.7892 0.15422 0.0
C2800 C 0.44754 0.77676 0.15965 0.0
C2801 C 0.44725 0.7572 0.17684 0.0
C2802 C 0.42563 0.75128 0.18994 0.0
C2803 C 0.40444 0.76492 0.18541 0.0
C2804 C 0.40394 0.78317 0.16758 0.0
C2805 C 0.37988 0.79745 0.16902 0.0
C2806 C 0.38417 0.82469 0.17291 0.0
C2807 C 0.36479 0.79331 0.14592 0.0
C2808 C 0.36791 0.78572 0.19171 0.0
C2809 C 0.3822 0.76664 0.20051 0.0
C2810 C 0.37692 0.75519 0.22312 0.0
C2811 C 0.35666 0.76355 0.23719 0.0
C2812 C 0.34193 0.78303 0.22853 0.0
C2813 C 0.34716 0.79388 0.2053 0.0
H2814 H 0.03503 0.71956 0.98025 0.0
H2815 H 0.03188 0.7062 0.90161 0.0
H2816 H 0.03486 0.66186 0.91006 0.0
H2817 H 0.08038 0.67047 0.99272 0.0
H2818 H 0.06701 0.66343 0.0228 0.0
H2819 H 0.0648 0.69389 0.01043 0.0
H2820 H 0.01751 0.69298 0.01633 0.0
H2821 H 0.01956 0.66246 0.02852 0.0
H2822 H 1.00066 0.66911 1.00237 0.0
H2823 H 0.03388 0.6178 0.92824 0.0
H2824 H 0.03545 0.57965 0.95305 0.0
H2825 H 0.04409 0.62131 0.01953 0.0
C2826 C 0.03529 0.70734 0.96473 0.0
C2827 C 0.03318 0.71669 0.94012 0.0
C2828 C 0.03367 0.69981 0.92052 0.0
C2829 C 0.03519 0.67446 0.92523 0.0
C2830 C 0.03683 0.66589 0.94969 0.0
C2831 C 0.03754 0.68195 0.96907 0.0
C2832 C 0.04022 0.66817 0.99361 0.0
C2833 C 0.06455 0.67436 0.0056 0.0
C2834 C 0.01817 0.67351 0.01125 0.0
C2835 C 0.04038 0.64183 0.98521 0.0
C2836 C 0.03804 0.64088 0.95981 0.0
C2837 C 0.03617 0.61853 0.94804 0.0
C2838 C 0.03697 0.59682 0.96235 0.0
C2839 C 0.04021 0.59717 0.9883 0.0
C2840 C 0.04202 0.6202 0.99972 0.0
H2841 H 0.1061 0.31944 0.66152 0.0
H2842 H 0.04664 0.28295 0.70144 0.0
H2843 H 0.07656 0.26292 0.72852 0.0
H2844 H 0.14826 0.27067 0.66171 0.0
H2845 H 0.17498 0.28869 0.66649 0.0
H2846 H 0.14891 0.30185 0.65122 0.0
H2847 H 0.14605 0.33628 0.68346 0.0
H2848 H 0.17237 0.3234 0.6986 0.0
H2849 H 0.14407 0.32862 0.71599 0.0
H2850 H 0.11304 0.24401 0.74903 0.0
H2851 H 0.15359 0.23111 0.76446 0.0
H2852 H 0.18914 0.28009 0.71173 0.0
C2853 C 0.09929 0.30763 0.67625 0.0
C2854 C 0.07394 0.30281 0.67923 0.0
C2855 C 0.06591 0.28703 0.69869 0.0
C2856 C 0.08278 0.27546 0.71418 0.0
C2857 C 0.10764 0.27999 0.7102 0.0
C2858 C 0.11588 0.296 0.69201 0.0
C2859 C 0.14365 0.29729 0.69138 0.0
C2860 C 0.15458 0.28913 0.6662 0.0
C2861 C 0.15202 0.32292 0.69774 0.0
C2862 C 0.14968 0.27918 0.71173 0.0
C2863 C 0.12867 0.26936 0.72232 0.0
C2864 C 0.12964 0.25173 0.74104 0.0
C2865 C 0.15273 0.24432 0.74951 0.0
C2866 C 0.17448 0.25463 0.73935 0.0
C2867 C 0.17281 0.27211 0.72006 0.0
H2868 H 0.51509 0.73504 0.10968 0.0
H2869 H 0.54852 0.7786 0.05057 0.0
H2870 H 0.55307 0.74224 0.02475 0.0
H2871 H 0.55407 0.6844 0.1025 0.0
H2872 H 0.53074 0.66222 0.10906 0.0
H2873 H 0.52773 0.69206 0.12202 0.0
H2874 H 0.48507 0.69756 0.10243 0.0
H2875 H 0.488 0.66769 0.08936 0.0
H2876 H 0.48223 0.69363 0.06958 0.0
H2877 H 0.55698 0.70103 0.00657 0.0
H2878 H 0.56047 0.6573 0.99752 0.0
H2879 H 0.52497 0.64055 0.06846 0.0
C2880 C 0.52303 0.73704 0.09118 0.0
C2881 C 0.53143 0.75972 0.08219 0.0
C2882 C 0.54198 0.76144 0.05794 0.0
C2883 C 0.54454 0.74092 0.04305 0.0
C2884 C 0.53637 0.71882 0.0526 0.0
C2885 C 0.52578 0.71673 0.07606 0.0
C2886 C 0.52 0.69057 0.08247 0.0
C2887 C 0.53398 0.68181 0.10536 0.0
C2888 C 0.49217 0.68717 0.08617 0.0
C2889 C 0.52962 0.67826 0.05919 0.0
C2890 C 0.53872 0.69492 0.04209 0.0
C2891 C 0.54972 0.68781 0.0197 0.0
C2892 C 0.55178 0.66296 0.0148 0.0
C2893 C 0.54299 0.64555 0.03226 0.0
C2894 C 0.53144 0.65342 0.05455 0.0
H2895 H 0.09837 0.77053 0.84496 0.0
H2896 H 0.11713 0.80654 0.91263 0.0
H2897 H 0.1599 0.80993 0.89729 0.0
H2898 H 0.15652 0.7356 0.83907 0.0
H2899 H 0.15843 0.738 0.80578 0.0
H2900 H 0.12886 0.73835 0.82165 0.0
H2901 H 0.11802 0.77928 0.8003 0.0
H2902 H 0.14758 0.77907 0.78441 0.0
H2903 H 0.13823 0.8046 0.80317 0.0
H2904 H 0.20034 0.81173 0.87426 0.0
H2905 H 0.23681 0.80873 0.84643 0.0
H2906 H 0.19482 0.76893 0.79385 0.0
C2907 C 0.11152 0.77904 0.85656 0.0
C2908 C 0.10405 0.78833 0.88016 0.0
C2909 C 0.12208 0.7992 0.89465 0.0
C2910 C 0.14656 0.8013 0.88602 0.0
C2911 C 0.15329 0.79214 0.86283 0.0
C2912 C 0.13647 0.7809 0.84835 0.0
C2913 C 0.14911 0.77216 0.82433 0.0
C2914 C 0.14817 0.74438 0.82261 0.0
C2915 C 0.13754 0.78452 0.80171 0.0
C2916 C 0.17545 0.78056 0.82751 0.0
C2917 C 0.17722 0.79222 0.84985 0.0
C2918 C 0.19919 0.80244 0.85683 0.0
C2919 C 0.21989 0.8007 0.84075 0.0
C2920 C 0.21901 0.78852 0.81784 0.0
C2921 C 0.19633 0.77818 0.81127 0.0
H2922 H 1.00133 0.36655 0.59673 0.0
H2923 H 0.99729 0.38445 0.67467 0.0
H2924 H 0.99832 0.42838 0.6633 0.0
H2925 H 0.04321 0.41025 0.57773 0.0
H2926 H 0.02924 0.41614 0.54838 0.0
H2927 H 0.02629 0.38684 0.56308 0.0
H2928 H 0.97881 0.39075 0.5614 0.0
H2929 H 0.98162 0.42013 0.54668 0.0
H2930 H 0.96332 0.41681 0.57482 0.0
H2931 H 1.00373 0.47025 0.64233 0.0
H2932 H 0.01188 0.50544 0.61451 0.0
H2933 H 0.01069 0.45815 0.551 0.0
C2934 C 1.0005 0.37964 0.61152 0.0
C2935 C 0.99944 0.37224 0.63658 0.0
C2936 C 0.99812 0.3899 0.65534 0.0
C2937 C 0.99866 0.41478 0.64902 0.0
C2938 C 1.00009 0.4214 0.62395 0.0
C2939 C 1.00073 0.4042 0.60558 0.0
C2940 C 1.00313 0.41544 0.58006 0.0
C2941 C 0.02688 0.40665 0.56654 0.0
C2942 C 0.98036 0.41049 0.56485 0.0
C2943 C 1.0044 0.44179 0.58677 0.0
C2944 C 1.00252 0.44505 0.6121 0.0
C2945 C 1.00483 0.46789 0.62248 0.0
C2946 C 0.00947 0.48774 0.60654 0.0
C2947 C 0.01175 0.48452 0.58057 0.0
C2948 C 0.00873 0.46129 0.5707 0.0
H2949 H 0.43028 0.27676 0.40077 0.0
H2950 H 0.48321 0.30098 0.34467 0.0
H2951 H 0.4507 0.30068 0.31345 0.0
H2952 H 0.39814 0.23575 0.3612 0.0
H2953 H 0.3684 0.24223 0.37533 0.0
H2954 H 0.39567 0.24469 0.39315 0.0
H2955 H 0.38359 0.28906 0.40375 0.0
H2956 H 0.3563 0.28672 0.38596 0.0
H2957 H 0.37782 0.31051 0.37904 0.0
H2958 H 0.41063 0.30011 0.28848 0.0
H2959 H 0.36892 0.29609 0.27198 0.0
H2960 H 0.34269 0.26905 0.34342 0.0
C2961 C 0.43516 0.282 0.38191 0.0
C2962 C 0.45964 0.28906 0.37543 0.0
C2963 C 0.46489 0.29549 0.35034 0.0
C2964 C 0.44639 0.29543 0.33243 0.0
C2965 C 0.42252 0.28853 0.33953 0.0
C2966 C 0.417 0.28164 0.3637 0.0
C2967 C 0.39008 0.27447 0.36655 0.0
C2968 C 0.38795 0.24769 0.37453 0.0
C2969 C 0.37613 0.29118 0.38491 0.0
C2970 C 0.38117 0.2785 0.34029 0.0
C2971 C 0.4001 0.28691 0.32502 0.0
C2972 C 0.39591 0.29318 0.3003 0.0
C2973 C 0.37205 0.29082 0.29102 0.0
C2974 C 0.35239 0.28176 0.30608 0.0
C2975 C 0.3573 0.27544 0.3311 0.0
H2976 H 0.42027 0.52773 0.34495 0.0
H2977 H 0.37701 0.59351 0.35558 0.0
H2978 H 0.39644 0.59961 0.39574 0.0
H2979 H 0.42417 0.51048 0.41521 0.0
H2980 H 0.455 0.49903 0.40959 0.0
H2981 H 0.43224 0.49603 0.38629 0.0
H2982 H 0.46153 0.51743 0.35473 0.0
H2983 H 0.4839 0.52151 0.37793 0.0
H2984 H 0.47208 0.54748 0.36118 0.0
H2985 H 0.42905 0.60505 0.42622 0.0
H2986 H 0.467 0.60491 0.45042 0.0
H2987 H 0.48761 0.53451 0.42121 0.0
C2988 C 0.41387 0.54253 0.35654 0.0
C2989 C 0.39717 0.56004 0.34765 0.0
C2990 C 0.38949 0.5797 0.3626 0.0
C2991 C 0.40052 0.58333 0.38531 0.0
C2992 C 0.41849 0.56668 0.3928 0.0
C2993 C 0.42439 0.54608 0.37933 0.0
C2994 C 0.44646 0.53272 0.38947 0.0
C2995 C 0.43901 0.50811 0.40083 0.0
C2996 C 0.46719 0.52964 0.36965 0.0
C2997 C 0.45342 0.55017 0.40921 0.0
C2998 C 0.43695 0.56951 0.41111 0.0
C2999 C 0.44155 0.58958 0.4256 0.0
C3000 C 0.46326 0.58959 0.43887 0.0
C3001 C 0.4799 0.56966 0.43745 0.0
C3002 C 0.4748 0.54971 0.42268 0.0
H3003 H 0.2768 0.74835 0.06359 0.0
H3004 H 0.29094 0.67337 0.08565 0.0
H3005 H 0.27539 0.68248 0.12787 0.0
H3006 H 0.29426 0.77509 0.12128 0.0
H3007 H 0.27081 0.7985 0.11977 0.0
H3008 H 0.28386 0.78591 0.09168 0.0
H3009 H 0.24006 0.77537 0.07806 0.0
H3010 H 0.22695 0.78729 0.10647 0.0
H3011 H 0.22096 0.75651 0.09788 0.0
H3012 H 0.25734 0.69937 0.16718 0.0
H3013 H 0.24314 0.72444 0.2026 0.0
H3014 H 0.24019 0.7879 0.1546 0.0
C3015 C 0.27696 0.73385 0.07731 0.0
C3016 C 0.28504 0.71011 0.07123 0.0
C3017 C 0.28493 0.69173 0.08984 0.0
C3018 C 0.27592 0.69666 0.11382 0.0
C3019 C 0.26718 0.72002 0.11885 0.0
C3020 C 0.26803 0.73842 0.10127 0.0
C3021 C 0.25795 0.76208 0.11155 0.0
C3022 C 0.27791 0.78153 0.11105 0.0
C3023 C 0.23512 0.77082 0.09766 0.0
C3024 C 0.25125 0.75412 0.13771 0.0
C3025 C 0.25656 0.72973 0.14147 0.0
C3026 C 0.253 0.71843 0.16444 0.0
C3027 C 0.2448 0.7327 0.18434 0.0
C3028 C 0.24031 0.7579 0.18109 0.0
C3029 C 0.24283 0.76855 0.15733 0.0
H3030 H 0.11705 0.48518 0.86469 0.0
H3031 H 0.1889 0.51308 0.87929 0.0
H3032 H 0.17866 0.51229 0.92445 0.0
H3033 H 0.08479 0.51969 0.90403 0.0
H3034 H 0.06267 0.49737 0.91396 0.0
H3035 H 0.07776 0.49487 0.88416 0.0
H3036 H 0.09326 0.45144 0.89537 0.0
H3037 H 0.07795 0.45372 0.92531 0.0
H3038 H 0.11033 0.44643 0.92312 0.0
H3039 H 0.15689 0.51672 0.96611 0.0
H3040 H 0.12674 0.52431 1.00034 0.0
H3041 H 0.07 0.4916 0.95771 0.0
C3042 C 0.13089 0.49032 0.87755 0.0
C3043 C 0.15365 0.49916 0.86896 0.0
C3044 C 0.17143 0.50602 0.88589 0.0
C3045 C 0.16575 0.50557 0.91143 0.0
C3046 C 0.14256 0.4976 0.91937 0.0
C3047 C 0.12563 0.48961 0.90284 0.0
C3048 C 0.10107 0.48462 0.91529 0.0
C3049 C 0.08039 0.50007 0.90368 0.0
C3050 C 0.09533 0.45743 0.91474 0.0
C3051 C 0.10618 0.4926 0.94116 0.0
C3052 C 0.13028 0.49963 0.9434 0.0
C3053 C 0.13821 0.51058 0.9648 0.0
C3054 C 0.12094 0.51491 0.98409 0.0
C3055 C 0.09607 0.50844 0.98164 0.0
C3056 C 0.08894 0.49644 0.96025 0.0
H3057 H 0.2892 0.3322 0.58984 0.0
H3058 H 0.27911 0.40836 0.6073 0.0
H3059 H 0.27541 0.39753 0.65186 0.0
H3060 H 0.2448 0.31001 0.63727 0.0
H3061 H 0.26252 0.28289 0.64387 0.0
H3062 H 0.26424 0.29658 0.61341 0.0
H3063 H 0.31147 0.29911 0.61629 0.0
H3064 H 0.30987 0.28555 0.64679 0.0
H3065 H 0.32436 0.31446 0.64201 0.0
H3066 H 0.27627 0.37844 0.69538 0.0
H3067 H 0.27703 0.35276 0.73326 0.0
H3068 H 0.28257 0.28829 0.68828 0.0
C3069 C 0.28604 0.34664 0.603 0.0
C3070 C 0.28457 0.3713 0.59475 0.0
C3071 C 0.28024 0.38942 0.61283 0.0
C3072 C 0.27821 0.3834 0.63831 0.0
C3073 C 0.28004 0.35902 0.64576 0.0
C3074 C 0.28339 0.34087 0.62856 0.0
C3075 C 0.28413 0.31602 0.64146 0.0
C3076 C 0.26265 0.30046 0.63353 0.0
C3077 C 0.30893 0.30302 0.63632 0.0
C3078 C 0.28117 0.32299 0.66864 0.0
C3079 C 0.2791 0.34796 0.67067 0.0
C3080 C 0.27756 0.3589 0.69385 0.0
C3081 C 0.27809 0.34412 0.71535 0.0
C3082 C 0.27964 0.31845 0.71393 0.0
C3083 C 0.28101 0.3078 0.69009 0.0
H3084 H 0.46762 0.52638 0.22529 0.0
H3085 H 0.43463 0.59838 0.22048 0.0
H3086 H 0.4557 0.60493 0.17974 0.0
H3087 H 0.52639 0.53909 0.19257 0.0
H3088 H 0.52666 0.51047 0.17679 0.0
H3089 H 0.51222 0.51301 0.2071 0.0
H3090 H 0.47164 0.4969 0.19005 0.0
H3091 H 0.48594 0.4943 0.15978 0.0
H3092 H 0.45806 0.51207 0.1639 0.0
H3093 H 0.47868 0.60265 0.13894 0.0
H3094 H 0.49751 0.59002 0.09883 0.0
H3095 H 0.51217 0.51824 0.12947 0.0
C3096 C 0.46534 0.54371 0.21587 0.0
C3097 C 0.44996 0.56206 0.22593 0.0
C3098 C 0.44657 0.58423 0.21291 0.0
C3099 C 0.45856 0.58814 0.18996 0.0
C3100 C 0.4735 0.56954 0.18036 0.0
C3101 C 0.47665 0.54765 0.19277 0.0
C3102 C 0.49105 0.5295 0.17722 0.0
C3103 C 0.51554 0.52263 0.18913 0.0
C3104 C 0.47575 0.50687 0.17245 0.0
C3105 C 0.49509 0.54442 0.1539 0.0
C3106 C 0.48542 0.56767 0.15628 0.0
C3107 C 0.48644 0.58456 0.13688 0.0
C3108 C 0.49718 0.57726 0.11427 0.0
C3109 C 0.50612 0.55319 0.11129 0.0
C3110 C 0.50539 0.53674 0.13141 0.0
H3111 H 0.31036 0.72171 0.95097 0.0
H3112 H 0.31293 0.64663 0.92754 0.0
H3113 H 0.31694 0.66031 0.88392 0.0
H3114 H 0.27359 0.74378 0.9037 0.0
H3115 H 0.28879 0.77248 0.90032 0.0
H3116 H 0.28868 0.75663 0.92961 0.0
H3117 H 0.3363 0.75763 0.92934 0.0
H3118 H 0.33653 0.77333 0.89986 0.0
H3119 H 0.35371 0.74531 0.90341 0.0
H3120 H 0.31664 0.68194 0.84328 0.0
H3121 H 0.31049 0.71009 0.80807 0.0
H3122 H 0.30917 0.77105 0.85816 0.0
C3123 C 0.31205 0.70814 0.93668 0.0
C3124 C 0.31138 0.68315 0.9425 0.0
C3125 C 0.31343 0.6659 0.92337 0.0
C3126 C 0.31588 0.67348 0.89861 0.0
C3127 C 0.31644 0.6983 0.89348 0.0
C3128 C 0.31458 0.71537 0.91196 0.0
C3129 C 0.31386 0.74092 0.90147 0.0
C3130 C 0.2898 0.75421 0.90923 0.0
C3131 C 0.33645 0.75513 0.90897 0.0
C3132 C 0.31482 0.73553 0.87413 0.0
C3133 C 0.31661 0.71085 0.86992 0.0
C3134 C 0.31568 0.70132 0.84627 0.0
C3135 C 0.31215 0.71742 0.82643 0.0
C3136 C 0.30959 0.74269 0.83049 0.0
C3137 C 0.31164 0.75186 0.85452 0.0
H3138 H 0.1223 0.52149 0.73093 0.0
H3139 H 0.07863 0.57037 0.7777 0.0
H3140 H 0.05779 0.58642 0.74113 0.0
H3141 H 0.13117 0.56231 0.6805 0.0
H3142 H 0.12838 0.5398 0.65689 0.0
H3143 H 0.13935 0.53105 0.68688 0.0
H3144 H 0.10502 0.49919 0.69174 0.0
H3145 H 0.0941 0.50768 0.66164 0.0
H3146 H 0.07343 0.50859 0.68828 0.0
H3147 H 0.04322 0.59897 0.69961 0.0
H3148 H 0.03343 0.60468 0.65557 0.0
H3149 H 0.08615 0.54775 0.63578 0.0
C3150 C 0.10815 0.53534 0.73355 0.0
C3151 C 0.10221 0.54464 0.75726 0.0
C3152 C 0.08359 0.56286 0.75979 0.0
C3153 C 0.07163 0.57219 0.73911 0.0
C3154 C 0.07831 0.56303 0.71602 0.0
C3155 C 0.09589 0.54482 0.71309 0.0
C3156 C 0.09968 0.53835 0.68611 0.0
C3157 C 0.12622 0.54318 0.67707 0.0
C3158 C 0.09263 0.51188 0.68169 0.0
C3159 C 0.0817 0.55598 0.6744 0.0
C3160 C 0.06962 0.57009 0.69198 0.0
C3161 C 0.05244 0.58796 0.68563 0.0
C3162 C 0.04716 0.59122 0.66059 0.0
C3163 C 0.05897 0.57662 0.64231 0.0
C3164 C 0.07659 0.55894 0.64939 0.0
H3165 H 0.2863 0.34933 0.46644 0.0
H3166 H 0.27985 0.42406 0.44075 0.0
H3167 H 0.27585 0.41005 0.39806 0.0
H3168 H 0.32191 0.32726 0.41171 0.0
H3169 H 0.30693 0.29838 0.41133 0.0
H3170 H 0.30996 0.31399 0.44016 0.0
H3171 H 0.26292 0.31217 0.44792 0.0
H3172 H 0.25976 0.29671 0.41903 0.0
H3173 H 0.24267 0.32444 0.42491 0.0
H3174 H 0.27149 0.38836 0.35752 0.0
H3175 H 0.26863 0.36054 0.32235 0.0
H3176 H 0.27804 0.29897 0.37219 0.0
C3177 C 0.28427 0.36276 0.45181 0.0
C3178 C 0.28344 0.38803 0.45742 0.0
C3179 C 0.28058 0.40472 0.43741 0.0
C3180 C 0.27824 0.3969 0.41288 0.0
C3181 C 0.27879 0.37209 0.40803 0.0
C3182 C 0.28191 0.35517 0.42686 0.0
C3183 C 0.2818 0.32953 0.41621 0.0
C3184 C 0.30662 0.31652 0.42009 0.0
C3185 C 0.26052 0.31484 0.42771 0.0
C3186 C 0.27786 0.33474 0.38867 0.0
C3187 C 0.27626 0.35949 0.38447 0.0
C3188 C 0.2728 0.36896 0.36068 0.0
C3189 C 0.27123 0.35292 0.34067 0.0
C3190 C 0.27308 0.3274 0.3441 0.0
C3191 C 0.27626 0.3183 0.3687 0.0
H3192 H 0.3863 0.4134 0.53607 0.0
H3193 H 0.33369 0.46801 0.51176 0.0
H3194 H 0.3659 0.49905 0.51252 0.0
H3195 H 0.41713 0.45257 0.57872 0.0
H3196 H 0.44723 0.43961 0.57238 0.0
H3197 H 0.42035 0.42141 0.56924 0.0
H3198 H 0.43372 0.41188 0.52402 0.0
H3199 H 0.46065 0.43002 0.52704 0.0
H3200 H 0.43968 0.43653 0.50253 0.0
H3201 H 0.40509 0.52419 0.51352 0.0
H3202 H 0.44632 0.54155 0.51821 0.0
H3203 H 0.47315 0.4721 0.5457 0.0
C3204 C 0.38153 0.43188 0.53085 0.0
C3205 C 0.35719 0.43803 0.52367 0.0
C3206 C 0.35195 0.46262 0.51733 0.0
C3207 C 0.37025 0.48046 0.51766 0.0
C3208 C 0.39393 0.47381 0.52479 0.0
C3209 C 0.39955 0.45014 0.53159 0.0
C3210 C 0.42629 0.448 0.53927 0.0
C3211 C 0.42784 0.43992 0.56652 0.0
C3212 C 0.44095 0.43057 0.5222 0.0
C3213 C 0.43488 0.47407 0.53561 0.0
C3214 C 0.41598 0.4886 0.5269 0.0
C3215 C 0.41982 0.513 0.52074 0.0
C3216 C 0.44337 0.52277 0.5235 0.0
C3217 C 0.46299 0.50852 0.53293 0.0
C3218 C 0.45845 0.48378 0.53915 0.0
H3219 H 0.86074 0.09566 0.5068 0.0
H3220 H 0.87959 0.17186 0.50808 0.0
H3221 H 0.92334 0.16035 0.51235 0.0
H3222 H 0.90561 0.07415 0.55088 0.0
H3223 H 0.91148 0.04638 0.53432 0.0
H3224 H 0.88174 0.06105 0.53317 0.0
H3225 H 0.88552 0.06188 0.48518 0.0
H3226 H 0.91554 0.04778 0.48622 0.0
H3227 H 0.91147 0.07637 0.47015 0.0
H3228 H 0.96517 0.14027 0.51457 0.0
H3229 H 1.00141 0.11305 0.51873 0.0
H3230 H 0.95432 0.05052 0.51432 0.0
C3231 C 0.87397 0.10995 0.50847 0.0
C3232 C 0.86687 0.13461 0.50719 0.0
C3233 C 0.88473 0.15281 0.50915 0.0
C3234 C 0.90959 0.14647 0.51142 0.0
C3235 C 0.91608 0.12193 0.51165 0.0
C3236 C 0.89874 0.10398 0.51054 0.0
C3237 C 0.91042 0.07897 0.51066 0.0
C3238 C 0.90181 0.06428 0.53363 0.0
C3239 C 0.90544 0.06547 0.48662 0.0
C3240 C 0.93707 0.08563 0.512 0.0
C3241 C 0.94005 0.11046 0.51248 0.0
C3242 C 0.96309 0.12078 0.51421 0.0
C3243 C 0.98355 0.1052 0.51637 0.0
C3244 C 0.98062 0.0797 0.51678 0.0
C3245 C 0.95716 0.06993 0.51392 0.0
H3246 H 0.64675 0.10639 0.28541 0.0
H3247 H 0.69822 0.07376 0.33619 0.0
H3248 H 0.72633 0.10811 0.32876 0.0
H3249 H 0.69005 0.12142 0.24151 0.0
H3250 H 0.676 0.14956 0.23141 0.0
H3251 H 0.65726 0.12595 0.24475 0.0
H3252 H 0.63963 0.15537 0.2781 0.0
H3253 H 0.65777 0.17936 0.26441 0.0
H3254 H 0.66036 0.17187 0.2968 0.0
H3255 H 0.75041 0.14351 0.31253 0.0
H3256 H 0.7688 0.17769 0.28865 0.0
H3257 H 0.70326 0.1846 0.24552 0.0
C3258 C 0.66339 0.10715 0.29586 0.0
C3259 C 0.67014 0.08797 0.31192 0.0
C3260 C 0.69263 0.08871 0.32428 0.0
C3261 C 0.70867 0.10804 0.32009 0.0
C3262 C 0.70201 0.12616 0.3032 0.0
C3263 C 0.67985 0.12593 0.29134 0.0
C3264 C 0.67844 0.1457 0.27169 0.0
C3265 C 0.67525 0.13501 0.24582 0.0
C3266 C 0.65783 0.16417 0.27814 0.0
C3267 C 0.70348 0.1567 0.27391 0.0
C3268 C 0.7166 0.14549 0.29251 0.0
C3269 C 0.74027 0.15247 0.298 0.0
C3270 C 0.7506 0.1717 0.28434 0.0
C3271 C 0.73746 0.1833 0.2652 0.0
C3272 C 0.71373 0.17559 0.25979 0.0
H3273 H 0.71884 0.96893 0.03957 0.0
H3274 H 0.69953 0.89954 0.00907 0.0
H3275 H 0.65669 0.91366 0.00591 0.0
H3276 H 0.66118 0.97721 0.07623 0.0
H3277 H 0.65927 0.00953 0.07083 0.0
H3278 H 0.68883 0.9943 0.07107 0.0
H3279 H 0.69909 0.0116 0.02733 0.0
H3280 H 0.66955 0.02682 0.02695 0.0
H3281 H 0.67853 0.00627 1.0025 0.0
H3282 H 0.6163 0.93524 0.00379 0.0
H3283 H 0.57983 0.96207 0.00552 0.0
H3284 H 0.62236 0.01797 0.03942 0.0
C3285 C 0.70555 0.95668 0.03238 0.0
C3286 C 0.7129 0.93296 0.02455 0.0
C3287 C 0.6947 0.91766 0.01528 0.0
C3288 C 0.67017 0.92557 0.01333 0.0
C3289 C 0.66358 0.94891 0.02096 0.0
C3290 C 0.68058 0.96425 0.03058 0.0
C3291 C 0.66808 0.9884 0.03762 0.0
C3292 C 0.66943 0.9926 0.06561 0.0
C3293 C 0.6795 0.00952 0.02271 0.0
C3294 C 0.64161 0.98423 0.03016 0.0
C3295 C 0.63968 0.96129 0.02046 0.0
C3296 C 0.61758 0.95318 0.01151 0.0
C3297 C 0.59687 0.96871 0.01251 0.0
C3298 C 0.59789 0.9923 0.02261 0.0
C3299 C 0.62075 1.00006 0.0317 0.0
H3300 H 0.37081 0.4911 0.2473 0.0
H3301 H 0.37176 0.4838 0.32726 0.0
H3302 H 0.34417 0.44877 0.32558 0.0
H3303 H 0.30724 0.4708 0.23853 0.0
H3304 H 0.3156 0.45388 0.21114 0.0
H3305 H 0.33236 0.48063 0.21859 0.0
H3306 H 0.37313 0.45564 0.21728 0.0
H3307 H 0.35655 0.42893 0.20969 0.0
H3308 H 0.3758 0.42862 0.23626 0.0
H3309 H 0.31887 0.41439 0.31562 0.0
H3310 H 0.30167 0.37795 0.29791 0.0
H3311 H 0.31935 0.40464 0.22377 0.0
C3312 C 0.36479 0.48225 0.26439 0.0
C3313 C 0.37297 0.48998 0.28745 0.0
C3314 C 0.3655 0.4779 0.3095 0.0
C3315 C 0.3497 0.45826 0.30872 0.0
C3316 C 0.34195 0.45094 0.2857 0.0
C3317 C 0.3495 0.46221 0.26387 0.0
C3318 C 0.34094 0.44872 0.24153 0.0
C3319 C 0.32296 0.46445 0.22657 0.0
C3320 C 0.36292 0.43996 0.22524 0.0
C3321 C 0.32799 0.42772 0.25427 0.0
C3322 C 0.32827 0.42988 0.27974 0.0
C3323 C 0.3185 0.41245 0.29573 0.0
C3324 C 0.30894 0.39174 0.28547 0.0
C3325 C 0.30962 0.38839 0.2595 0.0
C3326 C 0.31855 0.40694 0.24365 0.0
H3327 H 0.23404 0.62784 0.99798 0.0
H3328 H 0.20646 0.70074 0.01259 0.0
H3329 H 0.16878 0.68382 0.03198 0.0
H3330 H 0.17285 0.60187 0.98478 0.0
H3331 H 0.18104 0.57318 0.99894 0.0
H3332 H 0.20439 0.59136 0.98386 0.0
H3333 H 0.2289 0.59018 0.02427 0.0
H3334 H 0.20532 0.57267 0.03972 0.0
H3335 H 0.21449 0.60101 0.05258 0.0
H3336 H 0.13719 0.65883 0.05522 0.0
H3337 H 0.10975 0.62729 0.07326 0.0
H3338 H 0.15684 0.57116 0.04144 0.0
C3339 C 0.21972 0.64023 0.00457 0.0
C3340 C 0.22308 0.66555 0.00376 0.0
C3341 C 0.20408 0.68126 0.01273 0.0
C3342 C 0.18273 0.67183 0.024 0.0
C3343 C 0.18054 0.64671 0.02563 0.0
C3344 C 0.19815 0.63114 0.01545 0.0
C3345 C 0.19155 0.60488 0.02 0.0
C3346 C 0.18719 0.59207 0.99543 0.0
C3347 C 0.21124 0.59141 0.03504 0.0
C3348 C 0.16792 0.60812 0.03501 0.0
C3349 C 0.16196 0.63237 0.03827 0.0
C3350 C 0.14148 0.63979 0.05251 0.0
C3351 C 0.12624 0.62188 0.06295 0.0
C3352 C 0.13155 0.59705 0.05882 0.0
C3353 C 0.1527 0.59013 0.04489 0.0
H3354 H 0.6791 0.93379 0.27881 0.0
H3355 H 0.74074 0.98049 0.29159 0.0
H3356 H 0.76774 0.94429 0.29619 0.0
H3357 H 0.69322 0.88944 0.32294 0.0
H3358 H 0.68397 0.86404 0.30493 0.0
H3359 H 0.66987 0.89345 0.30021 0.0
H3360 H 0.68226 0.89254 0.25351 0.0
H3361 H 0.69576 0.86281 0.25798 0.0
H3362 H 0.71391 0.88683 0.24436 0.0
H3363 H 0.78705 0.90307 0.30245 0.0
H3364 H 0.79875 0.85966 0.30464 0.0
H3365 H 0.72395 0.84037 0.28854 0.0
C3366 C 0.69839 0.93646 0.28204 0.0
C3367 C 0.70789 0.95989 0.28484 0.0
C3368 C 0.73317 0.96266 0.28921 0.0
C3369 C 0.74858 0.94223 0.29203 0.0
C3370 C 0.73834 0.91934 0.29028 0.0
C3371 C 0.71394 0.91635 0.28492 0.0
C3372 C 0.7073 0.88984 0.28448 0.0
C3373 C 0.68742 0.88386 0.30433 0.0
C3374 C 0.69935 0.88258 0.25854 0.0
C3375 C 0.73173 0.87835 0.29076 0.0
C3376 C 0.74938 0.89564 0.29408 0.0
C3377 C 0.77343 0.88935 0.29978 0.0
C3378 C 0.77984 0.86467 0.30116 0.0
C3379 C 0.76221 0.84668 0.29687 0.0
C3380 C 0.73774 0.85368 0.29224 0.0
H3381 H 0.84146 0.12244 0.74689 0.0
H3382 H 0.88839 0.14037 0.80746 0.0
H3383 H 0.86433 0.17787 0.81458 0.0
H3384 H 0.83446 0.18524 0.72413 0.0
H3385 H 0.8031 0.18106 0.71554 0.0
H3386 H 0.82448 0.15577 0.71489 0.0
H3387 H 0.79475 0.13159 0.74393 0.0
H3388 H 0.77363 0.1571 0.74516 0.0
H3389 H 0.78523 0.14413 0.77339 0.0
H3390 H 0.83399 0.21138 0.81742 0.0
H3391 H 0.80361 0.24406 0.81059 0.0
H3392 H 0.7772 0.20603 0.74687 0.0
C3393 C 0.84685 0.13447 0.76138 0.0
C3394 C 0.86666 0.12849 0.7767 0.0
C3395 C 0.8733 0.14465 0.79545 0.0
C3396 C 0.85963 0.16589 0.79981 0.0
C3397 C 0.83966 0.17083 0.78502 0.0
C3398 C 0.83363 0.15603 0.76576 0.0
C3399 C 0.81174 0.16621 0.75215 0.0
C3400 C 0.81888 0.17245 0.72508 0.0
C3401 C 0.79006 0.14871 0.75377 0.0
C3402 C 0.80636 0.18886 0.76703 0.0
C3403 C 0.82249 0.1909 0.7861 0.0
C3404 C 0.82133 0.21017 0.80244 0.0
C3405 C 0.80386 0.22853 0.7985 0.0
C3406 C 0.78808 0.2276 0.77815 0.0
C3407 C 0.78891 0.20715 0.76266 0.0
loop_
_geom_bond_atom_site_label_1
_geom_bond_atom_site_label_2
_geom_bond_distance
_geom_bond_site_symmetry_2
_ccdc_geom_bond_type
Co0 O1 2.216 1_455 S
Co0 O2 2.091 1_455 S
Co0 O4 2.004 . S
Co0 O10 2.021 . S
Co0 O12 2.137 . S
Co0 O13 2.244 . S
O1 Co0 2.216 1_655 S
O1 C8 1.247 . S
O2 Co0 2.091 1_655 S
O2 C8 1.261 . S
C3 O12 1.247 . S
C3 O13 1.272 . S
O4 Co0 2.004 . S
O4 C9 1.259 . S
Co5 O6 2.061 . S
Co5 O11 2.052 . S
Co5 O13 2.135 . S
O6 Co5 2.061 . S
O6 C9 1.235 . S
C7 O10 1.238 . S
C7 O11 1.241 . S
C8 O1 1.247 . S
C8 O2 1.261 . S
C9 O4 1.259 . S
C9 O6 1.235 . S
O10 Co0 2.021 . S
O10 C7 1.238 . S
O11 Co5 2.052 . S
O11 C7 1.241 . S
O12 Co0 2.137 . S
O12 C3 1.247 . S
O13 Co0 2.244 . S
O13 C3 1.272 . S
O13 Co5 2.135 . S
Co14 O15 2.216 . S
Co14 O16 2.091 . S
Co14 O18 2.004 . S
Co14 O24 2.021 . S
Co14 O26 2.137 . S
Co14 O27 2.244 . S
O15 Co14 2.216 . S
O15 C22 1.247 . S
O16 Co14 2.091 . S
O16 C22 1.261 . S
C17 O26 1.247 . S
C17 O27 1.272 . S
O18 Co14 2.004 . S
O18 C23 1.259 . S
Co19 O20 2.061 1_455 S
Co19 O25 2.052 . S
Co19 O27 2.135 . S
O20 Co19 2.061 1_655 S
O20 C23 1.235 1_655 S
C21 O24 1.238 . S
C21 O25 1.241 . S
C22 O15 1.247 . S
C22 O16 1.261 . S
C23 O18 1.259 . S
C23 O20 1.235 1_455 S
O24 Co14 2.021 . S
O24 C21 1.238 . S
O25 Co19 2.052 . S
O25 C21 1.241 . S
O26 Co14 2.137 . S
O26 C17 1.247 . S
O27 Co14 2.244 . S
O27 C17 1.272 . S
O27 Co19 2.135 . S
Co28 O29 2.216 . S
Co28 O30 2.091 . S
Co28 O32 2.004 . S
Co28 O38 2.021 . S
Co28 O40 2.137 . S
Co28 O41 2.244 . S
O29 Co28 2.216 . S
O29 C36 1.247 . S
O30 Co28 2.091 . S
O30 C36 1.261 . S
C31 O40 1.247 . S
C31 O41 1.272 . S
O32 Co28 2.004 . S
O32 C37 1.259 . S
Co33 O34 2.061 . S
Co33 O39 2.052 . S
Co33 O41 2.135 . S
O34 Co33 2.061 . S
O34 C37 1.235 . S
C35 O38 1.238 . S
C35 O39 1.241 . S
C36 O29 1.247 . S
C36 O30 1.261 . S
C37 O32 1.259 . S
C37 O34 1.235 . S
O38 Co28 2.021 . S
O38 C35 1.238 . S
O39 Co33 2.052 . S
O39 C35 1.241 . S
O40 Co28 2.137 . S
O40 C31 1.247 . S
O41 Co28 2.244 . S
O41 C31 1.272 . S
O41 Co33 2.135 . S
Co42 O43 2.216 . S
Co42 O44 2.091 . S
Co42 O46 2.004 . S
Co42 O52 2.021 . S
Co42 O54 2.137 . S
Co42 O55 2.244 . S
O43 Co42 2.216 . S
O43 C50 1.247 . S
O44 Co42 2.091 . S
O44 C50 1.261 . S
C45 O54 1.247 . S
C45 O55 1.272 . S
O46 Co42 2.004 . S
O46 C51 1.259 . S
Co47 O48 2.061 . S
Co47 O53 2.052 . S
Co47 O55 2.135 . S
O48 Co47 2.061 . S
O48 C51 1.235 . S
C49 O52 1.238 . S
C49 O53 1.241 . S
C50 O43 1.247 . S
C50 O44 1.261 . S
C51 O46 1.259 . S
C51 O48 1.235 . S
O52 Co42 2.021 . S
O52 C49 1.238 . S
O53 Co47 2.052 . S
O53 C49 1.241 . S
O54 Co42 2.137 . S
O54 C45 1.247 . S
O55 Co42 2.244 . S
O55 C45 1.272 . S
O55 Co47 2.135 . S
Co56 O57 2.216 1_545 S
Co56 O58 2.091 1_545 S
Co56 O60 2.004 . S
Co56 O66 2.021 . S
Co56 O68 2.137 1_545 S
Co56 O69 2.244 . S
O57 Co56 2.216 1_565 S
O57 C64 1.247 . S
O58 Co56 2.091 1_565 S
O58 C64 1.261 . S
C59 O68 1.247 1_545 S
C59 O69 1.272 . S
O60 Co56 2.004 . S
O60 C65 1.259 . S
Co61 O62 2.061 . S
Co61 O67 2.052 . S
Co61 O69 2.135 . S
O62 Co61 2.061 . S
O62 C65 1.235 . S
C63 O66 1.238 . S
C63 O67 1.241 . S
C64 O57 1.247 . S
C64 O58 1.261 . S
C65 O60 1.259 . S
C65 O62 1.235 . S
O66 Co56 2.021 . S
O66 C63 1.238 . S
O67 Co61 2.052 . S
O67 C63 1.241 . S
O68 Co56 2.137 1_565 S
O68 C59 1.247 1_565 S
O69 Co56 2.244 . S
O69 C59 1.272 . S
O69 Co61 2.135 . S
Co70 O71 2.216 . S
Co70 O72 2.091 . S
Co70 O74 2.004 . S
Co70 O80 2.021 . S
Co70 O82 2.137 . S
Co70 O83 2.244 . S
O71 Co70 2.216 . S
O71 C78 1.247 . S
O72 Co70 2.091 . S
O72 C78 1.261 . S
C73 O82 1.247 . S
C73 O83 1.272 . S
O74 Co70 2.004 . S
O74 C79 1.259 . S
Co75 O76 2.061 . S
Co75 O81 2.052 . S
Co75 O83 2.135 . S
O76 Co75 2.061 . S
O76 C79 1.235 . S
C77 O80 1.238 . S
C77 O81 1.241 . S
C78 O71 1.247 . S
C78 O72 1.261 . S
C79 O74 1.259 . S
C79 O76 1.235 . S
O80 Co70 2.021 . S
O80 C77 1.238 . S
O81 Co75 2.052 . S
O81 C77 1.241 . S
O82 Co70 2.137 . S
O82 C73 1.247 . S
O83 Co70 2.244 . S
O83 C73 1.272 . S
O83 Co75 2.135 . S
Co84 O85 2.216 . S
Co84 O86 2.091 . S
Co84 O88 2.004 . S
Co84 O94 2.021 . S
Co84 O96 2.137 . S
Co84 O97 2.244 . S
O85 Co84 2.216 . S
O85 C92 1.247 . S
O86 Co84 2.091 . S
O86 C92 1.261 . S
C87 O96 1.247 . S
C87 O97 1.272 . S
O88 Co84 2.004 . S
O88 C93 1.259 . S
Co89 O90 2.061 . S
Co89 O95 2.052 . S
Co89 O97 2.135 . S
O90 Co89 2.061 . S
O90 C93 1.235 . S
C91 O94 1.238 . S
C91 O95 1.241 . S
C92 O85 1.247 . S
C92 O86 1.261 . S
C93 O88 1.259 . S
C93 O90 1.235 . S
O94 Co84 2.021 . S
O94 C91 1.238 . S
O95 Co89 2.052 . S
O95 C91 1.241 . S
O96 Co84 2.137 . S
O96 C87 1.247 . S
O97 Co84 2.244 . S
O97 C87 1.272 . S
O97 Co89 2.135 . S
Co98 O99 2.216 . S
Co98 O100 2.091 . S
Co98 O102 2.004 . S
Co98 O108 2.021 . S
Co98 O110 2.137 1_554 S
Co98 O111 2.244 . S
O99 Co98 2.216 . S
O99 C106 1.247 . S
O100 Co98 2.091 . S
O100 C106 1.261 . S
C101 O110 1.247 . S
C101 O111 1.272 1_556 S
O102 Co98 2.004 . S
O102 C107 1.259 . S
Co103 O104 2.061 . S
Co103 O109 2.052 . S
Co103 O111 2.135 . S
O104 Co103 2.061 . S
O104 C107 1.235 . S
C105 O108 1.238 . S
C105 O109 1.241 . S
C106 O99 1.247 . S
C106 O100 1.261 . S
C107 O102 1.259 . S
C107 O104 1.235 . S
O108 Co98 2.021 . S
O108 C105 1.238 . S
O109 Co103 2.052 . S
O109 C105 1.241 . S
O110 Co98 2.137 1_556 S
O110 C101 1.247 . S
O111 Co98 2.244 . S
O111 C101 1.272 1_554 S
O111 Co103 2.135 . S
Co112 O113 2.216 . S
Co112 O114 2.091 . S
Co112 O116 2.004 . S
Co112 O122 2.021 . S
Co112 O124 2.137 . S
Co112 O125 2.244 . S
O113 Co112 2.216 . S
O113 C120 1.247 . S
O114 Co112 2.091 . S
O114 C120 1.261 . S
C115 O124 1.247 . S
C115 O125 1.272 . S
O116 Co112 2.004 . S
O116 C121 1.259 . S
Co117 O118 2.061 . S
Co117 O123 2.052 . S
Co117 O125 2.135 . S
O118 Co117 2.061 . S
O118 C121 1.235 . S
C119 O122 1.238 . S
C119 O123 1.241 . S
C120 O113 1.247 . S
C120 O114 1.261 . S
C121 O116 1.259 . S
C121 O118 1.235 . S
O122 Co112 2.021 . S
O122 C119 1.238 . S
O123 Co117 2.052 . S
O123 C119 1.241 . S
O124 Co112 2.137 . S
O124 C115 1.247 . S
O125 Co112 2.244 . S
O125 C115 1.272 . S
O125 Co117 2.135 . S
Co126 O127 2.216 . S
Co126 O128 2.091 . S
Co126 O130 2.004 . S
Co126 O136 2.021 . S
Co126 O138 2.137 . S
Co126 O139 2.244 . S
O127 Co126 2.216 . S
O127 C134 1.247 . S
O128 Co126 2.091 . S
O128 C134 1.261 . S
C129 O138 1.247 . S
C129 O139 1.272 . S
O130 Co126 2.004 . S
O130 C135 1.259 . S
Co131 O132 2.061 . S
Co131 O137 2.052 . S
Co131 O139 2.135 . S
O132 Co131 2.061 . S
O132 C135 1.235 . S
C133 O136 1.238 . S
C133 O137 1.241 . S
C134 O127 1.247 . S
C134 O128 1.261 . S
C135 O130 1.259 . S
C135 O132 1.235 . S
O136 Co126 2.021 . S
O136 C133 1.238 . S
O137 Co131 2.052 . S
O137 C133 1.241 . S
O138 Co126 2.137 . S
O138 C129 1.247 . S
O139 Co126 2.244 . S
O139 C129 1.272 . S
O139 Co131 2.135 . S
Co140 O141 2.216 . S
Co140 O142 2.091 . S
Co140 O144 2.004 . S
Co140 O150 2.021 . S
Co140 O152 2.137 . S
Co140 O153 2.244 . S
O141 Co140 2.216 . S
O141 C148 1.247 . S
O142 Co140 2.091 . S
O142 C148 1.261 . S
C143 O152 1.247 . S
C143 O153 1.272 . S
O144 Co140 2.004 . S
O144 C149 1.259 . S
Co145 O146 2.061 . S
Co145 O151 2.052 . S
Co145 O153 2.135 . S
O146 Co145 2.061 . S
O146 C149 1.235 . S
C147 O150 1.238 . S
C147 O151 1.241 . S
C148 O141 1.247 . S
C148 O142 1.261 . S
C149 O144 1.259 . S
C149 O146 1.235 . S
O150 Co140 2.021 . S
O150 C147 1.238 . S
O151 Co145 2.052 . S
O151 C147 1.241 . S
O152 Co140 2.137 . S
O152 C143 1.247 . S
O153 Co140 2.244 . S
O153 C143 1.272 . S
O153 Co145 2.135 . S
Co154 O155 2.216 . S
Co154 O156 2.091 . S
Co154 O158 2.004 . S
Co154 O164 2.021 . S
Co154 O166 2.137 . S
Co154 O167 2.244 . S
O155 Co154 2.216 . S
O155 C162 1.247 . S
O156 Co154 2.091 . S
O156 C162 1.261 . S
C157 O166 1.247 . S
C157 O167 1.272 . S
O158 Co154 2.004 . S
O158 C163 1.259 . S
Co159 O160 2.061 . S
Co159 O165 2.052 . S
Co159 O167 2.135 . S
O160 Co159 2.061 . S
O160 C163 1.235 . S
C161 O164 1.238 . S
C161 O165 1.241 . S
C162 O155 1.247 . S
C162 O156 1.261 . S
C163 O158 1.259 . S
C163 O160 1.235 . S
O164 Co154 2.021 . S
O164 C161 1.238 . S
O165 Co159 2.052 . S
O165 C161 1.241 . S
O166 Co154 2.137 . S
O166 C157 1.247 . S
O167 Co154 2.244 . S
O167 C157 1.272 . S
O167 Co159 2.135 . S
Co168 O169 2.216 . S
Co168 O170 2.091 . S
Co168 O172 2.004 1_455 S
Co168 O178 2.021 . S
Co168 O180 2.137 . S
Co168 O181 2.244 . S
O169 Co168 2.216 . S
O169 C176 1.247 . S
O170 Co168 2.091 . S
O170 C176 1.261 . S
C171 O180 1.247 . S
C171 O181 1.272 . S
O172 Co168 2.004 1_655 S
O172 C177 1.259 . S
Co173 O174 2.061 . S
Co173 O179 2.052 1_655 S
Co173 O181 2.135 1_655 S
O174 Co173 2.061 . S
O174 C177 1.235 . S
C175 O178 1.238 . S
C175 O179 1.241 . S
C176 O169 1.247 . S
C176 O170 1.261 . S
C177 O172 1.259 . S
C177 O174 1.235 . S
O178 Co168 2.021 . S
O178 C175 1.238 . S
O179 Co173 2.052 1_455 S
O179 C175 1.241 . S
O180 Co168 2.137 . S
O180 C171 1.247 . S
O181 Co168 2.244 . S
O181 C171 1.272 . S
O181 Co173 2.135 1_455 S
Co182 O183 2.216 . S
Co182 O184 2.091 . S
Co182 O186 2.004 1_655 S
Co182 O192 2.021 . S
Co182 O194 2.137 . S
Co182 O195 2.244 1_655 S
O183 Co182 2.216 . S
O183 C190 1.247 . S
O184 Co182 2.091 . S
O184 C190 1.261 . S
C185 O194 1.234 1_455 S
C185 O195 1.283 . S
O186 Co182 2.004 1_455 S
O186 C191 1.259 . S
Co187 O188 2.061 . S
Co187 O193 2.052 . S
Co187 O195 2.135 . S
O188 Co187 2.061 . S
O188 C191 1.235 . S
C189 O192 1.238 1_455 S
C189 O193 1.241 . S
C190 O183 1.247 . S
C190 O184 1.261 . S
C191 O186 1.259 . S
C191 O188 1.235 . S
O192 Co182 2.021 . S
O192 C189 1.238 1_655 S
O193 Co187 2.052 . S
O193 C189 1.241 . S
O194 Co182 2.137 . S
O194 C185 1.234 1_655 S
O195 Co182 2.244 1_455 S
O195 C185 1.283 . S
O195 Co187 2.135 . S
Co196 O197 2.216 . S
Co196 O198 2.091 . S
Co196 O200 2.004 . S
Co196 O206 2.021 . S
Co196 O208 2.137 . S
Co196 O209 2.244 . S
O197 Co196 2.216 . S
O197 C204 1.247 . S
O198 Co196 2.091 . S
O198 C204 1.261 . S
C199 O208 1.247 . S
C199 O209 1.272 . S
O200 Co196 2.004 . S
O200 C205 1.259 . S
Co201 O202 2.061 . S
Co201 O207 2.052 . S
Co201 O209 2.135 . S
O202 Co201 2.061 . S
O202 C205 1.235 . S
C203 O206 1.238 . S
C203 O207 1.241 . S
C204 O197 1.247 . S
C204 O198 1.261 . S
C205 O200 1.259 . S
C205 O202 1.235 . S
O206 Co196 2.021 . S
O206 C203 1.238 . S
O207 Co201 2.052 . S
O207 C203 1.241 . S
O208 Co196 2.137 . S
O208 C199 1.247 . S
O209 Co196 2.244 . S
O209 C199 1.272 . S
O209 Co201 2.135 . S
Co210 O211 2.216 . S
Co210 O212 2.091 . S
Co210 O214 2.004 . S
Co210 O220 2.021 . S
Co210 O222 2.137 . S
Co210 O223 2.244 . S
O211 Co210 2.216 . S
O211 C218 1.247 . S
O212 Co210 2.091 . S
O212 C218 1.261 . S
C213 O222 1.247 . S
C213 O223 1.272 . S
O214 Co210 2.004 . S
O214 C219 1.259 . S
Co215 O216 2.061 . S
Co215 O221 2.052 . S
Co215 O223 2.135 . S
O216 Co215 2.061 . S
O216 C219 1.235 . S
C217 O220 1.238 . S
C217 O221 1.241 . S
C218 O211 1.247 . S
C218 O212 1.261 . S
C219 O214 1.259 . S
C219 O216 1.235 . S
O220 Co210 2.021 . S
O220 C217 1.238 . S
O221 Co215 2.052 . S
O221 C217 1.241 . S
O222 Co210 2.137 . S
O222 C213 1.247 . S
O223 Co210 2.244 . S
O223 C213 1.272 . S
O223 Co215 2.135 . S
Co224 O225 2.216 . S
Co224 O226 2.091 . S
Co224 O228 2.004 . S
Co224 O234 2.021 . S
Co224 O236 2.137 . S
Co224 O237 2.244 . S
O225 Co224 2.216 . S
O225 C232 1.247 . S
O226 Co224 2.091 . S
O226 C232 1.261 . S
C227 O236 1.247 . S
C227 O237 1.272 . S
O228 Co224 2.004 . S
O228 C233 1.259 . S
Co229 O230 2.061 . S
Co229 O235 2.052 . S
Co229 O237 2.135 . S
O230 Co229 2.061 . S
O230 C233 1.235 . S
C231 O234 1.238 . S
C231 O235 1.241 . S
C232 O225 1.247 . S
C232 O226 1.261 . S
C233 O228 1.259 . S
C233 O230 1.235 . S
O234 Co224 2.021 . S
O234 C231 1.238 . S
O235 Co229 2.052 . S
O235 C231 1.241 . S
O236 Co224 2.137 . S
O236 C227 1.247 . S
O237 Co224 2.244 . S
O237 C227 1.272 . S
O237 Co229 2.135 . S
Co238 O239 2.216 . S
Co238 O240 2.091 . S
Co238 O242 2.004 . S
Co238 O248 2.021 . S
Co238 O250 2.137 . S
Co238 O251 2.244 . S
O239 Co238 2.216 . S
O239 C246 1.247 . S
O240 Co238 2.091 . S
O240 C246 1.261 . S
C241 O250 1.247 . S
C241 O251 1.272 . S
O242 Co238 2.004 . S
O242 C247 1.259 . S
Co243 O244 2.061 . S
Co243 O249 2.052 . S
Co243 O251 2.135 . S
O244 Co243 2.061 . S
O244 C247 1.235 . S
C245 O248 1.238 . S
C245 O249 1.241 . S
C246 O239 1.247 . S
C246 O240 1.261 . S
C247 O242 1.259 . S
C247 O244 1.235 . S
O248 Co238 2.021 . S
O248 C245 1.238 . S
O249 Co243 2.052 . S
O249 C245 1.241 . S
O250 Co238 2.137 . S
O250 C241 1.247 . S
O251 Co238 2.244 . S
O251 C241 1.272 . S
O251 Co243 2.135 . S
Co252 O253 2.216 1_545 S
Co252 O254 2.091 1_545 S
Co252 O256 2.004 . S
Co252 O262 2.021 . S
Co252 O264 2.137 1_545 S
Co252 O265 2.244 . S
O253 Co252 2.216 1_565 S
O253 C260 1.247 . S
O254 Co252 2.091 1_565 S
O254 C260 1.261 . S
C255 O264 1.247 1_545 S
C255 O265 1.272 . S
O256 Co252 2.004 . S
O256 C261 1.259 . S
Co257 O258 2.061 . S
Co257 O263 2.052 . S
Co257 O265 2.135 . S
O258 Co257 2.061 . S
O258 C261 1.235 . S
C259 O262 1.238 . S
C259 O263 1.241 . S
C260 O253 1.247 . S
C260 O254 1.261 . S
C261 O256 1.259 . S
C261 O258 1.235 . S
O262 Co252 2.021 . S
O262 C259 1.238 . S
O263 Co257 2.052 . S
O263 C259 1.241 . S
O264 Co252 2.137 1_565 S
O264 C255 1.247 1_565 S
O265 Co252 2.244 . S
O265 C255 1.272 . S
O265 Co257 2.135 . S
Co266 O267 2.216 . S
Co266 O268 2.091 . S
Co266 O270 2.004 . S
Co266 O276 2.021 . S
Co266 O278 2.137 1_554 S
Co266 O279 2.244 . S
O267 Co266 2.216 . S
O267 C274 1.247 . S
O268 Co266 2.091 . S
O268 C274 1.261 . S
C269 O278 1.247 . S
C269 O279 1.272 1_556 S
O270 Co266 2.004 . S
O270 C275 1.259 . S
Co271 O272 2.061 . S
Co271 O277 2.052 . S
Co271 O279 2.135 . S
O272 Co271 2.061 . S
O272 C275 1.235 . S
C273 O276 1.238 . S
C273 O277 1.241 . S
C274 O267 1.247 . S
C274 O268 1.261 . S
C275 O270 1.259 . S
C275 O272 1.235 . S
O276 Co266 2.021 . S
O276 C273 1.238 . S
O277 Co271 2.052 . S
O277 C273 1.241 . S
O278 Co266 2.137 1_556 S
O278 C269 1.247 . S
O279 Co266 2.244 . S
O279 C269 1.272 1_554 S
O279 Co271 2.135 . S
Co280 O281 2.216 . S
Co280 O282 2.090 1_556 S
Co280 O284 2.004 . S
Co280 O290 2.021 1_556 S
Co280 O292 2.137 . S
Co280 O293 2.244 . S
O281 Co280 2.216 . S
O281 C288 1.249 . S
O282 Co280 2.090 1_554 S
O282 C288 1.262 1_554 S
C283 O292 1.247 . S
C283 O293 1.272 . S
O284 Co280 2.004 . S
O284 C289 1.260 . S
Co285 O286 2.061 1_556 S
Co285 O291 2.046 1_556 S
Co285 O293 2.138 . S
O286 Co285 2.061 1_554 S
O286 C289 1.234 1_554 S
C287 O290 1.238 . S
C287 O291 1.241 . S
C288 O281 1.249 . S
C288 O282 1.262 1_556 S
C289 O284 1.260 . S
C289 O286 1.234 1_556 S
O290 Co280 2.021 1_554 S
O290 C287 1.238 . S
O291 Co285 2.046 1_554 S
O291 C287 1.241 . S
O292 Co280 2.137 . S
O292 C283 1.247 . S
O293 Co280 2.244 . S
O293 C283 1.272 . S
O293 Co285 2.138 . S
Co294 O295 2.216 . S
Co294 O296 2.091 . S
Co294 O298 2.004 . S
Co294 O304 2.021 . S
Co294 O306 2.137 . S
Co294 O307 2.244 . S
O295 Co294 2.216 . S
O295 C302 1.247 . S
O296 Co294 2.091 . S
O296 C302 1.261 . S
C297 O306 1.247 . S
C297 O307 1.272 . S
O298 Co294 2.004 . S
O298 C303 1.259 . S
Co299 O300 2.061 . S
Co299 O305 2.052 . S
Co299 O307 2.135 . S
O300 Co299 2.061 . S
O300 C303 1.235 . S
C301 O304 1.238 . S
C301 O305 1.241 . S
C302 O295 1.247 . S
C302 O296 1.261 . S
C303 O298 1.259 . S
C303 O300 1.235 . S
O304 Co294 2.021 . S
O304 C301 1.238 . S
O305 Co299 2.052 . S
O305 C301 1.241 . S
O306 Co294 2.137 . S
O306 C297 1.247 . S
O307 Co294 2.244 . S
O307 C297 1.272 . S
O307 Co299 2.135 . S
Co308 O309 2.216 . S
Co308 O310 2.091 . S
Co308 O312 2.004 . S
Co308 O318 2.021 . S
Co308 O320 2.137 . S
Co308 O321 2.244 . S
O309 Co308 2.216 . S
O309 C316 1.247 . S
O310 Co308 2.091 . S
O310 C316 1.261 . S
C311 O320 1.247 . S
C311 O321 1.272 . S
O312 Co308 2.004 . S
O312 C317 1.259 . S
Co313 O314 2.061 . S
Co313 O319 2.052 . S
Co313 O321 2.135 . S
O314 Co313 2.061 . S
O314 C317 1.235 . S
C315 O318 1.238 . S
C315 O319 1.241 . S
C316 O309 1.247 . S
C316 O310 1.261 . S
C317 O312 1.259 . S
C317 O314 1.235 . S
O318 Co308 2.021 . S
O318 C315 1.238 . S
O319 Co313 2.052 . S
O319 C315 1.241 . S
O320 Co308 2.137 . S
O320 C311 1.247 . S
O321 Co308 2.244 . S
O321 C311 1.272 . S
O321 Co313 2.135 . S
Co322 O323 2.216 . S
Co322 O324 2.091 . S
Co322 O326 2.004 . S
Co322 O332 2.021 . S
Co322 O334 2.137 . S
Co322 O335 2.244 . S
O323 Co322 2.216 . S
O323 C330 1.247 . S
O324 Co322 2.091 . S
O324 C330 1.261 . S
C325 O334 1.247 . S
C325 O335 1.272 . S
O326 Co322 2.004 . S
O326 C331 1.259 . S
Co327 O328 2.061 . S
Co327 O333 2.052 . S
Co327 O335 2.135 . S
O328 Co327 2.061 . S
O328 C331 1.235 . S
C329 O332 1.238 . S
C329 O333 1.241 . S
C330 O323 1.247 . S
C330 O324 1.261 . S
C331 O326 1.259 . S
C331 O328 1.235 . S
O332 Co322 2.021 . S
O332 C329 1.238 . S
O333 Co327 2.052 . S
O333 C329 1.241 . S
O334 Co322 2.137 . S
O334 C325 1.247 . S
O335 Co322 2.244 . S
O335 C325 1.272 . S
O335 Co327 2.135 . S
Co336 N341 2.021 1_554 S
Co336 O353 2.008 1_554 S
Co336 O356 2.075 1_455 S
Co336 O360 2.144 . S
Co336 O361 2.020 . S
C337 O357 1.259 . S
C337 O360 1.258 . S
Co338 N347 2.057 . S
Co338 O354 2.117 1_545 S
Co338 O355 2.020 1_455 S
Co338 O357 2.021 . S
Co338 O362 2.062 . S
C339 N341 1.307 1_655 S
C339 N342 1.364 . S
C339 H344 0.925 1_655 S
C340 N341 1.375 1_655 S
C340 C343 1.350 . S
C340 H345 0.930 . S
N341 Co336 2.021 1_556 S
N341 C339 1.307 1_455 S
N341 C340 1.375 1_455 S
N342 C339 1.364 . S
N342 C343 1.373 . S
C343 C340 1.350 . S
C343 N342 1.373 . S
C343 H364 0.931 . S
H344 C339 0.925 1_455 S
H345 C340 0.930 . S
C346 O353 1.259 1_564 S
C346 O354 1.258 . S
N347 Co338 2.057 . S
N347 C348 1.316 . S
N347 C349 1.375 1_545 S
C348 N347 1.316 . S
C348 N350 1.368 . S
C348 H359 0.931 . S
C349 N347 1.375 1_565 S
C349 C351 1.350 . S
C349 H358 0.930 . S
N350 C348 1.368 . S
N350 C351 1.344 1_545 S
C351 C349 1.350 . S
C351 N350 1.344 1_565 S
C351 H365 0.931 . S
C352 O355 1.256 . S
C352 O356 1.255 . S
O353 Co336 2.008 1_556 S
O353 C346 1.259 1_546 S
O354 Co338 2.117 1_565 S
O354 C346 1.258 . S
O355 Co338 2.020 1_655 S
O355 C352 1.256 . S
O356 Co336 2.075 1_655 S
O356 C352 1.255 . S
O357 C337 1.259 . S
O357 Co338 2.021 . S
H358 C349 0.930 . S
H359 C348 0.931 . S
O360 Co336 2.144 . S
O360 C337 1.258 . S
O361 Co336 2.020 . S
O361 C363 1.281 . S
O362 Co338 2.062 . S
O362 C363 1.255 . S
C363 O361 1.281 . S
C363 O362 1.255 . S
H364 C343 0.931 . S
H365 C351 0.931 . S
Co366 N371 2.057 . S
Co366 O383 2.021 . S
Co366 O386 2.062 . S
Co366 O390 2.117 . S
Co366 O391 2.020 . S
C367 O387 1.259 . S
C367 O390 1.258 . S
Co368 N377 2.057 . S
Co368 O384 2.117 . S
Co368 O385 2.020 . S
Co368 O387 2.021 . S
Co368 O392 2.062 . S
C369 N371 1.316 . S
C369 N372 1.347 . S
C369 H374 0.931 . S
C370 N371 1.375 . S
C370 C373 1.350 . S
C370 H375 0.930 . S
N371 Co366 2.057 . S
N371 C369 1.316 . S
N371 C370 1.375 . S
N372 C369 1.347 . S
N372 C373 1.373 . S
C373 C370 1.350 . S
C373 N372 1.373 . S
C373 H394 0.931 . S
H374 C369 0.931 . S
H375 C370 0.930 . S
C376 O383 1.259 . S
C376 O384 1.258 . S
N377 Co368 2.057 . S
N377 C378 1.316 . S
N377 C379 1.375 . S
C378 N377 1.316 . S
C378 N380 1.347 . S
C378 H389 0.931 . S
C379 N377 1.375 . S
C379 C381 1.350 . S
C379 H388 0.930 . S
N380 C378 1.347 . S
N380 C381 1.373 . S
C381 C379 1.350 . S
C381 N380 1.373 . S
C381 H395 0.931 . S
C382 O385 1.256 . S
C382 O386 1.255 . S
O383 Co366 2.021 . S
O383 C376 1.259 . S
O384 Co368 2.117 . S
O384 C376 1.258 . S
O385 Co368 2.020 . S
O385 C382 1.256 . S
O386 Co366 2.062 . S
O386 C382 1.255 . S
O387 C367 1.259 . S
O387 Co368 2.021 . S
H388 C379 0.930 . S
H389 C378 0.931 . S
O390 Co366 2.117 . S
O390 C367 1.258 . S
O391 Co366 2.020 . S
O391 C393 1.256 . S
O392 Co368 2.062 . S
O392 C393 1.255 . S
C393 O391 1.256 . S
C393 O392 1.255 . S
H394 C373 0.931 . S
H395 C381 0.931 . S
Co396 N401 2.057 . S
Co396 O413 2.021 1_545 S
Co396 O416 2.062 . S
Co396 O420 2.117 . S
Co396 O421 2.020 . S
C397 O417 1.259 . S
C397 O420 1.258 . S
Co398 N407 2.057 . S
Co398 O414 2.117 . S
Co398 O415 2.020 . S
Co398 O417 2.021 . S
Co398 O422 2.062 . S
C399 N401 1.316 1_565 S
C399 N402 1.347 1_565 S
C399 H404 0.931 . S
C400 N401 1.375 . S
C400 C403 1.350 . S
C400 H405 0.930 . S
N401 Co396 2.057 . S
N401 C399 1.316 1_545 S
N401 C400 1.375 . S
N402 C399 1.347 1_545 S
N402 C403 1.373 . S
C403 C400 1.350 . S
C403 N402 1.373 . S
C403 H424 0.931 . S
H404 C399 0.931 . S
H405 C400 0.930 . S
C406 O413 1.259 . S
C406 O414 1.258 1_565 S
N407 Co398 2.057 . S
N407 C408 1.316 . S
N407 C409 1.375 . S
C408 N407 1.316 . S
C408 N410 1.347 . S
C408 H419 0.931 . S
C409 N407 1.375 . S
C409 C411 1.350 . S
C409 H418 0.930 . S
N410 C408 1.347 . S
N410 C411 1.373 . S
C411 C409 1.350 . S
C411 N410 1.373 . S
C411 H425 0.931 . S
C412 O415 1.256 . S
C412 O416 1.255 . S
O413 Co396 2.021 1_565 S
O413 C406 1.259 . S
O414 Co398 2.117 . S
O414 C406 1.258 1_545 S
O415 Co398 2.020 . S
O415 C412 1.256 . S
O416 Co396 2.062 . S
O416 C412 1.255 . S
O417 C397 1.259 . S
O417 Co398 2.021 . S
H418 C409 0.930 . S
H419 C408 0.931 . S
O420 Co396 2.117 . S
O420 C397 1.258 . S
O421 Co396 2.020 . S
O421 C423 1.256 . S
O422 Co398 2.062 . S
O422 C423 1.255 . S
C423 O421 1.256 . S
C423 O422 1.255 . S
H424 C403 0.931 . S
H425 C411 0.931 . S
Co426 N431 2.057 . S
Co426 O443 2.021 . S
Co426 O446 2.062 . S
Co426 O450 2.117 . S
Co426 O451 2.020 . S
C427 O447 1.259 . S
C427 O450 1.258 . S
Co428 N437 2.057 . S
Co428 O444 2.117 . S
Co428 O445 2.020 . S
Co428 O447 2.021 . S
Co428 O452 2.062 . S
C429 N431 1.316 . S
C429 N432 1.347 . S
C429 H434 0.931 . S
C430 N431 1.375 . S
C430 C433 1.350 . S
C430 H435 0.930 . S
N431 Co426 2.057 . S
N431 C429 1.316 . S
N431 C430 1.375 . S
N432 C429 1.347 . S
N432 C433 1.373 . S
C433 C430 1.350 . S
C433 N432 1.373 . S
C433 H454 0.931 . S
H434 C429 0.931 . S
H435 C430 0.930 . S
C436 O443 1.259 . S
C436 O444 1.258 . S
N437 Co428 2.057 . S
N437 C438 1.316 . S
N437 C439 1.375 . S
C438 N437 1.316 . S
C438 N440 1.347 . S
C438 H449 0.931 . S
C439 N437 1.375 . S
C439 C441 1.350 . S
C439 H448 0.930 . S
N440 C438 1.347 . S
N440 C441 1.373 . S
C441 C439 1.350 . S
C441 N440 1.373 . S
C441 H455 0.931 . S
C442 O445 1.256 . S
C442 O446 1.255 . S
O443 Co426 2.021 . S
O443 C436 1.259 . S
O444 Co428 2.117 . S
O444 C436 1.258 . S
O445 Co428 2.020 . S
O445 C442 1.256 . S
O446 Co426 2.062 . S
O446 C442 1.255 . S
O447 C427 1.259 . S
O447 Co428 2.021 . S
H448 C439 0.930 . S
H449 C438 0.931 . S
O450 Co426 2.117 . S
O450 C427 1.258 . S
O451 Co426 2.020 . S
O451 C453 1.256 . S
O452 Co428 2.062 . S
O452 C453 1.255 . S
C453 O451 1.256 . S
C453 O452 1.255 . S
H454 C433 0.931 . S
H455 C441 0.931 . S
Co456 N461 2.057 1_545 S
Co456 O473 2.021 . S
Co456 O476 2.055 1_545 S
Co456 O480 2.117 . S
Co456 O481 2.020 1_455 S
C457 O477 1.259 . S
C457 O480 1.258 . S
Co458 N467 2.057 . S
Co458 O474 2.117 . S
Co458 O475 2.020 . S
Co458 O477 2.021 . S
Co458 O482 2.062 1_455 S
C459 N461 1.316 . S
C459 N462 1.347 . S
C459 H464 0.931 . S
C460 N461 1.375 1_655 S
C460 C463 1.350 . S
C460 H465 0.930 . S
N461 Co456 2.057 1_565 S
N461 C459 1.316 . S
N461 C460 1.375 1_455 S
N462 C459 1.347 . S
N462 C463 1.373 1_455 S
C463 C460 1.350 . S
C463 N462 1.373 1_655 S
C463 H484 0.931 . S
H464 C459 0.931 . S
H465 C460 0.930 . S
C466 O473 1.259 . S
C466 O474 1.258 . S
N467 Co458 2.057 . S
N467 C468 1.316 . S
N467 C469 1.375 . S
C468 N467 1.316 . S
C468 N470 1.347 . S
C468 H479 0.931 . S
C469 N467 1.375 . S
C469 C471 1.350 . S
C469 H478 0.930 . S
N470 C468 1.347 . S
N470 C471 1.373 . S
C471 C469 1.350 . S
C471 N470 1.373 . S
C471 H485 0.931 . S
C472 O475 1.256 . S
C472 O476 1.236 1_545 S
O473 Co456 2.021 . S
O473 C466 1.259 . S
O474 Co458 2.117 . S
O474 C466 1.258 . S
O475 Co458 2.020 . S
O475 C472 1.256 . S
O476 Co456 2.055 1_565 S
O476 C472 1.236 1_565 S
O477 C457 1.259 . S
O477 Co458 2.021 . S
H478 C469 0.930 . S
H479 C468 0.931 . S
O480 Co456 2.117 . S
O480 C457 1.258 . S
O481 Co456 2.020 1_655 S
O481 C483 1.256 . S
O482 Co458 2.062 1_655 S
O482 C483 1.255 . S
C483 O481 1.256 . S
C483 O482 1.255 . S
H484 C463 0.931 . S
H485 C471 0.931 . S
Co486 N491 2.057 . S
Co486 O503 2.021 . S
Co486 O506 2.062 . S
Co486 O510 2.117 . S
Co486 O511 2.020 . S
C487 O507 1.259 . S
C487 O510 1.258 . S
Co488 N497 2.057 . S
Co488 O504 2.117 . S
Co488 O505 2.020 . S
Co488 O507 2.021 . S
Co488 O512 2.062 . S
C489 N491 1.316 . S
C489 N492 1.347 . S
C489 H494 0.931 . S
C490 N491 1.375 . S
C490 C493 1.350 . S
C490 H495 0.930 . S
N491 Co486 2.057 . S
N491 C489 1.316 . S
N491 C490 1.375 . S
N492 C489 1.347 . S
N492 C493 1.373 . S
C493 C490 1.350 . S
C493 N492 1.373 . S
C493 H514 0.931 . S
H494 C489 0.931 . S
H495 C490 0.930 . S
C496 O503 1.259 . S
C496 O504 1.258 . S
N497 Co488 2.057 . S
N497 C498 1.316 . S
N497 C499 1.375 . S
C498 N497 1.316 . S
C498 N500 1.347 . S
C498 H509 0.931 . S
C499 N497 1.375 . S
C499 C501 1.350 . S
C499 H508 0.930 . S
N500 C498 1.347 . S
N500 C501 1.373 . S
C501 C499 1.350 . S
C501 N500 1.373 . S
C501 H515 0.931 . S
C502 O505 1.256 . S
C502 O506 1.255 . S
O503 Co486 2.021 . S
O503 C496 1.259 . S
O504 Co488 2.117 . S
O504 C496 1.258 . S
O505 Co488 2.020 . S
O505 C502 1.256 . S
O506 Co486 2.062 . S
O506 C502 1.255 . S
O507 C487 1.259 . S
O507 Co488 2.021 . S
H508 C499 0.930 . S
H509 C498 0.931 . S
O510 Co486 2.117 . S
O510 C487 1.258 . S
O511 Co486 2.020 . S
O511 C513 1.256 . S
O512 Co488 2.062 . S
O512 C513 1.255 . S
C513 O511 1.256 . S
C513 O512 1.255 . S
H514 C493 0.931 . S
H515 C501 0.931 . S
Co516 N521 2.057 1_554 S
Co516 O533 2.021 . S
Co516 O536 2.062 1_554 S
Co516 O540 2.117 . S
Co516 O541 2.020 1_545 S
C517 O537 1.259 . S
C517 O540 1.258 . S
Co518 N527 2.057 . S
Co518 O534 2.117 . S
Co518 O535 2.020 . S
Co518 O537 2.021 . S
Co518 O542 2.062 . S
C519 N521 1.316 . S
C519 N522 1.347 . S
C519 H524 0.931 . S
C520 N521 1.375 . S
C520 C523 1.350 . S
C520 H525 0.930 1_545 S
N521 Co516 2.057 1_556 S
N521 C519 1.316 . S
N521 C520 1.375 . S
N522 C519 1.347 . S
N522 C523 1.373 . S
C523 C520 1.350 . S
C523 N522 1.373 . S
C523 H544 0.931 1_545 S
H524 C519 0.931 . S
H525 C520 0.930 1_565 S
C526 O533 1.259 . S
C526 O534 1.258 . S
N527 Co518 2.057 . S
N527 C528 1.316 . S
N527 C529 1.375 . S
C528 N527 1.316 . S
C528 N530 1.347 . S
C528 H539 0.931 . S
C529 N527 1.375 . S
C529 C531 1.350 . S
C529 H538 0.930 . S
N530 C528 1.347 . S
N530 C531 1.373 . S
C531 C529 1.350 . S
C531 N530 1.373 . S
C531 H545 0.931 . S
C532 O535 1.256 . S
C532 O536 1.255 1_554 S
O533 Co516 2.021 . S
O533 C526 1.259 . S
O534 Co518 2.117 . S
O534 C526 1.258 . S
O535 Co518 2.020 . S
O535 C532 1.256 . S
O536 Co516 2.062 1_556 S
O536 C532 1.255 1_556 S
O537 C517 1.259 . S
O537 Co518 2.021 . S
H538 C529 0.930 . S
H539 C528 0.931 . S
O540 Co516 2.117 . S
O540 C517 1.258 . S
O541 Co516 2.020 1_565 S
O541 C543 1.256 . S
O542 Co518 2.062 . S
O542 C543 1.255 1_545 S
C543 O541 1.256 . S
C543 O542 1.255 1_565 S
H544 C523 0.931 1_565 S
H545 C531 0.931 . S
Co546 N551 2.057 . S
Co546 O563 2.021 . S
Co546 O566 2.062 . S
Co546 O570 2.117 . S
Co546 O571 2.020 . S
C547 O567 1.259 . S
C547 O570 1.258 . S
Co548 N557 2.057 . S
Co548 O564 2.117 . S
Co548 O565 2.020 . S
Co548 O567 2.021 . S
Co548 O572 2.062 . S
C549 N551 1.316 . S
C549 N552 1.347 . S
C549 H554 0.931 . S
C550 N551 1.375 . S
C550 C553 1.350 . S
C550 H555 0.930 . S
N551 Co546 2.057 . S
N551 C549 1.316 . S
N551 C550 1.375 . S
N552 C549 1.347 . S
N552 C553 1.373 . S
C553 C550 1.350 . S
C553 N552 1.373 . S
C553 H574 0.931 . S
H554 C549 0.931 . S
H555 C550 0.930 . S
C556 O563 1.259 . S
C556 O564 1.258 . S
N557 Co548 2.057 . S
N557 C558 1.316 . S
N557 C559 1.375 . S
C558 N557 1.316 . S
C558 N560 1.347 . S
C558 H569 0.931 . S
C559 N557 1.375 . S
C559 C561 1.350 . S
C559 H568 0.930 . S
N560 C558 1.347 . S
N560 C561 1.373 . S
C561 C559 1.350 . S
C561 N560 1.373 . S
C561 H575 0.931 . S
C562 O565 1.256 . S
C562 O566 1.255 . S
O563 Co546 2.021 . S
O563 C556 1.259 . S
O564 Co548 2.117 . S
O564 C556 1.258 . S
O565 Co548 2.020 . S
O565 C562 1.256 . S
O566 Co546 2.062 . S
O566 C562 1.255 . S
O567 C547 1.259 . S
O567 Co548 2.021 . S
H568 C559 0.930 . S
H569 C558 0.931 . S
O570 Co546 2.117 . S
O570 C547 1.258 . S
O571 Co546 2.020 . S
O571 C573 1.256 . S
O572 Co548 2.062 . S
O572 C573 1.255 . S
C573 O571 1.256 . S
C573 O572 1.255 . S
H574 C553 0.931 . S
H575 C561 0.931 . S
Co576 N581 2.057 . S
Co576 O593 2.021 1_554 S
Co576 O596 2.062 . S
Co576 O600 2.117 . S
Co576 O601 2.020 . S
C577 O597 1.259 . S
C577 O600 1.258 . S
Co578 N587 2.057 . S
Co578 O594 2.140 . S
Co578 O595 2.020 . S
Co578 O597 2.021 . S
Co578 O602 2.062 . S
C579 N581 1.316 1_556 S
C579 N582 1.347 1_556 S
C579 H584 0.931 . S
C580 N581 1.375 . S
C580 C583 1.350 . S
C580 H585 0.930 . S
N581 Co576 2.057 . S
N581 C579 1.316 1_554 S
N581 C580 1.375 . S
N582 C579 1.347 1_554 S
N582 C583 1.373 . S
C583 C580 1.350 . S
C583 N582 1.373 . S
C583 H604 0.931 . S
H584 C579 0.931 . S
H585 C580 0.930 . S
C586 O593 1.259 . S
C586 O594 1.240 1_556 S
N587 Co578 2.057 . S
N587 C588 1.316 . S
N587 C589 1.375 . S
C588 N587 1.316 . S
C588 N590 1.347 . S
C588 H599 0.931 . S
C589 N587 1.375 . S
C589 C591 1.350 . S
C589 H598 0.930 . S
N590 C588 1.347 . S
N590 C591 1.373 . S
C591 C589 1.350 . S
C591 N590 1.373 . S
C591 H605 0.931 . S
C592 O595 1.256 . S
C592 O596 1.255 . S
O593 Co576 2.021 1_556 S
O593 C586 1.259 . S
O594 Co578 2.140 . S
O594 C586 1.240 1_554 S
O595 Co578 2.020 . S
O595 C592 1.256 . S
O596 Co576 2.062 . S
O596 C592 1.255 . S
O597 C577 1.259 . S
O597 Co578 2.021 . S
H598 C589 0.930 . S
H599 C588 0.931 . S
O600 Co576 2.117 . S
O600 C577 1.258 . S
O601 Co576 2.020 . S
O601 C603 1.256 . S
O602 Co578 2.062 . S
O602 C603 1.255 . S
C603 O601 1.256 . S
C603 O602 1.255 . S
H604 C583 0.931 . S
H605 C591 0.931 . S
Co606 N611 2.057 . S
Co606 O623 2.021 . S
Co606 O626 2.062 . S
Co606 O630 2.117 . S
Co606 O631 2.020 . S
C607 O627 1.259 . S
C607 O630 1.258 . S
Co608 N617 2.057 . S
Co608 O624 2.117 . S
Co608 O625 2.020 . S
Co608 O627 2.021 . S
Co608 O632 2.062 . S
C609 N611 1.316 . S
C609 N612 1.347 . S
C609 H614 0.931 . S
C610 N611 1.375 . S
C610 C613 1.350 . S
C610 H615 0.930 . S
N611 Co606 2.057 . S
N611 C609 1.316 . S
N611 C610 1.375 . S
N612 C609 1.347 . S
N612 C613 1.373 . S
C613 C610 1.350 . S
C613 N612 1.373 . S
C613 H634 0.931 . S
H614 C609 0.931 . S
H615 C610 0.930 . S
C616 O623 1.259 . S
C616 O624 1.258 . S
N617 Co608 2.057 . S
N617 C618 1.316 . S
N617 C619 1.375 . S
C618 N617 1.316 . S
C618 N620 1.347 . S
C618 H629 0.931 . S
C619 N617 1.375 . S
C619 C621 1.350 . S
C619 H628 0.930 . S
N620 C618 1.347 . S
N620 C621 1.373 . S
C621 C619 1.350 . S
C621 N620 1.373 . S
C621 H635 0.931 . S
C622 O625 1.256 . S
C622 O626 1.255 . S
O623 Co606 2.021 . S
O623 C616 1.259 . S
O624 Co608 2.117 . S
O624 C616 1.258 . S
O625 Co608 2.020 . S
O625 C622 1.256 . S
O626 Co606 2.062 . S
O626 C622 1.255 . S
O627 C607 1.259 . S
O627 Co608 2.021 . S
H628 C619 0.930 . S
H629 C618 0.931 . S
O630 Co606 2.117 . S
O630 C607 1.258 . S
O631 Co606 2.020 . S
O631 C633 1.256 . S
O632 Co608 2.062 . S
O632 C633 1.255 . S
C633 O631 1.256 . S
C633 O632 1.255 . S
H634 C613 0.931 . S
H635 C621 0.931 . S
Co636 N641 2.057 . S
Co636 O653 2.021 1_455 S
Co636 O656 2.062 . S
Co636 O660 2.117 . S
Co636 O661 2.020 . S
C637 O657 1.259 . S
C637 O660 1.258 . S
Co638 N647 2.057 . S
Co638 O654 2.117 1_455 S
Co638 O655 2.020 . S
Co638 O657 2.021 . S
Co638 O662 2.062 . S
C639 N641 1.316 1_655 S
C639 N642 1.347 . S
C639 H644 0.931 . S
C640 N641 1.375 . S
C640 C643 1.350 . S
C640 H645 0.930 . S
N641 Co636 2.057 . S
N641 C639 1.316 1_455 S
N641 C640 1.375 . S
N642 C639 1.347 . S
N642 C643 1.373 1_655 S
C643 C640 1.350 . S
C643 N642 1.373 1_455 S
C643 H664 0.931 . S
H644 C639 0.931 . S
H645 C640 0.930 . S
C646 O653 1.259 . S
C646 O654 1.258 . S
N647 Co638 2.057 . S
N647 C648 1.316 . S
N647 C649 1.375 . S
C648 N647 1.316 . S
C648 N650 1.347 . S
C648 H659 0.931 . S
C649 N647 1.375 . S
C649 C651 1.350 . S
C649 H658 0.930 . S
N650 C648 1.347 . S
N650 C651 1.373 . S
C651 C649 1.350 . S
C651 N650 1.373 . S
C651 H665 0.931 . S
C652 O655 1.256 . S
C652 O656 1.255 . S
O653 Co636 2.021 1_655 S
O653 C646 1.259 . S
O654 Co638 2.117 1_655 S
O654 C646 1.258 . S
O655 Co638 2.020 . S
O655 C652 1.256 . S
O656 Co636 2.062 . S
O656 C652 1.255 . S
O657 C637 1.259 . S
O657 Co638 2.021 . S
H658 C649 0.930 . S
H659 C648 0.931 . S
O660 Co636 2.117 . S
O660 C637 1.258 . S
O661 Co636 2.020 . S
O661 C663 1.256 . S
O662 Co638 2.062 . S
O662 C663 1.255 . S
C663 O661 1.256 . S
C663 O662 1.255 . S
H664 C643 0.931 . S
H665 C651 0.931 . S
Co666 N671 2.057 . S
Co666 O683 2.021 . S
Co666 O686 2.062 . S
Co666 O690 2.117 . S
Co666 O691 2.020 . S
C667 O687 1.259 . S
C667 O690 1.258 . S
Co668 N677 2.057 . S
Co668 O684 2.117 . S
Co668 O685 2.020 . S
Co668 O687 2.021 . S
Co668 O692 2.062 . S
C669 N671 1.316 . S
C669 N672 1.347 . S
C669 H674 0.931 . S
C670 N671 1.375 . S
C670 C673 1.350 . S
C670 H675 0.930 . S
N671 Co666 2.057 . S
N671 C669 1.316 . S
N671 C670 1.375 . S
N672 C669 1.347 . S
N672 C673 1.373 . S
C673 C670 1.350 . S
C673 N672 1.373 . S
C673 H694 0.931 . S
H674 C669 0.931 . S
H675 C670 0.930 . S
C676 O683 1.259 . S
C676 O684 1.258 . S
N677 Co668 2.057 . S
N677 C678 1.316 . S
N677 C679 1.375 . S
C678 N677 1.316 . S
C678 N680 1.347 . S
C678 H689 0.931 . S
C679 N677 1.375 . S
C679 C681 1.350 . S
C679 H688 0.930 . S
N680 C678 1.347 . S
N680 C681 1.373 . S
C681 C679 1.350 . S
C681 N680 1.373 . S
C681 H695 0.931 . S
C682 O685 1.256 . S
C682 O686 1.255 . S
O683 Co666 2.021 . S
O683 C676 1.259 . S
O684 Co668 2.117 . S
O684 C676 1.258 . S
O685 Co668 2.020 . S
O685 C682 1.256 . S
O686 Co666 2.062 . S
O686 C682 1.255 . S
O687 C667 1.259 . S
O687 Co668 2.021 . S
H688 C679 0.930 . S
H689 C678 0.931 . S
O690 Co666 2.117 . S
O690 C667 1.258 . S
O691 Co666 2.020 . S
O691 C693 1.256 . S
O692 Co668 2.062 . S
O692 C693 1.255 . S
C693 O691 1.256 . S
C693 O692 1.255 . S
H694 C673 0.931 . S
H695 C681 0.931 . S
Co696 N701 2.057 . S
Co696 O713 2.021 . S
Co696 O716 2.062 . S
Co696 O720 2.117 . S
Co696 O721 2.020 . S
C697 O717 1.259 . S
C697 O720 1.258 . S
Co698 N707 2.057 . S
Co698 O714 2.117 . S
Co698 O715 2.020 . S
Co698 O717 2.021 . S
Co698 O722 2.062 . S
C699 N701 1.316 . S
C699 N702 1.347 . S
C699 H704 0.931 . S
C700 N701 1.375 . S
C700 C703 1.350 . S
C700 H705 0.930 . S
N701 Co696 2.057 . S
N701 C699 1.316 . S
N701 C700 1.375 . S
N702 C699 1.347 . S
N702 C703 1.373 . S
C703 C700 1.350 . S
C703 N702 1.373 . S
C703 H724 0.931 . S
H704 C699 0.931 . S
H705 C700 0.930 . S
C706 O713 1.259 . S
C706 O714 1.258 . S
N707 Co698 2.057 . S
N707 C708 1.316 . S
N707 C709 1.375 . S
C708 N707 1.316 . S
C708 N710 1.347 . S
C708 H719 0.931 . S
C709 N707 1.375 . S
C709 C711 1.350 . S
C709 H718 0.930 . S
N710 C708 1.347 . S
N710 C711 1.373 . S
C711 C709 1.350 . S
C711 N710 1.373 . S
C711 H725 0.931 . S
C712 O715 1.256 . S
C712 O716 1.255 . S
O713 Co696 2.021 . S
O713 C706 1.259 . S
O714 Co698 2.117 . S
O714 C706 1.258 . S
O715 Co698 2.020 . S
O715 C712 1.256 . S
O716 Co696 2.062 . S
O716 C712 1.255 . S
O717 C697 1.259 . S
O717 Co698 2.021 . S
H718 C709 0.930 . S
H719 C708 0.931 . S
O720 Co696 2.117 . S
O720 C697 1.258 . S
O721 Co696 2.020 . S
O721 C723 1.256 . S
O722 Co698 2.062 . S
O722 C723 1.255 . S
C723 O721 1.256 . S
C723 O722 1.255 . S
H724 C703 0.931 . S
H725 C711 0.931 . S
Co726 N731 2.057 . S
Co726 O743 2.021 . S
Co726 O746 2.062 . S
Co726 O750 2.117 . S
Co726 O751 2.020 . S
C727 O747 1.259 . S
C727 O750 1.258 . S
Co728 N737 2.057 . S
Co728 O744 2.117 . S
Co728 O745 2.020 . S
Co728 O747 2.021 . S
Co728 O752 2.062 . S
C729 N731 1.316 . S
C729 N732 1.347 . S
C729 H734 0.931 . S
C730 N731 1.375 . S
C730 C733 1.350 . S
C730 H735 0.930 . S
N731 Co726 2.057 . S
N731 C729 1.316 . S
N731 C730 1.375 . S
N732 C729 1.347 . S
N732 C733 1.373 . S
C733 C730 1.350 . S
C733 N732 1.373 . S
C733 H754 0.931 . S
H734 C729 0.931 . S
H735 C730 0.930 . S
C736 O743 1.259 . S
C736 O744 1.258 . S
N737 Co728 2.057 . S
N737 C738 1.316 . S
N737 C739 1.375 . S
C738 N737 1.316 . S
C738 N740 1.347 . S
C738 H749 0.931 . S
C739 N737 1.375 . S
C739 C741 1.350 . S
C739 H748 0.930 . S
N740 C738 1.347 . S
N740 C741 1.373 . S
C741 C739 1.350 . S
C741 N740 1.373 . S
C741 H755 0.931 . S
C742 O745 1.256 . S
C742 O746 1.255 . S
O743 Co726 2.021 . S
O743 C736 1.259 . S
O744 Co728 2.117 . S
O744 C736 1.258 . S
O745 Co728 2.020 . S
O745 C742 1.256 . S
O746 Co726 2.062 . S
O746 C742 1.255 . S
O747 C727 1.259 . S
O747 Co728 2.021 . S
H748 C739 0.930 . S
H749 C738 0.931 . S
O750 Co726 2.117 . S
O750 C727 1.258 . S
O751 Co726 2.020 . S
O751 C753 1.256 . S
O752 Co728 2.062 . S
O752 C753 1.255 . S
C753 O751 1.256 . S
C753 O752 1.255 . S
H754 C733 0.931 . S
H755 C741 0.931 . S
Co756 N761 2.057 . S
Co756 O773 2.021 . S
Co756 O776 2.062 . S
Co756 O780 2.117 . S
Co756 O781 2.020 . S
C757 O777 1.259 . S
C757 O780 1.258 . S
Co758 N767 2.057 . S
Co758 O774 2.117 . S
Co758 O775 2.020 . S
Co758 O777 2.021 . S
Co758 O782 2.062 . S
C759 N761 1.316 . S
C759 N762 1.347 . S
C759 H764 0.931 . S
C760 N761 1.375 . S
C760 C763 1.350 . S
C760 H765 0.930 . S
N761 Co756 2.057 . S
N761 C759 1.316 . S
N761 C760 1.375 . S
N762 C759 1.347 . S
N762 C763 1.373 . S
C763 C760 1.350 . S
C763 N762 1.373 . S
C763 H784 0.931 . S
H764 C759 0.931 . S
H765 C760 0.930 . S
C766 O773 1.259 . S
C766 O774 1.258 . S
N767 Co758 2.057 . S
N767 C768 1.316 . S
N767 C769 1.375 . S
C768 N767 1.316 . S
C768 N770 1.347 . S
C768 H779 0.931 . S
C769 N767 1.375 . S
C769 C771 1.350 . S
C769 H778 0.930 . S
N770 C768 1.347 . S
N770 C771 1.373 . S
C771 C769 1.350 . S
C771 N770 1.373 . S
C771 H785 0.931 . S
C772 O775 1.256 . S
C772 O776 1.255 . S
O773 Co756 2.021 . S
O773 C766 1.259 . S
O774 Co758 2.117 . S
O774 C766 1.258 . S
O775 Co758 2.020 . S
O775 C772 1.256 . S
O776 Co756 2.062 . S
O776 C772 1.255 . S
O777 C757 1.259 . S
O777 Co758 2.021 . S
H778 C769 0.930 . S
H779 C768 0.931 . S
O780 Co756 2.117 . S
O780 C757 1.258 . S
O781 Co756 2.020 . S
O781 C783 1.256 . S
O782 Co758 2.062 . S
O782 C783 1.255 . S
C783 O781 1.256 . S
C783 O782 1.255 . S
H784 C763 0.931 . S
H785 C771 0.931 . S
Co786 N791 2.057 1_455 S
Co786 O803 2.021 . S
Co786 O806 2.062 1_455 S
Co786 O810 2.117 . S
Co786 O811 2.020 1_554 S
C787 O807 1.259 . S
C787 O810 1.258 . S
Co788 N797 2.057 . S
Co788 O804 2.117 . S
Co788 O805 2.020 . S
Co788 O807 2.021 . S
Co788 O812 2.062 1_554 S
C789 N791 1.316 . S
C789 N792 1.347 . S
C789 H794 0.931 . S
C790 N791 1.375 1_556 S
C790 C793 1.350 . S
C790 H795 0.930 . S
N791 Co786 2.057 1_655 S
N791 C789 1.316 . S
N791 C790 1.375 1_554 S
N792 C789 1.347 . S
N792 C793 1.373 1_554 S
C793 C790 1.350 . S
C793 N792 1.373 1_556 S
C793 H814 0.931 . S
H794 C789 0.931 . S
H795 C790 0.930 . S
C796 O803 1.259 . S
C796 O804 1.258 . S
N797 Co788 2.057 . S
N797 C798 1.316 . S
N797 C799 1.375 . S
C798 N797 1.316 . S
C798 N800 1.347 . S
C798 H809 0.931 . S
C799 N797 1.375 . S
C799 C801 1.350 . S
C799 H808 0.930 . S
N800 C798 1.347 . S
N800 C801 1.373 . S
C801 C799 1.350 . S
C801 N800 1.373 . S
C801 H815 0.931 . S
C802 O805 1.256 . S
C802 O806 1.255 1_455 S
O803 Co786 2.021 . S
O803 C796 1.259 . S
O804 Co788 2.117 . S
O804 C796 1.258 . S
O805 Co788 2.020 . S
O805 C802 1.256 . S
O806 Co786 2.062 1_655 S
O806 C802 1.255 1_655 S
O807 C787 1.259 . S
O807 Co788 2.021 . S
H808 C799 0.930 . S
H809 C798 0.931 . S
O810 Co786 2.117 . S
O810 C787 1.258 . S
O811 Co786 2.020 1_556 S
O811 C813 1.256 . S
O812 Co788 2.062 1_556 S
O812 C813 1.255 . S
C813 O811 1.256 . S
C813 O812 1.255 . S
H814 C793 0.931 . S
H815 C801 0.931 . S
H816 C828 0.930 . S
H817 C830 0.930 . S
H818 C831 0.930 1_655 S
H819 C835 0.959 . S
H820 C835 0.959 . S
H821 C835 0.961 . S
H822 C836 0.960 . S
H823 C836 0.961 . S
H824 C836 0.954 1_655 S
H825 C839 0.929 . S
H826 C840 0.931 . S
H827 C842 0.930 . S
C828 H816 0.930 . S
C828 C829 1.399 . S
C828 C833 1.399 . S
C829 C828 1.399 . S
C829 C830 1.376 . S
C830 H817 0.930 . S
C830 C829 1.376 . S
C830 C831 1.388 . S
C831 H818 0.930 1_455 S
C831 C830 1.388 . S
C831 C832 1.390 . S
C832 C831 1.390 . S
C832 C833 1.394 . S
C832 C838 1.465 . S
C833 C828 1.399 . S
C833 C832 1.394 . S
C833 C834 1.516 . S
C834 C833 1.516 . S
C834 C835 1.502 . S
C834 C836 1.561 . S
C834 C837 1.526 . S
C835 H819 0.959 . S
C835 H820 0.959 . S
C835 H821 0.961 . S
C835 C834 1.502 . S
C836 H822 0.960 . S
C836 H823 0.961 . S
C836 H824 0.954 1_455 S
C836 C834 1.561 . S
C837 C834 1.526 . S
C837 C838 1.396 . S
C837 C842 1.390 . S
C838 C832 1.465 . S
C838 C837 1.396 . S
C838 C839 1.399 1_455 S
C839 H825 0.929 . S
C839 C838 1.399 1_655 S
C839 C840 1.385 . S
C840 H826 0.931 . S
C840 C839 1.385 . S
C840 C841 1.389 1_655 S
C841 C840 1.389 1_455 S
C841 C842 1.387 . S
C842 H827 0.930 . S
C842 C837 1.390 . S
C842 C841 1.387 . S
H843 C855 0.930 . S
H844 C857 0.930 . S
H845 C858 0.930 . S
H846 C862 0.959 . S
H847 C862 0.959 . S
H848 C862 0.961 . S
H849 C863 0.960 . S
H850 C863 0.961 . S
H851 C863 0.959 . S
H852 C866 0.929 . S
H853 C867 0.931 . S
H854 C869 0.930 . S
C855 H843 0.930 . S
C855 C856 1.399 . S
C855 C860 1.399 . S
C856 C855 1.399 . S
C856 C857 1.376 . S
C857 H844 0.930 . S
C857 C856 1.376 . S
C857 C858 1.388 . S
C858 H845 0.930 . S
C858 C857 1.388 . S
C858 C859 1.390 . S
C859 C858 1.390 . S
C859 C860 1.394 . S
C859 C865 1.465 . S
C860 C855 1.399 . S
C860 C859 1.394 . S
C860 C861 1.516 . S
C861 C860 1.516 . S
C861 C862 1.502 . S
C861 C863 1.561 . S
C861 C864 1.526 . S
C862 H846 0.959 . S
C862 H847 0.959 . S
C862 H848 0.961 . S
C862 C861 1.502 . S
C863 H849 0.960 . S
C863 H850 0.961 . S
C863 H851 0.959 . S
C863 C861 1.561 . S
C864 C861 1.526 . S
C864 C865 1.396 . S
C864 C869 1.390 . S
C865 C859 1.465 . S
C865 C864 1.396 . S
C865 C866 1.399 . S
C866 H852 0.929 . S
C866 C865 1.399 . S
C866 C867 1.385 . S
C867 H853 0.931 . S
C867 C866 1.385 . S
C867 C868 1.389 . S
C868 C867 1.389 . S
C868 C869 1.387 . S
C869 H854 0.930 . S
C869 C864 1.390 . S
C869 C868 1.387 . S
H870 C882 0.930 . S
H871 C884 0.930 . S
H872 C885 0.930 . S
H873 C889 0.959 . S
H874 C889 0.959 . S
H875 C889 0.961 . S
H876 C890 0.960 . S
H877 C890 0.961 . S
H878 C890 0.959 . S
H879 C893 0.929 . S
H880 C894 0.931 . S
H881 C896 0.930 . S
C882 H870 0.930 . S
C882 C883 1.399 . S
C882 C887 1.399 . S
C883 C882 1.399 . S
C883 C884 1.376 . S
C884 H871 0.930 . S
C884 C883 1.376 . S
C884 C885 1.388 . S
C885 H872 0.930 . S
C885 C884 1.388 . S
C885 C886 1.390 . S
C886 C885 1.390 . S
C886 C887 1.394 . S
C886 C892 1.465 . S
C887 C882 1.399 . S
C887 C886 1.394 . S
C887 C888 1.516 . S
C888 C887 1.516 . S
C888 C889 1.502 . S
C888 C890 1.561 . S
C888 C891 1.526 . S
C889 H873 0.959 . S
C889 H874 0.959 . S
C889 H875 0.961 . S
C889 C888 1.502 . S
C890 H876 0.960 . S
C890 H877 0.961 . S
C890 H878 0.959 . S
C890 C888 1.561 . S
C891 C888 1.526 . S
C891 C892 1.396 . S
C891 C896 1.390 . S
C892 C886 1.465 . S
C892 C891 1.396 . S
C892 C893 1.399 . S
C893 H879 0.929 . S
C893 C892 1.399 . S
C893 C894 1.385 . S
C894 H880 0.931 . S
C894 C893 1.385 . S
C894 C895 1.389 . S
C895 C894 1.389 . S
C895 C896 1.387 . S
C896 H881 0.930 . S
C896 C891 1.390 . S
C896 C895 1.387 . S
H897 C909 0.930 . S
H898 C911 0.930 . S
H899 C912 0.930 . S
H900 C916 0.959 . S
H901 C916 0.959 . S
H902 C916 0.961 . S
H903 C917 0.960 . S
H904 C917 0.961 . S
H905 C917 0.959 . S
H906 C920 0.929 . S
H907 C921 0.931 . S
H908 C923 0.930 . S
C909 H897 0.930 . S
C909 C910 1.399 . S
C909 C914 1.399 . S
C910 C909 1.399 . S
C910 C911 1.376 . S
C911 H898 0.930 . S
C911 C910 1.376 . S
C911 C912 1.388 . S
C912 H899 0.930 . S
C912 C911 1.388 . S
C912 C913 1.390 . S
C913 C912 1.390 . S
C913 C914 1.394 . S
C913 C919 1.465 . S
C914 C909 1.399 . S
C914 C913 1.394 . S
C914 C915 1.516 . S
C915 C914 1.516 . S
C915 C916 1.502 . S
C915 C917 1.561 . S
C915 C918 1.526 . S
C916 H900 0.959 . S
C916 H901 0.959 . S
C916 H902 0.961 . S
C916 C915 1.502 . S
C917 H903 0.960 . S
C917 H904 0.961 . S
C917 H905 0.959 . S
C917 C915 1.561 . S
C918 C915 1.526 . S
C918 C919 1.396 . S
C918 C923 1.390 . S
C919 C913 1.465 . S
C919 C918 1.396 . S
C919 C920 1.399 . S
C920 H906 0.929 . S
C920 C919 1.399 . S
C920 C921 1.385 . S
C921 H907 0.931 . S
C921 C920 1.385 . S
C921 C922 1.389 . S
C922 C921 1.389 . S
C922 C923 1.387 . S
C923 H908 0.930 . S
C923 C918 1.390 . S
C923 C922 1.387 . S
H924 C936 0.930 . S
H925 C938 0.930 . S
H926 C939 0.930 . S
H927 C943 0.959 . S
H928 C943 0.959 . S
H929 C943 0.961 . S
H930 C944 0.960 . S
H931 C944 0.961 . S
H932 C944 0.959 . S
H933 C947 0.930 . S
H934 C948 0.931 . S
H935 C950 0.930 . S
C936 H924 0.930 . S
C936 C937 1.399 . S
C936 C941 1.399 . S
C937 C936 1.399 . S
C937 C938 1.376 . S
C938 H925 0.930 . S
C938 C937 1.376 . S
C938 C939 1.388 . S
C939 H926 0.930 . S
C939 C938 1.388 . S
C939 C940 1.390 . S
C940 C939 1.390 . S
C940 C941 1.394 . S
C940 C946 1.465 . S
C941 C936 1.399 . S
C941 C940 1.394 . S
C941 C942 1.516 . S
C942 C941 1.516 . S
C942 C943 1.502 . S
C942 C944 1.561 . S
C942 C945 1.526 . S
C943 H927 0.959 . S
C943 H928 0.959 . S
C943 H929 0.961 . S
C943 C942 1.502 . S
C944 H930 0.960 . S
C944 H931 0.961 . S
C944 H932 0.959 . S
C944 C942 1.561 . S
C945 C942 1.526 . S
C945 C946 1.396 . S
C945 C950 1.390 . S
C946 C940 1.465 . S
C946 C945 1.396 . S
C946 C947 1.398 1_455 S
C947 H933 0.930 . S
C947 C946 1.398 1_655 S
C947 C948 1.385 . S
C948 H934 0.931 . S
C948 C947 1.385 . S
C948 C949 1.389 1_655 S
C949 C948 1.389 1_455 S
C949 C950 1.387 . S
C950 H935 0.930 . S
C950 C945 1.390 . S
C950 C949 1.387 . S
H951 C963 0.930 . S
H952 C965 0.930 . S
H953 C966 0.930 . S
H954 C970 0.959 . S
H955 C970 0.959 . S
H956 C970 0.961 . S
H957 C971 0.960 . S
H958 C971 0.961 . S
H959 C971 0.959 . S
H960 C974 0.929 . S
H961 C975 0.931 . S
H962 C977 0.930 . S
C963 H951 0.930 . S
C963 C964 1.399 . S
C963 C968 1.399 . S
C964 C963 1.399 . S
C964 C965 1.376 . S
C965 H952 0.930 . S
C965 C964 1.376 . S
C965 C966 1.388 . S
C966 H953 0.930 . S
C966 C965 1.388 . S
C966 C967 1.390 . S
C967 C966 1.390 . S
C967 C968 1.394 . S
C967 C973 1.465 . S
C968 C963 1.399 . S
C968 C967 1.394 . S
C968 C969 1.516 . S
C969 C968 1.516 . S
C969 C970 1.502 . S
C969 C971 1.561 . S
C969 C972 1.526 . S
C970 H954 0.959 . S
C970 H955 0.959 . S
C970 H956 0.961 . S
C970 C969 1.502 . S
C971 H957 0.960 . S
C971 H958 0.961 . S
C971 H959 0.959 . S
C971 C969 1.561 . S
C972 C969 1.526 . S
C972 C973 1.396 . S
C972 C977 1.390 . S
C973 C967 1.465 . S
C973 C972 1.396 . S
C973 C974 1.399 . S
C974 H960 0.929 . S
C974 C973 1.399 . S
C974 C975 1.385 . S
C975 H961 0.931 . S
C975 C974 1.385 . S
C975 C976 1.389 . S
C976 C975 1.389 . S
C976 C977 1.387 . S
C977 H962 0.930 . S
C977 C972 1.390 . S
C977 C976 1.387 . S
H978 C990 0.930 . S
H979 C992 0.930 . S
H980 C993 0.930 . S
H981 C997 0.959 1_556 S
H982 C997 0.959 . S
H983 C997 0.961 . S
H984 C998 0.960 . S
H985 C998 0.961 . S
H986 C998 0.959 . S
H987 C1001 0.929 . S
H988 C1002 0.931 . S
H989 C1004 0.930 . S
C990 H978 0.930 . S
C990 C991 1.399 . S
C990 C995 1.399 . S
C991 C990 1.399 . S
C991 C992 1.376 . S
C992 H979 0.930 . S
C992 C991 1.376 . S
C992 C993 1.388 . S
C993 H980 0.930 . S
C993 C992 1.388 . S
C993 C994 1.390 . S
C994 C993 1.390 . S
C994 C995 1.394 . S
C994 C1000 1.465 . S
C995 C990 1.399 . S
C995 C994 1.394 . S
C995 C996 1.516 . S
C996 C995 1.516 . S
C996 C997 1.502 1_556 S
C996 C998 1.561 1_556 S
C996 C999 1.526 . S
C997 H981 0.959 1_554 S
C997 H982 0.959 . S
C997 H983 0.961 . S
C997 C996 1.502 1_554 S
C998 H984 0.960 . S
C998 H985 0.961 . S
C998 H986 0.959 . S
C998 C996 1.561 1_554 S
C999 C996 1.526 . S
C999 C1000 1.396 . S
C999 C1004 1.390 1_556 S
C1000 C994 1.465 . S
C1000 C999 1.396 . S
C1000 C1001 1.399 . S
C1001 H987 0.929 . S
C1001 C1000 1.399 . S
C1001 C1002 1.385 . S
C1002 H988 0.931 . S
C1002 C1001 1.385 . S
C1002 C1003 1.389 . S
C1003 C1002 1.389 . S
C1003 C1004 1.387 1_556 S
C1004 H989 0.930 . S
C1004 C999 1.390 1_554 S
C1004 C1003 1.387 1_554 S
H1005 C1017 0.930 . S
H1006 C1019 0.930 . S
H1007 C1020 0.930 . S
H1008 C1024 0.959 . S
H1009 C1024 0.959 . S
H1010 C1024 0.961 . S
H1011 C1025 0.960 . S
H1012 C1025 0.961 . S
H1013 C1025 0.959 . S
H1014 C1028 0.929 . S
H1015 C1029 0.931 . S
H1016 C1031 0.930 . S
C1017 H1005 0.930 . S
C1017 C1018 1.399 . S
C1017 C1022 1.399 . S
C1018 C1017 1.399 . S
C1018 C1019 1.376 . S
C1019 H1006 0.930 . S
C1019 C1018 1.376 . S
C1019 C1020 1.388 . S
C1020 H1007 0.930 . S
C1020 C1019 1.388 . S
C1020 C1021 1.390 . S
C1021 C1020 1.390 . S
C1021 C1022 1.394 . S
C1021 C1027 1.465 . S
C1022 C1017 1.399 . S
C1022 C1021 1.394 . S
C1022 C1023 1.516 . S
C1023 C1022 1.516 . S
C1023 C1024 1.502 . S
C1023 C1025 1.561 . S
C1023 C1026 1.526 . S
C1024 H1008 0.959 . S
C1024 H1009 0.959 . S
C1024 H1010 0.961 . S
C1024 C1023 1.502 . S
C1025 H1011 0.960 . S
C1025 H1012 0.961 . S
C1025 H1013 0.959 . S
C1025 C1023 1.561 . S
C1026 C1023 1.526 . S
C1026 C1027 1.396 . S
C1026 C1031 1.390 . S
C1027 C1021 1.465 . S
C1027 C1026 1.396 . S
C1027 C1028 1.399 . S
C1028 H1014 0.929 . S
C1028 C1027 1.399 . S
C1028 C1029 1.385 . S
C1029 H1015 0.931 . S
C1029 C1028 1.385 . S
C1029 C1030 1.389 . S
C1030 C1029 1.389 . S
C1030 C1031 1.387 . S
C1031 H1016 0.930 . S
C1031 C1026 1.390 . S
C1031 C1030 1.387 . S
H1032 C1044 0.930 . S
H1033 C1046 0.930 . S
H1034 C1047 0.930 . S
H1035 C1051 0.959 . S
H1036 C1051 0.959 . S
H1037 C1051 0.961 . S
H1038 C1052 0.960 . S
H1039 C1052 0.961 . S
H1040 C1052 0.959 . S
H1041 C1055 0.929 . S
H1042 C1056 0.931 . S
H1043 C1058 0.930 . S
C1044 H1032 0.930 . S
C1044 C1045 1.399 . S
C1044 C1049 1.399 . S
C1045 C1044 1.399 . S
C1045 C1046 1.376 1_545 S
C1046 H1033 0.930 . S
C1046 C1045 1.376 1_565 S
C1046 C1047 1.388 . S
C1047 H1034 0.930 . S
C1047 C1046 1.388 . S
C1047 C1048 1.390 . S
C1048 C1047 1.390 . S
C1048 C1049 1.394 1_565 S
C1048 C1054 1.465 . S
C1049 C1044 1.399 . S
C1049 C1048 1.394 1_545 S
C1049 C1050 1.516 . S
C1050 C1049 1.516 . S
C1050 C1051 1.502 . S
C1050 C1052 1.561 . S
C1050 C1053 1.526 . S
C1051 H1035 0.959 . S
C1051 H1036 0.959 . S
C1051 H1037 0.961 . S
C1051 C1050 1.502 . S
C1052 H1038 0.960 . S
C1052 H1039 0.961 . S
C1052 H1040 0.959 . S
C1052 C1050 1.561 . S
C1053 C1050 1.526 . S
C1053 C1054 1.396 1_545 S
C1053 C1058 1.390 . S
C1054 C1048 1.465 . S
C1054 C1053 1.396 1_565 S
C1054 C1055 1.399 . S
C1055 H1041 0.929 . S
C1055 C1054 1.399 . S
C1055 C1056 1.385 . S
C1056 H1042 0.931 . S
C1056 C1055 1.385 . S
C1056 C1057 1.351 1_565 S
C1057 C1056 1.351 1_545 S
C1057 C1058 1.420 . S
C1058 H1043 0.930 . S
C1058 C1053 1.390 . S
C1058 C1057 1.420 . S
H1059 C1071 0.930 . S
H1060 C1073 0.930 . S
H1061 C1074 0.930 . S
H1062 C1078 0.959 . S
H1063 C1078 0.959 . S
H1064 C1078 0.961 . S
H1065 C1079 0.960 . S
H1066 C1079 0.961 . S
H1067 C1079 0.959 . S
H1068 C1082 0.929 . S
H1069 C1083 0.931 . S
H1070 C1085 0.930 . S
C1071 H1059 0.930 . S
C1071 C1072 1.399 . S
C1071 C1076 1.399 . S
C1072 C1071 1.399 . S
C1072 C1073 1.376 . S
C1073 H1060 0.930 . S
C1073 C1072 1.376 . S
C1073 C1074 1.388 . S
C1074 H1061 0.930 . S
C1074 C1073 1.388 . S
C1074 C1075 1.390 . S
C1075 C1074 1.390 . S
C1075 C1076 1.394 . S
C1075 C1081 1.465 . S
C1076 C1071 1.399 . S
C1076 C1075 1.394 . S
C1076 C1077 1.516 . S
C1077 C1076 1.516 . S
C1077 C1078 1.502 . S
C1077 C1079 1.561 . S
C1077 C1080 1.526 . S
C1078 H1062 0.959 . S
C1078 H1063 0.959 . S
C1078 H1064 0.961 . S
C1078 C1077 1.502 . S
C1079 H1065 0.960 . S
C1079 H1066 0.961 . S
C1079 H1067 0.959 . S
C1079 C1077 1.561 . S
C1080 C1077 1.526 . S
C1080 C1081 1.396 . S
C1080 C1085 1.390 . S
C1081 C1075 1.465 . S
C1081 C1080 1.396 . S
C1081 C1082 1.399 . S
C1082 H1068 0.929 . S
C1082 C1081 1.399 . S
C1082 C1083 1.385 . S
C1083 H1069 0.931 . S
C1083 C1082 1.385 . S
C1083 C1084 1.389 . S
C1084 C1083 1.389 . S
C1084 C1085 1.387 . S
C1085 H1070 0.930 . S
C1085 C1080 1.390 . S
C1085 C1084 1.387 . S
H1086 C1098 0.930 . S
H1087 C1100 0.930 . S
H1088 C1101 0.930 . S
H1089 C1105 0.959 . S
H1090 C1105 0.959 1_565 S
H1091 C1105 0.961 . S
H1092 C1106 0.960 1_565 S
H1093 C1106 0.961 1_565 S
H1094 C1106 0.959 . S
H1095 C1109 0.929 . S
H1096 C1110 0.931 . S
H1097 C1112 0.930 . S
C1098 H1086 0.930 . S
C1098 C1099 1.399 . S
C1098 C1103 1.399 . S
C1099 C1098 1.399 . S
C1099 C1100 1.376 . S
C1100 H1087 0.930 . S
C1100 C1099 1.376 . S
C1100 C1101 1.388 . S
C1101 H1088 0.930 . S
C1101 C1100 1.388 . S
C1101 C1102 1.390 . S
C1102 C1101 1.390 . S
C1102 C1103 1.394 . S
C1102 C1108 1.465 . S
C1103 C1098 1.399 . S
C1103 C1102 1.394 . S
C1103 C1104 1.516 . S
C1104 C1103 1.516 . S
C1104 C1105 1.502 . S
C1104 C1106 1.561 . S
C1104 C1107 1.526 . S
C1105 H1089 0.959 . S
C1105 H1090 0.959 1_545 S
C1105 H1091 0.961 . S
C1105 C1104 1.502 . S
C1106 H1092 0.960 1_545 S
C1106 H1093 0.961 1_545 S
C1106 H1094 0.959 . S
C1106 C1104 1.561 . S
C1107 C1104 1.526 . S
C1107 C1108 1.396 . S
C1107 C1112 1.390 . S
C1108 C1102 1.465 . S
C1108 C1107 1.396 . S
C1108 C1109 1.399 . S
C1109 H1095 0.929 . S
C1109 C1108 1.399 . S
C1109 C1110 1.385 . S
C1110 H1096 0.931 . S
C1110 C1109 1.385 . S
C1110 C1111 1.389 . S
C1111 C1110 1.389 . S
C1111 C1112 1.387 . S
C1112 H1097 0.930 . S
C1112 C1107 1.390 . S
C1112 C1111 1.387 . S
H1113 C1125 0.930 . S
H1114 C1127 0.930 . S
H1115 C1128 0.930 . S
H1116 C1132 0.959 . S
H1117 C1132 0.959 . S
H1118 C1132 0.961 . S
H1119 C1133 0.960 . S
H1120 C1133 0.961 . S
H1121 C1133 0.959 . S
H1122 C1136 0.929 . S
H1123 C1137 0.931 . S
H1124 C1139 0.930 . S
C1125 H1113 0.930 . S
C1125 C1126 1.399 . S
C1125 C1130 1.399 . S
C1126 C1125 1.399 . S
C1126 C1127 1.376 . S
C1127 H1114 0.930 . S
C1127 C1126 1.376 . S
C1127 C1128 1.388 . S
C1128 H1115 0.930 . S
C1128 C1127 1.388 . S
C1128 C1129 1.390 . S
C1129 C1128 1.390 . S
C1129 C1130 1.394 . S
C1129 C1135 1.465 . S
C1130 C1125 1.399 . S
C1130 C1129 1.394 . S
C1130 C1131 1.516 . S
C1131 C1130 1.516 . S
C1131 C1132 1.502 . S
C1131 C1133 1.561 . S
C1131 C1134 1.526 . S
C1132 H1116 0.959 . S
C1132 H1117 0.959 . S
C1132 H1118 0.961 . S
C1132 C1131 1.502 . S
C1133 H1119 0.960 . S
C1133 H1120 0.961 . S
C1133 H1121 0.959 . S
C1133 C1131 1.561 . S
C1134 C1131 1.526 . S
C1134 C1135 1.396 . S
C1134 C1139 1.390 . S
C1135 C1129 1.465 . S
C1135 C1134 1.396 . S
C1135 C1136 1.399 . S
C1136 H1122 0.929 . S
C1136 C1135 1.399 . S
C1136 C1137 1.385 . S
C1137 H1123 0.931 . S
C1137 C1136 1.385 . S
C1137 C1138 1.389 . S
C1138 C1137 1.389 . S
C1138 C1139 1.387 . S
C1139 H1124 0.930 . S
C1139 C1134 1.390 . S
C1139 C1138 1.387 . S
H1140 C1152 0.930 . S
H1141 C1154 0.930 . S
H1142 C1155 0.930 . S
H1143 C1159 0.959 . S
H1144 C1159 0.959 . S
H1145 C1159 0.961 . S
H1146 C1160 0.960 . S
H1147 C1160 0.961 . S
H1148 C1160 0.959 . S
H1149 C1163 0.932 . S
H1150 C1164 0.931 . S
H1151 C1166 0.930 . S
C1152 H1140 0.930 . S
C1152 C1153 1.399 . S
C1152 C1157 1.399 . S
C1153 C1152 1.399 . S
C1153 C1154 1.376 1_545 S
C1154 H1141 0.930 . S
C1154 C1153 1.376 1_565 S
C1154 C1155 1.388 . S
C1155 H1142 0.930 . S
C1155 C1154 1.388 . S
C1155 C1156 1.390 1_565 S
C1156 C1155 1.390 1_545 S
C1156 C1157 1.394 . S
C1156 C1162 1.465 . S
C1157 C1152 1.399 . S
C1157 C1156 1.394 . S
C1157 C1158 1.516 . S
C1158 C1157 1.516 . S
C1158 C1159 1.502 . S
C1158 C1160 1.561 . S
C1158 C1161 1.526 . S
C1159 H1143 0.959 . S
C1159 H1144 0.959 . S
C1159 H1145 0.961 . S
C1159 C1158 1.502 . S
C1160 H1146 0.960 . S
C1160 H1147 0.961 . S
C1160 H1148 0.959 . S
C1160 C1158 1.561 . S
C1161 C1158 1.526 . S
C1161 C1162 1.396 . S
C1161 C1166 1.390 . S
C1162 C1156 1.465 . S
C1162 C1161 1.396 . S
C1162 C1163 1.397 1_545 S
C1163 H1149 0.932 . S
C1163 C1162 1.397 1_565 S
C1163 C1164 1.384 1_565 S
C1164 H1150 0.931 . S
C1164 C1163 1.384 1_545 S
C1164 C1165 1.389 . S
C1165 C1164 1.389 . S
C1165 C1166 1.387 . S
C1166 H1151 0.930 . S
C1166 C1161 1.390 . S
C1166 C1165 1.387 . S
H1167 C1179 0.930 . S
H1168 C1181 0.930 . S
H1169 C1182 0.930 . S
H1170 C1186 0.959 . S
H1171 C1186 0.959 . S
H1172 C1186 0.961 . S
H1173 C1187 0.960 . S
H1174 C1187 0.961 . S
H1175 C1187 0.959 . S
H1176 C1190 0.929 . S
H1177 C1191 0.931 . S
H1178 C1193 0.930 . S
C1179 H1167 0.930 . S
C1179 C1180 1.399 . S
C1179 C1184 1.399 . S
C1180 C1179 1.399 . S
C1180 C1181 1.376 . S
C1181 H1168 0.930 . S
C1181 C1180 1.376 . S
C1181 C1182 1.388 . S
C1182 H1169 0.930 . S
C1182 C1181 1.388 . S
C1182 C1183 1.390 . S
C1183 C1182 1.390 . S
C1183 C1184 1.394 . S
C1183 C1189 1.465 . S
C1184 C1179 1.399 . S
C1184 C1183 1.394 . S
C1184 C1185 1.516 . S
C1185 C1184 1.516 . S
C1185 C1186 1.502 . S
C1185 C1187 1.561 . S
C1185 C1188 1.526 . S
C1186 H1170 0.959 . S
C1186 H1171 0.959 . S
C1186 H1172 0.961 . S
C1186 C1185 1.502 . S
C1187 H1173 0.960 . S
C1187 H1174 0.961 . S
C1187 H1175 0.959 . S
C1187 C1185 1.561 . S
C1188 C1185 1.526 . S
C1188 C1189 1.396 . S
C1188 C1193 1.390 . S
C1189 C1183 1.465 . S
C1189 C1188 1.396 . S
C1189 C1190 1.399 . S
C1190 H1176 0.929 . S
C1190 C1189 1.399 . S
C1190 C1191 1.385 . S
C1191 H1177 0.931 . S
C1191 C1190 1.385 . S
C1191 C1192 1.389 . S
C1192 C1191 1.389 . S
C1192 C1193 1.387 . S
C1193 H1178 0.930 . S
C1193 C1188 1.390 . S
C1193 C1192 1.387 . S
H1194 C1206 0.930 . S
H1195 C1208 0.930 . S
H1196 C1209 0.930 1_565 S
H1197 C1213 0.959 . S
H1198 C1213 0.959 . S
H1199 C1213 0.961 . S
H1200 C1214 0.960 . S
H1201 C1214 0.961 . S
H1202 C1214 0.959 . S
H1203 C1217 0.929 . S
H1204 C1218 0.931 . S
H1205 C1220 0.930 . S
C1206 H1194 0.930 . S
C1206 C1207 1.399 . S
C1206 C1211 1.399 . S
C1207 C1206 1.399 . S
C1207 C1208 1.376 . S
C1208 H1195 0.930 . S
C1208 C1207 1.376 . S
C1208 C1209 1.388 . S
C1209 H1196 0.930 1_545 S
C1209 C1208 1.388 . S
C1209 C1210 1.390 . S
C1210 C1209 1.390 . S
C1210 C1211 1.394 . S
C1210 C1216 1.465 . S
C1211 C1206 1.399 . S
C1211 C1210 1.394 . S
C1211 C1212 1.516 . S
C1212 C1211 1.516 . S
C1212 C1213 1.502 . S
C1212 C1214 1.561 . S
C1212 C1215 1.526 . S
C1213 H1197 0.959 . S
C1213 H1198 0.959 . S
C1213 H1199 0.961 . S
C1213 C1212 1.502 . S
C1214 H1200 0.960 . S
C1214 H1201 0.961 . S
C1214 H1202 0.959 . S
C1214 C1212 1.561 . S
C1215 C1212 1.526 . S
C1215 C1216 1.396 . S
C1215 C1220 1.390 . S
C1216 C1210 1.465 . S
C1216 C1215 1.396 . S
C1216 C1217 1.399 1_545 S
C1217 H1203 0.929 . S
C1217 C1216 1.399 1_565 S
C1217 C1218 1.385 . S
C1218 H1204 0.931 . S
C1218 C1217 1.385 . S
C1218 C1219 1.389 1_565 S
C1219 C1218 1.389 1_545 S
C1219 C1220 1.387 . S
C1220 H1205 0.930 . S
C1220 C1215 1.390 . S
C1220 C1219 1.387 . S
H1221 C1233 0.930 . S
H1222 C1235 0.930 . S
H1223 C1236 0.930 . S
H1224 C1240 0.959 . S
H1225 C1240 0.959 . S
H1226 C1240 0.961 . S
H1227 C1241 0.960 . S
H1228 C1241 0.961 . S
H1229 C1241 0.959 . S
H1230 C1244 0.929 . S
H1231 C1245 0.931 . S
H1232 C1247 0.930 . S
C1233 H1221 0.930 . S
C1233 C1234 1.399 . S
C1233 C1238 1.399 . S
C1234 C1233 1.399 . S
C1234 C1235 1.376 . S
C1235 H1222 0.930 . S
C1235 C1234 1.376 . S
C1235 C1236 1.388 . S
C1236 H1223 0.930 . S
C1236 C1235 1.388 . S
C1236 C1237 1.390 . S
C1237 C1236 1.390 . S
C1237 C1238 1.394 . S
C1237 C1243 1.465 . S
C1238 C1233 1.399 . S
C1238 C1237 1.394 . S
C1238 C1239 1.516 . S
C1239 C1238 1.516 . S
C1239 C1240 1.502 . S
C1239 C1241 1.561 . S
C1239 C1242 1.526 . S
C1240 H1224 0.959 . S
C1240 H1225 0.959 . S
C1240 H1226 0.961 . S
C1240 C1239 1.502 . S
C1241 H1227 0.960 . S
C1241 H1228 0.961 . S
C1241 H1229 0.959 . S
C1241 C1239 1.561 . S
C1242 C1239 1.526 . S
C1242 C1243 1.396 . S
C1242 C1247 1.390 . S
C1243 C1237 1.465 . S
C1243 C1242 1.396 . S
C1243 C1244 1.399 . S
C1244 H1230 0.929 . S
C1244 C1243 1.399 . S
C1244 C1245 1.385 . S
C1245 H1231 0.931 . S
C1245 C1244 1.385 . S
C1245 C1246 1.389 . S
C1246 C1245 1.389 . S
C1246 C1247 1.387 . S
C1247 H1232 0.930 . S
C1247 C1242 1.390 . S
C1247 C1246 1.387 . S
H1248 C1260 0.930 1_556 S
H1249 C1262 0.930 . S
H1250 C1263 0.930 . S
H1251 C1267 0.959 . S
H1252 C1267 0.959 . S
H1253 C1267 0.961 . S
H1254 C1268 0.960 . S
H1255 C1268 0.961 . S
H1256 C1268 0.959 . S
H1257 C1271 0.929 . S
H1258 C1272 0.931 . S
H1259 C1274 0.930 1_556 S
C1260 H1248 0.930 1_554 S
C1260 C1261 1.399 . S
C1260 C1265 1.399 . S
C1261 C1260 1.399 . S
C1261 C1262 1.376 . S
C1262 H1249 0.930 . S
C1262 C1261 1.376 . S
C1262 C1263 1.388 . S
C1263 H1250 0.930 . S
C1263 C1262 1.388 . S
C1263 C1264 1.390 . S
C1264 C1263 1.390 . S
C1264 C1265 1.394 . S
C1264 C1270 1.465 . S
C1265 C1260 1.399 . S
C1265 C1264 1.394 . S
C1265 C1266 1.516 1_554 S
C1266 C1265 1.516 1_556 S
C1266 C1267 1.502 . S
C1266 C1268 1.561 . S
C1266 C1269 1.526 1_556 S
C1267 H1251 0.959 . S
C1267 H1252 0.959 . S
C1267 H1253 0.961 . S
C1267 C1266 1.502 . S
C1268 H1254 0.960 . S
C1268 H1255 0.961 . S
C1268 H1256 0.959 . S
C1268 C1266 1.561 . S
C1269 C1266 1.526 1_554 S
C1269 C1270 1.396 . S
C1269 C1274 1.390 . S
C1270 C1264 1.465 . S
C1270 C1269 1.396 . S
C1270 C1271 1.399 . S
C1271 H1257 0.929 . S
C1271 C1270 1.399 . S
C1271 C1272 1.385 . S
C1272 H1258 0.931 . S
C1272 C1271 1.385 . S
C1272 C1273 1.389 . S
C1273 C1272 1.389 . S
C1273 C1274 1.387 . S
C1274 H1259 0.930 1_554 S
C1274 C1269 1.390 . S
C1274 C1273 1.387 . S
H1275 C1287 0.930 . S
H1276 C1289 0.930 . S
H1277 C1290 0.930 . S
H1278 C1294 0.959 . S
H1279 C1294 0.959 1_556 S
H1280 C1294 0.961 1_556 S
H1281 C1295 0.960 1_556 S
H1282 C1295 0.961 1_556 S
H1283 C1295 0.959 . S
H1284 C1298 0.929 . S
H1285 C1299 0.931 . S
H1286 C1301 0.930 . S
C1287 H1275 0.930 . S
C1287 C1288 1.399 . S
C1287 C1292 1.399 . S
C1288 C1287 1.399 . S
C1288 C1289 1.376 . S
C1289 H1276 0.930 . S
C1289 C1288 1.376 . S
C1289 C1290 1.388 . S
C1290 H1277 0.930 . S
C1290 C1289 1.388 . S
C1290 C1291 1.390 . S
C1291 C1290 1.390 . S
C1291 C1292 1.394 . S
C1291 C1297 1.465 . S
C1292 C1287 1.399 . S
C1292 C1291 1.394 . S
C1292 C1293 1.516 . S
C1293 C1292 1.516 . S
C1293 C1294 1.502 . S
C1293 C1295 1.561 . S
C1293 C1296 1.526 . S
C1294 H1278 0.959 . S
C1294 H1279 0.959 1_554 S
C1294 H1280 0.961 1_554 S
C1294 C1293 1.502 . S
C1295 H1281 0.960 1_554 S
C1295 H1282 0.961 1_554 S
C1295 H1283 0.959 . S
C1295 C1293 1.561 . S
C1296 C1293 1.526 . S
C1296 C1297 1.396 . S
C1296 C1301 1.390 . S
C1297 C1291 1.465 . S
C1297 C1296 1.396 . S
C1297 C1298 1.399 . S
C1298 H1284 0.929 . S
C1298 C1297 1.399 . S
C1298 C1299 1.385 . S
C1299 H1285 0.931 . S
C1299 C1298 1.385 . S
C1299 C1300 1.389 . S
C1300 C1299 1.389 . S
C1300 C1301 1.387 . S
C1301 H1286 0.930 . S
C1301 C1296 1.390 . S
C1301 C1300 1.387 . S
H1302 C1314 0.930 . S
H1303 C1316 0.930 . S
H1304 C1317 0.930 . S
H1305 C1321 0.959 . S
H1306 C1321 0.959 . S
H1307 C1321 0.961 . S
H1308 C1322 0.960 . S
H1309 C1322 0.961 . S
H1310 C1322 0.959 . S
H1311 C1325 0.929 . S
H1312 C1326 0.931 . S
H1313 C1328 0.930 . S
C1314 H1302 0.930 . S
C1314 C1315 1.399 . S
C1314 C1319 1.399 . S
C1315 C1314 1.399 . S
C1315 C1316 1.376 . S
C1316 H1303 0.930 . S
C1316 C1315 1.376 . S
C1316 C1317 1.388 . S
C1317 H1304 0.930 . S
C1317 C1316 1.388 . S
C1317 C1318 1.390 . S
C1318 C1317 1.390 . S
C1318 C1319 1.394 . S
C1318 C1324 1.465 . S
C1319 C1314 1.399 . S
C1319 C1318 1.394 . S
C1319 C1320 1.516 . S
C1320 C1319 1.516 . S
C1320 C1321 1.502 . S
C1320 C1322 1.561 . S
C1320 C1323 1.526 . S
C1321 H1305 0.959 . S
C1321 H1306 0.959 . S
C1321 H1307 0.961 . S
C1321 C1320 1.502 . S
C1322 H1308 0.960 . S
C1322 H1309 0.961 . S
C1322 H1310 0.959 . S
C1322 C1320 1.561 . S
C1323 C1320 1.526 . S
C1323 C1324 1.396 . S
C1323 C1328 1.390 . S
C1324 C1318 1.465 . S
C1324 C1323 1.396 . S
C1324 C1325 1.399 . S
C1325 H1311 0.929 . S
C1325 C1324 1.399 . S
C1325 C1326 1.385 . S
C1326 H1312 0.931 . S
C1326 C1325 1.385 . S
C1326 C1327 1.389 . S
C1327 C1326 1.389 . S
C1327 C1328 1.387 . S
C1328 H1313 0.930 . S
C1328 C1323 1.390 . S
C1328 C1327 1.387 . S
H1329 C1341 0.930 . S
H1330 C1343 0.930 . S
H1331 C1344 0.930 . S
H1332 C1348 0.959 . S
H1333 C1348 0.959 . S
H1334 C1348 0.961 . S
H1335 C1349 0.960 . S
H1336 C1349 0.961 . S
H1337 C1349 0.959 . S
H1338 C1352 0.929 . S
H1339 C1353 0.931 . S
H1340 C1355 0.930 . S
C1341 H1329 0.930 . S
C1341 C1342 1.399 . S
C1341 C1346 1.399 . S
C1342 C1341 1.399 . S
C1342 C1343 1.376 . S
C1343 H1330 0.930 . S
C1343 C1342 1.376 . S
C1343 C1344 1.388 . S
C1344 H1331 0.930 . S
C1344 C1343 1.388 . S
C1344 C1345 1.390 . S
C1345 C1344 1.390 . S
C1345 C1346 1.394 . S
C1345 C1351 1.465 . S
C1346 C1341 1.399 . S
C1346 C1345 1.394 . S
C1346 C1347 1.516 . S
C1347 C1346 1.516 . S
C1347 C1348 1.502 . S
C1347 C1349 1.561 . S
C1347 C1350 1.526 . S
C1348 H1332 0.959 . S
C1348 H1333 0.959 . S
C1348 H1334 0.961 . S
C1348 C1347 1.502 . S
C1349 H1335 0.960 . S
C1349 H1336 0.961 . S
C1349 H1337 0.959 . S
C1349 C1347 1.561 . S
C1350 C1347 1.526 . S
C1350 C1351 1.396 . S
C1350 C1355 1.390 . S
C1351 C1345 1.465 . S
C1351 C1350 1.396 . S
C1351 C1352 1.399 . S
C1352 H1338 0.929 . S
C1352 C1351 1.399 . S
C1352 C1353 1.385 . S
C1353 H1339 0.931 . S
C1353 C1352 1.385 . S
C1353 C1354 1.389 . S
C1354 C1353 1.389 . S
C1354 C1355 1.387 . S
C1355 H1340 0.930 . S
C1355 C1350 1.390 . S
C1355 C1354 1.387 . S
H1356 C1368 0.930 . S
H1357 C1370 0.930 . S
H1358 C1371 0.930 . S
H1359 C1375 0.959 . S
H1360 C1375 0.959 . S
H1361 C1375 0.961 . S
H1362 C1376 0.960 . S
H1363 C1376 0.961 . S
H1364 C1376 0.959 . S
H1365 C1379 0.929 . S
H1366 C1380 0.931 . S
H1367 C1382 0.930 . S
C1368 H1356 0.930 . S
C1368 C1369 1.399 . S
C1368 C1373 1.399 . S
C1369 C1368 1.399 . S
C1369 C1370 1.376 . S
C1370 H1357 0.930 . S
C1370 C1369 1.376 . S
C1370 C1371 1.388 . S
C1371 H1358 0.930 . S
C1371 C1370 1.388 . S
C1371 C1372 1.390 . S
C1372 C1371 1.390 . S
C1372 C1373 1.394 . S
C1372 C1378 1.465 . S
C1373 C1368 1.399 . S
C1373 C1372 1.394 . S
C1373 C1374 1.516 . S
C1374 C1373 1.516 . S
C1374 C1375 1.502 . S
C1374 C1376 1.561 . S
C1374 C1377 1.526 . S
C1375 H1359 0.959 . S
C1375 H1360 0.959 . S
C1375 H1361 0.961 . S
C1375 C1374 1.502 . S
C1376 H1362 0.960 . S
C1376 H1363 0.961 . S
C1376 H1364 0.959 . S
C1376 C1374 1.561 . S
C1377 C1374 1.526 . S
C1377 C1378 1.396 . S
C1377 C1382 1.390 . S
C1378 C1372 1.465 . S
C1378 C1377 1.396 . S
C1378 C1379 1.399 . S
C1379 H1365 0.929 . S
C1379 C1378 1.399 . S
C1379 C1380 1.385 . S
C1380 H1366 0.931 . S
C1380 C1379 1.385 . S
C1380 C1381 1.389 . S
C1381 C1380 1.389 . S
C1381 C1382 1.387 . S
C1382 H1367 0.930 . S
C1382 C1377 1.390 . S
C1382 C1381 1.387 . S
H1383 C1395 0.930 . S
H1384 C1397 0.930 . S
H1385 C1398 0.930 . S
H1386 C1402 0.959 . S
H1387 C1402 0.959 . S
H1388 C1402 0.961 . S
H1389 C1403 0.960 . S
H1390 C1403 0.961 1_545 S
H1391 C1403 0.959 1_545 S
H1392 C1406 0.929 . S
H1393 C1407 0.931 . S
H1394 C1409 0.930 . S
C1395 H1383 0.930 . S
C1395 C1396 1.399 . S
C1395 C1400 1.399 . S
C1396 C1395 1.399 . S
C1396 C1397 1.376 . S
C1397 H1384 0.930 . S
C1397 C1396 1.376 . S
C1397 C1398 1.388 . S
C1398 H1385 0.930 . S
C1398 C1397 1.388 . S
C1398 C1399 1.390 . S
C1399 C1398 1.390 . S
C1399 C1400 1.394 . S
C1399 C1405 1.465 . S
C1400 C1395 1.399 . S
C1400 C1399 1.394 . S
C1400 C1401 1.516 . S
C1401 C1400 1.516 . S
C1401 C1402 1.502 . S
C1401 C1403 1.561 . S
C1401 C1404 1.526 . S
C1402 H1386 0.959 . S
C1402 H1387 0.959 . S
C1402 H1388 0.961 . S
C1402 C1401 1.502 . S
C1403 H1389 0.960 . S
C1403 H1390 0.961 1_565 S
C1403 H1391 0.959 1_565 S
C1403 C1401 1.561 . S
C1404 C1401 1.526 . S
C1404 C1405 1.396 . S
C1404 C1409 1.390 . S
C1405 C1399 1.465 . S
C1405 C1404 1.396 . S
C1405 C1406 1.399 . S
C1406 H1392 0.929 . S
C1406 C1405 1.399 . S
C1406 C1407 1.385 . S
C1407 H1393 0.931 . S
C1407 C1406 1.385 . S
C1407 C1408 1.389 . S
C1408 C1407 1.389 . S
C1408 C1409 1.387 . S
C1409 H1394 0.930 . S
C1409 C1404 1.390 . S
C1409 C1408 1.387 . S
H1410 C1422 0.930 . S
H1411 C1424 0.930 . S
H1412 C1425 0.930 . S
H1413 C1429 0.959 . S
H1414 C1429 0.959 . S
H1415 C1429 0.961 . S
H1416 C1430 0.960 . S
H1417 C1430 0.961 . S
H1418 C1430 0.959 . S
H1419 C1433 0.929 . S
H1420 C1434 0.931 . S
H1421 C1436 0.930 . S
C1422 H1410 0.930 . S
C1422 C1423 1.399 . S
C1422 C1427 1.399 . S
C1423 C1422 1.399 . S
C1423 C1424 1.376 . S
C1424 H1411 0.930 . S
C1424 C1423 1.376 . S
C1424 C1425 1.388 . S
C1425 H1412 0.930 . S
C1425 C1424 1.388 . S
C1425 C1426 1.390 . S
C1426 C1425 1.390 . S
C1426 C1427 1.394 . S
C1426 C1432 1.465 . S
C1427 C1422 1.399 . S
C1427 C1426 1.394 . S
C1427 C1428 1.516 . S
C1428 C1427 1.516 . S
C1428 C1429 1.502 . S
C1428 C1430 1.561 . S
C1428 C1431 1.526 . S
C1429 H1413 0.959 . S
C1429 H1414 0.959 . S
C1429 H1415 0.961 . S
C1429 C1428 1.502 . S
C1430 H1416 0.960 . S
C1430 H1417 0.961 . S
C1430 H1418 0.959 . S
C1430 C1428 1.561 . S
C1431 C1428 1.526 . S
C1431 C1432 1.396 . S
C1431 C1436 1.390 . S
C1432 C1426 1.465 . S
C1432 C1431 1.396 . S
C1432 C1433 1.399 . S
C1433 H1419 0.929 . S
C1433 C1432 1.399 . S
C1433 C1434 1.385 . S
C1434 H1420 0.931 . S
C1434 C1433 1.385 . S
C1434 C1435 1.389 . S
C1435 C1434 1.389 . S
C1435 C1436 1.387 . S
C1436 H1421 0.930 . S
C1436 C1431 1.390 . S
C1436 C1435 1.387 . S
H1437 C1449 0.930 . S
H1438 C1451 0.930 . S
H1439 C1452 0.930 . S
H1440 C1456 0.959 . S
H1441 C1456 0.959 . S
H1442 C1456 0.961 . S
H1443 C1457 0.960 . S
H1444 C1457 0.961 . S
H1445 C1457 0.959 . S
H1446 C1460 0.929 . S
H1447 C1461 0.931 . S
H1448 C1463 0.930 . S
C1449 H1437 0.930 . S
C1449 C1450 1.399 . S
C1449 C1454 1.399 . S
C1450 C1449 1.399 . S
C1450 C1451 1.376 . S
C1451 H1438 0.930 . S
C1451 C1450 1.376 . S
C1451 C1452 1.388 . S
C1452 H1439 0.930 . S
C1452 C1451 1.388 . S
C1452 C1453 1.390 . S
C1453 C1452 1.390 . S
C1453 C1454 1.394 . S
C1453 C1459 1.465 . S
C1454 C1449 1.399 . S
C1454 C1453 1.394 . S
C1454 C1455 1.516 . S
C1455 C1454 1.516 . S
C1455 C1456 1.502 . S
C1455 C1457 1.561 . S
C1455 C1458 1.526 . S
C1456 H1440 0.959 . S
C1456 H1441 0.959 . S
C1456 H1442 0.961 . S
C1456 C1455 1.502 . S
C1457 H1443 0.960 . S
C1457 H1444 0.961 . S
C1457 H1445 0.959 . S
C1457 C1455 1.561 . S
C1458 C1455 1.526 . S
C1458 C1459 1.396 . S
C1458 C1463 1.390 . S
C1459 C1453 1.465 . S
C1459 C1458 1.396 . S
C1459 C1460 1.399 . S
C1460 H1446 0.929 . S
C1460 C1459 1.399 . S
C1460 C1461 1.385 . S
C1461 H1447 0.931 . S
C1461 C1460 1.385 . S
C1461 C1462 1.389 . S
C1462 C1461 1.389 . S
C1462 C1463 1.387 . S
C1463 H1448 0.930 . S
C1463 C1458 1.390 . S
C1463 C1462 1.387 . S
H1464 C1476 0.930 . S
H1465 C1478 0.930 . S
H1466 C1479 0.930 . S
H1467 C1483 0.959 . S
H1468 C1483 0.959 . S
H1469 C1483 0.961 . S
H1470 C1484 0.960 . S
H1471 C1484 0.961 . S
H1472 C1484 0.959 . S
H1473 C1487 0.929 . S
H1474 C1488 0.931 . S
H1475 C1490 0.930 . S
C1476 H1464 0.930 . S
C1476 C1477 1.399 . S
C1476 C1481 1.399 . S
C1477 C1476 1.399 . S
C1477 C1478 1.376 . S
C1478 H1465 0.930 . S
C1478 C1477 1.376 . S
C1478 C1479 1.388 . S
C1479 H1466 0.930 . S
C1479 C1478 1.388 . S
C1479 C1480 1.390 . S
C1480 C1479 1.390 . S
C1480 C1481 1.394 . S
C1480 C1486 1.465 . S
C1481 C1476 1.399 . S
C1481 C1480 1.394 . S
C1481 C1482 1.516 . S
C1482 C1481 1.516 . S
C1482 C1483 1.502 . S
C1482 C1484 1.561 1_455 S
C1482 C1485 1.526 . S
C1483 H1467 0.959 . S
C1483 H1468 0.959 . S
C1483 H1469 0.961 . S
C1483 C1482 1.502 . S
C1484 H1470 0.960 . S
C1484 H1471 0.961 . S
C1484 H1472 0.959 . S
C1484 C1482 1.561 1_655 S
C1485 C1482 1.526 . S
C1485 C1486 1.396 . S
C1485 C1490 1.390 . S
C1486 C1480 1.465 . S
C1486 C1485 1.396 . S
C1486 C1487 1.399 1_556 S
C1487 H1473 0.929 . S
C1487 C1486 1.399 1_554 S
C1487 C1488 1.385 . S
C1488 H1474 0.931 . S
C1488 C1487 1.385 . S
C1488 C1489 1.389 1_554 S
C1489 C1488 1.389 1_556 S
C1489 C1490 1.387 . S
C1490 H1475 0.930 . S
C1490 C1485 1.390 . S
C1490 C1489 1.387 . S
H1491 C1503 0.930 . S
H1492 C1505 0.930 . S
H1493 C1506 0.930 . S
H1494 C1510 0.959 . S
H1495 C1510 0.959 . S
H1496 C1510 0.961 . S
H1497 C1511 0.960 . S
H1498 C1511 0.961 . S
H1499 C1511 0.959 . S
H1500 C1514 0.929 . S
H1501 C1515 0.931 . S
H1502 C1517 0.930 . S
C1503 H1491 0.930 . S
C1503 C1504 1.399 . S
C1503 C1508 1.399 . S
C1504 C1503 1.399 . S
C1504 C1505 1.376 . S
C1505 H1492 0.930 . S
C1505 C1504 1.376 . S
C1505 C1506 1.388 . S
C1506 H1493 0.930 . S
C1506 C1505 1.388 . S
C1506 C1507 1.390 . S
C1507 C1506 1.390 . S
C1507 C1508 1.394 . S
C1507 C1513 1.465 . S
C1508 C1503 1.399 . S
C1508 C1507 1.394 . S
C1508 C1509 1.516 . S
C1509 C1508 1.516 . S
C1509 C1510 1.502 . S
C1509 C1511 1.561 . S
C1509 C1512 1.526 . S
C1510 H1494 0.959 . S
C1510 H1495 0.959 . S
C1510 H1496 0.961 . S
C1510 C1509 1.502 . S
C1511 H1497 0.960 . S
C1511 H1498 0.961 . S
C1511 H1499 0.959 . S
C1511 C1509 1.561 . S
C1512 C1509 1.526 . S
C1512 C1513 1.396 . S
C1512 C1517 1.390 . S
C1513 C1507 1.465 . S
C1513 C1512 1.396 . S
C1513 C1514 1.399 . S
C1514 H1500 0.929 . S
C1514 C1513 1.399 . S
C1514 C1515 1.385 . S
C1515 H1501 0.931 . S
C1515 C1514 1.385 . S
C1515 C1516 1.389 . S
C1516 C1515 1.389 . S
C1516 C1517 1.387 . S
C1517 H1502 0.930 . S
C1517 C1512 1.390 . S
C1517 C1516 1.387 . S
H1518 C1530 0.930 . S
H1519 C1532 0.930 . S
H1520 C1533 0.930 . S
H1521 C1537 0.959 . S
H1522 C1537 0.959 . S
H1523 C1537 0.961 . S
H1524 C1538 0.960 . S
H1525 C1538 0.961 . S
H1526 C1538 0.959 . S
H1527 C1541 0.929 . S
H1528 C1542 0.931 . S
H1529 C1544 0.930 . S
C1530 H1518 0.930 . S
C1530 C1531 1.399 . S
C1530 C1535 1.399 . S
C1531 C1530 1.399 . S
C1531 C1532 1.376 . S
C1532 H1519 0.930 . S
C1532 C1531 1.376 . S
C1532 C1533 1.388 . S
C1533 H1520 0.930 . S
C1533 C1532 1.388 . S
C1533 C1534 1.390 . S
C1534 C1533 1.390 . S
C1534 C1535 1.394 . S
C1534 C1540 1.465 . S
C1535 C1530 1.399 . S
C1535 C1534 1.394 . S
C1535 C1536 1.516 . S
C1536 C1535 1.516 . S
C1536 C1537 1.502 . S
C1536 C1538 1.561 . S
C1536 C1539 1.526 . S
C1537 H1521 0.959 . S
C1537 H1522 0.959 . S
C1537 H1523 0.961 . S
C1537 C1536 1.502 . S
C1538 H1524 0.960 . S
C1538 H1525 0.961 . S
C1538 H1526 0.959 . S
C1538 C1536 1.561 . S
C1539 C1536 1.526 . S
C1539 C1540 1.396 . S
C1539 C1544 1.390 . S
C1540 C1534 1.465 . S
C1540 C1539 1.396 . S
C1540 C1541 1.399 . S
C1541 H1527 0.929 . S
C1541 C1540 1.399 . S
C1541 C1542 1.385 . S
C1542 H1528 0.931 . S
C1542 C1541 1.385 . S
C1542 C1543 1.389 . S
C1543 C1542 1.389 . S
C1543 C1544 1.387 . S
C1544 H1529 0.930 . S
C1544 C1539 1.390 . S
C1544 C1543 1.387 . S
H1545 C1557 0.930 . S
H1546 C1559 0.930 . S
H1547 C1560 0.930 . S
H1548 C1564 0.959 . S
H1549 C1564 0.959 . S
H1550 C1564 0.961 . S
H1551 C1565 0.960 . S
H1552 C1565 0.961 . S
H1553 C1565 0.959 . S
H1554 C1568 0.929 . S
H1555 C1569 0.931 . S
H1556 C1571 0.930 . S
C1557 H1545 0.930 . S
C1557 C1558 1.399 . S
C1557 C1562 1.399 . S
C1558 C1557 1.399 . S
C1558 C1559 1.376 . S
C1559 H1546 0.930 . S
C1559 C1558 1.376 . S
C1559 C1560 1.388 . S
C1560 H1547 0.930 . S
C1560 C1559 1.388 . S
C1560 C1561 1.390 . S
C1561 C1560 1.390 . S
C1561 C1562 1.394 . S
C1561 C1567 1.465 . S
C1562 C1557 1.399 . S
C1562 C1561 1.394 . S
C1562 C1563 1.516 . S
C1563 C1562 1.516 . S
C1563 C1564 1.502 . S
C1563 C1565 1.561 . S
C1563 C1566 1.526 . S
C1564 H1548 0.959 . S
C1564 H1549 0.959 . S
C1564 H1550 0.961 . S
C1564 C1563 1.502 . S
C1565 H1551 0.960 . S
C1565 H1552 0.961 . S
C1565 H1553 0.959 . S
C1565 C1563 1.561 . S
C1566 C1563 1.526 . S
C1566 C1567 1.396 . S
C1566 C1571 1.390 . S
C1567 C1561 1.465 . S
C1567 C1566 1.396 . S
C1567 C1568 1.399 . S
C1568 H1554 0.929 . S
C1568 C1567 1.399 . S
C1568 C1569 1.385 . S
C1569 H1555 0.931 . S
C1569 C1568 1.385 . S
C1569 C1570 1.389 . S
C1570 C1569 1.389 . S
C1570 C1571 1.387 . S
C1571 H1556 0.930 . S
C1571 C1566 1.390 . S
C1571 C1570 1.387 . S
H1572 C1584 0.930 . S
H1573 C1586 0.930 . S
H1574 C1587 0.939 . S
H1575 C1591 0.959 . S
H1576 C1591 0.959 . S
H1577 C1591 0.961 . S
H1578 C1592 0.960 . S
H1579 C1592 0.961 . S
H1580 C1592 0.959 1_655 S
H1581 C1595 0.929 . S
H1582 C1596 0.931 . S
H1583 C1598 0.930 . S
C1584 H1572 0.930 . S
C1584 C1585 1.399 . S
C1584 C1589 1.399 . S
C1585 C1584 1.399 . S
C1585 C1586 1.376 1_455 S
C1586 H1573 0.930 . S
C1586 C1585 1.376 1_655 S
C1586 C1587 1.394 . S
C1587 H1574 0.939 . S
C1587 C1586 1.394 . S
C1587 C1588 1.376 1_655 S
C1588 C1587 1.376 1_455 S
C1588 C1589 1.394 . S
C1588 C1594 1.465 . S
C1589 C1584 1.399 . S
C1589 C1588 1.394 . S
C1589 C1590 1.516 . S
C1590 C1589 1.516 . S
C1590 C1591 1.502 . S
C1590 C1592 1.561 . S
C1590 C1593 1.526 . S
C1591 H1575 0.959 . S
C1591 H1576 0.959 . S
C1591 H1577 0.961 . S
C1591 C1590 1.502 . S
C1592 H1578 0.960 . S
C1592 H1579 0.961 . S
C1592 H1580 0.959 1_455 S
C1592 C1590 1.561 . S
C1593 C1590 1.526 . S
C1593 C1594 1.396 . S
C1593 C1598 1.390 . S
C1594 C1588 1.465 . S
C1594 C1593 1.396 . S
C1594 C1595 1.399 . S
C1595 H1581 0.929 . S
C1595 C1594 1.399 . S
C1595 C1596 1.385 . S
C1596 H1582 0.931 . S
C1596 C1595 1.385 . S
C1596 C1597 1.389 . S
C1597 C1596 1.389 . S
C1597 C1598 1.387 . S
C1598 H1583 0.930 . S
C1598 C1593 1.390 . S
C1598 C1597 1.387 . S
H1599 C1611 0.930 . S
H1600 C1613 0.930 . S
H1601 C1614 0.930 . S
H1602 C1618 0.959 . S
H1603 C1618 0.959 . S
H1604 C1618 0.961 . S
H1605 C1619 0.960 . S
H1606 C1619 0.961 . S
H1607 C1619 0.959 . S
H1608 C1622 0.929 . S
H1609 C1623 0.931 . S
H1610 C1625 0.930 . S
C1611 H1599 0.930 . S
C1611 C1612 1.399 . S
C1611 C1616 1.399 . S
C1612 C1611 1.399 . S
C1612 C1613 1.376 . S
C1613 H1600 0.930 . S
C1613 C1612 1.376 . S
C1613 C1614 1.388 . S
C1614 H1601 0.930 . S
C1614 C1613 1.388 . S
C1614 C1615 1.390 . S
C1615 C1614 1.390 . S
C1615 C1616 1.394 . S
C1615 C1621 1.465 . S
C1616 C1611 1.399 . S
C1616 C1615 1.394 . S
C1616 C1617 1.516 . S
C1617 C1616 1.516 . S
C1617 C1618 1.502 . S
C1617 C1619 1.561 . S
C1617 C1620 1.526 . S
C1618 H1602 0.959 . S
C1618 H1603 0.959 . S
C1618 H1604 0.961 . S
C1618 C1617 1.502 . S
C1619 H1605 0.960 . S
C1619 H1606 0.961 . S
C1619 H1607 0.959 . S
C1619 C1617 1.561 . S
C1620 C1617 1.526 . S
C1620 C1621 1.396 . S
C1620 C1625 1.390 . S
C1621 C1615 1.465 . S
C1621 C1620 1.396 . S
C1621 C1622 1.399 . S
C1622 H1608 0.929 . S
C1622 C1621 1.399 . S
C1622 C1623 1.385 . S
C1623 H1609 0.931 . S
C1623 C1622 1.385 . S
C1623 C1624 1.389 . S
C1624 C1623 1.389 . S
C1624 C1625 1.387 . S
C1625 H1610 0.930 . S
C1625 C1620 1.390 . S
C1625 C1624 1.387 . S
H1626 C1638 0.930 . S
H1627 C1640 0.930 . S
H1628 C1641 0.930 . S
H1629 C1645 0.959 . S
H1630 C1645 0.959 . S
H1631 C1645 0.961 . S
H1632 C1646 0.960 . S
H1633 C1646 0.961 . S
H1634 C1646 0.959 . S
H1635 C1649 0.929 . S
H1636 C1650 0.931 . S
H1637 C1652 0.930 . S
C1638 H1626 0.930 . S
C1638 C1639 1.399 . S
C1638 C1643 1.399 . S
C1639 C1638 1.399 . S
C1639 C1640 1.376 . S
C1640 H1627 0.930 . S
C1640 C1639 1.376 . S
C1640 C1641 1.388 . S
C1641 H1628 0.930 . S
C1641 C1640 1.388 . S
C1641 C1642 1.390 . S
C1642 C1641 1.390 . S
C1642 C1643 1.394 . S
C1642 C1648 1.465 . S
C1643 C1638 1.399 . S
C1643 C1642 1.394 . S
C1643 C1644 1.516 . S
C1644 C1643 1.516 . S
C1644 C1645 1.502 . S
C1644 C1646 1.561 . S
C1644 C1647 1.526 . S
C1645 H1629 0.959 . S
C1645 H1630 0.959 . S
C1645 H1631 0.961 . S
C1645 C1644 1.502 . S
C1646 H1632 0.960 . S
C1646 H1633 0.961 . S
C1646 H1634 0.959 . S
C1646 C1644 1.561 . S
C1647 C1644 1.526 . S
C1647 C1648 1.396 . S
C1647 C1652 1.390 . S
C1648 C1642 1.465 . S
C1648 C1647 1.396 . S
C1648 C1649 1.399 . S
C1649 H1635 0.929 . S
C1649 C1648 1.399 . S
C1649 C1650 1.385 . S
C1650 H1636 0.931 . S
C1650 C1649 1.385 . S
C1650 C1651 1.389 . S
C1651 C1650 1.389 . S
C1651 C1652 1.387 . S
C1652 H1637 0.930 . S
C1652 C1647 1.390 . S
C1652 C1651 1.387 . S
H1653 C1665 0.930 . S
H1654 C1667 0.930 . S
H1655 C1668 0.930 . S
H1656 C1672 0.959 . S
H1657 C1672 0.959 . S
H1658 C1672 0.961 . S
H1659 C1673 0.960 . S
H1660 C1673 0.961 . S
H1661 C1673 0.959 . S
H1662 C1676 0.929 . S
H1663 C1677 0.931 . S
H1664 C1679 0.930 . S
C1665 H1653 0.930 . S
C1665 C1666 1.399 . S
C1665 C1670 1.399 . S
C1666 C1665 1.399 . S
C1666 C1667 1.376 . S
C1667 H1654 0.930 . S
C1667 C1666 1.376 . S
C1667 C1668 1.388 . S
C1668 H1655 0.930 . S
C1668 C1667 1.388 . S
C1668 C1669 1.390 . S
C1669 C1668 1.390 . S
C1669 C1670 1.394 . S
C1669 C1675 1.465 . S
C1670 C1665 1.399 . S
C1670 C1669 1.394 . S
C1670 C1671 1.516 . S
C1671 C1670 1.516 . S
C1671 C1672 1.502 . S
C1671 C1673 1.561 . S
C1671 C1674 1.526 . S
C1672 H1656 0.959 . S
C1672 H1657 0.959 . S
C1672 H1658 0.961 . S
C1672 C1671 1.502 . S
C1673 H1659 0.960 . S
C1673 H1660 0.961 . S
C1673 H1661 0.959 . S
C1673 C1671 1.561 . S
C1674 C1671 1.526 . S
C1674 C1675 1.396 . S
C1674 C1679 1.390 . S
C1675 C1669 1.465 . S
C1675 C1674 1.396 . S
C1675 C1676 1.399 . S
C1676 H1662 0.929 . S
C1676 C1675 1.399 . S
C1676 C1677 1.385 . S
C1677 H1663 0.931 . S
C1677 C1676 1.385 . S
C1677 C1678 1.389 . S
C1678 C1677 1.389 . S
C1678 C1679 1.387 . S
C1679 H1664 0.930 . S
C1679 C1674 1.390 . S
C1679 C1678 1.387 . S
H1680 C1692 0.930 . S
H1681 C1694 0.930 . S
H1682 C1695 0.930 . S
H1683 C1699 0.959 . S
H1684 C1699 0.959 . S
H1685 C1699 0.961 . S
H1686 C1700 0.960 . S
H1687 C1700 0.961 . S
H1688 C1700 0.959 . S
H1689 C1703 0.929 . S
H1690 C1704 0.931 . S
H1691 C1706 0.930 . S
C1692 H1680 0.930 . S
C1692 C1693 1.399 . S
C1692 C1697 1.399 . S
C1693 C1692 1.399 . S
C1693 C1694 1.376 . S
C1694 H1681 0.930 . S
C1694 C1693 1.376 . S
C1694 C1695 1.388 . S
C1695 H1682 0.930 . S
C1695 C1694 1.388 . S
C1695 C1696 1.390 . S
C1696 C1695 1.390 . S
C1696 C1697 1.394 . S
C1696 C1702 1.465 . S
C1697 C1692 1.399 . S
C1697 C1696 1.394 . S
C1697 C1698 1.516 . S
C1698 C1697 1.516 . S
C1698 C1699 1.502 . S
C1698 C1700 1.561 . S
C1698 C1701 1.526 . S
C1699 H1683 0.959 . S
C1699 H1684 0.959 . S
C1699 H1685 0.961 . S
C1699 C1698 1.502 . S
C1700 H1686 0.960 . S
C1700 H1687 0.961 . S
C1700 H1688 0.959 . S
C1700 C1698 1.561 . S
C1701 C1698 1.526 . S
C1701 C1702 1.396 . S
C1701 C1706 1.390 . S
C1702 C1696 1.465 . S
C1702 C1701 1.396 . S
C1702 C1703 1.399 . S
C1703 H1689 0.929 . S
C1703 C1702 1.399 . S
C1703 C1704 1.385 . S
C1704 H1690 0.931 . S
C1704 C1703 1.385 . S
C1704 C1705 1.389 . S
C1705 C1704 1.389 . S
C1705 C1706 1.387 . S
C1706 H1691 0.930 . S
C1706 C1701 1.390 . S
C1706 C1705 1.387 . S
H1707 C1719 0.930 . S
H1708 C1721 0.930 . S
H1709 C1722 0.930 . S
H1710 C1726 0.959 . S
H1711 C1726 0.959 . S
H1712 C1726 0.961 . S
H1713 C1727 0.960 . S
H1714 C1727 0.961 . S
H1715 C1727 0.959 . S
H1716 C1730 0.929 . S
H1717 C1731 0.931 . S
H1718 C1733 0.930 . S
C1719 H1707 0.930 . S
C1719 C1720 1.399 . S
C1719 C1724 1.399 . S
C1720 C1719 1.399 . S
C1720 C1721 1.376 . S
C1721 H1708 0.930 . S
C1721 C1720 1.376 . S
C1721 C1722 1.388 . S
C1722 H1709 0.930 . S
C1722 C1721 1.388 . S
C1722 C1723 1.390 . S
C1723 C1722 1.390 . S
C1723 C1724 1.394 . S
C1723 C1729 1.465 . S
C1724 C1719 1.399 . S
C1724 C1723 1.394 . S
C1724 C1725 1.516 . S
C1725 C1724 1.516 . S
C1725 C1726 1.502 . S
C1725 C1727 1.561 . S
C1725 C1728 1.526 . S
C1726 H1710 0.959 . S
C1726 H1711 0.959 . S
C1726 H1712 0.961 . S
C1726 C1725 1.502 . S
C1727 H1713 0.960 . S
C1727 H1714 0.961 . S
C1727 H1715 0.959 . S
C1727 C1725 1.561 . S
C1728 C1725 1.526 . S
C1728 C1729 1.396 . S
C1728 C1733 1.390 . S
C1729 C1723 1.465 . S
C1729 C1728 1.396 . S
C1729 C1730 1.399 . S
C1730 H1716 0.929 . S
C1730 C1729 1.399 . S
C1730 C1731 1.385 . S
C1731 H1717 0.931 . S
C1731 C1730 1.385 . S
C1731 C1732 1.389 . S
C1732 C1731 1.389 . S
C1732 C1733 1.387 . S
C1733 H1718 0.930 . S
C1733 C1728 1.390 . S
C1733 C1732 1.387 . S
H1734 C1746 0.930 . S
H1735 C1748 0.930 . S
H1736 C1749 0.930 . S
H1737 C1753 0.959 . S
H1738 C1753 0.959 . S
H1739 C1753 0.961 . S
H1740 C1754 0.960 . S
H1741 C1754 0.961 . S
H1742 C1754 0.959 . S
H1743 C1757 0.929 . S
H1744 C1758 0.931 . S
H1745 C1760 0.930 . S
C1746 H1734 0.930 . S
C1746 C1747 1.399 . S
C1746 C1751 1.399 . S
C1747 C1746 1.399 . S
C1747 C1748 1.376 1_545 S
C1748 H1735 0.930 . S
C1748 C1747 1.376 1_565 S
C1748 C1749 1.388 . S
C1749 H1736 0.930 . S
C1749 C1748 1.388 . S
C1749 C1750 1.390 1_565 S
C1750 C1749 1.390 1_545 S
C1750 C1751 1.394 . S
C1750 C1756 1.465 . S
C1751 C1746 1.399 . S
C1751 C1750 1.394 . S
C1751 C1752 1.516 . S
C1752 C1751 1.516 . S
C1752 C1753 1.502 . S
C1752 C1754 1.561 . S
C1752 C1755 1.526 . S
C1753 H1737 0.959 . S
C1753 H1738 0.959 . S
C1753 H1739 0.961 . S
C1753 C1752 1.502 . S
C1754 H1740 0.960 . S
C1754 H1741 0.961 . S
C1754 H1742 0.959 . S
C1754 C1752 1.561 . S
C1755 C1752 1.526 . S
C1755 C1756 1.396 . S
C1755 C1760 1.390 . S
C1756 C1750 1.465 . S
C1756 C1755 1.396 . S
C1756 C1757 1.399 1_545 S
C1757 H1743 0.929 . S
C1757 C1756 1.399 1_565 S
C1757 C1758 1.385 . S
C1758 H1744 0.931 . S
C1758 C1757 1.385 . S
C1758 C1759 1.389 1_565 S
C1759 C1758 1.389 1_545 S
C1759 C1760 1.387 . S
C1760 H1745 0.930 . S
C1760 C1755 1.390 . S
C1760 C1759 1.387 . S
H1761 C1773 0.930 . S
H1762 C1775 0.930 . S
H1763 C1776 0.930 . S
H1764 C1780 0.959 . S
H1765 C1780 0.959 . S
H1766 C1780 0.961 . S
H1767 C1781 0.960 . S
H1768 C1781 0.961 . S
H1769 C1781 0.959 . S
H1770 C1784 0.929 . S
H1771 C1785 0.931 . S
H1772 C1787 0.930 . S
C1773 H1761 0.930 . S
C1773 C1774 1.399 . S
C1773 C1778 1.399 . S
C1774 C1773 1.399 . S
C1774 C1775 1.376 . S
C1775 H1762 0.930 . S
C1775 C1774 1.376 . S
C1775 C1776 1.388 . S
C1776 H1763 0.930 . S
C1776 C1775 1.388 . S
C1776 C1777 1.390 . S
C1777 C1776 1.390 . S
C1777 C1778 1.394 . S
C1777 C1783 1.465 . S
C1778 C1773 1.399 . S
C1778 C1777 1.394 . S
C1778 C1779 1.516 . S
C1779 C1778 1.516 . S
C1779 C1780 1.502 . S
C1779 C1781 1.561 . S
C1779 C1782 1.526 . S
C1780 H1764 0.959 . S
C1780 H1765 0.959 . S
C1780 H1766 0.961 . S
C1780 C1779 1.502 . S
C1781 H1767 0.960 . S
C1781 H1768 0.961 . S
C1781 H1769 0.959 . S
C1781 C1779 1.561 . S
C1782 C1779 1.526 . S
C1782 C1783 1.396 . S
C1782 C1787 1.390 . S
C1783 C1777 1.465 . S
C1783 C1782 1.396 . S
C1783 C1784 1.399 . S
C1784 H1770 0.929 . S
C1784 C1783 1.399 . S
C1784 C1785 1.385 . S
C1785 H1771 0.931 . S
C1785 C1784 1.385 . S
C1785 C1786 1.389 . S
C1786 C1785 1.389 . S
C1786 C1787 1.387 . S
C1787 H1772 0.930 . S
C1787 C1782 1.390 . S
C1787 C1786 1.387 . S
H1788 C1800 0.930 . S
H1789 C1802 0.930 . S
H1790 C1803 0.930 . S
H1791 C1807 0.959 1_455 S
H1792 C1807 0.959 1_455 S
H1793 C1807 0.961 . S
H1794 C1808 0.960 . S
H1795 C1808 0.961 . S
H1796 C1808 0.959 . S
H1797 C1811 0.929 . S
H1798 C1812 0.931 . S
H1799 C1814 0.930 1_455 S
C1800 H1788 0.930 . S
C1800 C1801 1.399 . S
C1800 C1805 1.399 . S
C1801 C1800 1.399 . S
C1801 C1802 1.376 . S
C1802 H1789 0.930 . S
C1802 C1801 1.376 . S
C1802 C1803 1.388 . S
C1803 H1790 0.930 . S
C1803 C1802 1.388 . S
C1803 C1804 1.390 . S
C1804 C1803 1.390 . S
C1804 C1805 1.394 . S
C1804 C1810 1.465 . S
C1805 C1800 1.399 . S
C1805 C1804 1.394 . S
C1805 C1806 1.516 . S
C1806 C1805 1.516 . S
C1806 C1807 1.502 . S
C1806 C1808 1.561 1_545 S
C1806 C1809 1.526 . S
C1807 H1791 0.959 1_655 S
C1807 H1792 0.959 1_655 S
C1807 H1793 0.961 . S
C1807 C1806 1.502 . S
C1808 H1794 0.960 . S
C1808 H1795 0.961 . S
C1808 H1796 0.959 . S
C1808 C1806 1.561 1_565 S
C1809 C1806 1.526 . S
C1809 C1810 1.396 . S
C1809 C1814 1.390 . S
C1810 C1804 1.465 . S
C1810 C1809 1.396 . S
C1810 C1811 1.399 . S
C1811 H1797 0.929 . S
C1811 C1810 1.399 . S
C1811 C1812 1.385 . S
C1812 H1798 0.931 . S
C1812 C1811 1.385 . S
C1812 C1813 1.389 . S
C1813 C1812 1.389 . S
C1813 C1814 1.387 . S
C1814 H1799 0.930 1_655 S
C1814 C1809 1.390 . S
C1814 C1813 1.387 . S
H1815 C1827 0.930 . S
H1816 C1829 0.930 . S
H1817 C1830 0.930 . S
H1818 C1834 0.959 . S
H1819 C1834 0.959 . S
H1820 C1834 0.961 . S
H1821 C1835 0.960 . S
H1822 C1835 0.961 . S
H1823 C1835 0.959 . S
H1824 C1838 0.929 . S
H1825 C1839 0.931 . S
H1826 C1841 0.930 . S
C1827 H1815 0.930 . S
C1827 C1828 1.399 . S
C1827 C1832 1.399 . S
C1828 C1827 1.399 . S
C1828 C1829 1.376 . S
C1829 H1816 0.930 . S
C1829 C1828 1.376 . S
C1829 C1830 1.388 . S
C1830 H1817 0.930 . S
C1830 C1829 1.388 . S
C1830 C1831 1.390 . S
C1831 C1830 1.390 . S
C1831 C1832 1.394 . S
C1831 C1837 1.465 . S
C1832 C1827 1.399 . S
C1832 C1831 1.394 . S
C1832 C1833 1.516 . S
C1833 C1832 1.516 . S
C1833 C1834 1.502 . S
C1833 C1835 1.561 . S
C1833 C1836 1.526 . S
C1834 H1818 0.959 . S
C1834 H1819 0.959 . S
C1834 H1820 0.961 . S
C1834 C1833 1.502 . S
C1835 H1821 0.960 . S
C1835 H1822 0.961 . S
C1835 H1823 0.959 . S
C1835 C1833 1.561 . S
C1836 C1833 1.526 . S
C1836 C1837 1.396 . S
C1836 C1841 1.390 . S
C1837 C1831 1.465 . S
C1837 C1836 1.396 . S
C1837 C1838 1.399 . S
C1838 H1824 0.929 . S
C1838 C1837 1.399 . S
C1838 C1839 1.385 . S
C1839 H1825 0.931 . S
C1839 C1838 1.385 . S
C1839 C1840 1.389 . S
C1840 C1839 1.389 . S
C1840 C1841 1.387 . S
C1841 H1826 0.930 . S
C1841 C1836 1.390 . S
C1841 C1840 1.387 . S
H1842 C1854 0.930 . S
H1843 C1856 0.930 . S
H1844 C1857 0.930 . S
H1845 C1861 0.959 . S
H1846 C1861 0.959 . S
H1847 C1861 0.961 . S
H1848 C1862 0.960 . S
H1849 C1862 0.961 . S
H1850 C1862 0.959 . S
H1851 C1865 0.929 . S
H1852 C1866 0.931 . S
H1853 C1868 0.930 . S
C1854 H1842 0.930 . S
C1854 C1855 1.399 1_565 S
C1854 C1859 1.399 1_565 S
C1855 C1854 1.399 1_545 S
C1855 C1856 1.376 . S
C1856 H1843 0.930 . S
C1856 C1855 1.376 . S
C1856 C1857 1.388 . S
C1857 H1844 0.930 . S
C1857 C1856 1.388 . S
C1857 C1858 1.390 . S
C1858 C1857 1.390 . S
C1858 C1859 1.394 . S
C1858 C1864 1.465 . S
C1859 C1854 1.399 1_545 S
C1859 C1858 1.394 . S
C1859 C1860 1.516 1_545 S
C1860 C1859 1.516 1_565 S
C1860 C1861 1.502 . S
C1860 C1862 1.561 . S
C1860 C1863 1.526 1_565 S
C1861 H1845 0.959 . S
C1861 H1846 0.959 . S
C1861 H1847 0.961 . S
C1861 C1860 1.502 . S
C1862 H1848 0.960 . S
C1862 H1849 0.961 . S
C1862 H1850 0.959 . S
C1862 C1860 1.561 . S
C1863 C1860 1.526 1_545 S
C1863 C1864 1.396 . S
C1863 C1868 1.390 . S
C1864 C1858 1.465 . S
C1864 C1863 1.396 . S
C1864 C1865 1.399 . S
C1865 H1851 0.929 . S
C1865 C1864 1.399 . S
C1865 C1866 1.385 . S
C1866 H1852 0.931 . S
C1866 C1865 1.385 . S
C1866 C1867 1.389 . S
C1867 C1866 1.389 . S
C1867 C1868 1.387 . S
C1868 H1853 0.930 . S
C1868 C1863 1.390 . S
C1868 C1867 1.387 . S
H1869 C1881 0.930 . S
H1870 C1883 0.930 . S
H1871 C1884 0.930 . S
H1872 C1888 0.959 . S
H1873 C1888 0.959 . S
H1874 C1888 0.961 . S
H1875 C1889 0.960 . S
H1876 C1889 0.961 . S
H1877 C1889 0.959 . S
H1878 C1892 0.929 . S
H1879 C1893 0.931 . S
H1880 C1895 0.930 . S
C1881 H1869 0.930 . S
C1881 C1882 1.399 . S
C1881 C1886 1.399 . S
C1882 C1881 1.399 . S
C1882 C1883 1.376 . S
C1883 H1870 0.930 . S
C1883 C1882 1.376 . S
C1883 C1884 1.388 . S
C1884 H1871 0.930 . S
C1884 C1883 1.388 . S
C1884 C1885 1.390 . S
C1885 C1884 1.390 . S
C1885 C1886 1.394 . S
C1885 C1891 1.465 . S
C1886 C1881 1.399 . S
C1886 C1885 1.394 . S
C1886 C1887 1.516 . S
C1887 C1886 1.516 . S
C1887 C1888 1.502 . S
C1887 C1889 1.561 . S
C1887 C1890 1.526 . S
C1888 H1872 0.959 . S
C1888 H1873 0.959 . S
C1888 H1874 0.961 . S
C1888 C1887 1.502 . S
C1889 H1875 0.960 . S
C1889 H1876 0.961 . S
C1889 H1877 0.959 . S
C1889 C1887 1.561 . S
C1890 C1887 1.526 . S
C1890 C1891 1.396 . S
C1890 C1895 1.390 . S
C1891 C1885 1.465 . S
C1891 C1890 1.396 . S
C1891 C1892 1.399 . S
C1892 H1878 0.929 . S
C1892 C1891 1.399 . S
C1892 C1893 1.385 . S
C1893 H1879 0.931 . S
C1893 C1892 1.385 . S
C1893 C1894 1.389 . S
C1894 C1893 1.389 . S
C1894 C1895 1.387 . S
C1895 H1880 0.930 . S
C1895 C1890 1.390 . S
C1895 C1894 1.387 . S
H1896 C1908 0.930 1_556 S
H1897 C1910 0.930 . S
H1898 C1911 0.930 . S
H1899 C1915 0.931 1_554 S
H1900 C1915 0.959 . S
H1901 C1915 0.961 . S
H1902 C1916 0.960 . S
H1903 C1916 0.961 . S
H1904 C1916 0.932 1_545 S
H1905 C1919 0.929 . S
H1906 C1920 0.931 . S
H1907 C1922 0.930 . S
C1908 H1896 0.930 1_554 S
C1908 C1909 1.399 . S
C1908 C1913 1.399 . S
C1909 C1908 1.399 . S
C1909 C1910 1.376 . S
C1910 H1897 0.930 . S
C1910 C1909 1.376 . S
C1910 C1911 1.388 . S
C1911 H1898 0.930 . S
C1911 C1910 1.388 . S
C1911 C1912 1.390 . S
C1912 C1911 1.390 . S
C1912 C1913 1.394 . S
C1912 C1918 1.465 . S
C1913 C1908 1.399 . S
C1913 C1912 1.394 . S
C1913 C1914 1.515 1_554 S
C1914 C1913 1.515 1_556 S
C1914 C1915 1.503 . S
C1914 C1916 1.563 . S
C1914 C1917 1.524 1_556 S
C1915 H1899 0.931 1_556 S
C1915 H1900 0.959 . S
C1915 H1901 0.961 . S
C1915 C1914 1.503 . S
C1916 H1902 0.960 . S
C1916 H1903 0.961 . S
C1916 H1904 0.932 1_565 S
C1916 C1914 1.563 . S
C1917 C1914 1.524 1_554 S
C1917 C1918 1.396 . S
C1917 C1922 1.390 . S
C1918 C1912 1.465 . S
C1918 C1917 1.396 . S
C1918 C1919 1.399 . S
C1919 H1905 0.929 . S
C1919 C1918 1.399 . S
C1919 C1920 1.385 1_565 S
C1920 H1906 0.931 . S
C1920 C1919 1.385 1_545 S
C1920 C1921 1.389 . S
C1921 C1920 1.389 . S
C1921 C1922 1.387 1_545 S
C1922 H1907 0.930 . S
C1922 C1917 1.390 . S
C1922 C1921 1.387 1_565 S
H1923 C1935 0.930 . S
H1924 C1937 0.930 . S
H1925 C1938 0.930 . S
H1926 C1942 0.959 . S
H1927 C1942 0.959 . S
H1928 C1942 0.961 . S
H1929 C1943 0.960 . S
H1930 C1943 0.961 . S
H1931 C1943 0.959 . S
H1932 C1946 0.929 . S
H1933 C1947 0.931 . S
H1934 C1949 0.930 . S
C1935 H1923 0.930 . S
C1935 C1936 1.400 1_554 S
C1935 C1940 1.399 . S
C1936 C1935 1.400 1_556 S
C1936 C1937 1.376 . S
C1937 H1924 0.930 . S
C1937 C1936 1.376 . S
C1937 C1938 1.388 . S
C1938 H1925 0.930 . S
C1938 C1937 1.388 . S
C1938 C1939 1.390 . S
C1939 C1938 1.390 . S
C1939 C1940 1.394 1_556 S
C1939 C1945 1.465 . S
C1940 C1935 1.399 . S
C1940 C1939 1.394 1_554 S
C1940 C1941 1.516 . S
C1941 C1940 1.516 . S
C1941 C1942 1.502 . S
C1941 C1943 1.561 . S
C1941 C1944 1.526 . S
C1942 H1926 0.959 . S
C1942 H1927 0.959 . S
C1942 H1928 0.961 . S
C1942 C1941 1.502 . S
C1943 H1929 0.960 . S
C1943 H1930 0.961 . S
C1943 H1931 0.959 . S
C1943 C1941 1.561 . S
C1944 C1941 1.526 . S
C1944 C1945 1.393 1_554 S
C1944 C1949 1.390 . S
C1945 C1939 1.465 . S
C1945 C1944 1.393 1_556 S
C1945 C1946 1.401 . S
C1946 H1932 0.929 . S
C1946 C1945 1.401 . S
C1946 C1947 1.385 . S
C1947 H1933 0.931 . S
C1947 C1946 1.385 . S
C1947 C1948 1.389 1_556 S
C1948 C1947 1.389 1_554 S
C1948 C1949 1.387 . S
C1949 H1934 0.930 . S
C1949 C1944 1.390 . S
C1949 C1948 1.387 . S
H1950 C1962 0.930 . S
H1951 C1964 0.930 . S
H1952 C1965 0.930 . S
H1953 C1969 0.959 . S
H1954 C1969 0.959 . S
H1955 C1969 0.961 . S
H1956 C1970 0.960 . S
H1957 C1970 0.961 . S
H1958 C1970 0.959 . S
H1959 C1973 0.929 . S
H1960 C1974 0.931 . S
H1961 C1976 0.930 . S
C1962 H1950 0.930 . S
C1962 C1963 1.399 . S
C1962 C1967 1.399 . S
C1963 C1962 1.399 . S
C1963 C1964 1.376 . S
C1964 H1951 0.930 . S
C1964 C1963 1.376 . S
C1964 C1965 1.388 . S
C1965 H1952 0.930 . S
C1965 C1964 1.388 . S
C1965 C1966 1.390 . S
C1966 C1965 1.390 . S
C1966 C1967 1.394 . S
C1966 C1972 1.465 . S
C1967 C1962 1.399 . S
C1967 C1966 1.394 . S
C1967 C1968 1.516 . S
C1968 C1967 1.516 . S
C1968 C1969 1.502 . S
C1968 C1970 1.561 . S
C1968 C1971 1.526 . S
C1969 H1953 0.959 . S
C1969 H1954 0.959 . S
C1969 H1955 0.961 . S
C1969 C1968 1.502 . S
C1970 H1956 0.960 . S
C1970 H1957 0.961 . S
C1970 H1958 0.959 . S
C1970 C1968 1.561 . S
C1971 C1968 1.526 . S
C1971 C1972 1.396 . S
C1971 C1976 1.390 . S
C1972 C1966 1.465 . S
C1972 C1971 1.396 . S
C1972 C1973 1.399 . S
C1973 H1959 0.929 . S
C1973 C1972 1.399 . S
C1973 C1974 1.385 . S
C1974 H1960 0.931 . S
C1974 C1973 1.385 . S
C1974 C1975 1.389 . S
C1975 C1974 1.389 . S
C1975 C1976 1.387 . S
C1976 H1961 0.930 . S
C1976 C1971 1.390 . S
C1976 C1975 1.387 . S
H1977 C1989 0.930 . S
H1978 C1991 0.930 . S
H1979 C1992 0.930 . S
H1980 C1996 0.959 . S
H1981 C1996 0.959 . S
H1982 C1996 0.961 . S
H1983 C1997 0.960 . S
H1984 C1997 0.961 . S
H1985 C1997 0.959 . S
H1986 C2000 0.929 . S
H1987 C2001 0.931 . S
H1988 C2003 0.930 . S
C1989 H1977 0.930 . S
C1989 C1990 1.399 . S
C1989 C1994 1.399 . S
C1990 C1989 1.399 . S
C1990 C1991 1.376 . S
C1991 H1978 0.930 . S
C1991 C1990 1.376 . S
C1991 C1992 1.388 . S
C1992 H1979 0.930 . S
C1992 C1991 1.388 . S
C1992 C1993 1.390 . S
C1993 C1992 1.390 . S
C1993 C1994 1.394 . S
C1993 C1999 1.465 . S
C1994 C1989 1.399 . S
C1994 C1993 1.394 . S
C1994 C1995 1.516 . S
C1995 C1994 1.516 . S
C1995 C1996 1.502 . S
C1995 C1997 1.561 . S
C1995 C1998 1.526 . S
C1996 H1980 0.959 . S
C1996 H1981 0.959 . S
C1996 H1982 0.961 . S
C1996 C1995 1.502 . S
C1997 H1983 0.960 . S
C1997 H1984 0.961 . S
C1997 H1985 0.959 . S
C1997 C1995 1.561 . S
C1998 C1995 1.526 . S
C1998 C1999 1.396 . S
C1998 C2003 1.390 . S
C1999 C1993 1.465 . S
C1999 C1998 1.396 . S
C1999 C2000 1.399 . S
C2000 H1986 0.929 . S
C2000 C1999 1.399 . S
C2000 C2001 1.385 . S
C2001 H1987 0.931 . S
C2001 C2000 1.385 . S
C2001 C2002 1.389 . S
C2002 C2001 1.389 . S
C2002 C2003 1.387 . S
C2003 H1988 0.930 . S
C2003 C1998 1.390 . S
C2003 C2002 1.387 . S
H2004 C2016 0.930 . S
H2005 C2018 0.889 1_545 S
H2006 C2019 0.930 . S
H2007 C2023 0.959 . S
H2008 C2023 0.959 . S
H2009 C2023 0.961 . S
H2010 C2024 0.960 . S
H2011 C2024 0.961 . S
H2012 C2024 0.959 . S
H2013 C2027 0.929 . S
H2014 C2028 0.931 . S
H2015 C2030 0.930 . S
C2016 H2004 0.930 . S
C2016 C2017 1.399 . S
C2016 C2021 1.399 . S
C2017 C2016 1.399 . S
C2017 C2018 1.382 . S
C2018 H2005 0.889 1_565 S
C2018 C2017 1.382 . S
C2018 C2019 1.425 . S
C2019 H2006 0.930 . S
C2019 C2018 1.425 . S
C2019 C2020 1.390 . S
C2020 C2019 1.390 . S
C2020 C2021 1.394 . S
C2020 C2026 1.465 . S
C2021 C2016 1.399 . S
C2021 C2020 1.394 . S
C2021 C2022 1.516 . S
C2022 C2021 1.516 . S
C2022 C2023 1.502 . S
C2022 C2024 1.561 . S
C2022 C2025 1.526 . S
C2023 H2007 0.959 . S
C2023 H2008 0.959 . S
C2023 H2009 0.961 . S
C2023 C2022 1.502 . S
C2024 H2010 0.960 . S
C2024 H2011 0.961 . S
C2024 H2012 0.959 . S
C2024 C2022 1.561 . S
C2025 C2022 1.526 . S
C2025 C2026 1.396 . S
C2025 C2030 1.390 . S
C2026 C2020 1.465 . S
C2026 C2025 1.396 . S
C2026 C2027 1.399 . S
C2027 H2013 0.929 . S
C2027 C2026 1.399 . S
C2027 C2028 1.385 . S
C2028 H2014 0.931 . S
C2028 C2027 1.385 . S
C2028 C2029 1.389 . S
C2029 C2028 1.389 . S
C2029 C2030 1.387 . S
C2030 H2015 0.930 . S
C2030 C2025 1.390 . S
C2030 C2029 1.387 . S
H2031 C2043 0.930 . S
H2032 C2045 0.930 . S
H2033 C2046 0.930 . S
H2034 C2050 0.959 . S
H2035 C2050 0.959 . S
H2036 C2050 0.961 . S
H2037 C2051 0.960 . S
H2038 C2051 0.961 . S
H2039 C2051 0.959 . S
H2040 C2054 0.929 . S
H2041 C2055 0.931 . S
H2042 C2057 0.930 . S
C2043 H2031 0.930 . S
C2043 C2044 1.399 . S
C2043 C2048 1.399 . S
C2044 C2043 1.399 . S
C2044 C2045 1.376 . S
C2045 H2032 0.930 . S
C2045 C2044 1.376 . S
C2045 C2046 1.388 . S
C2046 H2033 0.930 . S
C2046 C2045 1.388 . S
C2046 C2047 1.390 . S
C2047 C2046 1.390 . S
C2047 C2048 1.394 . S
C2047 C2053 1.465 . S
C2048 C2043 1.399 . S
C2048 C2047 1.394 . S
C2048 C2049 1.516 . S
C2049 C2048 1.516 . S
C2049 C2050 1.502 . S
C2049 C2051 1.561 . S
C2049 C2052 1.526 . S
C2050 H2034 0.959 . S
C2050 H2035 0.959 . S
C2050 H2036 0.961 . S
C2050 C2049 1.502 . S
C2051 H2037 0.960 . S
C2051 H2038 0.961 . S
C2051 H2039 0.959 . S
C2051 C2049 1.561 . S
C2052 C2049 1.526 . S
C2052 C2053 1.396 . S
C2052 C2057 1.390 . S
C2053 C2047 1.465 . S
C2053 C2052 1.396 . S
C2053 C2054 1.399 . S
C2054 H2040 0.929 . S
C2054 C2053 1.399 . S
C2054 C2055 1.385 . S
C2055 H2041 0.931 . S
C2055 C2054 1.385 . S
C2055 C2056 1.389 . S
C2056 C2055 1.389 . S
C2056 C2057 1.387 . S
C2057 H2042 0.930 . S
C2057 C2052 1.390 . S
C2057 C2056 1.387 . S
H2058 C2070 0.930 . S
H2059 C2072 0.930 . S
H2060 C2073 0.930 . S
H2061 C2077 0.959 . S
H2062 C2077 0.959 . S
H2063 C2077 0.961 . S
H2064 C2078 0.960 . S
H2065 C2078 0.961 . S
H2066 C2078 0.959 . S
H2067 C2081 0.929 . S
H2068 C2082 0.931 . S
H2069 C2084 0.930 . S
C2070 H2058 0.930 . S
C2070 C2071 1.399 . S
C2070 C2075 1.399 . S
C2071 C2070 1.399 . S
C2071 C2072 1.376 . S
C2072 H2059 0.930 . S
C2072 C2071 1.376 . S
C2072 C2073 1.388 . S
C2073 H2060 0.930 . S
C2073 C2072 1.388 . S
C2073 C2074 1.390 . S
C2074 C2073 1.390 . S
C2074 C2075 1.394 . S
C2074 C2080 1.465 . S
C2075 C2070 1.399 . S
C2075 C2074 1.394 . S
C2075 C2076 1.516 . S
C2076 C2075 1.516 . S
C2076 C2077 1.502 . S
C2076 C2078 1.561 . S
C2076 C2079 1.526 . S
C2077 H2061 0.959 . S
C2077 H2062 0.959 . S
C2077 H2063 0.961 . S
C2077 C2076 1.502 . S
C2078 H2064 0.960 . S
C2078 H2065 0.961 . S
C2078 H2066 0.959 . S
C2078 C2076 1.561 . S
C2079 C2076 1.526 . S
C2079 C2080 1.396 . S
C2079 C2084 1.390 . S
C2080 C2074 1.465 . S
C2080 C2079 1.396 . S
C2080 C2081 1.399 . S
C2081 H2067 0.929 . S
C2081 C2080 1.399 . S
C2081 C2082 1.385 . S
C2082 H2068 0.931 . S
C2082 C2081 1.385 . S
C2082 C2083 1.389 . S
C2083 C2082 1.389 . S
C2083 C2084 1.387 . S
C2084 H2069 0.930 . S
C2084 C2079 1.390 . S
C2084 C2083 1.387 . S
H2085 C2097 0.930 . S
H2086 C2099 0.930 . S
H2087 C2100 0.930 . S
H2088 C2104 0.959 . S
H2089 C2104 0.959 . S
H2090 C2104 0.961 . S
H2091 C2105 0.960 . S
H2092 C2105 0.961 . S
H2093 C2105 0.959 . S
H2094 C2108 0.929 . S
H2095 C2109 0.931 . S
H2096 C2111 0.930 . S
C2097 H2085 0.930 . S
C2097 C2098 1.399 . S
C2097 C2102 1.399 . S
C2098 C2097 1.399 . S
C2098 C2099 1.376 . S
C2099 H2086 0.930 . S
C2099 C2098 1.376 . S
C2099 C2100 1.388 . S
C2100 H2087 0.930 . S
C2100 C2099 1.388 . S
C2100 C2101 1.390 . S
C2101 C2100 1.390 . S
C2101 C2102 1.394 . S
C2101 C2107 1.465 . S
C2102 C2097 1.399 . S
C2102 C2101 1.394 . S
C2102 C2103 1.516 . S
C2103 C2102 1.516 . S
C2103 C2104 1.502 . S
C2103 C2105 1.561 . S
C2103 C2106 1.526 . S
C2104 H2088 0.959 . S
C2104 H2089 0.959 . S
C2104 H2090 0.961 . S
C2104 C2103 1.502 . S
C2105 H2091 0.960 . S
C2105 H2092 0.961 . S
C2105 H2093 0.959 . S
C2105 C2103 1.561 . S
C2106 C2103 1.526 . S
C2106 C2107 1.396 . S
C2106 C2111 1.390 . S
C2107 C2101 1.465 . S
C2107 C2106 1.396 . S
C2107 C2108 1.399 . S
C2108 H2094 0.929 . S
C2108 C2107 1.399 . S
C2108 C2109 1.385 . S
C2109 H2095 0.931 . S
C2109 C2108 1.385 . S
C2109 C2110 1.389 . S
C2110 C2109 1.389 . S
C2110 C2111 1.387 . S
C2111 H2096 0.930 . S
C2111 C2106 1.390 . S
C2111 C2110 1.387 . S
H2112 C2124 0.930 . S
H2113 C2126 0.930 . S
H2114 C2127 0.930 . S
H2115 C2131 0.959 . S
H2116 C2131 0.959 . S
H2117 C2131 0.961 . S
H2118 C2132 0.960 . S
H2119 C2132 0.961 . S
H2120 C2132 0.959 . S
H2121 C2135 0.929 . S
H2122 C2136 0.931 . S
H2123 C2138 0.930 . S
C2124 H2112 0.930 . S
C2124 C2125 1.399 . S
C2124 C2129 1.399 . S
C2125 C2124 1.399 . S
C2125 C2126 1.376 . S
C2126 H2113 0.930 . S
C2126 C2125 1.376 . S
C2126 C2127 1.388 . S
C2127 H2114 0.930 . S
C2127 C2126 1.388 . S
C2127 C2128 1.390 . S
C2128 C2127 1.390 . S
C2128 C2129 1.394 . S
C2128 C2134 1.465 . S
C2129 C2124 1.399 . S
C2129 C2128 1.394 . S
C2129 C2130 1.516 . S
C2130 C2129 1.516 . S
C2130 C2131 1.502 . S
C2130 C2132 1.561 . S
C2130 C2133 1.526 . S
C2131 H2115 0.959 . S
C2131 H2116 0.959 . S
C2131 H2117 0.961 . S
C2131 C2130 1.502 . S
C2132 H2118 0.960 . S
C2132 H2119 0.961 . S
C2132 H2120 0.959 . S
C2132 C2130 1.561 . S
C2133 C2130 1.526 . S
C2133 C2134 1.396 . S
C2133 C2138 1.390 . S
C2134 C2128 1.465 . S
C2134 C2133 1.396 . S
C2134 C2135 1.399 . S
C2135 H2121 0.929 . S
C2135 C2134 1.399 . S
C2135 C2136 1.385 . S
C2136 H2122 0.931 . S
C2136 C2135 1.385 . S
C2136 C2137 1.389 . S
C2137 C2136 1.389 . S
C2137 C2138 1.387 . S
C2138 H2123 0.930 . S
C2138 C2133 1.390 . S
C2138 C2137 1.387 . S
H2139 C2151 0.930 . S
H2140 C2153 0.930 . S
H2141 C2154 0.930 . S
H2142 C2158 0.959 . S
H2143 C2158 0.959 . S
H2144 C2158 0.961 . S
H2145 C2159 0.960 . S
H2146 C2159 0.961 . S
H2147 C2159 0.959 . S
H2148 C2162 0.929 . S
H2149 C2163 0.931 . S
H2150 C2165 0.930 . S
C2151 H2139 0.930 . S
C2151 C2152 1.399 . S
C2151 C2156 1.399 . S
C2152 C2151 1.399 . S
C2152 C2153 1.376 . S
C2153 H2140 0.930 . S
C2153 C2152 1.376 . S
C2153 C2154 1.388 . S
C2154 H2141 0.930 . S
C2154 C2153 1.388 . S
C2154 C2155 1.390 . S
C2155 C2154 1.390 . S
C2155 C2156 1.394 . S
C2155 C2161 1.465 . S
C2156 C2151 1.399 . S
C2156 C2155 1.394 . S
C2156 C2157 1.516 . S
C2157 C2156 1.516 . S
C2157 C2158 1.502 . S
C2157 C2159 1.561 . S
C2157 C2160 1.526 . S
C2158 H2142 0.959 . S
C2158 H2143 0.959 . S
C2158 H2144 0.961 . S
C2158 C2157 1.502 . S
C2159 H2145 0.960 . S
C2159 H2146 0.961 . S
C2159 H2147 0.959 . S
C2159 C2157 1.561 . S
C2160 C2157 1.526 . S
C2160 C2161 1.396 . S
C2160 C2165 1.390 . S
C2161 C2155 1.465 . S
C2161 C2160 1.396 . S
C2161 C2162 1.399 . S
C2162 H2148 0.929 . S
C2162 C2161 1.399 . S
C2162 C2163 1.385 . S
C2163 H2149 0.931 . S
C2163 C2162 1.385 . S
C2163 C2164 1.389 . S
C2164 C2163 1.389 . S
C2164 C2165 1.387 . S
C2165 H2150 0.930 . S
C2165 C2160 1.390 . S
C2165 C2164 1.387 . S
H2166 C2178 0.930 . S
H2167 C2180 0.930 . S
H2168 C2181 0.930 . S
H2169 C2185 0.959 . S
H2170 C2185 0.959 . S
H2171 C2185 0.961 . S
H2172 C2186 0.963 . S
H2173 C2186 0.961 . S
H2174 C2186 0.959 1_655 S
H2175 C2189 0.929 . S
H2176 C2190 0.931 . S
H2177 C2192 0.930 . S
C2178 H2166 0.930 . S
C2178 C2179 1.399 . S
C2178 C2183 1.399 . S
C2179 C2178 1.399 . S
C2179 C2180 1.376 . S
C2180 H2167 0.930 . S
C2180 C2179 1.376 . S
C2180 C2181 1.388 . S
C2181 H2168 0.930 . S
C2181 C2180 1.388 . S
C2181 C2182 1.390 . S
C2182 C2181 1.390 . S
C2182 C2183 1.394 . S
C2182 C2188 1.465 . S
C2183 C2178 1.399 . S
C2183 C2182 1.394 . S
C2183 C2184 1.516 . S
C2184 C2183 1.516 . S
C2184 C2185 1.502 . S
C2184 C2186 1.561 . S
C2184 C2187 1.526 . S
C2185 H2169 0.959 . S
C2185 H2170 0.959 . S
C2185 H2171 0.961 . S
C2185 C2184 1.502 . S
C2186 H2172 0.963 . S
C2186 H2173 0.961 . S
C2186 H2174 0.959 1_455 S
C2186 C2184 1.561 . S
C2187 C2184 1.526 . S
C2187 C2188 1.396 . S
C2187 C2192 1.390 . S
C2188 C2182 1.465 . S
C2188 C2187 1.396 . S
C2188 C2189 1.399 . S
C2189 H2175 0.929 . S
C2189 C2188 1.399 . S
C2189 C2190 1.385 . S
C2190 H2176 0.931 . S
C2190 C2189 1.385 . S
C2190 C2191 1.389 . S
C2191 C2190 1.389 . S
C2191 C2192 1.387 . S
C2192 H2177 0.930 . S
C2192 C2187 1.390 . S
C2192 C2191 1.387 . S
H2193 C2205 0.930 . S
H2194 C2207 0.930 1_455 S
H2195 C2208 0.930 . S
H2196 C2212 0.959 . S
H2197 C2212 0.959 . S
H2198 C2212 0.961 . S
H2199 C2213 0.960 . S
H2200 C2213 0.961 . S
H2201 C2213 0.959 . S
H2202 C2216 0.929 . S
H2203 C2217 0.931 . S
H2204 C2219 0.930 . S
C2205 H2193 0.930 . S
C2205 C2206 1.399 . S
C2205 C2210 1.399 . S
C2206 C2205 1.399 . S
C2206 C2207 1.376 . S
C2207 H2194 0.930 1_655 S
C2207 C2206 1.376 . S
C2207 C2208 1.388 . S
C2208 H2195 0.930 . S
C2208 C2207 1.388 . S
C2208 C2209 1.390 . S
C2209 C2208 1.390 . S
C2209 C2210 1.394 . S
C2209 C2215 1.465 . S
C2210 C2205 1.399 . S
C2210 C2209 1.394 . S
C2210 C2211 1.516 . S
C2211 C2210 1.516 . S
C2211 C2212 1.502 . S
C2211 C2213 1.561 . S
C2211 C2214 1.526 . S
C2212 H2196 0.959 . S
C2212 H2197 0.959 . S
C2212 H2198 0.961 . S
C2212 C2211 1.502 . S
C2213 H2199 0.960 . S
C2213 H2200 0.961 . S
C2213 H2201 0.959 . S
C2213 C2211 1.561 . S
C2214 C2211 1.526 . S
C2214 C2215 1.396 . S
C2214 C2219 1.390 . S
C2215 C2209 1.465 . S
C2215 C2214 1.396 . S
C2215 C2216 1.399 . S
C2216 H2202 0.929 . S
C2216 C2215 1.399 . S
C2216 C2217 1.385 . S
C2217 H2203 0.931 . S
C2217 C2216 1.385 . S
C2217 C2218 1.389 . S
C2218 C2217 1.389 . S
C2218 C2219 1.387 . S
C2219 H2204 0.930 . S
C2219 C2214 1.390 . S
C2219 C2218 1.387 . S
H2220 C2232 0.930 . S
H2221 C2234 0.930 . S
H2222 C2235 0.930 . S
H2223 C2239 0.959 . S
H2224 C2239 0.959 . S
H2225 C2239 0.961 . S
H2226 C2240 0.960 . S
H2227 C2240 0.961 . S
H2228 C2240 0.959 . S
H2229 C2243 0.929 . S
H2230 C2244 0.931 . S
H2231 C2246 0.930 . S
C2232 H2220 0.930 . S
C2232 C2233 1.399 . S
C2232 C2237 1.399 . S
C2233 C2232 1.399 . S
C2233 C2234 1.376 . S
C2234 H2221 0.930 . S
C2234 C2233 1.376 . S
C2234 C2235 1.388 . S
C2235 H2222 0.930 . S
C2235 C2234 1.388 . S
C2235 C2236 1.390 . S
C2236 C2235 1.390 . S
C2236 C2237 1.394 . S
C2236 C2242 1.465 . S
C2237 C2232 1.399 . S
C2237 C2236 1.394 . S
C2237 C2238 1.516 . S
C2238 C2237 1.516 . S
C2238 C2239 1.502 . S
C2238 C2240 1.561 . S
C2238 C2241 1.526 . S
C2239 H2223 0.959 . S
C2239 H2224 0.959 . S
C2239 H2225 0.961 . S
C2239 C2238 1.502 . S
C2240 H2226 0.960 . S
C2240 H2227 0.961 . S
C2240 H2228 0.959 . S
C2240 C2238 1.561 . S
C2241 C2238 1.526 . S
C2241 C2242 1.396 . S
C2241 C2246 1.390 . S
C2242 C2236 1.465 . S
C2242 C2241 1.396 . S
C2242 C2243 1.399 1_556 S
C2243 H2229 0.929 . S
C2243 C2242 1.399 1_554 S
C2243 C2244 1.385 . S
C2244 H2230 0.931 . S
C2244 C2243 1.385 . S
C2244 C2245 1.389 1_554 S
C2245 C2244 1.389 1_556 S
C2245 C2246 1.387 . S
C2246 H2231 0.930 . S
C2246 C2241 1.390 . S
C2246 C2245 1.387 . S
H2247 C2259 0.930 . S
H2248 C2261 0.930 . S
H2249 C2262 0.930 . S
H2250 C2266 0.959 . S
H2251 C2266 0.959 . S
H2252 C2266 0.961 . S
H2253 C2267 0.960 . S
H2254 C2267 0.961 . S
H2255 C2267 0.959 . S
H2256 C2270 0.929 . S
H2257 C2271 0.931 . S
H2258 C2273 0.930 . S
C2259 H2247 0.930 . S
C2259 C2260 1.399 . S
C2259 C2264 1.399 . S
C2260 C2259 1.399 . S
C2260 C2261 1.376 . S
C2261 H2248 0.930 . S
C2261 C2260 1.376 . S
C2261 C2262 1.388 . S
C2262 H2249 0.930 . S
C2262 C2261 1.388 . S
C2262 C2263 1.390 . S
C2263 C2262 1.390 . S
C2263 C2264 1.394 . S
C2263 C2269 1.465 . S
C2264 C2259 1.399 . S
C2264 C2263 1.394 . S
C2264 C2265 1.516 . S
C2265 C2264 1.516 . S
C2265 C2266 1.502 . S
C2265 C2267 1.561 . S
C2265 C2268 1.526 . S
C2266 H2250 0.959 . S
C2266 H2251 0.959 . S
C2266 H2252 0.961 . S
C2266 C2265 1.502 . S
C2267 H2253 0.960 . S
C2267 H2254 0.961 . S
C2267 H2255 0.959 . S
C2267 C2265 1.561 . S
C2268 C2265 1.526 . S
C2268 C2269 1.396 . S
C2268 C2273 1.390 . S
C2269 C2263 1.465 . S
C2269 C2268 1.396 . S
C2269 C2270 1.399 . S
C2270 H2256 0.929 . S
C2270 C2269 1.399 . S
C2270 C2271 1.385 . S
C2271 H2257 0.931 . S
C2271 C2270 1.385 . S
C2271 C2272 1.389 . S
C2272 C2271 1.389 . S
C2272 C2273 1.387 . S
C2273 H2258 0.930 . S
C2273 C2268 1.390 . S
C2273 C2272 1.387 . S
H2274 C2286 0.930 . S
H2275 C2288 0.930 . S
H2276 C2289 0.930 . S
H2277 C2293 0.959 . S
H2278 C2293 0.959 . S
H2279 C2293 0.961 . S
H2280 C2294 0.960 1_655 S
H2281 C2294 0.960 1_655 S
H2282 C2294 0.958 1_655 S
H2283 C2297 0.929 . S
H2284 C2298 0.931 . S
H2285 C2300 0.930 . S
C2286 H2274 0.930 . S
C2286 C2287 1.399 . S
C2286 C2291 1.399 . S
C2287 C2286 1.399 . S
C2287 C2288 1.376 . S
C2288 H2275 0.930 . S
C2288 C2287 1.376 . S
C2288 C2289 1.388 . S
C2289 H2276 0.930 . S
C2289 C2288 1.388 . S
C2289 C2290 1.390 . S
C2290 C2289 1.390 . S
C2290 C2291 1.394 . S
C2290 C2296 1.465 . S
C2291 C2286 1.399 . S
C2291 C2290 1.394 . S
C2291 C2292 1.516 . S
C2292 C2291 1.516 . S
C2292 C2293 1.502 . S
C2292 C2294 1.563 . S
C2292 C2295 1.526 . S
C2293 H2277 0.959 . S
C2293 H2278 0.959 . S
C2293 H2279 0.961 . S
C2293 C2292 1.502 . S
C2294 H2280 0.960 1_455 S
C2294 H2281 0.960 1_455 S
C2294 H2282 0.958 1_455 S
C2294 C2292 1.563 . S
C2295 C2292 1.526 . S
C2295 C2296 1.396 . S
C2295 C2300 1.390 . S
C2296 C2290 1.465 . S
C2296 C2295 1.396 . S
C2296 C2297 1.399 . S
C2297 H2283 0.929 . S
C2297 C2296 1.399 . S
C2297 C2298 1.385 . S
C2298 H2284 0.931 . S
C2298 C2297 1.385 . S
C2298 C2299 1.389 . S
C2299 C2298 1.389 . S
C2299 C2300 1.387 . S
C2300 H2285 0.930 . S
C2300 C2295 1.390 . S
C2300 C2299 1.387 . S
H2301 C2313 0.930 . S
H2302 C2315 0.930 . S
H2303 C2316 0.930 . S
H2304 C2320 0.959 . S
H2305 C2320 0.959 . S
H2306 C2320 0.961 . S
H2307 C2321 0.960 . S
H2308 C2321 0.961 . S
H2309 C2321 0.959 . S
H2310 C2324 0.929 . S
H2311 C2325 0.931 . S
H2312 C2327 0.930 . S
C2313 H2301 0.930 . S
C2313 C2314 1.399 . S
C2313 C2318 1.399 . S
C2314 C2313 1.399 . S
C2314 C2315 1.376 . S
C2315 H2302 0.930 . S
C2315 C2314 1.376 . S
C2315 C2316 1.388 . S
C2316 H2303 0.930 . S
C2316 C2315 1.388 . S
C2316 C2317 1.390 . S
C2317 C2316 1.390 . S
C2317 C2318 1.394 . S
C2317 C2323 1.465 . S
C2318 C2313 1.399 . S
C2318 C2317 1.394 . S
C2318 C2319 1.516 . S
C2319 C2318 1.516 . S
C2319 C2320 1.502 . S
C2319 C2321 1.561 . S
C2319 C2322 1.526 . S
C2320 H2304 0.959 . S
C2320 H2305 0.959 . S
C2320 H2306 0.961 . S
C2320 C2319 1.502 . S
C2321 H2307 0.960 . S
C2321 H2308 0.961 . S
C2321 H2309 0.959 . S
C2321 C2319 1.561 . S
C2322 C2319 1.526 . S
C2322 C2323 1.396 . S
C2322 C2327 1.390 . S
C2323 C2317 1.465 . S
C2323 C2322 1.396 . S
C2323 C2324 1.399 . S
C2324 H2310 0.929 . S
C2324 C2323 1.399 . S
C2324 C2325 1.385 . S
C2325 H2311 0.931 . S
C2325 C2324 1.385 . S
C2325 C2326 1.389 . S
C2326 C2325 1.389 . S
C2326 C2327 1.387 . S
C2327 H2312 0.930 . S
C2327 C2322 1.390 . S
C2327 C2326 1.387 . S
H2328 C2340 0.930 . S
H2329 C2342 0.930 . S
H2330 C2343 0.930 . S
H2331 C2347 0.959 . S
H2332 C2347 0.959 . S
H2333 C2347 0.961 . S
H2334 C2348 0.960 . S
H2335 C2348 0.961 . S
H2336 C2348 0.959 . S
H2337 C2351 0.929 . S
H2338 C2352 0.931 . S
H2339 C2354 0.930 . S
C2340 H2328 0.930 . S
C2340 C2341 1.399 . S
C2340 C2345 1.399 . S
C2341 C2340 1.399 . S
C2341 C2342 1.376 . S
C2342 H2329 0.930 . S
C2342 C2341 1.376 . S
C2342 C2343 1.388 . S
C2343 H2330 0.930 . S
C2343 C2342 1.388 . S
C2343 C2344 1.390 . S
C2344 C2343 1.390 . S
C2344 C2345 1.394 . S
C2344 C2350 1.465 . S
C2345 C2340 1.399 . S
C2345 C2344 1.394 . S
C2345 C2346 1.516 . S
C2346 C2345 1.516 . S
C2346 C2347 1.502 . S
C2346 C2348 1.561 . S
C2346 C2349 1.526 . S
C2347 H2331 0.959 . S
C2347 H2332 0.959 . S
C2347 H2333 0.961 . S
C2347 C2346 1.502 . S
C2348 H2334 0.960 . S
C2348 H2335 0.961 . S
C2348 H2336 0.959 . S
C2348 C2346 1.561 . S
C2349 C2346 1.526 . S
C2349 C2350 1.396 . S
C2349 C2354 1.390 . S
C2350 C2344 1.465 . S
C2350 C2349 1.396 . S
C2350 C2351 1.399 . S
C2351 H2337 0.929 . S
C2351 C2350 1.399 . S
C2351 C2352 1.385 . S
C2352 H2338 0.931 . S
C2352 C2351 1.385 . S
C2352 C2353 1.389 . S
C2353 C2352 1.389 . S
C2353 C2354 1.387 . S
C2354 H2339 0.930 . S
C2354 C2349 1.390 . S
C2354 C2353 1.387 . S
H2355 C2367 0.930 1_554 S
H2356 C2369 0.930 . S
H2357 C2370 0.930 . S
H2358 C2374 0.959 . S
H2359 C2374 0.959 . S
H2360 C2374 0.961 . S
H2361 C2375 0.960 . S
H2362 C2375 0.961 . S
H2363 C2375 0.959 . S
H2364 C2378 0.929 . S
H2365 C2379 0.931 . S
H2366 C2381 0.930 . S
C2367 H2355 0.930 1_556 S
C2367 C2368 1.399 . S
C2367 C2372 1.399 . S
C2368 C2367 1.399 . S
C2368 C2369 1.376 . S
C2369 H2356 0.930 . S
C2369 C2368 1.376 . S
C2369 C2370 1.388 . S
C2370 H2357 0.930 . S
C2370 C2369 1.388 . S
C2370 C2371 1.390 . S
C2371 C2370 1.390 . S
C2371 C2372 1.394 . S
C2371 C2377 1.465 . S
C2372 C2367 1.399 . S
C2372 C2371 1.394 . S
C2372 C2373 1.516 . S
C2373 C2372 1.516 . S
C2373 C2374 1.502 . S
C2373 C2375 1.561 . S
C2373 C2376 1.526 . S
C2374 H2358 0.959 . S
C2374 H2359 0.959 . S
C2374 H2360 0.961 . S
C2374 C2373 1.502 . S
C2375 H2361 0.960 . S
C2375 H2362 0.961 . S
C2375 H2363 0.959 . S
C2375 C2373 1.561 . S
C2376 C2373 1.526 . S
C2376 C2377 1.396 . S
C2376 C2381 1.390 . S
C2377 C2371 1.465 . S
C2377 C2376 1.396 . S
C2377 C2378 1.399 . S
C2378 H2364 0.929 . S
C2378 C2377 1.399 . S
C2378 C2379 1.385 . S
C2379 H2365 0.931 . S
C2379 C2378 1.385 . S
C2379 C2380 1.389 . S
C2380 C2379 1.389 . S
C2380 C2381 1.387 . S
C2381 H2366 0.930 . S
C2381 C2376 1.390 . S
C2381 C2380 1.387 . S
H2382 C2394 0.930 . S
H2383 C2396 0.930 . S
H2384 C2397 0.930 . S
H2385 C2401 0.959 . S
H2386 C2401 0.959 . S
H2387 C2401 0.961 . S
H2388 C2402 0.960 . S
H2389 C2402 0.961 . S
H2390 C2402 0.959 . S
H2391 C2405 0.929 . S
H2392 C2406 0.931 . S
H2393 C2408 0.930 . S
C2394 H2382 0.930 . S
C2394 C2395 1.399 . S
C2394 C2399 1.399 . S
C2395 C2394 1.399 . S
C2395 C2396 1.376 . S
C2396 H2383 0.930 . S
C2396 C2395 1.376 . S
C2396 C2397 1.388 . S
C2397 H2384 0.930 . S
C2397 C2396 1.388 . S
C2397 C2398 1.390 . S
C2398 C2397 1.390 . S
C2398 C2399 1.394 . S
C2398 C2404 1.465 . S
C2399 C2394 1.399 . S
C2399 C2398 1.394 . S
C2399 C2400 1.516 . S
C2400 C2399 1.516 . S
C2400 C2401 1.502 . S
C2400 C2402 1.561 . S
C2400 C2403 1.526 . S
C2401 H2385 0.959 . S
C2401 H2386 0.959 . S
C2401 H2387 0.961 . S
C2401 C2400 1.502 . S
C2402 H2388 0.960 . S
C2402 H2389 0.961 . S
C2402 H2390 0.959 . S
C2402 C2400 1.561 . S
C2403 C2400 1.526 . S
C2403 C2404 1.396 . S
C2403 C2408 1.390 . S
C2404 C2398 1.465 . S
C2404 C2403 1.396 . S
C2404 C2405 1.399 . S
C2405 H2391 0.929 . S
C2405 C2404 1.399 . S
C2405 C2406 1.385 . S
C2406 H2392 0.931 . S
C2406 C2405 1.385 . S
C2406 C2407 1.389 . S
C2407 C2406 1.389 . S
C2407 C2408 1.387 . S
C2408 H2393 0.930 . S
C2408 C2403 1.390 . S
C2408 C2407 1.387 . S
H2409 C2421 0.930 . S
H2410 C2423 0.930 . S
H2411 C2424 0.930 . S
H2412 C2428 0.959 . S
H2413 C2428 0.959 . S
H2414 C2428 0.961 . S
H2415 C2429 0.960 . S
H2416 C2429 0.961 . S
H2417 C2429 0.959 . S
H2418 C2432 0.929 . S
H2419 C2433 0.931 . S
H2420 C2435 0.930 . S
C2421 H2409 0.930 . S
C2421 C2422 1.399 . S
C2421 C2426 1.399 . S
C2422 C2421 1.399 . S
C2422 C2423 1.376 . S
C2423 H2410 0.930 . S
C2423 C2422 1.376 . S
C2423 C2424 1.388 . S
C2424 H2411 0.930 . S
C2424 C2423 1.388 . S
C2424 C2425 1.390 . S
C2425 C2424 1.390 . S
C2425 C2426 1.394 . S
C2425 C2431 1.465 . S
C2426 C2421 1.399 . S
C2426 C2425 1.394 . S
C2426 C2427 1.516 . S
C2427 C2426 1.516 . S
C2427 C2428 1.502 . S
C2427 C2429 1.561 . S
C2427 C2430 1.526 . S
C2428 H2412 0.959 . S
C2428 H2413 0.959 . S
C2428 H2414 0.961 . S
C2428 C2427 1.502 . S
C2429 H2415 0.960 . S
C2429 H2416 0.961 . S
C2429 H2417 0.959 . S
C2429 C2427 1.561 . S
C2430 C2427 1.526 . S
C2430 C2431 1.396 . S
C2430 C2435 1.390 . S
C2431 C2425 1.465 . S
C2431 C2430 1.396 . S
C2431 C2432 1.399 . S
C2432 H2418 0.929 . S
C2432 C2431 1.399 . S
C2432 C2433 1.385 . S
C2433 H2419 0.931 . S
C2433 C2432 1.385 . S
C2433 C2434 1.389 . S
C2434 C2433 1.389 . S
C2434 C2435 1.387 . S
C2435 H2420 0.930 . S
C2435 C2430 1.390 . S
C2435 C2434 1.387 . S
H2436 C2448 0.930 . S
H2437 C2450 0.930 . S
H2438 C2451 0.930 . S
H2439 C2455 0.959 . S
H2440 C2455 0.959 . S
H2441 C2455 0.961 . S
H2442 C2456 0.960 . S
H2443 C2456 0.961 . S
H2444 C2456 0.959 . S
H2445 C2459 0.929 . S
H2446 C2460 0.931 . S
H2447 C2462 0.930 . S
C2448 H2436 0.930 . S
C2448 C2449 1.399 . S
C2448 C2453 1.399 . S
C2449 C2448 1.399 . S
C2449 C2450 1.376 . S
C2450 H2437 0.930 . S
C2450 C2449 1.376 . S
C2450 C2451 1.388 . S
C2451 H2438 0.930 . S
C2451 C2450 1.388 . S
C2451 C2452 1.390 . S
C2452 C2451 1.390 . S
C2452 C2453 1.394 . S
C2452 C2458 1.465 . S
C2453 C2448 1.399 . S
C2453 C2452 1.394 . S
C2453 C2454 1.516 . S
C2454 C2453 1.516 . S
C2454 C2455 1.502 . S
C2454 C2456 1.561 . S
C2454 C2457 1.526 . S
C2455 H2439 0.959 . S
C2455 H2440 0.959 . S
C2455 H2441 0.961 . S
C2455 C2454 1.502 . S
C2456 H2442 0.960 . S
C2456 H2443 0.961 . S
C2456 H2444 0.959 . S
C2456 C2454 1.561 . S
C2457 C2454 1.526 . S
C2457 C2458 1.396 . S
C2457 C2462 1.390 . S
C2458 C2452 1.465 . S
C2458 C2457 1.396 . S
C2458 C2459 1.399 . S
C2459 H2445 0.929 . S
C2459 C2458 1.399 . S
C2459 C2460 1.385 . S
C2460 H2446 0.931 . S
C2460 C2459 1.385 . S
C2460 C2461 1.389 . S
C2461 C2460 1.389 . S
C2461 C2462 1.387 . S
C2462 H2447 0.930 . S
C2462 C2457 1.390 . S
C2462 C2461 1.387 . S
H2463 C2475 0.930 . S
H2464 C2477 0.930 . S
H2465 C2478 0.930 . S
H2466 C2482 0.959 . S
H2467 C2482 0.959 . S
H2468 C2482 0.961 . S
H2469 C2483 0.960 . S
H2470 C2483 0.961 . S
H2471 C2483 0.959 . S
H2472 C2486 0.929 . S
H2473 C2487 0.931 . S
H2474 C2489 0.930 . S
C2475 H2463 0.930 . S
C2475 C2476 1.399 . S
C2475 C2480 1.399 . S
C2476 C2475 1.399 . S
C2476 C2477 1.376 . S
C2477 H2464 0.930 . S
C2477 C2476 1.376 . S
C2477 C2478 1.388 . S
C2478 H2465 0.930 . S
C2478 C2477 1.388 . S
C2478 C2479 1.390 . S
C2479 C2478 1.390 . S
C2479 C2480 1.394 . S
C2479 C2485 1.465 . S
C2480 C2475 1.399 . S
C2480 C2479 1.394 . S
C2480 C2481 1.516 . S
C2481 C2480 1.516 . S
C2481 C2482 1.502 . S
C2481 C2483 1.561 . S
C2481 C2484 1.526 . S
C2482 H2466 0.959 . S
C2482 H2467 0.959 . S
C2482 H2468 0.961 . S
C2482 C2481 1.502 . S
C2483 H2469 0.960 . S
C2483 H2470 0.961 . S
C2483 H2471 0.959 . S
C2483 C2481 1.561 . S
C2484 C2481 1.526 . S
C2484 C2485 1.396 . S
C2484 C2489 1.390 . S
C2485 C2479 1.465 . S
C2485 C2484 1.396 . S
C2485 C2486 1.399 . S
C2486 H2472 0.929 . S
C2486 C2485 1.399 . S
C2486 C2487 1.385 . S
C2487 H2473 0.931 . S
C2487 C2486 1.385 . S
C2487 C2488 1.389 . S
C2488 C2487 1.389 . S
C2488 C2489 1.387 . S
C2489 H2474 0.930 . S
C2489 C2484 1.390 . S
C2489 C2488 1.387 . S
H2490 C2502 0.930 . S
H2491 C2504 0.930 . S
H2492 C2505 0.930 . S
H2493 C2509 0.959 . S
H2494 C2509 0.959 . S
H2495 C2509 0.961 . S
H2496 C2510 0.960 . S
H2497 C2510 0.961 . S
H2498 C2510 0.959 . S
H2499 C2513 0.929 . S
H2500 C2514 0.931 . S
H2501 C2516 0.930 . S
C2502 H2490 0.930 . S
C2502 C2503 1.399 . S
C2502 C2507 1.399 . S
C2503 C2502 1.399 . S
C2503 C2504 1.376 . S
C2504 H2491 0.930 . S
C2504 C2503 1.376 . S
C2504 C2505 1.388 . S
C2505 H2492 0.930 . S
C2505 C2504 1.388 . S
C2505 C2506 1.390 . S
C2506 C2505 1.390 . S
C2506 C2507 1.394 . S
C2506 C2512 1.465 . S
C2507 C2502 1.399 . S
C2507 C2506 1.394 . S
C2507 C2508 1.516 . S
C2508 C2507 1.516 . S
C2508 C2509 1.502 . S
C2508 C2510 1.561 . S
C2508 C2511 1.526 . S
C2509 H2493 0.959 . S
C2509 H2494 0.959 . S
C2509 H2495 0.961 . S
C2509 C2508 1.502 . S
C2510 H2496 0.960 . S
C2510 H2497 0.961 . S
C2510 H2498 0.959 . S
C2510 C2508 1.561 . S
C2511 C2508 1.526 . S
C2511 C2512 1.396 . S
C2511 C2516 1.390 . S
C2512 C2506 1.465 . S
C2512 C2511 1.396 . S
C2512 C2513 1.399 . S
C2513 H2499 0.929 . S
C2513 C2512 1.399 . S
C2513 C2514 1.385 . S
C2514 H2500 0.931 . S
C2514 C2513 1.385 . S
C2514 C2515 1.389 . S
C2515 C2514 1.389 . S
C2515 C2516 1.387 . S
C2516 H2501 0.930 . S
C2516 C2511 1.390 . S
C2516 C2515 1.387 . S
H2517 C2529 0.930 . S
H2518 C2531 0.930 . S
H2519 C2532 0.930 . S
H2520 C2536 0.959 . S
H2521 C2536 0.959 . S
H2522 C2536 0.961 . S
H2523 C2537 0.960 . S
H2524 C2537 0.961 . S
H2525 C2537 0.959 . S
H2526 C2540 0.929 . S
H2527 C2541 0.931 . S
H2528 C2543 0.930 . S
C2529 H2517 0.930 . S
C2529 C2530 1.399 . S
C2529 C2534 1.399 . S
C2530 C2529 1.399 . S
C2530 C2531 1.376 . S
C2531 H2518 0.930 . S
C2531 C2530 1.376 . S
C2531 C2532 1.388 . S
C2532 H2519 0.930 . S
C2532 C2531 1.388 . S
C2532 C2533 1.390 . S
C2533 C2532 1.390 . S
C2533 C2534 1.394 . S
C2533 C2539 1.465 . S
C2534 C2529 1.399 . S
C2534 C2533 1.394 . S
C2534 C2535 1.516 . S
C2535 C2534 1.516 . S
C2535 C2536 1.502 . S
C2535 C2537 1.561 . S
C2535 C2538 1.526 . S
C2536 H2520 0.959 . S
C2536 H2521 0.959 . S
C2536 H2522 0.961 . S
C2536 C2535 1.502 . S
C2537 H2523 0.960 . S
C2537 H2524 0.961 . S
C2537 H2525 0.959 . S
C2537 C2535 1.561 . S
C2538 C2535 1.526 . S
C2538 C2539 1.396 . S
C2538 C2543 1.390 . S
C2539 C2533 1.465 . S
C2539 C2538 1.396 . S
C2539 C2540 1.399 . S
C2540 H2526 0.929 . S
C2540 C2539 1.399 . S
C2540 C2541 1.385 . S
C2541 H2527 0.931 . S
C2541 C2540 1.385 . S
C2541 C2542 1.389 . S
C2542 C2541 1.389 . S
C2542 C2543 1.387 . S
C2543 H2528 0.930 . S
C2543 C2538 1.390 . S
C2543 C2542 1.387 . S
H2544 C2556 0.930 . S
H2545 C2558 0.930 . S
H2546 C2559 0.930 . S
H2547 C2563 0.959 . S
H2548 C2563 0.959 . S
H2549 C2563 0.961 . S
H2550 C2564 0.960 . S
H2551 C2564 0.961 . S
H2552 C2564 0.959 . S
H2553 C2567 0.929 . S
H2554 C2568 0.931 . S
H2555 C2570 0.930 . S
C2556 H2544 0.930 . S
C2556 C2557 1.399 . S
C2556 C2561 1.399 . S
C2557 C2556 1.399 . S
C2557 C2558 1.376 . S
C2558 H2545 0.930 . S
C2558 C2557 1.376 . S
C2558 C2559 1.388 . S
C2559 H2546 0.930 . S
C2559 C2558 1.388 . S
C2559 C2560 1.390 . S
C2560 C2559 1.390 . S
C2560 C2561 1.394 . S
C2560 C2566 1.465 . S
C2561 C2556 1.399 . S
C2561 C2560 1.394 . S
C2561 C2562 1.516 . S
C2562 C2561 1.516 . S
C2562 C2563 1.502 . S
C2562 C2564 1.561 . S
C2562 C2565 1.526 . S
C2563 H2547 0.959 . S
C2563 H2548 0.959 . S
C2563 H2549 0.961 . S
C2563 C2562 1.502 . S
C2564 H2550 0.960 . S
C2564 H2551 0.961 . S
C2564 H2552 0.959 . S
C2564 C2562 1.561 . S
C2565 C2562 1.526 . S
C2565 C2566 1.396 . S
C2565 C2570 1.390 . S
C2566 C2560 1.465 . S
C2566 C2565 1.396 . S
C2566 C2567 1.399 . S
C2567 H2553 0.929 . S
C2567 C2566 1.399 . S
C2567 C2568 1.385 . S
C2568 H2554 0.931 . S
C2568 C2567 1.385 . S
C2568 C2569 1.389 . S
C2569 C2568 1.389 . S
C2569 C2570 1.387 . S
C2570 H2555 0.930 . S
C2570 C2565 1.390 . S
C2570 C2569 1.387 . S
H2571 C2583 0.930 . S
H2572 C2585 0.930 . S
H2573 C2586 0.930 . S
H2574 C2590 0.959 1_545 S
H2575 C2590 0.959 1_545 S
H2576 C2590 0.961 . S
H2577 C2591 0.960 . S
H2578 C2591 0.961 . S
H2579 C2591 0.959 . S
H2580 C2594 0.929 . S
H2581 C2595 0.931 . S
H2582 C2597 0.930 1_545 S
C2583 H2571 0.930 . S
C2583 C2584 1.399 . S
C2583 C2588 1.399 . S
C2584 C2583 1.399 . S
C2584 C2585 1.376 . S
C2585 H2572 0.930 . S
C2585 C2584 1.376 . S
C2585 C2586 1.388 . S
C2586 H2573 0.930 . S
C2586 C2585 1.388 . S
C2586 C2587 1.390 . S
C2587 C2586 1.390 . S
C2587 C2588 1.394 . S
C2587 C2593 1.465 . S
C2588 C2583 1.399 . S
C2588 C2587 1.394 . S
C2588 C2589 1.516 . S
C2589 C2588 1.516 . S
C2589 C2590 1.502 . S
C2589 C2591 1.561 . S
C2589 C2592 1.526 . S
C2590 H2574 0.959 1_565 S
C2590 H2575 0.959 1_565 S
C2590 H2576 0.961 . S
C2590 C2589 1.502 . S
C2591 H2577 0.960 . S
C2591 H2578 0.961 . S
C2591 H2579 0.959 . S
C2591 C2589 1.561 . S
C2592 C2589 1.526 . S
C2592 C2593 1.396 . S
C2592 C2597 1.390 . S
C2593 C2587 1.465 . S
C2593 C2592 1.396 . S
C2593 C2594 1.399 . S
C2594 H2580 0.929 . S
C2594 C2593 1.399 . S
C2594 C2595 1.385 . S
C2595 H2581 0.931 . S
C2595 C2594 1.385 . S
C2595 C2596 1.389 1_565 S
C2596 C2595 1.389 1_545 S
C2596 C2597 1.387 1_545 S
C2597 H2582 0.930 1_565 S
C2597 C2592 1.390 . S
C2597 C2596 1.387 1_565 S
H2598 C2610 0.930 . S
H2599 C2612 0.930 . S
H2600 C2613 0.930 . S
H2601 C2617 0.959 . S
H2602 C2617 0.959 . S
H2603 C2617 0.961 . S
H2604 C2618 0.960 . S
H2605 C2618 0.961 . S
H2606 C2618 0.959 . S
H2607 C2621 0.929 . S
H2608 C2622 0.931 . S
H2609 C2624 0.930 . S
C2610 H2598 0.930 . S
C2610 C2611 1.399 . S
C2610 C2615 1.399 . S
C2611 C2610 1.399 . S
C2611 C2612 1.376 . S
C2612 H2599 0.930 . S
C2612 C2611 1.376 . S
C2612 C2613 1.388 . S
C2613 H2600 0.930 . S
C2613 C2612 1.388 . S
C2613 C2614 1.390 . S
C2614 C2613 1.390 . S
C2614 C2615 1.394 . S
C2614 C2620 1.465 . S
C2615 C2610 1.399 . S
C2615 C2614 1.394 . S
C2615 C2616 1.516 . S
C2616 C2615 1.516 . S
C2616 C2617 1.502 . S
C2616 C2618 1.561 . S
C2616 C2619 1.526 . S
C2617 H2601 0.959 . S
C2617 H2602 0.959 . S
C2617 H2603 0.961 . S
C2617 C2616 1.502 . S
C2618 H2604 0.960 . S
C2618 H2605 0.961 . S
C2618 H2606 0.959 . S
C2618 C2616 1.561 . S
C2619 C2616 1.526 . S
C2619 C2620 1.396 . S
C2619 C2624 1.390 . S
C2620 C2614 1.465 . S
C2620 C2619 1.396 . S
C2620 C2621 1.399 . S
C2621 H2607 0.929 . S
C2621 C2620 1.399 . S
C2621 C2622 1.385 . S
C2622 H2608 0.931 . S
C2622 C2621 1.385 . S
C2622 C2623 1.389 . S
C2623 C2622 1.389 . S
C2623 C2624 1.387 . S
C2624 H2609 0.930 . S
C2624 C2619 1.390 . S
C2624 C2623 1.387 . S
H2625 C2637 0.930 . S
H2626 C2639 0.930 1_556 S
H2627 C2640 0.930 1_556 S
H2628 C2644 0.959 . S
H2629 C2644 0.959 . S
H2630 C2644 0.961 . S
H2631 C2645 0.960 . S
H2632 C2645 0.961 . S
H2633 C2645 0.959 . S
H2634 C2648 0.929 1_556 S
H2635 C2649 0.931 . S
H2636 C2651 0.930 . S
C2637 H2625 0.930 . S
C2637 C2638 1.399 . S
C2637 C2642 1.399 . S
C2638 C2637 1.399 . S
C2638 C2639 1.376 . S
C2639 H2626 0.930 1_554 S
C2639 C2638 1.376 . S
C2639 C2640 1.388 . S
C2640 H2627 0.930 1_554 S
C2640 C2639 1.388 . S
C2640 C2641 1.390 . S
C2641 C2640 1.390 . S
C2641 C2642 1.394 . S
C2641 C2647 1.465 . S
C2642 C2637 1.399 . S
C2642 C2641 1.394 . S
C2642 C2643 1.516 . S
C2643 C2642 1.516 . S
C2643 C2644 1.502 . S
C2643 C2645 1.561 . S
C2643 C2646 1.526 . S
C2644 H2628 0.959 . S
C2644 H2629 0.959 . S
C2644 H2630 0.961 . S
C2644 C2643 1.502 . S
C2645 H2631 0.960 . S
C2645 H2632 0.961 . S
C2645 H2633 0.959 . S
C2645 C2643 1.561 . S
C2646 C2643 1.526 . S
C2646 C2647 1.396 . S
C2646 C2651 1.390 . S
C2647 C2641 1.465 . S
C2647 C2646 1.396 . S
C2647 C2648 1.399 . S
C2648 H2634 0.929 1_554 S
C2648 C2647 1.399 . S
C2648 C2649 1.385 . S
C2649 H2635 0.931 . S
C2649 C2648 1.385 . S
C2649 C2650 1.389 . S
C2650 C2649 1.389 . S
C2650 C2651 1.387 . S
C2651 H2636 0.930 . S
C2651 C2646 1.390 . S
C2651 C2650 1.387 . S
H2652 C2664 0.930 . S
H2653 C2666 0.930 . S
H2654 C2667 0.930 . S
H2655 C2671 0.959 . S
H2656 C2671 0.959 . S
H2657 C2671 0.961 . S
H2658 C2672 0.960 . S
H2659 C2672 0.961 . S
H2660 C2672 0.959 . S
H2661 C2675 0.929 . S
H2662 C2676 0.931 . S
H2663 C2678 0.930 . S
C2664 H2652 0.930 . S
C2664 C2665 1.399 . S
C2664 C2669 1.399 . S
C2665 C2664 1.399 . S
C2665 C2666 1.376 . S
C2666 H2653 0.930 . S
C2666 C2665 1.376 . S
C2666 C2667 1.388 . S
C2667 H2654 0.930 . S
C2667 C2666 1.388 . S
C2667 C2668 1.390 . S
C2668 C2667 1.390 . S
C2668 C2669 1.394 . S
C2668 C2674 1.465 . S
C2669 C2664 1.399 . S
C2669 C2668 1.394 . S
C2669 C2670 1.516 . S
C2670 C2669 1.516 . S
C2670 C2671 1.502 . S
C2670 C2672 1.561 . S
C2670 C2673 1.526 . S
C2671 H2655 0.959 . S
C2671 H2656 0.959 . S
C2671 H2657 0.961 . S
C2671 C2670 1.502 . S
C2672 H2658 0.960 . S
C2672 H2659 0.961 . S
C2672 H2660 0.959 . S
C2672 C2670 1.561 . S
C2673 C2670 1.526 . S
C2673 C2674 1.396 . S
C2673 C2678 1.390 . S
C2674 C2668 1.465 . S
C2674 C2673 1.396 . S
C2674 C2675 1.399 . S
C2675 H2661 0.929 . S
C2675 C2674 1.399 . S
C2675 C2676 1.385 . S
C2676 H2662 0.931 . S
C2676 C2675 1.385 . S
C2676 C2677 1.389 . S
C2677 C2676 1.389 . S
C2677 C2678 1.387 . S
C2678 H2663 0.930 . S
C2678 C2673 1.390 . S
C2678 C2677 1.387 . S
H2679 C2691 0.930 . S
H2680 C2693 0.930 . S
H2681 C2694 0.930 . S
H2682 C2698 0.959 1_554 S
H2683 C2698 0.959 . S
H2684 C2698 0.961 . S
H2685 C2699 0.960 . S
H2686 C2699 0.961 . S
H2687 C2699 0.959 . S
H2688 C2702 0.929 . S
H2689 C2703 0.931 . S
H2690 C2705 0.930 1_556 S
C2691 H2679 0.930 . S
C2691 C2692 1.399 . S
C2691 C2696 1.399 . S
C2692 C2691 1.399 . S
C2692 C2693 1.376 . S
C2693 H2680 0.930 . S
C2693 C2692 1.376 . S
C2693 C2694 1.388 . S
C2694 H2681 0.930 . S
C2694 C2693 1.388 . S
C2694 C2695 1.390 . S
C2695 C2694 1.390 . S
C2695 C2696 1.394 . S
C2695 C2701 1.465 . S
C2696 C2691 1.399 . S
C2696 C2695 1.394 . S
C2696 C2697 1.516 . S
C2697 C2696 1.516 . S
C2697 C2698 1.502 1_554 S
C2697 C2699 1.561 1_554 S
C2697 C2700 1.526 . S
C2698 H2682 0.959 1_556 S
C2698 H2683 0.959 . S
C2698 H2684 0.961 . S
C2698 C2697 1.502 1_556 S
C2699 H2685 0.960 . S
C2699 H2686 0.961 . S
C2699 H2687 0.959 . S
C2699 C2697 1.561 1_556 S
C2700 C2697 1.526 . S
C2700 C2701 1.396 . S
C2700 C2705 1.390 . S
C2701 C2695 1.465 . S
C2701 C2700 1.396 . S
C2701 C2702 1.399 . S
C2702 H2688 0.929 . S
C2702 C2701 1.399 . S
C2702 C2703 1.385 . S
C2703 H2689 0.931 . S
C2703 C2702 1.385 . S
C2703 C2704 1.389 . S
C2704 C2703 1.389 . S
C2704 C2705 1.387 . S
C2705 H2690 0.930 1_554 S
C2705 C2700 1.390 . S
C2705 C2704 1.387 . S
H2706 C2718 0.930 . S
H2707 C2720 0.930 . S
H2708 C2721 0.930 . S
H2709 C2725 0.959 . S
H2710 C2725 0.959 . S
H2711 C2725 0.961 . S
H2712 C2726 0.960 . S
H2713 C2726 0.961 . S
H2714 C2726 0.959 . S
H2715 C2729 0.929 . S
H2716 C2730 0.931 . S
H2717 C2732 0.930 . S
C2718 H2706 0.930 . S
C2718 C2719 1.399 . S
C2718 C2723 1.399 . S
C2719 C2718 1.399 . S
C2719 C2720 1.376 . S
C2720 H2707 0.930 . S
C2720 C2719 1.376 . S
C2720 C2721 1.388 . S
C2721 H2708 0.930 . S
C2721 C2720 1.388 . S
C2721 C2722 1.390 . S
C2722 C2721 1.390 . S
C2722 C2723 1.394 . S
C2722 C2728 1.465 . S
C2723 C2718 1.399 . S
C2723 C2722 1.394 . S
C2723 C2724 1.516 . S
C2724 C2723 1.516 . S
C2724 C2725 1.502 . S
C2724 C2726 1.561 . S
C2724 C2727 1.526 . S
C2725 H2709 0.959 . S
C2725 H2710 0.959 . S
C2725 H2711 0.961 . S
C2725 C2724 1.502 . S
C2726 H2712 0.960 . S
C2726 H2713 0.961 . S
C2726 H2714 0.959 . S
C2726 C2724 1.561 . S
C2727 C2724 1.526 . S
C2727 C2728 1.396 . S
C2727 C2732 1.390 . S
C2728 C2722 1.465 . S
C2728 C2727 1.396 . S
C2728 C2729 1.399 . S
C2729 H2715 0.929 . S
C2729 C2728 1.399 . S
C2729 C2730 1.385 . S
C2730 H2716 0.931 . S
C2730 C2729 1.385 . S
C2730 C2731 1.389 . S
C2731 C2730 1.389 . S
C2731 C2732 1.387 . S
C2732 H2717 0.930 . S
C2732 C2727 1.390 . S
C2732 C2731 1.387 . S
H2733 C2745 0.930 . S
H2734 C2747 0.930 . S
H2735 C2748 0.930 . S
H2736 C2752 0.959 . S
H2737 C2752 0.959 . S
H2738 C2752 0.961 . S
H2739 C2753 0.960 . S
H2740 C2753 0.961 . S
H2741 C2753 0.959 . S
H2742 C2756 0.929 . S
H2743 C2757 0.931 . S
H2744 C2759 0.930 . S
C2745 H2733 0.930 . S
C2745 C2746 1.399 . S
C2745 C2750 1.399 . S
C2746 C2745 1.399 . S
C2746 C2747 1.376 . S
C2747 H2734 0.930 . S
C2747 C2746 1.376 . S
C2747 C2748 1.388 . S
C2748 H2735 0.930 . S
C2748 C2747 1.388 . S
C2748 C2749 1.390 . S
C2749 C2748 1.390 . S
C2749 C2750 1.394 . S
C2749 C2755 1.465 . S
C2750 C2745 1.399 . S
C2750 C2749 1.394 . S
C2750 C2751 1.516 . S
C2751 C2750 1.516 . S
C2751 C2752 1.502 . S
C2751 C2753 1.561 . S
C2751 C2754 1.526 . S
C2752 H2736 0.959 . S
C2752 H2737 0.959 . S
C2752 H2738 0.961 . S
C2752 C2751 1.502 . S
C2753 H2739 0.960 . S
C2753 H2740 0.961 . S
C2753 H2741 0.959 . S
C2753 C2751 1.561 . S
C2754 C2751 1.526 . S
C2754 C2755 1.396 . S
C2754 C2759 1.390 . S
C2755 C2749 1.465 . S
C2755 C2754 1.396 . S
C2755 C2756 1.399 . S
C2756 H2742 0.929 . S
C2756 C2755 1.399 . S
C2756 C2757 1.385 . S
C2757 H2743 0.931 . S
C2757 C2756 1.385 . S
C2757 C2758 1.389 . S
C2758 C2757 1.389 . S
C2758 C2759 1.387 . S
C2759 H2744 0.930 . S
C2759 C2754 1.390 . S
C2759 C2758 1.387 . S
H2760 C2772 0.930 . S
H2761 C2774 0.930 . S
H2762 C2775 0.930 . S
H2763 C2779 0.959 . S
H2764 C2779 0.959 . S
H2765 C2779 0.961 . S
H2766 C2780 0.960 . S
H2767 C2780 0.961 . S
H2768 C2780 0.959 . S
H2769 C2783 0.929 . S
H2770 C2784 0.931 . S
H2771 C2786 0.930 . S
C2772 H2760 0.930 . S
C2772 C2773 1.399 . S
C2772 C2777 1.399 . S
C2773 C2772 1.399 . S
C2773 C2774 1.376 . S
C2774 H2761 0.930 . S
C2774 C2773 1.376 . S
C2774 C2775 1.388 . S
C2775 H2762 0.930 . S
C2775 C2774 1.388 . S
C2775 C2776 1.390 . S
C2776 C2775 1.390 . S
C2776 C2777 1.394 . S
C2776 C2782 1.465 . S
C2777 C2772 1.399 . S
C2777 C2776 1.394 . S
C2777 C2778 1.516 . S
C2778 C2777 1.516 . S
C2778 C2779 1.502 . S
C2778 C2780 1.561 . S
C2778 C2781 1.526 . S
C2779 H2763 0.959 . S
C2779 H2764 0.959 . S
C2779 H2765 0.961 . S
C2779 C2778 1.502 . S
C2780 H2766 0.960 . S
C2780 H2767 0.961 . S
C2780 H2768 0.959 . S
C2780 C2778 1.561 . S
C2781 C2778 1.526 . S
C2781 C2782 1.396 . S
C2781 C2786 1.390 . S
C2782 C2776 1.465 . S
C2782 C2781 1.396 . S
C2782 C2783 1.399 . S
C2783 H2769 0.929 . S
C2783 C2782 1.399 . S
C2783 C2784 1.385 . S
C2784 H2770 0.931 . S
C2784 C2783 1.385 . S
C2784 C2785 1.389 . S
C2785 C2784 1.389 . S
C2785 C2786 1.387 . S
C2786 H2771 0.930 . S
C2786 C2781 1.390 . S
C2786 C2785 1.387 . S
H2787 C2799 0.930 . S
H2788 C2801 0.930 . S
H2789 C2802 0.930 . S
H2790 C2806 0.959 . S
H2791 C2806 0.959 . S
H2792 C2806 0.961 . S
H2793 C2807 0.960 . S
H2794 C2807 0.961 . S
H2795 C2807 0.959 . S
H2796 C2810 0.929 . S
H2797 C2811 0.931 . S
H2798 C2813 0.930 . S
C2799 H2787 0.930 . S
C2799 C2800 1.399 . S
C2799 C2804 1.399 . S
C2800 C2799 1.399 . S
C2800 C2801 1.376 . S
C2801 H2788 0.930 . S
C2801 C2800 1.376 . S
C2801 C2802 1.388 . S
C2802 H2789 0.930 . S
C2802 C2801 1.388 . S
C2802 C2803 1.390 . S
C2803 C2802 1.390 . S
C2803 C2804 1.394 . S
C2803 C2809 1.465 . S
C2804 C2799 1.399 . S
C2804 C2803 1.394 . S
C2804 C2805 1.516 . S
C2805 C2804 1.516 . S
C2805 C2806 1.502 . S
C2805 C2807 1.561 . S
C2805 C2808 1.526 . S
C2806 H2790 0.959 . S
C2806 H2791 0.959 . S
C2806 H2792 0.961 . S
C2806 C2805 1.502 . S
C2807 H2793 0.960 . S
C2807 H2794 0.961 . S
C2807 H2795 0.959 . S
C2807 C2805 1.561 . S
C2808 C2805 1.526 . S
C2808 C2809 1.396 . S
C2808 C2813 1.390 . S
C2809 C2803 1.465 . S
C2809 C2808 1.396 . S
C2809 C2810 1.399 . S
C2810 H2796 0.929 . S
C2810 C2809 1.399 . S
C2810 C2811 1.385 . S
C2811 H2797 0.931 . S
C2811 C2810 1.385 . S
C2811 C2812 1.389 . S
C2812 C2811 1.389 . S
C2812 C2813 1.387 . S
C2813 H2798 0.930 . S
C2813 C2808 1.390 . S
C2813 C2812 1.387 . S
H2814 C2826 0.930 . S
H2815 C2828 0.930 . S
H2816 C2829 0.930 . S
H2817 C2833 0.959 . S
H2818 C2833 0.959 . S
H2819 C2833 0.961 . S
H2820 C2834 0.960 . S
H2821 C2834 0.961 . S
H2822 C2834 0.959 1_556 S
H2823 C2837 0.929 . S
H2824 C2838 0.931 . S
H2825 C2840 0.930 . S
C2826 H2814 0.930 . S
C2826 C2827 1.399 . S
C2826 C2831 1.399 . S
C2827 C2826 1.399 . S
C2827 C2828 1.376 . S
C2828 H2815 0.930 . S
C2828 C2827 1.376 . S
C2828 C2829 1.388 . S
C2829 H2816 0.930 . S
C2829 C2828 1.388 . S
C2829 C2830 1.390 . S
C2830 C2829 1.390 . S
C2830 C2831 1.394 . S
C2830 C2836 1.465 . S
C2831 C2826 1.399 . S
C2831 C2830 1.394 . S
C2831 C2832 1.516 . S
C2832 C2831 1.516 . S
C2832 C2833 1.502 1_556 S
C2832 C2834 1.561 1_456 S
C2832 C2835 1.526 . S
C2833 H2817 0.959 . S
C2833 H2818 0.959 . S
C2833 H2819 0.961 . S
C2833 C2832 1.502 1_554 S
C2834 H2820 0.960 . S
C2834 H2821 0.961 . S
C2834 H2822 0.959 1_554 S
C2834 C2832 1.561 1_654 S
C2835 C2832 1.526 . S
C2835 C2836 1.396 . S
C2835 C2840 1.390 1_556 S
C2836 C2830 1.465 . S
C2836 C2835 1.396 . S
C2836 C2837 1.399 . S
C2837 H2823 0.929 . S
C2837 C2836 1.399 . S
C2837 C2838 1.385 . S
C2838 H2824 0.931 . S
C2838 C2837 1.385 . S
C2838 C2839 1.389 . S
C2839 C2838 1.389 . S
C2839 C2840 1.387 1_556 S
C2840 H2825 0.930 . S
C2840 C2835 1.390 1_554 S
C2840 C2839 1.387 1_554 S
H2841 C2853 0.930 . S
H2842 C2855 0.930 . S
H2843 C2856 0.930 . S
H2844 C2860 0.959 . S
H2845 C2860 0.959 . S
H2846 C2860 0.961 . S
H2847 C2861 0.960 . S
H2848 C2861 0.961 . S
H2849 C2861 0.959 . S
H2850 C2864 0.929 . S
H2851 C2865 0.931 . S
H2852 C2867 0.930 . S
C2853 H2841 0.930 . S
C2853 C2854 1.399 . S
C2853 C2858 1.399 . S
C2854 C2853 1.399 . S
C2854 C2855 1.376 . S
C2855 H2842 0.930 . S
C2855 C2854 1.376 . S
C2855 C2856 1.388 . S
C2856 H2843 0.930 . S
C2856 C2855 1.388 . S
C2856 C2857 1.390 . S
C2857 C2856 1.390 . S
C2857 C2858 1.394 . S
C2857 C2863 1.465 . S
C2858 C2853 1.399 . S
C2858 C2857 1.394 . S
C2858 C2859 1.516 . S
C2859 C2858 1.516 . S
C2859 C2860 1.502 . S
C2859 C2861 1.561 . S
C2859 C2862 1.526 . S
C2860 H2844 0.959 . S
C2860 H2845 0.959 . S
C2860 H2846 0.961 . S
C2860 C2859 1.502 . S
C2861 H2847 0.960 . S
C2861 H2848 0.961 . S
C2861 H2849 0.959 . S
C2861 C2859 1.561 . S
C2862 C2859 1.526 . S
C2862 C2863 1.396 . S
C2862 C2867 1.390 . S
C2863 C2857 1.465 . S
C2863 C2862 1.396 . S
C2863 C2864 1.399 . S
C2864 H2850 0.929 . S
C2864 C2863 1.399 . S
C2864 C2865 1.385 . S
C2865 H2851 0.931 . S
C2865 C2864 1.385 . S
C2865 C2866 1.389 . S
C2866 C2865 1.389 . S
C2866 C2867 1.387 . S
C2867 H2852 0.930 . S
C2867 C2862 1.390 . S
C2867 C2866 1.387 . S
H2868 C2880 0.930 . S
H2869 C2882 0.930 . S
H2870 C2883 0.930 . S
H2871 C2887 0.959 . S
H2872 C2887 0.959 . S
H2873 C2887 0.961 . S
H2874 C2888 0.960 . S
H2875 C2888 0.961 . S
H2876 C2888 0.959 . S
H2877 C2891 0.929 . S
H2878 C2892 0.931 . S
H2879 C2894 0.930 . S
C2880 H2868 0.930 . S
C2880 C2881 1.399 . S
C2880 C2885 1.399 . S
C2881 C2880 1.399 . S
C2881 C2882 1.376 . S
C2882 H2869 0.930 . S
C2882 C2881 1.376 . S
C2882 C2883 1.388 . S
C2883 H2870 0.930 . S
C2883 C2882 1.388 . S
C2883 C2884 1.390 . S
C2884 C2883 1.390 . S
C2884 C2885 1.394 . S
C2884 C2890 1.465 . S
C2885 C2880 1.399 . S
C2885 C2884 1.394 . S
C2885 C2886 1.516 . S
C2886 C2885 1.516 . S
C2886 C2887 1.502 . S
C2886 C2888 1.561 . S
C2886 C2889 1.526 . S
C2887 H2871 0.959 . S
C2887 H2872 0.959 . S
C2887 H2873 0.961 . S
C2887 C2886 1.502 . S
C2888 H2874 0.960 . S
C2888 H2875 0.961 . S
C2888 H2876 0.959 . S
C2888 C2886 1.561 . S
C2889 C2886 1.526 . S
C2889 C2890 1.396 . S
C2889 C2894 1.390 . S
C2890 C2884 1.465 . S
C2890 C2889 1.396 . S
C2890 C2891 1.399 . S
C2891 H2877 0.929 . S
C2891 C2890 1.399 . S
C2891 C2892 1.385 . S
C2892 H2878 0.931 . S
C2892 C2891 1.385 . S
C2892 C2893 1.389 . S
C2893 C2892 1.389 . S
C2893 C2894 1.387 . S
C2894 H2879 0.930 . S
C2894 C2889 1.390 . S
C2894 C2893 1.387 . S
H2895 C2907 0.930 . S
H2896 C2909 0.930 . S
H2897 C2910 0.930 . S
H2898 C2914 0.959 . S
H2899 C2914 0.959 . S
H2900 C2914 0.961 . S
H2901 C2915 0.960 . S
H2902 C2915 0.961 . S
H2903 C2915 0.959 . S
H2904 C2918 0.929 . S
H2905 C2919 0.931 . S
H2906 C2921 0.930 . S
C2907 H2895 0.930 . S
C2907 C2908 1.399 . S
C2907 C2912 1.399 . S
C2908 C2907 1.399 . S
C2908 C2909 1.376 . S
C2909 H2896 0.930 . S
C2909 C2908 1.376 . S
C2909 C2910 1.388 . S
C2910 H2897 0.930 . S
C2910 C2909 1.388 . S
C2910 C2911 1.390 . S
C2911 C2910 1.390 . S
C2911 C2912 1.394 . S
C2911 C2917 1.465 . S
C2912 C2907 1.399 . S
C2912 C2911 1.394 . S
C2912 C2913 1.516 . S
C2913 C2912 1.516 . S
C2913 C2914 1.502 . S
C2913 C2915 1.561 . S
C2913 C2916 1.526 . S
C2914 H2898 0.959 . S
C2914 H2899 0.959 . S
C2914 H2900 0.961 . S
C2914 C2913 1.502 . S
C2915 H2901 0.960 . S
C2915 H2902 0.961 . S
C2915 H2903 0.959 . S
C2915 C2913 1.561 . S
C2916 C2913 1.526 . S
C2916 C2917 1.396 . S
C2916 C2921 1.390 . S
C2917 C2911 1.465 . S
C2917 C2916 1.396 . S
C2917 C2918 1.399 . S
C2918 H2904 0.929 . S
C2918 C2917 1.399 . S
C2918 C2919 1.385 . S
C2919 H2905 0.931 . S
C2919 C2918 1.385 . S
C2919 C2920 1.389 . S
C2920 C2919 1.389 . S
C2920 C2921 1.387 . S
C2921 H2906 0.930 . S
C2921 C2916 1.390 . S
C2921 C2920 1.387 . S
H2922 C2934 0.930 . S
H2923 C2936 0.930 . S
H2924 C2937 0.930 . S
H2925 C2941 0.959 . S
H2926 C2941 0.959 . S
H2927 C2941 0.961 . S
H2928 C2942 0.960 . S
H2929 C2942 0.961 . S
H2930 C2942 0.959 1_655 S
H2931 C2945 0.929 . S
H2932 C2946 0.931 . S
H2933 C2948 0.930 . S
C2934 H2922 0.930 . S
C2934 C2935 1.392 1_455 S
C2934 C2939 1.399 . S
C2935 C2934 1.392 1_655 S
C2935 C2936 1.385 . S
C2936 H2923 0.930 . S
C2936 C2935 1.385 . S
C2936 C2937 1.388 . S
C2937 H2924 0.930 . S
C2937 C2936 1.388 . S
C2937 C2938 1.390 . S
C2938 C2937 1.390 . S
C2938 C2939 1.394 1_655 S
C2938 C2944 1.465 . S
C2939 C2934 1.399 . S
C2939 C2938 1.394 1_455 S
C2939 C2940 1.516 . S
C2940 C2939 1.516 . S
C2940 C2941 1.502 . S
C2940 C2942 1.561 . S
C2940 C2943 1.526 . S
C2941 H2925 0.959 . S
C2941 H2926 0.959 . S
C2941 H2927 0.961 . S
C2941 C2940 1.502 . S
C2942 H2928 0.960 . S
C2942 H2929 0.961 . S
C2942 H2930 0.959 1_455 S
C2942 C2940 1.561 . S
C2943 C2940 1.526 . S
C2943 C2944 1.396 1_455 S
C2943 C2948 1.390 . S
C2944 C2938 1.465 . S
C2944 C2943 1.396 1_655 S
C2944 C2945 1.399 . S
C2945 H2931 0.929 . S
C2945 C2944 1.399 . S
C2945 C2946 1.385 . S
C2946 H2932 0.931 . S
C2946 C2945 1.385 . S
C2946 C2947 1.389 1_655 S
C2947 C2946 1.389 1_455 S
C2947 C2948 1.387 . S
C2948 H2933 0.930 . S
C2948 C2943 1.390 . S
C2948 C2947 1.387 . S
H2949 C2961 0.930 . S
H2950 C2963 0.930 . S
H2951 C2964 0.930 . S
H2952 C2968 0.959 . S
H2953 C2968 0.959 . S
H2954 C2968 0.961 . S
H2955 C2969 0.960 . S
H2956 C2969 0.961 . S
H2957 C2969 0.959 . S
H2958 C2972 0.929 . S
H2959 C2973 0.931 . S
H2960 C2975 0.930 . S
C2961 H2949 0.930 . S
C2961 C2962 1.399 . S
C2961 C2966 1.399 . S
C2962 C2961 1.399 . S
C2962 C2963 1.376 . S
C2963 H2950 0.930 . S
C2963 C2962 1.376 . S
C2963 C2964 1.388 . S
C2964 H2951 0.930 . S
C2964 C2963 1.388 . S
C2964 C2965 1.390 . S
C2965 C2964 1.390 . S
C2965 C2966 1.394 . S
C2965 C2971 1.465 . S
C2966 C2961 1.399 . S
C2966 C2965 1.394 . S
C2966 C2967 1.516 . S
C2967 C2966 1.516 . S
C2967 C2968 1.502 . S
C2967 C2969 1.561 . S
C2967 C2970 1.526 . S
C2968 H2952 0.959 . S
C2968 H2953 0.959 . S
C2968 H2954 0.961 . S
C2968 C2967 1.502 . S
C2969 H2955 0.960 . S
C2969 H2956 0.961 . S
C2969 H2957 0.959 . S
C2969 C2967 1.561 . S
C2970 C2967 1.526 . S
C2970 C2971 1.396 . S
C2970 C2975 1.390 . S
C2971 C2965 1.465 . S
C2971 C2970 1.396 . S
C2971 C2972 1.399 . S
C2972 H2958 0.929 . S
C2972 C2971 1.399 . S
C2972 C2973 1.385 . S
C2973 H2959 0.931 . S
C2973 C2972 1.385 . S
C2973 C2974 1.389 . S
C2974 C2973 1.389 . S
C2974 C2975 1.387 . S
C2975 H2960 0.930 . S
C2975 C2970 1.390 . S
C2975 C2974 1.387 . S
H2976 C2988 0.930 . S
H2977 C2990 0.930 . S
H2978 C2991 0.930 . S
H2979 C2995 0.959 . S
H2980 C2995 0.959 . S
H2981 C2995 0.961 . S
H2982 C2996 0.960 . S
H2983 C2996 0.961 . S
H2984 C2996 0.959 . S
H2985 C2999 0.929 . S
H2986 C3000 0.931 . S
H2987 C3002 0.930 . S
C2988 H2976 0.930 . S
C2988 C2989 1.399 . S
C2988 C2993 1.399 . S
C2989 C2988 1.399 . S
C2989 C2990 1.376 . S
C2990 H2977 0.930 . S
C2990 C2989 1.376 . S
C2990 C2991 1.388 . S
C2991 H2978 0.930 . S
C2991 C2990 1.388 . S
C2991 C2992 1.390 . S
C2992 C2991 1.390 . S
C2992 C2993 1.394 . S
C2992 C2998 1.465 . S
C2993 C2988 1.399 . S
C2993 C2992 1.394 . S
C2993 C2994 1.516 . S
C2994 C2993 1.516 . S
C2994 C2995 1.502 . S
C2994 C2996 1.561 . S
C2994 C2997 1.526 . S
C2995 H2979 0.959 . S
C2995 H2980 0.959 . S
C2995 H2981 0.961 . S
C2995 C2994 1.502 . S
C2996 H2982 0.960 . S
C2996 H2983 0.961 . S
C2996 H2984 0.959 . S
C2996 C2994 1.561 . S
C2997 C2994 1.526 . S
C2997 C2998 1.396 . S
C2997 C3002 1.390 . S
C2998 C2992 1.465 . S
C2998 C2997 1.396 . S
C2998 C2999 1.399 . S
C2999 H2985 0.929 . S
C2999 C2998 1.399 . S
C2999 C3000 1.385 . S
C3000 H2986 0.931 . S
C3000 C2999 1.385 . S
C3000 C3001 1.389 . S
C3001 C3000 1.389 . S
C3001 C3002 1.387 . S
C3002 H2987 0.930 . S
C3002 C2997 1.390 . S
C3002 C3001 1.387 . S
H3003 C3015 0.930 . S
H3004 C3017 0.930 . S
H3005 C3018 0.930 . S
H3006 C3022 0.959 . S
H3007 C3022 0.959 . S
H3008 C3022 0.961 . S
H3009 C3023 0.960 . S
H3010 C3023 0.961 . S
H3011 C3023 0.959 . S
H3012 C3026 0.929 . S
H3013 C3027 0.931 . S
H3014 C3029 0.930 . S
C3015 H3003 0.930 . S
C3015 C3016 1.399 . S
C3015 C3020 1.399 . S
C3016 C3015 1.399 . S
C3016 C3017 1.376 . S
C3017 H3004 0.930 . S
C3017 C3016 1.376 . S
C3017 C3018 1.388 . S
C3018 H3005 0.930 . S
C3018 C3017 1.388 . S
C3018 C3019 1.390 . S
C3019 C3018 1.390 . S
C3019 C3020 1.394 . S
C3019 C3025 1.465 . S
C3020 C3015 1.399 . S
C3020 C3019 1.394 . S
C3020 C3021 1.516 . S
C3021 C3020 1.516 . S
C3021 C3022 1.502 . S
C3021 C3023 1.561 . S
C3021 C3024 1.526 . S
C3022 H3006 0.959 . S
C3022 H3007 0.959 . S
C3022 H3008 0.961 . S
C3022 C3021 1.502 . S
C3023 H3009 0.960 . S
C3023 H3010 0.961 . S
C3023 H3011 0.959 . S
C3023 C3021 1.561 . S
C3024 C3021 1.526 . S
C3024 C3025 1.396 . S
C3024 C3029 1.390 . S
C3025 C3019 1.465 . S
C3025 C3024 1.396 . S
C3025 C3026 1.399 . S
C3026 H3012 0.929 . S
C3026 C3025 1.399 . S
C3026 C3027 1.385 . S
C3027 H3013 0.931 . S
C3027 C3026 1.385 . S
C3027 C3028 1.389 . S
C3028 C3027 1.389 . S
C3028 C3029 1.387 . S
C3029 H3014 0.930 . S
C3029 C3024 1.390 . S
C3029 C3028 1.387 . S
H3030 C3042 0.930 . S
H3031 C3044 0.930 . S
H3032 C3045 0.930 . S
H3033 C3049 0.959 . S
H3034 C3049 0.959 . S
H3035 C3049 0.961 . S
H3036 C3050 0.960 . S
H3037 C3050 0.961 . S
H3038 C3050 0.959 . S
H3039 C3053 0.929 . S
H3040 C3054 0.931 . S
H3041 C3056 0.930 . S
C3042 H3030 0.930 . S
C3042 C3043 1.399 . S
C3042 C3047 1.399 . S
C3043 C3042 1.399 . S
C3043 C3044 1.376 . S
C3044 H3031 0.930 . S
C3044 C3043 1.376 . S
C3044 C3045 1.388 . S
C3045 H3032 0.930 . S
C3045 C3044 1.388 . S
C3045 C3046 1.390 . S
C3046 C3045 1.390 . S
C3046 C3047 1.394 . S
C3046 C3052 1.465 . S
C3047 C3042 1.399 . S
C3047 C3046 1.394 . S
C3047 C3048 1.516 . S
C3048 C3047 1.516 . S
C3048 C3049 1.502 . S
C3048 C3050 1.561 . S
C3048 C3051 1.526 . S
C3049 H3033 0.959 . S
C3049 H3034 0.959 . S
C3049 H3035 0.961 . S
C3049 C3048 1.502 . S
C3050 H3036 0.960 . S
C3050 H3037 0.961 . S
C3050 H3038 0.959 . S
C3050 C3048 1.561 . S
C3051 C3048 1.526 . S
C3051 C3052 1.396 . S
C3051 C3056 1.390 . S
C3052 C3046 1.465 . S
C3052 C3051 1.396 . S
C3052 C3053 1.399 . S
C3053 H3039 0.929 . S
C3053 C3052 1.399 . S
C3053 C3054 1.385 . S
C3054 H3040 0.931 . S
C3054 C3053 1.385 . S
C3054 C3055 1.389 . S
C3055 C3054 1.389 . S
C3055 C3056 1.387 . S
C3056 H3041 0.930 . S
C3056 C3051 1.390 . S
C3056 C3055 1.387 . S
H3057 C3069 0.930 . S
H3058 C3071 0.930 . S
H3059 C3072 0.930 . S
H3060 C3076 0.959 . S
H3061 C3076 0.959 . S
H3062 C3076 0.961 . S
H3063 C3077 0.960 . S
H3064 C3077 0.961 . S
H3065 C3077 0.959 . S
H3066 C3080 0.929 . S
H3067 C3081 0.931 . S
H3068 C3083 0.930 . S
C3069 H3057 0.930 . S
C3069 C3070 1.399 . S
C3069 C3074 1.399 . S
C3070 C3069 1.399 . S
C3070 C3071 1.376 . S
C3071 H3058 0.930 . S
C3071 C3070 1.376 . S
C3071 C3072 1.388 . S
C3072 H3059 0.930 . S
C3072 C3071 1.388 . S
C3072 C3073 1.390 . S
C3073 C3072 1.390 . S
C3073 C3074 1.394 . S
C3073 C3079 1.465 . S
C3074 C3069 1.399 . S
C3074 C3073 1.394 . S
C3074 C3075 1.516 . S
C3075 C3074 1.516 . S
C3075 C3076 1.502 . S
C3075 C3077 1.561 . S
C3075 C3078 1.526 . S
C3076 H3060 0.959 . S
C3076 H3061 0.959 . S
C3076 H3062 0.961 . S
C3076 C3075 1.502 . S
C3077 H3063 0.960 . S
C3077 H3064 0.961 . S
C3077 H3065 0.959 . S
C3077 C3075 1.561 . S
C3078 C3075 1.526 . S
C3078 C3079 1.396 . S
C3078 C3083 1.390 . S
C3079 C3073 1.465 . S
C3079 C3078 1.396 . S
C3079 C3080 1.399 . S
C3080 H3066 0.929 . S
C3080 C3079 1.399 . S
C3080 C3081 1.385 . S
C3081 H3067 0.931 . S
C3081 C3080 1.385 . S
C3081 C3082 1.389 . S
C3082 C3081 1.389 . S
C3082 C3083 1.387 . S
C3083 H3068 0.930 . S
C3083 C3078 1.390 . S
C3083 C3082 1.387 . S
H3084 C3096 0.930 . S
H3085 C3098 0.930 . S
H3086 C3099 0.930 . S
H3087 C3103 0.959 . S
H3088 C3103 0.959 . S
H3089 C3103 0.961 . S
H3090 C3104 0.960 . S
H3091 C3104 0.961 . S
H3092 C3104 0.959 . S
H3093 C3107 0.929 . S
H3094 C3108 0.931 . S
H3095 C3110 0.930 . S
C3096 H3084 0.930 . S
C3096 C3097 1.399 . S
C3096 C3101 1.399 . S
C3097 C3096 1.399 . S
C3097 C3098 1.376 . S
C3098 H3085 0.930 . S
C3098 C3097 1.376 . S
C3098 C3099 1.388 . S
C3099 H3086 0.930 . S
C3099 C3098 1.388 . S
C3099 C3100 1.390 . S
C3100 C3099 1.390 . S
C3100 C3101 1.394 . S
C3100 C3106 1.465 . S
C3101 C3096 1.399 . S
C3101 C3100 1.394 . S
C3101 C3102 1.516 . S
C3102 C3101 1.516 . S
C3102 C3103 1.502 . S
C3102 C3104 1.561 . S
C3102 C3105 1.526 . S
C3103 H3087 0.959 . S
C3103 H3088 0.959 . S
C3103 H3089 0.961 . S
C3103 C3102 1.502 . S
C3104 H3090 0.960 . S
C3104 H3091 0.961 . S
C3104 H3092 0.959 . S
C3104 C3102 1.561 . S
C3105 C3102 1.526 . S
C3105 C3106 1.396 . S
C3105 C3110 1.390 . S
C3106 C3100 1.465 . S
C3106 C3105 1.396 . S
C3106 C3107 1.399 . S
C3107 H3093 0.929 . S
C3107 C3106 1.399 . S
C3107 C3108 1.385 . S
C3108 H3094 0.931 . S
C3108 C3107 1.385 . S
C3108 C3109 1.389 . S
C3109 C3108 1.389 . S
C3109 C3110 1.387 . S
C3110 H3095 0.930 . S
C3110 C3105 1.390 . S
C3110 C3109 1.387 . S
H3111 C3123 0.930 . S
H3112 C3125 0.930 . S
H3113 C3126 0.930 . S
H3114 C3130 0.959 . S
H3115 C3130 0.959 . S
H3116 C3130 0.961 . S
H3117 C3131 0.960 . S
H3118 C3131 0.961 . S
H3119 C3131 0.959 . S
H3120 C3134 0.929 . S
H3121 C3135 0.931 . S
H3122 C3137 0.930 . S
C3123 H3111 0.930 . S
C3123 C3124 1.399 . S
C3123 C3128 1.399 . S
C3124 C3123 1.399 . S
C3124 C3125 1.376 . S
C3125 H3112 0.930 . S
C3125 C3124 1.376 . S
C3125 C3126 1.388 . S
C3126 H3113 0.930 . S
C3126 C3125 1.388 . S
C3126 C3127 1.390 . S
C3127 C3126 1.390 . S
C3127 C3128 1.394 . S
C3127 C3133 1.465 . S
C3128 C3123 1.399 . S
C3128 C3127 1.394 . S
C3128 C3129 1.516 . S
C3129 C3128 1.516 . S
C3129 C3130 1.502 . S
C3129 C3131 1.561 . S
C3129 C3132 1.526 . S
C3130 H3114 0.959 . S
C3130 H3115 0.959 . S
C3130 H3116 0.961 . S
C3130 C3129 1.502 . S
C3131 H3117 0.960 . S
C3131 H3118 0.961 . S
C3131 H3119 0.959 . S
C3131 C3129 1.561 . S
C3132 C3129 1.526 . S
C3132 C3133 1.396 . S
C3132 C3137 1.390 . S
C3133 C3127 1.465 . S
C3133 C3132 1.396 . S
C3133 C3134 1.399 . S
C3134 H3120 0.929 . S
C3134 C3133 1.399 . S
C3134 C3135 1.385 . S
C3135 H3121 0.931 . S
C3135 C3134 1.385 . S
C3135 C3136 1.389 . S
C3136 C3135 1.389 . S
C3136 C3137 1.387 . S
C3137 H3122 0.930 . S
C3137 C3132 1.390 . S
C3137 C3136 1.387 . S
H3138 C3150 0.930 . S
H3139 C3152 0.930 . S
H3140 C3153 0.930 . S
H3141 C3157 0.959 . S
H3142 C3157 0.959 . S
H3143 C3157 0.961 . S
H3144 C3158 0.960 . S
H3145 C3158 0.961 . S
H3146 C3158 0.959 . S
H3147 C3161 0.929 . S
H3148 C3162 0.931 . S
H3149 C3164 0.930 . S
C3150 H3138 0.930 . S
C3150 C3151 1.399 . S
C3150 C3155 1.399 . S
C3151 C3150 1.399 . S
C3151 C3152 1.376 . S
C3152 H3139 0.930 . S
C3152 C3151 1.376 . S
C3152 C3153 1.388 . S
C3153 H3140 0.930 . S
C3153 C3152 1.388 . S
C3153 C3154 1.390 . S
C3154 C3153 1.390 . S
C3154 C3155 1.394 . S
C3154 C3160 1.465 . S
C3155 C3150 1.399 . S
C3155 C3154 1.394 . S
C3155 C3156 1.516 . S
C3156 C3155 1.516 . S
C3156 C3157 1.502 . S
C3156 C3158 1.561 . S
C3156 C3159 1.526 . S
C3157 H3141 0.959 . S
C3157 H3142 0.959 . S
C3157 H3143 0.961 . S
C3157 C3156 1.502 . S
C3158 H3144 0.960 . S
C3158 H3145 0.961 . S
C3158 H3146 0.959 . S
C3158 C3156 1.561 . S
C3159 C3156 1.526 . S
C3159 C3160 1.396 . S
C3159 C3164 1.390 . S
C3160 C3154 1.465 . S
C3160 C3159 1.396 . S
C3160 C3161 1.399 . S
C3161 H3147 0.929 . S
C3161 C3160 1.399 . S
C3161 C3162 1.385 . S
C3162 H3148 0.931 . S
C3162 C3161 1.385 . S
C3162 C3163 1.389 . S
C3163 C3162 1.389 . S
C3163 C3164 1.387 . S
C3164 H3149 0.930 . S
C3164 C3159 1.390 . S
C3164 C3163 1.387 . S
H3165 C3177 0.930 . S
H3166 C3179 0.930 . S
H3167 C3180 0.930 . S
H3168 C3184 0.959 . S
H3169 C3184 0.959 . S
H3170 C3184 0.961 . S
H3171 C3185 0.960 . S
H3172 C3185 0.961 . S
H3173 C3185 0.959 . S
H3174 C3188 0.929 . S
H3175 C3189 0.931 . S
H3176 C3191 0.930 . S
C3177 H3165 0.930 . S
C3177 C3178 1.399 . S
C3177 C3182 1.399 . S
C3178 C3177 1.399 . S
C3178 C3179 1.376 . S
C3179 H3166 0.930 . S
C3179 C3178 1.376 . S
C3179 C3180 1.388 . S
C3180 H3167 0.930 . S
C3180 C3179 1.388 . S
C3180 C3181 1.390 . S
C3181 C3180 1.390 . S
C3181 C3182 1.394 . S
C3181 C3187 1.465 . S
C3182 C3177 1.399 . S
C3182 C3181 1.394 . S
C3182 C3183 1.516 . S
C3183 C3182 1.516 . S
C3183 C3184 1.502 . S
C3183 C3185 1.561 . S
C3183 C3186 1.526 . S
C3184 H3168 0.959 . S
C3184 H3169 0.959 . S
C3184 H3170 0.961 . S
C3184 C3183 1.502 . S
C3185 H3171 0.960 . S
C3185 H3172 0.961 . S
C3185 H3173 0.959 . S
C3185 C3183 1.561 . S
C3186 C3183 1.526 . S
C3186 C3187 1.396 . S
C3186 C3191 1.390 . S
C3187 C3181 1.465 . S
C3187 C3186 1.396 . S
C3187 C3188 1.399 . S
C3188 H3174 0.929 . S
C3188 C3187 1.399 . S
C3188 C3189 1.385 . S
C3189 H3175 0.931 . S
C3189 C3188 1.385 . S
C3189 C3190 1.389 . S
C3190 C3189 1.389 . S
C3190 C3191 1.387 . S
C3191 H3176 0.930 . S
C3191 C3186 1.390 . S
C3191 C3190 1.387 . S
H3192 C3204 0.930 . S
H3193 C3206 0.930 . S
H3194 C3207 0.930 . S
H3195 C3211 0.959 . S
H3196 C3211 0.959 . S
H3197 C3211 0.961 . S
H3198 C3212 0.960 . S
H3199 C3212 0.961 . S
H3200 C3212 0.959 . S
H3201 C3215 0.929 . S
H3202 C3216 0.931 . S
H3203 C3218 0.930 . S
C3204 H3192 0.930 . S
C3204 C3205 1.399 . S
C3204 C3209 1.399 . S
C3205 C3204 1.399 . S
C3205 C3206 1.376 . S
C3206 H3193 0.930 . S
C3206 C3205 1.376 . S
C3206 C3207 1.388 . S
C3207 H3194 0.930 . S
C3207 C3206 1.388 . S
C3207 C3208 1.390 . S
C3208 C3207 1.390 . S
C3208 C3209 1.394 . S
C3208 C3214 1.465 . S
C3209 C3204 1.399 . S
C3209 C3208 1.394 . S
C3209 C3210 1.516 . S
C3210 C3209 1.516 . S
C3210 C3211 1.502 . S
C3210 C3212 1.561 . S
C3210 C3213 1.526 . S
C3211 H3195 0.959 . S
C3211 H3196 0.959 . S
C3211 H3197 0.961 . S
C3211 C3210 1.502 . S
C3212 H3198 0.960 . S
C3212 H3199 0.961 . S
C3212 H3200 0.959 . S
C3212 C3210 1.561 . S
C3213 C3210 1.526 . S
C3213 C3214 1.396 . S
C3213 C3218 1.390 . S
C3214 C3208 1.465 . S
C3214 C3213 1.396 . S
C3214 C3215 1.399 . S
C3215 H3201 0.929 . S
C3215 C3214 1.399 . S
C3215 C3216 1.385 . S
C3216 H3202 0.931 . S
C3216 C3215 1.385 . S
C3216 C3217 1.389 . S
C3217 C3216 1.389 . S
C3217 C3218 1.387 . S
C3218 H3203 0.930 . S
C3218 C3213 1.390 . S
C3218 C3217 1.387 . S
H3219 C3231 0.930 . S
H3220 C3233 0.930 . S
H3221 C3234 0.930 . S
H3222 C3238 0.959 . S
H3223 C3238 0.959 . S
H3224 C3238 0.961 . S
H3225 C3239 0.960 . S
H3226 C3239 0.961 . S
H3227 C3239 0.959 . S
H3228 C3242 0.929 . S
H3229 C3243 0.931 . S
H3230 C3245 0.930 . S
C3231 H3219 0.930 . S
C3231 C3232 1.399 . S
C3231 C3236 1.399 . S
C3232 C3231 1.399 . S
C3232 C3233 1.376 . S
C3233 H3220 0.930 . S
C3233 C3232 1.376 . S
C3233 C3234 1.388 . S
C3234 H3221 0.930 . S
C3234 C3233 1.388 . S
C3234 C3235 1.390 . S
C3235 C3234 1.390 . S
C3235 C3236 1.394 . S
C3235 C3241 1.465 . S
C3236 C3231 1.399 . S
C3236 C3235 1.394 . S
C3236 C3237 1.516 . S
C3237 C3236 1.516 . S
C3237 C3238 1.502 . S
C3237 C3239 1.561 . S
C3237 C3240 1.526 . S
C3238 H3222 0.959 . S
C3238 H3223 0.959 . S
C3238 H3224 0.961 . S
C3238 C3237 1.502 . S
C3239 H3225 0.960 . S
C3239 H3226 0.961 . S
C3239 H3227 0.959 . S
C3239 C3237 1.561 . S
C3240 C3237 1.526 . S
C3240 C3241 1.396 . S
C3240 C3245 1.390 . S
C3241 C3235 1.465 . S
C3241 C3240 1.396 . S
C3241 C3242 1.399 . S
C3242 H3228 0.929 . S
C3242 C3241 1.399 . S
C3242 C3243 1.385 . S
C3243 H3229 0.931 . S
C3243 C3242 1.385 . S
C3243 C3244 1.389 . S
C3244 C3243 1.389 . S
C3244 C3245 1.387 . S
C3245 H3230 0.930 . S
C3245 C3240 1.390 . S
C3245 C3244 1.387 . S
H3246 C3258 0.930 . S
H3247 C3260 0.930 . S
H3248 C3261 0.930 . S
H3249 C3265 0.959 . S
H3250 C3265 0.959 . S
H3251 C3265 0.961 . S
H3252 C3266 0.960 . S
H3253 C3266 0.961 . S
H3254 C3266 0.959 . S
H3255 C3269 0.929 . S
H3256 C3270 0.931 . S
H3257 C3272 0.930 . S
C3258 H3246 0.930 . S
C3258 C3259 1.399 . S
C3258 C3263 1.399 . S
C3259 C3258 1.399 . S
C3259 C3260 1.376 . S
C3260 H3247 0.930 . S
C3260 C3259 1.376 . S
C3260 C3261 1.388 . S
C3261 H3248 0.930 . S
C3261 C3260 1.388 . S
C3261 C3262 1.390 . S
C3262 C3261 1.390 . S
C3262 C3263 1.394 . S
C3262 C3268 1.465 . S
C3263 C3258 1.399 . S
C3263 C3262 1.394 . S
C3263 C3264 1.516 . S
C3264 C3263 1.516 . S
C3264 C3265 1.502 . S
C3264 C3266 1.561 . S
C3264 C3267 1.526 . S
C3265 H3249 0.959 . S
C3265 H3250 0.959 . S
C3265 H3251 0.961 . S
C3265 C3264 1.502 . S
C3266 H3252 0.960 . S
C3266 H3253 0.961 . S
C3266 H3254 0.959 . S
C3266 C3264 1.561 . S
C3267 C3264 1.526 . S
C3267 C3268 1.396 . S
C3267 C3272 1.390 . S
C3268 C3262 1.465 . S
C3268 C3267 1.396 . S
C3268 C3269 1.399 . S
C3269 H3255 0.929 . S
C3269 C3268 1.399 . S
C3269 C3270 1.385 . S
C3270 H3256 0.931 . S
C3270 C3269 1.385 . S
C3270 C3271 1.389 . S
C3271 C3270 1.389 . S
C3271 C3272 1.387 . S
C3272 H3257 0.930 . S
C3272 C3267 1.390 . S
C3272 C3271 1.387 . S
H3273 C3285 0.930 . S
H3274 C3287 0.908 1_556 S
H3275 C3288 0.930 . S
H3276 C3292 0.959 . S
H3277 C3292 0.959 . S
H3278 C3292 0.961 . S
H3279 C3293 0.960 . S
H3280 C3293 0.961 . S
H3281 C3293 0.959 . S
H3282 C3296 0.929 1_545 S
H3283 C3297 0.931 . S
H3284 C3299 0.930 . S
C3285 H3273 0.930 . S
C3285 C3286 1.399 . S
C3285 C3290 1.399 . S
C3286 C3285 1.399 . S
C3286 C3287 1.410 . S
C3287 H3274 0.908 1_554 S
C3287 C3286 1.410 . S
C3287 C3288 1.378 1_554 S
C3288 H3275 0.930 . S
C3288 C3287 1.378 1_556 S
C3288 C3289 1.390 1_556 S
C3289 C3288 1.390 1_554 S
C3289 C3290 1.394 . S
C3289 C3295 1.465 . S
C3290 C3285 1.399 . S
C3290 C3289 1.394 . S
C3290 C3291 1.516 . S
C3291 C3290 1.516 . S
C3291 C3292 1.502 . S
C3291 C3293 1.561 . S
C3291 C3294 1.526 . S
C3292 H3276 0.959 . S
C3292 H3277 0.959 . S
C3292 H3278 0.961 . S
C3292 C3291 1.502 . S
C3293 H3279 0.960 . S
C3293 H3280 0.961 . S
C3293 H3281 0.959 . S
C3293 C3291 1.561 . S
C3294 C3291 1.526 . S
C3294 C3295 1.396 . S
C3294 C3299 1.390 . S
C3295 C3289 1.465 . S
C3295 C3294 1.396 . S
C3295 C3296 1.399 1_554 S
C3296 H3282 0.929 1_565 S
C3296 C3295 1.399 1_556 S
C3296 C3297 1.385 1_565 S
C3297 H3283 0.931 . S
C3297 C3296 1.385 1_545 S
C3297 C3298 1.389 1_556 S
C3298 C3297 1.389 1_554 S
C3298 C3299 1.387 1_545 S
C3299 H3284 0.930 . S
C3299 C3294 1.390 . S
C3299 C3298 1.387 1_565 S
H3300 C3312 0.930 . S
H3301 C3314 0.930 . S
H3302 C3315 0.930 . S
H3303 C3319 0.959 . S
H3304 C3319 0.959 . S
H3305 C3319 0.961 . S
H3306 C3320 0.960 . S
H3307 C3320 0.961 . S
H3308 C3320 0.959 . S
H3309 C3323 0.929 . S
H3310 C3324 0.931 . S
H3311 C3326 0.930 . S
C3312 H3300 0.930 . S
C3312 C3313 1.399 . S
C3312 C3317 1.399 . S
C3313 C3312 1.399 . S
C3313 C3314 1.376 . S
C3314 H3301 0.930 . S
C3314 C3313 1.376 . S
C3314 C3315 1.388 . S
C3315 H3302 0.930 . S
C3315 C3314 1.388 . S
C3315 C3316 1.390 . S
C3316 C3315 1.390 . S
C3316 C3317 1.394 . S
C3316 C3322 1.465 . S
C3317 C3312 1.399 . S
C3317 C3316 1.394 . S
C3317 C3318 1.516 . S
C3318 C3317 1.516 . S
C3318 C3319 1.502 . S
C3318 C3320 1.561 . S
C3318 C3321 1.526 . S
C3319 H3303 0.959 . S
C3319 H3304 0.959 . S
C3319 H3305 0.961 . S
C3319 C3318 1.502 . S
C3320 H3306 0.960 . S
C3320 H3307 0.961 . S
C3320 H3308 0.959 . S
C3320 C3318 1.561 . S
C3321 C3318 1.526 . S
C3321 C3322 1.396 . S
C3321 C3326 1.390 . S
C3322 C3316 1.465 . S
C3322 C3321 1.396 . S
C3322 C3323 1.399 . S
C3323 H3309 0.929 . S
C3323 C3322 1.399 . S
C3323 C3324 1.385 . S
C3324 H3310 0.931 . S
C3324 C3323 1.385 . S
C3324 C3325 1.389 . S
C3325 C3324 1.389 . S
C3325 C3326 1.387 . S
C3326 H3311 0.930 . S
C3326 C3321 1.390 . S
C3326 C3325 1.387 . S
H3327 C3339 0.930 . S
H3328 C3341 0.930 . S
H3329 C3342 0.930 . S
H3330 C3346 0.959 . S
H3331 C3346 0.959 . S
H3332 C3346 0.961 . S
H3333 C3347 0.960 . S
H3334 C3347 0.961 . S
H3335 C3347 0.959 1_554 S
H3336 C3350 0.929 . S
H3337 C3351 0.931 . S
H3338 C3353 0.930 . S
C3339 H3327 0.930 . S
C3339 C3340 1.399 1_556 S
C3339 C3344 1.399 1_556 S
C3340 C3339 1.399 1_554 S
C3340 C3341 1.376 . S
C3341 H3328 0.930 . S
C3341 C3340 1.376 . S
C3341 C3342 1.388 . S
C3342 H3329 0.930 . S
C3342 C3341 1.388 . S
C3342 C3343 1.390 . S
C3343 C3342 1.390 . S
C3343 C3344 1.394 . S
C3343 C3349 1.465 . S
C3344 C3339 1.399 1_554 S
C3344 C3343 1.394 . S
C3344 C3345 1.516 1_554 S
C3345 C3344 1.516 1_556 S
C3345 C3346 1.502 . S
C3345 C3347 1.561 . S
C3345 C3348 1.526 1_556 S
C3346 H3330 0.959 . S
C3346 H3331 0.959 . S
C3346 H3332 0.961 . S
C3346 C3345 1.502 . S
C3347 H3333 0.960 . S
C3347 H3334 0.961 . S
C3347 H3335 0.959 1_556 S
C3347 C3345 1.561 . S
C3348 C3345 1.526 1_554 S
C3348 C3349 1.396 . S
C3348 C3353 1.390 . S
C3349 C3343 1.465 . S
C3349 C3348 1.396 . S
C3349 C3350 1.399 . S
C3350 H3336 0.929 . S
C3350 C3349 1.399 . S
C3350 C3351 1.385 . S
C3351 H3337 0.931 . S
C3351 C3350 1.385 . S
C3351 C3352 1.389 . S
C3352 C3351 1.389 . S
C3352 C3353 1.387 . S
C3353 H3338 0.930 . S
C3353 C3348 1.390 . S
C3353 C3352 1.387 . S
H3354 C3366 0.930 . S
H3355 C3368 0.930 . S
H3356 C3369 0.930 . S
H3357 C3373 0.959 . S
H3358 C3373 0.959 . S
H3359 C3373 0.961 . S
H3360 C3374 0.960 . S
H3361 C3374 0.961 . S
H3362 C3374 0.959 . S
H3363 C3377 0.929 . S
H3364 C3378 0.931 . S
H3365 C3380 0.930 . S
C3366 H3354 0.930 . S
C3366 C3367 1.399 . S
C3366 C3371 1.399 . S
C3367 C3366 1.399 . S
C3367 C3368 1.376 . S
C3368 H3355 0.930 . S
C3368 C3367 1.376 . S
C3368 C3369 1.388 . S
C3369 H3356 0.930 . S
C3369 C3368 1.388 . S
C3369 C3370 1.390 . S
C3370 C3369 1.390 . S
C3370 C3371 1.394 . S
C3370 C3376 1.465 . S
C3371 C3366 1.399 . S
C3371 C3370 1.394 . S
C3371 C3372 1.516 . S
C3372 C3371 1.516 . S
C3372 C3373 1.502 . S
C3372 C3374 1.561 . S
C3372 C3375 1.526 . S
C3373 H3357 0.959 . S
C3373 H3358 0.959 . S
C3373 H3359 0.961 . S
C3373 C3372 1.502 . S
C3374 H3360 0.960 . S
C3374 H3361 0.961 . S
C3374 H3362 0.959 . S
C3374 C3372 1.561 . S
C3375 C3372 1.526 . S
C3375 C3376 1.396 . S
C3375 C3380 1.390 . S
C3376 C3370 1.465 . S
C3376 C3375 1.396 . S
C3376 C3377 1.399 . S
C3377 H3363 0.929 . S
C3377 C3376 1.399 . S
C3377 C3378 1.385 . S
C3378 H3364 0.931 . S
C3378 C3377 1.385 . S
C3378 C3379 1.389 . S
C3379 C3378 1.389 . S
C3379 C3380 1.387 . S
C3380 H3365 0.930 . S
C3380 C3375 1.390 . S
C3380 C3379 1.387 . S
H3381 C3393 0.930 . S
H3382 C3395 0.930 . S
H3383 C3396 0.930 . S
H3384 C3400 0.959 . S
H3385 C3400 0.959 . S
H3386 C3400 0.961 . S
H3387 C3401 0.960 . S
H3388 C3401 0.961 . S
H3389 C3401 0.959 . S
H3390 C3404 0.929 . S
H3391 C3405 0.931 . S
H3392 C3407 0.930 . S
C3393 H3381 0.930 . S
C3393 C3394 1.399 . S
C3393 C3398 1.399 . S
C3394 C3393 1.399 . S
C3394 C3395 1.376 . S
C3395 H3382 0.930 . S
C3395 C3394 1.376 . S
C3395 C3396 1.388 . S
C3396 H3383 0.930 . S
C3396 C3395 1.388 . S
C3396 C3397 1.390 . S
C3397 C3396 1.390 . S
C3397 C3398 1.394 . S
C3397 C3403 1.465 . S
C3398 C3393 1.399 . S
C3398 C3397 1.394 . S
C3398 C3399 1.516 . S
C3399 C3398 1.516 . S
C3399 C3400 1.502 . S
C3399 C3401 1.561 . S
C3399 C3402 1.526 . S
C3400 H3384 0.959 . S
C3400 H3385 0.959 . S
C3400 H3386 0.961 . S
C3400 C3399 1.502 . S
C3401 H3387 0.960 . S
C3401 H3388 0.961 . S
C3401 H3389 0.959 . S
C3401 C3399 1.561 . S
C3402 C3399 1.526 . S
C3402 C3403 1.396 . S
C3402 C3407 1.390 . S
C3403 C3397 1.465 . S
C3403 C3402 1.396 . S
C3403 C3404 1.399 . S
C3404 H3390 0.929 . S
C3404 C3403 1.399 . S
C3404 C3405 1.385 . S
C3405 H3391 0.931 . S
C3405 C3404 1.385 . S
C3405 C3406 1.389 . S
C3406 C3405 1.389 . S
C3406 C3407 1.387 . S
C3407 H3392 0.930 . S
C3407 C3402 1.390 . S
C3407 C3406 1.387 . S
C841 C337 1.843 . S
C829 C7 1.833 . S
C856 C22 1.011 . S
C868 C382 0.982 . S
C883 C31 1.748 . S
C895 C406 1.709 . S
C922 N432 1.072 . S
C910 C51 1.023 . S
C937 C17 1.109 . S
C949 N462 1.130 . S
C976 C496 1.563 . S
C964 C36 1.607 . S
C1003 C532 1.192 1_556 S
C991 C49 1.184 . S
C1018 C9 1.776 . S
C1030 C556 1.776 . S
C1045 C63 1.014 . S
C1057 N350 0.965 . S
C1072 C73 1.125 . S
C1084 N372 1.111 . S
C1111 C412 1.065 . S
C1099 C91 1.083 . S
C1138 C436 1.795 . S
C1126 C101 1.806 . S
C1153 C59 1.261 . S
C1165 C466 1.174 . S
C1192 C502 1.092 . S
C1180 C77 1.071 . S
C1219 N522 1.096 . S
C1207 C87 1.068 . S
C1246 C562 1.715 . S
C1234 C105 1.727 . S
C1273 C363 1.677 . S
C1261 C107 1.712 . S
C1300 C592 1.033 . S
C1288 C120 1.042 . S
C1315 C135 1.052 . S
C1327 N612 1.107 . S
C1354 C646 1.551 . S
C1342 C148 1.600 . S
C1369 C65 0.901 . S
C1381 N552 0.920 . S
C1408 N402 1.083 1_565 S
C1396 C79 1.107 . S
C1423 C134 1.026 . S
C1435 C682 1.045 . S
C1462 C706 1.067 . S
C1450 C162 1.056 . S
C1477 C171 1.809 . S
C1489 C346 1.793 1_556 S
C1516 C723 0.938 . S
C1504 C190 0.984 . S
C1531 C203 1.680 . S
C1543 C397 1.674 . S
C1558 C219 1.015 . S
C1570 N680 1.037 . S
C1597 N470 1.093 . S
C1585 C189 1.070 . S
C1624 C607 1.566 . S
C1612 C204 1.547 . S
C1651 C543 1.156 . S
C1639 C213 1.166 . S
C1678 C727 1.701 . S
C1666 C177 1.750 . S
C1705 N342 0.971 . S
C1693 C227 0.963 . S
C1720 C245 1.077 . S
C1732 N710 1.083 . S
C1759 C423 1.033 . S
C1747 C255 1.010 . S
C1774 C273 1.722 . S
C1786 C667 1.725 . S
C1801 C231 1.185 . S
C1813 C457 1.153 1_655 S
C1828 C241 1.070 . S
C1840 C633 1.090 . S
C1867 N530 1.070 . S
C1855 C259 0.956 . S
C1882 C269 1.713 . S
C1894 C753 1.680 . S
C1909 C275 1.667 . S
C1921 C352 1.667 . S
C1936 C288 0.951 . S
C1948 C603 0.999 . S
C1963 C303 1.077 . S
C1975 N500 1.066 . S
C1990 C316 1.549 . S
C2002 C637 1.553 . S
C2029 N740 0.893 . S
C2017 C233 0.916 1_565 S
C2056 N410 1.065 . S
C2044 C247 1.039 . S
C2083 C453 0.987 . S
C2071 C302 1.035 . S
C2110 C367 0.934 . S
C2098 C330 1.035 . S
C2125 C35 1.833 . S
C2137 C757 1.800 . S
C2164 C712 1.026 . S
C2152 C50 1.032 . S
C2191 C796 1.725 . S
C2179 C3 1.745 . S
C2206 C23 1.044 1_655 S
C2218 N672 1.063 . S
C2233 C45 1.119 . S
C2245 N582 1.126 1_556 S
C2272 C616 1.583 . S
C2260 C8 1.610 . S
C2299 C652 1.203 . S
C2287 C21 1.211 . S
C2326 C736 1.784 . S
C2314 C37 1.777 . S
C2353 N770 1.001 . S
C2341 C161 0.927 . S
C2368 C115 1.125 1_556 S
C2380 N702 1.111 . S
C2395 C133 1.084 . S
C2407 C802 1.064 1_655 S
C2434 C676 1.757 . S
C2422 C143 1.810 . S
C2461 C586 1.211 . S
C2449 C157 1.243 . S
C2476 C119 1.087 . S
C2488 C622 1.137 . S
C2515 N642 1.093 . S
C2503 C129 1.065 . S
C2530 C147 1.705 . S
C2542 C742 1.726 . S
C2569 C783 1.674 . S
C2557 C149 1.712 . S
C2596 C472 1.030 . S
C2584 C78 1.043 . S
C2623 N492 1.108 . S
C2611 C93 1.059 1_565 S
C2638 C106 1.598 . S
C2650 C526 1.554 . S
C2677 N732 0.928 . S
C2665 C163 0.946 . S
C2692 C121 1.108 . S
C2704 N792 1.080 . S
C2731 C442 1.060 . S
C2719 C92 1.080 . S
C2758 C376 0.985 . S
C2746 C64 1.045 . S
C2773 C199 1.814 . S
C2785 C766 1.778 . S
C2812 C393 0.965 . S
C2800 C218 0.956 . S
C2839 C787 1.693 1_556 S
C2827 C175 1.680 . S
C2854 C191 1.010 . S
C2866 N440 1.039 . S
C2881 C217 1.097 . S
C2893 N590 1.092 . S
C2908 C176 1.551 . S
C2920 C487 1.563 . S
C2935 C185 1.165 1_655 S
C2947 C663 1.166 . S
C2962 C205 1.760 . S
C2974 C547 1.743 . S
C3001 N762 0.945 . S
C2989 C325 0.955 . S
C3016 C287 0.979 . S
C3028 N380 1.087 . S
C3055 C813 0.981 . S
C3043 C297 1.014 . S
C3070 C315 1.711 . S
C3082 C427 1.752 . S
C3097 C329 1.192 . S
C3109 C577 1.146 . S
C3136 C513 1.065 . S
C3124 C283 1.083 . S
C3151 C301 0.962 . S
C3163 N650 1.067 . S
C3190 C573 1.670 . S
C3178 C311 1.706 . S
C3217 C772 1.667 . S
C3205 C317 1.668 . S
C3244 C483 0.944 . S
C3232 C246 0.995 . S
C3259 C261 1.082 . S
C3271 N620 1.063 . S
C3298 C517 1.558 . S
C3286 C274 1.548 . S
C3325 N560 0.917 . S
C3313 C331 0.878 . S
C3340 C289 1.030 1_554 S
C3352 N800 1.066 . S
C3379 C693 1.041 . S
C3367 C260 0.998 . S
C3406 C697 1.038 . S
C3394 C232 0.958 . S
