# Generated by pormake.
# Topology anh, (6,3)-cn, num edge types: 1
# Building blocks:
#     Node 0, Type 0, BuildingBlock: VOLQOD_clean_sbu_1, # of connection points: 6
#     Node 1, Type 0, BuildingBlock: VOLQOD_clean_sbu_1, # of connection points: 6
#     Node 2, Type 0, BuildingBlock: VOLQOD_clean_sbu_1, # of connection points: 6
#     Node 3, Type 1, BuildingBlock: WUSLED_clean_sbu_0, # of connection points: 3
#     Node 4, Type 1, BuildingBlock: WUSLED_clean_sbu_0, # of connection points: 3
#     Node 5, Type 1, BuildingBlock: WUSLED_clean_sbu_0, # of connection points: 3
#     Node 6, Type 1, BuildingBlock: WUSLED_clean_sbu_0, # of connection points: 3
#     Node 7, Type 1, BuildingBlock: WUSLED_clean_sbu_0, # of connection points: 3
#     Node 8, Type 1, BuildingBlock: WUSLED_clean_sbu_0, # of connection points: 3
#     Edge 9, Type (0, 1), BuildingBlock: XUDNAN_clean_linker_2, # of connection points: 2
#     Edge 10, Type (0, 1), BuildingBlock: XUDNAN_clean_linker_2, # of connection points: 2
#     Edge 11, Type (0, 1), BuildingBlock: XUDNAN_clean_linker_2, # of connection points: 2
#     Edge 12, Type (0, 1), BuildingBlock: XUDNAN_clean_linker_2, # of connection points: 2
#     Edge 13, Type (0, 1), BuildingBlock: XUDNAN_clean_linker_2, # of connection points: 2
#     Edge 14, Type (0, 1), BuildingBlock: XUDNAN_clean_linker_2, # of connection points: 2
#     Edge 15, Type (0, 1), BuildingBlock: XUDNAN_clean_linker_2, # of connection points: 2
#     Edge 16, Type (0, 1), BuildingBlock: XUDNAN_clean_linker_2, # of connection points: 2
#     Edge 17, Type (0, 1), BuildingBlock: XUDNAN_clean_linker_2, # of connection points: 2
#     Edge 18, Type (0, 1), BuildingBlock: XUDNAN_clean_linker_2, # of connection points: 2
#     Edge 19, Type (0, 1), BuildingBlock: XUDNAN_clean_linker_2, # of connection points: 2
#     Edge 20, Type (0, 1), BuildingBlock: XUDNAN_clean_linker_2, # of connection points: 2
#     Edge 21, Type (0, 1), BuildingBlock: XUDNAN_clean_linker_2, # of connection points: 2
#     Edge 22, Type (0, 1), BuildingBlock: XUDNAN_clean_linker_2, # of connection points: 2
#     Edge 23, Type (0, 1), BuildingBlock: XUDNAN_clean_linker_2, # of connection points: 2
#     Edge 24, Type (0, 1), BuildingBlock: XUDNAN_clean_linker_2, # of connection points: 2
#     Edge 25, Type (0, 1), BuildingBlock: XUDNAN_clean_linker_2, # of connection points: 2
#     Edge 26, Type (0, 1), BuildingBlock: XUDNAN_clean_linker_2, # of connection points: 2
# Relax obj value: 0.164
# Max RMSD: 0.228
# Mean RMSD: 0.110
data_MOF--net-anh--node1-VOLQOD_clean_sbu_1--node2-WUSLED_clean_sbu_0--edge1-XUDNAN_clean_linker_2
_symmetry_space_group_name_H-M    P1
_symmetry_Int_Tables_number       1
_symmetry_cell_setting            triclinic
loop_
_symmetry_equiv_pos_as_xyz
'x, y, z'
_cell_length_a     36.832232
_cell_length_b     36.813111
_cell_length_c     78.672192
_cell_angle_alpha  89.774838
_cell_angle_beta   89.936218
_cell_angle_gamma 120.17027
loop_
_atom_site_label
_atom_site_type_symbol
_atom_site_fract_x
_atom_site_fract_y
_atom_site_fract_z
_atom_type_partial_charge
O0 O 1.00211 0.54222 0.20889 0.0
Zn1 Zn 1.00328 0.55626 0.18421 0.0
O2 O 0.01361 0.518 0.1707 0.0
Zn3 Zn 0.96646 0.48582 0.15527 0.0
Zn4 Zn 0.02253 0.48002 0.18548 0.0
Zn5 Zn 0.06374 0.55161 0.15733 0.0
O6 O 0.98495 0.49645 0.13042 0.0
O7 O 0.04921 0.55177 0.13277 0.0
O8 O 0.94829 0.55285 0.17797 0.0
O9 O 0.9239 0.50448 0.15774 0.0
O10 O 0.93556 0.42386 0.16163 0.0
O11 O 0.97343 0.42123 0.1831 0.0
O12 O 0.07567 0.47881 0.17878 0.0
O13 O 0.05101 0.61637 0.18232 0.0
O14 O 0.10119 0.52712 0.15835 0.0
O15 O 0.09709 0.611 0.16591 0.0
C16 C 0.01266 0.51973 0.21758 0.0
C17 C 0.01809 0.52652 0.12369 0.0
C18 C 0.94173 0.40339 0.17329 0.0
C19 C 0.92027 0.53064 0.16709 0.0
C20 C 0.10312 0.49931 0.16732 0.0
C21 C 0.08716 0.63263 0.17539 0.0
O22 O 0.02368 0.49565 0.21043 0.0
O23 O 0.47282 0.016 0.46581 0.0
Zn24 Zn 0.45815 0.00668 0.49067 0.0
O25 O 0.49939 0.99775 0.5029 0.0
Zn26 Zn 0.53227 0.04393 0.51872 0.0
Zn27 Zn 0.5366 0.99232 0.48653 0.0
Zn28 Zn 0.46954 0.94658 0.51611 0.0
O29 O 0.52681 0.02418 0.54348 0.0
O30 O 0.47484 0.95836 0.54098 0.0
O31 O 0.45683 0.05758 0.49994 0.0
O32 O 0.50947 0.08308 0.51842 0.0
O33 O 0.59323 0.07789 0.51113 0.0
O34 O 0.59539 0.04121 0.48915 0.0
O35 O 0.53848 0.93858 0.49043 0.0
O36 O 0.39989 0.95473 0.49176 0.0
O37 O 0.49341 0.90929 0.51181 0.0
O38 O 0.40841 0.91389 0.51023 0.0
C39 C 0.49583 0.00823 0.45612 0.0
C40 C 0.49976 0.98925 0.55018 0.0
C41 C 0.61331 0.07265 0.49907 0.0
C42 C 0.47998 0.08508 0.51085 0.0
C43 C 0.51973 0.90916 0.50136 0.0
C44 C 0.38529 0.92061 0.50023 0.0
O45 O 0.51989 0.99579 0.46217 0.0
O46 O 0.46251 0.48421 0.79786 0.0
Zn47 Zn 0.45654 0.47125 0.82291 0.0
O48 O 0.50729 0.51261 0.83458 0.0
Zn49 Zn 0.49416 0.54849 0.84814 0.0
Zn50 Zn 0.55144 0.54711 0.81803 0.0
Zn51 Zn 0.52619 0.48318 0.8496 0.0
O52 O 0.51095 0.54885 0.87246 0.0
O53 O 0.51991 0.49361 0.87458 0.0
O54 O 0.40435 0.47051 0.83178 0.0
O55 O 0.43198 0.52609 0.84868 0.0
O56 O 0.5219 0.60771 0.83883 0.0
O57 O 0.56418 0.60742 0.81877 0.0
O58 O 0.60556 0.54647 0.8229 0.0
O59 O 0.44927 0.41327 0.82517 0.0
O60 O 0.5873 0.50474 0.8456 0.0
O61 O 0.49795 0.42131 0.84384 0.0
C62 C 0.49396 0.50503 0.78805 0.0
C63 C 0.51723 0.5236 0.88141 0.0
C64 C 0.54939 0.62654 0.82725 0.0
C65 C 0.40016 0.49511 0.84192 0.0
C66 C 0.61461 0.52839 0.83467 0.0
C67 C 0.46829 0.39839 0.83369 0.0
O68 O 0.53093 0.52784 0.79395 0.0
C69 C 0.60318 0.08223 0.21563 0.0
C70 C 0.63533 0.10031 0.22774 0.0
C71 C 0.68486 0.14497 0.20587 0.0
C72 C 0.67582 0.13131 0.2229 0.0
C73 C 0.65237 0.12695 0.19383 0.0
C74 C 0.61189 0.09578 0.19867 0.0
U75 U 0.52139 0.02193 0.24985 0.0
O76 O 0.45435 1.00215 0.25111 0.0
O77 O 0.47383 0.95476 0.25197 0.0
C78 C 0.44231 0.96192 0.25098 0.0
C79 C 0.56047 0.04968 0.22063 0.0
C80 C 0.40758 0.93468 0.23935 0.0
C81 C 0.34979 0.92312 0.2208 0.0
C82 C 0.38562 0.95032 0.2301 0.0
C83 C 0.35781 0.86432 0.22935 0.0
C84 C 0.33509 0.87971 0.22053 0.0
C85 C 0.39349 0.89146 0.23871 0.0
C86 C 0.55067 0.05027 0.29675 0.0
C87 C 0.53137 0.00968 0.32312 0.0
C88 C 0.54097 0.07974 0.32284 0.0
C89 C 0.55097 0.08353 0.30555 0.0
C90 C 0.53083 0.04272 0.33181 0.0
C91 C 0.54106 0.01334 0.30574 0.0
C92 C 0.56104 0.05525 0.27837 0.0
O93 O 0.5577 0.017 0.22868 0.0
O94 O 0.53747 0.06373 0.22759 0.0
O95 O 0.54285 0.07147 0.26918 0.0
O96 O 0.5621 0.02402 0.27076 0.0
H97 H 0.62906 0.0905 0.24093 0.0
H98 H 0.69992 0.145 0.23254 0.0
H99 H 0.65836 0.13654 0.18061 0.0
H100 H 0.58739 0.08221 0.18917 0.0
H101 H 0.33322 0.93601 0.214 0.0
H102 H 0.39539 0.9834 0.23036 0.0
H103 H 0.34703 0.83099 0.22961 0.0
H104 H 0.40935 0.87837 0.24589 0.0
H105 H 0.52348 0.9807 0.32968 0.0
H106 H 0.54147 0.10599 0.32923 0.0
H107 H 0.55882 0.11255 0.29901 0.0
H108 H 0.54075 0.98716 0.29938 0.0
C109 C 0.53539 0.58858 0.5455 0.0
C110 C 0.53777 0.62003 0.55622 0.0
C111 C 0.54574 0.66395 0.53164 0.0
C112 C 0.54292 0.65741 0.54935 0.0
C113 C 0.54428 0.63262 0.52099 0.0
C114 C 0.53906 0.5952 0.52789 0.0
U115 U 0.5161 0.51612 0.58325 0.0
O116 O 0.47002 0.44896 0.5864 0.0
O117 O 0.53737 0.47094 0.58823 0.0
C118 C 0.49913 0.43833 0.58731 0.0
C119 C 0.52734 0.54819 0.55253 0.0
C120 C 0.49321 0.40323 0.57625 0.0
C121 C 0.44666 0.33774 0.56167 0.0
C122 C 0.45263 0.37204 0.57137 0.0
C123 C 0.52169 0.36491 0.56153 0.0
C124 C 0.48109 0.3336 0.55675 0.0
C125 C 0.52768 0.39925 0.5712 0.0
C126 C 0.5141 0.55305 0.62839 0.0
C127 C 0.52912 0.52957 0.65509 0.0
C128 C 0.47821 0.55284 0.65438 0.0
C129 C 0.48545 0.56104 0.63697 0.0
C130 C 0.49979 0.53681 0.6636 0.0
C131 C 0.53605 0.53738 0.63761 0.0
C132 C 0.51983 0.56058 0.60986 0.0
O133 O 0.55788 0.54949 0.56163 0.0
O134 O 0.49015 0.52529 0.55956 0.0
O135 O 0.48569 0.53942 0.6007 0.0
O136 O 0.55311 0.56191 0.60303 0.0
H137 H 0.53506 0.61539 0.56988 0.0
H138 H 0.54452 0.68115 0.55791 0.0
H139 H 0.5459 0.63648 0.50731 0.0
H140 H 0.53713 0.57111 0.51945 0.0
H141 H 0.41494 0.31385 0.55843 0.0
H142 H 0.42533 0.37377 0.57527 0.0
H143 H 0.54892 0.36285 0.55781 0.0
H144 H 0.55934 0.42242 0.57485 0.0
H145 H 0.54594 0.51691 0.66185 0.0
H146 H 0.45578 0.55916 0.66065 0.0
H147 H 0.46832 0.57329 0.63015 0.0
H148 H 0.55822 0.5307 0.63133 0.0
C149 C 0.93714 0.51822 0.88082 0.0
C150 C 0.943 0.55882 0.87871 0.0
C151 C 0.87377 0.52989 0.8659 0.0
C152 C 0.91166 0.56456 0.87136 0.0
C153 C 0.86808 0.48936 0.86787 0.0
C154 C 0.89947 0.48362 0.87516 0.0
U155 U 0.99781 0.50937 0.91884 0.0
O156 O 0.02299 0.46712 0.92315 0.0
O157 O 0.0657 0.53537 0.9222 0.0
C158 C 0.06218 0.49809 0.9231 0.0
C159 C 0.97053 0.51178 0.88826 0.0
C160 C 0.09148 0.49231 0.91233 0.0
C161 C 0.11359 0.48027 0.88481 0.0
C162 C 0.08461 0.48478 0.89482 0.0
C163 C 0.15637 0.49084 0.90973 0.0
C164 C 0.14996 0.48354 0.89215 0.0
C165 C 0.12739 0.49517 0.9197 0.0
C166 C 0.9693 0.52295 0.96426 0.0
C167 C 0.97704 0.49407 0.99105 0.0
C168 C 0.98641 0.56403 0.99019 0.0
C169 C 0.97765 0.55974 0.9728 0.0
C170 C 0.98657 0.53142 0.99947 0.0
C171 C 0.9687 0.48992 0.97357 0.0
C172 C 0.96207 0.5203 0.94568 0.0
O173 O 1.00207 0.54451 0.89555 0.0
O174 O 0.95789 0.47665 0.89684 0.0
O175 O 0.9486 0.48344 0.93856 0.0
O176 O 0.99128 0.55157 0.93671 0.0
H177 H 0.97178 0.58629 0.88275 0.0
H178 H 0.91689 0.59616 0.87016 0.0
H179 H 0.8395 0.46203 0.86357 0.0
H180 H 0.89426 0.45201 0.87631 0.0
H181 H 0.10794 0.47504 0.8713 0.0
H182 H 0.05707 0.48269 0.88892 0.0
H183 H 0.1837 0.4929 0.91582 0.0
H184 H 0.13312 0.50092 0.9332 0.0
H185 H 0.97722 0.46854 0.99787 0.0
H186 H 0.99313 0.59298 0.99639 0.0
H187 H 0.97796 0.58549 0.96595 0.0
H188 H 0.96237 0.46112 0.96736 0.0
C189 C 0.93385 0.41313 0.45746 0.0
C190 C 0.91619 0.38118 0.44527 0.0
C191 C 0.87103 0.33117 0.46691 0.0
C192 C 0.88513 0.34057 0.44996 0.0
C193 C 0.88868 0.36346 0.47905 0.0
C194 C 0.91989 0.40408 0.47435 0.0
U195 U 0.9968 0.49416 0.42339 0.0
O196 O 0.01576 0.56123 0.42158 0.0
O197 O 0.06357 0.54227 0.42184 0.0
C198 C 0.05599 0.57357 0.42219 0.0
C199 C 0.96631 0.45597 0.45258 0.0
C200 C 0.08152 0.60799 0.43407 0.0
C201 C 0.12518 0.63485 0.45925 0.0
C202 C 0.09828 0.60108 0.44894 0.0
C203 C 0.11772 0.68273 0.44033 0.0
C204 C 0.13564 0.67622 0.45499 0.0
C205 C 0.09105 0.64897 0.42997 0.0
C206 C 0.97725 0.46435 0.3768 0.0
C207 C 0.01443 0.51689 0.3549 0.0
C208 C 0.96336 0.44554 0.34699 0.0
C209 C 0.95582 0.4343 0.36419 0.0
C210 C 0.99237 0.48713 0.34215 0.0
C211 C 0.00693 0.50559 0.37207 0.0
C212 C 0.96786 0.45286 0.39484 0.0
O213 O 1.00023 0.4593 0.44551 0.0
O214 O 0.95238 0.47804 0.44467 0.0
O215 O 0.9501 0.47119 0.40286 0.0
O216 O 0.99825 0.45286 0.40357 0.0
H217 H 0.92635 0.38772 0.43213 0.0
H218 H 0.87173 0.31666 0.44024 0.0
H219 H 0.87877 0.3572 0.49222 0.0
H220 H 0.93314 0.42843 0.48391 0.0
H221 H 0.13875 0.62859 0.47029 0.0
H222 H 0.09135 0.56971 0.4524 0.0
H223 H 0.12444 0.71397 0.4368 0.0
H224 H 0.07835 0.65496 0.41858 0.0
H225 H 0.03739 0.54902 0.3516 0.0
H226 H 0.94557 0.422 0.3375 0.0
H227 H 0.93278 0.4023 0.36766 0.0
H228 H 0.02391 0.52915 0.38166 0.0
C229 C 0.55049 0.96029 0.79005 0.0
C230 C 0.56126 0.94131 0.7771 0.0
C231 C 0.56564 0.89403 0.7977 0.0
C232 C 0.56884 0.90857 0.78088 0.0
C233 C 0.55479 0.9132 0.81065 0.0
C234 C 0.54733 0.94609 0.80684 0.0
U235 U 0.53107 0.02294 0.75691 0.0
O236 O 0.48342 0.04201 0.7553 0.0
O237 O 0.55034 0.09008 0.75519 0.0
C238 C 0.51139 0.08234 0.75592 0.0
C239 C 0.54117 0.9938 0.78594 0.0
C240 C 0.50283 0.10832 0.76784 0.0
C241 C 0.45677 0.11636 0.78783 0.0
C242 C 0.46654 0.09065 0.7781 0.0
C243 C 0.52001 0.17779 0.77776 0.0
C244 C 0.48305 0.16029 0.78758 0.0
C245 C 0.52965 0.15211 0.76794 0.0
C246 C 0.53459 0.99015 0.71036 0.0
C247 C 0.52897 0.02303 0.68434 0.0
C248 C 0.52047 0.95337 0.68351 0.0
C249 C 0.52748 0.95497 0.70097 0.0
C250 C 0.52047 0.98704 0.67503 0.0
C251 C 0.53574 0.02448 0.70196 0.0
C252 C 0.53902 0.98886 0.7289 0.0
O253 O 0.57155 0.02698 0.77824 0.0
O254 O 0.50425 0.98073 0.77899 0.0
O255 O 0.50391 0.97322 0.73765 0.0
O256 O 0.57048 0.02194 0.73603 0.0
H257 H 0.56342 0.95158 0.76402 0.0
H258 H 0.5764 0.8941 0.77056 0.0
H259 H 0.55239 0.903 0.82374 0.0
H260 H 0.53888 0.9603 0.81699 0.0
H261 H 0.42829 0.10187 0.7954 0.0
H262 H 0.44509 0.05704 0.77833 0.0
H263 H 0.54067 0.21152 0.7771 0.0
H264 H 0.55757 0.16665 0.76003 0.0
H265 H 0.52896 0.04931 0.67811 0.0
H266 H 0.51455 0.92547 0.67664 0.0
H267 H 0.52662 0.92825 0.70723 0.0
H268 H 0.54109 0.05192 0.70904 0.0
C269 C 0.5753 0.49966 0.12411 0.0
C270 C 0.58549 0.46761 0.12416 0.0
C271 C 0.65247 0.51405 0.13784 0.0
C272 C 0.62364 0.47474 0.13092 0.0
C273 C 0.64208 0.54596 0.13788 0.0
C274 C 0.6039 0.53877 0.13119 0.0
U275 U 0.50398 0.49071 0.08693 0.0
O276 O 0.43605 0.44891 0.08323 0.0
O277 O 0.46256 0.51724 0.08403 0.0
C278 C 0.42835 0.48013 0.0835 0.0
C279 C 0.53478 0.49255 0.11719 0.0
C280 C 0.39422 0.47482 0.09481 0.0
C281 C 0.36404 0.46722 0.12302 0.0
C282 C 0.39602 0.47002 0.11245 0.0
C283 C 0.32818 0.47359 0.09838 0.0
C284 C 0.33003 0.46954 0.1161 0.0
C285 C 0.35998 0.47622 0.08785 0.0
C286 C 0.54719 0.50731 0.04129 0.0
C287 C 0.51323 0.48058 0.01396 0.0
C288 C 0.5735 0.55075 0.01586 0.0
C289 C 0.57629 0.54497 0.03325 0.0
C290 C 0.54177 0.51878 0.00604 0.0
C291 C 0.51577 0.47493 0.03146 0.0
C292 C 0.55059 0.50297 0.05985 0.0
O293 O 0.53562 0.52535 0.11008 0.0
O294 O 0.51189 0.45758 0.1087 0.0
O295 O 0.52647 0.46564 0.06668 0.0
O296 O 0.55286 0.53372 0.06908 0.0
H297 H 0.56398 0.43688 0.11904 0.0
H298 H 0.63024 0.44921 0.13094 0.0
H299 H 0.66367 0.57676 0.14291 0.0
H300 H 0.59683 0.56399 0.13152 0.0
H301 H 0.36651 0.46441 0.13662 0.0
H302 H 0.42242 0.46908 0.11803 0.0
H303 H 0.30212 0.47482 0.09262 0.0
H304 H 0.35808 0.47987 0.07426 0.0
H305 H 0.48832 0.45549 0.00671 0.0
H306 H 0.59629 0.5803 0.01006 0.0
H307 H 0.60107 0.57023 0.04049 0.0
H308 H 0.49291 0.44544 0.03727 0.0
H309 H 0.16486 0.53716 0.14338 0.0
H310 H 0.11853 0.44044 0.18249 0.0
H311 H 0.17379 0.42382 0.17464 0.0
H312 H 0.1856 0.48118 0.11253 0.0
H313 H 0.23204 0.52667 0.10441 0.0
H314 H 0.19086 0.53248 0.11397 0.0
H315 H 0.24415 0.58668 0.13521 0.0
H316 H 0.28561 0.5812 0.12566 0.0
H317 H 0.27558 0.57258 0.14816 0.0
H318 H 0.23344 0.41641 0.1613 0.0
H319 H 0.2902 0.41826 0.14367 0.0
H320 H 0.29542 0.51985 0.11364 0.0
C321 C 0.16636 0.5127 0.15048 0.0
C322 C 0.13728 0.49018 0.16361 0.0
C323 C 0.1405 0.45826 0.17243 0.0
C324 C 0.1718 0.44862 0.16805 0.0
C325 C 0.1996 0.47124 0.15487 0.0
C326 C 0.19709 0.50268 0.14628 0.0
C327 C 0.22939 0.5215 0.1322 0.0
C328 C 0.20819 0.51505 0.11475 0.0
C329 C 0.26053 0.56826 0.13551 0.0
C330 C 0.25032 0.4954 0.134 0.0
C331 C 0.23308 0.46675 0.1472 0.0
C332 C 0.24723 0.4389 0.151 0.0
C333 C 0.27956 0.44026 0.14097 0.0
C334 C 0.29709 0.46904 0.12722 0.0
C335 C 0.28233 0.4971 0.1239 0.0
H336 H 0.65382 0.15607 0.50798 0.0
H337 H 0.67169 0.06333 0.4812 0.0
H338 H 0.74199 0.11897 0.47194 0.0
H339 H 0.69887 0.23383 0.47668 0.0
H340 H 0.7235 0.27758 0.49108 0.0
H341 H 0.67692 0.23006 0.49755 0.0
H342 H 0.71579 0.22431 0.52393 0.0
H343 H 0.76251 0.27206 0.51761 0.0
H344 H 0.7646 0.22474 0.52115 0.0
H345 H 0.80741 0.18491 0.46351 0.0
H346 H 0.86396 0.25688 0.45664 0.0
H347 H 0.80311 0.30743 0.48814 0.0
C348 C 0.673 0.14731 0.50056 0.0
C349 C 0.6574 0.10525 0.49545 0.0
C350 C 0.68303 0.09528 0.48533 0.0
C351 C 0.72306 0.12666 0.48003 0.0
C352 C 0.73706 0.16794 0.48491 0.0
C353 C 0.71294 0.17838 0.495 0.0
C354 C 0.73409 0.22557 0.49734 0.0
C355 C 0.70671 0.24275 0.49023 0.0
C356 C 0.74489 0.23736 0.51612 0.0
C357 C 0.77342 0.24002 0.48672 0.0
C358 C 0.77466 0.20623 0.4798 0.0
C359 C 0.80695 0.21162 0.46896 0.0
C360 C 0.83876 0.25264 0.46503 0.0
C361 C 0.83801 0.28786 0.47183 0.0
C362 C 0.80498 0.28123 0.48295 0.0
H363 H 0.5123 0.67198 0.83706 0.0
H364 H 0.61499 0.68054 0.80678 0.0
H365 H 0.63293 0.7517 0.79735 0.0
H366 H 0.4795 0.72088 0.80722 0.0
H367 H 0.46604 0.74819 0.82271 0.0
H368 H 0.46362 0.69961 0.82837 0.0
H369 H 0.51395 0.7363 0.8536 0.0
H370 H 0.51642 0.78504 0.84805 0.0
H371 H 0.56407 0.78282 0.84975 0.0
H372 H 0.6371 0.82011 0.78982 0.0
H373 H 0.62709 0.88071 0.7847 0.0
H374 H 0.52064 0.82692 0.81933 0.0
C375 C 0.53907 0.68908 0.8287 0.0
C376 C 0.56239 0.67066 0.82275 0.0
C377 C 0.59669 0.69393 0.81156 0.0
C378 C 0.60719 0.73444 0.80614 0.0
C379 C 0.58311 0.75132 0.81202 0.0
C380 C 0.54981 0.72944 0.82308 0.0
C381 C 0.52751 0.75376 0.82673 0.0
C382 C 0.48145 0.72914 0.8209 0.0
C383 C 0.5307 0.76516 0.84566 0.0
C384 C 0.5531 0.79247 0.8158 0.0
C385 C 0.5852 0.79057 0.80752 0.0
C386 C 0.61219 0.82202 0.7963 0.0
C387 C 0.60606 0.85619 0.79339 0.0
C388 C 0.57306 0.85865 0.80159 0.0
C389 C 0.54655 0.82638 0.81306 0.0
H390 H 0.85939 0.4959 0.1426 0.0
H391 H 0.89491 0.574 0.18768 0.0
H392 H 0.83036 0.57844 0.18512 0.0
H393 H 0.81598 0.55025 0.11962 0.0
H394 H 0.7744 0.50289 0.11032 0.0
H395 H 0.82351 0.50625 0.1157 0.0
H396 H 0.78377 0.43908 0.13426 0.0
H397 H 0.73455 0.43561 0.12901 0.0
H398 H 0.7493 0.43727 0.15095 0.0
H399 H 0.76075 0.57263 0.178 0.0
H400 H 0.69276 0.55891 0.16643 0.0
H401 H 0.70442 0.48655 0.12551 0.0
C402 C 0.85374 0.51402 0.15195 0.0
C403 C 0.88227 0.53455 0.16538 0.0
C404 C 0.87362 0.55807 0.17727 0.0
C405 C 0.83699 0.56071 0.17594 0.0
C406 C 0.80947 0.53987 0.1626 0.0
C407 C 0.81756 0.51719 0.15077 0.0
C408 C 0.78309 0.49784 0.13759 0.0
C409 C 0.80028 0.51537 0.11976 0.0
C410 C 0.7614 0.44959 0.13799 0.0
C411 C 0.75411 0.51287 0.14393 0.0
C412 C 0.76983 0.53704 0.15837 0.0
C413 C 0.74831 0.55402 0.16662 0.0
C414 C 0.70979 0.54624 0.15988 0.0
C415 C 0.69318 0.52178 0.14499 0.0
C416 C 0.71587 0.50496 0.13699 0.0
H417 H 0.34078 0.89926 0.47054 0.0
H418 H 0.33283 0.86319 0.52354 0.0
H419 H 0.26381 0.80005 0.51825 0.0
H420 H 0.22653 0.85721 0.46323 0.0
H421 H 0.2288 0.83882 0.44227 0.0
H422 H 0.27401 0.88457 0.45078 0.0
H423 H 0.31915 0.84979 0.44558 0.0
H424 H 0.27414 0.80394 0.43717 0.0
H425 H 0.30277 0.79879 0.45469 0.0
H426 H 0.19903 0.73793 0.50675 0.0
H427 H 0.14438 0.68015 0.48978 0.0
H428 H 0.19709 0.75431 0.44384 0.0
C429 C 0.32379 0.87876 0.48112 0.0
C430 C 0.34167 0.88638 0.49752 0.0
C431 C 0.31937 0.85805 0.51093 0.0
C432 C 0.28016 0.8222 0.50805 0.0
C433 C 0.26384 0.81491 0.49164 0.0
C434 C 0.28495 0.84236 0.47838 0.0
C435 C 0.2628 0.82491 0.46163 0.0
C436 C 0.2471 0.85306 0.45403 0.0
C437 C 0.29142 0.819 0.44903 0.0
C438 C 0.2265 0.78305 0.46748 0.0
C439 C 0.2273 0.7782 0.48487 0.0
C440 C 0.19795 0.74147 0.49313 0.0
C441 C 0.16723 0.70864 0.48334 0.0
C442 C 0.16632 0.71244 0.46542 0.0
C443 C 0.19624 0.75051 0.45751 0.0
H444 H 0.52315 0.36889 0.83464 0.0
H445 H 0.39391 0.33159 0.82321 0.0
H446 H 0.38176 0.26294 0.81297 0.0
H447 H 0.54039 0.32847 0.79787 0.0
H448 H 0.57404 0.31151 0.80727 0.0
H449 H 0.57089 0.35451 0.81646 0.0
H450 H 0.54997 0.31595 0.84551 0.0
H451 H 0.55343 0.27288 0.83646 0.0
H452 H 0.50567 0.26328 0.84679 0.0
H453 H 0.3855 0.20139 0.8015 0.0
H454 H 0.40528 0.15269 0.78867 0.0
H455 H 0.53308 0.2312 0.80641 0.0
C456 C 0.49191 0.3457 0.83053 0.0
C457 C 0.4592 0.3552 0.83001 0.0
C458 C 0.41921 0.32471 0.8239 0.0
C459 C 0.41204 0.28564 0.81809 0.0
C460 C 0.44528 0.27769 0.81832 0.0
C461 C 0.48446 0.30687 0.82439 0.0
C462 C 0.51601 0.29246 0.82156 0.0
C463 C 0.55246 0.32359 0.81011 0.0
C464 C 0.53221 0.28574 0.8386 0.0
C465 C 0.48871 0.25109 0.81261 0.0
C466 C 0.44786 0.24282 0.81114 0.0
C467 C 0.41726 0.20728 0.80277 0.0
C468 C 0.42877 0.17969 0.79558 0.0
C469 C 0.47067 0.18794 0.7966 0.0
C470 C 0.50082 0.22401 0.8054 0.0
H471 H 0.48638 0.84329 0.52376 0.0
H472 H 0.57456 0.89655 0.48171 0.0
H473 H 0.59099 0.83933 0.48464 0.0
H474 H 0.54688 0.81305 0.54896 0.0
H475 H 0.50197 0.76543 0.55664 0.0
H476 H 0.49655 0.80982 0.55083 0.0
H477 H 0.43715 0.76344 0.52977 0.0
H478 H 0.44221 0.71882 0.53558 0.0
H479 H 0.44677 0.73468 0.51361 0.0
H480 H 0.59809 0.77596 0.49269 0.0
H481 H 0.59511 0.71253 0.50504 0.0
H482 H 0.50198 0.70223 0.54156 0.0
C483 C 0.50905 0.84302 0.51506 0.0
C484 C 0.52913 0.87449 0.50247 0.0
C485 C 0.55869 0.87279 0.49143 0.0
C486 C 0.56824 0.84043 0.49301 0.0
C487 C 0.54798 0.81011 0.50568 0.0
C488 C 0.51895 0.81121 0.51647 0.0
C489 C 0.50176 0.7754 0.52917 0.0
C490 C 0.51245 0.79193 0.54748 0.0
C491 C 0.45416 0.74637 0.52688 0.0
C492 C 0.52573 0.7539 0.52392 0.0
C493 C 0.55219 0.77421 0.51033 0.0
C494 C 0.5774 0.7598 0.50331 0.0
C495 C 0.57537 0.72368 0.51036 0.0
C496 C 0.54844 0.7025 0.52431 0.0
C497 C 0.52339 0.71803 0.53109 0.0
H498 H 0.63945 0.48306 0.85403 0.0
H499 H 0.68692 0.5876 0.81844 0.0
H500 H 0.75869 0.59881 0.82199 0.0
H501 H 0.72503 0.52771 0.88256 0.0
H502 H 0.72369 0.47889 0.88678 0.0
H503 H 0.6763 0.47854 0.88092 0.0
H504 H 0.66551 0.42855 0.85587 0.0
H505 H 0.71286 0.42866 0.86168 0.0
H506 H 0.70691 0.44345 0.84044 0.0
H507 H 0.826 0.60005 0.83063 0.0
H508 H 0.88218 0.58964 0.84266 0.0
H509 H 0.78921 0.48392 0.8723 0.0
C510 C 0.66481 0.5083 0.8469 0.0
C511 C 0.65753 0.53458 0.83599 0.0
C512 C 0.6917 0.56701 0.82684 0.0
C513 C 0.73255 0.57364 0.8288 0.0
C514 C 0.73857 0.54733 0.83983 0.0
C515 C 0.70549 0.51512 0.84861 0.0
C516 C 0.71999 0.49131 0.85976 0.0
C517 C 0.71071 0.49432 0.87862 0.0
C518 C 0.70014 0.44527 0.85409 0.0
C519 C 0.76662 0.51547 0.8561 0.0
C520 C 0.77683 0.54767 0.84458 0.0
C521 C 0.81827 0.57481 0.8396 0.0
C522 C 0.84998 0.56881 0.84658 0.0
C523 C 0.8401 0.53588 0.85838 0.0
C524 C 0.79776 0.50895 0.86311 0.0
H525 H 0.17257 0.66772 0.17386 0.0
H526 H 0.07481 0.69507 0.18782 0.0
H527 H 0.12879 0.76472 0.19836 0.0
H528 H 0.23267 0.71018 0.21015 0.0
H529 H 0.28293 0.73096 0.19976 0.0
H530 H 0.23749 0.68608 0.19103 0.0
H531 H 0.24978 0.725 0.16222 0.0
H532 H 0.29553 0.77 0.17084 0.0
H533 H 0.25397 0.77594 0.16166 0.0
H534 H 0.1928 0.82869 0.20955 0.0
H535 H 0.26138 0.88089 0.22146 0.0
H536 H 0.31728 0.81097 0.2009 0.0
C537 C 0.16256 0.68881 0.17869 0.0
C538 C 0.11947 0.67617 0.17982 0.0
C539 C 0.10763 0.70421 0.18672 0.0
C540 C 0.13809 0.74386 0.1927 0.0
C541 C 0.18023 0.75494 0.19176 0.0
C542 C 0.19248 0.72822 0.18493 0.0
C543 C 0.23935 0.74595 0.18682 0.0
C544 C 0.24863 0.71654 0.19758 0.0
C545 C 0.26093 0.75475 0.16934 0.0
C546 C 0.25143 0.78639 0.19613 0.0
C547 C 0.217 0.79131 0.19862 0.0
C548 C 0.22008 0.82543 0.20749 0.0
C549 C 0.25924 0.85504 0.21414 0.0
C550 C 0.29481 0.85019 0.21205 0.0
C551 C 0.29071 0.81555 0.20274 0.0
H552 H 0.51912 0.14422 0.53549 0.0
H553 H 0.42513 0.1059 0.49583 0.0
H554 H 0.41503 0.16567 0.50306 0.0
H555 H 0.46742 0.17572 0.56567 0.0
H556 H 0.51577 0.21922 0.5734 0.0
H557 H 0.51522 0.17354 0.56499 0.0
H558 H 0.57374 0.22064 0.5435 0.0
H559 H 0.57438 0.26646 0.5518 0.0
H560 H 0.56585 0.25484 0.52944 0.0
H561 H 0.41592 0.23057 0.51482 0.0
H562 H 0.42727 0.29406 0.53012 0.0
H563 H 0.51997 0.28779 0.56205 0.0
C564 C 0.49637 0.14823 0.52826 0.0
C565 C 0.47297 0.12032 0.51505 0.0
C566 C 0.44342 0.12681 0.50601 0.0
C567 C 0.43751 0.1607 0.51001 0.0
C568 C 0.46129 0.18763 0.5231 0.0
C569 C 0.49004 0.1816 0.53209 0.0
C570 C 0.51159 0.21462 0.54564 0.0
C571 C 0.5019 0.19457 0.56348 0.0
C572 C 0.55921 0.24068 0.54239 0.0
C573 C 0.49073 0.24051 0.54284 0.0
C574 C 0.46175 0.22452 0.52982 0.0
C575 C 0.43849 0.24326 0.52505 0.0
C576 C 0.44501 0.27918 0.53386 0.0
C577 C 0.47461 0.296 0.54725 0.0
C578 C 0.49763 0.27619 0.55171 0.0
H579 H 0.38026 0.53826 0.86481 0.0
H580 H 0.32378 0.4345 0.82924 0.0
H581 H 0.25328 0.42147 0.8374 0.0
H582 H 0.30396 0.48995 0.89739 0.0
H583 H 0.30553 0.5378 0.90359 0.0
H584 H 0.35127 0.5399 0.89434 0.0
H585 H 0.35345 0.59086 0.871 0.0
H586 H 0.30774 0.589 0.88019 0.0
H587 H 0.3076 0.57583 0.85814 0.0
H588 H 0.18852 0.41914 0.85015 0.0
H589 H 0.1356 0.42664 0.86681 0.0
H590 H 0.23565 0.53195 0.89375 0.0
C591 C 0.35319 0.51292 0.8586 0.0
C592 C 0.35767 0.48747 0.84633 0.0
C593 C 0.32122 0.45449 0.83865 0.0
C594 C 0.28104 0.44688 0.84319 0.0
C595 C 0.27786 0.47252 0.85541 0.0
C596 C 0.31304 0.50485 0.86299 0.0
C597 C 0.30135 0.52724 0.87609 0.0
C598 C 0.31642 0.52347 0.89391 0.0
C599 C 0.31855 0.57347 0.87104 0.0
C600 C 0.25401 0.50223 0.87485 0.0
C601 C 0.24095 0.47096 0.86279 0.0
C602 C 0.19846 0.44364 0.85958 0.0
C603 C 0.16863 0.44826 0.86903 0.0
C604 C 0.18146 0.47979 0.88162 0.0
C605 C 0.22479 0.5072 0.88438 0.0
H606 H 0.85836 0.36222 0.16437 0.0
H607 H 0.95199 0.34493 0.19081 0.0
H608 H 0.89684 0.27433 0.20007 0.0
H609 H 0.78147 0.31691 0.19571 0.0
H610 H 0.73743 0.29204 0.18144 0.0
H611 H 0.78466 0.33873 0.17483 0.0
H612 H 0.79008 0.29985 0.14844 0.0
H613 H 0.74258 0.25303 0.15489 0.0
H614 H 0.7899 0.25112 0.15121 0.0
H615 H 0.83116 0.20882 0.20877 0.0
H616 H 0.75942 0.15227 0.21593 0.0
H617 H 0.70795 0.2126 0.1845 0.0
C618 C 0.86744 0.3431 0.17168 0.0
C619 C 0.9096 0.35898 0.17673 0.0
C620 C 0.91997 0.33338 0.18672 0.0
C621 C 0.88886 0.29319 0.19203 0.0
C622 C 0.84746 0.27897 0.18725 0.0
C623 C 0.83667 0.303 0.17723 0.0
C624 C 0.78945 0.28169 0.17502 0.0
C625 C 0.77226 0.30897 0.18218 0.0
C626 C 0.77729 0.27077 0.15628 0.0
C627 C 0.77537 0.2424 0.18567 0.0
C628 C 0.80937 0.2413 0.19248 0.0
C629 C 0.8043 0.20914 0.20338 0.0
C630 C 0.76341 0.17734 0.20749 0.0
C631 C 0.72802 0.17795 0.20079 0.0
C632 C 0.73431 0.21083 0.18961 0.0
H633 H 0.96429 0.47417 0.09884 0.0
H634 H 0.07763 0.59485 0.10622 0.0
H635 H 0.08189 0.60828 0.07544 0.0
H636 H 0.99779 0.44931 0.05922 0.0
H637 H 0.94619 0.42467 0.0499 0.0
H638 H 0.95181 0.42397 0.07263 0.0
H639 H 0.90573 0.45821 0.07647 0.0
H640 H 0.89999 0.45904 0.05376 0.0
H641 H 0.92025 0.50701 0.06571 0.0
H642 H 0.07313 0.61032 0.04419 0.0
H643 H 0.05314 0.59931 0.01392 0.0
H644 H 0.94663 0.47679 0.02616 0.0
C645 C 0.99004 0.50337 0.09398 0.0
C646 C 0.02059 0.53344 0.10502 0.0
C647 C 0.05387 0.5712 0.09809 0.0
C648 C 0.05658 0.57922 0.08059 0.0
C649 C 0.02599 0.54909 0.07009 0.0
C650 C 0.99349 0.51179 0.07645 0.0
C651 C 0.96493 0.48473 0.06226 0.0
C652 C 0.96521 0.44321 0.06093 0.0
C653 C 0.92007 0.47679 0.0647 0.0
C654 C 0.98627 0.51292 0.047 0.0
C655 C 0.02137 0.54992 0.05187 0.0
C656 C 0.0458 0.58142 0.0402 0.0
C657 C 0.03408 0.57498 0.02306 0.0
C658 C 0.99835 0.53727 0.01771 0.0
C659 C 0.97432 0.50576 0.02987 0.0
H660 H 0.53775 0.99247 0.43061 0.0
H661 H 0.45125 0.03832 0.43938 0.0
H662 H 0.44979 0.05034 0.40867 0.0
H663 H 0.59733 0.06545 0.39755 0.0
H664 H 0.60407 0.02806 0.38524 0.0
H665 H 0.59775 0.02193 0.40796 0.0
H666 H 0.53459 0.94666 0.40408 0.0
H667 H 0.5407 0.95255 0.38134 0.0
H668 H 0.49099 0.93868 0.39104 0.0
H669 H 0.45899 0.05958 0.37726 0.0
H670 H 0.47755 0.06426 0.34687 0.0
H671 H 0.5575 0.01197 0.35802 0.0
C672 C 0.51837 0.00488 0.42608 0.0
C673 C 0.49463 0.01443 0.4375 0.0
C674 C 0.46972 0.03067 0.43097 0.0
C675 C 0.46864 0.03763 0.41351 0.0
C676 C 0.49247 0.02807 0.40265 0.0
C677 C 0.51677 0.01191 0.40862 0.0
C678 C 0.53968 0.00473 0.39415 0.0
C679 C 0.58754 0.03166 0.39636 0.0
C680 C 0.52564 0.95787 0.39256 0.0
C681 C 0.52472 0.01975 0.37917 0.0
C682 C 0.4975 0.03306 0.3844 0.0
C683 C 0.48019 0.04916 0.373 0.0
C684 C 0.49109 0.0519 0.35578 0.0
C685 C 0.519 0.03856 0.35008 0.0
C686 C 0.53574 0.02199 0.36197 0.0
H687 H 0.55308 0.53852 0.76233 0.0
H688 H 0.41848 0.46841 0.77158 0.0
H689 H 0.40577 0.46797 0.74085 0.0
H690 H 0.55156 0.6035 0.72894 0.0
H691 H 0.59234 0.60255 0.7166 0.0
H692 H 0.59125 0.59655 0.73935 0.0
H693 H 0.59058 0.52624 0.73591 0.0
H694 H 0.59175 0.53207 0.71313 0.0
H695 H 0.55055 0.48519 0.72309 0.0
H696 H 0.40715 0.47754 0.70939 0.0
H697 H 0.42288 0.49411 0.67889 0.0
H698 H 0.55632 0.55664 0.68969 0.0
C699 C 0.52093 0.52288 0.7579 0.0
C700 C 0.48681 0.50353 0.76944 0.0
C701 C 0.44522 0.48338 0.76306 0.0
C702 C 0.43761 0.48298 0.7456 0.0
C703 C 0.47187 0.50258 0.73462 0.0
C704 C 0.51271 0.5219 0.74046 0.0
C705 C 0.54382 0.54078 0.72589 0.0
C706 C 0.57135 0.58869 0.72782 0.0
C707 C 0.57076 0.51981 0.72442 0.0
C708 C 0.51402 0.52946 0.711 0.0
C709 C 0.47266 0.50749 0.71635 0.0
C710 C 0.43941 0.49455 0.70503 0.0
C711 C 0.44863 0.5043 0.68775 0.0
C712 C 0.49076 0.52663 0.68194 0.0
C713 C 0.52381 0.53914 0.69375 0.0
H714 H 0.55044 0.04425 0.57536 0.0
H715 H 0.44015 0.92127 0.56762 0.0
H716 H 0.43231 0.90999 0.59844 0.0
H717 H 0.59158 0.01376 0.61042 0.0
H718 H 0.61012 0.06209 0.62195 0.0
H719 H 0.60667 0.06203 0.59912 0.0
H720 H 0.55958 0.09555 0.60112 0.0
H721 H 0.56279 0.0956 0.62398 0.0
H722 H 0.51224 0.07017 0.61374 0.0
H723 H 0.43649 0.90996 0.62961 0.0
H724 H 0.45393 0.92086 0.66005 0.0
H725 H 0.5615 0.04343 0.64875 0.0
C726 C 0.52455 0.01507 0.58016 0.0
C727 C 0.49595 0.9837 0.56895 0.0
C728 C 0.46262 0.94586 0.57582 0.0
C729 C 0.45772 0.93911 0.59337 0.0
C730 C 0.48632 0.97042 0.60402 0.0
C731 C 0.51915 0.00765 0.59779 0.0
C732 C 0.54603 0.03537 0.61225 0.0
C733 C 0.59128 0.04379 0.61085 0.0
C734 C 0.54509 0.07662 0.6128 0.0
C735 C 0.52332 0.00755 0.62748 0.0
C736 C 0.48884 0.97037 0.62234 0.0
C737 C 0.46335 0.93896 0.63384 0.0
C738 C 0.47361 0.94537 0.65109 0.0
C739 C 0.50913 0.98285 0.65675 0.0
C740 C 0.53396 0.01464 0.64478 0.0
H741 H 0.51746 0.46994 0.90609 0.0
H742 H 0.52652 0.59138 0.89909 0.0
H743 H 0.5332 0.60257 0.92999 0.0
H744 H 0.45553 0.44204 0.94462 0.0
H745 H 0.4813 0.41663 0.95434 0.0
H746 H 0.47769 0.41791 0.93153 0.0
H747 H 0.55855 0.45259 0.92905 0.0
H748 H 0.56239 0.45133 0.95184 0.0
H749 H 0.59168 0.50037 0.94049 0.0
H750 H 0.53991 0.60166 0.96139 0.0
H751 H 0.54478 0.58779 0.99176 0.0
H752 H 0.53002 0.4665 0.97901 0.0
C753 C 0.52096 0.49892 0.91105 0.0
C754 C 0.5215 0.52978 0.90009 0.0
C755 C 0.52589 0.56716 0.90715 0.0
C756 C 0.52977 0.57389 0.92472 0.0
C757 C 0.52899 0.54289 0.93514 0.0
C758 C 0.52456 0.50607 0.92864 0.0
C759 C 0.52426 0.47776 0.94279 0.0
C760 C 0.48219 0.43612 0.94335 0.0
C761 C 0.56144 0.47008 0.94093 0.0
C762 C 0.5294 0.50458 0.9582 0.0
C763 C 0.5322 0.54207 0.95344 0.0
C764 C 0.53774 0.57241 0.96529 0.0
C765 C 0.54066 0.56433 0.9825 0.0
C766 C 0.53787 0.52615 0.98773 0.0
C767 C 0.53189 0.4958 0.97538 0.0
H768 H 0.01132 0.46391 0.24159 0.0
H769 H 0.0132 0.58231 0.2361 0.0
H770 H 0.01068 0.58754 0.26718 0.0
H771 H 0.93833 0.42503 0.27621 0.0
H772 H 0.96323 0.40015 0.28707 0.0
H773 H 0.96754 0.40637 0.26431 0.0
H774 H 0.04867 0.44574 0.26655 0.0
H775 H 0.04461 0.43955 0.28933 0.0
H776 H 0.07494 0.49119 0.28004 0.0
H777 H 0.00626 0.57981 0.29857 0.0
H778 H 0.99843 0.55844 0.32868 0.0
H779 H 0.99854 0.44465 0.31443 0.0
C780 C 0.01162 0.4911 0.24695 0.0
C781 C 0.01253 0.52273 0.23637 0.0
C782 C 0.01235 0.55758 0.24389 0.0
C783 C 0.01107 0.56096 0.26156 0.0
C784 C 0.00977 0.52916 0.27161 0.0
C785 C 0.00993 0.49483 0.26465 0.0
C786 C 0.00674 0.46439 0.27844 0.0
C787 C 0.96657 0.42145 0.27638 0.0
C788 C 0.04609 0.45998 0.27859 0.0
C789 C 0.00453 0.48695 0.29416 0.0
C790 C 0.00665 0.52439 0.28989 0.0
C791 C 0.00484 0.55069 0.30211 0.0
C792 C 1.00063 0.53838 0.3192 0.0
C793 C 0.99814 0.50002 0.32396 0.0
C794 C 1.00016 0.47405 0.3112 0.0
loop_
_geom_bond_atom_site_label_1
_geom_bond_atom_site_label_2
_geom_bond_distance
_geom_bond_site_symmetry_2
_ccdc_geom_bond_type
O0 Zn1 1.953 . S
O0 C16 1.225 1_655 S
Zn1 O0 1.953 . S
Zn1 O2 1.949 1_655 S
Zn1 O8 1.919 . S
Zn1 O13 1.924 1_655 S
O2 Zn1 1.949 1_455 S
O2 Zn3 1.923 1_455 S
O2 Zn4 1.950 . S
O2 Zn5 1.945 . S
Zn3 O2 1.923 1_655 S
Zn3 O6 1.933 . S
Zn3 O9 1.941 . S
Zn3 O10 1.965 . S
Zn4 O2 1.950 . S
Zn4 O11 1.938 1_455 S
Zn4 O12 1.906 . S
Zn4 O22 1.953 . S
Zn5 O2 1.945 . S
Zn5 O7 1.932 . S
Zn5 O14 1.977 . S
Zn5 O15 1.910 . S
O6 Zn3 1.933 . S
O6 C17 1.226 1_655 S
O7 Zn5 1.932 . S
O7 C17 1.307 . S
O8 Zn1 1.919 . S
O8 C19 1.253 . S
O9 Zn3 1.941 . S
O9 C19 1.283 . S
O10 Zn3 1.965 . S
O10 C18 1.303 . S
O11 Zn4 1.938 1_655 S
O11 C18 1.247 . S
O12 Zn4 1.906 . S
O12 C20 1.304 . S
O13 Zn1 1.924 1_455 S
O13 C21 1.311 . S
O14 Zn5 1.977 . S
O14 C20 1.272 . S
O15 Zn5 1.910 . S
O15 C21 1.231 . S
C16 O0 1.225 1_455 S
C16 O22 1.298 . S
C17 O6 1.226 1_455 S
C17 O7 1.307 . S
C18 O10 1.303 . S
C18 O11 1.247 . S
C19 O8 1.253 . S
C19 O9 1.283 . S
C20 O12 1.304 . S
C20 O14 1.272 . S
C21 O13 1.311 . S
C21 O15 1.231 . S
O22 Zn4 1.953 . S
O22 C16 1.298 . S
O23 Zn24 1.953 . S
O23 C39 1.225 . S
Zn24 O23 1.953 . S
Zn24 O25 1.949 . S
Zn24 O31 1.919 . S
Zn24 O36 1.924 1_545 S
O25 Zn24 1.949 . S
O25 Zn26 1.923 . S
O25 Zn27 1.950 1_545 S
O25 Zn28 1.945 1_545 S
Zn26 O25 1.923 . S
Zn26 O29 1.933 . S
Zn26 O32 1.941 . S
Zn26 O33 1.965 . S
Zn27 O25 1.950 1_565 S
Zn27 O34 1.938 1_565 S
Zn27 O35 1.906 . S
Zn27 O45 1.953 . S
Zn28 O25 1.945 1_565 S
Zn28 O30 1.932 . S
Zn28 O37 1.977 . S
Zn28 O38 1.910 . S
O29 Zn26 1.933 . S
O29 C40 1.226 . S
O30 Zn28 1.932 . S
O30 C40 1.307 1_565 S
O31 Zn24 1.919 . S
O31 C42 1.253 . S
O32 Zn26 1.941 . S
O32 C42 1.283 . S
O33 Zn26 1.965 . S
O33 C41 1.303 . S
O34 Zn27 1.938 1_545 S
O34 C41 1.247 . S
O35 Zn27 1.906 . S
O35 C43 1.304 . S
O36 Zn24 1.924 1_565 S
O36 C44 1.311 . S
O37 Zn28 1.977 . S
O37 C43 1.272 . S
O38 Zn28 1.910 . S
O38 C44 1.231 . S
C39 O23 1.225 . S
C39 O45 1.298 1_545 S
C40 O29 1.226 . S
C40 O30 1.307 1_545 S
C41 O33 1.303 . S
C41 O34 1.247 . S
C42 O31 1.253 . S
C42 O32 1.283 . S
C43 O35 1.304 . S
C43 O37 1.272 . S
C44 O36 1.311 . S
C44 O38 1.231 . S
O45 Zn27 1.953 . S
O45 C39 1.298 1_565 S
O46 Zn47 1.953 . S
O46 C62 1.225 . S
Zn47 O46 1.953 . S
Zn47 O48 1.949 . S
Zn47 O54 1.919 . S
Zn47 O59 1.924 . S
O48 Zn47 1.949 . S
O48 Zn49 1.923 . S
O48 Zn50 1.950 . S
O48 Zn51 1.945 . S
Zn49 O48 1.923 . S
Zn49 O52 1.933 . S
Zn49 O55 1.941 . S
Zn49 O56 1.965 . S
Zn50 O48 1.950 . S
Zn50 O57 1.938 . S
Zn50 O58 1.906 . S
Zn50 O68 1.953 . S
Zn51 O48 1.945 . S
Zn51 O53 1.932 . S
Zn51 O60 1.977 . S
Zn51 O61 1.910 . S
O52 Zn49 1.933 . S
O52 C63 1.226 . S
O53 Zn51 1.932 . S
O53 C63 1.307 . S
O54 Zn47 1.919 . S
O54 C65 1.253 . S
O55 Zn49 1.941 . S
O55 C65 1.283 . S
O56 Zn49 1.965 . S
O56 C64 1.303 . S
O57 Zn50 1.938 . S
O57 C64 1.247 . S
O58 Zn50 1.906 . S
O58 C66 1.304 . S
O59 Zn47 1.924 . S
O59 C67 1.311 . S
O60 Zn51 1.977 . S
O60 C66 1.272 . S
O61 Zn51 1.910 . S
O61 C67 1.231 . S
C62 O46 1.225 . S
C62 O68 1.298 . S
C63 O52 1.226 . S
C63 O53 1.307 . S
C64 O56 1.303 . S
C64 O57 1.247 . S
C65 O54 1.253 . S
C65 O55 1.283 . S
C66 O58 1.304 . S
C66 O60 1.272 . S
C67 O59 1.311 . S
C67 O61 1.231 . S
O68 Zn50 1.953 . S
O68 C62 1.298 . S
C69 C70 1.264 . S
C69 C74 1.479 . S
C69 C79 1.465 . S
C70 C69 1.264 . S
C70 C72 1.339 . S
C70 H97 0.931 . S
C71 C72 1.395 . S
C71 C73 1.320 . S
C72 C70 1.339 . S
C72 C71 1.395 . S
C72 H98 0.929 . S
C73 C71 1.320 . S
C73 C74 1.405 . S
C73 H99 0.930 . S
C74 C69 1.479 . S
C74 C73 1.405 . S
C74 H100 0.931 . S
U75 O76 2.454 1_545 S
U75 O77 2.458 1_545 S
U75 C78 2.984 1_545 S
U75 C79 2.847 . S
U75 C92 2.882 . S
U75 O93 2.441 . S
U75 O94 2.420 . S
U75 O95 2.455 1_545 S
U75 O96 2.449 . S
O76 U75 2.454 1_565 S
O76 C78 1.353 . S
O77 U75 2.458 1_565 S
O77 C78 1.286 . S
C78 U75 2.984 1_565 S
C78 O76 1.353 . S
C78 O77 1.286 . S
C78 C80 1.363 . S
C79 C69 1.465 . S
C79 U75 2.847 . S
C79 O93 1.249 . S
C79 O94 1.202 . S
C80 C78 1.363 . S
C80 C82 1.408 . S
C80 C85 1.342 . S
C81 C82 1.310 . S
C81 C84 1.461 . S
C81 H101 0.932 . S
C82 C80 1.408 . S
C82 C81 1.310 . S
C82 H102 0.930 . S
C83 C84 1.474 . S
C83 C85 1.285 . S
C83 H103 0.929 . S
C84 C81 1.461 . S
C84 C83 1.474 . S
C85 C80 1.342 . S
C85 C83 1.285 . S
C85 H104 0.930 . S
C86 C89 1.424 . S
C86 C91 1.245 1_545 S
C86 C92 1.428 . S
C87 C90 1.260 1_565 S
C87 C91 1.477 . S
C87 H105 0.932 . S
C88 C89 1.384 . S
C88 C90 1.479 . S
C88 H106 0.929 . S
C89 C86 1.424 . S
C89 C88 1.384 . S
C89 H107 0.928 . S
C90 C87 1.260 1_545 S
C90 C88 1.479 . S
C91 C86 1.245 1_565 S
C91 C87 1.477 . S
C91 H108 0.932 . S
C92 U75 2.882 . S
C92 C86 1.428 . S
C92 O95 1.301 1_545 S
C92 O96 1.282 . S
O93 U75 2.441 . S
O93 C79 1.249 . S
O94 U75 2.420 . S
O94 C79 1.202 . S
O95 U75 2.455 1_565 S
O95 C92 1.301 1_565 S
O96 U75 2.449 . S
O96 C92 1.282 . S
H97 C70 0.931 . S
H98 C72 0.929 . S
H99 C73 0.930 . S
H100 C74 0.931 . S
H101 C81 0.932 . S
H102 C82 0.930 . S
H103 C83 0.929 . S
H104 C85 0.930 . S
H105 C87 0.932 . S
H106 C88 0.929 . S
H107 C89 0.928 . S
H108 C91 0.932 . S
C109 C110 1.264 . S
C109 C114 1.479 . S
C109 C119 1.465 . S
C110 C109 1.264 . S
C110 C112 1.339 . S
C110 H137 0.931 . S
C111 C112 1.395 . S
C111 C113 1.320 . S
C112 C110 1.339 . S
C112 C111 1.395 . S
C112 H138 0.929 . S
C113 C111 1.320 . S
C113 C114 1.405 . S
C113 H139 0.930 . S
C114 C109 1.479 . S
C114 C113 1.405 . S
C114 H140 0.931 . S
U115 O116 2.454 . S
U115 O117 2.458 . S
U115 C118 2.984 . S
U115 C119 2.847 . S
U115 C132 2.882 . S
U115 O133 2.441 . S
U115 O134 2.420 . S
U115 O135 2.455 . S
U115 O136 2.449 . S
O116 U115 2.454 . S
O116 C118 1.353 . S
O117 U115 2.458 . S
O117 C118 1.286 . S
C118 U115 2.984 . S
C118 O116 1.353 . S
C118 O117 1.286 . S
C118 C120 1.363 . S
C119 C109 1.465 . S
C119 U115 2.847 . S
C119 O133 1.249 . S
C119 O134 1.202 . S
C120 C118 1.363 . S
C120 C122 1.408 . S
C120 C125 1.342 . S
C121 C122 1.310 . S
C121 C124 1.461 . S
C121 H141 0.932 . S
C122 C120 1.408 . S
C122 C121 1.310 . S
C122 H142 0.930 . S
C123 C124 1.474 . S
C123 C125 1.285 . S
C123 H143 0.929 . S
C124 C121 1.461 . S
C124 C123 1.474 . S
C125 C120 1.342 . S
C125 C123 1.285 . S
C125 H144 0.930 . S
C126 C129 1.424 . S
C126 C131 1.245 . S
C126 C132 1.428 . S
C127 C130 1.260 . S
C127 C131 1.477 . S
C127 H145 0.932 . S
C128 C129 1.384 . S
C128 C130 1.479 . S
C128 H146 0.929 . S
C129 C126 1.424 . S
C129 C128 1.384 . S
C129 H147 0.928 . S
C130 C127 1.260 . S
C130 C128 1.479 . S
C131 C126 1.245 . S
C131 C127 1.477 . S
C131 H148 0.932 . S
C132 U115 2.882 . S
C132 C126 1.428 . S
C132 O135 1.301 . S
C132 O136 1.282 . S
O133 U115 2.441 . S
O133 C119 1.249 . S
O134 U115 2.420 . S
O134 C119 1.202 . S
O135 U115 2.455 . S
O135 C132 1.301 . S
O136 U115 2.449 . S
O136 C132 1.282 . S
H137 C110 0.931 . S
H138 C112 0.929 . S
H139 C113 0.930 . S
H140 C114 0.931 . S
H141 C121 0.932 . S
H142 C122 0.930 . S
H143 C123 0.929 . S
H144 C125 0.930 . S
H145 C127 0.932 . S
H146 C128 0.929 . S
H147 C129 0.928 . S
H148 C131 0.932 . S
C149 C150 1.264 . S
C149 C154 1.479 . S
C149 C159 1.465 . S
C150 C149 1.264 . S
C150 C152 1.339 . S
C150 H177 0.931 . S
C151 C152 1.395 . S
C151 C153 1.320 . S
C152 C150 1.339 . S
C152 C151 1.395 . S
C152 H178 0.929 . S
C153 C151 1.320 . S
C153 C154 1.405 . S
C153 H179 0.930 . S
C154 C149 1.479 . S
C154 C153 1.405 . S
C154 H180 0.931 . S
U155 O156 2.454 . S
U155 O157 2.458 . S
U155 C158 2.984 . S
U155 C159 2.847 1_455 S
U155 C172 2.882 . S
U155 O173 2.441 1_455 S
U155 O174 2.420 1_455 S
U155 O175 2.455 . S
U155 O176 2.449 1_455 S
O156 U155 2.454 . S
O156 C158 1.353 . S
O157 U155 2.458 . S
O157 C158 1.286 . S
C158 U155 2.984 . S
C158 O156 1.353 . S
C158 O157 1.286 . S
C158 C160 1.363 . S
C159 C149 1.465 . S
C159 U155 2.847 1_655 S
C159 O173 1.249 . S
C159 O174 1.202 . S
C160 C158 1.363 . S
C160 C162 1.408 . S
C160 C165 1.342 . S
C161 C162 1.310 . S
C161 C164 1.461 . S
C161 H181 0.932 . S
C162 C160 1.408 . S
C162 C161 1.310 . S
C162 H182 0.930 . S
C163 C164 1.474 . S
C163 C165 1.285 . S
C163 H183 0.929 . S
C164 C161 1.461 . S
C164 C163 1.474 . S
C165 C160 1.342 . S
C165 C163 1.285 . S
C165 H184 0.930 . S
C166 C169 1.424 1_455 S
C166 C171 1.245 . S
C166 C172 1.428 . S
C167 C170 1.260 . S
C167 C171 1.477 . S
C167 H185 0.932 . S
C168 C169 1.384 . S
C168 C170 1.479 1_655 S
C168 H186 0.929 . S
C169 C166 1.424 1_655 S
C169 C168 1.384 . S
C169 H187 0.928 . S
C170 C167 1.260 . S
C170 C168 1.479 1_455 S
C171 C166 1.245 . S
C171 C167 1.477 . S
C171 H188 0.932 . S
C172 U155 2.882 . S
C172 C166 1.428 . S
C172 O175 1.301 . S
C172 O176 1.282 1_455 S
O173 U155 2.441 1_655 S
O173 C159 1.249 . S
O174 U155 2.420 1_655 S
O174 C159 1.202 . S
O175 U155 2.455 . S
O175 C172 1.301 . S
O176 U155 2.449 1_655 S
O176 C172 1.282 1_655 S
H177 C150 0.931 . S
H178 C152 0.929 . S
H179 C153 0.930 . S
H180 C154 0.931 . S
H181 C161 0.932 . S
H182 C162 0.930 . S
H183 C163 0.929 . S
H184 C165 0.930 . S
H185 C167 0.932 . S
H186 C168 0.929 . S
H187 C169 0.928 . S
H188 C171 0.932 . S
C189 C190 1.264 . S
C189 C194 1.479 . S
C189 C199 1.465 . S
C190 C189 1.264 . S
C190 C192 1.339 . S
C190 H217 0.931 . S
C191 C192 1.395 . S
C191 C193 1.320 . S
C192 C190 1.339 . S
C192 C191 1.395 . S
C192 H218 0.929 . S
C193 C191 1.320 . S
C193 C194 1.405 . S
C193 H219 0.930 . S
C194 C189 1.479 . S
C194 C193 1.405 . S
C194 H220 0.931 . S
U195 O196 2.454 1_655 S
U195 O197 2.458 1_655 S
U195 C198 2.984 1_655 S
U195 C199 2.847 . S
U195 C212 2.882 . S
U195 O213 2.441 . S
U195 O214 2.420 . S
U195 O215 2.455 1_655 S
U195 O216 2.449 . S
O196 U195 2.454 1_455 S
O196 C198 1.353 . S
O197 U195 2.458 1_455 S
O197 C198 1.286 . S
C198 U195 2.984 1_455 S
C198 O196 1.353 . S
C198 O197 1.286 . S
C198 C200 1.363 . S
C199 C189 1.465 . S
C199 U195 2.847 . S
C199 O213 1.249 . S
C199 O214 1.202 . S
C200 C198 1.363 . S
C200 C202 1.408 . S
C200 C205 1.342 . S
C201 C202 1.310 . S
C201 C204 1.461 . S
C201 H221 0.932 . S
C202 C200 1.408 . S
C202 C201 1.310 . S
C202 H222 0.930 . S
C203 C204 1.474 . S
C203 C205 1.285 . S
C203 H223 0.929 . S
C204 C201 1.461 . S
C204 C203 1.474 . S
C205 C200 1.342 . S
C205 C203 1.285 . S
C205 H224 0.930 . S
C206 C209 1.424 . S
C206 C211 1.245 1_655 S
C206 C212 1.428 . S
C207 C210 1.260 1_455 S
C207 C211 1.477 . S
C207 H225 0.932 . S
C208 C209 1.384 . S
C208 C210 1.479 . S
C208 H226 0.929 . S
C209 C206 1.424 . S
C209 C208 1.384 . S
C209 H227 0.928 . S
C210 C207 1.260 1_655 S
C210 C208 1.479 . S
C211 C206 1.245 1_455 S
C211 C207 1.477 . S
C211 H228 0.932 . S
C212 U195 2.882 . S
C212 C206 1.428 . S
C212 O215 1.301 1_655 S
C212 O216 1.282 . S
O213 U195 2.441 . S
O213 C199 1.249 . S
O214 U195 2.420 . S
O214 C199 1.202 . S
O215 U195 2.455 1_455 S
O215 C212 1.301 1_455 S
O216 U195 2.449 . S
O216 C212 1.282 . S
H217 C190 0.931 . S
H218 C192 0.929 . S
H219 C193 0.930 . S
H220 C194 0.931 . S
H221 C201 0.932 . S
H222 C202 0.930 . S
H223 C203 0.929 . S
H224 C205 0.930 . S
H225 C207 0.932 . S
H226 C208 0.929 . S
H227 C209 0.928 . S
H228 C211 0.932 . S
C229 C230 1.264 . S
C229 C234 1.479 . S
C229 C239 1.465 . S
C230 C229 1.264 . S
C230 C232 1.339 . S
C230 H257 0.931 . S
C231 C232 1.395 . S
C231 C233 1.320 . S
C232 C230 1.339 . S
C232 C231 1.395 . S
C232 H258 0.929 . S
C233 C231 1.320 . S
C233 C234 1.405 . S
C233 H259 0.930 . S
C234 C229 1.479 . S
C234 C233 1.405 . S
C234 H260 0.931 . S
U235 O236 2.454 1_565 S
U235 O237 2.458 1_565 S
U235 C238 2.984 1_565 S
U235 C239 2.847 . S
U235 C252 2.882 . S
U235 O253 2.441 . S
U235 O254 2.420 . S
U235 O255 2.455 1_565 S
U235 O256 2.449 . S
O236 U235 2.454 1_545 S
O236 C238 1.353 . S
O237 U235 2.458 1_545 S
O237 C238 1.286 . S
C238 U235 2.984 1_545 S
C238 O236 1.353 . S
C238 O237 1.286 . S
C238 C240 1.363 . S
C239 C229 1.465 . S
C239 U235 2.847 . S
C239 O253 1.249 . S
C239 O254 1.202 . S
C240 C238 1.363 . S
C240 C242 1.408 . S
C240 C245 1.342 . S
C241 C242 1.310 . S
C241 C244 1.461 . S
C241 H261 0.932 . S
C242 C240 1.408 . S
C242 C241 1.310 . S
C242 H262 0.930 . S
C243 C244 1.474 . S
C243 C245 1.285 . S
C243 H263 0.929 . S
C244 C241 1.461 . S
C244 C243 1.474 . S
C245 C240 1.342 . S
C245 C243 1.285 . S
C245 H264 0.930 . S
C246 C249 1.424 . S
C246 C251 1.245 1_565 S
C246 C252 1.428 . S
C247 C250 1.260 1_545 S
C247 C251 1.477 . S
C247 H265 0.932 . S
C248 C249 1.384 . S
C248 C250 1.479 . S
C248 H266 0.929 . S
C249 C246 1.424 . S
C249 C248 1.384 . S
C249 H267 0.928 . S
C250 C247 1.260 1_565 S
C250 C248 1.479 . S
C251 C246 1.245 1_545 S
C251 C247 1.477 . S
C251 H268 0.932 . S
C252 U235 2.882 . S
C252 C246 1.428 . S
C252 O255 1.301 1_565 S
C252 O256 1.282 . S
O253 U235 2.441 . S
O253 C239 1.249 . S
O254 U235 2.420 . S
O254 C239 1.202 . S
O255 U235 2.455 1_545 S
O255 C252 1.301 1_545 S
O256 U235 2.449 . S
O256 C252 1.282 . S
H257 C230 0.931 . S
H258 C232 0.929 . S
H259 C233 0.930 . S
H260 C234 0.931 . S
H261 C241 0.932 . S
H262 C242 0.930 . S
H263 C243 0.929 . S
H264 C245 0.930 . S
H265 C247 0.932 . S
H266 C248 0.929 . S
H267 C249 0.928 . S
H268 C251 0.932 . S
C269 C270 1.264 . S
C269 C274 1.479 . S
C269 C279 1.465 . S
C270 C269 1.264 . S
C270 C272 1.339 . S
C270 H297 0.931 . S
C271 C272 1.395 . S
C271 C273 1.320 . S
C272 C270 1.339 . S
C272 C271 1.395 . S
C272 H298 0.929 . S
C273 C271 1.320 . S
C273 C274 1.405 . S
C273 H299 0.930 . S
C274 C269 1.479 . S
C274 C273 1.405 . S
C274 H300 0.931 . S
U275 O276 2.454 . S
U275 O277 2.458 . S
U275 C278 2.984 . S
U275 C279 2.847 . S
U275 C292 2.882 . S
U275 O293 2.441 . S
U275 O294 2.420 . S
U275 O295 2.455 . S
U275 O296 2.449 . S
O276 U275 2.454 . S
O276 C278 1.353 . S
O277 U275 2.458 . S
O277 C278 1.286 . S
C278 U275 2.984 . S
C278 O276 1.353 . S
C278 O277 1.286 . S
C278 C280 1.363 . S
C279 C269 1.465 . S
C279 U275 2.847 . S
C279 O293 1.249 . S
C279 O294 1.202 . S
C280 C278 1.363 . S
C280 C282 1.408 . S
C280 C285 1.342 . S
C281 C282 1.310 . S
C281 C284 1.461 . S
C281 H301 0.932 . S
C282 C280 1.408 . S
C282 C281 1.310 . S
C282 H302 0.930 . S
C283 C284 1.474 . S
C283 C285 1.285 . S
C283 H303 0.929 . S
C284 C281 1.461 . S
C284 C283 1.474 . S
C285 C280 1.342 . S
C285 C283 1.285 . S
C285 H304 0.930 . S
C286 C289 1.424 . S
C286 C291 1.245 . S
C286 C292 1.428 . S
C287 C290 1.260 . S
C287 C291 1.477 . S
C287 H305 0.932 . S
C288 C289 1.384 . S
C288 C290 1.479 . S
C288 H306 0.929 . S
C289 C286 1.424 . S
C289 C288 1.384 . S
C289 H307 0.928 . S
C290 C287 1.260 . S
C290 C288 1.479 . S
C291 C286 1.245 . S
C291 C287 1.477 . S
C291 H308 0.932 . S
C292 U275 2.882 . S
C292 C286 1.428 . S
C292 O295 1.301 . S
C292 O296 1.282 . S
O293 U275 2.441 . S
O293 C279 1.249 . S
O294 U275 2.420 . S
O294 C279 1.202 . S
O295 U275 2.455 . S
O295 C292 1.301 . S
O296 U275 2.449 . S
O296 C292 1.282 . S
H297 C270 0.931 . S
H298 C272 0.929 . S
H299 C273 0.930 . S
H300 C274 0.931 . S
H301 C281 0.932 . S
H302 C282 0.930 . S
H303 C283 0.929 . S
H304 C285 0.930 . S
H305 C287 0.932 . S
H306 C288 0.929 . S
H307 C289 0.928 . S
H308 C291 0.932 . S
H309 C321 0.930 . S
H310 C323 0.930 . S
H311 C324 0.930 . S
H312 C328 0.959 . S
H313 C328 0.959 . S
H314 C328 0.961 . S
H315 C329 0.960 . S
H316 C329 0.961 . S
H317 C329 0.959 . S
H318 C332 0.929 . S
H319 C333 0.931 . S
H320 C335 0.930 . S
C321 H309 0.930 . S
C321 C322 1.399 . S
C321 C326 1.399 . S
C322 C321 1.399 . S
C322 C323 1.376 . S
C323 H310 0.930 . S
C323 C322 1.376 . S
C323 C324 1.388 . S
C324 H311 0.930 . S
C324 C323 1.388 . S
C324 C325 1.390 . S
C325 C324 1.390 . S
C325 C326 1.394 . S
C325 C331 1.465 . S
C326 C321 1.399 . S
C326 C325 1.394 . S
C326 C327 1.516 . S
C327 C326 1.516 . S
C327 C328 1.502 . S
C327 C329 1.561 . S
C327 C330 1.526 . S
C328 H312 0.959 . S
C328 H313 0.959 . S
C328 H314 0.961 . S
C328 C327 1.502 . S
C329 H315 0.960 . S
C329 H316 0.961 . S
C329 H317 0.959 . S
C329 C327 1.561 . S
C330 C327 1.526 . S
C330 C331 1.396 . S
C330 C335 1.390 . S
C331 C325 1.465 . S
C331 C330 1.396 . S
C331 C332 1.399 . S
C332 H318 0.929 . S
C332 C331 1.399 . S
C332 C333 1.385 . S
C333 H319 0.931 . S
C333 C332 1.385 . S
C333 C334 1.389 . S
C334 C333 1.389 . S
C334 C335 1.387 . S
C335 H320 0.930 . S
C335 C330 1.390 . S
C335 C334 1.387 . S
H336 C348 0.930 . S
H337 C350 0.930 . S
H338 C351 0.930 . S
H339 C355 0.959 . S
H340 C355 0.959 . S
H341 C355 0.961 . S
H342 C356 0.960 . S
H343 C356 0.961 . S
H344 C356 0.959 . S
H345 C359 0.929 . S
H346 C360 0.931 . S
H347 C362 0.930 . S
C348 H336 0.930 . S
C348 C349 1.399 . S
C348 C353 1.399 . S
C349 C348 1.399 . S
C349 C350 1.376 . S
C350 H337 0.930 . S
C350 C349 1.376 . S
C350 C351 1.388 . S
C351 H338 0.930 . S
C351 C350 1.388 . S
C351 C352 1.390 . S
C352 C351 1.390 . S
C352 C353 1.394 . S
C352 C358 1.465 . S
C353 C348 1.399 . S
C353 C352 1.394 . S
C353 C354 1.516 . S
C354 C353 1.516 . S
C354 C355 1.502 . S
C354 C356 1.561 . S
C354 C357 1.526 . S
C355 H339 0.959 . S
C355 H340 0.959 . S
C355 H341 0.961 . S
C355 C354 1.502 . S
C356 H342 0.960 . S
C356 H343 0.961 . S
C356 H344 0.959 . S
C356 C354 1.561 . S
C357 C354 1.526 . S
C357 C358 1.396 . S
C357 C362 1.390 . S
C358 C352 1.465 . S
C358 C357 1.396 . S
C358 C359 1.399 . S
C359 H345 0.929 . S
C359 C358 1.399 . S
C359 C360 1.385 . S
C360 H346 0.931 . S
C360 C359 1.385 . S
C360 C361 1.389 . S
C361 C360 1.389 . S
C361 C362 1.387 . S
C362 H347 0.930 . S
C362 C357 1.390 . S
C362 C361 1.387 . S
H363 C375 0.930 . S
H364 C377 0.930 . S
H365 C378 0.930 . S
H366 C382 0.959 . S
H367 C382 0.959 . S
H368 C382 0.961 . S
H369 C383 0.960 . S
H370 C383 0.961 . S
H371 C383 0.959 . S
H372 C386 0.929 . S
H373 C387 0.931 . S
H374 C389 0.930 . S
C375 H363 0.930 . S
C375 C376 1.399 . S
C375 C380 1.399 . S
C376 C375 1.399 . S
C376 C377 1.376 . S
C377 H364 0.930 . S
C377 C376 1.376 . S
C377 C378 1.388 . S
C378 H365 0.930 . S
C378 C377 1.388 . S
C378 C379 1.390 . S
C379 C378 1.390 . S
C379 C380 1.394 . S
C379 C385 1.465 . S
C380 C375 1.399 . S
C380 C379 1.394 . S
C380 C381 1.516 . S
C381 C380 1.516 . S
C381 C382 1.502 . S
C381 C383 1.561 . S
C381 C384 1.526 . S
C382 H366 0.959 . S
C382 H367 0.959 . S
C382 H368 0.961 . S
C382 C381 1.502 . S
C383 H369 0.960 . S
C383 H370 0.961 . S
C383 H371 0.959 . S
C383 C381 1.561 . S
C384 C381 1.526 . S
C384 C385 1.396 . S
C384 C389 1.390 . S
C385 C379 1.465 . S
C385 C384 1.396 . S
C385 C386 1.399 . S
C386 H372 0.929 . S
C386 C385 1.399 . S
C386 C387 1.385 . S
C387 H373 0.931 . S
C387 C386 1.385 . S
C387 C388 1.389 . S
C388 C387 1.389 . S
C388 C389 1.387 . S
C389 H374 0.930 . S
C389 C384 1.390 . S
C389 C388 1.387 . S
H390 C402 0.930 . S
H391 C404 0.930 . S
H392 C405 0.930 . S
H393 C409 0.959 . S
H394 C409 0.959 . S
H395 C409 0.961 . S
H396 C410 0.960 . S
H397 C410 0.961 . S
H398 C410 0.959 . S
H399 C413 0.929 . S
H400 C414 0.931 . S
H401 C416 0.930 . S
C402 H390 0.930 . S
C402 C403 1.399 . S
C402 C407 1.399 . S
C403 C402 1.399 . S
C403 C404 1.376 . S
C404 H391 0.930 . S
C404 C403 1.376 . S
C404 C405 1.388 . S
C405 H392 0.930 . S
C405 C404 1.388 . S
C405 C406 1.390 . S
C406 C405 1.390 . S
C406 C407 1.394 . S
C406 C412 1.465 . S
C407 C402 1.399 . S
C407 C406 1.394 . S
C407 C408 1.516 . S
C408 C407 1.516 . S
C408 C409 1.502 . S
C408 C410 1.561 . S
C408 C411 1.526 . S
C409 H393 0.959 . S
C409 H394 0.959 . S
C409 H395 0.961 . S
C409 C408 1.502 . S
C410 H396 0.960 . S
C410 H397 0.961 . S
C410 H398 0.959 . S
C410 C408 1.561 . S
C411 C408 1.526 . S
C411 C412 1.396 . S
C411 C416 1.390 . S
C412 C406 1.465 . S
C412 C411 1.396 . S
C412 C413 1.399 . S
C413 H399 0.929 . S
C413 C412 1.399 . S
C413 C414 1.385 . S
C414 H400 0.931 . S
C414 C413 1.385 . S
C414 C415 1.389 . S
C415 C414 1.389 . S
C415 C416 1.387 . S
C416 H401 0.930 . S
C416 C411 1.390 . S
C416 C415 1.387 . S
H417 C429 0.930 . S
H418 C431 0.930 . S
H419 C432 0.930 . S
H420 C436 0.959 . S
H421 C436 0.959 . S
H422 C436 0.961 . S
H423 C437 0.960 . S
H424 C437 0.961 . S
H425 C437 0.959 . S
H426 C440 0.929 . S
H427 C441 0.931 . S
H428 C443 0.930 . S
C429 H417 0.930 . S
C429 C430 1.399 . S
C429 C434 1.399 . S
C430 C429 1.399 . S
C430 C431 1.376 . S
C431 H418 0.930 . S
C431 C430 1.376 . S
C431 C432 1.388 . S
C432 H419 0.930 . S
C432 C431 1.388 . S
C432 C433 1.390 . S
C433 C432 1.390 . S
C433 C434 1.394 . S
C433 C439 1.465 . S
C434 C429 1.399 . S
C434 C433 1.394 . S
C434 C435 1.516 . S
C435 C434 1.516 . S
C435 C436 1.502 . S
C435 C437 1.561 . S
C435 C438 1.526 . S
C436 H420 0.959 . S
C436 H421 0.959 . S
C436 H422 0.961 . S
C436 C435 1.502 . S
C437 H423 0.960 . S
C437 H424 0.961 . S
C437 H425 0.959 . S
C437 C435 1.561 . S
C438 C435 1.526 . S
C438 C439 1.396 . S
C438 C443 1.390 . S
C439 C433 1.465 . S
C439 C438 1.396 . S
C439 C440 1.399 . S
C440 H426 0.929 . S
C440 C439 1.399 . S
C440 C441 1.385 . S
C441 H427 0.931 . S
C441 C440 1.385 . S
C441 C442 1.389 . S
C442 C441 1.389 . S
C442 C443 1.387 . S
C443 H428 0.930 . S
C443 C438 1.390 . S
C443 C442 1.387 . S
H444 C456 0.930 . S
H445 C458 0.930 . S
H446 C459 0.930 . S
H447 C463 0.959 . S
H448 C463 0.959 . S
H449 C463 0.961 . S
H450 C464 0.960 . S
H451 C464 0.961 . S
H452 C464 0.959 . S
H453 C467 0.929 . S
H454 C468 0.931 . S
H455 C470 0.930 . S
C456 H444 0.930 . S
C456 C457 1.399 . S
C456 C461 1.399 . S
C457 C456 1.399 . S
C457 C458 1.376 . S
C458 H445 0.930 . S
C458 C457 1.376 . S
C458 C459 1.388 . S
C459 H446 0.930 . S
C459 C458 1.388 . S
C459 C460 1.390 . S
C460 C459 1.390 . S
C460 C461 1.394 . S
C460 C466 1.465 . S
C461 C456 1.399 . S
C461 C460 1.394 . S
C461 C462 1.516 . S
C462 C461 1.516 . S
C462 C463 1.502 . S
C462 C464 1.561 . S
C462 C465 1.526 . S
C463 H447 0.959 . S
C463 H448 0.959 . S
C463 H449 0.961 . S
C463 C462 1.502 . S
C464 H450 0.960 . S
C464 H451 0.961 . S
C464 H452 0.959 . S
C464 C462 1.561 . S
C465 C462 1.526 . S
C465 C466 1.396 . S
C465 C470 1.390 . S
C466 C460 1.465 . S
C466 C465 1.396 . S
C466 C467 1.399 . S
C467 H453 0.929 . S
C467 C466 1.399 . S
C467 C468 1.385 . S
C468 H454 0.931 . S
C468 C467 1.385 . S
C468 C469 1.389 . S
C469 C468 1.389 . S
C469 C470 1.387 . S
C470 H455 0.930 . S
C470 C465 1.390 . S
C470 C469 1.387 . S
H471 C483 0.930 . S
H472 C485 0.930 . S
H473 C486 0.930 . S
H474 C490 0.959 . S
H475 C490 0.959 . S
H476 C490 0.961 . S
H477 C491 0.960 . S
H478 C491 0.961 . S
H479 C491 0.959 . S
H480 C494 0.929 . S
H481 C495 0.931 . S
H482 C497 0.930 . S
C483 H471 0.930 . S
C483 C484 1.399 . S
C483 C488 1.399 . S
C484 C483 1.399 . S
C484 C485 1.376 . S
C485 H472 0.930 . S
C485 C484 1.376 . S
C485 C486 1.388 . S
C486 H473 0.930 . S
C486 C485 1.388 . S
C486 C487 1.390 . S
C487 C486 1.390 . S
C487 C488 1.394 . S
C487 C493 1.465 . S
C488 C483 1.399 . S
C488 C487 1.394 . S
C488 C489 1.516 . S
C489 C488 1.516 . S
C489 C490 1.502 . S
C489 C491 1.561 . S
C489 C492 1.526 . S
C490 H474 0.959 . S
C490 H475 0.959 . S
C490 H476 0.961 . S
C490 C489 1.502 . S
C491 H477 0.960 . S
C491 H478 0.961 . S
C491 H479 0.959 . S
C491 C489 1.561 . S
C492 C489 1.526 . S
C492 C493 1.396 . S
C492 C497 1.390 . S
C493 C487 1.465 . S
C493 C492 1.396 . S
C493 C494 1.399 . S
C494 H480 0.929 . S
C494 C493 1.399 . S
C494 C495 1.385 . S
C495 H481 0.931 . S
C495 C494 1.385 . S
C495 C496 1.389 . S
C496 C495 1.389 . S
C496 C497 1.387 . S
C497 H482 0.930 . S
C497 C492 1.390 . S
C497 C496 1.387 . S
H498 C510 0.930 . S
H499 C512 0.930 . S
H500 C513 0.930 . S
H501 C517 0.959 . S
H502 C517 0.959 . S
H503 C517 0.961 . S
H504 C518 0.960 . S
H505 C518 0.961 . S
H506 C518 0.959 . S
H507 C521 0.929 . S
H508 C522 0.931 . S
H509 C524 0.930 . S
C510 H498 0.930 . S
C510 C511 1.399 . S
C510 C515 1.399 . S
C511 C510 1.399 . S
C511 C512 1.376 . S
C512 H499 0.930 . S
C512 C511 1.376 . S
C512 C513 1.388 . S
C513 H500 0.930 . S
C513 C512 1.388 . S
C513 C514 1.390 . S
C514 C513 1.390 . S
C514 C515 1.394 . S
C514 C520 1.465 . S
C515 C510 1.399 . S
C515 C514 1.394 . S
C515 C516 1.516 . S
C516 C515 1.516 . S
C516 C517 1.502 . S
C516 C518 1.561 . S
C516 C519 1.526 . S
C517 H501 0.959 . S
C517 H502 0.959 . S
C517 H503 0.961 . S
C517 C516 1.502 . S
C518 H504 0.960 . S
C518 H505 0.961 . S
C518 H506 0.959 . S
C518 C516 1.561 . S
C519 C516 1.526 . S
C519 C520 1.396 . S
C519 C524 1.390 . S
C520 C514 1.465 . S
C520 C519 1.396 . S
C520 C521 1.399 . S
C521 H507 0.929 . S
C521 C520 1.399 . S
C521 C522 1.385 . S
C522 H508 0.931 . S
C522 C521 1.385 . S
C522 C523 1.389 . S
C523 C522 1.389 . S
C523 C524 1.387 . S
C524 H509 0.930 . S
C524 C519 1.390 . S
C524 C523 1.387 . S
H525 C537 0.930 . S
H526 C539 0.930 . S
H527 C540 0.930 . S
H528 C544 0.959 . S
H529 C544 0.959 . S
H530 C544 0.961 . S
H531 C545 0.960 . S
H532 C545 0.961 . S
H533 C545 0.959 . S
H534 C548 0.929 . S
H535 C549 0.931 . S
H536 C551 0.930 . S
C537 H525 0.930 . S
C537 C538 1.399 . S
C537 C542 1.399 . S
C538 C537 1.399 . S
C538 C539 1.376 . S
C539 H526 0.930 . S
C539 C538 1.376 . S
C539 C540 1.388 . S
C540 H527 0.930 . S
C540 C539 1.388 . S
C540 C541 1.390 . S
C541 C540 1.390 . S
C541 C542 1.394 . S
C541 C547 1.465 . S
C542 C537 1.399 . S
C542 C541 1.394 . S
C542 C543 1.516 . S
C543 C542 1.516 . S
C543 C544 1.502 . S
C543 C545 1.561 . S
C543 C546 1.526 . S
C544 H528 0.959 . S
C544 H529 0.959 . S
C544 H530 0.961 . S
C544 C543 1.502 . S
C545 H531 0.960 . S
C545 H532 0.961 . S
C545 H533 0.959 . S
C545 C543 1.561 . S
C546 C543 1.526 . S
C546 C547 1.396 . S
C546 C551 1.390 . S
C547 C541 1.465 . S
C547 C546 1.396 . S
C547 C548 1.399 . S
C548 H534 0.929 . S
C548 C547 1.399 . S
C548 C549 1.385 . S
C549 H535 0.931 . S
C549 C548 1.385 . S
C549 C550 1.389 . S
C550 C549 1.389 . S
C550 C551 1.387 . S
C551 H536 0.930 . S
C551 C546 1.390 . S
C551 C550 1.387 . S
H552 C564 0.930 . S
H553 C566 0.930 . S
H554 C567 0.930 . S
H555 C571 0.959 . S
H556 C571 0.959 . S
H557 C571 0.961 . S
H558 C572 0.960 . S
H559 C572 0.961 . S
H560 C572 0.959 . S
H561 C575 0.929 . S
H562 C576 0.931 . S
H563 C578 0.930 . S
C564 H552 0.930 . S
C564 C565 1.399 . S
C564 C569 1.399 . S
C565 C564 1.399 . S
C565 C566 1.376 . S
C566 H553 0.930 . S
C566 C565 1.376 . S
C566 C567 1.388 . S
C567 H554 0.930 . S
C567 C566 1.388 . S
C567 C568 1.390 . S
C568 C567 1.390 . S
C568 C569 1.394 . S
C568 C574 1.465 . S
C569 C564 1.399 . S
C569 C568 1.394 . S
C569 C570 1.516 . S
C570 C569 1.516 . S
C570 C571 1.502 . S
C570 C572 1.561 . S
C570 C573 1.526 . S
C571 H555 0.959 . S
C571 H556 0.959 . S
C571 H557 0.961 . S
C571 C570 1.502 . S
C572 H558 0.960 . S
C572 H559 0.961 . S
C572 H560 0.959 . S
C572 C570 1.561 . S
C573 C570 1.526 . S
C573 C574 1.396 . S
C573 C578 1.390 . S
C574 C568 1.465 . S
C574 C573 1.396 . S
C574 C575 1.399 . S
C575 H561 0.929 . S
C575 C574 1.399 . S
C575 C576 1.385 . S
C576 H562 0.931 . S
C576 C575 1.385 . S
C576 C577 1.389 . S
C577 C576 1.389 . S
C577 C578 1.387 . S
C578 H563 0.930 . S
C578 C573 1.390 . S
C578 C577 1.387 . S
H579 C591 0.930 . S
H580 C593 0.930 . S
H581 C594 0.930 . S
H582 C598 0.959 . S
H583 C598 0.959 . S
H584 C598 0.961 . S
H585 C599 0.960 . S
H586 C599 0.961 . S
H587 C599 0.959 . S
H588 C602 0.929 . S
H589 C603 0.931 . S
H590 C605 0.930 . S
C591 H579 0.930 . S
C591 C592 1.399 . S
C591 C596 1.399 . S
C592 C591 1.399 . S
C592 C593 1.376 . S
C593 H580 0.930 . S
C593 C592 1.376 . S
C593 C594 1.388 . S
C594 H581 0.930 . S
C594 C593 1.388 . S
C594 C595 1.390 . S
C595 C594 1.390 . S
C595 C596 1.394 . S
C595 C601 1.465 . S
C596 C591 1.399 . S
C596 C595 1.394 . S
C596 C597 1.516 . S
C597 C596 1.516 . S
C597 C598 1.502 . S
C597 C599 1.561 . S
C597 C600 1.526 . S
C598 H582 0.959 . S
C598 H583 0.959 . S
C598 H584 0.961 . S
C598 C597 1.502 . S
C599 H585 0.960 . S
C599 H586 0.961 . S
C599 H587 0.959 . S
C599 C597 1.561 . S
C600 C597 1.526 . S
C600 C601 1.396 . S
C600 C605 1.390 . S
C601 C595 1.465 . S
C601 C600 1.396 . S
C601 C602 1.399 . S
C602 H588 0.929 . S
C602 C601 1.399 . S
C602 C603 1.385 . S
C603 H589 0.931 . S
C603 C602 1.385 . S
C603 C604 1.389 . S
C604 C603 1.389 . S
C604 C605 1.387 . S
C605 H590 0.930 . S
C605 C600 1.390 . S
C605 C604 1.387 . S
H606 C618 0.930 . S
H607 C620 0.930 . S
H608 C621 0.930 . S
H609 C625 0.959 . S
H610 C625 0.959 . S
H611 C625 0.961 . S
H612 C626 0.960 . S
H613 C626 0.961 . S
H614 C626 0.959 . S
H615 C629 0.929 . S
H616 C630 0.931 . S
H617 C632 0.930 . S
C618 H606 0.930 . S
C618 C619 1.399 . S
C618 C623 1.399 . S
C619 C618 1.399 . S
C619 C620 1.376 . S
C620 H607 0.930 . S
C620 C619 1.376 . S
C620 C621 1.388 . S
C621 H608 0.930 . S
C621 C620 1.388 . S
C621 C622 1.390 . S
C622 C621 1.390 . S
C622 C623 1.394 . S
C622 C628 1.465 . S
C623 C618 1.399 . S
C623 C622 1.394 . S
C623 C624 1.516 . S
C624 C623 1.516 . S
C624 C625 1.502 . S
C624 C626 1.561 . S
C624 C627 1.526 . S
C625 H609 0.959 . S
C625 H610 0.959 . S
C625 H611 0.961 . S
C625 C624 1.502 . S
C626 H612 0.960 . S
C626 H613 0.961 . S
C626 H614 0.959 . S
C626 C624 1.561 . S
C627 C624 1.526 . S
C627 C628 1.396 . S
C627 C632 1.390 . S
C628 C622 1.465 . S
C628 C627 1.396 . S
C628 C629 1.399 . S
C629 H615 0.929 . S
C629 C628 1.399 . S
C629 C630 1.385 . S
C630 H616 0.931 . S
C630 C629 1.385 . S
C630 C631 1.389 . S
C631 C630 1.389 . S
C631 C632 1.387 . S
C632 H617 0.930 . S
C632 C627 1.390 . S
C632 C631 1.387 . S
H633 C645 0.930 . S
H634 C647 0.930 . S
H635 C648 0.930 . S
H636 C652 0.959 . S
H637 C652 0.959 . S
H638 C652 0.961 . S
H639 C653 0.960 . S
H640 C653 0.961 . S
H641 C653 0.959 1_655 S
H642 C656 0.929 . S
H643 C657 0.931 . S
H644 C659 0.930 . S
C645 H633 0.930 . S
C645 C646 1.399 . S
C645 C650 1.399 . S
C646 C645 1.399 . S
C646 C647 1.376 1_455 S
C647 H634 0.930 . S
C647 C646 1.376 1_655 S
C647 C648 1.388 . S
C648 H635 0.930 . S
C648 C647 1.388 . S
C648 C649 1.390 . S
C649 C648 1.390 . S
C649 C650 1.394 1_655 S
C649 C655 1.465 . S
C650 C645 1.399 . S
C650 C649 1.394 1_455 S
C650 C651 1.516 . S
C651 C650 1.516 . S
C651 C652 1.502 . S
C651 C653 1.561 . S
C651 C654 1.526 . S
C652 H636 0.959 . S
C652 H637 0.959 . S
C652 H638 0.961 . S
C652 C651 1.502 . S
C653 H639 0.960 . S
C653 H640 0.961 . S
C653 H641 0.959 1_455 S
C653 C651 1.561 . S
C654 C651 1.526 . S
C654 C655 1.396 1_455 S
C654 C659 1.390 . S
C655 C649 1.465 . S
C655 C654 1.396 1_655 S
C655 C656 1.399 . S
C656 H642 0.929 . S
C656 C655 1.399 . S
C656 C657 1.385 . S
C657 H643 0.931 . S
C657 C656 1.385 . S
C657 C658 1.389 1_655 S
C658 C657 1.389 1_455 S
C658 C659 1.387 . S
C659 H644 0.930 . S
C659 C654 1.390 . S
C659 C658 1.387 . S
H660 C672 0.930 . S
H661 C674 0.930 . S
H662 C675 0.930 . S
H663 C679 0.959 . S
H664 C679 0.959 . S
H665 C679 0.961 . S
H666 C680 0.960 . S
H667 C680 0.961 . S
H668 C680 0.959 . S
H669 C683 0.929 . S
H670 C684 0.931 . S
H671 C686 0.930 . S
C672 H660 0.930 . S
C672 C673 1.399 1_565 S
C672 C677 1.399 . S
C673 C672 1.399 1_545 S
C673 C674 1.376 . S
C674 H661 0.930 . S
C674 C673 1.376 . S
C674 C675 1.388 . S
C675 H662 0.930 . S
C675 C674 1.388 . S
C675 C676 1.390 . S
C676 C675 1.390 . S
C676 C677 1.394 1_545 S
C676 C682 1.465 . S
C677 C672 1.399 . S
C677 C676 1.394 1_565 S
C677 C678 1.516 . S
C678 C677 1.516 . S
C678 C679 1.502 . S
C678 C680 1.561 . S
C678 C681 1.526 . S
C679 H663 0.959 . S
C679 H664 0.959 . S
C679 H665 0.961 . S
C679 C678 1.502 . S
C680 H666 0.960 . S
C680 H667 0.961 . S
C680 H668 0.959 . S
C680 C678 1.561 . S
C681 C678 1.526 . S
C681 C682 1.396 1_565 S
C681 C686 1.390 . S
C682 C676 1.465 . S
C682 C681 1.396 1_545 S
C682 C683 1.399 . S
C683 H669 0.929 . S
C683 C682 1.399 . S
C683 C684 1.385 . S
C684 H670 0.931 . S
C684 C683 1.385 . S
C684 C685 1.389 . S
C685 C684 1.389 . S
C685 C686 1.387 1_545 S
C686 H671 0.930 . S
C686 C681 1.390 . S
C686 C685 1.387 1_565 S
H687 C699 0.930 . S
H688 C701 0.930 . S
H689 C702 0.930 . S
H690 C706 0.959 . S
H691 C706 0.959 . S
H692 C706 0.961 . S
H693 C707 0.960 . S
H694 C707 0.961 . S
H695 C707 0.959 . S
H696 C710 0.929 . S
H697 C711 0.931 . S
H698 C713 0.930 . S
C699 H687 0.930 . S
C699 C700 1.399 . S
C699 C704 1.399 . S
C700 C699 1.399 . S
C700 C701 1.376 . S
C701 H688 0.930 . S
C701 C700 1.376 . S
C701 C702 1.388 . S
C702 H689 0.930 . S
C702 C701 1.388 . S
C702 C703 1.390 . S
C703 C702 1.390 . S
C703 C704 1.394 . S
C703 C709 1.465 . S
C704 C699 1.399 . S
C704 C703 1.394 . S
C704 C705 1.516 . S
C705 C704 1.516 . S
C705 C706 1.502 . S
C705 C707 1.561 . S
C705 C708 1.526 . S
C706 H690 0.959 . S
C706 H691 0.959 . S
C706 H692 0.961 . S
C706 C705 1.502 . S
C707 H693 0.960 . S
C707 H694 0.961 . S
C707 H695 0.959 . S
C707 C705 1.561 . S
C708 C705 1.526 . S
C708 C709 1.396 . S
C708 C713 1.390 . S
C709 C703 1.465 . S
C709 C708 1.396 . S
C709 C710 1.399 . S
C710 H696 0.929 . S
C710 C709 1.399 . S
C710 C711 1.385 . S
C711 H697 0.931 . S
C711 C710 1.385 . S
C711 C712 1.389 . S
C712 C711 1.389 . S
C712 C713 1.387 . S
C713 H698 0.930 . S
C713 C708 1.390 . S
C713 C712 1.387 . S
H714 C726 0.930 . S
H715 C728 0.930 . S
H716 C729 0.930 . S
H717 C733 0.959 . S
H718 C733 0.959 . S
H719 C733 0.961 . S
H720 C734 0.960 . S
H721 C734 0.961 . S
H722 C734 0.959 . S
H723 C737 0.929 . S
H724 C738 0.931 . S
H725 C740 0.930 . S
C726 H714 0.930 . S
C726 C727 1.399 . S
C726 C731 1.399 . S
C727 C726 1.399 . S
C727 C728 1.376 1_545 S
C728 H715 0.930 . S
C728 C727 1.376 1_565 S
C728 C729 1.388 . S
C729 H716 0.930 . S
C729 C728 1.388 . S
C729 C730 1.390 . S
C730 C729 1.390 . S
C730 C731 1.394 1_565 S
C730 C736 1.465 . S
C731 C726 1.399 . S
C731 C730 1.394 1_545 S
C731 C732 1.516 . S
C732 C731 1.516 . S
C732 C733 1.502 . S
C732 C734 1.561 . S
C732 C735 1.526 . S
C733 H717 0.959 . S
C733 H718 0.959 . S
C733 H719 0.961 . S
C733 C732 1.502 . S
C734 H720 0.960 . S
C734 H721 0.961 . S
C734 H722 0.959 . S
C734 C732 1.561 . S
C735 C732 1.526 . S
C735 C736 1.396 1_545 S
C735 C740 1.390 . S
C736 C730 1.465 . S
C736 C735 1.396 1_565 S
C736 C737 1.399 . S
C737 H723 0.929 . S
C737 C736 1.399 . S
C737 C738 1.385 . S
C738 H724 0.931 . S
C738 C737 1.385 . S
C738 C739 1.389 . S
C739 C738 1.389 . S
C739 C740 1.387 1_565 S
C740 H725 0.930 . S
C740 C735 1.390 . S
C740 C739 1.387 1_545 S
H741 C753 0.930 . S
H742 C755 0.930 . S
H743 C756 0.930 . S
H744 C760 0.959 . S
H745 C760 0.959 . S
H746 C760 0.961 . S
H747 C761 0.960 . S
H748 C761 0.961 . S
H749 C761 0.959 . S
H750 C764 0.929 . S
H751 C765 0.931 . S
H752 C767 0.930 . S
C753 H741 0.930 . S
C753 C754 1.399 . S
C753 C758 1.399 . S
C754 C753 1.399 . S
C754 C755 1.376 . S
C755 H742 0.930 . S
C755 C754 1.376 . S
C755 C756 1.388 . S
C756 H743 0.930 . S
C756 C755 1.388 . S
C756 C757 1.390 . S
C757 C756 1.390 . S
C757 C758 1.394 . S
C757 C763 1.465 . S
C758 C753 1.399 . S
C758 C757 1.394 . S
C758 C759 1.516 . S
C759 C758 1.516 . S
C759 C760 1.502 . S
C759 C761 1.561 . S
C759 C762 1.526 . S
C760 H744 0.959 . S
C760 H745 0.959 . S
C760 H746 0.961 . S
C760 C759 1.502 . S
C761 H747 0.960 . S
C761 H748 0.961 . S
C761 H749 0.959 . S
C761 C759 1.561 . S
C762 C759 1.526 . S
C762 C763 1.396 . S
C762 C767 1.390 . S
C763 C757 1.465 . S
C763 C762 1.396 . S
C763 C764 1.399 . S
C764 H750 0.929 . S
C764 C763 1.399 . S
C764 C765 1.385 . S
C765 H751 0.931 . S
C765 C764 1.385 . S
C765 C766 1.389 . S
C766 C765 1.389 . S
C766 C767 1.387 . S
C767 H752 0.930 . S
C767 C762 1.390 . S
C767 C766 1.387 . S
H768 C780 0.930 . S
H769 C782 0.930 . S
H770 C783 0.930 . S
H771 C787 0.959 . S
H772 C787 0.959 . S
H773 C787 0.961 . S
H774 C788 0.960 . S
H775 C788 0.961 . S
H776 C788 0.959 1_455 S
H777 C791 0.929 . S
H778 C792 0.931 . S
H779 C794 0.930 . S
C780 H768 0.930 . S
C780 C781 1.399 1_655 S
C780 C785 1.399 . S
C781 C780 1.399 1_455 S
C781 C782 1.376 . S
C782 H769 0.930 . S
C782 C781 1.376 . S
C782 C783 1.388 . S
C783 H770 0.930 . S
C783 C782 1.388 . S
C783 C784 1.390 . S
C784 C783 1.390 . S
C784 C785 1.394 1_455 S
C784 C790 1.465 . S
C785 C780 1.399 . S
C785 C784 1.394 1_655 S
C785 C786 1.516 . S
C786 C785 1.516 . S
C786 C787 1.502 . S
C786 C788 1.561 . S
C786 C789 1.526 . S
C787 H771 0.959 . S
C787 H772 0.959 . S
C787 H773 0.961 . S
C787 C786 1.502 . S
C788 H774 0.960 . S
C788 H775 0.961 . S
C788 H776 0.959 1_655 S
C788 C786 1.561 . S
C789 C786 1.526 . S
C789 C790 1.396 1_655 S
C789 C794 1.390 . S
C790 C784 1.465 . S
C790 C789 1.396 1_455 S
C790 C791 1.399 . S
C791 H777 0.929 . S
C791 C790 1.399 . S
C791 C792 1.385 . S
C792 H778 0.931 . S
C792 C791 1.385 . S
C792 C793 1.389 . S
C793 C792 1.389 . S
C793 C794 1.387 1_455 S
C794 H779 0.930 . S
C794 C789 1.390 . S
C794 C793 1.387 1_655 S
C322 C20 1.185 . S
C334 C284 1.190 . S
C349 C41 1.234 . S
C361 C191 1.211 . S
C376 C64 1.264 . S
C388 C231 1.237 . S
C403 C19 1.152 . S
C415 C271 1.256 . S
C442 C204 1.241 . S
C430 C44 1.194 . S
C469 C244 1.180 . S
C457 C67 1.232 . S
C484 C43 1.131 . S
C496 C111 1.199 . S
C511 C66 1.196 . S
C523 C151 1.183 . S
C538 C21 1.243 . S
C550 C84 1.186 . S
C577 C124 1.263 . S
C565 C42 1.149 . S
C604 C164 1.222 . S
C592 C65 1.259 . S
C619 C18 1.234 . S
C631 C71 1.210 . S
C658 C170 1.443 1_554 S
C646 C17 1.456 . S
C673 C39 1.445 . S
C685 C90 1.425 . S
C700 C62 1.467 . S
C712 C130 1.448 . S
C739 C250 1.416 . S
C727 C40 1.437 . S
C766 C290 1.460 1_556 S
C754 C63 1.453 . S
C781 C16 1.449 . S
C793 C210 1.442 1_455 S
