# Generated by pormake.
# Topology pth, (4,4)-cn, num edge types: 1
# Building blocks:
#     Node 0, Type 0, BuildingBlock: NAHDIM_clean_sbu_0, # of connection points: 4
#     Node 1, Type 0, BuildingBlock: NAHDIM_clean_sbu_0, # of connection points: 4
#     Node 2, Type 0, BuildingBlock: NAHDIM_clean_sbu_0, # of connection points: 4
#     Node 3, Type 1, BuildingBlock: KOZSID_clean_sbu_0, # of connection points: 4
#     Node 4, Type 1, BuildingBlock: KOZSID_clean_sbu_0, # of connection points: 4
#     Node 5, Type 1, BuildingBlock: KOZSID_clean_sbu_0, # of connection points: 4
#     Edge 6, Type (0, 1), BuildingBlock: EZIPEK_clean_linker_0, # of connection points: 2
#     Edge 7, Type (0, 1), BuildingBlock: EZIPEK_clean_linker_0, # of connection points: 2
#     Edge 8, Type (0, 1), BuildingBlock: EZIPEK_clean_linker_0, # of connection points: 2
#     Edge 9, Type (0, 1), BuildingBlock: EZIPEK_clean_linker_0, # of connection points: 2
#     Edge 10, Type (0, 1), BuildingBlock: EZIPEK_clean_linker_0, # of connection points: 2
#     Edge 11, Type (0, 1), BuildingBlock: EZIPEK_clean_linker_0, # of connection points: 2
#     Edge 12, Type (0, 1), BuildingBlock: EZIPEK_clean_linker_0, # of connection points: 2
#     Edge 13, Type (0, 1), BuildingBlock: EZIPEK_clean_linker_0, # of connection points: 2
#     Edge 14, Type (0, 1), BuildingBlock: EZIPEK_clean_linker_0, # of connection points: 2
#     Edge 15, Type (0, 1), BuildingBlock: EZIPEK_clean_linker_0, # of connection points: 2
#     Edge 16, Type (0, 1), BuildingBlock: EZIPEK_clean_linker_0, # of connection points: 2
#     Edge 17, Type (0, 1), BuildingBlock: EZIPEK_clean_linker_0, # of connection points: 2
# Relax obj value: 0.042
# Max RMSD: 0.174
# Mean RMSD: 0.086
data_MOF--net-pth--node1-NAHDIM_clean_sbu_0--node2-KOZSID_clean_sbu_0--edge1-EZIPEK_clean_linker_0
_symmetry_space_group_name_H-M    P1
_symmetry_Int_Tables_number       1
_symmetry_cell_setting            triclinic
loop_
_symmetry_equiv_pos_as_xyz
'x, y, z'
_cell_length_a     20.163299
_cell_length_b     20.307431
_cell_length_c     45.234857
_cell_angle_alpha  88.588846
_cell_angle_beta   86.58408
_cell_angle_gamma 120.80973
loop_
_atom_site_label
_atom_site_type_symbol
_atom_site_fract_x
_atom_site_fract_y
_atom_site_fract_z
_atom_type_partial_charge
C0 C 0.05975 0.96351 0.08181 0.0
O1 O 0.99434 0.96199 0.08756 0.0
O2 O 0.04828 0.12731 0.07394 0.0
Zn3 Zn 0.06996 0.07235 0.04171 0.0
O4 O 0.97467 0.99019 0.02416 0.0
C5 C 0.14127 0.16471 0.98389 0.0
O6 O 0.07405 0.12074 0.97333 0.0
O7 O 0.10959 0.01168 0.06193 0.0
C8 C 0.92313 0.9921 0.01002 0.0
O9 O 0.92483 0.05716 0.00569 0.0
C10 C 0.03179 0.17812 0.06759 0.0
O11 O 0.02266 0.19066 0.03996 0.0
O12 O 0.1509 0.1531 0.01071 0.0
C13 C 0.04927 0.22803 0.32988 0.0
O14 O 0.98689 0.15931 0.33078 0.0
O15 O 0.05062 0.05851 0.34368 0.0
Zn16 Zn 0.07996 0.14602 0.37062 0.0
O17 O 0.98963 0.1279 0.39807 0.0
C18 C 0.22118 0.15022 0.38472 0.0
O19 O 0.22452 0.13556 0.35675 0.0
O20 O 0.10463 0.23938 0.34523 0.0
C21 C 0.96435 0.08752 0.42245 0.0
O22 O 0.99557 0.04832 0.43144 0.0
C23 C 0.05536 1.00048 0.35119 0.0
O24 O 0.07225 0.99303 0.37814 0.0
O25 O 0.16802 0.16171 0.39489 0.0
C26 C 0.2046 0.10218 0.66641 0.0
O27 O 0.21223 0.1698 0.66914 0.0
O28 O 0.01161 0.09077 0.67607 0.0
Zn29 Zn 0.06734 0.05724 0.70305 0.0
O30 O 0.13089 0.13497 0.73227 0.0
C31 C 0.95263 0.9517 0.74861 0.0
O32 O 0.97357 0.01513 0.76214 0.0
O33 O 0.14444 0.04252 0.67834 0.0
C34 C 0.14949 0.20503 0.73128 0.0
O35 O 0.12021 0.23032 0.71196 0.0
C36 C 0.94626 0.08198 0.6849 0.0
O37 O 0.91962 0.06021 0.71276 0.0
O38 O 0.98686 0.95487 0.72367 0.0
C39 C 0.1371 0.7283 0.1587 0.0
C40 C 0.21039 0.78256 0.14608 0.0
C41 C 0.26186 0.77269 0.16096 0.0
C42 C 0.21719 0.71321 0.18169 0.0
N43 N 0.14019 0.68393 0.18078 0.0
Co44 Co 0.05442 0.59771 0.20702 0.0
N45 N 0.13066 0.59029 0.23138 0.0
C46 C 0.20882 0.63553 0.22829 0.0
C47 C 0.24557 0.6158 0.24809 0.0
C48 C 0.18751 0.55351 0.26457 0.0
C49 C 0.11857 0.53882 0.25369 0.0
N50 N 0.96885 0.50981 0.2327 0.0
C51 C 0.97262 0.4643 0.25415 0.0
C52 C 0.89955 0.40592 0.26528 0.0
C53 C 0.84757 0.41407 0.24997 0.0
C54 C 0.89177 0.47659 0.2304 0.0
N55 N 0.97838 0.60733 0.18327 0.0
C56 C 0.90007 0.56468 0.18729 0.0
C57 C 0.86358 0.58705 0.16836 0.0
C58 C 0.92203 0.64859 0.15161 0.0
C59 C 0.99095 0.65995 0.1613 0.0
N60 N 0.05513 0.52236 0.17999 0.0
C61 C 0.05163 0.40788 0.14519 0.0
C62 C 0.98686 0.41525 0.14939 0.0
C63 C 0.98943 0.47156 0.16708 0.0
C64 C 0.11875 0.45927 0.15824 0.0
C65 C 0.11981 0.51685 0.17485 0.0
N66 N 0.05298 0.67228 0.23414 0.0
C67 C 0.98134 0.71712 0.26338 0.0
C68 C 0.04991 0.7789 0.27177 0.0
C69 C 0.12017 0.78679 0.26113 0.0
C70 C 0.12042 0.73371 0.24213 0.0
C71 C 0.98415 0.66426 0.24506 0.0
H72 H 0.17576 0.74375 0.23406 0.0
H73 H 0.9298 0.61756 0.24 0.0
H74 H 0.93704 0.47194 0.1701 0.0
H75 H 0.17341 0.55563 0.18349 0.0
C76 C 0.24601 0.6899 0.20439 0.0
C77 C 0.06669 0.72388 0.15002 0.0
C78 C 0.04392 0.47162 0.26347 0.0
C79 C 0.86284 0.5041 0.20911 0.0
H80 H 0.2251 0.82604 0.12846 0.0
H81 H 0.32447 0.80686 0.15785 0.0
H82 H 0.30731 0.64141 0.24947 0.0
H83 H 0.19514 0.52074 0.28185 0.0
H84 H 0.88553 0.36117 0.28225 0.0
H85 H 0.78508 0.37765 0.25232 0.0
H86 H 0.80189 0.56234 0.1672 0.0
H87 H 0.91489 0.68221 0.13453 0.0
H88 H 0.93389 0.37671 0.13942 0.0
H89 H 0.17048 0.45565 0.15523 0.0
H90 H 0.92576 0.70929 0.2712 0.0
H91 H 0.17461 0.83436 0.26713 0.0
C92 C 0.43633 0.02047 0.58321 0.0
C93 C 0.37445 0.94878 0.59352 0.0
C94 C 0.37234 0.89752 0.57406 0.0
C95 C 0.43337 0.94037 0.55329 0.0
N96 N 0.47511 0.01541 0.55871 0.0
Co97 Co 0.57095 0.09609 0.53516 0.0
N98 N 0.58161 0.01728 0.5136 0.0
C99 C 0.52689 0.94273 0.51239 0.0
C100 C 0.55246 0.90197 0.49663 0.0
C101 C 0.62805 0.95406 0.48726 0.0
C102 C 0.64407 0.02399 0.49776 0.0
N103 N 0.66556 0.17583 0.51114 0.0
C104 C 0.71972 0.16893 0.49469 0.0
C105 C 0.77632 0.23912 0.48099 0.0
C106 C 0.75664 0.29183 0.48926 0.0
C107 C 0.68933 0.25088 0.50744 0.0
N108 N 0.56089 0.1749 0.55726 0.0
C109 C 0.59832 0.2507 0.54933 0.0
C110 C 0.57657 0.29078 0.56741 0.0
C111 C 0.52068 0.23681 0.58768 0.0
C112 C 0.51144 0.16639 0.58086 0.0
N113 N 0.63504 0.09252 0.56529 0.0
C114 C 0.73453 0.08921 0.60511 0.0
C115 C 0.74829 0.15898 0.59242 0.0
C116 C 0.69736 0.15945 0.57297 0.0
C117 C 0.669 0.02108 0.59804 0.0
C118 C 0.62052 0.02392 0.57782 0.0
N119 N 0.50841 0.10141 0.50453 0.0
C120 C 0.40897 0.12563 0.49092 0.0
C121 C 0.42448 0.11882 0.46111 0.0
C122 C 0.48291 0.10321 0.45313 0.0
C123 C 0.52484 0.09555 0.47521 0.0
C124 C 0.45117 0.11653 0.5121 0.0
H125 H 0.57115 0.08603 0.46843 0.0
H126 H 0.43822 0.12377 0.53449 0.0
H127 H 0.70947 0.21419 0.56375 0.0
H128 H 0.57213 0.97052 0.572 0.0
C129 C 0.45848 0.91044 0.53083 0.0
C130 C 0.44654 0.0923 0.5939 0.0
C131 C 0.71714 0.09644 0.49059 0.0
C132 C 0.65517 0.28232 0.52543 0.0
H133 H 0.33287 0.93559 0.61232 0.0
H134 H 0.33171 0.83619 0.57513 0.0
H135 H 0.52119 0.84092 0.49356 0.0
H136 H 0.6668 0.94182 0.47424 0.0
H137 H 0.82657 0.25091 0.46662 0.0
H138 H 0.78936 0.35314 0.48374 0.0
H139 H 0.5978 0.35178 0.56576 0.0
H140 H 0.48787 0.24773 0.60459 0.0
H141 H 0.79827 0.2128 0.59747 0.0
H142 H 0.65652 0.96604 0.60756 0.0
H143 H 0.36405 0.13766 0.49784 0.0
H144 H 0.49619 0.09747 0.43013 0.0
C145 C 0.69797 0.61768 0.82723 0.0
C146 C 0.7541 0.60005 0.81864 0.0
C147 C 0.74778 0.54698 0.83956 0.0
C148 C 0.68766 0.53433 0.85939 0.0
N149 N 0.65435 0.57483 0.85203 0.0
Co150 Co 0.56183 0.56871 0.87349 0.0
N151 N 0.5392 0.47541 0.89773 0.0
C152 C 0.5887 0.45077 0.90192 0.0
C153 C 0.5572 0.38565 0.92055 0.0
C154 C 0.4831 0.36801 0.92854 0.0
C155 C 0.47364 0.42343 0.9141 0.0
N156 N 0.46888 0.56107 0.89478 0.0
C157 C 0.4069 0.49927 0.90959 0.0
C158 C 0.35071 0.5163 0.91874 0.0
C159 C 0.37963 0.59188 0.90992 0.0
C160 C 0.45117 0.61653 0.89557 0.0
N161 N 0.58563 0.66319 0.8494 0.0
C162 C 0.55581 0.70799 0.85554 0.0
C163 C 0.58663 0.77264 0.83674 0.0
C164 C 0.64065 0.76959 0.81796 0.0
C165 C 0.63963 0.70271 0.82628 0.0
N166 N 0.49622 0.50466 0.84338 0.0
C167 C 0.38814 0.40623 0.80562 0.0
C168 C 0.39243 0.47478 0.81243 0.0
C169 C 0.44635 0.52279 0.83142 0.0
C170 C 0.44068 0.38871 0.8171 0.0
C171 C 0.49495 0.43924 0.83578 0.0
N172 N 0.62554 0.63328 0.90405 0.0
C173 C 0.73485 0.75265 0.91623 0.0
C174 C 0.71109 0.73462 0.94635 0.0
C175 C 0.64422 0.66405 0.95526 0.0
C176 C 0.60176 0.61433 0.93365 0.0
C177 C 0.69165 0.70142 0.89566 0.0
H178 H 0.54897 0.56151 0.94087 0.0
H179 H 0.71062 0.71866 0.8729 0.0
H180 H 0.44569 0.57351 0.83706 0.0
H181 H 0.53429 0.42434 0.84469 0.0
C182 C 0.65714 0.48046 0.8836 0.0
C183 C 0.69907 0.68576 0.81503 0.0
C184 C 0.40246 0.42605 0.917 0.0
C185 C 0.49506 0.68449 0.87763 0.0
H186 H 0.79809 0.62644 0.80022 0.0
H187 H 0.78292 0.52084 0.84025 0.0
H188 H 0.58349 0.35265 0.92639 0.0
H189 H 0.44065 0.31944 0.94302 0.0
H190 H 0.2947 0.47829 0.93051 0.0
H191 H 0.35011 0.62367 0.91225 0.0
H192 H 0.57202 0.81703 0.83679 0.0
H193 H 0.67871 0.81345 0.80096 0.0
H194 H 0.35277 0.49004 0.80376 0.0
H195 H 0.43908 0.33613 0.81197 0.0
H196 H 0.7864 0.80671 0.90856 0.0
H197 H 0.62449 0.64825 0.97854 0.0
C198 C 0.98478 0.21237 0.11423 0.0
C199 C 0.04007 0.23382 0.08961 0.0
C200 C 0.10104 0.36851 0.10083 0.0
C201 C 0.04918 0.34737 0.12665 0.0
N202 N 0.95425 0.24687 0.16189 0.0
N203 N 0.1667 0.32666 0.06684 0.0
C204 C 0.99459 0.26844 0.13459 0.0
C205 C 0.10307 0.31027 0.08509 0.0
N206 N 0.92225 0.13929 0.1178 0.0
N207 N 0.14598 0.44366 0.09046 0.0
H208 H 0.17254 0.28371 0.05707 0.0
H209 H 0.21702 0.38077 0.06466 0.0
H210 H 0.1438 0.48833 0.10042 0.0
H211 H 0.17929 0.46039 0.07016 0.0
H212 H 0.87571 0.12264 0.13353 0.0
H213 H 0.91446 0.09657 0.10361 0.0
H214 H 0.91922 0.18975 0.1699 0.0
H215 H 0.96166 0.28606 0.17772 0.0
C216 C 0.91056 0.11048 0.47018 0.0
C217 C 0.90041 0.08669 0.44065 0.0
C218 C 0.77631 0.08159 0.44261 0.0
C219 C 0.78212 0.09631 0.47311 0.0
N220 N 0.85024 0.11739 0.51712 0.0
N221 N 0.81694 0.03492 0.4008 0.0
C222 C 0.84794 0.10848 0.48728 0.0
C223 C 0.83141 0.06825 0.4274 0.0
N224 N 0.98111 0.1389 0.48133 0.0
N225 N 0.71892 0.08176 0.42804 0.0
H226 H 0.85467 0.02165 0.38939 0.0
H227 H 0.76408 0.01319 0.39157 0.0
H228 H 0.67754 0.09158 0.43846 0.0
H229 H 0.71671 0.07933 0.40513 0.0
H230 H 0.99427 0.16473 0.50145 0.0
H231 H 0.02908 0.14318 0.46935 0.0
H232 H 0.89275 0.11812 0.52935 0.0
H233 H 0.80652 0.11881 0.53013 0.0
C234 C 0.82046 0.83147 0.75062 0.0
C235 C 0.89193 0.87694 0.76328 0.0
C236 C 0.84159 0.79207 0.80858 0.0
C237 C 0.76927 0.74652 0.79617 0.0
N238 N 0.69716 0.71098 0.75295 0.0
N239 N 0.97797 0.88899 0.80017 0.0
C240 C 0.76127 0.76242 0.76631 0.0
C241 C 0.90459 0.85377 0.79105 0.0
N242 N 0.80762 0.85613 0.72436 0.0
N243 N 0.85028 0.77827 0.83736 0.0
H244 H 0.02588 0.93362 0.78763 0.0
H245 H 0.99292 0.86922 0.81859 0.0
H246 H 0.81148 0.72857 0.85011 0.0
H247 H 0.89596 0.81752 0.84896 0.0
H248 H 0.75367 0.83061 0.71581 0.0
H249 H 0.84977 0.90544 0.71192 0.0
H250 H 0.69097 0.7152 0.73041 0.0
H251 H 0.65293 0.66 0.76392 0.0
C252 C 0.07246 0.84684 0.08369 0.0
C253 C 0.07294 0.90814 0.09832 0.0
C254 C 0.06957 0.84885 0.1466 0.0
C255 C 0.07205 0.7891 0.13199 0.0
N256 N 0.08822 0.73613 0.08695 0.0
N257 N 0.08812 0.97657 0.14254 0.0
C258 C 0.07771 0.78986 0.10057 0.0
C259 C 0.0763 0.91178 0.12947 0.0
N260 N 0.06257 0.84073 0.05403 0.0
N261 N 0.05829 0.84421 0.17686 0.0
H262 H 0.09423 0.02416 0.13052 0.0
H263 H 0.09904 0.98615 0.16471 0.0
H264 H 0.05657 0.80088 0.19037 0.0
H265 H 0.04489 0.88012 0.18846 0.0
H266 H 0.05249 0.79275 0.04278 0.0
H267 H 0.05906 0.88151 0.04084 0.0
H268 H 0.10124 0.73837 0.0642 0.0
H269 H 0.08954 0.692 0.09869 0.0
C270 C 0.24418 0.08273 0.42663 0.0
C271 C 0.27416 0.1448 0.40473 0.0
C272 C 0.40566 0.19072 0.41929 0.0
C273 C 0.37577 0.12464 0.43909 0.0
N274 N 0.27013 0.99873 0.45616 0.0
N275 N 0.38445 0.25347 0.37768 0.0
C276 C 0.29606 0.06785 0.44102 0.0
C277 C 0.3554 0.19716 0.40013 0.0
N278 N 0.1664 0.03885 0.43442 0.0
N279 N 0.48096 0.24887 0.41979 0.0
H280 H 0.34935 0.2637 0.36461 0.0
H281 H 0.44332 0.28737 0.37096 0.0
H282 H 0.51952 0.24601 0.43338 0.0
H283 H 0.50378 0.30216 0.40837 0.0
H284 H 0.14274 0.99836 0.45242 0.0
H285 H 0.1258 0.04813 0.42517 0.0
H286 H 0.21396 0.95204 0.45572 0.0
H287 H 0.30692 0.98531 0.46658 0.0
C288 C 0.28441 0.31449 0.73718 0.0
C289 C 0.20938 0.25881 0.75027 0.0
C290 C 0.25082 0.30229 0.79966 0.0
C291 C 0.32736 0.35303 0.78676 0.0
N292 N 0.42028 0.40166 0.74404 0.0
N293 N 0.12218 0.19421 0.79397 0.0
C294 C 0.34508 0.35734 0.75573 0.0
C295 C 0.19304 0.25092 0.78155 0.0
N296 N 0.29755 0.32755 0.70702 0.0
N297 N 0.23279 0.30505 0.82905 0.0
H298 H 0.07641 0.15936 0.78144 0.0
H299 H 0.10978 0.17886 0.81663 0.0
H300 H 0.27363 0.34118 0.84309 0.0
H301 H 0.17653 0.27592 0.83917 0.0
H302 H 0.34818 0.373 0.69629 0.0
H303 H 0.25555 0.29699 0.6925 0.0
H304 H 0.43872 0.4002 0.72221 0.0
H305 H 0.46585 0.43605 0.75675 0.0
C306 C 0.87729 0.04327 0.63806 0.0
C307 C 0.89579 0.08723 0.6635 0.0
C308 C 0.80122 0.12436 0.65256 0.0
C309 C 0.78957 0.08786 0.62538 0.0
N310 N 0.82957 0.02631 0.58938 0.0
N311 N 0.88679 0.18221 0.6916 0.0
C312 C 0.83157 0.05145 0.61724 0.0
C313 C 0.86104 0.13149 0.66978 0.0
N314 N 0.89917 0.99018 0.63453 0.0
N315 N 0.75322 0.14951 0.66257 0.0
H316 H 0.93202 0.19065 0.70413 0.0
H317 H 0.86881 0.2214 0.69517 0.0
H318 H 0.70719 0.14326 0.65107 0.0
H319 H 0.75418 0.16948 0.68363 0.0
H320 H 0.87999 0.9512 0.61799 0.0
H321 H 0.92943 0.97908 0.64983 0.0
H322 H 0.8659 0.00722 0.58131 0.0
H323 H 0.79705 0.03121 0.57336 0.0
C324 C 0.78582 0.89724 -0.00099 0.0
C325 C 0.86591 0.92184 0.99607 0.0
C326 C 0.83588 0.80748 0.9694 0.0
C327 C 0.759 0.79076 0.96774 0.0
N328 N 0.6619 0.8248 0.97825 0.0
N329 N 0.96869 0.90728 0.97267 0.0
C330 C 0.73388 0.83664 0.98199 0.0
C331 C 0.89149 0.87848 0.97995 0.0
N332 N 0.75886 0.92987 0.01868 0.0
N333 N 0.85587 0.75561 0.96059 0.0
H334 H 0.01197 0.96179 0.97768 0.0
H335 H 0.98932 0.8808 0.95853 0.0
H336 H 0.81593 0.70264 0.95293 0.0
H337 H 0.90945 0.76176 0.96386 0.0
H338 H 0.70007 0.90909 0.0237 0.0
H339 H 0.79461 0.97255 0.03226 0.0
H340 H 0.64413 0.86225 0.98528 0.0
H341 H 0.62187 0.78064 0.96622 0.0
C342 C 0.00385 0.86454 0.33822 0.0
C343 C 0.04788 0.94408 0.3294 0.0
C344 C 0.08154 0.91324 0.2808 0.0
C345 C 0.048 0.83551 0.29146 0.0
N346 N 0.9892 0.73982 0.33257 0.0
N347 N 0.14132 0.0451 0.29358 0.0
C348 C 0.01225 0.81172 0.32081 0.0
C349 C 0.08983 0.96894 0.30095 0.0
N350 N 0.95206 0.83902 0.36274 0.0
N351 N 0.10414 0.93384 0.25131 0.0
H352 H 0.15221 0.08865 0.30765 0.0
H353 H 0.17928 0.0646 0.27445 0.0
H354 H 0.09892 0.89473 0.23579 0.0
H355 H 0.12097 0.98805 0.24186 0.0
H356 H 0.91342 0.78094 0.36855 0.0
H357 H 0.94156 0.87563 0.37531 0.0
H358 H 0.97002 0.72255 0.35485 0.0
H359 H 0.99651 0.7 0.32091 0.0
C360 C 0.33843 0.12279 0.65949 0.0
C361 C 0.26473 0.09583 0.64863 0.0
C362 C 0.3088 0.06633 0.60197 0.0
C363 C 0.382 0.09024 0.61322 0.0
N364 N 0.461 0.12666 0.65458 0.0
N365 N 0.17499 0.03187 0.61173 0.0
C366 C 0.39515 0.11426 0.64258 0.0
C367 C 0.24852 0.06442 0.62058 0.0
N368 N 0.35445 0.15725 0.68584 0.0
N369 N 0.29702 0.04748 0.5732 0.0
H370 H 0.13018 0.03371 0.62367 0.0
H371 H 0.15664 0.99842 0.59351 0.0
H372 H 0.33439 0.03868 0.5595 0.0
H373 H 0.25088 0.043 0.56235 0.0
H374 H 0.40973 0.18646 0.69326 0.0
H375 H 0.31321 0.16084 0.69963 0.0
H376 H 0.47067 0.13654 0.67681 0.0
H377 H 0.50362 0.12077 0.64284 0.0
C378 C 0.23692 0.30602 0.97607 0.0
C379 C 0.20427 0.23167 0.96534 0.0
C380 C 0.29267 0.2877 0.92014 0.0
C381 C 0.33188 0.35966 0.93316 0.0
N382 N 0.35318 0.4296 0.97753 0.0
N383 N 0.20801 0.14954 0.92844 0.0
C384 C 0.30765 0.36663 0.96234 0.0
C385 C 0.23367 0.22176 0.93756 0.0
N386 N 0.19812 0.32017 0.99828 0.0
N387 N 0.31188 0.28245 0.89118 0.0
H388 H 0.16588 0.09996 0.94079 0.0
H389 H 0.23308 0.13842 0.90991 0.0
H390 H 0.35568 0.32925 0.87803 0.0
H391 H 0.2804 0.23358 0.87955 0.0
H392 H 0.21645 0.37536 0.00491 0.0
H393 H 0.14292 0.27834 0.00712 0.0
H394 H 0.34024 0.43339 -0.00014 0.0
H395 H 0.40738 0.47422 0.9688 0.0
C396 C 0.05955 0.29638 0.28166 0.0
C397 C 0.05097 0.29215 0.3131 0.0
C398 C 0.03834 0.40597 0.31219 0.0
C399 C 0.04197 0.40719 0.28078 0.0
N400 N 0.04566 0.34923 0.23532 0.0
N401 N 0.0209 0.3345 0.35863 0.0
C402 C 0.04951 0.351 0.2654 0.0
C403 C 0.0375 0.34481 0.32851 0.0
N404 N 0.07959 0.24958 0.26745 0.0
N405 N 0.0374 0.46429 0.32632 0.0
H406 H 0.02087 0.29104 0.37143 0.0
H407 H 0.00176 0.36537 0.37077 0.0
H408 H 0.03494 0.50842 0.31511 0.0
H409 H 0.04403 0.47186 0.34886 0.0
H410 H 0.09467 0.25492 0.24475 0.0
H411 H 0.08717 0.20878 0.27875 0.0
H412 H 0.04299 0.30535 0.22307 0.0
H413 H 0.03917 0.3889 0.22268 0.0
loop_
_geom_bond_atom_site_label_1
_geom_bond_atom_site_label_2
_geom_bond_distance
_geom_bond_site_symmetry_2
_ccdc_geom_bond_type
C0 O1 1.160 . S
C0 O7 1.185 1_565 S
O1 C0 1.160 . S
O2 Zn3 1.899 . S
O2 C10 1.284 . S
Zn3 O2 1.899 . S
Zn3 O4 2.032 1_545 S
Zn3 O7 2.086 . S
Zn3 O12 1.977 . S
O4 Zn3 2.032 1_565 S
O4 C8 1.278 1_465 S
C5 O6 1.203 . S
C5 O12 1.267 . S
O6 C5 1.203 . S
O7 C0 1.185 1_545 S
O7 Zn3 2.086 . S
C8 O4 1.278 1_645 S
C8 O9 1.211 1_654 S
O9 C8 1.211 1_456 S
C10 O2 1.284 . S
C10 O11 1.273 . S
O11 C10 1.273 . S
O12 Zn3 1.977 . S
O12 C5 1.267 . S
C13 O14 1.160 . S
C13 O20 1.185 . S
O14 C13 1.160 . S
O15 Zn16 1.899 . S
O15 C23 1.285 . S
Zn16 O15 1.899 . S
Zn16 O17 2.032 1_455 S
Zn16 O20 2.086 . S
Zn16 O25 1.977 . S
O17 Zn16 2.032 1_655 S
O17 C21 1.278 . S
C18 O19 1.203 . S
C18 O25 1.267 . S
O19 C18 1.203 . S
O20 C13 1.185 . S
O20 Zn16 2.086 . S
C21 O17 1.278 . S
C21 O22 1.211 . S
O22 C21 1.211 . S
C23 O15 1.285 . S
C23 O24 1.273 1_445 S
O24 C23 1.273 1_665 S
O25 Zn16 1.977 . S
O25 C18 1.267 . S
C26 O27 1.160 . S
C26 O33 1.185 1_545 S
O27 C26 1.160 . S
O28 Zn29 1.899 . S
O28 C36 1.284 1_455 S
Zn29 O28 1.899 . S
Zn29 O30 2.032 . S
Zn29 O33 2.086 1_545 S
Zn29 O38 1.977 1_545 S
O30 Zn29 2.032 . S
O30 C34 1.278 . S
C31 O32 1.203 . S
C31 O38 1.267 1_655 S
O32 C31 1.203 . S
O33 C26 1.185 1_565 S
O33 Zn29 2.086 1_565 S
C34 O30 1.278 . S
C34 O35 1.211 . S
O35 C34 1.211 . S
C36 O28 1.284 1_655 S
C36 O37 1.273 1_655 S
O37 C36 1.273 1_455 S
O38 Zn29 1.977 1_565 S
O38 C31 1.267 1_455 S
C39 C40 1.443 . S
C39 N43 1.376 . S
C39 C77 1.389 . S
C40 C39 1.443 . S
C40 C41 1.340 . S
C40 H80 0.951 . S
C41 C40 1.340 . S
C41 C42 1.439 . S
C41 H81 0.950 . S
C42 C41 1.439 . S
C42 N43 1.374 . S
C42 C76 1.395 . S
N43 C39 1.376 . S
N43 C42 1.374 . S
N43 Co44 2.008 . S
Co44 N43 2.008 . S
Co44 N45 1.995 . S
Co44 N50 2.008 1_455 S
Co44 N55 1.995 1_455 S
Co44 N60 2.282 . S
Co44 N66 2.282 . S
N45 Co44 1.995 . S
N45 C46 1.376 . S
N45 C49 1.383 . S
C46 N45 1.376 . S
C46 C47 1.446 . S
C46 C76 1.391 . S
C47 C46 1.446 . S
C47 C48 1.339 . S
C47 H82 0.949 . S
C48 C47 1.339 . S
C48 C49 1.439 . S
C48 H83 0.950 . S
C49 N45 1.383 . S
C49 C48 1.439 . S
C49 C78 1.392 . S
N50 Co44 2.008 1_655 S
N50 C51 1.376 . S
N50 C54 1.374 . S
C51 N50 1.376 . S
C51 C52 1.443 . S
C51 C78 1.389 1_655 S
C52 C51 1.443 . S
C52 C53 1.340 . S
C52 H84 0.951 . S
C53 C52 1.340 . S
C53 C54 1.439 . S
C53 H85 0.950 . S
C54 N50 1.374 . S
C54 C53 1.439 . S
C54 C79 1.395 . S
N55 Co44 1.995 1_655 S
N55 C56 1.376 . S
N55 C59 1.383 . S
C56 N55 1.376 . S
C56 C57 1.446 . S
C56 C79 1.391 . S
C57 C56 1.446 . S
C57 C58 1.339 . S
C57 H86 0.949 . S
C58 C57 1.339 . S
C58 C59 1.439 . S
C58 H87 0.950 . S
C59 N55 1.383 . S
C59 C58 1.439 . S
C59 C77 1.392 1_655 S
N60 Co44 2.282 . S
N60 C63 1.332 1_455 S
N60 C65 1.332 . S
C61 C62 1.386 1_455 S
C61 C64 1.388 . S
C62 C61 1.386 1_655 S
C62 C63 1.382 . S
C62 H88 0.950 . S
C63 N60 1.332 1_655 S
C63 C62 1.382 . S
C63 H74 0.952 . S
C64 C61 1.388 . S
C64 C65 1.382 . S
C64 H89 0.950 . S
C65 N60 1.332 . S
C65 C64 1.382 . S
C65 H75 0.948 . S
N66 Co44 2.282 . S
N66 C70 1.332 . S
N66 C71 1.332 1_455 S
C67 C68 1.388 1_655 S
C67 C71 1.382 . S
C67 H90 0.950 . S
C68 C67 1.388 1_455 S
C68 C69 1.386 . S
C69 C68 1.386 . S
C69 C70 1.382 . S
C69 H91 0.950 . S
C70 N66 1.332 . S
C70 C69 1.382 . S
C70 H72 0.952 . S
C71 N66 1.332 1_655 S
C71 C67 1.382 . S
C71 H73 0.948 . S
H72 C70 0.952 . S
H73 C71 0.948 . S
H74 C63 0.952 . S
H75 C65 0.948 . S
C76 C42 1.395 . S
C76 C46 1.391 . S
C77 C39 1.389 . S
C77 C59 1.392 1_455 S
C78 C49 1.392 . S
C78 C51 1.389 1_455 S
C79 C54 1.395 . S
C79 C56 1.391 . S
H80 C40 0.951 . S
H81 C41 0.950 . S
H82 C47 0.949 . S
H83 C48 0.950 . S
H84 C52 0.951 . S
H85 C53 0.950 . S
H86 C57 0.949 . S
H87 C58 0.950 . S
H88 C62 0.950 . S
H89 C64 0.950 . S
H90 C67 0.950 . S
H91 C69 0.950 . S
C92 C93 1.443 1_545 S
C92 N96 1.376 . S
C92 C130 1.389 . S
C93 C92 1.443 1_565 S
C93 C94 1.340 . S
C93 H133 0.951 . S
C94 C93 1.340 . S
C94 C95 1.439 . S
C94 H134 0.950 . S
C95 C94 1.439 . S
C95 N96 1.374 1_565 S
C95 C129 1.395 . S
N96 C92 1.376 . S
N96 C95 1.374 1_545 S
N96 Co97 2.008 . S
Co97 N96 2.008 . S
Co97 N98 1.995 . S
Co97 N103 2.008 . S
Co97 N108 1.995 . S
Co97 N113 2.282 . S
Co97 N119 2.282 . S
N98 Co97 1.995 . S
N98 C99 1.376 1_545 S
N98 C102 1.383 . S
C99 N98 1.376 1_565 S
C99 C100 1.446 . S
C99 C129 1.391 . S
C100 C99 1.446 . S
C100 C101 1.339 . S
C100 H135 0.949 . S
C101 C100 1.339 . S
C101 C102 1.439 1_565 S
C101 H136 0.950 . S
C102 N98 1.383 . S
C102 C101 1.439 1_545 S
C102 C131 1.392 . S
N103 Co97 2.008 . S
N103 C104 1.376 . S
N103 C107 1.374 . S
C104 N103 1.376 . S
C104 C105 1.443 . S
C104 C131 1.389 . S
C105 C104 1.443 . S
C105 C106 1.340 . S
C105 H137 0.951 . S
C106 C105 1.340 . S
C106 C107 1.439 . S
C106 H138 0.950 . S
C107 N103 1.374 . S
C107 C106 1.439 . S
C107 C132 1.395 . S
N108 Co97 1.995 . S
N108 C109 1.376 . S
N108 C112 1.383 . S
C109 N108 1.376 . S
C109 C110 1.446 . S
C109 C132 1.391 . S
C110 C109 1.446 . S
C110 C111 1.339 . S
C110 H139 0.949 . S
C111 C110 1.339 . S
C111 C112 1.439 . S
C111 H140 0.950 . S
C112 N108 1.383 . S
C112 C111 1.439 . S
C112 C130 1.392 . S
N113 Co97 2.282 . S
N113 C116 1.332 . S
N113 C118 1.332 . S
C114 C115 1.386 . S
C114 C117 1.388 . S
C115 C114 1.386 . S
C115 C116 1.382 . S
C115 H141 0.950 . S
C116 N113 1.332 . S
C116 C115 1.382 . S
C116 H127 0.952 . S
C117 C114 1.388 . S
C117 C118 1.382 . S
C117 H142 0.950 1_545 S
C118 N113 1.332 . S
C118 C117 1.382 . S
C118 H128 0.948 1_545 S
N119 Co97 2.282 . S
N119 C123 1.332 . S
N119 C124 1.332 . S
C120 C121 1.388 . S
C120 C124 1.382 . S
C120 H143 0.950 . S
C121 C120 1.388 . S
C121 C122 1.386 . S
C122 C121 1.386 . S
C122 C123 1.382 . S
C122 H144 0.950 . S
C123 N119 1.332 . S
C123 C122 1.382 . S
C123 H125 0.952 . S
C124 N119 1.332 . S
C124 C120 1.382 . S
C124 H126 0.948 . S
H125 C123 0.952 . S
H126 C124 0.948 . S
H127 C116 0.952 . S
H128 C118 0.948 1_565 S
C129 C95 1.395 . S
C129 C99 1.391 . S
C130 C92 1.389 . S
C130 C112 1.392 . S
C131 C102 1.392 . S
C131 C104 1.389 . S
C132 C107 1.395 . S
C132 C109 1.391 . S
H133 C93 0.951 . S
H134 C94 0.950 . S
H135 C100 0.949 . S
H136 C101 0.950 . S
H137 C105 0.951 . S
H138 C106 0.950 . S
H139 C110 0.949 . S
H140 C111 0.950 . S
H141 C115 0.950 . S
H142 C117 0.950 1_565 S
H143 C120 0.950 . S
H144 C122 0.950 . S
C145 C146 1.443 . S
C145 N149 1.376 . S
C145 C183 1.389 . S
C146 C145 1.443 . S
C146 C147 1.340 . S
C146 H186 0.951 . S
C147 C146 1.340 . S
C147 C148 1.439 . S
C147 H187 0.950 . S
C148 C147 1.439 . S
C148 N149 1.374 . S
C148 C182 1.395 . S
N149 C145 1.376 . S
N149 C148 1.374 . S
N149 Co150 2.008 . S
Co150 N149 2.008 . S
Co150 N151 1.995 . S
Co150 N156 2.008 . S
Co150 N161 1.995 . S
Co150 N166 2.282 . S
Co150 N172 2.282 . S
N151 Co150 1.995 . S
N151 C152 1.376 . S
N151 C155 1.383 . S
C152 N151 1.376 . S
C152 C153 1.446 . S
C152 C182 1.391 . S
C153 C152 1.446 . S
C153 C154 1.339 . S
C153 H188 0.949 . S
C154 C153 1.339 . S
C154 C155 1.439 . S
C154 H189 0.950 . S
C155 N151 1.383 . S
C155 C154 1.439 . S
C155 C184 1.392 . S
N156 Co150 2.008 . S
N156 C157 1.376 . S
N156 C160 1.374 . S
C157 N156 1.376 . S
C157 C158 1.443 . S
C157 C184 1.389 . S
C158 C157 1.443 . S
C158 C159 1.340 . S
C158 H190 0.951 . S
C159 C158 1.340 . S
C159 C160 1.439 . S
C159 H191 0.950 . S
C160 N156 1.374 . S
C160 C159 1.439 . S
C160 C185 1.395 . S
N161 Co150 1.995 . S
N161 C162 1.376 . S
N161 C165 1.383 . S
C162 N161 1.376 . S
C162 C163 1.446 . S
C162 C185 1.391 . S
C163 C162 1.446 . S
C163 C164 1.339 . S
C163 H192 0.949 . S
C164 C163 1.339 . S
C164 C165 1.439 . S
C164 H193 0.950 . S
C165 N161 1.383 . S
C165 C164 1.439 . S
C165 C183 1.392 . S
N166 Co150 2.282 . S
N166 C169 1.332 . S
N166 C171 1.332 . S
C167 C168 1.386 . S
C167 C170 1.388 . S
C168 C167 1.386 . S
C168 C169 1.382 . S
C168 H194 0.950 . S
C169 N166 1.332 . S
C169 C168 1.382 . S
C169 H180 0.952 . S
C170 C167 1.388 . S
C170 C171 1.382 . S
C170 H195 0.950 . S
C171 N166 1.332 . S
C171 C170 1.382 . S
C171 H181 0.948 . S
N172 Co150 2.282 . S
N172 C176 1.332 . S
N172 C177 1.332 . S
C173 C174 1.388 . S
C173 C177 1.382 . S
C173 H196 0.950 . S
C174 C173 1.388 . S
C174 C175 1.386 . S
C175 C174 1.386 . S
C175 C176 1.382 . S
C175 H197 0.950 . S
C176 N172 1.332 . S
C176 C175 1.382 . S
C176 H178 0.952 . S
C177 N172 1.332 . S
C177 C173 1.382 . S
C177 H179 0.948 . S
H178 C176 0.952 . S
H179 C177 0.948 . S
H180 C169 0.952 . S
H181 C171 0.948 . S
C182 C148 1.395 . S
C182 C152 1.391 . S
C183 C145 1.389 . S
C183 C165 1.392 . S
C184 C155 1.392 . S
C184 C157 1.389 . S
C185 C160 1.395 . S
C185 C162 1.391 . S
H186 C146 0.951 . S
H187 C147 0.950 . S
H188 C153 0.949 . S
H189 C154 0.950 . S
H190 C158 0.951 . S
H191 C159 0.950 . S
H192 C163 0.949 . S
H193 C164 0.950 . S
H194 C168 0.950 . S
H195 C170 0.950 . S
H196 C173 0.950 . S
H197 C175 0.950 . S
C198 C199 1.363 1_655 S
C198 C204 1.379 . S
C198 N206 1.356 . S
C199 C198 1.363 1_455 S
C199 C205 1.363 . S
C200 C201 1.363 . S
C200 C205 1.379 . S
C200 N207 1.356 . S
C201 C200 1.363 . S
C201 C204 1.363 1_455 S
N202 C204 1.356 . S
N202 H214 0.984 . S
N202 H215 0.985 . S
N203 C205 1.356 . S
N203 H208 0.984 . S
N203 H209 0.985 . S
C204 C198 1.379 . S
C204 C201 1.363 1_655 S
C204 N202 1.356 . S
C205 C199 1.363 . S
C205 C200 1.379 . S
C205 N203 1.356 . S
N206 C198 1.356 . S
N206 H212 0.984 . S
N206 H213 0.984 . S
N207 C200 1.356 . S
N207 H210 0.984 . S
N207 H211 0.985 . S
H208 N203 0.984 . S
H209 N203 0.985 . S
H210 N207 0.984 . S
H211 N207 0.985 . S
H212 N206 0.984 . S
H213 N206 0.984 . S
H214 N202 0.984 . S
H215 N202 0.985 . S
C216 C217 1.363 . S
C216 C222 1.379 . S
C216 N224 1.356 . S
C217 C216 1.363 . S
C217 C223 1.363 . S
C218 C219 1.363 . S
C218 C223 1.379 . S
C218 N225 1.356 . S
C219 C218 1.363 . S
C219 C222 1.363 . S
N220 C222 1.356 . S
N220 H232 0.984 . S
N220 H233 0.985 . S
N221 C223 1.356 . S
N221 H226 0.984 . S
N221 H227 0.985 1_545 S
C222 C216 1.379 . S
C222 C219 1.363 . S
C222 N220 1.356 . S
C223 C217 1.363 . S
C223 C218 1.379 . S
C223 N221 1.356 . S
N224 C216 1.356 . S
N224 H230 0.984 1_655 S
N224 H231 0.984 1_655 S
N225 C218 1.356 . S
N225 H228 0.984 . S
N225 H229 0.985 1_545 S
H226 N221 0.984 . S
H227 N221 0.985 1_565 S
H228 N225 0.984 . S
H229 N225 0.985 1_565 S
H230 N224 0.984 1_455 S
H231 N224 0.984 1_455 S
H232 N220 0.984 . S
H233 N220 0.985 . S
C234 C235 1.363 . S
C234 C240 1.379 . S
C234 N242 1.356 . S
C235 C234 1.363 . S
C235 C241 1.363 . S
C236 C237 1.363 . S
C236 C241 1.379 . S
C236 N243 1.356 . S
C237 C236 1.363 . S
C237 C240 1.363 . S
N238 C240 1.356 . S
N238 H250 0.984 . S
N238 H251 0.985 . S
N239 C241 1.356 . S
N239 H244 0.984 1_655 S
N239 H245 0.990 . S
C240 C234 1.379 . S
C240 C237 1.363 . S
C240 N238 1.356 . S
C241 C235 1.363 . S
C241 C236 1.379 . S
C241 N239 1.356 . S
N242 C234 1.356 . S
N242 H248 0.984 . S
N242 H249 0.984 . S
N243 C236 1.356 . S
N243 H246 0.984 . S
N243 H247 0.985 . S
H244 N239 0.984 1_455 S
H245 N239 0.990 . S
H246 N243 0.984 . S
H247 N243 0.985 . S
H248 N242 0.984 . S
H249 N242 0.984 . S
H250 N238 0.984 . S
H251 N238 0.985 . S
C252 C253 1.363 . S
C252 C258 1.379 . S
C252 N260 1.356 . S
C253 C252 1.363 . S
C253 C259 1.363 . S
C254 C255 1.363 . S
C254 C259 1.379 . S
C254 N261 1.356 . S
C255 C254 1.363 . S
C255 C258 1.363 . S
N256 C258 1.356 1_655 S
N256 H268 0.984 . S
N256 H269 0.985 . S
N257 C259 1.356 . S
N257 H262 0.984 1_565 S
N257 H263 0.985 1_565 S
C258 C252 1.379 . S
C258 C255 1.363 . S
C258 N256 1.356 1_455 S
C259 C253 1.363 . S
C259 C254 1.379 . S
C259 N257 1.356 . S
N260 C252 1.356 . S
N260 H266 0.984 1_455 S
N260 H267 0.984 . S
N261 C254 1.356 . S
N261 H264 0.984 . S
N261 H265 0.985 . S
H262 N257 0.984 1_545 S
H263 N257 0.985 1_545 S
H264 N261 0.984 . S
H265 N261 0.985 . S
H266 N260 0.984 1_655 S
H267 N260 0.984 . S
H268 N256 0.984 . S
H269 N256 0.985 . S
C270 C271 1.363 . S
C270 C276 1.379 . S
C270 N278 1.356 . S
C271 C270 1.363 . S
C271 C277 1.363 . S
C272 C273 1.363 . S
C272 C277 1.379 . S
C272 N279 1.356 . S
C273 C272 1.363 . S
C273 C276 1.363 . S
N274 C276 1.356 . S
N274 H286 0.984 1_545 S
N274 H287 0.985 . S
N275 C277 1.356 . S
N275 H280 0.984 . S
N275 H281 0.985 . S
C276 C270 1.379 . S
C276 C273 1.363 . S
C276 N274 1.356 . S
C277 C271 1.363 . S
C277 C272 1.379 . S
C277 N275 1.356 . S
N278 C270 1.356 . S
N278 H284 0.984 1_545 S
N278 H285 0.984 . S
N279 C272 1.356 . S
N279 H282 0.984 . S
N279 H283 0.985 . S
H280 N275 0.984 . S
H281 N275 0.985 . S
H282 N279 0.984 . S
H283 N279 0.985 . S
H284 N278 0.984 1_565 S
H285 N278 0.984 . S
H286 N274 0.984 1_565 S
H287 N274 0.985 . S
C288 C289 1.363 . S
C288 C294 1.379 . S
C288 N296 1.356 . S
C289 C288 1.363 . S
C289 C295 1.363 . S
C290 C291 1.363 . S
C290 C295 1.379 . S
C290 N297 1.356 . S
C291 C290 1.363 . S
C291 C294 1.363 . S
N292 C294 1.356 . S
N292 H304 0.984 . S
N292 H305 0.985 . S
N293 C295 1.356 . S
N293 H298 0.984 . S
N293 H299 0.985 . S
C294 C288 1.379 . S
C294 C291 1.363 . S
C294 N292 1.356 . S
C295 C289 1.363 . S
C295 C290 1.379 . S
C295 N293 1.356 . S
N296 C288 1.356 . S
N296 H302 0.984 . S
N296 H303 0.984 . S
N297 C290 1.356 . S
N297 H300 0.984 . S
N297 H301 0.985 . S
H298 N293 0.984 . S
H299 N293 0.985 . S
H300 N297 0.984 . S
H301 N297 0.985 . S
H302 N296 0.984 . S
H303 N296 0.984 . S
H304 N292 0.984 . S
H305 N292 0.985 . S
C306 C307 1.363 . S
C306 C312 1.379 . S
C306 N314 1.356 1_545 S
C307 C306 1.363 . S
C307 C313 1.363 . S
C308 C309 1.363 . S
C308 C313 1.379 . S
C308 N315 1.356 . S
C309 C308 1.363 . S
C309 C312 1.363 . S
N310 C312 1.356 1_565 S
N310 H322 0.984 . S
N310 H323 0.985 1_565 S
N311 C313 1.356 . S
N311 H316 0.984 . S
N311 H317 0.985 . S
C312 C306 1.379 . S
C312 C309 1.363 . S
C312 N310 1.356 1_545 S
C313 C307 1.363 . S
C313 C308 1.379 . S
C313 N311 1.356 . S
N314 C306 1.356 1_565 S
N314 H320 0.984 . S
N314 H321 0.984 1_565 S
N315 C308 1.356 . S
N315 H318 0.984 . S
N315 H319 0.985 . S
H316 N311 0.984 . S
H317 N311 0.985 . S
H318 N315 0.984 . S
H319 N315 0.985 . S
H320 N314 0.984 . S
H321 N314 0.984 1_545 S
H322 N310 0.984 . S
H323 N310 0.985 1_545 S
C324 C325 1.363 . S
C324 C330 1.379 . S
C324 N332 1.356 1_565 S
C325 C324 1.363 . S
C325 C331 1.363 . S
C326 C327 1.363 . S
C326 C331 1.379 . S
C326 N333 1.356 . S
C327 C326 1.363 . S
C327 C330 1.363 . S
N328 C330 1.356 . S
N328 H340 0.984 . S
N328 H341 0.985 . S
N329 C331 1.356 . S
N329 H334 0.984 1_656 S
N329 H335 0.985 . S
C330 C324 1.379 . S
C330 C327 1.363 . S
C330 N328 1.356 . S
C331 C325 1.363 . S
C331 C326 1.379 . S
C331 N329 1.356 . S
N332 C324 1.356 1_545 S
N332 H338 0.984 . S
N332 H339 0.984 1_556 S
N333 C326 1.356 . S
N333 H336 0.984 . S
N333 H337 0.985 . S
H334 N329 0.984 1_454 S
H335 N329 0.985 . S
H336 N333 0.984 . S
H337 N333 0.985 . S
H338 N332 0.984 . S
H339 N332 0.984 1_554 S
H340 N328 0.984 . S
H341 N328 0.985 . S
C342 C343 1.363 1_655 S
C342 C348 1.379 . S
C342 N350 1.356 . S
C343 C342 1.363 1_455 S
C343 C349 1.363 . S
C344 C345 1.363 . S
C344 C349 1.379 . S
C344 N351 1.356 . S
C345 C344 1.363 . S
C345 C348 1.363 1_455 S
N346 C348 1.356 . S
N346 H358 0.984 . S
N346 H359 0.985 . S
N347 C349 1.356 1_545 S
N347 H352 0.984 . S
N347 H353 0.985 . S
C348 C342 1.379 . S
C348 C345 1.363 1_655 S
C348 N346 1.356 . S
C349 C343 1.363 . S
C349 C344 1.379 . S
C349 N347 1.356 1_565 S
N350 C342 1.356 . S
N350 H356 0.984 . S
N350 H357 0.984 . S
N351 C344 1.356 . S
N351 H354 0.984 . S
N351 H355 0.985 . S
H352 N347 0.984 . S
H353 N347 0.985 . S
H354 N351 0.984 . S
H355 N351 0.985 . S
H356 N350 0.984 . S
H357 N350 0.984 . S
H358 N346 0.984 . S
H359 N346 0.985 . S
C360 C361 1.363 . S
C360 C366 1.379 . S
C360 N368 1.356 . S
C361 C360 1.363 . S
C361 C367 1.363 1_545 S
C362 C363 1.363 . S
C362 C367 1.379 1_545 S
C362 N369 1.356 1_545 S
C363 C362 1.363 . S
C363 C366 1.363 . S
N364 C366 1.356 . S
N364 H376 0.984 . S
N364 H377 0.985 . S
N365 C367 1.356 . S
N365 H370 0.984 . S
N365 H371 0.985 . S
C366 C360 1.379 . S
C366 C363 1.363 . S
C366 N364 1.356 . S
C367 C361 1.363 1_565 S
C367 C362 1.379 1_565 S
C367 N365 1.356 . S
N368 C360 1.356 . S
N368 H374 0.984 . S
N368 H375 0.984 . S
N369 C362 1.356 1_565 S
N369 H372 0.984 1_565 S
N369 H373 0.985 . S
H370 N365 0.984 . S
H371 N365 0.985 . S
H372 N369 0.984 1_545 S
H373 N369 0.985 . S
H374 N368 0.984 . S
H375 N368 0.984 . S
H376 N364 0.984 . S
H377 N364 0.985 . S
C378 C379 1.363 . S
C378 C384 1.379 . S
C378 N386 1.361 . S
C379 C378 1.363 . S
C379 C385 1.363 . S
C380 C381 1.363 . S
C380 C385 1.379 . S
C380 N387 1.356 . S
C381 C380 1.363 . S
C381 C384 1.363 . S
N382 C384 1.356 . S
N382 H394 0.984 . S
N382 H395 0.985 . S
N383 C385 1.356 . S
N383 H388 0.984 . S
N383 H389 0.985 . S
C384 C378 1.379 . S
C384 C381 1.363 . S
C384 N382 1.356 . S
C385 C379 1.363 . S
C385 C380 1.379 . S
C385 N383 1.356 . S
N386 C378 1.361 . S
N386 H392 0.983 1_556 S
N386 H393 0.981 1_556 S
N387 C380 1.356 . S
N387 H390 0.984 . S
N387 H391 0.985 . S
H388 N383 0.984 . S
H389 N383 0.985 . S
H390 N387 0.984 . S
H391 N387 0.985 . S
H392 N386 0.983 1_554 S
H393 N386 0.981 1_554 S
H394 N382 0.984 . S
H395 N382 0.985 . S
C396 C397 1.363 . S
C396 C402 1.379 . S
C396 N404 1.356 . S
C397 C396 1.363 . S
C397 C403 1.363 . S
C398 C399 1.363 . S
C398 C403 1.379 . S
C398 N405 1.356 . S
C399 C398 1.363 . S
C399 C402 1.363 . S
N400 C402 1.356 . S
N400 H412 0.984 . S
N400 H413 0.985 . S
N401 C403 1.356 . S
N401 H406 0.984 . S
N401 H407 0.985 . S
C402 C396 1.379 . S
C402 C399 1.363 . S
C402 N400 1.356 . S
C403 C397 1.363 . S
C403 C398 1.379 . S
C403 N401 1.356 . S
N404 C396 1.356 . S
N404 H410 0.984 . S
N404 H411 0.984 . S
N405 C398 1.356 . S
N405 H408 0.988 . S
N405 H409 0.985 . S
H406 N401 0.984 . S
H407 N401 0.985 . S
H408 N405 0.988 . S
H409 N405 0.985 . S
H410 N404 0.984 . S
H411 N404 0.984 . S
H412 N400 0.984 . S
H413 N400 0.985 . S
C201 C61 1.447 . S
C199 C10 1.446 . S
C217 C21 1.460 . S
C219 C131 1.497 . S
C235 C31 1.402 . S
C237 C183 1.495 . S
C253 C0 1.433 . S
C255 C77 1.490 . S
C273 C121 1.468 . S
C271 C18 1.398 . S
C289 C34 1.427 . S
C291 C167 1.454 . S
C309 C114 1.434 . S
C307 C36 1.435 . S
C325 C8 1.427 1_566 S
C327 C174 1.456 . S
C345 C68 1.450 . S
C343 C23 1.449 1_565 S
C363 C130 1.433 . S
C361 C26 1.377 . S
C381 C184 1.502 . S
C379 C5 1.401 1_556 S
C397 C13 1.433 . S
C399 C78 1.491 . S
