# Generated by pormake.
# Topology gar, (4,6)-cn, num edge types: 1
# Building blocks:
#     Node 0, Type 0, BuildingBlock: GALJAG_clean_sbu_0, # of connection points: 4
#     Node 1, Type 0, BuildingBlock: GALJAG_clean_sbu_0, # of connection points: 4
#     Node 2, Type 0, BuildingBlock: GALJAG_clean_sbu_0, # of connection points: 4
#     Node 3, Type 0, BuildingBlock: GALJAG_clean_sbu_0, # of connection points: 4
#     Node 4, Type 0, BuildingBlock: GALJAG_clean_sbu_0, # of connection points: 4
#     Node 5, Type 0, BuildingBlock: GALJAG_clean_sbu_0, # of connection points: 4
#     Node 6, Type 0, BuildingBlock: GALJAG_clean_sbu_0, # of connection points: 4
#     Node 7, Type 0, BuildingBlock: GALJAG_clean_sbu_0, # of connection points: 4
#     Node 8, Type 0, BuildingBlock: GALJAG_clean_sbu_0, # of connection points: 4
#     Node 9, Type 0, BuildingBlock: GALJAG_clean_sbu_0, # of connection points: 4
#     Node 10, Type 0, BuildingBlock: GALJAG_clean_sbu_0, # of connection points: 4
#     Node 11, Type 0, BuildingBlock: GALJAG_clean_sbu_0, # of connection points: 4
#     Node 12, Type 0, BuildingBlock: GALJAG_clean_sbu_0, # of connection points: 4
#     Node 13, Type 0, BuildingBlock: GALJAG_clean_sbu_0, # of connection points: 4
#     Node 14, Type 0, BuildingBlock: GALJAG_clean_sbu_0, # of connection points: 4
#     Node 15, Type 0, BuildingBlock: GALJAG_clean_sbu_0, # of connection points: 4
#     Node 16, Type 0, BuildingBlock: GALJAG_clean_sbu_0, # of connection points: 4
#     Node 17, Type 0, BuildingBlock: GALJAG_clean_sbu_0, # of connection points: 4
#     Node 18, Type 0, BuildingBlock: GALJAG_clean_sbu_0, # of connection points: 4
#     Node 19, Type 0, BuildingBlock: GALJAG_clean_sbu_0, # of connection points: 4
#     Node 20, Type 0, BuildingBlock: GALJAG_clean_sbu_0, # of connection points: 4
#     Node 21, Type 0, BuildingBlock: GALJAG_clean_sbu_0, # of connection points: 4
#     Node 22, Type 0, BuildingBlock: GALJAG_clean_sbu_0, # of connection points: 4
#     Node 23, Type 0, BuildingBlock: GALJAG_clean_sbu_0, # of connection points: 4
#     Node 24, Type 1, BuildingBlock: GEDQOX_clean_sbu_0, # of connection points: 6
#     Node 25, Type 1, BuildingBlock: GEDQOX_clean_sbu_0, # of connection points: 6
#     Node 26, Type 1, BuildingBlock: GEDQOX_clean_sbu_0, # of connection points: 6
#     Node 27, Type 1, BuildingBlock: GEDQOX_clean_sbu_0, # of connection points: 6
#     Node 28, Type 1, BuildingBlock: GEDQOX_clean_sbu_0, # of connection points: 6
#     Node 29, Type 1, BuildingBlock: GEDQOX_clean_sbu_0, # of connection points: 6
#     Node 30, Type 1, BuildingBlock: GEDQOX_clean_sbu_0, # of connection points: 6
#     Node 31, Type 1, BuildingBlock: GEDQOX_clean_sbu_0, # of connection points: 6
#     Node 32, Type 1, BuildingBlock: GEDQOX_clean_sbu_0, # of connection points: 6
#     Node 33, Type 1, BuildingBlock: GEDQOX_clean_sbu_0, # of connection points: 6
#     Node 34, Type 1, BuildingBlock: GEDQOX_clean_sbu_0, # of connection points: 6
#     Node 35, Type 1, BuildingBlock: GEDQOX_clean_sbu_0, # of connection points: 6
#     Node 36, Type 1, BuildingBlock: GEDQOX_clean_sbu_0, # of connection points: 6
#     Node 37, Type 1, BuildingBlock: GEDQOX_clean_sbu_0, # of connection points: 6
#     Node 38, Type 1, BuildingBlock: GEDQOX_clean_sbu_0, # of connection points: 6
#     Node 39, Type 1, BuildingBlock: GEDQOX_clean_sbu_0, # of connection points: 6
#     Edge 40, Type (0, 1), BuildingBlock: KIFKEQ_clean_linker_1, # of connection points: 2
#     Edge 41, Type (0, 1), BuildingBlock: KIFKEQ_clean_linker_1, # of connection points: 2
#     Edge 42, Type (0, 1), BuildingBlock: KIFKEQ_clean_linker_1, # of connection points: 2
#     Edge 43, Type (0, 1), BuildingBlock: KIFKEQ_clean_linker_1, # of connection points: 2
#     Edge 44, Type (0, 1), BuildingBlock: KIFKEQ_clean_linker_1, # of connection points: 2
#     Edge 45, Type (0, 1), BuildingBlock: KIFKEQ_clean_linker_1, # of connection points: 2
#     Edge 46, Type (0, 1), BuildingBlock: KIFKEQ_clean_linker_1, # of connection points: 2
#     Edge 47, Type (0, 1), BuildingBlock: KIFKEQ_clean_linker_1, # of connection points: 2
#     Edge 48, Type (0, 1), BuildingBlock: KIFKEQ_clean_linker_1, # of connection points: 2
#     Edge 49, Type (0, 1), BuildingBlock: KIFKEQ_clean_linker_1, # of connection points: 2
#     Edge 50, Type (0, 1), BuildingBlock: KIFKEQ_clean_linker_1, # of connection points: 2
#     Edge 51, Type (0, 1), BuildingBlock: KIFKEQ_clean_linker_1, # of connection points: 2
#     Edge 52, Type (0, 1), BuildingBlock: KIFKEQ_clean_linker_1, # of connection points: 2
#     Edge 53, Type (0, 1), BuildingBlock: KIFKEQ_clean_linker_1, # of connection points: 2
#     Edge 54, Type (0, 1), BuildingBlock: KIFKEQ_clean_linker_1, # of connection points: 2
#     Edge 55, Type (0, 1), BuildingBlock: KIFKEQ_clean_linker_1, # of connection points: 2
#     Edge 56, Type (0, 1), BuildingBlock: KIFKEQ_clean_linker_1, # of connection points: 2
#     Edge 57, Type (0, 1), BuildingBlock: KIFKEQ_clean_linker_1, # of connection points: 2
#     Edge 58, Type (0, 1), BuildingBlock: KIFKEQ_clean_linker_1, # of connection points: 2
#     Edge 59, Type (0, 1), BuildingBlock: KIFKEQ_clean_linker_1, # of connection points: 2
#     Edge 60, Type (0, 1), BuildingBlock: KIFKEQ_clean_linker_1, # of connection points: 2
#     Edge 61, Type (0, 1), BuildingBlock: KIFKEQ_clean_linker_1, # of connection points: 2
#     Edge 62, Type (0, 1), BuildingBlock: KIFKEQ_clean_linker_1, # of connection points: 2
#     Edge 63, Type (0, 1), BuildingBlock: KIFKEQ_clean_linker_1, # of connection points: 2
#     Edge 64, Type (0, 1), BuildingBlock: KIFKEQ_clean_linker_1, # of connection points: 2
#     Edge 65, Type (0, 1), BuildingBlock: KIFKEQ_clean_linker_1, # of connection points: 2
#     Edge 66, Type (0, 1), BuildingBlock: KIFKEQ_clean_linker_1, # of connection points: 2
#     Edge 67, Type (0, 1), BuildingBlock: KIFKEQ_clean_linker_1, # of connection points: 2
#     Edge 68, Type (0, 1), BuildingBlock: KIFKEQ_clean_linker_1, # of connection points: 2
#     Edge 69, Type (0, 1), BuildingBlock: KIFKEQ_clean_linker_1, # of connection points: 2
#     Edge 70, Type (0, 1), BuildingBlock: KIFKEQ_clean_linker_1, # of connection points: 2
#     Edge 71, Type (0, 1), BuildingBlock: KIFKEQ_clean_linker_1, # of connection points: 2
#     Edge 72, Type (0, 1), BuildingBlock: KIFKEQ_clean_linker_1, # of connection points: 2
#     Edge 73, Type (0, 1), BuildingBlock: KIFKEQ_clean_linker_1, # of connection points: 2
#     Edge 74, Type (0, 1), BuildingBlock: KIFKEQ_clean_linker_1, # of connection points: 2
#     Edge 75, Type (0, 1), BuildingBlock: KIFKEQ_clean_linker_1, # of connection points: 2
#     Edge 76, Type (0, 1), BuildingBlock: KIFKEQ_clean_linker_1, # of connection points: 2
#     Edge 77, Type (0, 1), BuildingBlock: KIFKEQ_clean_linker_1, # of connection points: 2
#     Edge 78, Type (0, 1), BuildingBlock: KIFKEQ_clean_linker_1, # of connection points: 2
#     Edge 79, Type (0, 1), BuildingBlock: KIFKEQ_clean_linker_1, # of connection points: 2
#     Edge 80, Type (0, 1), BuildingBlock: KIFKEQ_clean_linker_1, # of connection points: 2
#     Edge 81, Type (0, 1), BuildingBlock: KIFKEQ_clean_linker_1, # of connection points: 2
#     Edge 82, Type (0, 1), BuildingBlock: KIFKEQ_clean_linker_1, # of connection points: 2
#     Edge 83, Type (0, 1), BuildingBlock: KIFKEQ_clean_linker_1, # of connection points: 2
#     Edge 84, Type (0, 1), BuildingBlock: KIFKEQ_clean_linker_1, # of connection points: 2
#     Edge 85, Type (0, 1), BuildingBlock: KIFKEQ_clean_linker_1, # of connection points: 2
#     Edge 86, Type (0, 1), BuildingBlock: KIFKEQ_clean_linker_1, # of connection points: 2
#     Edge 87, Type (0, 1), BuildingBlock: KIFKEQ_clean_linker_1, # of connection points: 2
#     Edge 88, Type (0, 1), BuildingBlock: KIFKEQ_clean_linker_1, # of connection points: 2
#     Edge 89, Type (0, 1), BuildingBlock: KIFKEQ_clean_linker_1, # of connection points: 2
#     Edge 90, Type (0, 1), BuildingBlock: KIFKEQ_clean_linker_1, # of connection points: 2
#     Edge 91, Type (0, 1), BuildingBlock: KIFKEQ_clean_linker_1, # of connection points: 2
#     Edge 92, Type (0, 1), BuildingBlock: KIFKEQ_clean_linker_1, # of connection points: 2
#     Edge 93, Type (0, 1), BuildingBlock: KIFKEQ_clean_linker_1, # of connection points: 2
#     Edge 94, Type (0, 1), BuildingBlock: KIFKEQ_clean_linker_1, # of connection points: 2
#     Edge 95, Type (0, 1), BuildingBlock: KIFKEQ_clean_linker_1, # of connection points: 2
#     Edge 96, Type (0, 1), BuildingBlock: KIFKEQ_clean_linker_1, # of connection points: 2
#     Edge 97, Type (0, 1), BuildingBlock: KIFKEQ_clean_linker_1, # of connection points: 2
#     Edge 98, Type (0, 1), BuildingBlock: KIFKEQ_clean_linker_1, # of connection points: 2
#     Edge 99, Type (0, 1), BuildingBlock: KIFKEQ_clean_linker_1, # of connection points: 2
#     Edge 100, Type (0, 1), BuildingBlock: KIFKEQ_clean_linker_1, # of connection points: 2
#     Edge 101, Type (0, 1), BuildingBlock: KIFKEQ_clean_linker_1, # of connection points: 2
#     Edge 102, Type (0, 1), BuildingBlock: KIFKEQ_clean_linker_1, # of connection points: 2
#     Edge 103, Type (0, 1), BuildingBlock: KIFKEQ_clean_linker_1, # of connection points: 2
#     Edge 104, Type (0, 1), BuildingBlock: KIFKEQ_clean_linker_1, # of connection points: 2
#     Edge 105, Type (0, 1), BuildingBlock: KIFKEQ_clean_linker_1, # of connection points: 2
#     Edge 106, Type (0, 1), BuildingBlock: KIFKEQ_clean_linker_1, # of connection points: 2
#     Edge 107, Type (0, 1), BuildingBlock: KIFKEQ_clean_linker_1, # of connection points: 2
#     Edge 108, Type (0, 1), BuildingBlock: KIFKEQ_clean_linker_1, # of connection points: 2
#     Edge 109, Type (0, 1), BuildingBlock: KIFKEQ_clean_linker_1, # of connection points: 2
#     Edge 110, Type (0, 1), BuildingBlock: KIFKEQ_clean_linker_1, # of connection points: 2
#     Edge 111, Type (0, 1), BuildingBlock: KIFKEQ_clean_linker_1, # of connection points: 2
#     Edge 112, Type (0, 1), BuildingBlock: KIFKEQ_clean_linker_1, # of connection points: 2
#     Edge 113, Type (0, 1), BuildingBlock: KIFKEQ_clean_linker_1, # of connection points: 2
#     Edge 114, Type (0, 1), BuildingBlock: KIFKEQ_clean_linker_1, # of connection points: 2
#     Edge 115, Type (0, 1), BuildingBlock: KIFKEQ_clean_linker_1, # of connection points: 2
#     Edge 116, Type (0, 1), BuildingBlock: KIFKEQ_clean_linker_1, # of connection points: 2
#     Edge 117, Type (0, 1), BuildingBlock: KIFKEQ_clean_linker_1, # of connection points: 2
#     Edge 118, Type (0, 1), BuildingBlock: KIFKEQ_clean_linker_1, # of connection points: 2
#     Edge 119, Type (0, 1), BuildingBlock: KIFKEQ_clean_linker_1, # of connection points: 2
#     Edge 120, Type (0, 1), BuildingBlock: KIFKEQ_clean_linker_1, # of connection points: 2
#     Edge 121, Type (0, 1), BuildingBlock: KIFKEQ_clean_linker_1, # of connection points: 2
#     Edge 122, Type (0, 1), BuildingBlock: KIFKEQ_clean_linker_1, # of connection points: 2
#     Edge 123, Type (0, 1), BuildingBlock: KIFKEQ_clean_linker_1, # of connection points: 2
#     Edge 124, Type (0, 1), BuildingBlock: KIFKEQ_clean_linker_1, # of connection points: 2
#     Edge 125, Type (0, 1), BuildingBlock: KIFKEQ_clean_linker_1, # of connection points: 2
#     Edge 126, Type (0, 1), BuildingBlock: KIFKEQ_clean_linker_1, # of connection points: 2
#     Edge 127, Type (0, 1), BuildingBlock: KIFKEQ_clean_linker_1, # of connection points: 2
#     Edge 128, Type (0, 1), BuildingBlock: KIFKEQ_clean_linker_1, # of connection points: 2
#     Edge 129, Type (0, 1), BuildingBlock: KIFKEQ_clean_linker_1, # of connection points: 2
#     Edge 130, Type (0, 1), BuildingBlock: KIFKEQ_clean_linker_1, # of connection points: 2
#     Edge 131, Type (0, 1), BuildingBlock: KIFKEQ_clean_linker_1, # of connection points: 2
#     Edge 132, Type (0, 1), BuildingBlock: KIFKEQ_clean_linker_1, # of connection points: 2
#     Edge 133, Type (0, 1), BuildingBlock: KIFKEQ_clean_linker_1, # of connection points: 2
#     Edge 134, Type (0, 1), BuildingBlock: KIFKEQ_clean_linker_1, # of connection points: 2
#     Edge 135, Type (0, 1), BuildingBlock: KIFKEQ_clean_linker_1, # of connection points: 2
# Relax obj value: 0.284
# Max RMSD: 0.422
# Mean RMSD: 0.189
data_MOF--net-gar--node1-GALJAG_clean_sbu_0--node2-GEDQOX_clean_sbu_0--edge1-KIFKEQ_clean_linker_1
_symmetry_space_group_name_H-M    P1
_symmetry_Int_Tables_number       1
_symmetry_cell_setting            triclinic
loop_
_symmetry_equiv_pos_as_xyz
'x, y, z'
_cell_length_a     61.366137
_cell_length_b     58.945397
_cell_length_c     53.469163
_cell_angle_alpha  97.738551
_cell_angle_beta   96.627046
_cell_angle_gamma 98.533307
loop_
_atom_site_label
_atom_site_type_symbol
_atom_site_fract_x
_atom_site_fract_y
_atom_site_fract_z
_atom_type_partial_charge
In0 In 0.12472 0.38028 0.49519 0.0
O1 O 0.12155 0.3576 0.45756 0.0
O2 O 0.15398 0.37564 0.47306 0.0
C3 C 0.08277 0.3811 0.47525 0.0
C4 C 0.12445 0.35198 0.52979 0.0
C5 C 0.14243 0.4227 0.52036 0.0
O6 O 0.09824 0.39789 0.47569 0.0
O7 O 0.08839 0.36459 0.48574 0.0
O8 O 0.13771 0.40545 0.5314 0.0
O9 O 0.13935 0.41827 0.49634 0.0
C10 C 0.14169 0.36216 0.45475 0.0
O11 O 0.13811 0.35177 0.51376 0.0
O12 O 0.11162 0.36674 0.52849 0.0
In13 In 1.00152 0.783 0.67487 0.0
O14 O 0.99684 0.81204 0.65233 0.0
O15 O 1.02931 0.81136 0.67141 0.0
C16 C 0.99246 0.74825 0.63541 0.0
C17 C 0.03512 0.77851 0.70941 0.0
C18 C 0.96769 0.78909 0.7009 0.0
O19 O 1.00089 0.76857 0.63342 0.0
O20 O 0.98759 0.7456 0.6572 0.0
O21 O 0.97671 0.77121 0.70051 0.0
O22 O 0.97459 0.80297 0.68646 0.0
C23 C 1.0171 0.82134 0.65735 0.0
O24 O 1.02173 0.79229 0.71398 0.0
O25 O 0.03168 0.76703 0.68724 0.0
In26 In 0.61779 0.88417 0.99282 0.0
O27 O 0.64402 0.89293 0.96774 0.0
O28 O 0.63834 0.85851 0.97615 0.0
C29 C 0.58276 0.88866 0.96003 0.0
C30 C 0.60225 0.84996 0.01685 0.0
C31 C 0.63087 0.92315 0.02679 0.0
O32 O 0.59631 0.87542 0.95425 0.0
O33 O 0.5867 0.89945 0.9825 0.0
O34 O 0.62448 0.90378 0.0333 0.0
O35 O 0.63233 0.92237 1.0034 0.0
C36 C 0.64809 0.87253 0.96359 0.0
O37 O 0.62282 0.85805 0.01944 0.0
O38 O 0.58982 0.85916 1.00215 0.0
In39 In 0.49394 0.28468 0.16909 0.0
O40 O 0.48435 0.26416 0.1291 0.0
O41 O 0.48206 0.24582 0.16036 0.0
C42 C 0.50276 0.31944 0.14291 0.0
C43 C 0.46487 0.28895 0.20216 0.0
C44 C 0.53403 0.28935 0.19688 0.0
O45 O 0.51267 0.30212 0.14128 0.0
O46 O 0.48783 0.31899 0.15739 0.0
O47 O 0.52299 0.3057 0.19673 0.0
O48 O 0.5249 0.27061 0.18293 0.0
C49 C 0.48058 0.24478 0.13655 0.0
O50 O 0.48201 0.27995 0.20645 0.0
O51 O 0.46182 0.29526 0.18052 0.0
In52 In 0.0501 0.81447 0.26131 0.0
O53 O 0.05202 0.79454 0.22246 0.0
O54 O 0.04286 0.77464 0.25109 0.0
C55 C 0.05016 0.84983 0.23419 0.0
C56 C 1.00891 0.81414 0.27882 0.0
C57 C 0.09347 0.81863 0.28635 0.0
O58 O 0.05079 0.82927 0.22438 0.0
O59 O 0.0504 0.85289 0.25812 0.0
O60 O 0.08469 0.83585 0.28135 0.0
O61 O 0.07993 0.79979 0.28087 0.0
C62 C 0.04661 0.77465 0.2283 0.0
O63 O 1.02674 0.81537 0.29392 0.0
O64 O 1.01205 0.81259 0.2559 0.0
In65 In 0.56522 0.85346 0.41019 0.0
O66 O 0.58776 0.84274 0.37902 0.0
O67 O 0.60281 0.86646 0.41161 0.0
C68 C 0.5204 0.84757 0.39005 0.0
C69 C 0.56866 0.81912 0.43857 0.0
C70 C 0.56803 0.89601 0.43735 0.0
O71 O 0.53579 0.85098 0.37634 0.0
O72 O 0.52769 0.84646 0.41276 0.0
O73 O 0.56913 0.87789 0.44719 0.0
O74 O 0.56577 0.89294 0.4132 0.0
C75 C 0.6057 0.85461 0.39123 0.0
O76 O 0.57116 0.84028 0.44776 0.0
O77 O 0.56412 0.81485 0.41455 0.0
In78 In 0.55056 0.31587 0.76262 0.0
O79 O 0.54163 0.29158 0.72483 0.0
O80 O 0.5551 0.27754 0.75666 0.0
C81 C 0.54826 0.35067 0.7348 0.0
C82 C 0.51043 0.31473 0.78265 0.0
C83 C 0.59497 0.32255 0.78465 0.0
O84 O 0.54896 0.3301 0.72522 0.0
O85 O 0.54917 0.35402 0.75879 0.0
O86 O 0.57924 0.31265 0.79487 0.0
O87 O 0.58817 0.32981 0.76453 0.0
C88 C 0.54781 0.27421 0.73312 0.0
O89 O 0.52835 0.32729 0.79394 0.0
O90 O 0.51322 0.30204 0.76279 0.0
In91 In 0.06426 0.35293 0.90742 0.0
O92 O 0.0674 0.33978 0.94528 0.0
O93 O 0.06626 0.31505 0.91204 0.0
C94 C 0.06654 0.39508 0.93538 0.0
C95 C 0.10513 0.35387 0.88934 0.0
C96 C 1.01969 0.34603 0.88564 0.0
O97 O 0.06673 0.37667 0.94487 0.0
O98 O 0.06527 0.39244 0.91134 0.0
O99 O 0.03525 0.35634 0.87553 0.0
O100 O 1.02677 0.33823 0.90526 0.0
C101 C 0.06799 0.31906 0.93613 0.0
O102 O 0.08718 0.34275 0.87636 0.0
O103 O 0.10209 0.365 0.91008 0.0
In104 In 0.45785 0.1499 0.32917 0.0
O105 O 0.48647 0.15565 0.30519 0.0
O106 O 0.45786 0.13053 0.28992 0.0
C107 C 0.48009 0.15354 0.37674 0.0
C108 C 0.43652 0.18525 0.31922 0.0
C109 C 0.43177 0.11043 0.3331 0.0
O110 O 0.48976 0.15163 0.35713 0.0
O111 O 0.45985 0.15535 0.37235 0.0
O112 O 0.42482 0.1296 0.3344 0.0
O113 O 0.45183 0.11119 0.32957 0.0
C114 C 0.47674 0.14042 0.28678 0.0
O115 O 0.42874 0.16423 0.31124 0.0
O116 O 0.45554 0.18881 0.33237 0.0
In117 In 0.27351 0.16679 0.50985 0.0
O118 O 0.3022 0.19523 0.52771 0.0
O119 O 0.28586 0.17479 0.55212 0.0
C120 C 0.26796 0.1924 0.47325 0.0
C121 C 0.29697 0.13267 0.50244 0.0
C122 C 0.23125 0.15488 0.51638 0.0
O123 O 0.26868 0.20033 0.49647 0.0
O124 O 0.26961 0.17119 0.46836 0.0
O125 O 0.24042 0.14205 0.50146 0.0
O126 O 0.24341 0.17334 0.52766 0.0
C127 C 0.30088 0.19126 0.55009 0.0
O128 O 0.28284 0.13271 0.51779 0.0
O129 O 0.29843 0.14938 0.48992 0.0
In130 In 0.1976 0.0764 0.85839 0.0
O131 O 0.16388 0.07456 0.83252 0.0
O132 O 0.19237 0.07406 0.81404 0.0
C133 C 0.17275 0.07597 0.90041 0.0
C134 C 0.21852 0.03553 0.85526 0.0
C135 C 0.22067 0.12232 0.85782 0.0
O136 O 0.16735 0.06254 0.87942 0.0
O137 O 0.19109 0.0892 0.90087 0.0
O138 O 0.23056 0.1052 0.86078 0.0
O139 O 0.19985 0.11644 0.85599 0.0
C140 C 0.17163 0.074 0.8116 0.0
O141 O 0.22677 0.05452 0.86969 0.0
O142 O 0.20024 0.03719 0.84271 0.0
In143 In 0.24838 0.94298 0.09236 0.0
O144 O 0.25486 0.94302 0.13517 0.0
O145 O 0.24795 0.91025 0.11133 0.0
C146 C 0.25404 0.91553 0.04936 0.0
C147 C 0.21363 0.96639 0.09429 0.0
C148 C 0.28375 0.97591 0.09464 0.0
O149 O 0.23522 0.92092 0.05257 0.0
O150 O 0.26904 0.92316 0.06793 0.0
O151 O 0.26842 0.97117 0.07595 0.0
O152 O 0.28116 0.96408 0.1124 0.0
C153 C 0.25315 0.92129 0.13367 0.0
O154 O 0.23275 0.97529 0.09095 0.0
O155 O 0.2114 0.94493 0.09571 0.0
In156 In 0.33562 0.50597 0.15882 0.0
O157 O 0.35253 0.48078 0.17838 0.0
O158 O 0.32801 0.49604 0.19683 0.0
C159 C 0.31138 0.47512 0.12059 0.0
C160 C 0.31182 0.54001 0.15907 0.0
C161 C 0.37785 0.52326 0.15757 0.0
O162 O 0.30888 0.47456 0.14353 0.0
O163 O 0.326 0.49127 0.11695 0.0
O164 O 0.3658 0.53475 0.1701 0.0
O165 O 0.36847 0.50374 0.14561 0.0
C166 C 0.34171 0.482 0.19699 0.0
O167 O 0.31387 0.52898 0.17767 0.0
O168 O 0.32254 0.53437 0.14111 0.0
In169 In 0.86708 0.23387 0.08776 0.0
O170 O 0.90479 0.23148 0.09469 0.0
O171 O 0.8822 0.20311 0.07295 0.0
C172 C 0.82837 0.20539 0.08498 0.0
C173 C 0.8659 0.25757 0.1349 0.0
C174 C 0.86143 0.25448 0.04565 0.0
O175 O 0.84649 0.20123 0.09543 0.0
O176 O 0.82962 0.22426 0.07616 0.0
O177 O 0.86525 0.26596 0.06787 0.0
O178 O 0.8614 0.23303 0.0448 0.0
C179 C 0.90196 0.2111 0.0824 0.0
O180 O 0.87058 0.26786 0.11646 0.0
O181 O 0.86336 0.23576 0.12987 0.0
In182 In 0.15155 0.51749 0.3223 0.0
O183 O 0.18019 0.50111 0.33732 0.0
O184 O 0.15225 0.47832 0.31561 0.0
C185 C 0.17949 0.55632 0.31982 0.0
C186 C 0.12644 0.51822 0.27754 0.0
C187 C 0.13245 0.52207 0.36504 0.0
O188 O 0.18351 0.53642 0.31204 0.0
O189 O 0.16156 0.55656 0.32909 0.0
O190 O 0.12174 0.5115 0.34407 0.0
O191 O 0.15267 0.52955 0.36443 0.0
C192 C 0.17153 0.48058 0.32792 0.0
O193 O 0.12133 0.5259 0.29885 0.0
O194 O 0.14357 0.50869 0.27876 0.0
In195 In 0.83768 1.01979 0.67289 0.0
O196 O 0.83188 0.98176 0.67438 0.0
O197 O 0.84184 1.00472 0.70977 0.0
C198 C 0.82487 1.00235 0.62345 0.0
C199 C 0.81026 0.04915 0.68654 0.0
C200 C 0.88065 0.03847 0.67799 0.0
O201 O 0.84466 1.011 0.63241 0.0
O202 O 0.81129 1.00299 0.63934 0.0
O203 O 0.86538 0.04864 0.66937 0.0
O204 O 0.8741 1.01962 0.68559 0.0
C205 C 0.83656 0.98401 0.69827 0.0
O206 O 0.82777 0.05543 0.67742 0.0
O207 O 0.80744 0.0284 0.69047 0.0
In208 In 0.91729 0.09809 0.32316 0.0
O209 O 0.95087 0.09978 0.3051 0.0
O210 O 0.92212 0.09504 0.2788 0.0
C211 C 0.94138 0.10307 0.37148 0.0
C212 C 0.89734 0.13969 0.32697 0.0
C213 C 0.89484 0.05147 0.32274 0.0
O214 O 0.95012 0.10238 0.35117 0.0
O215 O 0.92049 0.10212 0.36769 0.0
O216 O 0.88642 0.066 0.31079 0.0
O217 O 0.91403 0.06017 0.33397 0.0
C218 C 0.94315 0.09724 0.28183 0.0
O219 O 0.88644 0.11929 0.32071 0.0
O220 O 0.91795 0.13922 0.33099 0.0
In221 In 0.37051 0.7348 0.58693 0.0
O222 O 0.38708 0.70347 0.59255 0.0
O223 O 0.40634 0.73126 0.57961 0.0
C224 C 0.33449 0.7025 0.58419 0.0
C225 C 0.36501 0.76381 0.62898 0.0
C226 C 0.36441 0.75454 0.54438 0.0
O227 O 0.34847 0.7084 0.60411 0.0
O228 O 0.33898 0.71259 0.56563 0.0
O229 O 0.37423 0.76632 0.56526 0.0
O230 O 0.35897 0.7332 0.54505 0.0
C231 C 0.40508 0.71097 0.58511 0.0
O232 O 0.38344 0.75716 0.6266 0.0
O233 O 0.35039 0.75691 0.60989 0.0
In234 In 0.41806 0.59895 0.82093 0.0
O235 O 0.38755 0.62038 0.81593 0.0
O236 O 0.41849 0.63989 0.83114 0.0
C237 C 0.39566 0.55251 0.82107 0.0
C238 C 0.44374 0.59827 0.77955 0.0
C239 C 0.44244 0.6033 0.8689 0.0
O240 O 0.38662 0.56741 0.81043 0.0
O241 O 0.4154 0.56077 0.83075 0.0
O242 O 0.45089 0.60198 0.8484 0.0
O243 O 0.42166 0.60331 0.86551 0.0
C244 C 0.39818 0.64057 0.82457 0.0
O245 O 0.45158 0.6022 0.80284 0.0
O246 O 0.42268 0.59476 0.77652 0.0
In247 In 0.65282 1.01752 0.82806 0.0
O248 O 0.68032 1.00005 0.84336 0.0
O249 O 0.65352 0.97841 0.81837 0.0
C250 C 0.68251 0.05674 0.83482 0.0
C251 C 0.63398 1.01817 0.77997 0.0
C252 C 0.62956 1.02291 0.86762 0.0
O253 O 0.68638 0.0375 0.82462 0.0
O254 O 0.66363 0.05623 0.84208 0.0
O255 O 0.62325 0.02826 0.8462 0.0
O256 O 0.64698 1.01397 0.86866 0.0
C257 C 0.67218 0.98 0.83191 0.0
O258 O 0.62284 1.00948 0.79589 0.0
O259 O 0.65427 0.02505 0.78806 0.0
In260 In 0.77391 0.66591 1.01052 0.0
O261 O 0.78928 0.64017 0.03051 0.0
O262 O 0.78838 0.63636 0.99017 0.0
C263 C 0.73132 0.65342 0.01508 0.0
C264 C 0.79832 0.69691 0.04842 0.0
C265 C 0.77488 0.68865 0.97105 0.0
O266 O 0.74149 0.64022 1.00183 0.0
O267 O 0.74259 0.67274 0.02536 0.0
O268 O 0.75844 0.68691 0.98324 0.0
O269 O 0.79016 0.67769 0.9779 0.0
C270 C 0.79433 0.62922 1.01072 0.0
O271 O 0.79878 0.69884 0.02535 0.0
O272 O 0.7854 0.67948 0.05241 0.0
In273 In 0.95639 0.64647 0.82349 0.0
O274 O 0.928 0.66094 0.80403 0.0
O275 O 0.95316 0.68506 0.82863 0.0
C276 C 0.92892 0.60812 0.8278 0.0
C277 C 0.97615 0.63529 0.7821 0.0
C278 C 0.9782 0.65124 0.87136 0.0
O279 O 0.92175 0.6259 0.82173 0.0
O280 O 0.9498 0.60971 0.83136 0.0
O281 O 0.9882 0.64944 0.85197 0.0
O282 O 0.95783 0.65242 0.86654 0.0
C283 C 0.93493 0.68172 0.81395 0.0
O284 O 0.98302 0.65408 0.79719 0.0
O285 O 0.95987 0.62267 0.78816 0.0
In286 In 0.74597 0.43799 0.59056 0.0
O287 O 0.73523 0.4162 0.62122 0.0
O288 O 0.76971 0.42523 0.61881 0.0
C289 C 0.7466 0.40889 0.54652 0.0
C290 C 0.71243 0.4621 0.59861 0.0
C291 C 0.77924 0.47227 0.58829 0.0
O292 O 0.75571 0.40597 0.56793 0.0
O293 O 0.73572 0.42548 0.54749 0.0
O294 O 0.76628 0.46181 0.56882 0.0
O295 O 0.77534 0.4655 0.60893 0.0
C296 C 0.75506 0.41525 0.63013 0.0
O297 O 0.73261 0.46989 0.60655 0.0
O298 O 0.7087 0.44145 0.58692 0.0
In299 In 0.69705 0.57397 0.35509 0.0
O300 O 0.7268 0.55244 0.36495 0.0
O301 O 0.69869 0.53415 0.34102 0.0
C302 C 0.71994 0.61992 0.35447 0.0
C303 C 0.67118 0.57168 0.30823 0.0
C304 C 0.67274 0.57386 0.39751 0.0
O305 O 0.72987 0.60274 0.3569 0.0
O306 O 0.69915 0.61409 0.35322 0.0
O307 O 0.66674 0.56085 0.37634 0.0
O308 O 0.69139 0.58653 0.39796 0.0
C309 C 0.71772 0.53295 0.35207 0.0
O310 O 0.66339 0.57226 0.32912 0.0
O311 O 0.6919 0.57162 0.31072 0.0
Nd312 Nd 0.07158 0.10809 0.09429 0.0
Nd313 Nd 0.04283 0.06791 0.08645 0.0
C314 C 0.09801 0.14894 0.10193 0.0
C315 C 0.09577 0.16777 0.08665 0.0
C316 C 0.07616 0.16638 0.06979 0.0
C317 C 0.0739 0.18289 0.05375 0.0
C318 C 0.09147 0.2011 0.05367 0.0
C319 C 0.11121 0.20256 0.07066 0.0
C320 C 0.11333 0.18601 0.08701 0.0
C321 C 0.07067 0.08841 0.04336 0.0
C322 C 1.02172 0.11172 0.07346 0.0
C323 C 1.0167 0.02685 0.07884 0.0
C324 C 1.0198 1.00724 0.09261 0.0
C325 C 0.04013 1.00783 0.10786 0.0
C326 C 0.04315 0.9905 0.12262 0.0
C327 C 1.02564 0.97232 0.12307 0.0
C328 C 1.00518 0.97168 0.1077 0.0
C329 C 1.00231 0.98901 0.09258 0.0
C330 C 0.04411 0.08811 0.13731 0.0
C331 C 0.09272 0.06411 0.10631 0.0
O332 O 0.08205 0.14402 0.11544 0.0
O333 O 0.10303 0.13029 0.08959 0.0
O334 O 0.06633 0.10881 0.05094 0.0
O335 O 0.07102 0.07736 0.06229 0.0
O336 O 0.03968 0.12274 0.08815 0.0
O337 O 1.01985 0.08928 0.06573 0.0
O338 O 0.03167 0.03245 0.06431 0.0
O339 O 1.0124 0.04503 0.09281 0.0
O340 O 0.04875 0.06773 0.13012 0.0
O341 O 0.0432 0.09866 0.11804 0.0
O342 O 0.07492 0.05362 0.09103 0.0
O343 O 0.09433 0.08635 0.11512 0.0
H344 H 0.0626 0.15224 0.06869 0.0
H345 H 0.05829 0.1813 0.04141 0.0
H346 H 0.12523 0.21616 0.07093 0.0
H347 H 0.12877 0.18721 0.09955 0.0
H348 H 0.05365 1.022 0.10881 0.0
H349 H 0.05925 0.99148 0.13376 0.0
H350 H 0.99121 0.95815 0.10783 0.0
H351 H 0.98633 0.98846 0.08133 0.0
Nd352 Nd 0.31019 0.85938 0.35199 0.0
Nd353 Nd 0.30506 0.81158 0.32269 0.0
C354 C 0.30438 0.89994 0.37504 0.0
C355 C 0.3175 0.92316 0.37702 0.0
C356 C 0.30656 0.94203 0.37403 0.0
C357 C 0.31863 0.96341 0.37151 0.0
C358 C 0.3418 0.96612 0.37164 0.0
C359 C 0.35279 0.94735 0.37556 0.0
C360 C 0.34076 0.9261 0.37835 0.0
C361 C 0.35369 0.85282 0.34672 0.0
C362 C 0.30427 0.85416 0.29016 0.0
C363 C 0.31058 0.77109 0.29885 0.0
C364 C 0.2969 0.74799 0.294 0.0
C365 C 0.30724 0.72834 0.29238 0.0
C366 C 0.29478 0.70643 0.29185 0.0
C367 C 0.27183 0.70394 0.29338 0.0
C368 C 0.26142 0.72367 0.29407 0.0
C369 C 0.27383 0.74545 0.29416 0.0
C370 C 0.26168 0.81816 0.32896 0.0
C371 C 0.31335 0.81741 0.38448 0.0
O372 O 0.29474 0.89095 0.35202 0.0
O373 O 0.31357 0.88508 0.38705 0.0
O374 O 0.34773 0.87174 0.35648 0.0
O375 O 0.33637 0.83778 0.33801 0.0
O376 O 0.3038 0.86773 0.31162 0.0
O377 O 0.30726 0.83248 0.28966 0.0
O378 O 0.31814 0.77864 0.32284 0.0
O379 O 0.30309 0.78697 0.28698 0.0
O380 O 0.26738 0.79897 0.31967 0.0
O381 O 0.27912 0.83302 0.33726 0.0
O382 O 0.31514 0.80465 0.36293 0.0
O383 O 0.30774 0.83815 0.38487 0.0
H384 H 0.28861 0.94 0.37275 0.0
H385 H 0.30975 0.97767 0.36893 0.0
H386 H 0.37058 0.94875 0.37543 0.0
H387 H 0.34962 0.91183 0.38066 0.0
H388 H 0.32506 0.73004 0.29235 0.0
H389 H 0.30321 0.69152 0.29081 0.0
H390 H 0.24386 0.72249 0.2956 0.0
H391 H 0.26545 0.76033 0.29518 0.0
Nd392 Nd 0.57811 0.09766 0.57752 0.0
Nd393 Nd 0.53641 0.07774 0.58202 0.0
C394 C 0.61883 0.11047 0.56744 0.0
C395 C 0.64037 0.11215 0.58318 0.0
C396 C 0.65793 0.10421 0.57209 0.0
C397 C 0.67736 0.10222 0.58736 0.0
C398 C 0.67954 0.10823 0.61402 0.0
C399 C 0.66209 0.1168 0.62501 0.0
C400 C 0.64262 0.11864 0.60973 0.0
C401 C 0.57778 0.08059 0.62346 0.0
C402 C 0.56161 0.04553 0.55067 0.0
C403 C 0.49621 0.06262 0.59225 0.0
C404 C 0.47481 0.06647 0.5802 0.0
C405 C 0.45511 0.05863 0.58945 0.0
C406 C 0.43483 0.06269 0.57769 0.0
C407 C 0.43414 0.07451 0.5565 0.0
C408 C 0.454 0.08206 0.5472 0.0
C409 C 0.47417 0.07826 0.55912 0.0
C410 C 0.53611 0.09502 0.53615 0.0
C411 C 0.55334 0.13082 0.60986 0.0
O412 O 0.60791 0.08941 0.56083 0.0
O413 O 0.60615 0.12527 0.57479 0.0
O414 O 0.58794 0.10061 0.62066 0.0
O415 O 0.56789 0.06979 0.60235 0.0
O416 O 0.5705 0.06586 0.54583 0.0
O417 O 0.55038 0.04497 0.57004 0.0
O418 O 0.50898 0.08114 0.60516 0.0
O419 O 0.50687 0.05022 0.57743 0.0
O420 O 0.52601 0.07501 0.53909 0.0
O421 O 0.54645 0.10575 0.55717 0.0
O422 O 0.54124 0.11092 0.61174 0.0
O423 O 0.56769 0.13147 0.59352 0.0
H424 H 0.65627 0.09866 0.5517 0.0
H425 H 0.69029 0.09509 0.57832 0.0
H426 H 0.66333 0.12177 0.64545 0.0
H427 H 0.62911 0.12452 0.61877 0.0
H428 H 0.45545 0.0496 0.60581 0.0
H429 H 0.41978 0.05699 0.58546 0.0
H430 H 0.45398 0.09093 0.53072 0.0
H431 H 0.48928 0.08464 0.55191 0.0
Nd432 Nd 0.31715 0.34082 0.86147 0.0
Nd433 Nd 0.30039 0.33357 0.81539 0.0
C434 C 0.32767 0.34439 0.91146 0.0
C435 C 0.31648 0.3457 0.93402 0.0
C436 C 0.29325 0.34341 0.9318 0.0
C437 C 0.28304 0.3491 0.95323 0.0
C438 C 0.29602 0.35687 0.97707 0.0
C439 C 0.31918 0.35748 0.97939 0.0
C440 C 0.32934 0.35201 0.95793 0.0
C441 C 0.33022 0.38168 0.84089 0.0
C442 C 0.26455 0.34664 0.84931 0.0
C443 C 0.29308 0.33175 0.76554 0.0
C444 C 0.30278 0.32033 0.74458 0.0
C445 C 0.31023 0.33318 0.72614 0.0
C446 C 0.32007 0.32276 0.70638 0.0
C447 C 0.32234 0.29924 0.70466 0.0
C448 C 0.31539 0.28662 0.72366 0.0
C449 C 0.30586 0.29713 0.74358 0.0
C450 C 0.28711 0.2921 0.8348 0.0
C451 C 0.35291 0.32632 0.82699 0.0
O452 O 0.32353 0.32466 0.89616 0.0
O453 O 0.32759 0.36214 0.89939 0.0
O454 O 0.34345 0.37011 0.85254 0.0
O455 O 0.3104 0.37035 0.83824 0.0
O456 O 0.27952 0.34095 0.86605 0.0
O457 O 0.27009 0.3489 0.82676 0.0
O458 O 0.30657 0.3485 0.78055 0.0
O459 O 0.28094 0.31832 0.77791 0.0
O460 O 0.2743 0.30293 0.82149 0.0
O461 O 0.30685 0.30389 0.83874 0.0
O462 O 0.3367 0.32822 0.80934 0.0
O463 O 0.34904 0.32853 0.85067 0.0
H464 H 0.28316 0.33829 0.91341 0.0
H465 H 0.26517 0.34848 0.951 0.0
H466 H 0.32966 0.36383 0.99744 0.0
H467 H 0.34732 0.35393 0.95981 0.0
H468 H 0.30841 0.35126 0.72701 0.0
H469 H 0.32556 0.33302 0.69223 0.0
H470 H 0.31654 0.26837 0.7227 0.0
H471 H 0.30067 0.28701 0.75798 0.0
Nd472 Nd 0.04997 0.11139 0.60546 0.0
Nd473 Nd 0.05908 0.06741 0.5806 0.0
C474 C 0.03657 0.15027 0.62202 0.0
C475 C 0.04389 0.17256 0.61417 0.0
C476 C 0.04038 0.19331 0.62792 0.0
C477 C 0.05049 0.21453 0.62231 0.0
C478 C 0.06445 0.21501 0.60324 0.0
C479 C 0.06748 0.19414 0.58917 0.0
C480 C 0.05722 0.17308 0.59456 0.0
C481 C 0.08925 0.11543 0.58553 0.0
C482 C 0.03008 0.09397 0.54444 0.0
C483 C 0.07543 0.03063 0.56302 0.0
C484 C 0.07664 1.00919 0.57331 0.0
C485 C 0.07942 0.98925 0.55748 0.0
C486 C 0.07723 0.96797 0.56637 0.0
C487 C 0.07212 0.96653 0.59112 0.0
C488 C 0.07004 0.98677 0.60717 0.0
C489 C 0.07223 1.00797 0.59828 0.0
C490 C 1.02014 0.06343 0.60159 0.0
C491 C 0.07828 0.08406 0.64196 0.0
O492 O 1.02455 0.13449 0.60424 0.0
O493 O 0.05256 0.14237 0.63461 0.0
O494 O 0.08675 0.12668 0.60712 0.0
O495 O 0.07127 0.10354 0.57452 0.0
O496 O 1.0262 0.10493 0.56644 0.0
O497 O 0.0458 0.08097 0.54449 0.0
O498 O 0.08783 0.04926 0.5764 0.0
O499 O 0.05516 0.03365 0.55568 0.0
O500 O 1.02232 0.05129 0.58028 0.0
O501 O 0.03822 0.07551 0.61179 0.0
O502 O 0.08176 0.07258 0.62009 0.0
O503 O 0.06292 0.0976 0.64183 0.0
H504 H 0.03042 0.19309 0.64337 0.0
H505 H 0.04801 0.23051 0.63337 0.0
H506 H 0.07793 0.19414 0.57415 0.0
H507 H 0.06029 0.15711 0.58396 0.0
H508 H 0.08249 0.99 0.53803 0.0
H509 H 0.07896 0.95257 0.55371 0.0
H510 H 0.06563 0.98607 0.62613 0.0
H511 H 0.06954 1.02323 0.61052 0.0
Nd512 Nd 0.32904 0.85134 0.84992 0.0
Nd513 Nd 0.28833 0.82536 0.82861 0.0
C514 C 0.3663 0.88134 0.85877 0.0
C515 C 0.38981 0.88133 0.85716 0.0
C516 C 0.40271 0.90107 0.85144 0.0
C517 C 0.42569 0.90255 0.853 0.0
C518 C 0.43601 0.88438 0.8607 0.0
C519 C 0.42274 0.86395 0.86473 0.0
C520 C 0.39976 0.86236 0.86278 0.0
C521 C 0.30309 0.8432 0.88749 0.0
C522 C 0.33 0.79545 0.8416 0.0
C523 C 0.25109 0.79529 0.81911 0.0
C524 C 0.22737 0.79486 0.81971 0.0
C525 C 0.21467 0.77526 0.82601 0.0
C526 C 0.19158 0.77305 0.82327 0.0
C527 C 0.18096 0.79032 0.81383 0.0
C528 C 0.19394 0.8107 0.80921 0.0
C529 C 0.21702 0.81302 0.81231 0.0
C530 C 0.31446 0.83364 0.79122 0.0
C531 C 0.28729 0.88127 0.83735 0.0
O532 O 0.35311 0.87766 0.83708 0.0
O533 O 0.35814 0.87044 0.87625 0.0
O534 O 0.32375 0.84036 0.88874 0.0
O535 O 0.29662 0.84891 0.86634 0.0
O536 O 0.34292 0.8161 0.84549 0.0
O537 O 0.30813 0.79491 0.83745 0.0
O538 O 0.26376 0.79929 0.84116 0.0
O539 O 0.25968 0.80603 0.80177 0.0
O540 O 0.29385 0.83666 0.78995 0.0
O541 O 0.32076 0.8277 0.81229 0.0
O542 O 0.27439 0.86059 0.83299 0.0
O543 O 0.30915 0.88186 0.84177 0.0
H544 H 0.3951 0.91569 0.84671 0.0
H545 H 0.43545 0.9183 0.84928 0.0
H546 H 0.43012 0.84972 0.87096 0.0
H547 H 0.38991 0.84681 0.86688 0.0
H548 H 0.22255 0.76125 0.83206 0.0
H549 H 0.18203 0.75739 0.82748 0.0
H550 H 0.18633 0.82424 0.80165 0.0
H551 H 0.22668 0.82846 0.8077 0.0
Nd552 Nd 0.53053 0.08177 0.06208 0.0
Nd553 Nd 0.57796 0.08612 0.09222 0.0
C554 C 0.48982 0.08593 0.04403 0.0
C555 C 0.4687 0.07996 0.05342 0.0
C556 C 0.44869 0.07981 0.03795 0.0
C557 C 0.42853 0.07235 0.04632 0.0
C558 C 0.42824 0.06499 0.07026 0.0
C559 C 0.44842 0.06571 0.08592 0.0
C560 C 0.46851 0.07301 0.07747 0.0
C561 C 0.54363 0.04084 0.07168 0.0
C562 C 0.53809 0.0916 0.12498 0.0
C563 C 0.61821 0.0808 0.11052 0.0
C564 C 0.64002 0.08996 0.10453 0.0
C565 C 0.65901 0.08283 0.11581 0.0
C566 C 0.67994 0.09249 0.11093 0.0
C567 C 0.68204 0.10949 0.09485 0.0
C568 C 0.6628 0.11614 0.08311 0.0
C569 C 0.6419 0.10637 0.08787 0.0
C570 C 0.56543 0.12729 0.08276 0.0
C571 C 0.57031 0.07681 0.02914 0.0
O572 O 0.50381 0.10291 0.05829 0.0
O573 O 0.49912 0.06815 0.03637 0.0
O574 O 0.53022 0.04271 0.05177 0.0
O575 O 0.54729 0.05962 0.08687 0.0
O576 O 0.5261 0.09385 0.10357 0.0
O577 O 0.55748 0.08438 0.12517 0.0
O578 O 0.60559 0.06592 0.09233 0.0
O579 O 0.60769 0.09641 0.12121 0.0
O580 O 0.5797 0.12545 0.10194 0.0
O581 O 0.56124 0.1084 0.0677 0.0
O582 O 0.58259 0.07481 0.0505 0.0
O583 O 0.55065 0.0834 0.02895 0.0
H584 H 0.44869 0.08489 0.01922 0.0
H585 H 0.41322 0.07158 0.0337 0.0
H586 H 0.44867 0.06031 0.10452 0.0
H587 H 0.48392 0.07276 0.08947 0.0
H588 H 0.65766 0.07006 0.12859 0.0
H589 H 0.69448 0.08681 0.11993 0.0
H590 H 0.6639 0.12941 0.07092 0.0
H591 H 0.62723 0.11195 0.07901 0.0
Nd592 Nd 0.28549 0.31399 0.29727 0.0
Nd593 Nd 0.31421 0.34088 0.34421 0.0
C594 C 0.25374 0.29899 0.25884 0.0
C595 C 0.23006 0.29934 0.2619 0.0
C596 C 0.22121 0.31984 0.2602 0.0
C597 C 0.20413 0.32485 0.27412 0.0
C598 C 0.19574 0.3095 0.29007 0.0
C599 C 0.20205 0.28744 0.28833 0.0
C600 C 0.21883 0.28228 0.27408 0.0
C601 C 0.28277 0.2929 0.33937 0.0
C602 C 0.26723 0.35695 0.33045 0.0
C603 C 0.34155 0.35978 0.38502 0.0
C604 C 0.3658 0.36246 0.38354 0.0
C605 C 0.37687 0.3437 0.38763 0.0
C606 C 0.39315 0.33818 0.37265 0.0
C607 C 0.39857 0.35154 0.35377 0.0
C608 C 0.39086 0.37272 0.35336 0.0
C609 C 0.37493 0.37845 0.36862 0.0
C610 C 0.32575 0.35362 0.29905 0.0
C611 C 0.33219 0.29972 0.31134 0.0
O612 O 0.26645 0.31925 0.26101 0.0
O613 O 0.26331 0.28492 0.2716 0.0
O614 O 0.28362 0.2822 0.31689 0.0
O615 O 0.28314 0.31435 0.33961 0.0
O616 O 0.26345 0.33999 0.31089 0.0
O617 O 0.28518 0.36046 0.34743 0.0
O618 O 0.3313 0.33821 0.38237 0.0
O619 O 0.33053 0.37234 0.3713 0.0
O620 O 0.34003 0.35175 0.31805 0.0
O621 O 0.30652 0.349 0.30457 0.0
O622 O 0.32932 0.30839 0.33452 0.0
O623 O 0.31919 0.30324 0.29122 0.0
H624 H 0.22911 0.33316 0.25052 0.0
H625 H 0.19898 0.34165 0.2742 0.0
H626 H 0.19587 0.275 0.30008 0.0
H627 H 0.22483 0.26603 0.27534 0.0
H628 H 0.37067 0.33132 0.39945 0.0
H629 H 0.39928 0.32196 0.37359 0.0
H630 H 0.39532 0.38358 0.33929 0.0
H631 H 0.36739 0.39352 0.36558 0.0
Nd632 Nd 0.54986 0.6106 0.10306 0.0
Nd633 Nd 0.56199 0.56354 0.07625 0.0
C634 C 0.53255 0.6468 0.12003 0.0
C635 C 0.53295 0.66865 0.10993 0.0
C636 C 0.53483 0.68952 0.12657 0.0
C637 C 0.53947 0.71067 0.11765 0.0
C638 C 0.5424 0.7111 0.09201 0.0
C639 C 0.53988 0.69009 0.07528 0.0
C640 C 0.53526 0.66905 0.08418 0.0
C641 C 0.58959 0.61388 0.08436 0.0
C642 C 0.53152 0.59202 0.04074 0.0
C643 C 0.58096 0.52964 0.05715 0.0
C644 C 0.57977 0.50735 0.06644 0.0
C645 C 0.58111 0.48704 0.05025 0.0
C646 C 0.5756 0.46542 0.058 0.0
C647 C 0.56829 0.46393 0.08185 0.0
C648 C 0.56757 0.48449 0.09819 0.0
C649 C 0.57337 0.50594 0.09061 0.0
C650 C 0.5255 0.55498 0.10151 0.0
C651 C 0.57845 0.58163 0.13808 0.0
O652 O 0.52065 0.62838 0.10555 0.0
O653 O 0.55219 0.64332 0.12945 0.0
O654 O 0.58635 0.62699 0.10459 0.0
O655 O 0.57184 0.60121 0.07364 0.0
O656 O 0.53066 0.6067 0.06174 0.0
O657 O 0.54373 0.57523 0.04113 0.0
O658 O 0.5922 0.54757 0.07315 0.0
O659 O 0.56166 0.53338 0.04675 0.0
O660 O 0.533 0.5386 0.08818 0.0
O661 O 0.53714 0.57377 0.10019 0.0
O662 O 0.58353 0.57119 0.11638 0.0
O663 O 0.56238 0.59443 0.13795 0.0
H664 H 0.5336 0.68946 0.14661 0.0
H665 H 0.54126 0.72665 0.1309 0.0
H666 H 0.54253 0.68986 0.05557 0.0
H667 H 0.53455 0.65312 0.07118 0.0
H668 H 0.5856 0.48786 0.03134 0.0
H669 H 0.57653 0.44991 0.04507 0.0
H670 H 0.56149 0.4841 0.11638 0.0
H671 H 0.5717 0.52144 0.10318 0.0
Nd672 Nd 0.82856 0.35075 0.34304 0.0
Nd673 Nd 0.78724 0.32241 0.33876 0.0
C674 C 0.86926 0.37291 0.34306 0.0
C675 C 0.89207 0.36877 0.34706 0.0
C676 C 0.89673 0.34791 0.35453 0.0
C677 C 0.91841 0.34617 0.36411 0.0
C678 C 0.93553 0.36533 0.36642 0.0
C679 C 0.93094 0.38561 0.35726 0.0
C680 C 0.90928 0.38731 0.34768 0.0
C681 C 0.81002 0.35541 0.38765 0.0
C682 C 0.82869 0.29416 0.34559 0.0
C683 C 0.74655 0.3016 0.34147 0.0
C684 C 0.72397 0.30257 0.33021 0.0
C685 C 0.71755 0.32363 0.32537 0.0
C686 C 0.69669 0.32365 0.31189 0.0
C687 C 0.6823 0.30258 0.30282 0.0
C688 C 0.68862 0.28165 0.30819 0.0
C689 C 0.70932 0.28167 0.32186 0.0
C690 C 0.80424 0.31787 0.29318 0.0
C691 C 0.78709 0.37913 0.33503 0.0
O692 O 0.85666 0.36203 0.32229 0.0
O693 O 0.85921 0.37284 0.36321 0.0
O694 O 0.81903 0.37234 0.37731 0.0
O695 O 0.81088 0.33602 0.37451 0.0
O696 O 0.83993 0.31384 0.34088 0.0
O697 O 0.80793 0.29413 0.35017 0.0
O698 O 0.75697 0.31938 0.35793 0.0
O699 O 0.75907 0.29382 0.32536 0.0
O700 O 0.79381 0.30116 0.30267 0.0
O701 O 0.80475 0.33728 0.30706 0.0
O702 O 0.77526 0.35889 0.33743 0.0
O703 O 0.80854 0.37995 0.3333 0.0
H704 H 0.88346 0.33354 0.3544 0.0
H705 H 0.92161 0.33028 0.37084 0.0
H706 H 0.94376 0.40074 0.35914 0.0
H707 H 0.90576 0.40361 0.3423 0.0
H708 H 0.72884 0.33992 0.33135 0.0
H709 H 0.69213 0.33995 0.30774 0.0
H710 H 0.67765 0.26524 0.30151 0.0
H711 H 0.71417 0.26528 0.32524 0.0
Nd712 Nd 1.02919 0.56616 0.5586 0.0
Nd713 Nd 0.07667 0.58971 0.58477 0.0
C714 C 0.98722 0.55361 0.53926 0.0
C715 C 0.96571 0.55674 0.54672 0.0
C716 C 0.94669 0.54968 0.52875 0.0
C717 C 0.92575 0.54918 0.53644 0.0
C718 C 0.92372 0.55563 0.56225 0.0
C719 C 0.9429 0.56392 0.57997 0.0
C720 C 0.96383 0.56458 0.57219 0.0
C721 C 0.05913 0.53684 0.56407 0.0
C722 C 0.03683 0.58441 0.62036 0.0
C723 C 0.1163 0.60153 0.61184 0.0
C724 C 0.13849 0.61034 0.60676 0.0
C725 C 0.15658 0.61237 0.62579 0.0
C726 C 0.178 0.61996 0.62082 0.0
C727 C 0.1815 0.62554 0.5967 0.0
C728 C 0.16322 0.62356 0.57766 0.0
C729 C 0.14179 0.61594 0.58266 0.0
C730 C 0.05098 0.61806 0.56298 0.0
C731 C 0.06882 0.57426 0.5239 0.0
O732 O 0.9996 0.5721 0.53418 0.0
O733 O 0.99822 0.54099 0.55287 0.0
O734 O 0.04337 0.53389 0.54506 0.0
O735 O 0.05747 0.55379 0.58038 0.0
O736 O 1.02246 0.5751 0.59987 0.0
O737 O 0.05828 0.59027 0.61947 0.0
O738 O 0.10823 0.58028 0.60076 0.0
O739 O 0.10191 0.61579 0.61041 0.0
O740 O 0.07243 0.6205 0.56302 0.0
O741 O 0.04465 0.60225 0.57531 0.0
O742 O 0.08343 0.57714 0.5447 0.0
O743 O 0.0473 0.57402 0.52468 0.0
H744 H 0.94802 0.54354 0.50904 0.0
H745 H 0.9112 0.5424 0.52249 0.0
H746 H 0.9417 0.56904 0.59994 0.0
H747 H 0.97851 0.57021 0.58616 0.0
H748 H 0.15414 0.60801 0.64444 0.0
H749 H 0.1918 0.62169 0.63592 0.0
H750 H 0.16552 0.62759 0.55886 0.0
H751 H 0.12783 0.61423 0.56774 0.0
Nd752 Nd 0.81581 0.83741 0.35849 0.0
Nd753 Nd 0.7991 0.8319 0.31324 0.0
C754 C 0.82389 0.83833 0.40822 0.0
C755 C 0.81788 0.85264 0.42975 0.0
C756 C 0.82266 0.8474 0.45427 0.0
C757 C 0.81847 0.86215 0.47512 0.0
C758 C 0.80959 0.88232 0.47153 0.0
C759 C 0.8038 0.88684 0.44673 0.0
C760 C 0.8079 0.87203 0.42591 0.0
C761 C 0.8286 0.88011 0.34098 0.0
C762 C 0.76364 0.84568 0.34768 0.0
C763 C 0.79127 0.83136 0.26359 0.0
C764 C 0.80242 0.82329 0.24225 0.0
C765 C 0.80592 0.83733 0.2235 0.0
C766 C 0.81624 0.82973 0.2028 0.0
C767 C 0.82289 0.80781 0.20044 0.0
C768 C 0.82023 0.79427 0.21998 0.0
C769 C 0.81025 0.80206 0.24083 0.0
C770 C 0.7861 0.78967 0.33139 0.0
C771 C 0.85085 0.82297 0.32387 0.0
O772 O 0.80732 0.82459 0.39376 0.0
O773 O 0.8376 0.8492 0.39524 0.0
O774 O 0.84168 0.86858 0.35286 0.0
O775 O 0.80891 0.86832 0.33726 0.0
O776 O 0.77924 0.84152 0.36473 0.0
O777 O 0.76817 0.84589 0.32442 0.0
O778 O 0.80245 0.84917 0.27926 0.0
O779 O 0.78155 0.81546 0.27521 0.0
O780 O 0.77296 0.80137 0.31977 0.0
O781 O 0.8059 0.80115 0.33469 0.0
O782 O 0.83579 0.82845 0.30715 0.0
O783 O 0.84578 0.82162 0.34677 0.0
H784 H 0.83016 0.8323 0.45732 0.0
H785 H 0.82282 0.8582 0.49408 0.0
H786 H 0.79718 0.90241 0.44348 0.0
H787 H 0.80403 0.8761 0.40689 0.0
H788 H 0.80041 0.85403 0.22472 0.0
H789 H 0.81841 0.84071 0.18829 0.0
H790 H 0.82482 0.77715 0.21864 0.0
H791 H 0.80818 0.79119 0.25549 0.0
Nd792 Nd 0.81131 0.35727 0.85205 0.0
Nd793 Nd 0.80312 0.31389 0.82482 0.0
C794 C 0.81492 0.39768 0.88163 0.0
C795 C 0.82134 0.42176 0.87771 0.0
C796 C 0.81076 0.43051 0.85723 0.0
C797 C 0.81894 0.4525 0.85207 0.0
C798 C 0.83804 0.46591 0.86703 0.0
C799 C 0.84832 0.45717 0.88774 0.0
C800 C 0.83993 0.43539 0.89313 0.0
C801 C 0.8514 0.34521 0.83939 0.0
C802 C 0.80413 0.35639 0.79261 0.0
C803 C 0.79907 0.2732 0.79569 0.0
C804 C 0.78832 0.25039 0.7997 0.0
C805 C 0.79551 0.23024 0.78918 0.0
C806 C 0.7861 0.20866 0.79453 0.0
C807 C 0.76943 0.2071 0.81051 0.0
C808 C 0.76222 0.2274 0.82085 0.0
C809 C 0.77166 0.24885 0.81558 0.0
C810 C 0.76293 0.32622 0.83694 0.0
C811 C 0.80943 0.31483 0.88464 0.0
O812 O 0.796 0.3863 0.86937 0.0
O813 O 0.83082 0.38532 0.88119 0.0
O814 O 0.84445 0.36435 0.83549 0.0
O815 O 0.83629 0.33213 0.84748 0.0
O816 O 0.80119 0.36845 0.814 0.0
O817 O 0.80998 0.33581 0.79288 0.0
O818 O 0.81684 0.28226 0.81173 0.0
O819 O 0.78577 0.28809 0.79198 0.0
O820 O 0.76981 0.30717 0.8411 0.0
O821 O 0.77821 0.33911 0.82894 0.0
O822 O 0.8109 0.30193 0.86316 0.0
O823 O 0.80571 0.33619 0.88462 0.0
H824 H 0.79653 0.42019 0.84481 0.0
H825 H 0.81051 0.45883 0.83616 0.0
H826 H 0.86337 0.46674 0.89929 0.0
H827 H 0.84851 0.42879 0.90877 0.0
H828 H 0.80857 0.23122 0.77716 0.0
H829 H 0.7921 0.19328 0.78651 0.0
H830 H 0.74915 0.22673 0.83286 0.0
H831 H 0.76598 0.26422 0.82405 0.0
Nd832 Nd 0.78508 0.81284 0.79809 0.0
Nd833 Nd 0.81621 0.8415 0.84249 0.0
C834 C 0.75096 0.79618 0.76283 0.0
C835 C 0.72787 0.79819 0.76749 0.0
C836 C 0.72016 0.81935 0.76613 0.0
C837 C 0.70434 0.82583 0.78127 0.0
C838 C 0.69609 0.81132 0.79809 0.0
C839 C 0.70097 0.78867 0.79615 0.0
C840 C 0.71652 0.78205 0.7807 0.0
C841 C 0.78643 0.79344 0.84146 0.0
C842 C 0.769 0.85741 0.83096 0.0
C843 C 0.84489 0.86209 0.88167 0.0
C844 C 0.86909 0.86462 0.88007 0.0
C845 C 0.88056 0.84678 0.8864 0.0
C846 C 0.898 0.84134 0.87333 0.0
C847 C 0.90429 0.8538 0.85393 0.0
C848 C 0.89558 0.87417 0.85106 0.0
C849 C 0.8783 0.87972 0.8643 0.0
C850 C 0.8253 0.85167 0.7955 0.0
C851 C 0.83192 0.79819 0.81013 0.0
O852 O 0.76424 0.81553 0.7619 0.0
O853 O 0.76068 0.78306 0.77678 0.0
O854 O 0.78606 0.78209 0.81899 0.0
O855 O 0.78581 0.81469 0.84106 0.0
O856 O 0.76417 0.83976 0.8122 0.0
O857 O 0.78764 0.8614 0.84681 0.0
O858 O 0.83475 0.84063 0.88041 0.0
O859 O 0.8337 0.87388 0.86714 0.0
O860 O 0.84037 0.85035 0.81398 0.0
O861 O 0.80643 0.84768 0.80233 0.0
O862 O 0.83102 0.80882 0.8332 0.0
O863 O 0.81801 0.80096 0.79033 0.0
H864 H 0.72813 0.83203 0.75572 0.0
H865 H 0.70025 0.84312 0.78166 0.0
H866 H 0.69476 0.77692 0.8086 0.0
H867 H 0.72166 0.76536 0.78175 0.0
H868 H 0.87424 0.83512 0.8989 0.0
H869 H 0.90498 0.82598 0.87659 0.0
H870 H 0.90016 0.88434 0.83648 0.0
H871 H 0.87027 0.89401 0.85939 0.0
Nd872 Nd 0.57286 0.60676 0.59293 0.0
Nd873 Nd 0.54438 0.5667 0.58486 0.0
C874 C 0.59925 0.64749 0.60205 0.0
C875 C 0.59732 0.66767 0.58859 0.0
C876 C 0.57765 0.67732 0.58704 0.0
C877 C 0.57447 0.69376 0.57099 0.0
C878 C 0.59087 0.70101 0.5561 0.0
C879 C 0.61076 0.69177 0.55813 0.0
C880 C 0.61393 0.67528 0.57418 0.0
C881 C 0.57256 0.58741 0.5421 0.0
C882 C 0.52367 0.61082 0.57061 0.0
C883 C 0.51781 0.52608 0.57624 0.0
C884 C 0.5181 0.50724 0.59198 0.0
C885 C 0.52023 0.48482 0.58097 0.0
C886 C 0.52332 0.46772 0.59627 0.0
C887 C 0.52445 0.47274 0.62294 0.0
C888 C 0.52194 0.49509 0.63387 0.0
C889 C 0.51882 0.51211 0.61861 0.0
C890 C 0.54452 0.58705 0.63544 0.0
C891 C 0.59358 0.56261 0.60732 0.0
O892 O 0.58388 0.64178 0.6161 0.0
O893 O 0.60401 0.6294 0.58831 0.0
O894 O 0.56839 0.60789 0.54973 0.0
O895 O 0.57271 0.57616 0.56091 0.0
O896 O 0.54171 0.6221 0.58495 0.0
O897 O 0.52173 0.58823 0.5636 0.0
O898 O 0.5351 0.53034 0.56451 0.0
O899 O 0.51183 0.54511 0.58655 0.0
O900 O 0.54903 0.56658 0.62854 0.0
O901 O 0.544 0.59749 0.61609 0.0
O902 O 0.57533 0.55113 0.59362 0.0
O903 O 0.59579 0.58528 0.61363 0.0
H904 H 0.56435 0.67163 0.59758 0.0
H905 H 0.55881 0.70021 0.56967 0.0
H906 H 0.62387 0.69718 0.5472 0.0
H907 H 0.62912 0.66794 0.57474 0.0
H908 H 0.5201 0.48072 0.56058 0.0
H909 H 0.52545 0.45076 0.58725 0.0
H910 H 0.5224 0.49948 0.65428 0.0
H911 H 0.5174 0.52924 0.62783 0.0
Nd912 Nd 0.0747 0.59814 0.07366 0.0
Nd913 Nd 0.03369 0.57633 0.07783 0.0
C914 C 0.11524 0.61332 0.06437 0.0
C915 C 0.13664 0.61037 0.07745 0.0
C916 C 0.15592 0.6139 0.0659 0.0
C917 C 0.176 0.6097 0.07802 0.0
C918 C 0.17695 0.60194 0.10184 0.0
C919 C 0.15758 0.59873 0.11343 0.0
C920 C 0.13759 0.60276 0.10124 0.0
C921 C 0.0747 0.57992 0.119 0.0
C922 C 0.06073 0.5452 0.0477 0.0
C923 C 0.99432 0.55902 0.08848 0.0
C924 C 0.97201 0.56232 0.07866 0.0
C925 C 0.96854 0.58348 0.07094 0.0
C926 C 0.94765 0.58584 0.0594 0.0
C927 C 0.93004 0.56694 0.05494 0.0
C928 C 0.93372 0.54573 0.0625 0.0
C929 C 0.95456 0.54347 0.07435 0.0
C930 C 0.03261 0.59386 0.03207 0.0
C931 C 0.04771 0.62996 0.10362 0.0
O932 O 0.10301 0.59426 0.052 0.0
O933 O 0.1039 0.62607 0.07789 0.0
O934 O 0.08333 0.60081 0.11723 0.0
O935 O 0.06581 0.56928 0.0975 0.0
O936 O 0.06936 0.56562 0.04283 0.0
O937 O 0.04915 0.54446 0.06672 0.0
O938 O 1.00711 0.57699 0.10253 0.0
O939 O 1.00453 0.54827 0.07169 0.0
O940 O 1.02292 0.57364 0.03495 0.0
O941 O 0.04258 0.60482 0.05314 0.0
O942 O 0.03771 0.60961 0.10733 0.0
O943 O 0.06065 0.6308 0.0858 0.0
H944 H 0.15535 0.6195 0.04738 0.0
H945 H 0.19064 0.61196 0.06849 0.0
H946 H 0.15784 0.59301 0.13187 0.0
H947 H 0.12284 0.59968 0.11033 0.0
H948 H 0.98201 0.59809 0.07359 0.0
H949 H 0.94529 0.60253 0.05418 0.0
H950 H 0.92059 0.53075 0.05894 0.0
H951 H 0.95719 0.52688 0.07965 0.0
H952 H 0.07373 0.27413 0.92218 0.0
H953 H 0.0696 0.3241 0.98765 0.0
H954 H 0.08057 0.24568 0.95014 0.0
H955 H 0.07554 0.29559 0.01548 0.0
H956 H 0.10755 0.24796 0.06201 0.0
H957 H 0.1028 0.2759 0.03307 0.0
H958 H 0.06371 0.22131 0.97644 0.0
H959 H 0.06987 0.19316 1.00456 0.0
C960 C 0.07408 0.27894 0.94252 0.0
C961 C 0.07114 0.30132 0.9527 0.0
C962 C 0.0779 0.26262 0.95858 0.0
C963 C 0.07871 0.26829 0.98517 0.0
C964 C 0.0755 0.29067 0.99521 0.0
C965 C 0.07186 0.30699 0.9792 0.0
C966 C 0.09829 0.24182 0.04322 0.0
C967 C 0.08904 0.21824 0.03579 0.0
C968 C 0.09525 0.25794 0.02671 0.0
C969 C 0.08269 0.25097 1.0024 0.0
C970 C 0.07366 0.22735 0.99486 0.0
C971 C 0.07692 0.21121 1.01124 0.0
H972 H 0.126 0.85731 0.30436 0.0
H973 H 0.1171 0.78276 0.28752 0.0
H974 H 0.16582 0.8588 0.31713 0.0
H975 H 0.15663 0.78397 0.29835 0.0
H976 H 0.22664 0.78547 0.33233 0.0
H977 H 0.18726 0.7865 0.3248 0.0
H978 H 0.20169 0.85767 0.31161 0.0
H979 H 0.24159 0.85676 0.32124 0.0
C980 C 0.13252 0.84117 0.30343 0.0
C981 C 0.118 0.81988 0.29529 0.0
C982 C 0.15565 0.84198 0.31053 0.0
C983 C 0.16532 0.82152 0.30935 0.0
C984 C 0.15054 0.8003 0.30071 0.0
C985 C 0.12748 0.79951 0.29415 0.0
C986 C 0.22145 0.80156 0.32836 0.0
C987 C 0.23755 0.82108 0.32779 0.0
C988 C 0.19851 0.80208 0.32343 0.0
C989 C 0.19037 0.822 0.31673 0.0
C990 C 0.20663 0.84188 0.31677 0.0
C991 C 0.22978 0.84147 0.3224 0.0
H992 H 0.56431 0.93808 0.42197 0.0
H993 H 0.5727 0.90497 0.48897 0.0
H994 H 0.56287 0.97466 0.44907 0.0
H995 H 0.57173 0.94132 0.51588 0.0
H996 H 0.54302 1.00128 0.55423 0.0
H997 H 0.54484 0.96575 0.52607 0.0
H998 H 0.5854 1.00537 0.48086 0.0
H999 H 0.58314 0.04106 0.50875 0.0
C1000 C 0.56603 0.93867 0.44245 0.0
C1001 C 0.56848 0.91864 0.45331 0.0
C1002 C 0.56529 0.95961 0.45798 0.0
C1003 C 0.56698 0.96085 0.48464 0.0
C1004 C 0.56993 0.94088 0.49542 0.0
C1005 C 0.57065 0.92006 0.47996 0.0
C1006 C 0.55236 1.00242 0.53831 0.0
C1007 C 0.56305 0.02395 0.53381 0.0
C1008 C 0.55349 0.98204 0.52222 0.0
C1009 C 0.56539 0.9827 0.50129 0.0
C1010 C 0.57593 1.00428 0.49667 0.0
C1011 C 0.57478 0.0247 0.51277 0.0
H1012 H 0.47015 0.2914 0.75768 0.0
H1013 H 0.49852 0.34076 0.82466 0.0
H1014 H 0.43292 0.29375 0.76828 0.0
H1015 H 0.46107 0.34352 0.8352 0.0
H1016 H 0.39147 0.32836 0.85987 0.0
H1017 H 0.42889 0.32548 0.84995 0.0
H1018 H 0.40442 0.31634 0.76962 0.0
H1019 H 0.36691 0.31882 0.77965 0.0
C1020 C 0.4685 0.30275 0.77481 0.0
C1021 C 0.48762 0.31575 0.79036 0.0
C1022 C 0.44694 0.30431 0.7808 0.0
C1023 C 0.44351 0.31892 0.80266 0.0
C1024 C 0.46271 0.33181 0.81837 0.0
C1025 C 0.48435 0.33031 0.81229 0.0
C1026 C 0.39397 0.32554 0.84004 0.0
C1027 C 0.37585 0.32363 0.82061 0.0
C1028 C 0.41566 0.32412 0.8343 0.0
C1029 C 0.42014 0.32063 0.80888 0.0
C1030 C 0.40193 0.31866 0.78945 0.0
C1031 C 0.38024 0.3202 0.79521 0.0
H1032 H 0.05988 0.8436 0.66528 0.0
H1033 H 0.99454 0.84539 0.62622 0.0
H1034 H 0.07503 0.87765 0.64773 0.0
H1035 H 1.00959 0.87982 0.60921 0.0
H1036 H 0.04656 0.92747 0.56391 0.0
H1037 H 0.03456 0.89114 0.57908 0.0
H1038 H 0.07246 0.91881 0.65297 0.0
H1039 H 0.08533 0.95476 0.63739 0.0
C1040 C 0.04877 0.85135 0.65302 0.0
C1041 C 1.02607 0.842 0.64709 0.0
C1042 C 0.05742 0.87084 0.64307 0.0
C1043 C 0.04348 0.88127 0.62711 0.0
C1044 C 1.02076 0.87187 0.62116 0.0
C1045 C 1.01212 0.85233 0.63106 0.0
C1046 C 0.05279 0.92553 0.58317 0.0
C1047 C 0.06689 0.94383 0.59951 0.0
C1048 C 0.04566 0.90491 0.59194 0.0
C1049 C 0.05244 0.90231 0.61722 0.0
C1050 C 0.06713 0.92032 0.63332 0.0
C1051 C 0.07434 0.94091 0.6245 0.0
H1052 H 0.54871 0.91137 0.97026 0.0
H1053 H 0.57336 0.87051 0.90972 0.0
H1054 H 0.51542 0.91268 0.94152 0.0
H1055 H 0.54034 0.87255 0.88052 0.0
H1056 H 0.464 0.85264 0.85365 0.0
H1057 H 0.50172 0.85595 0.87514 0.0
H1058 H 0.50112 0.92774 0.90497 0.0
H1059 H 0.46294 0.92394 0.88526 0.0
C1060 C 0.54714 0.90301 0.95066 0.0
C1061 C 0.56345 0.89074 0.94218 0.0
C1062 C 0.52819 0.90394 0.93411 0.0
C1063 C 0.52534 0.89282 0.90869 0.0
C1064 C 0.54201 0.88109 0.90006 0.0
C1065 C 0.56089 0.87998 0.91672 0.0
C1066 C 0.47202 0.86918 0.86461 0.0
C1067 C 0.46035 0.88788 0.8681 0.0
C1068 C 0.49373 0.87117 0.87666 0.0
C1069 C 0.50422 0.89202 0.89208 0.0
C1070 C 0.49325 0.91132 0.89365 0.0
C1071 C 0.47146 0.90922 0.88195 0.0
H1072 H 0.47071 0.20098 0.14725 0.0
H1073 H 0.49326 0.23965 0.08929 0.0
H1074 H 0.48594 0.16781 0.1285 0.0
H1075 H 0.50901 0.20672 0.07101 0.0
H1076 H 0.5374 0.14054 0.04585 0.0
H1077 H 0.50819 0.16433 0.05267 0.0
H1078 H 0.52725 0.17126 0.13407 0.0
H1079 H 0.55592 0.14798 0.12735 0.0
C1080 C 0.47805 0.20203 0.12987 0.0
C1081 C 0.48125 0.22297 0.12001 0.0
C1082 C 0.48688 0.18312 0.11923 0.0
C1083 C 0.49917 0.18503 0.09879 0.0
C1084 C 0.49964 0.20482 0.08679 0.0
C1085 C 0.49061 0.22369 0.0973 0.0
C1086 C 0.53527 0.14737 0.0651 0.0
C1087 C 0.54898 0.14273 0.08604 0.0
C1088 C 0.51854 0.16071 0.06899 0.0
C1089 C 0.5152 0.16919 0.09387 0.0
C1090 C 0.52901 0.16445 0.11468 0.0
C1091 C 0.54577 0.1515 0.11081 0.0
H1092 H 0.18383 0.36975 0.44218 0.0
H1093 H 0.11668 0.33532 0.41335 0.0
H1094 H 0.19553 0.35682 0.40117 0.0
H1095 H 0.1281 0.32311 0.37241 0.0
H1096 H 0.16254 0.28526 0.31153 0.0
H1097 H 0.14992 0.29731 0.35208 0.0
H1098 H 0.19022 0.36496 0.35793 0.0
H1099 H 0.20351 0.35256 0.31842 0.0
C1100 C 0.17165 0.35937 0.42713 0.0
C1101 C 0.14943 0.35346 0.4309 0.0
C1102 C 0.17824 0.35215 0.40363 0.0
C1103 C 0.16266 0.33902 0.38356 0.0
C1104 C 0.14053 0.33292 0.38758 0.0
C1105 C 0.13399 0.34001 0.41102 0.0
C1106 C 0.16863 0.30273 0.3214 0.0
C1107 C 0.18427 0.31789 0.31167 0.0
C1108 C 0.16131 0.30967 0.34457 0.0
C1109 C 0.16938 0.33197 0.35838 0.0
C1110 C 0.18408 0.34749 0.34806 0.0
C1111 C 0.19141 0.3405 0.32504 0.0
H1112 H 0.93221 0.09875 0.22974 0.0
H1113 H 0.98799 0.09481 0.28477 0.0
H1114 H 0.95632 0.098 0.19602 0.0
H1115 H 1.01199 0.09394 0.25134 0.0
H1116 H 0.04541 0.06863 0.18147 0.0
H1117 H 1.02162 0.07119 0.21507 0.0
H1118 H 0.98666 0.11784 0.17687 0.0
H1119 H 1.01078 0.11533 0.14324 0.0
C1120 C 0.94959 0.09769 0.23478 0.0
C1121 C 0.95782 0.09676 0.2604 0.0
C1122 C 0.96362 0.0974 0.21529 0.0
C1123 C 0.98652 0.0958 0.22036 0.0
C1124 C 0.99461 0.09486 0.24604 0.0
C1125 C 0.9807 0.09548 0.2655 0.0
C1126 C 0.03289 0.07975 0.18031 0.0
C1127 C 0.03053 0.09197 0.15941 0.0
C1128 C 1.01906 0.08127 0.19981 0.0
C1129 C 1.00178 0.09477 0.1993 0.0
C1130 C 0.99944 0.10706 0.17834 0.0
C1131 C 1.01358 0.10584 0.15898 0.0
H1132 H 0.3736 0.79999 0.53625 0.0
H1133 H 0.33953 0.73188 0.5006 0.0
H1134 H 0.36095 0.81594 0.49807 0.0
H1135 H 0.32626 0.7477 0.46338 0.0
H1136 H 0.32572 0.77567 0.38964 0.0
H1137 H 0.33914 0.76195 0.42817 0.0
H1138 H 0.32882 0.82511 0.47312 0.0
H1139 H 0.31608 0.83944 0.43397 0.0
C1140 C 0.36348 0.78846 0.52028 0.0
C1141 C 0.35782 0.76465 0.52132 0.0
C1142 C 0.35602 0.7976 0.49852 0.0
C1143 C 0.34267 0.78311 0.47748 0.0
C1144 C 0.33692 0.75936 0.47884 0.0
C1145 C 0.34449 0.75026 0.50033 0.0
C1146 C 0.32613 0.78669 0.40768 0.0
C1147 C 0.31962 0.80863 0.40862 0.0
C1148 C 0.33378 0.77872 0.42991 0.0
C1149 C 0.33493 0.79229 0.45391 0.0
C1150 C 0.32834 0.81426 0.45497 0.0
C1151 C 0.32078 0.82236 0.43255 0.0
H1152 H 0.5899 1.00964 0.75838 0.0
H1153 H 0.65596 0.03806 0.74535 0.0
H1154 H 0.5742 1.02308 0.71961 0.0
H1155 H 0.64042 0.05131 0.70721 0.0
H1156 H 0.6056 0.10057 0.66619 0.0
H1157 H 0.61746 0.08293 0.70284 0.0
H1158 H 0.5743 1.01864 0.66977 0.0
H1159 H 0.56229 0.03648 0.63253 0.0
C1160 C 0.60105 1.01834 0.74704 0.0
C1161 C 0.62414 1.02287 0.75497 0.0
C1162 C 0.59208 0.02601 0.72491 0.0
C1163 C 0.60609 0.03852 0.71063 0.0
C1164 C 0.62918 0.04205 0.71804 0.0
C1165 C 0.63809 0.03431 0.73986 0.0
C1166 C 0.59849 0.08271 0.6667 0.0
C1167 C 0.5832 0.06984 0.64636 0.0
C1168 C 0.60536 0.07257 0.68768 0.0
C1169 C 0.59704 0.04931 0.689 0.0
C1170 C 0.58099 0.0366 0.66919 0.0
C1171 C 0.5742 0.04676 0.64792 0.0
H1172 H 0.30869 0.47673 0.06996 0.0
H1173 H 0.28815 0.43296 0.12455 0.0
H1174 H 0.29499 0.4447 0.03548 0.0
H1175 H 0.27433 0.40072 0.08984 0.0
H1176 H 0.30315 0.35143 0.02701 0.0
H1177 H 0.29802 0.37926 0.06294 0.0
H1178 H 0.26263 0.41613 1.0114 0.0
H1179 H 0.26829 0.38865 0.9754 0.0
C1180 C 0.30073 0.4604 0.07448 0.0
C1181 C 0.29967 0.45715 0.09982 0.0
C1182 C 0.29266 0.44213 0.05474 0.0
C1183 C 0.28355 0.42027 0.06006 0.0
C1184 C 0.28126 0.41744 0.08532 0.0
C1185 C 0.28915 0.43584 0.10509 0.0
C1186 C 0.29357 0.36499 0.0235 0.0
C1187 C 0.28645 0.36817 0.99851 0.0
C1188 C 0.29048 0.38082 0.04405 0.0
C1189 C 0.28021 0.39999 0.03981 0.0
C1190 C 0.27079 0.40158 0.01505 0.0
C1191 C 0.27387 0.38574 0.9945 0.0
H1192 H 0.92646 0.10427 0.41841 0.0
H1193 H 0.98605 0.10224 0.38325 0.0
H1194 H 0.94743 0.10258 0.45976 0.0
H1195 H 1.00713 0.10096 0.42448 0.0
H1196 H 0.03459 0.07411 0.49614 0.0
H1197 H 1.0135 0.07691 0.45556 0.0
H1198 H 0.97465 0.12194 0.49465 0.0
H1199 H 0.99562 0.11872 0.5355 0.0
C1200 C 0.94409 0.10367 0.41949 0.0
C1201 C 0.95444 0.1034 0.39726 0.0
C1202 C 0.95624 0.1028 0.44336 0.0
C1203 C 0.97919 0.10151 0.44588 0.0
C1204 C 0.98952 0.10153 0.4236 0.0
C1205 C 0.97739 0.10247 0.3998 0.0
C1206 C 1.02158 0.08467 0.49622 0.0
C1207 C 1.01698 0.09619 0.51942 0.0
C1208 C 1.00947 0.08642 0.47271 0.0
C1209 C 0.99219 0.09977 0.47135 0.0
C1210 C 0.98755 0.11127 0.49461 0.0
C1211 C 0.99974 0.10954 0.51819 0.0
H1212 H 0.39268 0.78123 0.6741 0.0
H1213 H 0.325 0.77485 0.63785 0.0
H1214 H 0.38248 0.80067 0.71348 0.0
H1215 H 0.31458 0.79302 0.67698 0.0
H1216 H 0.30226 0.84175 0.74291 0.0
H1217 H 0.31642 0.82745 0.7041 0.0
H1218 H 0.36303 0.79492 0.74819 0.0
H1219 H 0.34955 0.81032 0.78706 0.0
C1220 C 0.37569 0.78409 0.6745 0.0
C1221 C 0.35975 0.77674 0.65274 0.0
C1222 C 0.36973 0.79503 0.69715 0.0
C1223 C 0.34766 0.7987 0.69857 0.0
C1224 C 0.33184 0.79121 0.67667 0.0
C1225 C 0.33782 0.78057 0.65412 0.0
C1226 C 0.31579 0.83189 0.74431 0.0
C1227 C 0.32475 0.82719 0.76804 0.0
C1228 C 0.32379 0.82341 0.722 0.0
C1229 C 0.34075 0.80966 0.72274 0.0
C1230 C 0.35018 0.80561 0.7467 0.0
C1231 C 0.34236 0.81438 0.76906 0.0
H1232 H 0.59542 0.04737 0.87162 0.0
H1233 H 0.64029 1.0127 0.91519 0.0
H1234 H 0.58094 0.06126 0.91035 0.0
H1235 H 0.62524 0.02571 0.95375 0.0
H1236 H 0.61292 0.07339 0.02185 0.0
H1237 H 0.62631 0.06001 0.98235 0.0
H1238 H 0.55948 0.05075 0.94222 0.0
H1239 H 0.54629 0.06515 0.98166 0.0
C1240 C 0.60188 0.04237 0.88943 0.0
C1241 C 0.61897 0.02897 0.89041 0.0
C1242 C 0.59355 0.05027 0.91163 0.0
C1243 C 0.60203 0.04478 0.93526 0.0
C1244 C 0.61865 0.03072 0.93601 0.0
C1245 C 0.6271 1.02301 0.91386 0.0
C1246 C 0.60112 0.06869 1.00453 0.0
C1247 C 0.57857 0.07037 1.00481 0.0
C1248 C 0.60875 0.06079 0.98191 0.0
C1249 C 0.59394 0.05402 0.9591 0.0
C1250 C 0.57141 0.05606 0.95934 0.0
C1251 C 0.56383 0.06429 0.98195 0.0
H1252 H 0.37193 0.45327 0.20259 0.0
H1253 H 0.31344 0.47328 0.23146 0.0
H1254 H 0.36963 0.42082 0.22654 0.0
H1255 H 0.3113 0.44087 0.25561 0.0
H1256 H 0.29639 0.36475 0.26301 0.0
H1257 H 0.30226 0.39741 0.23976 0.0
H1258 H 0.3717 0.41187 0.27186 0.0
H1259 H 0.36583 0.37919 0.29536 0.0
C1260 C 0.35888 0.451 0.2145 0.0
C1261 C 0.34276 0.4656 0.21514 0.0
C1262 C 0.35759 0.43247 0.22815 0.0
C1263 C 0.34012 0.42828 0.24248 0.0
C1264 C 0.32471 0.44363 0.24426 0.0
C1265 C 0.32607 0.46226 0.23072 0.0
C1266 C 0.31301 0.37462 0.2647 0.0
C1267 C 0.33066 0.36963 0.28104 0.0
C1268 C 0.31628 0.39342 0.25166 0.0
C1269 C 0.33729 0.40733 0.2546 0.0
C1270 C 0.35532 0.40138 0.2695 0.0
C1271 C 0.35201 0.38262 0.28274 0.0
H1272 H 0.17283 0.95376 0.10893 0.0
H1273 H 0.21505 1.01164 0.08821 0.0
H1274 H 0.1449 0.97828 0.11673 0.0
H1275 H 0.1868 0.03591 0.09474 0.0
H1276 H 0.13749 0.07987 0.12394 0.0
H1277 H 0.16744 0.05644 0.12365 0.0
H1278 H 0.11878 0.9949 0.09436 0.0
H1279 H 0.08952 1.01761 0.09595 0.0
C1280 C 0.17601 0.97165 0.10575 0.0
C1281 C 0.19602 0.98068 0.09775 0.0
C1282 C 0.16 0.98577 0.11017 0.0
C1283 C 0.16347 1.00919 0.10631 0.0
C1284 C 0.18361 1.01817 0.09836 0.0
C1285 C 0.19971 1.00412 0.09426 0.0
C1286 C 0.13329 0.06125 0.11818 0.0
C1287 C 0.11108 0.05066 0.11018 0.0
C1288 C 0.15043 0.04783 0.11763 0.0
C1289 C 0.1456 0.02364 0.109 0.0
C1290 C 0.12329 1.01324 0.10171 0.0
C1291 C 0.10637 0.02646 0.10247 0.0
H1292 H 0.70516 0.6813 0.03621 0.0
H1293 H 0.7067 0.6098 1.00606 0.0
H1294 H 0.67 0.66956 0.0512 0.0
H1295 H 0.67138 0.59791 0.02167 0.0
H1296 H 0.59689 0.59369 0.03774 0.0
H1297 H 0.63057 0.60202 0.01772 0.0
H1298 H 0.66232 0.64776 0.08644 0.0
H1299 H 0.62875 0.63991 0.10607 0.0
C1300 C 0.69781 0.66308 0.03256 0.0
C1301 C 0.70865 0.64639 0.02029 0.0
C1302 C 0.67779 0.65636 0.04127 0.0
C1303 C 0.66835 0.63281 0.03806 0.0
C1304 C 0.67845 0.61618 0.02439 0.0
C1305 C 0.69856 0.62296 0.0155 0.0
C1306 C 0.61119 0.60538 0.04851 0.0
C1307 C 0.61027 0.61654 0.0732 0.0
C1308 C 0.63039 0.61005 0.03713 0.0
C1309 C 0.64875 0.62587 0.05041 0.0
C1310 C 0.64812 0.63597 0.07559 0.0
C1311 C 0.62901 0.6314 0.08686 0.0
H1312 H 0.76047 0.52566 0.37063 0.0
H1313 H 0.69888 0.48834 0.32811 0.0
H1314 H 0.77655 0.48987 0.36658 0.0
H1315 H 0.71483 0.45265 0.32367 0.0
H1316 H 0.7425 0.38495 0.33428 0.0
H1317 H 0.72647 0.42066 0.33868 0.0
H1318 H 0.79194 0.46102 0.34402 0.0
H1319 H 0.80782 0.42527 0.33988 0.0
C1320 C 0.75023 0.50988 0.36034 0.0
C1321 C 0.72811 0.51051 0.34979 0.0
C1322 C 0.75961 0.48902 0.35779 0.0
C1323 C 0.74738 0.46746 0.34466 0.0
C1324 C 0.72518 0.46822 0.33425 0.0
C1325 C 0.71589 0.48908 0.33667 0.0
C1326 C 0.75358 0.40137 0.33622 0.0
C1327 C 0.7767 0.40156 0.33639 0.0
C1328 C 0.74426 0.42225 0.3387 0.0
C1329 C 0.75752 0.44464 0.34179 0.0
C1330 C 0.7807 0.44471 0.34203 0.0
C1331 C 0.78997 0.42384 0.33933 0.0
H1332 H 0.80854 0.49793 0.62764 0.0
H1333 H 0.79284 0.48634 0.54555 0.0
H1334 H 0.84241 0.52435 0.62469 0.0
H1335 H 0.82692 0.51198 0.5425 0.0
H1336 H 0.88437 0.56583 0.54146 0.0
H1337 H 0.84737 0.5508 0.55062 0.0
H1338 H 0.87713 0.51802 0.61058 0.0
H1339 H 0.9139 0.53344 0.60175 0.0
C1340 C 0.81224 0.50124 0.60901 0.0
C1341 C 0.79826 0.49002 0.5868 0.0
C1342 C 0.83162 0.51627 0.60732 0.0
C1343 C 0.83734 0.52017 0.58338 0.0
C1344 C 0.8228 0.50966 0.56126 0.0
C1345 C 0.80337 0.49479 0.56296 0.0
C1346 C 0.88289 0.55587 0.55697 0.0
C1347 C 0.90185 0.5507 0.57086 0.0
C1348 C 0.86179 0.54721 0.56215 0.0
C1349 C 0.85937 0.53307 0.58114 0.0
C1350 C 0.87843 0.52915 0.59608 0.0
C1351 C 0.89951 0.53796 0.59102 0.0
H1352 H 0.44777 0.23185 0.33667 0.0
H1353 H 0.3959 0.18032 0.29097 0.0
H1354 H 0.42475 0.26174 0.33095 0.0
H1355 H 0.37271 0.20989 0.28592 0.0
H1356 H 0.33965 0.27094 0.26918 0.0
H1357 H 0.36738 0.24494 0.26784 0.0
H1358 H 0.39147 0.27003 0.34742 0.0
H1359 H 0.36433 0.29568 0.34867 0.0
C1360 C 0.43156 0.22697 0.32524 0.0
C1361 C 0.4236 0.20378 0.31437 0.0
C1362 C 0.41834 0.24402 0.32204 0.0
C1363 C 0.39688 0.23816 0.30802 0.0
C1364 C 0.38927 0.21507 0.29648 0.0
C1365 C 0.4025 0.19808 0.2996 0.0
C1366 C 0.35113 0.27107 0.28619 0.0
C1367 C 0.34978 0.28532 0.309 0.0
C1368 C 0.36692 0.25616 0.28549 0.0
C1369 C 0.38167 0.25548 0.30752 0.0
C1370 C 0.38069 0.27036 0.32999 0.0
C1371 C 0.36495 0.28501 0.33072 0.0
H1372 H 0.33091 0.13156 0.47411 0.0
H1373 H 0.30085 0.09981 0.53294 0.0
H1374 H 0.36357 0.11342 0.48301 0.0
H1375 H 0.33365 0.08217 0.5422 0.0
H1376 H 0.39373 0.04603 0.5462 0.0
H1377 H 0.35851 0.05533 0.52753 0.0
H1378 H 0.39179 0.12387 0.52126 0.0
H1379 H 0.42673 0.11477 0.54006 0.0
C1380 C 0.33103 0.12017 0.48842 0.0
C1381 C 0.31354 0.11721 0.50302 0.0
C1382 C 0.34975 0.10997 0.49363 0.0
C1383 C 0.35119 0.09673 0.51352 0.0
C1384 C 0.33288 0.09218 0.52664 0.0
C1385 C 0.31413 0.10231 0.52137 0.0
C1386 C 0.39345 0.06306 0.54082 0.0
C1387 C 0.41294 0.07966 0.54452 0.0
C1388 C 0.37338 0.0683 0.53003 0.0
C1389 C 0.37255 0.09016 0.5227 0.0
C1390 C 0.39208 0.10664 0.52613 0.0
C1391 C 0.41207 0.10146 0.53697 0.0
H1392 H 0.7003 0.65862 0.34998 0.0
H1393 H 0.765 0.63841 0.35412 0.0
H1394 H 0.71652 0.69785 0.34599 0.0
H1395 H 0.78155 0.67791 0.34919 0.0
H1396 H 0.80919 0.75761 0.3543 0.0
H1397 H 0.79454 0.71784 0.36068 0.0
H1398 H 0.73011 0.72452 0.32335 0.0
H1399 H 0.74447 0.7638 0.31807 0.0
C1400 C 0.71811 0.66243 0.34993 0.0
C1401 C 0.73104 0.64471 0.35242 0.0
C1402 C 0.72763 0.68532 0.34731 0.0
C1403 C 0.75076 0.69202 0.34675 0.0
C1404 C 0.7638 0.67426 0.34957 0.0
C1405 C 0.7542 0.65122 0.35232 0.0
C1406 C 0.79187 0.7506 0.34754 0.0
C1407 C 0.77822 0.76456 0.33564 0.0
C1408 C 0.78331 0.72743 0.35109 0.0
C1409 C 0.76067 0.71703 0.34291 0.0
C1410 C 0.74734 0.73118 0.3308 0.0
C1411 C 0.75579 0.75413 0.32743 0.0
H1412 H 0.94004 0.57523 0.85509 0.0
H1413 H 0.88479 0.59471 0.8098 0.0
H1414 H 0.91548 0.54167 0.864 0.0
H1415 H 0.86022 0.56059 0.81839 0.0
H1416 H 0.84108 0.47739 0.81938 0.0
H1417 H 0.86116 0.51303 0.80882 0.0
H1418 H 0.87891 0.54008 0.88884 0.0
H1419 H 0.8579 0.50518 0.89964 0.0
C1420 C 0.92268 0.57218 0.84688 0.0
C1421 C 0.91419 0.58745 0.83185 0.0
C1422 C 0.90868 0.55313 0.85209 0.0
C1423 C 0.8861 0.54889 0.84197 0.0
C1424 C 0.87764 0.56374 0.82636 0.0
C1425 C 0.89161 0.58314 0.82153 0.0
C1426 C 0.84866 0.49119 0.83474 0.0
C1427 C 0.84806 0.48835 0.8604 0.0
C1428 C 0.86021 0.51146 0.82864 0.0
C1429 C 0.87157 0.52895 0.84809 0.0
C1430 C 0.87035 0.52658 0.87362 0.0
C1431 C 0.85849 0.50656 0.87973 0.0
H1432 H 0.04837 0.84629 0.18266 0.0
H1433 H 0.0459 0.89485 0.24997 0.0
H1434 H 0.04244 0.87589 0.15616 0.0
H1435 H 0.03924 0.92436 0.22341 0.0
H1436 H 0.04945 0.9785 0.17091 0.0
H1437 H 0.05632 0.94922 0.19734 0.0
H1438 H 1.01458 0.89652 0.14078 0.0
H1439 H 1.00898 0.9256 0.11345 0.0
C1440 C 0.04661 0.86334 0.1918 0.0
C1441 C 0.04772 0.8683 0.21842 0.0
C1442 C 0.04296 0.88026 0.17657 0.0
C1443 C 0.04022 0.90253 0.18758 0.0
C1444 C 0.04154 0.90751 0.21427 0.0
C1445 C 0.04529 0.89059 0.22953 0.0
C1446 C 0.04197 0.96063 0.16386 0.0
C1447 C 1.0288 0.95445 0.13983 0.0
C1448 C 0.04565 0.94385 0.17927 0.0
C1449 C 0.03604 0.92045 0.17125 0.0
C1450 C 1.02255 0.91431 0.14743 0.0
C1451 C 1.01905 0.93107 0.13188 0.0
H1452 H 0.9987 0.36315 0.84503 0.0
H1453 H 0.98445 0.32572 0.9067 0.0
H1454 H 0.95881 0.36173 0.83253 0.0
H1455 H 0.9448 0.32489 0.89496 0.0
H1456 H 0.87195 0.31125 0.85887 0.0
H1457 H 0.91175 0.31036 0.86839 0.0
H1458 H 0.92661 0.37573 0.84078 0.0
H1459 H 0.88692 0.37605 0.8306 0.0
C1460 C 0.98709 0.35453 0.85592 0.0
C1461 C 0.99508 0.34442 0.87682 0.0
C1462 C 0.964 0.35388 0.8489 0.0
C1463 C 0.94795 0.34318 0.86258 0.0
C1464 C 0.95613 0.33296 0.88342 0.0
C1465 C 0.97913 0.33355 0.89034 0.0
C1466 C 0.88372 0.32531 0.85455 0.0
C1467 C 0.87594 0.34367 0.84379 0.0
C1468 C 0.90676 0.32497 0.8603 0.0
C1469 C 0.92303 0.34303 0.85558 0.0
C1470 C 0.91508 0.36121 0.84448 0.0
C1471 C 0.89207 0.36149 0.8387 0.0
H1472 H 0.57371 0.24101 0.73967 0.0
H1473 H 0.52149 0.25814 0.6878 0.0
H1474 H 0.57502 0.20609 0.7095 0.0
H1475 H 0.52236 0.2229 0.65812 0.0
H1476 H 0.51732 0.14149 0.63142 0.0
H1477 H 0.5154 0.17598 0.66186 0.0
H1478 H 0.58468 0.20146 0.65965 0.0
H1479 H 0.58647 0.16738 0.62858 0.0
C1480 C 0.56232 0.23712 0.72202 0.0
C1481 C 0.54747 0.2522 0.71607 0.0
C1482 C 0.56317 0.21728 0.70475 0.0
C1483 C 0.54879 0.21193 0.68158 0.0
C1484 C 0.53354 0.22666 0.67593 0.0
C1485 C 0.53307 0.24678 0.69288 0.0
C1486 C 0.53207 0.15455 0.63733 0.0
C1487 C 0.55198 0.15192 0.62754 0.0
C1488 C 0.53097 0.17421 0.65468 0.0
C1489 C 0.54992 0.19122 0.66308 0.0
C1490 C 0.56989 0.18849 0.6535 0.0
C1491 C 0.57085 0.16913 0.63563 0.0
H1492 H 0.61793 0.83113 0.3478 0.0
H1493 H 0.64582 0.87621 0.41806 0.0
H1494 H 0.65555 0.82907 0.33739 0.0
H1495 H 0.68319 0.87453 0.40765 0.0
H1496 H 0.7489 0.84941 0.39473 0.0
H1497 H 0.71122 0.85126 0.40456 0.0
H1498 H 0.68821 0.8489 0.3247 0.0
H1499 H 0.7258 0.84669 0.31493 0.0
C1500 C 0.63203 0.84077 0.36095 0.0
C1501 C 0.6286 0.85391 0.38375 0.0
C1502 C 0.65375 0.83968 0.35495 0.0
C1503 C 0.67283 0.85157 0.37163 0.0
C1504 C 0.66924 0.86477 0.39436 0.0
C1505 C 0.64761 0.86593 0.40027 0.0
C1506 C 0.73585 0.8494 0.37925 0.0
C1507 C 0.74067 0.84806 0.35402 0.0
C1508 C 0.71409 0.85057 0.3849 0.0
C1509 C 0.69625 0.85029 0.36551 0.0
C1510 C 0.70116 0.84891 0.34026 0.0
C1511 C 0.72294 0.84788 0.33464 0.0
H1512 H 0.10292 0.35441 0.57118 0.0
H1513 H 0.13849 0.31017 0.52576 0.0
H1514 H 0.09135 0.32279 0.59417 0.0
H1515 H 0.12622 0.27818 0.54803 0.0
H1516 H 0.10835 0.22644 0.59937 0.0
H1517 H 0.12691 0.26189 0.58684 0.0
H1518 H 0.06458 0.28811 0.58148 0.0
H1519 H 0.04635 0.25301 0.59475 0.0
C1520 C 0.10857 0.33799 0.56646 0.0
C1521 C 0.12144 0.33456 0.54668 0.0
C1522 C 0.10181 0.31987 0.57946 0.0
C1523 C 0.10758 0.29793 0.57264 0.0
C1524 C 0.12168 0.29496 0.5539 0.0
C1525 C 0.12868 0.31323 0.5411 0.0
C1526 C 0.09878 0.23997 0.59575 0.0
C1527 C 0.07597 0.23713 0.59786 0.0
C1528 C 0.10934 0.26017 0.58855 0.0
C1529 C 0.0972 0.27773 0.58314 0.0
C1530 C 0.0745 0.27509 0.58601 0.0
C1531 C 0.06401 0.25499 0.59346 0.0
H1532 H 0.5575 0.25516 0.20632 0.0
H1533 H 0.55949 0.32934 0.22229 0.0
H1534 H 0.5935 0.25926 0.23233 0.0
H1535 H 0.59599 0.33363 0.24754 0.0
H1536 H 0.64986 0.32807 0.3127 0.0
H1537 H 0.61366 0.32533 0.28702 0.0
H1538 H 0.63161 0.27389 0.23088 0.0
H1539 H 0.66731 0.27616 0.25697 0.0
C1540 C 0.56577 0.27236 0.21524 0.0
C1541 C 0.55584 0.29193 0.21232 0.0
C1542 C 0.58642 0.27474 0.23 0.0
C1543 C 0.59764 0.2968 0.24183 0.0
C1544 C 0.58763 0.31639 0.2389 0.0
C1545 C 0.56683 0.31396 0.22435 0.0
C1546 C 0.64597 0.31632 0.29479 0.0
C1547 C 0.66108 0.30213 0.28683 0.0
C1548 C 0.62536 0.31478 0.28006 0.0
C1549 C 0.61974 0.29923 0.25705 0.0
C1550 C 0.63524 0.28561 0.24881 0.0
C1551 C 0.65568 0.28696 0.26364 0.0
H1552 H 0.61587 0.92869 0.07286 0.0
H1553 H 0.64181 0.96687 0.01615 0.0
H1554 H 0.59918 0.96167 0.08912 0.0
H1555 H 0.62535 0.99994 0.03273 0.0
H1556 H 0.55395 1.01804 0.02855 0.0
H1557 H 0.58304 0.99472 0.0244 0.0
H1558 H 0.6003 1.0054 0.10626 0.0
H1559 H 0.57086 0.02932 0.11049 0.0
C1560 C 0.61902 0.94454 0.06474 0.0
C1561 C 0.62964 0.94508 0.04285 0.0
C1562 C 0.60944 0.96343 0.07409 0.0
C1563 C 0.61056 0.98301 0.06171 0.0
C1564 C 0.62399 0.9848 0.04227 0.0
C1565 C 0.6335 0.96593 0.03289 0.0
C1566 C 0.56379 1.01532 0.04573 0.0
C1567 C 0.56004 0.02519 0.06989 0.0
C1568 C 0.58075 1.00234 0.04332 0.0
C1569 C 0.59417 0.9987 0.06502 0.0
C1570 C 0.59025 1.00821 0.08929 0.0
C1571 C 0.57337 1.02161 0.0917 0.0
H1572 H 0.95735 0.76578 0.73958 0.0
H1573 H 0.94909 0.82816 0.70787 0.0
H1574 H 0.94307 0.78109 0.77779 0.0
H1575 H 0.93415 0.84324 0.74584 0.0
H1576 H 0.93579 0.87525 0.8282 0.0
H1577 H 0.94925 0.85822 0.78991 0.0
H1578 H 0.91088 0.79159 0.79449 0.0
H1579 H 0.89793 0.80845 0.83275 0.0
C1580 C 0.95186 0.78248 0.74048 0.0
C1581 C 0.95433 0.79582 0.72083 0.0
C1582 C 0.94375 0.79129 0.76241 0.0
C1583 C 0.93785 0.81355 0.76498 0.0
C1584 C 0.93909 0.82628 0.74464 0.0
C1585 C 0.9473 0.8175 0.72275 0.0
C1586 C 0.93049 0.85691 0.82118 0.0
C1587 C 0.9158 0.84318 0.83358 0.0
C1588 C 0.938 0.84721 0.79914 0.0
C1589 C 0.93085 0.82363 0.78901 0.0
C1590 C 0.91684 0.80975 0.80191 0.0
C1591 C 0.90949 0.81941 0.82396 0.0
H1592 H 0.17475 0.1103 0.9421 0.0
H1593 H 0.1373 0.04348 0.90803 0.0
H1594 H 0.15055 0.11233 0.97551 0.0
H1595 H 0.11329 0.04524 0.94175 0.0
H1596 H 0.08604 0.04848 0.02183 0.0
H1597 H 0.11028 0.04474 0.98825 0.0
H1598 H 0.11274 0.11731 0.98274 0.0
H1599 H 0.08839 0.12085 0.01548 0.0
C1600 C 0.16147 0.09588 0.94174 0.0
C1601 C 0.15829 0.07671 0.92197 0.0
C1602 C 0.14735 0.09709 0.961 0.0
C1603 C 0.12955 0.07899 0.96181 0.0
C1604 C 0.12669 0.05957 0.94231 0.0
C1605 C 0.14055 0.05859 0.92272 0.0
C1606 C 0.09154 0.0636 1.0133 0.0
C1607 C 0.08478 0.08495 0.02166 0.0
C1608 C 0.10557 0.06148 0.99387 0.0
C1609 C 0.11394 0.08074 0.98238 0.0
C1610 C 0.10715 0.102 0.99092 0.0
C1611 C 0.09284 0.10399 1.00981 0.0
H1612 H 0.7294 0.40324 0.6666 0.0
H1613 H 0.79495 0.40301 0.64471 0.0
H1614 H 0.74132 0.38807 0.70559 0.0
H1615 H 0.80671 0.38775 0.68334 0.0
H1616 H 0.81141 0.33889 0.74448 0.0
H1617 H 0.79854 0.35146 0.70424 0.0
H1618 H 0.76924 0.40461 0.74545 0.0
H1619 H 0.78219 0.39238 0.78548 0.0
C1620 C 0.74621 0.39965 0.66995 0.0
C1621 C 0.76123 0.40426 0.65263 0.0
C1622 C 0.75308 0.39113 0.69229 0.0
C1623 C 0.77496 0.38672 0.69747 0.0
C1624 C 0.78972 0.39075 0.67975 0.0
C1625 C 0.78298 0.39958 0.65769 0.0
C1626 C 0.80242 0.3534 0.74495 0.0
C1627 C 0.79804 0.36476 0.76822 0.0
C1628 C 0.79501 0.36054 0.72193 0.0
C1629 C 0.78274 0.3789 0.72173 0.0
C1630 C 0.7784 0.39023 0.74498 0.0
C1631 C 0.78607 0.38335 0.76794 0.0
H1632 H 0.45922 0.14703 0.41794 0.0
H1633 H 0.52384 0.15117 0.39262 0.0
H1634 H 0.47423 0.13514 0.45739 0.0
H1635 H 0.53898 0.13949 0.43262 0.0
H1636 H 0.55687 0.13497 0.52147 0.0
H1637 H 0.54494 0.15229 0.4837 0.0
H1638 H 0.48864 0.09689 0.46297 0.0
H1639 H 0.50057 0.07957 0.49986 0.0
C1640 C 0.47677 0.14593 0.42103 0.0
C1641 C 0.49035 0.15007 0.40213 0.0
C1642 C 0.48533 0.13899 0.4436 0.0
C1643 C 0.50774 0.13629 0.44802 0.0
C1644 C 0.52168 0.14158 0.42976 0.0
C1645 C 0.513 0.14823 0.40689 0.0
C1646 C 0.54199 0.12657 0.50874 0.0
C1647 C 0.52965 0.10595 0.51363 0.0
C1648 C 0.53523 0.1364 0.48716 0.0
C1649 C 0.51576 0.12602 0.47056 0.0
C1650 C 0.50355 0.10543 0.47557 0.0
C1651 C 0.51049 0.09545 0.49667 0.0
H1652 H 0.80688 0.69238 0.0982 0.0
H1653 H 0.81748 0.74083 0.04515 0.0
H1654 H 0.82248 0.72318 0.13356 0.0
H1655 H 0.83297 0.77179 0.0807 0.0
H1656 H 0.85428 0.77965 0.1938 0.0
H1657 H 0.8566 0.75417 0.15452 0.0
H1658 H 0.80897 0.78755 0.11339 0.0
H1659 H 0.80582 0.81214 0.15235 0.0
C1660 C 0.81302 0.70951 0.09413 0.0
C1661 C 0.81077 0.71442 0.06913 0.0
C1662 C 0.82219 0.72704 0.11429 0.0
C1663 C 0.82897 0.74974 0.1097 0.0
C1664 C 0.82794 0.75434 0.08457 0.0
C1665 C 0.81904 0.7367 0.06435 0.0
C1666 C 0.84468 0.78187 0.17624 0.0
C1667 C 0.8295 0.79755 0.17629 0.0
C1668 C 0.84618 0.76745 0.15382 0.0
C1669 C 0.83285 0.7689 0.13115 0.0
C1670 C 0.81962 0.78632 0.13062 0.0
C1671 C 0.81786 0.80046 0.15303 0.0
H1672 H 0.18443 0.07206 0.76368 0.0
H1673 H 0.1271 0.07678 0.80248 0.0
H1674 H 0.16213 0.0741 0.72332 0.0
H1675 H 0.10464 0.07843 0.76215 0.0
H1676 H 0.07554 0.10506 0.69056 0.0
H1677 H 0.09764 0.10221 0.73063 0.0
H1678 H 0.13343 0.05468 0.69023 0.0
H1679 H 0.11153 0.05789 0.65007 0.0
C1680 C 0.16701 0.07337 0.76362 0.0
C1681 C 0.15769 0.07426 0.78654 0.0
C1682 C 0.15409 0.07442 0.74032 0.0
C1683 C 0.13136 0.0765 0.73907 0.0
C1684 C 0.12206 0.07721 0.76207 0.0
C1685 C 0.13496 0.07607 0.78533 0.0
C1686 C 0.08807 0.09392 0.69014 0.0
C1687 C 0.09158 0.08172 0.66679 0.0
C1688 C 0.10077 0.09217 0.71332 0.0
C1689 C 0.11754 0.07816 0.7141 0.0
C1690 C 0.121 0.06591 0.69069 0.0
C1691 C 0.10825 0.06763 0.6675 0.0
H1692 H 0.77188 0.37451 0.54003 0.0
H1693 H 0.73278 0.41565 0.49802 0.0
H1694 H 0.78466 0.35866 0.5007 0.0
H1695 H 0.74521 0.39955 0.4587 0.0
H1696 H 0.79857 0.39603 0.40611 0.0
H1697 H 0.78063 0.40568 0.44309 0.0
H1698 H 0.77548 0.33477 0.45722 0.0
H1699 H 0.79396 0.32497 0.41951 0.0
C1700 C 0.76559 0.37976 0.5223 0.0
C1701 C 0.75132 0.39639 0.52219 0.0
C1702 C 0.77287 0.37059 0.49972 0.0
C1703 C 0.76614 0.37793 0.4765 0.0
C1704 C 0.751 0.39372 0.47627 0.0
C1705 C 0.74371 0.40284 0.4988 0.0
C1706 C 0.79361 0.38234 0.41694 0.0
C1707 C 0.79789 0.35972 0.4099 0.0
C1708 C 0.78305 0.38788 0.43813 0.0
C1709 C 0.7764 0.37102 0.45315 0.0
C1710 C 0.78046 0.34821 0.44609 0.0
C1711 C 0.79095 0.34255 0.42449 0.0
H1712 H 0.51858 0.15572 0.27593 0.0
H1713 H 0.45676 0.11015 0.24499 0.0
H1714 H 0.53421 0.14379 0.23698 0.0
H1715 H 0.47235 0.09806 0.20666 0.0
H1716 H 0.49722 0.10232 0.13095 0.0
H1717 H 0.48343 0.11507 0.17024 0.0
H1718 H 0.54571 0.1089 0.21341 0.0
H1719 H 0.55984 0.09638 0.17373 0.0
C1720 C 0.50838 0.1432 0.26084 0.0
C1721 C 0.48646 0.13393 0.26342 0.0
C1722 C 0.51735 0.13625 0.23868 0.0
C1723 C 0.50446 0.12004 0.21876 0.0
C1724 C 0.48258 0.11082 0.2215 0.0
C1725 C 0.47369 0.11768 0.24354 0.0
C1726 C 0.50801 0.10353 0.14876 0.0
C1727 C 0.52958 0.09811 0.1492 0.0
C1728 C 0.50005 0.1108 0.17132 0.0
C1729 C 0.51345 0.11288 0.19492 0.0
C1730 C 0.53508 0.1076 0.19546 0.0
C1731 C 0.54307 0.10021 0.17278 0.0
H1732 H 0.74447 0.71376 0.95283 0.0
H1733 H 0.81182 0.70117 0.94966 0.0
H1734 H 0.75019 0.74303 0.9249 0.0
H1735 H 0.81775 0.73085 0.9226 0.0
H1736 H 0.80506 0.7558 0.84551 0.0
H1737 H 0.80355 0.7322 0.87906 0.0
H1738 H 0.77154 0.78197 0.92219 0.0
H1739 H 0.77266 0.80569 0.88768 0.0
C1740 C 0.76045 0.71726 0.94612 0.0
C1741 C 0.7776 0.70501 0.95295 0.0
C1742 C 0.76383 0.73424 0.93055 0.0
C1743 C 0.78444 0.73923 0.92177 0.0
C1744 C 0.80164 0.72716 0.92896 0.0
C1745 C 0.7982 0.71009 0.94428 0.0
C1746 C 0.79796 0.76188 0.86232 0.0
C1747 C 0.78869 0.78227 0.86408 0.0
C1748 C 0.79727 0.74847 0.88162 0.0
C1749 C 0.78736 0.75524 0.90314 0.0
C1750 C 0.77907 0.77634 0.90558 0.0
C1751 C 0.77988 0.78995 0.88611 0.0
H1752 H 0.94554 0.22069 0.10507 0.0
H1753 H 0.89814 0.16884 0.0535 0.0
H1754 H 0.97373 0.19563 0.10119 0.0
H1755 H 0.92629 0.14426 0.04886 0.0
H1756 H 0.97667 0.09592 0.06767 0.0
H1757 H 0.94742 0.11999 0.06981 0.0
H1758 H 0.99648 0.18132 0.0723 0.0
H1759 H 1.02534 0.15753 0.07108 0.0
C1760 C 0.94124 0.20409 0.09271 0.0
C1761 C 0.91969 0.19683 0.07954 0.0
C1762 C 0.95738 0.18971 0.09036 0.0
C1763 C 0.95234 0.16786 0.07459 0.0
C1764 C 0.93074 0.16074 0.06142 0.0
C1765 C 0.91464 0.17499 0.06392 0.0
C1766 C 0.981 0.11447 0.06805 0.0
C1767 C 1.00326 0.12482 0.06906 0.0
C1768 C 0.96431 0.12833 0.06944 0.0
C1769 C 0.96962 0.15274 0.07165 0.0
C1770 C 0.99178 0.16275 0.07133 0.0
C1771 C 1.00834 0.14901 0.07021 0.0
H1772 H 0.41041 0.49816 0.16328 0.0
H1773 H 0.39753 0.56587 0.15014 0.0
H1774 H 0.44844 0.50807 0.15482 0.0
H1775 H 0.4354 0.57551 0.13987 0.0
H1776 H 0.50971 0.58773 0.13227 0.0
H1777 H 0.47539 0.58231 0.15166 0.0
H1778 H 0.46136 0.51054 0.11532 0.0
H1779 H 0.4958 0.51578 0.09718 0.0
C1780 C 0.41597 0.51531 0.15884 0.0
C1781 C 0.40133 0.53126 0.15705 0.0
C1782 C 0.4376 0.52093 0.15379 0.0
C1783 C 0.44469 0.5423 0.14597 0.0
C1784 C 0.43042 0.55892 0.1459 0.0
C1785 C 0.40881 0.55346 0.15167 0.0
C1786 C 0.49926 0.57081 0.12875 0.0
C1787 C 0.50527 0.55208 0.11346 0.0
C1788 C 0.47966 0.56774 0.13971 0.0
C1789 C 0.46586 0.54594 0.13533 0.0
C1790 C 0.47195 0.52738 0.11975 0.0
C1791 C 0.49156 0.53038 0.10913 0.0
H1792 H 0.35462 0.64745 0.80961 0.0
H1793 H 0.4182 0.68579 0.84528 0.0
H1794 H 0.33878 0.68318 0.81324 0.0
H1795 H 0.4025 0.72144 0.84999 0.0
H1796 H 0.37445 0.78912 0.84589 0.0
H1797 H 0.39017 0.75346 0.84136 0.0
H1798 H 0.32391 0.7134 0.82908 0.0
H1799 H 0.30845 0.74927 0.83273 0.0
C1800 C 0.36534 0.66349 0.81841 0.0
C1801 C 0.38796 0.66312 0.82702 0.0
C1802 C 0.3561 0.68444 0.82075 0.0
C1803 C 0.36887 0.70637 0.83207 0.0
C1804 C 0.39155 0.70575 0.84074 0.0
C1805 C 0.40078 0.68486 0.8382 0.0
C1806 C 0.36313 0.77273 0.84228 0.0
C1807 C 0.33992 0.77274 0.83989 0.0
C1808 C 0.37227 0.75177 0.83976 0.0
C1809 C 0.3588 0.72937 0.8348 0.0
C1810 C 0.33549 0.72955 0.83251 0.0
C1811 C 0.32637 0.75054 0.83489 0.0
H1812 H 0.32025 0.68035 0.62222 0.0
H1813 H 0.3012 0.68982 0.54439 0.0
H1814 H 0.28321 0.65892 0.62274 0.0
H1815 H 0.26427 0.66802 0.54477 0.0
H1816 H 0.19503 0.66188 0.57255 0.0
H1817 H 0.23296 0.67726 0.56702 0.0
H1818 H 0.25702 0.62323 0.60415 0.0
H1819 H 0.21902 0.60783 0.60969 0.0
C1820 C 0.30827 0.67744 0.60509 0.0
C1821 C 0.31344 0.68684 0.58335 0.0
C1822 C 0.28713 0.6651 0.60534 0.0
C1823 C 0.2709 0.66198 0.58383 0.0
C1824 C 0.27643 0.67047 0.5617 0.0
C1825 C 0.29757 0.6828 0.56145 0.0
C1826 C 0.20839 0.65307 0.57911 0.0
C1827 C 0.20419 0.63379 0.59167 0.0
C1828 C 0.23006 0.66183 0.57591 0.0
C1829 C 0.24786 0.6514 0.58519 0.0
C1830 C 0.24358 0.63172 0.59711 0.0
C1831 C 0.22191 0.62297 0.6003 0.0
H1832 H 0.71115 0.98085 0.86167 0.0
H1833 H 0.66147 0.93566 0.80569 0.0
H1834 H 0.73383 0.95053 0.86224 0.0
H1835 H 0.68412 0.90481 0.80678 0.0
H1836 H 0.74444 0.8697 0.79138 0.0
H1837 H 0.7196 0.8983 0.79276 0.0
H1838 H 0.73551 0.91281 0.87485 0.0
H1839 H 0.76067 0.88426 0.87333 0.0
C1840 C 0.70492 0.96427 0.84972 0.0
C1841 C 0.68455 0.96059 0.83356 0.0
C1842 C 0.71788 0.94685 0.8502 0.0
C1843 C 0.71075 0.92532 0.83457 0.0
C1844 C 0.69011 0.92137 0.81884 0.0
C1845 C 0.67709 0.93891 0.81833 0.0
C1846 C 0.74243 0.87886 0.80972 0.0
C1847 C 0.75397 0.8745 0.83234 0.0
C1848 C 0.72817 0.89516 0.81052 0.0
C1849 C 0.72537 0.90753 0.83393 0.0
C1850 C 0.73735 0.9035 0.85653 0.0
C1851 C 0.75166 0.88717 0.85572 0.0
H1852 H 0.76728 0.03459 0.69217 0.0
H1853 H 0.81232 0.09402 0.67884 0.0
H1854 H 0.73581 0.05276 0.67899 0.0
H1855 H 0.78078 0.11278 0.66668 0.0
H1856 H 0.72275 0.11585 0.60513 0.0
H1857 H 0.75473 0.10509 0.62892 0.0
H1858 H 0.7137 0.08233 0.68434 0.0
H1859 H 0.68132 0.09154 0.65945 0.0
C1860 C 0.77046 0.05198 0.68745 0.0
C1861 C 0.79218 0.06285 0.6863 0.0
C1862 C 0.75239 0.06244 0.6799 0.0
C1863 C 0.75578 0.08409 0.67141 0.0
C1864 C 0.77763 0.09587 0.67259 0.0
C1865 C 0.79569 0.08527 0.67984 0.0
C1866 C 0.72054 0.10853 0.62237 0.0
C1867 C 0.69946 0.10436 0.63024 0.0
C1868 C 0.73897 0.10273 0.63629 0.0
C1869 C 0.73678 0.09291 0.65862 0.0
C1870 C 0.71588 0.08967 0.6671 0.0
C1871 C 0.69738 0.09522 0.65299 0.0
H1872 H 0.35355 0.52703 0.79906 0.0
H1873 H 0.41246 0.52078 0.84791 0.0
H1874 H 0.33726 0.48705 0.80255 0.0
H1875 H 0.39626 0.48177 0.85241 0.0
H1876 H 0.37293 0.4047 0.84553 0.0
H1877 H 0.38734 0.44379 0.83974 0.0
H1878 H 0.32035 0.45636 0.8205 0.0
H1879 H 0.30595 0.41615 0.82547 0.0
C1880 C 0.36311 0.51726 0.81065 0.0
C1881 C 0.38465 0.52765 0.82297 0.0
C1882 C 0.35362 0.49403 0.81285 0.0
C1883 C 0.36513 0.48 0.82761 0.0
C1884 C 0.38654 0.49083 0.84016 0.0
C1885 C 0.39601 0.51378 0.83777 0.0
C1886 C 0.36107 0.41563 0.84002 0.0
C1887 C 0.33806 0.40663 0.83618 0.0
C1888 C 0.36947 0.43867 0.83689 0.0
C1889 C 0.35541 0.45451 0.82999 0.0
C1890 C 0.33221 0.44537 0.82573 0.0
C1891 C 0.32376 0.42202 0.8287 0.0
H1892 H 0.17026 0.60013 0.32691 0.0
H1893 H 0.22115 0.56052 0.30622 0.0
H1894 H 0.19326 0.63547 0.3197 0.0
H1895 H 0.24421 0.59602 0.29912 0.0
H1896 H 0.28564 0.67109 0.32016 0.0
H1897 H 0.26386 0.63475 0.32641 0.0
H1898 H 0.20699 0.64953 0.27979 0.0
H1899 H 0.22889 0.68549 0.27259 0.0
C1900 C 0.18642 0.59903 0.32098 0.0
C1901 C 0.19397 0.57767 0.31702 0.0
C1902 C 0.19946 0.61918 0.31671 0.0
C1903 C 0.22033 0.61829 0.30869 0.0
C1904 C 0.22815 0.59705 0.30535 0.0
C1905 C 0.21498 0.57682 0.30935 0.0
C1906 C 0.26866 0.66638 0.31072 0.0
C1907 C 0.25901 0.6812 0.29584 0.0
C1908 C 0.2562 0.64566 0.31446 0.0
C1909 C 0.23381 0.63956 0.30369 0.0
C1910 C 0.22419 0.65411 0.28854 0.0
C1911 C 0.23672 0.67468 0.2845 0.0
H1912 H 0.56387 0.7719 0.42451 0.0
H1913 H 0.57949 0.82598 0.49 0.0
H1914 H 0.56843 0.74277 0.45247 0.0
H1915 H 0.58463 0.79721 0.51768 0.0
H1916 H 0.57078 0.73942 0.5639 0.0
H1917 H 0.56414 0.76675 0.53477 0.0
H1918 H 0.59655 0.72891 0.47915 0.0
H1919 H 0.60217 0.70081 0.50784 0.0
C1920 C 0.56831 0.77754 0.44484 0.0
C1921 C 0.57125 0.80118 0.45505 0.0
C1922 C 0.57106 0.76091 0.46085 0.0
C1923 C 0.57682 0.76762 0.48738 0.0
C1924 C 0.57979 0.79133 0.49745 0.0
C1925 C 0.57699 0.80787 0.48152 0.0
C1926 C 0.57626 0.73672 0.54535 0.0
C1927 C 0.58708 0.71791 0.5383 0.0
C1928 C 0.57268 0.75258 0.52872 0.0
C1929 C 0.57992 0.75014 0.50462 0.0
C1930 C 0.59057 0.73122 0.49745 0.0
C1931 C 0.59409 0.71529 0.51408 0.0
H1932 H 0.61533 0.30663 0.82648 0.0
H1933 H 0.63064 0.34253 0.764 0.0
H1934 H 0.65511 0.30878 0.84033 0.0
H1935 H 0.67023 0.3441 0.77714 0.0
H1936 H 0.74248 0.35946 0.81574 0.0
H1937 H 0.70269 0.35965 0.80464 0.0
H1938 H 0.6877 0.29488 0.83343 0.0
H1939 H 0.72733 0.29525 0.84515 0.0
C1940 C 0.62715 0.31504 0.81568 0.0
C1941 C 0.61949 0.32449 0.79413 0.0
C1942 C 0.65018 0.31612 0.82349 0.0
C1943 C 0.6665 0.32662 0.81002 0.0
C1944 C 0.65866 0.33619 0.78854 0.0
C1945 C 0.6357 0.33516 0.7808 0.0
C1946 C 0.73068 0.34541 0.82 0.0
C1947 C 0.73839 0.32743 0.83157 0.0
C1948 C 0.70765 0.34533 0.81334 0.0
C1949 C 0.69136 0.32723 0.81793 0.0
C1950 C 0.69925 0.30942 0.82981 0.0
C1951 C 0.72222 0.30955 0.83649 0.0
H1952 H 0.06993 0.40362 0.98698 0.0
H1953 H 0.06469 0.43747 0.92024 0.0
H1954 H 0.06973 0.44018 1.01394 0.0
H1955 H 0.06391 0.47421 0.94732 0.0
H1956 H 0.08373 0.54034 1.00691 0.0
H1957 H 0.08621 0.5044 0.97949 0.0
H1958 H 0.04372 0.46551 0.02349 0.0
H1959 H 0.04177 0.50116 0.05117 0.0
C1960 C 0.06872 0.41891 0.97805 0.0
C1961 C 0.06721 0.41767 0.95147 0.0
C1962 C 0.06845 0.43986 0.99351 0.0
C1963 C 0.06659 0.46009 0.98279 0.0
C1964 C 0.06553 0.45897 0.9562 0.0
C1965 C 0.06585 0.43794 0.94068 0.0
C1966 C 0.07505 0.52407 1.01078 0.0
C1967 C 0.0627 0.52356 0.0313 0.0
C1968 C 0.07633 0.50351 0.99496 0.0
C1969 C 0.06525 0.48206 0.99935 0.0
C1970 C 0.05282 0.48166 0.01984 0.0
C1971 C 0.05161 0.50214 0.03566 0.0
H1972 H 0.972 0.8216 0.24955 0.0
H1973 H 0.99371 0.80909 0.32522 0.0
H1974 H 0.93521 0.82399 0.26036 0.0
H1975 H 0.95617 0.80973 0.33596 0.0
H1976 H 0.88971 0.82699 0.35674 0.0
H1977 H 0.92718 0.82551 0.34683 0.0
H1978 H 0.90135 0.8101 0.26649 0.0
H1979 H 0.86434 0.81348 0.27672 0.0
C1980 C 0.96883 0.81904 0.26857 0.0
C1981 C 0.98609 0.81514 0.28645 0.0
C1982 C 0.94731 0.82014 0.27484 0.0
C1983 C 0.94177 0.81682 0.29919 0.0
C1984 C 0.9592 0.8128 0.3171 0.0
C1985 C 0.98097 0.81221 0.31092 0.0
C1986 C 0.89207 0.82324 0.33693 0.0
C1987 C 0.87377 0.82031 0.31758 0.0
C1988 C 0.91381 0.82222 0.33111 0.0
C1989 C 0.91817 0.8177 0.30564 0.0
C1990 C 0.89954 0.81427 0.28636 0.0
C1991 C 0.87792 0.8159 0.29221 0.0
H1992 H 0.49504 0.36345 0.15555 0.0
H1993 H 0.52702 0.3209 0.10364 0.0
H1994 H 0.51136 0.39805 0.13932 0.0
H1995 H 0.54296 0.35551 0.08716 0.0
H1996 H 0.54404 0.42536 0.05107 0.0
H1997 H 0.52717 0.38939 0.06406 0.0
H1998 H 0.55514 0.4157 0.14218 0.0
H1999 H 0.57312 0.45113 0.12929 0.0
C2000 C 0.50516 0.36148 0.14034 0.0
C2001 C 0.50984 0.33963 0.13081 0.0
C2002 C 0.51458 0.3812 0.13124 0.0
C2003 C 0.52842 0.37922 0.11221 0.0
C2004 C 0.53226 0.35729 0.10183 0.0
C2005 C 0.52318 0.33761 0.11124 0.0
C2006 C 0.54712 0.42329 0.07092 0.0
C2007 C 0.55986 0.44122 0.08916 0.0
C2008 C 0.53727 0.40282 0.07831 0.0
C2009 C 0.53967 0.40017 0.10407 0.0
C2010 C 0.5528 0.41769 0.12224 0.0
C2011 C 0.56301 0.43793 0.11482 0.0
H2012 H 0.04893 0.34467 0.46844 0.0
H2013 H 0.06686 0.41331 0.44925 0.0
H2014 H 1.01356 0.33975 0.44107 0.0
H2015 H 0.03102 0.40865 0.42236 0.0
H2016 H 0.97661 0.38173 0.35497 0.0
H2017 H 1.01224 0.38585 0.38211 0.0
H2018 H 0.97882 0.35431 0.43886 0.0
H2019 H 0.9434 0.35004 0.41173 0.0
C2020 C 0.04513 0.35887 0.45869 0.0
C2021 C 0.06054 0.37941 0.46098 0.0
C2022 C 1.02487 0.35604 0.44305 0.0
C2023 C 1.01959 0.37378 0.42954 0.0
C2024 C 0.03483 0.39455 0.43226 0.0
C2025 C 0.05519 0.39733 0.44784 0.0
C2026 C 0.977 0.37552 0.37316 0.0
C2027 C 0.95734 0.36542 0.3812 0.0
C2028 C 0.9973 0.37803 0.38874 0.0
C2029 C 0.99825 0.37052 0.41263 0.0
C2030 C 0.97863 0.35997 0.4204 0.0
C2031 C 0.95837 0.35742 0.40481 0.0
H2032 H 0.98005 0.70242 0.63738 0.0
H2033 H 1.00638 0.74996 0.58914 0.0
H2034 H 0.98986 0.67032 0.60996 0.0
H2035 H 1.01585 0.71767 0.56129 0.0
H2036 H 1.00645 0.61426 0.56027 0.0
H2037 H 0.9858 0.64588 0.5689 0.0
H2038 H 0.04563 0.69534 0.5702 0.0
H2039 H 0.06607 0.66355 0.56056 0.0
C2040 C 0.98717 0.70586 0.62037 0.0
C2041 C 0.99268 0.72862 0.6155 0.0
C2042 C 0.99272 0.68746 0.60455 0.0
C2043 C 1.00378 0.69155 0.58354 0.0
C2044 C 1.00754 0.7141 0.57749 0.0
C2045 C 1.002 0.73252 0.59334 0.0
C2046 C 1.01492 0.63188 0.56121 0.0
C2047 C 0.03785 0.63656 0.56 0.0
C2048 C 1.00314 0.64997 0.5664 0.0
C2049 C 1.01419 0.67302 0.57071 0.0
C2050 C 0.03661 0.67772 0.5668 0.0
C2051 C 0.04837 0.65955 0.56133 0.0
H2052 H 0.66228 0.89788 0.92811 0.0
H2053 H 0.65624 0.82893 0.94849 0.0
H2054 H 0.6719 0.88313 0.88697 0.0
H2055 H 0.66681 0.81422 0.90753 0.0
H2056 H 0.66212 0.7911 0.82186 0.0
H2057 H 0.65159 0.80625 0.86288 0.0
H2058 H 0.70021 0.86825 0.86736 0.0
H2059 H 0.70999 0.85339 0.82675 0.0
C2060 C 0.66367 0.87967 0.92407 0.0
C2061 C 0.65865 0.86456 0.94151 0.0
C2062 C 0.66909 0.87118 0.90043 0.0
C2063 C 0.6699 0.84743 0.89387 0.0
C2064 C 0.66585 0.8325 0.91181 0.0
C2065 C 0.6602 0.84098 0.93542 0.0
C2066 C 0.67026 0.8081 0.83149 0.0
C2067 C 0.6868 0.82122 0.82081 0.0
C2068 C 0.66441 0.81669 0.85508 0.0
C2069 C 0.67515 0.83844 0.86844 0.0
C2070 C 0.69128 0.85165 0.85745 0.0
C2071 C 0.69688 0.84317 0.83397 0.0
H2072 H 0.48879 0.59714 0.78285 0.0
H2073 H 0.43242 0.59786 0.72717 0.0
H2074 H 0.51272 0.59572 0.74937 0.0
H2075 H 0.45651 0.59668 0.69342 0.0
H2076 H 0.51117 0.61431 0.64064 0.0
H2077 H 0.48697 0.61728 0.67419 0.0
H2078 H 0.522 0.57136 0.7135 0.0
H2079 H 0.5458 0.56824 0.67993 0.0
C2080 C 0.48137 0.59702 0.76344 0.0
C2081 C 0.45835 0.59755 0.75814 0.0
C2082 C 0.49524 0.59608 0.74397 0.0
C2083 C 0.48695 0.596 0.71813 0.0
C2084 C 0.46392 0.59687 0.71284 0.0
C2085 C 0.44992 0.59742 0.73234 0.0
C2086 C 0.51395 0.60508 0.6566 0.0
C2087 C 0.53092 0.59124 0.65739 0.0
C2088 C 0.49979 0.60657 0.6759 0.0
C2089 C 0.50217 0.59462 0.69712 0.0
C2090 C 0.51944 0.58115 0.69798 0.0
C2091 C 0.53327 0.57933 0.67853 0.0
H2092 H 0.84732 0.29601 0.04291 0.0
H2093 H 0.86081 0.23543 0.99627 0.0
H2094 H 0.83296 0.31047 1.00482 0.0
H2095 H 0.84793 0.2504 0.95806 0.0
H2096 H 0.80518 0.26995 0.89342 0.0
H2097 H 0.81724 0.25597 0.93268 0.0
H2098 H 0.84001 0.32691 0.96957 0.0
H2099 H 0.82643 0.34067 0.93079 0.0
C2100 C 0.84765 0.28604 0.02444 0.0
C2101 C 0.8552 0.26462 0.02256 0.0
C2102 C 0.83947 0.29435 1.00248 0.0
C2103 C 0.83902 0.28162 0.97806 0.0
C2104 C 0.84732 0.2605 0.97636 0.0
C2105 C 0.85505 0.252 0.99831 0.0
C2106 C 0.81243 0.28249 0.91011 0.0
C2107 C 0.8147 0.30636 0.90909 0.0
C2108 C 0.81968 0.27452 0.93261 0.0
C2109 C 0.82998 0.29022 0.95451 0.0
C2110 C 0.83188 0.31418 0.95344 0.0
C2111 C 0.82412 0.32213 0.93111 0.0
H2112 H 0.13359 0.50325 0.2288 0.0
H2113 H 0.09455 0.54527 0.27182 0.0
H2114 H 0.11875 0.51642 0.18971 0.0
H2115 H 0.07995 0.55846 0.23295 0.0
H2116 H 0.08891 0.60167 0.16727 0.0
H2117 H 0.09904 0.58428 0.20496 0.0
H2118 H 0.0821 0.51599 0.15997 0.0
H2119 H 0.07165 0.5335 0.12209 0.0
C2120 C 0.12154 0.51492 0.22983 0.0
C2121 C 0.11522 0.52321 0.25337 0.0
C2122 C 0.11304 0.52243 0.20747 0.0
C2123 C 0.09831 0.53858 0.20835 0.0
C2124 C 0.09143 0.54617 0.23175 0.0
C2125 C 0.09969 0.53848 0.25398 0.0
C2126 C 0.08719 0.58294 0.16547 0.0
C2127 C 0.07952 0.56894 0.14182 0.0
C2128 C 0.09289 0.57297 0.18705 0.0
C2129 C 0.09132 0.54877 0.1854 0.0
C2130 C 0.08354 0.53469 0.16173 0.0
C2131 C 0.07747 0.54469 0.14015 0.0
H2132 H 0.7858 0.97404 0.60316 0.0
H2133 H 0.85113 1.00053 0.58616 0.0
H2134 H 0.77975 0.94554 0.56426 0.0
H2135 H 0.84493 0.97234 0.54732 0.0
H2136 H 0.84185 0.89754 0.51165 0.0
H2137 H 0.84285 0.92904 0.54622 0.0
H2138 H 0.77761 0.93956 0.51505 0.0
H2139 H 0.77627 0.90728 0.48044 0.0
C2140 C 0.79855 0.97422 0.59072 0.0
C2141 C 0.81904 0.98919 0.59771 0.0
C2142 C 0.79507 0.95797 0.56854 0.0
C2143 C 0.81206 0.95662 0.55325 0.0
C2144 C 0.83177 0.97287 0.55917 0.0
C2145 C 0.83526 0.98903 0.58127 0.0
C2146 C 0.82751 0.90623 0.51241 0.0
C2147 C 0.80893 0.89997 0.49351 0.0
C2148 C 0.82825 0.92448 0.53193 0.0
C2149 C 0.81047 0.93688 0.53286 0.0
C2150 C 0.79153 0.93024 0.5145 0.0
C2151 C 0.79081 0.91192 0.4948 0.0
H2152 H 0.48602 0.59762 0.87926 0.0
H2153 H 0.42901 0.60843 0.91669 0.0
H2154 H 0.50731 0.59562 0.92017 0.0
H2155 H 0.45029 0.60631 0.95779 0.0
H2156 H 0.50173 0.62189 0.03128 0.0
H2157 H 0.48064 0.62543 0.99064 0.0
H2158 H 0.51066 0.57123 0.95249 0.0
H2159 H 0.53178 0.56783 0.99292 0.0
C2160 C 0.47799 0.59968 0.89624 0.0
C2161 C 0.45569 0.60322 0.89446 0.0
C2162 C 0.49022 0.59834 0.91984 0.0
C2163 C 0.48069 0.60068 0.94265 0.0
C2164 C 0.45844 0.60462 0.94089 0.0
C2165 C 0.44613 0.60575 0.9172 0.0
C2166 C 0.5039 0.61072 1.01424 0.0
C2167 C 0.51863 0.59456 0.0157 0.0
C2168 C 0.49163 0.61266 0.99081 0.0
C2169 C 0.49377 0.59866 0.96791 0.0
C2170 C 0.50862 0.5826 0.96942 0.0
C2171 C 0.52073 0.58055 0.99283 0.0
H2172 H 0.86259 0.30368 0.14849 0.0
H2173 H 0.85712 0.23808 0.17663 0.0
H2174 H 0.84864 0.3211 0.18663 0.0
H2175 H 0.84374 0.25536 0.21451 0.0
H2176 H 0.792 0.27963 0.25814 0.0
H2177 H 0.80879 0.26758 0.22095 0.0
H2178 H 0.85455 0.33249 0.23499 0.0
H2179 H 0.83706 0.34499 0.27275 0.0
C2180 C 0.85887 0.29312 0.16302 0.0
C2181 C 0.86086 0.26944 0.15943 0.0
C2182 C 0.85089 0.30311 0.18488 0.0
C2183 C 0.84467 0.28957 0.20349 0.0
C2184 C 0.84785 0.26623 0.20036 0.0
C2185 C 0.85573 0.25632 0.17866 0.0
C2186 C 0.8055 0.29158 0.25331 0.0
C2187 C 0.81325 0.31326 0.26862 0.0
C2188 C 0.81531 0.28452 0.232 0.0
C2189 C 0.83343 0.29876 0.22522 0.0
C2190 C 0.84067 0.32103 0.23974 0.0
C2191 C 0.83065 0.32823 0.26132 0.0
H2192 H 0.15282 0.53259 0.41387 0.0
H2193 H 0.08873 0.52417 0.36789 0.0
H2194 H 0.13655 0.54492 0.45166 0.0
H2195 H 0.07253 0.53815 0.40534 0.0
H2196 H 0.04601 0.54591 0.48175 0.0
H2197 H 0.06078 0.53158 0.44344 0.0
H2198 H 0.12394 0.57598 0.47206 0.0
H2199 H 0.10947 0.58884 0.511 0.0
C2200 C 0.13519 0.53341 0.41192 0.0
C2201 C 0.12198 0.52738 0.38805 0.0
C2202 C 0.12587 0.54082 0.43353 0.0
C2203 C 0.10322 0.54301 0.43167 0.0
C2204 C 0.08994 0.53647 0.40772 0.0
C2205 C 0.0992 0.52849 0.38618 0.0
C2206 C 0.06295 0.55279 0.47958 0.0
C2207 C 0.07662 0.5685 0.49921 0.0
C2208 C 0.07147 0.54459 0.4576 0.0
C2209 C 0.09371 0.55236 0.45457 0.0
C2210 C 0.10698 0.56896 0.4739 0.0
C2211 C 0.09862 0.57666 0.49611 0.0
H2212 H 0.85149 0.98288 0.74814 0.0
H2213 H 0.8209 0.9393 0.67754 0.0
H2214 H 0.85077 0.94846 0.76922 0.0
H2215 H 0.82038 0.9051 0.69848 0.0
H2216 H 0.79569 0.85872 0.75704 0.0
H2217 H 0.79975 0.89044 0.73216 0.0
H2218 H 0.86802 0.91179 0.76751 0.0
H2219 H 0.86394 0.88004 0.79256 0.0
C2220 C 0.84468 0.96598 0.73719 0.0
C2221 C 0.83619 0.96368 0.71132 0.0
C2222 C 0.84447 0.94633 0.74913 0.0
C2223 C 0.83562 0.92421 0.73535 0.0
C2224 C 0.8272 0.92199 0.70948 0.0
C2225 C 0.82754 0.94154 0.69755 0.0
C2226 C 0.81173 0.86983 0.75897 0.0
C2227 C 0.82949 0.86706 0.77667 0.0
C2228 C 0.81404 0.88796 0.7448 0.0
C2229 C 0.83413 0.90361 0.74821 0.0
C2230 C 0.85229 0.90007 0.76487 0.0
C2231 C 0.85003 0.88178 0.77892 0.0
H2232 H 0.71767 0.50567 0.62535 0.0
H2233 H 0.66813 0.45202 0.57924 0.0
H2234 H 0.68978 0.53062 0.6305 0.0
H2235 H 0.64026 0.4773 0.58353 0.0
H2236 H 0.59003 0.51752 0.61326 0.0
H2237 H 0.61886 0.49346 0.61267 0.0
H2238 H 0.66755 0.55369 0.60935 0.0
H2239 H 0.63849 0.57797 0.6109 0.0
C2240 C 0.70076 0.49919 0.61628 0.0
C2241 C 0.69504 0.47676 0.60205 0.0
C2242 C 0.68479 0.51363 0.61906 0.0
C2243 C 0.66267 0.50607 0.60755 0.0
C2244 C 0.657 0.48361 0.59316 0.0
C2245 C 0.67298 0.46909 0.59055 0.0
C2246 C 0.607 0.52572 0.61301 0.0
C2247 C 0.61205 0.54965 0.61232 0.0
C2248 C 0.62352 0.51185 0.61227 0.0
C2249 C 0.64555 0.52145 0.61049 0.0
C2250 C 0.65081 0.54565 0.61093 0.0
C2251 C 0.63422 0.55965 0.61196 0.0
H2252 H 0.20682 0.18319 0.54009 0.0
H2253 H 0.2048 0.11224 0.50511 0.0
H2254 H 0.17126 0.17226 0.55453 0.0
H2255 H 0.16912 0.10108 0.52028 0.0
H2256 H 0.09554 0.09807 0.53744 0.0
H2257 H 0.12912 0.10692 0.51738 0.0
H2258 H 0.16206 0.14915 0.58782 0.0
H2259 H 0.12862 0.14082 0.60748 0.0
C2260 C 0.19863 0.16527 0.53533 0.0
C2261 C 0.20856 0.14846 0.52182 0.0
C2262 C 0.17837 0.159 0.5437 0.0
C2263 C 0.16778 0.13576 0.53896 0.0
C2264 C 0.17704 0.11911 0.52416 0.0
C2265 C 0.19738 0.12546 0.51556 0.0
C2266 C 0.11005 0.10919 0.54852 0.0
C2267 C 0.10956 0.11912 0.5738 0.0
C2268 C 0.12919 0.11414 0.53712 0.0
C2269 C 0.14793 0.12903 0.55096 0.0
C2270 C 0.1476 0.1381 0.57655 0.0
C2271 C 0.12855 0.13325 0.58784 0.0
H2272 H 0.25927 0.02689 0.87873 0.0
H2273 H 0.20182 0.99236 0.82625 0.0
H2274 H 0.2753 0.9911 0.87473 0.0
H2275 H 0.21782 0.9568 0.82164 0.0
H2276 H 0.24292 0.88765 0.82892 0.0
H2277 H 0.22707 0.92338 0.83364 0.0
H2278 H 0.29304 0.96325 0.85525 0.0
H2279 H 0.30867 0.92735 0.851 0.0
C2280 C 0.24995 1.01173 0.86621 0.0
C2281 C 0.22898 1.01313 0.85291 0.0
C2282 C 0.25933 0.99086 0.86369 0.0
C2283 C 0.24826 0.97008 0.84774 0.0
C2284 C 0.22723 0.97165 0.8345 0.0
C2285 C 0.21792 0.99249 0.83701 0.0
C2286 C 0.25417 0.904 0.8346 0.0
C2287 C 0.27734 0.90398 0.83934 0.0
C2288 C 0.24497 0.92492 0.83724 0.0
C2289 C 0.25837 0.9472 0.84488 0.0
C2290 C 0.28161 0.94705 0.84965 0.0
C2291 C 0.29079 0.92611 0.84694 0.0
H2292 H 0.29279 1.00239 0.05817 0.0
H2293 H 0.31993 0.98736 0.13124 0.0
H2294 H 0.32776 0.02695 0.05573 0.0
H2295 H 0.35488 1.01243 0.12905 0.0
H2296 H 0.41981 0.02632 0.09251 0.0
H2297 H 0.38418 1.00803 0.10199 0.0
H2298 H 0.35304 0.0629 0.07482 0.0
H2299 H 0.38885 0.08131 0.06534 0.0
C2300 C 0.30612 1.00469 0.07391 0.0
C2301 C 0.30382 0.99286 0.09478 0.0
C2302 C 0.32607 1.01888 0.07261 0.0
C2303 C 0.344 1.0215 0.09218 0.0
C2304 C 0.34135 1.01046 0.11359 0.0
C2305 C 0.32137 0.99623 0.11488 0.0
C2306 C 0.40547 0.03477 0.0891 0.0
C2307 C 0.40704 0.0552 0.07813 0.0
C2308 C 0.38508 0.02431 0.09456 0.0
C2309 C 0.3659 0.03409 0.08913 0.0
C2310 C 0.36758 0.05491 0.07893 0.0
C2311 C 0.388 0.06539 0.07348 0.0
H2312 H 0.94372 0.72706 0.83666 0.0
H2313 H 0.89615 0.67781 0.78219 0.0
H2314 H 0.9198 0.7564 0.83267 0.0
H2315 H 0.87211 0.70699 0.77859 0.0
H2316 H 0.842 0.77311 0.76672 0.0
H2317 H 0.86865 0.74582 0.76487 0.0
H2318 H 0.88328 0.75871 0.847 0.0
H2319 H 0.85734 0.78558 0.84897 0.0
C2320 C 0.92832 0.72262 0.82362 0.0
C2321 C 0.92175 0.70018 0.80983 0.0
C2322 C 0.9146 0.73933 0.8214 0.0
C2323 C 0.89407 0.73387 0.80539 0.0
C2324 C 0.88794 0.71172 0.79083 0.0
C2325 C 0.90164 0.69501 0.79306 0.0
C2326 C 0.85104 0.77013 0.78428 0.0
C2327 C 0.84773 0.78172 0.80789 0.0
C2328 C 0.8662 0.75454 0.78324 0.0
C2329 C 0.87827 0.7505 0.80579 0.0
C2330 C 0.87464 0.76187 0.82928 0.0
C2331 C 0.85957 0.77721 0.83033 0.0
H2332 H 0.81553 0.60961 0.97329 0.0
H2333 H 0.80695 0.61092 0.05255 0.0
H2334 H 0.84619 0.58788 0.97952 0.0
H2335 H 0.8378 0.59033 0.05904 0.0
H2336 H 0.8899 0.54891 0.06742 0.0
H2337 H 0.85347 0.55626 0.05119 0.0
H2338 H 0.88349 0.60004 1.00142 0.0
H2339 H 0.91976 0.59112 0.01613 0.0
C2340 C 0.81983 0.60472 0.99182 0.0
C2341 C 0.80907 0.612 1.01249 0.0
C2342 C 0.83747 0.59252 0.99545 0.0
C2343 C 0.8445 0.58755 0.01979 0.0
C2344 C 0.83262 0.5935 0.03995 0.0
C2345 C 0.815 0.60549 0.03628 0.0
C2346 C 0.88867 0.55946 0.0524 0.0
C2347 C 0.90775 0.56965 0.04326 0.0
C2348 C 0.8678 0.56387 0.04329 0.0
C2349 C 0.86564 0.57893 0.02526 0.0
C2350 C 0.88456 0.58816 0.01513 0.0
C2351 C 0.90541 0.58342 0.02394 0.0
H2352 H 0.20102 0.16078 0.85197 0.0
H2353 H 0.26594 0.14111 0.85904 0.0
H2354 H 0.21731 0.20002 0.84811 0.0
H2355 H 0.28261 0.18064 0.85427 0.0
H2356 H 0.30982 0.26063 0.85953 0.0
H2357 H 0.29513 0.22084 0.86589 0.0
H2358 H 0.23157 0.2264 0.82544 0.0
H2359 H 0.24591 0.26565 0.82013 0.0
C2360 C 0.2189 0.1647 0.8526 0.0
C2361 C 0.23186 0.14712 0.85585 0.0
C2362 C 0.22847 0.1876 0.85006 0.0
C2363 C 0.2517 0.19447 0.85036 0.0
C2364 C 0.26478 0.17685 0.85396 0.0
C2365 C 0.25511 0.1538 0.85662 0.0
C2366 C 0.29268 0.25339 0.85209 0.0
C2367 C 0.27927 0.26703 0.83928 0.0
C2368 C 0.2841 0.2302 0.85563 0.0
C2369 C 0.26168 0.21948 0.84656 0.0
C2370 C 0.2486 0.23331 0.83358 0.0
C2371 C 0.25706 0.25626 0.83021 0.0
H2372 H 0.4446 0.06868 0.33651 0.0
H2373 H 0.38776 0.10401 0.33827 0.0
H2374 H 0.42224 0.03375 0.34562 0.0
H2375 H 0.36544 0.06906 0.34757 0.0
H2376 H 0.32896 0.99308 0.33677 0.0
H2377 H 0.35029 0.02808 0.32656 0.0
H2378 H 0.40462 1.02302 0.38345 0.0
H2379 H 0.38316 0.9883 0.39415 0.0
C2380 C 0.4273 0.06891 0.33871 0.0
C2381 C 0.41788 0.089 0.33682 0.0
C2382 C 0.41458 0.04901 0.34408 0.0
C2383 C 0.39223 0.04886 0.34748 0.0
C2384 C 0.38263 0.06876 0.3449 0.0
C2385 C 0.3954 0.08872 0.33968 0.0
C2386 C 0.34528 0.99966 0.34744 0.0
C2387 C 0.35435 0.98797 0.36633 0.0
C2388 C 0.3575 1.01961 0.34148 0.0
C2389 C 0.37908 0.02809 0.35414 0.0
C2390 C 0.38811 1.01658 0.37316 0.0
C2391 C 0.37583 0.99673 0.37927 0.0
H2392 H 0.54501 0.39612 0.75018 0.0
H2393 H 0.54582 0.34648 0.6832 0.0
H2394 H 0.5393 0.42567 0.72324 0.0
H2395 H 0.54072 0.37602 0.65638 0.0
H2396 H 0.50672 0.42644 0.61435 0.0
H2397 H 0.51285 0.39736 0.64156 0.0
H2398 H 0.55749 0.44949 0.696 0.0
H2399 H 0.55125 0.47859 0.66884 0.0
C2400 C 0.54415 0.39159 0.72973 0.0
C2401 C 0.54583 0.369 0.71882 0.0
C2402 C 0.54099 0.40853 0.71428 0.0
C2403 C 0.53946 0.40323 0.68759 0.0
C2404 C 0.54143 0.38064 0.67679 0.0
C2405 C 0.54454 0.36374 0.6922 0.0
C2406 C 0.51799 0.43166 0.63202 0.0
C2407 C 0.52844 0.45488 0.6394 0.0
C2408 C 0.52153 0.41498 0.64764 0.0
C2409 C 0.53568 0.42105 0.67102 0.0
C2410 C 0.5462 0.44426 0.67835 0.0
C2411 C 0.54262 0.46095 0.66275 0.0
H2412 H 0.49684 0.84033 0.34082 0.0
H2413 H 0.48779 0.85184 0.42003 0.0
H2414 H 0.45654 0.83909 0.32855 0.0
H2415 H 0.44817 0.85106 0.40791 0.0
H2416 H 0.38731 0.88109 0.37821 0.0
H2417 H 0.42632 0.87814 0.38671 0.0
H2418 H 0.41561 0.81516 0.33244 0.0
H2419 H 0.37552 0.81782 0.3241 0.0
C2420 C 0.48635 0.84254 0.35562 0.0
C2421 C 0.49581 0.84623 0.38148 0.0
C2422 C 0.46317 0.84167 0.34857 0.0
C2423 C 0.44886 0.84498 0.36718 0.0
C2424 C 0.45845 0.84852 0.39294 0.0
C2425 C 0.48134 0.84893 0.39992 0.0
C2426 C 0.393 0.86648 0.36788 0.0
C2427 C 0.37787 0.8497 0.35037 0.0
C2428 C 0.4156 0.86479 0.37293 0.0
C2429 C 0.42442 0.84642 0.36041 0.0
C2430 C 0.40954 0.82966 0.34243 0.0
C2431 C 0.38649 0.83112 0.33769 0.0
H2432 H 0.05068 0.77151 0.17787 0.0
H2433 H 0.03972 0.72951 0.23691 0.0
H2434 H 0.04966 0.73672 0.14736 0.0
H2435 H 0.03951 0.69456 0.20655 0.0
H2436 H 1.02051 0.63478 0.14036 0.0
H2437 H 1.01917 0.66955 0.17011 0.0
H2438 H 0.07117 0.70775 0.13676 0.0
H2439 H 0.07187 0.67325 0.10649 0.0
C2440 C 0.04812 0.7548 0.18436 0.0
C2441 C 0.04534 0.75325 0.20983 0.0
C2442 C 0.04771 0.73482 0.16688 0.0
C2443 C 0.04467 0.71275 0.17445 0.0
C2444 C 0.04162 0.7112 0.19992 0.0
C2445 C 0.04187 0.73124 0.21739 0.0
C2446 C 0.03149 0.65068 0.13924 0.0
C2447 C 0.04615 0.6513 0.12091 0.0
C2448 C 0.03088 0.67059 0.15647 0.0
C2449 C 0.04504 0.69155 0.15591 0.0
C2450 C 0.05969 0.69209 0.1375 0.0
C2451 C 0.06017 0.67225 0.12016 0.0
H2452 H 0.14503 0.37382 0.91776 0.0
H2453 H 0.11798 0.33219 0.84517 0.0
H2454 H 0.1826 0.37234 0.90803 0.0
H2455 H 0.15587 0.33036 0.83539 0.0
H2456 H 0.22744 0.34914 0.81594 0.0
H2457 H 0.18943 0.35076 0.82471 0.0
H2458 H 0.21023 0.34872 0.90419 0.0
H2459 H 0.24819 0.34748 0.8954 0.0
C2460 C 0.14705 0.36432 0.8996 0.0
C2461 C 0.1282 0.3532 0.88225 0.0
C2462 C 0.1688 0.36328 0.89407 0.0
C2463 C 0.17272 0.35111 0.87088 0.0
C2464 C 0.15382 0.34014 0.85336 0.0
C2465 C 0.13195 0.34109 0.85899 0.0
C2466 C 0.22399 0.34921 0.83536 0.0
C2467 C 0.24122 0.34835 0.85496 0.0
C2468 C 0.20198 0.3499 0.84039 0.0
C2469 C 0.19633 0.34994 0.86526 0.0
C2470 C 0.21365 0.3491 0.88482 0.0
C2471 C 0.2356 0.34824 0.87976 0.0
H2472 H 0.55877 0.83215 0.01572 0.0
H2473 H 0.62522 0.82523 0.047 0.0
H2474 H 0.54338 0.80009 0.03603 0.0
H2475 H 0.60981 0.79256 0.06675 0.0
H2476 H 0.57379 0.74746 0.11627 0.0
H2477 H 0.58765 0.78264 0.0998 0.0
H2478 H 0.5422 0.75872 0.03004 0.0
H2479 H 0.52754 0.72424 0.04704 0.0
C2480 C 0.57008 0.82373 0.02695 0.0
C2481 C 0.59318 0.83103 0.02976 0.0
C2482 C 0.56127 0.80532 0.03845 0.0
C2483 C 0.5754 0.79378 0.05284 0.0
C2484 C 0.59852 0.80134 0.056 0.0
C2485 C 0.60734 0.81989 0.04458 0.0
C2486 C 0.56642 0.75002 0.09768 0.0
C2487 C 0.54955 0.73319 0.08294 0.0
C2488 C 0.57457 0.76997 0.08812 0.0
C2489 C 0.56606 0.77334 0.06363 0.0
C2490 C 0.54889 0.75672 0.04912 0.0
C2491 C 0.54066 0.73688 0.05873 0.0
H2492 H 0.04324 0.79816 0.75926 0.0
H2493 H 0.06964 0.75572 0.70157 0.0
H2494 H 0.07605 0.79801 0.7896 0.0
H2495 H 0.10276 0.75629 0.73144 0.0
H2496 H 0.15553 0.7495 0.79032 0.0
H2497 H 0.11752 0.7437 0.76939 0.0
H2498 H 0.11424 0.81577 0.79488 0.0
H2499 H 0.15175 0.82113 0.81756 0.0
C2500 C 0.05603 0.7887 0.75315 0.0
C2501 C 0.05404 0.77701 0.72813 0.0
C2502 C 0.0748 0.78868 0.77046 0.0
C2503 C 0.09197 0.77715 0.76292 0.0
C2504 C 0.08963 0.76495 0.73802 0.0
C2505 C 0.07077 0.76478 0.72081 0.0
C2506 C 0.14644 0.76389 0.79239 0.0
C2507 C 0.15673 0.78586 0.80543 0.0
C2508 C 0.12475 0.76064 0.78 0.0
C2509 C 0.11307 0.77937 0.78006 0.0
C2510 C 0.12277 0.80094 0.79456 0.0
C2511 C 0.14437 0.8041 0.80729 0.0
H2512 H 0.15353 0.46311 0.50184 0.0
H2513 H 0.13611 0.43583 0.56927 0.0
H2514 H 0.14291 0.49995 0.51803 0.0
H2515 H 0.12436 0.47195 0.58468 0.0
H2516 H 0.09175 0.53288 0.60202 0.0
H2517 H 0.12398 0.51325 0.59681 0.0
H2518 H 0.10363 0.49994 0.51521 0.0
H2519 H 0.07233 0.51943 0.52046 0.0
C2520 C 0.14833 0.46532 0.52058 0.0
C2521 C 0.14499 0.4465 0.53396 0.0
C2522 C 0.14215 0.48635 0.52982 0.0
C2523 C 0.13204 0.4885 0.55213 0.0
C2524 C 0.13201 0.47087 0.56738 0.0
C2525 C 0.13863 0.45002 0.55841 0.0
C2526 C 0.09463 0.52607 0.58306 0.0
C2527 C 0.0795 0.52716 0.5617 0.0
C2528 C 0.11302 0.51498 0.58004 0.0
C2529 C 0.11645 0.50515 0.55561 0.0
C2530 C 0.10189 0.50769 0.53427 0.0
C2531 C 0.0836 0.51847 0.53731 0.0
H2532 H 0.4365 0.32022 0.20438 0.0
H2533 H 0.46367 0.27042 0.24582 0.0
H2534 H 0.41965 0.33414 0.24127 0.0
H2535 H 0.44595 0.2835 0.28238 0.0
H2536 H 0.43752 0.33416 0.35245 0.0
H2537 H 0.45147 0.31649 0.31466 0.0
H2538 H 0.39214 0.32564 0.26755 0.0
H2539 H 0.37896 0.34398 0.30502 0.0
C2540 C 0.4383 0.31182 0.22115 0.0
C2541 C 0.45138 0.29435 0.22237 0.0
C2542 C 0.42865 0.31975 0.24231 0.0
C2543 C 0.43165 0.31008 0.2649 0.0
C2544 C 0.44377 0.29169 0.26551 0.0
C2545 C 0.45368 0.28401 0.24449 0.0
C2546 C 0.42771 0.33253 0.33392 0.0
C2547 C 0.4076 0.34109 0.33141 0.0
C2548 C 0.43548 0.3222 0.31233 0.0
C2549 C 0.42299 0.31987 0.28801 0.0
C2550 C 0.40247 0.32774 0.28582 0.0
C2551 C 0.39495 0.33832 0.30727 0.0
H2552 H 0.67606 0.60774 0.43994 0.0
H2553 H 0.63664 0.54216 0.40496 0.0
H2554 H 0.65231 0.61002 0.47378 0.0
H2555 H 0.61308 0.54416 0.4391 0.0
H2556 H 0.58666 0.54705 0.5196 0.0
H2557 H 0.61047 0.54304 0.48561 0.0
H2558 H 0.61488 0.61607 0.48163 0.0
H2559 H 0.59096 0.6199 0.51476 0.0
C2560 C 0.66244 0.59364 0.43947 0.0
C2561 C 0.65857 0.57474 0.41933 0.0
C2562 C 0.64858 0.595 0.45898 0.0
C2563 C 0.63038 0.57731 0.45966 0.0
C2564 C 0.62682 0.55815 0.43977 0.0
C2565 C 0.64042 0.55704 0.41994 0.0
C2566 C 0.59252 0.56223 0.51134 0.0
C2567 C 0.58644 0.5838 0.52024 0.0
C2568 C 0.60629 0.55994 0.49167 0.0
C2569 C 0.61506 0.57924 0.48049 0.0
C2570 C 0.60896 0.60072 0.48956 0.0
C2571 C 0.59489 0.60288 0.50868 0.0
H2572 H 0.26355 0.87787 0.13419 0.0
H2573 H 0.25681 0.93984 0.18369 0.0
H2574 H 0.27757 0.86135 0.17098 0.0
H2575 H 0.26937 0.92294 0.22065 0.0
H2576 H 0.31214 0.89898 0.2817 0.0
H2577 H 0.30013 0.91438 0.24344 0.0
H2578 H 0.27056 0.84494 0.20651 0.0
H2579 H 0.28403 0.82957 0.24435 0.0
C2580 C 0.26462 0.88774 0.15303 0.0
C2581 C 0.25909 0.91012 0.15609 0.0
C2582 C 0.27262 0.87826 0.17423 0.0
C2583 C 0.2749 0.89079 0.19904 0.0
C2584 C 0.26855 0.91292 0.20196 0.0
C2585 C 0.26101 0.92255 0.18075 0.0
C2586 C 0.30339 0.88701 0.26521 0.0
C2587 C 0.29914 0.86308 0.26597 0.0
C2588 C 0.29618 0.89585 0.2433 0.0
C2589 C 0.28395 0.88105 0.22176 0.0
C2590 C 0.28015 0.85697 0.22243 0.0
C2591 C 0.28786 0.84809 0.24418 0.0
H2592 H 0.95673 0.6442 0.91199 0.0
H2593 H 1.02201 0.64992 0.88826 0.0
H2594 H 0.9714 0.63249 0.95168 0.0
H2595 H 0.03682 0.63845 0.92855 0.0
H2596 H 0.05279 0.6344 0.01815 0.0
H2597 H 0.04131 0.65145 0.98003 0.0
H2598 H 0.98683 0.59433 0.95714 0.0
H2599 H 0.99837 0.57723 0.99439 0.0
C2600 C 0.97435 0.64352 0.91549 0.0
C2601 C 0.98822 0.64803 0.89696 0.0
C2602 C 0.98271 0.63667 0.9382 0.0
C2603 C 1.00521 0.63447 0.94313 0.0
C2604 C 1.01943 0.64016 0.92527 0.0
C2605 C 1.01095 0.64669 0.90225 0.0
C2606 C 0.03842 0.62555 1.00487 0.0
C2607 C 1.02643 0.60454 1.00928 0.0
C2608 C 0.03192 0.63523 0.9831 0.0
C2609 C 1.01307 0.62428 0.96579 0.0
C2610 C 1.00126 0.60328 0.97028 0.0
C2611 C 1.00796 0.59345 0.99159 0.0
H2612 H 0.32637 0.23335 0.55118 0.0
H2613 H 0.30429 0.18356 0.59917 0.0
H2614 H 0.34128 0.26192 0.58902 0.0
H2615 H 0.31914 0.21206 0.63684 0.0
H2616 H 0.34856 0.26536 0.70202 0.0
H2617 H 0.3523 0.23936 0.66368 0.0
H2618 H 0.3161 0.27996 0.61754 0.0
H2619 H 0.31168 0.3053 0.65547 0.0
C2620 C 0.32534 0.2283 0.56981 0.0
C2621 C 0.31394 0.20644 0.57239 0.0
C2622 C 0.33386 0.24461 0.59138 0.0
C2623 C 0.33127 0.23915 0.61571 0.0
C2624 C 0.32161 0.2166 0.61828 0.0
C2625 C 0.31292 0.20037 0.59674 0.0
C2626 C 0.34177 0.26895 0.68362 0.0
C2627 C 0.32949 0.28713 0.68178 0.0
C2628 C 0.34408 0.2542 0.66176 0.0
C2629 C 0.33442 0.25768 0.6378 0.0
C2630 C 0.324 0.27712 0.63578 0.0
C2631 C 0.32146 0.29166 0.65759 0.0
H2632 H 0.6843 0.57072 0.26055 0.0
H2633 H 0.6265 0.57379 0.29885 0.0
H2634 H 0.66215 0.57294 0.2202 0.0
H2635 H 0.60414 0.57553 0.25849 0.0
H2636 H 0.57441 0.60163 0.1868 0.0
H2637 H 0.59637 0.59897 0.22706 0.0
H2638 H 0.63427 0.55364 0.18677 0.0
H2639 H 0.61261 0.55674 0.14651 0.0
C2640 C 0.6668 0.57169 0.26037 0.0
C2641 C 0.65731 0.57206 0.28316 0.0
C2642 C 0.65396 0.57285 0.23706 0.0
C2643 C 0.63111 0.57447 0.23565 0.0
C2644 C 0.62164 0.57468 0.25852 0.0
C2645 C 0.63449 0.57348 0.28181 0.0
C2646 C 0.58738 0.59103 0.18645 0.0
C2647 C 0.59156 0.57942 0.1631 0.0
C2648 C 0.60001 0.58938 0.20973 0.0
C2649 C 0.61734 0.57606 0.21061 0.0
C2650 C 0.62142 0.56438 0.1872 0.0
C2651 C 0.60879 0.56603 0.16393 0.0
H2652 H 0.22566 0.89637 1.00516 0.0
H2653 H 0.29429 0.90611 0.03942 0.0
H2654 H 0.23549 0.87627 0.96584 0.0
H2655 H 0.30423 0.8872 1.0004 0.0
H2656 H 0.31616 0.83651 0.93613 0.0
H2657 H 0.30235 0.85158 0.97488 0.0
H2658 H 0.25422 0.88178 0.93012 0.0
H2659 H 0.26742 0.8657 0.89133 0.0
C2660 C 0.24278 0.89415 1.00432 0.0
C2661 C 0.25912 0.90262 0.02551 0.0
C2662 C 0.24849 0.88281 0.98174 0.0
C2663 C 0.27068 0.8798 0.97986 0.0
C2664 C 0.28689 0.88848 1.00114 0.0
C2665 C 0.28118 0.89957 0.0236 0.0
C2666 C 0.30237 0.84601 0.93457 0.0
C2667 C 0.29293 0.84989 0.91068 0.0
C2668 C 0.29456 0.85492 0.95682 0.0
C2669 C 0.2773 0.86827 0.95584 0.0
C2670 C 0.26734 0.87143 0.93176 0.0
C2671 C 0.27499 0.86226 0.90946 0.0
H2672 H 1.00975 0.65974 0.76191 0.0
H2673 H 0.96437 0.59458 0.75006 0.0
H2674 H 1.02475 0.64732 0.72273 0.0
H2675 H 0.97967 0.58195 0.71181 0.0
H2676 H 0.99399 0.57611 0.63058 0.0
H2677 H 0.97981 0.58953 0.66946 0.0
H2678 H 0.04658 0.62006 0.70466 0.0
H2679 H 0.06071 0.6074 0.66535 0.0
C2680 C 1.00312 0.64276 0.75104 0.0
C2681 C 0.98591 0.62816 0.75898 0.0
C2682 C 1.01175 0.63558 0.72872 0.0
C2683 C 1.00332 0.61366 0.71408 0.0
C2684 C 0.98626 0.59909 0.72231 0.0
C2685 C 0.9776 0.60628 0.74439 0.0
C2686 C 1.00568 0.58561 0.64657 0.0
C2687 C 1.02847 0.59062 0.64478 0.0
C2688 C 0.99756 0.59324 0.66897 0.0
C2689 C 1.01207 0.60587 0.69021 0.0
C2690 C 0.03492 0.61065 0.68855 0.0
C2691 C 0.04304 0.60312 0.66607 0.0
H2692 H 0.27412 0.1818 0.42395 0.0
H2693 H 0.26031 0.23689 0.47881 0.0
H2694 H 0.2759 0.20778 0.39241 0.0
H2695 H 0.26118 0.26275 0.44685 0.0
H2696 H 0.29323 0.30739 0.39063 0.0
H2697 H 0.2876 0.28323 0.42402 0.0
H2698 H 0.25237 0.22661 0.3669 0.0
H2699 H 0.25909 0.25016 0.3339 0.0
C2700 C 0.27105 0.19936 0.42907 0.0
C2701 C 0.26699 0.20738 0.45366 0.0
C2702 C 0.27197 0.21422 0.41102 0.0
C2703 C 0.26851 0.23726 0.41716 0.0
C2704 C 0.26411 0.24517 0.4417 0.0
C2705 C 0.26343 0.23033 0.45987 0.0
C2706 C 0.28413 0.28985 0.38549 0.0
C2707 C 0.27692 0.28033 0.35992 0.0
C2708 C 0.28081 0.27608 0.40447 0.0
C2709 C 0.2699 0.2529 0.39792 0.0
C2710 C 0.26142 0.24415 0.37241 0.0
C2711 C 0.26514 0.25765 0.35356 0.0
H2712 H 0.44219 0.71974 0.56187 0.0
H2713 H 0.40646 0.66844 0.5993 0.0
H2714 H 0.46911 0.6942 0.55342 0.0
H2715 H 0.43392 0.6433 0.59207 0.0
H2716 H 0.47842 0.59466 0.56164 0.0
H2717 H 0.44887 0.61845 0.56281 0.0
H2718 H 0.49853 0.68049 0.57347 0.0
H2719 H 0.52731 0.65692 0.57065 0.0
C2720 C 0.44028 0.70313 0.5686 0.0
C2721 C 0.42234 0.69622 0.58142 0.0
C2722 C 0.45575 0.68842 0.56382 0.0
C2723 C 0.45385 0.66655 0.57208 0.0
C2724 C 0.43582 0.65973 0.58497 0.0
C2725 C 0.42021 0.67432 0.58945 0.0
C2726 C 0.4828 0.61334 0.56331 0.0
C2727 C 0.50518 0.6239 0.56593 0.0
C2728 C 0.46594 0.62705 0.56448 0.0
C2729 C 0.4712 0.65154 0.56841 0.0
C2730 C 0.49358 0.66182 0.56997 0.0
C2731 C 0.51023 0.64822 0.56853 0.0
H2732 H 0.91341 1.01229 0.68052 0.0
H2733 H 0.89952 0.07921 0.66493 0.0
H2734 H 0.9486 1.01941 0.66355 0.0
H2735 H 0.93501 0.08639 0.64834 0.0
H2736 H 1.01121 0.09339 0.64048 0.0
H2737 H 0.97885 0.08907 0.66331 0.0
H2738 H 0.95271 0.02369 0.61489 0.0
H2739 H 0.98488 0.02816 0.59172 0.0
C2740 C 0.9182 0.02882 0.67425 0.0
C2741 C 0.90379 0.04522 0.67395 0.0
C2742 C 0.93819 0.03274 0.66435 0.0
C2743 C 0.94417 0.05328 0.65448 0.0
C2744 C 0.93062 0.07044 0.65593 0.0
C2745 C 0.91043 0.06637 0.66546 0.0
C2746 C 0.99849 0.07813 0.63474 0.0
C2747 C 1.00038 0.06102 0.61448 0.0
C2748 C 0.98009 0.07572 0.64774 0.0
C2749 C 0.96362 0.05597 0.64091 0.0
C2750 C 0.96547 0.03891 0.6206 0.0
C2751 C 0.98368 0.04153 0.60728 0.0
H2752 H 0.9184 0.18572 0.34066 0.0
H2753 H 0.8527 0.1458 0.31962 0.0
H2754 H 0.90269 0.22148 0.34571 0.0
H2755 H 0.83675 0.18156 0.3239 0.0
H2756 H 0.80923 0.24877 0.34879 0.0
H2757 H 0.82497 0.21296 0.34465 0.0
H2758 H 0.88745 0.25161 0.333 0.0
H2759 H 0.8717 0.28735 0.3378 0.0
C2760 C 0.90051 0.18442 0.33692 0.0
C2761 C 0.88711 0.16224 0.32966 0.0
C2762 C 0.89128 0.20533 0.33968 0.0
C2763 C 0.868 0.20544 0.33531 0.0
C2764 C 0.85462 0.1831 0.32798 0.0
C2765 C 0.86389 0.16218 0.32527 0.0
C2766 C 0.82643 0.24981 0.34559 0.0
C2767 C 0.83897 0.27165 0.34398 0.0
C2768 C 0.8356 0.22885 0.34288 0.0
C2769 C 0.85793 0.22837 0.33837 0.0
C2770 C 0.87043 0.25037 0.33682 0.0
C2771 C 0.86123 0.2713 0.3395 0.0
H2772 H 0.78746 0.20959 0.0621 0.0
H2773 H 0.8221 0.16551 0.10518 0.0
H2774 H 0.75224 0.18427 0.06258 0.0
H2775 H 0.78701 0.14013 0.10536 0.0
H2776 H 0.71794 0.12417 0.13132 0.0
H2777 H 0.75387 0.14561 0.12671 0.0
H2778 H 0.73207 0.1437 0.04656 0.0
H2779 H 0.69603 0.12181 0.05103 0.0
C2780 C 0.78753 0.1944 0.07146 0.0
C2781 C 0.80736 0.18958 0.08383 0.0
C2782 C 0.76746 0.17986 0.07157 0.0
C2783 C 0.767 0.16037 0.08411 0.0
C2784 C 0.78695 0.15522 0.09583 0.0
C2785 C 0.80698 0.1697 0.09566 0.0
C2786 C 0.72094 0.12786 0.11259 0.0
C2787 C 0.70422 0.12125 0.09151 0.0
C2788 C 0.74148 0.14018 0.10998 0.0
C2789 C 0.74566 0.14621 0.08628 0.0
C2790 C 0.72911 0.13939 0.06508 0.0
C2791 C 0.70855 0.12693 0.06766 0.0
H2792 H 0.16001 0.43559 0.30399 0.0
H2793 H 0.21107 0.48205 0.35706 0.0
H2794 H 0.18224 0.40449 0.30607 0.0
H2795 H 0.23329 0.45126 0.3588 0.0
H2796 H 0.25867 0.38433 0.37248 0.0
H2797 H 0.23394 0.41335 0.37331 0.0
H2798 H 0.21784 0.39744 0.29135 0.0
H2799 H 0.24226 0.36848 0.29058 0.0
C2800 C 0.17585 0.43906 0.31624 0.0
C2801 C 0.18383 0.46118 0.33033 0.0
C2802 C 0.18861 0.42137 0.31731 0.0
C2803 C 0.20949 0.42551 0.33258 0.0
C2804 C 0.21716 0.44748 0.34714 0.0
C2805 C 0.20447 0.46514 0.346 0.0
C2806 C 0.24964 0.38694 0.35474 0.0
C2807 C 0.25187 0.37381 0.33157 0.0
C2808 C 0.2356 0.40356 0.35518 0.0
C2809 C 0.22376 0.4074 0.33242 0.0
C2810 C 0.22635 0.39449 0.30923 0.0
C2811 C 0.24033 0.37792 0.30881 0.0
H2812 H 0.30602 0.5662 0.12176 0.0
H2813 H 0.28021 0.54774 0.18952 0.0
H2814 H 0.27402 0.58466 0.11146 0.0
H2815 H 0.24824 0.56675 0.17943 0.0
H2816 H 0.18213 0.56478 0.12588 0.0
H2817 H 0.21668 0.55459 0.14458 0.0
H2818 H 0.25355 0.61615 0.12416 0.0
H2819 H 0.21885 0.6265 0.10553 0.0
C2820 C 0.29382 0.56673 0.13485 0.0
C2821 C 0.29544 0.55548 0.15633 0.0
C2822 C 0.27555 0.57738 0.12901 0.0
C2823 C 0.25865 0.57698 0.14459 0.0
C2824 C 0.26099 0.56706 0.167 0.0
C2825 C 0.27933 0.55639 0.17287 0.0
C2826 C 0.19755 0.5764 0.12584 0.0
C2827 C 0.19784 0.59642 0.11421 0.0
C2828 C 0.21731 0.5706 0.13663 0.0
C2829 C 0.23771 0.58469 0.13593 0.0
C2830 C 0.23799 0.60496 0.1248 0.0
C2831 C 0.21821 0.61079 0.11404 0.0
H2832 H 0.85369 0.02529 0.29828 0.0
H2833 H 0.91031 1.02027 0.35144 0.0
H2834 H 0.83718 0.9853 0.30151 0.0
H2835 H 0.89386 0.98124 0.35562 0.0
H2836 H 0.87114 0.90401 0.34866 0.0
H2837 H 0.88572 0.94315 0.34325 0.0
H2838 H 0.81922 0.9545 0.31878 0.0
H2839 H 0.80466 0.91421 0.32344 0.0
C2840 C 0.86271 1.01579 0.31075 0.0
C2841 C 0.8837 0.02656 0.32437 0.0
C2842 C 0.85308 0.99255 0.3128 0.0
C2843 C 0.86388 0.97882 0.32867 0.0
C2844 C 0.88472 0.99002 0.3425 0.0
C2845 C 0.89433 1.013 0.34029 0.0
C2846 C 0.8594 0.91468 0.34212 0.0
C2847 C 0.83647 0.90527 0.33675 0.0
C2848 C 0.8679 0.93776 0.33918 0.0
C2849 C 0.85404 0.95329 0.33091 0.0
C2850 C 0.83094 0.94378 0.32513 0.0
C2851 C 0.82239 0.92037 0.32794 0.0
H2852 H 0.67789 0.10036 0.85524 0.0
H2853 H 0.72158 0.06187 0.8154 0.0
H2854 H 0.70114 0.1367 0.8512 0.0
H2855 H 0.74487 0.09815 0.81159 0.0
H2856 H 0.75692 0.16654 0.7775 0.0
H2857 H 0.73803 0.12969 0.78625 0.0
H2858 H 0.73948 0.15973 0.86484 0.0
H2859 H 0.75871 0.19656 0.85625 0.0
C2860 C 0.69266 0.09969 0.84603 0.0
C2861 C 0.69791 0.07841 0.8355 0.0
C2862 C 0.70597 0.12043 0.8438 0.0
C2863 C 0.72465 0.12012 0.83093 0.0
C2864 C 0.73038 0.09879 0.82132 0.0
C2865 C 0.71714 0.07808 0.82365 0.0
C2866 C 0.75359 0.16516 0.79675 0.0
C2867 C 0.75922 0.18441 0.81617 0.0
C2868 C 0.74277 0.1441 0.80174 0.0
C2869 C 0.73735 0.14197 0.82621 0.0
C2870 C 0.7433 0.16106 0.84576 0.0
C2871 C 0.75424 0.18209 0.84081 0.0
loop_
_geom_bond_atom_site_label_1
_geom_bond_atom_site_label_2
_geom_bond_distance
_geom_bond_site_symmetry_2
_ccdc_geom_bond_type
In0 O1 2.294 . S
In0 O2 2.326 . S
In0 O6 2.266 . S
In0 O7 2.326 . S
In0 O8 2.266 . S
In0 O9 2.326 . S
In0 O11 2.294 . S
In0 O12 2.326 . S
O1 In0 2.294 . S
O1 C10 1.240 . S
O2 In0 2.326 . S
O2 C10 1.252 . S
C3 O6 1.252 . S
C3 O7 1.260 . S
C4 O11 1.240 . S
C4 O12 1.252 . S
C5 O8 1.252 . S
C5 O9 1.260 . S
O6 In0 2.266 . S
O6 C3 1.252 . S
O7 In0 2.326 . S
O7 C3 1.260 . S
O8 In0 2.266 . S
O8 C5 1.252 . S
O9 In0 2.326 . S
O9 C5 1.260 . S
C10 O1 1.240 . S
C10 O2 1.252 . S
O11 In0 2.294 . S
O11 C4 1.240 . S
O12 In0 2.326 . S
O12 C4 1.252 . S
In13 O14 2.296 . S
In13 O15 2.326 . S
In13 O19 2.266 1_455 S
In13 O20 2.326 1_455 S
In13 O21 2.254 1_455 S
In13 O22 2.308 1_455 S
In13 O24 2.304 . S
In13 O25 2.344 . S
O14 In13 2.296 . S
O14 C23 1.240 . S
O15 In13 2.326 . S
O15 C23 1.252 . S
C16 O19 1.252 . S
C16 O20 1.260 . S
C17 O24 1.240 . S
C17 O25 1.252 . S
C18 O21 1.252 . S
C18 O22 1.260 . S
O19 In13 2.266 1_655 S
O19 C16 1.252 . S
O20 In13 2.326 1_655 S
O20 C16 1.260 . S
O21 In13 2.254 1_655 S
O21 C18 1.252 . S
O22 In13 2.308 1_655 S
O22 C18 1.260 . S
C23 O14 1.240 . S
C23 O15 1.252 . S
O24 In13 2.304 . S
O24 C17 1.240 . S
O25 In13 2.344 . S
O25 C17 1.252 . S
In26 O27 2.294 . S
In26 O28 2.326 1_556 S
In26 O32 2.266 . S
In26 O33 2.326 1_556 S
In26 O34 2.266 1_556 S
In26 O35 2.326 . S
In26 O37 2.294 1_556 S
In26 O38 2.326 . S
O27 In26 2.294 . S
O27 C36 1.240 . S
O28 In26 2.326 1_554 S
O28 C36 1.252 1_554 S
C29 O32 1.252 . S
C29 O33 1.260 1_556 S
C30 O37 1.240 . S
C30 O38 1.252 1_554 S
C31 O34 1.252 . S
C31 O35 1.260 1_554 S
O32 In26 2.266 . S
O32 C29 1.252 . S
O33 In26 2.326 1_554 S
O33 C29 1.260 1_554 S
O34 In26 2.266 1_554 S
O34 C31 1.252 . S
O35 In26 2.326 . S
O35 C31 1.260 1_556 S
C36 O27 1.240 . S
C36 O28 1.252 1_556 S
O37 In26 2.294 1_554 S
O37 C30 1.240 . S
O38 In26 2.326 . S
O38 C30 1.252 1_556 S
In39 O40 2.294 . S
In39 O41 2.326 . S
In39 O45 2.266 . S
In39 O46 2.326 . S
In39 O47 2.266 . S
In39 O48 2.326 . S
In39 O50 2.294 . S
In39 O51 2.326 . S
O40 In39 2.294 . S
O40 C49 1.240 . S
O41 In39 2.326 . S
O41 C49 1.252 . S
C42 O45 1.252 . S
C42 O46 1.260 . S
C43 O50 1.240 . S
C43 O51 1.252 . S
C44 O47 1.252 . S
C44 O48 1.260 . S
O45 In39 2.266 . S
O45 C42 1.252 . S
O46 In39 2.326 . S
O46 C42 1.260 . S
O47 In39 2.266 . S
O47 C44 1.252 . S
O48 In39 2.326 . S
O48 C44 1.260 . S
C49 O40 1.240 . S
C49 O41 1.252 . S
O50 In39 2.294 . S
O50 C43 1.240 . S
O51 In39 2.326 . S
O51 C43 1.252 . S
In52 O53 2.294 . S
In52 O54 2.326 . S
In52 O58 2.266 . S
In52 O59 2.326 . S
In52 O60 2.266 . S
In52 O61 2.326 . S
In52 O63 2.294 . S
In52 O64 2.326 1_455 S
O53 In52 2.294 . S
O53 C62 1.240 . S
O54 In52 2.326 . S
O54 C62 1.252 . S
C55 O58 1.252 . S
C55 O59 1.260 . S
C56 O63 1.240 1_655 S
C56 O64 1.252 . S
C57 O60 1.252 . S
C57 O61 1.260 . S
O58 In52 2.266 . S
O58 C55 1.252 . S
O59 In52 2.326 . S
O59 C55 1.260 . S
O60 In52 2.266 . S
O60 C57 1.252 . S
O61 In52 2.326 . S
O61 C57 1.260 . S
C62 O53 1.240 . S
C62 O54 1.252 . S
O63 In52 2.294 . S
O63 C56 1.240 1_455 S
O64 In52 2.326 1_655 S
O64 C56 1.252 . S
In65 O66 2.294 . S
In65 O67 2.326 . S
In65 O71 2.266 . S
In65 O72 2.326 . S
In65 O73 2.266 . S
In65 O74 2.326 . S
In65 O76 2.294 . S
In65 O77 2.326 . S
O66 In65 2.294 . S
O66 C75 1.240 . S
O67 In65 2.326 . S
O67 C75 1.252 . S
C68 O71 1.252 . S
C68 O72 1.260 . S
C69 O76 1.240 . S
C69 O77 1.252 . S
C70 O73 1.252 . S
C70 O74 1.260 . S
O71 In65 2.266 . S
O71 C68 1.252 . S
O72 In65 2.326 . S
O72 C68 1.260 . S
O73 In65 2.266 . S
O73 C70 1.252 . S
O74 In65 2.326 . S
O74 C70 1.260 . S
C75 O66 1.240 . S
C75 O67 1.252 . S
O76 In65 2.294 . S
O76 C69 1.240 . S
O77 In65 2.326 . S
O77 C69 1.252 . S
In78 O79 2.294 . S
In78 O80 2.326 . S
In78 O84 2.266 . S
In78 O85 2.326 . S
In78 O86 2.266 . S
In78 O87 2.326 . S
In78 O89 2.294 . S
In78 O90 2.326 . S
O79 In78 2.294 . S
O79 C88 1.240 . S
O80 In78 2.326 . S
O80 C88 1.252 . S
C81 O84 1.252 . S
C81 O85 1.260 . S
C82 O89 1.240 . S
C82 O90 1.252 . S
C83 O86 1.252 . S
C83 O87 1.260 . S
O84 In78 2.266 . S
O84 C81 1.252 . S
O85 In78 2.326 . S
O85 C81 1.260 . S
O86 In78 2.266 . S
O86 C83 1.252 . S
O87 In78 2.326 . S
O87 C83 1.260 . S
C88 O79 1.240 . S
C88 O80 1.252 . S
O89 In78 2.294 . S
O89 C82 1.240 . S
O90 In78 2.326 . S
O90 C82 1.252 . S
In91 O92 2.294 . S
In91 O93 2.326 . S
In91 O97 2.266 . S
In91 O98 2.326 . S
In91 O99 2.266 . S
In91 O100 2.326 1_455 S
In91 O102 2.294 . S
In91 O103 2.326 . S
O92 In91 2.294 . S
O92 C101 1.240 . S
O93 In91 2.326 . S
O93 C101 1.252 . S
C94 O97 1.252 . S
C94 O98 1.260 . S
C95 O102 1.240 . S
C95 O103 1.252 . S
C96 O99 1.252 1_655 S
C96 O100 1.260 . S
O97 In91 2.266 . S
O97 C94 1.252 . S
O98 In91 2.326 . S
O98 C94 1.260 . S
O99 In91 2.266 . S
O99 C96 1.252 1_455 S
O100 In91 2.326 1_655 S
O100 C96 1.260 . S
C101 O92 1.240 . S
C101 O93 1.252 . S
O102 In91 2.294 . S
O102 C95 1.240 . S
O103 In91 2.326 . S
O103 C95 1.252 . S
In104 O105 2.294 . S
In104 O106 2.326 . S
In104 O110 2.266 . S
In104 O111 2.326 . S
In104 O112 2.266 . S
In104 O113 2.326 . S
In104 O115 2.294 . S
In104 O116 2.326 . S
O105 In104 2.294 . S
O105 C114 1.240 . S
O106 In104 2.326 . S
O106 C114 1.252 . S
C107 O110 1.252 . S
C107 O111 1.260 . S
C108 O115 1.240 . S
C108 O116 1.252 . S
C109 O112 1.252 . S
C109 O113 1.260 . S
O110 In104 2.266 . S
O110 C107 1.252 . S
O111 In104 2.326 . S
O111 C107 1.260 . S
O112 In104 2.266 . S
O112 C109 1.252 . S
O113 In104 2.326 . S
O113 C109 1.260 . S
C114 O105 1.240 . S
C114 O106 1.252 . S
O115 In104 2.294 . S
O115 C108 1.240 . S
O116 In104 2.326 . S
O116 C108 1.252 . S
In117 O118 2.294 . S
In117 O119 2.326 . S
In117 O123 2.266 . S
In117 O124 2.326 . S
In117 O125 2.266 . S
In117 O126 2.326 . S
In117 O128 2.294 . S
In117 O129 2.326 . S
O118 In117 2.294 . S
O118 C127 1.240 . S
O119 In117 2.326 . S
O119 C127 1.252 . S
C120 O123 1.252 . S
C120 O124 1.260 . S
C121 O128 1.240 . S
C121 O129 1.252 . S
C122 O125 1.252 . S
C122 O126 1.260 . S
O123 In117 2.266 . S
O123 C120 1.252 . S
O124 In117 2.326 . S
O124 C120 1.260 . S
O125 In117 2.266 . S
O125 C122 1.252 . S
O126 In117 2.326 . S
O126 C122 1.260 . S
C127 O118 1.240 . S
C127 O119 1.252 . S
O128 In117 2.294 . S
O128 C121 1.240 . S
O129 In117 2.326 . S
O129 C121 1.252 . S
In130 O131 2.294 . S
In130 O132 2.326 . S
In130 O136 2.266 . S
In130 O137 2.326 . S
In130 O138 2.266 . S
In130 O139 2.326 . S
In130 O141 2.294 . S
In130 O142 2.326 . S
O131 In130 2.294 . S
O131 C140 1.240 . S
O132 In130 2.326 . S
O132 C140 1.252 . S
C133 O136 1.252 . S
C133 O137 1.260 . S
C134 O141 1.240 . S
C134 O142 1.252 . S
C135 O138 1.252 . S
C135 O139 1.260 . S
O136 In130 2.266 . S
O136 C133 1.252 . S
O137 In130 2.326 . S
O137 C133 1.260 . S
O138 In130 2.266 . S
O138 C135 1.252 . S
O139 In130 2.326 . S
O139 C135 1.260 . S
C140 O131 1.240 . S
C140 O132 1.252 . S
O141 In130 2.294 . S
O141 C134 1.240 . S
O142 In130 2.326 . S
O142 C134 1.252 . S
In143 O144 2.294 . S
In143 O145 2.326 . S
In143 O149 2.266 . S
In143 O150 2.326 . S
In143 O151 2.266 . S
In143 O152 2.326 . S
In143 O154 2.294 . S
In143 O155 2.326 . S
O144 In143 2.294 . S
O144 C153 1.240 . S
O145 In143 2.326 . S
O145 C153 1.252 . S
C146 O149 1.252 . S
C146 O150 1.260 . S
C147 O154 1.240 . S
C147 O155 1.252 . S
C148 O151 1.252 . S
C148 O152 1.260 . S
O149 In143 2.266 . S
O149 C146 1.252 . S
O150 In143 2.326 . S
O150 C146 1.260 . S
O151 In143 2.266 . S
O151 C148 1.252 . S
O152 In143 2.326 . S
O152 C148 1.260 . S
C153 O144 1.240 . S
C153 O145 1.252 . S
O154 In143 2.294 . S
O154 C147 1.240 . S
O155 In143 2.326 . S
O155 C147 1.252 . S
In156 O157 2.294 . S
In156 O158 2.326 . S
In156 O162 2.266 . S
In156 O163 2.326 . S
In156 O164 2.266 . S
In156 O165 2.326 . S
In156 O167 2.294 . S
In156 O168 2.326 . S
O157 In156 2.294 . S
O157 C166 1.240 . S
O158 In156 2.326 . S
O158 C166 1.252 . S
C159 O162 1.252 . S
C159 O163 1.260 . S
C160 O167 1.240 . S
C160 O168 1.252 . S
C161 O164 1.252 . S
C161 O165 1.260 . S
O162 In156 2.266 . S
O162 C159 1.252 . S
O163 In156 2.326 . S
O163 C159 1.260 . S
O164 In156 2.266 . S
O164 C161 1.252 . S
O165 In156 2.326 . S
O165 C161 1.260 . S
C166 O157 1.240 . S
C166 O158 1.252 . S
O167 In156 2.294 . S
O167 C160 1.240 . S
O168 In156 2.326 . S
O168 C160 1.252 . S
In169 O170 2.294 . S
In169 O171 2.326 . S
In169 O175 2.266 . S
In169 O176 2.326 . S
In169 O177 2.266 . S
In169 O178 2.326 . S
In169 O180 2.294 . S
In169 O181 2.326 . S
O170 In169 2.294 . S
O170 C179 1.240 . S
O171 In169 2.326 . S
O171 C179 1.252 . S
C172 O175 1.252 . S
C172 O176 1.260 . S
C173 O180 1.240 . S
C173 O181 1.252 . S
C174 O177 1.252 . S
C174 O178 1.260 . S
O175 In169 2.266 . S
O175 C172 1.252 . S
O176 In169 2.326 . S
O176 C172 1.260 . S
O177 In169 2.266 . S
O177 C174 1.252 . S
O178 In169 2.326 . S
O178 C174 1.260 . S
C179 O170 1.240 . S
C179 O171 1.252 . S
O180 In169 2.294 . S
O180 C173 1.240 . S
O181 In169 2.326 . S
O181 C173 1.252 . S
In182 O183 2.294 . S
In182 O184 2.326 . S
In182 O188 2.266 . S
In182 O189 2.326 . S
In182 O190 2.266 . S
In182 O191 2.326 . S
In182 O193 2.294 . S
In182 O194 2.326 . S
O183 In182 2.294 . S
O183 C192 1.240 . S
O184 In182 2.326 . S
O184 C192 1.252 . S
C185 O188 1.252 . S
C185 O189 1.260 . S
C186 O193 1.240 . S
C186 O194 1.252 . S
C187 O190 1.252 . S
C187 O191 1.260 . S
O188 In182 2.266 . S
O188 C185 1.252 . S
O189 In182 2.326 . S
O189 C185 1.260 . S
O190 In182 2.266 . S
O190 C187 1.252 . S
O191 In182 2.326 . S
O191 C187 1.260 . S
C192 O183 1.240 . S
C192 O184 1.252 . S
O193 In182 2.294 . S
O193 C186 1.240 . S
O194 In182 2.326 . S
O194 C186 1.252 . S
In195 O196 2.294 . S
In195 O197 2.326 . S
In195 O201 2.266 . S
In195 O202 2.326 . S
In195 O203 2.266 1_565 S
In195 O204 2.326 . S
In195 O206 2.294 1_565 S
In195 O207 2.326 . S
O196 In195 2.294 . S
O196 C205 1.240 . S
O197 In195 2.326 . S
O197 C205 1.252 . S
C198 O201 1.252 . S
C198 O202 1.260 . S
C199 O206 1.240 1_565 S
C199 O207 1.252 . S
C200 O203 1.252 1_565 S
C200 O204 1.260 . S
O201 In195 2.266 . S
O201 C198 1.252 . S
O202 In195 2.326 . S
O202 C198 1.260 . S
O203 In195 2.266 1_545 S
O203 C200 1.252 1_545 S
O204 In195 2.326 . S
O204 C200 1.260 . S
C205 O196 1.240 . S
C205 O197 1.252 . S
O206 In195 2.294 1_545 S
O206 C199 1.240 1_545 S
O207 In195 2.326 . S
O207 C199 1.252 . S
In208 O209 2.294 . S
In208 O210 2.326 . S
In208 O214 2.266 . S
In208 O215 2.326 . S
In208 O216 2.266 . S
In208 O217 2.326 . S
In208 O219 2.294 . S
In208 O220 2.326 . S
O209 In208 2.294 . S
O209 C218 1.240 . S
O210 In208 2.326 . S
O210 C218 1.252 . S
C211 O214 1.252 . S
C211 O215 1.260 . S
C212 O219 1.240 . S
C212 O220 1.252 . S
C213 O216 1.252 . S
C213 O217 1.260 . S
O214 In208 2.266 . S
O214 C211 1.252 . S
O215 In208 2.326 . S
O215 C211 1.260 . S
O216 In208 2.266 . S
O216 C213 1.252 . S
O217 In208 2.326 . S
O217 C213 1.260 . S
C218 O209 1.240 . S
C218 O210 1.252 . S
O219 In208 2.294 . S
O219 C212 1.240 . S
O220 In208 2.326 . S
O220 C212 1.252 . S
In221 O222 2.294 . S
In221 O223 2.326 . S
In221 O227 2.266 . S
In221 O228 2.326 . S
In221 O229 2.266 . S
In221 O230 2.326 . S
In221 O232 2.294 . S
In221 O233 2.326 . S
O222 In221 2.294 . S
O222 C231 1.240 . S
O223 In221 2.326 . S
O223 C231 1.252 . S
C224 O227 1.252 . S
C224 O228 1.260 . S
C225 O232 1.240 . S
C225 O233 1.252 . S
C226 O229 1.252 . S
C226 O230 1.260 . S
O227 In221 2.266 . S
O227 C224 1.252 . S
O228 In221 2.326 . S
O228 C224 1.260 . S
O229 In221 2.266 . S
O229 C226 1.252 . S
O230 In221 2.326 . S
O230 C226 1.260 . S
C231 O222 1.240 . S
C231 O223 1.252 . S
O232 In221 2.294 . S
O232 C225 1.240 . S
O233 In221 2.326 . S
O233 C225 1.252 . S
In234 O235 2.294 . S
In234 O236 2.326 . S
In234 O240 2.266 . S
In234 O241 2.326 . S
In234 O242 2.266 . S
In234 O243 2.326 . S
In234 O245 2.294 . S
In234 O246 2.326 . S
O235 In234 2.294 . S
O235 C244 1.240 . S
O236 In234 2.326 . S
O236 C244 1.252 . S
C237 O240 1.252 . S
C237 O241 1.260 . S
C238 O245 1.240 . S
C238 O246 1.252 . S
C239 O242 1.252 . S
C239 O243 1.260 . S
O240 In234 2.266 . S
O240 C237 1.252 . S
O241 In234 2.326 . S
O241 C237 1.260 . S
O242 In234 2.266 . S
O242 C239 1.252 . S
O243 In234 2.326 . S
O243 C239 1.260 . S
C244 O235 1.240 . S
C244 O236 1.252 . S
O245 In234 2.294 . S
O245 C238 1.240 . S
O246 In234 2.326 . S
O246 C238 1.252 . S
In247 O248 2.294 1_545 S
In247 O249 2.326 1_545 S
In247 O253 2.266 . S
In247 O254 2.326 . S
In247 O255 2.266 . S
In247 O256 2.326 . S
In247 O258 2.294 1_545 S
In247 O259 2.326 1_545 S
O248 In247 2.294 1_565 S
O248 C257 1.240 . S
O249 In247 2.326 1_565 S
O249 C257 1.252 . S
C250 O253 1.252 . S
C250 O254 1.260 . S
C251 O258 1.240 . S
C251 O259 1.252 . S
C252 O255 1.252 . S
C252 O256 1.260 . S
O253 In247 2.266 . S
O253 C250 1.252 . S
O254 In247 2.326 . S
O254 C250 1.260 . S
O255 In247 2.266 . S
O255 C252 1.252 . S
O256 In247 2.326 . S
O256 C252 1.260 . S
C257 O248 1.240 . S
C257 O249 1.252 . S
O258 In247 2.294 1_565 S
O258 C251 1.240 . S
O259 In247 2.326 1_565 S
O259 C251 1.252 . S
In260 O261 2.294 . S
In260 O262 2.326 . S
In260 O266 2.266 1_554 S
In260 O267 2.326 1_554 S
In260 O268 2.264 1_554 S
In260 O269 2.322 1_554 S
In260 O271 2.296 . S
In260 O272 2.330 . S
O261 In260 2.294 . S
O261 C270 1.240 . S
O262 In260 2.326 . S
O262 C270 1.252 . S
C263 O266 1.252 . S
C263 O267 1.260 . S
C264 O271 1.240 . S
C264 O272 1.252 . S
C265 O268 1.252 . S
C265 O269 1.260 . S
O266 In260 2.266 1_556 S
O266 C263 1.252 . S
O267 In260 2.326 1_556 S
O267 C263 1.260 . S
O268 In260 2.264 1_556 S
O268 C265 1.252 . S
O269 In260 2.322 1_556 S
O269 C265 1.260 . S
C270 O261 1.240 . S
C270 O262 1.252 . S
O271 In260 2.296 . S
O271 C264 1.240 . S
O272 In260 2.330 . S
O272 C264 1.252 . S
In273 O274 2.294 . S
In273 O275 2.326 . S
In273 O279 2.266 . S
In273 O280 2.326 . S
In273 O281 2.266 . S
In273 O282 2.326 . S
In273 O284 2.294 . S
In273 O285 2.326 . S
O274 In273 2.294 . S
O274 C283 1.240 . S
O275 In273 2.326 . S
O275 C283 1.252 . S
C276 O279 1.252 . S
C276 O280 1.260 . S
C277 O284 1.240 . S
C277 O285 1.252 . S
C278 O281 1.252 . S
C278 O282 1.260 . S
O279 In273 2.266 . S
O279 C276 1.252 . S
O280 In273 2.326 . S
O280 C276 1.260 . S
O281 In273 2.266 . S
O281 C278 1.252 . S
O282 In273 2.326 . S
O282 C278 1.260 . S
C283 O274 1.240 . S
C283 O275 1.252 . S
O284 In273 2.294 . S
O284 C277 1.240 . S
O285 In273 2.326 . S
O285 C277 1.252 . S
In286 O287 2.294 . S
In286 O288 2.326 . S
In286 O292 2.266 . S
In286 O293 2.326 . S
In286 O294 2.266 . S
In286 O295 2.326 . S
In286 O297 2.294 . S
In286 O298 2.326 . S
O287 In286 2.294 . S
O287 C296 1.240 . S
O288 In286 2.326 . S
O288 C296 1.252 . S
C289 O292 1.252 . S
C289 O293 1.260 . S
C290 O297 1.240 . S
C290 O298 1.252 . S
C291 O294 1.252 . S
C291 O295 1.260 . S
O292 In286 2.266 . S
O292 C289 1.252 . S
O293 In286 2.326 . S
O293 C289 1.260 . S
O294 In286 2.266 . S
O294 C291 1.252 . S
O295 In286 2.326 . S
O295 C291 1.260 . S
C296 O287 1.240 . S
C296 O288 1.252 . S
O297 In286 2.294 . S
O297 C290 1.240 . S
O298 In286 2.326 . S
O298 C290 1.252 . S
In299 O300 2.294 . S
In299 O301 2.326 . S
In299 O305 2.266 . S
In299 O306 2.326 . S
In299 O307 2.266 . S
In299 O308 2.326 . S
In299 O310 2.294 . S
In299 O311 2.326 . S
O300 In299 2.294 . S
O300 C309 1.240 . S
O301 In299 2.326 . S
O301 C309 1.252 . S
C302 O305 1.252 . S
C302 O306 1.260 . S
C303 O310 1.240 . S
C303 O311 1.252 . S
C304 O307 1.252 . S
C304 O308 1.260 . S
O305 In299 2.266 . S
O305 C302 1.252 . S
O306 In299 2.326 . S
O306 C302 1.260 . S
O307 In299 2.266 . S
O307 C304 1.252 . S
O308 In299 2.326 . S
O308 C304 1.260 . S
C309 O300 1.240 . S
C309 O301 1.252 . S
O310 In299 2.294 . S
O310 C303 1.240 . S
O311 In299 2.326 . S
O311 C303 1.252 . S
Nd312 C314 2.836 . S
Nd312 O332 2.500 . S
Nd312 O333 2.492 . S
Nd312 O334 2.487 . S
Nd312 O335 2.682 . S
Nd312 O336 2.410 . S
Nd312 O341 2.414 . S
Nd312 O343 2.424 . S
Nd313 C323 2.836 . S
Nd313 O335 2.414 . S
Nd313 O337 2.424 . S
Nd313 O338 2.500 . S
Nd313 O339 2.492 . S
Nd313 O340 2.487 . S
Nd313 O341 2.682 . S
Nd313 O342 2.410 . S
C314 Nd312 2.836 . S
C314 C315 1.498 . S
C314 O332 1.258 . S
C314 O333 1.239 . S
C315 C314 1.498 . S
C315 C316 1.366 . S
C315 C320 1.407 . S
C316 C315 1.366 . S
C316 C317 1.392 . S
C316 H344 0.930 . S
C317 C316 1.392 . S
C317 C318 1.398 . S
C317 H345 0.929 . S
C318 C317 1.398 . S
C318 C319 1.352 . S
C319 C318 1.352 . S
C319 C320 1.384 . S
C319 H346 0.930 . S
C320 C315 1.407 . S
C320 C319 1.384 . S
C320 H347 0.929 . S
C321 O334 1.241 . S
C321 O335 1.273 . S
C322 O336 1.251 . S
C322 O337 1.268 . S
C323 Nd313 2.836 . S
C323 C324 1.498 1_545 S
C323 O338 1.258 . S
C323 O339 1.239 . S
C324 C323 1.498 1_565 S
C324 C325 1.366 . S
C324 C329 1.407 . S
C325 C324 1.366 . S
C325 C326 1.392 . S
C325 H348 0.930 . S
C326 C325 1.392 . S
C326 C327 1.398 . S
C326 H349 0.929 . S
C327 C326 1.398 . S
C327 C328 1.352 . S
C328 C327 1.352 . S
C328 C329 1.384 . S
C328 H350 0.930 . S
C329 C324 1.407 . S
C329 C328 1.384 . S
C329 H351 0.929 . S
C330 O340 1.241 . S
C330 O341 1.273 . S
C331 O342 1.251 . S
C331 O343 1.268 . S
O332 Nd312 2.500 . S
O332 C314 1.258 . S
O333 Nd312 2.492 . S
O333 C314 1.239 . S
O334 Nd312 2.487 . S
O334 C321 1.241 . S
O335 Nd312 2.682 . S
O335 Nd313 2.414 . S
O335 C321 1.273 . S
O336 Nd312 2.410 . S
O336 C322 1.251 . S
O337 Nd313 2.424 . S
O337 C322 1.268 . S
O338 Nd313 2.500 . S
O338 C323 1.258 . S
O339 Nd313 2.492 . S
O339 C323 1.239 . S
O340 Nd313 2.487 . S
O340 C330 1.241 . S
O341 Nd312 2.414 . S
O341 Nd313 2.682 . S
O341 C330 1.273 . S
O342 Nd313 2.410 . S
O342 C331 1.251 . S
O343 Nd312 2.424 . S
O343 C331 1.268 . S
H344 C316 0.930 . S
H345 C317 0.929 . S
H346 C319 0.930 . S
H347 C320 0.929 . S
H348 C325 0.930 . S
H349 C326 0.929 . S
H350 C328 0.930 . S
H351 C329 0.929 . S
Nd352 C354 2.836 . S
Nd352 O372 2.500 . S
Nd352 O373 2.492 . S
Nd352 O374 2.487 . S
Nd352 O375 2.682 . S
Nd352 O376 2.410 . S
Nd352 O381 2.414 . S
Nd352 O383 2.424 . S
Nd353 C363 2.836 . S
Nd353 O375 2.414 . S
Nd353 O377 2.424 . S
Nd353 O378 2.500 . S
Nd353 O379 2.492 . S
Nd353 O380 2.487 . S
Nd353 O381 2.682 . S
Nd353 O382 2.410 . S
C354 Nd352 2.836 . S
C354 C355 1.498 . S
C354 O372 1.258 . S
C354 O373 1.239 . S
C355 C354 1.498 . S
C355 C356 1.366 . S
C355 C360 1.407 . S
C356 C355 1.366 . S
C356 C357 1.392 . S
C356 H384 0.930 . S
C357 C356 1.392 . S
C357 C358 1.398 . S
C357 H385 0.929 . S
C358 C357 1.398 . S
C358 C359 1.352 . S
C359 C358 1.352 . S
C359 C360 1.384 . S
C359 H386 0.930 . S
C360 C355 1.407 . S
C360 C359 1.384 . S
C360 H387 0.929 . S
C361 O374 1.241 . S
C361 O375 1.273 . S
C362 O376 1.251 . S
C362 O377 1.268 . S
C363 Nd353 2.836 . S
C363 C364 1.498 . S
C363 O378 1.258 . S
C363 O379 1.239 . S
C364 C363 1.498 . S
C364 C365 1.366 . S
C364 C369 1.407 . S
C365 C364 1.366 . S
C365 C366 1.392 . S
C365 H388 0.930 . S
C366 C365 1.392 . S
C366 C367 1.398 . S
C366 H389 0.929 . S
C367 C366 1.398 . S
C367 C368 1.352 . S
C368 C367 1.352 . S
C368 C369 1.384 . S
C368 H390 0.930 . S
C369 C364 1.407 . S
C369 C368 1.384 . S
C369 H391 0.929 . S
C370 O380 1.241 . S
C370 O381 1.273 . S
C371 O382 1.251 . S
C371 O383 1.268 . S
O372 Nd352 2.500 . S
O372 C354 1.258 . S
O373 Nd352 2.492 . S
O373 C354 1.239 . S
O374 Nd352 2.487 . S
O374 C361 1.241 . S
O375 Nd352 2.682 . S
O375 Nd353 2.414 . S
O375 C361 1.273 . S
O376 Nd352 2.410 . S
O376 C362 1.251 . S
O377 Nd353 2.424 . S
O377 C362 1.268 . S
O378 Nd353 2.500 . S
O378 C363 1.258 . S
O379 Nd353 2.492 . S
O379 C363 1.239 . S
O380 Nd353 2.487 . S
O380 C370 1.241 . S
O381 Nd352 2.414 . S
O381 Nd353 2.682 . S
O381 C370 1.273 . S
O382 Nd353 2.410 . S
O382 C371 1.251 . S
O383 Nd352 2.424 . S
O383 C371 1.268 . S
H384 C356 0.930 . S
H385 C357 0.929 . S
H386 C359 0.930 . S
H387 C360 0.929 . S
H388 C365 0.930 . S
H389 C366 0.929 . S
H390 C368 0.930 . S
H391 C369 0.929 . S
Nd392 C394 2.836 . S
Nd392 O412 2.500 . S
Nd392 O413 2.492 . S
Nd392 O414 2.487 . S
Nd392 O415 2.682 . S
Nd392 O416 2.410 . S
Nd392 O421 2.414 . S
Nd392 O423 2.424 . S
Nd393 C403 2.836 . S
Nd393 O415 2.414 . S
Nd393 O417 2.424 . S
Nd393 O418 2.500 . S
Nd393 O419 2.492 . S
Nd393 O420 2.487 . S
Nd393 O421 2.682 . S
Nd393 O422 2.410 . S
C394 Nd392 2.836 . S
C394 C395 1.498 . S
C394 O412 1.258 . S
C394 O413 1.239 . S
C395 C394 1.498 . S
C395 C396 1.366 . S
C395 C400 1.407 . S
C396 C395 1.366 . S
C396 C397 1.392 . S
C396 H424 0.930 . S
C397 C396 1.392 . S
C397 C398 1.398 . S
C397 H425 0.929 . S
C398 C397 1.398 . S
C398 C399 1.352 . S
C399 C398 1.352 . S
C399 C400 1.384 . S
C399 H426 0.930 . S
C400 C395 1.407 . S
C400 C399 1.384 . S
C400 H427 0.929 . S
C401 O414 1.241 . S
C401 O415 1.273 . S
C402 O416 1.251 . S
C402 O417 1.268 . S
C403 Nd393 2.836 . S
C403 C404 1.498 . S
C403 O418 1.258 . S
C403 O419 1.239 . S
C404 C403 1.498 . S
C404 C405 1.366 . S
C404 C409 1.407 . S
C405 C404 1.366 . S
C405 C406 1.392 . S
C405 H428 0.930 . S
C406 C405 1.392 . S
C406 C407 1.398 . S
C406 H429 0.929 . S
C407 C406 1.398 . S
C407 C408 1.352 . S
C408 C407 1.352 . S
C408 C409 1.384 . S
C408 H430 0.930 . S
C409 C404 1.407 . S
C409 C408 1.384 . S
C409 H431 0.929 . S
C410 O420 1.241 . S
C410 O421 1.273 . S
C411 O422 1.251 . S
C411 O423 1.268 . S
O412 Nd392 2.500 . S
O412 C394 1.258 . S
O413 Nd392 2.492 . S
O413 C394 1.239 . S
O414 Nd392 2.487 . S
O414 C401 1.241 . S
O415 Nd392 2.682 . S
O415 Nd393 2.414 . S
O415 C401 1.273 . S
O416 Nd392 2.410 . S
O416 C402 1.251 . S
O417 Nd393 2.424 . S
O417 C402 1.268 . S
O418 Nd393 2.500 . S
O418 C403 1.258 . S
O419 Nd393 2.492 . S
O419 C403 1.239 . S
O420 Nd393 2.487 . S
O420 C410 1.241 . S
O421 Nd392 2.414 . S
O421 Nd393 2.682 . S
O421 C410 1.273 . S
O422 Nd393 2.410 . S
O422 C411 1.251 . S
O423 Nd392 2.424 . S
O423 C411 1.268 . S
H424 C396 0.930 . S
H425 C397 0.929 . S
H426 C399 0.930 . S
H427 C400 0.929 . S
H428 C405 0.930 . S
H429 C406 0.929 . S
H430 C408 0.930 . S
H431 C409 0.929 . S
Nd432 C434 2.836 . S
Nd432 O452 2.500 . S
Nd432 O453 2.492 . S
Nd432 O454 2.487 . S
Nd432 O455 2.682 . S
Nd432 O456 2.410 . S
Nd432 O461 2.414 . S
Nd432 O463 2.424 . S
Nd433 C443 2.836 . S
Nd433 O455 2.414 . S
Nd433 O457 2.424 . S
Nd433 O458 2.500 . S
Nd433 O459 2.492 . S
Nd433 O460 2.487 . S
Nd433 O461 2.682 . S
Nd433 O462 2.410 . S
C434 Nd432 2.836 . S
C434 C435 1.498 . S
C434 O452 1.258 . S
C434 O453 1.239 . S
C435 C434 1.498 . S
C435 C436 1.366 . S
C435 C440 1.407 . S
C436 C435 1.366 . S
C436 C437 1.392 . S
C436 H464 0.930 . S
C437 C436 1.392 . S
C437 C438 1.398 . S
C437 H465 0.929 . S
C438 C437 1.398 . S
C438 C439 1.352 . S
C439 C438 1.352 . S
C439 C440 1.384 . S
C439 H466 0.930 . S
C440 C435 1.407 . S
C440 C439 1.384 . S
C440 H467 0.929 . S
C441 O454 1.241 . S
C441 O455 1.273 . S
C442 O456 1.251 . S
C442 O457 1.268 . S
C443 Nd433 2.836 . S
C443 C444 1.498 . S
C443 O458 1.258 . S
C443 O459 1.239 . S
C444 C443 1.498 . S
C444 C445 1.366 . S
C444 C449 1.407 . S
C445 C444 1.366 . S
C445 C446 1.392 . S
C445 H468 0.930 . S
C446 C445 1.392 . S
C446 C447 1.398 . S
C446 H469 0.929 . S
C447 C446 1.398 . S
C447 C448 1.352 . S
C448 C447 1.352 . S
C448 C449 1.384 . S
C448 H470 0.930 . S
C449 C444 1.407 . S
C449 C448 1.384 . S
C449 H471 0.929 . S
C450 O460 1.241 . S
C450 O461 1.273 . S
C451 O462 1.251 . S
C451 O463 1.268 . S
O452 Nd432 2.500 . S
O452 C434 1.258 . S
O453 Nd432 2.492 . S
O453 C434 1.239 . S
O454 Nd432 2.487 . S
O454 C441 1.241 . S
O455 Nd432 2.682 . S
O455 Nd433 2.414 . S
O455 C441 1.273 . S
O456 Nd432 2.410 . S
O456 C442 1.251 . S
O457 Nd433 2.424 . S
O457 C442 1.268 . S
O458 Nd433 2.500 . S
O458 C443 1.258 . S
O459 Nd433 2.492 . S
O459 C443 1.239 . S
O460 Nd433 2.487 . S
O460 C450 1.241 . S
O461 Nd432 2.414 . S
O461 Nd433 2.682 . S
O461 C450 1.273 . S
O462 Nd433 2.410 . S
O462 C451 1.251 . S
O463 Nd432 2.424 . S
O463 C451 1.268 . S
H464 C436 0.930 . S
H465 C437 0.929 . S
H466 C439 0.930 . S
H467 C440 0.929 . S
H468 C445 0.930 . S
H469 C446 0.929 . S
H470 C448 0.930 . S
H471 C449 0.929 . S
Nd472 C474 2.836 . S
Nd472 O492 2.500 . S
Nd472 O493 2.492 . S
Nd472 O494 2.487 . S
Nd472 O495 2.682 . S
Nd472 O496 2.410 . S
Nd472 O501 2.414 . S
Nd472 O503 2.424 . S
Nd473 C483 2.836 1_545 S
Nd473 O495 2.414 . S
Nd473 O497 2.424 . S
Nd473 O498 2.500 1_545 S
Nd473 O499 2.492 1_545 S
Nd473 O500 2.487 1_455 S
Nd473 O501 2.682 . S
Nd473 O502 2.410 . S
C474 Nd472 2.836 . S
C474 C475 1.498 . S
C474 O492 1.258 . S
C474 O493 1.239 . S
C475 C474 1.498 . S
C475 C476 1.366 . S
C475 C480 1.407 . S
C476 C475 1.366 . S
C476 C477 1.392 1_455 S
C476 H504 0.930 1_455 S
C477 C476 1.392 1_655 S
C477 C478 1.398 1_655 S
C477 H505 0.929 . S
C478 C477 1.398 1_455 S
C478 C479 1.352 . S
C479 C478 1.352 . S
C479 C480 1.384 . S
C479 H506 0.930 . S
C480 C475 1.407 . S
C480 C479 1.384 . S
C480 H507 0.929 . S
C481 O494 1.241 . S
C481 O495 1.273 . S
C482 O496 1.251 . S
C482 O497 1.268 . S
C483 Nd473 2.836 1_565 S
C483 C484 1.498 . S
C483 O498 1.258 . S
C483 O499 1.239 . S
C484 C483 1.498 . S
C484 C485 1.366 . S
C484 C489 1.407 . S
C485 C484 1.366 . S
C485 C486 1.392 . S
C485 H508 0.930 . S
C486 C485 1.392 . S
C486 C487 1.398 . S
C486 H509 0.929 . S
C487 C486 1.398 . S
C487 C488 1.352 . S
C488 C487 1.352 . S
C488 C489 1.384 . S
C488 H510 0.930 . S
C489 C484 1.407 . S
C489 C488 1.384 . S
C489 H511 0.929 . S
C490 O500 1.241 . S
C490 O501 1.273 1_655 S
C491 O502 1.251 . S
C491 O503 1.268 . S
O492 Nd472 2.500 . S
O492 C474 1.258 . S
O493 Nd472 2.492 . S
O493 C474 1.239 . S
O494 Nd472 2.487 . S
O494 C481 1.241 . S
O495 Nd472 2.682 . S
O495 Nd473 2.414 . S
O495 C481 1.273 . S
O496 Nd472 2.410 . S
O496 C482 1.251 . S
O497 Nd473 2.424 . S
O497 C482 1.268 . S
O498 Nd473 2.500 1_565 S
O498 C483 1.258 . S
O499 Nd473 2.492 1_565 S
O499 C483 1.239 . S
O500 Nd473 2.487 1_655 S
O500 C490 1.241 . S
O501 Nd472 2.414 . S
O501 Nd473 2.682 . S
O501 C490 1.273 1_455 S
O502 Nd473 2.410 . S
O502 C491 1.251 . S
O503 Nd472 2.424 . S
O503 C491 1.268 . S
H504 C476 0.930 1_655 S
H505 C477 0.929 . S
H506 C479 0.930 . S
H507 C480 0.929 . S
H508 C485 0.930 . S
H509 C486 0.929 . S
H510 C488 0.930 . S
H511 C489 0.929 . S
Nd512 C514 2.836 . S
Nd512 O532 2.500 . S
Nd512 O533 2.492 . S
Nd512 O534 2.487 . S
Nd512 O535 2.682 . S
Nd512 O536 2.410 . S
Nd512 O541 2.414 . S
Nd512 O543 2.424 . S
Nd513 C523 2.836 . S
Nd513 O535 2.414 . S
Nd513 O537 2.424 . S
Nd513 O538 2.500 . S
Nd513 O539 2.492 . S
Nd513 O540 2.487 . S
Nd513 O541 2.682 . S
Nd513 O542 2.410 . S
C514 Nd512 2.836 . S
C514 C515 1.498 . S
C514 O532 1.258 . S
C514 O533 1.239 . S
C515 C514 1.498 . S
C515 C516 1.366 . S
C515 C520 1.407 . S
C516 C515 1.366 . S
C516 C517 1.392 . S
C516 H544 0.930 . S
C517 C516 1.392 . S
C517 C518 1.398 . S
C517 H545 0.929 . S
C518 C517 1.398 . S
C518 C519 1.352 . S
C519 C518 1.352 . S
C519 C520 1.384 . S
C519 H546 0.930 . S
C520 C515 1.407 . S
C520 C519 1.384 . S
C520 H547 0.929 . S
C521 O534 1.241 . S
C521 O535 1.273 . S
C522 O536 1.251 . S
C522 O537 1.268 . S
C523 Nd513 2.836 . S
C523 C524 1.498 . S
C523 O538 1.258 . S
C523 O539 1.239 . S
C524 C523 1.498 . S
C524 C525 1.366 . S
C524 C529 1.407 . S
C525 C524 1.366 . S
C525 C526 1.392 . S
C525 H548 0.930 . S
C526 C525 1.392 . S
C526 C527 1.398 . S
C526 H549 0.929 . S
C527 C526 1.398 . S
C527 C528 1.352 . S
C528 C527 1.352 . S
C528 C529 1.384 . S
C528 H550 0.930 . S
C529 C524 1.407 . S
C529 C528 1.384 . S
C529 H551 0.929 . S
C530 O540 1.241 . S
C530 O541 1.273 . S
C531 O542 1.251 . S
C531 O543 1.268 . S
O532 Nd512 2.500 . S
O532 C514 1.258 . S
O533 Nd512 2.492 . S
O533 C514 1.239 . S
O534 Nd512 2.487 . S
O534 C521 1.241 . S
O535 Nd512 2.682 . S
O535 Nd513 2.414 . S
O535 C521 1.273 . S
O536 Nd512 2.410 . S
O536 C522 1.251 . S
O537 Nd513 2.424 . S
O537 C522 1.268 . S
O538 Nd513 2.500 . S
O538 C523 1.258 . S
O539 Nd513 2.492 . S
O539 C523 1.239 . S
O540 Nd513 2.487 . S
O540 C530 1.241 . S
O541 Nd512 2.414 . S
O541 Nd513 2.682 . S
O541 C530 1.273 . S
O542 Nd513 2.410 . S
O542 C531 1.251 . S
O543 Nd512 2.424 . S
O543 C531 1.268 . S
H544 C516 0.930 . S
H545 C517 0.929 . S
H546 C519 0.930 . S
H547 C520 0.929 . S
H548 C525 0.930 . S
H549 C526 0.929 . S
H550 C528 0.930 . S
H551 C529 0.929 . S
Nd552 C554 2.836 . S
Nd552 O572 2.500 . S
Nd552 O573 2.492 . S
Nd552 O574 2.487 . S
Nd552 O575 2.682 . S
Nd552 O576 2.410 . S
Nd552 O581 2.414 . S
Nd552 O583 2.424 . S
Nd553 C563 2.836 . S
Nd553 O575 2.414 . S
Nd553 O577 2.424 . S
Nd553 O578 2.500 . S
Nd553 O579 2.492 . S
Nd553 O580 2.487 . S
Nd553 O581 2.682 . S
Nd553 O582 2.410 . S
C554 Nd552 2.836 . S
C554 C555 1.498 . S
C554 O572 1.258 . S
C554 O573 1.239 . S
C555 C554 1.498 . S
C555 C556 1.366 . S
C555 C560 1.407 . S
C556 C555 1.366 . S
C556 C557 1.392 . S
C556 H584 0.930 . S
C557 C556 1.392 . S
C557 C558 1.398 . S
C557 H585 0.929 . S
C558 C557 1.398 . S
C558 C559 1.352 . S
C559 C558 1.352 . S
C559 C560 1.384 . S
C559 H586 0.930 1_545 S
C560 C555 1.407 . S
C560 C559 1.384 . S
C560 H587 0.929 . S
C561 O574 1.241 . S
C561 O575 1.273 . S
C562 O576 1.251 . S
C562 O577 1.268 . S
C563 Nd553 2.836 . S
C563 C564 1.498 . S
C563 O578 1.258 . S
C563 O579 1.239 . S
C564 C563 1.498 . S
C564 C565 1.366 . S
C564 C569 1.407 . S
C565 C564 1.366 . S
C565 C566 1.392 . S
C565 H588 0.930 . S
C566 C565 1.392 . S
C566 C567 1.398 . S
C566 H589 0.929 . S
C567 C566 1.398 . S
C567 C568 1.352 . S
C568 C567 1.352 . S
C568 C569 1.384 . S
C568 H590 0.930 . S
C569 C564 1.407 . S
C569 C568 1.384 . S
C569 H591 0.929 . S
C570 O580 1.241 . S
C570 O581 1.273 . S
C571 O582 1.251 . S
C571 O583 1.268 . S
O572 Nd552 2.500 . S
O572 C554 1.258 . S
O573 Nd552 2.492 . S
O573 C554 1.239 . S
O574 Nd552 2.487 . S
O574 C561 1.241 . S
O575 Nd552 2.682 . S
O575 Nd553 2.414 . S
O575 C561 1.273 . S
O576 Nd552 2.410 . S
O576 C562 1.251 . S
O577 Nd553 2.424 . S
O577 C562 1.268 . S
O578 Nd553 2.500 . S
O578 C563 1.258 . S
O579 Nd553 2.492 . S
O579 C563 1.239 . S
O580 Nd553 2.487 . S
O580 C570 1.241 . S
O581 Nd552 2.414 . S
O581 Nd553 2.682 . S
O581 C570 1.273 . S
O582 Nd553 2.410 . S
O582 C571 1.251 . S
O583 Nd552 2.424 . S
O583 C571 1.268 . S
H584 C556 0.930 . S
H585 C557 0.929 . S
H586 C559 0.930 1_565 S
H587 C560 0.929 . S
H588 C565 0.930 . S
H589 C566 0.929 . S
H590 C568 0.930 . S
H591 C569 0.929 . S
Nd592 C594 2.836 . S
Nd592 O612 2.500 . S
Nd592 O613 2.492 . S
Nd592 O614 2.487 . S
Nd592 O615 2.682 . S
Nd592 O616 2.410 . S
Nd592 O621 2.414 . S
Nd592 O623 2.424 . S
Nd593 C603 2.836 . S
Nd593 O615 2.414 . S
Nd593 O617 2.424 . S
Nd593 O618 2.500 . S
Nd593 O619 2.492 . S
Nd593 O620 2.487 . S
Nd593 O621 2.682 . S
Nd593 O622 2.410 . S
C594 Nd592 2.836 . S
C594 C595 1.498 . S
C594 O612 1.258 . S
C594 O613 1.239 . S
C595 C594 1.498 . S
C595 C596 1.366 . S
C595 C600 1.407 . S
C596 C595 1.366 . S
C596 C597 1.392 . S
C596 H624 0.930 . S
C597 C596 1.392 . S
C597 C598 1.398 . S
C597 H625 0.929 . S
C598 C597 1.398 . S
C598 C599 1.352 . S
C599 C598 1.352 . S
C599 C600 1.384 . S
C599 H626 0.930 . S
C600 C595 1.407 . S
C600 C599 1.384 . S
C600 H627 0.929 . S
C601 O614 1.241 . S
C601 O615 1.273 . S
C602 O616 1.251 . S
C602 O617 1.268 . S
C603 Nd593 2.836 . S
C603 C604 1.498 . S
C603 O618 1.258 . S
C603 O619 1.239 . S
C604 C603 1.498 . S
C604 C605 1.366 . S
C604 C609 1.407 . S
C605 C604 1.366 . S
C605 C606 1.392 . S
C605 H628 0.930 . S
C606 C605 1.392 . S
C606 C607 1.398 . S
C606 H629 0.929 . S
C607 C606 1.398 . S
C607 C608 1.352 . S
C608 C607 1.352 . S
C608 C609 1.384 . S
C608 H630 0.930 . S
C609 C604 1.407 . S
C609 C608 1.384 . S
C609 H631 0.929 . S
C610 O620 1.241 . S
C610 O621 1.273 . S
C611 O622 1.251 . S
C611 O623 1.268 . S
O612 Nd592 2.500 . S
O612 C594 1.258 . S
O613 Nd592 2.492 . S
O613 C594 1.239 . S
O614 Nd592 2.487 . S
O614 C601 1.241 . S
O615 Nd592 2.682 . S
O615 Nd593 2.414 . S
O615 C601 1.273 . S
O616 Nd592 2.410 . S
O616 C602 1.251 . S
O617 Nd593 2.424 . S
O617 C602 1.268 . S
O618 Nd593 2.500 . S
O618 C603 1.258 . S
O619 Nd593 2.492 . S
O619 C603 1.239 . S
O620 Nd593 2.487 . S
O620 C610 1.241 . S
O621 Nd592 2.414 . S
O621 Nd593 2.682 . S
O621 C610 1.273 . S
O622 Nd593 2.410 . S
O622 C611 1.251 . S
O623 Nd592 2.424 . S
O623 C611 1.268 . S
H624 C596 0.930 . S
H625 C597 0.929 . S
H626 C599 0.930 . S
H627 C600 0.929 . S
H628 C605 0.930 . S
H629 C606 0.929 . S
H630 C608 0.930 . S
H631 C609 0.929 . S
Nd632 C634 2.836 . S
Nd632 O652 2.500 . S
Nd632 O653 2.492 . S
Nd632 O654 2.487 . S
Nd632 O655 2.682 . S
Nd632 O656 2.410 . S
Nd632 O661 2.414 . S
Nd632 O663 2.424 . S
Nd633 C643 2.836 . S
Nd633 O655 2.414 . S
Nd633 O657 2.424 . S
Nd633 O658 2.500 . S
Nd633 O659 2.492 . S
Nd633 O660 2.487 . S
Nd633 O661 2.682 . S
Nd633 O662 2.410 . S
C634 Nd632 2.836 . S
C634 C635 1.498 . S
C634 O652 1.258 . S
C634 O653 1.239 . S
C635 C634 1.498 . S
C635 C636 1.366 . S
C635 C640 1.407 . S
C636 C635 1.366 . S
C636 C637 1.392 . S
C636 H664 0.930 . S
C637 C636 1.392 . S
C637 C638 1.398 . S
C637 H665 0.929 . S
C638 C637 1.398 . S
C638 C639 1.352 . S
C639 C638 1.352 . S
C639 C640 1.384 . S
C639 H666 0.930 . S
C640 C635 1.407 . S
C640 C639 1.384 . S
C640 H667 0.929 . S
C641 O654 1.241 . S
C641 O655 1.273 . S
C642 O656 1.251 . S
C642 O657 1.268 . S
C643 Nd633 2.836 . S
C643 C644 1.498 . S
C643 O658 1.258 . S
C643 O659 1.239 . S
C644 C643 1.498 . S
C644 C645 1.366 . S
C644 C649 1.407 . S
C645 C644 1.366 . S
C645 C646 1.392 . S
C645 H668 0.930 . S
C646 C645 1.392 . S
C646 C647 1.398 . S
C646 H669 0.929 . S
C647 C646 1.398 . S
C647 C648 1.352 . S
C648 C647 1.352 . S
C648 C649 1.384 . S
C648 H670 0.930 . S
C649 C644 1.407 . S
C649 C648 1.384 . S
C649 H671 0.929 . S
C650 O660 1.241 . S
C650 O661 1.273 . S
C651 O662 1.251 . S
C651 O663 1.268 . S
O652 Nd632 2.500 . S
O652 C634 1.258 . S
O653 Nd632 2.492 . S
O653 C634 1.239 . S
O654 Nd632 2.487 . S
O654 C641 1.241 . S
O655 Nd632 2.682 . S
O655 Nd633 2.414 . S
O655 C641 1.273 . S
O656 Nd632 2.410 . S
O656 C642 1.251 . S
O657 Nd633 2.424 . S
O657 C642 1.268 . S
O658 Nd633 2.500 . S
O658 C643 1.258 . S
O659 Nd633 2.492 . S
O659 C643 1.239 . S
O660 Nd633 2.487 . S
O660 C650 1.241 . S
O661 Nd632 2.414 . S
O661 Nd633 2.682 . S
O661 C650 1.273 . S
O662 Nd633 2.410 . S
O662 C651 1.251 . S
O663 Nd632 2.424 . S
O663 C651 1.268 . S
H664 C636 0.930 . S
H665 C637 0.929 . S
H666 C639 0.930 . S
H667 C640 0.929 . S
H668 C645 0.930 . S
H669 C646 0.929 . S
H670 C648 0.930 . S
H671 C649 0.929 . S
Nd672 C674 2.836 . S
Nd672 O692 2.500 . S
Nd672 O693 2.492 . S
Nd672 O694 2.487 . S
Nd672 O695 2.682 . S
Nd672 O696 2.410 . S
Nd672 O701 2.414 . S
Nd672 O703 2.424 . S
Nd673 C683 2.836 . S
Nd673 O695 2.414 . S
Nd673 O697 2.424 . S
Nd673 O698 2.500 . S
Nd673 O699 2.492 . S
Nd673 O700 2.487 . S
Nd673 O701 2.682 . S
Nd673 O702 2.410 . S
C674 Nd672 2.836 . S
C674 C675 1.498 . S
C674 O692 1.258 . S
C674 O693 1.239 . S
C675 C674 1.498 . S
C675 C676 1.366 . S
C675 C680 1.407 . S
C676 C675 1.366 . S
C676 C677 1.392 . S
C676 H704 0.930 . S
C677 C676 1.392 . S
C677 C678 1.398 . S
C677 H705 0.929 . S
C678 C677 1.398 . S
C678 C679 1.352 . S
C679 C678 1.352 . S
C679 C680 1.384 . S
C679 H706 0.930 . S
C680 C675 1.407 . S
C680 C679 1.384 . S
C680 H707 0.929 . S
C681 O694 1.241 . S
C681 O695 1.273 . S
C682 O696 1.251 . S
C682 O697 1.268 . S
C683 Nd673 2.836 . S
C683 C684 1.498 . S
C683 O698 1.258 . S
C683 O699 1.239 . S
C684 C683 1.498 . S
C684 C685 1.366 . S
C684 C689 1.407 . S
C685 C684 1.366 . S
C685 C686 1.392 . S
C685 H708 0.930 . S
C686 C685 1.392 . S
C686 C687 1.398 . S
C686 H709 0.929 . S
C687 C686 1.398 . S
C687 C688 1.352 . S
C688 C687 1.352 . S
C688 C689 1.384 . S
C688 H710 0.930 . S
C689 C684 1.407 . S
C689 C688 1.384 . S
C689 H711 0.929 . S
C690 O700 1.241 . S
C690 O701 1.273 . S
C691 O702 1.251 . S
C691 O703 1.268 . S
O692 Nd672 2.500 . S
O692 C674 1.258 . S
O693 Nd672 2.492 . S
O693 C674 1.239 . S
O694 Nd672 2.487 . S
O694 C681 1.241 . S
O695 Nd672 2.682 . S
O695 Nd673 2.414 . S
O695 C681 1.273 . S
O696 Nd672 2.410 . S
O696 C682 1.251 . S
O697 Nd673 2.424 . S
O697 C682 1.268 . S
O698 Nd673 2.500 . S
O698 C683 1.258 . S
O699 Nd673 2.492 . S
O699 C683 1.239 . S
O700 Nd673 2.487 . S
O700 C690 1.241 . S
O701 Nd672 2.414 . S
O701 Nd673 2.682 . S
O701 C690 1.273 . S
O702 Nd673 2.410 . S
O702 C691 1.251 . S
O703 Nd672 2.424 . S
O703 C691 1.268 . S
H704 C676 0.930 . S
H705 C677 0.929 . S
H706 C679 0.930 . S
H707 C680 0.929 . S
H708 C685 0.930 . S
H709 C686 0.929 . S
H710 C688 0.930 . S
H711 C689 0.929 . S
Nd712 C714 2.836 . S
Nd712 O732 2.500 . S
Nd712 O733 2.492 . S
Nd712 O734 2.512 . S
Nd712 O735 2.682 1_655 S
Nd712 O736 2.410 . S
Nd712 O741 2.414 1_655 S
Nd712 O743 2.424 1_655 S
Nd713 C723 2.836 . S
Nd713 O735 2.414 . S
Nd713 O737 2.424 . S
Nd713 O738 2.500 . S
Nd713 O739 2.492 . S
Nd713 O740 2.487 . S
Nd713 O741 2.682 . S
Nd713 O742 2.410 . S
C714 Nd712 2.836 . S
C714 C715 1.498 . S
C714 O732 1.258 . S
C714 O733 1.239 . S
C715 C714 1.498 . S
C715 C716 1.366 . S
C715 C720 1.407 . S
C716 C715 1.366 . S
C716 C717 1.392 . S
C716 H744 0.930 . S
C717 C716 1.392 . S
C717 C718 1.398 . S
C717 H745 0.929 . S
C718 C717 1.398 . S
C718 C719 1.352 . S
C719 C718 1.352 . S
C719 C720 1.384 . S
C719 H746 0.930 . S
C720 C715 1.407 . S
C720 C719 1.384 . S
C720 H747 0.929 . S
C721 O734 1.196 1_455 S
C721 O735 1.273 . S
C722 O736 1.243 1_455 S
C722 O737 1.293 . S
C723 Nd713 2.836 . S
C723 C724 1.498 . S
C723 O738 1.258 . S
C723 O739 1.239 . S
C724 C723 1.498 . S
C724 C725 1.366 . S
C724 C729 1.407 . S
C725 C724 1.366 . S
C725 C726 1.392 . S
C725 H748 0.930 . S
C726 C725 1.392 . S
C726 C727 1.398 . S
C726 H749 0.929 . S
C727 C726 1.398 . S
C727 C728 1.352 . S
C728 C727 1.352 . S
C728 C729 1.384 . S
C728 H750 0.930 . S
C729 C724 1.407 . S
C729 C728 1.384 . S
C729 H751 0.929 . S
C730 O740 1.241 . S
C730 O741 1.273 . S
C731 O742 1.251 . S
C731 O743 1.268 . S
O732 Nd712 2.500 . S
O732 C714 1.258 . S
O733 Nd712 2.492 . S
O733 C714 1.239 . S
O734 Nd712 2.512 . S
O734 C721 1.196 1_655 S
O735 Nd712 2.682 1_455 S
O735 Nd713 2.414 . S
O735 C721 1.273 . S
O736 Nd712 2.410 . S
O736 C722 1.243 1_655 S
O737 Nd713 2.424 . S
O737 C722 1.293 . S
O738 Nd713 2.500 . S
O738 C723 1.258 . S
O739 Nd713 2.492 . S
O739 C723 1.239 . S
O740 Nd713 2.487 . S
O740 C730 1.241 . S
O741 Nd712 2.414 1_455 S
O741 Nd713 2.682 . S
O741 C730 1.273 . S
O742 Nd713 2.410 . S
O742 C731 1.251 . S
O743 Nd712 2.424 1_455 S
O743 C731 1.268 . S
H744 C716 0.930 . S
H745 C717 0.929 . S
H746 C719 0.930 . S
H747 C720 0.929 . S
H748 C725 0.930 . S
H749 C726 0.929 . S
H750 C728 0.930 . S
H751 C729 0.929 . S
Nd752 C754 2.836 . S
Nd752 O772 2.500 . S
Nd752 O773 2.492 . S
Nd752 O774 2.487 . S
Nd752 O775 2.682 . S
Nd752 O776 2.410 . S
Nd752 O781 2.414 . S
Nd752 O783 2.424 . S
Nd753 C763 2.836 . S
Nd753 O775 2.414 . S
Nd753 O777 2.424 . S
Nd753 O778 2.500 . S
Nd753 O779 2.492 . S
Nd753 O780 2.487 . S
Nd753 O781 2.682 . S
Nd753 O782 2.410 . S
C754 Nd752 2.836 . S
C754 C755 1.498 . S
C754 O772 1.258 . S
C754 O773 1.239 . S
C755 C754 1.498 . S
C755 C756 1.366 . S
C755 C760 1.407 . S
C756 C755 1.366 . S
C756 C757 1.392 . S
C756 H784 0.930 . S
C757 C756 1.392 . S
C757 C758 1.398 . S
C757 H785 0.929 . S
C758 C757 1.398 . S
C758 C759 1.352 . S
C759 C758 1.352 . S
C759 C760 1.384 . S
C759 H786 0.930 . S
C760 C755 1.407 . S
C760 C759 1.384 . S
C760 H787 0.929 . S
C761 O774 1.241 . S
C761 O775 1.273 . S
C762 O776 1.251 . S
C762 O777 1.268 . S
C763 Nd753 2.836 . S
C763 C764 1.498 . S
C763 O778 1.258 . S
C763 O779 1.239 . S
C764 C763 1.498 . S
C764 C765 1.366 . S
C764 C769 1.407 . S
C765 C764 1.366 . S
C765 C766 1.392 . S
C765 H788 0.930 . S
C766 C765 1.392 . S
C766 C767 1.398 . S
C766 H789 0.929 . S
C767 C766 1.398 . S
C767 C768 1.352 . S
C768 C767 1.352 . S
C768 C769 1.384 . S
C768 H790 0.930 . S
C769 C764 1.407 . S
C769 C768 1.384 . S
C769 H791 0.929 . S
C770 O780 1.241 . S
C770 O781 1.273 . S
C771 O782 1.251 . S
C771 O783 1.268 . S
O772 Nd752 2.500 . S
O772 C754 1.258 . S
O773 Nd752 2.492 . S
O773 C754 1.239 . S
O774 Nd752 2.487 . S
O774 C761 1.241 . S
O775 Nd752 2.682 . S
O775 Nd753 2.414 . S
O775 C761 1.273 . S
O776 Nd752 2.410 . S
O776 C762 1.251 . S
O777 Nd753 2.424 . S
O777 C762 1.268 . S
O778 Nd753 2.500 . S
O778 C763 1.258 . S
O779 Nd753 2.492 . S
O779 C763 1.239 . S
O780 Nd753 2.487 . S
O780 C770 1.241 . S
O781 Nd752 2.414 . S
O781 Nd753 2.682 . S
O781 C770 1.273 . S
O782 Nd753 2.410 . S
O782 C771 1.251 . S
O783 Nd752 2.424 . S
O783 C771 1.268 . S
H784 C756 0.930 . S
H785 C757 0.929 . S
H786 C759 0.930 . S
H787 C760 0.929 . S
H788 C765 0.930 . S
H789 C766 0.929 . S
H790 C768 0.930 . S
H791 C769 0.929 . S
Nd792 C794 2.836 . S
Nd792 O812 2.500 . S
Nd792 O813 2.492 . S
Nd792 O814 2.487 . S
Nd792 O815 2.682 . S
Nd792 O816 2.410 . S
Nd792 O821 2.414 . S
Nd792 O823 2.424 . S
Nd793 C803 2.836 . S
Nd793 O815 2.414 . S
Nd793 O817 2.424 . S
Nd793 O818 2.500 . S
Nd793 O819 2.492 . S
Nd793 O820 2.487 . S
Nd793 O821 2.682 . S
Nd793 O822 2.410 . S
C794 Nd792 2.836 . S
C794 C795 1.498 . S
C794 O812 1.258 . S
C794 O813 1.239 . S
C795 C794 1.498 . S
C795 C796 1.366 . S
C795 C800 1.407 . S
C796 C795 1.366 . S
C796 C797 1.392 . S
C796 H824 0.930 . S
C797 C796 1.392 . S
C797 C798 1.398 . S
C797 H825 0.929 . S
C798 C797 1.398 . S
C798 C799 1.352 . S
C799 C798 1.352 . S
C799 C800 1.384 . S
C799 H826 0.930 . S
C800 C795 1.407 . S
C800 C799 1.384 . S
C800 H827 0.929 . S
C801 O814 1.241 . S
C801 O815 1.273 . S
C802 O816 1.251 . S
C802 O817 1.268 . S
C803 Nd793 2.836 . S
C803 C804 1.498 . S
C803 O818 1.258 . S
C803 O819 1.239 . S
C804 C803 1.498 . S
C804 C805 1.366 . S
C804 C809 1.407 . S
C805 C804 1.366 . S
C805 C806 1.392 . S
C805 H828 0.930 . S
C806 C805 1.392 . S
C806 C807 1.398 . S
C806 H829 0.929 . S
C807 C806 1.398 . S
C807 C808 1.352 . S
C808 C807 1.352 . S
C808 C809 1.384 . S
C808 H830 0.930 . S
C809 C804 1.407 . S
C809 C808 1.384 . S
C809 H831 0.929 . S
C810 O820 1.241 . S
C810 O821 1.273 . S
C811 O822 1.251 . S
C811 O823 1.268 . S
O812 Nd792 2.500 . S
O812 C794 1.258 . S
O813 Nd792 2.492 . S
O813 C794 1.239 . S
O814 Nd792 2.487 . S
O814 C801 1.241 . S
O815 Nd792 2.682 . S
O815 Nd793 2.414 . S
O815 C801 1.273 . S
O816 Nd792 2.410 . S
O816 C802 1.251 . S
O817 Nd793 2.424 . S
O817 C802 1.268 . S
O818 Nd793 2.500 . S
O818 C803 1.258 . S
O819 Nd793 2.492 . S
O819 C803 1.239 . S
O820 Nd793 2.487 . S
O820 C810 1.241 . S
O821 Nd792 2.414 . S
O821 Nd793 2.682 . S
O821 C810 1.273 . S
O822 Nd793 2.410 . S
O822 C811 1.251 . S
O823 Nd792 2.424 . S
O823 C811 1.268 . S
H824 C796 0.930 . S
H825 C797 0.929 . S
H826 C799 0.930 . S
H827 C800 0.929 . S
H828 C805 0.930 . S
H829 C806 0.929 . S
H830 C808 0.930 . S
H831 C809 0.929 . S
Nd832 C834 2.836 . S
Nd832 O852 2.500 . S
Nd832 O853 2.492 . S
Nd832 O854 2.487 . S
Nd832 O855 2.682 . S
Nd832 O856 2.410 . S
Nd832 O861 2.414 . S
Nd832 O863 2.424 . S
Nd833 C843 2.836 . S
Nd833 O855 2.414 . S
Nd833 O857 2.424 . S
Nd833 O858 2.500 . S
Nd833 O859 2.492 . S
Nd833 O860 2.487 . S
Nd833 O861 2.682 . S
Nd833 O862 2.410 . S
C834 Nd832 2.836 . S
C834 C835 1.498 . S
C834 O852 1.258 . S
C834 O853 1.239 . S
C835 C834 1.498 . S
C835 C836 1.366 . S
C835 C840 1.407 . S
C836 C835 1.366 . S
C836 C837 1.392 . S
C836 H864 0.930 . S
C837 C836 1.392 . S
C837 C838 1.398 . S
C837 H865 0.929 . S
C838 C837 1.398 . S
C838 C839 1.352 . S
C839 C838 1.352 . S
C839 C840 1.384 . S
C839 H866 0.930 . S
C840 C835 1.407 . S
C840 C839 1.384 . S
C840 H867 0.929 . S
C841 O854 1.241 . S
C841 O855 1.273 . S
C842 O856 1.251 . S
C842 O857 1.268 . S
C843 Nd833 2.836 . S
C843 C844 1.498 . S
C843 O858 1.258 . S
C843 O859 1.239 . S
C844 C843 1.498 . S
C844 C845 1.366 . S
C844 C849 1.407 . S
C845 C844 1.366 . S
C845 C846 1.392 . S
C845 H868 0.930 . S
C846 C845 1.392 . S
C846 C847 1.398 . S
C846 H869 0.929 . S
C847 C846 1.398 . S
C847 C848 1.352 . S
C848 C847 1.352 . S
C848 C849 1.384 . S
C848 H870 0.930 . S
C849 C844 1.407 . S
C849 C848 1.384 . S
C849 H871 0.929 . S
C850 O860 1.241 . S
C850 O861 1.273 . S
C851 O862 1.251 . S
C851 O863 1.268 . S
O852 Nd832 2.500 . S
O852 C834 1.258 . S
O853 Nd832 2.492 . S
O853 C834 1.239 . S
O854 Nd832 2.487 . S
O854 C841 1.241 . S
O855 Nd832 2.682 . S
O855 Nd833 2.414 . S
O855 C841 1.273 . S
O856 Nd832 2.410 . S
O856 C842 1.251 . S
O857 Nd833 2.424 . S
O857 C842 1.268 . S
O858 Nd833 2.500 . S
O858 C843 1.258 . S
O859 Nd833 2.492 . S
O859 C843 1.239 . S
O860 Nd833 2.487 . S
O860 C850 1.241 . S
O861 Nd832 2.414 . S
O861 Nd833 2.682 . S
O861 C850 1.273 . S
O862 Nd833 2.410 . S
O862 C851 1.251 . S
O863 Nd832 2.424 . S
O863 C851 1.268 . S
H864 C836 0.930 . S
H865 C837 0.929 . S
H866 C839 0.930 . S
H867 C840 0.929 . S
H868 C845 0.930 . S
H869 C846 0.929 . S
H870 C848 0.930 . S
H871 C849 0.929 . S
Nd872 C874 2.836 . S
Nd872 O892 2.500 . S
Nd872 O893 2.492 . S
Nd872 O894 2.487 . S
Nd872 O895 2.682 . S
Nd872 O896 2.410 . S
Nd872 O901 2.414 . S
Nd872 O903 2.424 . S
Nd873 C883 2.836 . S
Nd873 O895 2.414 . S
Nd873 O897 2.424 . S
Nd873 O898 2.500 . S
Nd873 O899 2.492 . S
Nd873 O900 2.487 . S
Nd873 O901 2.682 . S
Nd873 O902 2.410 . S
C874 Nd872 2.836 . S
C874 C875 1.498 . S
C874 O892 1.258 . S
C874 O893 1.239 . S
C875 C874 1.498 . S
C875 C876 1.366 . S
C875 C880 1.407 . S
C876 C875 1.366 . S
C876 C877 1.392 . S
C876 H904 0.930 . S
C877 C876 1.392 . S
C877 C878 1.398 . S
C877 H905 0.929 . S
C878 C877 1.398 . S
C878 C879 1.352 . S
C879 C878 1.352 . S
C879 C880 1.384 . S
C879 H906 0.930 . S
C880 C875 1.407 . S
C880 C879 1.384 . S
C880 H907 0.929 . S
C881 O894 1.241 . S
C881 O895 1.273 . S
C882 O896 1.251 . S
C882 O897 1.268 . S
C883 Nd873 2.836 . S
C883 C884 1.498 . S
C883 O898 1.258 . S
C883 O899 1.239 . S
C884 C883 1.498 . S
C884 C885 1.366 . S
C884 C889 1.407 . S
C885 C884 1.366 . S
C885 C886 1.392 . S
C885 H908 0.930 . S
C886 C885 1.392 . S
C886 C887 1.398 . S
C886 H909 0.929 . S
C887 C886 1.398 . S
C887 C888 1.352 . S
C888 C887 1.352 . S
C888 C889 1.384 . S
C888 H910 0.930 . S
C889 C884 1.407 . S
C889 C888 1.384 . S
C889 H911 0.929 . S
C890 O900 1.241 . S
C890 O901 1.273 . S
C891 O902 1.251 . S
C891 O903 1.268 . S
O892 Nd872 2.500 . S
O892 C874 1.258 . S
O893 Nd872 2.492 . S
O893 C874 1.239 . S
O894 Nd872 2.487 . S
O894 C881 1.241 . S
O895 Nd872 2.682 . S
O895 Nd873 2.414 . S
O895 C881 1.273 . S
O896 Nd872 2.410 . S
O896 C882 1.251 . S
O897 Nd873 2.424 . S
O897 C882 1.268 . S
O898 Nd873 2.500 . S
O898 C883 1.258 . S
O899 Nd873 2.492 . S
O899 C883 1.239 . S
O900 Nd873 2.487 . S
O900 C890 1.241 . S
O901 Nd872 2.414 . S
O901 Nd873 2.682 . S
O901 C890 1.273 . S
O902 Nd873 2.410 . S
O902 C891 1.251 . S
O903 Nd872 2.424 . S
O903 C891 1.268 . S
H904 C876 0.930 . S
H905 C877 0.929 . S
H906 C879 0.930 . S
H907 C880 0.929 . S
H908 C885 0.930 . S
H909 C886 0.929 . S
H910 C888 0.930 . S
H911 C889 0.929 . S
Nd912 C914 2.836 . S
Nd912 O932 2.500 . S
Nd912 O933 2.492 . S
Nd912 O934 2.487 . S
Nd912 O935 2.682 . S
Nd912 O936 2.410 . S
Nd912 O941 2.414 . S
Nd912 O943 2.424 . S
Nd913 C923 2.836 . S
Nd913 O935 2.414 1_655 S
Nd913 O937 2.423 1_655 S
Nd913 O938 2.500 . S
Nd913 O939 2.492 . S
Nd913 O940 2.487 . S
Nd913 O941 2.682 1_655 S
Nd913 O942 2.410 . S
C914 Nd912 2.836 . S
C914 C915 1.498 . S
C914 O932 1.258 . S
C914 O933 1.239 . S
C915 C914 1.498 . S
C915 C916 1.366 . S
C915 C920 1.407 . S
C916 C915 1.366 . S
C916 C917 1.392 . S
C916 H944 0.930 . S
C917 C916 1.392 . S
C917 C918 1.398 . S
C917 H945 0.929 . S
C918 C917 1.398 . S
C918 C919 1.352 . S
C919 C918 1.352 . S
C919 C920 1.384 . S
C919 H946 0.930 . S
C920 C915 1.407 . S
C920 C919 1.384 . S
C920 H947 0.929 . S
C921 O934 1.241 . S
C921 O935 1.273 . S
C922 O936 1.251 . S
C922 O937 1.270 . S
C923 Nd913 2.836 . S
C923 C924 1.498 . S
C923 O938 1.258 . S
C923 O939 1.239 . S
C924 C923 1.498 . S
C924 C925 1.366 . S
C924 C929 1.407 . S
C925 C924 1.366 . S
C925 C926 1.392 . S
C925 H948 0.930 . S
C926 C925 1.392 . S
C926 C927 1.398 . S
C926 H949 0.929 . S
C927 C926 1.398 . S
C927 C928 1.352 . S
C928 C927 1.352 . S
C928 C929 1.384 . S
C928 H950 0.930 . S
C929 C924 1.407 . S
C929 C928 1.384 . S
C929 H951 0.929 . S
C930 O940 1.241 1_455 S
C930 O941 1.273 . S
C931 O942 1.251 1_455 S
C931 O943 1.268 . S
O932 Nd912 2.500 . S
O932 C914 1.258 . S
O933 Nd912 2.492 . S
O933 C914 1.239 . S
O934 Nd912 2.487 . S
O934 C921 1.241 . S
O935 Nd912 2.682 . S
O935 Nd913 2.414 1_455 S
O935 C921 1.273 . S
O936 Nd912 2.410 . S
O936 C922 1.251 . S
O937 Nd913 2.423 1_455 S
O937 C922 1.270 . S
O938 Nd913 2.500 . S
O938 C923 1.258 . S
O939 Nd913 2.492 . S
O939 C923 1.239 . S
O940 Nd913 2.487 . S
O940 C930 1.241 1_655 S
O941 Nd912 2.414 . S
O941 Nd913 2.682 1_455 S
O941 C930 1.273 . S
O942 Nd913 2.410 . S
O942 C931 1.251 1_655 S
O943 Nd912 2.424 . S
O943 C931 1.268 . S
H944 C916 0.930 . S
H945 C917 0.929 . S
H946 C919 0.930 . S
H947 C920 0.929 . S
H948 C925 0.930 . S
H949 C926 0.929 . S
H950 C928 0.930 . S
H951 C929 0.929 . S
H952 C960 0.950 . S
H953 C965 0.950 . S
H954 C962 0.950 . S
H955 C964 0.988 . S
H956 C966 0.950 . S
H957 C968 0.950 . S
H958 C970 0.950 . S
H959 C971 0.950 . S
C960 H952 0.950 . S
C960 C961 1.386 . S
C960 C962 1.391 . S
C961 C960 1.386 . S
C961 C965 1.393 . S
C962 H954 0.950 . S
C962 C960 1.391 . S
C962 C963 1.400 . S
C963 C962 1.400 . S
C963 C964 1.403 1_556 S
C963 C969 1.491 1_556 S
C964 H955 0.988 . S
C964 C963 1.403 1_554 S
C964 C965 1.350 1_554 S
C965 H953 0.950 . S
C965 C961 1.393 . S
C965 C964 1.350 1_556 S
C966 H956 0.950 . S
C966 C967 1.386 . S
C966 C968 1.391 . S
C967 C966 1.386 . S
C967 C971 1.393 . S
C968 H957 0.950 . S
C968 C966 1.391 . S
C968 C969 1.400 . S
C969 C963 1.491 1_554 S
C969 C968 1.400 . S
C969 C970 1.398 . S
C970 H958 0.950 . S
C970 C969 1.398 . S
C970 C971 1.391 . S
C971 H959 0.950 . S
C971 C967 1.393 . S
C971 C970 1.391 . S
H972 C980 0.950 . S
H973 C985 0.950 . S
H974 C982 0.950 . S
H975 C984 0.950 . S
H976 C986 0.950 . S
H977 C988 0.950 . S
H978 C990 0.950 . S
H979 C991 0.950 . S
C980 H972 0.950 . S
C980 C981 1.386 . S
C980 C982 1.391 . S
C981 C980 1.386 . S
C981 C985 1.393 . S
C982 H974 0.950 . S
C982 C980 1.391 . S
C982 C983 1.400 . S
C983 C982 1.400 . S
C983 C984 1.398 . S
C983 C989 1.491 . S
C984 H975 0.950 . S
C984 C983 1.398 . S
C984 C985 1.391 . S
C985 H973 0.950 . S
C985 C981 1.393 . S
C985 C984 1.391 . S
C986 H976 0.950 . S
C986 C987 1.386 . S
C986 C988 1.391 . S
C987 C986 1.386 . S
C987 C991 1.393 . S
C988 H977 0.950 . S
C988 C986 1.391 . S
C988 C989 1.400 . S
C989 C983 1.491 . S
C989 C988 1.400 . S
C989 C990 1.398 . S
C990 H978 0.950 . S
C990 C989 1.398 . S
C990 C991 1.391 . S
C991 H979 0.950 . S
C991 C987 1.393 . S
C991 C990 1.391 . S
H992 C1000 0.950 . S
H993 C1005 0.950 . S
H994 C1002 0.950 . S
H995 C1004 0.950 . S
H996 C1006 0.950 . S
H997 C1008 0.950 . S
H998 C1010 0.950 . S
H999 C1011 0.950 1_545 S
C1000 H992 0.950 . S
C1000 C1001 1.386 . S
C1000 C1002 1.391 . S
C1001 C1000 1.386 . S
C1001 C1005 1.393 . S
C1002 H994 0.950 . S
C1002 C1000 1.391 . S
C1002 C1003 1.400 . S
C1003 C1002 1.400 . S
C1003 C1004 1.398 . S
C1003 C1009 1.491 . S
C1004 H995 0.950 . S
C1004 C1003 1.398 . S
C1004 C1005 1.391 . S
C1005 H993 0.950 . S
C1005 C1001 1.393 . S
C1005 C1004 1.391 . S
C1006 H996 0.950 . S
C1006 C1007 1.386 . S
C1006 C1008 1.391 . S
C1007 C1006 1.386 . S
C1007 C1011 1.393 . S
C1008 H997 0.950 . S
C1008 C1006 1.391 . S
C1008 C1009 1.400 . S
C1009 C1003 1.491 . S
C1009 C1008 1.400 . S
C1009 C1010 1.398 . S
C1010 H998 0.950 . S
C1010 C1009 1.398 . S
C1010 C1011 1.391 . S
C1011 H999 0.950 1_565 S
C1011 C1007 1.393 . S
C1011 C1010 1.391 . S
H1012 C1020 0.950 . S
H1013 C1025 0.950 . S
H1014 C1022 0.950 . S
H1015 C1024 0.950 . S
H1016 C1026 0.950 . S
H1017 C1028 0.950 . S
H1018 C1030 0.950 . S
H1019 C1031 0.950 . S
C1020 H1012 0.950 . S
C1020 C1021 1.386 . S
C1020 C1022 1.391 . S
C1021 C1020 1.386 . S
C1021 C1025 1.393 . S
C1022 H1014 0.950 . S
C1022 C1020 1.391 . S
C1022 C1023 1.400 . S
C1023 C1022 1.400 . S
C1023 C1024 1.398 . S
C1023 C1029 1.491 . S
C1024 H1015 0.950 . S
C1024 C1023 1.398 . S
C1024 C1025 1.391 . S
C1025 H1013 0.950 . S
C1025 C1021 1.393 . S
C1025 C1024 1.391 . S
C1026 H1016 0.950 . S
C1026 C1027 1.386 . S
C1026 C1028 1.391 . S
C1027 C1026 1.386 . S
C1027 C1031 1.393 . S
C1028 H1017 0.950 . S
C1028 C1026 1.391 . S
C1028 C1029 1.400 . S
C1029 C1023 1.491 . S
C1029 C1028 1.400 . S
C1029 C1030 1.398 . S
C1030 H1018 0.950 . S
C1030 C1029 1.398 . S
C1030 C1031 1.391 . S
C1031 H1019 0.950 . S
C1031 C1027 1.393 . S
C1031 C1030 1.391 . S
H1032 C1040 0.950 . S
H1033 C1045 0.950 1_655 S
H1034 C1042 0.950 . S
H1035 C1044 0.950 . S
H1036 C1046 0.950 . S
H1037 C1048 0.950 . S
H1038 C1050 0.950 . S
H1039 C1051 0.950 . S
C1040 H1032 0.950 . S
C1040 C1041 1.386 . S
C1040 C1042 1.391 . S
C1041 C1040 1.386 . S
C1041 C1045 1.393 . S
C1042 H1034 0.950 . S
C1042 C1040 1.391 . S
C1042 C1043 1.400 . S
C1043 C1042 1.400 . S
C1043 C1044 1.398 . S
C1043 C1049 1.491 . S
C1044 H1035 0.950 . S
C1044 C1043 1.398 . S
C1044 C1045 1.391 . S
C1045 H1033 0.950 1_455 S
C1045 C1041 1.393 . S
C1045 C1044 1.391 . S
C1046 H1036 0.950 . S
C1046 C1047 1.386 . S
C1046 C1048 1.391 . S
C1047 C1046 1.386 . S
C1047 C1051 1.393 . S
C1048 H1037 0.950 . S
C1048 C1046 1.391 . S
C1048 C1049 1.400 . S
C1049 C1043 1.491 . S
C1049 C1048 1.400 . S
C1049 C1050 1.398 . S
C1050 H1038 0.950 . S
C1050 C1049 1.398 . S
C1050 C1051 1.391 . S
C1051 H1039 0.950 . S
C1051 C1047 1.393 . S
C1051 C1050 1.391 . S
H1052 C1060 0.950 . S
H1053 C1065 0.950 . S
H1054 C1062 0.950 . S
H1055 C1064 0.950 . S
H1056 C1066 0.950 . S
H1057 C1068 0.950 . S
H1058 C1070 0.950 . S
H1059 C1071 0.950 . S
C1060 H1052 0.950 . S
C1060 C1061 1.386 . S
C1060 C1062 1.391 . S
C1061 C1060 1.386 . S
C1061 C1065 1.393 . S
C1062 H1054 0.950 . S
C1062 C1060 1.391 . S
C1062 C1063 1.400 . S
C1063 C1062 1.400 . S
C1063 C1064 1.398 . S
C1063 C1069 1.491 . S
C1064 H1055 0.950 . S
C1064 C1063 1.398 . S
C1064 C1065 1.391 . S
C1065 H1053 0.950 . S
C1065 C1061 1.393 . S
C1065 C1064 1.391 . S
C1066 H1056 0.950 . S
C1066 C1067 1.386 . S
C1066 C1068 1.391 . S
C1067 C1066 1.386 . S
C1067 C1071 1.393 . S
C1068 H1057 0.950 . S
C1068 C1066 1.391 . S
C1068 C1069 1.400 . S
C1069 C1063 1.491 . S
C1069 C1068 1.400 . S
C1069 C1070 1.398 . S
C1070 H1058 0.950 . S
C1070 C1069 1.398 . S
C1070 C1071 1.391 . S
C1071 H1059 0.950 . S
C1071 C1067 1.393 . S
C1071 C1070 1.391 . S
H1072 C1080 0.950 . S
H1073 C1085 0.950 . S
H1074 C1082 0.950 . S
H1075 C1084 0.950 . S
H1076 C1086 0.950 . S
H1077 C1088 0.950 . S
H1078 C1090 0.950 . S
H1079 C1091 0.950 . S
C1080 H1072 0.950 . S
C1080 C1081 1.386 . S
C1080 C1082 1.391 . S
C1081 C1080 1.386 . S
C1081 C1085 1.393 . S
C1082 H1074 0.950 . S
C1082 C1080 1.391 . S
C1082 C1083 1.400 . S
C1083 C1082 1.400 . S
C1083 C1084 1.398 . S
C1083 C1089 1.491 . S
C1084 H1075 0.950 . S
C1084 C1083 1.398 . S
C1084 C1085 1.391 . S
C1085 H1073 0.950 . S
C1085 C1081 1.393 . S
C1085 C1084 1.391 . S
C1086 H1076 0.950 . S
C1086 C1087 1.386 . S
C1086 C1088 1.391 . S
C1087 C1086 1.386 . S
C1087 C1091 1.393 . S
C1088 H1077 0.950 . S
C1088 C1086 1.391 . S
C1088 C1089 1.400 . S
C1089 C1083 1.491 . S
C1089 C1088 1.400 . S
C1089 C1090 1.398 . S
C1090 H1078 0.950 . S
C1090 C1089 1.398 . S
C1090 C1091 1.391 . S
C1091 H1079 0.950 . S
C1091 C1087 1.393 . S
C1091 C1090 1.391 . S
H1092 C1100 0.950 . S
H1093 C1105 0.950 . S
H1094 C1102 0.950 . S
H1095 C1104 0.950 . S
H1096 C1106 0.950 . S
H1097 C1108 0.950 . S
H1098 C1110 0.950 . S
H1099 C1111 0.950 . S
C1100 H1092 0.950 . S
C1100 C1101 1.386 . S
C1100 C1102 1.391 . S
C1101 C1100 1.386 . S
C1101 C1105 1.393 . S
C1102 H1094 0.950 . S
C1102 C1100 1.391 . S
C1102 C1103 1.400 . S
C1103 C1102 1.400 . S
C1103 C1104 1.398 . S
C1103 C1109 1.491 . S
C1104 H1095 0.950 . S
C1104 C1103 1.398 . S
C1104 C1105 1.391 . S
C1105 H1093 0.950 . S
C1105 C1101 1.393 . S
C1105 C1104 1.391 . S
C1106 H1096 0.950 . S
C1106 C1107 1.386 . S
C1106 C1108 1.391 . S
C1107 C1106 1.386 . S
C1107 C1111 1.393 . S
C1108 H1097 0.950 . S
C1108 C1106 1.391 . S
C1108 C1109 1.400 . S
C1109 C1103 1.491 . S
C1109 C1108 1.400 . S
C1109 C1110 1.398 . S
C1110 H1098 0.950 . S
C1110 C1109 1.398 . S
C1110 C1111 1.391 . S
C1111 H1099 0.950 . S
C1111 C1107 1.393 . S
C1111 C1110 1.391 . S
H1112 C1120 0.950 . S
H1113 C1125 0.950 . S
H1114 C1122 0.950 . S
H1115 C1124 0.950 . S
H1116 C1126 0.950 . S
H1117 C1128 0.950 . S
H1118 C1130 0.950 . S
H1119 C1131 0.950 . S
C1120 H1112 0.950 . S
C1120 C1121 1.386 . S
C1120 C1122 1.391 . S
C1121 C1120 1.386 . S
C1121 C1125 1.393 . S
C1122 H1114 0.950 . S
C1122 C1120 1.391 . S
C1122 C1123 1.400 . S
C1123 C1122 1.400 . S
C1123 C1124 1.398 . S
C1123 C1129 1.491 . S
C1124 H1115 0.950 . S
C1124 C1123 1.398 . S
C1124 C1125 1.391 . S
C1125 H1113 0.950 . S
C1125 C1121 1.393 . S
C1125 C1124 1.391 . S
C1126 H1116 0.950 . S
C1126 C1127 1.386 . S
C1126 C1128 1.391 . S
C1127 C1126 1.386 . S
C1127 C1131 1.393 1_455 S
C1128 H1117 0.950 . S
C1128 C1126 1.391 . S
C1128 C1129 1.400 1_455 S
C1129 C1123 1.491 . S
C1129 C1128 1.400 1_655 S
C1129 C1130 1.398 . S
C1130 H1118 0.950 . S
C1130 C1129 1.398 . S
C1130 C1131 1.391 . S
C1131 H1119 0.950 . S
C1131 C1127 1.393 1_655 S
C1131 C1130 1.391 . S
H1132 C1140 0.950 . S
H1133 C1145 0.950 . S
H1134 C1142 0.950 . S
H1135 C1144 0.950 . S
H1136 C1146 0.950 . S
H1137 C1148 0.950 . S
H1138 C1150 0.950 . S
H1139 C1151 0.950 . S
C1140 H1132 0.950 . S
C1140 C1141 1.386 . S
C1140 C1142 1.391 . S
C1141 C1140 1.386 . S
C1141 C1145 1.393 . S
C1142 H1134 0.950 . S
C1142 C1140 1.391 . S
C1142 C1143 1.400 . S
C1143 C1142 1.400 . S
C1143 C1144 1.398 . S
C1143 C1149 1.491 . S
C1144 H1135 0.950 . S
C1144 C1143 1.398 . S
C1144 C1145 1.391 . S
C1145 H1133 0.950 . S
C1145 C1141 1.393 . S
C1145 C1144 1.391 . S
C1146 H1136 0.950 . S
C1146 C1147 1.386 . S
C1146 C1148 1.391 . S
C1147 C1146 1.386 . S
C1147 C1151 1.393 . S
C1148 H1137 0.950 . S
C1148 C1146 1.391 . S
C1148 C1149 1.400 . S
C1149 C1143 1.491 . S
C1149 C1148 1.400 . S
C1149 C1150 1.398 . S
C1150 H1138 0.950 . S
C1150 C1149 1.398 . S
C1150 C1151 1.391 . S
C1151 H1139 0.950 . S
C1151 C1147 1.393 . S
C1151 C1150 1.391 . S
H1152 C1160 0.950 . S
H1153 C1165 0.950 . S
H1154 C1162 0.950 . S
H1155 C1164 0.950 . S
H1156 C1166 0.950 . S
H1157 C1168 0.950 . S
H1158 C1170 0.950 1_565 S
H1159 C1171 0.950 . S
C1160 H1152 0.950 . S
C1160 C1161 1.386 . S
C1160 C1162 1.391 . S
C1161 C1160 1.386 . S
C1161 C1165 1.393 1_565 S
C1162 H1154 0.950 . S
C1162 C1160 1.391 . S
C1162 C1163 1.400 1_565 S
C1163 C1162 1.400 1_545 S
C1163 C1164 1.398 . S
C1163 C1169 1.491 . S
C1164 H1155 0.950 . S
C1164 C1163 1.398 . S
C1164 C1165 1.391 . S
C1165 H1153 0.950 . S
C1165 C1161 1.393 1_545 S
C1165 C1164 1.391 . S
C1166 H1156 0.950 . S
C1166 C1167 1.386 . S
C1166 C1168 1.391 . S
C1167 C1166 1.386 . S
C1167 C1171 1.393 . S
C1168 H1157 0.950 . S
C1168 C1166 1.391 . S
C1168 C1169 1.400 . S
C1169 C1163 1.491 . S
C1169 C1168 1.400 . S
C1169 C1170 1.398 . S
C1170 H1158 0.950 1_545 S
C1170 C1169 1.398 . S
C1170 C1171 1.391 . S
C1171 H1159 0.950 . S
C1171 C1167 1.393 . S
C1171 C1170 1.391 . S
H1172 C1180 0.950 . S
H1173 C1185 0.950 . S
H1174 C1182 0.950 . S
H1175 C1184 0.950 . S
H1176 C1186 0.950 . S
H1177 C1188 0.950 . S
H1178 C1190 0.966 . S
H1179 C1191 0.950 . S
C1180 H1172 0.950 . S
C1180 C1181 1.386 . S
C1180 C1182 1.391 . S
C1181 C1180 1.386 . S
C1181 C1185 1.393 . S
C1182 H1174 0.950 . S
C1182 C1180 1.391 . S
C1182 C1183 1.400 . S
C1183 C1182 1.400 . S
C1183 C1184 1.398 . S
C1183 C1189 1.491 . S
C1184 H1175 0.950 . S
C1184 C1183 1.398 . S
C1184 C1185 1.391 . S
C1185 H1173 0.950 . S
C1185 C1181 1.393 . S
C1185 C1184 1.391 . S
C1186 H1176 0.950 . S
C1186 C1187 1.386 1_554 S
C1186 C1188 1.391 . S
C1187 C1186 1.386 1_556 S
C1187 C1191 1.393 . S
C1188 H1177 0.950 . S
C1188 C1186 1.391 . S
C1188 C1189 1.400 . S
C1189 C1183 1.491 . S
C1189 C1188 1.400 . S
C1189 C1190 1.398 . S
C1190 H1178 0.966 . S
C1190 C1189 1.398 . S
C1190 C1191 1.391 1_554 S
C1191 H1179 0.950 . S
C1191 C1187 1.393 . S
C1191 C1190 1.391 1_556 S
H1192 C1200 0.950 . S
H1193 C1205 0.950 . S
H1194 C1202 0.950 . S
H1195 C1204 0.950 . S
H1196 C1206 0.950 . S
H1197 C1208 0.950 . S
H1198 C1210 0.950 . S
H1199 C1211 0.950 . S
C1200 H1192 0.950 . S
C1200 C1201 1.386 . S
C1200 C1202 1.391 . S
C1201 C1200 1.386 . S
C1201 C1205 1.393 . S
C1202 H1194 0.950 . S
C1202 C1200 1.391 . S
C1202 C1203 1.400 . S
C1203 C1202 1.400 . S
C1203 C1204 1.398 . S
C1203 C1209 1.491 . S
C1204 H1195 0.950 . S
C1204 C1203 1.398 . S
C1204 C1205 1.391 . S
C1205 H1193 0.950 . S
C1205 C1201 1.393 . S
C1205 C1204 1.391 . S
C1206 H1196 0.950 . S
C1206 C1207 1.380 1_455 S
C1206 C1208 1.391 1_455 S
C1207 C1206 1.380 1_655 S
C1207 C1211 1.407 . S
C1208 H1197 0.950 . S
C1208 C1206 1.391 1_655 S
C1208 C1209 1.400 . S
C1209 C1203 1.491 . S
C1209 C1208 1.400 . S
C1209 C1210 1.398 . S
C1210 H1198 0.950 . S
C1210 C1209 1.398 . S
C1210 C1211 1.391 . S
C1211 H1199 0.950 . S
C1211 C1207 1.407 . S
C1211 C1210 1.391 . S
H1212 C1220 0.950 . S
H1213 C1225 0.950 . S
H1214 C1222 0.950 . S
H1215 C1224 0.950 . S
H1216 C1226 0.950 . S
H1217 C1228 0.950 . S
H1218 C1230 0.950 . S
H1219 C1231 0.950 . S
C1220 H1212 0.950 . S
C1220 C1221 1.386 . S
C1220 C1222 1.391 . S
C1221 C1220 1.386 . S
C1221 C1225 1.393 . S
C1222 H1214 0.950 . S
C1222 C1220 1.391 . S
C1222 C1223 1.400 . S
C1223 C1222 1.400 . S
C1223 C1224 1.398 . S
C1223 C1229 1.491 . S
C1224 H1215 0.950 . S
C1224 C1223 1.398 . S
C1224 C1225 1.391 . S
C1225 H1213 0.950 . S
C1225 C1221 1.393 . S
C1225 C1224 1.391 . S
C1226 H1216 0.950 . S
C1226 C1227 1.386 . S
C1226 C1228 1.391 . S
C1227 C1226 1.386 . S
C1227 C1231 1.393 . S
C1228 H1217 0.950 . S
C1228 C1226 1.391 . S
C1228 C1229 1.400 . S
C1229 C1223 1.491 . S
C1229 C1228 1.400 . S
C1229 C1230 1.398 . S
C1230 H1218 0.950 . S
C1230 C1229 1.398 . S
C1230 C1231 1.391 . S
C1231 H1219 0.950 . S
C1231 C1227 1.393 . S
C1231 C1230 1.391 . S
H1232 C1240 0.951 . S
H1233 C1245 0.950 . S
H1234 C1242 0.950 . S
H1235 C1244 0.950 . S
H1236 C1246 0.950 1_554 S
H1237 C1248 0.950 . S
H1238 C1250 0.950 . S
H1239 C1251 0.950 . S
C1240 H1232 0.951 . S
C1240 C1241 1.386 . S
C1240 C1242 1.391 . S
C1241 C1240 1.386 . S
C1241 C1245 1.393 . S
C1242 H1234 0.950 . S
C1242 C1240 1.391 . S
C1242 C1243 1.400 . S
C1243 C1242 1.400 . S
C1243 C1244 1.398 . S
C1243 C1249 1.491 . S
C1244 H1235 0.950 . S
C1244 C1243 1.398 . S
C1244 C1245 1.391 . S
C1245 H1233 0.950 . S
C1245 C1241 1.393 . S
C1245 C1244 1.391 . S
C1246 H1236 0.950 1_556 S
C1246 C1247 1.386 . S
C1246 C1248 1.391 . S
C1247 C1246 1.386 . S
C1247 C1251 1.393 . S
C1248 H1237 0.950 . S
C1248 C1246 1.391 . S
C1248 C1249 1.400 . S
C1249 C1243 1.491 . S
C1249 C1248 1.400 . S
C1249 C1250 1.398 . S
C1250 H1238 0.950 . S
C1250 C1249 1.398 . S
C1250 C1251 1.391 . S
C1251 H1239 0.950 . S
C1251 C1247 1.393 . S
C1251 C1250 1.391 . S
H1252 C1260 0.950 . S
H1253 C1265 0.950 . S
H1254 C1262 0.950 . S
H1255 C1264 0.950 . S
H1256 C1266 0.950 . S
H1257 C1268 0.950 . S
H1258 C1270 0.950 . S
H1259 C1271 0.950 . S
C1260 H1252 0.950 . S
C1260 C1261 1.386 . S
C1260 C1262 1.391 . S
C1261 C1260 1.386 . S
C1261 C1265 1.393 . S
C1262 H1254 0.950 . S
C1262 C1260 1.391 . S
C1262 C1263 1.400 . S
C1263 C1262 1.400 . S
C1263 C1264 1.398 . S
C1263 C1269 1.491 . S
C1264 H1255 0.950 . S
C1264 C1263 1.398 . S
C1264 C1265 1.391 . S
C1265 H1253 0.950 . S
C1265 C1261 1.393 . S
C1265 C1264 1.391 . S
C1266 H1256 0.950 . S
C1266 C1267 1.386 . S
C1266 C1268 1.391 . S
C1267 C1266 1.386 . S
C1267 C1271 1.393 . S
C1268 H1257 0.950 . S
C1268 C1266 1.391 . S
C1268 C1269 1.400 . S
C1269 C1263 1.491 . S
C1269 C1268 1.400 . S
C1269 C1270 1.398 . S
C1270 H1258 0.950 . S
C1270 C1269 1.398 . S
C1270 C1271 1.391 . S
C1271 H1259 0.950 . S
C1271 C1267 1.393 . S
C1271 C1270 1.391 . S
H1272 C1280 0.950 . S
H1273 C1285 0.950 . S
H1274 C1282 0.950 . S
H1275 C1284 0.950 . S
H1276 C1286 0.950 . S
H1277 C1288 0.950 . S
H1278 C1290 0.950 . S
H1279 C1291 0.950 . S
C1280 H1272 0.950 . S
C1280 C1281 1.386 . S
C1280 C1282 1.391 . S
C1281 C1280 1.386 . S
C1281 C1285 1.393 . S
C1282 H1274 0.950 . S
C1282 C1280 1.391 . S
C1282 C1283 1.400 . S
C1283 C1282 1.400 . S
C1283 C1284 1.398 . S
C1283 C1289 1.491 1_565 S
C1284 H1275 0.950 . S
C1284 C1283 1.398 . S
C1284 C1285 1.391 . S
C1285 H1273 0.950 . S
C1285 C1281 1.393 . S
C1285 C1284 1.391 . S
C1286 H1276 0.950 . S
C1286 C1287 1.386 . S
C1286 C1288 1.391 . S
C1287 C1286 1.386 . S
C1287 C1291 1.393 . S
C1288 H1277 0.950 . S
C1288 C1286 1.391 . S
C1288 C1289 1.400 . S
C1289 C1283 1.491 1_545 S
C1289 C1288 1.400 . S
C1289 C1290 1.398 . S
C1290 H1278 0.950 . S
C1290 C1289 1.398 . S
C1290 C1291 1.391 . S
C1291 H1279 0.950 . S
C1291 C1287 1.393 . S
C1291 C1290 1.391 . S
H1292 C1300 0.950 . S
H1293 C1305 0.950 . S
H1294 C1302 0.950 . S
H1295 C1304 0.950 . S
H1296 C1306 0.950 . S
H1297 C1308 0.950 . S
H1298 C1310 0.950 . S
H1299 C1311 0.950 . S
C1300 H1292 0.950 . S
C1300 C1301 1.386 1_554 S
C1300 C1302 1.391 . S
C1301 C1300 1.386 1_556 S
C1301 C1305 1.393 . S
C1302 H1294 0.950 . S
C1302 C1300 1.391 . S
C1302 C1303 1.400 . S
C1303 C1302 1.400 . S
C1303 C1304 1.398 1_554 S
C1303 C1309 1.491 . S
C1304 H1295 0.950 . S
C1304 C1303 1.398 1_556 S
C1304 C1305 1.391 . S
C1305 H1293 0.950 . S
C1305 C1301 1.393 . S
C1305 C1304 1.391 . S
C1306 H1296 0.950 . S
C1306 C1307 1.386 . S
C1306 C1308 1.391 . S
C1307 C1306 1.386 . S
C1307 C1311 1.393 . S
C1308 H1297 0.950 . S
C1308 C1306 1.391 . S
C1308 C1309 1.400 . S
C1309 C1303 1.491 . S
C1309 C1308 1.400 . S
C1309 C1310 1.398 . S
C1310 H1298 0.950 . S
C1310 C1309 1.398 . S
C1310 C1311 1.391 . S
C1311 H1299 0.950 . S
C1311 C1307 1.393 . S
C1311 C1310 1.391 . S
H1312 C1320 0.950 . S
H1313 C1325 0.950 . S
H1314 C1322 0.950 . S
H1315 C1324 0.950 . S
H1316 C1326 0.950 . S
H1317 C1328 0.950 . S
H1318 C1330 0.950 . S
H1319 C1331 0.950 . S
C1320 H1312 0.950 . S
C1320 C1321 1.386 . S
C1320 C1322 1.391 . S
C1321 C1320 1.386 . S
C1321 C1325 1.393 . S
C1322 H1314 0.950 . S
C1322 C1320 1.391 . S
C1322 C1323 1.400 . S
C1323 C1322 1.400 . S
C1323 C1324 1.398 . S
C1323 C1329 1.491 . S
C1324 H1315 0.950 . S
C1324 C1323 1.398 . S
C1324 C1325 1.391 . S
C1325 H1313 0.950 . S
C1325 C1321 1.393 . S
C1325 C1324 1.391 . S
C1326 H1316 0.950 . S
C1326 C1327 1.386 . S
C1326 C1328 1.391 . S
C1327 C1326 1.386 . S
C1327 C1331 1.393 . S
C1328 H1317 0.950 . S
C1328 C1326 1.391 . S
C1328 C1329 1.400 . S
C1329 C1323 1.491 . S
C1329 C1328 1.400 . S
C1329 C1330 1.398 . S
C1330 H1318 0.950 . S
C1330 C1329 1.398 . S
C1330 C1331 1.391 . S
C1331 H1319 0.950 . S
C1331 C1327 1.393 . S
C1331 C1330 1.391 . S
H1332 C1340 0.950 . S
H1333 C1345 0.950 . S
H1334 C1342 0.950 . S
H1335 C1344 0.950 . S
H1336 C1346 0.950 . S
H1337 C1348 0.950 . S
H1338 C1350 0.950 . S
H1339 C1351 0.950 . S
C1340 H1332 0.950 . S
C1340 C1341 1.386 . S
C1340 C1342 1.391 . S
C1341 C1340 1.386 . S
C1341 C1345 1.393 . S
C1342 H1334 0.950 . S
C1342 C1340 1.391 . S
C1342 C1343 1.400 . S
C1343 C1342 1.400 . S
C1343 C1344 1.398 . S
C1343 C1349 1.491 . S
C1344 H1335 0.950 . S
C1344 C1343 1.398 . S
C1344 C1345 1.391 . S
C1345 H1333 0.950 . S
C1345 C1341 1.393 . S
C1345 C1344 1.391 . S
C1346 H1336 0.950 . S
C1346 C1347 1.386 . S
C1346 C1348 1.391 . S
C1347 C1346 1.386 . S
C1347 C1351 1.393 . S
C1348 H1337 0.950 . S
C1348 C1346 1.391 . S
C1348 C1349 1.400 . S
C1349 C1343 1.491 . S
C1349 C1348 1.400 . S
C1349 C1350 1.398 . S
C1350 H1338 0.950 . S
C1350 C1349 1.398 . S
C1350 C1351 1.391 . S
C1351 H1339 0.950 . S
C1351 C1347 1.393 . S
C1351 C1350 1.391 . S
H1352 C1360 0.950 . S
H1353 C1365 0.950 . S
H1354 C1362 0.950 . S
H1355 C1364 0.950 . S
H1356 C1366 0.950 . S
H1357 C1368 0.950 . S
H1358 C1370 0.950 . S
H1359 C1371 0.950 . S
C1360 H1352 0.950 . S
C1360 C1361 1.386 . S
C1360 C1362 1.391 . S
C1361 C1360 1.386 . S
C1361 C1365 1.393 . S
C1362 H1354 0.950 . S
C1362 C1360 1.391 . S
C1362 C1363 1.400 . S
C1363 C1362 1.400 . S
C1363 C1364 1.398 . S
C1363 C1369 1.491 . S
C1364 H1355 0.950 . S
C1364 C1363 1.398 . S
C1364 C1365 1.391 . S
C1365 H1353 0.950 . S
C1365 C1361 1.393 . S
C1365 C1364 1.391 . S
C1366 H1356 0.950 . S
C1366 C1367 1.386 . S
C1366 C1368 1.391 . S
C1367 C1366 1.386 . S
C1367 C1371 1.393 . S
C1368 H1357 0.950 . S
C1368 C1366 1.391 . S
C1368 C1369 1.400 . S
C1369 C1363 1.491 . S
C1369 C1368 1.400 . S
C1369 C1370 1.398 . S
C1370 H1358 0.950 . S
C1370 C1369 1.398 . S
C1370 C1371 1.391 . S
C1371 H1359 0.950 . S
C1371 C1367 1.393 . S
C1371 C1370 1.391 . S
H1372 C1380 0.950 . S
H1373 C1385 0.950 . S
H1374 C1382 0.950 . S
H1375 C1384 0.950 . S
H1376 C1386 0.950 . S
H1377 C1388 0.950 . S
H1378 C1390 0.950 . S
H1379 C1391 0.950 . S
C1380 H1372 0.950 . S
C1380 C1381 1.386 . S
C1380 C1382 1.391 . S
C1381 C1380 1.386 . S
C1381 C1385 1.393 . S
C1382 H1374 0.950 . S
C1382 C1380 1.391 . S
C1382 C1383 1.400 . S
C1383 C1382 1.400 . S
C1383 C1384 1.398 . S
C1383 C1389 1.491 . S
C1384 H1375 0.950 . S
C1384 C1383 1.398 . S
C1384 C1385 1.391 . S
C1385 H1373 0.950 . S
C1385 C1381 1.393 . S
C1385 C1384 1.391 . S
C1386 H1376 0.950 . S
C1386 C1387 1.386 . S
C1386 C1388 1.391 . S
C1387 C1386 1.386 . S
C1387 C1391 1.393 . S
C1388 H1377 0.950 . S
C1388 C1386 1.391 . S
C1388 C1389 1.400 . S
C1389 C1383 1.491 . S
C1389 C1388 1.400 . S
C1389 C1390 1.398 . S
C1390 H1378 0.950 . S
C1390 C1389 1.398 . S
C1390 C1391 1.391 . S
C1391 H1379 0.950 . S
C1391 C1387 1.393 . S
C1391 C1390 1.391 . S
H1392 C1400 0.950 . S
H1393 C1405 0.950 . S
H1394 C1402 0.950 . S
H1395 C1404 0.950 . S
H1396 C1406 0.950 . S
H1397 C1408 0.950 . S
H1398 C1410 0.950 . S
H1399 C1411 0.950 . S
C1400 H1392 0.950 . S
C1400 C1401 1.386 . S
C1400 C1402 1.391 . S
C1401 C1400 1.386 . S
C1401 C1405 1.393 . S
C1402 H1394 0.950 . S
C1402 C1400 1.391 . S
C1402 C1403 1.400 . S
C1403 C1402 1.400 . S
C1403 C1404 1.398 . S
C1403 C1409 1.491 . S
C1404 H1395 0.950 . S
C1404 C1403 1.398 . S
C1404 C1405 1.391 . S
C1405 H1393 0.950 . S
C1405 C1401 1.393 . S
C1405 C1404 1.391 . S
C1406 H1396 0.950 . S
C1406 C1407 1.386 . S
C1406 C1408 1.391 . S
C1407 C1406 1.386 . S
C1407 C1411 1.393 . S
C1408 H1397 0.950 . S
C1408 C1406 1.391 . S
C1408 C1409 1.400 . S
C1409 C1403 1.491 . S
C1409 C1408 1.400 . S
C1409 C1410 1.398 . S
C1410 H1398 0.950 . S
C1410 C1409 1.398 . S
C1410 C1411 1.391 . S
C1411 H1399 0.950 . S
C1411 C1407 1.393 . S
C1411 C1410 1.391 . S
H1412 C1420 0.950 . S
H1413 C1425 0.950 . S
H1414 C1422 0.950 . S
H1415 C1424 0.950 . S
H1416 C1426 0.950 . S
H1417 C1428 0.950 . S
H1418 C1430 0.950 . S
H1419 C1431 0.950 . S
C1420 H1412 0.950 . S
C1420 C1421 1.386 . S
C1420 C1422 1.391 . S
C1421 C1420 1.386 . S
C1421 C1425 1.393 . S
C1422 H1414 0.950 . S
C1422 C1420 1.391 . S
C1422 C1423 1.400 . S
C1423 C1422 1.400 . S
C1423 C1424 1.398 . S
C1423 C1429 1.491 . S
C1424 H1415 0.950 . S
C1424 C1423 1.398 . S
C1424 C1425 1.391 . S
C1425 H1413 0.950 . S
C1425 C1421 1.393 . S
C1425 C1424 1.391 . S
C1426 H1416 0.950 . S
C1426 C1427 1.386 . S
C1426 C1428 1.391 . S
C1427 C1426 1.386 . S
C1427 C1431 1.393 . S
C1428 H1417 0.950 . S
C1428 C1426 1.391 . S
C1428 C1429 1.400 . S
C1429 C1423 1.491 . S
C1429 C1428 1.400 . S
C1429 C1430 1.398 . S
C1430 H1418 0.950 . S
C1430 C1429 1.398 . S
C1430 C1431 1.391 . S
C1431 H1419 0.950 . S
C1431 C1427 1.393 . S
C1431 C1430 1.391 . S
H1432 C1440 0.950 . S
H1433 C1445 0.950 . S
H1434 C1442 0.950 . S
H1435 C1444 0.950 . S
H1436 C1446 0.950 . S
H1437 C1448 0.950 . S
H1438 C1450 0.950 . S
H1439 C1451 0.950 . S
C1440 H1432 0.950 . S
C1440 C1441 1.386 . S
C1440 C1442 1.391 . S
C1441 C1440 1.386 . S
C1441 C1445 1.393 . S
C1442 H1434 0.950 . S
C1442 C1440 1.391 . S
C1442 C1443 1.400 . S
C1443 C1442 1.400 . S
C1443 C1444 1.398 . S
C1443 C1449 1.491 . S
C1444 H1435 0.950 . S
C1444 C1443 1.398 . S
C1444 C1445 1.391 . S
C1445 H1433 0.950 . S
C1445 C1441 1.393 . S
C1445 C1444 1.391 . S
C1446 H1436 0.950 . S
C1446 C1447 1.386 . S
C1446 C1448 1.391 . S
C1447 C1446 1.386 . S
C1447 C1451 1.393 . S
C1448 H1437 0.950 . S
C1448 C1446 1.391 . S
C1448 C1449 1.400 . S
C1449 C1443 1.491 . S
C1449 C1448 1.400 . S
C1449 C1450 1.398 . S
C1450 H1438 0.950 . S
C1450 C1449 1.398 . S
C1450 C1451 1.391 . S
C1451 H1439 0.950 . S
C1451 C1447 1.393 . S
C1451 C1450 1.391 . S
H1452 C1460 0.950 . S
H1453 C1465 0.950 . S
H1454 C1462 0.950 . S
H1455 C1464 0.950 . S
H1456 C1466 0.950 . S
H1457 C1468 0.950 . S
H1458 C1470 0.950 . S
H1459 C1471 0.950 . S
C1460 H1452 0.950 . S
C1460 C1461 1.386 . S
C1460 C1462 1.391 . S
C1461 C1460 1.386 . S
C1461 C1465 1.393 . S
C1462 H1454 0.950 . S
C1462 C1460 1.391 . S
C1462 C1463 1.400 . S
C1463 C1462 1.400 . S
C1463 C1464 1.398 . S
C1463 C1469 1.491 . S
C1464 H1455 0.950 . S
C1464 C1463 1.398 . S
C1464 C1465 1.391 . S
C1465 H1453 0.950 . S
C1465 C1461 1.393 . S
C1465 C1464 1.391 . S
C1466 H1456 0.950 . S
C1466 C1467 1.386 . S
C1466 C1468 1.391 . S
C1467 C1466 1.386 . S
C1467 C1471 1.393 . S
C1468 H1457 0.950 . S
C1468 C1466 1.391 . S
C1468 C1469 1.400 . S
C1469 C1463 1.491 . S
C1469 C1468 1.400 . S
C1469 C1470 1.398 . S
C1470 H1458 0.950 . S
C1470 C1469 1.398 . S
C1470 C1471 1.391 . S
C1471 H1459 0.950 . S
C1471 C1467 1.393 . S
C1471 C1470 1.391 . S
H1472 C1480 0.950 . S
H1473 C1485 0.950 . S
H1474 C1482 0.950 . S
H1475 C1484 0.950 . S
H1476 C1486 0.950 . S
H1477 C1488 0.950 . S
H1478 C1490 0.950 . S
H1479 C1491 0.950 . S
C1480 H1472 0.950 . S
C1480 C1481 1.386 . S
C1480 C1482 1.391 . S
C1481 C1480 1.386 . S
C1481 C1485 1.393 . S
C1482 H1474 0.950 . S
C1482 C1480 1.391 . S
C1482 C1483 1.400 . S
C1483 C1482 1.400 . S
C1483 C1484 1.398 . S
C1483 C1489 1.491 . S
C1484 H1475 0.950 . S
C1484 C1483 1.398 . S
C1484 C1485 1.391 . S
C1485 H1473 0.950 . S
C1485 C1481 1.393 . S
C1485 C1484 1.391 . S
C1486 H1476 0.950 . S
C1486 C1487 1.386 . S
C1486 C1488 1.391 . S
C1487 C1486 1.386 . S
C1487 C1491 1.393 . S
C1488 H1477 0.950 . S
C1488 C1486 1.391 . S
C1488 C1489 1.400 . S
C1489 C1483 1.491 . S
C1489 C1488 1.400 . S
C1489 C1490 1.398 . S
C1490 H1478 0.950 . S
C1490 C1489 1.398 . S
C1490 C1491 1.391 . S
C1491 H1479 0.950 . S
C1491 C1487 1.393 . S
C1491 C1490 1.391 . S
H1492 C1500 0.950 . S
H1493 C1505 0.950 . S
H1494 C1502 0.950 . S
H1495 C1504 0.950 . S
H1496 C1506 0.950 . S
H1497 C1508 0.950 . S
H1498 C1510 0.950 . S
H1499 C1511 0.950 . S
C1500 H1492 0.950 . S
C1500 C1501 1.386 . S
C1500 C1502 1.391 . S
C1501 C1500 1.386 . S
C1501 C1505 1.393 . S
C1502 H1494 0.950 . S
C1502 C1500 1.391 . S
C1502 C1503 1.400 . S
C1503 C1502 1.400 . S
C1503 C1504 1.398 . S
C1503 C1509 1.491 . S
C1504 H1495 0.950 . S
C1504 C1503 1.398 . S
C1504 C1505 1.391 . S
C1505 H1493 0.950 . S
C1505 C1501 1.393 . S
C1505 C1504 1.391 . S
C1506 H1496 0.950 . S
C1506 C1507 1.386 . S
C1506 C1508 1.391 . S
C1507 C1506 1.386 . S
C1507 C1511 1.393 . S
C1508 H1497 0.950 . S
C1508 C1506 1.391 . S
C1508 C1509 1.400 . S
C1509 C1503 1.491 . S
C1509 C1508 1.400 . S
C1509 C1510 1.398 . S
C1510 H1498 0.950 . S
C1510 C1509 1.398 . S
C1510 C1511 1.391 . S
C1511 H1499 0.950 . S
C1511 C1507 1.393 . S
C1511 C1510 1.391 . S
H1512 C1520 0.950 . S
H1513 C1525 0.950 . S
H1514 C1522 0.950 . S
H1515 C1524 0.950 . S
H1516 C1526 0.950 . S
H1517 C1528 0.950 . S
H1518 C1530 0.950 1_655 S
H1519 C1531 0.950 . S
C1520 H1512 0.950 . S
C1520 C1521 1.386 . S
C1520 C1522 1.391 . S
C1521 C1520 1.386 . S
C1521 C1525 1.393 . S
C1522 H1514 0.950 . S
C1522 C1520 1.391 . S
C1522 C1523 1.400 . S
C1523 C1522 1.400 . S
C1523 C1524 1.398 . S
C1523 C1529 1.491 . S
C1524 H1515 0.950 . S
C1524 C1523 1.398 . S
C1524 C1525 1.391 . S
C1525 H1513 0.950 . S
C1525 C1521 1.393 . S
C1525 C1524 1.391 . S
C1526 H1516 0.950 . S
C1526 C1527 1.386 . S
C1526 C1528 1.391 . S
C1527 C1526 1.386 . S
C1527 C1531 1.393 1_455 S
C1528 H1517 0.950 . S
C1528 C1526 1.391 . S
C1528 C1529 1.400 . S
C1529 C1523 1.491 . S
C1529 C1528 1.400 . S
C1529 C1530 1.398 . S
C1530 H1518 0.950 1_455 S
C1530 C1529 1.398 . S
C1530 C1531 1.391 1_455 S
C1531 H1519 0.950 . S
C1531 C1527 1.393 1_655 S
C1531 C1530 1.391 1_655 S
H1532 C1540 0.950 . S
H1533 C1545 0.950 . S
H1534 C1542 0.950 . S
H1535 C1544 0.950 . S
H1536 C1546 0.950 . S
H1537 C1548 0.950 . S
H1538 C1550 0.950 . S
H1539 C1551 0.950 . S
C1540 H1532 0.950 . S
C1540 C1541 1.386 . S
C1540 C1542 1.391 . S
C1541 C1540 1.386 . S
C1541 C1545 1.393 . S
C1542 H1534 0.950 . S
C1542 C1540 1.391 . S
C1542 C1543 1.400 . S
C1543 C1542 1.400 . S
C1543 C1544 1.398 . S
C1543 C1549 1.491 . S
C1544 H1535 0.950 . S
C1544 C1543 1.398 . S
C1544 C1545 1.391 . S
C1545 H1533 0.950 . S
C1545 C1541 1.393 . S
C1545 C1544 1.391 . S
C1546 H1536 0.950 . S
C1546 C1547 1.386 . S
C1546 C1548 1.391 . S
C1547 C1546 1.386 . S
C1547 C1551 1.393 . S
C1548 H1537 0.950 . S
C1548 C1546 1.391 . S
C1548 C1549 1.400 . S
C1549 C1543 1.491 . S
C1549 C1548 1.400 . S
C1549 C1550 1.398 . S
C1550 H1538 0.950 . S
C1550 C1549 1.398 . S
C1550 C1551 1.391 . S
C1551 H1539 0.950 . S
C1551 C1547 1.393 . S
C1551 C1550 1.391 . S
H1552 C1560 0.950 . S
H1553 C1565 0.950 . S
H1554 C1562 0.950 . S
H1555 C1564 0.950 . S
H1556 C1566 0.950 . S
H1557 C1568 0.949 . S
H1558 C1570 0.950 . S
H1559 C1571 0.950 . S
C1560 H1552 0.950 . S
C1560 C1561 1.386 . S
C1560 C1562 1.391 . S
C1561 C1560 1.386 . S
C1561 C1565 1.393 . S
C1562 H1554 0.950 . S
C1562 C1560 1.391 . S
C1562 C1563 1.400 . S
C1563 C1562 1.400 . S
C1563 C1564 1.398 . S
C1563 C1569 1.491 . S
C1564 H1555 0.950 . S
C1564 C1563 1.398 . S
C1564 C1565 1.391 . S
C1565 H1553 0.950 . S
C1565 C1561 1.393 . S
C1565 C1564 1.391 . S
C1566 H1556 0.950 . S
C1566 C1567 1.386 . S
C1566 C1568 1.418 . S
C1567 C1566 1.386 . S
C1567 C1571 1.393 . S
C1568 H1557 0.949 . S
C1568 C1566 1.418 . S
C1568 C1569 1.377 1_545 S
C1569 C1563 1.491 . S
C1569 C1568 1.377 1_565 S
C1569 C1570 1.398 . S
C1570 H1558 0.950 . S
C1570 C1569 1.398 . S
C1570 C1571 1.391 1_565 S
C1571 H1559 0.950 . S
C1571 C1567 1.393 . S
C1571 C1570 1.391 1_545 S
H1572 C1580 0.950 . S
H1573 C1585 0.950 . S
H1574 C1582 0.950 . S
H1575 C1584 0.950 . S
H1576 C1586 0.950 . S
H1577 C1588 0.950 . S
H1578 C1590 0.950 . S
H1579 C1591 0.950 . S
C1580 H1572 0.950 . S
C1580 C1581 1.386 . S
C1580 C1582 1.391 . S
C1581 C1580 1.386 . S
C1581 C1585 1.393 . S
C1582 H1574 0.950 . S
C1582 C1580 1.391 . S
C1582 C1583 1.400 . S
C1583 C1582 1.400 . S
C1583 C1584 1.398 . S
C1583 C1589 1.491 . S
C1584 H1575 0.950 . S
C1584 C1583 1.398 . S
C1584 C1585 1.391 . S
C1585 H1573 0.950 . S
C1585 C1581 1.393 . S
C1585 C1584 1.391 . S
C1586 H1576 0.950 . S
C1586 C1587 1.386 . S
C1586 C1588 1.391 . S
C1587 C1586 1.386 . S
C1587 C1591 1.393 . S
C1588 H1577 0.950 . S
C1588 C1586 1.391 . S
C1588 C1589 1.400 . S
C1589 C1583 1.491 . S
C1589 C1588 1.400 . S
C1589 C1590 1.398 . S
C1590 H1578 0.950 . S
C1590 C1589 1.398 . S
C1590 C1591 1.391 . S
C1591 H1579 0.950 . S
C1591 C1587 1.393 . S
C1591 C1590 1.391 . S
H1592 C1600 0.950 . S
H1593 C1605 0.950 . S
H1594 C1602 0.950 . S
H1595 C1604 0.950 . S
H1596 C1606 0.950 . S
H1597 C1608 0.950 . S
H1598 C1610 0.950 . S
H1599 C1611 0.950 . S
C1600 H1592 0.950 . S
C1600 C1601 1.386 . S
C1600 C1602 1.391 . S
C1601 C1600 1.386 . S
C1601 C1605 1.393 . S
C1602 H1594 0.950 . S
C1602 C1600 1.391 . S
C1602 C1603 1.400 . S
C1603 C1602 1.400 . S
C1603 C1604 1.398 . S
C1603 C1609 1.491 . S
C1604 H1595 0.950 . S
C1604 C1603 1.398 . S
C1604 C1605 1.391 . S
C1605 H1593 0.950 . S
C1605 C1601 1.393 . S
C1605 C1604 1.391 . S
C1606 H1596 0.950 . S
C1606 C1607 1.386 . S
C1606 C1608 1.391 1_554 S
C1607 C1606 1.386 . S
C1607 C1611 1.393 . S
C1608 H1597 0.950 . S
C1608 C1606 1.391 1_556 S
C1608 C1609 1.400 . S
C1609 C1603 1.491 . S
C1609 C1608 1.400 . S
C1609 C1610 1.398 . S
C1610 H1598 0.950 . S
C1610 C1609 1.398 . S
C1610 C1611 1.391 1_556 S
C1611 H1599 0.950 . S
C1611 C1607 1.393 . S
C1611 C1610 1.391 1_554 S
H1612 C1620 0.950 . S
H1613 C1625 0.950 . S
H1614 C1622 0.950 . S
H1615 C1624 0.950 . S
H1616 C1626 0.950 . S
H1617 C1628 0.950 . S
H1618 C1630 0.950 . S
H1619 C1631 0.950 . S
C1620 H1612 0.950 . S
C1620 C1621 1.386 . S
C1620 C1622 1.391 . S
C1621 C1620 1.386 . S
C1621 C1625 1.393 . S
C1622 H1614 0.950 . S
C1622 C1620 1.391 . S
C1622 C1623 1.400 . S
C1623 C1622 1.400 . S
C1623 C1624 1.398 . S
C1623 C1629 1.491 . S
C1624 H1615 0.950 . S
C1624 C1623 1.398 . S
C1624 C1625 1.391 . S
C1625 H1613 0.950 . S
C1625 C1621 1.393 . S
C1625 C1624 1.391 . S
C1626 H1616 0.950 . S
C1626 C1627 1.386 . S
C1626 C1628 1.391 . S
C1627 C1626 1.386 . S
C1627 C1631 1.393 . S
C1628 H1617 0.950 . S
C1628 C1626 1.391 . S
C1628 C1629 1.400 . S
C1629 C1623 1.491 . S
C1629 C1628 1.400 . S
C1629 C1630 1.398 . S
C1630 H1618 0.950 . S
C1630 C1629 1.398 . S
C1630 C1631 1.391 . S
C1631 H1619 0.950 . S
C1631 C1627 1.393 . S
C1631 C1630 1.391 . S
H1632 C1640 0.950 . S
H1633 C1645 0.950 . S
H1634 C1642 0.950 . S
H1635 C1644 0.950 . S
H1636 C1646 0.950 . S
H1637 C1648 0.950 . S
H1638 C1650 0.950 . S
H1639 C1651 0.950 . S
C1640 H1632 0.950 . S
C1640 C1641 1.386 . S
C1640 C1642 1.391 . S
C1641 C1640 1.386 . S
C1641 C1645 1.393 . S
C1642 H1634 0.950 . S
C1642 C1640 1.391 . S
C1642 C1643 1.400 . S
C1643 C1642 1.400 . S
C1643 C1644 1.398 . S
C1643 C1649 1.491 . S
C1644 H1635 0.950 . S
C1644 C1643 1.398 . S
C1644 C1645 1.391 . S
C1645 H1633 0.950 . S
C1645 C1641 1.393 . S
C1645 C1644 1.391 . S
C1646 H1636 0.950 . S
C1646 C1647 1.386 . S
C1646 C1648 1.391 . S
C1647 C1646 1.386 . S
C1647 C1651 1.393 . S
C1648 H1637 0.950 . S
C1648 C1646 1.391 . S
C1648 C1649 1.400 . S
C1649 C1643 1.491 . S
C1649 C1648 1.400 . S
C1649 C1650 1.398 . S
C1650 H1638 0.950 . S
C1650 C1649 1.398 . S
C1650 C1651 1.391 . S
C1651 H1639 0.950 . S
C1651 C1647 1.393 . S
C1651 C1650 1.391 . S
H1652 C1660 0.950 . S
H1653 C1665 0.950 . S
H1654 C1662 0.950 . S
H1655 C1664 0.950 . S
H1656 C1666 0.950 . S
H1657 C1668 0.950 . S
H1658 C1670 0.950 . S
H1659 C1671 0.950 . S
C1660 H1652 0.950 . S
C1660 C1661 1.386 . S
C1660 C1662 1.391 . S
C1661 C1660 1.386 . S
C1661 C1665 1.393 . S
C1662 H1654 0.950 . S
C1662 C1660 1.391 . S
C1662 C1663 1.400 . S
C1663 C1662 1.400 . S
C1663 C1664 1.398 . S
C1663 C1669 1.491 . S
C1664 H1655 0.950 . S
C1664 C1663 1.398 . S
C1664 C1665 1.391 . S
C1665 H1653 0.950 . S
C1665 C1661 1.393 . S
C1665 C1664 1.391 . S
C1666 H1656 0.950 . S
C1666 C1667 1.386 . S
C1666 C1668 1.391 . S
C1667 C1666 1.386 . S
C1667 C1671 1.393 . S
C1668 H1657 0.950 . S
C1668 C1666 1.391 . S
C1668 C1669 1.400 . S
C1669 C1663 1.491 . S
C1669 C1668 1.400 . S
C1669 C1670 1.398 . S
C1670 H1658 0.950 . S
C1670 C1669 1.398 . S
C1670 C1671 1.391 . S
C1671 H1659 0.950 . S
C1671 C1667 1.393 . S
C1671 C1670 1.391 . S
H1672 C1680 0.950 . S
H1673 C1685 0.950 . S
H1674 C1682 0.950 . S
H1675 C1684 0.950 . S
H1676 C1686 0.950 . S
H1677 C1688 0.950 . S
H1678 C1690 0.950 . S
H1679 C1691 0.950 . S
C1680 H1672 0.950 . S
C1680 C1681 1.386 . S
C1680 C1682 1.391 . S
C1681 C1680 1.386 . S
C1681 C1685 1.393 . S
C1682 H1674 0.950 . S
C1682 C1680 1.391 . S
C1682 C1683 1.400 . S
C1683 C1682 1.400 . S
C1683 C1684 1.398 . S
C1683 C1689 1.491 . S
C1684 H1675 0.950 . S
C1684 C1683 1.398 . S
C1684 C1685 1.391 . S
C1685 H1673 0.950 . S
C1685 C1681 1.393 . S
C1685 C1684 1.391 . S
C1686 H1676 0.950 . S
C1686 C1687 1.386 . S
C1686 C1688 1.391 . S
C1687 C1686 1.386 . S
C1687 C1691 1.393 . S
C1688 H1677 0.950 . S
C1688 C1686 1.391 . S
C1688 C1689 1.400 . S
C1689 C1683 1.491 . S
C1689 C1688 1.400 . S
C1689 C1690 1.398 . S
C1690 H1678 0.950 . S
C1690 C1689 1.398 . S
C1690 C1691 1.391 . S
C1691 H1679 0.950 . S
C1691 C1687 1.393 . S
C1691 C1690 1.391 . S
H1692 C1700 0.950 . S
H1693 C1705 0.950 . S
H1694 C1702 0.950 . S
H1695 C1704 0.950 . S
H1696 C1706 0.950 . S
H1697 C1708 0.950 . S
H1698 C1710 0.950 . S
H1699 C1711 0.950 . S
C1700 H1692 0.950 . S
C1700 C1701 1.386 . S
C1700 C1702 1.391 . S
C1701 C1700 1.386 . S
C1701 C1705 1.393 . S
C1702 H1694 0.950 . S
C1702 C1700 1.391 . S
C1702 C1703 1.400 . S
C1703 C1702 1.400 . S
C1703 C1704 1.398 . S
C1703 C1709 1.491 . S
C1704 H1695 0.950 . S
C1704 C1703 1.398 . S
C1704 C1705 1.391 . S
C1705 H1693 0.950 . S
C1705 C1701 1.393 . S
C1705 C1704 1.391 . S
C1706 H1696 0.950 . S
C1706 C1707 1.386 . S
C1706 C1708 1.391 . S
C1707 C1706 1.386 . S
C1707 C1711 1.393 . S
C1708 H1697 0.950 . S
C1708 C1706 1.391 . S
C1708 C1709 1.400 . S
C1709 C1703 1.491 . S
C1709 C1708 1.400 . S
C1709 C1710 1.398 . S
C1710 H1698 0.950 . S
C1710 C1709 1.398 . S
C1710 C1711 1.391 . S
C1711 H1699 0.950 . S
C1711 C1707 1.393 . S
C1711 C1710 1.391 . S
H1712 C1720 0.950 . S
H1713 C1725 0.950 . S
H1714 C1722 0.950 . S
H1715 C1724 0.950 . S
H1716 C1726 0.950 . S
H1717 C1728 0.950 . S
H1718 C1730 0.950 . S
H1719 C1731 0.950 . S
C1720 H1712 0.950 . S
C1720 C1721 1.386 . S
C1720 C1722 1.391 . S
C1721 C1720 1.386 . S
C1721 C1725 1.393 . S
C1722 H1714 0.950 . S
C1722 C1720 1.391 . S
C1722 C1723 1.400 . S
C1723 C1722 1.400 . S
C1723 C1724 1.398 . S
C1723 C1729 1.491 . S
C1724 H1715 0.950 . S
C1724 C1723 1.398 . S
C1724 C1725 1.391 . S
C1725 H1713 0.950 . S
C1725 C1721 1.393 . S
C1725 C1724 1.391 . S
C1726 H1716 0.950 . S
C1726 C1727 1.386 . S
C1726 C1728 1.391 . S
C1727 C1726 1.386 . S
C1727 C1731 1.393 . S
C1728 H1717 0.950 . S
C1728 C1726 1.391 . S
C1728 C1729 1.400 . S
C1729 C1723 1.491 . S
C1729 C1728 1.400 . S
C1729 C1730 1.398 . S
C1730 H1718 0.950 . S
C1730 C1729 1.398 . S
C1730 C1731 1.391 . S
C1731 H1719 0.950 . S
C1731 C1727 1.393 . S
C1731 C1730 1.391 . S
H1732 C1740 0.950 . S
H1733 C1745 0.950 . S
H1734 C1742 0.950 . S
H1735 C1744 0.950 . S
H1736 C1746 0.950 . S
H1737 C1748 0.950 . S
H1738 C1750 0.950 . S
H1739 C1751 0.950 . S
C1740 H1732 0.950 . S
C1740 C1741 1.386 . S
C1740 C1742 1.391 . S
C1741 C1740 1.386 . S
C1741 C1745 1.393 . S
C1742 H1734 0.950 . S
C1742 C1740 1.391 . S
C1742 C1743 1.400 . S
C1743 C1742 1.400 . S
C1743 C1744 1.398 . S
C1743 C1749 1.491 . S
C1744 H1735 0.950 . S
C1744 C1743 1.398 . S
C1744 C1745 1.391 . S
C1745 H1733 0.950 . S
C1745 C1741 1.393 . S
C1745 C1744 1.391 . S
C1746 H1736 0.950 . S
C1746 C1747 1.386 . S
C1746 C1748 1.391 . S
C1747 C1746 1.386 . S
C1747 C1751 1.393 . S
C1748 H1737 0.950 . S
C1748 C1746 1.391 . S
C1748 C1749 1.400 . S
C1749 C1743 1.491 . S
C1749 C1748 1.400 . S
C1749 C1750 1.398 . S
C1750 H1738 0.950 . S
C1750 C1749 1.398 . S
C1750 C1751 1.391 . S
C1751 H1739 0.950 . S
C1751 C1747 1.393 . S
C1751 C1750 1.391 . S
H1752 C1760 0.950 . S
H1753 C1765 0.950 . S
H1754 C1762 0.950 . S
H1755 C1764 0.950 . S
H1756 C1766 0.950 . S
H1757 C1768 0.950 . S
H1758 C1770 0.950 . S
H1759 C1771 0.950 . S
C1760 H1752 0.950 . S
C1760 C1761 1.386 . S
C1760 C1762 1.391 . S
C1761 C1760 1.386 . S
C1761 C1765 1.393 . S
C1762 H1754 0.950 . S
C1762 C1760 1.391 . S
C1762 C1763 1.400 . S
C1763 C1762 1.400 . S
C1763 C1764 1.398 . S
C1763 C1769 1.491 . S
C1764 H1755 0.950 . S
C1764 C1763 1.398 . S
C1764 C1765 1.391 . S
C1765 H1753 0.950 . S
C1765 C1761 1.393 . S
C1765 C1764 1.391 . S
C1766 H1756 0.950 . S
C1766 C1767 1.386 . S
C1766 C1768 1.391 . S
C1767 C1766 1.386 . S
C1767 C1771 1.393 . S
C1768 H1757 0.950 . S
C1768 C1766 1.391 . S
C1768 C1769 1.400 . S
C1769 C1763 1.491 . S
C1769 C1768 1.400 . S
C1769 C1770 1.398 . S
C1770 H1758 0.950 . S
C1770 C1769 1.398 . S
C1770 C1771 1.391 . S
C1771 H1759 0.950 . S
C1771 C1767 1.393 . S
C1771 C1770 1.391 . S
H1772 C1780 0.950 . S
H1773 C1785 0.950 . S
H1774 C1782 0.950 . S
H1775 C1784 0.950 . S
H1776 C1786 0.950 . S
H1777 C1788 0.950 . S
H1778 C1790 0.950 . S
H1779 C1791 0.950 . S
C1780 H1772 0.950 . S
C1780 C1781 1.386 . S
C1780 C1782 1.391 . S
C1781 C1780 1.386 . S
C1781 C1785 1.393 . S
C1782 H1774 0.950 . S
C1782 C1780 1.391 . S
C1782 C1783 1.400 . S
C1783 C1782 1.400 . S
C1783 C1784 1.398 . S
C1783 C1789 1.491 . S
C1784 H1775 0.950 . S
C1784 C1783 1.398 . S
C1784 C1785 1.391 . S
C1785 H1773 0.950 . S
C1785 C1781 1.393 . S
C1785 C1784 1.391 . S
C1786 H1776 0.950 . S
C1786 C1787 1.386 . S
C1786 C1788 1.391 . S
C1787 C1786 1.386 . S
C1787 C1791 1.393 . S
C1788 H1777 0.950 . S
C1788 C1786 1.391 . S
C1788 C1789 1.400 . S
C1789 C1783 1.491 . S
C1789 C1788 1.400 . S
C1789 C1790 1.398 . S
C1790 H1778 0.950 . S
C1790 C1789 1.398 . S
C1790 C1791 1.391 . S
C1791 H1779 0.950 . S
C1791 C1787 1.393 . S
C1791 C1790 1.391 . S
H1792 C1800 0.950 . S
H1793 C1805 0.950 . S
H1794 C1802 0.950 . S
H1795 C1804 0.950 . S
H1796 C1806 0.950 . S
H1797 C1808 0.950 . S
H1798 C1810 0.950 . S
H1799 C1811 0.950 . S
C1800 H1792 0.950 . S
C1800 C1801 1.386 . S
C1800 C1802 1.391 . S
C1801 C1800 1.386 . S
C1801 C1805 1.393 . S
C1802 H1794 0.950 . S
C1802 C1800 1.391 . S
C1802 C1803 1.400 . S
C1803 C1802 1.400 . S
C1803 C1804 1.398 . S
C1803 C1809 1.491 . S
C1804 H1795 0.950 . S
C1804 C1803 1.398 . S
C1804 C1805 1.391 . S
C1805 H1793 0.950 . S
C1805 C1801 1.393 . S
C1805 C1804 1.391 . S
C1806 H1796 0.950 . S
C1806 C1807 1.386 . S
C1806 C1808 1.391 . S
C1807 C1806 1.386 . S
C1807 C1811 1.393 . S
C1808 H1797 0.950 . S
C1808 C1806 1.391 . S
C1808 C1809 1.400 . S
C1809 C1803 1.491 . S
C1809 C1808 1.400 . S
C1809 C1810 1.398 . S
C1810 H1798 0.950 . S
C1810 C1809 1.398 . S
C1810 C1811 1.391 . S
C1811 H1799 0.950 . S
C1811 C1807 1.393 . S
C1811 C1810 1.391 . S
H1812 C1820 0.950 . S
H1813 C1825 0.950 . S
H1814 C1822 0.950 . S
H1815 C1824 0.950 . S
H1816 C1826 0.950 . S
H1817 C1828 0.950 . S
H1818 C1830 0.950 . S
H1819 C1831 0.950 . S
C1820 H1812 0.950 . S
C1820 C1821 1.386 . S
C1820 C1822 1.391 . S
C1821 C1820 1.386 . S
C1821 C1825 1.393 . S
C1822 H1814 0.950 . S
C1822 C1820 1.391 . S
C1822 C1823 1.400 . S
C1823 C1822 1.400 . S
C1823 C1824 1.398 . S
C1823 C1829 1.491 . S
C1824 H1815 0.950 . S
C1824 C1823 1.398 . S
C1824 C1825 1.391 . S
C1825 H1813 0.950 . S
C1825 C1821 1.393 . S
C1825 C1824 1.391 . S
C1826 H1816 0.950 . S
C1826 C1827 1.386 . S
C1826 C1828 1.391 . S
C1827 C1826 1.386 . S
C1827 C1831 1.393 . S
C1828 H1817 0.950 . S
C1828 C1826 1.391 . S
C1828 C1829 1.400 . S
C1829 C1823 1.491 . S
C1829 C1828 1.400 . S
C1829 C1830 1.398 . S
C1830 H1818 0.950 . S
C1830 C1829 1.398 . S
C1830 C1831 1.391 . S
C1831 H1819 0.950 . S
C1831 C1827 1.393 . S
C1831 C1830 1.391 . S
H1832 C1840 0.950 . S
H1833 C1845 0.950 . S
H1834 C1842 0.950 . S
H1835 C1844 0.950 . S
H1836 C1846 0.950 . S
H1837 C1848 0.950 . S
H1838 C1850 0.950 . S
H1839 C1851 0.950 . S
C1840 H1832 0.950 . S
C1840 C1841 1.386 . S
C1840 C1842 1.391 . S
C1841 C1840 1.386 . S
C1841 C1845 1.393 . S
C1842 H1834 0.950 . S
C1842 C1840 1.391 . S
C1842 C1843 1.400 . S
C1843 C1842 1.400 . S
C1843 C1844 1.398 . S
C1843 C1849 1.491 . S
C1844 H1835 0.950 . S
C1844 C1843 1.398 . S
C1844 C1845 1.391 . S
C1845 H1833 0.950 . S
C1845 C1841 1.393 . S
C1845 C1844 1.391 . S
C1846 H1836 0.950 . S
C1846 C1847 1.386 . S
C1846 C1848 1.391 . S
C1847 C1846 1.386 . S
C1847 C1851 1.393 . S
C1848 H1837 0.950 . S
C1848 C1846 1.391 . S
C1848 C1849 1.400 . S
C1849 C1843 1.491 . S
C1849 C1848 1.400 . S
C1849 C1850 1.398 . S
C1850 H1838 0.950 . S
C1850 C1849 1.398 . S
C1850 C1851 1.391 . S
C1851 H1839 0.950 . S
C1851 C1847 1.393 . S
C1851 C1850 1.391 . S
H1852 C1860 0.950 . S
H1853 C1865 0.950 . S
H1854 C1862 0.950 . S
H1855 C1864 0.950 . S
H1856 C1866 0.950 . S
H1857 C1868 0.950 . S
H1858 C1870 0.950 . S
H1859 C1871 0.950 . S
C1860 H1852 0.950 . S
C1860 C1861 1.386 . S
C1860 C1862 1.391 . S
C1861 C1860 1.386 . S
C1861 C1865 1.393 1_565 S
C1862 H1854 0.950 . S
C1862 C1860 1.391 . S
C1862 C1863 1.401 1_565 S
C1863 C1862 1.401 1_545 S
C1863 C1864 1.398 . S
C1863 C1869 1.490 . S
C1864 H1855 0.950 . S
C1864 C1863 1.398 . S
C1864 C1865 1.391 . S
C1865 H1853 0.950 . S
C1865 C1861 1.393 1_545 S
C1865 C1864 1.391 . S
C1866 H1856 0.950 . S
C1866 C1867 1.386 . S
C1866 C1868 1.391 . S
C1867 C1866 1.386 . S
C1867 C1871 1.393 1_545 S
C1868 H1857 0.950 . S
C1868 C1866 1.391 . S
C1868 C1869 1.400 . S
C1869 C1863 1.490 . S
C1869 C1868 1.400 . S
C1869 C1870 1.398 1_545 S
C1870 H1858 0.950 . S
C1870 C1869 1.398 1_565 S
C1870 C1871 1.391 . S
C1871 H1859 0.950 . S
C1871 C1867 1.393 1_565 S
C1871 C1870 1.391 . S
H1872 C1880 0.950 . S
H1873 C1885 0.950 . S
H1874 C1882 0.950 . S
H1875 C1884 0.950 . S
H1876 C1886 0.950 . S
H1877 C1888 0.950 . S
H1878 C1890 0.950 . S
H1879 C1891 0.950 . S
C1880 H1872 0.950 . S
C1880 C1881 1.386 . S
C1880 C1882 1.391 . S
C1881 C1880 1.386 . S
C1881 C1885 1.393 . S
C1882 H1874 0.950 . S
C1882 C1880 1.391 . S
C1882 C1883 1.400 . S
C1883 C1882 1.400 . S
C1883 C1884 1.398 . S
C1883 C1889 1.491 . S
C1884 H1875 0.950 . S
C1884 C1883 1.398 . S
C1884 C1885 1.391 . S
C1885 H1873 0.950 . S
C1885 C1881 1.393 . S
C1885 C1884 1.391 . S
C1886 H1876 0.950 . S
C1886 C1887 1.386 . S
C1886 C1888 1.391 . S
C1887 C1886 1.386 . S
C1887 C1891 1.393 . S
C1888 H1877 0.950 . S
C1888 C1886 1.391 . S
C1888 C1889 1.400 . S
C1889 C1883 1.491 . S
C1889 C1888 1.400 . S
C1889 C1890 1.398 . S
C1890 H1878 0.950 . S
C1890 C1889 1.398 . S
C1890 C1891 1.391 . S
C1891 H1879 0.950 . S
C1891 C1887 1.393 . S
C1891 C1890 1.391 . S
H1892 C1900 0.950 . S
H1893 C1905 0.950 . S
H1894 C1902 0.950 . S
H1895 C1904 0.950 . S
H1896 C1906 0.950 . S
H1897 C1908 0.950 . S
H1898 C1910 0.950 . S
H1899 C1911 0.950 . S
C1900 H1892 0.950 . S
C1900 C1901 1.386 . S
C1900 C1902 1.391 . S
C1901 C1900 1.386 . S
C1901 C1905 1.393 . S
C1902 H1894 0.950 . S
C1902 C1900 1.391 . S
C1902 C1903 1.400 . S
C1903 C1902 1.400 . S
C1903 C1904 1.398 . S
C1903 C1909 1.491 . S
C1904 H1895 0.950 . S
C1904 C1903 1.398 . S
C1904 C1905 1.391 . S
C1905 H1893 0.950 . S
C1905 C1901 1.393 . S
C1905 C1904 1.391 . S
C1906 H1896 0.950 . S
C1906 C1907 1.386 . S
C1906 C1908 1.391 . S
C1907 C1906 1.386 . S
C1907 C1911 1.393 . S
C1908 H1897 0.950 . S
C1908 C1906 1.391 . S
C1908 C1909 1.400 . S
C1909 C1903 1.491 . S
C1909 C1908 1.400 . S
C1909 C1910 1.398 . S
C1910 H1898 0.950 . S
C1910 C1909 1.398 . S
C1910 C1911 1.391 . S
C1911 H1899 0.950 . S
C1911 C1907 1.393 . S
C1911 C1910 1.391 . S
H1912 C1920 0.950 . S
H1913 C1925 0.950 . S
H1914 C1922 0.950 . S
H1915 C1924 0.950 . S
H1916 C1926 0.950 . S
H1917 C1928 0.950 . S
H1918 C1930 0.950 . S
H1919 C1931 0.950 . S
C1920 H1912 0.950 . S
C1920 C1921 1.386 . S
C1920 C1922 1.391 . S
C1921 C1920 1.386 . S
C1921 C1925 1.393 . S
C1922 H1914 0.950 . S
C1922 C1920 1.391 . S
C1922 C1923 1.400 . S
C1923 C1922 1.400 . S
C1923 C1924 1.398 . S
C1923 C1929 1.491 . S
C1924 H1915 0.950 . S
C1924 C1923 1.398 . S
C1924 C1925 1.391 . S
C1925 H1913 0.950 . S
C1925 C1921 1.393 . S
C1925 C1924 1.391 . S
C1926 H1916 0.950 . S
C1926 C1927 1.386 . S
C1926 C1928 1.391 . S
C1927 C1926 1.386 . S
C1927 C1931 1.393 . S
C1928 H1917 0.950 . S
C1928 C1926 1.391 . S
C1928 C1929 1.400 . S
C1929 C1923 1.491 . S
C1929 C1928 1.400 . S
C1929 C1930 1.398 . S
C1930 H1918 0.950 . S
C1930 C1929 1.398 . S
C1930 C1931 1.391 . S
C1931 H1919 0.950 . S
C1931 C1927 1.393 . S
C1931 C1930 1.391 . S
H1932 C1940 0.950 . S
H1933 C1945 0.950 . S
H1934 C1942 0.950 . S
H1935 C1944 0.950 . S
H1936 C1946 0.950 . S
H1937 C1948 0.950 . S
H1938 C1950 0.950 . S
H1939 C1951 0.950 . S
C1940 H1932 0.950 . S
C1940 C1941 1.386 . S
C1940 C1942 1.391 . S
C1941 C1940 1.386 . S
C1941 C1945 1.393 . S
C1942 H1934 0.950 . S
C1942 C1940 1.391 . S
C1942 C1943 1.400 . S
C1943 C1942 1.400 . S
C1943 C1944 1.398 . S
C1943 C1949 1.491 . S
C1944 H1935 0.950 . S
C1944 C1943 1.398 . S
C1944 C1945 1.391 . S
C1945 H1933 0.950 . S
C1945 C1941 1.393 . S
C1945 C1944 1.391 . S
C1946 H1936 0.950 . S
C1946 C1947 1.386 . S
C1946 C1948 1.391 . S
C1947 C1946 1.386 . S
C1947 C1951 1.393 . S
C1948 H1937 0.950 . S
C1948 C1946 1.391 . S
C1948 C1949 1.400 . S
C1949 C1943 1.491 . S
C1949 C1948 1.400 . S
C1949 C1950 1.398 . S
C1950 H1938 0.950 . S
C1950 C1949 1.398 . S
C1950 C1951 1.391 . S
C1951 H1939 0.950 . S
C1951 C1947 1.393 . S
C1951 C1950 1.391 . S
H1952 C1960 0.950 . S
H1953 C1965 0.950 . S
H1954 C1962 0.950 1_655 S
H1955 C1964 0.950 . S
H1956 C1966 0.950 . S
H1957 C1968 0.950 . S
H1958 C1970 0.956 1_655 S
H1959 C1971 0.950 1_655 S
C1960 H1952 0.950 . S
C1960 C1961 1.386 . S
C1960 C1962 1.391 . S
C1961 C1960 1.386 . S
C1961 C1965 1.393 . S
C1962 H1954 0.950 1_455 S
C1962 C1960 1.391 . S
C1962 C1963 1.400 . S
C1963 C1962 1.400 . S
C1963 C1964 1.398 . S
C1963 C1969 1.491 1_556 S
C1964 H1955 0.950 . S
C1964 C1963 1.398 . S
C1964 C1965 1.391 . S
C1965 H1953 0.950 . S
C1965 C1961 1.393 . S
C1965 C1964 1.391 . S
C1966 H1956 0.950 . S
C1966 C1967 1.386 . S
C1966 C1968 1.391 . S
C1967 C1966 1.386 . S
C1967 C1971 1.393 . S
C1968 H1957 0.950 . S
C1968 C1966 1.391 . S
C1968 C1969 1.400 . S
C1969 C1963 1.491 1_554 S
C1969 C1968 1.400 . S
C1969 C1970 1.398 . S
C1970 H1958 0.956 1_455 S
C1970 C1969 1.398 . S
C1970 C1971 1.391 . S
C1971 H1959 0.950 1_455 S
C1971 C1967 1.393 . S
C1971 C1970 1.391 . S
H1972 C1980 0.950 . S
H1973 C1985 0.950 . S
H1974 C1982 0.950 . S
H1975 C1984 0.950 . S
H1976 C1986 0.950 . S
H1977 C1988 0.950 . S
H1978 C1990 0.950 . S
H1979 C1991 0.950 . S
C1980 H1972 0.950 . S
C1980 C1981 1.386 . S
C1980 C1982 1.391 . S
C1981 C1980 1.386 . S
C1981 C1985 1.393 . S
C1982 H1974 0.950 . S
C1982 C1980 1.391 . S
C1982 C1983 1.400 . S
C1983 C1982 1.400 . S
C1983 C1984 1.398 . S
C1983 C1989 1.491 . S
C1984 H1975 0.950 . S
C1984 C1983 1.398 . S
C1984 C1985 1.391 . S
C1985 H1973 0.950 . S
C1985 C1981 1.393 . S
C1985 C1984 1.391 . S
C1986 H1976 0.950 . S
C1986 C1987 1.386 . S
C1986 C1988 1.391 . S
C1987 C1986 1.386 . S
C1987 C1991 1.393 . S
C1988 H1977 0.950 . S
C1988 C1986 1.391 . S
C1988 C1989 1.400 . S
C1989 C1983 1.491 . S
C1989 C1988 1.400 . S
C1989 C1990 1.398 . S
C1990 H1978 0.950 . S
C1990 C1989 1.398 . S
C1990 C1991 1.391 . S
C1991 H1979 0.950 . S
C1991 C1987 1.393 . S
C1991 C1990 1.391 . S
H1992 C2000 0.950 . S
H1993 C2005 0.950 . S
H1994 C2002 0.950 . S
H1995 C2004 0.950 . S
H1996 C2006 0.950 . S
H1997 C2008 0.950 . S
H1998 C2010 0.950 . S
H1999 C2011 0.950 . S
C2000 H1992 0.950 . S
C2000 C2001 1.386 . S
C2000 C2002 1.391 . S
C2001 C2000 1.386 . S
C2001 C2005 1.393 . S
C2002 H1994 0.950 . S
C2002 C2000 1.391 . S
C2002 C2003 1.400 . S
C2003 C2002 1.400 . S
C2003 C2004 1.398 . S
C2003 C2009 1.491 . S
C2004 H1995 0.950 . S
C2004 C2003 1.398 . S
C2004 C2005 1.391 . S
C2005 H1993 0.950 . S
C2005 C2001 1.393 . S
C2005 C2004 1.391 . S
C2006 H1996 0.950 . S
C2006 C2007 1.386 . S
C2006 C2008 1.391 . S
C2007 C2006 1.386 . S
C2007 C2011 1.393 . S
C2008 H1997 0.950 . S
C2008 C2006 1.391 . S
C2008 C2009 1.400 . S
C2009 C2003 1.491 . S
C2009 C2008 1.400 . S
C2009 C2010 1.398 . S
C2010 H1998 0.950 . S
C2010 C2009 1.398 . S
C2010 C2011 1.391 . S
C2011 H1999 0.950 . S
C2011 C2007 1.393 . S
C2011 C2010 1.391 . S
H2012 C2020 0.950 . S
H2013 C2025 0.950 . S
H2014 C2022 0.950 . S
H2015 C2024 0.950 . S
H2016 C2026 0.950 . S
H2017 C2028 0.950 . S
H2018 C2030 0.950 . S
H2019 C2031 0.950 . S
C2020 H2012 0.950 . S
C2020 C2021 1.386 1_655 S
C2020 C2022 1.391 . S
C2021 C2020 1.386 1_455 S
C2021 C2025 1.393 . S
C2022 H2014 0.950 . S
C2022 C2020 1.391 . S
C2022 C2023 1.400 . S
C2023 C2022 1.400 . S
C2023 C2024 1.398 . S
C2023 C2029 1.491 . S
C2024 H2015 0.950 . S
C2024 C2023 1.398 . S
C2024 C2025 1.391 1_655 S
C2025 H2013 0.950 . S
C2025 C2021 1.393 . S
C2025 C2024 1.391 1_455 S
C2026 H2016 0.950 . S
C2026 C2027 1.386 . S
C2026 C2028 1.391 . S
C2027 C2026 1.386 . S
C2027 C2031 1.393 . S
C2028 H2017 0.950 . S
C2028 C2026 1.391 . S
C2028 C2029 1.400 . S
C2029 C2023 1.491 . S
C2029 C2028 1.400 . S
C2029 C2030 1.398 . S
C2030 H2018 0.950 . S
C2030 C2029 1.398 . S
C2030 C2031 1.391 . S
C2031 H2019 0.950 . S
C2031 C2027 1.393 . S
C2031 C2030 1.391 . S
H2032 C2040 0.950 . S
H2033 C2045 0.950 . S
H2034 C2042 0.950 . S
H2035 C2044 0.950 . S
H2036 C2046 0.950 . S
H2037 C2048 0.950 . S
H2038 C2050 0.950 . S
H2039 C2051 0.950 . S
C2040 H2032 0.950 . S
C2040 C2041 1.386 1_455 S
C2040 C2042 1.391 . S
C2041 C2040 1.386 1_655 S
C2041 C2045 1.393 . S
C2042 H2034 0.950 . S
C2042 C2040 1.391 . S
C2042 C2043 1.400 1_455 S
C2043 C2042 1.400 1_655 S
C2043 C2044 1.398 . S
C2043 C2049 1.501 . S
C2044 H2035 0.950 . S
C2044 C2043 1.398 . S
C2044 C2045 1.391 . S
C2045 H2033 0.950 . S
C2045 C2041 1.393 . S
C2045 C2044 1.391 . S
C2046 H2036 0.950 . S
C2046 C2047 1.386 1_655 S
C2046 C2048 1.391 . S
C2047 C2046 1.386 1_455 S
C2047 C2051 1.393 . S
C2048 H2037 0.950 . S
C2048 C2046 1.391 . S
C2048 C2049 1.411 . S
C2049 C2043 1.501 . S
C2049 C2048 1.411 . S
C2049 C2050 1.377 1_655 S
C2050 H2038 0.950 . S
C2050 C2049 1.377 1_455 S
C2050 C2051 1.391 . S
C2051 H2039 0.950 . S
C2051 C2047 1.393 . S
C2051 C2050 1.391 . S
H2052 C2060 0.950 . S
H2053 C2065 0.950 . S
H2054 C2062 0.950 . S
H2055 C2064 0.950 . S
H2056 C2066 0.950 . S
H2057 C2068 0.950 . S
H2058 C2070 0.950 . S
H2059 C2071 0.950 . S
C2060 H2052 0.950 . S
C2060 C2061 1.386 . S
C2060 C2062 1.391 . S
C2061 C2060 1.386 . S
C2061 C2065 1.393 . S
C2062 H2054 0.950 . S
C2062 C2060 1.391 . S
C2062 C2063 1.400 . S
C2063 C2062 1.400 . S
C2063 C2064 1.398 . S
C2063 C2069 1.491 . S
C2064 H2055 0.950 . S
C2064 C2063 1.398 . S
C2064 C2065 1.391 . S
C2065 H2053 0.950 . S
C2065 C2061 1.393 . S
C2065 C2064 1.391 . S
C2066 H2056 0.950 . S
C2066 C2067 1.386 . S
C2066 C2068 1.391 . S
C2067 C2066 1.386 . S
C2067 C2071 1.393 . S
C2068 H2057 0.950 . S
C2068 C2066 1.391 . S
C2068 C2069 1.400 . S
C2069 C2063 1.491 . S
C2069 C2068 1.400 . S
C2069 C2070 1.398 . S
C2070 H2058 0.950 . S
C2070 C2069 1.398 . S
C2070 C2071 1.391 . S
C2071 H2059 0.950 . S
C2071 C2067 1.393 . S
C2071 C2070 1.391 . S
H2072 C2080 0.950 . S
H2073 C2085 0.950 . S
H2074 C2082 0.950 . S
H2075 C2084 0.950 . S
H2076 C2086 0.950 . S
H2077 C2088 0.950 . S
H2078 C2090 0.950 . S
H2079 C2091 0.950 . S
C2080 H2072 0.950 . S
C2080 C2081 1.386 . S
C2080 C2082 1.391 . S
C2081 C2080 1.386 . S
C2081 C2085 1.393 . S
C2082 H2074 0.950 . S
C2082 C2080 1.391 . S
C2082 C2083 1.400 . S
C2083 C2082 1.400 . S
C2083 C2084 1.398 . S
C2083 C2089 1.491 . S
C2084 H2075 0.950 . S
C2084 C2083 1.398 . S
C2084 C2085 1.391 . S
C2085 H2073 0.950 . S
C2085 C2081 1.393 . S
C2085 C2084 1.391 . S
C2086 H2076 0.950 . S
C2086 C2087 1.386 . S
C2086 C2088 1.391 . S
C2087 C2086 1.386 . S
C2087 C2091 1.393 . S
C2088 H2077 0.950 . S
C2088 C2086 1.391 . S
C2088 C2089 1.400 . S
C2089 C2083 1.491 . S
C2089 C2088 1.400 . S
C2089 C2090 1.398 . S
C2090 H2078 0.950 . S
C2090 C2089 1.398 . S
C2090 C2091 1.391 . S
C2091 H2079 0.950 . S
C2091 C2087 1.393 . S
C2091 C2090 1.391 . S
H2092 C2100 0.924 1_554 S
H2093 C2105 0.950 . S
H2094 C2102 0.950 . S
H2095 C2104 0.950 . S
H2096 C2106 0.950 . S
H2097 C2108 0.950 . S
H2098 C2110 0.950 . S
H2099 C2111 0.950 . S
C2100 H2092 0.924 1_556 S
C2100 C2101 1.387 . S
C2100 C2102 1.416 . S
C2101 C2100 1.387 . S
C2101 C2105 1.393 . S
C2102 H2094 0.950 . S
C2102 C2100 1.416 . S
C2102 C2103 1.400 . S
C2103 C2102 1.400 . S
C2103 C2104 1.398 . S
C2103 C2109 1.491 . S
C2104 H2095 0.950 . S
C2104 C2103 1.398 . S
C2104 C2105 1.391 . S
C2105 H2093 0.950 . S
C2105 C2101 1.393 . S
C2105 C2104 1.391 . S
C2106 H2096 0.950 . S
C2106 C2107 1.386 . S
C2106 C2108 1.391 . S
C2107 C2106 1.386 . S
C2107 C2111 1.393 . S
C2108 H2097 0.950 . S
C2108 C2106 1.391 . S
C2108 C2109 1.400 . S
C2109 C2103 1.491 . S
C2109 C2108 1.400 . S
C2109 C2110 1.398 . S
C2110 H2098 0.950 . S
C2110 C2109 1.398 . S
C2110 C2111 1.391 . S
C2111 H2099 0.950 . S
C2111 C2107 1.393 . S
C2111 C2110 1.391 . S
H2112 C2120 0.950 . S
H2113 C2125 0.950 . S
H2114 C2122 0.950 . S
H2115 C2124 0.950 . S
H2116 C2126 0.950 . S
H2117 C2128 0.950 . S
H2118 C2130 0.950 . S
H2119 C2131 0.950 . S
C2120 H2112 0.950 . S
C2120 C2121 1.386 . S
C2120 C2122 1.391 . S
C2121 C2120 1.386 . S
C2121 C2125 1.393 . S
C2122 H2114 0.950 . S
C2122 C2120 1.391 . S
C2122 C2123 1.400 . S
C2123 C2122 1.400 . S
C2123 C2124 1.398 . S
C2123 C2129 1.491 . S
C2124 H2115 0.950 . S
C2124 C2123 1.398 . S
C2124 C2125 1.391 . S
C2125 H2113 0.950 . S
C2125 C2121 1.393 . S
C2125 C2124 1.391 . S
C2126 H2116 0.950 . S
C2126 C2127 1.386 . S
C2126 C2128 1.391 . S
C2127 C2126 1.386 . S
C2127 C2131 1.393 . S
C2128 H2117 0.950 . S
C2128 C2126 1.391 . S
C2128 C2129 1.400 . S
C2129 C2123 1.491 . S
C2129 C2128 1.400 . S
C2129 C2130 1.398 . S
C2130 H2118 0.950 . S
C2130 C2129 1.398 . S
C2130 C2131 1.391 . S
C2131 H2119 0.950 . S
C2131 C2127 1.393 . S
C2131 C2130 1.391 . S
H2132 C2140 0.950 . S
H2133 C2145 0.950 . S
H2134 C2142 0.950 . S
H2135 C2144 0.950 . S
H2136 C2146 0.950 . S
H2137 C2148 0.950 . S
H2138 C2150 0.950 . S
H2139 C2151 0.950 . S
C2140 H2132 0.950 . S
C2140 C2141 1.386 . S
C2140 C2142 1.391 . S
C2141 C2140 1.386 . S
C2141 C2145 1.393 . S
C2142 H2134 0.950 . S
C2142 C2140 1.391 . S
C2142 C2143 1.400 . S
C2143 C2142 1.400 . S
C2143 C2144 1.398 . S
C2143 C2149 1.491 . S
C2144 H2135 0.950 . S
C2144 C2143 1.398 . S
C2144 C2145 1.391 . S
C2145 H2133 0.950 . S
C2145 C2141 1.393 . S
C2145 C2144 1.391 . S
C2146 H2136 0.950 . S
C2146 C2147 1.386 . S
C2146 C2148 1.391 . S
C2147 C2146 1.386 . S
C2147 C2151 1.393 . S
C2148 H2137 0.950 . S
C2148 C2146 1.391 . S
C2148 C2149 1.400 . S
C2149 C2143 1.491 . S
C2149 C2148 1.400 . S
C2149 C2150 1.398 . S
C2150 H2138 0.950 . S
C2150 C2149 1.398 . S
C2150 C2151 1.391 . S
C2151 H2139 0.950 . S
C2151 C2147 1.393 . S
C2151 C2150 1.391 . S
H2152 C2160 0.950 . S
H2153 C2165 0.950 . S
H2154 C2162 0.950 . S
H2155 C2164 0.950 . S
H2156 C2166 0.950 1_554 S
H2157 C2168 0.950 . S
H2158 C2170 0.950 . S
H2159 C2171 0.950 . S
C2160 H2152 0.950 . S
C2160 C2161 1.386 . S
C2160 C2162 1.391 . S
C2161 C2160 1.386 . S
C2161 C2165 1.393 . S
C2162 H2154 0.950 . S
C2162 C2160 1.391 . S
C2162 C2163 1.400 . S
C2163 C2162 1.400 . S
C2163 C2164 1.398 . S
C2163 C2169 1.491 . S
C2164 H2155 0.950 . S
C2164 C2163 1.398 . S
C2164 C2165 1.391 . S
C2165 H2153 0.950 . S
C2165 C2161 1.393 . S
C2165 C2164 1.391 . S
C2166 H2156 0.950 1_556 S
C2166 C2167 1.386 . S
C2166 C2168 1.391 . S
C2167 C2166 1.386 . S
C2167 C2171 1.393 . S
C2168 H2157 0.950 . S
C2168 C2166 1.391 . S
C2168 C2169 1.400 . S
C2169 C2163 1.491 . S
C2169 C2168 1.400 . S
C2169 C2170 1.398 . S
C2170 H2158 0.950 . S
C2170 C2169 1.398 . S
C2170 C2171 1.391 . S
C2171 H2159 0.950 . S
C2171 C2167 1.393 . S
C2171 C2170 1.391 . S
H2172 C2180 0.950 . S
H2173 C2185 0.950 . S
H2174 C2182 0.950 . S
H2175 C2184 0.950 . S
H2176 C2186 0.950 . S
H2177 C2188 0.950 . S
H2178 C2190 0.950 . S
H2179 C2191 0.950 . S
C2180 H2172 0.950 . S
C2180 C2181 1.386 . S
C2180 C2182 1.391 . S
C2181 C2180 1.386 . S
C2181 C2185 1.393 . S
C2182 H2174 0.950 . S
C2182 C2180 1.391 . S
C2182 C2183 1.400 . S
C2183 C2182 1.400 . S
C2183 C2184 1.398 . S
C2183 C2189 1.491 . S
C2184 H2175 0.950 . S
C2184 C2183 1.398 . S
C2184 C2185 1.391 . S
C2185 H2173 0.950 . S
C2185 C2181 1.393 . S
C2185 C2184 1.391 . S
C2186 H2176 0.950 . S
C2186 C2187 1.386 . S
C2186 C2188 1.391 . S
C2187 C2186 1.386 . S
C2187 C2191 1.393 . S
C2188 H2177 0.950 . S
C2188 C2186 1.391 . S
C2188 C2189 1.400 . S
C2189 C2183 1.491 . S
C2189 C2188 1.400 . S
C2189 C2190 1.398 . S
C2190 H2178 0.950 . S
C2190 C2189 1.398 . S
C2190 C2191 1.391 . S
C2191 H2179 0.950 . S
C2191 C2187 1.393 . S
C2191 C2190 1.391 . S
H2192 C2200 0.950 . S
H2193 C2205 0.950 . S
H2194 C2202 0.950 . S
H2195 C2204 0.950 . S
H2196 C2206 0.950 . S
H2197 C2208 0.950 . S
H2198 C2210 0.950 . S
H2199 C2211 0.950 . S
C2200 H2192 0.950 . S
C2200 C2201 1.386 . S
C2200 C2202 1.391 . S
C2201 C2200 1.386 . S
C2201 C2205 1.393 . S
C2202 H2194 0.950 . S
C2202 C2200 1.391 . S
C2202 C2203 1.400 . S
C2203 C2202 1.400 . S
C2203 C2204 1.398 . S
C2203 C2209 1.491 . S
C2204 H2195 0.950 . S
C2204 C2203 1.398 . S
C2204 C2205 1.391 . S
C2205 H2193 0.950 . S
C2205 C2201 1.393 . S
C2205 C2204 1.391 . S
C2206 H2196 0.950 . S
C2206 C2207 1.386 . S
C2206 C2208 1.391 . S
C2207 C2206 1.386 . S
C2207 C2211 1.393 . S
C2208 H2197 0.950 . S
C2208 C2206 1.391 . S
C2208 C2209 1.400 . S
C2209 C2203 1.491 . S
C2209 C2208 1.400 . S
C2209 C2210 1.398 . S
C2210 H2198 0.950 . S
C2210 C2209 1.398 . S
C2210 C2211 1.391 . S
C2211 H2199 0.950 . S
C2211 C2207 1.393 . S
C2211 C2210 1.391 . S
H2212 C2220 0.950 . S
H2213 C2225 0.950 . S
H2214 C2222 0.950 . S
H2215 C2224 0.950 . S
H2216 C2226 0.950 . S
H2217 C2228 0.950 . S
H2218 C2230 0.950 . S
H2219 C2231 0.950 . S
C2220 H2212 0.950 . S
C2220 C2221 1.386 . S
C2220 C2222 1.391 . S
C2221 C2220 1.386 . S
C2221 C2225 1.393 . S
C2222 H2214 0.950 . S
C2222 C2220 1.391 . S
C2222 C2223 1.400 . S
C2223 C2222 1.400 . S
C2223 C2224 1.398 . S
C2223 C2229 1.491 . S
C2224 H2215 0.950 . S
C2224 C2223 1.398 . S
C2224 C2225 1.391 . S
C2225 H2213 0.950 . S
C2225 C2221 1.393 . S
C2225 C2224 1.391 . S
C2226 H2216 0.950 . S
C2226 C2227 1.386 . S
C2226 C2228 1.391 . S
C2227 C2226 1.386 . S
C2227 C2231 1.393 . S
C2228 H2217 0.950 . S
C2228 C2226 1.391 . S
C2228 C2229 1.400 . S
C2229 C2223 1.491 . S
C2229 C2228 1.400 . S
C2229 C2230 1.398 . S
C2230 H2218 0.950 . S
C2230 C2229 1.398 . S
C2230 C2231 1.391 . S
C2231 H2219 0.950 . S
C2231 C2227 1.393 . S
C2231 C2230 1.391 . S
H2232 C2240 0.950 . S
H2233 C2245 0.950 . S
H2234 C2242 0.950 . S
H2235 C2244 0.950 . S
H2236 C2246 0.950 . S
H2237 C2248 0.950 . S
H2238 C2250 0.950 . S
H2239 C2251 0.950 . S
C2240 H2232 0.950 . S
C2240 C2241 1.386 . S
C2240 C2242 1.391 . S
C2241 C2240 1.386 . S
C2241 C2245 1.393 . S
C2242 H2234 0.950 . S
C2242 C2240 1.391 . S
C2242 C2243 1.400 . S
C2243 C2242 1.400 . S
C2243 C2244 1.398 . S
C2243 C2249 1.491 . S
C2244 H2235 0.950 . S
C2244 C2243 1.398 . S
C2244 C2245 1.391 . S
C2245 H2233 0.950 . S
C2245 C2241 1.393 . S
C2245 C2244 1.391 . S
C2246 H2236 0.950 . S
C2246 C2247 1.386 . S
C2246 C2248 1.391 . S
C2247 C2246 1.386 . S
C2247 C2251 1.393 . S
C2248 H2237 0.950 . S
C2248 C2246 1.391 . S
C2248 C2249 1.400 . S
C2249 C2243 1.491 . S
C2249 C2248 1.400 . S
C2249 C2250 1.398 . S
C2250 H2238 0.950 . S
C2250 C2249 1.398 . S
C2250 C2251 1.391 . S
C2251 H2239 0.950 . S
C2251 C2247 1.393 . S
C2251 C2250 1.391 . S
H2252 C2260 0.950 . S
H2253 C2265 0.950 . S
H2254 C2262 0.950 . S
H2255 C2264 0.950 . S
H2256 C2266 0.950 . S
H2257 C2268 0.950 . S
H2258 C2270 0.950 . S
H2259 C2271 0.950 . S
C2260 H2252 0.950 . S
C2260 C2261 1.386 . S
C2260 C2262 1.391 . S
C2261 C2260 1.386 . S
C2261 C2265 1.393 . S
C2262 H2254 0.950 . S
C2262 C2260 1.391 . S
C2262 C2263 1.400 . S
C2263 C2262 1.400 . S
C2263 C2264 1.398 . S
C2263 C2269 1.491 . S
C2264 H2255 0.950 . S
C2264 C2263 1.398 . S
C2264 C2265 1.391 . S
C2265 H2253 0.950 . S
C2265 C2261 1.393 . S
C2265 C2264 1.391 . S
C2266 H2256 0.950 . S
C2266 C2267 1.386 . S
C2266 C2268 1.391 . S
C2267 C2266 1.386 . S
C2267 C2271 1.393 . S
C2268 H2257 0.950 . S
C2268 C2266 1.391 . S
C2268 C2269 1.400 . S
C2269 C2263 1.491 . S
C2269 C2268 1.400 . S
C2269 C2270 1.398 . S
C2270 H2258 0.950 . S
C2270 C2269 1.398 . S
C2270 C2271 1.391 . S
C2271 H2259 0.950 . S
C2271 C2267 1.393 . S
C2271 C2270 1.391 . S
H2272 C2280 0.950 . S
H2273 C2285 0.950 . S
H2274 C2282 0.950 . S
H2275 C2284 0.950 . S
H2276 C2286 0.950 . S
H2277 C2288 0.950 . S
H2278 C2290 0.950 . S
H2279 C2291 0.950 . S
C2280 H2272 0.950 . S
C2280 C2281 1.386 . S
C2280 C2282 1.391 . S
C2281 C2280 1.386 . S
C2281 C2285 1.393 . S
C2282 H2274 0.950 . S
C2282 C2280 1.391 . S
C2282 C2283 1.400 . S
C2283 C2282 1.400 . S
C2283 C2284 1.398 . S
C2283 C2289 1.491 . S
C2284 H2275 0.950 . S
C2284 C2283 1.398 . S
C2284 C2285 1.391 . S
C2285 H2273 0.950 . S
C2285 C2281 1.393 . S
C2285 C2284 1.391 . S
C2286 H2276 0.950 . S
C2286 C2287 1.386 . S
C2286 C2288 1.391 . S
C2287 C2286 1.386 . S
C2287 C2291 1.393 . S
C2288 H2277 0.950 . S
C2288 C2286 1.391 . S
C2288 C2289 1.400 . S
C2289 C2283 1.491 . S
C2289 C2288 1.400 . S
C2289 C2290 1.398 . S
C2290 H2278 0.950 . S
C2290 C2289 1.398 . S
C2290 C2291 1.391 . S
C2291 H2279 0.950 . S
C2291 C2287 1.393 . S
C2291 C2290 1.391 . S
H2292 C2300 0.950 . S
H2293 C2305 0.950 . S
H2294 C2302 0.950 . S
H2295 C2304 0.950 . S
H2296 C2306 0.947 1_565 S
H2297 C2308 0.950 . S
H2298 C2310 0.950 . S
H2299 C2311 0.950 . S
C2300 H2292 0.950 . S
C2300 C2301 1.386 . S
C2300 C2302 1.391 . S
C2301 C2300 1.386 . S
C2301 C2305 1.393 . S
C2302 H2294 0.950 . S
C2302 C2300 1.391 . S
C2302 C2303 1.400 . S
C2303 C2302 1.400 . S
C2303 C2304 1.398 . S
C2303 C2309 1.491 . S
C2304 H2295 0.950 . S
C2304 C2303 1.398 . S
C2304 C2305 1.391 . S
C2305 H2293 0.950 . S
C2305 C2301 1.393 . S
C2305 C2304 1.391 . S
C2306 H2296 0.947 1_545 S
C2306 C2307 1.410 . S
C2306 C2308 1.371 1_545 S
C2307 C2306 1.410 . S
C2307 C2311 1.393 . S
C2308 H2297 0.950 . S
C2308 C2306 1.371 1_565 S
C2308 C2309 1.400 . S
C2309 C2303 1.491 . S
C2309 C2308 1.400 . S
C2309 C2310 1.398 1_565 S
C2310 H2298 0.950 . S
C2310 C2309 1.398 1_545 S
C2310 C2311 1.391 . S
C2311 H2299 0.950 . S
C2311 C2307 1.393 . S
C2311 C2310 1.391 . S
H2312 C2320 0.950 . S
H2313 C2325 0.950 . S
H2314 C2322 0.950 . S
H2315 C2324 0.950 . S
H2316 C2326 0.950 . S
H2317 C2328 0.950 . S
H2318 C2330 0.950 . S
H2319 C2331 0.950 . S
C2320 H2312 0.950 . S
C2320 C2321 1.386 . S
C2320 C2322 1.391 . S
C2321 C2320 1.386 . S
C2321 C2325 1.393 . S
C2322 H2314 0.950 . S
C2322 C2320 1.391 . S
C2322 C2323 1.400 . S
C2323 C2322 1.400 . S
C2323 C2324 1.398 . S
C2323 C2329 1.491 . S
C2324 H2315 0.950 . S
C2324 C2323 1.398 . S
C2324 C2325 1.391 . S
C2325 H2313 0.950 . S
C2325 C2321 1.393 . S
C2325 C2324 1.391 . S
C2326 H2316 0.950 . S
C2326 C2327 1.386 . S
C2326 C2328 1.391 . S
C2327 C2326 1.386 . S
C2327 C2331 1.393 . S
C2328 H2317 0.950 . S
C2328 C2326 1.391 . S
C2328 C2329 1.400 . S
C2329 C2323 1.491 . S
C2329 C2328 1.400 . S
C2329 C2330 1.398 . S
C2330 H2318 0.950 . S
C2330 C2329 1.398 . S
C2330 C2331 1.391 . S
C2331 H2319 0.950 . S
C2331 C2327 1.393 . S
C2331 C2330 1.391 . S
H2332 C2340 0.950 1_556 S
H2333 C2345 0.950 . S
H2334 C2342 0.950 . S
H2335 C2344 0.950 . S
H2336 C2346 0.950 . S
H2337 C2348 0.950 . S
H2338 C2350 0.950 . S
H2339 C2351 0.950 . S
C2340 H2332 0.950 1_554 S
C2340 C2341 1.386 . S
C2340 C2342 1.391 . S
C2341 C2340 1.386 . S
C2341 C2345 1.393 . S
C2342 H2334 0.950 . S
C2342 C2340 1.391 . S
C2342 C2343 1.400 . S
C2343 C2342 1.400 . S
C2343 C2344 1.398 . S
C2343 C2349 1.491 . S
C2344 H2335 0.950 . S
C2344 C2343 1.398 . S
C2344 C2345 1.391 . S
C2345 H2333 0.950 . S
C2345 C2341 1.393 . S
C2345 C2344 1.391 . S
C2346 H2336 0.950 . S
C2346 C2347 1.386 . S
C2346 C2348 1.391 . S
C2347 C2346 1.386 . S
C2347 C2351 1.393 . S
C2348 H2337 0.950 . S
C2348 C2346 1.391 . S
C2348 C2349 1.400 . S
C2349 C2343 1.491 . S
C2349 C2348 1.400 . S
C2349 C2350 1.398 . S
C2350 H2338 0.950 . S
C2350 C2349 1.398 . S
C2350 C2351 1.391 . S
C2351 H2339 0.950 . S
C2351 C2347 1.393 . S
C2351 C2350 1.391 . S
H2352 C2360 0.950 . S
H2353 C2365 0.950 . S
H2354 C2362 0.950 . S
H2355 C2364 0.950 . S
H2356 C2366 0.950 . S
H2357 C2368 0.950 . S
H2358 C2370 0.950 . S
H2359 C2371 0.950 . S
C2360 H2352 0.950 . S
C2360 C2361 1.386 . S
C2360 C2362 1.391 . S
C2361 C2360 1.386 . S
C2361 C2365 1.393 . S
C2362 H2354 0.950 . S
C2362 C2360 1.391 . S
C2362 C2363 1.400 . S
C2363 C2362 1.400 . S
C2363 C2364 1.398 . S
C2363 C2369 1.491 . S
C2364 H2355 0.950 . S
C2364 C2363 1.398 . S
C2364 C2365 1.391 . S
C2365 H2353 0.950 . S
C2365 C2361 1.393 . S
C2365 C2364 1.391 . S
C2366 H2356 0.950 . S
C2366 C2367 1.386 . S
C2366 C2368 1.391 . S
C2367 C2366 1.386 . S
C2367 C2371 1.393 . S
C2368 H2357 0.950 . S
C2368 C2366 1.391 . S
C2368 C2369 1.400 . S
C2369 C2363 1.491 . S
C2369 C2368 1.400 . S
C2369 C2370 1.398 . S
C2370 H2358 0.950 . S
C2370 C2369 1.398 . S
C2370 C2371 1.391 . S
C2371 H2359 0.950 . S
C2371 C2367 1.393 . S
C2371 C2370 1.391 . S
H2372 C2380 0.950 . S
H2373 C2385 0.950 . S
H2374 C2382 0.950 . S
H2375 C2384 0.950 . S
H2376 C2386 0.950 . S
H2377 C2388 0.950 . S
H2378 C2390 0.954 1_545 S
H2379 C2391 0.950 . S
C2380 H2372 0.950 . S
C2380 C2381 1.386 . S
C2380 C2382 1.391 . S
C2381 C2380 1.386 . S
C2381 C2385 1.393 . S
C2382 H2374 0.950 . S
C2382 C2380 1.391 . S
C2382 C2383 1.400 . S
C2383 C2382 1.400 . S
C2383 C2384 1.398 . S
C2383 C2389 1.491 . S
C2384 H2375 0.950 . S
C2384 C2383 1.398 . S
C2384 C2385 1.391 . S
C2385 H2373 0.950 . S
C2385 C2381 1.393 . S
C2385 C2384 1.391 . S
C2386 H2376 0.950 . S
C2386 C2387 1.386 . S
C2386 C2388 1.391 1_565 S
C2387 C2386 1.386 . S
C2387 C2391 1.393 . S
C2388 H2377 0.950 . S
C2388 C2386 1.391 1_545 S
C2388 C2389 1.400 . S
C2389 C2383 1.491 . S
C2389 C2388 1.400 . S
C2389 C2390 1.398 1_545 S
C2390 H2378 0.954 1_565 S
C2390 C2389 1.398 1_565 S
C2390 C2391 1.391 . S
C2391 H2379 0.950 . S
C2391 C2387 1.393 . S
C2391 C2390 1.391 . S
H2392 C2400 0.950 . S
H2393 C2405 0.950 . S
H2394 C2402 0.950 . S
H2395 C2404 0.950 . S
H2396 C2406 0.950 . S
H2397 C2408 0.950 . S
H2398 C2410 0.950 . S
H2399 C2411 0.950 . S
C2400 H2392 0.950 . S
C2400 C2401 1.386 . S
C2400 C2402 1.391 . S
C2401 C2400 1.386 . S
C2401 C2405 1.393 . S
C2402 H2394 0.950 . S
C2402 C2400 1.391 . S
C2402 C2403 1.400 . S
C2403 C2402 1.400 . S
C2403 C2404 1.398 . S
C2403 C2409 1.491 . S
C2404 H2395 0.950 . S
C2404 C2403 1.398 . S
C2404 C2405 1.391 . S
C2405 H2393 0.950 . S
C2405 C2401 1.393 . S
C2405 C2404 1.391 . S
C2406 H2396 0.950 . S
C2406 C2407 1.386 . S
C2406 C2408 1.391 . S
C2407 C2406 1.386 . S
C2407 C2411 1.393 . S
C2408 H2397 0.950 . S
C2408 C2406 1.391 . S
C2408 C2409 1.400 . S
C2409 C2403 1.491 . S
C2409 C2408 1.400 . S
C2409 C2410 1.398 . S
C2410 H2398 0.950 . S
C2410 C2409 1.398 . S
C2410 C2411 1.391 . S
C2411 H2399 0.950 . S
C2411 C2407 1.393 . S
C2411 C2410 1.391 . S
H2412 C2420 0.950 . S
H2413 C2425 0.950 . S
H2414 C2422 0.950 . S
H2415 C2424 0.950 . S
H2416 C2426 0.950 . S
H2417 C2428 0.950 . S
H2418 C2430 0.950 . S
H2419 C2431 0.950 . S
C2420 H2412 0.950 . S
C2420 C2421 1.386 . S
C2420 C2422 1.391 . S
C2421 C2420 1.386 . S
C2421 C2425 1.393 . S
C2422 H2414 0.950 . S
C2422 C2420 1.391 . S
C2422 C2423 1.400 . S
C2423 C2422 1.400 . S
C2423 C2424 1.398 . S
C2423 C2429 1.491 . S
C2424 H2415 0.950 . S
C2424 C2423 1.398 . S
C2424 C2425 1.391 . S
C2425 H2413 0.950 . S
C2425 C2421 1.393 . S
C2425 C2424 1.391 . S
C2426 H2416 0.950 . S
C2426 C2427 1.386 . S
C2426 C2428 1.391 . S
C2427 C2426 1.386 . S
C2427 C2431 1.393 . S
C2428 H2417 0.950 . S
C2428 C2426 1.391 . S
C2428 C2429 1.400 . S
C2429 C2423 1.491 . S
C2429 C2428 1.400 . S
C2429 C2430 1.398 . S
C2430 H2418 0.950 . S
C2430 C2429 1.398 . S
C2430 C2431 1.391 . S
C2431 H2419 0.950 . S
C2431 C2427 1.393 . S
C2431 C2430 1.391 . S
H2432 C2440 0.950 . S
H2433 C2445 0.950 . S
H2434 C2442 0.950 . S
H2435 C2444 0.950 . S
H2436 C2446 0.950 . S
H2437 C2448 0.950 . S
H2438 C2450 0.950 . S
H2439 C2451 0.950 . S
C2440 H2432 0.950 . S
C2440 C2441 1.386 . S
C2440 C2442 1.391 . S
C2441 C2440 1.386 . S
C2441 C2445 1.393 1_455 S
C2442 H2434 0.950 . S
C2442 C2440 1.391 . S
C2442 C2443 1.400 . S
C2443 C2442 1.400 . S
C2443 C2444 1.398 1_455 S
C2443 C2449 1.491 . S
C2444 H2435 0.950 . S
C2444 C2443 1.398 1_655 S
C2444 C2445 1.391 . S
C2445 H2433 0.950 . S
C2445 C2441 1.393 1_655 S
C2445 C2444 1.391 . S
C2446 H2436 0.950 . S
C2446 C2447 1.386 1_655 S
C2446 C2448 1.391 . S
C2447 C2446 1.386 1_455 S
C2447 C2451 1.393 . S
C2448 H2437 0.950 . S
C2448 C2446 1.391 . S
C2448 C2449 1.400 1_655 S
C2449 C2443 1.491 . S
C2449 C2448 1.400 1_455 S
C2449 C2450 1.398 . S
C2450 H2438 0.950 . S
C2450 C2449 1.398 . S
C2450 C2451 1.391 . S
C2451 H2439 0.950 . S
C2451 C2447 1.393 . S
C2451 C2450 1.391 . S
H2452 C2460 0.950 . S
H2453 C2465 0.950 . S
H2454 C2462 0.950 . S
H2455 C2464 0.950 . S
H2456 C2466 0.950 . S
H2457 C2468 0.950 . S
H2458 C2470 0.950 . S
H2459 C2471 0.950 . S
C2460 H2452 0.950 . S
C2460 C2461 1.386 . S
C2460 C2462 1.391 . S
C2461 C2460 1.386 . S
C2461 C2465 1.393 . S
C2462 H2454 0.950 . S
C2462 C2460 1.391 . S
C2462 C2463 1.400 . S
C2463 C2462 1.400 . S
C2463 C2464 1.398 . S
C2463 C2469 1.491 . S
C2464 H2455 0.950 . S
C2464 C2463 1.398 . S
C2464 C2465 1.391 . S
C2465 H2453 0.950 . S
C2465 C2461 1.393 . S
C2465 C2464 1.391 . S
C2466 H2456 0.950 . S
C2466 C2467 1.386 . S
C2466 C2468 1.391 . S
C2467 C2466 1.386 . S
C2467 C2471 1.393 . S
C2468 H2457 0.950 . S
C2468 C2466 1.391 . S
C2468 C2469 1.400 . S
C2469 C2463 1.491 . S
C2469 C2468 1.400 . S
C2469 C2470 1.398 . S
C2470 H2458 0.950 . S
C2470 C2469 1.398 . S
C2470 C2471 1.391 . S
C2471 H2459 0.950 . S
C2471 C2467 1.393 . S
C2471 C2470 1.391 . S
H2472 C2480 0.950 1_556 S
H2473 C2485 0.950 . S
H2474 C2482 0.950 1_556 S
H2475 C2484 0.950 . S
H2476 C2486 0.950 . S
H2477 C2488 0.950 . S
H2478 C2490 0.971 . S
H2479 C2491 0.950 . S
C2480 H2472 0.950 1_554 S
C2480 C2481 1.386 . S
C2480 C2482 1.391 . S
C2481 C2480 1.386 . S
C2481 C2485 1.393 . S
C2482 H2474 0.950 1_554 S
C2482 C2480 1.391 . S
C2482 C2483 1.400 . S
C2483 C2482 1.400 . S
C2483 C2484 1.398 . S
C2483 C2489 1.491 . S
C2484 H2475 0.950 . S
C2484 C2483 1.398 . S
C2484 C2485 1.391 . S
C2485 H2473 0.950 . S
C2485 C2481 1.393 . S
C2485 C2484 1.391 . S
C2486 H2476 0.950 . S
C2486 C2487 1.386 . S
C2486 C2488 1.391 . S
C2487 C2486 1.386 . S
C2487 C2491 1.393 . S
C2488 H2477 0.950 . S
C2488 C2486 1.391 . S
C2488 C2489 1.400 . S
C2489 C2483 1.491 . S
C2489 C2488 1.400 . S
C2489 C2490 1.398 . S
C2490 H2478 0.971 . S
C2490 C2489 1.398 . S
C2490 C2491 1.391 . S
C2491 H2479 0.950 . S
C2491 C2487 1.393 . S
C2491 C2490 1.391 . S
H2492 C2500 0.950 . S
H2493 C2505 0.950 . S
H2494 C2502 0.950 . S
H2495 C2504 0.950 . S
H2496 C2506 0.950 . S
H2497 C2508 0.950 . S
H2498 C2510 0.950 . S
H2499 C2511 0.950 . S
C2500 H2492 0.950 . S
C2500 C2501 1.386 . S
C2500 C2502 1.391 . S
C2501 C2500 1.386 . S
C2501 C2505 1.393 . S
C2502 H2494 0.950 . S
C2502 C2500 1.391 . S
C2502 C2503 1.400 . S
C2503 C2502 1.400 . S
C2503 C2504 1.398 . S
C2503 C2509 1.491 . S
C2504 H2495 0.950 . S
C2504 C2503 1.398 . S
C2504 C2505 1.391 . S
C2505 H2493 0.950 . S
C2505 C2501 1.393 . S
C2505 C2504 1.391 . S
C2506 H2496 0.950 . S
C2506 C2507 1.386 . S
C2506 C2508 1.391 . S
C2507 C2506 1.386 . S
C2507 C2511 1.393 . S
C2508 H2497 0.950 . S
C2508 C2506 1.391 . S
C2508 C2509 1.400 . S
C2509 C2503 1.491 . S
C2509 C2508 1.400 . S
C2509 C2510 1.398 . S
C2510 H2498 0.950 . S
C2510 C2509 1.398 . S
C2510 C2511 1.391 . S
C2511 H2499 0.950 . S
C2511 C2507 1.393 . S
C2511 C2510 1.391 . S
H2512 C2520 0.950 . S
H2513 C2525 0.950 . S
H2514 C2522 0.950 . S
H2515 C2524 0.950 . S
H2516 C2526 0.963 . S
H2517 C2528 0.950 . S
H2518 C2530 0.950 . S
H2519 C2531 0.950 . S
C2520 H2512 0.950 . S
C2520 C2521 1.386 . S
C2520 C2522 1.391 . S
C2521 C2520 1.386 . S
C2521 C2525 1.393 . S
C2522 H2514 0.950 . S
C2522 C2520 1.391 . S
C2522 C2523 1.400 . S
C2523 C2522 1.400 . S
C2523 C2524 1.398 . S
C2523 C2529 1.491 . S
C2524 H2515 0.950 . S
C2524 C2523 1.398 . S
C2524 C2525 1.391 . S
C2525 H2513 0.950 . S
C2525 C2521 1.393 . S
C2525 C2524 1.391 . S
C2526 H2516 0.963 . S
C2526 C2527 1.386 . S
C2526 C2528 1.391 . S
C2527 C2526 1.386 . S
C2527 C2531 1.393 . S
C2528 H2517 0.950 . S
C2528 C2526 1.391 . S
C2528 C2529 1.400 . S
C2529 C2523 1.491 . S
C2529 C2528 1.400 . S
C2529 C2530 1.398 . S
C2530 H2518 0.950 . S
C2530 C2529 1.398 . S
C2530 C2531 1.391 . S
C2531 H2519 0.950 . S
C2531 C2527 1.393 . S
C2531 C2530 1.391 . S
H2532 C2540 0.950 . S
H2533 C2545 0.950 . S
H2534 C2542 0.950 . S
H2535 C2544 0.950 . S
H2536 C2546 0.950 . S
H2537 C2548 0.950 . S
H2538 C2550 0.950 . S
H2539 C2551 0.950 . S
C2540 H2532 0.950 . S
C2540 C2541 1.386 . S
C2540 C2542 1.391 . S
C2541 C2540 1.386 . S
C2541 C2545 1.393 . S
C2542 H2534 0.950 . S
C2542 C2540 1.391 . S
C2542 C2543 1.400 . S
C2543 C2542 1.400 . S
C2543 C2544 1.398 . S
C2543 C2549 1.491 . S
C2544 H2535 0.950 . S
C2544 C2543 1.398 . S
C2544 C2545 1.391 . S
C2545 H2533 0.950 . S
C2545 C2541 1.393 . S
C2545 C2544 1.391 . S
C2546 H2536 0.950 . S
C2546 C2547 1.386 . S
C2546 C2548 1.391 . S
C2547 C2546 1.386 . S
C2547 C2551 1.393 . S
C2548 H2537 0.950 . S
C2548 C2546 1.391 . S
C2548 C2549 1.400 . S
C2549 C2543 1.491 . S
C2549 C2548 1.400 . S
C2549 C2550 1.398 . S
C2550 H2538 0.950 . S
C2550 C2549 1.398 . S
C2550 C2551 1.391 . S
C2551 H2539 0.950 . S
C2551 C2547 1.393 . S
C2551 C2550 1.391 . S
H2552 C2560 0.950 . S
H2553 C2565 0.950 . S
H2554 C2562 0.950 . S
H2555 C2564 0.950 . S
H2556 C2566 0.950 . S
H2557 C2568 0.950 . S
H2558 C2570 0.950 . S
H2559 C2571 0.950 . S
C2560 H2552 0.950 . S
C2560 C2561 1.386 . S
C2560 C2562 1.391 . S
C2561 C2560 1.386 . S
C2561 C2565 1.393 . S
C2562 H2554 0.950 . S
C2562 C2560 1.391 . S
C2562 C2563 1.400 . S
C2563 C2562 1.400 . S
C2563 C2564 1.398 . S
C2563 C2569 1.491 . S
C2564 H2555 0.950 . S
C2564 C2563 1.398 . S
C2564 C2565 1.391 . S
C2565 H2553 0.950 . S
C2565 C2561 1.393 . S
C2565 C2564 1.391 . S
C2566 H2556 0.950 . S
C2566 C2567 1.386 . S
C2566 C2568 1.391 . S
C2567 C2566 1.386 . S
C2567 C2571 1.393 . S
C2568 H2557 0.950 . S
C2568 C2566 1.391 . S
C2568 C2569 1.400 . S
C2569 C2563 1.491 . S
C2569 C2568 1.400 . S
C2569 C2570 1.398 . S
C2570 H2558 0.950 . S
C2570 C2569 1.398 . S
C2570 C2571 1.391 . S
C2571 H2559 0.950 . S
C2571 C2567 1.393 . S
C2571 C2570 1.391 . S
H2572 C2580 0.950 . S
H2573 C2585 0.950 . S
H2574 C2582 0.950 . S
H2575 C2584 0.950 . S
H2576 C2586 0.950 . S
H2577 C2588 0.950 . S
H2578 C2590 0.950 . S
H2579 C2591 0.950 . S
C2580 H2572 0.950 . S
C2580 C2581 1.386 . S
C2580 C2582 1.391 . S
C2581 C2580 1.386 . S
C2581 C2585 1.393 . S
C2582 H2574 0.950 . S
C2582 C2580 1.391 . S
C2582 C2583 1.400 . S
C2583 C2582 1.400 . S
C2583 C2584 1.398 . S
C2583 C2589 1.491 . S
C2584 H2575 0.950 . S
C2584 C2583 1.398 . S
C2584 C2585 1.391 . S
C2585 H2573 0.950 . S
C2585 C2581 1.393 . S
C2585 C2584 1.391 . S
C2586 H2576 0.950 . S
C2586 C2587 1.386 . S
C2586 C2588 1.391 . S
C2587 C2586 1.386 . S
C2587 C2591 1.393 . S
C2588 H2577 0.950 . S
C2588 C2586 1.391 . S
C2588 C2589 1.400 . S
C2589 C2583 1.491 . S
C2589 C2588 1.400 . S
C2589 C2590 1.398 . S
C2590 H2578 0.950 . S
C2590 C2589 1.398 . S
C2590 C2591 1.391 . S
C2591 H2579 0.950 . S
C2591 C2587 1.393 . S
C2591 C2590 1.391 . S
H2592 C2600 0.950 . S
H2593 C2605 0.950 . S
H2594 C2602 0.950 . S
H2595 C2604 0.950 . S
H2596 C2606 0.950 1_554 S
H2597 C2608 0.950 . S
H2598 C2610 0.950 . S
H2599 C2611 0.950 . S
C2600 H2592 0.950 . S
C2600 C2601 1.386 . S
C2600 C2602 1.391 . S
C2601 C2600 1.386 . S
C2601 C2605 1.393 . S
C2602 H2594 0.950 . S
C2602 C2600 1.391 . S
C2602 C2603 1.400 . S
C2603 C2602 1.400 . S
C2603 C2604 1.398 . S
C2603 C2609 1.491 . S
C2604 H2595 0.950 . S
C2604 C2603 1.398 . S
C2604 C2605 1.391 . S
C2605 H2593 0.950 . S
C2605 C2601 1.393 . S
C2605 C2604 1.391 . S
C2606 H2596 0.950 1_556 S
C2606 C2607 1.386 . S
C2606 C2608 1.391 1_455 S
C2607 C2606 1.386 . S
C2607 C2611 1.393 1_455 S
C2608 H2597 0.950 . S
C2608 C2606 1.391 1_655 S
C2608 C2609 1.400 . S
C2609 C2603 1.491 . S
C2609 C2608 1.400 . S
C2609 C2610 1.398 . S
C2610 H2598 0.950 . S
C2610 C2609 1.398 . S
C2610 C2611 1.391 . S
C2611 H2599 0.950 . S
C2611 C2607 1.393 1_655 S
C2611 C2610 1.391 . S
H2612 C2620 0.950 . S
H2613 C2625 0.950 . S
H2614 C2622 0.950 . S
H2615 C2624 0.950 . S
H2616 C2626 0.950 . S
H2617 C2628 0.950 . S
H2618 C2630 0.950 . S
H2619 C2631 0.950 . S
C2620 H2612 0.950 . S
C2620 C2621 1.386 . S
C2620 C2622 1.391 . S
C2621 C2620 1.386 . S
C2621 C2625 1.393 . S
C2622 H2614 0.950 . S
C2622 C2620 1.391 . S
C2622 C2623 1.400 . S
C2623 C2622 1.400 . S
C2623 C2624 1.398 . S
C2623 C2629 1.491 . S
C2624 H2615 0.950 . S
C2624 C2623 1.398 . S
C2624 C2625 1.391 . S
C2625 H2613 0.950 . S
C2625 C2621 1.393 . S
C2625 C2624 1.391 . S
C2626 H2616 0.950 . S
C2626 C2627 1.386 . S
C2626 C2628 1.391 . S
C2627 C2626 1.386 . S
C2627 C2631 1.393 . S
C2628 H2617 0.950 . S
C2628 C2626 1.391 . S
C2628 C2629 1.400 . S
C2629 C2623 1.491 . S
C2629 C2628 1.400 . S
C2629 C2630 1.398 . S
C2630 H2618 0.950 . S
C2630 C2629 1.398 . S
C2630 C2631 1.391 . S
C2631 H2619 0.950 . S
C2631 C2627 1.393 . S
C2631 C2630 1.391 . S
H2632 C2640 0.950 . S
H2633 C2645 0.950 . S
H2634 C2642 0.950 . S
H2635 C2644 0.950 . S
H2636 C2646 0.950 . S
H2637 C2648 0.950 . S
H2638 C2650 0.950 . S
H2639 C2651 0.950 . S
C2640 H2632 0.950 . S
C2640 C2641 1.386 . S
C2640 C2642 1.391 . S
C2641 C2640 1.386 . S
C2641 C2645 1.393 . S
C2642 H2634 0.950 . S
C2642 C2640 1.391 . S
C2642 C2643 1.400 . S
C2643 C2642 1.400 . S
C2643 C2644 1.398 . S
C2643 C2649 1.491 . S
C2644 H2635 0.950 . S
C2644 C2643 1.398 . S
C2644 C2645 1.391 . S
C2645 H2633 0.950 . S
C2645 C2641 1.393 . S
C2645 C2644 1.391 . S
C2646 H2636 0.950 . S
C2646 C2647 1.386 . S
C2646 C2648 1.391 . S
C2647 C2646 1.386 . S
C2647 C2651 1.393 . S
C2648 H2637 0.950 . S
C2648 C2646 1.391 . S
C2648 C2649 1.400 . S
C2649 C2643 1.491 . S
C2649 C2648 1.400 . S
C2649 C2650 1.398 . S
C2650 H2638 0.950 . S
C2650 C2649 1.398 . S
C2650 C2651 1.391 . S
C2651 H2639 0.950 . S
C2651 C2647 1.393 . S
C2651 C2650 1.391 . S
H2652 C2660 0.950 . S
H2653 C2665 0.967 . S
H2654 C2662 0.950 . S
H2655 C2664 0.950 . S
H2656 C2666 0.950 . S
H2657 C2668 0.950 . S
H2658 C2670 0.950 . S
H2659 C2671 0.950 . S
C2660 H2652 0.950 . S
C2660 C2661 1.386 1_556 S
C2660 C2662 1.391 . S
C2661 C2660 1.386 1_554 S
C2661 C2665 1.404 . S
C2662 H2654 0.950 . S
C2662 C2660 1.391 . S
C2662 C2663 1.400 . S
C2663 C2662 1.400 . S
C2663 C2664 1.398 . S
C2663 C2669 1.491 . S
C2664 H2655 0.950 . S
C2664 C2663 1.398 . S
C2664 C2665 1.363 1_556 S
C2665 H2653 0.967 . S
C2665 C2661 1.404 . S
C2665 C2664 1.363 1_554 S
C2666 H2656 0.950 . S
C2666 C2667 1.386 . S
C2666 C2668 1.391 . S
C2667 C2666 1.386 . S
C2667 C2671 1.393 . S
C2668 H2657 0.950 . S
C2668 C2666 1.391 . S
C2668 C2669 1.400 . S
C2669 C2663 1.491 . S
C2669 C2668 1.400 . S
C2669 C2670 1.398 . S
C2670 H2658 0.950 . S
C2670 C2669 1.398 . S
C2670 C2671 1.391 . S
C2671 H2659 0.950 . S
C2671 C2667 1.393 . S
C2671 C2670 1.391 . S
H2672 C2680 0.950 . S
H2673 C2685 0.950 . S
H2674 C2682 0.950 . S
H2675 C2684 0.950 . S
H2676 C2686 0.950 . S
H2677 C2688 0.950 . S
H2678 C2690 0.950 1_455 S
H2679 C2691 0.950 . S
C2680 H2672 0.950 . S
C2680 C2681 1.386 . S
C2680 C2682 1.391 . S
C2681 C2680 1.386 . S
C2681 C2685 1.393 . S
C2682 H2674 0.950 . S
C2682 C2680 1.391 . S
C2682 C2683 1.400 . S
C2683 C2682 1.400 . S
C2683 C2684 1.398 . S
C2683 C2689 1.491 . S
C2684 H2675 0.950 . S
C2684 C2683 1.398 . S
C2684 C2685 1.391 . S
C2685 H2673 0.950 . S
C2685 C2681 1.393 . S
C2685 C2684 1.391 . S
C2686 H2676 0.950 . S
C2686 C2687 1.386 . S
C2686 C2688 1.391 . S
C2687 C2686 1.386 . S
C2687 C2691 1.393 1_655 S
C2688 H2677 0.950 . S
C2688 C2686 1.391 . S
C2688 C2689 1.400 . S
C2689 C2683 1.491 . S
C2689 C2688 1.400 . S
C2689 C2690 1.398 . S
C2690 H2678 0.950 1_655 S
C2690 C2689 1.398 . S
C2690 C2691 1.391 1_655 S
C2691 H2679 0.950 . S
C2691 C2687 1.393 1_455 S
C2691 C2690 1.391 1_455 S
H2692 C2700 0.950 . S
H2693 C2705 0.950 . S
H2694 C2702 0.950 . S
H2695 C2704 0.950 . S
H2696 C2706 0.950 . S
H2697 C2708 0.950 . S
H2698 C2710 0.950 . S
H2699 C2711 0.950 . S
C2700 H2692 0.950 . S
C2700 C2701 1.386 . S
C2700 C2702 1.391 . S
C2701 C2700 1.386 . S
C2701 C2705 1.393 . S
C2702 H2694 0.950 . S
C2702 C2700 1.391 . S
C2702 C2703 1.400 . S
C2703 C2702 1.400 . S
C2703 C2704 1.398 . S
C2703 C2709 1.491 . S
C2704 H2695 0.950 . S
C2704 C2703 1.398 . S
C2704 C2705 1.391 . S
C2705 H2693 0.950 . S
C2705 C2701 1.393 . S
C2705 C2704 1.391 . S
C2706 H2696 0.950 . S
C2706 C2707 1.386 . S
C2706 C2708 1.391 . S
C2707 C2706 1.386 . S
C2707 C2711 1.393 . S
C2708 H2697 0.950 . S
C2708 C2706 1.391 . S
C2708 C2709 1.400 . S
C2709 C2703 1.491 . S
C2709 C2708 1.400 . S
C2709 C2710 1.398 . S
C2710 H2698 0.950 . S
C2710 C2709 1.398 . S
C2710 C2711 1.391 . S
C2711 H2699 0.950 . S
C2711 C2707 1.393 . S
C2711 C2710 1.391 . S
H2712 C2720 0.950 . S
H2713 C2725 0.950 . S
H2714 C2722 0.950 . S
H2715 C2724 0.950 . S
H2716 C2726 0.950 . S
H2717 C2728 0.950 . S
H2718 C2730 0.950 . S
H2719 C2731 0.950 . S
C2720 H2712 0.950 . S
C2720 C2721 1.386 . S
C2720 C2722 1.391 . S
C2721 C2720 1.386 . S
C2721 C2725 1.393 . S
C2722 H2714 0.950 . S
C2722 C2720 1.391 . S
C2722 C2723 1.400 . S
C2723 C2722 1.400 . S
C2723 C2724 1.398 . S
C2723 C2729 1.491 . S
C2724 H2715 0.950 . S
C2724 C2723 1.398 . S
C2724 C2725 1.391 . S
C2725 H2713 0.950 . S
C2725 C2721 1.393 . S
C2725 C2724 1.391 . S
C2726 H2716 0.950 . S
C2726 C2727 1.386 . S
C2726 C2728 1.391 . S
C2727 C2726 1.386 . S
C2727 C2731 1.393 . S
C2728 H2717 0.950 . S
C2728 C2726 1.391 . S
C2728 C2729 1.400 . S
C2729 C2723 1.491 . S
C2729 C2728 1.400 . S
C2729 C2730 1.398 . S
C2730 H2718 0.950 . S
C2730 C2729 1.398 . S
C2730 C2731 1.391 . S
C2731 H2719 0.950 . S
C2731 C2727 1.393 . S
C2731 C2730 1.391 . S
H2732 C2740 0.950 . S
H2733 C2745 0.950 . S
H2734 C2742 0.950 1_565 S
H2735 C2744 0.950 . S
H2736 C2746 0.950 . S
H2737 C2748 0.950 . S
H2738 C2750 0.950 . S
H2739 C2751 0.950 . S
C2740 H2732 0.950 . S
C2740 C2741 1.386 1_565 S
C2740 C2742 1.391 1_565 S
C2741 C2740 1.386 1_545 S
C2741 C2745 1.393 . S
C2742 H2734 0.950 1_545 S
C2742 C2740 1.391 1_545 S
C2742 C2743 1.400 . S
C2743 C2742 1.400 . S
C2743 C2744 1.398 . S
C2743 C2749 1.491 . S
C2744 H2735 0.950 . S
C2744 C2743 1.398 . S
C2744 C2745 1.391 . S
C2745 H2733 0.950 . S
C2745 C2741 1.393 . S
C2745 C2744 1.391 . S
C2746 H2736 0.950 . S
C2746 C2747 1.386 . S
C2746 C2748 1.391 . S
C2747 C2746 1.386 . S
C2747 C2751 1.393 . S
C2748 H2737 0.950 . S
C2748 C2746 1.391 . S
C2748 C2749 1.400 . S
C2749 C2743 1.491 . S
C2749 C2748 1.400 . S
C2749 C2750 1.398 . S
C2750 H2738 0.950 . S
C2750 C2749 1.398 . S
C2750 C2751 1.391 . S
C2751 H2739 0.950 . S
C2751 C2747 1.393 . S
C2751 C2750 1.391 . S
H2752 C2760 0.950 . S
H2753 C2765 0.950 . S
H2754 C2762 0.950 . S
H2755 C2764 0.950 . S
H2756 C2766 0.950 . S
H2757 C2768 0.950 . S
H2758 C2770 0.950 . S
H2759 C2771 0.950 . S
C2760 H2752 0.950 . S
C2760 C2761 1.386 . S
C2760 C2762 1.391 . S
C2761 C2760 1.386 . S
C2761 C2765 1.393 . S
C2762 H2754 0.950 . S
C2762 C2760 1.391 . S
C2762 C2763 1.400 . S
C2763 C2762 1.400 . S
C2763 C2764 1.398 . S
C2763 C2769 1.491 . S
C2764 H2755 0.950 . S
C2764 C2763 1.398 . S
C2764 C2765 1.391 . S
C2765 H2753 0.950 . S
C2765 C2761 1.393 . S
C2765 C2764 1.391 . S
C2766 H2756 0.950 . S
C2766 C2767 1.386 . S
C2766 C2768 1.391 . S
C2767 C2766 1.386 . S
C2767 C2771 1.393 . S
C2768 H2757 0.950 . S
C2768 C2766 1.391 . S
C2768 C2769 1.400 . S
C2769 C2763 1.491 . S
C2769 C2768 1.400 . S
C2769 C2770 1.398 . S
C2770 H2758 0.950 . S
C2770 C2769 1.398 . S
C2770 C2771 1.391 . S
C2771 H2759 0.950 . S
C2771 C2767 1.393 . S
C2771 C2770 1.391 . S
H2772 C2780 0.950 . S
H2773 C2785 0.950 . S
H2774 C2782 0.950 . S
H2775 C2784 0.950 . S
H2776 C2786 0.950 . S
H2777 C2788 0.950 . S
H2778 C2790 0.950 . S
H2779 C2791 0.950 . S
C2780 H2772 0.950 . S
C2780 C2781 1.386 . S
C2780 C2782 1.391 . S
C2781 C2780 1.386 . S
C2781 C2785 1.393 . S
C2782 H2774 0.950 . S
C2782 C2780 1.391 . S
C2782 C2783 1.400 . S
C2783 C2782 1.400 . S
C2783 C2784 1.398 . S
C2783 C2789 1.491 . S
C2784 H2775 0.950 . S
C2784 C2783 1.398 . S
C2784 C2785 1.391 . S
C2785 H2773 0.950 . S
C2785 C2781 1.393 . S
C2785 C2784 1.391 . S
C2786 H2776 0.950 . S
C2786 C2787 1.386 . S
C2786 C2788 1.391 . S
C2787 C2786 1.386 . S
C2787 C2791 1.393 . S
C2788 H2777 0.950 . S
C2788 C2786 1.391 . S
C2788 C2789 1.400 . S
C2789 C2783 1.491 . S
C2789 C2788 1.400 . S
C2789 C2790 1.398 . S
C2790 H2778 0.950 . S
C2790 C2789 1.398 . S
C2790 C2791 1.391 . S
C2791 H2779 0.950 . S
C2791 C2787 1.393 . S
C2791 C2790 1.391 . S
H2792 C2800 0.950 . S
H2793 C2805 0.950 . S
H2794 C2802 0.950 . S
H2795 C2804 0.950 . S
H2796 C2806 0.950 . S
H2797 C2808 0.950 . S
H2798 C2810 0.950 . S
H2799 C2811 0.950 . S
C2800 H2792 0.950 . S
C2800 C2801 1.386 . S
C2800 C2802 1.391 . S
C2801 C2800 1.386 . S
C2801 C2805 1.393 . S
C2802 H2794 0.950 . S
C2802 C2800 1.391 . S
C2802 C2803 1.400 . S
C2803 C2802 1.400 . S
C2803 C2804 1.398 . S
C2803 C2809 1.491 . S
C2804 H2795 0.950 . S
C2804 C2803 1.398 . S
C2804 C2805 1.391 . S
C2805 H2793 0.950 . S
C2805 C2801 1.393 . S
C2805 C2804 1.391 . S
C2806 H2796 0.950 . S
C2806 C2807 1.386 . S
C2806 C2808 1.391 . S
C2807 C2806 1.386 . S
C2807 C2811 1.393 . S
C2808 H2797 0.950 . S
C2808 C2806 1.391 . S
C2808 C2809 1.400 . S
C2809 C2803 1.491 . S
C2809 C2808 1.400 . S
C2809 C2810 1.398 . S
C2810 H2798 0.950 . S
C2810 C2809 1.398 . S
C2810 C2811 1.391 . S
C2811 H2799 0.950 . S
C2811 C2807 1.393 . S
C2811 C2810 1.391 . S
H2812 C2820 0.950 . S
H2813 C2825 0.950 . S
H2814 C2822 0.950 . S
H2815 C2824 0.950 . S
H2816 C2826 0.950 . S
H2817 C2828 0.950 . S
H2818 C2830 0.950 . S
H2819 C2831 0.950 . S
C2820 H2812 0.950 . S
C2820 C2821 1.386 . S
C2820 C2822 1.391 . S
C2821 C2820 1.386 . S
C2821 C2825 1.393 . S
C2822 H2814 0.950 . S
C2822 C2820 1.391 . S
C2822 C2823 1.400 . S
C2823 C2822 1.400 . S
C2823 C2824 1.398 . S
C2823 C2829 1.491 . S
C2824 H2815 0.950 . S
C2824 C2823 1.398 . S
C2824 C2825 1.391 . S
C2825 H2813 0.950 . S
C2825 C2821 1.393 . S
C2825 C2824 1.391 . S
C2826 H2816 0.950 . S
C2826 C2827 1.386 . S
C2826 C2828 1.391 . S
C2827 C2826 1.386 . S
C2827 C2831 1.393 . S
C2828 H2817 0.950 . S
C2828 C2826 1.391 . S
C2828 C2829 1.400 . S
C2829 C2823 1.491 . S
C2829 C2828 1.400 . S
C2829 C2830 1.398 . S
C2830 H2818 0.950 . S
C2830 C2829 1.398 . S
C2830 C2831 1.391 . S
C2831 H2819 0.950 . S
C2831 C2827 1.393 . S
C2831 C2830 1.391 . S
H2832 C2840 0.950 . S
H2833 C2845 0.940 1_545 S
H2834 C2842 0.950 . S
H2835 C2844 0.950 . S
H2836 C2846 0.950 . S
H2837 C2848 0.950 . S
H2838 C2850 0.950 . S
H2839 C2851 0.950 . S
C2840 H2832 0.950 . S
C2840 C2841 1.386 1_565 S
C2840 C2842 1.391 . S
C2841 C2840 1.386 1_545 S
C2841 C2845 1.393 1_545 S
C2842 H2834 0.950 . S
C2842 C2840 1.391 . S
C2842 C2843 1.400 . S
C2843 C2842 1.400 . S
C2843 C2844 1.398 . S
C2843 C2849 1.491 . S
C2844 H2835 0.950 . S
C2844 C2843 1.398 . S
C2844 C2845 1.391 . S
C2845 H2833 0.940 1_565 S
C2845 C2841 1.393 1_565 S
C2845 C2844 1.391 . S
C2846 H2836 0.950 . S
C2846 C2847 1.386 . S
C2846 C2848 1.391 . S
C2847 C2846 1.386 . S
C2847 C2851 1.393 . S
C2848 H2837 0.950 . S
C2848 C2846 1.391 . S
C2848 C2849 1.400 . S
C2849 C2843 1.491 . S
C2849 C2848 1.400 . S
C2849 C2850 1.398 . S
C2850 H2838 0.950 . S
C2850 C2849 1.398 . S
C2850 C2851 1.391 . S
C2851 H2839 0.950 . S
C2851 C2847 1.393 . S
C2851 C2850 1.391 . S
H2852 C2860 0.950 . S
H2853 C2865 0.950 . S
H2854 C2862 0.950 . S
H2855 C2864 0.950 . S
H2856 C2866 0.950 . S
H2857 C2868 0.950 . S
H2858 C2870 0.950 . S
H2859 C2871 0.950 . S
C2860 H2852 0.950 . S
C2860 C2861 1.386 . S
C2860 C2862 1.391 . S
C2861 C2860 1.386 . S
C2861 C2865 1.393 . S
C2862 H2854 0.950 . S
C2862 C2860 1.391 . S
C2862 C2863 1.400 . S
C2863 C2862 1.400 . S
C2863 C2864 1.398 . S
C2863 C2869 1.491 . S
C2864 H2855 0.950 . S
C2864 C2863 1.398 . S
C2864 C2865 1.391 . S
C2865 H2853 0.950 . S
C2865 C2861 1.393 . S
C2865 C2864 1.391 . S
C2866 H2856 0.950 . S
C2866 C2867 1.386 . S
C2866 C2868 1.391 . S
C2867 C2866 1.386 . S
C2867 C2871 1.393 . S
C2868 H2857 0.950 . S
C2868 C2866 1.391 . S
C2868 C2869 1.400 . S
C2869 C2863 1.491 . S
C2869 C2868 1.400 . S
C2869 C2870 1.398 . S
C2870 H2858 0.950 . S
C2870 C2869 1.398 . S
C2870 C2871 1.391 . S
C2871 H2859 0.950 . S
C2871 C2867 1.393 . S
C2871 C2870 1.391 . S
C961 C101 1.481 . S
C967 C318 1.407 . S
C981 C57 2.018 . S
C987 C370 1.847 . S
C1001 C70 1.234 . S
C1007 C402 1.250 1_565 S
C1027 C451 2.395 . S
C1021 C82 2.395 . S
C1041 C23 0.953 . S
C1047 C487 0.916 . S
C1067 C518 0.448 . S
C1061 C29 0.408 . S
C1087 C570 0.562 . S
C1081 C49 0.296 . S
C1101 C10 2.050 . S
C1107 C598 1.931 . S
C1127 C330 1.895 . S
C1121 C218 2.079 . S
C1141 C226 1.595 . S
C1147 C371 1.611 . S
C1167 C401 1.708 . S
C1161 C251 1.878 . S
C1187 C438 0.531 . S
C1181 C159 0.482 . S
C1201 C211 1.763 . S
C1207 C482 1.771 1_655 S
C1227 C530 1.941 . S
C1221 C225 1.999 . S
C1247 C571 1.534 1_556 S
C1241 C252 1.525 . S
C1267 C610 1.865 . S
C1261 C166 2.053 . S
C1287 C331 2.281 . S
C1281 C147 2.265 . S
C1301 C263 1.499 . S
C1307 C641 1.423 . S
C1327 C691 2.328 . S
C1321 C309 2.321 . S
C1347 C718 0.947 . S
C1341 C291 0.958 . S
C1361 C108 2.707 . S
C1367 C611 2.684 . S
C1381 C121 1.242 . S
C1387 C407 1.157 . S
C1401 C302 2.470 . S
C1407 C770 2.348 . S
C1427 C798 1.110 . S
C1421 C276 1.157 . S
C1447 C327 1.304 . S
C1441 C55 1.341 . S
C1467 C801 2.024 . S
C1461 C96 2.164 . S
C1481 C88 1.583 . S
C1487 C411 1.580 . S
C1501 C75 2.830 . S
C1507 C762 2.820 . S
C1527 C478 1.164 . S
C1521 C4 1.187 . S
C1541 C44 0.618 . S
C1547 C687 0.621 . S
C1567 C561 0.487 . S
C1561 C31 0.564 . S
C1587 C847 1.141 . S
C1581 C18 1.180 . S
C1607 C321 2.080 . S
C1601 C133 2.218 . S
C1627 C802 1.919 . S
C1621 C296 1.895 . S
C1641 C107 2.211 . S
C1647 C410 2.084 . S
C1661 C264 0.750 . S
C1667 C767 0.746 . S
C1681 C140 2.097 . S
C1687 C491 2.102 . S
C1707 C681 2.070 . S
C1701 C289 2.095 . S
C1721 C114 1.895 . S
C1727 C562 1.909 . S
C1741 C265 1.762 . S
C1747 C841 1.657 . S
C1761 C179 2.471 . S
C1767 C322 2.483 1_655 S
C1781 C161 2.020 . S
C1787 C650 1.953 . S
C1801 C244 2.760 . S
C1807 C522 2.750 . S
C1821 C224 1.272 . S
C1827 C727 1.259 . S
C1847 C842 2.578 . S
C1841 C257 2.576 . S
C1861 C199 1.465 . S
C1867 C398 1.394 . S
C1887 C441 2.583 . S
C1881 C237 2.705 . S
C1907 C367 1.324 . S
C1901 C185 1.376 . S
C1921 C69 1.473 . S
C1927 C878 1.393 . S
C1947 C810 1.864 . S
C1941 C83 2.019 . S
C1961 C94 1.230 . S
C1967 C922 1.250 . S
C1981 C56 2.399 . S
C1987 C771 2.398 . S
C2001 C42 0.963 . S
C2007 C647 0.928 . S
C2027 C678 0.511 . S
C2021 C3 0.470 . S
C2047 C730 0.533 . S
C2041 C16 0.338 . S
C2067 C838 1.921 . S
C2061 C36 2.035 . S
C2087 C890 1.921 . S
C2081 C238 2.078 . S
C2101 C174 1.599 1_556 S
C2107 C811 1.612 . S
C2127 C921 1.722 . S
C2121 C186 1.892 . S
C2147 C758 0.577 . S
C2141 C198 0.533 . S
C2167 C642 1.784 1_556 S
C2161 C239 1.767 . S
C2181 C173 2.003 . S
C2187 C690 1.942 . S
C2207 C731 1.527 . S
C2201 C187 1.512 . S
C2221 C205 2.055 . S
C2227 C850 1.848 . S
C2247 C891 2.278 . S
C2241 C290 2.254 . S
C2261 C122 1.496 . S
C2267 C481 1.441 . S
C2287 C531 2.332 . S
C2281 C134 2.328 1_565 S
C2307 C558 0.977 . S
C2301 C148 0.981 . S
C2327 C851 2.674 . S
C2321 C283 2.695 . S
C2341 C270 1.244 . S
C2347 C927 1.163 . S
C2367 C450 2.348 . S
C2361 C135 2.467 . S
C2387 C358 1.110 . S
C2381 C109 1.156 . S
C2401 C81 1.337 . S
C2407 C887 1.285 . S
C2427 C361 2.029 . S
C2421 C68 2.161 . S
C2441 C62 1.581 . S
C2447 C931 1.585 . S
C2461 C95 2.826 . S
C2467 C442 2.818 . S
C2481 C30 1.194 . S
C2487 C638 1.174 . S
C2507 C527 0.637 . S
C2501 C17 0.620 . S
C2521 C5 0.500 . S
C2527 C721 0.537 . S
C2541 C43 1.204 . S
C2547 C607 1.161 . S
C2567 C881 2.087 . S
C2561 C304 2.217 . S
C2581 C153 1.892 . S
C2587 C362 1.912 . S
C2607 C930 2.079 1_556 S
C2601 C278 2.221 . S
C2621 C127 0.744 . S
C2627 C447 0.758 . S
C2641 C303 2.090 . S
C2647 C651 2.097 . S
C2667 C521 2.072 . S
C2661 C146 2.093 . S
C2681 C277 1.886 . S
C2687 C722 1.887 1_655 S
C2707 C601 1.669 . S
C2701 C120 1.770 . S
C2727 C882 2.485 . S
C2721 C231 2.477 . S
C2747 C490 1.946 . S
C2741 C200 2.022 1_545 S
C2761 C212 2.762 . S
C2767 C682 2.758 . S
C2787 C567 1.254 . S
C2781 C172 1.282 . S
C2801 C192 2.572 . S
C2807 C602 2.579 . S
C2821 C160 1.454 . S
C2827 C918 1.379 . S
C2847 C761 2.587 . S
C2841 C213 2.705 . S
C2867 C807 1.306 . S
C2861 C250 1.370 . S
