# Generated by pormake.
# Topology pth, (4,4)-cn, num edge types: 1
# Building blocks:
#     Node 0, Type 0, BuildingBlock: CEKHIL_clean_sbu_0, # of connection points: 4
#     Node 1, Type 0, BuildingBlock: CEKHIL_clean_sbu_0, # of connection points: 4
#     Node 2, Type 0, BuildingBlock: CEKHIL_clean_sbu_0, # of connection points: 4
#     Node 3, Type 1, BuildingBlock: NAWXER_clean_sbu_0, # of connection points: 4
#     Node 4, Type 1, BuildingBlock: NAWXER_clean_sbu_0, # of connection points: 4
#     Node 5, Type 1, BuildingBlock: NAWXER_clean_sbu_0, # of connection points: 4
#     Edge 6, Type (0, 1), BuildingBlock: EZIPEK_clean_linker_0, # of connection points: 2
#     Edge 7, Type (0, 1), BuildingBlock: EZIPEK_clean_linker_0, # of connection points: 2
#     Edge 8, Type (0, 1), BuildingBlock: EZIPEK_clean_linker_0, # of connection points: 2
#     Edge 9, Type (0, 1), BuildingBlock: EZIPEK_clean_linker_0, # of connection points: 2
#     Edge 10, Type (0, 1), BuildingBlock: EZIPEK_clean_linker_0, # of connection points: 2
#     Edge 11, Type (0, 1), BuildingBlock: EZIPEK_clean_linker_0, # of connection points: 2
#     Edge 12, Type (0, 1), BuildingBlock: EZIPEK_clean_linker_0, # of connection points: 2
#     Edge 13, Type (0, 1), BuildingBlock: EZIPEK_clean_linker_0, # of connection points: 2
#     Edge 14, Type (0, 1), BuildingBlock: EZIPEK_clean_linker_0, # of connection points: 2
#     Edge 15, Type (0, 1), BuildingBlock: EZIPEK_clean_linker_0, # of connection points: 2
#     Edge 16, Type (0, 1), BuildingBlock: EZIPEK_clean_linker_0, # of connection points: 2
#     Edge 17, Type (0, 1), BuildingBlock: EZIPEK_clean_linker_0, # of connection points: 2
# Relax obj value: 0.003
# Max RMSD: 0.042
# Mean RMSD: 0.026
data_MOF--net-pth--node1-CEKHIL_clean_sbu_0--node2-NAWXER_clean_sbu_0--edge1-EZIPEK_clean_linker_0
_symmetry_space_group_name_H-M    P1
_symmetry_Int_Tables_number       1
_symmetry_cell_setting            triclinic
loop_
_symmetry_equiv_pos_as_xyz
'x, y, z'
_cell_length_a     16.436372
_cell_length_b     16.45911
_cell_length_c     41.740083
_cell_angle_alpha  91.031365
_cell_angle_beta   89.991828
_cell_angle_gamma 120.23434
loop_
_atom_site_label
_atom_site_type_symbol
_atom_site_fract_x
_atom_site_fract_y
_atom_site_fract_z
_atom_type_partial_charge
Co0 Co 0.07884 0.06619 0.10171 0.0
O1 O 0.02061 0.97773 0.13636 0.0
O2 O 0.14107 0.99412 0.10793 0.0
C3 C 0.08426 0.19021 0.12987 0.0
O4 O 0.16716 0.14887 0.06657 0.0
Co5 Co 0.99947 0.17237 0.06687 0.0
O6 O 0.11902 0.23833 0.04281 0.0
C7 C 0.9193 0.97053 0.0527 0.0
C8 C 0.08422 0.95402 0.1315 0.0
C9 C 0.17891 0.21203 0.04648 0.0
O10 O 0.98591 0.97035 0.06916 0.0
O11 O 0.90842 0.04193 0.05117 0.0
O12 O 0.14874 0.16741 0.13332 0.0
O13 O 0.01814 0.13764 0.10957 0.0
Co14 Co 0.03916 0.05988 0.41186 0.0
O15 O 1.00307 0.11298 0.37751 0.0
O16 O 0.13117 0.19271 0.40767 0.0
C17 C 0.01218 0.92954 0.38308 0.0
O18 O 0.10349 0.03136 0.44861 0.0
Co19 Co 0.90231 0.87033 0.44204 0.0
O20 O 0.01303 0.88392 0.46576 0.0
C21 C 0.88868 0.03801 0.45922 0.0
C22 C 0.07941 0.19196 0.384 0.0
C23 C 0.08991 0.96239 0.46641 0.0
O24 O 0.96417 0.09051 0.44347 0.0
O25 O 0.84895 0.94824 0.45946 0.0
O26 O 0.09113 0.00835 0.38075 0.0
O27 O 0.95001 0.93209 0.40145 0.0
Co28 Co 0.05199 0.07384 0.74465 0.0
O29 O 0.14465 0.16584 0.71636 0.0
O30 O 0.15713 0.05297 0.73866 0.0
C31 C 0.92416 0.04176 0.71386 0.0
O32 O 0.97047 0.96369 0.77404 0.0
Co33 Co 0.90426 0.11133 0.77752 0.0
O34 O 0.85283 0.9821 0.79367 0.0
C35 C 0.10095 0.21697 0.79945 0.0
C36 C 0.19498 0.12645 0.72056 0.0
C37 C 0.8955 0.93568 0.79092 0.0
O38 O 0.11776 0.16026 0.78286 0.0
O39 O 0.02252 0.2157 0.79804 0.0
O40 O 0.97374 1.00212 0.70743 0.0
O41 O 0.95774 0.10353 0.73698 0.0
C42 C 0.9848 0.6339 0.2977 0.0
C43 C 1.00504 0.42386 0.21472 0.0
O44 O 0.06707 0.65449 0.28874 0.0
Zn45 Zn 0.13592 0.60402 0.25929 0.0
O46 O 0.91347 0.56086 0.28565 0.0
Zn47 Zn 0.98186 0.52094 0.25576 0.0
O48 O 0.04069 0.46798 0.28847 0.0
O49 O 0.19424 0.56224 0.29192 0.0
O50 O 0.92724 0.41478 0.22444 0.0
O51 O 0.08302 0.49017 0.22608 0.0
O52 O 0.20046 0.71213 0.23082 0.0
O53 O 0.04552 0.63719 0.22474 0.0
C54 C 0.11987 0.48845 0.30093 0.0
C55 C 0.12708 0.70413 0.21724 0.0
C56 C 0.61939 0.00842 0.63176 0.0
C57 C 0.38615 0.99716 0.55277 0.0
O58 O 0.54297 0.93419 0.62349 0.0
Zn59 Zn 0.49733 0.99268 0.59258 0.0
O60 O 0.63729 0.08686 0.61996 0.0
Zn61 Zn 0.5768 0.14443 0.5894 0.0
O62 O 0.54618 0.2166 0.62043 0.0
O63 O 0.45263 0.06351 0.6248 0.0
O64 O 0.45198 0.07949 0.56103 0.0
O65 O 0.38528 0.92565 0.5645 0.0
O66 O 0.6069 0.0444 0.55805 0.0
O67 O 0.67439 0.19889 0.55621 0.0
C68 C 0.47629 0.14736 0.63369 0.0
C69 C 0.66846 0.12245 0.54607 0.0
C70 C 0.48607 0.41784 0.96177 0.0
C71 C 0.68688 0.63168 0.87619 0.0
O72 O 0.47154 0.4846 0.95463 0.0
Zn73 Zn 0.52105 0.59947 0.92356 0.0
O74 O 0.55043 0.40952 0.94756 0.0
Zn75 Zn 0.59189 0.51773 0.91903 0.0
O76 O 0.65496 0.63179 0.95274 0.0
O77 O 0.57305 0.70486 0.95465 0.0
O78 O 0.68971 0.55951 0.8853 0.0
O79 O 0.62845 0.65134 0.88922 0.0
O80 O 0.40857 0.558 0.89612 0.0
O81 O 0.46768 0.46452 0.89096 0.0
C82 C 0.6426 0.69731 0.96428 0.0
C83 C 0.4047 0.48479 0.88359 0.0
C84 C 0.04398 0.31896 0.13829 0.0
C85 C 0.07492 0.25961 0.1515 0.0
C86 C 0.03723 0.29353 0.20538 0.0
C87 C 1.01019 0.35534 0.19239 0.0
N88 N 0.99582 0.43553 0.14718 0.0
N89 N 0.13254 0.22126 0.19907 0.0
C90 C 0.01499 0.36986 0.15893 0.0
C91 C 0.08057 0.25541 0.18545 0.0
N92 N 0.04648 0.32974 0.10593 0.0
N93 N 0.02174 0.27156 0.23707 0.0
H94 H 0.17691 0.20562 0.18612 0.0
H95 H 0.14421 0.22307 0.22366 0.0
H96 H 0.99006 0.2984 0.25226 0.0
H97 H 0.03103 0.21962 0.24741 0.0
H98 H 0.01337 0.36011 0.09387 0.0
H99 H 0.084 0.30894 0.09117 0.0
H100 H 1.00758 0.45815 0.12364 0.0
H101 H 0.97078 0.47056 0.16158 0.0
C102 C 0.74918 0.05601 0.46904 0.0
C103 C 0.84222 0.08138 0.47768 0.0
C104 C 0.82957 0.16017 0.52658 0.0
C105 C 0.73124 0.11998 0.52058 0.0
N106 N 0.59532 0.01884 0.48722 0.0
N107 N 0.97183 0.15445 0.51528 0.0
C108 C 0.69062 0.06563 0.49197 0.0
C109 C 0.88349 0.13433 0.50633 0.0
N110 N 0.71691 0.02287 0.43868 0.0
N111 N 0.87095 0.22045 0.55214 0.0
H112 H 0.0136 0.13781 0.50096 0.0
H113 H 1.00167 0.18221 0.53769 0.0
H114 H 0.83348 0.23671 0.56864 0.0
H115 H 0.94353 0.25967 0.55578 0.0
H116 H 0.65283 0.01193 0.42981 0.0
H117 H 0.75885 0.01604 0.42129 0.0
H118 H 0.56137 0.96969 0.46872 0.0
H119 H 0.54891 0.0224 0.50327 0.0
C120 C 0.75829 0.77646 0.80009 0.0
C121 C 0.85274 0.84407 0.80765 0.0
C122 C 0.84617 0.75104 0.85427 0.0
C123 C 0.74693 0.69384 0.84995 0.0
N124 N 0.60689 0.66068 0.81989 0.0
N125 N 0.9877 0.89914 0.84264 0.0
C126 C 0.70276 0.70811 0.82293 0.0
C127 C 0.89783 0.83132 0.83456 0.0
N128 N 0.72127 0.77838 0.77099 0.0
N129 N 0.8906 0.73088 0.87782 0.0
H130 H 0.02784 0.95781 0.82866 0.0
H131 H 0.02063 0.90051 0.86411 0.0
H132 H 0.8549 0.67595 0.89364 0.0
H133 H 0.96353 0.76403 0.88019 0.0
H134 H 0.656 0.72509 0.76255 0.0
H135 H 0.76015 0.8287 0.75398 0.0
H136 H 0.57086 0.67671 0.80294 0.0
H137 H 0.56237 0.61093 0.83602 0.0
C138 C 0.11915 0.91643 0.18648 0.0
C139 C 0.09784 0.89094 0.15349 0.0
C140 C 0.11951 0.75499 0.16157 0.0
C141 C 0.13139 0.7756 0.19496 0.0
N142 N 0.13087 0.86868 0.2401 0.0
N143 N 0.06655 0.7798 0.1102 0.0
C144 C 0.12837 0.85457 0.20763 0.0
C145 C 0.09577 0.80884 0.14111 0.0
N146 N 0.13465 1.00182 0.19744 0.0
N147 N 0.13152 0.68402 0.14949 0.0
H148 H 0.0468 0.81625 0.09481 0.0
H149 H 0.05409 0.71576 0.10055 0.0
H150 H 0.14846 0.6435 0.16398 0.0
H151 H 0.13255 0.6702 0.12511 0.0
H152 H 0.16115 0.02928 0.22022 0.0
H153 H 0.12878 0.04913 0.18283 0.0
H154 H 0.1158 0.9169 0.25104 0.0
H155 H 0.14228 0.82795 0.25636 0.0
C156 C 0.14572 0.94626 0.52111 0.0
C157 C 0.16653 0.97372 0.48862 0.0
C158 C 0.33327 0.02922 0.49971 0.0
C159 C 0.31024 0.98788 0.53055 0.0
N160 N 0.1912 0.90203 0.57009 0.0
N161 N 0.27927 0.02465 0.44557 0.0
C162 C 0.21519 0.94379 0.54092 0.0
C163 C 0.26 0.01058 0.47752 0.0
N164 N 0.06185 0.92889 0.5338 0.0
N165 N 0.42475 0.08892 0.49153 0.0
H166 H 0.22879 0.01182 0.42812 0.0
H167 H 0.34402 0.04031 0.43598 0.0
H168 H 0.48177 0.10799 0.50673 0.0
H169 H 0.44354 0.12825 0.47074 0.0
H170 H 0.04642 0.91805 0.55808 0.0
H171 H 0.01157 0.93594 0.52085 0.0
H172 H 0.12164 0.85861 0.577 0.0
H173 H 0.24028 0.90625 0.58682 0.0
C174 C 0.26859 0.34466 0.80876 0.0
C175 C 0.17683 0.28806 0.82096 0.0
C176 C 0.23168 0.36969 0.87333 0.0
C177 C 0.32571 0.41859 0.86186 0.0
N178 N 0.43425 0.42571 0.82091 0.0
N179 N 0.07564 0.23265 0.86705 0.0
C180 C 0.34458 0.39819 0.8303 0.0
C181 C 0.15918 0.29715 0.85383 0.0
N182 N 0.2833 0.35003 0.77644 0.0
N183 N 0.21173 0.38967 0.90324 0.0
H184 H 0.02258 0.1759 0.85411 0.0
H185 H 0.06256 0.22951 0.89154 0.0
H186 H 0.26321 0.43524 0.91956 0.0
H187 H 0.14329 0.36474 0.91123 0.0
H188 H 0.3477 0.39734 0.76631 0.0
H189 H 0.22887 0.3156 0.75967 0.0
H190 H 0.44927 0.40452 0.79909 0.0
H191 H 0.49249 0.45893 0.83607 0.0
C192 C 0.8302 0.10624 0.68814 0.0
C193 C 0.84358 0.02871 0.69314 0.0
C194 C 0.71198 0.93537 0.6554 0.0
C195 C 0.6898 0.00873 0.65492 0.0
N196 N 0.7152 0.15333 0.68079 0.0
N197 N 0.78129 0.86114 0.68582 0.0
C198 C 0.74456 0.09046 0.67452 0.0
C199 C 0.77961 0.94056 0.67815 0.0
N200 N 0.90119 0.19641 0.69407 0.0
N201 N 0.67403 0.86371 0.63311 0.0
H202 H 0.82757 0.86042 0.70267 0.0
H203 H 0.72989 0.79425 0.67784 0.0
H204 H 0.62953 0.85934 0.61461 0.0
H205 H 0.69564 0.81425 0.63081 0.0
H206 H 0.89543 0.25476 0.68834 0.0
H207 H 0.9697 0.21362 0.69997 0.0
H208 H 0.75024 0.2094 0.69709 0.0
H209 H 0.65081 0.14363 0.67298 0.0
C210 C 0.87928 0.8686 1.00329 0.0
C211 C 0.85119 0.8864 0.03344 0.0
C212 C 0.68582 0.77182 0.01973 0.0
C213 C 0.71299 0.76496 0.98796 0.0
N214 N 0.83472 0.81736 0.94807 0.0
N215 N 0.72777 0.85834 0.0705 0.0
C216 C 0.80968 0.81567 0.97942 0.0
C217 C 0.75432 0.83862 0.04171 0.0
N218 N 0.97257 0.90244 0.99745 0.0
N219 N 0.59565 0.71203 0.02928 0.0
H220 H 0.77639 0.90151 0.08805 0.0
H221 H 0.65803 0.83545 0.07639 0.0
H222 H 0.54387 0.66197 0.01394 0.0
H223 H 0.57402 0.70657 0.05298 0.0
H224 H 0.99713 0.88479 0.97701 0.0
H225 H 0.02493 0.94026 0.01461 0.0
H226 H 0.90279 0.86057 0.93979 0.0
H227 H 0.78577 0.78267 0.92964 0.0
C228 C 0.93004 0.81386 0.33712 0.0
C229 C 0.99312 0.84428 0.36377 0.0
C230 C 0.0368 0.72547 0.35012 0.0
C231 C 0.97733 0.69749 0.32227 0.0
N232 N 0.87773 0.72495 0.28688 0.0
N233 N 0.08964 0.81603 0.39979 0.0
C234 C 0.92498 0.74288 0.31549 0.0
C235 C 0.04168 0.79636 0.37134 0.0
N236 N 0.87481 0.853 0.33246 0.0
N237 N 0.09313 0.68792 0.35558 0.0
H238 H 0.09639 0.86875 0.41542 0.0
H239 H 0.1157 0.77562 0.40937 0.0
H240 H 0.08893 0.63176 0.34251 0.0
H241 H 0.14898 0.71595 0.37191 0.0
H242 H 0.819 0.82664 0.31614 0.0
H243 H 0.88021 0.90848 0.34655 0.0
H244 H 0.84842 0.76378 0.27847 0.0
H245 H 0.87349 0.67565 0.26999 0.0
C246 C 0.3137 0.21754 0.67663 0.0
C247 C 0.2868 0.15759 0.70345 0.0
C248 C 0.40511 0.11429 0.68901 0.0
C249 C 0.41974 0.16061 0.6592 0.0
N250 N 0.37957 0.24922 0.62338 0.0
N251 N 0.34501 0.09514 0.74311 0.0
C252 C 0.3731 0.21179 0.65289 0.0
C253 C 0.34369 0.11922 0.71203 0.0
N254 N 0.28933 0.28537 0.67502 0.0
N255 N 0.44696 0.06233 0.69503 0.0
H256 H 0.30968 0.10911 0.76121 0.0
H257 H 0.39098 0.07445 0.75187 0.0
H258 H 0.49574 0.05967 0.67986 0.0
H259 H 0.42867 0.01665 0.71412 0.0
H260 H 0.31298 0.3355 0.65719 0.0
H261 H 0.25938 0.30198 0.69418 0.0
H262 H 0.33746 0.27637 0.61618 0.0
H263 H 0.42046 0.24564 0.60495 0.0
C264 C 0.25983 0.21886 0.99463 0.0
C265 C 0.2647 0.25448 0.02625 0.0
C266 C 0.42971 0.37643 0.0178 0.0
C267 C 0.42051 0.3486 0.98503 0.0
N268 N 0.32773 0.24573 0.94146 0.0
N269 N 0.35242 0.36654 0.06851 0.0
C270 C 0.33636 0.26922 0.97337 0.0
C271 C 0.34973 0.33239 0.03817 0.0
N272 N 0.18181 0.13671 0.98501 0.0
N273 N 0.51532 0.44577 0.02912 0.0
H274 H 0.29591 0.33462 0.08422 0.0
H275 H 0.40828 0.42887 0.07776 0.0
H276 H 0.57441 0.47837 0.0145 0.0
H277 H 0.53019 0.46606 0.05313 0.0
H278 H 0.17722 0.10122 0.96359 0.0
H279 H 0.12337 0.10022 0.99961 0.0
H280 H 0.26457 0.19718 0.93034 0.0
H281 H 0.38375 0.27833 0.9256 0.0
C282 C 0.16749 0.30681 0.34031 0.0
C283 C 0.10269 0.27794 0.36592 0.0
C284 C 0.05886 0.39485 0.35166 0.0
C285 C 0.1215 0.42265 0.32501 0.0
N286 N 0.22452 0.39439 0.29122 0.0
N287 N 1.00566 0.30882 0.4012 0.0
C288 C 0.17452 0.3771 0.31896 0.0
C289 C 0.05413 0.32636 0.3731 0.0
N290 N 0.22305 0.26741 0.3367 0.0
N291 N 0.99932 0.42955 0.35563 0.0
H292 H 1.00053 0.2589 0.41738 0.0
H293 H 0.97827 0.34944 0.41014 0.0
H294 H 0.99992 0.48086 0.34142 0.0
H295 H 0.94335 0.40225 0.37152 0.0
H296 H 0.27915 0.29159 0.32092 0.0
H297 H 0.21775 0.21445 0.35144 0.0
H298 H 0.25523 0.35584 0.2833 0.0
H299 H 0.22959 0.44268 0.27441 0.0
loop_
_geom_bond_atom_site_label_1
_geom_bond_atom_site_label_2
_geom_bond_distance
_geom_bond_site_symmetry_2
_ccdc_geom_bond_type
Co0 O1 2.216 1_445 S
Co0 O2 2.091 1_545 S
Co0 O4 2.004 . S
Co0 O10 2.021 1_445 S
Co0 O12 2.137 . S
Co0 O13 2.244 1_455 S
O1 Co0 2.216 1_665 S
O1 C8 1.247 1_655 S
O2 Co0 2.091 1_565 S
O2 C8 1.261 . S
C3 O12 1.247 . S
C3 O13 1.272 1_455 S
O4 Co0 2.004 . S
O4 C9 1.259 . S
Co5 O6 2.061 1_655 S
Co5 O11 2.052 . S
Co5 O13 2.135 . S
O6 Co5 2.061 1_455 S
O6 C9 1.235 . S
C7 O10 1.238 . S
C7 O11 1.241 1_565 S
C8 O1 1.247 1_455 S
C8 O2 1.261 . S
C9 O4 1.259 . S
C9 O6 1.235 . S
O10 Co0 2.021 1_665 S
O10 C7 1.238 . S
O11 Co5 2.052 . S
O11 C7 1.241 1_545 S
O12 Co0 2.137 . S
O12 C3 1.247 . S
O13 Co0 2.244 1_655 S
O13 C3 1.272 1_655 S
O13 Co5 2.135 . S
Co14 O15 2.216 1_455 S
Co14 O16 2.091 . S
Co14 O18 2.004 . S
Co14 O24 2.021 1_455 S
Co14 O26 2.137 . S
Co14 O27 2.244 1_445 S
O15 Co14 2.216 1_655 S
O15 C22 1.247 1_655 S
O16 Co14 2.091 . S
O16 C22 1.261 . S
C17 O26 1.247 1_565 S
C17 O27 1.272 1_455 S
O18 Co14 2.004 . S
O18 C23 1.259 . S
Co19 O20 2.061 1_655 S
Co19 O25 2.052 . S
Co19 O27 2.135 . S
O20 Co19 2.061 1_455 S
O20 C23 1.235 1_565 S
C21 O24 1.238 . S
C21 O25 1.241 1_545 S
C22 O15 1.247 1_455 S
C22 O16 1.261 . S
C23 O18 1.259 . S
C23 O20 1.235 1_545 S
O24 Co14 2.021 1_655 S
O24 C21 1.238 . S
O25 Co19 2.052 . S
O25 C21 1.241 1_565 S
O26 Co14 2.137 . S
O26 C17 1.247 1_545 S
O27 Co14 2.244 1_665 S
O27 C17 1.272 1_655 S
O27 Co19 2.135 . S
Co28 O29 2.216 . S
Co28 O30 2.091 1_545 S
Co28 O32 2.004 1_445 S
Co28 O38 2.021 . S
Co28 O40 2.137 1_445 S
Co28 O41 2.244 1_455 S
O29 Co28 2.216 . S
O29 C36 1.247 . S
O30 Co28 2.091 1_565 S
O30 C36 1.261 1_565 S
C31 O40 1.247 1_545 S
C31 O41 1.272 . S
O32 Co28 2.004 1_665 S
O32 C37 1.259 . S
Co33 O34 2.061 . S
Co33 O39 2.052 1_655 S
Co33 O41 2.135 . S
O34 Co33 2.061 . S
O34 C37 1.235 1_545 S
C35 O38 1.238 . S
C35 O39 1.241 . S
C36 O29 1.247 . S
C36 O30 1.261 1_545 S
C37 O32 1.259 . S
C37 O34 1.235 1_565 S
O38 Co28 2.021 . S
O38 C35 1.238 . S
O39 Co33 2.052 1_455 S
O39 C35 1.241 . S
O40 Co28 2.137 1_665 S
O40 C31 1.247 1_565 S
O41 Co28 2.244 1_655 S
O41 C31 1.272 . S
O41 Co33 2.135 . S
C42 O44 1.247 . S
C42 O46 1.258 1_455 S
C43 O50 1.247 1_455 S
C43 O51 1.258 . S
O44 C42 1.247 . S
O44 Zn45 2.028 . S
Zn45 O44 2.028 . S
Zn45 O49 2.035 . S
Zn45 O51 2.035 . S
Zn45 O52 2.028 . S
O46 C42 1.258 1_655 S
O46 Zn47 2.035 . S
Zn47 O46 2.035 . S
Zn47 O48 2.028 . S
Zn47 O50 2.028 . S
Zn47 O53 2.035 . S
O48 Zn47 2.028 . S
O48 C54 1.247 1_655 S
O49 Zn45 2.035 . S
O49 C54 1.258 . S
O50 C43 1.247 1_655 S
O50 Zn47 2.028 . S
O51 C43 1.258 . S
O51 Zn45 2.035 . S
O52 Zn45 2.028 . S
O52 C55 1.247 . S
O53 Zn47 2.035 . S
O53 C55 1.258 1_655 S
C54 O48 1.247 1_455 S
C54 O49 1.258 . S
C55 O52 1.247 . S
C55 O53 1.258 1_455 S
C56 O58 1.247 1_545 S
C56 O60 1.258 . S
C57 O64 1.247 . S
C57 O65 1.258 1_545 S
O58 C56 1.247 1_565 S
O58 Zn59 2.028 . S
Zn59 O58 2.028 . S
Zn59 O63 2.035 . S
Zn59 O65 2.035 . S
Zn59 O66 2.028 . S
O60 C56 1.258 . S
O60 Zn61 2.035 . S
Zn61 O60 2.035 . S
Zn61 O62 2.028 . S
Zn61 O64 2.028 . S
Zn61 O67 2.035 . S
O62 Zn61 2.028 . S
O62 C68 1.247 . S
O63 Zn59 2.035 . S
O63 C68 1.258 1_565 S
O64 C57 1.247 . S
O64 Zn61 2.028 . S
O65 C57 1.258 1_565 S
O65 Zn59 2.035 . S
O66 Zn59 2.028 . S
O66 C69 1.247 1_565 S
O67 Zn61 2.035 . S
O67 C69 1.258 . S
C68 O62 1.247 . S
C68 O63 1.258 1_545 S
C69 O66 1.247 1_545 S
C69 O67 1.258 . S
C70 O72 1.247 . S
C70 O74 1.258 . S
C71 O78 1.247 . S
C71 O79 1.258 . S
O72 C70 1.247 . S
O72 Zn73 2.028 . S
Zn73 O72 2.028 . S
Zn73 O77 2.035 . S
Zn73 O79 2.035 . S
Zn73 O80 2.028 . S
O74 C70 1.258 . S
O74 Zn75 2.035 . S
Zn75 O74 2.035 . S
Zn75 O76 2.028 . S
Zn75 O78 2.028 . S
Zn75 O81 2.035 . S
O76 Zn75 2.028 . S
O76 C82 1.247 . S
O77 Zn73 2.035 . S
O77 C82 1.258 . S
O78 C71 1.247 . S
O78 Zn75 2.028 . S
O79 C71 1.258 . S
O79 Zn73 2.035 . S
O80 Zn73 2.028 . S
O80 C83 1.247 . S
O81 Zn75 2.035 . S
O81 C83 1.258 . S
C82 O76 1.247 . S
C82 O77 1.258 . S
C83 O80 1.247 . S
C83 O81 1.258 . S
C84 C85 1.363 1_655 S
C84 C90 1.379 . S
C84 N92 1.356 . S
C85 C84 1.363 1_455 S
C85 C91 1.363 . S
C86 C87 1.363 . S
C86 C91 1.379 . S
C86 N93 1.356 . S
C87 C86 1.363 . S
C87 C90 1.363 1_455 S
N88 C90 1.356 . S
N88 H100 0.984 . S
N88 H101 0.985 . S
N89 C91 1.356 . S
N89 H94 0.984 . S
N89 H95 0.985 . S
C90 C84 1.379 . S
C90 C87 1.363 1_655 S
C90 N88 1.356 . S
C91 C85 1.363 . S
C91 C86 1.379 . S
C91 N89 1.356 . S
N92 C84 1.356 . S
N92 H98 0.984 . S
N92 H99 0.984 . S
N93 C86 1.356 . S
N93 H96 0.984 . S
N93 H97 0.985 . S
H94 N89 0.984 . S
H95 N89 0.985 . S
H96 N93 0.984 . S
H97 N93 0.985 . S
H98 N92 0.984 . S
H99 N92 0.984 . S
H100 N88 0.984 . S
H101 N88 0.985 . S
C102 C103 1.363 1_565 S
C102 C108 1.379 . S
C102 N110 1.356 . S
C103 C102 1.363 1_545 S
C103 C109 1.363 . S
C104 C105 1.363 . S
C104 C109 1.379 . S
C104 N111 1.356 . S
C105 C104 1.363 . S
C105 C108 1.363 1_545 S
N106 C108 1.356 . S
N106 H118 0.984 . S
N106 H119 0.985 . S
N107 C109 1.356 . S
N107 H112 0.984 1_655 S
N107 H113 0.985 1_655 S
C108 C102 1.379 . S
C108 C105 1.363 1_565 S
C108 N106 1.356 . S
C109 C103 1.363 . S
C109 C104 1.379 . S
C109 N107 1.356 . S
N110 C102 1.356 . S
N110 H116 0.984 . S
N110 H117 0.984 . S
N111 C104 1.356 . S
N111 H114 0.984 . S
N111 H115 0.985 . S
H112 N107 0.984 1_455 S
H113 N107 0.985 1_455 S
H114 N111 0.984 . S
H115 N111 0.985 . S
H116 N110 0.984 . S
H117 N110 0.984 . S
H118 N106 0.984 . S
H119 N106 0.985 . S
C120 C121 1.363 . S
C120 C126 1.379 . S
C120 N128 1.356 . S
C121 C120 1.363 . S
C121 C127 1.363 . S
C122 C123 1.363 . S
C122 C127 1.379 . S
C122 N129 1.356 . S
C123 C122 1.363 . S
C123 C126 1.363 . S
N124 C126 1.356 . S
N124 H136 0.984 . S
N124 H137 0.985 . S
N125 C127 1.356 . S
N125 H130 0.984 . S
N125 H131 0.985 . S
C126 C120 1.379 . S
C126 C123 1.363 . S
C126 N124 1.356 . S
C127 C121 1.363 . S
C127 C122 1.379 . S
C127 N125 1.356 . S
N128 C120 1.356 . S
N128 H134 0.984 . S
N128 H135 0.984 . S
N129 C122 1.356 . S
N129 H132 0.984 . S
N129 H133 0.985 . S
H130 N125 0.984 . S
H131 N125 0.985 . S
H132 N129 0.984 . S
H133 N129 0.985 . S
H134 N128 0.984 . S
H135 N128 0.984 . S
H136 N124 0.984 . S
H137 N124 0.985 . S
C138 C139 1.363 . S
C138 C144 1.379 . S
C138 N146 1.356 . S
C139 C138 1.363 . S
C139 C145 1.363 1_455 S
C140 C141 1.363 1_655 S
C140 C145 1.379 . S
C140 N147 1.356 . S
C141 C140 1.363 1_455 S
C141 C144 1.363 . S
N142 C144 1.356 . S
N142 H154 0.984 . S
N142 H155 0.985 . S
N143 C145 1.356 . S
N143 H148 0.984 . S
N143 H149 0.985 . S
C144 C138 1.379 . S
C144 C141 1.363 . S
C144 N142 1.356 . S
C145 C139 1.363 1_655 S
C145 C140 1.379 . S
C145 N143 1.356 . S
N146 C138 1.356 . S
N146 H152 0.984 . S
N146 H153 0.984 . S
N147 C140 1.356 . S
N147 H150 0.984 . S
N147 H151 0.985 . S
H148 N143 0.984 . S
H149 N143 0.985 . S
H150 N147 0.984 . S
H151 N147 0.985 . S
H152 N146 0.984 . S
H153 N146 0.984 . S
H154 N142 0.984 . S
H155 N142 0.985 . S
C156 C157 1.363 . S
C156 C162 1.379 1_545 S
C156 N164 1.356 1_545 S
C157 C156 1.363 . S
C157 C163 1.363 . S
C158 C159 1.363 . S
C158 C163 1.379 . S
C158 N165 1.356 . S
C159 C158 1.363 . S
C159 C162 1.363 1_545 S
N160 C162 1.356 . S
N160 H172 0.984 . S
N160 H173 0.985 . S
N161 C163 1.356 . S
N161 H166 0.984 . S
N161 H167 0.985 . S
C162 C156 1.379 1_565 S
C162 C159 1.363 1_565 S
C162 N160 1.356 . S
C163 C157 1.363 . S
C163 C158 1.379 . S
C163 N161 1.356 . S
N164 C156 1.356 1_565 S
N164 H170 0.984 . S
N164 H171 0.984 . S
N165 C158 1.356 . S
N165 H168 0.984 . S
N165 H169 0.985 . S
H166 N161 0.984 . S
H167 N161 0.985 . S
H168 N165 0.984 . S
H169 N165 0.985 . S
H170 N164 0.984 . S
H171 N164 0.984 . S
H172 N160 0.984 . S
H173 N160 0.985 . S
C174 C175 1.363 . S
C174 C180 1.379 . S
C174 N182 1.356 . S
C175 C174 1.363 . S
C175 C181 1.363 . S
C176 C177 1.363 . S
C176 C181 1.379 . S
C176 N183 1.356 . S
C177 C176 1.363 . S
C177 C180 1.363 . S
N178 C180 1.356 . S
N178 H190 0.984 . S
N178 H191 0.985 . S
N179 C181 1.356 . S
N179 H184 0.984 . S
N179 H185 0.985 . S
C180 C174 1.379 . S
C180 C177 1.363 . S
C180 N178 1.356 . S
C181 C175 1.363 . S
C181 C176 1.379 . S
C181 N179 1.356 . S
N182 C174 1.356 . S
N182 H188 0.984 . S
N182 H189 0.984 . S
N183 C176 1.356 . S
N183 H186 0.984 . S
N183 H187 0.985 . S
H184 N179 0.984 . S
H185 N179 0.985 . S
H186 N183 0.984 . S
H187 N183 0.985 . S
H188 N182 0.984 . S
H189 N182 0.984 . S
H190 N178 0.984 . S
H191 N178 0.985 . S
C192 C193 1.363 . S
C192 C198 1.379 . S
C192 N200 1.356 . S
C193 C192 1.363 . S
C193 C199 1.363 1_545 S
C194 C195 1.363 1_565 S
C194 C199 1.379 . S
C194 N201 1.356 . S
C195 C194 1.363 1_545 S
C195 C198 1.363 . S
N196 C198 1.356 . S
N196 H208 0.984 . S
N196 H209 0.985 . S
N197 C199 1.356 . S
N197 H202 0.984 . S
N197 H203 0.985 . S
C198 C192 1.379 . S
C198 C195 1.363 . S
C198 N196 1.356 . S
C199 C193 1.363 1_565 S
C199 C194 1.379 . S
C199 N197 1.356 . S
N200 C192 1.356 . S
N200 H206 0.984 . S
N200 H207 0.984 . S
N201 C194 1.356 . S
N201 H204 0.984 . S
N201 H205 0.985 . S
H202 N197 0.984 . S
H203 N197 0.985 . S
H204 N201 0.984 . S
H205 N201 0.985 . S
H206 N200 0.984 . S
H207 N200 0.984 . S
H208 N196 0.984 . S
H209 N196 0.985 . S
C210 C211 1.363 . S
C210 C216 1.379 1_554 S
C210 N218 1.356 . S
C211 C210 1.363 . S
C211 C217 1.363 . S
C212 C213 1.363 . S
C212 C217 1.379 1_556 S
C212 N219 1.356 . S
C213 C212 1.363 . S
C213 C216 1.363 . S
N214 C216 1.356 . S
N214 H226 0.984 . S
N214 H227 0.985 . S
N215 C217 1.356 . S
N215 H220 0.984 . S
N215 H221 0.985 . S
C216 C210 1.379 1_556 S
C216 C213 1.363 . S
C216 N214 1.356 . S
C217 C211 1.363 . S
C217 C212 1.379 1_554 S
C217 N215 1.356 . S
N218 C210 1.356 . S
N218 H224 0.984 . S
N218 H225 0.984 . S
N219 C212 1.356 . S
N219 H222 0.984 . S
N219 H223 0.985 . S
H220 N215 0.984 . S
H221 N215 0.985 . S
H222 N219 0.984 . S
H223 N219 0.985 . S
H224 N218 0.984 . S
H225 N218 0.984 . S
H226 N214 0.984 . S
H227 N214 0.985 . S
C228 C229 1.363 . S
C228 C234 1.379 . S
C228 N236 1.356 . S
C229 C228 1.363 . S
C229 C235 1.363 . S
C230 C231 1.363 . S
C230 C235 1.379 . S
C230 N237 1.356 . S
C231 C230 1.363 . S
C231 C234 1.363 . S
N232 C234 1.356 . S
N232 H244 0.984 . S
N232 H245 0.985 . S
N233 C235 1.356 . S
N233 H238 0.984 . S
N233 H239 0.985 . S
C234 C228 1.379 . S
C234 C231 1.363 . S
C234 N232 1.356 . S
C235 C229 1.363 . S
C235 C230 1.379 . S
C235 N233 1.356 . S
N236 C228 1.356 . S
N236 H242 0.984 . S
N236 H243 0.984 . S
N237 C230 1.356 . S
N237 H240 0.984 . S
N237 H241 0.985 . S
H238 N233 0.984 . S
H239 N233 0.985 . S
H240 N237 0.984 . S
H241 N237 0.985 . S
H242 N236 0.984 . S
H243 N236 0.984 . S
H244 N232 0.984 . S
H245 N232 0.985 . S
C246 C247 1.363 . S
C246 C252 1.379 . S
C246 N254 1.356 . S
C247 C246 1.363 . S
C247 C253 1.363 1_545 S
C248 C249 1.363 1_565 S
C248 C253 1.379 . S
C248 N255 1.356 . S
C249 C248 1.363 1_545 S
C249 C252 1.363 . S
N250 C252 1.356 . S
N250 H262 0.984 . S
N250 H263 0.985 . S
N251 C253 1.356 . S
N251 H256 0.984 . S
N251 H257 0.985 . S
C252 C246 1.379 . S
C252 C249 1.363 . S
C252 N250 1.356 . S
C253 C247 1.363 1_565 S
C253 C248 1.379 . S
C253 N251 1.356 . S
N254 C246 1.356 . S
N254 H260 0.984 . S
N254 H261 0.984 . S
N255 C248 1.356 . S
N255 H258 0.984 . S
N255 H259 0.985 . S
H256 N251 0.984 . S
H257 N251 0.985 . S
H258 N255 0.984 . S
H259 N255 0.985 . S
H260 N254 0.984 . S
H261 N254 0.984 . S
H262 N250 0.984 . S
H263 N250 0.985 . S
C264 C265 1.363 1_556 S
C264 C270 1.379 . S
C264 N272 1.356 . S
C265 C264 1.363 1_554 S
C265 C271 1.363 . S
C266 C267 1.363 . S
C266 C271 1.379 1_556 S
C266 N273 1.356 . S
C267 C266 1.363 . S
C267 C270 1.363 . S
N268 C270 1.356 . S
N268 H280 0.984 . S
N268 H281 0.985 . S
N269 C271 1.356 . S
N269 H274 0.984 . S
N269 H275 0.985 . S
C270 C264 1.379 . S
C270 C267 1.363 . S
C270 N268 1.356 . S
C271 C265 1.363 . S
C271 C266 1.379 1_554 S
C271 N269 1.356 . S
N272 C264 1.356 . S
N272 H278 0.984 . S
N272 H279 0.984 1_556 S
N273 C266 1.356 . S
N273 H276 0.984 . S
N273 H277 0.985 1_556 S
H274 N269 0.984 . S
H275 N269 0.985 . S
H276 N273 0.984 . S
H277 N273 0.985 1_554 S
H278 N272 0.984 . S
H279 N272 0.984 1_554 S
H280 N268 0.984 . S
H281 N268 0.985 . S
C282 C283 1.363 . S
C282 C288 1.379 . S
C282 N290 1.356 . S
C283 C282 1.363 . S
C283 C289 1.363 1_455 S
C284 C285 1.363 1_655 S
C284 C289 1.379 . S
C284 N291 1.356 . S
C285 C284 1.363 1_455 S
C285 C288 1.363 . S
N286 C288 1.356 . S
N286 H298 0.984 . S
N286 H299 0.985 . S
N287 C289 1.356 . S
N287 H292 0.984 . S
N287 H293 0.985 . S
C288 C282 1.379 . S
C288 C285 1.363 . S
C288 N286 1.356 . S
C289 C283 1.363 1_655 S
C289 C284 1.379 . S
C289 N287 1.356 . S
N290 C282 1.356 . S
N290 H296 0.984 . S
N290 H297 0.984 . S
N291 C284 1.356 . S
N291 H294 0.984 . S
N291 H295 0.985 . S
H292 N287 0.984 . S
H293 N287 0.985 . S
H294 N291 0.984 . S
H295 N291 0.985 . S
H296 N290 0.984 . S
H297 N290 0.984 . S
H298 N286 0.984 . S
H299 N286 0.985 . S
C87 C43 1.480 . S
C85 C3 1.476 . S
C103 C21 1.488 . S
C105 C69 1.509 . S
C121 C37 1.465 . S
C123 C71 1.488 . S
C139 C8 1.481 . S
C141 C55 1.480 . S
C159 C57 1.485 . S
C157 C23 1.462 . S
C175 C35 1.461 . S
C177 C83 1.486 . S
C195 C56 1.482 . S
C193 C31 1.478 . S
C211 C7 1.462 . S
C213 C82 1.486 . S
C231 C42 1.480 . S
C229 C17 1.476 . S
C249 C68 1.455 . S
C247 C36 1.456 . S
C267 C70 1.489 . S
C265 C9 1.465 . S
C283 C22 1.483 . S
C285 C54 1.482 . S
