# Generated by pormake.
# Topology nia, (6,6)-cn, num edge types: 1
# Building blocks:
#     Node 0, Type 0, BuildingBlock: HISSIN_clean_sbu_0, # of connection points: 6
#     Node 1, Type 0, BuildingBlock: HISSIN_clean_sbu_0, # of connection points: 6
#     Node 2, Type 1, BuildingBlock: MIDCAF_clean_sbu_0, # of connection points: 6
#     Node 3, Type 1, BuildingBlock: MIDCAF_clean_sbu_0, # of connection points: 6
#     Edge 4, Type (0, 1), BuildingBlock: FUNLAD_clean_linker_1, # of connection points: 2
#     Edge 5, Type (0, 1), BuildingBlock: FUNLAD_clean_linker_1, # of connection points: 2
#     Edge 6, Type (0, 1), BuildingBlock: FUNLAD_clean_linker_1, # of connection points: 2
#     Edge 7, Type (0, 1), BuildingBlock: FUNLAD_clean_linker_1, # of connection points: 2
#     Edge 8, Type (0, 1), BuildingBlock: FUNLAD_clean_linker_1, # of connection points: 2
#     Edge 9, Type (0, 1), BuildingBlock: FUNLAD_clean_linker_1, # of connection points: 2
#     Edge 10, Type (0, 1), BuildingBlock: FUNLAD_clean_linker_1, # of connection points: 2
#     Edge 11, Type (0, 1), BuildingBlock: FUNLAD_clean_linker_1, # of connection points: 2
#     Edge 12, Type (0, 1), BuildingBlock: FUNLAD_clean_linker_1, # of connection points: 2
#     Edge 13, Type (0, 1), BuildingBlock: FUNLAD_clean_linker_1, # of connection points: 2
#     Edge 14, Type (0, 1), BuildingBlock: FUNLAD_clean_linker_1, # of connection points: 2
#     Edge 15, Type (0, 1), BuildingBlock: FUNLAD_clean_linker_1, # of connection points: 2
# Relax obj value: 0.347
# Max RMSD: 0.263
# Mean RMSD: 0.251
data_MOF--net-nia--node1-HISSIN_clean_sbu_0--node2-MIDCAF_clean_sbu_0--edge1-FUNLAD_clean_linker_1
_symmetry_space_group_name_H-M    P1
_symmetry_Int_Tables_number       1
_symmetry_cell_setting            triclinic
loop_
_symmetry_equiv_pos_as_xyz
'x, y, z'
_cell_length_a     26.436592
_cell_length_b     26.592904
_cell_length_c     34.043526
_cell_angle_alpha  79.382799
_cell_angle_beta   79.495089
_cell_angle_gamma 116.50106
loop_
_atom_site_label
_atom_site_type_symbol
_atom_site_fract_x
_atom_site_fract_y
_atom_site_fract_z
_atom_type_partial_charge
Eu0 Eu 0.02701 0.09114 0.05568 0.0
Eu1 Eu 0.97677 0.95871 0.04754 0.0
C2 C 0.10972 0.06214 0.99277 0.0
C3 C 0.04642 0.23142 0.08307 0.0
C4 C 0.07568 0.29238 0.06425 0.0
C5 C 0.99114 0.24188 0.14329 0.0
C6 C 0.06445 0.32818 0.08543 0.0
C7 C 0.00218 0.20599 0.1219 0.0
C8 C 0.02442 0.30361 0.12603 0.0
C9 C 0.06734 0.19641 0.06395 0.0
O10 O -0.00446 0.95821 0.10965 0.0
O11 O 0.07489 0.05015 0.08491 0.0
C12 C 0.04716 -0.00307 0.1111 0.0
O13 O 0.94051 0.03651 0.1085 0.0
O14 O 0.91359 0.88246 0.03378 0.0
O15 O 0.98145 0.87764 0.05923 0.0
O16 O 0.89625 0.95928 0.08258 0.0
C17 C 0.89315 -0.01011 0.10817 0.0
O18 O 0.9627 0.07843 1.01826 0.0
O19 O 0.97747 0.01425 0.98813 0.0
O20 O 0.07444 0.00565 1.01237 0.0
O21 O 0.0657 0.15248 0.08977 0.0
O22 O 0.05136 0.18365 1.03142 0.0
O23 O 0.09482 0.10172 0.99895 0.0
C24 C 0.94681 0.81791 1.01625 0.0
C25 C 0.94284 0.7639 0.03374 0.0
C26 C 0.95703 0.8015 0.94813 0.0
C27 C 0.94445 0.72814 1.0089 0.0
C28 C 0.95559 0.83739 0.97309 0.0
C29 C 0.95006 0.74574 0.96611 0.0
C30 C 0.93812 0.85104 0.04423 0.0
C31 C 0.96046 0.05375 0.98813 0.0
H32 H 0.10957 0.31263 0.03413 0.0
H33 H 0.95838 0.22121 0.17384 0.0
H34 H 0.09023 0.37555 0.07118 0.0
H35 H 0.97827 0.15871 0.13657 0.0
H36 H 0.93641 0.7484 0.06699 0.0
H37 H 0.96064 0.81661 0.9155 0.0
H38 H 0.93889 0.68547 1.02359 0.0
H39 H 0.95918 0.87931 0.95898 0.0
Eu40 Eu 0.95203 0.00636 0.52604 0.0
Eu41 Eu 0.06043 0.02869 0.56826 0.0
C42 C 0.94555 0.89882 0.59387 0.0
C43 C 0.82964 0.94571 0.47304 0.0
C44 C 0.85064 0.9285 0.43988 0.0
C45 C 0.72907 0.88444 0.47279 0.0
C46 C 0.81106 0.89046 0.42272 0.0
C47 C 0.76854 0.92266 0.48967 0.0
C48 C 0.74988 0.86916 0.43849 0.0
C49 C 0.87034 -0.00985 0.48905 0.0
O50 O 0.08827 0.01643 0.50552 0.0
O51 O -0.00415 0.95859 0.50091 0.0
C52 C 0.05291 0.97793 0.49002 0.0
O53 O 0.02761 0.09815 0.48952 0.0
O54 O 0.09057 0.01598 0.62255 0.0
O55 O 0.15522 0.07152 0.56153 0.0
O56 O 0.07371 0.1187 0.53983 0.0
C57 C 0.06318 0.13606 0.50521 0.0
O58 O 0.93922 0.05224 0.57303 0.0
O59 O 0.99457 0.03765 0.61412 0.0
O60 O 0.00286 0.92973 0.58813 0.0
O61 O 0.85953 0.97774 0.52965 0.0
O62 O 0.92684 0.01678 0.46906 0.0
O63 O 0.91599 0.92187 0.57819 0.0
C64 C 0.18862 0.03128 0.61342 0.0
C65 C 0.24834 0.06289 0.58905 0.0
C66 C 0.21584 -0.01066 0.67009 0.0
C67 C 0.29167 0.05999 0.60583 0.0
C68 C 0.17243 -0.00786 0.65328 0.0
C69 C 0.27617 0.02625 0.64743 0.0
C70 C 0.14656 0.04851 0.60117 0.0
C71 C 0.9556 0.05304 0.60716 0.0
H72 H 0.89763 0.94521 0.42664 0.0
H73 H 0.68213 0.86842 0.48568 0.0
H74 H 0.82862 0.87841 0.39705 0.0
H75 H 0.75133 0.93535 0.51517 0.0
H76 H 0.2622 0.09341 0.55825 0.0
H77 H 0.20204 0.96086 0.70163 0.0
H78 H 0.33781 0.08823 0.58744 0.0
H79 H 0.12665 0.96676 0.67275 0.0
Zn80 Zn 0.31871 0.73871 0.20464 0.0
Zn81 Zn 0.28662 0.68875 0.37226 0.0
Zn82 Zn 0.3042 0.71514 0.28784 0.0
C83 C 0.40902 0.74031 0.32884 0.0
C84 C 0.22977 0.58155 0.35602 0.0
O85 O 0.26678 0.7728 0.27087 0.0
O86 O 0.28803 0.79537 0.20185 0.0
C87 C 0.43137 0.77381 0.21332 0.0
O88 O 0.39102 0.74107 0.2962 0.0
O89 O 0.37314 0.72214 0.36507 0.0
O90 O 0.23855 0.60149 0.38655 0.0
O91 O 0.24938 0.61734 0.31861 0.0
O92 O 0.40544 0.76728 0.18544 0.0
O93 O 0.40116 0.75782 0.25216 0.0
O94 O 0.24755 0.63266 0.27715 0.0
O95 O 0.26039 0.65641 0.20882 0.0
C96 C 0.23468 0.61863 0.24468 0.0
O97 O 0.2674 0.76669 0.31302 0.0
O98 O 0.24882 0.73743 0.38185 0.0
C99 C 0.26459 0.79949 0.23611 0.0
C100 C 0.24809 0.76936 0.34971 0.0
Zn101 Zn 0.66911 0.28964 0.88862 0.0
Zn102 Zn 0.73046 0.34043 0.72067 0.0
Zn103 Zn 0.7038 0.31466 0.80397 0.0
C104 C 0.77199 0.448 0.73537 0.0
C105 C 0.60799 0.26346 0.75546 0.0
O106 O 0.74041 0.25961 0.83005 0.0
O107 O 0.69853 0.23262 0.89854 0.0
C108 C 0.75286 0.4122 0.8499 0.0
O109 O 0.75577 0.41301 0.77266 0.0
O110 O 0.76292 0.42703 0.70533 0.0
O111 O 0.64804 0.28737 0.72058 0.0
O112 O 0.62098 0.27261 0.78901 0.0
O113 O 0.72354 0.37352 0.8853 0.0
O114 O 0.74861 0.39839 0.81593 0.0
O115 O 0.60532 0.274 0.83001 0.0
O116 O 0.58242 0.25968 0.89844 0.0
C117 C 0.56648 0.25704 0.86573 0.0
O118 O 0.75107 0.26869 0.78573 0.0
O119 O 0.78546 0.30785 0.71673 0.0
C120 C 0.7317 0.23065 0.86776 0.0
C121 C 0.78199 0.27399 0.74978 0.0
H122 H 0.1266 0.00862 0.12912 0.0
C123 C 0.0794 0.97859 0.1363 0.0
H124 H 0.00762 0.89417 0.17071 0.0
H125 H 0.16435 0.77236 0.17337 0.0
H126 H 0.0975 0.72169 0.13609 0.0
H127 H 0.02817 0.75347 0.11745 0.0
H128 H 0.02461 0.83527 0.13649 0.0
C129 C 0.05455 0.92474 0.16399 0.0
C130 C 0.09218 0.90212 0.17943 0.0
C131 C 0.09372 0.8541 0.16786 0.0
C132 C 0.13489 0.83685 0.17751 0.0
C133 C 0.13503 0.78833 0.16593 0.0
C134 C 0.09669 0.75862 0.14467 0.0
C135 C 0.05758 0.7764 0.13428 0.0
C136 C 0.05596 0.82354 0.14556 0.0
H137 H 0.19822 0.82116 0.26617 0.0
C138 C 0.22792 0.82845 0.23644 0.0
H139 H 0.25339 0.86163 0.17071 0.0
H140 H 0.09203 -0.01301 0.21405 0.0
H141 H 0.15872 0.03737 0.2518 0.0
H142 H 0.23446 0.01175 0.26451 0.0
H143 H 0.24359 0.93516 0.24008 0.0
C144 C 0.22485 0.85621 0.20039 0.0
C145 C 0.17536 0.86824 0.19796 0.0
C146 C 0.17147 0.91388 0.2118 0.0
C147 C 0.1291 0.93013 0.20315 0.0
C148 C 0.12485 0.97453 0.21843 0.0
C149 C 0.16262 0.00353 0.2403 0.0
C150 C 0.2052 -0.011 0.24754 0.0
C151 C 0.20985 0.9448 0.23347 0.0
H152 H 0.3693 0.06211 0.64668 0.0
C153 C 0.32396 0.03796 0.66743 0.0
H154 H 0.27093 0.01234 0.72992 0.0
H155 H 0.56224 0.1298 0.71511 0.0
H156 H 0.55545 0.04216 0.69904 0.0
H157 H 0.46129 0.96514 0.69494 0.0
H158 H 0.37338 0.97564 0.70669 0.0
C159 C 0.3153 0.03313 0.7085 0.0
C160 C 0.36594 0.06934 0.72272 0.0
C161 C 0.41621 0.06181 0.71698 0.0
C162 C 0.4701 0.10584 0.7198 0.0
C163 C 0.52017 0.09786 0.71302 0.0
C164 C 0.51681 0.04764 0.70398 0.0
C165 C 0.46382 0.00429 0.70164 0.0
C166 C 0.4139 0.01101 0.70813 0.0
H167 H 0.51414 0.19818 0.78947 0.0
C168 C 0.54678 0.22094 0.75868 0.0
H169 H 0.56492 0.22668 0.69458 0.0
H170 H 0.27395 0.09135 0.74405 0.0
H171 H 0.27859 0.17472 0.76547 0.0
H172 H 0.37237 0.25161 0.76996 0.0
H173 H 0.46202 0.24562 0.75278 0.0
C174 C 0.53182 0.2064 0.72519 0.0
C175 C 0.47313 0.15671 0.72917 0.0
C176 C 0.42118 0.16124 0.73932 0.0
C177 C 0.36723 0.11711 0.7364 0.0
C178 C 0.3162 0.12331 0.7457 0.0
C179 C 0.3182 0.1711 0.75805 0.0
C180 C 0.37095 0.21433 0.76063 0.0
C181 C 0.42211 0.21008 0.75095 0.0
H182 H 0.0479 0.39097 0.13322 0.0
C183 C 0.0251 0.3443 0.15063 0.0
H184 H 0.99277 0.28355 0.21105 0.0
H185 H 0.21303 0.47412 0.24809 0.0
H186 H 0.22199 0.38668 0.26529 0.0
H187 H 0.14751 0.29258 0.25995 0.0
H188 H 0.06424 0.28581 0.23643 0.0
C189 C 0.01268 0.3292 0.19264 0.0
C190 C 0.0414 0.37605 0.21212 0.0
C191 C 0.0878 0.37803 0.22835 0.0
C192 C 0.13 0.43194 0.23243 0.0
C193 C 0.1787 0.43413 0.24546 0.0
C194 C 0.18454 0.38419 0.25538 0.0
C195 C 0.14274 0.33127 0.25218 0.0
C196 C 0.09513 0.32807 0.23851 0.0
H197 H 0.16302 0.52815 0.28099 0.0
C198 C 0.18775 0.5587 0.24971 0.0
H199 H 0.19589 0.57275 0.18527 0.0
H200 H 0.94766 0.38047 0.19281 0.0
H201 H 0.93364 0.46603 0.18065 0.0
H202 H 0.00675 0.55996 0.18748 0.0
H203 H 0.09394 0.56891 0.20669 0.0
C204 C 0.17357 0.54184 0.21669 0.0
C205 C 0.12417 0.48278 0.22149 0.0
C206 C 0.07334 0.47836 0.2108 0.0
C207 C 0.03156 0.42464 0.20649 0.0
C208 C 0.98115 0.42101 0.19564 0.0
C209 C 0.97252 0.46952 0.18885 0.0
C210 C 0.01367 0.5224 0.19273 0.0
C211 C 0.0636 0.52704 0.20358 0.0
H212 H 0.96808 0.10666 0.65024 0.0
C213 C 0.93621 0.08002 0.63615 0.0
H214 H 0.8514 0.04904 0.62881 0.0
H215 H 0.88433 0.20429 0.76903 0.0
H216 H 0.90555 0.13471 0.80943 0.0
H217 H 0.90427 0.05234 0.78538 0.0
H218 H 0.88565 0.04122 0.71937 0.0
C219 C 0.88294 0.07636 0.64279 0.0
C220 C 0.86986 0.11647 0.66266 0.0
C221 C 0.87573 0.11918 0.70302 0.0
C222 C 0.87146 0.16369 0.71864 0.0
C223 C 0.88366 0.16925 0.7569 0.0
C224 C 0.89606 0.12976 0.78034 0.0
C225 C 0.89589 0.08366 0.7666 0.0
C226 C 0.88576 0.07815 0.72846 0.0
H227 H 0.78177 0.18989 0.76759 0.0
C228 C 0.80598 0.23413 0.74565 0.0
H229 H 0.87326 0.29265 0.68983 0.0
H230 H 0.85548 0.12399 0.58399 0.0
H231 H 0.8257 0.18732 0.54684 0.0
H232 H 0.80697 0.25663 0.57759 0.0
H233 H 0.81902 0.2636 0.64536 0.0
C234 C 0.84969 0.24809 0.71131 0.0
C235 C 0.85611 0.20199 0.69556 0.0
C236 C 0.84625 0.19663 0.6565 0.0
C237 C 0.85449 0.15486 0.63959 0.0
C238 C 0.84782 0.15317 0.59932 0.0
C239 C 0.83087 0.18956 0.5774 0.0
C240 C 0.82057 0.22871 0.59462 0.0
C241 C 0.82807 0.23244 0.6336 0.0
H242 H 0.83202 -0.00524 0.15979 0.0
C243 C 0.83426 0.97221 0.13651 0.0
H244 H 0.78631 0.90687 0.11024 0.0
H245 H 0.54537 0.74322 0.24287 0.0
H246 H 0.59311 0.68474 0.25324 0.0
H247 H 0.70081 0.72838 0.22167 0.0
H248 H 0.76127 0.83101 0.17949 0.0
C249 C 0.78383 0.93018 0.13295 0.0
C250 C 0.72305 0.9097 0.1605 0.0
C251 C 0.68818 0.85002 0.18578 0.0
C252 C 0.6262 0.82519 0.20474 0.0
C253 C 0.59264 0.76491 0.22859 0.0
C254 C 0.61951 0.73064 0.23461 0.0
C255 C 0.6801 0.75516 0.21677 0.0
C256 C 0.7142 0.81401 0.19246 0.0
H257 H 0.51473 0.7876 0.1732 0.0
C258 C 0.49625 0.79741 0.20007 0.0
H259 H 0.51618 0.84915 0.24088 0.0
H260 H 0.77655 0.02658 0.11568 0.0
H261 H 0.73056 0.08741 0.1109 0.0
H262 H 0.62447 0.04587 0.1472 0.0
H263 H 0.56351 0.94282 0.18803 0.0
C264 C 0.53345 0.83428 0.21683 0.0
C265 C 0.59921 0.86069 0.19963 0.0
C266 C 0.635 0.92163 0.17728 0.0
C267 C 0.6967 0.94598 0.15706 0.0
C268 C 0.73012 0.00601 0.13266 0.0
C269 C 0.70415 0.04148 0.12946 0.0
C270 C 0.6444 0.01808 0.14986 0.0
C271 C 0.60994 0.95884 0.17327 0.0
H272 H 0.86814 0.80896 0.61517 0.0
C273 C 0.91322 0.83473 0.61602 0.0
H274 H 0.98359 0.83243 0.63563 0.0
H275 H 0.73984 0.56791 0.73832 0.0
H276 H 0.70007 0.62113 0.77134 0.0
H277 H 0.75657 0.72957 0.75253 0.0
H278 H 0.85217 0.7856 0.699 0.0
C279 C 0.93814 0.80718 0.63537 0.0
C280 C 0.90783 0.74139 0.65198 0.0
C281 C 0.85364 0.70901 0.68511 0.0
C282 C 0.82272 0.64613 0.69788 0.0
C283 C 0.76655 0.61537 0.72866 0.0
C284 C 0.743 0.64545 0.74777 0.0
C285 C 0.77466 0.70652 0.73701 0.0
C286 C 0.82931 0.73816 0.70605 0.0
H287 H 0.81283 0.53097 0.75244 0.0
C288 C 0.80139 0.51288 0.7273 0.0
H289 H 0.80401 0.53223 0.66377 0.0
H290 H 0.01191 0.78927 0.5888 0.0
H291 H 0.0547 0.73618 0.55875 0.0
H292 H 0.00439 0.62763 0.58397 0.0
H293 H 0.91058 0.5715 0.63916 0.0
C294 C 0.81422 0.54988 0.68945 0.0
C295 C 0.84768 0.61557 0.67916 0.0
C296 C 0.90346 0.64808 0.64765 0.0
C297 C 0.93323 0.71084 0.63381 0.0
C298 C 0.98779 0.74172 0.6012 0.0
C299 C 0.01289 0.71177 0.58352 0.0
C300 C 0.98452 0.65068 0.59766 0.0
C301 C 0.9305 0.61899 0.62928 0.0
H302 H 0.04425 0.90821 0.46117 0.0
C303 C 0.07596 0.9503 0.46352 0.0
H304 H 0.16586 0.01493 0.44721 0.0
H305 H 0.26153 0.8375 0.43897 0.0
H306 H 0.29661 0.87812 0.49295 0.0
H307 H 0.26721 0.94542 0.51779 0.0
H308 H 0.20343 0.97314 0.48841 0.0
C309 C 0.13403 0.97303 0.44474 0.0
C310 C 0.15632 0.9373 0.42636 0.0
C311 C 0.19345 0.92126 0.44421 0.0
C312 C 0.20888 0.88103 0.43084 0.0
C313 C 0.24694 0.86658 0.44871 0.0
C314 C 0.26772 0.88981 0.47963 0.0
C315 C 0.25129 0.92779 0.49353 0.0
C316 C 0.21462 0.94343 0.47623 0.0
H317 H 0.2424 0.84979 0.32734 0.0
C318 C 0.22811 0.81227 0.35432 0.0
H319 H 0.18263 0.77001 0.4186 0.0
H320 H 0.0959 0.96902 0.37914 0.0
H321 H 0.05836 0.92647 0.3263 0.0
H322 H 0.0768 0.84938 0.30794 0.0
H323 H 0.13357 0.8151 0.34165 0.0
C324 C 0.19603 0.8074 0.39175 0.0
C325 C 0.18599 0.85564 0.40042 0.0
C326 C 0.1508 0.87346 0.3813 0.0
C327 C 0.13744 0.91568 0.39347 0.0
C328 C 0.10487 0.93507 0.37246 0.0
C329 C 0.08343 0.91131 0.34191 0.0
C330 C 0.09397 0.86803 0.33148 0.0
C331 C 0.12713 0.84909 0.35087 0.0
H332 H 0.18582 0.04949 0.97104 0.0
C333 C 0.1708 0.08157 0.96763 0.0
H334 H 0.195 0.17029 0.94195 0.0
H335 H 0.45892 0.27933 0.94463 0.0
H336 H 0.41798 0.31985 0.99095 0.0
H337 H 0.31116 0.28698 1.01091 0.0
H338 H 0.24487 0.21412 0.98434 0.0
C339 C 0.20973 0.13799 0.94491 0.0
C340 C 0.27496 0.15981 0.93041 0.0
C341 C 0.31318 0.20219 0.94669 0.0
C342 C 0.37455 0.21989 0.93621 0.0
C343 C 0.41172 0.26309 0.95238 0.0
C344 C 0.38888 0.28699 0.97888 0.0
C345 C 0.32879 0.2686 0.99002 0.0
C346 C 0.2912 0.22672 0.97433 0.0
H347 H 0.49268 0.24749 0.83969 0.0
C348 C 0.5035 0.23669 0.86824 0.0
H349 H 0.4715 0.19766 0.93364 0.0
H350 H 0.21724 0.08707 0.88714 0.0
H351 H 0.25775 0.04463 0.842 0.0
H352 H 0.36192 0.06826 0.829 0.0
H353 H 0.42661 0.13548 0.86003 0.0
C354 C 0.46018 0.20735 0.90511 0.0
C355 C 0.39775 0.19432 0.91026 0.0
C356 C 0.36004 0.15341 0.89279 0.0
C357 C 0.29896 0.13731 0.90206 0.0
C358 C 0.2631 0.09868 0.88262 0.0
C359 C 0.28589 0.07431 0.85647 0.0
C360 C 0.34463 0.08782 0.849 0.0
C361 C 0.38145 0.12683 0.86685 0.0
H362 H 0.11816 0.22962 0.50015 0.0
C363 C 0.09031 0.20018 0.4852 0.0
H364 H 0.05235 0.19531 0.43537 0.0
H365 H 0.08944 0.45067 0.45325 0.0
H366 H -0.00269 0.38914 0.50971 0.0
H367 H 0.95299 0.28107 0.53245 0.0
H368 H 2e-05 0.23362 0.49854 0.0
C369 C 0.07983 0.2234 0.45113 0.0
C370 C 0.10433 0.28838 0.43505 0.0
C371 C 0.07603 0.31546 0.45485 0.0
C372 C 0.10201 0.37792 0.44194 0.0
C373 C 0.07235 0.40356 0.46221 0.0
C374 C 0.01923 0.36874 0.49454 0.0
C375 C 0.9942 0.30785 0.5073 0.0
C376 C 0.02187 0.28124 0.48769 0.0
H377 H 0.18856 0.49984 0.33754 0.0
C378 C 0.19901 0.51685 0.36332 0.0
H379 H 0.19689 0.49568 0.42664 0.0
H380 H 0.16624 0.24993 0.38796 0.0
H381 H 0.25988 0.31096 0.33261 0.0
H382 H 0.30851 0.41939 0.31298 0.0
H383 H 0.26355 0.46749 0.34767 0.0
C384 C 0.18691 0.47898 0.40056 0.0
C385 C 0.15662 0.41351 0.40942 0.0
C386 C 0.18427 0.38618 0.38895 0.0
C387 C 0.15734 0.32351 0.40128 0.0
C388 C 0.18533 0.29728 0.38015 0.0
C389 C 0.23904 0.33175 0.34841 0.0
C390 C 0.26636 0.39281 0.33731 0.0
C391 C 0.23966 0.41992 0.35729 0.0
H392 H 0.94254 0.05529 0.92672 0.0
C393 C 0.93853 0.07099 0.95378 0.0
H394 H 0.91186 0.12273 0.98229 0.0
H395 H 0.91238 0.29992 0.83946 0.0
H396 H 0.00395 0.36183 0.85246 0.0
H397 H 0.048 0.31822 0.89586 0.0
H398 H 0.00036 0.21223 0.92677 0.0
C399 C 0.91438 0.10602 0.95559 0.0
C400 C 0.89589 0.12933 0.92085 0.0
C401 C 0.92522 0.19116 0.90164 0.0
C402 C 0.90027 0.21626 0.87606 0.0
C403 C 0.92944 0.27835 0.85885 0.0
C404 C 0.98215 0.31448 0.86603 0.0
C405 C 0.00692 0.28994 0.8905 0.0
C406 C 0.97898 0.22908 0.9082 0.0
H407 H 0.74333 0.16533 0.90871 0.0
C408 C 0.76103 0.1959 0.87725 0.0
H409 H 0.83321 0.23958 0.82202 0.0
H410 H 0.83047 0.00844 0.9492 0.0
H411 H 0.74461 0.94651 0.93024 0.0
H412 H 0.70582 -0.00975 0.88188 0.0
H413 H 0.7522 0.09669 0.85291 0.0
C414 C 0.81228 0.20592 0.85223 0.0
C415 C 0.84601 0.1794 0.86955 0.0
C416 C 0.82055 0.11732 0.88461 0.0
C417 C 0.84469 0.09213 0.911 0.0
C418 C 0.81551 0.03006 0.92791 0.0
C419 C 0.76595 -0.00607 0.91738 0.0
C420 C 0.74397 0.01855 0.89026 0.0
C421 C 0.77064 0.07953 0.87411 0.0
H422 H 0.65965 0.8115 0.43771 0.0
C423 C 0.7061 0.83328 0.41937 0.0
H424 H 0.76425 0.85722 0.35892 0.0
H425 H 0.47404 0.66187 0.3945 0.0
H426 H 0.49165 0.59027 0.4365 0.0
H427 H 0.59129 0.61792 0.44346 0.0
H428 H 0.67405 0.71774 0.40829 0.0
C429 C 0.71897 0.83287 0.37933 0.0
C430 C 0.66936 0.80892 0.36103 0.0
C431 C 0.62228 0.75043 0.38038 0.0
C432 C 0.56522 0.73468 0.37621 0.0
C433 C 0.51833 0.6763 0.39695 0.0
C434 C 0.52791 0.63479 0.42097 0.0
C435 C 0.58401 0.65035 0.42491 0.0
C436 C 0.63088 0.70756 0.4049 0.0
H437 H 0.49928 0.76398 0.29431 0.0
C438 C 0.47148 0.75791 0.32417 0.0
H439 H 0.4662 0.75621 0.38696 0.0
H440 H 0.75569 0.91709 0.30785 0.0
H441 H 0.74094 -0.01329 0.26096 0.0
H442 H 0.64074 0.96276 0.25727 0.0
H443 H 0.55522 0.86879 0.2993 0.0
C444 C 0.4942 0.76466 0.35613 0.0
C445 C 0.55586 0.77751 0.35228 0.0
C446 C 0.60497 0.83351 0.32797 0.0
C447 C 0.66238 0.84845 0.33147 0.0
C448 C 0.71104 0.90421 0.30691 0.0
C449 C 0.70319 0.94443 0.27985 0.0
C450 C 0.64679 0.93084 0.27764 0.0
C451 C 0.59803 0.87637 0.30168 0.0
H452 H 0.91974 0.65574 0.96249 0.0
C453 C 0.9404 0.70143 0.94333 0.0
H454 H 0.97002 0.75707 0.881 0.0
H455 H 0.88639 0.47277 0.8934 0.0
H456 H 0.97734 0.4922 0.91062 0.0
H457 H 0.04476 0.59026 0.91507 0.0
H458 H 0.02131 0.66948 0.90245 0.0
C459 C 0.9496 0.71255 0.90173 0.0
C460 C 0.92204 0.66221 0.88504 0.0
C461 C 0.9373 0.61726 0.89102 0.0
C462 C 0.89884 0.56115 0.888 0.0
C463 C 0.9141 0.51629 0.89542 0.0
C464 C 0.96622 0.52691 0.90519 0.0
C465 C 0.00416 0.58211 0.90773 0.0
C466 C 0.9901 0.62698 0.90072 0.0
H467 H 0.81995 0.50529 0.81661 0.0
C468 C 0.79393 0.47331 0.84723 0.0
H469 H 0.77838 0.45817 0.91253 0.0
H470 H 0.8875 0.74352 0.86232 0.0
H471 H 0.79952 0.72604 0.84148 0.0
H472 H 0.73102 0.62783 0.83811 0.0
H473 H 0.75095 0.54707 0.85413 0.0
C474 C 0.80173 0.48994 0.88146 0.0
C475 C 0.84595 0.55077 0.87814 0.0
C476 C 0.83398 0.59765 0.86767 0.0
C477 C 0.8727 0.65386 0.8706 0.0
C478 C 0.85933 0.6998 0.86091 0.0
C479 C 0.80903 0.69041 0.84885 0.0
C480 C 0.77061 0.63518 0.84673 0.0
C481 C 0.78264 0.58916 0.85602 0.0
loop_
_geom_bond_atom_site_label_1
_geom_bond_atom_site_label_2
_geom_bond_distance
_geom_bond_site_symmetry_2
_ccdc_geom_bond_type
Eu0 C9 2.828 . S
Eu0 O11 2.392 1_545 S
Eu0 O13 2.418 1_455 S
Eu0 O18 2.373 1_455 S
Eu0 O21 2.488 . S
Eu0 O22 2.471 . S
Eu0 O23 2.349 1_554 S
Eu1 O10 2.373 1_656 S
Eu1 O14 2.488 1_655 S
Eu1 O15 2.471 . S
Eu1 O16 2.349 1_556 S
Eu1 O19 2.392 1_565 S
Eu1 O20 2.418 1_665 S
Eu1 C30 2.828 . S
C2 O20 1.244 . S
C2 O23 1.265 . S
C3 C4 1.379 . S
C3 C7 1.373 . S
C3 C9 1.505 . S
C4 C3 1.379 . S
C4 C6 1.369 . S
C4 H32 0.930 . S
C5 C7 1.383 . S
C5 C8 1.382 . S
C5 H33 0.930 . S
C6 C4 1.369 . S
C6 C8 1.392 . S
C6 H34 0.930 . S
C7 C3 1.373 . S
C7 C5 1.383 . S
C7 H35 0.931 . S
C8 C5 1.382 . S
C8 C6 1.392 . S
C9 Eu0 2.828 . S
C9 C3 1.505 . S
C9 O21 1.249 . S
C9 O22 1.244 . S
O10 Eu1 2.373 1_454 S
O10 C12 1.258 . S
O11 Eu0 2.392 1_565 S
O11 C12 1.242 . S
C12 O10 1.258 . S
C12 O11 1.242 . S
O13 Eu0 2.418 1_655 S
O13 C17 1.244 1_545 S
O14 Eu1 2.488 1_455 S
O14 C30 1.249 1_455 S
O15 Eu1 2.471 . S
O15 C30 1.244 . S
O16 Eu1 2.349 1_554 S
O16 C17 1.265 . S
C17 O13 1.244 1_565 S
C17 O16 1.265 . S
O18 Eu0 2.373 1_655 S
O18 C31 1.258 1_554 S
O19 Eu1 2.392 1_545 S
O19 C31 1.242 . S
O20 Eu1 2.418 1_445 S
O20 C2 1.244 . S
O21 Eu0 2.488 . S
O21 C9 1.249 . S
O22 Eu0 2.471 . S
O22 C9 1.244 . S
O23 Eu0 2.349 1_556 S
O23 C2 1.265 . S
C24 C25 1.379 . S
C24 C28 1.373 . S
C24 C30 1.505 . S
C25 C24 1.379 . S
C25 C27 1.369 . S
C25 H36 0.930 1_556 S
C26 C28 1.383 . S
C26 C29 1.382 . S
C26 H37 0.930 . S
C27 C25 1.369 . S
C27 C29 1.392 . S
C27 H38 0.930 1_556 S
C28 C24 1.373 . S
C28 C26 1.383 . S
C28 H39 0.931 1_655 S
C29 C26 1.382 . S
C29 C27 1.392 . S
C30 Eu1 2.828 . S
C30 O14 1.249 1_655 S
C30 O15 1.244 . S
C30 C24 1.505 . S
C31 O18 1.258 1_556 S
C31 O19 1.242 . S
H32 C4 0.930 . S
H33 C5 0.930 . S
H34 C6 0.930 . S
H35 C7 0.931 . S
H36 C25 0.930 1_554 S
H37 C26 0.930 . S
H38 C27 0.930 1_554 S
H39 C28 0.931 1_455 S
Eu40 C49 2.828 . S
Eu40 O51 2.392 1_655 S
Eu40 O53 2.418 1_665 S
Eu40 O58 2.373 1_565 S
Eu40 O61 2.488 1_565 S
Eu40 O62 2.471 . S
Eu40 O63 2.349 . S
Eu41 O50 2.357 1_545 S
Eu41 O54 2.488 . S
Eu41 O55 2.471 . S
Eu41 O56 2.349 . S
Eu41 O59 2.392 1_455 S
Eu41 O60 2.418 1_445 S
Eu41 C70 2.828 . S
C42 O60 1.244 . S
C42 O63 1.265 . S
C43 C44 1.379 . S
C43 C47 1.373 . S
C43 C49 1.505 . S
C44 C43 1.379 . S
C44 C46 1.369 . S
C44 H72 0.930 . S
C45 C47 1.383 . S
C45 C48 1.382 . S
C45 H73 0.930 . S
C46 C44 1.369 . S
C46 C48 1.392 . S
C46 H74 0.930 . S
C47 C43 1.373 . S
C47 C45 1.383 . S
C47 H75 0.931 1_565 S
C48 C45 1.382 . S
C48 C46 1.392 . S
C49 Eu40 2.828 . S
C49 C43 1.505 . S
C49 O61 1.249 1_565 S
C49 O62 1.244 . S
O50 Eu41 2.357 1_565 S
O50 C52 1.264 . S
O51 Eu40 2.392 1_455 S
O51 C52 1.242 . S
C52 O50 1.264 . S
C52 O51 1.242 . S
O53 Eu40 2.418 1_445 S
O53 C57 1.244 . S
O54 Eu41 2.488 . S
O54 C70 1.249 . S
O55 Eu41 2.471 . S
O55 C70 1.244 . S
O56 Eu41 2.349 . S
O56 C57 1.265 . S
C57 O53 1.244 . S
C57 O56 1.265 . S
O58 Eu40 2.373 1_545 S
O58 C71 1.258 . S
O59 Eu41 2.392 1_655 S
O59 C71 1.242 . S
O60 Eu41 2.418 1_665 S
O60 C42 1.244 . S
O61 Eu40 2.488 1_545 S
O61 C49 1.249 1_545 S
O62 Eu40 2.471 . S
O62 C49 1.244 . S
O63 Eu40 2.349 . S
O63 C42 1.265 . S
C64 C65 1.379 . S
C64 C68 1.373 . S
C64 C70 1.505 . S
C65 C64 1.379 . S
C65 C67 1.369 . S
C65 H76 0.930 . S
C66 C68 1.383 . S
C66 C69 1.382 . S
C66 H77 0.930 . S
C67 C65 1.369 . S
C67 C69 1.392 . S
C67 H78 0.930 . S
C68 C64 1.373 . S
C68 C66 1.383 . S
C68 H79 0.931 . S
C69 C66 1.382 . S
C69 C67 1.392 . S
C70 Eu41 2.828 . S
C70 O54 1.249 . S
C70 O55 1.244 . S
C70 C64 1.505 . S
C71 O58 1.258 . S
C71 O59 1.242 . S
H72 C44 0.930 . S
H73 C45 0.930 . S
H74 C46 0.930 . S
H75 C47 0.931 1_545 S
H76 C65 0.930 . S
H77 C66 0.930 . S
H78 C67 0.930 . S
H79 C68 0.931 . S
Zn80 O86 1.920 . S
Zn80 O92 1.898 . S
Zn80 O95 1.905 . S
Zn81 O89 1.905 . S
Zn81 O90 1.898 . S
Zn81 O98 1.920 . S
Zn82 O85 2.080 . S
Zn82 O88 2.114 . S
Zn82 O91 2.120 . S
Zn82 O93 2.120 . S
Zn82 O94 2.114 . S
Zn82 O97 2.080 . S
C83 O88 1.166 . S
C83 O89 1.182 . S
C84 O90 1.167 . S
C84 O91 1.299 . S
O85 Zn82 2.080 . S
O85 C99 1.305 . S
O86 Zn80 1.920 . S
O86 C99 1.234 . S
C87 O92 1.167 . S
C87 O93 1.299 . S
O88 Zn82 2.114 . S
O88 C83 1.166 . S
O89 Zn81 1.905 . S
O89 C83 1.182 . S
O90 Zn81 1.898 . S
O90 C84 1.167 . S
O91 Zn82 2.120 . S
O91 C84 1.299 . S
O92 Zn80 1.898 . S
O92 C87 1.167 . S
O93 Zn82 2.120 . S
O93 C87 1.299 . S
O94 Zn82 2.114 . S
O94 C96 1.166 . S
O95 Zn80 1.905 . S
O95 C96 1.182 . S
C96 O94 1.166 . S
C96 O95 1.182 . S
O97 Zn82 2.080 . S
O97 C100 1.305 . S
O98 Zn81 1.920 . S
O98 C100 1.234 . S
C99 O85 1.305 . S
C99 O86 1.234 . S
C100 O97 1.305 . S
C100 O98 1.234 . S
Zn101 O107 1.920 . S
Zn101 O113 1.898 . S
Zn101 O116 1.905 . S
Zn102 O110 1.905 . S
Zn102 O111 1.898 . S
Zn102 O119 1.920 . S
Zn103 O106 2.080 . S
Zn103 O109 2.114 . S
Zn103 O112 2.120 . S
Zn103 O114 2.120 . S
Zn103 O115 2.114 . S
Zn103 O118 2.080 . S
C104 O109 1.166 . S
C104 O110 1.182 . S
C105 O111 1.167 . S
C105 O112 1.299 . S
O106 Zn103 2.080 . S
O106 C120 1.305 . S
O107 Zn101 1.920 . S
O107 C120 1.234 . S
C108 O113 1.167 . S
C108 O114 1.299 . S
O109 Zn103 2.114 . S
O109 C104 1.166 . S
O110 Zn102 1.905 . S
O110 C104 1.182 . S
O111 Zn102 1.898 . S
O111 C105 1.167 . S
O112 Zn103 2.120 . S
O112 C105 1.299 . S
O113 Zn101 1.898 . S
O113 C108 1.167 . S
O114 Zn103 2.120 . S
O114 C108 1.299 . S
O115 Zn103 2.114 . S
O115 C117 1.166 . S
O116 Zn101 1.905 . S
O116 C117 1.182 . S
C117 O115 1.166 . S
C117 O116 1.182 . S
O118 Zn103 2.080 . S
O118 C121 1.305 . S
O119 Zn102 1.920 . S
O119 C121 1.234 . S
C120 O106 1.305 . S
C120 O107 1.234 . S
C121 O118 1.305 . S
C121 O119 1.234 . S
H122 C123 0.951 . S
C123 H122 0.951 . S
C123 C129 1.265 . S
H124 C129 0.950 . S
H125 C133 0.949 . S
H126 C134 0.950 . S
H127 C135 0.951 1_655 S
H128 C136 0.951 . S
C129 C123 1.265 . S
C129 H124 0.950 . S
C129 C130 1.478 . S
C130 C129 1.478 . S
C130 C131 1.397 . S
C130 C147 1.394 . S
C131 C130 1.397 . S
C131 C132 1.438 . S
C131 C136 1.429 . S
C132 C131 1.438 . S
C132 C133 1.428 . S
C132 C145 1.394 . S
C133 H125 0.949 . S
C133 C132 1.428 . S
C133 C134 1.345 . S
C134 H126 0.950 . S
C134 C133 1.345 . S
C134 C135 1.424 . S
C135 H127 0.951 1_455 S
C135 C134 1.424 . S
C135 C136 1.347 . S
C136 H128 0.951 . S
C136 C131 1.429 . S
C136 C135 1.347 . S
H137 C138 0.951 . S
C138 H137 0.951 . S
C138 C144 1.265 . S
H139 C144 0.950 . S
H140 C148 0.949 . S
H141 C149 0.950 . S
H142 C150 0.951 1_545 S
H143 C151 0.951 . S
C144 C138 1.265 . S
C144 H139 0.950 . S
C144 C145 1.478 . S
C145 C132 1.394 . S
C145 C144 1.478 . S
C145 C146 1.397 . S
C146 C145 1.397 . S
C146 C147 1.438 . S
C146 C151 1.429 . S
C147 C130 1.394 . S
C147 C146 1.438 . S
C147 C148 1.428 . S
C148 H140 0.949 . S
C148 C147 1.428 . S
C148 C149 1.345 1_565 S
C149 H141 0.950 . S
C149 C148 1.345 1_545 S
C149 C150 1.424 1_545 S
C150 H142 0.951 1_565 S
C150 C149 1.424 1_565 S
C150 C151 1.347 . S
C151 H143 0.951 . S
C151 C146 1.429 . S
C151 C150 1.347 . S
H152 C153 0.951 . S
C153 H152 0.951 . S
C153 C159 1.265 . S
H154 C159 0.950 . S
H155 C163 0.949 . S
H156 C164 0.950 . S
H157 C165 0.951 . S
H158 C166 0.951 . S
C159 C153 1.265 . S
C159 H154 0.950 . S
C159 C160 1.478 . S
C160 C159 1.478 . S
C160 C161 1.397 . S
C160 C177 1.394 . S
C161 C160 1.397 . S
C161 C162 1.438 . S
C161 C166 1.429 . S
C162 C161 1.438 . S
C162 C163 1.428 . S
C162 C175 1.394 . S
C163 H155 0.949 . S
C163 C162 1.428 . S
C163 C164 1.345 . S
C164 H156 0.950 . S
C164 C163 1.345 . S
C164 C165 1.424 . S
C165 H157 0.951 . S
C165 C164 1.424 . S
C165 C166 1.347 . S
C166 H158 0.951 . S
C166 C161 1.429 . S
C166 C165 1.347 . S
H167 C168 0.951 . S
C168 H167 0.951 . S
C168 C174 1.265 . S
H169 C174 0.950 . S
H170 C178 0.949 . S
H171 C179 0.950 . S
H172 C180 0.951 . S
H173 C181 0.951 . S
C174 C168 1.265 . S
C174 H169 0.950 . S
C174 C175 1.478 . S
C175 C162 1.394 . S
C175 C174 1.478 . S
C175 C176 1.397 . S
C176 C175 1.397 . S
C176 C177 1.438 . S
C176 C181 1.429 . S
C177 C160 1.394 . S
C177 C176 1.438 . S
C177 C178 1.428 . S
C178 H170 0.949 . S
C178 C177 1.428 . S
C178 C179 1.345 . S
C179 H171 0.950 . S
C179 C178 1.345 . S
C179 C180 1.424 . S
C180 H172 0.951 . S
C180 C179 1.424 . S
C180 C181 1.347 . S
C181 H173 0.951 . S
C181 C176 1.429 . S
C181 C180 1.347 . S
H182 C183 0.951 . S
C183 H182 0.951 . S
C183 C189 1.265 . S
H184 C189 0.950 . S
H185 C193 0.949 . S
H186 C194 0.950 . S
H187 C195 0.951 . S
H188 C196 0.951 . S
C189 C183 1.265 . S
C189 H184 0.950 . S
C189 C190 1.478 . S
C190 C189 1.478 . S
C190 C191 1.397 . S
C190 C207 1.394 . S
C191 C190 1.397 . S
C191 C192 1.438 . S
C191 C196 1.429 . S
C192 C191 1.438 . S
C192 C193 1.428 . S
C192 C205 1.394 . S
C193 H185 0.949 . S
C193 C192 1.428 . S
C193 C194 1.345 . S
C194 H186 0.950 . S
C194 C193 1.345 . S
C194 C195 1.424 . S
C195 H187 0.951 . S
C195 C194 1.424 . S
C195 C196 1.347 . S
C196 H188 0.951 . S
C196 C191 1.429 . S
C196 C195 1.347 . S
H197 C198 0.951 . S
C198 H197 0.951 . S
C198 C204 1.265 . S
H199 C204 0.950 . S
H200 C208 0.949 . S
H201 C209 0.950 . S
H202 C210 0.951 . S
H203 C211 0.951 . S
C204 C198 1.265 . S
C204 H199 0.950 . S
C204 C205 1.478 . S
C205 C192 1.394 . S
C205 C204 1.478 . S
C205 C206 1.397 . S
C206 C205 1.397 . S
C206 C207 1.438 . S
C206 C211 1.429 . S
C207 C190 1.394 . S
C207 C206 1.438 . S
C207 C208 1.428 . S
C208 H200 0.949 . S
C208 C207 1.428 . S
C208 C209 1.345 . S
C209 H201 0.950 . S
C209 C208 1.345 . S
C209 C210 1.424 . S
C210 H202 0.951 . S
C210 C209 1.424 . S
C210 C211 1.347 . S
C211 H203 0.951 . S
C211 C206 1.429 . S
C211 C210 1.347 . S
H212 C213 0.951 . S
C213 H212 0.951 . S
C213 C219 1.265 . S
H214 C219 0.950 . S
H215 C223 0.949 . S
H216 C224 0.950 . S
H217 C225 0.951 . S
H218 C226 0.951 . S
C219 C213 1.265 . S
C219 H214 0.950 . S
C219 C220 1.478 . S
C220 C219 1.478 . S
C220 C221 1.397 . S
C220 C237 1.394 . S
C221 C220 1.397 . S
C221 C222 1.438 . S
C221 C226 1.429 . S
C222 C221 1.438 . S
C222 C223 1.428 . S
C222 C235 1.394 . S
C223 H215 0.949 . S
C223 C222 1.428 . S
C223 C224 1.345 . S
C224 H216 0.950 . S
C224 C223 1.345 . S
C224 C225 1.424 . S
C225 H217 0.951 . S
C225 C224 1.424 . S
C225 C226 1.347 . S
C226 H218 0.951 . S
C226 C221 1.429 . S
C226 C225 1.347 . S
H227 C228 0.951 . S
C228 H227 0.951 . S
C228 C234 1.265 . S
H229 C234 0.950 . S
H230 C238 0.949 . S
H231 C239 0.950 . S
H232 C240 0.951 . S
H233 C241 0.951 . S
C234 C228 1.265 . S
C234 H229 0.950 . S
C234 C235 1.478 . S
C235 C222 1.394 . S
C235 C234 1.478 . S
C235 C236 1.397 . S
C236 C235 1.397 . S
C236 C237 1.438 . S
C236 C241 1.429 . S
C237 C220 1.394 . S
C237 C236 1.438 . S
C237 C238 1.428 . S
C238 H230 0.949 . S
C238 C237 1.428 . S
C238 C239 1.345 . S
C239 H231 0.950 . S
C239 C238 1.345 . S
C239 C240 1.424 . S
C240 H232 0.951 . S
C240 C239 1.424 . S
C240 C241 1.347 . S
C241 H233 0.951 . S
C241 C236 1.429 . S
C241 C240 1.347 . S
H242 C243 0.951 . S
C243 H242 0.951 . S
C243 C249 1.265 . S
H244 C249 0.950 . S
H245 C253 0.949 . S
H246 C254 0.950 . S
H247 C255 0.951 . S
H248 C256 0.951 . S
C249 C243 1.265 . S
C249 H244 0.950 . S
C249 C250 1.478 . S
C250 C249 1.478 . S
C250 C251 1.397 . S
C250 C267 1.394 . S
C251 C250 1.397 . S
C251 C252 1.438 . S
C251 C256 1.429 . S
C252 C251 1.438 . S
C252 C253 1.428 . S
C252 C265 1.394 . S
C253 H245 0.949 . S
C253 C252 1.428 . S
C253 C254 1.345 . S
C254 H246 0.950 . S
C254 C253 1.345 . S
C254 C255 1.424 . S
C255 H247 0.951 . S
C255 C254 1.424 . S
C255 C256 1.347 . S
C256 H248 0.951 . S
C256 C251 1.429 . S
C256 C255 1.347 . S
H257 C258 0.951 . S
C258 H257 0.951 . S
C258 C264 1.265 . S
H259 C264 0.950 . S
H260 C268 0.949 . S
H261 C269 0.950 . S
H262 C270 0.951 . S
H263 C271 0.951 . S
C264 C258 1.265 . S
C264 H259 0.950 . S
C264 C265 1.478 . S
C265 C252 1.394 . S
C265 C264 1.478 . S
C265 C266 1.397 . S
C266 C265 1.397 . S
C266 C267 1.438 . S
C266 C271 1.429 . S
C267 C250 1.394 . S
C267 C266 1.438 . S
C267 C268 1.428 1_565 S
C268 H260 0.949 . S
C268 C267 1.428 1_545 S
C268 C269 1.345 . S
C269 H261 0.950 . S
C269 C268 1.345 . S
C269 C270 1.424 . S
C270 H262 0.951 . S
C270 C269 1.424 . S
C270 C271 1.347 1_545 S
C271 H263 0.951 . S
C271 C266 1.429 . S
C271 C270 1.347 1_565 S
H272 C273 0.951 . S
C273 H272 0.951 . S
C273 C279 1.265 . S
H274 C279 0.950 . S
H275 C283 0.949 . S
H276 C284 0.950 . S
H277 C285 0.951 . S
H278 C286 0.951 . S
C279 C273 1.265 . S
C279 H274 0.950 . S
C279 C280 1.478 . S
C280 C279 1.478 . S
C280 C281 1.397 . S
C280 C297 1.394 . S
C281 C280 1.397 . S
C281 C282 1.438 . S
C281 C286 1.429 . S
C282 C281 1.438 . S
C282 C283 1.428 . S
C282 C295 1.394 . S
C283 H275 0.949 . S
C283 C282 1.428 . S
C283 C284 1.345 . S
C284 H276 0.950 . S
C284 C283 1.345 . S
C284 C285 1.424 . S
C285 H277 0.951 . S
C285 C284 1.424 . S
C285 C286 1.347 . S
C286 H278 0.951 . S
C286 C281 1.429 . S
C286 C285 1.347 . S
H287 C288 0.951 . S
C288 H287 0.951 . S
C288 C294 1.265 . S
H289 C294 0.950 . S
H290 C298 0.949 . S
H291 C299 0.950 . S
H292 C300 0.951 . S
H293 C301 0.951 . S
C294 C288 1.265 . S
C294 H289 0.950 . S
C294 C295 1.478 . S
C295 C282 1.394 . S
C295 C294 1.478 . S
C295 C296 1.397 . S
C296 C295 1.397 . S
C296 C297 1.438 . S
C296 C301 1.429 . S
C297 C280 1.394 . S
C297 C296 1.438 . S
C297 C298 1.428 . S
C298 H290 0.949 . S
C298 C297 1.428 . S
C298 C299 1.345 . S
C299 H291 0.950 . S
C299 C298 1.345 . S
C299 C300 1.424 . S
C300 H292 0.951 . S
C300 C299 1.424 . S
C300 C301 1.347 . S
C301 H293 0.951 . S
C301 C296 1.429 . S
C301 C300 1.347 . S
H302 C303 0.951 . S
C303 H302 0.951 . S
C303 C309 1.265 . S
H304 C309 0.950 1_545 S
H305 C313 0.949 . S
H306 C314 0.950 . S
H307 C315 0.951 . S
H308 C316 0.951 . S
C309 C303 1.265 . S
C309 H304 0.950 1_565 S
C309 C310 1.478 . S
C310 C309 1.478 . S
C310 C311 1.397 . S
C310 C327 1.394 . S
C311 C310 1.397 . S
C311 C312 1.438 . S
C311 C316 1.429 . S
C312 C311 1.438 . S
C312 C313 1.428 . S
C312 C325 1.394 . S
C313 H305 0.949 . S
C313 C312 1.428 . S
C313 C314 1.345 . S
C314 H306 0.950 . S
C314 C313 1.345 . S
C314 C315 1.424 . S
C315 H307 0.951 . S
C315 C314 1.424 . S
C315 C316 1.347 . S
C316 H308 0.951 . S
C316 C311 1.429 . S
C316 C315 1.347 . S
H317 C318 0.951 . S
C318 H317 0.951 . S
C318 C324 1.265 . S
H319 C324 0.950 . S
H320 C328 0.949 . S
H321 C329 0.950 . S
H322 C330 0.951 . S
H323 C331 0.951 . S
C324 C318 1.265 . S
C324 H319 0.950 . S
C324 C325 1.478 . S
C325 C312 1.394 . S
C325 C324 1.478 . S
C325 C326 1.397 . S
C326 C325 1.397 . S
C326 C327 1.438 . S
C326 C331 1.429 . S
C327 C310 1.394 . S
C327 C326 1.438 . S
C327 C328 1.428 . S
C328 H320 0.949 . S
C328 C327 1.428 . S
C328 C329 1.345 . S
C329 H321 0.950 . S
C329 C328 1.345 . S
C329 C330 1.424 . S
C330 H322 0.951 . S
C330 C329 1.424 . S
C330 C331 1.347 . S
C331 H323 0.951 . S
C331 C326 1.429 . S
C331 C330 1.347 . S
H332 C333 0.951 . S
C333 H332 0.951 . S
C333 C339 1.265 . S
H334 C339 0.950 . S
H335 C343 0.949 . S
H336 C344 0.950 . S
H337 C345 0.951 . S
H338 C346 0.951 . S
C339 C333 1.265 . S
C339 H334 0.950 . S
C339 C340 1.478 . S
C340 C339 1.478 . S
C340 C341 1.397 . S
C340 C357 1.394 . S
C341 C340 1.397 . S
C341 C342 1.438 . S
C341 C346 1.429 . S
C342 C341 1.438 . S
C342 C343 1.428 . S
C342 C355 1.394 . S
C343 H335 0.949 . S
C343 C342 1.428 . S
C343 C344 1.345 . S
C344 H336 0.950 . S
C344 C343 1.345 . S
C344 C345 1.424 . S
C345 H337 0.951 . S
C345 C344 1.424 . S
C345 C346 1.347 . S
C346 H338 0.951 . S
C346 C341 1.429 . S
C346 C345 1.347 . S
H347 C348 0.951 . S
C348 H347 0.951 . S
C348 C354 1.265 . S
H349 C354 0.950 . S
H350 C358 0.949 . S
H351 C359 0.950 . S
H352 C360 0.951 . S
H353 C361 0.951 . S
C354 C348 1.265 . S
C354 H349 0.950 . S
C354 C355 1.478 . S
C355 C342 1.394 . S
C355 C354 1.478 . S
C355 C356 1.397 . S
C356 C355 1.397 . S
C356 C357 1.438 . S
C356 C361 1.429 . S
C357 C340 1.394 . S
C357 C356 1.438 . S
C357 C358 1.428 . S
C358 H350 0.949 . S
C358 C357 1.428 . S
C358 C359 1.345 . S
C359 H351 0.950 . S
C359 C358 1.345 . S
C359 C360 1.424 . S
C360 H352 0.951 . S
C360 C359 1.424 . S
C360 C361 1.347 . S
C361 H353 0.951 . S
C361 C356 1.429 . S
C361 C360 1.347 . S
H362 C363 0.951 . S
C363 H362 0.951 . S
C363 C369 1.265 . S
H364 C369 0.950 . S
H365 C373 0.949 . S
H366 C374 0.950 . S
H367 C375 0.951 . S
H368 C376 0.951 . S
C369 C363 1.265 . S
C369 H364 0.950 . S
C369 C370 1.478 . S
C370 C369 1.478 . S
C370 C371 1.397 . S
C370 C387 1.394 . S
C371 C370 1.397 . S
C371 C372 1.438 . S
C371 C376 1.429 . S
C372 C371 1.438 . S
C372 C373 1.428 . S
C372 C385 1.394 . S
C373 H365 0.949 . S
C373 C372 1.428 . S
C373 C374 1.345 . S
C374 H366 0.950 . S
C374 C373 1.345 . S
C374 C375 1.424 . S
C375 H367 0.951 . S
C375 C374 1.424 . S
C375 C376 1.347 . S
C376 H368 0.951 . S
C376 C371 1.429 . S
C376 C375 1.347 . S
H377 C378 0.951 . S
C378 H377 0.951 . S
C378 C384 1.265 . S
H379 C384 0.950 . S
H380 C388 0.949 . S
H381 C389 0.950 . S
H382 C390 0.951 . S
H383 C391 0.951 . S
C384 C378 1.265 . S
C384 H379 0.950 . S
C384 C385 1.478 . S
C385 C372 1.394 . S
C385 C384 1.478 . S
C385 C386 1.397 . S
C386 C385 1.397 . S
C386 C387 1.438 . S
C386 C391 1.429 . S
C387 C370 1.394 . S
C387 C386 1.438 . S
C387 C388 1.428 . S
C388 H380 0.949 . S
C388 C387 1.428 . S
C388 C389 1.345 . S
C389 H381 0.950 . S
C389 C388 1.345 . S
C389 C390 1.424 . S
C390 H382 0.951 . S
C390 C389 1.424 . S
C390 C391 1.347 . S
C391 H383 0.951 . S
C391 C386 1.429 . S
C391 C390 1.347 . S
H392 C393 0.951 . S
C393 H392 0.951 . S
C393 C399 1.265 . S
H394 C399 0.950 . S
H395 C403 0.949 . S
H396 C404 0.950 . S
H397 C405 0.951 . S
H398 C406 0.951 . S
C399 C393 1.265 . S
C399 H394 0.950 . S
C399 C400 1.478 . S
C400 C399 1.478 . S
C400 C401 1.397 . S
C400 C417 1.394 . S
C401 C400 1.397 . S
C401 C402 1.438 . S
C401 C406 1.429 . S
C402 C401 1.438 . S
C402 C403 1.428 . S
C402 C415 1.394 . S
C403 H395 0.949 . S
C403 C402 1.428 . S
C403 C404 1.345 . S
C404 H396 0.950 . S
C404 C403 1.345 . S
C404 C405 1.424 . S
C405 H397 0.951 . S
C405 C404 1.424 . S
C405 C406 1.347 . S
C406 H398 0.951 . S
C406 C401 1.429 . S
C406 C405 1.347 . S
H407 C408 0.951 . S
C408 H407 0.951 . S
C408 C414 1.265 . S
H409 C414 0.950 . S
H410 C418 0.949 . S
H411 C419 0.956 . S
H412 C420 0.951 . S
H413 C421 0.951 . S
C414 C408 1.265 . S
C414 H409 0.950 . S
C414 C415 1.478 . S
C415 C402 1.394 . S
C415 C414 1.478 . S
C415 C416 1.397 . S
C416 C415 1.397 . S
C416 C417 1.438 . S
C416 C421 1.429 . S
C417 C400 1.394 . S
C417 C416 1.438 . S
C417 C418 1.428 . S
C418 H410 0.949 . S
C418 C417 1.428 . S
C418 C419 1.345 . S
C419 H411 0.956 . S
C419 C418 1.345 . S
C419 C420 1.424 . S
C420 H412 0.951 . S
C420 C419 1.424 . S
C420 C421 1.347 . S
C421 H413 0.951 . S
C421 C416 1.429 . S
C421 C420 1.347 . S
H422 C423 0.951 . S
C423 H422 0.951 . S
C423 C429 1.265 . S
H424 C429 0.950 . S
H425 C433 0.949 . S
H426 C434 0.950 . S
H427 C435 0.951 . S
H428 C436 0.951 . S
C429 C423 1.265 . S
C429 H424 0.950 . S
C429 C430 1.478 . S
C430 C429 1.478 . S
C430 C431 1.397 . S
C430 C447 1.394 . S
C431 C430 1.397 . S
C431 C432 1.438 . S
C431 C436 1.429 . S
C432 C431 1.438 . S
C432 C433 1.428 . S
C432 C445 1.394 . S
C433 H425 0.949 . S
C433 C432 1.428 . S
C433 C434 1.345 . S
C434 H426 0.950 . S
C434 C433 1.345 . S
C434 C435 1.424 . S
C435 H427 0.951 . S
C435 C434 1.424 . S
C435 C436 1.347 . S
C436 H428 0.951 . S
C436 C431 1.429 . S
C436 C435 1.347 . S
H437 C438 0.951 . S
C438 H437 0.951 . S
C438 C444 1.265 . S
H439 C444 0.950 . S
H440 C448 0.949 . S
H441 C449 0.950 1_545 S
H442 C450 0.951 . S
H443 C451 0.951 . S
C444 C438 1.265 . S
C444 H439 0.950 . S
C444 C445 1.478 . S
C445 C432 1.394 . S
C445 C444 1.478 . S
C445 C446 1.397 . S
C446 C445 1.397 . S
C446 C447 1.438 . S
C446 C451 1.429 . S
C447 C430 1.394 . S
C447 C446 1.438 . S
C447 C448 1.428 . S
C448 H440 0.949 . S
C448 C447 1.428 . S
C448 C449 1.345 . S
C449 H441 0.950 1_565 S
C449 C448 1.345 . S
C449 C450 1.424 . S
C450 H442 0.951 . S
C450 C449 1.424 . S
C450 C451 1.347 . S
C451 H443 0.951 . S
C451 C446 1.429 . S
C451 C450 1.347 . S
H452 C453 0.951 . S
C453 H452 0.951 . S
C453 C459 1.265 . S
H454 C459 0.950 . S
H455 C463 0.949 . S
H456 C464 0.950 . S
H457 C465 0.951 . S
H458 C466 0.951 . S
C459 C453 1.265 . S
C459 H454 0.950 . S
C459 C460 1.478 . S
C460 C459 1.478 . S
C460 C461 1.397 . S
C460 C477 1.394 . S
C461 C460 1.397 . S
C461 C462 1.438 . S
C461 C466 1.429 . S
C462 C461 1.438 . S
C462 C463 1.428 . S
C462 C475 1.394 . S
C463 H455 0.949 . S
C463 C462 1.428 . S
C463 C464 1.345 . S
C464 H456 0.950 . S
C464 C463 1.345 . S
C464 C465 1.424 . S
C465 H457 0.951 . S
C465 C464 1.424 . S
C465 C466 1.347 . S
C466 H458 0.951 . S
C466 C461 1.429 . S
C466 C465 1.347 . S
H467 C468 0.951 . S
C468 H467 0.951 . S
C468 C474 1.265 . S
H469 C474 0.950 . S
H470 C478 0.949 . S
H471 C479 0.950 . S
H472 C480 0.951 . S
H473 C481 0.951 . S
C474 C468 1.265 . S
C474 H469 0.950 . S
C474 C475 1.478 . S
C475 C462 1.394 . S
C475 C474 1.478 . S
C475 C476 1.397 . S
C476 C475 1.397 . S
C476 C477 1.438 . S
C476 C481 1.429 . S
C477 C460 1.394 . S
C477 C476 1.438 . S
C477 C478 1.428 . S
C478 H470 0.949 . S
C478 C477 1.428 . S
C478 C479 1.345 . S
C479 H471 0.950 . S
C479 C478 1.345 . S
C479 C480 1.424 . S
C480 H472 0.951 . S
C480 C479 1.424 . S
C480 C481 1.347 . S
C481 H473 0.951 . S
C481 C476 1.429 . S
C481 C480 1.347 . S
C123 C12 1.598 . S
C138 C99 1.553 . S
C153 C69 0.901 . S
C168 C105 0.913 . S
C183 C8 1.083 . S
C198 C96 1.061 . S
C213 C71 1.862 . S
C228 C121 1.746 . S
C243 C17 2.311 . S
C258 C87 2.210 . S
C288 C104 2.071 . S
C273 C42 2.136 . S
C303 C52 1.577 . S
C318 C100 1.517 . S
C348 C117 2.090 . S
C333 C2 2.106 . S
C378 C84 2.267 . S
C363 C57 2.353 . S
C408 C120 1.694 . S
C393 C31 1.884 . S
C438 C83 1.073 . S
C423 C48 1.124 . S
C468 C108 0.968 . S
C453 C29 0.937 . S
