# Generated by pormake.
# Topology ocu, (6,8)-cn, num edge types: 1
# Building blocks:
#     Node 0, Type 0, BuildingBlock: HISSIN_clean_sbu_0, # of connection points: 6
#     Node 1, Type 0, BuildingBlock: HISSIN_clean_sbu_0, # of connection points: 6
#     Node 2, Type 0, BuildingBlock: HISSIN_clean_sbu_0, # of connection points: 6
#     Node 3, Type 0, BuildingBlock: HISSIN_clean_sbu_0, # of connection points: 6
#     Node 4, Type 0, BuildingBlock: HISSIN_clean_sbu_0, # of connection points: 6
#     Node 5, Type 0, BuildingBlock: HISSIN_clean_sbu_0, # of connection points: 6
#     Node 6, Type 0, BuildingBlock: HISSIN_clean_sbu_0, # of connection points: 6
#     Node 7, Type 0, BuildingBlock: HISSIN_clean_sbu_0, # of connection points: 6
#     Node 8, Type 1, BuildingBlock: VETTIZ_charged_sbu_0, # of connection points: 8
#     Node 9, Type 1, BuildingBlock: VETTIZ_charged_sbu_0, # of connection points: 8
#     Node 10, Type 1, BuildingBlock: VETTIZ_charged_sbu_0, # of connection points: 8
#     Node 11, Type 1, BuildingBlock: VETTIZ_charged_sbu_0, # of connection points: 8
#     Node 12, Type 1, BuildingBlock: VETTIZ_charged_sbu_0, # of connection points: 8
#     Node 13, Type 1, BuildingBlock: VETTIZ_charged_sbu_0, # of connection points: 8
#     Edge 14, Type (0, 1), BuildingBlock: EZIPEK_clean_linker_0, # of connection points: 2
#     Edge 15, Type (0, 1), BuildingBlock: EZIPEK_clean_linker_0, # of connection points: 2
#     Edge 16, Type (0, 1), BuildingBlock: EZIPEK_clean_linker_0, # of connection points: 2
#     Edge 17, Type (0, 1), BuildingBlock: EZIPEK_clean_linker_0, # of connection points: 2
#     Edge 18, Type (0, 1), BuildingBlock: EZIPEK_clean_linker_0, # of connection points: 2
#     Edge 19, Type (0, 1), BuildingBlock: EZIPEK_clean_linker_0, # of connection points: 2
#     Edge 20, Type (0, 1), BuildingBlock: EZIPEK_clean_linker_0, # of connection points: 2
#     Edge 21, Type (0, 1), BuildingBlock: EZIPEK_clean_linker_0, # of connection points: 2
#     Edge 22, Type (0, 1), BuildingBlock: EZIPEK_clean_linker_0, # of connection points: 2
#     Edge 23, Type (0, 1), BuildingBlock: EZIPEK_clean_linker_0, # of connection points: 2
#     Edge 24, Type (0, 1), BuildingBlock: EZIPEK_clean_linker_0, # of connection points: 2
#     Edge 25, Type (0, 1), BuildingBlock: EZIPEK_clean_linker_0, # of connection points: 2
#     Edge 26, Type (0, 1), BuildingBlock: EZIPEK_clean_linker_0, # of connection points: 2
#     Edge 27, Type (0, 1), BuildingBlock: EZIPEK_clean_linker_0, # of connection points: 2
#     Edge 28, Type (0, 1), BuildingBlock: EZIPEK_clean_linker_0, # of connection points: 2
#     Edge 29, Type (0, 1), BuildingBlock: EZIPEK_clean_linker_0, # of connection points: 2
#     Edge 30, Type (0, 1), BuildingBlock: EZIPEK_clean_linker_0, # of connection points: 2
#     Edge 31, Type (0, 1), BuildingBlock: EZIPEK_clean_linker_0, # of connection points: 2
#     Edge 32, Type (0, 1), BuildingBlock: EZIPEK_clean_linker_0, # of connection points: 2
#     Edge 33, Type (0, 1), BuildingBlock: EZIPEK_clean_linker_0, # of connection points: 2
#     Edge 34, Type (0, 1), BuildingBlock: EZIPEK_clean_linker_0, # of connection points: 2
#     Edge 35, Type (0, 1), BuildingBlock: EZIPEK_clean_linker_0, # of connection points: 2
#     Edge 36, Type (0, 1), BuildingBlock: EZIPEK_clean_linker_0, # of connection points: 2
#     Edge 37, Type (0, 1), BuildingBlock: EZIPEK_clean_linker_0, # of connection points: 2
#     Edge 38, Type (0, 1), BuildingBlock: EZIPEK_clean_linker_0, # of connection points: 2
#     Edge 39, Type (0, 1), BuildingBlock: EZIPEK_clean_linker_0, # of connection points: 2
#     Edge 40, Type (0, 1), BuildingBlock: EZIPEK_clean_linker_0, # of connection points: 2
#     Edge 41, Type (0, 1), BuildingBlock: EZIPEK_clean_linker_0, # of connection points: 2
#     Edge 42, Type (0, 1), BuildingBlock: EZIPEK_clean_linker_0, # of connection points: 2
#     Edge 43, Type (0, 1), BuildingBlock: EZIPEK_clean_linker_0, # of connection points: 2
#     Edge 44, Type (0, 1), BuildingBlock: EZIPEK_clean_linker_0, # of connection points: 2
#     Edge 45, Type (0, 1), BuildingBlock: EZIPEK_clean_linker_0, # of connection points: 2
#     Edge 46, Type (0, 1), BuildingBlock: EZIPEK_clean_linker_0, # of connection points: 2
#     Edge 47, Type (0, 1), BuildingBlock: EZIPEK_clean_linker_0, # of connection points: 2
#     Edge 48, Type (0, 1), BuildingBlock: EZIPEK_clean_linker_0, # of connection points: 2
#     Edge 49, Type (0, 1), BuildingBlock: EZIPEK_clean_linker_0, # of connection points: 2
#     Edge 50, Type (0, 1), BuildingBlock: EZIPEK_clean_linker_0, # of connection points: 2
#     Edge 51, Type (0, 1), BuildingBlock: EZIPEK_clean_linker_0, # of connection points: 2
#     Edge 52, Type (0, 1), BuildingBlock: EZIPEK_clean_linker_0, # of connection points: 2
#     Edge 53, Type (0, 1), BuildingBlock: EZIPEK_clean_linker_0, # of connection points: 2
#     Edge 54, Type (0, 1), BuildingBlock: EZIPEK_clean_linker_0, # of connection points: 2
#     Edge 55, Type (0, 1), BuildingBlock: EZIPEK_clean_linker_0, # of connection points: 2
#     Edge 56, Type (0, 1), BuildingBlock: EZIPEK_clean_linker_0, # of connection points: 2
#     Edge 57, Type (0, 1), BuildingBlock: EZIPEK_clean_linker_0, # of connection points: 2
#     Edge 58, Type (0, 1), BuildingBlock: EZIPEK_clean_linker_0, # of connection points: 2
#     Edge 59, Type (0, 1), BuildingBlock: EZIPEK_clean_linker_0, # of connection points: 2
#     Edge 60, Type (0, 1), BuildingBlock: EZIPEK_clean_linker_0, # of connection points: 2
#     Edge 61, Type (0, 1), BuildingBlock: EZIPEK_clean_linker_0, # of connection points: 2
# Relax obj value: 0.151
# Max RMSD: 0.187
# Mean RMSD: 0.140
data_MOF--net-ocu--node1-HISSIN_clean_sbu_0--node2-VETTIZ_charged_sbu_0--edge1-EZIPEK_clean_linker_0
_symmetry_space_group_name_H-M    P1
_symmetry_Int_Tables_number       1
_symmetry_cell_setting            triclinic
loop_
_symmetry_equiv_pos_as_xyz
'x, y, z'
_cell_length_a     31.326571
_cell_length_b     30.946754
_cell_length_c     31.072801
_cell_angle_alpha  104.8989
_cell_angle_beta   76.456878
_cell_angle_gamma 106.69093
loop_
_atom_site_label
_atom_site_type_symbol
_atom_site_fract_x
_atom_site_fract_y
_atom_site_fract_z
_atom_type_partial_charge
Eu0 Eu 0.31842 0.29277 0.32299 0.0
Eu1 Eu 0.24844 0.2677 0.24909 0.0
C2 C 0.23386 0.2089 0.32512 0.0
C3 C 0.38288 0.26968 0.39858 0.0
C4 C 0.37737 0.22411 0.37387 0.0
C5 C 0.41815 0.25062 0.45059 0.0
C6 C 0.39289 0.19215 0.38694 0.0
C7 C 0.40269 0.28258 0.43742 0.0
C8 C 0.41387 0.20539 0.4251 0.0
C9 C 0.36702 0.30321 0.38425 0.0
O10 O 0.23651 0.33325 0.29665 0.0
O11 O 0.25929 0.32497 0.35825 0.0
C12 C 0.23496 0.34182 0.34047 0.0
O13 O 0.34325 0.35262 0.28794 0.0
O14 O 0.17955 0.25438 0.23659 0.0
O15 O 0.23522 0.25648 0.18049 0.0
O16 O 0.31154 0.31832 0.22374 0.0
C17 C 0.34009 0.35128 0.24621 0.0
O18 O 0.34819 0.24614 0.2611 0.0
O19 O 0.28637 0.21108 0.22526 0.0
O20 O 0.21374 0.22799 0.30501 0.0
O21 O 0.38445 0.31028 0.34339 0.0
O22 O 0.32331 0.29829 0.3931 0.0
O23 O 0.27754 0.22084 0.32278 0.0
C24 C 0.17703 0.29023 0.17934 0.0
C25 C 0.19314 0.33758 0.19577 0.0
C26 C 0.1333 0.30842 0.13401 0.0
C27 C 0.17982 0.37005 0.18114 0.0
C28 C 0.14666 0.27582 0.14872 0.0
C29 C 0.15013 0.35578 0.14989 0.0
C30 C 0.19251 0.2564 0.19399 0.0
C31 C 0.32764 0.21368 0.23071 0.0
H32 H 0.36173 0.2136 0.34406 0.0
H33 H 0.43468 0.26147 0.4799 0.0
H34 H 0.38979 0.1576 0.3666 0.0
H35 H 0.40677 0.31747 0.45711 0.0
H36 H 0.21662 0.34943 0.21939 0.0
H37 H 0.11075 0.29683 0.10951 0.0
H38 H 0.1935 0.40641 0.19339 0.0
H39 H 0.13385 0.23945 0.13572 0.0
Eu40 Eu 0.82074 0.24837 0.2856 0.0
Eu41 Eu 0.76048 0.32472 0.29816 0.0
C42 C 0.84032 0.34845 0.35633 0.0
C43 C 0.85916 0.17182 0.33391 0.0
C44 C 0.8683 0.20588 0.37269 0.0
C45 C 0.85699 0.11328 0.37392 0.0
C46 C 0.87402 0.19392 0.41095 0.0
C47 C 0.85173 0.12533 0.33541 0.0
C48 C 0.87017 0.14773 0.41109 0.0
C49 C 0.85604 0.18479 0.2926 0.0
O50 O 0.82001 0.34071 0.24242 0.0
O51 O 0.86142 0.2863 0.23108 0.0
C52 C 0.85422 0.32224 0.22143 0.0
O53 O 0.79051 0.22645 0.22284 0.0
O54 O 0.75355 0.39036 0.28988 0.0
O55 O 0.69374 0.3376 0.30756 0.0
O56 O 0.72956 0.25775 0.25463 0.0
C57 C 0.75017 0.23027 0.22246 0.0
O58 O 0.75448 0.23089 0.33226 0.0
O59 O 0.73616 0.29974 0.36368 0.0
O60 O 0.80542 0.36024 0.35012 0.0
O61 O 0.81518 0.17609 0.28431 0.0
O62 O 0.88011 0.22551 0.28631 0.0
O63 O 0.85099 0.30932 0.33564 0.0
C64 C 0.69012 0.38113 0.25644 0.0
C65 C 0.68981 0.4251 0.25247 0.0
C66 C 0.65317 0.34776 0.19031 0.0
C67 C 0.67119 0.43043 0.21801 0.0
C68 C 0.67225 0.34244 0.22465 0.0
C69 C 0.6524 0.39187 0.18686 0.0
C70 C 0.70963 0.37637 0.29347 0.0
C71 C 0.73396 0.25742 0.36558 0.0
H72 H 0.87292 0.24193 0.37277 0.0
H73 H 0.85444 0.07748 0.37334 0.0
H74 H 0.88464 0.22094 0.43908 0.0
H75 H 0.84359 0.09854 0.30624 0.0
H76 H 0.70363 0.45536 0.27633 0.0
H77 H 0.63851 0.31756 0.1669 0.0
H78 H 0.67063 0.46475 0.21612 0.0
H79 H 0.67256 0.30809 0.22662 0.0
Eu80 Eu 0.79479 0.81626 0.26193 0.0
Eu81 Eu 0.77491 0.74386 0.33072 0.0
C82 C 0.72877 0.71891 0.24267 0.0
C83 C 0.76941 0.88373 0.19036 0.0
C84 C 0.73209 0.8504 0.1746 0.0
C85 C 0.73979 0.94349 0.17844 0.0
C86 C 0.69947 0.86347 0.15999 0.0
C87 C 0.77268 0.93038 0.1925 0.0
C88 C 0.70318 0.91012 0.16164 0.0
C89 C 0.80371 0.87064 0.20681 0.0
O90 O 0.84647 0.74491 0.29255 0.0
O91 O 0.83912 0.76458 0.2293 0.0
C92 C 0.85856 0.74387 0.24886 0.0
O93 O 0.83702 0.85551 0.31609 0.0
O94 O 0.76042 0.6719 0.33628 0.0
O95 O 0.76099 0.7252 0.39668 0.0
O96 O 0.82284 0.80493 0.36394 0.0
C97 C 0.84107 0.84547 0.35347 0.0
O98 O 0.73648 0.8359 0.31341 0.0
O99 O 0.71764 0.78145 0.35782 0.0
O100 O 0.7508 0.70495 0.26529 0.0
O101 O 0.80558 0.88551 0.24966 0.0
O102 O 0.80693 0.82807 0.19319 0.0
O103 O 0.73125 0.76279 0.24781 0.0
C104 C 0.79052 0.66206 0.39554 0.0
C105 C 0.80859 0.68457 0.43517 0.0
C106 C 0.83261 0.60368 0.38398 0.0
C107 C 0.83892 0.6673 0.44853 0.0
C108 C 0.80219 0.6209 0.37058 0.0
C109 C 0.85152 0.62712 0.42273 0.0
C110 C 0.76077 0.68202 0.37958 0.0
C111 C 0.71147 0.81796 0.34767 0.0
H112 H 0.72809 0.81422 0.17342 0.0
H113 H 0.74338 0.97965 0.17972 0.0
H114 H 0.67167 0.83721 0.14691 0.0
H115 H 0.80074 0.95671 0.20502 0.0
H116 H 0.80001 0.71603 0.45546 0.0
H117 H 0.84207 0.57261 0.36372 0.0
H118 H 0.85326 0.68573 0.47857 0.0
H119 H 0.78851 0.60249 0.34017 0.0
Eu120 Eu 0.30696 0.76447 0.28836 0.0
Eu121 Eu 0.24906 0.83804 0.29994 0.0
C122 C 0.22466 0.73772 0.23099 0.0
C123 C 0.4129 0.72798 0.27533 0.0
C124 C 0.44019 0.75297 0.24278 0.0
C125 C 0.48002 0.7201 0.29504 0.0
C126 C 0.48676 0.7573 0.23344 0.0
C127 C 0.43333 0.71498 0.30381 0.0
C128 C 0.50641 0.73532 0.2556 0.0
C129 C 0.36348 0.71503 0.27952 0.0
O130 O 0.22207 0.80559 0.36234 0.0
O131 O 0.24323 0.73746 0.33368 0.0
C132 C 0.21977 0.7631 0.36474 0.0
O133 O 0.32534 0.81774 0.34971 0.0
O134 O 0.24768 0.9082 0.30057 0.0
O135 O 0.18506 0.85765 0.31745 0.0
O136 O 0.31026 0.87829 0.33222 0.0
C137 C 0.33085 0.86201 0.35431 0.0
O138 O 0.35005 0.81884 0.24843 0.0
O139 O 0.29398 0.84211 0.23262 0.0
O140 O 0.21902 0.77992 0.24584 0.0
O141 O 0.34124 0.73084 0.3187 0.0
O142 O 0.3472 0.71786 0.24551 0.0
O143 O 0.25415 0.72393 0.2449 0.0
C144 C 0.18335 0.91067 0.2757 0.0
C145 C 0.15509 0.8772 0.24785 0.0
C146 C 0.1543 0.96914 0.26244 0.0
C147 C 0.12282 0.89024 0.23284 0.0
C148 C 0.18673 0.9572 0.27806 0.0
C149 C 0.11524 0.93446 0.25216 0.0
C150 C 0.20369 0.89807 0.30706 0.0
C151 C 0.33644 0.84093 0.22539 0.0
H152 H 0.42541 0.76642 0.22239 0.0
H153 H 0.494 0.70646 0.31589 0.0
H154 H 0.50595 0.77305 0.20527 0.0
H155 H 0.41299 0.69825 0.33106 0.0
H156 H 0.15465 0.84101 0.24179 0.0
H157 H 0.15443 1.0053 0.2699 0.0
H158 H 0.09799 0.86352 0.2158 0.0
H159 H 0.21098 0.98394 0.29605 0.0
Eu160 Eu 0.31472 0.75586 0.78021 0.0
Eu161 Eu 0.2443 0.8226 0.794 0.0
C162 C 0.32278 0.85 0.8521 0.0
C163 C 0.39606 0.7041 0.81193 0.0
C164 C 0.40224 0.73772 0.85175 0.0
C165 C 0.42644 0.65471 0.83994 0.0
C166 C 0.42003 0.72965 0.88555 0.0
C167 C 0.40896 0.66289 0.80605 0.0
C168 C 0.43157 0.68774 0.88014 0.0
C169 C 0.37492 0.71102 0.77718 0.0
O170 O 0.28541 0.8211 0.72459 0.0
O171 O 0.34927 0.81144 0.73986 0.0
C172 C 0.32912 0.82592 0.71576 0.0
O173 O 0.27512 0.72329 0.7227 0.0
O174 O 0.23633 0.89197 0.8014 0.0
O175 O 0.17832 0.83398 0.795 0.0
O176 O 0.21305 0.75374 0.7547 0.0
C177 C 0.2332 0.72477 0.72395 0.0
O178 O 0.2527 0.7285 0.82876 0.0
O179 O 0.2201 0.79078 0.85562 0.0
O180 O 0.30299 0.86547 0.82853 0.0
O181 O 0.33193 0.69139 0.77809 0.0
O182 O 0.38506 0.75293 0.77045 0.0
O183 O 0.32111 0.80623 0.84576 0.0
C184 C 0.19031 0.88956 0.75013 0.0
C185 C 0.1586 0.86056 0.72327 0.0
C186 C 0.21702 0.93924 0.69497 0.0
C187 C 0.15546 0.87141 0.68334 0.0
C188 C 0.21942 0.92905 0.7355 0.0
C189 C 0.18427 0.91104 0.66922 0.0
C190 C 0.19595 0.87675 0.79094 0.0
C191 C 0.22407 0.75028 0.85797 0.0
H192 H 0.39229 0.76974 0.85721 0.0
H193 H 0.43449 0.62188 0.8355 0.0
H194 H 0.42294 0.75515 0.91667 0.0
H195 H 0.40444 0.63653 0.77573 0.0
H196 H 0.13587 0.82971 0.73325 0.0
H197 H 0.23873 0.97059 0.68513 0.0
H198 H 0.12942 0.84976 0.66425 0.0
H199 H 0.24392 0.9523 0.75556 0.0
Eu200 Eu 0.30064 0.316 0.74704 0.0
Eu201 Eu 0.28046 0.24482 0.81533 0.0
C202 C 0.23313 0.21364 0.72625 0.0
C203 C 0.28522 0.39262 0.67727 0.0
C204 C 0.25607 0.36319 0.64791 0.0
C205 C 0.25272 0.45566 0.67889 0.0
C206 C 0.22525 0.37978 0.63463 0.0
C207 C 0.2838 0.43917 0.69197 0.0
C208 C 0.22296 0.42588 0.6506 0.0
C209 C 0.31508 0.37481 0.69502 0.0
O210 O 0.33479 0.22225 0.75852 0.0
O211 O 0.36364 0.28752 0.72894 0.0
C212 C 0.36569 0.24629 0.7314 0.0
O213 O 0.32198 0.35668 0.81287 0.0
O214 O 0.265 0.17539 0.82822 0.0
O215 O 0.27472 0.23383 0.88348 0.0
O216 O 0.34254 0.3 0.83143 0.0
C217 C 0.3437 0.34362 0.83645 0.0
O218 O 0.22909 0.31611 0.78512 0.0
O219 O 0.23597 0.29641 0.8485 0.0
O220 O 0.23228 0.20743 0.7667 0.0
O221 O 0.31408 0.38683 0.73853 0.0
O222 O 0.31584 0.33161 0.6797 0.0
O223 O 0.25832 0.25083 0.71182 0.0
C224 C 0.30524 0.17248 0.88238 0.0
C225 C 0.29907 0.16484 0.92618 0.0
C226 C 0.37766 0.1517 0.86455 0.0
C227 C 0.33201 0.15092 0.93919 0.0
C228 C 0.34479 0.16585 0.85161 0.0
C229 C 0.3716 0.14455 0.90858 0.0
C230 C 0.27167 0.18984 0.86988 0.0
C231 C 0.21697 0.31758 0.82893 0.0
H232 H 0.25622 0.32711 0.63604 0.0
H233 H 0.25118 0.49132 0.69158 0.0
H234 H 0.20235 0.35641 0.61283 0.0
H235 H 0.30591 0.46248 0.71458 0.0
H236 H 0.26904 0.17014 0.95046 0.0
H237 H 0.40793 0.14677 0.84049 0.0
H238 H 0.32681 0.14542 0.97329 0.0
H239 H 0.35042 0.17196 0.81771 0.0
Eu240 Eu 0.8177 0.23756 0.78231 0.0
Eu241 Eu 0.75391 0.304 0.79743 0.0
C242 C 0.73756 0.20873 0.72577 0.0
C243 C 0.91226 0.19581 0.79945 0.0
C244 C 0.94902 0.23012 0.78491 0.0
C245 C 0.96161 0.16919 0.83026 0.0
C246 C 0.99243 0.22973 0.78814 0.0
C247 C 0.91803 0.16866 0.82637 0.0
C248 C 0.9989 0.19275 0.80277 0.0
C249 C 0.86887 0.18633 0.78493 0.0
O250 O 0.72793 0.26432 0.85445 0.0
O251 O 0.74965 0.1998 0.81412 0.0
C252 C 0.7242 0.21993 0.84825 0.0
O253 O 0.83447 0.29392 0.84305 0.0
O254 O 0.71204 0.33139 0.76955 0.0
O255 O 0.71553 0.35215 0.84118 0.0
O256 O 0.81611 0.35178 0.82445 0.0
C257 C 0.83913 0.33805 0.8464 0.0
O258 O 0.8602 0.29292 0.74329 0.0
O259 O 0.79966 0.31135 0.73042 0.0
O260 O 0.71823 0.2369 0.75836 0.0
O261 O 0.83557 0.19463 0.81724 0.0
O262 O 0.86911 0.19983 0.74821 0.0
O263 O 0.77942 0.20693 0.7237 0.0
C264 C 0.64352 0.33492 0.81998 0.0
C265 C 0.62128 0.32748 0.86317 0.0
C266 C 0.57071 0.32196 0.79825 0.0
C267 C 0.57456 0.32161 0.87481 0.0
C268 C 0.61757 0.32833 0.78664 0.0
C269 C 0.54969 0.32568 0.84407 0.0
C270 C 0.69327 0.34962 0.80956 0.0
C271 C 0.843 0.31255 0.72076 0.0
H272 H 0.9448 0.25422 0.76727 0.0
H273 H 0.96532 0.14468 0.84753 0.0
H274 H 1.02029 0.25288 0.77123 0.0
H275 H 0.88938 0.1444 0.84105 0.0
H276 H 0.64006 0.32922 0.88899 0.0
H277 H 0.55232 0.32071 0.77238 0.0
H278 H 0.55955 0.32028 0.9097 0.0
H279 H 0.63368 0.33099 0.75221 0.0
Eu280 Eu 0.82732 0.80024 0.82103 0.0
Eu281 Eu 0.75448 0.77071 0.74779 0.0
C282 C 0.73533 0.71658 0.82854 0.0
C283 C 0.89493 0.77917 0.89491 0.0
C284 C 0.89772 0.78451 0.94047 0.0
C285 C 0.91664 0.70613 0.87824 0.0
C286 C 0.90987 0.75098 0.95481 0.0
C287 C 0.90454 0.73968 0.8639 0.0
C288 C 0.91911 0.7114 0.92388 0.0
C289 C 0.87854 0.81278 0.88068 0.0
O290 O 0.72822 0.82499 0.80275 0.0
O291 O 0.78353 0.85171 0.84788 0.0
C292 C 0.74589 0.85337 0.83702 0.0
O293 O 0.86145 0.84194 0.76679 0.0
O294 O 0.68757 0.75273 0.72898 0.0
O295 O 0.74718 0.75811 0.67717 0.0
O296 O 0.79777 0.84125 0.74211 0.0
C297 C 0.84123 0.85612 0.74233 0.0
O298 O 0.85647 0.74965 0.76562 0.0
O299 O 0.80325 0.72329 0.7186 0.0
O300 O 0.71837 0.72778 0.79939 0.0
O301 O 0.89446 0.81939 0.83954 0.0
O302 O 0.83503 0.80898 0.89115 0.0
O303 O 0.77758 0.73374 0.8345 0.0
C304 C 0.68921 0.78822 0.67005 0.0
C305 C 0.70541 0.83588 0.68493 0.0
C306 C 0.64239 0.80369 0.62644 0.0
C307 C 0.68966 0.86723 0.67123 0.0
C308 C 0.65818 0.77229 0.64018 0.0
C309 C 0.65753 0.85132 0.64247 0.0
C310 C 0.70393 0.75558 0.6869 0.0
C311 C 0.84161 0.72316 0.72934 0.0
H312 H 0.89003 0.81437 0.96503 0.0
H313 H 0.92404 0.67607 0.85382 0.0
H314 H 0.91193 0.7558 0.99012 0.0
H315 H 0.90236 0.73462 0.82864 0.0
H316 H 0.72938 0.84879 0.70804 0.0
H317 H 0.61723 0.79089 0.60456 0.0
H318 H 0.7013 0.90379 0.68429 0.0
H319 H 0.64541 0.73567 0.62835 0.0
Fe320 Fe 0.06503 0.14325 0.54625 0.0
O321 O 0.04466 0.07645 0.52188 0.0
Fe322 Fe 0.09181 0.03667 0.51594 0.0
Fe323 Fe 0.99097 0.03781 0.55517 0.0
O324 O 0.04995 0.07668 0.52088 0.0
O325 O 1.03539 0.99553 0.54313 0.0
O326 O 1.0313 0.99554 0.54452 0.0
Fe327 Fe 1.01329 0.92927 0.51945 0.0
C328 C 1.02059 0.11481 0.63212 0.0
O329 O 1.00882 0.14248 0.5233 0.0
O330 O 0.95508 0.08712 0.55755 0.0
O331 O 0.04507 0.93297 0.45365 0.0
O332 O 0.08087 1.00575 0.45209 0.0
O333 O 0.14449 0.0852 0.48549 0.0
O334 O 0.1093 0.14168 0.48642 0.0
O335 O 0.96635 1.00473 0.49553 0.0
O336 O 0.9554 0.93193 0.50044 0.0
C337 C 0.14098 0.11955 0.47052 0.0
O338 O 0.07234 0.92715 0.53687 0.0
O339 O 0.12788 0.98934 0.51656 0.0
O340 O 1.02254 0.14221 0.60752 0.0
O341 O 1.0139 0.07165 0.61567 0.0
C342 C 0.96756 0.11865 0.53291 0.0
C343 C 0.94803 0.96207 0.48396 0.0
C344 C 0.94688 0.95492 0.60394 0.0
O345 O 0.94217 0.99086 0.59208 0.0
O346 O 0.97576 0.93037 0.58297 0.0
C347 C 0.06456 0.96532 0.43201 0.0
O348 O 0.10713 0.06811 0.57906 0.0
O349 O 0.11849 0.14103 0.57418 0.0
C350 C 0.11328 0.95267 0.53407 0.0
C351 C 0.1242 0.11072 0.59194 0.0
Fe352 Fe 0.52533 0.92463 1.0034 0.0
O353 O 0.5366 0.99156 1.00693 0.0
Fe354 Fe 0.48452 1.02277 0.04601 0.0
Fe355 Fe 0.58865 0.03856 1.03154 0.0
O356 O 0.53205 0.99055 1.0089 0.0
O357 O 0.5363 0.07003 0.07054 0.0
O358 O 0.54093 0.07104 0.06848 0.0
Fe359 Fe 0.54565 0.13672 0.07368 0.0
C360 C 0.58406 0.96479 0.07938 0.0
O361 O 0.58351 0.93172 0.95503 0.0
O362 O 0.63186 0.99663 0.98861 0.0
O363 O 0.50028 0.12861 1.03172 0.0
O364 O 0.49208 0.05609 0.99402 0.0
O365 O 0.43705 0.9697 1.0131 0.0
O366 O 0.47869 0.92032 0.96428 0.0
O367 O 0.59986 0.07285 0.97917 0.0
O368 O 0.5985 0.14359 1.01944 0.0
C369 C 0.44359 0.93799 0.97716 0.0
O370 O 0.48863 0.12865 0.12354 0.0
O371 O 0.44089 0.06415 0.08839 0.0
O372 O 0.56824 0.93219 0.04835 0.0
O373 O 0.58127 1.00583 0.08368 0.0
C374 C 0.6236 0.95782 0.95922 0.0
C375 C 0.61018 0.11647 0.98283 0.0
C376 C 0.63023 0.12653 0.09841 0.0
O377 O 0.63616 0.09234 0.06456 0.0
O378 O 0.59458 0.14325 0.11081 0.0
C379 C 0.48745 0.09666 0.99899 0.0
O380 O 0.47392 0.98716 0.09797 0.0
O381 O 0.46994 0.91754 0.05448 0.0
C382 C 0.44866 0.10263 0.11835 0.0
C383 C 0.46078 0.94325 0.09268 0.0
Fe384 Fe 0.0441 0.58646 0.04675 0.0
O385 O 1.00015 0.53195 0.06795 0.0
Fe386 Fe 0.14069 0.54546 0.99692 0.0
Fe387 Fe 0.93417 0.52264 0.07423 0.0
O388 O 0.0751 0.53866 1.00502 0.0
O389 O 0.07412 0.53314 1.00227 0.0
O390 O 0.99959 0.52689 0.06601 0.0
Fe391 Fe 1.03163 0.47886 1.02585 0.0
C392 C 0.96749 0.61994 0.12576 0.0
O393 O 1.00796 0.58108 0.99737 0.0
O394 O 0.93853 0.57208 1.03752 0.0
O395 O 0.07283 0.43595 0.97929 0.0
O396 O 0.13215 0.48714 0.94524 0.0
O397 O 0.1421 0.59545 0.9635 0.0
O398 O 0.09469 0.63659 1.01597 0.0
O399 O 0.92485 0.47227 1.01736 0.0
O400 O 0.99194 0.46469 0.97573 0.0
C401 C 0.12543 0.63142 0.97979 0.0
O402 O 0.06948 0.48716 0.07539 0.0
O403 O 0.13816 0.49923 1.03499 0.0
O404 O 1.00369 0.62957 0.09504 0.0
O405 O 0.94382 0.57822 0.12788 0.0
C406 C 0.96823 0.58718 1.00552 0.0
C407 C 0.94877 0.45686 0.98064 0.0
C408 C 0.9502 0.43507 0.0933 0.0
O409 O 0.93127 0.46986 0.1058 0.0
O410 O 0.98322 0.42997 0.05928 0.0
C411 C 0.10919 0.44535 0.94868 0.0
O412 O 0.14932 0.59949 0.05289 0.0
O413 O 0.08173 0.59547 0.09665 0.0
C414 C 0.11098 0.48623 0.069 0.0
C415 C 0.12472 0.6097 0.09124 0.0
Fe416 Fe 0.52823 0.53109 0.99059 0.0
O417 O 0.57881 0.55868 1.02593 0.0
Fe418 Fe 0.4316 0.53786 0.07429 0.0
Fe419 Fe 0.63508 0.53563 1.00419 0.0
O420 O 0.4881 0.51977 0.04845 0.0
O421 O 0.48839 0.51749 0.05109 0.0
O422 O 0.57917 0.5553 1.02898 0.0
Fe423 Fe 0.53904 0.54142 0.08591 0.0
C424 C 0.58029 0.4807 0.92637 0.0
O425 O 0.57914 0.5648 0.93948 0.0
O426 O 0.64776 0.58225 0.96261 0.0
O427 O 0.50135 0.55361 0.1471 0.0
O428 O 0.46045 0.59014 0.12666 0.0
O429 O 0.44533 0.58746 1.03632 0.0
O430 O 0.51202 0.59069 0.98985 0.0
O431 O 0.65725 0.58433 0.05969 0.0
O432 O 0.59575 0.57061 0.11701 0.0
C433 C 0.47505 0.60338 1.00489 0.0
O434 O 0.48721 0.5061 0.13599 0.0
O435 O 0.41855 0.48844 0.11268 0.0
O436 O 0.56598 0.51624 0.9296 0.0
O437 O 0.6052 0.48124 0.95421 0.0
C438 C 0.62131 0.58967 0.94037 0.0
C439 C 0.63749 0.58987 0.10203 0.0
C440 C 0.58881 0.46901 0.07191 0.0
O441 O 0.62253 0.48969 0.04666 0.0
O442 O 0.55025 0.47768 0.07917 0.0
C443 C 0.48656 0.58941 0.15282 0.0
O444 O 0.41022 0.4902 1.01698 0.0
O445 O 0.47277 0.49817 0.95974 0.0
C446 C 0.44502 0.48126 0.13489 0.0
C447 C 0.4306 0.48122 0.97498 0.0
Fe448 Fe 1.03431 0.47755 0.52959 0.0
O449 O 1.00821 0.52543 0.57646 0.0
Fe450 Fe 0.07349 0.52828 0.43652 0.0
Fe451 Fe 1.0039 0.53266 0.64205 0.0
O452 O 0.06993 0.53133 0.50126 0.0
O453 O 0.07065 0.53667 0.50228 0.0
O454 O 1.00978 0.53039 0.57775 0.0
Fe455 Fe 0.0421 0.58385 0.54813 0.0
C456 C 0.96121 0.43154 0.60404 0.0
O457 O 0.08546 0.48619 0.56368 0.0
O458 O 0.04958 0.49374 0.63527 0.0
O459 O 0.0804 0.63359 0.50749 0.0
O460 O 0.11892 0.59172 0.44595 0.0
O461 O 0.11627 0.48662 0.43104 0.0
O462 O 0.07052 0.43587 0.47611 0.0
O463 O 0.05502 0.59224 0.65196 0.0
O464 O 0.09507 0.60057 0.58378 0.0
C465 C 0.10587 0.4484 0.44558 0.0
O466 O 0.98857 0.56934 0.51534 0.0
O467 O 1.02438 0.56445 0.44429 0.0
O468 O 0.99151 0.42717 0.56707 0.0
O469 O 0.95754 0.4706 0.63093 0.0
C470 C 0.08238 0.48413 0.60459 0.0
C471 C 0.092 0.60694 0.62662 0.0
C472 C 0.97068 0.61281 0.63204 0.0
O473 O 0.96201 0.57512 0.64702 0.0
O474 O 1.005 0.62529 0.60065 0.0
C475 C 0.1104 0.63019 0.47005 0.0
O476 O 1.02496 0.46708 0.42708 0.0
O477 O 0.98229 0.46617 0.49438 0.0
C478 C 0.99038 0.57091 0.47468 0.0
C479 C 0.98646 0.45738 0.4515 0.0
Fe480 Fe 0.52669 0.97835 0.52896 0.0
O481 O 0.50672 1.03129 0.57434 0.0
Fe482 Fe 0.57565 1.02821 0.43466 0.0
Fe483 Fe 0.50102 0.03777 0.64025 0.0
O484 O 0.56859 1.02859 0.49916 0.0
O485 O 0.56963 1.03367 0.5002 0.0
O486 O 0.5083 0.03652 0.57561 0.0
Fe487 Fe 0.55007 0.08653 0.54545 0.0
C488 C 0.44684 0.94171 0.60128 0.0
O489 O 0.57507 0.98038 0.56408 0.0
O490 O 0.53638 0.98872 0.63415 0.0
O491 O 0.5979 0.13084 0.50488 0.0
O492 O 0.63142 0.08156 0.44672 0.0
O493 O 0.60488 0.97358 0.42831 0.0
O494 O 0.55566 0.92963 0.47766 0.0
O495 O 0.55944 0.08903 0.64982 0.0
O496 O 0.60049 0.09287 0.58112 0.0
C497 C 0.58984 0.93611 0.44459 0.0
O498 O 0.50039 0.08386 0.51079 0.0
O499 O 0.54079 0.07882 0.44155 0.0
O500 O 0.47849 0.93367 0.56691 0.0
O501 O 0.44709 0.98182 0.6282 0.0
C502 C 0.56636 0.97277 0.60385 0.0
C503 C 0.59711 0.10024 0.62396 0.0
C504 C 0.48627 0.12877 0.63047 0.0
O505 O 0.47035 0.09101 0.64615 0.0
O506 O 0.5209 0.13525 0.59759 0.0
C507 C 0.62786 0.12249 0.46837 0.0
O508 O 0.51598 0.97987 0.42566 0.0
O509 O 0.47664 0.97047 0.49326 0.0
C510 C 0.50849 0.09144 0.47102 0.0
C511 C 0.47912 0.96467 0.4509 0.0
C512 C 0.19759 0.20833 0.40457 0.0
C513 C 0.20809 0.18275 0.36037 0.0
C514 C 0.1844 0.11175 0.39017 0.0
C515 C 0.17594 0.13853 0.4345 0.0
N516 N 0.19197 0.21264 0.48425 0.0
N517 N 0.22014 0.11137 0.31164 0.0
C518 C 0.18913 0.18705 0.44161 0.0
C519 C 0.20446 0.13474 0.35331 0.0
N520 N 0.19339 0.25232 0.41122 0.0
N521 N 0.17199 0.06481 0.38294 0.0
H522 H 0.23278 0.12694 0.28365 0.0
H523 H 0.2229 0.07749 0.30549 0.0
H524 H 0.16014 0.04682 0.4091 0.0
H525 H 0.17189 0.04378 0.35088 0.0
H526 H 0.18285 0.27136 0.4429 0.0
H527 H 0.19393 0.26695 0.38448 0.0
H528 H 0.20471 0.24829 0.49086 0.0
H529 H 0.18607 0.19733 0.51204 0.0
C530 C 0.87094 0.13819 0.48957 0.0
C531 C 0.89163 0.13704 0.44351 0.0
C532 C 0.95387 0.11236 0.45606 0.0
C533 C 0.93709 0.11962 0.50327 0.0
N534 N 0.88124 0.14293 0.56612 0.0
N535 N 0.95846 0.13427 0.38598 0.0
C536 C 0.8957 0.1331 0.5205 0.0
C537 C 0.93463 0.1272 0.42759 0.0
N538 N 0.82784 0.14384 0.50343 0.0
N539 N 0.98815 0.09058 0.43808 0.0
H540 H 0.94659 0.14649 0.36389 0.0
H541 H 0.99223 0.1328 0.37531 0.0
H542 H 1.00247 0.07764 0.45752 0.0
H543 H 0.99847 0.08062 0.40338 0.0
H544 H 0.80932 0.14095 0.53552 0.0
H545 H 0.80945 0.14819 0.48151 0.0
H546 H 0.85384 0.1575 0.58109 0.0
H547 H 0.89858 0.13906 0.58922 0.0
C548 C 0.90962 0.90865 0.37228 0.0
C549 C 0.86574 0.8822 0.38675 0.0
C550 C 0.87054 0.9238 0.4654 0.0
C551 C 0.91606 0.94537 0.45101 0.0
N552 N 0.96899 0.97611 0.39097 0.0
N553 N 0.80179 0.86781 0.44722 0.0
C554 C 0.93254 0.94334 0.40447 0.0
C555 C 0.84516 0.89105 0.4334 0.0
N556 N 0.93133 0.8983 0.32869 0.0
N557 N 0.8511 0.93771 0.50911 0.0
H558 H 0.78036 0.84691 0.425 0.0
H559 H 0.78686 0.86826 0.4809 0.0
H560 H 0.8689 0.96439 0.53132 0.0
H561 H 0.81708 0.92651 0.52236 0.0
H562 H 0.96487 0.91422 0.31771 0.0
H563 H 0.91769 0.87092 0.3044 0.0
H564 H 0.97796 0.98118 0.35784 0.0
H565 H 0.98611 1.00153 0.41426 0.0
C566 C 0.06982 0.98186 0.31118 0.0
C567 C 0.07256 0.93763 0.28637 0.0
C568 C 0.06018 0.91011 0.35539 0.0
C569 C 0.0662 0.95626 0.38156 0.0
N570 N 0.0698 0.03706 0.38061 0.0
N571 N 1.03483 0.85869 0.28893 0.0
C572 C 0.06878 0.9925 0.35861 0.0
C573 C 0.05423 0.90167 0.3103 0.0
N574 N 0.07156 1.01518 0.28918 0.0
N575 N 0.06405 0.87377 0.37004 0.0
H576 H 1.02801 0.8528 0.2563 0.0
H577 H 1.02224 0.83106 0.30555 0.0
H578 H 0.07571 0.87627 0.39956 0.0
H579 H 0.07571 0.87627 0.39956 0.0
H580 H 0.07301 1.00868 0.25422 0.0
H581 H 0.07301 1.00868 0.25422 0.0
H582 H 0.07434 0.0633 0.36333 0.0
H583 H 0.06377 0.04856 0.41531 0.0
C584 C 0.143 0.95661 0.64669 0.0
C585 C 0.17337 0.92766 0.63334 0.0
C586 C 0.17342 0.92435 0.55325 0.0
C587 C 0.13854 0.94829 0.56702 0.0
N588 N 0.08532 0.98123 0.62747 0.0
N589 N 0.21805 0.88304 0.57493 0.0
C590 C 0.1225 0.96329 0.61385 0.0
C591 C 0.18914 0.91151 0.58677 0.0
N592 N 0.13326 0.97773 0.69108 0.0
N593 N 0.19082 0.91357 0.50834 0.0
H594 H 0.23111 0.87465 0.59884 0.0
H595 H 0.22769 0.86628 0.54195 0.0
H596 H 0.17921 0.92224 0.48357 0.0
H597 H 0.21829 0.89874 0.49576 0.0
H598 H 0.11623 1.00402 0.70167 0.0
H599 H 0.1451 0.97196 0.71725 0.0
H600 H 0.06745 0.98459 0.66045 0.0
H601 H 0.07032 0.99009 0.60566 0.0
C602 C 0.16393 0.14836 0.70563 0.0
C603 C 0.20773 0.17666 0.69318 0.0
C604 C 0.20057 0.15042 0.61314 0.0
C605 C 0.15536 0.126 0.62558 0.0
N606 N 0.1013 0.08661 0.68071 0.0
N607 N 0.27411 0.18258 0.63508 0.0
C608 C 0.13971 0.11943 0.6708 0.0
C609 C 0.22806 0.17102 0.6468 0.0
N610 N 0.14406 0.15066 0.75005 0.0
N611 N 0.21758 0.1536 0.56909 0.0
H612 H 0.29518 0.19291 0.65922 0.0
H613 H 0.29119 0.17594 0.60194 0.0
H614 H 0.20029 0.13489 0.54267 0.0
H615 H 0.24821 0.17601 0.55913 0.0
H616 H 0.11158 0.13215 0.76083 0.0
H617 H 0.15781 0.17362 0.77691 0.0
H618 H 0.09119 0.076 0.71149 0.0
H619 H 0.08087 0.0675 0.65708 0.0
C620 C 0.06436 0.18922 0.7409 0.0
C621 C 1.03199 0.16641 0.77248 0.0
C622 C 1.00143 0.10665 0.71325 0.0
C623 C 1.02648 0.1333 0.68041 0.0
N624 N 0.08521 0.20222 0.66455 0.0
N625 N 1.00378 0.08887 0.78379 0.0
C626 C 0.05984 0.175 0.69427 0.0
C627 C 1.01293 0.11968 0.75664 0.0
N628 N 0.09669 0.2262 0.75684 0.0
N629 N 0.96386 0.07234 0.70524 0.0
H630 H 1.014 0.09874 0.81531 0.0
H631 H 0.99045 0.05376 0.77276 0.0
H632 H 0.95054 0.0646 0.67565 0.0
H633 H 0.94306 0.0557 0.73069 0.0
H634 H 0.12405 0.24368 0.73649 0.0
H635 H 0.09736 0.2365 0.79153 0.0
H636 H 0.10703 0.23402 0.674 0.0
H637 H 0.08329 0.19533 0.6306 0.0
C638 C 0.90227 0.92468 0.71995 0.0
C639 C 0.86798 0.88452 0.70862 0.0
C640 C 0.87785 0.90064 0.63323 0.0
C641 C 0.91565 0.93724 0.64253 0.0
N642 N 0.97092 0.97638 0.69108 0.0
N643 N 0.83506 0.82677 0.64881 0.0
C644 C 0.92987 0.94732 0.68497 0.0
C645 C 0.85854 0.87064 0.66381 0.0
N646 N 0.90798 0.94189 0.76385 0.0
N647 N 0.86196 0.89284 0.59394 0.0
H648 H 0.82623 0.80167 0.66814 0.0
H649 H 0.83037 0.8136 0.61538 0.0
H650 H 0.87751 0.91249 0.56944 0.0
H651 H 0.83159 0.86944 0.58761 0.0
H652 H 0.93012 0.97339 0.77401 0.0
H653 H 0.88755 0.92694 0.79049 0.0
H654 H 0.98539 0.98007 0.7192 0.0
H655 H 0.99168 0.9943 0.66658 0.0
C656 C 0.36701 0.14982 0.22005 0.0
C657 C 0.35275 0.17933 0.20091 0.0
C658 C 0.38906 0.14536 0.1257 0.0
C659 C 0.40969 0.1219 0.14576 0.0
N660 N 0.41916 0.10222 0.21238 0.0
N661 N 0.35434 0.20868 0.13559 0.0
C662 C 0.39872 0.12414 0.1931 0.0
C663 C 0.36442 0.17764 0.15364 0.0
N664 N 0.34891 0.14505 0.26353 0.0
N665 N 0.39289 0.13675 0.07982 0.0
H666 H 0.33662 0.23308 0.15467 0.0
H667 H 0.36687 0.21293 0.10242 0.0
H668 H 0.40988 0.11285 0.0586 0.0
H669 H 0.3752 0.14931 0.06322 0.0
H670 H 0.35471 0.12119 0.27841 0.0
H671 H 0.32434 0.16184 0.28332 0.0
H672 H 0.41703 0.10695 0.24716 0.0
H673 H 0.44016 0.08081 0.19326 0.0
C674 C 0.91591 0.3892 0.20198 0.0
C675 C 0.88748 0.34572 0.18714 0.0
C676 C 0.9148 0.3544 0.10835 0.0
C677 C 0.93547 0.40153 0.12396 0.0
N678 N 0.95982 0.46318 0.1854 0.0
N679 N 0.85981 0.28544 0.12668 0.0
C680 C 0.93762 0.41856 0.17075 0.0
C681 C 0.88744 0.32754 0.14037 0.0
N682 N 0.92275 0.4018 0.24584 0.0
N683 N 0.92164 0.33509 0.06331 0.0
H684 H 0.84116 0.26401 0.14902 0.0
H685 H 0.85343 0.27283 0.09376 0.0
H686 H 0.94256 0.35299 0.03902 0.0
H687 H 0.91056 0.30003 0.05041 0.0
H688 H 0.94624 0.43116 0.25819 0.0
H689 H 0.90779 0.3804 0.26909 0.0
H690 H 0.95743 0.4797 0.21927 0.0
H691 H 0.97993 0.48442 0.16338 0.0
C692 C 0.62566 0.92216 0.16406 0.0
C693 C 0.67131 0.92418 0.14208 0.0
C694 C 0.66129 0.96437 0.08848 0.0
C695 C 0.61418 0.9562 0.10548 0.0
N696 N 0.55117 0.93013 0.16139 0.0
N697 N 0.72927 0.93815 0.07722 0.0
C698 C 0.59616 0.93567 0.14386 0.0
C699 C 0.68809 0.94256 0.10244 0.0
N700 N 0.61113 0.90886 0.20478 0.0
N701 N 0.68117 0.99509 0.06085 0.0
H702 H 0.74977 0.92142 0.08563 0.0
H703 H 0.74075 0.94676 0.04548 0.0
H704 H 0.66375 1.01629 0.05495 0.0
H705 H 0.71602 1.00473 0.05005 0.0
H706 H 0.57963 0.91032 0.22462 0.0
H707 H 0.63189 0.89896 0.22032 0.0
H708 H 0.53432 0.91083 0.18597 0.0
H709 H 0.53035 0.9443 0.15016 0.0
C710 C 0.21785 0.6724 0.16174 0.0
C711 C 0.19781 0.70461 0.19614 0.0
C712 C 0.13045 0.67784 0.15919 0.0
C713 C 0.14784 0.64091 0.12961 0.0
N714 N 0.20367 0.59644 0.11443 0.0
N715 N 0.12831 0.72793 0.23312 0.0
C716 C 0.19017 0.63615 0.13452 0.0
C717 C 0.15207 0.70439 0.19661 0.0
N718 N 0.26365 0.67752 0.15274 0.0
N719 N 0.09508 0.68979 0.15052 0.0
H720 H 0.14125 0.74528 0.26249 0.0
H721 H 0.09385 0.72541 0.23621 0.0
H722 H 0.08081 0.67443 0.12156 0.0
H723 H 0.08391 0.71891 0.16915 0.0
H724 H 0.27954 0.6565 0.12564 0.0
H725 H 0.28611 0.70618 0.16793 0.0
H726 H 0.23278 0.59022 0.11991 0.0
H727 H 0.18277 0.56775 0.09743 0.0
C728 C 0.33427 0.87809 0.9319 0.0
C729 C 0.34904 0.88194 0.88606 0.0
C730 C 0.42074 0.93333 0.90421 0.0
C731 C 0.40925 0.92206 0.94761 0.0
N732 N 0.35578 0.88296 1.00332 0.0
N733 N 0.40645 0.91231 0.82732 0.0
C734 C 0.3659 0.89478 0.96197 0.0
C735 C 0.39203 0.90999 0.87192 0.0
N736 N 0.28979 0.85904 0.94658 0.0
N737 N 0.45869 0.96684 0.89423 0.0
H738 H 0.38597 0.89667 0.8028 0.0
H739 H 0.43956 0.92749 0.81412 0.0
H740 H 0.48045 0.98464 0.91723 0.0
H741 H 0.46633 0.97996 0.86491 0.0
H742 H 0.27587 0.85863 0.98041 0.0
H743 H 0.26587 0.84756 0.92517 0.0
H744 H 0.32665 0.85886 1.0135 0.0
H745 H 0.37803 0.89484 1.02643 0.0
C746 C 0.15637 0.33559 0.89869 0.0
C747 C 0.18405 0.34667 0.85751 0.0
C748 C 0.14793 0.4116 0.87095 0.0
C749 C 0.1287 0.40675 0.91619 0.0
N750 N 0.12339 0.36617 0.97517 0.0
N751 N 0.21291 0.40601 0.81244 0.0
C752 C 0.13503 0.36911 0.93066 0.0
C753 C 0.18139 0.38739 0.84549 0.0
N754 N 0.14889 0.2926 0.90704 0.0
N755 N 0.13443 0.43954 0.85197 0.0
H756 H 0.24201 0.39456 0.79725 0.0
H757 H 0.21369 0.4373 0.8051 0.0
H758 H 0.10879 0.45627 0.86883 0.0
H759 H 0.14482 0.44138 0.81791 0.0
H760 H 0.12631 0.28195 0.93496 0.0
H761 H 0.16035 0.26596 0.88329 0.0
H762 H 0.1318 0.34204 0.98766 0.0
H763 H 0.10974 0.39038 1.00034 0.0
C764 C 0.70991 0.1955 0.92243 0.0
C765 C 0.69464 0.19259 0.88201 0.0
C766 C 0.62555 0.13471 0.9047 0.0
C767 C 0.64098 0.13785 0.94518 0.0
N768 N 0.70268 0.16133 0.98653 0.0
N769 N 0.64138 0.1556 0.83114 0.0
C770 C 0.68451 0.16563 0.95237 0.0
C771 C 0.6535 0.16084 0.87203 0.0
N772 N 0.74892 0.22691 0.93222 0.0
N773 N 0.58359 0.10786 0.89823 0.0
H774 H 0.65955 0.17604 0.80778 0.0
H775 H 0.61477 0.12976 0.81917 0.0
H776 H 0.56326 0.08698 0.92045 0.0
H777 H 0.5677 0.10778 0.87233 0.0
H778 H 0.75884 0.23528 0.96366 0.0
H779 H 0.77035 0.24678 0.90964 0.0
H780 H 0.73582 0.17706 0.99138 0.0
H781 H 0.68598 0.13801 1.00745 0.0
C782 C 0.90278 0.63391 0.94547 0.0
C783 C 0.93329 0.67667 0.9394 0.0
C784 C 0.98655 0.66109 0.97634 0.0
C785 C 0.95748 0.61683 0.98019 0.0
N786 N 0.8932 0.55705 0.9577 0.0
N787 N 1.00917 0.72446 0.93713 0.0
C788 C 0.91708 0.60199 0.96153 0.0
C789 C 0.97686 0.68797 0.95079 0.0
N790 N 0.8597 0.62433 0.93729 0.0
N791 N 1.0215 0.67942 0.99992 0.0
H792 H 1.00319 0.74506 0.91843 0.0
H793 H 0.04299 0.73122 0.9403 0.0
H794 H 1.02742 0.66324 1.02255 0.0
H795 H 0.04095 0.71315 1.00155 0.0
H796 H 0.83446 0.59607 0.94587 0.0
H797 H 0.84823 0.64652 0.92498 0.0
H798 H 0.86594 0.54317 0.94049 0.0
H799 H 0.90351 0.53244 0.96763 0.0
C800 C 0.10341 0.41095 0.15205 0.0
C801 C 0.14055 0.39094 0.13092 0.0
C802 C 0.16702 0.44583 0.0803 0.0
C803 C 0.12624 0.4613 0.0965 0.0
N804 N 0.06901 0.47457 0.16176 0.0
N805 N 0.20465 0.38504 0.07108 0.0
C806 C 0.09787 0.44821 0.13636 0.0
C807 C 0.1714 0.40716 0.09395 0.0
N808 N 0.07266 0.39335 0.18621 0.0
N809 N 0.20363 0.47064 0.05582 0.0
H810 H 0.20994 0.35726 0.08056 0.0
H811 H 0.22427 0.39155 0.0403 0.0
H812 H 0.20572 0.50358 0.05188 0.0
H813 H 0.23501 0.4625 0.04619 0.0
H814 H 0.04196 0.40246 0.19942 0.0
H815 H 0.07629 0.36684 0.19905 0.0
H816 H 0.0503 0.46969 0.19331 0.0
H817 H 0.06868 0.50547 0.15432 0.0
C818 C 0.14972 0.7033 0.89059 0.0
C819 C 0.19505 0.72731 0.89467 0.0
C820 C 0.1871 0.6996 0.96398 0.0
C821 C 0.14497 0.66981 0.95554 0.0
N822 N 0.08631 0.6407 0.91 0.0
N823 N 0.25857 0.74615 0.93327 0.0
C824 C 0.1259 0.67143 0.91901 0.0
C825 C 0.21411 0.72527 0.93112 0.0
N826 N 0.12984 0.71032 0.85905 0.0
N827 N 0.20121 0.70315 1.00346 0.0
H828 H 0.27924 0.76593 0.91034 0.0
H829 H 0.27585 0.7414 0.95587 0.0
H830 H 0.18183 0.68479 1.02817 0.0
H831 H 0.2297 0.72736 1.01365 0.0
H832 H 0.09557 0.6974 0.85737 0.0
H833 H 0.14685 0.73218 0.83664 0.0
H834 H 0.07307 0.63642 0.88101 0.0
H835 H 0.06778 0.61741 0.93055 0.0
C836 C 0.39549 0.08483 0.93165 0.0
C837 C 0.4061 0.12979 0.92328 0.0
C838 C 0.47654 0.14797 0.95305 0.0
C839 C 0.46144 0.10614 0.96928 0.0
N840 N 0.39953 0.04008 0.98255 0.0
N841 N 0.45538 0.20613 0.92865 0.0
C842 C 0.41941 0.07543 0.9602 0.0
C843 C 0.44655 0.16186 0.93426 0.0
N844 N 0.36185 0.05135 0.91312 0.0
N845 N 0.51964 0.17415 0.95497 0.0
H846 H 0.43454 0.21733 0.91442 0.0
H847 H 0.48155 0.23246 0.94096 0.0
H848 H 0.54276 0.16509 0.96812 0.0
H849 H 0.53388 0.20237 0.93947 0.0
H850 H 0.35571 1.01679 0.91469 0.0
H851 H 0.34348 0.05739 0.89217 0.0
H852 H 0.36732 1.01907 0.97952 0.0
H853 H 0.41194 0.03597 1.00903 0.0
C854 C 0.90692 0.40381 0.86621 0.0
C855 C 0.86638 0.37165 0.87998 0.0
C856 C 0.88454 0.39052 0.95629 0.0
C857 C 0.92312 0.42583 0.94416 0.0
N858 N 0.96553 0.47176 0.88899 0.0
N859 N 0.81094 0.34421 0.94112 0.0
C860 C 0.93296 0.434 0.89939 0.0
C861 C 0.85362 0.36793 0.9259 0.0
N862 N 0.92126 0.40477 0.82136 0.0
N863 N 0.87799 0.37716 0.99644 0.0
H864 H 0.78662 0.32922 0.92029 0.0
H865 H 0.79809 0.34404 0.97521 0.0
H866 H 0.89998 0.3918 1.01954 0.0
H867 H 0.85339 0.34832 1.00469 0.0
H868 H 0.95291 0.42368 0.80859 0.0
H869 H 0.9027 0.38402 0.79649 0.0
H870 H 0.97092 0.48225 0.85847 0.0
H871 H 0.98454 0.49501 0.91233 0.0
C872 C 0.72259 0.9294 0.86594 0.0
C873 C 0.71786 0.88325 0.86941 0.0
C874 C 0.6632 0.89403 0.93904 0.0
C875 C 0.66188 0.93717 0.93212 0.0
N876 N 0.68933 0.99581 0.88751 0.0
N877 N 0.67609 0.81872 0.90431 0.0
C878 C 0.6917 0.95519 0.89532 0.0
C879 C 0.68596 0.86474 0.90451 0.0
N880 N 0.75637 0.94836 0.83465 0.0
N881 N 0.64425 0.88174 0.97965 0.0
H882 H 0.69107 0.79559 0.87887 0.0
H883 H 0.64963 0.80284 0.92677 0.0
H884 H 0.63154 0.90455 1.007 0.0
H885 H 0.64733 0.85232 0.98791 0.0
H886 H 0.76439 0.98302 0.83298 0.0
H887 H 0.77845 0.92983 0.8122 0.0
H888 H 0.70672 1.0086 0.85872 0.0
H889 H 0.66791 1.01564 0.909 0.0
C890 C 0.92017 0.72888 0.17977 0.0
C891 C 0.89251 0.7162 0.22025 0.0
C892 C 0.92969 0.65176 0.20458 0.0
C893 C 0.9485 0.65805 0.15968 0.0
N894 N 0.95187 0.69998 0.10257 0.0
N895 N 0.86502 0.6556 0.2639 0.0
C896 C 0.94152 0.69621 0.14676 0.0
C897 C 0.89597 0.67519 0.23109 0.0
N898 N 0.92718 0.77237 0.17286 0.0
N899 N 0.94365 0.62296 0.22205 0.0
H900 H 0.83603 0.66681 0.28023 0.0
H901 H 0.8647 0.62397 0.27016 0.0
H902 H 0.96927 0.60656 0.20421 0.0
H903 H 0.93358 0.61996 0.25583 0.0
H904 H 0.94964 0.78398 0.14532 0.0
H905 H 0.91539 0.79833 0.19742 0.0
H906 H 0.9436 0.72494 0.09118 0.0
H907 H 0.96345 0.67501 0.07684 0.0
C908 C 0.40179 0.84793 0.1598 0.0
C909 C 0.37012 0.86822 0.19337 0.0
C910 C 0.39615 0.93776 0.16062 0.0
C911 C 0.43151 0.91971 0.13012 0.0
N912 N 0.4742 0.86096 0.1107 0.0
N913 N 0.34804 0.93845 0.23386 0.0
C914 C 0.43623 0.87582 0.13276 0.0
C915 C 0.3706 0.91497 0.19629 0.0
N916 N 0.39812 0.80159 0.15212 0.0
N917 N 0.38449 0.9747 0.15435 0.0
H918 H 0.33169 0.92406 0.26199 0.0
H919 H 0.35057 0.9737 0.23919 0.0
H920 H 0.3989 0.99018 0.12664 0.0
H921 H 0.3564 0.98625 0.17375 0.0
H922 H 0.41756 0.78437 0.12482 0.0
H923 H 0.37255 0.77955 0.16996 0.0
H924 H 0.48095 0.83155 0.11535 0.0
H925 H 0.50157 0.88063 0.09234 0.0
C926 C 0.71952 0.22263 0.15324 0.0
C927 C 0.7257 0.20147 0.18595 0.0
C928 C 0.6778 0.12797 0.15378 0.0
C929 C 0.66746 0.15039 0.12429 0.0
N930 N 0.67754 0.21872 0.09544 0.0
N931 N 0.70988 0.13571 0.22013 0.0
C932 C 0.68845 0.19758 0.12359 0.0
C933 C 0.70531 0.15435 0.18648 0.0
N934 N 0.74387 0.26657 0.15037 0.0
N935 N 0.66042 0.08171 0.15125 0.0
H936 H 0.73022 0.15381 0.24434 0.0
H937 H 0.6916 0.10331 0.22604 0.0
H938 H 0.63716 0.06207 0.13054 0.0
H939 H 0.67086 0.0621 0.16758 0.0
H940 H 0.74474 0.28267 0.12452 0.0
H941 H 0.76608 0.28625 0.17238 0.0
H942 H 0.68669 0.25414 0.09726 0.0
H943 H 0.65739 0.20093 0.07106 0.0
C944 C 0.67812 0.64214 0.83751 0.0
C945 C 0.70453 0.68487 0.85764 0.0
C946 C 0.66833 0.66873 0.93299 0.0
C947 C 0.64216 0.62584 0.91249 0.0
N948 N 0.60883 0.58325 0.84659 0.0
N949 N 0.718 0.74342 0.92491 0.0
C950 C 0.64283 0.61588 0.86517 0.0
C951 C 0.69784 0.69949 0.90556 0.0
N952 N 0.68788 0.62554 0.79204 0.0
N953 N 0.66434 0.68021 0.97906 0.0
H954 H 0.73997 0.76721 0.90652 0.0
H955 H 0.71041 0.75798 0.95905 0.0
H956 H 0.6385 0.66199 1.00034 0.0
H957 H 0.68688 0.707 0.99623 0.0
H958 H 0.67272 0.59238 0.77641 0.0
H959 H 0.71449 0.6429 0.77074 0.0
H960 H 0.60628 0.57731 0.81261 0.0
H961 H 0.57972 0.56707 0.8659 0.0
C962 C 0.48721 0.68505 0.92651 0.0
C963 C 0.4422 0.67481 0.91871 0.0
C964 C 0.41773 0.62043 0.96925 0.0
C965 C 0.46253 0.63184 0.97941 0.0
N966 N 0.53628 0.68485 0.97646 0.0
N967 N 0.36283 0.6453 0.94429 0.0
C968 C 0.49623 0.66731 0.96073 0.0
C969 C 0.40693 0.64717 0.94447 0.0
N970 N 0.52139 0.71074 0.90058 0.0
N971 N 0.38631 0.58149 0.97869 0.0
H972 H 0.3535 0.6637 0.92568 0.0
H973 H 0.33588 0.62938 0.96631 0.0
H974 H 0.39235 0.5568 0.99198 0.0
H975 H 0.35542 0.57 0.96729 0.0
H976 H 0.5555 0.71505 0.90111 0.0
H977 H 0.5155 0.72545 0.8765 0.0
H978 H 0.56075 0.71299 0.96653 0.0
H979 H 0.54293 0.67448 1.00312 0.0
C980 C 0.39613 0.41974 0.86151 0.0
C981 C 0.36598 0.37853 0.8721 0.0
C982 C 0.38021 0.40324 0.94985 0.0
C983 C 0.40527 0.44711 0.94098 0.0
N984 N 0.42849 0.50011 0.88975 0.0
N985 N 0.31875 0.33854 0.93034 0.0
C986 C 0.41067 0.45631 0.89717 0.0
C987 C 0.35495 0.37227 0.91741 0.0
N988 N 0.41221 0.4235 0.81744 0.0
N989 N 0.38209 0.38982 0.98782 0.0
H990 H 0.29662 0.31829 0.9086 0.0
H991 H 0.30745 0.33515 0.96393 0.0
H992 H 0.40246 0.40992 1.01135 0.0
H993 H 0.36739 0.35637 0.99306 0.0
H994 H 0.43779 0.45117 0.808 0.0
H995 H 0.40358 0.39678 0.79028 0.0
H996 H 0.42911 0.50913 0.85948 0.0
H997 H 0.43821 0.52832 0.9152 0.0
C998 C 0.51875 0.38757 0.84074 0.0
C999 C 0.51178 0.35006 0.86129 0.0
C1000 C 0.52323 0.40445 0.93173 0.0
C1001 C 0.55223 0.43663 0.905 0.0
N1002 N 0.56808 0.45994 0.83203 0.0
N1003 N 0.46898 0.329 0.93003 0.0
C1004 C 0.54647 0.42937 0.85923 0.0
C1005 C 0.49966 0.36111 0.90861 0.0
N1006 N 0.50489 0.38223 0.8011 0.0
N1007 N 0.51801 0.41523 0.97775 0.0
H1008 H 0.45366 0.2975 0.91125 0.0
H1009 H 0.45737 0.33441 0.96476 0.0
H1010 H 0.53168 0.44793 0.99538 0.0
H1011 H 0.4997 0.39204 0.99838 0.0
H1012 H 0.48505 0.351 0.7863 0.0
H1013 H 0.48505 0.351 0.7863 0.0
H1014 H 0.59197 0.49017 0.84186 0.0
H1015 H 0.59197 0.49017 0.84186 0.0
C1016 C 0.58988 0.41655 0.17086 0.0
C1017 C 0.62858 0.39873 0.15373 0.0
C1018 C 0.62793 0.41063 0.07881 0.0
C1019 C 0.59721 0.43928 0.09887 0.0
N1020 N 0.55706 0.47672 0.16906 0.0
N1021 N 0.68574 0.3788 0.09044 0.0
C1022 C 0.57926 0.44336 0.14608 0.0
C1023 C 0.64771 0.39508 0.10718 0.0
N1024 N 0.56457 0.40976 0.21185 0.0
N1025 N 0.63774 0.39787 1.03284 0.0
H1026 H 0.70066 0.36658 0.11007 0.0
H1027 H 0.70394 0.38017 0.05792 0.0
H1028 H 0.62219 0.40701 1.01139 0.0
H1029 H 0.65719 0.37421 1.01647 0.0
H1030 H 0.53374 0.41894 0.22412 0.0
H1031 H 0.57202 0.39042 0.2309 0.0
H1032 H 0.54628 0.48256 0.20397 0.0
H1033 H 0.55638 0.50349 0.15518 0.0
C1034 C 0.71422 0.69518 0.1627 0.0
C1035 C 0.70607 0.68519 0.20642 0.0
C1036 C 0.66228 0.6082 0.17729 0.0
C1037 C 0.6635 0.6218 0.1366 0.0
N1038 N 0.68192 0.68412 0.09646 0.0
N1039 N 0.66475 0.6338 0.25722 0.0
C1040 C 0.68685 0.66705 0.13092 0.0
C1041 C 0.67786 0.64209 0.21439 0.0
N1042 N 0.75017 0.72924 0.15012 0.0
N1043 N 0.64822 0.56277 0.17986 0.0
H1044 H 0.67371 0.65851 0.2856 0.0
H1045 H 0.64099 0.60421 0.26487 0.0
H1046 H 0.64034 0.53681 0.15194 0.0
H1047 H 0.64991 0.55072 0.20766 0.0
H1048 H 0.75897 0.73559 0.11741 0.0
H1049 H 0.77463 0.74609 0.17033 0.0
H1050 H 0.69574 0.71849 0.09385 0.0
H1051 H 0.66006 0.66575 0.07377 0.0
C1052 C 0.55594 0.71289 0.18389 0.0
C1053 C 0.54667 0.71607 0.23099 0.0
C1054 C 0.52248 0.63377 0.22102 0.0
C1055 C 0.51295 0.63246 0.17779 0.0
N1056 N 0.53884 0.66662 0.11105 0.0
N1057 N 0.56855 0.68022 0.27837 0.0
C1058 C 0.53576 0.67074 0.1564 0.0
C1059 C 0.54763 0.67606 0.24337 0.0
N1060 N 0.58227 0.75022 0.16703 0.0
N1061 N 0.50518 0.5971 0.24189 0.0
H1062 H 0.57147 0.65204 0.28906 0.0
H1063 H 0.57147 0.65204 0.28906 0.0
H1064 H 0.4842 0.56639 0.22796 0.0
H1065 H 0.50855 0.5989 0.27492 0.0
H1066 H 0.59242 0.75028 0.13265 0.0
H1067 H 0.59542 0.78059 0.18884 0.0
H1068 H 0.55194 0.69435 0.09479 0.0
H1069 H 0.52901 0.63506 0.08945 0.0
C1070 C 0.40498 0.37344 0.18506 0.0
C1071 C 0.37169 0.38677 0.22205 0.0
C1072 C 0.39218 0.46467 0.20629 0.0
C1073 C 0.42359 0.45053 0.1677 0.0
N1074 N 0.464 0.39428 0.12216 0.0
N1075 N 0.3367 0.44534 0.27218 0.0
C1076 C 0.4315 0.40579 0.15789 0.0
C1077 C 0.36653 0.43269 0.2342 0.0
N1078 N 0.41043 0.32942 0.17569 0.0
N1079 N 0.38622 0.50845 0.21531 0.0
H1080 H 0.31592 0.42231 0.29211 0.0
H1081 H 0.33326 0.47882 0.2855 0.0
H1082 H 0.40608 0.53331 0.19703 0.0
H1083 H 0.36132 0.52052 0.24009 0.0
H1084 H 0.43083 0.31527 0.14723 0.0
H1085 H 0.39381 0.30602 0.19668 0.0
H1086 H 0.47469 0.36394 0.11461 0.0
H1087 H 0.48182 0.41612 0.10006 0.0
C1088 C 0.88612 0.68886 0.65412 0.0
C1089 C 0.8701 0.69086 0.70129 0.0
C1090 C 0.92669 0.65081 0.70281 0.0
C1091 C 0.93927 0.64377 0.655 0.0
N1092 N 0.92304 0.64849 0.58419 0.0
N1093 N 0.8663 0.66001 0.76629 0.0
C1094 C 0.91683 0.6607 0.63026 0.0
C1095 C 0.88769 0.66752 0.72425 0.0
N1096 N 0.87366 0.71498 0.63217 0.0
N1097 N 0.95299 0.64326 0.72823 0.0
H1098 H 0.83618 0.66962 0.7822 0.0
H1099 H 0.87567 0.63975 0.78287 0.0
H1100 H 0.98357 0.63396 0.7142 0.0
H1101 H 0.94717 0.65168 0.76347 0.0
H1102 H 0.88851 0.71896 0.59926 0.0
H1103 H 0.85102 0.73543 0.64786 0.0
H1104 H 0.90378 0.65563 0.56491 0.0
H1105 H 0.94449 0.62762 0.56546 0.0
C1106 C 0.34824 0.8936 0.679 0.0
C1107 C 0.35587 0.85082 0.67965 0.0
C1108 C 0.41623 0.85854 0.61346 0.0
C1109 C 0.40936 0.90263 0.6151 0.0
N1110 N 0.35391 0.94732 0.63259 0.0
N1111 N 0.38727 0.78608 0.63946 0.0
C1112 C 0.3698 0.91463 0.64189 0.0
C1113 C 0.38697 0.83118 0.64439 0.0
N1114 N 0.32392 0.91652 0.71547 0.0
N1115 N 0.45046 0.84279 0.58324 0.0
H1116 H 0.3655 0.76495 0.66081 0.0
H1117 H 0.40602 0.76837 0.61198 0.0
H1118 H 0.46684 0.85623 0.55465 0.0
H1119 H 0.46205 0.81548 0.58614 0.0
H1120 H 0.32174 0.95004 0.71765 0.0
H1121 H 0.31119 0.90476 0.74558 0.0
H1122 H 0.32332 0.95519 0.64964 0.0
H1123 H 0.36906 0.96233 0.60447 0.0
C1124 C 0.14171 0.42661 0.65978 0.0
C1125 C 0.18738 0.44215 0.63981 0.0
C1126 C 0.16488 0.49059 0.6024 0.0
C1127 C 0.11859 0.47013 0.61724 0.0
N1128 N 0.06331 0.41162 0.65339 0.0
N1129 N 0.24221 0.48328 0.58645 0.0
C1130 C 0.10703 0.4363 0.64428 0.0
C1131 C 0.19895 0.47253 0.60944 0.0
N1132 N 0.13145 0.4035 0.69436 0.0
N1133 N 0.17656 0.52878 0.58381 0.0
H1134 H 0.26818 0.47082 0.59084 0.0
H1135 H 0.25133 0.50122 0.56023 0.0
H1136 H 0.15296 0.54466 0.57991 0.0
H1137 H 0.20983 0.5477 0.57678 0.0
H1138 H 0.09911 0.39578 0.71339 0.0
H1139 H 0.15597 0.396 0.70699 0.0
H1140 H 0.05409 0.38322 0.66867 0.0
H1141 H 0.03675 0.41626 0.64172 0.0
C1142 C 0.69828 0.19575 0.66075 0.0
C1143 C 0.70963 0.17722 0.69255 0.0
C1144 C 0.65314 0.10522 0.67315 0.0
C1145 C 0.63775 0.12581 0.64541 0.0
N1146 N 0.64172 0.19363 0.61834 0.0
N1147 N 0.69834 0.11497 0.7302 0.0
C1148 C 0.65967 0.1717 0.64015 0.0
C1149 C 0.68763 0.13186 0.69858 0.0
N1150 N 0.72482 0.23638 0.65005 0.0
N1151 N 0.63511 0.05991 0.67483 0.0
H1152 H 0.72544 0.13221 0.74711 0.0
H1153 H 0.67933 0.08506 0.74134 0.0
H1154 H 0.60819 0.04025 0.65901 0.0
H1155 H 0.64849 0.04098 0.68924 0.0
H1156 H 0.72121 0.24965 0.62387 0.0
H1157 H 0.75348 0.2544 0.66443 0.0
H1158 H 0.65308 0.22865 0.61801 0.0
H1159 H 0.6129 0.17791 0.60368 0.0
C1160 C 0.88222 0.36344 0.42022 0.0
C1161 C 0.87113 0.38039 0.38689 0.0
C1162 C 0.93496 0.44779 0.39598 0.0
C1163 C 0.94665 0.43088 0.42925 0.0
N1164 N 0.93666 0.36814 0.46637 0.0
N1165 N 0.87983 0.44426 0.35156 0.0
C1166 C 0.92113 0.38786 0.44028 0.0
C1167 C 0.89499 0.42437 0.37774 0.0
N1168 N 0.85464 0.32428 0.43335 0.0
N1169 N 0.96358 0.48432 0.37886 0.0
H1170 H 0.85332 0.42771 0.33388 0.0
H1171 H 0.89132 0.47906 0.35017 0.0
H1172 H 0.99404 0.50223 0.38909 0.0
H1173 H 0.95985 0.49402 0.35051 0.0
H1174 H 0.85703 0.31261 0.46105 0.0
H1175 H 0.82667 0.30501 0.41851 0.0
H1176 H 0.9226 0.33482 0.47191 0.0
H1177 H 0.96664 0.3831 0.47918 0.0
C1178 C 0.695 0.88905 0.40339 0.0
C1179 C 0.67829 0.84407 0.3784 0.0
C1180 C 0.60063 0.85593 0.40232 0.0
C1181 C 0.61785 0.90095 0.42695 0.0
N1182 N 0.67868 0.95345 0.46265 0.0
N1183 N 0.61472 0.78183 0.35929 0.0
C1184 C 0.66422 0.91524 0.43104 0.0
C1185 C 0.63081 0.82646 0.37988 0.0
N1186 N 0.74059 0.90779 0.39957 0.0
N1187 N 0.55581 0.84206 0.39902 0.0
H1188 H 0.63595 0.76027 0.34136 0.0
H1189 H 0.58055 0.76513 0.36206 0.0
H1190 H 0.53269 0.86135 0.41725 0.0
H1191 H 0.54163 0.81237 0.37735 0.0
H1192 H 0.75463 0.94231 0.41227 0.0
H1193 H 0.7647 0.8899 0.38091 0.0
H1194 H 0.7109 0.96292 0.47098 0.0
H1195 H 0.6569 0.97288 0.48416 0.0
C1196 C 0.14509 0.71261 0.38749 0.0
C1197 C 0.18615 0.74062 0.3999 0.0
C1198 C 0.17024 0.70563 0.46673 0.0
C1199 C 0.13357 0.67165 0.44919 0.0
N1200 N 0.09317 0.63864 0.38575 0.0
N1201 N 0.23867 0.76576 0.4517 0.0
C1202 C 0.12256 0.67427 0.4079 0.0
C1203 C 0.19869 0.73821 0.44013 0.0
N1204 N 0.12809 0.72207 0.35522 0.0
N1205 N 0.17879 0.70561 0.50782 0.0
H1206 H 0.25884 0.79079 0.43365 0.0
H1207 H 0.25261 0.76283 0.47779 0.0
H1208 H 0.16029 0.68057 0.52644 0.0
H1209 H 0.20225 0.73164 0.52458 0.0
H1210 H 0.09598 0.70527 0.34757 0.0
H1211 H 0.14408 0.75035 0.34004 0.0
H1212 H 0.08808 0.63702 0.35335 0.0
H1213 H 0.07744 0.60846 0.39721 0.0
C1214 C 0.41162 0.13665 0.45631 0.0
C1215 C 0.43665 0.17408 0.43521 0.0
C1216 C 0.50695 0.16105 0.44376 0.0
C1217 C 0.48292 0.12017 0.45989 0.0
N1218 N 0.41189 0.06522 0.47479 0.0
N1219 N 0.50839 0.21434 0.39855 0.0
C1220 C 0.43496 0.10689 0.46441 0.0
C1221 C 0.48437 0.18364 0.42543 0.0
N1222 N 0.36586 0.13019 0.46952 0.0
N1223 N 0.55048 0.18096 0.44963 0.0
H1224 H 0.4931 0.23174 0.38422 0.0
H1225 H 0.5431 0.21887 0.38687 0.0
H1226 H 0.56588 0.16897 0.46861 0.0
H1227 H 0.56839 0.21287 0.44196 0.0
H1228 H 0.34644 0.10658 0.48937 0.0
H1229 H 0.34781 0.15096 0.46347 0.0
H1230 H 0.37745 0.05156 0.47431 0.0
H1231 H 0.42827 0.04257 0.47987 0.0
C1232 C 0.59072 0.8846 0.65561 0.0
C1233 C 0.63557 0.88406 0.63366 0.0
C1234 C 0.63805 0.94772 0.59896 0.0
C1235 C 0.59082 0.94328 0.61525 0.0
N1236 N 0.52049 0.89871 0.65154 0.0
N1237 N 0.70062 0.91081 0.57954 0.0
C1238 C 0.56667 0.9095 0.64174 0.0
C1239 C 0.65893 0.91438 0.60385 0.0
N1240 N 0.5711 0.86192 0.69041 0.0
N1241 N 0.66357 0.98493 0.58103 0.0
H1242 H 0.71708 0.88716 0.58271 0.0
H1243 H 0.71704 0.92856 0.55362 0.0
H1244 H 0.65047 1.01172 0.57937 0.0
H1245 H 0.69871 0.99186 0.57251 0.0
H1246 H 0.54028 0.86555 0.71085 0.0
H1247 H 0.58756 0.84328 0.70189 0.0
H1248 H 0.50164 0.87088 0.66635 0.0
H1249 H 0.50051 0.91361 0.64041 0.0
C1250 C 0.66431 0.19848 0.38055 0.0
C1251 C 0.69883 0.2338 0.39856 0.0
C1252 C 0.6823 0.20092 0.46648 0.0
C1253 C 0.6532 0.16104 0.4445 0.0
N1254 N 0.6225 0.11996 0.37545 0.0
N1255 N 0.73765 0.274 0.46043 0.0
C1256 C 0.64572 0.15925 0.40019 0.0
C1257 C 0.70653 0.23694 0.44247 0.0
N1258 N 0.64936 0.20271 0.34423 0.0
N1259 N 0.68778 0.20352 0.5095 0.0
H1260 H 0.75173 0.30232 0.44496 0.0
H1261 H 0.74924 0.27707 0.49008 0.0
H1262 H 0.67391 0.1761 0.52619 0.0
H1263 H 0.70526 0.23283 0.52914 0.0
H1264 H 0.62074 0.1805 0.33222 0.0
H1265 H 0.66255 0.23172 0.32963 0.0
H1266 H 0.62152 0.11624 0.34138 0.0
H1267 H 0.6079 0.08919 0.38619 0.0
C1268 C 0.87382 0.57461 0.45884 0.0
C1269 C 0.88652 0.61124 0.43525 0.0
C1270 C 0.96499 0.62552 0.44464 0.0
C1271 C 0.95376 0.58545 0.46315 0.0
N1272 N 0.89736 0.51988 0.48602 0.0
N1273 N 0.94522 0.6664 0.39846 0.0
C1274 C 0.90804 0.55947 0.46992 0.0
C1275 C 0.93246 0.63504 0.42587 0.0
N1276 N 0.82899 0.5553 0.47188 0.0
N1277 N 1.00571 0.65643 0.44798 0.0
H1278 H 0.92231 0.67456 0.38413 0.0
H1279 H 0.97895 0.68105 0.38663 0.0
H1280 H 1.02893 0.6525 0.46488 0.0
H1281 H 1.01412 0.68839 0.43892 0.0
H1282 H 0.81724 0.53217 0.49359 0.0
H1283 H 0.80312 0.56496 0.46359 0.0
H1284 H 0.86606 0.49627 0.48598 0.0
H1285 H 0.92071 0.50895 0.49691 0.0
C1286 C 0.41152 0.90119 0.35703 0.0
C1287 C 0.36632 0.8932 0.37977 0.0
C1288 C 0.39268 0.93484 0.45117 0.0
C1289 C 0.43879 0.93754 0.42871 0.0
N1290 N 0.48702 0.90357 0.36289 0.0
N1291 N 0.31353 0.89544 0.44977 0.0
C1292 C 0.44683 0.91511 0.38235 0.0
C1293 C 0.35678 0.90778 0.4273 0.0
N1294 N 0.42107 0.89535 0.31106 0.0
N1295 N 0.38231 0.95882 0.49421 0.0
H1296 H 0.28629 0.87793 0.43304 0.0
H1297 H 0.3053 0.89975 0.48486 0.0
H1298 H 0.4058 0.97975 0.51406 0.0
H1299 H 0.34952 0.9616 0.50918 0.0
H1300 H 0.45396 0.90387 0.29329 0.0
H1301 H 0.39594 0.88794 0.2917 0.0
H1302 H 0.49242 0.88404 0.3302 0.0
H1303 H 0.51225 0.90718 0.38107 0.0
C1304 C 0.21514 0.40819 0.4024 0.0
C1305 C 0.20111 0.36709 0.37071 0.0
C1306 C 0.12286 0.37675 0.39139 0.0
C1307 C 0.13665 0.4169 0.42407 0.0
N1308 N 0.19328 0.46529 0.46776 0.0
N1309 N 0.1395 0.30628 0.34354 0.0
C1310 C 0.18204 0.4308 0.43177 0.0
C1311 C 0.15432 0.34965 0.36769 0.0
N1312 N 0.26024 0.42701 0.4029 0.0
N1313 N 0.0802 0.36543 0.38156 0.0
H1314 H 0.16103 0.28486 0.32662 0.0
H1315 H 0.10542 0.28975 0.344 0.0
H1316 H 0.05577 0.38348 0.39901 0.0
H1317 H 0.06998 0.34014 0.35408 0.0
H1318 H 0.27292 0.45944 0.42167 0.0
H1319 H 0.28543 0.41189 0.38162 0.0
H1320 H 0.22448 0.47409 0.47818 0.0
H1321 H 0.16978 0.48227 0.48986 0.0
C1322 C 0.43329 0.21409 0.72562 0.0
C1323 C 0.4041 0.22544 0.70362 0.0
C1324 C 0.43477 0.17963 0.63125 0.0
C1325 C 0.46299 0.16723 0.65349 0.0
N1326 N 0.4975 0.18182 0.71889 0.0
N1327 N 0.38645 0.2294 0.63341 0.0
C1328 C 0.46476 0.18739 0.69986 0.0
C1329 C 0.40812 0.21178 0.65571 0.0
N1330 N 0.4306 0.22863 0.7714 0.0
N1331 N 0.43128 0.15859 0.58737 0.0
H1332 H 0.36608 0.25214 0.64987 0.0
H1333 H 0.39165 0.22468 0.59834 0.0
H1334 H 0.45057 0.13561 0.5683 0.0
H1335 H 0.40725 0.16138 0.57073 0.0
H1336 H 0.44642 0.21713 0.79071 0.0
H1337 H 0.41096 0.25133 0.79058 0.0
H1338 H 0.50382 0.19876 0.75117 0.0
H1339 H 0.52134 0.16326 0.70067 0.0
C1340 C 0.86194 0.37851 0.68009 0.0
C1341 C 0.8722 0.3383 0.68497 0.0
C1342 C 0.93903 0.35122 0.62461 0.0
C1343 C 0.92718 0.39064 0.61966 0.0
N1344 N 0.8659 0.4261 0.62802 0.0
N1345 N 0.91253 0.27858 0.65021 0.0
C1346 C 0.88431 0.39824 0.64205 0.0
C1347 C 0.9084 0.32216 0.65371 0.0
N1348 N 0.83391 0.40067 0.7134 0.0
N1349 N 0.97945 0.34172 0.60276 0.0
H1350 H 0.88942 0.25543 0.66869 0.0
H1351 H 0.93572 0.26367 0.6253 0.0
H1352 H 1.00124 0.3595 0.57878 0.0
H1353 H 0.99215 0.31724 0.61001 0.0
H1354 H 0.82841 0.43193 0.71202 0.0
H1355 H 0.82144 0.3918 0.74494 0.0
H1356 H 0.83328 0.43047 0.64161 0.0
H1357 H 0.88154 0.44034 0.59952 0.0
C1358 C 0.1934 0.70541 0.65828 0.0
C1359 C 0.20505 0.6906 0.69253 0.0
C1360 C 0.14688 0.6187 0.67992 0.0
C1361 C 0.13165 0.63547 0.64879 0.0
N1362 N 0.13482 0.70015 0.61711 0.0
N1363 N 0.19084 0.63551 0.73952 0.0
C1364 C 0.15375 0.68012 0.63987 0.0
C1365 C 0.18165 0.64761 0.70387 0.0
N1366 N 0.22037 0.74387 0.64342 0.0
N1367 N 0.12844 0.57492 0.68673 0.0
H1368 H 0.21754 0.65462 0.75645 0.0
H1369 H 0.17052 0.60808 0.75414 0.0
H1370 H 0.09979 0.55428 0.67459 0.0
H1371 H 0.14288 0.55827 0.70267 0.0
H1372 H 0.2161 0.75426 0.61568 0.0
H1373 H 0.24989 0.76255 0.65601 0.0
H1374 H 0.14673 0.73446 0.61398 0.0
H1375 H 0.10443 0.68413 0.60527 0.0
loop_
_geom_bond_atom_site_label_1
_geom_bond_atom_site_label_2
_geom_bond_distance
_geom_bond_site_symmetry_2
_ccdc_geom_bond_type
Eu0 C9 2.828 . S
Eu0 O11 2.392 . S
Eu0 O13 2.418 . S
Eu0 O18 2.373 . S
Eu0 O21 2.488 . S
Eu0 O22 2.471 . S
Eu0 O23 2.349 . S
Eu1 O10 2.373 . S
Eu1 O14 2.488 . S
Eu1 O15 2.471 . S
Eu1 O16 2.349 . S
Eu1 O19 2.392 . S
Eu1 O20 2.418 . S
Eu1 C30 2.828 . S
C2 O20 1.244 . S
C2 O23 1.265 . S
C3 C4 1.379 . S
C3 C7 1.373 . S
C3 C9 1.505 . S
C4 C3 1.379 . S
C4 C6 1.369 . S
C4 H32 0.930 . S
C5 C7 1.383 . S
C5 C8 1.382 . S
C5 H33 0.930 . S
C6 C4 1.369 . S
C6 C8 1.392 . S
C6 H34 0.930 . S
C7 C3 1.373 . S
C7 C5 1.383 . S
C7 H35 0.931 . S
C8 C5 1.382 . S
C8 C6 1.392 . S
C9 Eu0 2.828 . S
C9 C3 1.505 . S
C9 O21 1.249 . S
C9 O22 1.244 . S
O10 Eu1 2.373 . S
O10 C12 1.258 . S
O11 Eu0 2.392 . S
O11 C12 1.242 . S
C12 O10 1.258 . S
C12 O11 1.242 . S
O13 Eu0 2.418 . S
O13 C17 1.244 . S
O14 Eu1 2.488 . S
O14 C30 1.249 . S
O15 Eu1 2.471 . S
O15 C30 1.244 . S
O16 Eu1 2.349 . S
O16 C17 1.265 . S
C17 O13 1.244 . S
C17 O16 1.265 . S
O18 Eu0 2.373 . S
O18 C31 1.258 . S
O19 Eu1 2.392 . S
O19 C31 1.242 . S
O20 Eu1 2.418 . S
O20 C2 1.244 . S
O21 Eu0 2.488 . S
O21 C9 1.249 . S
O22 Eu0 2.471 . S
O22 C9 1.244 . S
O23 Eu0 2.349 . S
O23 C2 1.265 . S
C24 C25 1.379 . S
C24 C28 1.373 . S
C24 C30 1.505 . S
C25 C24 1.379 . S
C25 C27 1.369 . S
C25 H36 0.930 . S
C26 C28 1.383 . S
C26 C29 1.382 . S
C26 H37 0.930 . S
C27 C25 1.369 . S
C27 C29 1.392 . S
C27 H38 0.930 . S
C28 C24 1.373 . S
C28 C26 1.383 . S
C28 H39 0.931 . S
C29 C26 1.382 . S
C29 C27 1.392 . S
C30 Eu1 2.828 . S
C30 O14 1.249 . S
C30 O15 1.244 . S
C30 C24 1.505 . S
C31 O18 1.258 . S
C31 O19 1.242 . S
H32 C4 0.930 . S
H33 C5 0.930 . S
H34 C6 0.930 . S
H35 C7 0.931 . S
H36 C25 0.930 . S
H37 C26 0.930 . S
H38 C27 0.930 . S
H39 C28 0.931 . S
Eu40 C49 2.828 . S
Eu40 O51 2.392 . S
Eu40 O53 2.418 . S
Eu40 O58 2.373 . S
Eu40 O61 2.488 . S
Eu40 O62 2.471 . S
Eu40 O63 2.349 . S
Eu41 O50 2.373 . S
Eu41 O54 2.488 . S
Eu41 O55 2.471 . S
Eu41 O56 2.349 . S
Eu41 O59 2.392 . S
Eu41 O60 2.418 . S
Eu41 C70 2.828 . S
C42 O60 1.244 . S
C42 O63 1.265 . S
C43 C44 1.379 . S
C43 C47 1.373 . S
C43 C49 1.505 . S
C44 C43 1.379 . S
C44 C46 1.369 . S
C44 H72 0.930 . S
C45 C47 1.383 . S
C45 C48 1.382 . S
C45 H73 0.930 . S
C46 C44 1.369 . S
C46 C48 1.392 . S
C46 H74 0.930 . S
C47 C43 1.373 . S
C47 C45 1.383 . S
C47 H75 0.931 . S
C48 C45 1.382 . S
C48 C46 1.392 . S
C49 Eu40 2.828 . S
C49 C43 1.505 . S
C49 O61 1.249 . S
C49 O62 1.244 . S
O50 Eu41 2.373 . S
O50 C52 1.258 . S
O51 Eu40 2.392 . S
O51 C52 1.242 . S
C52 O50 1.258 . S
C52 O51 1.242 . S
O53 Eu40 2.418 . S
O53 C57 1.244 . S
O54 Eu41 2.488 . S
O54 C70 1.249 . S
O55 Eu41 2.471 . S
O55 C70 1.244 . S
O56 Eu41 2.349 . S
O56 C57 1.265 . S
C57 O53 1.244 . S
C57 O56 1.265 . S
O58 Eu40 2.373 . S
O58 C71 1.258 . S
O59 Eu41 2.392 . S
O59 C71 1.242 . S
O60 Eu41 2.418 . S
O60 C42 1.244 . S
O61 Eu40 2.488 . S
O61 C49 1.249 . S
O62 Eu40 2.471 . S
O62 C49 1.244 . S
O63 Eu40 2.349 . S
O63 C42 1.265 . S
C64 C65 1.379 . S
C64 C68 1.373 . S
C64 C70 1.505 . S
C65 C64 1.379 . S
C65 C67 1.369 . S
C65 H76 0.930 . S
C66 C68 1.383 . S
C66 C69 1.382 . S
C66 H77 0.930 . S
C67 C65 1.369 . S
C67 C69 1.392 . S
C67 H78 0.930 . S
C68 C64 1.373 . S
C68 C66 1.383 . S
C68 H79 0.931 . S
C69 C66 1.382 . S
C69 C67 1.392 . S
C70 Eu41 2.828 . S
C70 O54 1.249 . S
C70 O55 1.244 . S
C70 C64 1.505 . S
C71 O58 1.258 . S
C71 O59 1.242 . S
H72 C44 0.930 . S
H73 C45 0.930 . S
H74 C46 0.930 . S
H75 C47 0.931 . S
H76 C65 0.930 . S
H77 C66 0.930 . S
H78 C67 0.930 . S
H79 C68 0.931 . S
Eu80 C89 2.828 . S
Eu80 O91 2.392 . S
Eu80 O93 2.418 . S
Eu80 O98 2.373 . S
Eu80 O101 2.488 . S
Eu80 O102 2.471 . S
Eu80 O103 2.349 . S
Eu81 O90 2.373 . S
Eu81 O94 2.488 . S
Eu81 O95 2.471 . S
Eu81 O96 2.349 . S
Eu81 O99 2.392 . S
Eu81 O100 2.418 . S
Eu81 C110 2.828 . S
C82 O100 1.244 . S
C82 O103 1.265 . S
C83 C84 1.379 . S
C83 C87 1.373 . S
C83 C89 1.505 . S
C84 C83 1.379 . S
C84 C86 1.369 . S
C84 H112 0.930 . S
C85 C87 1.383 . S
C85 C88 1.382 . S
C85 H113 0.930 . S
C86 C84 1.369 . S
C86 C88 1.392 . S
C86 H114 0.930 . S
C87 C83 1.373 . S
C87 C85 1.383 . S
C87 H115 0.931 . S
C88 C85 1.382 . S
C88 C86 1.392 . S
C89 Eu80 2.828 . S
C89 C83 1.505 . S
C89 O101 1.249 . S
C89 O102 1.244 . S
O90 Eu81 2.373 . S
O90 C92 1.258 . S
O91 Eu80 2.392 . S
O91 C92 1.242 . S
C92 O90 1.258 . S
C92 O91 1.242 . S
O93 Eu80 2.418 . S
O93 C97 1.244 . S
O94 Eu81 2.488 . S
O94 C110 1.249 . S
O95 Eu81 2.471 . S
O95 C110 1.244 . S
O96 Eu81 2.349 . S
O96 C97 1.265 . S
C97 O93 1.244 . S
C97 O96 1.265 . S
O98 Eu80 2.373 . S
O98 C111 1.258 . S
O99 Eu81 2.392 . S
O99 C111 1.242 . S
O100 Eu81 2.418 . S
O100 C82 1.244 . S
O101 Eu80 2.488 . S
O101 C89 1.249 . S
O102 Eu80 2.471 . S
O102 C89 1.244 . S
O103 Eu80 2.349 . S
O103 C82 1.265 . S
C104 C105 1.379 . S
C104 C108 1.373 . S
C104 C110 1.505 . S
C105 C104 1.379 . S
C105 C107 1.369 . S
C105 H116 0.930 . S
C106 C108 1.383 . S
C106 C109 1.382 . S
C106 H117 0.930 . S
C107 C105 1.369 . S
C107 C109 1.392 . S
C107 H118 0.930 . S
C108 C104 1.373 . S
C108 C106 1.383 . S
C108 H119 0.931 . S
C109 C106 1.382 . S
C109 C107 1.392 . S
C110 Eu81 2.828 . S
C110 O94 1.249 . S
C110 O95 1.244 . S
C110 C104 1.505 . S
C111 O98 1.258 . S
C111 O99 1.242 . S
H112 C84 0.930 . S
H113 C85 0.930 . S
H114 C86 0.930 . S
H115 C87 0.931 . S
H116 C105 0.930 . S
H117 C106 0.930 . S
H118 C107 0.930 . S
H119 C108 0.931 . S
Eu120 C129 2.828 . S
Eu120 O131 2.392 . S
Eu120 O133 2.418 . S
Eu120 O138 2.373 . S
Eu120 O141 2.488 . S
Eu120 O142 2.471 . S
Eu120 O143 2.349 . S
Eu121 O130 2.373 . S
Eu121 O134 2.488 . S
Eu121 O135 2.471 . S
Eu121 O136 2.349 . S
Eu121 O139 2.392 . S
Eu121 O140 2.418 . S
Eu121 C150 2.828 . S
C122 O140 1.244 . S
C122 O143 1.265 . S
C123 C124 1.379 . S
C123 C127 1.373 . S
C123 C129 1.505 . S
C124 C123 1.379 . S
C124 C126 1.369 . S
C124 H152 0.930 . S
C125 C127 1.383 . S
C125 C128 1.382 . S
C125 H153 0.930 . S
C126 C124 1.369 . S
C126 C128 1.392 . S
C126 H154 0.930 . S
C127 C123 1.373 . S
C127 C125 1.383 . S
C127 H155 0.931 . S
C128 C125 1.382 . S
C128 C126 1.392 . S
C129 Eu120 2.828 . S
C129 C123 1.505 . S
C129 O141 1.249 . S
C129 O142 1.244 . S
O130 Eu121 2.373 . S
O130 C132 1.258 . S
O131 Eu120 2.392 . S
O131 C132 1.242 . S
C132 O130 1.258 . S
C132 O131 1.242 . S
O133 Eu120 2.418 . S
O133 C137 1.244 . S
O134 Eu121 2.488 . S
O134 C150 1.249 . S
O135 Eu121 2.471 . S
O135 C150 1.244 . S
O136 Eu121 2.349 . S
O136 C137 1.265 . S
C137 O133 1.244 . S
C137 O136 1.265 . S
O138 Eu120 2.373 . S
O138 C151 1.258 . S
O139 Eu121 2.392 . S
O139 C151 1.242 . S
O140 Eu121 2.418 . S
O140 C122 1.244 . S
O141 Eu120 2.488 . S
O141 C129 1.249 . S
O142 Eu120 2.471 . S
O142 C129 1.244 . S
O143 Eu120 2.349 . S
O143 C122 1.265 . S
C144 C145 1.379 . S
C144 C148 1.373 . S
C144 C150 1.505 . S
C145 C144 1.379 . S
C145 C147 1.369 . S
C145 H156 0.930 . S
C146 C148 1.383 . S
C146 C149 1.382 . S
C146 H157 0.930 . S
C147 C145 1.369 . S
C147 C149 1.392 . S
C147 H158 0.930 . S
C148 C144 1.373 . S
C148 C146 1.383 . S
C148 H159 0.931 . S
C149 C146 1.382 . S
C149 C147 1.392 . S
C150 Eu121 2.828 . S
C150 O134 1.249 . S
C150 O135 1.244 . S
C150 C144 1.505 . S
C151 O138 1.258 . S
C151 O139 1.242 . S
H152 C124 0.930 . S
H153 C125 0.930 . S
H154 C126 0.930 . S
H155 C127 0.931 . S
H156 C145 0.930 . S
H157 C146 0.930 . S
H158 C147 0.930 . S
H159 C148 0.931 . S
Eu160 C169 2.828 . S
Eu160 O171 2.392 . S
Eu160 O173 2.418 . S
Eu160 O178 2.373 . S
Eu160 O181 2.488 . S
Eu160 O182 2.471 . S
Eu160 O183 2.349 . S
Eu161 O170 2.373 . S
Eu161 O174 2.488 . S
Eu161 O175 2.471 . S
Eu161 O176 2.349 . S
Eu161 O179 2.392 . S
Eu161 O180 2.418 . S
Eu161 C190 2.828 . S
C162 O180 1.244 . S
C162 O183 1.265 . S
C163 C164 1.379 . S
C163 C167 1.373 . S
C163 C169 1.505 . S
C164 C163 1.379 . S
C164 C166 1.369 . S
C164 H192 0.930 . S
C165 C167 1.383 . S
C165 C168 1.382 . S
C165 H193 0.930 . S
C166 C164 1.369 . S
C166 C168 1.392 . S
C166 H194 0.930 . S
C167 C163 1.373 . S
C167 C165 1.383 . S
C167 H195 0.931 . S
C168 C165 1.382 . S
C168 C166 1.392 . S
C169 Eu160 2.828 . S
C169 C163 1.505 . S
C169 O181 1.249 . S
C169 O182 1.244 . S
O170 Eu161 2.373 . S
O170 C172 1.258 . S
O171 Eu160 2.392 . S
O171 C172 1.242 . S
C172 O170 1.258 . S
C172 O171 1.242 . S
O173 Eu160 2.418 . S
O173 C177 1.244 . S
O174 Eu161 2.488 . S
O174 C190 1.249 . S
O175 Eu161 2.471 . S
O175 C190 1.244 . S
O176 Eu161 2.349 . S
O176 C177 1.265 . S
C177 O173 1.244 . S
C177 O176 1.265 . S
O178 Eu160 2.373 . S
O178 C191 1.258 . S
O179 Eu161 2.392 . S
O179 C191 1.242 . S
O180 Eu161 2.418 . S
O180 C162 1.244 . S
O181 Eu160 2.488 . S
O181 C169 1.249 . S
O182 Eu160 2.471 . S
O182 C169 1.244 . S
O183 Eu160 2.349 . S
O183 C162 1.265 . S
C184 C185 1.379 . S
C184 C188 1.373 . S
C184 C190 1.505 . S
C185 C184 1.379 . S
C185 C187 1.369 . S
C185 H196 0.930 . S
C186 C188 1.383 . S
C186 C189 1.382 . S
C186 H197 0.930 . S
C187 C185 1.369 . S
C187 C189 1.392 . S
C187 H198 0.930 . S
C188 C184 1.373 . S
C188 C186 1.383 . S
C188 H199 0.931 . S
C189 C186 1.382 . S
C189 C187 1.392 . S
C190 Eu161 2.828 . S
C190 O174 1.249 . S
C190 O175 1.244 . S
C190 C184 1.505 . S
C191 O178 1.258 . S
C191 O179 1.242 . S
H192 C164 0.930 . S
H193 C165 0.930 . S
H194 C166 0.930 . S
H195 C167 0.931 . S
H196 C185 0.930 . S
H197 C186 0.930 . S
H198 C187 0.930 . S
H199 C188 0.931 . S
Eu200 C209 2.828 . S
Eu200 O211 2.392 . S
Eu200 O213 2.418 . S
Eu200 O218 2.373 . S
Eu200 O221 2.488 . S
Eu200 O222 2.471 . S
Eu200 O223 2.349 . S
Eu201 O210 2.373 . S
Eu201 O214 2.488 . S
Eu201 O215 2.471 . S
Eu201 O216 2.349 . S
Eu201 O219 2.392 . S
Eu201 O220 2.418 . S
Eu201 C230 2.828 . S
C202 O220 1.244 . S
C202 O223 1.265 . S
C203 C204 1.379 . S
C203 C207 1.373 . S
C203 C209 1.505 . S
C204 C203 1.379 . S
C204 C206 1.369 . S
C204 H232 0.930 . S
C205 C207 1.383 . S
C205 C208 1.382 . S
C205 H233 0.930 . S
C206 C204 1.369 . S
C206 C208 1.392 . S
C206 H234 0.930 . S
C207 C203 1.373 . S
C207 C205 1.383 . S
C207 H235 0.931 . S
C208 C205 1.382 . S
C208 C206 1.392 . S
C209 Eu200 2.828 . S
C209 C203 1.505 . S
C209 O221 1.249 . S
C209 O222 1.244 . S
O210 Eu201 2.373 . S
O210 C212 1.258 . S
O211 Eu200 2.392 . S
O211 C212 1.242 . S
C212 O210 1.258 . S
C212 O211 1.242 . S
O213 Eu200 2.418 . S
O213 C217 1.244 . S
O214 Eu201 2.488 . S
O214 C230 1.249 . S
O215 Eu201 2.471 . S
O215 C230 1.244 . S
O216 Eu201 2.349 . S
O216 C217 1.265 . S
C217 O213 1.244 . S
C217 O216 1.265 . S
O218 Eu200 2.373 . S
O218 C231 1.258 . S
O219 Eu201 2.392 . S
O219 C231 1.242 . S
O220 Eu201 2.418 . S
O220 C202 1.244 . S
O221 Eu200 2.488 . S
O221 C209 1.249 . S
O222 Eu200 2.471 . S
O222 C209 1.244 . S
O223 Eu200 2.349 . S
O223 C202 1.265 . S
C224 C225 1.379 . S
C224 C228 1.373 . S
C224 C230 1.505 . S
C225 C224 1.379 . S
C225 C227 1.369 . S
C225 H236 0.930 . S
C226 C228 1.383 . S
C226 C229 1.382 . S
C226 H237 0.930 . S
C227 C225 1.369 . S
C227 C229 1.392 . S
C227 H238 0.930 . S
C228 C224 1.373 . S
C228 C226 1.383 . S
C228 H239 0.931 . S
C229 C226 1.382 . S
C229 C227 1.392 . S
C230 Eu201 2.828 . S
C230 O214 1.249 . S
C230 O215 1.244 . S
C230 C224 1.505 . S
C231 O218 1.258 . S
C231 O219 1.242 . S
H232 C204 0.930 . S
H233 C205 0.930 . S
H234 C206 0.930 . S
H235 C207 0.931 . S
H236 C225 0.930 . S
H237 C226 0.930 . S
H238 C227 0.930 . S
H239 C228 0.931 . S
Eu240 C249 2.828 . S
Eu240 O251 2.392 . S
Eu240 O253 2.418 . S
Eu240 O258 2.373 . S
Eu240 O261 2.488 . S
Eu240 O262 2.471 . S
Eu240 O263 2.349 . S
Eu241 O250 2.373 . S
Eu241 O254 2.488 . S
Eu241 O255 2.471 . S
Eu241 O256 2.349 . S
Eu241 O259 2.392 . S
Eu241 O260 2.418 . S
Eu241 C270 2.828 . S
C242 O260 1.244 . S
C242 O263 1.265 . S
C243 C244 1.379 . S
C243 C247 1.373 . S
C243 C249 1.505 . S
C244 C243 1.379 . S
C244 C246 1.369 . S
C244 H272 0.930 . S
C245 C247 1.383 . S
C245 C248 1.382 . S
C245 H273 0.930 . S
C246 C244 1.369 . S
C246 C248 1.392 . S
C246 H274 0.930 . S
C247 C243 1.373 . S
C247 C245 1.383 . S
C247 H275 0.931 . S
C248 C245 1.382 . S
C248 C246 1.392 . S
C249 Eu240 2.828 . S
C249 C243 1.505 . S
C249 O261 1.249 . S
C249 O262 1.244 . S
O250 Eu241 2.373 . S
O250 C252 1.258 . S
O251 Eu240 2.392 . S
O251 C252 1.242 . S
C252 O250 1.258 . S
C252 O251 1.242 . S
O253 Eu240 2.418 . S
O253 C257 1.244 . S
O254 Eu241 2.488 . S
O254 C270 1.249 . S
O255 Eu241 2.471 . S
O255 C270 1.244 . S
O256 Eu241 2.349 . S
O256 C257 1.265 . S
C257 O253 1.244 . S
C257 O256 1.265 . S
O258 Eu240 2.373 . S
O258 C271 1.258 . S
O259 Eu241 2.392 . S
O259 C271 1.242 . S
O260 Eu241 2.418 . S
O260 C242 1.244 . S
O261 Eu240 2.488 . S
O261 C249 1.249 . S
O262 Eu240 2.471 . S
O262 C249 1.244 . S
O263 Eu240 2.349 . S
O263 C242 1.265 . S
C264 C265 1.379 . S
C264 C268 1.373 . S
C264 C270 1.505 . S
C265 C264 1.379 . S
C265 C267 1.369 . S
C265 H276 0.930 . S
C266 C268 1.383 . S
C266 C269 1.382 . S
C266 H277 0.930 . S
C267 C265 1.369 . S
C267 C269 1.392 . S
C267 H278 0.930 . S
C268 C264 1.373 . S
C268 C266 1.383 . S
C268 H279 0.931 . S
C269 C266 1.382 . S
C269 C267 1.392 . S
C270 Eu241 2.828 . S
C270 O254 1.249 . S
C270 O255 1.244 . S
C270 C264 1.505 . S
C271 O258 1.258 . S
C271 O259 1.242 . S
H272 C244 0.930 . S
H273 C245 0.930 . S
H274 C246 0.930 . S
H275 C247 0.931 . S
H276 C265 0.930 . S
H277 C266 0.930 . S
H278 C267 0.930 . S
H279 C268 0.931 . S
Eu280 C289 2.828 . S
Eu280 O291 2.392 . S
Eu280 O293 2.418 . S
Eu280 O298 2.373 . S
Eu280 O301 2.488 . S
Eu280 O302 2.471 . S
Eu280 O303 2.349 . S
Eu281 O290 2.373 . S
Eu281 O294 2.488 . S
Eu281 O295 2.471 . S
Eu281 O296 2.349 . S
Eu281 O299 2.392 . S
Eu281 O300 2.418 . S
Eu281 C310 2.828 . S
C282 O300 1.244 . S
C282 O303 1.265 . S
C283 C284 1.379 . S
C283 C287 1.373 . S
C283 C289 1.505 . S
C284 C283 1.379 . S
C284 C286 1.369 . S
C284 H312 0.930 . S
C285 C287 1.383 . S
C285 C288 1.382 . S
C285 H313 0.930 . S
C286 C284 1.369 . S
C286 C288 1.392 . S
C286 H314 0.930 . S
C287 C283 1.373 . S
C287 C285 1.383 . S
C287 H315 0.931 . S
C288 C285 1.382 . S
C288 C286 1.392 . S
C289 Eu280 2.828 . S
C289 C283 1.505 . S
C289 O301 1.249 . S
C289 O302 1.244 . S
O290 Eu281 2.373 . S
O290 C292 1.258 . S
O291 Eu280 2.392 . S
O291 C292 1.242 . S
C292 O290 1.258 . S
C292 O291 1.242 . S
O293 Eu280 2.418 . S
O293 C297 1.244 . S
O294 Eu281 2.488 . S
O294 C310 1.249 . S
O295 Eu281 2.471 . S
O295 C310 1.244 . S
O296 Eu281 2.349 . S
O296 C297 1.265 . S
C297 O293 1.244 . S
C297 O296 1.265 . S
O298 Eu280 2.373 . S
O298 C311 1.258 . S
O299 Eu281 2.392 . S
O299 C311 1.242 . S
O300 Eu281 2.418 . S
O300 C282 1.244 . S
O301 Eu280 2.488 . S
O301 C289 1.249 . S
O302 Eu280 2.471 . S
O302 C289 1.244 . S
O303 Eu280 2.349 . S
O303 C282 1.265 . S
C304 C305 1.379 . S
C304 C308 1.373 . S
C304 C310 1.505 . S
C305 C304 1.379 . S
C305 C307 1.369 . S
C305 H316 0.930 . S
C306 C308 1.383 . S
C306 C309 1.382 . S
C306 H317 0.930 . S
C307 C305 1.369 . S
C307 C309 1.392 . S
C307 H318 0.930 . S
C308 C304 1.373 . S
C308 C306 1.383 . S
C308 H319 0.931 . S
C309 C306 1.382 . S
C309 C307 1.392 . S
C310 Eu281 2.828 . S
C310 O294 1.249 . S
C310 O295 1.244 . S
C310 C304 1.505 . S
C311 O298 1.258 . S
C311 O299 1.242 . S
H312 C284 0.930 . S
H313 C285 0.930 . S
H314 C286 0.930 . S
H315 C287 0.931 . S
H316 C305 0.930 . S
H317 C306 0.930 . S
H318 C307 0.930 . S
H319 C308 0.931 . S
Fe320 O321 1.886 1_455 S
Fe320 O324 1.715 . S
Fe320 O329 2.077 1_455 S
Fe320 O334 1.935 . S
Fe320 O340 2.077 1_455 S
Fe320 O349 1.935 . S
O321 Fe320 1.886 1_655 S
O321 Fe323 1.715 1_545 S
Fe322 O324 1.886 . S
Fe322 O325 1.715 1_545 S
Fe322 O332 1.935 1_545 S
Fe322 O333 2.077 . S
Fe322 O339 1.935 1_545 S
Fe322 O348 2.077 . S
Fe323 O321 1.715 1_565 S
Fe323 O326 1.886 . S
Fe323 O330 1.935 1_565 S
Fe323 O335 2.077 . S
Fe323 O341 1.935 1_565 S
Fe323 O345 2.077 . S
O324 Fe320 1.715 . S
O324 Fe322 1.886 . S
O325 Fe322 1.715 1_565 S
O325 Fe327 1.886 1_455 S
O326 Fe323 1.886 . S
O326 Fe327 1.715 . S
Fe327 O325 1.886 1_655 S
Fe327 O326 1.715 . S
Fe327 O331 2.077 1_655 S
Fe327 O336 1.935 . S
Fe327 O338 2.077 1_655 S
Fe327 O346 1.935 . S
C328 O340 1.381 . S
C328 O341 1.421 . S
O329 Fe320 2.077 1_655 S
O329 C342 1.381 . S
O330 Fe323 1.935 1_545 S
O330 C342 1.421 . S
O331 Fe327 2.077 1_455 S
O331 C347 1.381 . S
O332 Fe322 1.935 1_565 S
O332 C347 1.421 . S
O333 Fe322 2.077 . S
O333 C337 1.381 . S
O334 Fe320 1.935 . S
O334 C337 1.421 . S
O335 Fe323 2.077 . S
O335 C343 1.381 . S
O336 Fe327 1.935 . S
O336 C343 1.421 . S
C337 O333 1.381 . S
C337 O334 1.421 . S
O338 Fe327 2.077 1_455 S
O338 C350 1.381 . S
O339 Fe322 1.935 1_565 S
O339 C350 1.421 . S
O340 Fe320 2.077 1_655 S
O340 C328 1.381 . S
O341 Fe323 1.935 1_545 S
O341 C328 1.421 . S
C342 O329 1.381 . S
C342 O330 1.421 . S
C343 O335 1.381 . S
C343 O336 1.421 . S
C344 O345 1.381 . S
C344 O346 1.421 . S
O345 Fe323 2.077 . S
O345 C344 1.381 . S
O346 Fe327 1.935 . S
O346 C344 1.421 . S
C347 O331 1.381 . S
C347 O332 1.421 . S
O348 Fe322 2.077 . S
O348 C351 1.381 . S
O349 Fe320 1.935 . S
O349 C351 1.421 . S
C350 O338 1.381 . S
C350 O339 1.421 . S
C351 O348 1.381 . S
C351 O349 1.421 . S
Fe352 O353 1.886 . S
Fe352 O356 1.715 . S
Fe352 O361 2.077 . S
Fe352 O366 1.935 . S
Fe352 O372 2.077 1_556 S
Fe352 O381 1.935 1_556 S
O353 Fe352 1.886 . S
O353 Fe355 1.715 1_565 S
Fe354 O356 1.886 1_554 S
Fe354 O357 1.715 1_565 S
Fe354 O364 1.935 1_564 S
Fe354 O365 2.077 1_554 S
Fe354 O371 1.935 1_565 S
Fe354 O380 2.077 . S
Fe355 O353 1.715 1_545 S
Fe355 O358 1.886 1_556 S
Fe355 O362 1.935 1_545 S
Fe355 O367 2.077 . S
Fe355 O373 1.935 1_546 S
Fe355 O377 2.077 1_556 S
O356 Fe352 1.715 . S
O356 Fe354 1.886 1_556 S
O357 Fe354 1.715 1_545 S
O357 Fe359 1.886 . S
O358 Fe355 1.886 1_554 S
O358 Fe359 1.715 . S
Fe359 O357 1.886 . S
Fe359 O358 1.715 . S
Fe359 O363 2.077 1_554 S
Fe359 O368 1.935 1_554 S
Fe359 O370 2.077 . S
Fe359 O378 1.935 . S
C360 O372 1.381 . S
C360 O373 1.421 . S
O361 Fe352 2.077 . S
O361 C374 1.381 . S
O362 Fe355 1.935 1_565 S
O362 C374 1.421 . S
O363 Fe359 2.077 1_556 S
O363 C379 1.381 . S
O364 Fe354 1.935 1_546 S
O364 C379 1.421 . S
O365 Fe354 2.077 1_556 S
O365 C369 1.381 . S
O366 Fe352 1.935 . S
O366 C369 1.421 . S
O367 Fe355 2.077 . S
O367 C375 1.381 . S
O368 Fe359 1.935 1_556 S
O368 C375 1.421 . S
C369 O365 1.381 . S
C369 O366 1.421 . S
O370 Fe359 2.077 . S
O370 C382 1.381 . S
O371 Fe354 1.935 1_545 S
O371 C382 1.421 . S
O372 Fe352 2.077 1_554 S
O372 C360 1.381 . S
O373 Fe355 1.935 1_564 S
O373 C360 1.421 . S
C374 O361 1.381 . S
C374 O362 1.421 . S
C375 O367 1.381 . S
C375 O368 1.421 . S
C376 O377 1.381 . S
C376 O378 1.421 . S
O377 Fe355 2.077 1_554 S
O377 C376 1.381 . S
O378 Fe359 1.935 . S
O378 C376 1.421 . S
C379 O363 1.381 . S
C379 O364 1.421 . S
O380 Fe354 2.077 . S
O380 C383 1.381 . S
O381 Fe352 1.935 1_554 S
O381 C383 1.421 . S
C382 O370 1.381 . S
C382 O371 1.421 . S
C383 O380 1.381 . S
C383 O381 1.421 . S
Fe384 O385 1.886 1_455 S
Fe384 O388 1.715 . S
Fe384 O393 2.077 1_454 S
Fe384 O398 1.935 1_554 S
Fe384 O404 2.077 1_455 S
Fe384 O413 1.935 . S
O385 Fe384 1.886 1_655 S
O385 Fe387 1.715 . S
Fe386 O388 1.886 1_556 S
Fe386 O389 1.715 . S
Fe386 O396 1.935 . S
Fe386 O397 2.077 . S
Fe386 O403 1.935 1_556 S
Fe386 O412 2.077 1_556 S
Fe387 O385 1.715 . S
Fe387 O390 1.886 1_554 S
Fe387 O394 1.935 1_554 S
Fe387 O399 2.077 1_554 S
Fe387 O405 1.935 . S
Fe387 O409 2.077 . S
O388 Fe384 1.715 . S
O388 Fe386 1.886 1_554 S
O389 Fe386 1.715 . S
O389 Fe391 1.886 1_455 S
O390 Fe387 1.886 1_556 S
O390 Fe391 1.715 . S
Fe391 O389 1.886 1_655 S
Fe391 O390 1.715 . S
Fe391 O395 2.077 1_655 S
Fe391 O400 1.935 . S
Fe391 O402 2.077 1_656 S
Fe391 O410 1.935 1_556 S
C392 O404 1.381 . S
C392 O405 1.421 . S
O393 Fe384 2.077 1_656 S
O393 C406 1.381 . S
O394 Fe387 1.935 1_556 S
O394 C406 1.421 . S
O395 Fe391 2.077 1_455 S
O395 C411 1.381 . S
O396 Fe386 1.935 . S
O396 C411 1.421 . S
O397 Fe386 2.077 . S
O397 C401 1.381 . S
O398 Fe384 1.935 1_556 S
O398 C401 1.421 . S
O399 Fe387 2.077 1_556 S
O399 C407 1.381 . S
O400 Fe391 1.935 . S
O400 C407 1.421 . S
C401 O397 1.381 . S
C401 O398 1.421 . S
O402 Fe391 2.077 1_454 S
O402 C414 1.381 . S
O403 Fe386 1.935 1_554 S
O403 C414 1.421 . S
O404 Fe384 2.077 1_655 S
O404 C392 1.381 . S
O405 Fe387 1.935 . S
O405 C392 1.421 . S
C406 O393 1.381 . S
C406 O394 1.421 . S
C407 O399 1.381 . S
C407 O400 1.421 . S
C408 O409 1.381 . S
C408 O410 1.421 . S
O409 Fe387 2.077 . S
O409 C408 1.381 . S
O410 Fe391 1.935 1_554 S
O410 C408 1.421 . S
C411 O395 1.381 . S
C411 O396 1.421 . S
O412 Fe386 2.077 1_554 S
O412 C415 1.381 . S
O413 Fe384 1.935 . S
O413 C415 1.421 . S
C414 O402 1.381 . S
C414 O403 1.421 . S
C415 O412 1.381 . S
C415 O413 1.421 . S
Fe416 O417 1.886 . S
Fe416 O420 1.715 . S
Fe416 O425 2.077 . S
Fe416 O430 1.935 . S
Fe416 O436 2.077 . S
Fe416 O445 1.935 . S
O417 Fe416 1.886 . S
O417 Fe419 1.715 . S
Fe418 O420 1.886 1_554 S
Fe418 O421 1.715 . S
Fe418 O428 1.935 . S
Fe418 O429 2.077 1_554 S
Fe418 O435 1.935 . S
Fe418 O444 2.077 1_554 S
Fe419 O417 1.715 . S
Fe419 O422 1.886 1_556 S
Fe419 O426 1.935 . S
Fe419 O431 2.077 1_556 S
Fe419 O437 1.935 . S
Fe419 O441 2.077 1_556 S
O420 Fe416 1.715 . S
O420 Fe418 1.886 1_556 S
O421 Fe418 1.715 . S
O421 Fe423 1.886 . S
O422 Fe419 1.886 1_554 S
O422 Fe423 1.715 . S
Fe423 O421 1.886 . S
Fe423 O422 1.715 . S
Fe423 O427 2.077 . S
Fe423 O432 1.935 . S
Fe423 O434 2.077 . S
Fe423 O442 1.935 . S
C424 O436 1.381 . S
C424 O437 1.421 . S
O425 Fe416 2.077 . S
O425 C438 1.381 . S
O426 Fe419 1.935 . S
O426 C438 1.421 . S
O427 Fe423 2.077 . S
O427 C443 1.381 . S
O428 Fe418 1.935 . S
O428 C443 1.421 . S
O429 Fe418 2.077 1_556 S
O429 C433 1.381 . S
O430 Fe416 1.935 . S
O430 C433 1.421 . S
O431 Fe419 2.077 1_554 S
O431 C439 1.381 . S
O432 Fe423 1.935 . S
O432 C439 1.421 . S
C433 O429 1.381 . S
C433 O430 1.421 . S
O434 Fe423 2.077 . S
O434 C446 1.381 . S
O435 Fe418 1.935 . S
O435 C446 1.421 . S
O436 Fe416 2.077 . S
O436 C424 1.381 . S
O437 Fe419 1.935 . S
O437 C424 1.421 . S
C438 O425 1.381 . S
C438 O426 1.421 . S
C439 O431 1.381 . S
C439 O432 1.421 . S
C440 O441 1.381 . S
C440 O442 1.421 . S
O441 Fe419 2.077 1_554 S
O441 C440 1.381 . S
O442 Fe423 1.935 . S
O442 C440 1.421 . S
C443 O427 1.381 . S
C443 O428 1.421 . S
O444 Fe418 2.077 1_556 S
O444 C447 1.381 . S
O445 Fe416 1.935 . S
O445 C447 1.421 . S
C446 O434 1.381 . S
C446 O435 1.421 . S
C447 O444 1.381 . S
C447 O445 1.421 . S
Fe448 O449 1.886 . S
Fe448 O452 1.715 . S
Fe448 O457 2.077 1_655 S
Fe448 O462 1.935 1_655 S
Fe448 O468 2.077 . S
Fe448 O477 1.935 . S
O449 Fe448 1.886 . S
O449 Fe451 1.715 . S
Fe450 O452 1.886 1_455 S
Fe450 O453 1.715 . S
Fe450 O460 1.935 . S
Fe450 O461 2.077 . S
Fe450 O467 1.935 1_455 S
Fe450 O476 2.077 1_455 S
Fe451 O449 1.715 . S
Fe451 O454 1.886 1_655 S
Fe451 O458 1.935 1_655 S
Fe451 O463 2.077 1_655 S
Fe451 O469 1.935 . S
Fe451 O473 2.077 . S
O452 Fe448 1.715 . S
O452 Fe450 1.886 1_655 S
O453 Fe450 1.715 . S
O453 Fe455 1.886 . S
O454 Fe451 1.886 1_455 S
O454 Fe455 1.715 . S
Fe455 O453 1.886 . S
Fe455 O454 1.715 . S
Fe455 O459 2.077 . S
Fe455 O464 1.935 . S
Fe455 O466 2.077 1_455 S
Fe455 O474 1.935 1_455 S
C456 O468 1.381 . S
C456 O469 1.421 . S
O457 Fe448 2.077 1_455 S
O457 C470 1.381 . S
O458 Fe451 1.935 1_455 S
O458 C470 1.421 . S
O459 Fe455 2.077 . S
O459 C475 1.381 . S
O460 Fe450 1.935 . S
O460 C475 1.421 . S
O461 Fe450 2.077 . S
O461 C465 1.381 . S
O462 Fe448 1.935 1_455 S
O462 C465 1.421 . S
O463 Fe451 2.077 1_455 S
O463 C471 1.381 . S
O464 Fe455 1.935 . S
O464 C471 1.421 . S
C465 O461 1.381 . S
C465 O462 1.421 . S
O466 Fe455 2.077 1_655 S
O466 C478 1.381 . S
O467 Fe450 1.935 1_655 S
O467 C478 1.421 . S
O468 Fe448 2.077 . S
O468 C456 1.381 . S
O469 Fe451 1.935 . S
O469 C456 1.421 . S
C470 O457 1.381 . S
C470 O458 1.421 . S
C471 O463 1.381 . S
C471 O464 1.421 . S
C472 O473 1.381 . S
C472 O474 1.421 . S
O473 Fe451 2.077 . S
O473 C472 1.381 . S
O474 Fe455 1.935 1_655 S
O474 C472 1.421 . S
C475 O459 1.381 . S
C475 O460 1.421 . S
O476 Fe450 2.077 1_655 S
O476 C479 1.381 . S
O477 Fe448 1.935 . S
O477 C479 1.421 . S
C478 O466 1.381 . S
C478 O467 1.421 . S
C479 O476 1.381 . S
C479 O477 1.421 . S
Fe480 O481 1.886 . S
Fe480 O484 1.715 . S
Fe480 O489 2.077 . S
Fe480 O494 1.935 . S
Fe480 O500 2.077 . S
Fe480 O509 1.935 . S
O481 Fe480 1.886 . S
O481 Fe483 1.715 1_565 S
Fe482 O484 1.886 . S
Fe482 O485 1.715 1_565 S
Fe482 O492 1.935 1_565 S
Fe482 O493 2.077 . S
Fe482 O499 1.935 1_565 S
Fe482 O508 2.077 . S
Fe483 O481 1.715 1_545 S
Fe483 O486 1.886 . S
Fe483 O490 1.935 1_545 S
Fe483 O495 2.077 . S
Fe483 O501 1.935 1_545 S
Fe483 O505 2.077 . S
O484 Fe480 1.715 . S
O484 Fe482 1.886 . S
O485 Fe482 1.715 1_545 S
O485 Fe487 1.886 . S
O486 Fe483 1.886 . S
O486 Fe487 1.715 . S
Fe487 O485 1.886 . S
Fe487 O486 1.715 . S
Fe487 O491 2.077 . S
Fe487 O496 1.935 . S
Fe487 O498 2.077 . S
Fe487 O506 1.935 . S
C488 O500 1.381 . S
C488 O501 1.421 . S
O489 Fe480 2.077 . S
O489 C502 1.381 . S
O490 Fe483 1.935 1_565 S
O490 C502 1.421 . S
O491 Fe487 2.077 . S
O491 C507 1.381 . S
O492 Fe482 1.935 1_545 S
O492 C507 1.421 . S
O493 Fe482 2.077 . S
O493 C497 1.381 . S
O494 Fe480 1.935 . S
O494 C497 1.421 . S
O495 Fe483 2.077 . S
O495 C503 1.381 . S
O496 Fe487 1.935 . S
O496 C503 1.421 . S
C497 O493 1.381 . S
C497 O494 1.421 . S
O498 Fe487 2.077 . S
O498 C510 1.381 . S
O499 Fe482 1.935 1_545 S
O499 C510 1.421 . S
O500 Fe480 2.077 . S
O500 C488 1.381 . S
O501 Fe483 1.935 1_565 S
O501 C488 1.421 . S
C502 O489 1.381 . S
C502 O490 1.421 . S
C503 O495 1.381 . S
C503 O496 1.421 . S
C504 O505 1.381 . S
C504 O506 1.421 . S
O505 Fe483 2.077 . S
O505 C504 1.381 . S
O506 Fe487 1.935 . S
O506 C504 1.421 . S
C507 O491 1.381 . S
C507 O492 1.421 . S
O508 Fe482 2.077 . S
O508 C511 1.381 . S
O509 Fe480 1.935 . S
O509 C511 1.421 . S
C510 O498 1.381 . S
C510 O499 1.421 . S
C511 O508 1.381 . S
C511 O509 1.421 . S
C512 C513 1.363 . S
C512 C518 1.379 . S
C512 N520 1.356 . S
C513 C512 1.363 . S
C513 C519 1.363 . S
C514 C515 1.363 . S
C514 C519 1.379 . S
C514 N521 1.356 . S
C515 C514 1.363 . S
C515 C518 1.363 . S
N516 C518 1.356 . S
N516 H528 0.984 . S
N516 H529 0.985 . S
N517 C519 1.356 . S
N517 H522 0.984 . S
N517 H523 0.985 . S
C518 C512 1.379 . S
C518 C515 1.363 . S
C518 N516 1.356 . S
C519 C513 1.363 . S
C519 C514 1.379 . S
C519 N517 1.356 . S
N520 C512 1.356 . S
N520 H526 0.984 . S
N520 H527 0.984 . S
N521 C514 1.356 . S
N521 H524 0.984 . S
N521 H525 0.985 . S
H522 N517 0.984 . S
H523 N517 0.985 . S
H524 N521 0.984 . S
H525 N521 0.985 . S
H526 N520 0.984 . S
H527 N520 0.984 . S
H528 N516 0.984 . S
H529 N516 0.985 . S
C530 C531 1.363 . S
C530 C536 1.379 . S
C530 N538 1.356 . S
C531 C530 1.363 . S
C531 C537 1.363 . S
C532 C533 1.363 . S
C532 C537 1.379 . S
C532 N539 1.356 . S
C533 C532 1.363 . S
C533 C536 1.363 . S
N534 C536 1.356 . S
N534 H546 0.984 1_545 S
N534 H547 0.985 . S
N535 C537 1.356 . S
N535 H540 0.984 . S
N535 H541 0.985 . S
C536 C530 1.379 . S
C536 C533 1.363 . S
C536 N534 1.356 . S
C537 C531 1.363 . S
C537 C532 1.379 . S
C537 N535 1.356 . S
N538 C530 1.356 . S
N538 H544 0.984 1_545 S
N538 H545 0.984 . S
N539 C532 1.356 . S
N539 H542 0.984 . S
N539 H543 0.985 . S
H540 N535 0.984 . S
H541 N535 0.985 . S
H542 N539 0.984 . S
H543 N539 0.985 . S
H544 N538 0.984 1_565 S
H545 N538 0.984 . S
H546 N534 0.984 1_565 S
H547 N534 0.985 . S
C548 C549 1.363 . S
C548 C554 1.379 . S
C548 N556 1.356 . S
C549 C548 1.363 . S
C549 C555 1.363 . S
C550 C551 1.363 . S
C550 C555 1.379 . S
C550 N557 1.356 . S
C551 C550 1.363 . S
C551 C554 1.363 . S
N552 C554 1.356 . S
N552 H564 0.984 . S
N552 H565 0.985 . S
N553 C555 1.356 . S
N553 H558 0.984 . S
N553 H559 0.985 . S
C554 C548 1.379 . S
C554 C551 1.363 . S
C554 N552 1.356 . S
C555 C549 1.363 . S
C555 C550 1.379 . S
C555 N553 1.356 . S
N556 C548 1.356 . S
N556 H562 0.984 . S
N556 H563 0.984 . S
N557 C550 1.356 . S
N557 H560 0.984 . S
N557 H561 0.985 . S
H558 N553 0.984 . S
H559 N553 0.985 . S
H560 N557 0.984 . S
H561 N557 0.985 . S
H562 N556 0.984 . S
H563 N556 0.984 . S
H564 N552 0.984 . S
H565 N552 0.985 . S
C566 C567 1.363 . S
C566 C572 1.379 . S
C566 N574 1.356 . S
C567 C566 1.363 . S
C567 C573 1.363 . S
C568 C569 1.363 . S
C568 C573 1.379 . S
C568 N575 1.356 . S
C569 C568 1.363 . S
C569 C572 1.363 . S
N570 C572 1.356 . S
N570 H582 0.984 . S
N570 H583 0.985 . S
N571 C573 1.356 . S
N571 H576 0.984 . S
N571 H577 0.985 . S
C572 C566 1.379 . S
C572 C569 1.363 . S
C572 N570 1.356 . S
C573 C567 1.363 . S
C573 C568 1.379 . S
C573 N571 1.356 . S
N574 C566 1.356 . S
N574 H580 0.984 . S
N574 H581 0.984 . S
N575 C568 1.356 . S
N575 H578 0.984 . S
N575 H579 0.985 . S
H576 N571 0.984 . S
H577 N571 0.985 . S
H578 N575 0.984 . S
H579 N575 0.985 . S
H580 N574 0.984 . S
H581 N574 0.984 . S
H582 N570 0.984 . S
H583 N570 0.985 . S
C584 C585 1.363 . S
C584 C590 1.379 . S
C584 N592 1.356 . S
C585 C584 1.363 . S
C585 C591 1.363 . S
C586 C587 1.363 . S
C586 C591 1.379 . S
C586 N593 1.356 . S
C587 C586 1.363 . S
C587 C590 1.363 . S
N588 C590 1.356 . S
N588 H600 0.984 . S
N588 H601 0.985 . S
N589 C591 1.356 . S
N589 H594 0.984 . S
N589 H595 0.985 . S
C590 C584 1.379 . S
C590 C587 1.363 . S
C590 N588 1.356 . S
C591 C585 1.363 . S
C591 C586 1.379 . S
C591 N589 1.356 . S
N592 C584 1.356 . S
N592 H598 0.984 . S
N592 H599 0.984 . S
N593 C586 1.356 . S
N593 H596 0.984 . S
N593 H597 0.985 . S
H594 N589 0.984 . S
H595 N589 0.985 . S
H596 N593 0.984 . S
H597 N593 0.985 . S
H598 N592 0.984 . S
H599 N592 0.984 . S
H600 N588 0.984 . S
H601 N588 0.985 . S
C602 C603 1.363 . S
C602 C608 1.379 . S
C602 N610 1.356 . S
C603 C602 1.363 . S
C603 C609 1.363 . S
C604 C605 1.363 . S
C604 C609 1.379 . S
C604 N611 1.356 . S
C605 C604 1.363 . S
C605 C608 1.363 . S
N606 C608 1.356 . S
N606 H618 0.984 . S
N606 H619 0.985 . S
N607 C609 1.356 . S
N607 H612 0.984 . S
N607 H613 0.985 . S
C608 C602 1.379 . S
C608 C605 1.363 . S
C608 N606 1.356 . S
C609 C603 1.363 . S
C609 C604 1.379 . S
C609 N607 1.356 . S
N610 C602 1.356 . S
N610 H616 0.984 . S
N610 H617 0.984 . S
N611 C604 1.356 . S
N611 H614 0.984 . S
N611 H615 0.985 . S
H612 N607 0.984 . S
H613 N607 0.985 . S
H614 N611 0.984 . S
H615 N611 0.985 . S
H616 N610 0.984 . S
H617 N610 0.984 . S
H618 N606 0.984 . S
H619 N606 0.985 . S
C620 C621 1.363 . S
C620 C626 1.379 . S
C620 N628 1.356 . S
C621 C620 1.363 . S
C621 C627 1.363 . S
C622 C623 1.363 . S
C622 C627 1.379 . S
C622 N629 1.356 . S
C623 C622 1.363 . S
C623 C626 1.363 . S
N624 C626 1.356 . S
N624 H636 0.984 . S
N624 H637 0.985 . S
N625 C627 1.356 . S
N625 H630 0.984 . S
N625 H631 0.985 . S
C626 C620 1.379 . S
C626 C623 1.363 . S
C626 N624 1.356 . S
C627 C621 1.363 . S
C627 C622 1.379 . S
C627 N625 1.356 . S
N628 C620 1.356 . S
N628 H634 0.984 . S
N628 H635 0.984 . S
N629 C622 1.356 . S
N629 H632 0.984 . S
N629 H633 0.985 . S
H630 N625 0.984 . S
H631 N625 0.985 . S
H632 N629 0.984 . S
H633 N629 0.985 . S
H634 N628 0.984 . S
H635 N628 0.984 . S
H636 N624 0.984 . S
H637 N624 0.985 . S
C638 C639 1.363 . S
C638 C644 1.379 . S
C638 N646 1.356 . S
C639 C638 1.363 . S
C639 C645 1.363 . S
C640 C641 1.363 . S
C640 C645 1.379 . S
C640 N647 1.356 . S
C641 C640 1.363 . S
C641 C644 1.363 . S
N642 C644 1.356 . S
N642 H654 0.984 . S
N642 H655 0.985 . S
N643 C645 1.356 . S
N643 H648 0.984 . S
N643 H649 0.985 . S
C644 C638 1.379 . S
C644 C641 1.363 . S
C644 N642 1.356 . S
C645 C639 1.363 . S
C645 C640 1.379 . S
C645 N643 1.356 . S
N646 C638 1.356 . S
N646 H652 0.984 . S
N646 H653 0.984 . S
N647 C640 1.356 . S
N647 H650 0.984 . S
N647 H651 0.985 . S
H648 N643 0.984 . S
H649 N643 0.985 . S
H650 N647 0.984 . S
H651 N647 0.985 . S
H652 N646 0.984 . S
H653 N646 0.984 . S
H654 N642 0.984 . S
H655 N642 0.985 . S
C656 C657 1.363 . S
C656 C662 1.379 . S
C656 N664 1.356 . S
C657 C656 1.363 . S
C657 C663 1.363 . S
C658 C659 1.363 . S
C658 C663 1.379 . S
C658 N665 1.356 . S
C659 C658 1.363 . S
C659 C662 1.363 . S
N660 C662 1.356 . S
N660 H672 0.984 . S
N660 H673 0.985 . S
N661 C663 1.356 . S
N661 H666 0.984 . S
N661 H667 0.985 . S
C662 C656 1.379 . S
C662 C659 1.363 . S
C662 N660 1.356 . S
C663 C657 1.363 . S
C663 C658 1.379 . S
C663 N661 1.356 . S
N664 C656 1.356 . S
N664 H670 0.984 . S
N664 H671 0.984 . S
N665 C658 1.356 . S
N665 H668 0.984 . S
N665 H669 0.985 . S
H666 N661 0.984 . S
H667 N661 0.985 . S
H668 N665 0.984 . S
H669 N665 0.985 . S
H670 N664 0.984 . S
H671 N664 0.984 . S
H672 N660 0.984 . S
H673 N660 0.985 . S
C674 C675 1.363 . S
C674 C680 1.379 . S
C674 N682 1.356 . S
C675 C674 1.363 . S
C675 C681 1.363 . S
C676 C677 1.363 . S
C676 C681 1.379 . S
C676 N683 1.356 . S
C677 C676 1.363 . S
C677 C680 1.363 . S
N678 C680 1.356 . S
N678 H690 0.984 . S
N678 H691 0.985 . S
N679 C681 1.356 . S
N679 H684 0.984 . S
N679 H685 0.985 . S
C680 C674 1.379 . S
C680 C677 1.363 . S
C680 N678 1.356 . S
C681 C675 1.363 . S
C681 C676 1.379 . S
C681 N679 1.356 . S
N682 C674 1.356 . S
N682 H688 0.984 . S
N682 H689 0.984 . S
N683 C676 1.356 . S
N683 H686 0.984 . S
N683 H687 0.985 . S
H684 N679 0.984 . S
H685 N679 0.985 . S
H686 N683 0.984 . S
H687 N683 0.985 . S
H688 N682 0.984 . S
H689 N682 0.984 . S
H690 N678 0.984 . S
H691 N678 0.985 . S
C692 C693 1.363 . S
C692 C698 1.379 . S
C692 N700 1.356 . S
C693 C692 1.363 . S
C693 C699 1.363 . S
C694 C695 1.363 . S
C694 C699 1.379 . S
C694 N701 1.356 . S
C695 C694 1.363 . S
C695 C698 1.363 . S
N696 C698 1.356 . S
N696 H708 0.984 . S
N696 H709 0.985 . S
N697 C699 1.356 . S
N697 H702 0.984 . S
N697 H703 0.985 . S
C698 C692 1.379 . S
C698 C695 1.363 . S
C698 N696 1.356 . S
C699 C693 1.363 . S
C699 C694 1.379 . S
C699 N697 1.356 . S
N700 C692 1.356 . S
N700 H706 0.984 . S
N700 H707 0.984 . S
N701 C694 1.356 . S
N701 H704 0.984 . S
N701 H705 0.985 1_565 S
H702 N697 0.984 . S
H703 N697 0.985 . S
H704 N701 0.984 . S
H705 N701 0.985 1_545 S
H706 N700 0.984 . S
H707 N700 0.984 . S
H708 N696 0.984 . S
H709 N696 0.985 . S
C710 C711 1.363 . S
C710 C716 1.379 . S
C710 N718 1.356 . S
C711 C710 1.363 . S
C711 C717 1.363 . S
C712 C713 1.363 . S
C712 C717 1.379 . S
C712 N719 1.356 . S
C713 C712 1.363 . S
C713 C716 1.363 . S
N714 C716 1.356 . S
N714 H726 0.984 . S
N714 H727 0.985 . S
N715 C717 1.356 . S
N715 H720 0.984 . S
N715 H721 0.985 . S
C716 C710 1.379 . S
C716 C713 1.363 . S
C716 N714 1.356 . S
C717 C711 1.363 . S
C717 C712 1.379 . S
C717 N715 1.356 . S
N718 C710 1.356 . S
N718 H724 0.984 . S
N718 H725 0.984 . S
N719 C712 1.356 . S
N719 H722 0.984 . S
N719 H723 0.985 . S
H720 N715 0.984 . S
H721 N715 0.985 . S
H722 N719 0.984 . S
H723 N719 0.985 . S
H724 N718 0.984 . S
H725 N718 0.984 . S
H726 N714 0.984 . S
H727 N714 0.985 . S
C728 C729 1.363 . S
C728 C734 1.379 . S
C728 N736 1.356 . S
C729 C728 1.363 . S
C729 C735 1.363 . S
C730 C731 1.363 . S
C730 C735 1.379 . S
C730 N737 1.356 . S
C731 C730 1.363 . S
C731 C734 1.363 . S
N732 C734 1.356 . S
N732 H744 0.984 . S
N732 H745 0.985 . S
N733 C735 1.356 . S
N733 H738 0.984 . S
N733 H739 0.985 . S
C734 C728 1.379 . S
C734 C731 1.363 . S
C734 N732 1.356 . S
C735 C729 1.363 . S
C735 C730 1.379 . S
C735 N733 1.356 . S
N736 C728 1.356 . S
N736 H742 0.984 . S
N736 H743 0.984 . S
N737 C730 1.356 . S
N737 H740 0.984 . S
N737 H741 0.985 . S
H738 N733 0.984 . S
H739 N733 0.985 . S
H740 N737 0.984 . S
H741 N737 0.985 . S
H742 N736 0.984 . S
H743 N736 0.984 . S
H744 N732 0.984 . S
H745 N732 0.985 . S
C746 C747 1.363 . S
C746 C752 1.379 . S
C746 N754 1.356 . S
C747 C746 1.363 . S
C747 C753 1.363 . S
C748 C749 1.363 . S
C748 C753 1.379 . S
C748 N755 1.356 . S
C749 C748 1.363 . S
C749 C752 1.363 . S
N750 C752 1.356 . S
N750 H762 0.984 . S
N750 H763 0.985 . S
N751 C753 1.356 . S
N751 H756 0.984 . S
N751 H757 0.985 . S
C752 C746 1.379 . S
C752 C749 1.363 . S
C752 N750 1.356 . S
C753 C747 1.363 . S
C753 C748 1.379 . S
C753 N751 1.356 . S
N754 C746 1.356 . S
N754 H760 0.984 . S
N754 H761 0.984 . S
N755 C748 1.356 . S
N755 H758 0.984 . S
N755 H759 0.985 . S
H756 N751 0.984 . S
H757 N751 0.985 . S
H758 N755 0.984 . S
H759 N755 0.985 . S
H760 N754 0.984 . S
H761 N754 0.984 . S
H762 N750 0.984 . S
H763 N750 0.985 . S
C764 C765 1.363 . S
C764 C770 1.379 . S
C764 N772 1.356 . S
C765 C764 1.363 . S
C765 C771 1.363 . S
C766 C767 1.363 . S
C766 C771 1.379 . S
C766 N773 1.356 . S
C767 C766 1.363 . S
C767 C770 1.363 . S
N768 C770 1.356 . S
N768 H780 0.984 . S
N768 H781 0.985 . S
N769 C771 1.356 . S
N769 H774 0.984 . S
N769 H775 0.985 . S
C770 C764 1.379 . S
C770 C767 1.363 . S
C770 N768 1.356 . S
C771 C765 1.363 . S
C771 C766 1.379 . S
C771 N769 1.356 . S
N772 C764 1.356 . S
N772 H778 0.984 . S
N772 H779 0.984 . S
N773 C766 1.356 . S
N773 H776 0.984 . S
N773 H777 0.985 . S
H774 N769 0.984 . S
H775 N769 0.985 . S
H776 N773 0.984 . S
H777 N773 0.985 . S
H778 N772 0.984 . S
H779 N772 0.984 . S
H780 N768 0.984 . S
H781 N768 0.985 . S
C782 C783 1.363 . S
C782 C788 1.379 . S
C782 N790 1.356 . S
C783 C782 1.363 . S
C783 C789 1.363 . S
C784 C785 1.363 . S
C784 C789 1.379 . S
C784 N791 1.356 . S
C785 C784 1.363 . S
C785 C788 1.363 . S
N786 C788 1.356 . S
N786 H798 0.984 . S
N786 H799 0.985 . S
N787 C789 1.356 . S
N787 H792 0.984 . S
N787 H793 0.997 . S
C788 C782 1.379 . S
C788 C785 1.363 . S
C788 N786 1.356 . S
C789 C783 1.363 . S
C789 C784 1.379 . S
C789 N787 1.356 . S
N790 C782 1.356 . S
N790 H796 0.984 . S
N790 H797 0.984 . S
N791 C784 1.356 . S
N791 H794 0.984 . S
N791 H795 0.995 . S
H792 N787 0.984 . S
H793 N787 0.997 . S
H794 N791 0.984 . S
H795 N791 0.995 . S
H796 N790 0.984 . S
H797 N790 0.984 . S
H798 N786 0.984 . S
H799 N786 0.985 . S
C800 C801 1.363 . S
C800 C806 1.379 . S
C800 N808 1.357 1_455 S
C801 C800 1.363 . S
C801 C807 1.363 . S
C802 C803 1.363 . S
C802 C807 1.379 . S
C802 N809 1.356 . S
C803 C802 1.363 . S
C803 C806 1.363 . S
N804 C806 1.354 . S
N804 H816 0.987 1_455 S
N804 H817 0.985 . S
N805 C807 1.356 . S
N805 H810 0.984 . S
N805 H811 0.985 . S
C806 C800 1.379 . S
C806 C803 1.363 . S
C806 N804 1.354 . S
C807 C801 1.363 . S
C807 C802 1.379 . S
C807 N805 1.356 . S
N808 C800 1.357 1_655 S
N808 H814 0.982 . S
N808 H815 0.986 1_655 S
N809 C802 1.356 . S
N809 H812 0.984 . S
N809 H813 0.985 . S
H810 N805 0.984 . S
H811 N805 0.985 . S
H812 N809 0.984 . S
H813 N809 0.985 . S
H814 N808 0.982 . S
H815 N808 0.986 1_455 S
H816 N804 0.987 1_655 S
H817 N804 0.985 . S
C818 C819 1.363 . S
C818 C824 1.379 . S
C818 N826 1.356 . S
C819 C818 1.363 . S
C819 C825 1.363 . S
C820 C821 1.363 . S
C820 C825 1.379 . S
C820 N827 1.356 . S
C821 C820 1.363 . S
C821 C824 1.363 . S
N822 C824 1.356 . S
N822 H834 0.984 . S
N822 H835 0.985 . S
N823 C825 1.356 . S
N823 H828 0.984 . S
N823 H829 0.985 . S
C824 C818 1.379 . S
C824 C821 1.363 . S
C824 N822 1.356 . S
C825 C819 1.363 . S
C825 C820 1.379 . S
C825 N823 1.356 . S
N826 C818 1.356 . S
N826 H832 0.984 . S
N826 H833 0.984 . S
N827 C820 1.356 . S
N827 H830 0.984 . S
N827 H831 0.985 . S
H828 N823 0.984 . S
H829 N823 0.985 . S
H830 N827 0.984 . S
H831 N827 0.985 . S
H832 N826 0.984 . S
H833 N826 0.984 . S
H834 N822 0.984 . S
H835 N822 0.985 . S
C836 C837 1.363 . S
C836 C842 1.379 . S
C836 N844 1.356 . S
C837 C836 1.363 . S
C837 C843 1.363 . S
C838 C839 1.363 . S
C838 C843 1.379 . S
C838 N845 1.356 . S
C839 C838 1.363 . S
C839 C842 1.363 . S
N840 C842 1.356 . S
N840 H852 0.984 1_545 S
N840 H853 0.985 . S
N841 C843 1.356 . S
N841 H846 0.984 . S
N841 H847 0.985 . S
C842 C836 1.379 . S
C842 C839 1.363 . S
C842 N840 1.356 . S
C843 C837 1.363 . S
C843 C838 1.379 . S
C843 N841 1.356 . S
N844 C836 1.356 . S
N844 H850 0.984 . S
N844 H851 0.984 . S
N845 C838 1.356 . S
N845 H848 0.984 . S
N845 H849 0.985 . S
H846 N841 0.984 . S
H847 N841 0.985 . S
H848 N845 0.984 . S
H849 N845 0.985 . S
H850 N844 0.984 . S
H851 N844 0.984 . S
H852 N840 0.984 1_565 S
H853 N840 0.985 . S
C854 C855 1.363 . S
C854 C860 1.379 . S
C854 N862 1.356 . S
C855 C854 1.363 . S
C855 C861 1.363 . S
C856 C857 1.363 . S
C856 C861 1.379 . S
C856 N863 1.356 . S
C857 C856 1.363 . S
C857 C860 1.363 . S
N858 C860 1.356 . S
N858 H870 0.984 . S
N858 H871 0.985 . S
N859 C861 1.356 . S
N859 H864 0.984 . S
N859 H865 0.985 . S
C860 C854 1.379 . S
C860 C857 1.363 . S
C860 N858 1.356 . S
C861 C855 1.363 . S
C861 C856 1.379 . S
C861 N859 1.356 . S
N862 C854 1.356 . S
N862 H868 0.984 . S
N862 H869 0.984 . S
N863 C856 1.356 . S
N863 H866 0.984 . S
N863 H867 0.985 . S
H864 N859 0.984 . S
H865 N859 0.985 . S
H866 N863 0.984 . S
H867 N863 0.985 . S
H868 N862 0.984 . S
H869 N862 0.984 . S
H870 N858 0.984 . S
H871 N858 0.985 . S
C872 C873 1.363 . S
C872 C878 1.379 . S
C872 N880 1.356 . S
C873 C872 1.363 . S
C873 C879 1.363 . S
C874 C875 1.363 . S
C874 C879 1.379 . S
C874 N881 1.356 . S
C875 C874 1.363 . S
C875 C878 1.363 . S
N876 C878 1.356 . S
N876 H888 0.984 . S
N876 H889 0.985 . S
N877 C879 1.356 . S
N877 H882 0.984 . S
N877 H883 0.985 . S
C878 C872 1.379 . S
C878 C875 1.363 . S
C878 N876 1.356 . S
C879 C873 1.363 . S
C879 C874 1.379 . S
C879 N877 1.356 . S
N880 C872 1.356 . S
N880 H886 0.984 . S
N880 H887 0.984 . S
N881 C874 1.356 . S
N881 H884 0.984 . S
N881 H885 0.985 . S
H882 N877 0.984 . S
H883 N877 0.985 . S
H884 N881 0.984 . S
H885 N881 0.985 . S
H886 N880 0.984 . S
H887 N880 0.984 . S
H888 N876 0.984 . S
H889 N876 0.985 . S
C890 C891 1.363 . S
C890 C896 1.379 . S
C890 N898 1.356 . S
C891 C890 1.363 . S
C891 C897 1.363 . S
C892 C893 1.363 . S
C892 C897 1.379 . S
C892 N899 1.356 . S
C893 C892 1.363 . S
C893 C896 1.363 . S
N894 C896 1.356 . S
N894 H906 0.984 . S
N894 H907 0.985 . S
N895 C897 1.356 . S
N895 H900 0.984 . S
N895 H901 0.985 . S
C896 C890 1.379 . S
C896 C893 1.363 . S
C896 N894 1.356 . S
C897 C891 1.363 . S
C897 C892 1.379 . S
C897 N895 1.356 . S
N898 C890 1.356 . S
N898 H904 0.984 . S
N898 H905 0.984 . S
N899 C892 1.356 . S
N899 H902 0.984 . S
N899 H903 0.985 . S
H900 N895 0.984 . S
H901 N895 0.985 . S
H902 N899 0.984 . S
H903 N899 0.985 . S
H904 N898 0.984 . S
H905 N898 0.984 . S
H906 N894 0.984 . S
H907 N894 0.985 . S
C908 C909 1.363 . S
C908 C914 1.379 . S
C908 N916 1.356 . S
C909 C908 1.363 . S
C909 C915 1.363 . S
C910 C911 1.363 . S
C910 C915 1.379 . S
C910 N917 1.356 . S
C911 C910 1.363 . S
C911 C914 1.363 . S
N912 C914 1.356 . S
N912 H924 0.984 . S
N912 H925 0.985 . S
N913 C915 1.356 . S
N913 H918 0.984 . S
N913 H919 0.985 . S
C914 C908 1.379 . S
C914 C911 1.363 . S
C914 N912 1.356 . S
C915 C909 1.363 . S
C915 C910 1.379 . S
C915 N913 1.356 . S
N916 C908 1.356 . S
N916 H922 0.984 . S
N916 H923 0.984 . S
N917 C910 1.356 . S
N917 H920 0.984 . S
N917 H921 0.985 . S
H918 N913 0.984 . S
H919 N913 0.985 . S
H920 N917 0.984 . S
H921 N917 0.985 . S
H922 N916 0.984 . S
H923 N916 0.984 . S
H924 N912 0.984 . S
H925 N912 0.985 . S
C926 C927 1.363 . S
C926 C932 1.379 . S
C926 N934 1.356 . S
C927 C926 1.363 . S
C927 C933 1.363 . S
C928 C929 1.363 . S
C928 C933 1.379 . S
C928 N935 1.356 . S
C929 C928 1.363 . S
C929 C932 1.363 . S
N930 C932 1.356 . S
N930 H942 0.984 . S
N930 H943 0.985 . S
N931 C933 1.356 . S
N931 H936 0.984 . S
N931 H937 0.985 . S
C932 C926 1.379 . S
C932 C929 1.363 . S
C932 N930 1.356 . S
C933 C927 1.363 . S
C933 C928 1.379 . S
C933 N931 1.356 . S
N934 C926 1.356 . S
N934 H940 0.984 . S
N934 H941 0.984 . S
N935 C928 1.356 . S
N935 H938 0.984 . S
N935 H939 0.985 . S
H936 N931 0.984 . S
H937 N931 0.985 . S
H938 N935 0.984 . S
H939 N935 0.985 . S
H940 N934 0.984 . S
H941 N934 0.984 . S
H942 N930 0.984 . S
H943 N930 0.985 . S
C944 C945 1.363 . S
C944 C950 1.379 . S
C944 N952 1.356 . S
C945 C944 1.363 . S
C945 C951 1.363 . S
C946 C947 1.363 . S
C946 C951 1.379 . S
C946 N953 1.356 . S
C947 C946 1.363 . S
C947 C950 1.363 . S
N948 C950 1.356 . S
N948 H960 0.984 . S
N948 H961 0.985 . S
N949 C951 1.356 . S
N949 H954 0.984 . S
N949 H955 0.985 . S
C950 C944 1.379 . S
C950 C947 1.363 . S
C950 N948 1.356 . S
C951 C945 1.363 . S
C951 C946 1.379 . S
C951 N949 1.356 . S
N952 C944 1.356 . S
N952 H958 0.984 . S
N952 H959 0.984 . S
N953 C946 1.356 . S
N953 H956 0.984 . S
N953 H957 0.985 . S
H954 N949 0.984 . S
H955 N949 0.985 . S
H956 N953 0.984 . S
H957 N953 0.985 . S
H958 N952 0.984 . S
H959 N952 0.984 . S
H960 N948 0.984 . S
H961 N948 0.985 . S
C962 C963 1.363 . S
C962 C968 1.379 . S
C962 N970 1.356 . S
C963 C962 1.363 . S
C963 C969 1.363 . S
C964 C965 1.363 . S
C964 C969 1.379 . S
C964 N971 1.356 . S
C965 C964 1.363 . S
C965 C968 1.363 . S
N966 C968 1.356 . S
N966 H978 0.984 . S
N966 H979 0.985 . S
N967 C969 1.356 . S
N967 H972 0.984 . S
N967 H973 0.985 . S
C968 C962 1.379 . S
C968 C965 1.363 . S
C968 N966 1.356 . S
C969 C963 1.363 . S
C969 C964 1.379 . S
C969 N967 1.356 . S
N970 C962 1.356 . S
N970 H976 0.984 . S
N970 H977 0.984 . S
N971 C964 1.356 . S
N971 H974 0.984 . S
N971 H975 0.985 . S
H972 N967 0.984 . S
H973 N967 0.985 . S
H974 N971 0.984 . S
H975 N971 0.985 . S
H976 N970 0.984 . S
H977 N970 0.984 . S
H978 N966 0.984 . S
H979 N966 0.985 . S
C980 C981 1.363 . S
C980 C986 1.379 . S
C980 N988 1.356 . S
C981 C980 1.363 . S
C981 C987 1.363 . S
C982 C983 1.363 . S
C982 C987 1.379 . S
C982 N989 1.356 . S
C983 C982 1.363 . S
C983 C986 1.363 . S
N984 C986 1.356 . S
N984 H996 0.984 . S
N984 H997 0.985 . S
N985 C987 1.356 . S
N985 H990 0.984 . S
N985 H991 0.985 . S
C986 C980 1.379 . S
C986 C983 1.363 . S
C986 N984 1.356 . S
C987 C981 1.363 . S
C987 C982 1.379 . S
C987 N985 1.356 . S
N988 C980 1.356 . S
N988 H994 0.984 . S
N988 H995 0.984 . S
N989 C982 1.356 . S
N989 H992 0.984 . S
N989 H993 0.985 . S
H990 N985 0.984 . S
H991 N985 0.985 . S
H992 N989 0.984 . S
H993 N989 0.985 . S
H994 N988 0.984 . S
H995 N988 0.984 . S
H996 N984 0.984 . S
H997 N984 0.985 . S
C998 C999 1.363 . S
C998 C1004 1.379 . S
C998 N1006 1.356 . S
C999 C998 1.363 . S
C999 C1005 1.363 . S
C1000 C1001 1.363 . S
C1000 C1005 1.379 . S
C1000 N1007 1.356 . S
C1001 C1000 1.363 . S
C1001 C1004 1.363 . S
N1002 C1004 1.356 . S
N1002 H1014 0.984 . S
N1002 H1015 0.985 . S
N1003 C1005 1.356 . S
N1003 H1008 0.984 . S
N1003 H1009 0.985 1_556 S
C1004 C998 1.379 . S
C1004 C1001 1.363 . S
C1004 N1002 1.356 . S
C1005 C999 1.363 . S
C1005 C1000 1.379 . S
C1005 N1003 1.356 . S
N1006 C998 1.356 . S
N1006 H1012 0.984 . S
N1006 H1013 0.984 . S
N1007 C1000 1.356 . S
N1007 H1010 0.984 . S
N1007 H1011 0.985 . S
H1008 N1003 0.984 . S
H1009 N1003 0.985 1_554 S
H1010 N1007 0.984 . S
H1011 N1007 0.985 . S
H1012 N1006 0.984 . S
H1013 N1006 0.984 . S
H1014 N1002 0.984 . S
H1015 N1002 0.985 . S
C1016 C1017 1.363 . S
C1016 C1022 1.379 . S
C1016 N1024 1.356 . S
C1017 C1016 1.363 . S
C1017 C1023 1.363 . S
C1018 C1019 1.363 . S
C1018 C1023 1.379 . S
C1018 N1025 1.356 . S
C1019 C1018 1.363 . S
C1019 C1022 1.363 . S
N1020 C1022 1.356 . S
N1020 H1032 0.984 . S
N1020 H1033 0.985 . S
N1021 C1023 1.356 . S
N1021 H1026 0.984 . S
N1021 H1027 0.985 . S
C1022 C1016 1.379 . S
C1022 C1019 1.363 . S
C1022 N1020 1.356 . S
C1023 C1017 1.363 . S
C1023 C1018 1.379 . S
C1023 N1021 1.356 . S
N1024 C1016 1.356 . S
N1024 H1030 0.984 . S
N1024 H1031 0.984 . S
N1025 C1018 1.356 . S
N1025 H1028 0.984 . S
N1025 H1029 0.985 . S
H1026 N1021 0.984 . S
H1027 N1021 0.985 . S
H1028 N1025 0.984 . S
H1029 N1025 0.985 . S
H1030 N1024 0.984 . S
H1031 N1024 0.984 . S
H1032 N1020 0.984 . S
H1033 N1020 0.985 . S
C1034 C1035 1.363 . S
C1034 C1040 1.379 . S
C1034 N1042 1.356 . S
C1035 C1034 1.363 . S
C1035 C1041 1.363 . S
C1036 C1037 1.363 . S
C1036 C1041 1.379 . S
C1036 N1043 1.356 . S
C1037 C1036 1.363 . S
C1037 C1040 1.363 . S
N1038 C1040 1.356 . S
N1038 H1050 0.984 . S
N1038 H1051 0.985 . S
N1039 C1041 1.356 . S
N1039 H1044 0.984 . S
N1039 H1045 0.985 . S
C1040 C1034 1.379 . S
C1040 C1037 1.363 . S
C1040 N1038 1.356 . S
C1041 C1035 1.363 . S
C1041 C1036 1.379 . S
C1041 N1039 1.356 . S
N1042 C1034 1.356 . S
N1042 H1048 0.984 . S
N1042 H1049 0.984 . S
N1043 C1036 1.356 . S
N1043 H1046 0.984 . S
N1043 H1047 0.985 . S
H1044 N1039 0.984 . S
H1045 N1039 0.985 . S
H1046 N1043 0.984 . S
H1047 N1043 0.985 . S
H1048 N1042 0.984 . S
H1049 N1042 0.984 . S
H1050 N1038 0.984 . S
H1051 N1038 0.985 . S
C1052 C1053 1.363 . S
C1052 C1058 1.379 . S
C1052 N1060 1.356 . S
C1053 C1052 1.363 . S
C1053 C1059 1.363 . S
C1054 C1055 1.363 . S
C1054 C1059 1.379 . S
C1054 N1061 1.356 . S
C1055 C1054 1.363 . S
C1055 C1058 1.363 . S
N1056 C1058 1.356 . S
N1056 H1068 0.984 . S
N1056 H1069 0.985 . S
N1057 C1059 1.356 . S
N1057 H1062 0.984 . S
N1057 H1063 0.985 . S
C1058 C1052 1.379 . S
C1058 C1055 1.363 . S
C1058 N1056 1.356 . S
C1059 C1053 1.363 . S
C1059 C1054 1.379 . S
C1059 N1057 1.356 . S
N1060 C1052 1.356 . S
N1060 H1066 0.984 . S
N1060 H1067 0.984 . S
N1061 C1054 1.356 . S
N1061 H1064 0.984 . S
N1061 H1065 0.985 . S
H1062 N1057 0.984 . S
H1063 N1057 0.985 . S
H1064 N1061 0.984 . S
H1065 N1061 0.985 . S
H1066 N1060 0.984 . S
H1067 N1060 0.984 . S
H1068 N1056 0.984 . S
H1069 N1056 0.985 . S
C1070 C1071 1.363 . S
C1070 C1076 1.379 . S
C1070 N1078 1.356 . S
C1071 C1070 1.363 . S
C1071 C1077 1.363 . S
C1072 C1073 1.363 . S
C1072 C1077 1.379 . S
C1072 N1079 1.356 . S
C1073 C1072 1.363 . S
C1073 C1076 1.363 . S
N1074 C1076 1.356 . S
N1074 H1086 0.984 . S
N1074 H1087 0.985 . S
N1075 C1077 1.356 . S
N1075 H1080 0.984 . S
N1075 H1081 0.985 . S
C1076 C1070 1.379 . S
C1076 C1073 1.363 . S
C1076 N1074 1.356 . S
C1077 C1071 1.363 . S
C1077 C1072 1.379 . S
C1077 N1075 1.356 . S
N1078 C1070 1.356 . S
N1078 H1084 0.984 . S
N1078 H1085 0.984 . S
N1079 C1072 1.356 . S
N1079 H1082 0.984 . S
N1079 H1083 0.985 . S
H1080 N1075 0.984 . S
H1081 N1075 0.985 . S
H1082 N1079 0.984 . S
H1083 N1079 0.985 . S
H1084 N1078 0.984 . S
H1085 N1078 0.984 . S
H1086 N1074 0.984 . S
H1087 N1074 0.985 . S
C1088 C1089 1.363 . S
C1088 C1094 1.379 . S
C1088 N1096 1.356 . S
C1089 C1088 1.363 . S
C1089 C1095 1.363 . S
C1090 C1091 1.363 . S
C1090 C1095 1.379 . S
C1090 N1097 1.356 . S
C1091 C1090 1.363 . S
C1091 C1094 1.363 . S
N1092 C1094 1.356 . S
N1092 H1104 0.984 . S
N1092 H1105 0.985 . S
N1093 C1095 1.356 . S
N1093 H1098 0.984 . S
N1093 H1099 0.985 . S
C1094 C1088 1.379 . S
C1094 C1091 1.363 . S
C1094 N1092 1.356 . S
C1095 C1089 1.363 . S
C1095 C1090 1.379 . S
C1095 N1093 1.356 . S
N1096 C1088 1.356 . S
N1096 H1102 0.984 . S
N1096 H1103 0.984 . S
N1097 C1090 1.356 . S
N1097 H1100 0.984 . S
N1097 H1101 0.985 . S
H1098 N1093 0.984 . S
H1099 N1093 0.985 . S
H1100 N1097 0.984 . S
H1101 N1097 0.985 . S
H1102 N1096 0.984 . S
H1103 N1096 0.984 . S
H1104 N1092 0.984 . S
H1105 N1092 0.985 . S
C1106 C1107 1.363 . S
C1106 C1112 1.379 . S
C1106 N1114 1.356 . S
C1107 C1106 1.363 . S
C1107 C1113 1.363 . S
C1108 C1109 1.363 . S
C1108 C1113 1.379 . S
C1108 N1115 1.356 . S
C1109 C1108 1.363 . S
C1109 C1112 1.363 . S
N1110 C1112 1.356 . S
N1110 H1122 0.984 . S
N1110 H1123 0.985 . S
N1111 C1113 1.356 . S
N1111 H1116 0.984 . S
N1111 H1117 0.985 . S
C1112 C1106 1.379 . S
C1112 C1109 1.363 . S
C1112 N1110 1.356 . S
C1113 C1107 1.363 . S
C1113 C1108 1.379 . S
C1113 N1111 1.356 . S
N1114 C1106 1.356 . S
N1114 H1120 0.984 . S
N1114 H1121 0.984 . S
N1115 C1108 1.356 . S
N1115 H1118 0.984 . S
N1115 H1119 0.985 . S
H1116 N1111 0.984 . S
H1117 N1111 0.985 . S
H1118 N1115 0.984 . S
H1119 N1115 0.985 . S
H1120 N1114 0.984 . S
H1121 N1114 0.984 . S
H1122 N1110 0.984 . S
H1123 N1110 0.985 . S
C1124 C1125 1.363 . S
C1124 C1130 1.379 . S
C1124 N1132 1.356 . S
C1125 C1124 1.363 . S
C1125 C1131 1.363 . S
C1126 C1127 1.363 . S
C1126 C1131 1.379 . S
C1126 N1133 1.356 . S
C1127 C1126 1.363 . S
C1127 C1130 1.363 . S
N1128 C1130 1.356 . S
N1128 H1140 0.984 . S
N1128 H1141 0.985 . S
N1129 C1131 1.356 . S
N1129 H1134 0.984 . S
N1129 H1135 0.985 . S
C1130 C1124 1.379 . S
C1130 C1127 1.363 . S
C1130 N1128 1.356 . S
C1131 C1125 1.363 . S
C1131 C1126 1.379 . S
C1131 N1129 1.356 . S
N1132 C1124 1.356 . S
N1132 H1138 0.984 . S
N1132 H1139 0.984 . S
N1133 C1126 1.356 . S
N1133 H1136 0.984 . S
N1133 H1137 0.985 . S
H1134 N1129 0.984 . S
H1135 N1129 0.985 . S
H1136 N1133 0.984 . S
H1137 N1133 0.985 . S
H1138 N1132 0.984 . S
H1139 N1132 0.984 . S
H1140 N1128 0.984 . S
H1141 N1128 0.985 . S
C1142 C1143 1.363 . S
C1142 C1148 1.379 . S
C1142 N1150 1.356 . S
C1143 C1142 1.363 . S
C1143 C1149 1.363 . S
C1144 C1145 1.363 . S
C1144 C1149 1.379 . S
C1144 N1151 1.356 . S
C1145 C1144 1.363 . S
C1145 C1148 1.363 . S
N1146 C1148 1.356 . S
N1146 H1158 0.984 . S
N1146 H1159 0.985 . S
N1147 C1149 1.356 . S
N1147 H1152 0.984 . S
N1147 H1153 0.985 . S
C1148 C1142 1.379 . S
C1148 C1145 1.363 . S
C1148 N1146 1.356 . S
C1149 C1143 1.363 . S
C1149 C1144 1.379 . S
C1149 N1147 1.356 . S
N1150 C1142 1.356 . S
N1150 H1156 0.984 . S
N1150 H1157 0.984 . S
N1151 C1144 1.356 . S
N1151 H1154 0.984 . S
N1151 H1155 0.985 . S
H1152 N1147 0.984 . S
H1153 N1147 0.985 . S
H1154 N1151 0.984 . S
H1155 N1151 0.985 . S
H1156 N1150 0.984 . S
H1157 N1150 0.984 . S
H1158 N1146 0.984 . S
H1159 N1146 0.985 . S
C1160 C1161 1.363 . S
C1160 C1166 1.379 . S
C1160 N1168 1.356 . S
C1161 C1160 1.363 . S
C1161 C1167 1.363 . S
C1162 C1163 1.363 . S
C1162 C1167 1.379 . S
C1162 N1169 1.356 . S
C1163 C1162 1.363 . S
C1163 C1166 1.363 . S
N1164 C1166 1.356 . S
N1164 H1176 0.984 . S
N1164 H1177 0.985 . S
N1165 C1167 1.356 . S
N1165 H1170 0.984 . S
N1165 H1171 0.985 . S
C1166 C1160 1.379 . S
C1166 C1163 1.363 . S
C1166 N1164 1.356 . S
C1167 C1161 1.363 . S
C1167 C1162 1.379 . S
C1167 N1165 1.356 . S
N1168 C1160 1.356 . S
N1168 H1174 0.984 . S
N1168 H1175 0.984 . S
N1169 C1162 1.356 . S
N1169 H1172 0.984 . S
N1169 H1173 0.985 . S
H1170 N1165 0.984 . S
H1171 N1165 0.985 . S
H1172 N1169 0.984 . S
H1173 N1169 0.985 . S
H1174 N1168 0.984 . S
H1175 N1168 0.984 . S
H1176 N1164 0.984 . S
H1177 N1164 0.985 . S
C1178 C1179 1.363 . S
C1178 C1184 1.379 . S
C1178 N1186 1.356 . S
C1179 C1178 1.363 . S
C1179 C1185 1.363 . S
C1180 C1181 1.363 . S
C1180 C1185 1.379 . S
C1180 N1187 1.356 . S
C1181 C1180 1.363 . S
C1181 C1184 1.363 . S
N1182 C1184 1.356 . S
N1182 H1194 0.984 . S
N1182 H1195 0.985 . S
N1183 C1185 1.356 . S
N1183 H1188 0.984 . S
N1183 H1189 0.985 . S
C1184 C1178 1.379 . S
C1184 C1181 1.363 . S
C1184 N1182 1.356 . S
C1185 C1179 1.363 . S
C1185 C1180 1.379 . S
C1185 N1183 1.356 . S
N1186 C1178 1.356 . S
N1186 H1192 0.984 . S
N1186 H1193 0.984 . S
N1187 C1180 1.356 . S
N1187 H1190 0.984 . S
N1187 H1191 0.985 . S
H1188 N1183 0.984 . S
H1189 N1183 0.985 . S
H1190 N1187 0.984 . S
H1191 N1187 0.985 . S
H1192 N1186 0.984 . S
H1193 N1186 0.984 . S
H1194 N1182 0.984 . S
H1195 N1182 0.985 . S
C1196 C1197 1.363 . S
C1196 C1202 1.379 . S
C1196 N1204 1.356 . S
C1197 C1196 1.363 . S
C1197 C1203 1.363 . S
C1198 C1199 1.363 . S
C1198 C1203 1.379 . S
C1198 N1205 1.356 . S
C1199 C1198 1.363 . S
C1199 C1202 1.363 . S
N1200 C1202 1.356 . S
N1200 H1212 0.984 . S
N1200 H1213 0.985 . S
N1201 C1203 1.356 . S
N1201 H1206 0.984 . S
N1201 H1207 0.985 . S
C1202 C1196 1.379 . S
C1202 C1199 1.363 . S
C1202 N1200 1.356 . S
C1203 C1197 1.363 . S
C1203 C1198 1.379 . S
C1203 N1201 1.356 . S
N1204 C1196 1.356 . S
N1204 H1210 0.984 . S
N1204 H1211 0.984 . S
N1205 C1198 1.356 . S
N1205 H1208 0.984 . S
N1205 H1209 0.985 . S
H1206 N1201 0.984 . S
H1207 N1201 0.985 . S
H1208 N1205 0.984 . S
H1209 N1205 0.985 . S
H1210 N1204 0.984 . S
H1211 N1204 0.984 . S
H1212 N1200 0.984 . S
H1213 N1200 0.985 . S
C1214 C1215 1.363 . S
C1214 C1220 1.379 . S
C1214 N1222 1.356 . S
C1215 C1214 1.363 . S
C1215 C1221 1.363 . S
C1216 C1217 1.363 . S
C1216 C1221 1.379 . S
C1216 N1223 1.356 . S
C1217 C1216 1.363 . S
C1217 C1220 1.363 . S
N1218 C1220 1.356 . S
N1218 H1230 0.984 . S
N1218 H1231 0.985 . S
N1219 C1221 1.356 . S
N1219 H1224 0.984 . S
N1219 H1225 0.985 . S
C1220 C1214 1.379 . S
C1220 C1217 1.363 . S
C1220 N1218 1.356 . S
C1221 C1215 1.363 . S
C1221 C1216 1.379 . S
C1221 N1219 1.356 . S
N1222 C1214 1.356 . S
N1222 H1228 0.984 . S
N1222 H1229 0.984 . S
N1223 C1216 1.356 . S
N1223 H1226 0.984 . S
N1223 H1227 0.985 . S
H1224 N1219 0.984 . S
H1225 N1219 0.985 . S
H1226 N1223 0.984 . S
H1227 N1223 0.985 . S
H1228 N1222 0.984 . S
H1229 N1222 0.984 . S
H1230 N1218 0.984 . S
H1231 N1218 0.985 . S
C1232 C1233 1.363 . S
C1232 C1238 1.379 . S
C1232 N1240 1.356 . S
C1233 C1232 1.363 . S
C1233 C1239 1.363 . S
C1234 C1235 1.363 . S
C1234 C1239 1.379 . S
C1234 N1241 1.356 . S
C1235 C1234 1.363 . S
C1235 C1238 1.363 . S
N1236 C1238 1.356 . S
N1236 H1248 0.984 . S
N1236 H1249 0.985 . S
N1237 C1239 1.356 . S
N1237 H1242 0.984 . S
N1237 H1243 0.985 . S
C1238 C1232 1.379 . S
C1238 C1235 1.363 . S
C1238 N1236 1.356 . S
C1239 C1233 1.363 . S
C1239 C1234 1.379 . S
C1239 N1237 1.356 . S
N1240 C1232 1.356 . S
N1240 H1246 0.984 . S
N1240 H1247 0.984 . S
N1241 C1234 1.356 . S
N1241 H1244 0.984 . S
N1241 H1245 0.985 . S
H1242 N1237 0.984 . S
H1243 N1237 0.985 . S
H1244 N1241 0.984 . S
H1245 N1241 0.985 . S
H1246 N1240 0.984 . S
H1247 N1240 0.984 . S
H1248 N1236 0.984 . S
H1249 N1236 0.985 . S
C1250 C1251 1.363 . S
C1250 C1256 1.379 . S
C1250 N1258 1.356 . S
C1251 C1250 1.363 . S
C1251 C1257 1.363 . S
C1252 C1253 1.363 . S
C1252 C1257 1.379 . S
C1252 N1259 1.356 . S
C1253 C1252 1.363 . S
C1253 C1256 1.363 . S
N1254 C1256 1.356 . S
N1254 H1266 0.984 . S
N1254 H1267 0.985 . S
N1255 C1257 1.356 . S
N1255 H1260 0.984 . S
N1255 H1261 0.985 . S
C1256 C1250 1.379 . S
C1256 C1253 1.363 . S
C1256 N1254 1.356 . S
C1257 C1251 1.363 . S
C1257 C1252 1.379 . S
C1257 N1255 1.356 . S
N1258 C1250 1.356 . S
N1258 H1264 0.984 . S
N1258 H1265 0.984 . S
N1259 C1252 1.356 . S
N1259 H1262 0.984 . S
N1259 H1263 0.985 . S
H1260 N1255 0.984 . S
H1261 N1255 0.985 . S
H1262 N1259 0.984 . S
H1263 N1259 0.985 . S
H1264 N1258 0.984 . S
H1265 N1258 0.984 . S
H1266 N1254 0.984 . S
H1267 N1254 0.985 . S
C1268 C1269 1.363 . S
C1268 C1274 1.379 . S
C1268 N1276 1.356 . S
C1269 C1268 1.363 . S
C1269 C1275 1.363 . S
C1270 C1271 1.363 . S
C1270 C1275 1.379 . S
C1270 N1277 1.356 . S
C1271 C1270 1.363 . S
C1271 C1274 1.363 . S
N1272 C1274 1.356 . S
N1272 H1284 0.984 . S
N1272 H1285 0.985 . S
N1273 C1275 1.356 . S
N1273 H1278 0.984 . S
N1273 H1279 0.985 . S
C1274 C1268 1.379 . S
C1274 C1271 1.363 . S
C1274 N1272 1.356 . S
C1275 C1269 1.363 . S
C1275 C1270 1.379 . S
C1275 N1273 1.356 . S
N1276 C1268 1.356 . S
N1276 H1282 0.984 . S
N1276 H1283 0.984 . S
N1277 C1270 1.356 . S
N1277 H1280 0.984 . S
N1277 H1281 0.985 . S
H1278 N1273 0.984 . S
H1279 N1273 0.985 . S
H1280 N1277 0.984 . S
H1281 N1277 0.985 . S
H1282 N1276 0.984 . S
H1283 N1276 0.984 . S
H1284 N1272 0.984 . S
H1285 N1272 0.985 . S
C1286 C1287 1.363 . S
C1286 C1292 1.379 . S
C1286 N1294 1.356 . S
C1287 C1286 1.363 . S
C1287 C1293 1.363 . S
C1288 C1289 1.363 . S
C1288 C1293 1.379 . S
C1288 N1295 1.356 . S
C1289 C1288 1.363 . S
C1289 C1292 1.363 . S
N1290 C1292 1.356 . S
N1290 H1302 0.984 . S
N1290 H1303 0.985 . S
N1291 C1293 1.356 . S
N1291 H1296 0.984 . S
N1291 H1297 0.985 . S
C1292 C1286 1.379 . S
C1292 C1289 1.363 . S
C1292 N1290 1.356 . S
C1293 C1287 1.363 . S
C1293 C1288 1.379 . S
C1293 N1291 1.356 . S
N1294 C1286 1.356 . S
N1294 H1300 0.984 . S
N1294 H1301 0.984 . S
N1295 C1288 1.356 . S
N1295 H1298 0.984 . S
N1295 H1299 0.985 . S
H1296 N1291 0.984 . S
H1297 N1291 0.985 . S
H1298 N1295 0.984 . S
H1299 N1295 0.985 . S
H1300 N1294 0.984 . S
H1301 N1294 0.984 . S
H1302 N1290 0.984 . S
H1303 N1290 0.985 . S
C1304 C1305 1.363 . S
C1304 C1310 1.379 . S
C1304 N1312 1.356 . S
C1305 C1304 1.363 . S
C1305 C1311 1.363 . S
C1306 C1307 1.363 . S
C1306 C1311 1.379 . S
C1306 N1313 1.356 . S
C1307 C1306 1.363 . S
C1307 C1310 1.363 . S
N1308 C1310 1.356 . S
N1308 H1320 0.984 . S
N1308 H1321 0.985 . S
N1309 C1311 1.356 . S
N1309 H1314 0.984 . S
N1309 H1315 0.985 . S
C1310 C1304 1.379 . S
C1310 C1307 1.363 . S
C1310 N1308 1.356 . S
C1311 C1305 1.363 . S
C1311 C1306 1.379 . S
C1311 N1309 1.356 . S
N1312 C1304 1.356 . S
N1312 H1318 0.984 . S
N1312 H1319 0.984 . S
N1313 C1306 1.356 . S
N1313 H1316 0.984 . S
N1313 H1317 0.985 . S
H1314 N1309 0.984 . S
H1315 N1309 0.985 . S
H1316 N1313 0.984 . S
H1317 N1313 0.985 . S
H1318 N1312 0.984 . S
H1319 N1312 0.984 . S
H1320 N1308 0.984 . S
H1321 N1308 0.985 . S
C1322 C1323 1.363 . S
C1322 C1328 1.379 . S
C1322 N1330 1.356 . S
C1323 C1322 1.363 . S
C1323 C1329 1.363 . S
C1324 C1325 1.363 . S
C1324 C1329 1.379 . S
C1324 N1331 1.356 . S
C1325 C1324 1.363 . S
C1325 C1328 1.363 . S
N1326 C1328 1.356 . S
N1326 H1338 0.984 . S
N1326 H1339 0.985 . S
N1327 C1329 1.356 . S
N1327 H1332 0.984 . S
N1327 H1333 0.985 . S
C1328 C1322 1.379 . S
C1328 C1325 1.363 . S
C1328 N1326 1.356 . S
C1329 C1323 1.363 . S
C1329 C1324 1.379 . S
C1329 N1327 1.356 . S
N1330 C1322 1.356 . S
N1330 H1336 0.984 . S
N1330 H1337 0.984 . S
N1331 C1324 1.356 . S
N1331 H1334 0.984 . S
N1331 H1335 0.985 . S
H1332 N1327 0.984 . S
H1333 N1327 0.985 . S
H1334 N1331 0.984 . S
H1335 N1331 0.985 . S
H1336 N1330 0.984 . S
H1337 N1330 0.984 . S
H1338 N1326 0.984 . S
H1339 N1326 0.985 . S
C1340 C1341 1.363 . S
C1340 C1346 1.379 . S
C1340 N1348 1.356 . S
C1341 C1340 1.363 . S
C1341 C1347 1.363 . S
C1342 C1343 1.363 . S
C1342 C1347 1.379 . S
C1342 N1349 1.356 . S
C1343 C1342 1.363 . S
C1343 C1346 1.363 . S
N1344 C1346 1.356 . S
N1344 H1356 0.984 . S
N1344 H1357 0.985 . S
N1345 C1347 1.356 . S
N1345 H1350 0.984 . S
N1345 H1351 0.985 . S
C1346 C1340 1.379 . S
C1346 C1343 1.363 . S
C1346 N1344 1.356 . S
C1347 C1341 1.363 . S
C1347 C1342 1.379 . S
C1347 N1345 1.356 . S
N1348 C1340 1.356 . S
N1348 H1354 0.984 . S
N1348 H1355 0.984 . S
N1349 C1342 1.356 . S
N1349 H1352 0.984 . S
N1349 H1353 0.985 . S
H1350 N1345 0.984 . S
H1351 N1345 0.985 . S
H1352 N1349 0.984 . S
H1353 N1349 0.985 . S
H1354 N1348 0.984 . S
H1355 N1348 0.984 . S
H1356 N1344 0.984 . S
H1357 N1344 0.985 . S
C1358 C1359 1.363 . S
C1358 C1364 1.379 . S
C1358 N1366 1.356 . S
C1359 C1358 1.363 . S
C1359 C1365 1.363 . S
C1360 C1361 1.363 . S
C1360 C1365 1.379 . S
C1360 N1367 1.356 . S
C1361 C1360 1.363 . S
C1361 C1364 1.363 . S
N1362 C1364 1.356 . S
N1362 H1374 0.984 . S
N1362 H1375 0.985 . S
N1363 C1365 1.356 . S
N1363 H1368 0.984 . S
N1363 H1369 0.985 . S
C1364 C1358 1.379 . S
C1364 C1361 1.363 . S
C1364 N1362 1.356 . S
C1365 C1359 1.363 . S
C1365 C1360 1.379 . S
C1365 N1363 1.356 . S
N1366 C1358 1.356 . S
N1366 H1372 0.984 . S
N1366 H1373 0.984 . S
N1367 C1360 1.356 . S
N1367 H1370 0.984 . S
N1367 H1371 0.985 . S
H1368 N1363 0.984 . S
H1369 N1363 0.985 . S
H1370 N1367 0.984 . S
H1371 N1367 0.985 . S
H1372 N1366 0.984 . S
H1373 N1366 0.984 . S
H1374 N1362 0.984 . S
H1375 N1362 0.985 . S
C515 C337 1.908 . S
C513 C2 1.923 . S
C533 C342 1.262 . S
C531 C48 1.271 . S
C551 C343 1.562 . S
C549 C97 1.567 . S
C567 C149 0.779 . S
C569 C347 0.794 . S
C585 C189 1.270 . S
C587 C350 1.262 . S
C605 C351 1.562 . S
C603 C202 1.566 . S
C621 C248 0.779 . S
C623 C328 0.794 . S
C639 C297 1.923 . S
C641 C344 1.908 . S
C659 C382 2.590 . S
C657 C31 2.705 . S
C675 C52 1.723 . S
C677 C408 1.689 . S
C695 C360 1.271 . S
C693 C88 1.289 . S
C713 C415 1.467 . S
C711 C122 1.450 . S
C729 C162 1.537 . S
C731 C369 1.520 . S
C749 C411 2.576 . S
C747 C231 2.687 . S
C765 C252 1.758 . S
C767 C375 1.736 . S
C783 C288 1.341 . S
C785 C406 1.352 . S
C801 C29 1.341 . S
C803 C414 1.348 . S
C819 C191 1.723 . S
C821 C401 1.692 . S
C839 C379 1.271 . S
C837 C229 1.291 . S
C857 C407 1.467 . S
C855 C257 1.453 . S
C873 C292 2.706 . S
C875 C374 2.591 . S
C891 C92 2.687 . S
C893 C392 2.575 . S
C911 C383 1.734 . S
C909 C151 1.756 . S
C927 C57 1.537 . S
C929 C376 1.517 . S
C945 C282 1.893 . S
C947 C438 1.826 . S
C963 C168 1.248 . S
C965 C433 1.200 . S
C983 C447 1.418 . S
C981 C217 1.543 . S
C1001 C424 0.573 . S
C999 C269 0.784 . S
C1017 C69 1.248 . S
C1019 C440 1.198 . S
C1037 C439 1.419 . S
C1035 C82 1.540 . S
C1053 C128 0.783 . S
C1055 C443 0.572 . S
C1071 C17 1.893 . S
C1073 C446 1.823 . S
C1089 C311 2.717 . S
C1091 C472 2.702 . S
C1109 C488 1.639 . S
C1107 C172 1.722 . S
C1125 C208 1.300 . S
C1127 C470 1.323 . S
C1143 C242 1.460 . S
C1145 C503 1.456 . S
C1163 C479 1.500 . S
C1161 C42 1.525 . S
C1179 C111 2.718 . S
C1181 C497 2.654 . S
C1199 C475 1.642 . S
C1197 C132 1.735 . S
C1217 C510 1.270 . S
C1215 C8 1.355 . S
C1235 C502 1.269 . S
C1233 C309 1.355 . S
C1251 C71 1.722 . S
C1253 C507 1.639 . S
C1269 C109 1.300 . S
C1271 C478 1.324 . S
C1289 C511 1.456 . S
C1287 C137 1.460 . S
C1305 C12 2.717 . S
C1307 C465 2.701 . S
C1323 C212 2.718 . S
C1325 C504 2.655 . S
C1343 C456 1.642 . S
C1341 C271 1.736 . S
C1361 C471 1.500 . S
C1359 C177 1.524 . S
