# Generated by pormake.
# Topology pth, (4,4)-cn, num edge types: 1
# Building blocks:
#     Node 0, Type 0, BuildingBlock: NAHDIM_clean_sbu_0, # of connection points: 4
#     Node 1, Type 0, BuildingBlock: NAHDIM_clean_sbu_0, # of connection points: 4
#     Node 2, Type 0, BuildingBlock: NAHDIM_clean_sbu_0, # of connection points: 4
#     Node 3, Type 1, BuildingBlock: NAWXER_clean_sbu_0, # of connection points: 4
#     Node 4, Type 1, BuildingBlock: NAWXER_clean_sbu_0, # of connection points: 4
#     Node 5, Type 1, BuildingBlock: NAWXER_clean_sbu_0, # of connection points: 4
#     Edge 6, Type (0, 1), BuildingBlock: TEMPAE_clean_linker_10, # of connection points: 2
#     Edge 7, Type (0, 1), BuildingBlock: TEMPAE_clean_linker_10, # of connection points: 2
#     Edge 8, Type (0, 1), BuildingBlock: TEMPAE_clean_linker_10, # of connection points: 2
#     Edge 9, Type (0, 1), BuildingBlock: TEMPAE_clean_linker_10, # of connection points: 2
#     Edge 10, Type (0, 1), BuildingBlock: TEMPAE_clean_linker_10, # of connection points: 2
#     Edge 11, Type (0, 1), BuildingBlock: TEMPAE_clean_linker_10, # of connection points: 2
#     Edge 12, Type (0, 1), BuildingBlock: TEMPAE_clean_linker_10, # of connection points: 2
#     Edge 13, Type (0, 1), BuildingBlock: TEMPAE_clean_linker_10, # of connection points: 2
#     Edge 14, Type (0, 1), BuildingBlock: TEMPAE_clean_linker_10, # of connection points: 2
#     Edge 15, Type (0, 1), BuildingBlock: TEMPAE_clean_linker_10, # of connection points: 2
#     Edge 16, Type (0, 1), BuildingBlock: TEMPAE_clean_linker_10, # of connection points: 2
#     Edge 17, Type (0, 1), BuildingBlock: TEMPAE_clean_linker_10, # of connection points: 2
# Relax obj value: 0.052
# Max RMSD: 0.176
# Mean RMSD: 0.101
data_MOF--net-pth--node1-NAHDIM_clean_sbu_0--node2-NAWXER_clean_sbu_0--edge1-TEMPAE_clean_linker_10
_symmetry_space_group_name_H-M    P1
_symmetry_Int_Tables_number       1
_symmetry_cell_setting            triclinic
loop_
_symmetry_equiv_pos_as_xyz
'x, y, z'
_cell_length_a     23.246348
_cell_length_b     23.383509
_cell_length_c     57.31274
_cell_angle_alpha  92.103082
_cell_angle_beta   90.058565
_cell_angle_gamma 120.67621
loop_
_atom_site_label
_atom_site_type_symbol
_atom_site_fract_x
_atom_site_fract_y
_atom_site_fract_z
_atom_type_partial_charge
C0 C 0.00717 0.97575 0.11113 0.0
O1 O 0.9603 0.99134 0.11195 0.0
O2 O 0.02077 0.12354 0.09554 0.0
Zn3 Zn 0.03785 0.061 0.07487 0.0
O4 O 0.96068 0.99362 0.05399 0.0
C5 C 0.10284 0.1334 0.03483 0.0
O6 O 0.03989 0.10701 0.02825 0.0
O7 O 0.05316 0.00309 0.09627 0.0
C8 C 0.97805 0.95936 0.04126 0.0
O9 O 0.0402 0.97286 0.04277 0.0
C10 C 0.04796 0.18521 0.09162 0.0
O11 O 0.08096 0.20748 0.07232 0.0
O12 O 0.1165 0.11869 0.05447 0.0
C13 C 0.00183 0.15869 0.37683 0.0
O14 O 0.95234 0.10511 0.38564 0.0
O15 O 0.02874 0.02496 0.39171 0.0
Zn16 Zn 0.06304 0.1159 0.40711 0.0
O17 O 0.00967 0.12259 0.43377 0.0
C18 C 0.14383 0.10067 0.43734 0.0
O19 O 0.08226 0.05823 0.4433 0.0
O20 O 0.0616 0.17641 0.38291 0.0
C21 C 0.95002 0.08208 0.4395 0.0
O22 O 0.91558 0.02452 0.42793 0.0
C23 C 0.06152 0.0294 0.37341 0.0
O24 O 0.10603 0.08881 0.3666 0.0
O25 O 0.15297 0.1388 0.42066 0.0
C26 C 0.11101 0.06742 0.70203 0.0
O27 O 0.09567 0.11406 0.70481 0.0
O28 O 0.95868 0.04595 0.71868 0.0
Zn29 Zn 0.01836 0.02284 0.73674 0.0
O30 O 0.08152 0.09357 0.76023 0.0
C31 C 0.90273 0.89315 0.7462 0.0
O32 O 0.8861 0.89328 0.72429 0.0
O33 O 0.08033 0.01552 0.71388 0.0
C34 C 0.11533 0.07463 0.77171 0.0
O35 O 0.1024 0.0133 0.76814 0.0
C36 C 0.90193 0.03426 0.72569 0.0
O37 O 0.88376 0.01367 0.74692 0.0
O38 O 0.95879 0.94006 0.75425 0.0
C39 C 0.04446 0.65216 0.2774 0.0
C40 C 0.05256 0.50696 0.21484 0.0
O41 O 0.0973 0.65328 0.27068 0.0
Zn42 Zn 0.05395 0.58128 0.24687 0.0
O43 O 0.98771 0.60922 0.26807 0.0
Zn44 Zn 0.94583 0.53083 0.24189 0.0
O45 O 0.89044 0.45169 0.25961 0.0
O46 O 0.99866 0.49852 0.26778 0.0
O47 O 0.99428 0.49682 0.21927 0.0
O48 O 0.10291 0.55148 0.22675 0.0
O49 O 0.01887 0.62521 0.22313 0.0
O50 O 0.90857 0.56574 0.21978 0.0
C51 C 0.93811 0.45328 0.27113 0.0
C52 C 0.96402 0.61604 0.21429 0.0
C53 C 0.59891 0.05053 0.60416 0.0
C54 C 0.48698 0.07898 0.53647 0.0
O55 O 0.55787 0.00368 0.59012 0.0
Zn56 Zn 0.5415 0.05934 0.5696 0.0
O57 O 0.61424 0.11046 0.60082 0.0
Zn58 Zn 0.59318 0.16621 0.57764 0.0
O59 O 0.55133 0.20133 0.59862 0.0
O60 O 0.49 0.09246 0.59167 0.0
O61 O 0.52676 0.13255 0.5483 0.0
O62 O 0.48078 0.02403 0.54228 0.0
O63 O 0.63607 0.11542 0.55436 0.0
O64 O 0.67997 0.22267 0.56357 0.0
C65 C 0.49762 0.14608 0.60145 0.0
C66 C 0.6837 0.17571 0.55314 0.0
C67 C 0.45113 0.48004 0.93373 0.0
C68 C 0.58301 0.60601 0.86739 0.0
O69 O 0.44572 0.52547 0.92412 0.0
Zn70 Zn 0.51688 0.54883 0.90149 0.0
O71 O 0.49687 0.46829 0.92723 0.0
Zn72 Zn 0.57445 0.49907 0.90285 0.0
O73 O 0.65471 0.53991 0.92298 0.0
O74 O 0.60477 0.5988 0.9227 0.0
O75 O 0.59981 0.56649 0.87578 0.0
O76 O 0.53692 0.61221 0.87697 0.0
O77 O 0.47631 0.45665 0.88201 0.0
O78 O 0.54344 0.41571 0.88466 0.0
C79 C 0.65279 0.59141 0.92967 0.0
C80 C 0.48962 0.41092 0.87695 0.0
C81 C 0.07704 0.30031 0.10451 0.0
C82 C 0.04955 0.23316 0.10964 0.0
C83 C 0.08272 0.34753 0.1216 0.0
C84 C 0.06058 0.32726 0.14444 0.0
C85 C 0.03317 0.25966 0.14981 0.0
C86 C 0.02774 0.21333 0.13232 0.0
C87 C 0.11144 0.41894 0.1151 0.0
C88 C 0.00894 0.23618 0.17398 0.0
C89 C 0.11507 0.45874 0.19419 0.0
C90 C 0.05834 0.46487 0.19612 0.0
C91 C 0.1169 0.41424 0.17736 0.0
C92 C 0.0609 0.37565 0.16212 0.0
C93 C 0.00434 0.38299 0.16369 0.0
C94 C 0.00377 0.4273 0.18061 0.0
C95 C 0.17807 0.40759 0.17614 0.0
C96 C 0.94385 0.34335 0.14766 0.0
H97 H 0.09422 0.31619 0.08705 0.0
H98 H 0.00706 0.16171 0.1365 0.0
H99 H 0.0728 0.43318 0.11695 0.0
H100 H 0.15374 0.45263 0.12712 0.0
H101 H 0.12939 0.42727 0.09689 0.0
H102 H 0.99249 0.18283 0.17569 0.0
H103 H 0.04927 0.26625 0.18716 0.0
H104 H 0.96634 0.24328 0.17816 0.0
H105 H 0.15724 0.4874 0.20615 0.0
H106 H 0.95983 0.43206 0.18179 0.0
H107 H 0.19852 0.41768 0.15831 0.0
H108 H 0.16419 0.35583 0.17973 0.0
H109 H 0.21797 0.44213 0.18885 0.0
H110 H 0.95872 0.35266 0.12917 0.0
H111 H 0.90434 0.35587 0.1509 0.0
H112 H 0.92218 0.28935 0.15004 0.0
C113 C 0.95541 0.16573 0.46938 0.0
C114 C 0.91843 0.10301 0.45773 0.0
C115 C 0.9256 0.18791 0.48584 0.0
C116 C 0.85717 0.14644 0.49079 0.0
C117 C 0.8197 0.08289 0.47926 0.0
C118 C 0.85079 0.06192 0.46289 0.0
C119 C 0.96721 0.25575 0.49787 0.0
C120 C 0.74654 0.03706 0.48413 0.0
C121 C 0.77919 0.15942 0.54713 0.0
C122 C 0.74202 0.18747 0.53967 0.0
C123 C 0.82104 0.15028 0.5318 0.0
C124 C 0.82448 0.16844 0.50833 0.0
C125 C 0.79046 0.20104 0.50118 0.0
C126 C 0.74947 0.21026 0.51704 0.0
C127 C 0.8571 0.11623 0.54025 0.0
C128 C 0.7928 0.22108 0.47631 0.0
H129 H 0.00776 0.19796 0.46553 0.0
H130 H 0.82182 0.01354 0.45396 0.0
H131 H 0.94524 0.28703 0.49427 0.0
H132 H 0.96695 0.25092 0.51706 0.0
H133 H 0.01989 0.28191 0.49211 0.0
H134 H 0.72434 0.98956 0.47353 0.0
H135 H 0.74027 0.02546 0.50288 0.0
H136 H 0.71802 0.06203 0.48036 0.0
H137 H 0.77218 0.14073 0.56458 0.0
H138 H 0.71926 0.23042 0.5112 0.0
H139 H 0.90976 0.1426 0.53457 0.0
H140 H 0.83253 0.06474 0.5325 0.0
H141 H 0.85667 0.11368 0.55957 0.0
H142 H 0.84505 0.24781 0.47021 0.0
H143 H 0.77101 0.25332 0.47433 0.0
H144 H 0.76417 0.17578 0.46476 0.0
C145 C 0.8691 0.84963 0.78617 0.0
C146 C 0.85239 0.84652 0.76244 0.0
C147 C 0.82073 0.81024 0.80223 0.0
C148 C 0.75389 0.76643 0.79442 0.0
C149 C 0.73669 0.76252 0.77047 0.0
C150 C 0.78616 0.80258 0.75476 0.0
C151 C 0.84123 0.81552 0.82761 0.0
C152 C 0.66604 0.71612 0.76148 0.0
C153 C 0.65485 0.62187 0.83329 0.0
C154 C 0.61946 0.64417 0.84696 0.0
C155 C 0.69643 0.65993 0.81549 0.0
C156 C 0.70324 0.72222 0.81123 0.0
C157 C 0.66538 0.74385 0.82422 0.0
C158 C 0.62357 0.70432 0.84194 0.0
C159 C 0.73535 0.63466 0.80194 0.0
C160 C 0.67134 0.81001 0.82011 0.0
H161 H 0.92003 0.88355 0.79232 0.0
H162 H 0.7726 0.80015 0.7365 0.0
H163 H 0.81035 0.82879 0.83872 0.0
H164 H 0.83231 0.76669 0.83311 0.0
H165 H 0.89482 0.85338 0.83097 0.0
H166 H 0.66048 0.71998 0.74244 0.0
H167 H 0.65083 0.66393 0.76492 0.0
H168 H 0.63099 0.72734 0.77086 0.0
H169 H 0.65123 0.57493 0.83685 0.0
H170 H 0.59637 0.72178 0.85245 0.0
H171 H 0.78958 0.66735 0.806 0.0
H172 H 0.72801 0.63614 0.78289 0.0
H173 H 0.7204 0.58293 0.80613 0.0
H174 H 0.72229 0.85086 0.82541 0.0
H175 H 0.63426 0.81692 0.83012 0.0
H176 H 0.66432 0.81462 0.80126 0.0
C177 C 0.9654 0.90907 0.14662 0.0
C178 C 0.00243 0.9235 0.12615 0.0
C179 C 0.95688 0.85742 0.1606 0.0
C180 C 0.98493 0.81829 0.15368 0.0
C181 C 0.02197 0.83225 0.13291 0.0
C182 C 0.03093 0.88525 0.1195 0.0
C183 C 0.91859 0.84532 0.18293 0.0
C184 C 0.05189 0.79104 0.12482 0.0
C185 C 0.02268 0.73162 0.2007 0.0
C186 C 0.96723 0.66667 0.19874 0.0
C187 C 0.02877 0.78121 0.1862 0.0
C188 C 0.97875 0.76537 0.16895 0.0
C189 C 0.92264 0.6998 0.16675 0.0
C190 C 0.91712 0.65124 0.1819 0.0
C191 C 0.08856 0.85078 0.18952 0.0
C192 C 0.86883 0.68095 0.14831 0.0
H193 H 0.94338 0.93862 0.15185 0.0
H194 H 0.05883 0.89571 0.10352 0.0
H195 H 0.87562 0.7935 0.18265 0.0
H196 H 0.95137 0.85145 0.19806 0.0
H197 H 0.89947 0.8799 0.18571 0.0
H198 H 0.07629 0.80611 0.10768 0.0
H199 H 0.08964 0.79605 0.13787 0.0
H200 H 0.01243 0.73763 0.12335 0.0
H201 H 0.06128 0.74411 0.21388 0.0
H202 H 0.87441 0.60104 0.18027 0.0
H203 H 0.07159 0.88665 0.19333 0.0
H204 H 0.11741 0.86578 0.17323 0.0
H205 H 0.12257 0.85503 0.20398 0.0
H206 H 0.84498 0.71131 0.15108 0.0
H207 H 0.82946 0.62748 0.14842 0.0
H208 H 0.8913 0.69174 0.13077 0.0
C209 C 0.19137 0.08016 0.47263 0.0
C210 C 0.1998 0.10087 0.44962 0.0
C211 C 0.24147 0.07572 0.48454 0.0
C212 C 0.3011 0.09091 0.47297 0.0
C213 C 0.30978 0.1113 0.44961 0.0
C214 C 0.25922 0.11687 0.43826 0.0
C215 C 0.23085 0.0556 0.50964 0.0
C216 C 0.37216 0.12668 0.4366 0.0
C217 C 0.44783 0.14303 0.51436 0.0
C218 C 0.44513 0.08241 0.51762 0.0
C219 C 0.40339 0.14708 0.49897 0.0
C220 C 0.35551 0.08936 0.48611 0.0
C221 C 0.35514 0.0289 0.48812 0.0
C222 C 0.39965 0.02593 0.50405 0.0
C223 C 0.40489 0.21229 0.49772 0.0
C224 C 0.30569 0.96665 0.47427 0.0
H225 H 0.14548 0.06787 0.48147 0.0
H226 H 0.26534 0.13193 0.42033 0.0
H227 H 0.23408 0.01027 0.51149 0.0
H228 H 0.27078 0.09568 0.52103 0.0
H229 H 0.18158 0.04549 0.51607 0.0
H230 H 0.36995 0.13895 0.4182 0.0
H231 H 0.41661 0.1693 0.44547 0.0
H232 H 0.37954 0.08339 0.43672 0.0
H233 H 0.48295 0.18725 0.52462 0.0
H234 H 0.39755 0.97909 0.5063 0.0
H235 H 0.3587 0.20711 0.50537 0.0
H236 H 0.40605 0.22573 0.4793 0.0
H237 H 0.44874 0.25381 0.50732 0.0
H238 H 0.25484 0.94766 0.48121 0.0
H239 H 0.31812 0.92677 0.47516 0.0
H240 H 0.30406 0.97771 0.4557 0.0
C241 C 0.19976 0.18999 0.78653 0.0
C242 C 0.17119 0.121 0.78769 0.0
C243 C 0.25492 0.23409 0.80092 0.0
C244 C 0.28134 0.2085 0.81709 0.0
C245 C 0.25252 0.13889 0.81838 0.0
C246 C 0.19811 0.09602 0.80356 0.0
C247 C 0.28468 0.30811 0.79891 0.0
C248 C 0.27838 0.10969 0.83571 0.0
C249 C 0.45509 0.32858 0.84307 0.0
C250 C 0.43886 0.35193 0.86335 0.0
C251 C 0.40423 0.28039 0.82798 0.0
C252 C 0.3362 0.25463 0.83369 0.0
C253 C 0.32016 0.27553 0.85492 0.0
C254 C 0.37169 0.32444 0.86933 0.0
C255 C 0.42313 0.25965 0.80539 0.0
C256 C 0.24849 0.24834 0.86197 0.0
H257 H 0.17964 0.20958 0.77413 0.0
H258 H 0.1762 0.04269 0.80457 0.0
H259 H 0.27852 0.33008 0.81553 0.0
H260 H 0.33915 0.33239 0.79582 0.0
H261 H 0.26091 0.31998 0.78453 0.0
H262 H 0.25183 0.0545 0.83398 0.0
H263 H 0.3326 0.12966 0.83333 0.0
H264 H 0.27228 0.12437 0.85376 0.0
H265 H 0.50712 0.35062 0.83839 0.0
H266 H 0.35941 0.34262 0.88513 0.0
H267 H 0.4065 0.27702 0.79046 0.0
H268 H 0.39741 0.20462 0.80344 0.0
H269 H 0.47795 0.28047 0.80432 0.0
H270 H 0.22318 0.26457 0.8497 0.0
H271 H 0.24485 0.26546 0.87995 0.0
H272 H 0.22078 0.19313 0.86099 0.0
C273 C 0.87348 0.05824 0.68652 0.0
C274 C 0.85335 0.03425 0.70892 0.0
C275 C 0.82736 0.05498 0.66994 0.0
C276 C 0.75928 0.02679 0.67583 0.0
C277 C 0.73848 0.00209 0.69834 0.0
C278 C 0.78581 0.00635 0.71466 0.0
C279 C 0.85169 0.08253 0.64619 0.0
C280 C 0.66633 0.97161 0.70524 0.0
C281 C 0.66482 0.0892 0.64146 0.0
C282 C 0.63225 0.03885 0.62392 0.0
C283 C 0.70419 0.08456 0.65891 0.0
C284 C 0.71127 0.02802 0.65895 0.0
C285 C 0.67603 0.9754 0.64198 0.0
C286 C 0.63672 0.98139 0.62462 0.0
C287 C 0.7406 0.14169 0.6767 0.0
C288 C 0.68212 0.91415 0.64161 0.0
H289 H 0.92548 0.07962 0.68189 0.0
H290 H 0.76963 0.98701 0.73183 0.0
H291 H 0.82271 0.04385 0.63229 0.0
H292 H 0.84349 0.12463 0.64351 0.0
H293 H 0.90569 0.10041 0.64404 0.0
H294 H 0.65758 0.95145 0.72297 0.0
H295 H 0.65122 0.00957 0.70489 0.0
H296 H 0.63338 0.93083 0.69251 0.0
H297 H 0.661 0.13349 0.64126 0.0
H298 H 0.61172 0.94237 0.61112 0.0
H299 H 0.79538 0.16558 0.67437 0.0
H300 H 0.72996 0.12323 0.69465 0.0
H301 H 0.7264 0.18014 0.67514 0.0
H302 H 0.73382 0.92782 0.63701 0.0
H303 H 0.64673 0.87512 0.62878 0.0
H304 H 0.6727 0.89306 0.65917 0.0
C305 C 0.86166 0.87063 0.02894 0.0
C306 C 0.93049 0.90527 0.02491 0.0
C307 C 0.81713 0.81693 0.01395 0.0
C308 C 0.84202 0.7988 0.99421 0.0
C309 C 0.91144 0.83428 0.98997 0.0
C310 C 0.95486 0.88653 0.00552 0.0
C311 C 0.74352 0.77954 0.01924 0.0
C312 C 0.93978 0.81782 0.96879 0.0
C313 C 0.73566 0.62877 0.96311 0.0
C314 C 0.70492 0.64396 0.94532 0.0
C315 C 0.78012 0.67859 0.97936 0.0
C316 C 0.79521 0.7451 0.97728 0.0
C317 C 0.76586 0.76077 0.95883 0.0
C318 C 0.72053 0.70992 0.94327 0.0
C319 C 0.80964 0.65989 0.99906 0.0
C320 C 0.78199 0.83124 0.95557 0.0
H321 H 0.84281 0.88457 0.04406 0.0
H322 H 0.00808 0.91346 0.00228 0.0
H323 H 0.71476 0.78526 0.00499 0.0
H324 H 0.72519 0.7256 0.02014 0.0
H325 H 0.73272 0.79736 0.03598 0.0
H326 H 0.99506 0.84995 0.96811 0.0
H327 H 0.92674 0.7651 0.96875 0.0
H328 H 0.9174 0.82396 0.95265 0.0
H329 H 0.72307 0.57767 0.96483 0.0
H330 H 0.69713 0.72184 0.9294 0.0
H331 H 0.79522 0.67258 0.01607 0.0
H332 H 0.86505 0.68884 0.99854 0.0
H333 H 0.79273 0.60602 0.99828 0.0
H334 H 0.76608 0.8493 0.971 0.0
H335 H 0.75696 0.83542 0.93974 0.0
H336 H 0.83682 0.86477 0.95412 0.0
C337 C 0.03483 0.91104 0.37231 0.0
C338 C 0.05505 0.97007 0.36083 0.0
C339 C 0.03487 0.85688 0.3608 0.0
C340 C 0.05418 0.86165 0.33717 0.0
C341 C 0.07351 0.92085 0.32546 0.0
C342 C 0.07432 0.97448 0.3375 0.0
C343 C 0.01485 0.79486 0.37392 0.0
C344 C 0.09282 0.92741 0.3001 0.0
C345 C 0.10585 0.7475 0.307 0.0
C346 C 0.04692 0.70244 0.29456 0.0
C347 C 0.10819 0.79786 0.32193 0.0
C348 C 0.05065 0.80376 0.32409 0.0
C349 C 0.99068 0.75729 0.31207 0.0
C350 C 0.98943 0.70706 0.29765 0.0
C351 C 0.17272 0.84596 0.33484 0.0
C352 C 0.92854 0.76243 0.31353 0.0
H353 H 0.02084 0.90788 0.39046 0.0
H354 H 0.0899 0.02006 0.32856 0.0
H355 H 0.96993 0.75181 0.36545 0.0
H356 H 0.05556 0.78326 0.37336 0.0
H357 H 0.00371 0.80002 0.39246 0.0
H358 H 0.10671 0.97691 0.29358 0.0
H359 H 0.13575 0.91966 0.29772 0.0
H360 H 0.05054 0.8885 0.28916 0.0
H361 H 0.15029 0.74403 0.30483 0.0
H362 H 0.94352 0.67263 0.28812 0.0
H363 H 0.16326 0.85033 0.35361 0.0
H364 H 0.19393 0.89612 0.32772 0.0
H365 H 0.21054 0.83048 0.3333 0.0
H366 H 0.91525 0.76411 0.33202 0.0
H367 H 0.88489 0.72012 0.30412 0.0
H368 H 0.93823 0.80936 0.30586 0.0
C369 C 0.18757 0.12646 0.66964 0.0
C370 C 0.16673 0.07877 0.68673 0.0
C371 C 0.24262 0.14109 0.65573 0.0
C372 C 0.27846 0.10804 0.65927 0.0
C373 C 0.2579 0.06004 0.67659 0.0
C374 C 0.20179 0.04548 0.68999 0.0
C375 C 0.26197 0.19138 0.63708 0.0
C376 C 0.29532 0.02424 0.68101 0.0
C377 C 0.37662 0.09122 0.60954 0.0
C378 C 0.44232 0.14143 0.61548 0.0
C379 C 0.32287 0.08091 0.62338 0.0
C380 C 0.33517 0.12102 0.64398 0.0
C381 C 0.40131 0.17268 0.64991 0.0
C382 C 0.45426 0.1828 0.6354 0.0
C383 C 0.253 0.02639 0.61611 0.0
C384 C 0.41628 0.2159 0.6719 0.0
H385 H 0.1605 0.15225 0.66702 0.0
H386 H 0.18633 0.00917 0.70337 0.0
H387 H 0.31453 0.23224 0.63997 0.0
H388 H 0.25887 0.16742 0.61968 0.0
H389 H 0.22931 0.21323 0.63674 0.0
H390 H 0.2749 0.9907 0.69585 0.0
H391 H 0.29268 0.99422 0.66516 0.0
H392 H 0.34897 0.06089 0.68477 0.0
H393 H 0.36719 0.05955 0.59399 0.0
H394 H 0.50511 0.22128 0.64008 0.0
H395 H 0.21945 0.04701 0.61492 0.0
H396 H 0.23246 0.98807 0.62945 0.0
H397 H 0.25169 0.0018 0.59899 0.0
H398 H 0.38646 0.24077 0.67192 0.0
H399 H 0.47013 0.25458 0.67383 0.0
H400 H 0.40156 0.18454 0.68735 0.0
C401 C 0.14262 0.1915 0.99752 0.0
C402 C 0.15551 0.18635 0.02102 0.0
C403 C 0.19027 0.24327 0.98432 0.0
C404 C 0.25196 0.29178 0.99498 0.0
C405 C 0.26487 0.28751 0.01882 0.0
C406 C 0.2167 0.23441 0.03152 0.0
C407 C 0.17519 0.24513 0.9588 0.0
C408 C 0.3298 0.3387 0.03083 0.0
C409 C 0.39893 0.37494 0.95492 0.0
C410 C 0.40198 0.4352 0.95062 0.0
C411 C 0.35098 0.32859 0.96952 0.0
C412 C 0.30519 0.34296 0.98053 0.0
C413 C 0.30876 0.40435 0.97684 0.0
C414 C 0.35683 0.44964 0.96168 0.0
C415 C 0.34816 0.26325 0.97258 0.0
C416 C 0.26127 0.42163 0.98863 0.0
H417 H 0.09532 0.15452 0.98935 0.0
H418 H 0.22645 0.23125 0.04978 0.0
H419 H 0.18075 0.29389 0.95509 0.0
H420 H 0.21153 0.23948 0.94788 0.0
H421 H 0.12385 0.20512 0.9534 0.0
H422 H 0.32993 0.33134 0.04987 0.0
H423 H 0.372 0.33598 0.02299 0.0
H424 H 0.33909 0.38951 0.02825 0.0
H425 H 0.43307 0.36277 0.94632 0.0
H426 H 0.35897 0.49607 0.95846 0.0
H427 H 0.29899 0.22138 0.96615 0.0
H428 H 0.35307 0.25617 0.99135 0.0
H429 H 0.38817 0.26027 0.96302 0.0
H430 H 0.20933 0.38636 0.98232 0.0
H431 H 0.27344 0.47306 0.98523 0.0
H432 H 0.26265 0.41663 0.00777 0.0
C433 C 0.92271 0.19083 0.36114 0.0
C434 C 0.98665 0.19839 0.36114 0.0
C435 C 0.9068 0.22843 0.34683 0.0
C436 C 0.95559 0.27385 0.33178 0.0
C437 C 0.01991 0.28087 0.33137 0.0
C438 C 0.03494 0.24355 0.34626 0.0
C439 C 0.83826 0.2206 0.34819 0.0
C440 C 0.07298 0.32813 0.31528 0.0
C441 C 0.90566 0.3376 0.27994 0.0
C442 C 0.92679 0.40278 0.28788 0.0
C443 C 0.91269 0.29398 0.29432 0.0
C444 C 0.94052 0.31619 0.31719 0.0
C445 C 0.95767 0.3807 0.32571 0.0
C446 C 0.95157 0.42358 0.31079 0.0
C447 C 0.89466 0.22593 0.28451 0.0
C448 C 0.98591 0.40578 0.35014 0.0
H449 H 0.88523 0.15633 0.37274 0.0
H450 H 0.08422 0.24922 0.3461 0.0
H451 H 0.84308 0.26868 0.35399 0.0
H452 H 0.81345 0.20689 0.33067 0.0
H453 H 0.80551 0.18209 0.36047 0.0
H454 H 0.11907 0.32505 0.3161 0.0
H455 H 0.0534 0.31711 0.29699 0.0
H456 H 0.08647 0.38001 0.32 0.0
H457 H 0.88817 0.32237 0.26198 0.0
H458 H 0.96887 0.47453 0.3167 0.0
H459 H 0.86224 0.18702 0.29668 0.0
H460 H 0.94088 0.22355 0.28249 0.0
H461 H 0.8685 0.21417 0.26723 0.0
H462 H 0.9541 0.36904 0.36304 0.0
H463 H 0.98989 0.4542 0.35486 0.0
H464 H 0.0365 0.41223 0.35158 0.0
loop_
_geom_bond_atom_site_label_1
_geom_bond_atom_site_label_2
_geom_bond_distance
_geom_bond_site_symmetry_2
_ccdc_geom_bond_type
C0 O1 1.160 . S
C0 O7 1.185 1_565 S
O1 C0 1.160 . S
O2 Zn3 1.899 . S
O2 C10 1.284 . S
Zn3 O2 1.899 . S
Zn3 O4 2.032 1_445 S
Zn3 O7 2.086 . S
Zn3 O12 1.977 . S
O4 Zn3 2.032 1_665 S
O4 C8 1.278 . S
C5 O6 1.203 . S
C5 O12 1.267 . S
O6 C5 1.203 . S
O7 C0 1.185 1_545 S
O7 Zn3 2.086 . S
C8 O4 1.278 . S
C8 O9 1.211 1_565 S
O9 C8 1.211 1_545 S
C10 O2 1.284 . S
C10 O11 1.273 1_455 S
O11 C10 1.273 1_655 S
O12 Zn3 1.977 . S
O12 C5 1.267 . S
C13 O14 1.160 . S
C13 O20 1.185 . S
O14 C13 1.160 . S
O15 Zn16 1.899 . S
O15 C23 1.284 1_545 S
Zn16 O15 1.899 . S
Zn16 O17 2.032 1_455 S
Zn16 O20 2.086 . S
Zn16 O25 1.977 . S
O17 Zn16 2.032 1_655 S
O17 C21 1.278 . S
C18 O19 1.203 . S
C18 O25 1.267 . S
O19 C18 1.203 . S
O20 C13 1.185 . S
O20 Zn16 2.086 . S
C21 O17 1.278 . S
C21 O22 1.211 . S
O22 C21 1.211 . S
C23 O15 1.284 1_565 S
C23 O24 1.273 1_455 S
O24 C23 1.273 1_655 S
O25 Zn16 1.977 . S
O25 C18 1.267 . S
C26 O27 1.160 . S
C26 O33 1.185 1_545 S
O27 C26 1.160 . S
O28 Zn29 1.899 1_655 S
O28 C36 1.284 . S
Zn29 O28 1.899 1_455 S
Zn29 O30 2.032 . S
Zn29 O33 2.086 1_545 S
Zn29 O38 1.977 1_445 S
O30 Zn29 2.032 . S
O30 C34 1.278 . S
C31 O32 1.203 . S
C31 O38 1.267 . S
O32 C31 1.203 . S
O33 C26 1.185 1_565 S
O33 Zn29 2.086 1_565 S
C34 O30 1.278 . S
C34 O35 1.211 . S
O35 C34 1.211 . S
C36 O28 1.284 . S
C36 O37 1.273 . S
O37 C36 1.273 . S
O38 Zn29 1.977 1_665 S
O38 C31 1.267 . S
C39 O41 1.247 . S
C39 O43 1.258 1_455 S
C40 O47 1.247 1_455 S
C40 O48 1.258 . S
O41 C39 1.247 . S
O41 Zn42 2.028 . S
Zn42 O41 2.028 . S
Zn42 O46 2.035 . S
Zn42 O48 2.035 . S
Zn42 O49 2.028 . S
O43 C39 1.258 1_655 S
O43 Zn44 2.035 . S
Zn44 O43 2.035 . S
Zn44 O45 2.028 . S
Zn44 O47 2.028 . S
Zn44 O50 2.035 . S
O45 Zn44 2.028 . S
O45 C51 1.247 1_655 S
O46 Zn42 2.035 . S
O46 C51 1.258 . S
O47 C40 1.247 1_655 S
O47 Zn44 2.028 . S
O48 C40 1.258 . S
O48 Zn42 2.035 . S
O49 Zn42 2.028 . S
O49 C52 1.247 . S
O50 Zn44 2.035 . S
O50 C52 1.258 1_655 S
C51 O45 1.247 1_455 S
C51 O46 1.258 . S
C52 O49 1.247 . S
C52 O50 1.258 1_455 S
C53 O55 1.247 1_545 S
C53 O57 1.258 . S
C54 O61 1.247 . S
C54 O62 1.258 1_545 S
O55 C53 1.247 1_565 S
O55 Zn56 2.028 . S
Zn56 O55 2.028 . S
Zn56 O60 2.035 . S
Zn56 O62 2.035 . S
Zn56 O63 2.028 . S
O57 C53 1.258 . S
O57 Zn58 2.035 . S
Zn58 O57 2.035 . S
Zn58 O59 2.028 . S
Zn58 O61 2.028 . S
Zn58 O64 2.035 . S
O59 Zn58 2.028 . S
O59 C65 1.247 . S
O60 Zn56 2.035 . S
O60 C65 1.258 1_565 S
O61 C54 1.247 . S
O61 Zn58 2.028 . S
O62 C54 1.258 1_565 S
O62 Zn56 2.035 . S
O63 Zn56 2.028 . S
O63 C66 1.247 1_565 S
O64 Zn58 2.035 . S
O64 C66 1.258 . S
C65 O59 1.247 . S
C65 O60 1.258 1_545 S
C66 O63 1.247 1_545 S
C66 O64 1.258 . S
C67 O69 1.247 . S
C67 O71 1.258 . S
C68 O75 1.247 . S
C68 O76 1.258 . S
O69 C67 1.247 . S
O69 Zn70 2.028 . S
Zn70 O69 2.028 . S
Zn70 O74 2.035 . S
Zn70 O76 2.035 . S
Zn70 O77 2.028 . S
O71 C67 1.258 . S
O71 Zn72 2.035 . S
Zn72 O71 2.035 . S
Zn72 O73 2.028 . S
Zn72 O75 2.028 . S
Zn72 O78 2.035 . S
O73 Zn72 2.028 . S
O73 C79 1.247 . S
O74 Zn70 2.035 . S
O74 C79 1.258 . S
O75 C68 1.247 . S
O75 Zn72 2.028 . S
O76 C68 1.258 . S
O76 Zn70 2.035 . S
O77 Zn70 2.028 . S
O77 C80 1.247 . S
O78 Zn72 2.035 . S
O78 C80 1.258 . S
C79 O73 1.247 . S
C79 O74 1.258 . S
C80 O77 1.247 . S
C80 O78 1.258 . S
C81 C82 1.391 . S
C81 C83 1.394 1_455 S
C81 H97 0.931 . S
C82 C81 1.391 . S
C82 C86 1.376 . S
C83 C81 1.394 1_655 S
C83 C84 1.370 . S
C83 C87 1.531 . S
C84 C83 1.370 . S
C84 C85 1.403 1_655 S
C84 C92 1.509 1_655 S
C85 C84 1.403 1_455 S
C85 C86 1.391 . S
C85 C88 1.511 1_455 S
C86 C82 1.376 . S
C86 C85 1.391 . S
C86 H98 0.929 . S
C87 C83 1.531 . S
C87 H99 0.960 . S
C87 H100 0.962 1_655 S
C87 H101 0.960 . S
C88 C85 1.511 1_655 S
C88 H102 0.961 1_655 S
C88 H103 0.961 1_655 S
C88 H104 0.961 . S
C89 C90 1.370 . S
C89 C91 1.363 . S
C89 H105 0.931 . S
C90 C89 1.370 . S
C90 C94 1.408 1_455 S
C91 C89 1.363 . S
C91 C92 1.370 . S
C91 C95 1.524 . S
C92 C84 1.509 1_455 S
C92 C91 1.370 . S
C92 C93 1.403 1_455 S
C93 C92 1.403 1_655 S
C93 C94 1.404 . S
C93 C96 1.539 . S
C94 C90 1.408 1_655 S
C94 C93 1.404 . S
C94 H106 0.930 . S
C95 C91 1.524 . S
C95 H107 0.956 . S
C95 H108 0.961 . S
C95 H109 0.961 . S
C96 C93 1.539 . S
C96 H110 0.958 . S
C96 H111 0.961 . S
C96 H112 0.960 . S
H97 C81 0.931 . S
H98 C86 0.929 . S
H99 C87 0.960 . S
H100 C87 0.962 1_455 S
H101 C87 0.960 . S
H102 C88 0.961 1_455 S
H103 C88 0.961 1_455 S
H104 C88 0.961 . S
H105 C89 0.931 . S
H106 C94 0.930 . S
H107 C95 0.956 . S
H108 C95 0.961 . S
H109 C95 0.961 . S
H110 C96 0.958 . S
H111 C96 0.961 . S
H112 C96 0.960 . S
C113 C114 1.391 . S
C113 C115 1.394 . S
C113 H129 0.931 . S
C114 C113 1.391 . S
C114 C118 1.376 1_545 S
C115 C113 1.394 . S
C115 C116 1.369 . S
C115 C119 1.531 . S
C116 C115 1.369 . S
C116 C117 1.410 1_545 S
C116 C124 1.503 . S
C117 C116 1.410 1_565 S
C117 C118 1.392 . S
C117 C120 1.511 . S
C118 C114 1.376 1_565 S
C118 C117 1.392 . S
C118 H130 0.929 . S
C119 C115 1.531 . S
C119 H131 0.960 . S
C119 H132 0.962 . S
C119 H133 0.960 . S
C120 C117 1.511 . S
C120 H134 0.961 . S
C120 H135 0.961 . S
C120 H136 0.961 . S
C121 C122 1.370 . S
C121 C123 1.363 . S
C121 H137 0.931 . S
C122 C121 1.370 . S
C122 C126 1.408 . S
C123 C121 1.363 . S
C123 C124 1.370 . S
C123 C127 1.524 . S
C124 C116 1.503 . S
C124 C123 1.370 . S
C124 C125 1.403 . S
C125 C124 1.403 . S
C125 C126 1.404 . S
C125 C128 1.539 . S
C126 C122 1.408 . S
C126 C125 1.404 . S
C126 H138 0.930 . S
C127 C123 1.524 . S
C127 H139 0.956 . S
C127 H140 0.961 . S
C127 H141 0.961 . S
C128 C125 1.539 . S
C128 H142 0.958 . S
C128 H143 0.961 . S
C128 H144 0.960 . S
H129 C113 0.931 . S
H130 C118 0.929 . S
H131 C119 0.960 . S
H132 C119 0.962 . S
H133 C119 0.960 . S
H134 C120 0.961 . S
H135 C120 0.961 . S
H136 C120 0.961 . S
H137 C121 0.931 . S
H138 C126 0.930 . S
H139 C127 0.956 . S
H140 C127 0.961 . S
H141 C127 0.961 . S
H142 C128 0.958 . S
H143 C128 0.961 . S
H144 C128 0.960 . S
C145 C146 1.391 . S
C145 C147 1.394 . S
C145 H161 0.931 . S
C146 C145 1.391 . S
C146 C150 1.376 . S
C147 C145 1.394 . S
C147 C148 1.369 . S
C147 C151 1.531 . S
C148 C147 1.369 . S
C148 C149 1.410 . S
C148 C156 1.503 . S
C149 C148 1.410 . S
C149 C150 1.392 . S
C149 C152 1.511 . S
C150 C146 1.376 . S
C150 C149 1.392 . S
C150 H162 0.929 . S
C151 C147 1.531 . S
C151 H163 0.960 . S
C151 H164 0.962 . S
C151 H165 0.960 . S
C152 C149 1.511 . S
C152 H166 0.961 . S
C152 H167 0.961 . S
C152 H168 0.961 . S
C153 C154 1.370 . S
C153 C155 1.363 . S
C153 H169 0.931 . S
C154 C153 1.370 . S
C154 C158 1.408 . S
C155 C153 1.363 . S
C155 C156 1.370 . S
C155 C159 1.524 . S
C156 C148 1.503 . S
C156 C155 1.370 . S
C156 C157 1.403 . S
C157 C156 1.403 . S
C157 C158 1.404 . S
C157 C160 1.539 . S
C158 C154 1.408 . S
C158 C157 1.404 . S
C158 H170 0.930 . S
C159 C155 1.524 . S
C159 H171 0.956 . S
C159 H172 0.961 . S
C159 H173 0.961 . S
C160 C157 1.539 . S
C160 H174 0.958 . S
C160 H175 0.961 . S
C160 H176 0.960 . S
H161 C145 0.931 . S
H162 C150 0.929 . S
H163 C151 0.960 . S
H164 C151 0.962 . S
H165 C151 0.960 . S
H166 C152 0.961 . S
H167 C152 0.961 . S
H168 C152 0.961 . S
H169 C153 0.931 . S
H170 C158 0.930 . S
H171 C159 0.956 . S
H172 C159 0.961 . S
H173 C159 0.961 . S
H174 C160 0.958 . S
H175 C160 0.961 . S
H176 C160 0.960 . S
C177 C178 1.391 . S
C177 C179 1.394 . S
C177 H193 0.931 1_455 S
C178 C177 1.391 . S
C178 C182 1.376 . S
C179 C177 1.394 . S
C179 C180 1.369 . S
C179 C183 1.531 1_455 S
C180 C179 1.369 . S
C180 C181 1.410 . S
C180 C188 1.503 . S
C181 C180 1.410 . S
C181 C182 1.392 . S
C181 C184 1.511 . S
C182 C178 1.376 . S
C182 C181 1.392 . S
C182 H194 0.929 . S
C183 C179 1.531 1_655 S
C183 H195 0.960 . S
C183 H196 0.962 . S
C183 H197 0.960 . S
C184 C181 1.511 . S
C184 H198 0.961 . S
C184 H199 0.961 . S
C184 H200 0.961 . S
C185 C186 1.370 . S
C185 C187 1.363 . S
C185 H201 0.931 . S
C186 C185 1.370 . S
C186 C190 1.408 1_455 S
C187 C185 1.363 . S
C187 C188 1.370 . S
C187 C191 1.524 . S
C188 C180 1.503 . S
C188 C187 1.370 . S
C188 C189 1.403 1_455 S
C189 C188 1.403 1_655 S
C189 C190 1.404 . S
C189 C192 1.539 . S
C190 C186 1.408 1_655 S
C190 C189 1.404 . S
C190 H202 0.930 . S
C191 C187 1.524 . S
C191 H203 0.956 . S
C191 H204 0.961 . S
C191 H205 0.961 . S
C192 C189 1.539 . S
C192 H206 0.958 . S
C192 H207 0.961 . S
C192 H208 0.960 . S
H193 C177 0.931 1_655 S
H194 C182 0.929 . S
H195 C183 0.960 . S
H196 C183 0.962 . S
H197 C183 0.960 . S
H198 C184 0.961 . S
H199 C184 0.961 . S
H200 C184 0.961 . S
H201 C185 0.931 . S
H202 C190 0.930 . S
H203 C191 0.956 . S
H204 C191 0.961 . S
H205 C191 0.961 . S
H206 C192 0.958 . S
H207 C192 0.961 . S
H208 C192 0.960 . S
C209 C210 1.391 . S
C209 C211 1.394 . S
C209 H225 0.931 . S
C210 C209 1.391 . S
C210 C214 1.376 . S
C211 C209 1.394 . S
C211 C212 1.369 . S
C211 C215 1.531 . S
C212 C211 1.369 . S
C212 C213 1.410 . S
C212 C220 1.503 . S
C213 C212 1.410 . S
C213 C214 1.392 . S
C213 C216 1.511 . S
C214 C210 1.376 . S
C214 C213 1.392 . S
C214 H226 0.929 . S
C215 C211 1.531 . S
C215 H227 0.960 . S
C215 H228 0.962 . S
C215 H229 0.960 . S
C216 C213 1.511 . S
C216 H230 0.961 . S
C216 H231 0.961 . S
C216 H232 0.961 . S
C217 C218 1.370 . S
C217 C219 1.363 . S
C217 H233 0.931 . S
C218 C217 1.370 . S
C218 C222 1.408 1_545 S
C219 C217 1.363 . S
C219 C220 1.370 . S
C219 C223 1.524 . S
C220 C212 1.503 . S
C220 C219 1.370 . S
C220 C221 1.403 . S
C221 C220 1.403 . S
C221 C222 1.404 1_545 S
C221 C224 1.539 1_545 S
C222 C218 1.408 1_565 S
C222 C221 1.404 1_565 S
C222 H234 0.930 . S
C223 C219 1.524 . S
C223 H235 0.956 . S
C223 H236 0.961 . S
C223 H237 0.961 . S
C224 C221 1.539 1_565 S
C224 H238 0.958 . S
C224 H239 0.961 . S
C224 H240 0.960 . S
H225 C209 0.931 . S
H226 C214 0.929 . S
H227 C215 0.960 . S
H228 C215 0.962 . S
H229 C215 0.960 . S
H230 C216 0.961 . S
H231 C216 0.961 . S
H232 C216 0.961 . S
H233 C217 0.931 . S
H234 C222 0.930 . S
H235 C223 0.956 . S
H236 C223 0.961 . S
H237 C223 0.961 . S
H238 C224 0.958 . S
H239 C224 0.961 . S
H240 C224 0.960 . S
C241 C242 1.391 . S
C241 C243 1.394 . S
C241 H257 0.931 . S
C242 C241 1.391 . S
C242 C246 1.376 . S
C243 C241 1.394 . S
C243 C244 1.369 . S
C243 C247 1.531 . S
C244 C243 1.369 . S
C244 C245 1.410 . S
C244 C252 1.503 . S
C245 C244 1.410 . S
C245 C246 1.392 . S
C245 C248 1.511 . S
C246 C242 1.376 . S
C246 C245 1.392 . S
C246 H258 0.929 . S
C247 C243 1.531 . S
C247 H259 0.960 . S
C247 H260 0.962 . S
C247 H261 0.960 . S
C248 C245 1.511 . S
C248 H262 0.961 . S
C248 H263 0.961 . S
C248 H264 0.961 . S
C249 C250 1.370 . S
C249 C251 1.363 . S
C249 H265 0.931 . S
C250 C249 1.370 . S
C250 C254 1.408 . S
C251 C249 1.363 . S
C251 C252 1.370 . S
C251 C255 1.524 . S
C252 C244 1.503 . S
C252 C251 1.370 . S
C252 C253 1.403 . S
C253 C252 1.403 . S
C253 C254 1.404 . S
C253 C256 1.539 . S
C254 C250 1.408 . S
C254 C253 1.404 . S
C254 H266 0.930 . S
C255 C251 1.524 . S
C255 H267 0.956 . S
C255 H268 0.961 . S
C255 H269 0.961 . S
C256 C253 1.539 . S
C256 H270 0.958 . S
C256 H271 0.961 . S
C256 H272 0.960 . S
H257 C241 0.931 . S
H258 C246 0.929 . S
H259 C247 0.960 . S
H260 C247 0.962 . S
H261 C247 0.960 . S
H262 C248 0.961 . S
H263 C248 0.961 . S
H264 C248 0.961 . S
H265 C249 0.931 . S
H266 C254 0.930 . S
H267 C255 0.956 . S
H268 C255 0.961 . S
H269 C255 0.961 . S
H270 C256 0.958 . S
H271 C256 0.961 . S
H272 C256 0.960 . S
C273 C274 1.391 . S
C273 C275 1.394 . S
C273 H289 0.931 . S
C274 C273 1.391 . S
C274 C278 1.376 . S
C275 C273 1.394 . S
C275 C276 1.369 . S
C275 C279 1.531 . S
C276 C275 1.369 . S
C276 C277 1.410 . S
C276 C284 1.503 . S
C277 C276 1.410 . S
C277 C278 1.392 . S
C277 C280 1.510 . S
C278 C274 1.376 . S
C278 C277 1.392 . S
C278 H290 0.929 . S
C279 C275 1.531 . S
C279 H291 0.960 . S
C279 H292 0.962 . S
C279 H293 0.960 . S
C280 C277 1.510 . S
C280 H294 0.963 . S
C280 H295 0.969 . S
C280 H296 0.951 1_545 S
C281 C282 1.370 . S
C281 C283 1.363 . S
C281 H297 0.931 . S
C282 C281 1.370 . S
C282 C286 1.408 1_545 S
C283 C281 1.363 . S
C283 C284 1.370 . S
C283 C287 1.524 . S
C284 C276 1.503 . S
C284 C283 1.370 . S
C284 C285 1.403 1_545 S
C285 C284 1.403 1_565 S
C285 C286 1.404 . S
C285 C288 1.539 . S
C286 C282 1.408 1_565 S
C286 C285 1.404 . S
C286 H298 0.930 . S
C287 C283 1.524 . S
C287 H299 0.956 . S
C287 H300 0.961 . S
C287 H301 0.961 . S
C288 C285 1.539 . S
C288 H302 0.958 . S
C288 H303 0.961 . S
C288 H304 0.960 . S
H289 C273 0.931 . S
H290 C278 0.929 . S
H291 C279 0.960 . S
H292 C279 0.962 . S
H293 C279 0.960 . S
H294 C280 0.963 . S
H295 C280 0.969 . S
H296 C280 0.951 1_565 S
H297 C281 0.931 . S
H298 C286 0.930 . S
H299 C287 0.956 . S
H300 C287 0.961 . S
H301 C287 0.961 . S
H302 C288 0.958 . S
H303 C288 0.961 . S
H304 C288 0.960 . S
C305 C306 1.391 . S
C305 C307 1.394 . S
C305 H321 0.931 . S
C306 C305 1.391 . S
C306 C310 1.376 . S
C307 C305 1.394 . S
C307 C308 1.369 . S
C307 C311 1.531 . S
C308 C307 1.369 . S
C308 C309 1.410 . S
C308 C316 1.503 1_554 S
C309 C308 1.410 . S
C309 C310 1.392 . S
C309 C312 1.511 1_554 S
C310 C306 1.376 . S
C310 C309 1.392 . S
C310 H322 0.929 1_565 S
C311 C307 1.531 . S
C311 H323 0.960 . S
C311 H324 0.962 . S
C311 H325 0.960 . S
C312 C309 1.511 1_556 S
C312 H326 0.961 . S
C312 H327 0.961 . S
C312 H328 0.961 . S
C313 C314 1.370 . S
C313 C315 1.363 . S
C313 H329 0.931 . S
C314 C313 1.370 . S
C314 C318 1.408 . S
C315 C313 1.363 . S
C315 C316 1.370 . S
C315 C319 1.524 . S
C316 C308 1.503 1_556 S
C316 C315 1.370 . S
C316 C317 1.403 . S
C317 C316 1.403 . S
C317 C318 1.404 . S
C317 C320 1.539 1_556 S
C318 C314 1.408 . S
C318 C317 1.404 . S
C318 H330 0.930 . S
C319 C315 1.524 . S
C319 H331 0.956 . S
C319 H332 0.961 . S
C319 H333 0.961 . S
C320 C317 1.539 1_554 S
C320 H334 0.958 . S
C320 H335 0.961 . S
C320 H336 0.960 . S
H321 C305 0.931 . S
H322 C310 0.929 1_545 S
H323 C311 0.960 . S
H324 C311 0.962 . S
H325 C311 0.960 . S
H326 C312 0.961 . S
H327 C312 0.961 . S
H328 C312 0.961 . S
H329 C313 0.931 . S
H330 C318 0.930 . S
H331 C319 0.956 . S
H332 C319 0.961 . S
H333 C319 0.961 . S
H334 C320 0.958 . S
H335 C320 0.961 . S
H336 C320 0.960 . S
C337 C338 1.391 . S
C337 C339 1.394 . S
C337 H353 0.931 . S
C338 C337 1.391 . S
C338 C342 1.376 1_455 S
C339 C337 1.394 . S
C339 C340 1.369 . S
C339 C343 1.531 . S
C340 C339 1.369 . S
C340 C341 1.410 1_455 S
C340 C348 1.503 . S
C341 C340 1.410 1_655 S
C341 C342 1.392 . S
C341 C344 1.511 . S
C342 C338 1.376 1_655 S
C342 C341 1.392 . S
C342 H354 0.929 . S
C343 C339 1.531 . S
C343 H355 0.960 . S
C343 H356 0.962 . S
C343 H357 0.960 . S
C344 C341 1.511 . S
C344 H358 0.961 . S
C344 H359 0.961 . S
C344 H360 0.961 . S
C345 C346 1.370 . S
C345 C347 1.363 . S
C345 H361 0.931 . S
C346 C345 1.370 . S
C346 C350 1.408 1_455 S
C347 C345 1.363 . S
C347 C348 1.370 . S
C347 C351 1.524 . S
C348 C340 1.503 . S
C348 C347 1.370 . S
C348 C349 1.403 1_455 S
C349 C348 1.403 1_655 S
C349 C350 1.404 . S
C349 C352 1.539 . S
C350 C346 1.408 1_655 S
C350 C349 1.404 . S
C350 H362 0.930 . S
C351 C347 1.524 . S
C351 H363 0.956 . S
C351 H364 0.961 . S
C351 H365 0.961 . S
C352 C349 1.539 . S
C352 H366 0.958 . S
C352 H367 0.961 . S
C352 H368 0.960 . S
H353 C337 0.931 . S
H354 C342 0.929 . S
H355 C343 0.960 . S
H356 C343 0.962 . S
H357 C343 0.960 . S
H358 C344 0.961 . S
H359 C344 0.961 . S
H360 C344 0.961 . S
H361 C345 0.931 . S
H362 C350 0.930 . S
H363 C351 0.956 . S
H364 C351 0.961 . S
H365 C351 0.961 . S
H366 C352 0.958 . S
H367 C352 0.961 . S
H368 C352 0.960 . S
C369 C370 1.391 . S
C369 C371 1.394 . S
C369 H385 0.931 . S
C370 C369 1.391 . S
C370 C374 1.376 . S
C371 C369 1.394 . S
C371 C372 1.369 . S
C371 C375 1.531 . S
C372 C371 1.369 . S
C372 C373 1.410 . S
C372 C380 1.503 . S
C373 C372 1.410 . S
C373 C374 1.392 . S
C373 C376 1.511 . S
C374 C370 1.376 . S
C374 C373 1.392 . S
C374 H386 0.929 1_545 S
C375 C371 1.531 . S
C375 H387 0.960 . S
C375 H388 0.962 . S
C375 H389 0.960 . S
C376 C373 1.511 . S
C376 H390 0.961 1_545 S
C376 H391 0.961 1_545 S
C376 H392 0.961 . S
C377 C378 1.370 1_565 S
C377 C379 1.363 . S
C377 H393 0.931 . S
C378 C377 1.370 1_545 S
C378 C382 1.408 . S
C379 C377 1.363 . S
C379 C380 1.370 1_565 S
C379 C383 1.524 . S
C380 C372 1.503 . S
C380 C379 1.370 1_545 S
C380 C381 1.403 . S
C381 C380 1.403 . S
C381 C382 1.404 . S
C381 C384 1.539 . S
C382 C378 1.408 . S
C382 C381 1.404 . S
C382 H394 0.930 . S
C383 C379 1.524 . S
C383 H395 0.956 . S
C383 H396 0.961 . S
C383 H397 0.961 . S
C384 C381 1.539 . S
C384 H398 0.958 . S
C384 H399 0.961 . S
C384 H400 0.960 . S
H385 C369 0.931 . S
H386 C374 0.929 1_565 S
H387 C375 0.960 . S
H388 C375 0.962 . S
H389 C375 0.960 . S
H390 C376 0.961 1_565 S
H391 C376 0.961 1_565 S
H392 C376 0.961 . S
H393 C377 0.931 . S
H394 C382 0.930 . S
H395 C383 0.956 . S
H396 C383 0.961 . S
H397 C383 0.961 . S
H398 C384 0.958 . S
H399 C384 0.961 . S
H400 C384 0.960 . S
C401 C402 1.391 . S
C401 C403 1.394 . S
C401 H417 0.931 . S
C402 C401 1.391 . S
C402 C406 1.376 . S
C403 C401 1.394 . S
C403 C404 1.369 . S
C403 C407 1.531 1_554 S
C404 C403 1.369 . S
C404 C405 1.410 . S
C404 C412 1.503 1_554 S
C405 C404 1.410 . S
C405 C406 1.392 . S
C405 C408 1.511 . S
C406 C402 1.376 . S
C406 C405 1.392 . S
C406 H418 0.929 . S
C407 C403 1.531 1_556 S
C407 H419 0.960 . S
C407 H420 0.962 . S
C407 H421 0.960 . S
C408 C405 1.511 . S
C408 H422 0.961 . S
C408 H423 0.961 . S
C408 H424 0.961 . S
C409 C410 1.370 . S
C409 C411 1.363 . S
C409 H425 0.931 . S
C410 C409 1.370 . S
C410 C414 1.408 . S
C411 C409 1.363 . S
C411 C412 1.370 . S
C411 C415 1.524 . S
C412 C404 1.503 1_556 S
C412 C411 1.370 . S
C412 C413 1.403 . S
C413 C412 1.403 . S
C413 C414 1.404 . S
C413 C416 1.539 1_556 S
C414 C410 1.408 . S
C414 C413 1.404 . S
C414 H426 0.930 . S
C415 C411 1.524 . S
C415 H427 0.956 . S
C415 H428 0.961 . S
C415 H429 0.961 . S
C416 C413 1.539 1_554 S
C416 H430 0.958 . S
C416 H431 0.961 . S
C416 H432 0.960 . S
H417 C401 0.931 . S
H418 C406 0.929 . S
H419 C407 0.960 . S
H420 C407 0.962 . S
H421 C407 0.960 . S
H422 C408 0.961 . S
H423 C408 0.961 . S
H424 C408 0.961 . S
H425 C409 0.931 . S
H426 C414 0.930 . S
H427 C415 0.956 . S
H428 C415 0.961 . S
H429 C415 0.961 . S
H430 C416 0.958 . S
H431 C416 0.961 . S
H432 C416 0.960 . S
C433 C434 1.391 . S
C433 C435 1.394 . S
C433 H449 0.931 1_455 S
C434 C433 1.391 . S
C434 C438 1.376 . S
C435 C433 1.394 . S
C435 C436 1.369 . S
C435 C439 1.531 1_455 S
C436 C435 1.369 . S
C436 C437 1.410 . S
C436 C444 1.503 . S
C437 C436 1.410 . S
C437 C438 1.392 . S
C437 C440 1.511 . S
C438 C434 1.376 . S
C438 C437 1.392 . S
C438 H450 0.929 . S
C439 C435 1.531 1_655 S
C439 H451 0.960 . S
C439 H452 0.962 . S
C439 H453 0.960 . S
C440 C437 1.511 . S
C440 H454 0.961 . S
C440 H455 0.961 . S
C440 H456 0.961 . S
C441 C442 1.370 . S
C441 C443 1.363 . S
C441 H457 0.931 . S
C442 C441 1.370 . S
C442 C446 1.408 . S
C443 C441 1.363 . S
C443 C444 1.370 . S
C443 C447 1.524 . S
C444 C436 1.503 . S
C444 C443 1.370 . S
C444 C445 1.403 . S
C445 C444 1.403 . S
C445 C446 1.404 . S
C445 C448 1.539 . S
C446 C442 1.408 . S
C446 C445 1.404 . S
C446 H458 0.930 . S
C447 C443 1.524 . S
C447 H459 0.956 . S
C447 H460 0.961 . S
C447 H461 0.961 . S
C448 C445 1.539 . S
C448 H462 0.958 . S
C448 H463 0.961 . S
C448 H464 0.960 . S
H449 C433 0.931 1_655 S
H450 C438 0.929 . S
H451 C439 0.960 . S
H452 C439 0.962 . S
H453 C439 0.960 . S
H454 C440 0.961 . S
H455 C440 0.961 . S
H456 C440 0.961 . S
H457 C441 0.931 . S
H458 C446 0.930 . S
H459 C447 0.956 . S
H460 C447 0.961 . S
H461 C447 0.961 . S
H462 C448 0.958 . S
H463 C448 0.961 . S
H464 C448 0.960 . S
C90 C40 1.406 . S
C82 C10 1.401 . S
C114 C21 1.444 . S
C122 C66 1.457 . S
C146 C31 1.337 . S
C154 C68 1.434 . S
C178 C0 1.368 . S
C186 C52 1.415 . S
C218 C54 1.431 . S
C210 C18 1.320 . S
C242 C34 1.380 . S
C250 C80 1.415 . S
C282 C53 1.405 . S
C274 C36 1.403 . S
C306 C8 1.402 . S
C314 C79 1.413 . S
C346 C39 1.409 . S
C338 C23 1.404 . S
C378 C65 1.364 . S
C370 C26 1.303 . S
C410 C67 1.431 . S
C402 C5 1.343 . S
C434 C13 1.394 . S
C442 C51 1.419 . S
