# Generated by pormake.
# Topology zzz, (3,6)-cn, num edge types: 1
# Building blocks:
#     Node 0, Type 0, BuildingBlock: WUSLED_clean_sbu_0, # of connection points: 3
#     Node 1, Type 0, BuildingBlock: WUSLED_clean_sbu_0, # of connection points: 3
#     Node 2, Type 0, BuildingBlock: WUSLED_clean_sbu_0, # of connection points: 3
#     Node 3, Type 0, BuildingBlock: WUSLED_clean_sbu_0, # of connection points: 3
#     Node 4, Type 0, BuildingBlock: WUSLED_clean_sbu_0, # of connection points: 3
#     Node 5, Type 0, BuildingBlock: WUSLED_clean_sbu_0, # of connection points: 3
#     Node 6, Type 0, BuildingBlock: WUSLED_clean_sbu_0, # of connection points: 3
#     Node 7, Type 0, BuildingBlock: WUSLED_clean_sbu_0, # of connection points: 3
#     Node 8, Type 1, BuildingBlock: KUMJIN_clean_sbu_1, # of connection points: 6
#     Node 9, Type 1, BuildingBlock: KUMJIN_clean_sbu_1, # of connection points: 6
#     Node 10, Type 1, BuildingBlock: KUMJIN_clean_sbu_1, # of connection points: 6
#     Node 11, Type 1, BuildingBlock: KUMJIN_clean_sbu_1, # of connection points: 6
#     Edge 12, Type (0, 1), BuildingBlock: TEMPAE_clean_linker_10, # of connection points: 2
#     Edge 13, Type (0, 1), BuildingBlock: TEMPAE_clean_linker_10, # of connection points: 2
#     Edge 14, Type (0, 1), BuildingBlock: TEMPAE_clean_linker_10, # of connection points: 2
#     Edge 15, Type (0, 1), BuildingBlock: TEMPAE_clean_linker_10, # of connection points: 2
#     Edge 16, Type (0, 1), BuildingBlock: TEMPAE_clean_linker_10, # of connection points: 2
#     Edge 17, Type (0, 1), BuildingBlock: TEMPAE_clean_linker_10, # of connection points: 2
#     Edge 18, Type (0, 1), BuildingBlock: TEMPAE_clean_linker_10, # of connection points: 2
#     Edge 19, Type (0, 1), BuildingBlock: TEMPAE_clean_linker_10, # of connection points: 2
#     Edge 20, Type (0, 1), BuildingBlock: TEMPAE_clean_linker_10, # of connection points: 2
#     Edge 21, Type (0, 1), BuildingBlock: TEMPAE_clean_linker_10, # of connection points: 2
#     Edge 22, Type (0, 1), BuildingBlock: TEMPAE_clean_linker_10, # of connection points: 2
#     Edge 23, Type (0, 1), BuildingBlock: TEMPAE_clean_linker_10, # of connection points: 2
#     Edge 24, Type (0, 1), BuildingBlock: TEMPAE_clean_linker_10, # of connection points: 2
#     Edge 25, Type (0, 1), BuildingBlock: TEMPAE_clean_linker_10, # of connection points: 2
#     Edge 26, Type (0, 1), BuildingBlock: TEMPAE_clean_linker_10, # of connection points: 2
#     Edge 27, Type (0, 1), BuildingBlock: TEMPAE_clean_linker_10, # of connection points: 2
#     Edge 28, Type (0, 1), BuildingBlock: TEMPAE_clean_linker_10, # of connection points: 2
#     Edge 29, Type (0, 1), BuildingBlock: TEMPAE_clean_linker_10, # of connection points: 2
#     Edge 30, Type (0, 1), BuildingBlock: TEMPAE_clean_linker_10, # of connection points: 2
#     Edge 31, Type (0, 1), BuildingBlock: TEMPAE_clean_linker_10, # of connection points: 2
#     Edge 32, Type (0, 1), BuildingBlock: TEMPAE_clean_linker_10, # of connection points: 2
#     Edge 33, Type (0, 1), BuildingBlock: TEMPAE_clean_linker_10, # of connection points: 2
#     Edge 34, Type (0, 1), BuildingBlock: TEMPAE_clean_linker_10, # of connection points: 2
#     Edge 35, Type (0, 1), BuildingBlock: TEMPAE_clean_linker_10, # of connection points: 2
# Relax obj value: 0.286
# Max RMSD: 0.199
# Mean RMSD: 0.174
data_MOF--net-zzz--node1-WUSLED_clean_sbu_0--node2-KUMJIN_clean_sbu_1--edge1-TEMPAE_clean_linker_10
_symmetry_space_group_name_H-M    P1
_symmetry_Int_Tables_number       1
_symmetry_cell_setting            triclinic
loop_
_symmetry_equiv_pos_as_xyz
'x, y, z'
_cell_length_a     61.486635
_cell_length_b     61.482888
_cell_length_c     22.670084
_cell_angle_alpha  90.194929
_cell_angle_beta   89.925571
_cell_angle_gamma 90.287416
loop_
_atom_site_label
_atom_site_type_symbol
_atom_site_fract_x
_atom_site_fract_y
_atom_site_fract_z
_atom_type_partial_charge
C0 C 0.79087 0.53104 0.33044 0.0
C1 C 0.80354 0.51201 0.33021 0.0
C2 C 0.83127 0.52918 0.39292 0.0
C3 C 0.82343 0.51112 0.36075 0.0
C4 C 0.81873 0.54832 0.39236 0.0
C5 C 0.79884 0.54921 0.36187 0.0
U6 U 0.7463 0.5405 0.20823 0.0
O7 O 0.71805 0.51937 0.18917 0.0
O8 O 0.71285 0.55304 0.21713 0.0
C9 C 0.70391 0.5351 0.1964 0.0
C10 C 0.76836 0.53096 0.3048 0.0
C11 C 0.68763 0.53753 0.14831 0.0
C12 C 0.65237 0.52764 0.10632 0.0
C13 C 0.66783 0.52616 0.15165 0.0
C14 C 0.67619 0.55205 0.05304 0.0
C15 C 0.65624 0.5406 0.05613 0.0
C16 C 0.6917 0.5505 0.09848 0.0
C17 C 0.79026 0.55873 0.09598 0.0
C18 C 0.8137 0.57718 0.02572 0.0
C19 C 0.82592 0.54422 0.07331 0.0
C20 C 0.80667 0.54339 0.10591 0.0
C21 C 0.82919 0.56051 0.03063 0.0
C22 C 0.79432 0.57618 0.05785 0.0
C23 C 0.76788 0.55485 0.11638 0.0
O24 O 0.75895 0.54985 0.29591 0.0
O25 O 0.764 0.51675 0.26286 0.0
O26 O 0.76238 0.53436 0.12386 0.0
O27 O 0.76017 0.56789 0.15735 0.0
H28 H 0.79787 0.49755 0.30744 0.0
H29 H 0.83263 0.49616 0.35921 0.0
H30 H 0.82392 0.56252 0.41709 0.0
H31 H 0.78942 0.56402 0.36434 0.0
H32 H 0.63752 0.51822 0.11022 0.0
H33 H 0.66436 0.5159 0.1893 0.0
H34 H 0.6798 0.56238 0.01567 0.0
H35 H 0.70689 0.55938 0.09461 0.0
H36 H 0.81593 0.59023 0.99431 0.0
H37 H 0.83736 0.53102 0.07824 0.0
H38 H 0.80397 0.52985 0.13555 0.0
H39 H 0.7819 0.58827 0.04994 0.0
C40 C 1.00414 0.79396 0.33503 0.0
C41 C 0.02245 0.80772 0.3304 0.0
C42 C 1.00578 0.83478 0.39571 0.0
C43 C 0.02323 0.82781 0.3601 0.0
C44 C 0.98724 0.82126 0.39915 0.0
C45 C 0.98649 0.80113 0.36954 0.0
U46 U 0.9978 0.74789 0.21469 0.0
O47 O 0.0194 0.7198 0.2025 0.0
O48 O 0.98511 0.71431 0.22393 0.0
C49 C 1.00349 0.70552 0.20648 0.0
C50 C 1.00459 0.7712 0.31115 0.0
C51 C 1.00201 0.6894 0.15745 0.0
C52 C 0.99566 0.65214 0.12371 0.0
C53 C 0.99632 0.66771 0.16924 0.0
C54 C 1.00624 0.67973 0.05345 0.0
C55 C 1.00078 0.65783 0.06503 0.0
C56 C 1.00677 0.69529 0.09893 0.0
C57 C 0.98132 0.78858 0.09167 0.0
C58 C 0.97471 0.80902 1.00257 0.0
C59 C 0.98356 0.82799 0.09341 0.0
C60 C 0.98473 0.80802 0.12287 0.0
C61 C 0.97924 0.82866 0.03232 0.0
C62 C 0.97566 0.78925 0.03206 0.0
C63 C 0.98572 0.76729 0.11741 0.0
O64 O 0.98588 0.76173 0.29881 0.0
O65 O 0.01994 0.76633 0.27291 0.0
O66 O 1.00613 0.76355 0.13092 0.0
O67 O 0.97181 0.75995 0.15672 0.0
H68 H 0.03652 0.80275 0.30501 0.0
H69 H 0.03766 0.83783 0.35548 0.0
H70 H 0.97356 0.82585 0.42651 0.0
H71 H 0.97229 0.79086 0.37526 0.0
H72 H 0.991 0.63563 0.13461 0.0
H73 H 0.99249 0.66274 0.21388 0.0
H74 H 0.01058 0.68484 1.00931 0.0
H75 H 0.01117 0.71192 0.0884 0.0
H76 H 0.97181 0.80865 0.95549 0.0
H77 H 0.98685 0.84279 0.11792 0.0
H78 H 0.98911 0.8077 0.16914 0.0
H79 H 0.9731 0.77433 1.00736 0.0
C80 C 0.74362 1.01201 0.33724 0.0
C81 C 0.72487 1.00365 0.30978 0.0
C82 C 0.70271 0.01277 0.39665 0.0
C83 C 0.70465 1.00395 0.33924 0.0
C84 C 0.72164 0.02109 0.42363 0.0
C85 C 0.74174 0.02069 0.39437 0.0
U86 U 0.78675 1.00383 0.20967 0.0
O87 O 0.81442 0.02583 0.19194 0.0
O88 O 0.82051 0.99209 0.21722 0.0
C89 C 0.82897 1.01045 0.19802 0.0
C90 C 0.76542 1.01209 0.30857 0.0
C91 C 0.84533 1.00884 0.1499 0.0
C92 C 0.88056 0.01964 0.10948 0.0
C93 C 0.865 0.02038 0.15476 0.0
C94 C 0.85711 0.99567 0.05328 0.0
C95 C 0.87691 1.00728 0.05789 0.0
C96 C 0.8415 0.99647 0.09867 0.0
C97 C 0.74317 0.98538 0.09742 0.0
C98 C 0.71611 0.98799 0.02029 0.0
C99 C 0.70565 0.97528 0.11747 0.0
C100 C 0.72723 0.97748 0.13634 0.0
C101 C 0.69986 0.98105 0.05963 0.0
C102 C 0.73756 0.99014 0.03907 0.0
C103 C 0.7655 0.98997 0.1165 0.0
O104 O 0.77427 0.99316 0.29639 0.0
O105 O 0.76891 0.02665 0.26727 0.0
O106 O 0.76983 1.01059 0.12662 0.0
O107 O 0.77401 0.9768 0.15572 0.0
H108 H 0.72584 0.99699 0.26564 0.0
H109 H 0.69046 0.99757 0.31667 0.0
H110 H 0.72101 0.0277 0.46793 0.0
H111 H 0.75595 0.02718 0.41666 0.0
H112 H 0.89531 0.02915 0.11456 0.0
H113 H 0.86827 0.03018 0.19359 0.0
H114 H 0.85371 0.98577 0.01476 0.0
H115 H 0.82641 0.98748 0.09369 0.0
H116 H 0.71209 0.99229 0.9753 0.0
H117 H 0.69338 0.96999 0.14868 0.0
H118 H 0.73134 0.97354 0.18146 0.0
H119 H 0.74971 0.9961 1.00838 0.0
C120 C 0.52922 0.74531 0.33356 0.0
C121 C 0.5364 0.72649 0.30427 0.0
C122 C 0.52849 0.70427 0.39144 0.0
C123 C 0.53608 0.70623 0.33287 0.0
C124 C 0.52134 0.72327 0.4204 0.0
C125 C 0.5217 0.74348 0.39182 0.0
U126 U 0.53298 0.78084 0.19453 0.0
O127 O 0.54715 0.8135 0.18108 0.0
O128 O 0.51224 0.80825 0.16743 0.0
C129 C 0.52868 0.82193 0.16311 0.0
C130 C 0.52884 0.76679 0.30381 0.0
C131 C 0.52931 0.83659 0.11052 0.0
C132 C 0.51 0.85939 0.03961 0.0
C133 C 0.50986 0.84338 0.08367 0.0
C134 C 0.54909 0.86216 0.04728 0.0
C135 C 0.52958 0.86929 0.0213 0.0
C136 C 0.54895 0.84612 0.09129 0.0
C137 C 0.54245 0.74918 0.04829 0.0
C138 C 0.52737 0.75495 0.95073 0.0
C139 C 0.55181 0.72484 0.96798 0.0
C140 C 0.55426 0.73148 0.02649 0.0
C141 C 0.5374 0.73579 0.93034 0.0
C142 C 0.52985 0.76159 1.00944 0.0
C143 C 0.54054 0.7517 0.11251 0.0
O144 O 0.54736 0.77375 0.28151 0.0
O145 O 0.51228 0.77005 0.26845 0.0
O146 O 0.521 0.75633 0.1323 0.0
O147 O 0.55622 0.7622 0.14003 0.0
H148 H 0.54221 0.72746 0.25921 0.0
H149 H 0.54198 0.69212 0.30917 0.0
H150 H 0.51504 0.7225 0.46498 0.0
H151 H 0.51592 0.75773 0.41519 0.0
H152 H 0.4946 0.86458 0.02144 0.0
H153 H 0.49437 0.8368 0.09803 0.0
H154 H 0.56453 0.86913 0.03397 0.0
H155 H 0.56426 0.84159 0.11127 0.0
H156 H 0.51643 0.7639 0.92249 0.0
H157 H 0.55964 0.70994 0.95407 0.0
H158 H 0.56405 0.72172 0.05591 0.0
H159 H 0.52072 0.77544 0.02543 0.0
C160 C 0.24112 0.51367 0.9541 0.0
C161 C 0.22852 0.49447 0.95236 0.0
C162 C 0.19925 0.5132 0.89974 0.0
C163 C 0.20774 0.49431 0.92613 0.0
C164 C 0.2119 0.53234 0.90182 0.0
C165 C 0.23244 0.53257 0.9288 0.0
U166 U 0.28681 0.50278 0.07119 0.0
O167 O 0.31258 0.52583 0.09727 0.0
O168 O 0.3215 0.49424 0.05993 0.0
C169 C 0.32841 0.51222 0.08555 0.0
C170 C 0.26373 0.51442 0.97824 0.0
C171 C 0.34509 0.50995 0.13255 0.0
C172 C 0.38255 0.51535 0.1653 0.0
C173 C 0.36674 0.5158 0.12068 0.0
C174 C 0.35541 0.50278 0.2347 0.0
C175 C 0.37713 0.50905 0.22324 0.0
C176 C 0.33958 0.50328 0.18993 0.0
C177 C 0.24308 0.47737 0.16672 0.0
C178 C 0.21354 0.47613 0.23714 0.0
C179 C 0.20573 0.47833 0.13255 0.0
C180 C 0.228 0.47789 0.12042 0.0
C181 C 0.1983 0.47865 0.1913 0.0
C182 C 0.23574 0.47549 0.22484 0.0
C183 C 0.26596 0.48279 0.15623 0.0
O184 O 0.26708 0.52714 0.02408 0.0
O185 O 0.2746 0.49606 0.98132 0.0
O186 O 0.27565 0.47237 0.11287 0.0
O187 O 0.26994 0.50379 0.15633 0.0
H188 H 0.23483 0.47949 0.97031 0.0
H189 H 0.19858 0.47923 0.92495 0.0
H190 H 0.20588 0.54723 0.88256 0.0
H191 H 0.24177 0.54757 0.929 0.0
H192 H 0.39908 0.51996 0.15426 0.0
H193 H 0.37142 0.52104 0.07685 0.0
H194 H 0.35049 0.49804 0.2787 0.0
H195 H 0.32295 0.49882 0.20036 0.0
H196 H 0.20856 0.47662 0.28295 0.0
H197 H 0.19445 0.47993 0.09619 0.0
H198 H 0.23349 0.47944 0.07531 0.0
H199 H 0.24721 0.47524 0.26109 0.0
C200 C 0.03319 0.24712 0.9488 0.0
C201 C 0.02634 0.22853 0.98007 0.0
C202 C 0.03288 0.2052 0.89375 0.0
C203 C 0.02626 0.20787 0.95298 0.0
C204 C 0.04028 0.22378 0.86333 0.0
C205 C 0.04038 0.24437 0.89037 0.0
U206 U 0.04353 0.29416 0.0633 0.0
O207 O 0.01945 0.31848 0.09166 0.0
O208 O 0.04987 0.32926 0.05036 0.0
C209 C 0.03212 0.33507 0.07882 0.0
C210 C 0.0311 0.26965 0.97335 0.0
C211 C 0.03411 0.352 0.12584 0.0
C212 C 0.0164 0.3789 0.18902 0.0
C213 C 0.01535 0.36298 0.14465 0.0
C214 C 0.05518 0.37346 0.19692 0.0
C215 C 0.03632 0.3845 0.2159 0.0
C216 C 0.05409 0.3574 0.15255 0.0
C217 C 0.07261 0.25291 0.15819 0.0
C218 C 0.07944 0.22665 0.23512 0.0
C219 C 0.06406 0.21488 0.14181 0.0
C220 C 0.0655 0.23614 0.12072 0.0
C221 C 0.06964 0.21029 0.20061 0.0
C222 C 0.08081 0.2479 0.21403 0.0
C223 C 0.06648 0.27537 0.14585 0.0
O224 O 0.01953 0.2722 0.02171 0.0
O225 O 0.04854 0.28213 0.97219 0.0
O226 O 0.07541 0.2846 0.09945 0.0
O227 O 0.04544 0.27861 0.14965 0.0
H228 H 0.02056 0.22998 0.02505 0.0
H229 H 0.0203 0.19409 0.97797 0.0
H230 H 0.04591 0.22249 0.81818 0.0
H231 H 0.04565 0.25832 0.86492 0.0
H232 H 1.00141 0.38657 0.20286 0.0
H233 H 0.99972 0.35913 0.12512 0.0
H234 H 0.07087 0.37737 0.21587 0.0
H235 H 0.06888 0.34924 0.13923 0.0
H236 H 0.08377 0.22362 0.28066 0.0
H237 H 0.05664 0.2025 0.11418 0.0
H238 H 0.05908 0.23982 0.07743 0.0
H239 H 0.08624 0.26073 0.24351 0.0
C240 C 0.28512 0.03285 0.93983 0.0
C241 C 0.30297 0.02374 0.96965 0.0
C242 C 0.32744 0.0327 0.88753 0.0
C243 C 0.32382 0.02367 0.94386 0.0
C244 C 0.30959 0.04212 0.85839 0.0
C245 C 0.28879 0.04213 0.88408 0.0
U246 U 0.24008 0.04348 0.05775 0.0
O247 O 0.21365 0.02137 0.08455 0.0
O248 O 0.2057 0.05342 0.04897 0.0
C249 C 0.1983 0.03569 0.07463 0.0
C250 C 0.26241 0.03158 0.96353 0.0
C251 C 0.18234 0.03866 0.12325 0.0
C252 C 0.14491 0.03614 0.15861 0.0
C253 C 0.16015 0.03502 0.11254 0.0
C254 C 0.17376 0.04499 0.22713 0.0
C255 C 0.15147 0.0409 0.21685 0.0
C256 C 0.189 0.04386 0.18091 0.0
C257 C 0.28591 0.06637 0.14836 0.0
C258 C 0.31629 0.06683 0.21593 0.0
C259 C 0.32231 0.05915 0.11221 0.0
C260 C 0.30017 0.06209 0.10141 0.0
C261 C 0.33037 0.06032 0.17018 0.0
C262 C 0.29419 0.06977 0.20504 0.0
C263 C 0.26258 0.06256 0.1412 0.0
O264 O 0.25891 0.01881 1.00904 0.0
O265 O 0.25154 0.04992 0.9669 0.0
O266 O 0.25732 0.04185 0.14201 0.0
O267 O 0.25294 0.07343 0.09886 0.0
H268 H 0.30085 0.01646 1.01272 0.0
H269 H 0.33713 0.01655 0.96819 0.0
H270 H 0.31155 0.04901 0.81479 0.0
H271 H 0.27539 0.04907 0.85965 0.0
H272 H 0.12793 0.03324 0.1485 0.0
H273 H 0.15459 0.03098 0.06849 0.0
H274 H 0.17955 0.04848 0.27126 0.0
H275 H 0.20606 0.04663 0.1904 0.0
H276 H 0.32186 0.06766 0.26119 0.0
H277 H 0.3328 0.05442 0.07599 0.0
H278 H 0.29394 0.05938 0.05732 0.0
H279 H 0.28333 0.07288 0.24176 0.0
C280 C 0.50893 0.29639 0.95686 0.0
C281 C 0.50347 0.31515 0.98908 0.0
C282 C 0.50776 0.33772 0.90089 0.0
C283 C 0.50288 0.33557 0.96144 0.0
C284 C 0.51287 0.31874 0.86877 0.0
C285 C 0.51346 0.29837 0.89645 0.0
U286 U 0.50118 0.25871 0.09028 0.0
O287 O 0.49314 0.22369 0.09494 0.0
O288 O 0.52427 0.23563 0.12972 0.0
C289 C 0.5111 0.21886 0.1234 0.0
C290 C 0.51095 0.27489 0.98592 0.0
C291 C 0.50901 0.20355 0.1739 0.0
C292 C 0.50337 0.16628 0.20768 0.0
C293 C 0.50397 0.18167 0.16221 0.0
C294 C 0.51247 0.1944 0.27833 0.0
C295 C 0.50767 0.17232 0.26658 0.0
C296 C 0.51325 0.20979 0.23254 0.0
C297 C 0.47535 0.28529 0.22798 0.0
C298 C 0.48266 0.2749 0.32913 0.0
C299 C 0.4637 0.30846 0.30835 0.0
C300 C 0.46441 0.30374 0.24823 0.0
C301 C 0.47401 0.29476 0.34929 0.0
C302 C 0.48344 0.27025 0.26869 0.0
C303 C 0.48184 0.28458 0.16584 0.0
O304 O 0.52471 0.27414 0.03012 0.0
O305 O 0.49272 0.26436 0.99683 0.0
O306 O 0.47105 0.27136 0.13067 0.0
O307 O 0.50296 0.28438 0.15704 0.0
H308 H 0.49999 0.31406 0.03584 0.0
H309 H 0.49911 0.34975 0.98792 0.0
H310 H 0.51638 0.31959 0.82201 0.0
H311 H 0.5177 0.28414 0.87065 0.0
H312 H 0.50006 0.14949 0.19615 0.0
H313 H 0.50093 0.17633 0.11736 0.0
H314 H 0.51564 0.19985 0.32296 0.0
H315 H 0.51745 0.22648 0.24298 0.0
H316 H 0.49036 0.26379 0.35954 0.0
H317 H 0.45703 0.32398 0.32175 0.0
H318 H 0.4581 0.31552 0.21726 0.0
H319 H 0.49182 0.25584 0.25356 0.0
Eu320 Eu 0.99121 0.0291 0.58836 0.0
C321 C 0.0558 0.04308 0.79623 0.0
N322 N 0.06085 0.03708 0.74033 0.0
C323 C 0.09058 0.06243 0.73905 0.0
C324 C 0.06727 0.05996 0.82487 0.0
C325 C 0.0786 0.04566 0.71242 0.0
C326 C 0.08459 0.06995 0.79504 0.0
C327 C 0.03573 0.0357 0.88597 0.0
C328 C 0.04037 0.03104 0.82633 0.0
C329 C 0.04588 0.05357 0.91347 0.0
C330 C 0.06172 0.06562 0.88304 0.0
Eu331 Eu 0.03892 1.00981 0.69669 0.0
N332 N 0.03149 0.01348 0.79897 0.0
C333 C 0.02191 0.02159 0.91691 0.0
C334 C 0.01984 0.99853 0.83054 0.0
C335 C 0.01433 1.00265 0.88941 0.0
H336 H 0.08296 0.03998 0.66877 0.0
H337 H 1.00439 0.99115 0.91359 0.0
H338 H 0.94648 0.02993 0.6769 0.0
H339 H 0.99753 0.98568 0.37914 0.0
H340 H 0.01441 0.98357 0.80997 0.0
H341 H 0.01784 0.02463 0.96271 0.0
H342 H 1.00569 0.01463 0.45248 0.0
H343 H 0.10426 0.06968 0.71621 0.0
H344 H 0.04233 0.0576 0.95903 0.0
H345 H 0.07016 0.07871 0.90565 0.0
H346 H 0.91644 1.0054 0.70479 0.0
H347 H 0.09383 0.08298 0.8155 0.0
H348 H 0.97037 0.95713 0.40253 0.0
N349 N 0.95967 1.00821 0.61282 0.0
C350 C 0.95564 0.99037 0.57909 0.0
C351 C 0.92756 1.00075 0.66994 0.0
C352 C 0.93799 0.97634 0.59145 0.0
C353 C 0.94491 0.01442 0.65473 0.0
C354 C 0.92438 0.98133 0.63906 0.0
N355 N 0.98365 1.00215 0.51632 0.0
C356 C 0.99366 1.00228 0.46244 0.0
C357 C 0.96268 0.97061 0.48845 0.0
C358 C 0.9678 0.98745 0.5285 0.0
C359 C 0.97385 0.96977 0.43461 0.0
C360 C 0.98913 0.98592 0.42111 0.0
H361 H 0.91069 0.97095 0.65017 0.0
H362 H 0.9204 0.94751 0.56302 0.0
H363 H 0.94181 0.94271 0.47226 0.0
O364 O 0.99254 0.05106 0.51418 0.0
O365 O 0.01146 0.99853 0.57134 0.0
O366 O 0.01481 0.98464 0.66307 0.0
O367 O 0.96277 0.04863 0.56355 0.0
O368 O 0.02484 0.03931 0.55589 0.0
O369 O 0.05021 0.01743 0.60311 0.0
O370 O 0.06047 0.98892 0.74773 0.0
O371 O 0.03672 0.04613 0.67434 0.0
O372 O 1.00033 0.05291 0.66188 0.0
O373 O 0.06295 0.98934 0.65293 0.0
O374 O 1.00354 1.00093 0.71672 0.0
O375 O 0.98545 0.03126 0.68757 0.0
C376 C 0.01277 0.98159 0.60618 0.0
C377 C 0.97142 0.08274 0.51845 0.0
C378 C 0.98426 0.11659 0.47373 0.0
C379 C 0.96718 0.12774 0.50188 0.0
C380 C 0.95444 0.09409 0.54598 0.0
C381 C 0.95251 0.11654 0.53808 0.0
C382 C 0.98637 0.09418 0.48334 0.0
C383 C 0.04422 0.03021 0.55932 0.0
C384 C 0.9732 0.05887 0.5221 0.0
C385 C 0.93375 0.95858 0.55396 0.0
C386 C 0.94598 0.95581 0.50229 0.0
C387 C 0.01974 0.05886 0.68077 0.0
C388 C 0.06546 0.95534 0.69799 0.0
C389 C 0.04682 0.92227 0.73068 0.0
C390 C 0.05578 0.91109 0.68213 0.0
C391 C 0.07447 0.94379 0.65055 0.0
C392 C 0.05199 0.9444 0.73836 0.0
C393 C 0.0697 0.92176 0.64289 0.0
C394 C 0.98828 0.01544 0.72551 0.0
C395 C 0.06806 0.97915 0.70105 0.0
H396 H 0.96481 0.14497 0.49494 0.0
H397 H 0.94258 0.08565 0.57297 0.0
H398 H 0.93934 0.12523 0.55918 0.0
H399 H 0.99968 0.08548 0.46284 0.0
H400 H 0.05194 0.89416 0.67405 0.0
H401 H 0.08477 0.95194 0.61862 0.0
H402 H 0.04545 0.95322 0.77573 0.0
H403 H 0.07661 0.91301 0.60594 0.0
Eu404 Eu 0.52843 0.04335 0.70663 0.0
C405 C 0.52601 0.95234 0.60855 0.0
N406 N 0.53107 0.97097 0.57927 0.0
C407 C 0.56356 0.95442 0.54157 0.0
C408 C 0.54018 0.93435 0.60772 0.0
C409 C 0.54882 0.97165 0.54294 0.0
C410 C 0.55945 0.93584 0.57505 0.0
C411 C 0.49968 0.93129 0.66462 0.0
C412 C 0.50598 0.95073 0.63645 0.0
C413 C 0.5141 0.91367 0.66579 0.0
C414 C 0.53434 0.91523 0.63766 0.0
Eu415 Eu 0.50581 0.9999 0.5894 0.0
N416 N 0.4924 0.96806 0.63481 0.0
C417 C 0.47888 0.93003 0.6897 0.0
C418 C 0.47168 0.96656 0.65618 0.0
C419 C 0.46472 0.94764 0.68476 0.0
H420 H 0.55161 0.98531 0.51412 0.0
H421 H 0.44846 0.94665 0.70294 0.0
H422 H 0.48931 0.08028 0.72107 0.0
H423 H 0.61497 0.05916 0.66673 0.0
H424 H 0.46077 0.9802 0.65227 0.0
H425 H 0.47344 0.91538 0.71184 0.0
H426 H 0.58335 0.03977 0.70902 0.0
H427 H 0.57791 0.95534 0.51393 0.0
H428 H 0.50956 0.89857 0.68711 0.0
H429 H 0.5451 0.90133 0.63791 0.0
H430 H 0.48202 0.11851 0.69256 0.0
H431 H 0.57077 0.9224 0.57338 0.0
H432 H 0.60984 0.09444 0.61649 0.0
N433 N 0.52096 0.0801 0.6835 0.0
C434 C 0.53705 0.09188 0.65797 0.0
C435 C 0.49753 0.11117 0.68222 0.0
C436 C 0.53364 0.11354 0.64026 0.0
C437 C 0.50169 0.08965 0.69847 0.0
C438 C 0.51342 0.12303 0.65181 0.0
N439 N 0.56031 0.06273 0.67783 0.0
C440 C 0.58083 0.05484 0.68561 0.0
C441 C 0.57503 0.09478 0.63123 0.0
C442 C 0.55739 0.08271 0.6541 0.0
C443 C 0.59586 0.08577 0.63385 0.0
C444 C 0.59883 0.06589 0.66232 0.0
H445 H 0.51013 0.13966 0.63898 0.0
H446 H 0.54844 0.1418 0.5994 0.0
H447 H 0.5847 0.12525 0.59073 0.0
O448 O 0.54608 0.05151 0.78805 0.0
O449 O 0.50775 0.05446 0.62831 0.0
O450 O 0.51869 0.03201 0.55416 0.0
O451 O 0.51123 0.04879 0.78897 0.0
O452 O 0.553 0.02019 0.66302 0.0
O453 O 0.53875 0.01555 0.57058 0.0
O454 O 0.47764 1.00653 0.53397 0.0
O455 O 0.50617 0.99233 0.68815 0.0
O456 O 0.53778 1.00796 0.71921 0.0
O457 O 0.50087 0.9821 0.50712 0.0
O458 O 0.47881 0.01936 0.63437 0.0
O459 O 0.49384 0.03115 0.72279 0.0
C460 C 0.51252 0.05127 0.57251 0.0
C461 C 0.52891 0.03586 0.87284 0.0
C462 C 0.54752 1.01072 0.93839 0.0
C463 C 0.52809 1.0075 0.96979 0.0
C464 C 0.50963 0.03257 0.9052 0.0
C465 C 0.50923 0.01835 0.95306 0.0
C466 C 0.5478 0.0248 0.88968 0.0
C467 C 0.55563 0.0176 0.60577 0.0
C468 C 0.52868 0.05023 0.82073 0.0
C469 C 0.55078 0.12522 0.61403 0.0
C470 C 0.57143 0.1158 0.60918 0.0
C471 C 0.52347 0.99215 0.72187 0.0
C472 C 0.46495 0.97864 0.47123 0.0
C473 C 0.43551 0.97561 0.40014 0.0
C474 C 0.43017 0.95503 0.42298 0.0
C475 C 0.45968 0.95804 0.4936 0.0
C476 C 0.45294 0.98726 0.4247 0.0
C477 C 0.4423 0.94628 0.46935 0.0
C478 C 0.47691 0.02649 0.68922 0.0
C479 C 0.48274 0.99186 0.49492 0.0
H480 H 0.52753 0.99663 1.00729 0.0
H481 H 0.49478 0.04086 0.89315 0.0
H482 H 0.49428 0.01581 0.97738 0.0
H483 H 0.56285 0.02742 0.8657 0.0
H484 H 0.4167 0.94575 0.40493 0.0
H485 H 0.4689 0.95112 0.52955 0.0
H486 H 0.4569 1.00338 0.40845 0.0
H487 H 0.43817 0.93041 0.48667 0.0
Eu488 Eu 0.54221 0.50745 0.59262 0.0
C489 C 0.47978 0.49599 0.79682 0.0
N490 N 0.47418 0.5021 0.74157 0.0
C491 C 0.44612 0.47489 0.73911 0.0
C492 C 0.46927 0.47841 0.8248 0.0
C493 C 0.45694 0.49256 0.71345 0.0
C494 C 0.45251 0.46758 0.79474 0.0
C495 C 0.50059 0.50321 0.88533 0.0
C496 C 0.49516 0.50824 0.82651 0.0
C497 C 0.49111 0.48496 0.91243 0.0
C498 C 0.47532 0.47271 0.8824 0.0
Eu499 Eu 0.49421 0.53094 0.69853 0.0
N500 N 0.50336 0.52618 0.79963 0.0
C501 C 0.51448 0.51733 0.91608 0.0
C502 C 0.51491 0.54116 0.83157 0.0
C503 C 0.52126 0.53666 0.88948 0.0
H504 H 0.45213 0.49819 0.67026 0.0
H505 H 0.53113 0.54823 0.91376 0.0
H506 H 0.58329 0.49409 0.68352 0.0
H507 H 0.54857 0.54773 0.37917 0.0
H508 H 0.51948 0.55657 0.8123 0.0
H509 H 0.51914 0.51402 0.96122 0.0
H510 H 0.53205 0.52392 0.45507 0.0
H511 H 0.43288 0.46693 0.71603 0.0
H512 H 0.49517 0.48075 0.95745 0.0
H513 H 0.46732 0.45939 0.90487 0.0
H514 H 0.62061 0.50655 0.70627 0.0
H515 H 0.44403 0.45398 0.81469 0.0
H516 H 0.58448 0.56486 0.39728 0.0
N517 N 0.57918 0.51613 0.61233 0.0
C518 C 0.58904 0.53045 0.57557 0.0
C519 C 0.61185 0.51358 0.66965 0.0
C520 C 0.61055 0.53759 0.58562 0.0
C521 C 0.59063 0.50674 0.65702 0.0
C522 C 0.62175 0.52938 0.63436 0.0
N523 N 0.55801 0.52825 0.51583 0.0
C524 C 0.54775 0.53134 0.46311 0.0
C525 C 0.58832 0.55006 0.4832 0.0
C526 C 0.57814 0.53657 0.52527 0.0
C527 C 0.57729 0.55448 0.43061 0.0
C528 C 0.55703 0.54481 0.42019 0.0
H529 H 0.63827 0.5345 0.6438 0.0
H530 H 0.63682 0.55789 0.55285 0.0
H531 H 0.61729 0.56887 0.46301 0.0
O532 O 0.5285 0.47679 0.56065 0.0
O533 O 0.52823 0.54054 0.568 0.0
O534 O 0.51527 0.55651 0.65387 0.0
O535 O 0.56282 0.48352 0.54888 0.0
O536 O 0.50945 0.50971 0.54567 0.0
O537 O 0.48204 0.52323 0.60674 0.0
O538 O 0.47519 0.5536 0.75256 0.0
O539 O 0.4982 0.49499 0.67339 0.0
O540 O 0.53453 0.49073 0.67905 0.0
O541 O 0.46516 0.5464 0.66369 0.0
O542 O 0.52907 0.54346 0.71467 0.0
O543 O 0.54794 0.51286 0.69061 0.0
C544 C 0.52185 0.5576 0.59865 0.0
C545 C 0.55231 0.44732 0.57114 0.0
C546 C 0.54362 0.40861 0.57706 0.0
C547 C 0.56043 0.40603 0.61833 0.0
C548 C 0.56874 0.44452 0.61344 0.0
C549 C 0.57275 0.42394 0.63677 0.0
C550 C 0.53968 0.4294 0.55372 0.0
C551 C 0.48912 0.51559 0.55591 0.0
C552 C 0.54743 0.46889 0.54656 0.0
C553 C 0.6204 0.55201 0.54558 0.0
C554 C 0.6093 0.55823 0.49439 0.0
C555 C 0.51496 0.48359 0.69066 0.0
C556 C 0.45716 0.58133 0.69837 0.0
C557 C 0.46699 0.61985 0.70133 0.0
C558 C 0.44733 0.62476 0.67269 0.0
C559 C 0.43772 0.5866 0.66962 0.0
C560 C 0.4719 0.59796 0.71357 0.0
C561 C 0.4329 0.6082 0.65667 0.0
C562 C 0.54627 0.53099 0.72084 0.0
C563 C 0.46181 0.5583 0.7101 0.0
H564 H 0.56417 0.39014 0.636 0.0
H565 H 0.57845 0.45818 0.62849 0.0
H566 H 0.58553 0.42184 0.66902 0.0
H567 H 0.52663 0.43172 0.52226 0.0
H568 H 0.44291 0.64144 0.6636 0.0
H569 H 0.42627 0.57396 0.65704 0.0
H570 H 0.48714 0.59388 0.7347 0.0
H571 H 0.41782 0.61214 0.63467 0.0
Eu572 Eu 0.0253 0.54567 0.58759 0.0
C573 C 0.0411 0.47848 0.78368 0.0
N574 N 0.03421 0.47507 0.72761 0.0
C575 C 0.0599 0.44618 0.7157 0.0
C576 C 0.05848 0.46646 0.80727 0.0
C577 C 0.04259 0.45855 0.69429 0.0
C578 C 0.06814 0.45041 0.77209 0.0
C579 C 0.03561 0.49613 0.87814 0.0
C580 C 0.02978 0.49305 0.81854 0.0
C581 C 0.0538 0.48527 0.9009 0.0
C582 C 0.06514 0.47036 0.86561 0.0
Eu583 Eu 1.00603 0.49769 0.69313 0.0
N584 N 0.01192 0.50272 0.7956 0.0
C585 C 0.02235 0.50919 0.91371 0.0
C586 C 0.99781 0.51359 0.83149 0.0
C587 C 1.00309 0.51756 0.89058 0.0
H588 H 0.03631 0.45546 0.65052 0.0
H589 H 0.99218 0.52684 0.91835 0.0
H590 H 0.01894 0.59079 0.67388 0.0
H591 H 0.9909 0.53159 0.36958 0.0
H592 H 0.98245 0.51924 0.8145 0.0
H593 H 0.02628 0.51204 0.95968 0.0
H594 H 0.01683 0.52661 0.45214 0.0
H595 H 0.06694 0.4335 0.68866 0.0
H596 H 0.05869 0.4876 0.9464 0.0
H597 H 0.07854 0.46139 0.88446 0.0
H598 H 0.99186 0.61948 0.68955 0.0
H599 H 0.08157 0.44084 0.78854 0.0
H600 H 0.96115 0.55838 0.37892 0.0
N601 N 1.00171 0.57575 0.60302 0.0
C602 C 0.98578 0.57844 0.56216 0.0
C603 C 0.98969 0.6078 0.65416 0.0
C604 C 0.97054 0.59543 0.56739 0.0
C605 C 1.00473 0.59107 0.6461 0.0
C606 C 0.97223 0.60973 0.61532 0.0
N607 N 1.00124 0.54971 0.50747 0.0
C608 C 1.00381 0.53827 0.45621 0.0
C609 C 0.97078 0.56882 0.46648 0.0
C610 C 0.98581 0.56531 0.51234 0.0
C611 C 0.97243 0.55622 0.41507 0.0
C612 C 0.98922 0.54109 0.4096 0.0
H613 H 0.96083 0.62295 0.62098 0.0
H614 H 0.94298 0.61125 0.52656 0.0
H615 H 0.94356 0.5883 0.43764 0.0
O616 O 0.05371 0.54425 0.53143 0.0
O617 O 0.99494 0.52518 0.56911 0.0
O618 O 0.98076 0.52163 0.66048 0.0
O619 O 0.04025 0.57609 0.55427 0.0
O620 O 0.0357 0.51225 0.55393 0.0
O621 O 0.01269 0.48705 0.59842 0.0
O622 O 0.98522 0.4761 0.74502 0.0
O623 O 0.04224 0.50198 0.67123 0.0
O624 O 0.04742 0.53868 0.66585 0.0
O625 O 0.9856 0.47325 0.65015 0.0
O626 O 0.99634 0.5324 0.71898 0.0
O627 O 0.02523 0.55284 0.68646 0.0
C628 C 0.97788 0.52401 0.60367 0.0
C629 C 0.0715 0.57507 0.487 0.0
C630 C 0.09724 0.57115 0.40596 0.0
C631 C 0.10273 0.59328 0.41137 0.0
C632 C 0.0769 0.59721 0.4916 0.0
C633 C 0.09252 0.60623 0.45392 0.0
C634 C 0.08166 0.56221 0.44404 0.0
C635 C 0.02614 0.49296 0.55586 0.0
C636 C 0.05474 0.56523 0.5247 0.0
C637 C 0.95484 0.59833 0.52317 0.0
C638 C 0.95511 0.5852 0.47258 0.0
C639 C 0.05392 0.51938 0.6832 0.0
C640 C 0.95176 0.46966 0.69618 0.0
C641 C 0.91806 0.48708 0.72707 0.0
C642 C 0.90662 0.47458 0.68527 0.0
C643 C 0.9401 0.4573 0.65467 0.0
C644 C 0.94067 0.4847 0.73183 0.0
C645 C 0.91764 0.45985 0.64913 0.0
C646 C 1.00974 0.54902 0.72532 0.0
C647 C 0.97561 0.46801 0.69864 0.0
H648 H 0.11479 0.60054 0.38254 0.0
H649 H 0.06909 0.60747 0.52419 0.0
H650 H 0.09672 0.62329 0.45767 0.0
H651 H 0.07759 0.54507 0.44047 0.0
H652 H 0.88918 0.47627 0.68049 0.0
H653 H 0.94843 0.4459 0.62605 0.0
H654 H 0.94954 0.49439 0.76387 0.0
H655 H 0.90874 0.45038 0.61677 0.0
C656 C 0.13659 0.05631 0.31263 0.0
C657 C 0.13524 0.04096 0.26662 0.0
C658 C 0.12171 0.05613 0.36013 0.0
C659 C 0.10498 0.04018 0.36219 0.0
C660 C 0.10335 0.02482 0.31559 0.0
C661 C 0.11842 0.02538 0.26868 0.0
C662 C 0.12405 0.07289 0.40853 0.0
C663 C 0.0859 1.00746 0.31584 0.0
C664 C 0.08047 0.02351 0.51055 0.0
C665 C 0.06021 0.03401 0.51037 0.0
C666 C 0.09523 0.02571 0.46332 0.0
C667 C 0.08981 0.03882 0.41423 0.0
C668 C 0.06961 0.04991 0.41427 0.0
C669 C 0.05508 0.04732 0.46205 0.0
C670 C 0.11651 0.01358 0.46551 0.0
C671 C 0.06315 0.0642 0.36326 0.0
H672 H 0.14925 0.06862 0.31139 0.0
H673 H 0.11729 0.01321 0.23414 0.0
H674 H 0.10864 0.08202 0.41377 0.0
H675 H 0.12732 0.06469 0.45111 0.0
H676 H 0.13742 0.08464 0.39965 0.0
H677 H 0.08623 0.99725 0.27532 0.0
H678 H 0.08803 0.99675 0.35468 0.0
H679 H 0.06962 0.01503 0.31973 0.0
H680 H 0.08477 0.01317 0.54732 0.0
H681 H 0.03954 0.05557 0.46109 0.0
H682 H 0.13032 0.02508 0.46005 0.0
H683 H 0.1173 1.00174 0.42852 0.0
H684 H 0.11866 1.00464 0.50759 0.0
H685 H 0.07599 0.07653 0.35463 0.0
H686 H 0.04754 0.07274 0.37146 0.0
H687 H 0.06145 0.05419 0.32271 0.0
C688 C 0.52257 0.15657 0.36164 0.0
C689 C 0.5076 0.15549 0.31479 0.0
C690 C 0.52325 0.14034 0.40549 0.0
C691 C 0.50875 0.12237 0.40264 0.0
C692 C 0.49341 0.12131 0.35609 0.0
C693 C 0.49293 0.13785 0.31322 0.0
C694 C 0.53963 0.14235 0.45478 0.0
C695 C 0.47765 0.10249 0.35106 0.0
C696 C 0.5243 0.06913 0.47815 0.0
C697 C 0.51156 0.06957 0.52957 0.0
C698 C 0.52369 0.08624 0.437 0.0
C699 C 0.50999 0.10436 0.44718 0.0
C700 C 0.49711 0.10489 0.49912 0.0
C701 C 0.49791 0.08744 0.53927 0.0
C702 C 0.53768 0.08484 0.38236 0.0
C703 C 0.48238 0.12386 0.51222 0.0
H704 H 0.53418 0.16987 0.36344 0.0
H705 H 0.48095 0.13692 0.27832 0.0
H706 H 0.531 0.1432 0.4977 0.0
H707 H 0.55016 0.12775 0.45591 0.0
H708 H 0.5501 0.15702 0.45028 0.0
H709 H 0.46651 0.10415 0.31279 0.0
H710 H 0.48674 0.08704 0.34628 0.0
H711 H 0.46774 0.10121 0.39185 0.0
H712 H 0.53489 0.0554 0.47012 0.0
H713 H 0.48755 0.08762 0.57788 0.0
H714 H 0.54867 0.09918 0.37995 0.0
H715 H 0.52725 0.08509 0.34246 0.0
H716 H 0.54771 0.06986 0.38131 0.0
H717 H 0.49209 0.1391 0.51457 0.0
H718 H 0.47343 0.12186 0.55447 0.0
H719 H 0.4704 0.12582 0.4761 0.0
C720 C 0.39465 0.49308 0.31455 0.0
C721 C 0.39396 0.50946 0.27146 0.0
C722 C 0.41031 0.49343 0.36007 0.0
C723 C 0.42575 0.51062 0.3632 0.0
C724 C 0.42519 0.52717 0.31982 0.0
C725 C 0.40941 0.52638 0.27472 0.0
C726 C 0.41028 0.47539 0.40504 0.0
C727 C 0.44112 0.54592 0.32146 0.0
C728 C 0.45227 0.5235 0.5121 0.0
C729 C 0.473 0.51412 0.50636 0.0
C730 C 0.43688 0.52249 0.46613 0.0
C731 C 0.44207 0.51166 0.41267 0.0
C732 C 0.4629 0.50206 0.40654 0.0
C733 C 0.47809 0.50348 0.45313 0.0
C734 C 0.41503 0.53316 0.47476 0.0
C735 C 0.46916 0.49026 0.35061 0.0
H736 H 0.38306 0.47977 0.31235 0.0
H737 H 0.40894 0.53934 0.24249 0.0
H738 H 0.42638 0.46731 0.40562 0.0
H739 H 0.40749 0.48222 0.44976 0.0
H740 H 0.39756 0.46293 0.39595 0.0
H741 H 0.43892 0.55725 0.28388 0.0
H742 H 0.43915 0.55518 0.36321 0.0
H743 H 0.45803 0.53972 0.32048 0.0
H744 H 0.448 0.53188 0.55257 0.0
H745 H 0.49395 0.49611 0.44787 0.0
H746 H 0.40185 0.52089 0.46997 0.0
H747 H 0.41248 0.54565 0.44028 0.0
H748 H 0.4135 0.54103 0.51873 0.0
H749 H 0.45748 0.47682 0.3419 0.0
H750 H 0.48582 0.4834 0.35285 0.0
H751 H 0.46833 0.50154 0.31259 0.0
C752 C 0.05108 0.39933 0.31267 0.0
C753 C 0.03718 0.40155 0.26381 0.0
C754 C 0.05111 0.41463 0.35926 0.0
C755 C 0.03679 0.43264 0.35767 0.0
C756 C 0.02314 0.43529 0.30792 0.0
C757 C 0.02358 0.41987 0.26174 0.0
C758 C 0.06607 0.41119 0.41107 0.0
C759 C 1.00758 0.45415 0.30411 0.0
C760 C 0.01774 0.45778 0.50316 0.0
C761 C 0.02983 0.47723 0.50623 0.0
C762 C 0.02003 0.44319 0.4556 0.0
C763 C 0.03496 0.44785 0.40959 0.0
C764 C 0.04754 0.46725 0.41278 0.0
C765 C 0.04475 0.48171 0.46074 0.0
C766 C 1.00611 0.42288 0.45411 0.0
C767 C 0.06381 0.47285 0.36519 0.0
H768 H 0.06154 0.38525 0.31549 0.0
H769 H 0.0131 0.42219 0.22392 0.0
H770 H 0.07571 0.42616 0.41986 0.0
H771 H 0.05632 0.40778 0.45122 0.0
H772 H 0.07743 0.39745 0.40373 0.0
H773 H 0.99868 0.45447 0.2615 0.0
H774 H 0.99552 0.45313 0.34048 0.0
H775 H 0.01651 0.46975 0.3095 0.0
H776 H 1.00609 0.45403 0.53761 0.0
H777 H 0.05422 0.49662 0.46233 0.0
H778 H 0.01656 0.40826 0.45131 0.0
H779 H 0.99566 0.42296 0.41423 0.0
H780 H 0.99551 0.42141 0.49363 0.0
H781 H 0.07547 0.45931 0.35921 0.0
H782 H 0.07308 0.48796 0.37543 0.0
H783 H 0.05529 0.47507 0.32255 0.0
C784 C 0.88719 1.0068 0.94953 0.0
C785 C 0.89356 1.00686 1.0091 0.0
C786 C 0.90264 1.00721 0.90348 0.0
C787 C 0.92516 1.00783 0.91683 0.0
C788 C 0.93175 1.00753 0.97669 0.0
C789 C 0.91596 1.00699 0.02187 0.0
C790 C 0.89486 1.00723 0.84035 0.0
C791 C 0.95555 1.00804 0.99305 0.0
C792 C 0.96654 0.99276 0.797 0.0
C793 C 0.97279 0.01326 0.77574 0.0
C794 C 0.95098 0.99069 0.84246 0.0
C795 C 0.94176 1.00959 0.86829 0.0
C796 C 0.94832 0.03032 0.84738 0.0
C797 C 0.96355 0.03188 0.80116 0.0
C798 C 0.94441 0.96824 0.86267 0.0
C799 C 0.93919 0.05093 0.87372 0.0
H800 H 0.87003 1.00694 0.93869 0.0
H801 H 0.92124 1.00659 0.06743 0.0
H802 H 0.90026 0.02239 0.81814 0.0
H803 H 0.90215 0.99341 0.81587 0.0
H804 H 0.87687 1.00601 0.83706 0.0
H805 H 0.95809 1.00781 0.04155 0.0
H806 H 0.96396 0.99384 0.97332 0.0
H807 H 0.96338 0.02288 0.97487 0.0
H808 H 0.97347 0.97829 0.77719 0.0
H809 H 0.96835 0.04777 0.78502 0.0
H810 H 0.92647 0.96688 0.86665 0.0
H811 H 0.95142 0.96516 0.90692 0.0
H812 H 0.95021 0.95539 0.83197 0.0
H813 H 0.9213 0.05128 0.86756 0.0
H814 H 0.94634 0.06579 0.85352 0.0
H815 H 0.94234 0.05137 0.92189 0.0
C816 C 0.54322 0.90567 0.98412 0.0
C817 C 0.52954 0.88745 0.97695 0.0
C818 C 0.54296 0.92311 0.94384 0.0
C819 C 0.52875 0.92247 0.89464 0.0
C820 C 0.51499 0.90409 0.88695 0.0
C821 C 0.51553 0.88691 0.928 0.0
C822 C 0.55772 0.94237 0.95442 0.0
C823 C 0.49975 0.90252 0.835 0.0
C824 C 0.51171 0.97482 0.81637 0.0
C825 C 0.52565 0.97511 0.76748 0.0
C826 C 0.51299 0.9582 0.85892 0.0
C827 C 0.52811 0.94102 0.85146 0.0
C828 C 0.54224 0.94137 0.80186 0.0
C829 C 0.54107 0.9586 0.76107 0.0
C830 C 0.49803 0.95895 0.91167 0.0
C831 C 0.55825 0.92327 0.79105 0.0
H832 H 0.55387 0.90656 0.0221 0.0
H833 H 0.50507 0.87288 0.92134 0.0
H834 H 0.5686 0.94472 0.91589 0.0
H835 H 0.54782 0.9573 0.9593 0.0
H836 H 0.56791 0.94048 0.9945 0.0
H837 H 0.49017 0.88716 0.83484 0.0
H838 H 0.48833 0.91644 0.83531 0.0
H839 H 0.50922 0.90348 0.79348 0.0
H840 H 0.49986 0.98771 0.82141 0.0
H841 H 0.55181 0.95883 0.72311 0.0
H842 H 0.4873 0.94439 0.91187 0.0
H843 H 0.48769 0.97372 0.91203 0.0
H844 H 0.50771 0.95864 0.95293 0.0
H845 H 0.56937 0.92174 0.82927 0.0
H846 H 0.56812 0.92597 0.75061 0.0
H847 H 0.5494 0.90758 0.7864 0.0
C848 C 0.64622 0.54251 0.94764 0.0
C849 C 0.6397 0.54176 1.00714 0.0
C850 C 0.63087 0.54248 0.90134 0.0
C851 C 0.60831 0.54159 0.91429 0.0
C852 C 0.60158 0.5413 0.97412 0.0
C853 C 0.61726 0.54147 0.01954 0.0
C854 C 0.63885 0.54274 0.83834 0.0
C855 C 0.57776 0.54033 0.99019 0.0
C856 C 0.56707 0.55505 0.79245 0.0
C857 C 0.56156 0.53427 0.77134 0.0
C858 C 0.58215 0.55777 0.83903 0.0
C859 C 0.59188 0.53928 0.8654 0.0
C860 C 0.586 0.51829 0.84473 0.0
C861 C 0.57103 0.51609 0.79827 0.0
C862 C 0.58788 0.58043 0.85957 0.0
C863 C 0.59561 0.49805 0.87152 0.0
H864 H 0.6634 0.54248 0.93699 0.0
H865 H 0.61186 0.54133 0.06505 0.0
H866 H 0.63444 0.52721 0.81625 0.0
H867 H 0.63086 0.55601 0.81351 0.0
H868 H 0.65676 0.54499 0.8354 0.0
H869 H 0.57509 0.54048 0.03867 0.0
H870 H 0.56911 0.55435 0.97066 0.0
H871 H 0.57026 0.52534 0.97164 0.0
H872 H 0.55984 0.56918 0.77199 0.0
H873 H 0.56662 0.49992 0.78317 0.0
H874 H 0.60555 0.58342 0.85331 0.0
H875 H 0.58444 0.58213 0.9074 0.0
H876 H 0.5787 0.5931 0.83539 0.0
H877 H 0.61354 0.4982 0.86584 0.0
H878 H 0.58902 0.48291 0.85127 0.0
H879 H 0.59224 0.49766 0.9196 0.0
C880 C 1.00771 0.61964 0.02684 0.0
C881 C 1.00073 0.64106 0.01639 0.0
C882 C 1.00829 0.60395 0.98129 0.0
C883 C 1.00201 0.60971 0.9233 0.0
C884 C 0.99461 0.63112 0.91254 0.0
C885 C 0.99399 0.64644 0.95897 0.0
C886 C 0.01569 0.58116 0.99514 0.0
C887 C 0.98745 0.63789 0.85168 0.0
C888 C 0.02522 0.5773 0.79382 0.0
C889 C 1.00755 0.56415 0.77676 0.0
C890 C 0.0236 0.59205 0.84121 0.0
C891 C 1.00391 0.59361 0.8735 0.0
C892 C 0.9861 0.58008 0.85722 0.0
C893 C 0.988 0.56589 0.80845 0.0
C894 C 0.04298 0.60617 0.85635 0.0
C895 C 0.96479 0.58068 0.89021 0.0
H896 H 0.01317 0.61516 0.07053 0.0
H897 H 0.98808 0.66267 0.95019 0.0
H898 H 1.00301 0.56925 0.98155 0.0
H899 H 0.03062 0.57735 0.96965 0.0
H900 H 0.01916 0.57892 0.04281 0.0
H901 H 0.98223 0.65515 0.8502 0.0
H902 H 1.00095 0.63557 0.81976 0.0
H903 H 0.97371 0.62744 0.83693 0.0
H904 H 0.04041 0.57618 0.76975 0.0
H905 H 0.97405 0.55625 0.79499 0.0
H906 H 0.04789 0.60342 0.90278 0.0
H907 H 0.03854 0.62358 0.85228 0.0
H908 H 0.05717 0.60291 0.82731 0.0
H909 H 0.96695 0.58518 0.93726 0.0
H910 H 0.95644 0.56464 0.88806 0.0
H911 H 0.95404 0.5929 0.86942 0.0
C912 C 0.07242 0.17941 0.27224 0.0
C913 C 0.06039 0.19095 0.23032 0.0
C914 C 0.06213 0.16456 0.31022 0.0
C915 C 0.0393 0.16172 0.3068 0.0
C916 C 0.02736 0.17233 0.26214 0.0
C917 C 0.03809 0.18667 0.22416 0.0
C918 C 0.07546 0.15295 0.35612 0.0
C919 C 1.00295 0.16989 0.25733 0.0
C920 C 1.00738 0.11709 0.38225 0.0
C921 C 0.99951 0.12787 0.43275 0.0
C922 C 0.02157 0.12744 0.34286 0.0
C923 C 0.02738 0.14939 0.35279 0.0
C924 C 0.01981 0.16033 0.40391 0.0
C925 C 1.00619 0.14934 0.44364 0.0
C926 C 0.02979 0.11511 0.28964 0.0
C927 C 0.02548 0.18389 0.41555 0.0
H928 H 0.08967 0.18269 0.27694 0.0
H929 H 0.02864 0.19583 0.19254 0.0
H930 H 0.07243 0.16035 0.40004 0.0
H931 H 0.07067 0.13555 0.35877 0.0
H932 H 0.09316 0.15402 0.34661 0.0
H933 H 0.99633 0.17813 0.21771 0.0
H934 H 0.99828 0.15246 0.25543 0.0
H935 H 0.99513 0.177 0.29707 0.0
H936 H 1.00208 0.10065 0.37243 0.0
H937 H 1.00063 0.15767 0.48302 0.0
H938 H 0.04771 0.1168 0.28599 0.0
H939 H 0.02264 0.122 0.24892 0.0
H940 H 0.02559 0.09753 0.29157 0.0
H941 H 0.04337 0.18619 0.41533 0.0
H942 H 0.01899 0.18976 0.45847 0.0
H943 H 0.01873 0.19417 0.3799 0.0
C944 C 0.35741 0.0304 0.16174 0.0
C945 C 0.35171 0.05074 0.18538 0.0
C946 C 0.37394 0.01799 0.1872 0.0
C947 C 0.38486 0.02607 0.2376 0.0
C948 C 0.38078 0.0475 0.2577 0.0
C949 C 0.36427 0.05964 0.2311 0.0
C950 C 0.37817 0.9954 0.16367 0.0
C951 C 0.39237 0.05684 0.31079 0.0
C952 C 0.39972 0.98668 0.35877 0.0
C953 C 0.42237 0.98589 0.35335 0.0
C954 C 0.38729 0.99923 0.32003 0.0
C955 C 0.39781 1.01112 0.27466 0.0
C956 C 0.42056 1.00949 0.26708 0.0
C957 C 0.4326 0.9969 0.30671 0.0
C958 C 0.363 1.00053 0.32939 0.0
C959 C 0.43228 0.02171 0.2188 0.0
H960 H 0.34776 0.02331 0.12655 0.0
H961 H 0.36021 0.07553 0.24869 0.0
H962 H 0.39583 0.99185 0.16311 0.0
H963 H 0.37022 0.9833 0.19293 0.0
H964 H 0.3716 0.9932 0.11839 0.0
H965 H 0.38961 0.0746 0.31559 0.0
H966 H 0.38634 0.04865 0.35124 0.0
H967 H 0.41011 0.05389 0.30784 0.0
H968 H 0.39182 0.97837 0.39512 0.0
H969 H 0.45014 0.99611 0.30217 0.0
H970 H 0.35431 0.99616 0.28813 0.0
H971 H 0.35843 0.01747 0.34093 0.0
H972 H 0.35726 0.98959 0.36513 0.0
H973 H 0.4239 0.01937 0.17591 0.0
H974 H 0.44946 0.01648 0.21413 0.0
H975 H 0.43211 0.03937 0.22886 0.0
C976 C 0.46604 0.31826 0.43744 0.0
C977 C 0.47994 0.3037 0.40824 0.0
C978 C 0.47424 0.33304 0.47925 0.0
C979 C 0.49673 0.33296 0.49241 0.0
C980 C 0.50997 0.31604 0.47031 0.0
C981 C 0.50144 0.30164 0.4282 0.0
C982 C 0.45942 0.35041 0.5034 0.0
C983 C 0.53389 0.31494 0.48476 0.0
C984 C 0.52604 0.38712 0.49657 0.0
C985 C 0.53066 0.38961 0.55668 0.0
C986 C 0.51443 0.36905 0.47576 0.0
C987 C 0.50728 0.35293 0.51605 0.0
C988 C 0.51141 0.35555 0.57704 0.0
C989 C 0.52317 0.37384 0.59659 0.0
C990 C 0.51032 0.36698 0.41022 0.0
C991 C 0.50404 0.33885 0.62151 0.0
H992 H 0.44921 0.31946 0.42373 0.0
H993 H 0.51239 0.29039 0.40653 0.0
H994 H 0.46331 0.35413 0.55015 0.0
H995 H 0.46177 0.36557 0.47767 0.0
H996 H 0.44204 0.34552 0.50015 0.0
H997 H 0.54083 0.29877 0.47381 0.0
H998 H 0.54278 0.32745 0.45887 0.0
H999 H 0.53675 0.31839 0.53217 0.0
H1000 H 0.53202 0.39907 0.46539 0.0
H1001 H 0.52648 0.37577 0.64315 0.0
H1002 H 0.49267 0.36486 0.40171 0.0
H1003 H 0.5187 0.35238 0.3927 0.0
H1004 H 0.51615 0.38141 0.38531 0.0
H1005 H 0.48757 0.33255 0.61086 0.0
H1006 H 0.5039 0.34561 0.66704 0.0
H1007 H 0.51538 0.32487 0.62054 0.0
C1008 C 0.16699 0.50362 0.1752 0.0
C1009 C 0.17593 0.48599 0.20588 0.0
C1010 C 0.14977 0.51558 0.19922 0.0
C1011 C 0.14162 0.50994 0.25548 0.0
C1012 C 0.14857 0.49051 0.28281 0.0
C1013 C 0.16556 0.47861 0.25726 0.0
C1014 C 0.14225 0.53576 0.16766 0.0
C1015 C 0.14004 0.48373 0.34249 0.0
C1016 C 0.13101 0.55689 0.35966 0.0
C1017 C 0.10831 0.55685 0.36292 0.0
C1018 C 0.14194 0.54179 0.32423 0.0
C1019 C 0.12981 0.52644 0.29076 0.0
C1020 C 0.10683 0.52675 0.2924 0.0
C1021 C 0.09633 0.54196 0.32873 0.0
C1022 C 0.16653 0.54187 0.32402 0.0
C1023 C 0.09341 0.51093 0.25646 0.0
H1024 H 0.17472 0.5095 0.1353 0.0
H1025 H 0.17192 0.46457 0.2802 0.0
H1026 H 0.12448 0.53809 0.173 0.0
H1027 H 0.15056 0.55019 0.18688 0.0
H1028 H 0.14617 0.53509 0.11982 0.0
H1029 H 0.14389 0.46648 0.35231 0.0
H1030 H 0.14764 0.4941 0.37702 0.0
H1031 H 0.12219 0.48596 0.34542 0.0
H1032 H 0.14027 0.56819 0.38666 0.0
H1033 H 0.07871 0.54207 0.33094 0.0
H1034 H 0.17268 0.54432 0.2785 0.0
H1035 H 0.17265 0.52592 0.33948 0.0
H1036 H 0.17346 0.55484 0.35273 0.0
H1037 H 0.09715 0.51294 0.2089 0.0
H1038 H 0.07567 0.51321 0.26321 0.0
H1039 H 0.09761 0.49397 0.26826 0.0
C1040 C 1.00005 0.86283 1.01017 0.0
C1041 C 0.98251 0.8489 0.99739 0.0
C1042 C 1.00709 0.87837 0.96916 0.0
C1043 C 0.99674 0.87956 0.91357 0.0
C1044 C 0.97764 0.86728 0.90298 0.0
C1045 C 0.97052 0.85235 0.94555 0.0
C1046 C 0.02694 0.89198 0.98313 0.0
C1047 C 0.96606 0.86814 0.84437 0.0
C1048 C 0.01577 0.92208 0.8034 0.0
C1049 C 0.0326 0.91093 0.77419 0.0
C1050 C 1.00391 0.91224 0.84913 0.0
C1051 C 1.00816 0.89034 0.86381 0.0
C1052 C 0.02423 0.87862 0.83233 0.0
C1053 C 0.03649 0.88915 0.78881 0.0
C1054 C 0.98719 0.92545 0.88217 0.0
C1055 C 0.02896 0.85505 0.84578 0.0
H1056 H 1.00945 0.86052 0.05002 0.0
H1057 H 0.95643 0.84226 0.93623 0.0
H1058 H 0.04125 0.88522 0.95963 0.0
H1059 H 0.02472 0.90896 0.96788 0.0
H1060 H 0.03054 0.8922 0.03114 0.0
H1061 H 0.9498 0.86021 0.84623 0.0
H1062 H 0.96406 0.88517 0.82964 0.0
H1063 H 0.97599 0.85963 0.81059 0.0
H1064 H 0.012 0.93866 0.79123 0.0
H1065 H 0.04957 0.88039 0.76748 0.0
H1066 H 0.98859 0.92287 0.93044 0.0
H1067 H 0.97065 0.92018 0.86875 0.0
H1068 H 0.98886 0.94313 0.87307 0.0
H1069 H 0.03593 0.85369 0.89073 0.0
H1070 H 0.04061 0.84779 0.81391 0.0
H1071 H 0.0137 0.84534 0.84488 0.0
C1072 C 0.66888 1.00064 0.0146 0.0
C1073 C 0.67679 0.98181 0.04148 0.0
C1074 C 0.64707 1.0023 0.99814 0.0
C1075 C 0.6328 0.98457 1.00839 0.0
C1076 C 0.64071 0.96532 0.03469 0.0
C1077 C 0.66267 0.96423 0.05155 0.0
C1078 C 0.63921 0.02323 0.97081 0.0
C1079 C 0.62596 0.94601 0.04526 0.0
C1080 C 0.57439 1.00277 0.0173 0.0
C1081 C 0.56793 1.0006 0.95838 0.0
C1082 C 0.59511 0.99619 0.03531 0.0
C1083 C 0.60947 0.98692 0.99345 0.0
C1084 C 0.60233 0.98311 0.93496 0.0
C1085 C 0.58171 0.99033 0.91784 0.0
C1086 C 0.60221 1.00082 0.09787 0.0
C1087 C 0.61691 0.97265 0.88952 0.0
H1088 H 0.67973 0.01436 1.0076 0.0
H1089 H 0.66886 0.94962 0.07209 0.0
H1090 H 0.63214 0.01991 0.92668 0.0
H1091 H 0.62619 0.03041 0.99854 0.0
H1092 H 0.65246 0.03543 0.96582 0.0
H1093 H 0.63495 0.93176 0.06252 0.0
H1094 H 0.61309 0.95043 0.07738 0.0
H1095 H 0.61769 0.94124 1.00366 0.0
H1096 H 0.56375 1.01084 0.04854 0.0
H1097 H 0.57647 0.98828 0.87247 0.0
H1098 H 0.61438 0.01422 0.09785 0.0
H1099 H 0.61012 0.98636 0.11733 0.0
H1100 H 0.58838 1.00568 0.12653 0.0
H1101 H 0.62937 0.98459 0.87492 0.0
H1102 H 0.60763 0.9671 0.85017 0.0
H1103 H 0.62557 0.95854 0.90858 0.0
C1104 C 0.50719 0.72279 0.86609 0.0
C1105 C 0.52964 0.72469 0.87592 0.0
C1106 C 0.49889 0.70749 0.82604 0.0
C1107 C 0.51341 0.69383 0.79488 0.0
C1108 C 0.5361 0.69734 0.79959 0.0
C1109 C 0.54399 0.7127 0.84038 0.0
C1110 C 0.47455 0.70442 0.82198 0.0
C1111 C 0.55207 0.68357 0.76559 0.0
C1112 C 0.49057 0.63699 0.77827 0.0
C1113 C 0.48157 0.63769 0.72158 0.0
C1114 C 0.50208 0.6548 0.80127 0.0
C1115 C 0.5048 0.67375 0.76656 0.0
C1116 C 0.49697 0.67406 0.70795 0.0
C1117 C 0.48522 0.6561 0.68637 0.0
C1118 C 0.51014 0.65379 0.86414 0.0
C1119 C 0.49999 0.69371 0.66903 0.0
H1120 H 0.49593 0.73184 0.89349 0.0
H1121 H 0.56137 0.71439 0.84702 0.0
H1122 H 0.46935 0.70301 0.77531 0.0
H1123 H 0.46984 0.6891 0.84452 0.0
H1124 H 0.46555 0.71805 0.84292 0.0
H1125 H 0.56845 0.69125 0.76399 0.0
H1126 H 0.55359 0.6675 0.7873 0.0
H1127 H 0.54633 0.68066 0.71983 0.0
H1128 H 0.48763 0.62296 0.80602 0.0
H1129 H 0.47845 0.6567 0.64238 0.0
H1130 H 0.50111 0.66568 0.89166 0.0
H1131 H 0.52762 0.65827 0.86619 0.0
H1132 H 0.50802 0.63738 0.88372 0.0
H1133 H 0.48826 0.70648 0.68227 0.0
H1134 H 0.49719 0.68973 0.62178 0.0
H1135 H 0.51659 0.70063 0.67396 0.0
C1136 C 0.84162 0.5613 0.92555 0.0
C1137 C 0.84651 0.55782 0.98531 0.0
C1138 C 0.85543 0.55375 0.88083 0.0
C1139 C 0.87439 0.54218 0.89623 0.0
C1140 C 0.88053 0.54054 0.9562 0.0
C1141 C 0.86656 0.54853 1.00009 0.0
C1142 C 0.84857 0.5563 0.81731 0.0
C1143 C 0.9008 0.52854 0.97432 0.0
C1144 C 0.88808 0.4942 0.79826 0.0
C1145 C 0.90641 0.5018 0.76789 0.0
C1146 C 0.87761 0.50725 0.84014 0.0
C1147 C 0.88545 0.5286 0.85114 0.0
C1148 C 0.90367 0.53658 0.81965 0.0
C1149 C 0.91413 0.52295 0.77883 0.0
C1150 C 0.85836 0.49802 0.87336 0.0
C1151 C 0.91199 0.55948 0.82869 0.0
H1152 H 0.82617 0.56835 0.91328 0.0
H1153 H 0.87075 0.54631 0.0461 0.0
H1154 H 0.86274 0.56018 0.78882 0.0
H1155 H 0.84143 0.54076 0.80127 0.0
H1156 H 0.83619 0.56926 0.81215 0.0
H1157 H 0.9049 0.53136 0.02145 0.0
H1158 H 0.89827 0.51082 0.96744 0.0
H1159 H 0.91487 0.53354 0.94677 0.0
H1160 H 0.88232 0.47774 0.79054 0.0
H1161 H 0.92831 0.52885 0.75532 0.0
H1162 H 0.84377 0.50815 0.86551 0.0
H1163 H 0.86167 0.49834 0.92147 0.0
H1164 H 0.85454 0.48102 0.86009 0.0
H1165 H 0.8995 0.57122 0.81399 0.0
H1166 H 0.92723 0.56266 0.8037 0.0
H1167 H 0.91497 0.56267 0.87618 0.0
C1168 C 0.0365 0.164 0.89273 0.0
C1169 C 0.03148 0.18341 0.86309 0.0
C1170 C 0.03506 0.14355 0.86421 0.0
C1171 C 0.02846 0.14226 0.80434 0.0
C1172 C 0.0234 0.16175 0.77418 0.0
C1173 C 0.02493 0.18194 0.80373 0.0
C1174 C 0.04084 0.12331 0.89809 0.0
C1175 C 0.01621 0.16129 0.71052 0.0
C1176 C 0.04187 0.09172 0.71147 0.0
C1177 C 0.02212 0.08021 0.71198 0.0
C1178 C 0.04429 0.11168 0.74183 0.0
C1179 C 0.02645 0.12059 0.77338 0.0
C1180 C 1.00643 0.10901 0.77389 0.0
C1181 C 1.00449 0.08912 0.74308 0.0
C1182 C 0.06593 0.12332 0.7398 0.0
C1183 C 0.98699 0.11763 0.80709 0.0
H1184 H 0.04186 0.16478 0.9382 0.0
H1185 H 0.0206 0.19663 0.78033 0.0
H1186 H 0.02751 0.11113 0.895 0.0
H1187 H 0.05554 0.11585 0.87834 0.0
H1188 H 0.04413 0.12676 0.94538 0.0
H1189 H 0.01327 0.17784 0.69281 0.0
H1190 H 0.02874 0.15325 0.68289 0.0
H1191 H 1.00102 0.15161 0.7062 0.0
H1192 H 0.05539 0.08529 0.68639 0.0
H1193 H 0.98915 0.08038 0.74395 0.0
H1194 H 0.07234 0.12546 0.78518 0.0
H1195 H 0.06388 0.13978 0.72076 0.0
H1196 H 0.07817 0.11435 0.71321 0.0
H1197 H 0.99123 0.12017 0.85418 0.0
H1198 H 0.97276 0.10645 0.80455 0.0
H1199 H 0.98223 0.13365 0.78895 0.0
C1200 C 0.35744 0.04975 0.82602 0.0
C1201 C 0.34951 0.03197 0.85864 0.0
C1202 C 0.37789 0.04913 0.79767 0.0
C1203 C 0.39092 0.03021 0.80141 0.0
C1204 C 0.38305 0.01221 0.83425 0.0
C1205 C 0.36259 0.01332 0.86246 0.0
C1206 C 0.38561 0.06883 0.76389 0.0
C1207 C 0.39624 0.99166 0.83939 0.0
C1208 C 0.43592 0.02142 0.68607 0.0
C1209 C 0.45472 0.02788 0.71684 0.0
C1210 C 0.41516 0.02204 0.71288 0.0
C1211 C 0.41293 0.02944 0.77198 0.0
C1212 C 0.43181 0.03613 0.80306 0.0
C1213 C 0.45233 0.03524 0.77535 0.0
C1214 C 0.39558 0.01463 0.678 0.0
C1215 C 0.43038 0.0442 0.86592 0.0
H1216 H 0.34773 0.06437 0.82321 0.0
H1217 H 0.35664 0.99934 0.88671 0.0
H1218 H 0.40112 0.07492 0.78287 0.0
H1219 H 0.38888 0.06433 0.71729 0.0
H1220 H 0.37356 0.08223 0.7647 0.0
H1221 H 0.38782 0.97899 0.86587 0.0
H1222 H 0.39965 0.98496 0.79483 0.0
H1223 H 0.41216 0.99534 0.86025 0.0
H1224 H 0.4374 0.01567 0.64101 0.0
H1225 H 0.46656 0.04032 0.79999 0.0
H1226 H 0.38365 0.02805 0.67482 0.0
H1227 H 0.38739 1.00096 0.70105 0.0
H1228 H 0.39995 1.00924 0.63271 0.0
H1229 H 0.41946 0.05848 0.86837 0.0
H1230 H 0.44652 0.04892 0.88403 0.0
H1231 H 0.42325 0.03138 0.89444 0.0
C1232 C 0.52393 0.36489 0.82954 0.0
C1233 C 0.50792 0.35961 0.87151 0.0
C1234 C 0.52439 0.38532 0.80163 0.0
C1235 C 0.50851 0.40117 0.81577 0.0
C1236 C 0.49239 0.39601 0.85836 0.0
C1237 C 0.4923 0.37542 0.88564 0.0
C1238 C 0.54238 0.39001 0.75817 0.0
C1239 C 0.47566 0.41248 0.87712 0.0
C1240 C 0.52417 0.45964 0.77588 0.0
C1241 C 0.51217 0.46307 0.72424 0.0
C1242 C 0.52233 0.44005 0.80763 0.0
C1243 C 0.50889 0.42301 0.7859 0.0
C1244 C 0.49673 0.42649 0.73354 0.0
C1245 C 0.49819 0.44662 0.70404 0.0
C1246 C 0.53495 0.43755 0.86416 0.0
C1247 C 0.48269 0.40867 0.70775 0.0
H1248 H 0.53645 0.35314 0.81912 0.0
H1249 H 0.47982 0.37165 0.91786 0.0
H1250 H 0.53665 0.40058 0.72195 0.0
H1251 H 0.5558 0.39866 0.78113 0.0
H1252 H 0.54908 0.37481 0.73895 0.0
H1253 H 0.46171 0.40478 0.90036 0.0
H1254 H 0.48348 0.42421 0.90781 0.0
H1255 H 0.46939 0.42171 0.83886 0.0
H1256 H 0.53481 0.47246 0.79192 0.0
H1257 H 0.48899 0.44922 0.66393 0.0
H1258 H 0.54771 0.42504 0.85822 0.0
H1259 H 0.524 0.43192 0.90001 0.0
H1260 H 0.54287 0.453 0.87819 0.0
H1261 H 0.4928 0.39418 0.69804 0.0
H1262 H 0.47446 0.41378 0.66649 0.0
H1263 H 0.47013 0.40368 0.74025 0.0
C1264 C 0.1592 0.50326 0.8947 0.0
C1265 C 0.17761 0.51298 0.86886 0.0
C1266 C 0.13868 0.50367 0.86663 0.0
C1267 C 0.13647 0.51355 0.81043 0.0
C1268 C 0.15511 0.52302 0.78373 0.0
C1269 C 0.17528 0.52279 0.81332 0.0
C1270 C 0.11941 0.49343 0.89721 0.0
C1271 C 0.15376 0.53343 0.72365 0.0
C1272 C 0.08805 0.49914 0.71052 0.0
C1273 C 0.07475 0.51748 0.71664 0.0
C1274 C 0.10791 0.49744 0.74134 0.0
C1275 C 0.11471 0.51444 0.77977 0.0
C1276 C 0.10104 0.53279 0.78699 0.0
C1277 C 0.08142 0.53418 0.75502 0.0
C1278 C 0.12181 0.47757 0.73199 0.0
C1279 C 0.10714 0.55103 0.82858 0.0
H1280 H 0.16073 0.49572 0.93763 0.0
H1281 H 0.1894 0.53009 0.79248 0.0
H1282 H 0.10498 0.50417 0.89482 0.0
H1283 H 0.1152 0.47796 0.87465 0.0
H1284 H 0.12284 0.48983 0.94426 0.0
H1285 H 0.16981 0.53944 0.70793 0.0
H1286 H 0.14731 0.52153 0.69107 0.0
H1287 H 0.1423 0.54731 0.72504 0.0
H1288 H 0.08314 0.48628 0.6805 0.0
H1289 H 0.07115 0.54831 0.76058 0.0
H1290 H 0.12427 0.46911 0.77456 0.0
H1291 H 0.13808 0.48248 0.71536 0.0
H1292 H 0.1144 0.46591 0.70021 0.0
H1293 H 0.11014 0.54445 0.87335 0.0
H1294 H 0.0943 0.56364 0.83159 0.0
H1295 H 0.12245 0.55887 0.81355 0.0
C1296 C 0.98904 0.86941 0.4361 0.0
C1297 C 1.00717 0.85573 0.43022 0.0
C1298 C 0.99026 0.88915 0.46797 0.0
C1299 C 1.01009 0.89562 0.49492 0.0
C1300 C 0.02838 0.88178 0.48963 0.0
C1301 C 0.02668 0.86209 0.45776 0.0
C1302 C 0.97044 0.90345 0.47114 0.0
C1303 C 0.04978 0.88758 0.51818 0.0
C1304 C 0.01929 0.9565 0.52046 0.0
C1305 C 0.01353 0.95924 0.57994 0.0
C1306 C 0.01834 0.93601 0.49269 0.0
C1307 C 0.01198 0.91741 0.52533 0.0
C1308 C 1.00715 0.91987 0.5863 0.0
C1309 C 1.00792 0.94073 0.61282 0.0
C1310 C 0.02391 0.93434 0.42797 0.0
C1311 C 1.00072 0.90053 0.62328 0.0
H1312 H 0.97392 0.86493 0.41464 0.0
H1313 H 0.0407 0.85152 0.45493 0.0
H1314 H 0.96722 0.9085 0.51736 0.0
H1315 H 0.97347 0.91842 0.44518 0.0
H1316 H 0.95569 0.89526 0.45338 0.0
H1317 H 0.06323 0.87702 0.50254 0.0
H1318 H 0.05421 0.90479 0.5095 0.0
H1319 H 0.0482 0.88559 0.56655 0.0
H1320 H 0.02448 0.97051 0.49519 0.0
H1321 H 1.00369 0.94258 0.65899 0.0
H1322 H 1.00963 0.92816 0.40306 0.0
H1323 H 0.03733 0.92257 0.42136 0.0
H1324 H 0.02889 0.95025 0.40899 0.0
H1325 H 0.98527 0.89349 0.60644 0.0
H1326 H 0.99853 0.90489 0.67052 0.0
H1327 H 0.01328 0.8877 0.61985 0.0
C1328 C 0.67538 0.03171 0.46265 0.0
C1329 C 0.68121 0.01345 0.42859 0.0
C1330 C 0.65549 0.03254 0.49366 0.0
C1331 C 0.64086 0.01467 0.49112 0.0
C1332 C 0.64663 0.99616 0.45708 0.0
C1333 C 0.66661 0.9958 0.42619 0.0
C1334 C 0.64998 0.05274 0.52862 0.0
C1335 C 0.63165 0.97669 0.4532 0.0
C1336 C 0.59602 1.00974 0.60875 0.0
C1337 C 0.57777 0.01749 0.57846 0.0
C1338 C 0.61662 1.00872 0.5811 0.0
C1339 C 0.61913 0.01576 0.52183 0.0
C1340 C 0.60076 0.0239 0.49156 0.0
C1341 C 0.58041 0.02454 0.51999 0.0
C1342 C 0.63567 0.99985 0.6151 0.0
C1343 C 0.60252 0.03188 0.42881 0.0
H1344 H 0.68628 0.0456 0.46438 0.0
H1345 H 0.67093 0.9815 0.4008 0.0
H1346 H 0.63495 0.06018 0.5109 0.0
H1347 H 0.64669 0.04844 0.57529 0.0
H1348 H 0.66325 0.06506 0.5274 0.0
H1349 H 0.63873 0.96326 0.42662 0.0
H1350 H 0.62797 0.97052 0.49808 0.0
H1351 H 0.61597 0.9815 0.43301 0.0
H1352 H 0.5941 1.00406 0.65367 0.0
H1353 H 0.56645 0.03064 0.49621 0.0
H1354 H 0.64889 0.01217 0.61715 0.0
H1355 H 0.64228 0.98537 0.59203 0.0
H1356 H 0.63115 0.99517 0.66081 0.0
H1357 H 0.61501 0.04492 0.42581 0.0
H1358 H 0.58686 0.03831 0.41197 0.0
H1359 H 0.60783 0.01841 0.39956 0.0
C1360 C 0.53278 0.68087 0.48247 0.0
C1361 C 0.52785 0.68259 0.42207 0.0
C1362 C 0.53192 0.66072 0.51192 0.0
C1363 C 0.52606 0.6416 0.48051 0.0
C1364 C 0.52112 0.64315 0.41961 0.0
C1365 C 0.52205 0.66353 0.39126 0.0
C1366 C 0.53736 0.65987 0.5768 0.0
C1367 C 0.51465 0.62327 0.38438 0.0
C1368 C 0.54223 0.58615 0.54229 0.0
C1369 C 0.52304 0.57926 0.57001 0.0
C1370 C 0.54353 0.60639 0.51355 0.0
C1371 C 0.52501 0.62003 0.5115 0.0
C1372 C 0.50551 0.61304 0.53935 0.0
C1373 C 0.50485 0.59289 0.5689 0.0
C1374 C 0.56472 0.6131 0.48508 0.0
C1375 C 0.48512 0.62652 0.53626 0.0
H1376 H 0.53759 0.6953 0.50682 0.0
H1377 H 0.51785 0.66455 0.34497 0.0
H1378 H 0.52356 0.65268 0.60173 0.0
H1379 H 0.55163 0.6492 0.58377 0.0
H1380 H 0.54107 0.6762 0.59544 0.0
H1381 H 0.51157 0.62709 0.33728 0.0
H1382 H 0.52764 0.61085 0.38676 0.0
H1383 H 0.49972 0.61591 0.40344 0.0
H1384 H 0.5564 0.57584 0.54405 0.0
H1385 H 0.48989 0.58749 0.5897 0.0
H1386 H 0.56983 0.62937 0.50141 0.0
H1387 H 0.56251 0.61437 0.43666 0.0
H1388 H 0.57798 0.60134 0.49389 0.0
H1389 H 0.48867 0.64375 0.54735 0.0
H1390 H 0.47221 0.62032 0.56612 0.0
H1391 H 0.47875 0.62617 0.49051 0.0
C1392 C 0.85809 0.50899 0.45785 0.0
C1393 C 0.85222 0.52801 0.4274 0.0
C1394 C 0.87778 0.50766 0.48973 0.0
C1395 C 0.89215 0.52576 0.49175 0.0
C1396 C 0.88618 0.54507 0.46193 0.0
C1397 C 0.86647 0.54594 0.43019 0.0
C1398 C 0.88329 0.48677 0.52101 0.0
C1399 C 0.90098 0.56469 0.4618 0.0
C1400 C 0.93715 0.52943 0.60923 0.0
C1401 C 0.95563 0.52324 0.57706 0.0
C1402 C 0.91638 0.53006 0.58258 0.0
C1403 C 0.9139 0.52421 0.52223 0.0
C1404 C 0.9325 0.5174 0.49019 0.0
C1405 C 0.95297 0.51692 0.51794 0.0
C1406 C 0.89713 0.53728 0.6189 0.0
C1407 C 0.93087 0.51086 0.42609 0.0
H1408 H 0.84718 0.49511 0.45724 0.0
H1409 H 0.86247 0.56064 0.40639 0.0
H1410 H 0.89913 0.48049 0.50496 0.0
H1411 H 0.88502 0.48991 0.56896 0.0
H1412 H 0.87069 0.47399 0.51442 0.0
H1413 H 0.89282 0.57938 0.44419 0.0
H1414 H 0.90696 0.56831 0.50697 0.0
H1415 H 0.91531 0.56113 0.43374 0.0
H1416 H 0.93904 0.53435 0.65483 0.0
H1417 H 0.967 0.51157 0.49303 0.0
H1418 H 0.88596 0.52329 0.62576 0.0
H1419 H 0.88792 0.55006 0.59534 0.0
H1420 H 0.90206 0.54371 0.66276 0.0
H1421 H 0.91859 0.49772 0.42066 0.0
H1422 H 0.94664 0.50514 0.408 0.0
H1423 H 0.92537 0.52491 0.39952 0.0
loop_
_geom_bond_atom_site_label_1
_geom_bond_atom_site_label_2
_geom_bond_distance
_geom_bond_site_symmetry_2
_ccdc_geom_bond_type
C0 C1 1.264 . S
C0 C5 1.479 . S
C0 C10 1.465 . S
C1 C0 1.264 . S
C1 C3 1.339 . S
C1 H28 0.931 . S
C2 C3 1.395 . S
C2 C4 1.320 . S
C3 C1 1.339 . S
C3 C2 1.395 . S
C3 H29 0.929 . S
C4 C2 1.320 . S
C4 C5 1.405 . S
C4 H30 0.930 . S
C5 C0 1.479 . S
C5 C4 1.405 . S
C5 H31 0.931 . S
U6 O7 2.454 . S
U6 O8 2.458 . S
U6 C9 2.984 . S
U6 C10 2.847 . S
U6 C23 2.882 . S
U6 O24 2.441 . S
U6 O25 2.420 . S
U6 O26 2.455 . S
U6 O27 2.449 . S
O7 U6 2.454 . S
O7 C9 1.353 . S
O8 U6 2.458 . S
O8 C9 1.286 . S
C9 U6 2.984 . S
C9 O7 1.353 . S
C9 O8 1.286 . S
C9 C11 1.363 . S
C10 C0 1.465 . S
C10 U6 2.847 . S
C10 O24 1.249 . S
C10 O25 1.202 . S
C11 C9 1.363 . S
C11 C13 1.408 . S
C11 C16 1.342 . S
C12 C13 1.310 . S
C12 C15 1.461 . S
C12 H32 0.932 . S
C13 C11 1.408 . S
C13 C12 1.310 . S
C13 H33 0.930 . S
C14 C15 1.474 . S
C14 C16 1.285 . S
C14 H34 0.929 . S
C15 C12 1.461 . S
C15 C14 1.474 . S
C16 C11 1.342 . S
C16 C14 1.285 . S
C16 H35 0.930 . S
C17 C20 1.424 . S
C17 C22 1.245 . S
C17 C23 1.428 . S
C18 C21 1.260 . S
C18 C22 1.477 1_556 S
C18 H36 0.932 . S
C19 C20 1.384 . S
C19 C21 1.479 1_554 S
C19 H37 0.929 . S
C20 C17 1.424 . S
C20 C19 1.384 . S
C20 H38 0.928 . S
C21 C18 1.260 . S
C21 C19 1.479 1_556 S
C22 C17 1.245 . S
C22 C18 1.477 1_554 S
C22 H39 0.932 . S
C23 U6 2.882 . S
C23 C17 1.428 . S
C23 O26 1.301 . S
C23 O27 1.282 . S
O24 U6 2.441 . S
O24 C10 1.249 . S
O25 U6 2.420 . S
O25 C10 1.202 . S
O26 U6 2.455 . S
O26 C23 1.301 . S
O27 U6 2.449 . S
O27 C23 1.282 . S
H28 C1 0.931 . S
H29 C3 0.929 . S
H30 C4 0.930 . S
H31 C5 0.931 . S
H32 C12 0.932 . S
H33 C13 0.930 . S
H34 C14 0.929 . S
H35 C16 0.930 . S
H36 C18 0.932 . S
H37 C19 0.929 . S
H38 C20 0.928 . S
H39 C22 0.932 . S
C40 C41 1.264 . S
C40 C45 1.479 . S
C40 C50 1.465 . S
C41 C40 1.264 . S
C41 C43 1.339 . S
C41 H68 0.931 . S
C42 C43 1.395 . S
C42 C44 1.320 . S
C43 C41 1.339 . S
C43 C42 1.395 . S
C43 H69 0.929 . S
C44 C42 1.320 . S
C44 C45 1.405 . S
C44 H70 0.930 . S
C45 C40 1.479 . S
C45 C44 1.405 . S
C45 H71 0.931 . S
U46 O47 2.454 . S
U46 O48 2.458 . S
U46 C49 2.984 . S
U46 C50 2.847 . S
U46 C63 2.882 . S
U46 O64 2.441 . S
U46 O65 2.420 . S
U46 O66 2.455 . S
U46 O67 2.449 . S
O47 U46 2.454 . S
O47 C49 1.353 . S
O48 U46 2.458 . S
O48 C49 1.286 . S
C49 U46 2.984 . S
C49 O47 1.353 . S
C49 O48 1.286 . S
C49 C51 1.363 . S
C50 C40 1.465 . S
C50 U46 2.847 . S
C50 O64 1.249 . S
C50 O65 1.202 . S
C51 C49 1.363 . S
C51 C53 1.408 . S
C51 C56 1.342 . S
C52 C53 1.310 . S
C52 C55 1.461 . S
C52 H72 0.932 . S
C53 C51 1.408 . S
C53 C52 1.310 . S
C53 H73 0.930 . S
C54 C55 1.474 . S
C54 C56 1.285 . S
C54 H74 0.929 . S
C55 C52 1.461 . S
C55 C54 1.474 . S
C56 C51 1.342 . S
C56 C54 1.285 . S
C56 H75 0.930 . S
C57 C60 1.424 . S
C57 C62 1.245 . S
C57 C63 1.428 . S
C58 C61 1.260 . S
C58 C62 1.477 1_556 S
C58 H76 0.932 . S
C59 C60 1.384 . S
C59 C61 1.479 1_554 S
C59 H77 0.929 . S
C60 C57 1.424 . S
C60 C59 1.384 . S
C60 H78 0.928 . S
C61 C58 1.260 . S
C61 C59 1.479 1_556 S
C62 C57 1.245 . S
C62 C58 1.477 1_554 S
C62 H79 0.932 . S
C63 U46 2.882 . S
C63 C57 1.428 . S
C63 O66 1.301 . S
C63 O67 1.282 . S
O64 U46 2.441 . S
O64 C50 1.249 . S
O65 U46 2.420 . S
O65 C50 1.202 . S
O66 U46 2.455 . S
O66 C63 1.301 . S
O67 U46 2.449 . S
O67 C63 1.282 . S
H68 C41 0.931 . S
H69 C43 0.929 . S
H70 C44 0.930 . S
H71 C45 0.931 . S
H72 C52 0.932 . S
H73 C53 0.930 . S
H74 C54 0.929 . S
H75 C56 0.930 . S
H76 C58 0.932 . S
H77 C59 0.929 . S
H78 C60 0.928 . S
H79 C62 0.932 . S
C80 C81 1.264 . S
C80 C85 1.479 . S
C80 C90 1.465 . S
C81 C80 1.264 . S
C81 C83 1.339 . S
C81 H108 0.931 . S
C82 C83 1.395 . S
C82 C84 1.320 . S
C83 C81 1.339 . S
C83 C82 1.395 . S
C83 H109 0.929 . S
C84 C82 1.320 . S
C84 C85 1.405 . S
C84 H110 0.930 . S
C85 C80 1.479 . S
C85 C84 1.405 . S
C85 H111 0.931 . S
U86 O87 2.454 . S
U86 O88 2.458 . S
U86 C89 2.984 . S
U86 C90 2.847 . S
U86 C103 2.882 . S
U86 O104 2.441 . S
U86 O105 2.420 . S
U86 O106 2.455 . S
U86 O107 2.449 . S
O87 U86 2.454 . S
O87 C89 1.353 . S
O88 U86 2.458 . S
O88 C89 1.286 . S
C89 U86 2.984 . S
C89 O87 1.353 . S
C89 O88 1.286 . S
C89 C91 1.363 . S
C90 C80 1.465 . S
C90 U86 2.847 . S
C90 O104 1.249 . S
C90 O105 1.202 . S
C91 C89 1.363 . S
C91 C93 1.408 . S
C91 C96 1.342 . S
C92 C93 1.310 . S
C92 C95 1.461 . S
C92 H112 0.932 . S
C93 C91 1.408 . S
C93 C92 1.310 . S
C93 H113 0.930 . S
C94 C95 1.474 . S
C94 C96 1.285 . S
C94 H114 0.929 . S
C95 C92 1.461 . S
C95 C94 1.474 . S
C96 C91 1.342 . S
C96 C94 1.285 . S
C96 H115 0.930 . S
C97 C100 1.424 . S
C97 C102 1.245 . S
C97 C103 1.428 . S
C98 C101 1.260 . S
C98 C102 1.477 1_556 S
C98 H116 0.932 . S
C99 C100 1.384 . S
C99 C101 1.479 1_554 S
C99 H117 0.929 . S
C100 C97 1.424 . S
C100 C99 1.384 . S
C100 H118 0.928 . S
C101 C98 1.260 . S
C101 C99 1.479 1_556 S
C102 C97 1.245 . S
C102 C98 1.477 1_554 S
C102 H119 0.932 . S
C103 U86 2.882 . S
C103 C97 1.428 . S
C103 O106 1.301 . S
C103 O107 1.282 . S
O104 U86 2.441 . S
O104 C90 1.249 . S
O105 U86 2.420 . S
O105 C90 1.202 . S
O106 U86 2.455 . S
O106 C103 1.301 . S
O107 U86 2.449 . S
O107 C103 1.282 . S
H108 C81 0.931 . S
H109 C83 0.929 . S
H110 C84 0.930 . S
H111 C85 0.931 . S
H112 C92 0.932 . S
H113 C93 0.930 . S
H114 C94 0.929 . S
H115 C96 0.930 . S
H116 C98 0.932 . S
H117 C99 0.929 . S
H118 C100 0.928 . S
H119 C102 0.932 . S
C120 C121 1.264 . S
C120 C125 1.479 . S
C120 C130 1.465 . S
C121 C120 1.264 . S
C121 C123 1.339 . S
C121 H148 0.931 . S
C122 C123 1.395 . S
C122 C124 1.320 . S
C123 C121 1.339 . S
C123 C122 1.395 . S
C123 H149 0.929 . S
C124 C122 1.320 . S
C124 C125 1.405 . S
C124 H150 0.930 . S
C125 C120 1.479 . S
C125 C124 1.405 . S
C125 H151 0.931 . S
U126 O127 2.454 . S
U126 O128 2.458 . S
U126 C129 2.984 . S
U126 C130 2.847 . S
U126 C143 2.882 . S
U126 O144 2.441 . S
U126 O145 2.420 . S
U126 O146 2.455 . S
U126 O147 2.449 . S
O127 U126 2.454 . S
O127 C129 1.353 . S
O128 U126 2.458 . S
O128 C129 1.286 . S
C129 U126 2.984 . S
C129 O127 1.353 . S
C129 O128 1.286 . S
C129 C131 1.363 . S
C130 C120 1.465 . S
C130 U126 2.847 . S
C130 O144 1.249 . S
C130 O145 1.202 . S
C131 C129 1.363 . S
C131 C133 1.408 . S
C131 C136 1.342 . S
C132 C133 1.310 . S
C132 C135 1.461 . S
C132 H152 0.932 . S
C133 C131 1.408 . S
C133 C132 1.310 . S
C133 H153 0.930 . S
C134 C135 1.474 . S
C134 C136 1.285 . S
C134 H154 0.929 . S
C135 C132 1.461 . S
C135 C134 1.474 . S
C136 C131 1.342 . S
C136 C134 1.285 . S
C136 H155 0.930 . S
C137 C140 1.424 . S
C137 C142 1.245 . S
C137 C143 1.428 . S
C138 C141 1.260 1_556 S
C138 C142 1.477 1_556 S
C138 H156 0.932 . S
C139 C140 1.384 . S
C139 C141 1.478 . S
C139 H157 0.929 . S
C140 C137 1.424 . S
C140 C139 1.384 . S
C140 H158 0.928 . S
C141 C138 1.260 1_554 S
C141 C139 1.478 . S
C142 C137 1.245 . S
C142 C138 1.477 1_554 S
C142 H159 0.932 . S
C143 U126 2.882 . S
C143 C137 1.428 . S
C143 O146 1.301 . S
C143 O147 1.282 . S
O144 U126 2.441 . S
O144 C130 1.249 . S
O145 U126 2.420 . S
O145 C130 1.202 . S
O146 U126 2.455 . S
O146 C143 1.301 . S
O147 U126 2.449 . S
O147 C143 1.282 . S
H148 C121 0.931 . S
H149 C123 0.929 . S
H150 C124 0.930 . S
H151 C125 0.931 . S
H152 C132 0.932 . S
H153 C133 0.930 . S
H154 C134 0.929 . S
H155 C136 0.930 . S
H156 C138 0.932 . S
H157 C139 0.929 . S
H158 C140 0.928 . S
H159 C142 0.932 . S
C160 C161 1.264 . S
C160 C165 1.479 . S
C160 C170 1.465 . S
C161 C160 1.264 . S
C161 C163 1.339 . S
C161 H188 0.931 . S
C162 C163 1.395 . S
C162 C164 1.320 . S
C163 C161 1.339 . S
C163 C162 1.395 . S
C163 H189 0.929 . S
C164 C162 1.320 . S
C164 C165 1.405 . S
C164 H190 0.930 . S
C165 C160 1.479 . S
C165 C164 1.405 . S
C165 H191 0.931 . S
U166 O167 2.454 . S
U166 O168 2.458 . S
U166 C169 2.984 . S
U166 C170 2.847 1_554 S
U166 C183 2.882 . S
U166 O184 2.441 1_554 S
U166 O185 2.420 1_554 S
U166 O186 2.455 . S
U166 O187 2.449 . S
O167 U166 2.454 . S
O167 C169 1.353 . S
O168 U166 2.458 . S
O168 C169 1.286 . S
C169 U166 2.984 . S
C169 O167 1.353 . S
C169 O168 1.286 . S
C169 C171 1.363 . S
C170 C160 1.465 . S
C170 U166 2.847 1_556 S
C170 O184 1.249 . S
C170 O185 1.202 . S
C171 C169 1.363 . S
C171 C173 1.408 . S
C171 C176 1.342 . S
C172 C173 1.310 . S
C172 C175 1.461 . S
C172 H192 0.932 . S
C173 C171 1.408 . S
C173 C172 1.310 . S
C173 H193 0.944 . S
C174 C175 1.474 . S
C174 C176 1.285 . S
C174 H194 0.929 . S
C175 C172 1.461 . S
C175 C174 1.474 . S
C176 C171 1.342 . S
C176 C174 1.285 . S
C176 H195 0.930 . S
C177 C180 1.424 . S
C177 C182 1.245 . S
C177 C183 1.428 . S
C178 C181 1.260 . S
C178 C182 1.477 . S
C178 H196 0.932 . S
C179 C180 1.384 . S
C179 C181 1.479 . S
C179 H197 0.929 . S
C180 C177 1.424 . S
C180 C179 1.384 . S
C180 H198 0.928 . S
C181 C178 1.260 . S
C181 C179 1.479 . S
C182 C177 1.245 . S
C182 C178 1.477 . S
C182 H199 0.932 . S
C183 U166 2.882 . S
C183 C177 1.428 . S
C183 O186 1.301 . S
C183 O187 1.282 . S
O184 U166 2.441 1_556 S
O184 C170 1.249 . S
O185 U166 2.420 1_556 S
O185 C170 1.202 . S
O186 U166 2.455 . S
O186 C183 1.301 . S
O187 U166 2.449 . S
O187 C183 1.282 . S
H188 C161 0.931 . S
H189 C163 0.929 . S
H190 C164 0.930 . S
H191 C165 0.931 . S
H192 C172 0.932 . S
H193 C173 0.944 . S
H194 C174 0.929 . S
H195 C176 0.930 . S
H196 C178 0.932 . S
H197 C179 0.929 . S
H198 C180 0.928 . S
H199 C182 0.932 . S
C200 C201 1.264 . S
C200 C205 1.479 . S
C200 C210 1.465 . S
C201 C200 1.264 . S
C201 C203 1.339 . S
C201 H228 0.931 . S
C202 C203 1.395 . S
C202 C204 1.320 . S
C203 C201 1.339 . S
C203 C202 1.395 . S
C203 H229 0.929 . S
C204 C202 1.320 . S
C204 C205 1.405 . S
C204 H230 0.930 . S
C205 C200 1.479 . S
C205 C204 1.405 . S
C205 H231 0.931 . S
U206 O207 2.454 . S
U206 O208 2.458 . S
U206 C209 2.984 . S
U206 C210 2.847 1_554 S
U206 C223 2.882 . S
U206 O224 2.441 1_554 S
U206 O225 2.420 1_554 S
U206 O226 2.455 . S
U206 O227 2.449 . S
O207 U206 2.454 . S
O207 C209 1.353 . S
O208 U206 2.458 . S
O208 C209 1.286 . S
C209 U206 2.984 . S
C209 O207 1.353 . S
C209 O208 1.286 . S
C209 C211 1.363 . S
C210 C200 1.465 . S
C210 U206 2.847 1_556 S
C210 O224 1.249 . S
C210 O225 1.202 . S
C211 C209 1.363 . S
C211 C213 1.408 . S
C211 C216 1.342 . S
C212 C213 1.310 . S
C212 C215 1.461 . S
C212 H232 0.932 . S
C213 C211 1.408 . S
C213 C212 1.310 . S
C213 H233 0.930 . S
C214 C215 1.474 . S
C214 C216 1.285 . S
C214 H234 0.929 . S
C215 C212 1.461 . S
C215 C214 1.474 . S
C216 C211 1.342 . S
C216 C214 1.285 . S
C216 H235 0.930 . S
C217 C220 1.424 . S
C217 C222 1.245 . S
C217 C223 1.428 . S
C218 C221 1.260 . S
C218 C222 1.477 . S
C218 H236 0.932 . S
C219 C220 1.384 . S
C219 C221 1.479 . S
C219 H237 0.929 . S
C220 C217 1.424 . S
C220 C219 1.384 . S
C220 H238 0.928 . S
C221 C218 1.260 . S
C221 C219 1.479 . S
C222 C217 1.245 . S
C222 C218 1.477 . S
C222 H239 0.932 . S
C223 U206 2.882 . S
C223 C217 1.428 . S
C223 O226 1.301 . S
C223 O227 1.282 . S
O224 U206 2.441 1_556 S
O224 C210 1.249 . S
O225 U206 2.420 1_556 S
O225 C210 1.202 . S
O226 U206 2.455 . S
O226 C223 1.301 . S
O227 U206 2.449 . S
O227 C223 1.282 . S
H228 C201 0.931 . S
H229 C203 0.929 . S
H230 C204 0.930 . S
H231 C205 0.931 . S
H232 C212 0.932 . S
H233 C213 0.930 . S
H234 C214 0.929 . S
H235 C216 0.930 . S
H236 C218 0.932 . S
H237 C219 0.929 . S
H238 C220 0.928 . S
H239 C222 0.932 . S
C240 C241 1.264 . S
C240 C245 1.479 . S
C240 C250 1.465 . S
C241 C240 1.264 . S
C241 C243 1.339 . S
C241 H268 0.931 . S
C242 C243 1.395 . S
C242 C244 1.320 . S
C243 C241 1.339 . S
C243 C242 1.395 . S
C243 H269 0.929 . S
C244 C242 1.320 . S
C244 C245 1.405 . S
C244 H270 0.930 . S
C245 C240 1.479 . S
C245 C244 1.405 . S
C245 H271 0.931 . S
U246 O247 2.454 . S
U246 O248 2.458 . S
U246 C249 2.984 . S
U246 C250 2.847 1_554 S
U246 C263 2.882 . S
U246 O264 2.441 1_554 S
U246 O265 2.420 1_554 S
U246 O266 2.455 . S
U246 O267 2.449 . S
O247 U246 2.454 . S
O247 C249 1.353 . S
O248 U246 2.458 . S
O248 C249 1.286 . S
C249 U246 2.984 . S
C249 O247 1.353 . S
C249 O248 1.286 . S
C249 C251 1.363 . S
C250 C240 1.465 . S
C250 U246 2.847 1_556 S
C250 O264 1.249 . S
C250 O265 1.202 . S
C251 C249 1.363 . S
C251 C253 1.408 . S
C251 C256 1.342 . S
C252 C253 1.310 . S
C252 C255 1.461 . S
C252 H272 0.932 . S
C253 C251 1.408 . S
C253 C252 1.310 . S
C253 H273 0.930 . S
C254 C255 1.474 . S
C254 C256 1.285 . S
C254 H274 0.929 . S
C255 C252 1.461 . S
C255 C254 1.474 . S
C256 C251 1.342 . S
C256 C254 1.285 . S
C256 H275 0.930 . S
C257 C260 1.424 . S
C257 C262 1.245 . S
C257 C263 1.428 . S
C258 C261 1.260 . S
C258 C262 1.477 . S
C258 H276 0.932 . S
C259 C260 1.384 . S
C259 C261 1.479 . S
C259 H277 0.929 . S
C260 C257 1.424 . S
C260 C259 1.384 . S
C260 H278 0.928 . S
C261 C258 1.260 . S
C261 C259 1.479 . S
C262 C257 1.245 . S
C262 C258 1.477 . S
C262 H279 0.932 . S
C263 U246 2.882 . S
C263 C257 1.428 . S
C263 O266 1.301 . S
C263 O267 1.282 . S
O264 U246 2.441 1_556 S
O264 C250 1.249 . S
O265 U246 2.420 1_556 S
O265 C250 1.202 . S
O266 U246 2.455 . S
O266 C263 1.301 . S
O267 U246 2.449 . S
O267 C263 1.282 . S
H268 C241 0.931 . S
H269 C243 0.929 . S
H270 C244 0.930 . S
H271 C245 0.931 . S
H272 C252 0.932 . S
H273 C253 0.930 . S
H274 C254 0.929 . S
H275 C256 0.930 . S
H276 C258 0.932 . S
H277 C259 0.929 . S
H278 C260 0.928 . S
H279 C262 0.932 . S
C280 C281 1.264 . S
C280 C285 1.479 . S
C280 C290 1.465 . S
C281 C280 1.264 . S
C281 C283 1.339 . S
C281 H308 0.931 . S
C282 C283 1.395 . S
C282 C284 1.320 . S
C283 C281 1.339 . S
C283 C282 1.395 . S
C283 H309 0.929 . S
C284 C282 1.320 . S
C284 C285 1.405 . S
C284 H310 0.930 . S
C285 C280 1.479 . S
C285 C284 1.405 . S
C285 H311 0.931 . S
U286 O287 2.454 . S
U286 O288 2.458 . S
U286 C289 2.984 . S
U286 C290 2.847 1_554 S
U286 C303 2.882 . S
U286 O304 2.441 1_554 S
U286 O305 2.420 1_554 S
U286 O306 2.455 . S
U286 O307 2.449 . S
O287 U286 2.454 . S
O287 C289 1.353 . S
O288 U286 2.458 . S
O288 C289 1.286 . S
C289 U286 2.984 . S
C289 O287 1.353 . S
C289 O288 1.286 . S
C289 C291 1.363 . S
C290 C280 1.465 . S
C290 U286 2.847 1_556 S
C290 O304 1.249 . S
C290 O305 1.202 . S
C291 C289 1.363 . S
C291 C293 1.408 . S
C291 C296 1.342 . S
C292 C293 1.310 . S
C292 C295 1.461 . S
C292 H312 0.932 . S
C293 C291 1.408 . S
C293 C292 1.310 . S
C293 H313 0.921 1_554 S
C294 C295 1.474 . S
C294 C296 1.285 . S
C294 H314 0.929 . S
C295 C292 1.461 . S
C295 C294 1.474 . S
C296 C291 1.342 . S
C296 C294 1.285 . S
C296 H315 0.930 . S
C297 C300 1.424 . S
C297 C302 1.245 . S
C297 C303 1.428 . S
C298 C301 1.260 . S
C298 C302 1.477 . S
C298 H316 0.932 . S
C299 C300 1.384 . S
C299 C301 1.479 . S
C299 H317 0.929 . S
C300 C297 1.424 . S
C300 C299 1.384 . S
C300 H318 0.928 . S
C301 C298 1.260 . S
C301 C299 1.479 . S
C302 C297 1.245 . S
C302 C298 1.477 . S
C302 H319 0.932 . S
C303 U286 2.882 . S
C303 C297 1.428 . S
C303 O306 1.301 . S
C303 O307 1.282 . S
O304 U286 2.441 1_556 S
O304 C290 1.249 . S
O305 U286 2.420 1_556 S
O305 C290 1.202 . S
O306 U286 2.455 . S
O306 C303 1.301 . S
O307 U286 2.449 . S
O307 C303 1.282 . S
H308 C281 0.931 . S
H309 C283 0.929 . S
H310 C284 0.930 . S
H311 C285 0.931 . S
H312 C292 0.932 . S
H313 C293 0.921 1_556 S
H314 C294 0.929 . S
H315 C296 0.930 . S
H316 C298 0.932 . S
H317 C299 0.929 . S
H318 C300 0.928 . S
H319 C302 0.932 . S
Eu320 N349 2.600 . S
Eu320 N355 2.562 . S
Eu320 O364 2.462 . S
Eu320 O365 2.373 1_545 S
Eu320 O367 2.432 . S
Eu320 O368 2.291 1_655 S
Eu320 O372 2.335 1_655 S
Eu320 O375 2.372 . S
Eu320 C384 2.787 . S
C321 N322 1.371 . S
C321 C324 1.405 . S
C321 C328 1.448 . S
N322 C321 1.371 . S
N322 C325 1.317 1_545 S
N322 Eu331 2.597 1_545 S
C323 C325 1.397 1_545 S
C323 C326 1.367 . S
C323 H343 0.931 . S
C324 C321 1.405 . S
C324 C326 1.403 . S
C324 C330 1.439 . S
C325 N322 1.317 1_565 S
C325 C323 1.397 1_565 S
C325 H336 0.930 . S
C326 C323 1.367 . S
C326 C324 1.403 . S
C326 H347 0.929 . S
C327 C328 1.430 . S
C327 C329 1.387 . S
C327 C333 1.404 . S
C328 C321 1.448 . S
C328 C327 1.430 . S
C328 N332 1.351 . S
C329 C327 1.387 . S
C329 C330 1.374 . S
C329 H344 0.931 . S
C330 C324 1.439 . S
C330 C329 1.374 . S
C330 H345 0.931 . S
Eu331 N322 2.597 1_565 S
Eu331 N332 2.562 1_565 S
Eu331 O366 2.335 . S
Eu331 O369 2.372 . S
Eu331 O370 2.462 . S
Eu331 O371 2.373 1_565 S
Eu331 O373 2.432 . S
Eu331 O374 2.291 1_465 S
Eu331 C395 2.787 . S
N332 C328 1.351 . S
N332 Eu331 2.562 1_545 S
N332 C334 1.325 . S
C333 C327 1.404 . S
C333 C335 1.366 . S
C333 H341 0.930 . S
C334 N332 1.325 . S
C334 C335 1.416 . S
C334 H340 0.929 1_455 S
C335 C333 1.366 . S
C335 C334 1.416 . S
C335 H337 0.933 . S
H336 C325 0.930 . S
H337 C335 0.933 . S
H338 C353 0.930 . S
H339 C360 0.930 1_455 S
H340 C334 0.929 1_655 S
H341 C333 0.930 . S
H342 C356 0.929 1_455 S
H343 C323 0.931 . S
H344 C329 0.931 . S
H345 C330 0.931 . S
H346 C351 0.931 . S
H347 C326 0.929 . S
H348 C359 0.930 . S
N349 Eu320 2.600 . S
N349 C350 1.365 . S
N349 C353 1.319 . S
C350 N349 1.365 . S
C350 C352 1.405 1_545 S
C350 C358 1.448 . S
C351 H346 0.931 . S
C351 C353 1.397 . S
C351 C354 1.386 . S
C352 C350 1.405 1_565 S
C352 C354 1.399 1_565 S
C352 C385 1.439 . S
C353 H338 0.930 . S
C353 N349 1.319 . S
C353 C351 1.397 . S
C354 C351 1.386 . S
C354 C352 1.399 1_545 S
C354 H361 0.917 1_545 S
N355 Eu320 2.562 . S
N355 C356 1.325 . S
N355 C358 1.351 . S
C356 H342 0.929 1_655 S
C356 N355 1.325 . S
C356 C360 1.416 1_545 S
C357 C358 1.430 1_565 S
C357 C359 1.404 . S
C357 C386 1.387 . S
C358 C350 1.448 . S
C358 N355 1.351 . S
C358 C357 1.430 1_545 S
C359 H348 0.930 . S
C359 C357 1.404 . S
C359 C360 1.366 . S
C360 H339 0.930 1_655 S
C360 C356 1.416 1_565 S
C360 C359 1.366 . S
H361 C354 0.917 1_565 S
H362 C385 0.931 . S
H363 C386 0.931 . S
O364 Eu320 2.462 . S
O364 C384 1.252 . S
O365 Eu320 2.373 1_565 S
O365 C376 1.249 . S
O366 Eu331 2.335 . S
O366 C376 1.264 1_455 S
O367 Eu320 2.432 . S
O367 C384 1.268 . S
O368 Eu320 2.291 1_455 S
O368 C383 1.255 . S
O369 Eu331 2.372 . S
O369 C383 1.257 1_565 S
O370 Eu331 2.462 . S
O370 C395 1.252 . S
O371 Eu331 2.373 1_545 S
O371 C387 1.249 . S
O372 Eu320 2.335 1_455 S
O372 C387 1.264 . S
O373 Eu331 2.432 . S
O373 C395 1.268 . S
O374 Eu331 2.291 1_645 S
O374 C394 1.255 . S
O375 Eu320 2.372 . S
O375 C394 1.257 . S
C376 O365 1.249 . S
C376 O366 1.264 1_655 S
C377 C380 1.382 . S
C377 C382 1.390 . S
C377 C384 1.506 . S
C378 C379 1.398 . S
C378 C382 1.392 . S
C379 C378 1.398 . S
C379 C381 1.372 . S
C379 H396 0.931 . S
C380 C377 1.382 . S
C380 C381 1.390 . S
C380 H397 0.931 . S
C381 C379 1.372 . S
C381 C380 1.390 . S
C381 H398 0.929 . S
C382 C377 1.390 . S
C382 C378 1.392 . S
C382 H399 0.930 1_655 S
C383 O368 1.255 . S
C383 O369 1.257 1_545 S
C384 Eu320 2.787 . S
C384 O364 1.252 . S
C384 O367 1.268 . S
C384 C377 1.506 . S
C385 C352 1.439 . S
C385 H362 0.931 . S
C385 C386 1.374 . S
C386 C357 1.387 . S
C386 H363 0.931 . S
C386 C385 1.374 . S
C387 O371 1.249 . S
C387 O372 1.264 . S
C388 C391 1.382 . S
C388 C392 1.390 . S
C388 C395 1.506 . S
C389 C390 1.398 . S
C389 C392 1.392 . S
C390 C389 1.398 . S
C390 C393 1.372 . S
C390 H400 0.931 . S
C391 C388 1.382 . S
C391 C393 1.390 . S
C391 H401 0.931 . S
C392 C388 1.390 . S
C392 C389 1.392 . S
C392 H402 0.931 1_455 S
C393 C390 1.372 . S
C393 C391 1.390 . S
C393 H403 0.929 . S
C394 O374 1.255 . S
C394 O375 1.257 . S
C395 Eu331 2.787 . S
C395 O370 1.252 . S
C395 O373 1.268 . S
C395 C388 1.506 . S
H396 C379 0.931 . S
H397 C380 0.931 . S
H398 C381 0.929 . S
H399 C382 0.930 1_455 S
H400 C390 0.931 . S
H401 C391 0.931 . S
H402 C392 0.931 1_655 S
H403 C393 0.929 . S
Eu404 N433 2.600 . S
Eu404 N439 2.562 . S
Eu404 O448 2.462 . S
Eu404 O449 2.373 . S
Eu404 O451 2.432 . S
Eu404 O452 2.291 . S
Eu404 O456 2.335 1_545 S
Eu404 O459 2.372 . S
Eu404 C468 2.787 . S
C405 N406 1.365 . S
C405 C408 1.405 . S
C405 C412 1.448 . S
N406 C405 1.365 . S
N406 C409 1.319 . S
N406 Eu415 2.600 . S
C407 C409 1.397 . S
C407 C410 1.367 . S
C407 H427 0.931 . S
C408 C405 1.405 . S
C408 C410 1.403 . S
C408 C414 1.439 . S
C409 N406 1.319 . S
C409 C407 1.397 . S
C409 H420 0.930 . S
C410 C407 1.367 . S
C410 C408 1.403 . S
C410 H431 0.929 . S
C411 C412 1.430 . S
C411 C413 1.387 . S
C411 C417 1.404 . S
C412 C405 1.448 . S
C412 C411 1.430 . S
C412 N416 1.351 . S
C413 C411 1.387 . S
C413 C414 1.374 . S
C413 H428 0.931 . S
C414 C408 1.439 . S
C414 C413 1.374 . S
C414 H429 0.931 . S
Eu415 N406 2.600 . S
Eu415 N416 2.562 . S
Eu415 O450 2.335 1_565 S
Eu415 O453 2.372 . S
Eu415 O454 2.462 . S
Eu415 O455 2.373 . S
Eu415 O457 2.432 . S
Eu415 O458 2.291 1_565 S
Eu415 C479 2.787 . S
N416 C412 1.351 . S
N416 Eu415 2.562 . S
N416 C418 1.325 . S
C417 C411 1.404 . S
C417 C419 1.366 . S
C417 H425 0.930 . S
C418 N416 1.325 . S
C418 C419 1.416 . S
C418 H424 0.929 . S
C419 C417 1.366 . S
C419 C418 1.416 . S
C419 H421 0.930 . S
H420 C409 0.930 . S
H421 C419 0.930 . S
H422 C437 0.930 . S
H423 C444 0.930 . S
H424 C418 0.929 . S
H425 C417 0.930 . S
H426 C440 0.929 . S
H427 C407 0.931 . S
H428 C413 0.931 . S
H429 C414 0.931 . S
H430 C435 0.931 . S
H431 C410 0.929 . S
H432 C443 0.930 . S
N433 Eu404 2.600 . S
N433 C434 1.365 . S
N433 C437 1.319 . S
C434 N433 1.365 . S
C434 C436 1.405 . S
C434 C442 1.448 . S
C435 H430 0.931 . S
C435 C437 1.397 . S
C435 C438 1.367 . S
C436 C434 1.405 . S
C436 C438 1.403 . S
C436 C469 1.439 . S
C437 H422 0.930 . S
C437 N433 1.319 . S
C437 C435 1.397 . S
C438 C435 1.367 . S
C438 C436 1.403 . S
C438 H445 0.929 . S
N439 Eu404 2.562 . S
N439 C440 1.325 . S
N439 C442 1.351 . S
C440 H426 0.929 . S
C440 N439 1.325 . S
C440 C444 1.416 . S
C441 C442 1.430 . S
C441 C443 1.404 . S
C441 C470 1.387 . S
C442 C434 1.448 . S
C442 N439 1.351 . S
C442 C441 1.430 . S
C443 H432 0.930 . S
C443 C441 1.404 . S
C443 C444 1.366 . S
C444 H423 0.930 . S
C444 C440 1.416 . S
C444 C443 1.366 . S
H445 C438 0.929 . S
H446 C469 0.931 . S
H447 C470 0.931 . S
O448 Eu404 2.462 . S
O448 C468 1.252 . S
O449 Eu404 2.373 . S
O449 C460 1.249 . S
O450 Eu415 2.335 1_545 S
O450 C460 1.264 . S
O451 Eu404 2.432 . S
O451 C468 1.268 . S
O452 Eu404 2.291 . S
O452 C467 1.225 1_545 S
O453 Eu415 2.372 . S
O453 C467 1.277 . S
O454 Eu415 2.462 . S
O454 C479 1.252 . S
O455 Eu415 2.373 . S
O455 C471 1.249 . S
O456 Eu404 2.335 1_565 S
O456 C471 1.264 . S
O457 Eu415 2.432 . S
O457 C479 1.268 . S
O458 Eu415 2.291 1_545 S
O458 C478 1.255 . S
O459 Eu404 2.372 . S
O459 C478 1.257 . S
C460 O449 1.249 . S
C460 O450 1.264 . S
C461 C464 1.382 . S
C461 C466 1.390 . S
C461 C468 1.506 . S
C462 C463 1.398 . S
C462 C466 1.392 . S
C463 C462 1.398 . S
C463 C465 1.372 . S
C463 H480 0.931 . S
C464 C461 1.382 . S
C464 C465 1.390 . S
C464 H481 0.931 . S
C465 C463 1.372 . S
C465 C464 1.390 . S
C465 H482 0.929 . S
C466 C461 1.390 . S
C466 C462 1.392 . S
C466 H483 0.930 . S
C467 O452 1.225 1_565 S
C467 O453 1.277 . S
C468 Eu404 2.787 . S
C468 O448 1.252 . S
C468 O451 1.268 . S
C468 C461 1.506 . S
C469 C436 1.439 . S
C469 H446 0.931 . S
C469 C470 1.374 . S
C470 C441 1.387 . S
C470 H447 0.931 . S
C470 C469 1.374 . S
C471 O455 1.249 . S
C471 O456 1.264 . S
C472 C475 1.382 . S
C472 C476 1.390 1_565 S
C472 C479 1.506 . S
C473 C474 1.398 1_545 S
C473 C476 1.392 . S
C474 C473 1.398 1_565 S
C474 C477 1.372 . S
C474 H484 0.931 . S
C475 C472 1.382 . S
C475 C477 1.390 . S
C475 H485 0.931 . S
C476 C472 1.390 1_545 S
C476 C473 1.392 . S
C476 H486 0.930 . S
C477 C474 1.372 . S
C477 C475 1.390 . S
C477 H487 0.929 . S
C478 O458 1.255 . S
C478 O459 1.257 . S
C479 Eu415 2.787 . S
C479 O454 1.252 . S
C479 O457 1.268 . S
C479 C472 1.506 . S
H480 C463 0.931 . S
H481 C464 0.931 . S
H482 C465 0.929 . S
H483 C466 0.930 . S
H484 C474 0.931 . S
H485 C475 0.931 . S
H486 C476 0.930 . S
H487 C477 0.929 . S
Eu488 N517 2.600 . S
Eu488 N523 2.562 . S
Eu488 O532 2.462 . S
Eu488 O533 2.373 . S
Eu488 O535 2.432 . S
Eu488 O536 2.291 . S
Eu488 O540 2.335 . S
Eu488 O543 2.372 . S
Eu488 C552 2.787 . S
C489 N490 1.365 . S
C489 C492 1.405 . S
C489 C496 1.448 . S
N490 C489 1.365 . S
N490 C493 1.319 . S
N490 Eu499 2.600 . S
C491 C493 1.397 . S
C491 C494 1.367 . S
C491 H511 0.931 . S
C492 C489 1.405 . S
C492 C494 1.403 . S
C492 C498 1.439 . S
C493 N490 1.319 . S
C493 C491 1.397 . S
C493 H504 0.930 . S
C494 C491 1.367 . S
C494 C492 1.403 . S
C494 H515 0.929 . S
C495 C496 1.430 . S
C495 C497 1.387 . S
C495 C501 1.404 . S
C496 C489 1.448 . S
C496 C495 1.430 . S
C496 N500 1.351 . S
C497 C495 1.387 . S
C497 C498 1.374 . S
C497 H512 0.931 . S
C498 C492 1.439 . S
C498 C497 1.374 . S
C498 H513 0.931 . S
Eu499 N490 2.600 . S
Eu499 N500 2.562 . S
Eu499 O534 2.335 . S
Eu499 O537 2.372 . S
Eu499 O538 2.462 . S
Eu499 O539 2.373 . S
Eu499 O541 2.432 . S
Eu499 O542 2.291 . S
Eu499 C563 2.787 . S
N500 C496 1.351 . S
N500 Eu499 2.562 . S
N500 C502 1.325 . S
C501 C495 1.404 . S
C501 C503 1.366 . S
C501 H509 0.930 . S
C502 N500 1.325 . S
C502 C503 1.416 . S
C502 H508 0.929 . S
C503 C501 1.366 . S
C503 C502 1.416 . S
C503 H505 0.930 . S
H504 C493 0.930 . S
H505 C503 0.930 . S
H506 C521 0.930 . S
H507 C528 0.930 . S
H508 C502 0.929 . S
H509 C501 0.930 . S
H510 C524 0.929 . S
H511 C491 0.931 . S
H512 C497 0.931 . S
H513 C498 0.931 . S
H514 C519 0.931 . S
H515 C494 0.929 . S
H516 C527 0.930 . S
N517 Eu488 2.600 . S
N517 C518 1.365 . S
N517 C521 1.319 . S
C518 N517 1.365 . S
C518 C520 1.405 . S
C518 C526 1.448 . S
C519 H514 0.931 . S
C519 C521 1.397 . S
C519 C522 1.367 . S
C520 C518 1.405 . S
C520 C522 1.403 . S
C520 C553 1.439 . S
C521 H506 0.930 . S
C521 N517 1.319 . S
C521 C519 1.397 . S
C522 C519 1.367 . S
C522 C520 1.403 . S
C522 H529 0.929 . S
N523 Eu488 2.562 . S
N523 C524 1.325 . S
N523 C526 1.351 . S
C524 H510 0.929 . S
C524 N523 1.325 . S
C524 C528 1.416 . S
C525 C526 1.430 . S
C525 C527 1.404 . S
C525 C554 1.387 . S
C526 C518 1.448 . S
C526 N523 1.351 . S
C526 C525 1.430 . S
C527 H516 0.930 . S
C527 C525 1.404 . S
C527 C528 1.366 . S
C528 H507 0.930 . S
C528 C524 1.416 . S
C528 C527 1.366 . S
H529 C522 0.929 . S
H530 C553 0.931 . S
H531 C554 0.931 . S
O532 Eu488 2.462 . S
O532 C552 1.252 . S
O533 Eu488 2.373 . S
O533 C544 1.249 . S
O534 Eu499 2.335 . S
O534 C544 1.264 . S
O535 Eu488 2.432 . S
O535 C552 1.268 . S
O536 Eu488 2.291 . S
O536 C551 1.255 . S
O537 Eu499 2.372 . S
O537 C551 1.257 . S
O538 Eu499 2.462 . S
O538 C563 1.252 . S
O539 Eu499 2.373 . S
O539 C555 1.249 . S
O540 Eu488 2.335 . S
O540 C555 1.264 . S
O541 Eu499 2.432 . S
O541 C563 1.268 . S
O542 Eu499 2.291 . S
O542 C562 1.255 . S
O543 Eu488 2.372 . S
O543 C562 1.257 . S
C544 O533 1.249 . S
C544 O534 1.264 . S
C545 C548 1.382 . S
C545 C550 1.390 . S
C545 C552 1.506 . S
C546 C547 1.398 . S
C546 C550 1.392 . S
C547 C546 1.398 . S
C547 C549 1.372 . S
C547 H564 0.931 . S
C548 C545 1.382 . S
C548 C549 1.390 . S
C548 H565 0.931 . S
C549 C547 1.372 . S
C549 C548 1.390 . S
C549 H566 0.929 . S
C550 C545 1.390 . S
C550 C546 1.392 . S
C550 H567 0.930 . S
C551 O536 1.255 . S
C551 O537 1.257 . S
C552 Eu488 2.787 . S
C552 O532 1.252 . S
C552 O535 1.268 . S
C552 C545 1.506 . S
C553 C520 1.439 . S
C553 H530 0.931 . S
C553 C554 1.374 . S
C554 C525 1.387 . S
C554 H531 0.931 . S
C554 C553 1.374 . S
C555 O539 1.249 . S
C555 O540 1.264 . S
C556 C559 1.382 . S
C556 C560 1.390 . S
C556 C563 1.506 . S
C557 C558 1.398 . S
C557 C560 1.392 . S
C558 C557 1.398 . S
C558 C561 1.372 . S
C558 H568 0.931 . S
C559 C556 1.382 . S
C559 C561 1.390 . S
C559 H569 0.931 . S
C560 C556 1.390 . S
C560 C557 1.392 . S
C560 H570 0.930 . S
C561 C558 1.372 . S
C561 C559 1.390 . S
C561 H571 0.929 . S
C562 O542 1.255 . S
C562 O543 1.257 . S
C563 Eu499 2.787 . S
C563 O538 1.252 . S
C563 O541 1.268 . S
C563 C556 1.506 . S
H564 C547 0.931 . S
H565 C548 0.931 . S
H566 C549 0.929 . S
H567 C550 0.930 . S
H568 C558 0.931 . S
H569 C559 0.931 . S
H570 C560 0.930 . S
H571 C561 0.929 . S
Eu572 N601 2.600 . S
Eu572 N607 2.562 . S
Eu572 O616 2.462 . S
Eu572 O617 2.373 1_455 S
Eu572 O619 2.432 . S
Eu572 O620 2.291 . S
Eu572 O624 2.335 . S
Eu572 O627 2.372 . S
Eu572 C636 2.787 . S
C573 N574 1.365 1_455 S
C573 C576 1.405 . S
C573 C580 1.448 . S
N574 C573 1.365 1_655 S
N574 C577 1.319 . S
N574 Eu583 2.600 . S
C575 C577 1.397 1_455 S
C575 C578 1.367 . S
C575 H595 0.930 1_455 S
C576 C573 1.405 . S
C576 C578 1.403 . S
C576 C582 1.439 . S
C577 N574 1.319 . S
C577 C575 1.397 1_655 S
C577 H588 0.930 . S
C578 C575 1.367 . S
C578 C576 1.403 . S
C578 H599 0.929 . S
C579 C580 1.430 . S
C579 C581 1.387 . S
C579 C585 1.404 . S
C580 C573 1.448 . S
C580 C579 1.430 . S
C580 N584 1.370 . S
C581 C579 1.387 . S
C581 C582 1.374 . S
C581 H596 0.931 . S
C582 C576 1.439 . S
C582 C581 1.374 . S
C582 H597 0.931 . S
Eu583 N574 2.600 . S
Eu583 N584 2.546 1_655 S
Eu583 O618 2.335 . S
Eu583 O621 2.372 . S
Eu583 O622 2.462 . S
Eu583 O623 2.373 1_655 S
Eu583 O625 2.432 . S
Eu583 O626 2.302 . S
Eu583 C647 2.787 . S
N584 C580 1.370 . S
N584 Eu583 2.546 1_455 S
N584 C586 1.332 . S
C585 C579 1.404 . S
C585 C587 1.366 . S
C585 H593 0.930 . S
C586 N584 1.332 . S
C586 C587 1.416 . S
C586 H592 0.929 1_455 S
C587 C585 1.366 . S
C587 C586 1.416 . S
C587 H589 0.930 . S
H588 C577 0.930 . S
H589 C587 0.930 . S
H590 C605 0.930 . S
H591 C612 0.930 . S
H592 C586 0.929 1_655 S
H593 C585 0.930 . S
H594 C608 0.929 . S
H595 C575 0.930 1_655 S
H596 C581 0.931 . S
H597 C582 0.931 . S
H598 C603 0.931 . S
H599 C578 0.929 . S
H600 C611 0.930 . S
N601 Eu572 2.600 . S
N601 C602 1.365 . S
N601 C605 1.319 . S
C602 N601 1.365 . S
C602 C604 1.405 1_455 S
C602 C610 1.448 . S
C603 H598 0.931 . S
C603 C605 1.397 . S
C603 C606 1.351 1_455 S
C604 C602 1.405 1_655 S
C604 C606 1.409 . S
C604 C637 1.439 . S
C605 H590 0.930 . S
C605 N601 1.319 . S
C605 C603 1.397 . S
C606 C603 1.351 1_655 S
C606 C604 1.409 . S
C606 H613 0.942 . S
N607 Eu572 2.562 . S
N607 C608 1.325 . S
N607 C610 1.351 . S
C608 H594 0.929 . S
C608 N607 1.325 . S
C608 C612 1.416 1_455 S
C609 C610 1.430 1_655 S
C609 C611 1.404 . S
C609 C638 1.387 . S
C610 C602 1.448 . S
C610 N607 1.351 . S
C610 C609 1.430 1_455 S
C611 H600 0.930 . S
C611 C609 1.404 . S
C611 C612 1.366 . S
C612 H591 0.930 . S
C612 C608 1.416 1_655 S
C612 C611 1.366 . S
H613 C606 0.942 . S
H614 C637 0.931 . S
H615 C638 0.931 . S
O616 Eu572 2.462 . S
O616 C636 1.252 . S
O617 Eu572 2.373 1_655 S
O617 C628 1.249 . S
O618 Eu583 2.335 . S
O618 C628 1.264 . S
O619 Eu572 2.432 . S
O619 C636 1.268 . S
O620 Eu572 2.291 . S
O620 C635 1.255 . S
O621 Eu583 2.372 . S
O621 C635 1.257 1_655 S
O622 Eu583 2.462 . S
O622 C647 1.252 . S
O623 Eu583 2.373 1_455 S
O623 C639 1.249 . S
O624 Eu572 2.335 . S
O624 C639 1.264 . S
O625 Eu583 2.432 . S
O625 C647 1.268 . S
O626 Eu583 2.302 . S
O626 C646 1.248 1_655 S
O627 Eu572 2.372 . S
O627 C646 1.257 . S
C628 O617 1.249 . S
C628 O618 1.264 . S
C629 C632 1.382 . S
C629 C634 1.390 . S
C629 C636 1.506 . S
C630 C631 1.398 . S
C630 C634 1.392 . S
C631 C630 1.398 . S
C631 C633 1.372 . S
C631 H648 0.931 . S
C632 C629 1.382 . S
C632 C633 1.390 . S
C632 H649 0.931 . S
C633 C631 1.372 . S
C633 C632 1.390 . S
C633 H650 0.929 . S
C634 C629 1.390 . S
C634 C630 1.392 . S
C634 H651 0.930 . S
C635 O620 1.255 . S
C635 O621 1.257 1_455 S
C636 Eu572 2.787 . S
C636 O616 1.252 . S
C636 O619 1.268 . S
C636 C629 1.506 . S
C637 C604 1.439 . S
C637 H614 0.931 . S
C637 C638 1.374 . S
C638 C609 1.387 . S
C638 H615 0.931 . S
C638 C637 1.374 . S
C639 O623 1.249 . S
C639 O624 1.264 . S
C640 C643 1.382 . S
C640 C644 1.390 . S
C640 C647 1.506 . S
C641 C642 1.398 . S
C641 C644 1.392 . S
C642 C641 1.398 . S
C642 C645 1.372 . S
C642 H652 0.931 . S
C643 C640 1.382 . S
C643 C645 1.390 . S
C643 H653 0.931 . S
C644 C640 1.390 . S
C644 C641 1.392 . S
C644 H654 0.930 . S
C645 C642 1.372 . S
C645 C643 1.390 . S
C645 H655 0.929 . S
C646 O626 1.248 1_455 S
C646 O627 1.257 . S
C647 Eu583 2.787 . S
C647 O622 1.252 . S
C647 O625 1.268 . S
C647 C640 1.506 . S
H648 C631 0.931 . S
H649 C632 0.931 . S
H650 C633 0.929 . S
H651 C634 0.930 . S
H652 C642 0.931 . S
H653 C643 0.931 . S
H654 C644 0.930 . S
H655 C645 0.929 . S
C656 C657 1.391 . S
C656 C658 1.394 . S
C656 H672 0.931 . S
C657 C656 1.391 . S
C657 C661 1.376 . S
C658 C656 1.394 . S
C658 C659 1.369 . S
C658 C662 1.531 . S
C659 C658 1.369 . S
C659 C660 1.410 . S
C659 C667 1.503 . S
C660 C659 1.410 . S
C660 C661 1.392 . S
C660 C663 1.511 . S
C661 C657 1.376 . S
C661 C660 1.392 . S
C661 H673 0.929 . S
C662 C658 1.531 . S
C662 H674 0.960 . S
C662 H675 0.962 . S
C662 H676 0.960 . S
C663 C660 1.511 . S
C663 H677 0.961 . S
C663 H678 0.961 . S
C663 H679 0.961 . S
C664 C665 1.370 . S
C664 C666 1.363 . S
C664 H680 0.931 1_545 S
C665 C664 1.370 . S
C665 C669 1.408 . S
C666 C664 1.363 . S
C666 C667 1.370 . S
C666 C670 1.524 1_545 S
C667 C659 1.503 . S
C667 C666 1.370 . S
C667 C668 1.403 . S
C668 C667 1.403 . S
C668 C669 1.404 . S
C668 C671 1.539 . S
C669 C665 1.408 . S
C669 C668 1.404 . S
C669 H681 0.930 . S
C670 C666 1.524 1_565 S
C670 H682 0.956 . S
C670 H683 0.961 . S
C670 H684 0.961 . S
C671 C668 1.539 . S
C671 H685 0.958 . S
C671 H686 0.961 . S
C671 H687 0.960 . S
H672 C656 0.931 . S
H673 C661 0.929 . S
H674 C662 0.960 . S
H675 C662 0.962 . S
H676 C662 0.960 . S
H677 C663 0.961 . S
H678 C663 0.961 . S
H679 C663 0.961 . S
H680 C664 0.931 1_565 S
H681 C669 0.930 . S
H682 C670 0.956 . S
H683 C670 0.961 . S
H684 C670 0.961 . S
H685 C671 0.958 . S
H686 C671 0.961 . S
H687 C671 0.960 . S
C688 C689 1.391 . S
C688 C690 1.394 . S
C688 H704 0.931 . S
C689 C688 1.391 . S
C689 C693 1.376 . S
C690 C688 1.394 . S
C690 C691 1.369 . S
C690 C694 1.531 . S
C691 C690 1.369 . S
C691 C692 1.410 . S
C691 C699 1.503 . S
C692 C691 1.410 . S
C692 C693 1.392 . S
C692 C695 1.511 . S
C693 C689 1.376 . S
C693 C692 1.392 . S
C693 H705 0.929 . S
C694 C690 1.531 . S
C694 H706 0.960 . S
C694 H707 0.962 . S
C694 H708 0.960 . S
C695 C692 1.511 . S
C695 H709 0.961 . S
C695 H710 0.961 . S
C695 H711 0.961 . S
C696 C697 1.370 . S
C696 C698 1.363 . S
C696 H712 0.931 . S
C697 C696 1.370 . S
C697 C701 1.408 . S
C698 C696 1.363 . S
C698 C699 1.370 . S
C698 C702 1.524 . S
C699 C691 1.503 . S
C699 C698 1.370 . S
C699 C700 1.403 . S
C700 C699 1.403 . S
C700 C701 1.404 . S
C700 C703 1.539 . S
C701 C697 1.408 . S
C701 C700 1.404 . S
C701 H713 0.930 . S
C702 C698 1.524 . S
C702 H714 0.956 . S
C702 H715 0.961 . S
C702 H716 0.961 . S
C703 C700 1.539 . S
C703 H717 0.958 . S
C703 H718 0.961 . S
C703 H719 0.960 . S
H704 C688 0.931 . S
H705 C693 0.929 . S
H706 C694 0.960 . S
H707 C694 0.962 . S
H708 C694 0.960 . S
H709 C695 0.961 . S
H710 C695 0.961 . S
H711 C695 0.961 . S
H712 C696 0.931 . S
H713 C701 0.930 . S
H714 C702 0.956 . S
H715 C702 0.961 . S
H716 C702 0.961 . S
H717 C703 0.958 . S
H718 C703 0.961 . S
H719 C703 0.960 . S
C720 C721 1.391 . S
C720 C722 1.394 . S
C720 H736 0.931 . S
C721 C720 1.391 . S
C721 C725 1.376 . S
C722 C720 1.394 . S
C722 C723 1.369 . S
C722 C726 1.531 . S
C723 C722 1.369 . S
C723 C724 1.410 . S
C723 C731 1.503 . S
C724 C723 1.410 . S
C724 C725 1.392 . S
C724 C727 1.511 . S
C725 C721 1.376 . S
C725 C724 1.392 . S
C725 H737 0.929 . S
C726 C722 1.531 . S
C726 H738 0.960 . S
C726 H739 0.962 . S
C726 H740 0.960 . S
C727 C724 1.511 . S
C727 H741 0.961 . S
C727 H742 0.961 . S
C727 H743 0.961 . S
C728 C729 1.370 . S
C728 C730 1.363 . S
C728 H744 0.931 . S
C729 C728 1.370 . S
C729 C733 1.408 . S
C730 C728 1.363 . S
C730 C731 1.370 . S
C730 C734 1.524 . S
C731 C723 1.503 . S
C731 C730 1.370 . S
C731 C732 1.403 . S
C732 C731 1.403 . S
C732 C733 1.404 . S
C732 C735 1.539 . S
C733 C729 1.408 . S
C733 C732 1.404 . S
C733 H745 0.930 . S
C734 C730 1.524 . S
C734 H746 0.956 . S
C734 H747 0.961 . S
C734 H748 0.961 . S
C735 C732 1.539 . S
C735 H749 0.958 . S
C735 H750 0.961 . S
C735 H751 0.960 . S
H736 C720 0.931 . S
H737 C725 0.929 . S
H738 C726 0.960 . S
H739 C726 0.962 . S
H740 C726 0.960 . S
H741 C727 0.961 . S
H742 C727 0.961 . S
H743 C727 0.961 . S
H744 C728 0.931 . S
H745 C733 0.930 . S
H746 C734 0.956 . S
H747 C734 0.961 . S
H748 C734 0.961 . S
H749 C735 0.958 . S
H750 C735 0.961 . S
H751 C735 0.960 . S
C752 C753 1.391 . S
C752 C754 1.394 . S
C752 H768 0.931 . S
C753 C752 1.391 . S
C753 C757 1.376 . S
C754 C752 1.394 . S
C754 C755 1.369 . S
C754 C758 1.531 . S
C755 C754 1.369 . S
C755 C756 1.410 . S
C755 C763 1.503 . S
C756 C755 1.410 . S
C756 C757 1.392 . S
C756 C759 1.511 . S
C757 C753 1.376 . S
C757 C756 1.392 . S
C757 H769 0.929 . S
C758 C754 1.531 . S
C758 H770 0.960 . S
C758 H771 0.962 . S
C758 H772 0.960 . S
C759 C756 1.511 . S
C759 H773 0.961 . S
C759 H774 0.961 . S
C759 H775 0.961 . S
C760 C761 1.370 . S
C760 C762 1.363 . S
C760 H776 0.931 1_455 S
C761 C760 1.370 . S
C761 C765 1.408 . S
C762 C760 1.363 . S
C762 C763 1.370 . S
C762 C766 1.524 1_455 S
C763 C755 1.503 . S
C763 C762 1.370 . S
C763 C764 1.403 . S
C764 C763 1.403 . S
C764 C765 1.404 . S
C764 C767 1.539 . S
C765 C761 1.408 . S
C765 C764 1.404 . S
C765 H777 0.930 . S
C766 C762 1.524 1_655 S
C766 H778 0.956 . S
C766 H779 0.961 . S
C766 H780 0.961 . S
C767 C764 1.539 . S
C767 H781 0.958 . S
C767 H782 0.961 . S
C767 H783 0.960 . S
H768 C752 0.931 . S
H769 C757 0.929 . S
H770 C758 0.960 . S
H771 C758 0.962 . S
H772 C758 0.960 . S
H773 C759 0.961 . S
H774 C759 0.961 . S
H775 C759 0.961 . S
H776 C760 0.931 1_655 S
H777 C765 0.930 . S
H778 C766 0.956 . S
H779 C766 0.961 . S
H780 C766 0.961 . S
H781 C767 0.958 . S
H782 C767 0.961 . S
H783 C767 0.960 . S
C784 C785 1.391 . S
C784 C786 1.394 1_554 S
C784 H800 0.941 . S
C785 C784 1.391 . S
C785 C789 1.376 . S
C786 C784 1.394 1_556 S
C786 C787 1.369 . S
C786 C790 1.531 1_565 S
C787 C786 1.369 . S
C787 C788 1.410 . S
C787 C795 1.503 . S
C788 C787 1.410 . S
C788 C789 1.392 1_556 S
C788 C791 1.511 . S
C789 C785 1.376 . S
C789 C788 1.392 1_554 S
C789 H801 0.929 . S
C790 C786 1.531 1_545 S
C790 H802 0.960 . S
C790 H803 0.962 . S
C790 H804 0.960 . S
C791 C788 1.511 . S
C791 H805 0.961 . S
C791 H806 0.961 . S
C791 H807 0.961 . S
C792 C793 1.370 . S
C792 C794 1.363 . S
C792 H808 0.931 . S
C793 C792 1.370 . S
C793 C797 1.408 1_565 S
C794 C792 1.363 . S
C794 C795 1.370 . S
C794 C798 1.524 . S
C795 C787 1.503 . S
C795 C794 1.370 . S
C795 C796 1.403 1_565 S
C796 C795 1.403 1_545 S
C796 C797 1.404 . S
C796 C799 1.539 . S
C797 C793 1.408 1_545 S
C797 C796 1.404 . S
C797 H809 0.930 . S
C798 C794 1.524 . S
C798 H810 0.956 . S
C798 H811 0.961 . S
C798 H812 0.961 . S
C799 C796 1.539 . S
C799 H813 0.958 . S
C799 H814 0.961 . S
C799 H815 0.960 . S
H800 C784 0.941 . S
H801 C789 0.929 . S
H802 C790 0.960 . S
H803 C790 0.962 . S
H804 C790 0.960 . S
H805 C791 0.961 . S
H806 C791 0.961 . S
H807 C791 0.961 . S
H808 C792 0.931 . S
H809 C797 0.930 . S
H810 C798 0.956 . S
H811 C798 0.961 . S
H812 C798 0.961 . S
H813 C799 0.958 . S
H814 C799 0.961 . S
H815 C799 0.960 . S
C816 C817 1.391 . S
C816 C818 1.394 1_554 S
C816 H832 0.931 . S
C817 C816 1.391 . S
C817 C821 1.376 . S
C818 C816 1.394 1_556 S
C818 C819 1.369 . S
C818 C822 1.531 . S
C819 C818 1.369 . S
C819 C820 1.410 . S
C819 C827 1.503 . S
C820 C819 1.410 . S
C820 C821 1.392 1_556 S
C820 C823 1.511 . S
C821 C817 1.376 . S
C821 C820 1.392 1_554 S
C821 H833 0.929 . S
C822 C818 1.531 . S
C822 H834 0.960 . S
C822 H835 0.962 . S
C822 H836 0.960 . S
C823 C820 1.511 . S
C823 H837 0.961 1_556 S
C823 H838 0.961 . S
C823 H839 0.961 . S
C824 C825 1.370 . S
C824 C826 1.363 . S
C824 H840 0.931 . S
C825 C824 1.370 . S
C825 C829 1.408 . S
C826 C824 1.363 . S
C826 C827 1.370 . S
C826 C830 1.524 . S
C827 C819 1.503 . S
C827 C826 1.370 . S
C827 C828 1.403 . S
C828 C827 1.403 . S
C828 C829 1.404 . S
C828 C831 1.539 . S
C829 C825 1.408 . S
C829 C828 1.404 . S
C829 H841 0.930 . S
C830 C826 1.524 . S
C830 H842 0.956 . S
C830 H843 0.961 . S
C830 H844 0.961 . S
C831 C828 1.539 . S
C831 H845 0.958 . S
C831 H846 0.961 . S
C831 H847 0.960 . S
H832 C816 0.931 . S
H833 C821 0.929 . S
H834 C822 0.960 . S
H835 C822 0.962 . S
H836 C822 0.960 . S
H837 C823 0.961 1_554 S
H838 C823 0.961 . S
H839 C823 0.961 . S
H840 C824 0.931 . S
H841 C829 0.930 . S
H842 C830 0.956 . S
H843 C830 0.961 . S
H844 C830 0.961 . S
H845 C831 0.958 . S
H846 C831 0.961 . S
H847 C831 0.960 . S
C848 C849 1.391 . S
C848 C850 1.394 1_554 S
C848 H864 0.931 . S
C849 C848 1.391 . S
C849 C853 1.376 . S
C850 C848 1.394 1_556 S
C850 C851 1.369 . S
C850 C854 1.531 . S
C851 C850 1.369 . S
C851 C852 1.410 . S
C851 C859 1.503 . S
C852 C851 1.410 . S
C852 C853 1.392 1_556 S
C852 C855 1.511 . S
C853 C849 1.376 . S
C853 C852 1.392 1_554 S
C853 H865 0.929 . S
C854 C850 1.531 . S
C854 H866 0.960 . S
C854 H867 0.962 . S
C854 H868 0.960 . S
C855 C852 1.511 . S
C855 H869 0.961 1_556 S
C855 H870 0.961 . S
C855 H871 0.961 . S
C856 C857 1.370 . S
C856 C858 1.363 . S
C856 H872 0.931 . S
C857 C856 1.370 . S
C857 C861 1.408 . S
C858 C856 1.363 . S
C858 C859 1.370 . S
C858 C862 1.524 . S
C859 C851 1.503 . S
C859 C858 1.370 . S
C859 C860 1.403 . S
C860 C859 1.403 . S
C860 C861 1.404 . S
C860 C863 1.539 . S
C861 C857 1.408 . S
C861 C860 1.404 . S
C861 H873 0.930 . S
C862 C858 1.524 . S
C862 H874 0.956 . S
C862 H875 0.961 . S
C862 H876 0.961 . S
C863 C860 1.539 . S
C863 H877 0.958 . S
C863 H878 0.961 . S
C863 H879 0.960 . S
H864 C848 0.931 . S
H865 C853 0.929 . S
H866 C854 0.960 . S
H867 C854 0.962 . S
H868 C854 0.960 . S
H869 C855 0.961 1_554 S
H870 C855 0.961 . S
H871 C855 0.961 . S
H872 C856 0.931 . S
H873 C861 0.930 . S
H874 C862 0.956 . S
H875 C862 0.961 . S
H876 C862 0.961 . S
H877 C863 0.958 . S
H878 C863 0.961 . S
H879 C863 0.960 . S
C880 C881 1.391 . S
C880 C882 1.394 1_554 S
C880 H896 0.931 . S
C881 C880 1.391 . S
C881 C885 1.376 . S
C882 C880 1.394 1_556 S
C882 C883 1.369 . S
C882 C886 1.531 1_655 S
C883 C882 1.369 . S
C883 C884 1.410 . S
C883 C891 1.503 . S
C884 C883 1.410 . S
C884 C885 1.392 1_556 S
C884 C887 1.511 . S
C885 C881 1.376 . S
C885 C884 1.392 1_554 S
C885 H897 0.929 . S
C886 C882 1.531 1_455 S
C886 H898 0.960 . S
C886 H899 0.962 . S
C886 H900 0.960 1_556 S
C887 C884 1.511 . S
C887 H901 0.961 . S
C887 H902 0.961 . S
C887 H903 0.961 . S
C888 C889 1.360 1_455 S
C888 C890 1.356 1_455 S
C888 H904 0.949 . S
C889 C888 1.360 1_655 S
C889 C893 1.408 . S
C890 C888 1.356 1_655 S
C890 C891 1.370 . S
C890 C894 1.524 1_655 S
C891 C883 1.503 . S
C891 C890 1.370 . S
C891 C892 1.403 . S
C892 C891 1.403 . S
C892 C893 1.404 . S
C892 C895 1.539 . S
C893 C889 1.408 . S
C893 C892 1.404 . S
C893 H905 0.930 . S
C894 C890 1.524 1_455 S
C894 H906 0.956 . S
C894 H907 0.961 1_455 S
C894 H908 0.961 . S
C895 C892 1.539 . S
C895 H909 0.958 . S
C895 H910 0.961 . S
C895 H911 0.960 . S
H896 C880 0.931 . S
H897 C885 0.929 . S
H898 C886 0.960 . S
H899 C886 0.962 . S
H900 C886 0.960 1_554 S
H901 C887 0.961 . S
H902 C887 0.961 . S
H903 C887 0.961 . S
H904 C888 0.949 . S
H905 C893 0.930 . S
H906 C894 0.956 . S
H907 C894 0.961 1_655 S
H908 C894 0.961 . S
H909 C895 0.958 . S
H910 C895 0.961 . S
H911 C895 0.960 . S
C912 C913 1.391 . S
C912 C914 1.394 . S
C912 H928 0.931 . S
C913 C912 1.391 . S
C913 C917 1.376 . S
C914 C912 1.394 . S
C914 C915 1.369 . S
C914 C918 1.531 . S
C915 C914 1.369 . S
C915 C916 1.410 . S
C915 C923 1.503 . S
C916 C915 1.410 . S
C916 C917 1.392 . S
C916 C919 1.511 1_455 S
C917 C913 1.376 . S
C917 C916 1.392 . S
C917 H929 0.929 . S
C918 C914 1.531 . S
C918 H930 0.960 . S
C918 H931 0.962 . S
C918 H932 0.960 . S
C919 C916 1.511 1_655 S
C919 H933 0.961 . S
C919 H934 0.961 . S
C919 H935 0.961 . S
C920 C921 1.385 . S
C920 C922 1.363 . S
C920 H936 0.931 . S
C921 C920 1.385 . S
C921 C925 1.416 . S
C922 C920 1.363 . S
C922 C923 1.370 . S
C922 C926 1.524 . S
C923 C915 1.503 . S
C923 C922 1.370 . S
C923 C924 1.403 . S
C924 C923 1.403 . S
C924 C925 1.404 . S
C924 C927 1.539 . S
C925 C921 1.416 . S
C925 C924 1.404 . S
C925 H937 0.928 1_455 S
C926 C922 1.524 . S
C926 H938 0.956 . S
C926 H939 0.961 . S
C926 H940 0.961 . S
C927 C924 1.539 . S
C927 H941 0.958 . S
C927 H942 0.961 . S
C927 H943 0.960 . S
H928 C912 0.931 . S
H929 C917 0.929 . S
H930 C918 0.960 . S
H931 C918 0.962 . S
H932 C918 0.960 . S
H933 C919 0.961 . S
H934 C919 0.961 . S
H935 C919 0.961 . S
H936 C920 0.931 . S
H937 C925 0.928 1_655 S
H938 C926 0.956 . S
H939 C926 0.961 . S
H940 C926 0.961 . S
H941 C927 0.958 . S
H942 C927 0.961 . S
H943 C927 0.960 . S
C944 C945 1.391 . S
C944 C946 1.394 . S
C944 H960 0.931 . S
C945 C944 1.391 . S
C945 C949 1.376 . S
C946 C944 1.394 . S
C946 C947 1.369 . S
C946 C950 1.531 . S
C947 C946 1.369 . S
C947 C948 1.410 . S
C947 C955 1.503 . S
C948 C947 1.410 . S
C948 C949 1.392 . S
C948 C951 1.511 . S
C949 C945 1.376 . S
C949 C948 1.392 . S
C949 H961 0.929 . S
C950 C946 1.531 . S
C950 H962 0.960 . S
C950 H963 0.962 1_545 S
C950 H964 0.960 . S
C951 C948 1.511 . S
C951 H965 0.961 . S
C951 H966 0.961 . S
C951 H967 0.961 . S
C952 C953 1.370 1_565 S
C952 C954 1.363 1_565 S
C952 H968 0.931 . S
C953 C952 1.370 1_545 S
C953 C957 1.408 . S
C954 C952 1.363 1_545 S
C954 C955 1.370 . S
C954 C958 1.524 . S
C955 C947 1.503 . S
C955 C954 1.370 . S
C955 C956 1.403 . S
C956 C955 1.403 . S
C956 C957 1.404 . S
C956 C959 1.539 . S
C957 C953 1.408 . S
C957 C956 1.404 . S
C957 H969 0.930 . S
C958 C954 1.524 . S
C958 H970 0.956 1_545 S
C958 H971 0.961 . S
C958 H972 0.961 1_545 S
C959 C956 1.539 . S
C959 H973 0.958 . S
C959 H974 0.961 . S
C959 H975 0.960 . S
H960 C944 0.931 . S
H961 C949 0.929 . S
H962 C950 0.960 . S
H963 C950 0.962 1_565 S
H964 C950 0.960 . S
H965 C951 0.961 . S
H966 C951 0.961 . S
H967 C951 0.961 . S
H968 C952 0.931 . S
H969 C957 0.930 . S
H970 C958 0.956 1_565 S
H971 C958 0.961 . S
H972 C958 0.961 1_565 S
H973 C959 0.958 . S
H974 C959 0.961 . S
H975 C959 0.960 . S
C976 C977 1.391 . S
C976 C978 1.394 . S
C976 H992 0.931 . S
C977 C976 1.391 . S
C977 C981 1.376 . S
C978 C976 1.394 . S
C978 C979 1.369 . S
C978 C982 1.531 . S
C979 C978 1.369 . S
C979 C980 1.410 . S
C979 C987 1.503 . S
C980 C979 1.410 . S
C980 C981 1.392 . S
C980 C983 1.511 . S
C981 C977 1.376 . S
C981 C980 1.392 . S
C981 H993 0.929 . S
C982 C978 1.531 . S
C982 H994 0.960 . S
C982 H995 0.962 . S
C982 H996 0.960 . S
C983 C980 1.511 . S
C983 H997 0.961 . S
C983 H998 0.961 . S
C983 H999 0.961 . S
C984 C985 1.370 . S
C984 C986 1.363 . S
C984 H1000 0.931 . S
C985 C984 1.370 . S
C985 C989 1.408 . S
C986 C984 1.363 . S
C986 C987 1.370 . S
C986 C990 1.524 . S
C987 C979 1.503 . S
C987 C986 1.370 . S
C987 C988 1.403 . S
C988 C987 1.403 . S
C988 C989 1.404 . S
C988 C991 1.539 . S
C989 C985 1.408 . S
C989 C988 1.404 . S
C989 H1001 0.930 . S
C990 C986 1.524 . S
C990 H1002 0.956 . S
C990 H1003 0.961 . S
C990 H1004 0.961 . S
C991 C988 1.539 . S
C991 H1005 0.958 . S
C991 H1006 0.961 . S
C991 H1007 0.960 . S
H992 C976 0.931 . S
H993 C981 0.929 . S
H994 C982 0.960 . S
H995 C982 0.962 . S
H996 C982 0.960 . S
H997 C983 0.961 . S
H998 C983 0.961 . S
H999 C983 0.961 . S
H1000 C984 0.931 . S
H1001 C989 0.930 . S
H1002 C990 0.956 . S
H1003 C990 0.961 . S
H1004 C990 0.961 . S
H1005 C991 0.958 . S
H1006 C991 0.961 . S
H1007 C991 0.960 . S
C1008 C1009 1.391 . S
C1008 C1010 1.394 . S
C1008 H1024 0.931 . S
C1009 C1008 1.391 . S
C1009 C1013 1.376 . S
C1010 C1008 1.394 . S
C1010 C1011 1.369 . S
C1010 C1014 1.531 . S
C1011 C1010 1.369 . S
C1011 C1012 1.410 . S
C1011 C1019 1.503 . S
C1012 C1011 1.410 . S
C1012 C1013 1.392 . S
C1012 C1015 1.511 . S
C1013 C1009 1.376 . S
C1013 C1012 1.392 . S
C1013 H1025 0.929 . S
C1014 C1010 1.531 . S
C1014 H1026 0.960 . S
C1014 H1027 0.962 . S
C1014 H1028 0.960 . S
C1015 C1012 1.511 . S
C1015 H1029 0.961 . S
C1015 H1030 0.961 . S
C1015 H1031 0.961 . S
C1016 C1017 1.370 . S
C1016 C1018 1.363 . S
C1016 H1032 0.931 . S
C1017 C1016 1.370 . S
C1017 C1021 1.408 . S
C1018 C1016 1.363 . S
C1018 C1019 1.370 . S
C1018 C1022 1.524 . S
C1019 C1011 1.503 . S
C1019 C1018 1.370 . S
C1019 C1020 1.403 . S
C1020 C1019 1.403 . S
C1020 C1021 1.404 . S
C1020 C1023 1.539 . S
C1021 C1017 1.408 . S
C1021 C1020 1.404 . S
C1021 H1033 0.930 . S
C1022 C1018 1.524 . S
C1022 H1034 0.956 . S
C1022 H1035 0.961 . S
C1022 H1036 0.961 . S
C1023 C1020 1.539 . S
C1023 H1037 0.958 . S
C1023 H1038 0.961 . S
C1023 H1039 0.960 . S
H1024 C1008 0.931 . S
H1025 C1013 0.929 . S
H1026 C1014 0.960 . S
H1027 C1014 0.962 . S
H1028 C1014 0.960 . S
H1029 C1015 0.961 . S
H1030 C1015 0.961 . S
H1031 C1015 0.961 . S
H1032 C1016 0.931 . S
H1033 C1021 0.930 . S
H1034 C1022 0.956 . S
H1035 C1022 0.961 . S
H1036 C1022 0.961 . S
H1037 C1023 0.958 . S
H1038 C1023 0.961 . S
H1039 C1023 0.960 . S
C1040 C1041 1.391 1_554 S
C1040 C1042 1.394 1_554 S
C1040 H1056 0.931 . S
C1041 C1040 1.391 1_556 S
C1041 C1045 1.376 . S
C1042 C1040 1.394 1_556 S
C1042 C1043 1.369 . S
C1042 C1046 1.531 1_556 S
C1043 C1042 1.369 . S
C1043 C1044 1.410 . S
C1043 C1051 1.503 . S
C1044 C1043 1.410 . S
C1044 C1045 1.392 . S
C1044 C1047 1.511 . S
C1045 C1041 1.376 . S
C1045 C1044 1.392 . S
C1045 H1057 0.929 . S
C1046 C1042 1.531 1_554 S
C1046 H1058 0.960 1_654 S
C1046 H1059 0.962 . S
C1046 H1060 0.975 . S
C1047 C1044 1.511 . S
C1047 H1061 0.961 . S
C1047 H1062 0.961 . S
C1047 H1063 0.961 . S
C1048 C1049 1.370 1_655 S
C1048 C1050 1.363 . S
C1048 H1064 0.931 . S
C1049 C1048 1.370 1_455 S
C1049 C1053 1.408 . S
C1050 C1048 1.363 . S
C1050 C1051 1.370 . S
C1050 C1054 1.524 . S
C1051 C1043 1.503 . S
C1051 C1050 1.370 . S
C1051 C1052 1.403 1_655 S
C1052 C1051 1.403 1_455 S
C1052 C1053 1.404 . S
C1052 C1055 1.539 . S
C1053 C1049 1.408 . S
C1053 C1052 1.404 . S
C1053 H1065 0.930 . S
C1054 C1050 1.524 . S
C1054 H1066 0.956 . S
C1054 H1067 0.961 . S
C1054 H1068 0.961 . S
C1055 C1052 1.539 . S
C1055 H1069 0.958 . S
C1055 H1070 0.961 . S
C1055 H1071 0.960 . S
H1056 C1040 0.931 . S
H1057 C1045 0.929 . S
H1058 C1046 0.960 1_456 S
H1059 C1046 0.962 . S
H1060 C1046 0.975 . S
H1061 C1047 0.961 . S
H1062 C1047 0.961 . S
H1063 C1047 0.961 . S
H1064 C1048 0.931 . S
H1065 C1053 0.930 . S
H1066 C1054 0.956 . S
H1067 C1054 0.961 . S
H1068 C1054 0.961 . S
H1069 C1055 0.958 . S
H1070 C1055 0.961 . S
H1071 C1055 0.960 . S
C1072 C1073 1.391 . S
C1072 C1074 1.394 . S
C1072 H1088 0.931 . S
C1073 C1072 1.391 . S
C1073 C1077 1.372 1_556 S
C1074 C1072 1.394 . S
C1074 C1075 1.369 . S
C1074 C1078 1.531 . S
C1075 C1074 1.369 . S
C1075 C1076 1.410 . S
C1075 C1083 1.503 . S
C1076 C1075 1.410 . S
C1076 C1077 1.387 1_556 S
C1076 C1079 1.511 . S
C1077 C1073 1.372 1_554 S
C1077 C1076 1.387 1_554 S
C1077 H1089 0.938 . S
C1078 C1074 1.531 . S
C1078 H1090 0.960 . S
C1078 H1091 0.962 1_565 S
C1078 H1092 0.960 . S
C1079 C1076 1.511 . S
C1079 H1093 0.961 1_556 S
C1079 H1094 0.961 . S
C1079 H1095 0.961 . S
C1080 C1081 1.370 . S
C1080 C1082 1.363 . S
C1080 H1096 0.931 . S
C1081 C1080 1.370 . S
C1081 C1085 1.408 1_545 S
C1082 C1080 1.363 . S
C1082 C1083 1.370 1_545 S
C1082 C1086 1.524 . S
C1083 C1075 1.503 . S
C1083 C1082 1.370 1_565 S
C1083 C1084 1.403 . S
C1084 C1083 1.403 . S
C1084 C1085 1.404 . S
C1084 C1087 1.539 . S
C1085 C1081 1.408 1_565 S
C1085 C1084 1.404 . S
C1085 H1097 0.930 . S
C1086 C1082 1.524 . S
C1086 H1098 0.956 . S
C1086 H1099 0.961 . S
C1086 H1100 0.961 . S
C1087 C1084 1.539 . S
C1087 H1101 0.958 . S
C1087 H1102 0.961 . S
C1087 H1103 0.960 . S
H1088 C1072 0.931 . S
H1089 C1077 0.938 . S
H1090 C1078 0.960 . S
H1091 C1078 0.962 1_545 S
H1092 C1078 0.960 . S
H1093 C1079 0.961 1_554 S
H1094 C1079 0.961 . S
H1095 C1079 0.961 . S
H1096 C1080 0.931 . S
H1097 C1085 0.930 . S
H1098 C1086 0.956 . S
H1099 C1086 0.961 . S
H1100 C1086 0.961 . S
H1101 C1087 0.958 . S
H1102 C1087 0.961 . S
H1103 C1087 0.960 . S
C1104 C1105 1.391 . S
C1104 C1106 1.394 . S
C1104 H1120 0.931 . S
C1105 C1104 1.391 . S
C1105 C1109 1.376 . S
C1106 C1104 1.394 . S
C1106 C1107 1.369 . S
C1106 C1110 1.531 . S
C1107 C1106 1.369 . S
C1107 C1108 1.410 . S
C1107 C1115 1.503 . S
C1108 C1107 1.410 . S
C1108 C1109 1.392 . S
C1108 C1111 1.511 . S
C1109 C1105 1.376 . S
C1109 C1108 1.392 . S
C1109 H1121 0.929 . S
C1110 C1106 1.531 . S
C1110 H1122 0.960 . S
C1110 H1123 0.962 . S
C1110 H1124 0.960 . S
C1111 C1108 1.511 . S
C1111 H1125 0.961 . S
C1111 H1126 0.961 . S
C1111 H1127 0.961 . S
C1112 C1113 1.370 . S
C1112 C1114 1.363 . S
C1112 H1128 0.931 . S
C1113 C1112 1.370 . S
C1113 C1117 1.408 . S
C1114 C1112 1.363 . S
C1114 C1115 1.370 . S
C1114 C1118 1.524 . S
C1115 C1107 1.503 . S
C1115 C1114 1.370 . S
C1115 C1116 1.403 . S
C1116 C1115 1.403 . S
C1116 C1117 1.404 . S
C1116 C1119 1.539 . S
C1117 C1113 1.408 . S
C1117 C1116 1.404 . S
C1117 H1129 0.930 . S
C1118 C1114 1.524 . S
C1118 H1130 0.956 . S
C1118 H1131 0.969 . S
C1118 H1132 0.960 . S
C1119 C1116 1.539 . S
C1119 H1133 0.958 . S
C1119 H1134 0.961 . S
C1119 H1135 0.960 . S
H1120 C1104 0.931 . S
H1121 C1109 0.929 . S
H1122 C1110 0.960 . S
H1123 C1110 0.962 . S
H1124 C1110 0.960 . S
H1125 C1111 0.961 . S
H1126 C1111 0.961 . S
H1127 C1111 0.961 . S
H1128 C1112 0.931 . S
H1129 C1117 0.930 . S
H1130 C1118 0.956 . S
H1131 C1118 0.969 . S
H1132 C1118 0.960 . S
H1133 C1119 0.958 . S
H1134 C1119 0.961 . S
H1135 C1119 0.960 . S
C1136 C1137 1.391 . S
C1136 C1138 1.394 . S
C1136 H1152 0.931 . S
C1137 C1136 1.391 . S
C1137 C1141 1.376 1_556 S
C1138 C1136 1.394 . S
C1138 C1139 1.369 . S
C1138 C1142 1.531 . S
C1139 C1138 1.369 . S
C1139 C1140 1.410 . S
C1139 C1147 1.503 . S
C1140 C1139 1.410 . S
C1140 C1141 1.392 1_556 S
C1140 C1143 1.510 1_556 S
C1141 C1137 1.376 1_554 S
C1141 C1140 1.392 1_554 S
C1141 H1153 0.929 . S
C1142 C1138 1.531 . S
C1142 H1154 0.960 . S
C1142 H1155 0.962 . S
C1142 H1156 0.960 . S
C1143 C1140 1.510 1_554 S
C1143 H1157 0.963 . S
C1143 H1158 0.961 1_554 S
C1143 H1159 0.960 1_554 S
C1144 C1145 1.370 . S
C1144 C1146 1.363 . S
C1144 H1160 0.931 . S
C1145 C1144 1.370 . S
C1145 C1149 1.408 . S
C1146 C1144 1.363 . S
C1146 C1147 1.370 . S
C1146 C1150 1.524 . S
C1147 C1139 1.503 . S
C1147 C1146 1.370 . S
C1147 C1148 1.403 . S
C1148 C1147 1.403 . S
C1148 C1149 1.404 . S
C1148 C1151 1.539 . S
C1149 C1145 1.408 . S
C1149 C1148 1.404 . S
C1149 H1161 0.930 . S
C1150 C1146 1.524 . S
C1150 H1162 0.956 . S
C1150 H1163 0.961 . S
C1150 H1164 0.961 . S
C1151 C1148 1.539 . S
C1151 H1165 0.958 . S
C1151 H1166 0.961 . S
C1151 H1167 0.960 . S
H1152 C1136 0.931 . S
H1153 C1141 0.929 . S
H1154 C1142 0.960 . S
H1155 C1142 0.962 . S
H1156 C1142 0.960 . S
H1157 C1143 0.963 . S
H1158 C1143 0.961 1_556 S
H1159 C1143 0.960 1_556 S
H1160 C1144 0.931 . S
H1161 C1149 0.930 . S
H1162 C1150 0.956 . S
H1163 C1150 0.961 . S
H1164 C1150 0.961 . S
H1165 C1151 0.958 . S
H1166 C1151 0.961 . S
H1167 C1151 0.960 . S
C1168 C1169 1.391 . S
C1168 C1170 1.394 . S
C1168 H1184 0.931 . S
C1169 C1168 1.391 . S
C1169 C1173 1.376 . S
C1170 C1168 1.394 . S
C1170 C1171 1.369 . S
C1170 C1174 1.531 . S
C1171 C1170 1.369 . S
C1171 C1172 1.410 . S
C1171 C1179 1.503 . S
C1172 C1171 1.410 . S
C1172 C1173 1.392 . S
C1172 C1175 1.511 1_455 S
C1173 C1169 1.376 . S
C1173 C1172 1.392 . S
C1173 H1185 0.929 . S
C1174 C1170 1.531 . S
C1174 H1186 0.960 . S
C1174 H1187 0.962 . S
C1174 H1188 0.960 . S
C1175 C1172 1.511 1_655 S
C1175 H1189 0.961 . S
C1175 H1190 0.962 1_655 S
C1175 H1191 0.961 . S
C1176 C1177 1.370 . S
C1176 C1178 1.363 . S
C1176 H1192 0.931 . S
C1177 C1176 1.370 . S
C1177 C1181 1.408 . S
C1178 C1176 1.363 . S
C1178 C1179 1.370 . S
C1178 C1182 1.524 . S
C1179 C1171 1.503 . S
C1179 C1178 1.370 . S
C1179 C1180 1.403 . S
C1180 C1179 1.403 . S
C1180 C1181 1.404 . S
C1180 C1183 1.539 . S
C1181 C1177 1.408 . S
C1181 C1180 1.404 . S
C1181 H1193 0.930 . S
C1182 C1178 1.524 . S
C1182 H1194 0.956 . S
C1182 H1195 0.961 . S
C1182 H1196 0.961 . S
C1183 C1180 1.539 . S
C1183 H1197 0.958 . S
C1183 H1198 0.961 1_455 S
C1183 H1199 0.960 1_455 S
H1184 C1168 0.931 . S
H1185 C1173 0.929 . S
H1186 C1174 0.960 . S
H1187 C1174 0.962 . S
H1188 C1174 0.960 . S
H1189 C1175 0.961 . S
H1190 C1175 0.962 1_455 S
H1191 C1175 0.961 . S
H1192 C1176 0.931 . S
H1193 C1181 0.930 . S
H1194 C1182 0.956 . S
H1195 C1182 0.961 . S
H1196 C1182 0.961 . S
H1197 C1183 0.958 . S
H1198 C1183 0.961 1_655 S
H1199 C1183 0.960 1_655 S
C1200 C1201 1.391 . S
C1200 C1202 1.394 . S
C1200 H1216 0.931 . S
C1201 C1200 1.391 . S
C1201 C1205 1.376 . S
C1202 C1200 1.394 . S
C1202 C1203 1.369 . S
C1202 C1206 1.531 . S
C1203 C1202 1.369 . S
C1203 C1204 1.410 . S
C1203 C1211 1.503 . S
C1204 C1203 1.410 . S
C1204 C1205 1.392 . S
C1204 C1207 1.511 . S
C1205 C1201 1.376 . S
C1205 C1204 1.392 . S
C1205 H1217 0.929 . S
C1206 C1202 1.531 . S
C1206 H1218 0.960 . S
C1206 H1219 0.962 . S
C1206 H1220 0.960 . S
C1207 C1204 1.511 . S
C1207 H1221 0.961 . S
C1207 H1222 0.961 . S
C1207 H1223 0.961 . S
C1208 C1209 1.370 . S
C1208 C1210 1.363 . S
C1208 H1224 0.931 1_545 S
C1209 C1208 1.370 . S
C1209 C1213 1.408 . S
C1210 C1208 1.363 . S
C1210 C1211 1.370 . S
C1210 C1214 1.524 1_545 S
C1211 C1203 1.503 . S
C1211 C1210 1.370 . S
C1211 C1212 1.403 . S
C1212 C1211 1.403 . S
C1212 C1213 1.404 . S
C1212 C1215 1.539 . S
C1213 C1209 1.408 . S
C1213 C1212 1.404 . S
C1213 H1225 0.930 . S
C1214 C1210 1.524 1_565 S
C1214 H1226 0.956 . S
C1214 H1227 0.961 1_565 S
C1214 H1228 0.961 . S
C1215 C1212 1.539 . S
C1215 H1229 0.958 . S
C1215 H1230 0.961 . S
C1215 H1231 0.960 . S
H1216 C1200 0.931 . S
H1217 C1205 0.929 . S
H1218 C1206 0.960 . S
H1219 C1206 0.962 . S
H1220 C1206 0.960 . S
H1221 C1207 0.961 . S
H1222 C1207 0.961 . S
H1223 C1207 0.961 . S
H1224 C1208 0.931 1_565 S
H1225 C1213 0.930 . S
H1226 C1214 0.956 . S
H1227 C1214 0.961 1_545 S
H1228 C1214 0.961 . S
H1229 C1215 0.958 . S
H1230 C1215 0.961 . S
H1231 C1215 0.960 . S
C1232 C1233 1.391 . S
C1232 C1234 1.394 . S
C1232 H1248 0.931 . S
C1233 C1232 1.391 . S
C1233 C1237 1.376 . S
C1234 C1232 1.394 . S
C1234 C1235 1.369 . S
C1234 C1238 1.531 . S
C1235 C1234 1.369 . S
C1235 C1236 1.410 . S
C1235 C1243 1.503 . S
C1236 C1235 1.410 . S
C1236 C1237 1.392 . S
C1236 C1239 1.511 . S
C1237 C1233 1.376 . S
C1237 C1236 1.392 . S
C1237 H1249 0.929 . S
C1238 C1234 1.531 . S
C1238 H1250 0.960 . S
C1238 H1251 0.962 . S
C1238 H1252 0.960 . S
C1239 C1236 1.511 . S
C1239 H1253 0.961 . S
C1239 H1254 0.961 . S
C1239 H1255 0.961 . S
C1240 C1241 1.370 . S
C1240 C1242 1.363 . S
C1240 H1256 0.931 . S
C1241 C1240 1.370 . S
C1241 C1245 1.408 . S
C1242 C1240 1.363 . S
C1242 C1243 1.370 . S
C1242 C1246 1.524 . S
C1243 C1235 1.503 . S
C1243 C1242 1.370 . S
C1243 C1244 1.403 . S
C1244 C1243 1.403 . S
C1244 C1245 1.404 . S
C1244 C1247 1.539 . S
C1245 C1241 1.408 . S
C1245 C1244 1.404 . S
C1245 H1257 0.930 . S
C1246 C1242 1.524 . S
C1246 H1258 0.956 . S
C1246 H1259 0.961 . S
C1246 H1260 0.961 . S
C1247 C1244 1.539 . S
C1247 H1261 0.958 . S
C1247 H1262 0.961 . S
C1247 H1263 0.960 . S
H1248 C1232 0.931 . S
H1249 C1237 0.929 . S
H1250 C1238 0.960 . S
H1251 C1238 0.962 . S
H1252 C1238 0.960 . S
H1253 C1239 0.961 . S
H1254 C1239 0.961 . S
H1255 C1239 0.961 . S
H1256 C1240 0.931 . S
H1257 C1245 0.930 . S
H1258 C1246 0.956 . S
H1259 C1246 0.961 . S
H1260 C1246 0.961 . S
H1261 C1247 0.958 . S
H1262 C1247 0.961 . S
H1263 C1247 0.960 . S
C1264 C1265 1.391 . S
C1264 C1266 1.394 . S
C1264 H1280 0.931 . S
C1265 C1264 1.391 . S
C1265 C1269 1.376 . S
C1266 C1264 1.394 . S
C1266 C1267 1.369 . S
C1266 C1270 1.531 . S
C1267 C1266 1.369 . S
C1267 C1268 1.410 . S
C1267 C1275 1.503 . S
C1268 C1267 1.410 . S
C1268 C1269 1.392 . S
C1268 C1271 1.511 . S
C1269 C1265 1.376 . S
C1269 C1268 1.392 . S
C1269 H1281 0.929 . S
C1270 C1266 1.531 . S
C1270 H1282 0.960 . S
C1270 H1283 0.962 . S
C1270 H1284 0.960 . S
C1271 C1268 1.511 . S
C1271 H1285 0.961 . S
C1271 H1286 0.961 . S
C1271 H1287 0.961 . S
C1272 C1273 1.370 . S
C1272 C1274 1.363 . S
C1272 H1288 0.931 . S
C1273 C1272 1.370 . S
C1273 C1277 1.408 . S
C1274 C1272 1.363 . S
C1274 C1275 1.370 . S
C1274 C1278 1.524 . S
C1275 C1267 1.503 . S
C1275 C1274 1.370 . S
C1275 C1276 1.403 . S
C1276 C1275 1.403 . S
C1276 C1277 1.404 . S
C1276 C1279 1.539 . S
C1277 C1273 1.408 . S
C1277 C1276 1.404 . S
C1277 H1289 0.930 . S
C1278 C1274 1.524 . S
C1278 H1290 0.956 . S
C1278 H1291 0.961 . S
C1278 H1292 0.961 . S
C1279 C1276 1.539 . S
C1279 H1293 0.958 . S
C1279 H1294 0.961 . S
C1279 H1295 0.960 . S
H1280 C1264 0.931 . S
H1281 C1269 0.929 . S
H1282 C1270 0.960 . S
H1283 C1270 0.962 . S
H1284 C1270 0.960 . S
H1285 C1271 0.961 . S
H1286 C1271 0.961 . S
H1287 C1271 0.961 . S
H1288 C1272 0.931 . S
H1289 C1277 0.930 . S
H1290 C1278 0.956 . S
H1291 C1278 0.961 . S
H1292 C1278 0.961 . S
H1293 C1279 0.958 . S
H1294 C1279 0.961 . S
H1295 C1279 0.960 . S
C1296 C1297 1.391 . S
C1296 C1298 1.394 . S
C1296 H1312 0.931 . S
C1297 C1296 1.391 . S
C1297 C1301 1.376 . S
C1298 C1296 1.394 . S
C1298 C1299 1.369 . S
C1298 C1302 1.531 . S
C1299 C1298 1.369 . S
C1299 C1300 1.410 . S
C1299 C1307 1.503 . S
C1300 C1299 1.410 . S
C1300 C1301 1.392 . S
C1300 C1303 1.511 1_655 S
C1301 C1297 1.376 . S
C1301 C1300 1.392 . S
C1301 H1313 0.929 1_655 S
C1302 C1298 1.531 . S
C1302 H1314 0.960 . S
C1302 H1315 0.962 . S
C1302 H1316 0.960 . S
C1303 C1300 1.511 1_455 S
C1303 H1317 0.961 . S
C1303 H1318 0.961 . S
C1303 H1319 0.961 . S
C1304 C1305 1.370 . S
C1304 C1306 1.363 . S
C1304 H1320 0.931 . S
C1305 C1304 1.370 . S
C1305 C1309 1.408 . S
C1306 C1304 1.363 . S
C1306 C1307 1.370 . S
C1306 C1310 1.524 . S
C1307 C1299 1.503 . S
C1307 C1306 1.370 . S
C1307 C1308 1.403 . S
C1308 C1307 1.403 . S
C1308 C1309 1.404 . S
C1308 C1311 1.539 . S
C1309 C1305 1.408 . S
C1309 C1308 1.404 . S
C1309 H1321 0.930 . S
C1310 C1306 1.524 . S
C1310 H1322 0.956 . S
C1310 H1323 0.961 . S
C1310 H1324 0.961 . S
C1311 C1308 1.539 . S
C1311 H1325 0.958 . S
C1311 H1326 0.961 1_655 S
C1311 H1327 0.960 1_655 S
H1312 C1296 0.931 . S
H1313 C1301 0.929 1_455 S
H1314 C1302 0.960 . S
H1315 C1302 0.962 . S
H1316 C1302 0.960 . S
H1317 C1303 0.961 . S
H1318 C1303 0.961 . S
H1319 C1303 0.961 . S
H1320 C1304 0.931 . S
H1321 C1309 0.930 . S
H1322 C1310 0.956 . S
H1323 C1310 0.961 . S
H1324 C1310 0.961 . S
H1325 C1311 0.958 . S
H1326 C1311 0.961 1_455 S
H1327 C1311 0.960 1_455 S
C1328 C1329 1.391 . S
C1328 C1330 1.394 . S
C1328 H1344 0.931 . S
C1329 C1328 1.391 . S
C1329 C1333 1.376 . S
C1330 C1328 1.394 . S
C1330 C1331 1.369 . S
C1330 C1334 1.531 1_565 S
C1331 C1330 1.369 . S
C1331 C1332 1.410 . S
C1331 C1339 1.503 . S
C1332 C1331 1.410 . S
C1332 C1333 1.392 . S
C1332 C1335 1.511 . S
C1333 C1329 1.376 . S
C1333 C1332 1.392 . S
C1333 H1345 0.929 . S
C1334 C1330 1.531 1_545 S
C1334 H1346 0.960 . S
C1334 H1347 0.962 1_545 S
C1334 H1348 0.960 . S
C1335 C1332 1.511 . S
C1335 H1349 0.961 . S
C1335 H1350 0.961 . S
C1335 H1351 0.961 . S
C1336 C1337 1.370 . S
C1336 C1338 1.363 . S
C1336 H1352 0.931 . S
C1337 C1336 1.370 . S
C1337 C1341 1.408 1_565 S
C1338 C1336 1.363 . S
C1338 C1339 1.370 . S
C1338 C1342 1.524 . S
C1339 C1331 1.503 . S
C1339 C1338 1.370 . S
C1339 C1340 1.403 1_565 S
C1340 C1339 1.403 1_545 S
C1340 C1341 1.404 . S
C1340 C1343 1.539 . S
C1341 C1337 1.408 1_545 S
C1341 C1340 1.404 . S
C1341 H1353 0.930 . S
C1342 C1338 1.524 . S
C1342 H1354 0.956 . S
C1342 H1355 0.961 . S
C1342 H1356 0.961 . S
C1343 C1340 1.539 . S
C1343 H1357 0.958 . S
C1343 H1358 0.961 . S
C1343 H1359 0.960 . S
H1344 C1328 0.931 . S
H1345 C1333 0.929 . S
H1346 C1334 0.960 . S
H1347 C1334 0.962 1_565 S
H1348 C1334 0.960 . S
H1349 C1335 0.961 . S
H1350 C1335 0.961 . S
H1351 C1335 0.961 . S
H1352 C1336 0.931 . S
H1353 C1341 0.930 . S
H1354 C1342 0.956 . S
H1355 C1342 0.961 . S
H1356 C1342 0.961 . S
H1357 C1343 0.958 . S
H1358 C1343 0.961 . S
H1359 C1343 0.960 . S
C1360 C1361 1.391 . S
C1360 C1362 1.394 . S
C1360 H1376 0.931 . S
C1361 C1360 1.391 . S
C1361 C1365 1.376 . S
C1362 C1360 1.394 . S
C1362 C1363 1.369 . S
C1362 C1366 1.531 . S
C1363 C1362 1.369 . S
C1363 C1364 1.410 . S
C1363 C1371 1.503 . S
C1364 C1363 1.410 . S
C1364 C1365 1.392 . S
C1364 C1367 1.511 . S
C1365 C1361 1.376 . S
C1365 C1364 1.392 . S
C1365 H1377 0.929 . S
C1366 C1362 1.531 . S
C1366 H1378 0.960 . S
C1366 H1379 0.962 . S
C1366 H1380 0.960 . S
C1367 C1364 1.511 . S
C1367 H1381 0.961 . S
C1367 H1382 0.961 . S
C1367 H1383 0.961 . S
C1368 C1369 1.370 . S
C1368 C1370 1.363 . S
C1368 H1384 0.931 . S
C1369 C1368 1.370 . S
C1369 C1373 1.408 . S
C1370 C1368 1.363 . S
C1370 C1371 1.370 . S
C1370 C1374 1.524 . S
C1371 C1363 1.503 . S
C1371 C1370 1.370 . S
C1371 C1372 1.403 . S
C1372 C1371 1.403 . S
C1372 C1373 1.404 . S
C1372 C1375 1.539 . S
C1373 C1369 1.408 . S
C1373 C1372 1.404 . S
C1373 H1385 0.930 . S
C1374 C1370 1.524 . S
C1374 H1386 0.956 . S
C1374 H1387 0.961 . S
C1374 H1388 0.961 . S
C1375 C1372 1.539 . S
C1375 H1389 0.958 . S
C1375 H1390 0.961 . S
C1375 H1391 0.960 . S
H1376 C1360 0.931 . S
H1377 C1365 0.929 . S
H1378 C1366 0.960 . S
H1379 C1366 0.962 . S
H1380 C1366 0.960 . S
H1381 C1367 0.961 . S
H1382 C1367 0.961 . S
H1383 C1367 0.961 . S
H1384 C1368 0.931 . S
H1385 C1373 0.930 . S
H1386 C1374 0.956 . S
H1387 C1374 0.961 . S
H1388 C1374 0.961 . S
H1389 C1375 0.958 . S
H1390 C1375 0.961 . S
H1391 C1375 0.960 . S
C1392 C1393 1.391 . S
C1392 C1394 1.394 . S
C1392 H1408 0.931 . S
C1393 C1392 1.391 . S
C1393 C1397 1.376 . S
C1394 C1392 1.394 . S
C1394 C1395 1.369 . S
C1394 C1398 1.531 . S
C1395 C1394 1.369 . S
C1395 C1396 1.410 . S
C1395 C1403 1.503 . S
C1396 C1395 1.410 . S
C1396 C1397 1.392 . S
C1396 C1399 1.511 . S
C1397 C1393 1.376 . S
C1397 C1396 1.392 . S
C1397 H1409 0.929 . S
C1398 C1394 1.531 . S
C1398 H1410 0.960 . S
C1398 H1411 0.962 . S
C1398 H1412 0.960 . S
C1399 C1396 1.511 . S
C1399 H1413 0.961 . S
C1399 H1414 0.961 . S
C1399 H1415 0.961 . S
C1400 C1401 1.370 . S
C1400 C1402 1.363 . S
C1400 H1416 0.931 . S
C1401 C1400 1.370 . S
C1401 C1405 1.408 . S
C1402 C1400 1.363 . S
C1402 C1403 1.370 . S
C1402 C1406 1.524 . S
C1403 C1395 1.503 . S
C1403 C1402 1.370 . S
C1403 C1404 1.403 . S
C1404 C1403 1.403 . S
C1404 C1405 1.404 . S
C1404 C1407 1.539 . S
C1405 C1401 1.408 . S
C1405 C1404 1.404 . S
C1405 H1417 0.930 . S
C1406 C1402 1.524 . S
C1406 H1418 0.956 . S
C1406 H1419 0.961 . S
C1406 H1420 0.961 . S
C1407 C1404 1.539 . S
C1407 H1421 0.958 . S
C1407 H1422 0.961 . S
C1407 H1423 0.960 . S
H1408 C1392 0.931 . S
H1409 C1397 0.929 . S
H1410 C1398 0.960 . S
H1411 C1398 0.962 . S
H1412 C1398 0.960 . S
H1413 C1399 0.961 . S
H1414 C1399 0.961 . S
H1415 C1399 0.961 . S
H1416 C1400 0.931 . S
H1417 C1405 0.930 . S
H1418 C1406 0.956 . S
H1419 C1406 0.961 . S
H1420 C1406 0.961 . S
H1421 C1407 0.958 . S
H1422 C1407 0.961 . S
H1423 C1407 0.960 . S
C657 C255 2.390 . S
C665 C383 2.554 . S
C697 C460 2.565 . S
C689 C295 2.364 . S
C729 C551 2.550 . S
C721 C175 2.401 . S
C761 C635 2.538 . S
C753 C215 2.361 . S
C793 C394 2.546 1_565 S
C785 C95 2.397 . S
C817 C135 2.361 . S
C825 C471 2.567 . S
C849 C15 2.372 . S
C857 C562 2.547 . S
C881 C55 2.387 . S
C889 C646 2.531 1_655 S
C921 C378 0.440 1_455 S
C913 C221 0.524 . S
C953 C473 0.511 . S
C945 C261 0.437 . S
C985 C546 0.497 . S
C977 C301 0.540 . S
C1009 C181 0.402 . S
C1017 C630 0.514 . S
C1041 C61 0.478 . S
C1049 C389 0.471 . S
C1081 C462 0.546 . S
C1073 C101 0.655 . S
C1113 C557 0.511 . S
C1105 C141 0.645 1_556 S
C1137 C21 0.654 . S
C1145 C641 0.522 . S
C1169 C202 2.885 . S
C1177 C387 3.140 . S
C1201 C242 2.905 . S
C1209 C478 3.201 . S
C1241 C555 3.155 . S
C1233 C282 2.938 . S
C1273 C639 3.162 . S
C1265 C162 2.915 . S
C1297 C42 2.882 . S
C1305 C376 3.131 . S
C1337 C467 3.209 . S
C1329 C82 2.839 . S
C1369 C544 3.156 . S
C1361 C122 2.892 . S
C1393 C2 2.859 . S
C1401 C628 3.165 . S
