# Generated by pormake.
# Topology ocu, (6,8)-cn, num edge types: 1
# Building blocks:
#     Node 0, Type 0, BuildingBlock: PAMTUU_clean_sbu_0, # of connection points: 6
#     Node 1, Type 0, BuildingBlock: PAMTUU_clean_sbu_0, # of connection points: 6
#     Node 2, Type 0, BuildingBlock: PAMTUU_clean_sbu_0, # of connection points: 6
#     Node 3, Type 0, BuildingBlock: PAMTUU_clean_sbu_0, # of connection points: 6
#     Node 4, Type 0, BuildingBlock: PAMTUU_clean_sbu_0, # of connection points: 6
#     Node 5, Type 0, BuildingBlock: PAMTUU_clean_sbu_0, # of connection points: 6
#     Node 6, Type 0, BuildingBlock: PAMTUU_clean_sbu_0, # of connection points: 6
#     Node 7, Type 0, BuildingBlock: PAMTUU_clean_sbu_0, # of connection points: 6
#     Node 8, Type 1, BuildingBlock: VETTIZ_charged_sbu_0, # of connection points: 8
#     Node 9, Type 1, BuildingBlock: VETTIZ_charged_sbu_0, # of connection points: 8
#     Node 10, Type 1, BuildingBlock: VETTIZ_charged_sbu_0, # of connection points: 8
#     Node 11, Type 1, BuildingBlock: VETTIZ_charged_sbu_0, # of connection points: 8
#     Node 12, Type 1, BuildingBlock: VETTIZ_charged_sbu_0, # of connection points: 8
#     Node 13, Type 1, BuildingBlock: VETTIZ_charged_sbu_0, # of connection points: 8
#     Edge 14, Type (0, 1), BuildingBlock: XUDNAN_clean_linker_2, # of connection points: 2
#     Edge 15, Type (0, 1), BuildingBlock: XUDNAN_clean_linker_2, # of connection points: 2
#     Edge 16, Type (0, 1), BuildingBlock: XUDNAN_clean_linker_2, # of connection points: 2
#     Edge 17, Type (0, 1), BuildingBlock: XUDNAN_clean_linker_2, # of connection points: 2
#     Edge 18, Type (0, 1), BuildingBlock: XUDNAN_clean_linker_2, # of connection points: 2
#     Edge 19, Type (0, 1), BuildingBlock: XUDNAN_clean_linker_2, # of connection points: 2
#     Edge 20, Type (0, 1), BuildingBlock: XUDNAN_clean_linker_2, # of connection points: 2
#     Edge 21, Type (0, 1), BuildingBlock: XUDNAN_clean_linker_2, # of connection points: 2
#     Edge 22, Type (0, 1), BuildingBlock: XUDNAN_clean_linker_2, # of connection points: 2
#     Edge 23, Type (0, 1), BuildingBlock: XUDNAN_clean_linker_2, # of connection points: 2
#     Edge 24, Type (0, 1), BuildingBlock: XUDNAN_clean_linker_2, # of connection points: 2
#     Edge 25, Type (0, 1), BuildingBlock: XUDNAN_clean_linker_2, # of connection points: 2
#     Edge 26, Type (0, 1), BuildingBlock: XUDNAN_clean_linker_2, # of connection points: 2
#     Edge 27, Type (0, 1), BuildingBlock: XUDNAN_clean_linker_2, # of connection points: 2
#     Edge 28, Type (0, 1), BuildingBlock: XUDNAN_clean_linker_2, # of connection points: 2
#     Edge 29, Type (0, 1), BuildingBlock: XUDNAN_clean_linker_2, # of connection points: 2
#     Edge 30, Type (0, 1), BuildingBlock: XUDNAN_clean_linker_2, # of connection points: 2
#     Edge 31, Type (0, 1), BuildingBlock: XUDNAN_clean_linker_2, # of connection points: 2
#     Edge 32, Type (0, 1), BuildingBlock: XUDNAN_clean_linker_2, # of connection points: 2
#     Edge 33, Type (0, 1), BuildingBlock: XUDNAN_clean_linker_2, # of connection points: 2
#     Edge 34, Type (0, 1), BuildingBlock: XUDNAN_clean_linker_2, # of connection points: 2
#     Edge 35, Type (0, 1), BuildingBlock: XUDNAN_clean_linker_2, # of connection points: 2
#     Edge 36, Type (0, 1), BuildingBlock: XUDNAN_clean_linker_2, # of connection points: 2
#     Edge 37, Type (0, 1), BuildingBlock: XUDNAN_clean_linker_2, # of connection points: 2
#     Edge 38, Type (0, 1), BuildingBlock: XUDNAN_clean_linker_2, # of connection points: 2
#     Edge 39, Type (0, 1), BuildingBlock: XUDNAN_clean_linker_2, # of connection points: 2
#     Edge 40, Type (0, 1), BuildingBlock: XUDNAN_clean_linker_2, # of connection points: 2
#     Edge 41, Type (0, 1), BuildingBlock: XUDNAN_clean_linker_2, # of connection points: 2
#     Edge 42, Type (0, 1), BuildingBlock: XUDNAN_clean_linker_2, # of connection points: 2
#     Edge 43, Type (0, 1), BuildingBlock: XUDNAN_clean_linker_2, # of connection points: 2
#     Edge 44, Type (0, 1), BuildingBlock: XUDNAN_clean_linker_2, # of connection points: 2
#     Edge 45, Type (0, 1), BuildingBlock: XUDNAN_clean_linker_2, # of connection points: 2
#     Edge 46, Type (0, 1), BuildingBlock: XUDNAN_clean_linker_2, # of connection points: 2
#     Edge 47, Type (0, 1), BuildingBlock: XUDNAN_clean_linker_2, # of connection points: 2
#     Edge 48, Type (0, 1), BuildingBlock: XUDNAN_clean_linker_2, # of connection points: 2
#     Edge 49, Type (0, 1), BuildingBlock: XUDNAN_clean_linker_2, # of connection points: 2
#     Edge 50, Type (0, 1), BuildingBlock: XUDNAN_clean_linker_2, # of connection points: 2
#     Edge 51, Type (0, 1), BuildingBlock: XUDNAN_clean_linker_2, # of connection points: 2
#     Edge 52, Type (0, 1), BuildingBlock: XUDNAN_clean_linker_2, # of connection points: 2
#     Edge 53, Type (0, 1), BuildingBlock: XUDNAN_clean_linker_2, # of connection points: 2
#     Edge 54, Type (0, 1), BuildingBlock: XUDNAN_clean_linker_2, # of connection points: 2
#     Edge 55, Type (0, 1), BuildingBlock: XUDNAN_clean_linker_2, # of connection points: 2
#     Edge 56, Type (0, 1), BuildingBlock: XUDNAN_clean_linker_2, # of connection points: 2
#     Edge 57, Type (0, 1), BuildingBlock: XUDNAN_clean_linker_2, # of connection points: 2
#     Edge 58, Type (0, 1), BuildingBlock: XUDNAN_clean_linker_2, # of connection points: 2
#     Edge 59, Type (0, 1), BuildingBlock: XUDNAN_clean_linker_2, # of connection points: 2
#     Edge 60, Type (0, 1), BuildingBlock: XUDNAN_clean_linker_2, # of connection points: 2
#     Edge 61, Type (0, 1), BuildingBlock: XUDNAN_clean_linker_2, # of connection points: 2
# Relax obj value: 0.130
# Max RMSD: 0.238
# Mean RMSD: 0.148
data_MOF--net-ocu--node1-PAMTUU_clean_sbu_0--node2-VETTIZ_charged_sbu_0--edge1-XUDNAN_clean_linker_2
_symmetry_space_group_name_H-M    P1
_symmetry_Int_Tables_number       1
_symmetry_cell_setting            triclinic
loop_
_symmetry_equiv_pos_as_xyz
'x, y, z'
_cell_length_a     38.554575
_cell_length_b     41.97706
_cell_length_c     40.837367
_cell_angle_alpha  84.810402
_cell_angle_beta   95.043017
_cell_angle_gamma 104.00841
loop_
_atom_site_label
_atom_site_type_symbol
_atom_site_fract_x
_atom_site_fract_y
_atom_site_fract_z
_atom_type_partial_charge
Tb0 Tb 0.2632 0.26906 0.26026 0.0
Tb1 Tb 0.3248 0.29012 0.30801 0.0
C2 C 0.26789 0.22543 0.32246 0.0
C3 C 0.182 0.27667 0.21971 0.0
C4 C 0.1413 0.32121 0.20075 0.0
C5 C 0.12706 0.2879 0.19564 0.0
C6 C 0.1476 0.26535 0.20533 0.0
C7 C 0.19447 0.3095 0.22769 0.0
C8 C 0.17365 0.33166 0.21899 0.0
C9 C 0.2065 0.25567 0.22498 0.0
O10 O 0.24222 0.30338 0.2925 0.0
O11 O 0.29002 0.32181 0.32754 0.0
O12 O 0.32841 0.33472 0.27666 0.0
O13 O 0.30197 0.30655 0.23339 0.0
O14 O 0.34703 0.2922 0.35655 0.0
O15 O 0.38059 0.3069 0.31576 0.0
O16 O 0.34493 0.256 0.27296 0.0
O17 O 0.29718 0.24182 0.23645 0.0
O18 O 0.26384 0.22431 0.29072 0.0
O19 O 0.2868 0.25223 0.3347 0.0
C20 C 0.2558 0.32225 0.31797 0.0
O21 O 0.23745 0.26877 0.21311 0.0
O22 O 0.2094 0.24368 0.25532 0.0
C23 C 0.32387 0.33258 0.24502 0.0
C24 C 0.40014 0.27601 0.3608 0.0
C25 C 0.42776 0.22614 0.39457 0.0
C26 C 0.43729 0.25792 0.40571 0.0
C27 C 0.42352 0.28291 0.38874 0.0
C28 C 0.39199 0.24454 0.34886 0.0
C29 C 0.40605 0.21972 0.36554 0.0
C30 C 0.37958 0.29946 0.34735 0.0
C31 C 0.33064 0.23981 0.24543 0.0
H32 H 0.10219 0.2802 0.1808 0.0
H33 H 0.13796 0.23997 0.19932 0.0
H34 H 0.22159 0.31881 0.23762 0.0
H35 H 0.18512 0.3576 0.22206 0.0
H36 H 0.45408 0.26295 0.42823 0.0
H37 H 0.42949 0.30699 0.3984 0.0
H38 H 0.3731 0.2386 0.32787 0.0
H39 H 0.39813 0.19509 0.35704 0.0
Tb40 Tb 0.77248 0.30483 0.28364 0.0
Tb41 Tb 0.83888 0.27413 0.2854 0.0
C42 C 0.83541 0.32597 0.33049 0.0
C43 C 0.72625 0.36007 0.25133 0.0
C44 C 0.7499 0.41275 0.2056 0.0
C45 C 0.73511 0.41754 0.23479 0.0
C46 C 0.72342 0.39135 0.25744 0.0
C47 C 0.74182 0.3553 0.22279 0.0
C48 C 0.75448 0.38157 0.20061 0.0
C49 C 0.72524 0.33556 0.27853 0.0
O50 O 0.81183 0.34057 0.25339 0.0
O51 O 0.8438 0.30517 0.23938 0.0
O52 O 0.795 0.23961 0.26264 0.0
O53 O 0.76764 0.27882 0.23947 0.0
O54 O 0.88388 0.26654 0.31462 0.0
O55 O 0.87343 0.25117 0.26453 0.0
O56 O 0.8056 0.24447 0.32426 0.0
O57 O 0.75166 0.25795 0.3102 0.0
O58 O 0.80167 0.31161 0.33076 0.0
O59 O 0.85351 0.32098 0.30682 0.0
C60 C 0.83464 0.33348 0.23444 0.0
O61 O 0.71868 0.30518 0.27032 0.0
O62 O 0.75341 0.34316 0.299 0.0
C63 C 0.77164 0.24871 0.24109 0.0
C64 C 0.88397 0.21268 0.30729 0.0
C65 C 0.86164 0.1522 0.3432 0.0
C66 C 0.84355 0.15847 0.31306 0.0
C67 C 0.85444 0.18863 0.29532 0.0
C68 C 0.90246 0.20604 0.33713 0.0
C69 C 0.89135 0.17605 0.355 0.0
C70 C 0.88925 0.24673 0.29369 0.0
C71 C 0.77075 0.23952 0.32728 0.0
H72 H 0.73051 0.44109 0.23951 0.0
H73 H 0.71312 0.39564 0.28009 0.0
H74 H 0.74554 0.33142 0.21815 0.0
H75 H 0.76539 0.37711 0.17833 0.0
H76 H 0.82092 0.14019 0.30347 0.0
H77 H 0.83885 0.19347 0.27285 0.0
H78 H 0.92448 0.22458 0.34728 0.0
H79 H 0.90633 0.17134 0.37791 0.0
Tb80 Tb 0.82795 0.78901 0.25613 0.0
Tb81 Tb 0.77781 0.76869 0.30853 0.0
C82 C 0.8428 0.82856 0.31989 0.0
C83 C 0.90464 0.78842 0.21259 0.0
C84 C 0.96019 0.76288 0.19593 0.0
C85 C 0.96245 0.79689 0.19073 0.0
C86 C 0.9341 0.80951 0.19831 0.0
C87 C 0.90634 0.75627 0.22422 0.0
C88 C 0.93417 0.74355 0.21607 0.0
C89 C 0.87102 0.79855 0.21231 0.0
O90 O 0.85421 0.74965 0.28767 0.0
O91 O 0.81993 0.73939 0.33125 0.0
O92 O 0.77459 0.72647 0.28115 0.0
O93 O 0.77733 0.75967 0.23602 0.0
O94 O 0.76178 0.76027 0.35685 0.0
O95 O 0.72415 0.74548 0.31532 0.0
O96 O 0.74827 0.80316 0.27131 0.0
O97 O 0.79286 0.82557 0.23804 0.0
O98 O 0.85552 0.82032 0.29415 0.0
O99 O 0.81048 0.81391 0.32814 0.0
C100 C 0.84819 0.73327 0.31765 0.0
O101 O 0.84247 0.77439 0.213 0.0
O102 O 0.87052 0.82094 0.23226 0.0
C103 C 0.76583 0.73058 0.25013 0.0
C104 C 0.70706 0.77357 0.35431 0.0
C105 C 0.6706 0.81889 0.37032 0.0
C106 C 0.6581 0.78524 0.37988 0.0
C107 C 0.67641 0.76249 0.37182 0.0
C108 C 0.7184 0.80682 0.34352 0.0
C109 C 0.70026 0.82932 0.35132 0.0
C110 C 0.72812 0.75157 0.34632 0.0
C111 C 0.75941 0.82522 0.24543 0.0
H112 H 0.98304 0.81247 0.17616 0.0
H113 H 0.93371 0.83475 0.19035 0.0
H114 H 0.88436 0.73976 0.23637 0.0
H115 H 0.93186 0.71736 0.2211 0.0
H116 H 0.63532 0.77691 0.39484 0.0
H117 H 0.66739 0.73674 0.37996 0.0
H118 H 0.74226 0.8157 0.33014 0.0
H119 H 0.71113 0.85515 0.34452 0.0
Tb120 Tb 0.3278 0.7642 0.28755 0.0
Tb121 Tb 0.26986 0.80764 0.28028 0.0
C122 C 0.25914 0.74367 0.32364 0.0
C123 C 0.37896 0.71127 0.2636 0.0
C124 C 0.38159 0.67638 0.20915 0.0
C125 C 0.37034 0.65944 0.23903 0.0
C126 C 0.36923 0.6768 0.26616 0.0
C127 C 0.38999 0.72819 0.23356 0.0
C128 C 0.39144 0.71083 0.20659 0.0
C129 C 0.37208 0.72924 0.29038 0.0
O130 O 0.29563 0.74979 0.24125 0.0
O131 O 0.24529 0.76807 0.24871 0.0
O132 O 0.29542 0.81803 0.23468 0.0
O133 O 0.34833 0.80641 0.25542 0.0
O134 O 0.2185 0.8144 0.28464 0.0
O135 O 0.26151 0.85476 0.26819 0.0
O136 O 0.31809 0.83529 0.30617 0.0
O137 O 0.33876 0.79246 0.33134 0.0
O138 O 0.27885 0.73457 0.30388 0.0
O139 O 0.25953 0.77481 0.32472 0.0
C140 C 0.26169 0.75052 0.2331 0.0
O141 O 0.38105 0.76121 0.286 0.0
O142 O 0.34031 0.71873 0.30133 0.0
C143 C 0.32941 0.81998 0.23285 0.0
C144 C 0.22605 0.86499 0.30631 0.0
C145 C 0.21328 0.89684 0.35877 0.0
C146 C 0.20682 0.90948 0.32644 0.0
C147 C 0.21308 0.89338 0.3001 0.0
C148 C 0.23636 0.85466 0.33857 0.0
C149 C 0.22974 0.87046 0.36484 0.0
C150 C 0.22983 0.84625 0.27946 0.0
C151 C 0.33877 0.82383 0.32911 0.0
H152 H 0.36237 0.6328 0.24137 0.0
H153 H 0.35981 0.66337 0.28886 0.0
H154 H 0.39696 0.75483 0.23058 0.0
H155 H 0.40083 0.72439 0.18394 0.0
H156 H 0.1938 0.92976 0.32163 0.0
H157 H 0.20621 0.90203 0.27513 0.0
H158 H 0.24769 0.83332 0.34349 0.0
H159 H 0.23461 0.86048 0.38978 0.0
Tb160 Tb 0.26883 0.79649 0.78508 0.0
Tb161 Tb 0.32773 0.75859 0.79419 0.0
C162 C 0.33362 0.81939 0.83983 0.0
C163 C 0.24136 0.85568 0.73771 0.0
C164 C 0.26634 0.89705 0.68314 0.0
C165 C 0.2812 0.90507 0.71477 0.0
C166 C 0.26726 0.88531 0.74203 0.0
C167 C 0.23342 0.84446 0.70579 0.0
C168 C 0.24723 0.86457 0.67865 0.0
C169 C 0.2296 0.83332 0.76653 0.0
O170 O 0.31379 0.82593 0.75988 0.0
O171 O 0.33713 0.78472 0.74698 0.0
O172 O 0.28379 0.72474 0.76717 0.0
O173 O 0.25659 0.76343 0.74259 0.0
O174 O 0.38243 0.75896 0.80377 0.0
O175 O 0.34315 0.71436 0.79262 0.0
O176 O 0.29702 0.74409 0.83783 0.0
O177 O 0.24418 0.75442 0.81563 0.0
O178 O 0.29877 0.81631 0.83206 0.0
O179 O 0.35035 0.8024 0.82343 0.0
C180 C 0.33378 0.81478 0.74191 0.0
O181 O 0.21987 0.80221 0.7611 0.0
O182 O 0.2507 0.83836 0.79321 0.0
C183 C 0.26111 0.73298 0.7438 0.0
C184 C 0.37659 0.71288 0.84118 0.0
C185 C 0.34715 0.68063 0.89889 0.0
C186 C 0.35605 0.66271 0.87443 0.0
C187 C 0.37085 0.67876 0.84596 0.0
C188 C 0.36966 0.73094 0.86632 0.0
C189 C 0.35448 0.71491 0.89465 0.0
C190 C 0.37399 0.7269 0.8076 0.0
C191 C 0.26218 0.73962 0.8379 0.0
H192 H 0.29755 0.92954 0.71862 0.0
H193 H 0.27611 0.89372 0.76635 0.0
H194 H 0.21568 0.82067 0.70161 0.0
H195 H 0.23693 0.85728 0.6542 0.0
H196 H 0.35247 0.63626 0.87748 0.0
H197 H 0.37513 0.66437 0.82659 0.0
H198 H 0.37338 0.75739 0.86314 0.0
H199 H 0.34932 0.72923 0.91367 0.0
Tb200 Tb 0.31724 0.27551 0.76419 0.0
Tb201 Tb 0.261 0.28069 0.81775 0.0
C202 C 0.33659 0.32937 0.81228 0.0
C203 C 0.37672 0.24284 0.71469 0.0
C204 C 0.41222 0.19575 0.69784 0.0
C205 C 0.4272 0.22966 0.69192 0.0
C206 C 0.40952 0.2529 0.70012 0.0
C207 C 0.36197 0.20914 0.7215 0.0
C208 C 0.37946 0.1858 0.71298 0.0
C209 C 0.35846 0.26796 0.7223 0.0
O210 O 0.3383 0.25254 0.81109 0.0
O211 O 0.28915 0.24297 0.84231 0.0
O212 O 0.23198 0.25099 0.77855 0.0
O213 O 0.27782 0.22912 0.76992 0.0
O214 O 0.25346 0.30581 0.85727 0.0
O215 O 0.2113 0.26596 0.83992 0.0
O216 O 0.25077 0.31784 0.77784 0.0
O217 O 0.28191 0.30587 0.73666 0.0
O218 O 0.33683 0.32423 0.78132 0.0
O219 O 0.31359 0.31002 0.83125 0.0
C220 C 0.32183 0.23908 0.83806 0.0
O221 O 0.32356 0.26089 0.71773 0.0
O222 O 0.3696 0.28205 0.74972 0.0
C223 C 0.24378 0.22853 0.76571 0.0
C224 C 0.19544 0.31194 0.86045 0.0
C225 C 0.16304 0.36252 0.87389 0.0
C226 C 0.15685 0.33248 0.89325 0.0
C227 C 0.17315 0.30747 0.88667 0.0
C228 C 0.19905 0.34077 0.83938 0.0
C229 C 0.1831 0.36583 0.8461 0.0
C230 C 0.22015 0.29016 0.85932 0.0
C231 C 0.25877 0.32144 0.74657 0.0
H232 H 0.4527 0.23838 0.681 0.0
H233 H 0.42144 0.27884 0.69495 0.0
H234 H 0.33674 0.20086 0.73298 0.0
H235 H 0.36682 0.15998 0.7176 0.0
H236 H 0.14165 0.32926 0.91488 0.0
H237 H 0.17026 0.28558 0.90339 0.0
H238 H 0.21626 0.34493 0.81908 0.0
H239 H 0.18801 0.38855 0.83052 0.0
Tb240 Tb 0.82713 0.25355 0.79723 0.0
Tb241 Tb 0.77983 0.30629 0.78073 0.0
C242 C 0.76105 0.24856 0.84061 0.0
C243 C 0.87437 0.19701 0.7745 0.0
C244 C 0.88637 0.16855 0.71807 0.0
C245 C 0.8994 0.15816 0.74981 0.0
C246 C 0.89258 0.17181 0.77797 0.0
C247 C 0.86348 0.20848 0.74319 0.0
C248 C 0.8676 0.19356 0.71571 0.0
C249 C 0.86284 0.21012 0.8024 0.0
O250 O 0.77521 0.23266 0.77525 0.0
O251 O 0.7687 0.27497 0.73961 0.0
O252 O 0.82835 0.32808 0.75263 0.0
O253 O 0.8434 0.27959 0.74835 0.0
O254 O 0.73017 0.3175 0.76723 0.0
O255 O 0.77802 0.35592 0.7761 0.0
O256 O 0.80928 0.31634 0.82768 0.0
O257 O 0.85735 0.29679 0.81833 0.0
O258 O 0.7945 0.24524 0.84088 0.0
O259 O 0.74905 0.26788 0.8167 0.0
C260 C 0.76436 0.24341 0.74642 0.0
O261 O 0.87703 0.24115 0.80583 0.0
O262 O 0.82824 0.20362 0.80346 0.0
C263 C 0.84729 0.31129 0.73872 0.0
C264 C 0.72577 0.36176 0.79595 0.0
C265 C 0.69483 0.38759 0.84355 0.0
C266 C 0.69858 0.40366 0.81191 0.0
C267 C 0.71399 0.3907 0.78812 0.0
C268 C 0.72291 0.34621 0.82777 0.0
C269 C 0.70742 0.35898 0.8514 0.0
C270 C 0.7432 0.34862 0.77192 0.0
C271 C 0.84311 0.31608 0.83292 0.0
H272 H 0.91462 0.13952 0.75341 0.0
H273 H 0.90125 0.16265 0.80219 0.0
H274 H 0.84898 0.22744 0.73992 0.0
H275 H 0.85468 0.2016 0.69305 0.0
H276 H 0.6891 0.42585 0.80549 0.0
H277 H 0.71679 0.40322 0.76377 0.0
H278 H 0.73283 0.32428 0.83438 0.0
H279 H 0.70551 0.34663 0.87589 0.0
Tb280 Tb 0.79937 0.81674 0.81653 0.0
Tb281 Tb 0.79882 0.7644 0.7593 0.0
C282 C 0.85232 0.83447 0.76229 0.0
C283 C 0.76637 0.86945 0.87013 0.0
C284 C 0.71461 0.89668 0.89502 0.0
C285 C 0.75135 0.91206 0.89876 0.0
C286 C 0.77689 0.89858 0.8864 0.0
C287 C 0.72975 0.85451 0.86526 0.0
C288 C 0.70412 0.86801 0.87757 0.0
C289 C 0.79406 0.8544 0.85984 0.0
O290 O 0.77593 0.83561 0.77155 0.0
O291 O 0.75606 0.7903 0.74084 0.0
O292 O 0.76431 0.73775 0.79696 0.0
O293 O 0.74741 0.78257 0.81186 0.0
O294 O 0.82225 0.75807 0.71678 0.0
O295 O 0.78249 0.71838 0.73799 0.0
O296 O 0.84132 0.75746 0.7967 0.0
O297 O 0.82635 0.78098 0.84081 0.0
O298 O 0.85025 0.83491 0.79415 0.0
O299 O 0.8294 0.81301 0.74492 0.0
C300 C 0.75549 0.82061 0.74745 0.0
O301 O 0.78831 0.82248 0.8647 0.0
O302 O 0.80644 0.86487 0.83116 0.0
C303 C 0.7427 0.75058 0.81181 0.0
C304 C 0.82982 0.7044 0.71127 0.0
C305 C 0.87228 0.66146 0.69621 0.0
C306 C 0.84082 0.64922 0.71298 0.0
C307 C 0.81976 0.67042 0.7203 0.0
C308 C 0.86166 0.7166 0.69511 0.0
C309 C 0.8826 0.69554 0.68785 0.0
C310 C 0.80644 0.72702 0.71616 0.0
C311 C 0.8441 0.76258 0.82833 0.0
H312 H 0.76059 0.93391 0.91227 0.0
H313 H 0.80504 0.9105 0.89028 0.0
H314 H 0.72102 0.83216 0.85243 0.0
H315 H 0.67609 0.85582 0.87359 0.0
H316 H 0.83185 0.62311 0.71955 0.0
H317 H 0.79524 0.66009 0.73244 0.0
H318 H 0.87027 0.74252 0.68748 0.0
H319 H 0.90691 0.70606 0.67544 0.0
Fe320 Fe 0.06072 0.10967 0.5153 0.0
O321 O 0.04228 0.06322 0.53905 0.0
Fe322 Fe 0.09691 0.04399 0.54953 0.0
Fe323 Fe 0.99595 0.02495 0.52643 0.0
O324 O 0.05511 0.06351 0.53287 0.0
O325 O 0.04596 1.00943 0.55589 0.0
O326 O 0.03638 1.00441 0.53937 0.0
Fe327 Fe 0.03305 0.95815 0.55807 0.0
C328 C 1.00108 0.09852 0.55349 0.0
O329 O 1.01944 0.09638 0.47958 0.0
O330 O 1.01438 0.04235 0.48123 0.0
O331 O 0.08091 0.96123 0.53953 0.0
O332 O 0.09417 0.01167 0.51306 0.0
O333 O 0.13296 0.07735 0.52052 0.0
O334 O 0.09478 0.0982 0.48533 0.0
O335 O 0.96654 0.98177 0.50704 0.0
O336 O 1.00705 0.95073 0.51176 0.0
C337 C 0.1251 0.09172 0.49284 0.0
O338 O 0.05965 0.96383 0.60453 0.0
O339 O 0.06899 0.01348 0.58628 0.0
O340 O 1.02635 0.12218 0.5446 0.0
O341 O 0.99916 0.07061 0.5432 0.0
C342 C 1.00597 0.06821 0.46817 0.0
C343 C 0.97915 0.95887 0.49757 0.0
C344 C 0.9728 0.97848 0.58701 0.0
O345 O 0.97838 1.00793 0.57348 0.0
O346 O 0.98559 0.95602 0.57719 0.0
C347 C 0.0918 0.98062 0.5148 0.0
O348 O 0.10373 0.07755 0.58501 0.0
O349 O 0.10158 0.12294 0.55173 0.0
C350 C 0.07836 0.99276 0.60726 0.0
C351 C 0.11142 0.10886 0.57904 0.0
Fe352 Fe 0.52897 0.01226 0.06252 0.0
O353 O 0.56326 0.05227 0.07807 0.0
Fe354 Fe 0.4479 0.04419 0.04626 0.0
Fe355 Fe 0.61473 0.06072 0.07344 0.0
O356 O 0.50154 0.04919 0.04467 0.0
O357 O 0.50251 0.05657 0.04823 0.0
O358 O 0.55964 0.06516 0.0773 0.0
Fe359 Fe 0.53106 0.10411 0.05619 0.0
C360 C 0.59832 0.98555 0.1065 0.0
O361 O 0.55193 0.01498 0.01889 0.0
O362 O 0.60929 0.03125 0.03487 0.0
O363 O 0.49208 0.12226 0.02184 0.0
O364 O 0.44702 0.0796 1.00588 0.0
O365 O 0.44588 1.00413 0.01566 0.0
O366 O 0.48667 0.97524 0.03882 0.0
O367 O 0.61995 0.10232 0.03857 0.0
O368 O 0.56589 0.10882 0.01626 0.0
C369 C 0.45954 0.97828 0.01756 0.0
O370 O 0.49765 0.11003 0.09698 0.0
O371 O 0.44376 0.08269 0.07901 0.0
O372 O 0.56634 0.97862 0.08867 0.0
O373 O 0.61494 0.01667 0.10661 0.0
C374 C 0.58458 0.01719 0.01492 0.0
C375 C 0.60056 0.11422 0.01553 0.0
C376 C 0.60066 0.10719 0.11449 0.0
O377 O 0.62291 0.09 0.11082 0.0
O378 O 0.57357 0.10738 0.09368 0.0
C379 C 0.46309 0.1105 1.00334 0.0
O380 O 0.44765 0.0106 0.08627 0.0
O381 O 0.504 1.00835 0.1046 0.0
C382 C 0.46276 0.10465 0.0982 0.0
C383 C 0.47044 1.00134 0.10734 0.0
Fe384 Fe 1.02407 0.59467 0.02284 0.0
O385 O 0.98995 0.55797 0.99973 0.0
Fe386 Fe 0.09697 0.56133 0.0471 0.0
Fe387 Fe 0.93688 0.54956 0.99909 0.0
O388 O 0.04598 0.55896 0.04345 0.0
O389 O 0.0451 0.55599 0.04381 0.0
O390 O 0.98857 0.55455 1.00067 0.0
Fe391 Fe 1.01087 0.51935 0.02198 0.0
C392 C 0.95995 0.5899 0.0588 0.0
O393 O 0.99432 0.6265 0.99674 0.0
O394 O 0.94779 0.5917 0.96794 0.0
O395 O 0.04261 0.52341 0.98275 0.0
O396 O 0.09655 0.53089 1.01002 0.0
O397 O 0.10845 0.60098 0.01364 0.0
O398 O 0.05741 0.60398 0.98436 0.0
O399 O 0.93735 0.51593 0.96609 0.0
O400 O 0.97325 0.48554 0.9962 0.0
C401 C 0.0915 0.61093 0.98822 0.0
O402 O 0.03807 0.48754 0.04567 0.0
O403 O 0.08345 0.51986 0.07726 0.0
O404 O 0.99162 0.58589 0.0612 0.0
O405 O 0.93802 0.58097 0.03446 0.0
C406 C 0.96811 0.62057 0.97367 0.0
C407 C 0.95095 0.49051 0.97186 0.0
C408 C 0.9451 0.50034 0.05938 0.0
O409 O 0.92701 0.50911 0.03394 0.0
O410 O 0.97902 0.51087 0.06215 0.0
C411 C 0.07528 0.52149 0.98518 0.0
O412 O 0.09599 0.5941 0.08086 0.0
O413 O 0.06476 0.62876 0.05117 0.0
C414 C 0.06279 0.4922 0.0692 0.0
C415 C 0.08935 0.62281 0.07388 0.0
Fe416 Fe 0.54712 0.53281 0.99388 0.0
O417 O 0.57241 0.56122 0.02942 0.0
Fe418 Fe 0.46449 0.49471 0.02412 0.0
Fe419 Fe 0.62489 0.56899 0.03779 0.0
O420 O 0.51623 0.50829 0.02873 0.0
O421 O 0.51556 0.50893 0.03109 0.0
O422 O 0.57195 0.56142 0.03251 0.0
Fe423 Fe 0.54175 0.53485 0.06747 0.0
C424 C 0.61104 0.50662 1.00167 0.0
O425 O 0.58348 0.56288 0.96153 0.0
O426 O 0.62309 0.5985 0.99535 0.0
O427 O 0.50893 0.56608 0.06216 0.0
O428 O 0.45628 0.52962 0.0527 0.0
O429 O 0.46183 0.52572 0.98344 0.0
O430 O 0.51389 0.56359 0.98157 0.0
O431 O 0.6183 0.60065 0.07084 0.0
O432 O 0.57603 0.56538 0.102 0.0
C433 C 0.48125 0.55275 0.97197 0.0
O434 O 0.50778 0.50336 0.10067 0.0
O435 O 0.46939 0.46659 0.06743 0.0
O436 O 0.57804 0.50037 1.0054 0.0
O437 O 0.63128 0.53457 1.00704 0.0
C438 C 0.60768 0.58996 0.96688 0.0
C439 C 0.60244 0.59141 0.09794 0.0
C440 C 0.60172 0.50902 0.08589 0.0
O441 O 0.62442 0.53566 0.07847 0.0
O442 O 0.57137 0.5018 0.07171 0.0
C443 C 0.47494 0.55754 0.06095 0.0
O444 O 0.47532 0.46396 0.99204 0.0
O445 O 0.51708 0.49987 0.96075 0.0
C446 C 0.48413 0.47595 0.09585 0.0
C447 C 0.49235 0.47291 0.96535 0.0
Fe448 Fe 0.08136 0.44086 0.52039 0.0
O449 O 0.08872 0.48967 0.52238 0.0
Fe450 Fe 0.06454 0.51505 0.47556 0.0
Fe451 Fe 0.07154 0.50907 0.56076 0.0
O452 O 0.08734 0.49027 0.51506 0.0
O453 O 0.04999 0.53514 0.51461 0.0
O454 O 0.05057 0.53451 0.52114 0.0
Fe455 Fe 0.05509 0.5832 0.51851 0.0
C456 C 1.02101 0.44104 0.56977 0.0
O457 O 0.11994 0.4464 0.5603 0.0
O458 O 0.09944 0.47743 0.59504 0.0
O459 O 0.09205 0.59583 0.48322 0.0
O460 O 0.11046 0.5507 0.47423 0.0
O461 O 0.09083 0.48279 0.44325 0.0
O462 O 0.11635 0.44885 0.48075 0.0
O463 O 0.11884 0.5476 0.56714 0.0
O464 O 0.09658 0.59185 0.55629 0.0
C465 C 0.11186 0.46036 0.45021 0.0
O466 O 1.01416 0.58043 0.47942 0.0
O467 O 0.03212 0.55115 0.44199 0.0
O468 O 0.04316 0.42817 0.557 0.0
O469 O 1.02331 0.47198 0.56418 0.0
C470 C 0.11892 0.45648 0.5894 0.0
C471 C 0.11975 0.5779 0.57186 0.0
C472 C 1.02558 0.55411 0.58494 0.0
O473 O 0.04686 0.5339 0.59275 0.0
O474 O 1.02179 0.5689 0.556 0.0
C475 C 0.11378 0.58167 0.47188 0.0
O476 O 1.01835 0.47978 0.4777 0.0
O477 O 0.03987 0.43457 0.48452 0.0
C478 C 1.01281 0.57324 0.44897 0.0
C479 C 1.01411 0.44883 0.47903 0.0
Fe480 Fe 0.54655 0.9348 0.55536 0.0
O481 O 0.55265 0.98238 0.55519 0.0
Fe482 Fe 0.57464 0.01296 0.51501 0.0
Fe483 Fe 0.57928 1.00933 0.59124 0.0
O484 O 0.55236 0.98267 0.55211 0.0
O485 O 0.60299 0.0389 0.55094 0.0
O486 O 0.60405 0.03832 0.5544 0.0
Fe487 Fe 0.609 0.08641 0.55038 0.0
C488 C 0.52086 0.95186 0.61843 0.0
O489 O 0.58553 0.93208 0.5926 0.0
O490 O 0.6188 0.98308 0.59745 0.0
O491 O 0.64101 0.08671 0.5129 0.0
O492 O 0.60316 0.04939 0.48013 0.0
O493 O 0.61431 0.98963 0.51551 0.0
O494 O 0.58349 0.93721 0.52173 0.0
O495 O 0.61043 0.04229 0.62379 0.0
O496 O 0.64455 0.08267 0.58948 0.0
C497 C 0.61073 0.95932 0.513 0.0
O498 O 0.5691 0.08758 0.51421 0.0
O499 O 0.53476 0.0366 0.51474 0.0
O500 O 0.51381 0.93579 0.59198 0.0
O501 O 0.54846 0.97592 0.62454 0.0
C502 C 0.61404 0.95192 0.60274 0.0
C503 C 0.63672 0.0677 0.618 0.0
C504 C 0.54505 0.06521 0.59328 0.0
O505 O 0.53969 0.0348 0.58882 0.0
O506 O 0.57323 0.086 0.58489 0.0
C507 C 0.6303 0.07483 0.48457 0.0
O508 O 0.54082 0.98049 0.48185 0.0
O509 O 0.51039 0.93741 0.51546 0.0
C510 C 0.53898 0.06736 0.51026 0.0
C511 C 0.51529 0.95395 0.48715 0.0
H512 H 0.24934 0.23097 0.38397 0.0
H513 H 0.23772 0.16096 0.30953 0.0
H514 H 0.20252 0.11752 0.3469 0.0
H515 H 0.25891 0.1787 0.45503 0.0
H516 H 0.23183 0.19559 0.4794 0.0
H517 H 0.25577 0.22088 0.44675 0.0
H518 H 0.19666 0.23341 0.41972 0.0
H519 H 0.17266 0.20871 0.45265 0.0
H520 H 0.15904 0.19979 0.41046 0.0
H521 H 0.16858 0.08211 0.39293 0.0
H522 H 0.13526 0.05835 0.4422 0.0
H523 H 0.16941 0.15213 0.48559 0.0
C524 C 0.23985 0.20639 0.37564 0.0
C525 C 0.24711 0.19901 0.34426 0.0
C526 C 0.23298 0.16691 0.33376 0.0
C527 C 0.21298 0.14216 0.35478 0.0
C528 C 0.20695 0.15019 0.38589 0.0
C529 C 0.21946 0.1817 0.39598 0.0
C530 C 0.20799 0.18458 0.42986 0.0
C531 C 0.24058 0.19558 0.45419 0.0
C532 C 0.18258 0.208 0.42805 0.0
C533 C 0.18841 0.14933 0.43806 0.0
C534 C 0.18776 0.1299 0.41229 0.0
C535 C 0.16962 0.09682 0.41358 0.0
C536 C 0.15127 0.08341 0.44174 0.0
C537 C 0.15162 0.10301 0.4682 0.0
C538 C 0.17042 0.1363 0.46632 0.0
H539 H 0.8499 0.13781 0.40734 0.0
H540 H 0.85886 0.09456 0.31755 0.0
H541 H 0.87929 0.0496 0.34927 0.0
H542 H 0.92285 0.14274 0.4359 0.0
H543 H 0.91903 0.13158 0.47933 0.0
H544 H 0.88381 0.1456 0.45589 0.0
H545 H 0.8381 0.09219 0.47387 0.0
H546 H 0.87373 0.07832 0.49821 0.0
H547 H 0.84633 0.05266 0.4681 0.0
H548 H 0.92488 0.03017 0.38216 0.0
H549 H 0.98273 0.03362 0.41443 0.0
H550 H 0.95113 0.0913 0.48395 0.0
C551 C 0.85362 0.11722 0.39503 0.0
C552 C 0.85355 0.11942 0.3605 0.0
C553 C 0.85864 0.09295 0.34417 0.0
C554 C 0.87043 0.06728 0.36217 0.0
C555 C 0.87671 0.06867 0.39625 0.0
C556 C 0.86699 0.09234 0.41294 0.0
C557 C 0.88561 0.09493 0.4472 0.0
C558 C 0.90393 0.13081 0.45488 0.0
C559 C 0.85937 0.07852 0.47338 0.0
C560 C 0.9124 0.07468 0.44423 0.0
C561 C 0.90525 0.05776 0.41587 0.0
C562 C 0.92992 0.04219 0.40503 0.0
C563 C 0.96289 0.04472 0.42301 0.0
C564 C 0.97097 0.06349 0.45071 0.0
C565 C 0.94511 0.07732 0.46228 0.0
H566 H 0.82699 0.85931 0.37268 0.0
H567 H 0.91441 0.85278 0.31522 0.0
H568 H 0.95711 0.88832 0.35223 0.0
H569 H 0.86688 0.94775 0.39138 0.0
H570 H 0.85067 0.94135 0.43208 0.0
H571 H 0.82582 0.9177 0.39927 0.0
H572 H 0.82834 0.86385 0.43481 0.0
H573 H 0.85348 0.88734 0.46748 0.0
H574 H 0.87122 0.85681 0.45064 0.0
H575 H 0.99156 0.91825 0.39823 0.0
H576 H 1.01559 0.94557 0.44907 0.0
H577 H 0.90747 0.93719 0.4767 0.0
C578 C 0.85504 0.86581 0.36763 0.0
C579 C 0.86717 0.85293 0.34098 0.0
C580 C 0.90417 0.86215 0.3353 0.0
C581 C 0.92882 0.88243 0.35623 0.0
C582 C 0.91622 0.89404 0.38257 0.0
C583 C 0.88021 0.88673 0.38811 0.0
C584 C 0.87439 0.90225 0.41885 0.0
C585 C 0.85317 0.92884 0.40985 0.0
C586 C 0.85576 0.87598 0.44446 0.0
C587 C 0.91289 0.91761 0.43061 0.0
C588 C 0.93643 0.91272 0.40897 0.0
C589 C 0.97341 0.92266 0.41513 0.0
C590 C 0.98683 0.93788 0.44423 0.0
C591 C 0.96344 0.94332 0.46683 0.0
C592 C 0.92592 0.93354 0.45966 0.0
H593 H 0.2203 0.95627 0.38402 0.0
H594 H 0.16055 0.85423 0.38876 0.0
H595 H 0.11803 0.86743 0.42384 0.0
H596 H 0.21118 0.96877 0.4692 0.0
H597 H 0.20747 0.01071 0.46014 0.0
H598 H 0.23253 0.99304 0.43458 0.0
H599 H 0.19325 1.00831 0.38351 0.0
H600 H 0.16727 0.02477 0.4093 0.0
H601 H 0.14526 0.99307 0.38249 0.0
H602 H 0.08205 0.89044 0.45578 0.0
H603 H 0.06017 0.92025 0.49539 0.0
H604 H 0.14384 1.00751 0.4728 0.0
C605 C 0.19853 0.93685 0.39305 0.0
C606 C 0.19339 0.90437 0.38429 0.0
C607 C 0.16482 0.87919 0.39597 0.0
C608 C 0.14034 0.8865 0.41531 0.0
C609 C 0.14529 0.91897 0.4227 0.0
C610 C 0.17412 0.9436 0.41294 0.0
C611 C 0.17423 0.97585 0.42659 0.0
C612 C 0.20837 0.98777 0.44897 0.0
C613 C 0.16972 1.00203 0.39877 0.0
C614 C 0.14128 0.9651 0.44601 0.0
C615 C 0.12459 0.9324 0.44247 0.0
C616 C 0.09472 0.91604 0.45897 0.0
C617 C 0.08265 0.93309 0.48138 0.0
C618 C 0.10072 0.96587 0.48698 0.0
C619 C 0.12944 0.98259 0.4683 0.0
H620 H 0.20605 0.90407 0.7017 0.0
H621 H 0.28516 0.94366 0.63035 0.0
H622 H 0.24911 0.98402 0.6079 0.0
H623 H 0.13273 0.90563 0.64832 0.0
H624 H 0.10676 0.9133 0.68006 0.0
H625 H 0.14143 0.8917 0.6906 0.0
H626 H 0.17059 0.93493 0.73289 0.0
H627 H 0.13653 0.95739 0.7215 0.0
H628 H 0.18317 0.97798 0.71919 0.0
H629 H 0.19838 0.01246 0.58961 0.0
H630 H 0.13877 0.02347 0.57524 0.0
H631 H 0.09938 0.96775 0.66428 0.0
C632 C 0.21624 0.92156 0.6816 0.0
C633 C 0.248 0.9213 0.66752 0.0
C634 C 0.26059 0.94396 0.64114 0.0
C635 C 0.24059 0.9669 0.6287 0.0
C636 C 0.2092 0.96652 0.64377 0.0
C637 C 0.19739 0.94417 0.66963 0.0
C638 C 0.16137 0.9451 0.67973 0.0
C639 C 0.13401 0.91203 0.67432 0.0
C640 C 0.16307 0.95444 0.71545 0.0
C641 C 0.15418 0.97199 0.65565 0.0
C642 C 0.18169 0.9841 0.63477 0.0
C643 C 0.17736 1.00427 0.60651 0.0
C644 C 0.14351 0.0106 0.59868 0.0
C645 C 0.11524 0.99671 0.61935 0.0
C646 C 0.12126 0.97923 0.64895 0.0
H647 H 0.21416 0.16288 0.75411 0.0
H648 H 0.2302 0.26274 0.70967 0.0
H649 H 0.2023 0.24193 0.65706 0.0
H650 H 0.22735 0.12371 0.68133 0.0
H651 H 0.19174 0.08755 0.68828 0.0
H652 H 0.21521 0.1095 0.72269 0.0
H653 H 0.15519 0.11608 0.74163 0.0
H654 H 0.13151 0.09393 0.70745 0.0
H655 H 0.12596 0.13446 0.71311 0.0
H656 H 0.17378 0.2122 0.61004 0.0
H657 H 0.13895 0.17475 0.57033 0.0
H658 H 0.1356 0.09214 0.6435 0.0
C659 C 0.21157 0.18013 0.73319 0.0
C660 C 0.22434 0.21446 0.73575 0.0
C661 C 0.22054 0.23647 0.70815 0.0
C662 C 0.20489 0.22485 0.6781 0.0
C663 C 0.19254 0.19107 0.67614 0.0
C664 C 0.19499 0.16887 0.70287 0.0
C665 C 0.17714 0.13394 0.69387 0.0
C666 C 0.2045 0.11241 0.69671 0.0
C667 C 0.14557 0.11871 0.71529 0.0
C668 C 0.16419 0.14034 0.65808 0.0
C669 C 0.17408 0.17352 0.64857 0.0
C670 C 0.16553 0.18616 0.61713 0.0
C671 C 0.14552 0.16453 0.59474 0.0
C672 C 0.13382 0.13041 0.60373 0.0
C673 C 0.14382 0.11809 0.63585 0.0
H674 H 0.90807 0.11062 0.71143 0.0
H675 H 0.88175 0.1953 0.65335 0.0
H676 H 0.88965 0.17253 0.60396 0.0
H677 H 0.98321 0.12016 0.67239 0.0
H678 H 0.98352 0.0772 0.67313 0.0
H679 H 0.96147 0.09124 0.70395 0.0
H680 H 0.90274 0.04887 0.68839 0.0
H681 H 0.92469 0.03487 0.65724 0.0
H682 H 0.88413 0.04857 0.64631 0.0
H683 H 0.91198 0.1512 0.56209 0.0
H684 H 0.95808 0.13759 0.53182 0.0
H685 H 0.98061 0.0707 0.6136 0.0
C686 C 0.90331 0.1244 0.68857 0.0
C687 C 0.892 0.1542 0.68743 0.0
C688 C 0.88733 0.17122 0.6562 0.0
C689 C 0.89213 0.15852 0.62727 0.0
C690 C 0.90365 0.12962 0.62942 0.0
C691 C 0.91037 0.1132 0.65927 0.0
C692 C 0.93196 0.08824 0.65529 0.0
C693 C 0.96711 0.09464 0.67747 0.0
C694 C 0.90952 0.05305 0.6622 0.0
C695 C 0.93875 0.09556 0.61905 0.0
C696 C 0.92035 0.11826 0.60446 0.0
C697 C 0.92596 0.13291 0.57281 0.0
C698 C 0.95234 0.12549 0.55598 0.0
C699 C 0.97229 0.10359 0.57087 0.0
C700 C 0.96482 0.08731 0.60206 0.0
H701 H 0.86307 0.8361 0.69786 0.0
H702 H 0.89409 0.89433 0.78285 0.0
H703 H 0.92608 0.94113 0.74645 0.0
H704 H 0.94178 0.86552 0.65491 0.0
H705 H 0.91696 0.86417 0.61533 0.0
H706 H 0.89946 0.83614 0.64914 0.0
H707 H 0.84072 0.85659 0.64143 0.0
H708 H 0.85832 0.88528 0.60805 0.0
H709 H 0.84278 0.89979 0.64298 0.0
H710 H 0.9548 0.98174 0.69789 0.0
H711 H 0.97902 1.00878 0.6451 0.0
H712 H 0.92182 0.92317 0.59462 0.0
C713 C 0.87669 0.8585 0.70924 0.0
C714 C 0.87603 0.86151 0.74328 0.0
C715 C 0.89447 0.89138 0.75683 0.0
C716 C 0.91239 0.91812 0.73628 0.0
C717 C 0.91106 0.9145 0.70242 0.0
C718 C 0.89363 0.88519 0.68931 0.0
C719 C 0.89478 0.8868 0.65246 0.0
C720 C 0.91444 0.8617 0.64238 0.0
C721 C 0.8569 0.88182 0.63524 0.0
C722 C 0.91601 0.92165 0.64644 0.0
C723 C 0.92542 0.93756 0.67528 0.0
C724 C 0.94702 0.96957 0.67522 0.0
C725 C 0.9602 0.98499 0.64512 0.0
C726 C 0.95134 0.96833 0.61581 0.0
C727 C 0.92816 0.93678 0.61656 0.0
H728 H 0.38907 0.1989 0.25406 0.0
H729 H 0.31944 0.23404 0.17765 0.0
H730 H 0.34345 0.20705 0.13675 0.0
H731 H 0.46712 0.20364 0.20432 0.0
H732 H 0.47667 0.16515 0.22095 0.0
H733 H 0.45467 0.18732 0.24513 0.0
H734 H 0.40278 0.13617 0.25205 0.0
H735 H 0.42471 0.11384 0.22794 0.0
H736 H 0.37951 0.11707 0.21601 0.0
H737 H 0.37663 0.17246 0.0992 0.0
H738 H 0.41097 0.13925 0.07459 0.0
H739 H 0.46362 0.12276 0.17047 0.0
C740 C 0.37875 0.20157 0.22873 0.0
C741 C 0.35096 0.22088 0.22115 0.0
C742 C 0.33979 0.22094 0.18653 0.0
C743 C 0.3538 0.20505 0.16216 0.0
C744 C 0.38033 0.18682 0.17034 0.0
C745 C 0.39258 0.18478 0.20325 0.0
C746 C 0.42036 0.16214 0.20518 0.0
C747 C 0.4569 0.18065 0.21979 0.0
C748 C 0.40604 0.13043 0.22661 0.0
C749 C 0.4234 0.15327 0.16867 0.0
C750 C 0.39911 0.16751 0.1492 0.0
C751 C 0.3955 0.16187 0.11512 0.0
C752 C 0.41588 0.14224 0.10078 0.0
C753 C 0.44221 0.12694 0.11853 0.0
C754 C 0.44521 0.13344 0.15407 0.0
H755 H 0.87718 0.39819 0.23083 0.0
H756 H 0.82276 0.31853 0.17082 0.0
H757 H 0.84492 0.35221 0.12073 0.0
H758 H 0.86424 0.46618 0.17287 0.0
H759 H 0.90825 0.49202 0.18137 0.0
H760 H 0.88736 0.46247 0.21284 0.0
H761 H 0.94219 0.43647 0.21902 0.0
H762 H 0.96334 0.46601 0.18767 0.0
H763 H 0.95677 0.4226 0.1832 0.0
H764 H 0.87086 0.39508 0.07648 0.0
H765 H 0.90242 0.44245 0.04151 0.0
H766 H 0.94594 0.4942 0.12869 0.0
C767 C 0.86966 0.38808 0.20706 0.0
C768 C 0.84752 0.35573 0.20476 0.0
C769 C 0.8392 0.3432 0.17324 0.0
C770 C 0.85176 0.36221 0.14459 0.0
C771 C 0.8735 0.39383 0.14754 0.0
C772 C 0.88286 0.40663 0.17797 0.0
C773 C 0.90792 0.44094 0.17394 0.0
C774 C 0.89093 0.46695 0.18597 0.0
C775 C 0.94473 0.44152 0.19204 0.0
C776 C 0.91074 0.44549 0.13659 0.0
C777 C 0.89028 0.418 0.12197 0.0
C778 C 0.88716 0.41656 0.08779 0.0
C779 C 0.90517 0.44373 0.06803 0.0
C780 C 0.92688 0.47215 0.08211 0.0
C781 C 0.9299 0.47279 0.11707 0.0
H782 H 0.68125 0.83747 0.24104 0.0
H783 H 0.78125 0.87434 0.1946 0.0
H784 H 0.75362 0.9129 0.15857 0.0
H785 H 0.62071 0.84552 0.16388 0.0
H786 H 0.5874 0.85907 0.18371 0.0
H787 H 0.61429 0.83397 0.20692 0.0
H788 H 0.63438 0.87773 0.24908 0.0
H789 H 0.60752 0.90292 0.22597 0.0
H790 H 0.65468 0.91955 0.2352 0.0
H791 H 0.7125 0.95339 0.1234 0.0
H792 H 0.66892 0.98401 0.09803 0.0
H793 H 0.58917 0.92553 0.16109 0.0
C794 C 0.69804 0.85348 0.22347 0.0
C795 C 0.73599 0.85037 0.22307 0.0
C796 C 0.75355 0.87368 0.19794 0.0
C797 C 0.73733 0.89669 0.17639 0.0
C798 C 0.70112 0.89883 0.17753 0.0
C799 C 0.68149 0.87745 0.20077 0.0
C800 C 0.64266 0.88525 0.1963 0.0
C801 C 0.61456 0.85408 0.1872 0.0
C802 C 0.63426 0.89702 0.22857 0.0
C803 C 0.64312 0.91366 0.16731 0.0
C804 C 0.6778 0.92099 0.15726 0.0
C805 C 0.68565 0.94662 0.13177 0.0
C806 C 0.65952 0.96459 0.11672 0.0
C807 C 0.62261 0.959 0.1246 0.0
C808 C 0.61548 0.93194 0.15161 0.0
H809 H 0.19129 0.74692 0.2091 0.0
H810 H 0.28565 0.71288 0.19245 0.0
H811 H 0.25253 0.68344 0.14533 0.0
H812 H 0.1258 0.6739 0.19247 0.0
H813 H 0.09396 0.69555 0.17207 0.0
H814 H 0.12659 0.71508 0.20252 0.0
H815 H 0.14563 0.76383 0.15862 0.0
H816 H 0.11404 0.74254 0.12797 0.0
H817 H 0.16082 0.75606 0.12027 0.0
H818 H 0.21023 0.65863 0.0997 0.0
H819 H 0.15865 0.62998 0.06553 0.0
H820 H 0.08813 0.67432 0.1139 0.0
C821 C 0.20515 0.73345 0.19545 0.0
C822 C 0.24145 0.73251 0.2046 0.0
C823 C 0.25818 0.71431 0.18603 0.0
C824 C 0.23956 0.69763 0.15902 0.0
C825 C 0.2041 0.69933 0.15058 0.0
C826 C 0.18685 0.71645 0.1684 0.0
C827 C 0.14788 0.71259 0.15507 0.0
C828 C 0.12206 0.69837 0.18217 0.0
C829 C 0.14173 0.74573 0.13959 0.0
C830 C 0.14518 0.68864 0.1285 0.0
C831 C 0.1786 0.68288 0.12544 0.0
C832 C 0.18397 0.66278 0.10211 0.0
C833 C 0.15434 0.64676 0.0826 0.0
C834 C 0.11906 0.64957 0.08701 0.0
C835 C 0.11459 0.67177 0.10965 0.0
H836 H 0.3169 0.86858 0.8789 0.0
H837 H 0.40268 0.82176 0.86484 0.0
H838 H 0.441 0.85449 0.90699 0.0
H839 H 0.37487 0.95079 0.89193 0.0
H840 H 0.34959 0.95988 0.92352 0.0
H841 H 0.32758 0.93221 0.89272 0.0
H842 H 0.30497 0.88739 0.93854 0.0
H843 H 0.32705 0.91492 0.96945 0.0
H844 H 0.33673 0.87505 0.96912 0.0
H845 H 0.47202 0.89229 0.9538 0.0
H846 H 0.49236 0.93282 0.99576 0.0
H847 H 0.39088 0.9609 0.9803 0.0
C848 C 0.34369 0.86501 0.88463 0.0
C849 C 0.35575 0.84141 0.86739 0.0
C850 C 0.3916 0.83878 0.87663 0.0
C851 C 0.41405 0.85761 0.90106 0.0
C852 C 0.40155 0.88024 0.91729 0.0
C853 C 0.36716 0.88428 0.90929 0.0
C854 C 0.36108 0.91106 0.9305 0.0
C855 C 0.35278 0.94022 0.90834 0.0
C856 C 0.33063 0.89623 0.95324 0.0
C857 C 0.39727 0.92165 0.95106 0.0
C858 C 0.41993 0.90294 0.94327 0.0
C859 C 0.45422 0.90704 0.95961 0.0
C860 C 0.46579 0.9305 0.98389 0.0
C861 C 0.44417 0.95124 0.99233 0.0
C862 C 0.40897 0.94621 0.97507 0.0
H863 H 0.09812 0.36709 0.89522 0.0
H864 H 0.20621 0.42358 0.87921 0.0
H865 H 0.19255 0.47189 0.90045 0.0
H866 H 0.05465 0.43721 0.87298 0.0
H867 H 1.02257 0.42268 0.90375 0.0
H868 H 0.04044 0.39378 0.88449 0.0
H869 H 0.06012 0.37119 0.94268 0.0
H870 H 0.04265 0.40078 0.96126 0.0
H871 H 0.08882 0.39906 0.97025 0.0
H872 H 0.16983 0.51237 0.92705 0.0
H873 H 0.13936 0.54312 0.95911 0.0
H874 H 0.0445 0.46264 0.95728 0.0
C875 C 0.11868 0.38979 0.89588 0.0
C876 C 0.15309 0.39172 0.88504 0.0
C877 C 0.17943 0.42174 0.88657 0.0
C878 C 0.17197 0.4493 0.89873 0.0
C879 C 0.13786 0.44674 0.90899 0.0
C880 C 0.11152 0.41788 0.90765 0.0
C881 C 0.07742 0.4218 0.92124 0.0
C882 C 0.04698 0.4187 0.89394 0.0
C883 C 0.06666 0.39673 0.95061 0.0
C884 C 0.08938 0.4569 0.93185 0.0
C885 C 0.12425 0.47079 0.924 0.0
C886 C 0.14234 0.50206 0.93286 0.0
C887 C 0.1248 0.51938 0.95099 0.0
C888 C 0.08944 0.5056 0.96008 0.0
C889 C 0.07115 0.47419 0.94973 0.0
H890 H 0.73079 0.25906 0.89954 0.0
H891 H 0.73123 0.18318 0.83459 0.0
H892 H 0.68963 0.14274 0.86949 0.0
H893 H 0.72918 0.20608 0.97598 0.0
H894 H 0.70021 0.22515 0.99576 0.0
H895 H 0.72882 0.24859 0.96509 0.0
H896 H 0.6738 0.2628 0.93172 0.0
H897 H 0.64502 0.23936 0.96231 0.0
H898 H 0.6364 0.23004 0.9197 0.0
H899 H 0.64636 0.10884 0.91276 0.0
H900 H 0.61003 0.08553 0.96019 0.0
H901 H 0.63778 0.18099 1.00064 0.0
C902 C 0.72202 0.23397 0.89252 0.0
C903 C 0.73475 0.22486 0.86348 0.0
C904 C 0.72234 0.19136 0.85613 0.0
C905 C 0.69842 0.16799 0.87604 0.0
C906 C 0.68648 0.17759 0.90426 0.0
C907 C 0.69813 0.20985 0.91269 0.0
C908 C 0.68194 0.21327 0.94506 0.0
C909 C 0.71181 0.22391 0.97208 0.0
C910 C 0.65787 0.23784 0.93936 0.0
C911 C 0.65955 0.17814 0.95359 0.0
C912 C 0.66237 0.15805 0.92939 0.0
C913 C 0.64415 0.12468 0.93158 0.0
C914 C 0.62315 0.11149 0.9588 0.0
C915 C 0.6198 0.13098 0.98452 0.0
C916 C 0.63874 0.16506 0.9815 0.0
H917 H 0.86157 0.70282 0.82625 0.0
H918 H 0.87931 0.7877 0.88424 0.0
H919 H 0.91615 0.762 0.92597 0.0
H920 H 0.85199 0.64318 0.89539 0.0
H921 H 0.87398 0.61618 0.87766 0.0
H922 H 0.85083 0.64218 0.85126 0.0
H923 H 0.90878 0.66696 0.82111 0.0
H924 H 0.93213 0.64114 0.84763 0.0
H925 H 0.94947 0.68514 0.84457 0.0
H926 H 0.95123 0.72748 0.96159 0.0
H927 H 0.97704 0.68365 0.99131 0.0
H928 H 0.93441 0.62012 0.91183 0.0
C929 C 0.87382 0.71619 0.84742 0.0
C930 C 0.86814 0.7475 0.8517 0.0
C931 C 0.88361 0.76381 0.88029 0.0
C932 C 0.90463 0.74946 0.90414 0.0
C933 C 0.90973 0.71859 0.8993 0.0
C934 C 0.89447 0.70193 0.87188 0.0
C935 C 0.9025 0.66818 0.87374 0.0
C936 C 0.86776 0.64083 0.87458 0.0
C937 C 0.92454 0.66519 0.84506 0.0
C938 C 0.9246 0.66864 0.90641 0.0
C939 C 0.92883 0.69809 0.92055 0.0
C940 C 0.94817 0.70428 0.95077 0.0
C941 C 0.96298 0.67937 0.96737 0.0
C942 C 0.95781 0.64856 0.95392 0.0
C943 C 0.93882 0.64345 0.92278 0.0
H944 H 0.10453 0.36627 0.21044 0.0
H945 H 0.1599 0.33017 0.13902 0.0
H946 H 0.14652 0.37221 0.09692 0.0
H947 H 0.03355 0.38043 0.15612 0.0
H948 H 1.03028 0.41772 0.17299 0.0
H949 H 0.04687 0.38688 0.19891 0.0
H950 H 0.10578 0.42996 0.21419 0.0
H951 H 0.08866 0.46098 0.18901 0.0
H952 H 0.13146 0.45378 0.18169 0.0
H953 H 0.1228 0.41243 0.06239 0.0
H954 H 0.09482 0.4566 0.03701 0.0
H955 H 0.05597 0.46706 0.13105 0.0
C956 C 0.1134 0.3674 0.18582 0.0
C957 C 0.13164 0.34499 0.17681 0.0
C958 C 0.14447 0.34698 0.14516 0.0
C959 C 0.13748 0.37073 0.12149 0.0
C960 C 0.11806 0.39186 0.13054 0.0
C961 C 0.10659 0.39091 0.1619 0.0
C962 C 0.0851 0.41585 0.16455 0.0
C963 C 0.04668 0.39921 0.17367 0.0
C964 C 0.1039 0.44167 0.18879 0.0
C965 C 0.08574 0.43024 0.12962 0.0
C966 C 0.10483 0.41597 0.11045 0.0
C967 C 0.10808 0.4242 0.07699 0.0
C968 C 0.09198 0.4487 0.06288 0.0
C969 C 0.07371 0.46402 0.08273 0.0
C970 C 0.07002 0.45491 0.11608 0.0
H971 H 0.21111 0.68245 0.83705 0.0
H972 H 0.26826 0.75891 0.8997 0.0
H973 H 0.22635 0.73619 0.94324 0.0
H974 H 0.12349 0.67786 0.85831 0.0
H975 H 0.10855 0.63365 0.85922 0.0
H976 H 0.14346 0.65496 0.83312 0.0
H977 H 0.18591 0.61957 0.86072 0.0
H978 H 0.15088 0.59756 0.88638 0.0
H979 H 0.194 0.61727 0.90492 0.0
H980 H 0.17695 0.70805 0.97767 0.0
H981 H 0.12876 0.66946 1.0068 0.0
H982 H 0.10456 0.60887 0.92342 0.0
C983 C 0.21517 0.6937 0.86037 0.0
C984 C 0.24289 0.72195 0.86566 0.0
C985 C 0.24747 0.73675 0.89588 0.0
C986 C 0.2236 0.7243 0.92041 0.0
C987 C 0.19583 0.69689 0.9142 0.0
C988 C 0.19205 0.68112 0.88539 0.0
C989 C 0.16065 0.65127 0.88564 0.0
C990 C 0.13237 0.65467 0.85739 0.0
C991 C 0.17363 0.61954 0.88435 0.0
C992 C 0.14687 0.65322 0.91885 0.0
C993 C 0.16744 0.68001 0.9346 0.0
C994 C 0.16066 0.68699 0.9657 0.0
C995 C 0.13311 0.66518 0.98186 0.0
C996 C 0.11282 0.6368 0.96694 0.0
C997 C 0.11915 0.63099 0.93478 0.0
H998 H 0.35286 0.18306 0.84022 0.0
H999 H 0.33878 0.25738 0.90145 0.0
H1000 H 0.37401 0.23484 0.94754 0.0
H1001 H 0.34301 0.11655 0.90697 0.0
H1002 H 0.3754 0.09753 0.89242 0.0
H1003 H 0.3506 0.12034 0.8637 0.0
H1004 H 0.40996 0.15682 0.84357 0.0
H1005 H 0.43492 0.13421 0.87237 0.0
H1006 H 0.44302 0.17829 0.87297 0.0
H1007 H 0.41548 0.2054 0.98768 0.0
H1008 H 0.44976 0.16851 0.01908 0.0
H1009 H 0.4321 0.10726 0.9365 0.0
C1010 C 0.35705 0.1946 0.86335 0.0
C1011 C 0.34248 0.22262 0.86647 0.0
C1012 C 0.34897 0.23618 0.89774 0.0
C1013 C 0.36936 0.22345 0.92432 0.0
C1014 C 0.38322 0.19609 0.92048 0.0
C1015 C 0.37665 0.18134 0.89089 0.0
C1016 C 0.39314 0.15103 0.89406 0.0
C1017 C 0.36379 0.11948 0.88898 0.0
C1018 C 0.42196 0.15534 0.86926 0.0
C1019 C 0.41008 0.15104 0.9298 0.0
C1020 C 0.40464 0.17783 0.94426 0.0
C1021 C 0.41929 0.18425 0.97639 0.0
C1022 C 0.43921 0.16303 0.99422 0.0
C1023 C 0.44436 0.1344 0.98106 0.0
C1024 C 0.42907 0.12858 0.94799 0.0
H1025 H 0.82976 0.33557 0.89071 0.0
H1026 H 0.90879 0.35052 0.81799 0.0
H1027 H 0.94752 0.39564 0.84833 0.0
H1028 H 0.83564 0.41612 0.90311 0.0
H1029 H 0.83221 0.41076 0.94711 0.0
H1030 H 0.81252 0.37713 0.92194 0.0
H1031 H 0.84918 0.3401 0.95657 0.0
H1032 H 0.86866 0.37346 0.98233 0.0
H1033 H 0.89719 0.35416 0.96224 0.0
H1034 H 0.97229 0.44303 0.88085 0.0
H1035 H 0.9877 0.48661 0.9203 0.0
H1036 H 0.89361 0.43945 0.97274 0.0
C1037 C 0.85548 0.34817 0.88168 0.0
C1038 C 0.86667 0.34028 0.85241 0.0
C1039 C 0.90032 0.3566 0.84079 0.0
C1040 C 0.92234 0.38208 0.85771 0.0
C1041 C 0.91031 0.38991 0.88631 0.0
C1042 C 0.87813 0.37306 0.89868 0.0
C1043 C 0.87111 0.38708 0.92939 0.0
C1044 C 0.83579 0.39846 0.9251 0.0
C1045 C 0.87158 0.36222 0.95941 0.0
C1046 C 0.90329 0.41569 0.9311 0.0
C1047 C 0.92568 0.41667 0.90617 0.0
C1048 C 0.95586 0.44206 0.90123 0.0
C1049 C 0.96405 0.46673 0.92321 0.0
C1050 C 0.94147 0.46568 0.94878 0.0
C1051 C 0.91092 0.44016 0.95302 0.0
H1052 H 0.71402 0.96155 0.90164 0.0
H1053 H 0.65471 0.86116 0.92487 0.0
H1054 H 0.61137 0.88212 0.9525 0.0
H1055 H 0.70668 0.99148 0.97809 0.0
H1056 H 0.70188 0.03143 0.96095 0.0
H1057 H 0.72597 1.00868 0.93985 0.0
H1058 H 0.68417 0.0131 0.88723 0.0
H1059 H 0.65959 0.03554 0.90835 0.0
H1060 H 0.63639 0.99847 0.88932 0.0
H1061 H 0.57568 0.91355 0.9795 0.0
H1062 H 0.55392 0.95293 1.00899 0.0
H1063 H 0.63836 0.03267 0.972 0.0
C1064 C 0.69191 0.9439 0.91245 0.0
C1065 C 0.68767 0.90961 0.91056 0.0
C1066 C 0.65816 0.88752 0.92505 0.0
C1067 C 0.63343 0.89919 0.94101 0.0
C1068 C 0.63849 0.93305 0.94241 0.0
C1069 C 0.66714 0.9551 0.92877 0.0
C1070 C 0.66761 0.99018 0.93549 0.0
C1071 C 0.70261 1.00637 0.95476 0.0
C1072 C 0.66159 0.01053 0.90318 0.0
C1073 C 0.63561 0.98426 0.95623 0.0
C1074 C 0.61858 0.9512 0.95903 0.0
C1075 C 0.58853 0.93953 0.97714 0.0
C1076 C 0.57603 0.96211 0.99342 0.0
C1077 C 0.59382 0.99586 0.99193 0.0
C1078 C 0.62387 1.00708 0.97292 0.0
H1079 H 0.98687 0.70716 0.20464 0.0
H1080 H 0.95755 0.77882 0.13029 0.0
H1081 H 0.95379 0.74076 0.0879 0.0
H1082 H 0.03807 0.67095 0.14759 0.0
H1083 H 1.02289 0.63046 0.16743 0.0
H1084 H 1.03004 0.66618 0.19085 0.0
H1085 H 0.96409 0.64551 0.2078 0.0
H1086 H 0.95704 0.61108 0.18273 0.0
H1087 H 0.92809 0.63925 0.17596 0.0
H1088 H 0.93923 0.69285 0.05645 0.0
H1089 H 0.93332 0.64041 0.03197 0.0
H1090 H 0.97605 0.59961 0.12395 0.0
C1091 C 0.98146 0.71537 0.17921 0.0
C1092 C 0.97283 0.74609 0.1709 0.0
C1093 C 0.96519 0.75585 0.13739 0.0
C1094 C 0.96227 0.73414 0.11304 0.0
C1095 C 0.96779 0.70315 0.1225 0.0
C1096 C 0.97862 0.69399 0.15437 0.0
C1097 C 0.98154 0.65849 0.15761 0.0
C1098 C 1.02048 0.65638 0.16644 0.0
C1099 C 0.95617 0.63738 0.18251 0.0
C1100 C 0.96947 0.64923 0.12286 0.0
C1101 C 0.961 0.67528 0.10335 0.0
C1102 C 0.94664 0.67241 0.07108 0.0
C1103 C 0.94283 0.64244 0.05764 0.0
C1104 C 0.95428 0.61638 0.07633 0.0
C1105 C 0.96706 0.61941 0.10948 0.0
H1106 H 0.33323 0.88454 0.2229 0.0
H1107 H 0.37003 0.80384 0.18989 0.0
H1108 H 0.41297 0.84327 0.15545 0.0
H1109 H 0.34083 0.93765 0.14783 0.0
H1110 H 0.35794 0.97466 0.16912 0.0
H1111 H 0.32839 0.9398 0.18899 0.0
H1112 H 0.37584 0.9403 0.23824 0.0
H1113 H 0.40585 0.97477 0.21816 0.0
H1114 H 0.42039 0.93758 0.2308 0.0
H1115 H 0.45395 0.89017 0.1293 0.0
H1116 H 0.4864 0.94344 0.10448 0.0
H1117 H 0.42268 0.99398 0.15414 0.0
C1118 C 0.34952 0.87536 0.20738 0.0
C1119 C 0.34834 0.84168 0.20781 0.0
C1120 C 0.3707 0.82987 0.18883 0.0
C1121 C 0.39516 0.85194 0.16967 0.0
C1122 C 0.39687 0.88531 0.17072 0.0
C1123 C 0.37451 0.89707 0.18872 0.0
C1124 C 0.3831 0.93418 0.18667 0.0
C1125 C 0.35064 0.94733 0.17226 0.0
C1126 C 0.39711 0.94746 0.22048 0.0
C1127 C 0.41268 0.94131 0.16341 0.0
C1128 C 0.42087 0.91274 0.15546 0.0
C1129 C 0.4479 0.91278 0.1352 0.0
C1130 C 0.46633 0.943 0.12161 0.0
C1131 C 0.45687 0.97223 0.12805 0.0
C1132 C 0.43024 0.97167 0.14945 0.0
H1133 H 0.72199 0.25739 0.19092 0.0
H1134 H 0.75898 0.18258 0.25526 0.0
H1135 H 0.70373 0.14186 0.24038 0.0
H1136 H 0.6243 0.22645 0.1953 0.0
H1137 H 0.61527 0.23378 0.15156 0.0
H1138 H 0.65337 0.25969 0.17263 0.0
H1139 H 0.69617 0.24642 0.13277 0.0
H1140 H 0.65796 0.22186 0.11104 0.0
H1141 H 0.69465 0.20401 0.12704 0.0
H1142 H 0.64669 0.10959 0.21928 0.0
H1143 H 0.60652 0.08054 0.17589 0.0
H1144 H 0.61073 0.17279 0.1179 0.0
C1145 C 0.71819 0.23246 0.20202 0.0
C1146 C 0.74342 0.22346 0.2259 0.0
C1147 C 0.7388 0.19033 0.23848 0.0
C1148 C 0.70742 0.16713 0.23038 0.0
C1149 C 0.68181 0.17725 0.20849 0.0
C1150 C 0.68779 0.20853 0.19295 0.0
C1151 C 0.66022 0.21076 0.1647 0.0
C1152 C 0.63691 0.23407 0.17147 0.0
C1153 C 0.67832 0.22134 0.13197 0.0
C1154 C 0.63879 0.17539 0.16598 0.0
C1155 C 0.65038 0.15719 0.1929 0.0
C1156 C 0.6371 0.12345 0.19824 0.0
C1157 C 0.61408 0.10723 0.17369 0.0
C1158 C 0.60601 0.1248 0.14404 0.0
C1159 C 0.61601 0.15934 0.14097 0.0
H1160 H 0.7267 0.6827 0.82254 0.0
H1161 H 0.69461 0.77017 0.84543 0.0
H1162 H 0.65159 0.73639 0.88276 0.0
H1163 H 0.63544 0.62548 0.82759 0.0
H1164 H 0.65355 0.59188 0.84633 0.0
H1165 H 0.67903 0.62202 0.81784 0.0
H1166 H 0.73218 0.63331 0.86202 0.0
H1167 H 0.70671 0.60342 0.89054 0.0
H1168 H 0.72503 0.645 0.90185 0.0
H1169 H 0.61796 0.69608 0.92193 0.0
H1170 H 0.59379 0.64955 0.96125 0.0
H1171 H 0.64485 0.58662 0.9135 0.0
C1172 C 0.70996 0.69458 0.83478 0.0
C1173 C 0.71396 0.72914 0.83086 0.0
C1174 C 0.692 0.74381 0.84778 0.0
C1175 C 0.66734 0.72481 0.86904 0.0
C1176 C 0.66449 0.69105 0.87283 0.0
C1177 C 0.68485 0.67584 0.85608 0.0
C1178 C 0.6779 0.6393 0.86665 0.0
C1179 C 0.66044 0.61845 0.83788 0.0
C1180 C 0.71251 0.62972 0.88114 0.0
C1181 C 0.65163 0.6369 0.89284 0.0
C1182 C 0.64404 0.66708 0.89555 0.0
C1183 C 0.62281 0.67209 0.91953 0.0
C1184 C 0.60917 0.64562 0.94164 0.0
C1185 C 0.61674 0.61464 0.93951 0.0
C1186 C 0.63776 0.60993 0.91462 0.0
H1187 H 0.38824 0.69757 0.95366 0.0
H1188 H 0.29503 0.62554 0.92002 0.0
H1189 H 0.32663 0.58147 0.93515 0.0
H1190 H 0.43896 0.66867 0.90764 0.0
H1191 H 0.48002 0.67843 0.93335 0.0
H1192 H 0.44713 0.70227 0.93396 0.0
H1193 H 0.44741 0.69143 0.99526 0.0
H1194 H 0.47727 0.66409 0.99828 0.0
H1195 H 0.43331 0.65075 0.01374 0.0
H1196 H 0.37385 0.55475 0.92373 0.0
H1197 H 0.42698 0.53176 0.92727 0.0
H1198 H 0.49143 0.61999 0.96958 0.0
C1199 C 0.37353 0.67218 0.9521 0.0
C1200 C 0.34146 0.66454 0.93204 0.0
C1201 C 0.32116 0.63159 0.93317 0.0
C1202 C 0.33939 0.60655 0.9406 0.0
C1203 C 0.37592 0.61607 0.94966 0.0
C1204 C 0.39268 0.6479 0.95716 0.0
C1205 C 0.4331 0.65321 0.96022 0.0
C1206 C 0.45077 0.67705 0.93213 0.0
C1207 C 0.44882 0.66546 0.99388 0.0
C1208 C 0.43601 0.61879 0.9555 0.0
C1209 C 0.40296 0.59887 0.94655 0.0
C1210 C 0.39946 0.56888 0.93331 0.0
C1211 C 0.42989 0.55658 0.93445 0.0
C1212 C 0.46189 0.57328 0.9512 0.0
C1213 C 0.46644 0.60618 0.95839 0.0
H1214 H 0.35425 0.33197 0.87749 0.0
H1215 H 0.38396 0.38232 0.78282 0.0
H1216 H 0.43142 0.42356 0.8116 0.0
H1217 H 0.36433 0.40214 0.92107 0.0
H1218 H 0.38139 0.38369 0.95871 0.0
H1219 H 0.35152 0.35819 0.93007 0.0
H1220 H 0.39839 0.32344 0.92735 0.0
H1221 H 0.42844 0.34895 0.956 0.0
H1222 H 0.44315 0.3437 0.91657 0.0
H1223 H 0.47334 0.46065 0.85225 0.0
H1224 H 0.50491 0.4901 0.90006 0.0
H1225 H 0.44692 0.41231 0.96613 0.0
C1226 C 0.37059 0.35162 0.86256 0.0
C1227 C 0.36531 0.3542 0.82796 0.0
C1228 C 0.38765 0.38005 0.80945 0.0
C1229 C 0.4146 0.40344 0.82555 0.0
C1230 C 0.41885 0.4001 0.85991 0.0
C1231 C 0.39743 0.37466 0.87802 0.0
C1232 C 0.40632 0.37645 0.91454 0.0
C1233 C 0.37398 0.38038 0.93211 0.0
C1234 C 0.41988 0.34634 0.92947 0.0
C1235 C 0.43594 0.40725 0.91442 0.0
C1236 C 0.44304 0.42063 0.88283 0.0
C1237 C 0.46834 0.45011 0.87705 0.0
C1238 C 0.4863 0.46652 0.90436 0.0
C1239 C 0.47864 0.45332 0.93686 0.0
C1240 C 0.4537 0.42297 0.94169 0.0
H1241 H 0.70791 0.45094 0.86102 0.0
H1242 H 0.64294 0.35235 0.882 0.0
H1243 H 0.61601 0.37231 0.9263 0.0
H1244 H 0.72659 0.47304 0.9436 0.0
H1245 H 0.72305 0.51503 0.93467 0.0
H1246 H 0.73655 0.49356 0.9036 0.0
H1247 H 0.68475 0.50576 0.8633 0.0
H1248 H 0.67131 0.52748 0.89419 0.0
H1249 H 0.63947 0.49388 0.87585 0.0
H1250 H 0.5972 0.4018 0.96814 0.0
H1251 H 0.58498 0.44064 1.00489 0.0
H1252 H 0.66242 0.52021 0.95734 0.0
C1253 C 0.68768 0.43375 0.87473 0.0
C1254 C 0.67747 0.40017 0.86845 0.0
C1255 C 0.65126 0.37813 0.88691 0.0
C1256 C 0.6358 0.38921 0.91194 0.0
C1257 C 0.64694 0.42231 0.918 0.0
C1258 C 0.672 0.44439 0.89986 0.0
C1259 C 0.67926 0.47864 0.91175 0.0
C1260 C 0.71871 0.49075 0.92414 0.0
C1261 C 0.66801 0.50286 0.88467 0.0
C1262 C 0.65487 0.47204 0.93983 0.0
C1263 C 0.63636 0.43942 0.94278 0.0
C1264 C 0.61164 0.42737 0.96633 0.0
C1265 C 0.6051 0.44949 0.98716 0.0
C1266 C 0.62338 0.48309 0.98422 0.0
C1267 C 0.64895 0.49442 0.96065 0.0
H1268 H 0.7195 0.39831 0.1441 0.0
H1269 H 0.77366 0.4814 0.19923 0.0
H1270 H 0.72038 0.50477 0.18907 0.0
H1271 H 0.67354 0.43967 0.08242 0.0
H1272 H 0.63405 0.40616 0.08151 0.0
H1273 H 0.677 0.39794 0.09371 0.0
H1274 H 0.64978 0.3681 0.14757 0.0
H1275 H 0.6078 0.37929 0.13615 0.0
H1276 H 0.63188 0.39064 0.17477 0.0
H1277 H 0.65788 0.51112 0.1855 0.0
H1278 H 0.61018 0.52781 0.14838 0.0
H1279 H 0.60241 0.44534 0.09055 0.0
C1280 C 0.72087 0.42213 0.15308 0.0
C1281 C 0.74781 0.43596 0.17683 0.0
C1282 C 0.75112 0.469 0.18369 0.0
C1283 C 0.72038 0.48143 0.17977 0.0
C1284 C 0.68935 0.46155 0.16564 0.0
C1285 C 0.69018 0.43408 0.1498 0.0
C1286 C 0.65503 0.4202 0.13126 0.0
C1287 C 0.66024 0.41584 0.09507 0.0
C1288 C 0.63499 0.38763 0.14848 0.0
C1289 C 0.63642 0.44712 0.13537 0.0
C1290 C 0.65473 0.46795 0.15904 0.0
C1291 C 0.64411 0.49571 0.16623 0.0
C1292 C 0.61819 0.50554 0.14474 0.0
C1293 C 0.60753 0.48958 0.11553 0.0
C1294 C 0.61214 0.45803 0.1127 0.0
H1295 H 0.70654 0.73464 0.20965 0.0
H1296 H 0.77002 0.66719 0.25271 0.0
H1297 H 0.73084 0.62245 0.22185 0.0
H1298 H 0.61904 0.67188 0.21213 0.0
H1299 H 0.60117 0.68904 0.17416 0.0
H1300 H 0.63295 0.7154 0.20097 0.0
H1301 H 0.67395 0.73585 0.15267 0.0
H1302 H 0.64252 0.70948 0.12577 0.0
H1303 H 0.68851 0.70631 0.13109 0.0
H1304 H 0.69468 0.5905 0.17787 0.0
H1305 H 0.65485 0.56804 0.13122 0.0
H1306 H 0.6046 0.65001 0.12447 0.0
C1307 C 0.71186 0.71032 0.21258 0.0
C1308 C 0.74147 0.70412 0.23281 0.0
C1309 C 0.74755 0.67214 0.23692 0.0
C1310 C 0.72545 0.64671 0.21964 0.0
C1311 C 0.69673 0.65359 0.19942 0.0
C1312 C 0.68916 0.68428 0.19647 0.0
C1313 C 0.6565 0.68481 0.17296 0.0
C1314 C 0.62559 0.69063 0.19115 0.0
C1315 C 0.66595 0.71064 0.1439 0.0
C1316 C 0.64805 0.65009 0.16192 0.0
C1317 C 0.67195 0.63276 0.17741 0.0
C1318 C 0.67398 0.60256 0.16745 0.0
C1319 C 0.65046 0.5894 0.14153 0.0
C1320 C 0.62356 0.60503 0.1273 0.0
C1321 C 0.62285 0.63624 0.13704 0.0
H1322 H 0.41239 0.62477 0.21291 0.0
H1323 H 0.36333 0.68844 0.14368 0.0
H1324 H 0.37983 0.66237 0.09733 0.0
H1325 H 0.48602 0.62879 0.17192 0.0
H1326 H 0.48828 0.58642 0.18062 0.0
H1327 H 0.46773 0.60586 0.20851 0.0
H1328 H 0.40878 0.56042 0.2031 0.0
H1329 H 0.42981 0.54028 0.17608 0.0
H1330 H 0.38802 0.55099 0.16272 0.0
H1331 H 0.4022 0.6304 0.05954 0.0
H1332 H 0.43516 0.59758 0.03125 0.0
H1333 H 0.47288 0.55903 0.1259 0.0
C1334 C 0.40393 0.63238 0.18804 0.0
C1335 C 0.38633 0.6582 0.18164 0.0
C1336 C 0.3768 0.66851 0.14883 0.0
C1337 C 0.38581 0.65379 0.1225 0.0
C1338 C 0.40394 0.62884 0.12973 0.0
C1339 C 0.41274 0.61808 0.16166 0.0
C1340 C 0.43493 0.5929 0.1628 0.0
C1341 C 0.4714 0.60421 0.18207 0.0
C1342 C 0.41414 0.55915 0.17701 0.0
C1343 C 0.43884 0.5926 0.1265 0.0
C1344 C 0.4198 0.61262 0.10783 0.0
C1345 C 0.41803 0.61521 0.07358 0.0
C1346 C 0.43667 0.59695 0.05789 0.0
C1347 C 0.45701 0.57745 0.07681 0.0
C1348 C 0.45808 0.5749 0.11133 0.0
H1349 H 0.3515 0.40023 0.23629 0.0
H1350 H 0.36219 0.30588 0.2085 0.0
H1351 H 0.41249 0.33369 0.17544 0.0
H1352 H 0.36426 0.44015 0.15729 0.0
H1353 H 0.38908 0.47953 0.17061 0.0
H1354 H 0.3578 0.45265 0.19697 0.0
H1355 H 0.40796 0.45467 0.2438 0.0
H1356 H 0.43937 0.48167 0.21745 0.0
H1357 H 0.44886 0.44384 0.23612 0.0
H1358 H 0.45695 0.3697 0.14214 0.0
H1359 H 0.48928 0.41327 0.1039 0.0
H1360 H 0.45016 0.48615 0.14912 0.0
C1361 C 0.36478 0.38566 0.22336 0.0
C1362 C 0.35286 0.35096 0.2246 0.0
C1363 C 0.37057 0.3325 0.20738 0.0
C1364 C 0.39952 0.34804 0.18893 0.0
C1365 C 0.41043 0.38218 0.18769 0.0
C1366 C 0.3935 0.40099 0.20398 0.0
C1367 C 0.40805 0.43747 0.19476 0.0
C1368 C 0.37802 0.45338 0.17895 0.0
C1369 C 0.4272 0.45546 0.22484 0.0
C1370 C 0.43467 0.43585 0.16992 0.0
C1371 C 0.43619 0.40364 0.16717 0.0
C1372 C 0.45658 0.3951 0.14439 0.0
C1373 C 0.47492 0.41995 0.12287 0.0
C1374 C 0.47267 0.45287 0.12416 0.0
C1375 C 0.45316 0.4612 0.14854 0.0
H1376 H 0.90353 0.66485 0.63794 0.0
H1377 H 0.88964 0.60709 0.73142 0.0
H1378 H 0.92732 0.57187 0.71459 0.0
H1379 H 0.90147 0.59777 0.58846 0.0
H1380 H 0.93447 0.62228 0.56205 0.0
H1381 H 0.90552 0.64151 0.58153 0.0
H1382 H 0.96104 0.68184 0.60735 0.0
H1383 H 0.99006 0.66271 0.5879 0.0
H1384 H 0.99493 0.66563 0.6319 0.0
H1385 H 0.96969 0.54324 0.68581 0.0
H1386 H 1.00839 0.52547 0.64851 0.0
H1387 H 0.99366 0.60542 0.57741 0.0
C1388 C 0.90855 0.64502 0.65514 0.0
C1389 C 0.89381 0.63907 0.6862 0.0
C1390 C 0.90046 0.61215 0.70741 0.0
C1391 C 0.92202 0.59209 0.69811 0.0
C1392 C 0.93667 0.59911 0.66744 0.0
C1393 C 0.92987 0.62498 0.64634 0.0
C1394 C 0.94832 0.62797 0.61479 0.0
C1395 C 0.9208 0.62201 0.58497 0.0
C1396 C 0.97518 0.66152 0.61025 0.0
C1397 C 0.96719 0.60022 0.62152 0.0
C1398 C 0.96027 0.58337 0.65169 0.0
C1399 C 0.97518 0.55643 0.6621 0.0
C1400 C 0.99728 0.54653 0.64088 0.0
C1401 C 1.00422 0.56366 0.60973 0.0
C1402 C 0.98903 0.59107 0.60068 0.0
H1403 H 0.40538 0.82228 0.73929 0.0
H1404 H 0.31498 0.85934 0.69726 0.0
H1405 H 0.35551 0.90565 0.66741 0.0
H1406 H 0.46702 0.90184 0.7493 0.0
H1407 H 0.50522 0.8884 0.73837 0.0
H1408 H 0.46905 0.8594 0.75776 0.0
H1409 H 0.46098 0.82167 0.70928 0.0
H1410 H 0.4977 0.85007 0.69034 0.0
H1411 H 0.45477 0.83878 0.66768 0.0
H1412 H 0.40522 0.94554 0.64119 0.0
H1413 H 0.46026 0.97278 0.61343 0.0
H1414 H 0.51868 0.90935 0.67233 0.0
C1415 C 0.39431 0.84 0.72341 0.0
C1416 C 0.35731 0.83816 0.72046 0.0
C1417 C 0.34342 0.86155 0.69997 0.0
C1418 C 0.36622 0.88765 0.68316 0.0
C1419 C 0.40286 0.88965 0.68747 0.0
C1420 C 0.41682 0.86622 0.70664 0.0
C1421 C 0.457 0.87312 0.70571 0.0
C1422 C 0.47567 0.88116 0.73982 0.0
C1423 C 0.46826 0.84421 0.69244 0.0
C1424 C 0.46327 0.90327 0.68185 0.0
C1425 C 0.43176 0.91289 0.67234 0.0
C1426 C 0.43021 0.93871 0.6488 0.0
C1427 C 0.46146 0.95414 0.63341 0.0
C1428 C 0.49329 0.94338 0.64167 0.0
C1429 C 0.49468 0.91848 0.66674 0.0
H1430 H 0.18684 0.32927 0.73471 0.0
H1431 H 0.29317 0.3676 0.70048 0.0
H1432 H 0.26993 0.40724 0.66122 0.0
H1433 H 0.14112 0.3355 0.65096 0.0
H1434 H 0.10246 0.34537 0.66554 0.0
H1435 H 0.12754 0.32079 0.6918 0.0
H1436 H 0.13606 0.36198 0.73677 0.0
H1437 H 0.11131 0.38685 0.71049 0.0
H1438 H 0.156 0.4049 0.72697 0.0
H1439 H 0.23499 0.44522 0.62548 0.0
H1440 H 0.19176 0.47216 0.59264 0.0
H1441 H 0.10502 0.40836 0.64461 0.0
C1442 C 0.20536 0.34612 0.71909 0.0
C1443 C 0.2426 0.34511 0.72174 0.0
C1444 C 0.26498 0.36742 0.69975 0.0
C1445 C 0.25183 0.39034 0.67717 0.0
C1446 C 0.21543 0.3909 0.67542 0.0
C1447 C 0.19225 0.36878 0.69531 0.0
C1448 C 0.15382 0.37331 0.68667 0.0
C1449 C 0.1298 0.34187 0.67294 0.0
C1450 C 0.13837 0.38229 0.71704 0.0
C1451 C 0.15908 0.40212 0.65978 0.0
C1452 C 0.19506 0.41183 0.65391 0.0
C1453 C 0.20689 0.43762 0.6302 0.0
C1454 C 0.18189 0.45325 0.61167 0.0
C1455 C 0.14452 0.44394 0.61616 0.0
C1456 C 0.13325 0.41757 0.64095 0.0
H1457 H 0.70701 0.23568 0.6998 0.0
H1458 H 0.79424 0.1937 0.74247 0.0
H1459 H 0.77161 0.14481 0.71286 0.0
H1460 H 0.64253 0.1655 0.71165 0.0
H1461 H 0.61522 0.16826 0.67381 0.0
H1462 H 0.64247 0.20511 0.69049 0.0
H1463 H 0.67439 0.22194 0.63622 0.0
H1464 H 0.64607 0.18589 0.61878 0.0
H1465 H 0.6941 0.193 0.61891 0.0
H1466 H 0.73596 0.09703 0.68825 0.0
H1467 H 0.69214 0.05483 0.65779 0.0
H1468 H 0.62378 0.1232 0.63496 0.0
C1469 C 0.72201 0.2168 0.70133 0.0
C1470 C 0.75354 0.21912 0.72201 0.0
C1471 C 0.77167 0.19338 0.725 0.0
C1472 C 0.75844 0.16499 0.70887 0.0
C1473 C 0.72626 0.16226 0.69047 0.0
C1474 C 0.70838 0.18746 0.68584 0.0
C1475 C 0.67249 0.17618 0.66712 0.0
C1476 C 0.64136 0.17893 0.68698 0.0
C1477 C 0.67173 0.19538 0.63324 0.0
C1478 C 0.67278 0.14057 0.66388 0.0
C1479 C 0.7042 0.13328 0.67739 0.0
C1480 C 0.71114 0.1022 0.67728 0.0
C1481 C 0.68603 0.07824 0.66071 0.0
C1482 C 0.6548 0.08596 0.64516 0.0
C1483 C 0.64731 0.11685 0.64776 0.0
H1484 H 0.8979 0.37129 0.32691 0.0
H1485 H 0.81288 0.32805 0.39176 0.0
H1486 H 0.84787 0.35926 0.43724 0.0
H1487 H 0.96734 0.36462 0.38145 0.0
H1488 H 0.99725 0.40297 0.36866 0.0
H1489 H 0.96321 0.38229 0.33979 0.0
H1490 H 0.93756 0.43424 0.32857 0.0
H1491 H 0.9722 0.45554 0.35677 0.0
H1492 H 0.92582 0.45306 0.36267 0.0
H1493 H 0.89586 0.38899 0.47697 0.0
H1494 H 0.95196 0.41828 0.50682 0.0
H1495 H 1.004 0.44035 0.41496 0.0
C1496 C 0.88633 0.36889 0.3505 0.0
C1497 C 0.85311 0.34726 0.35622 0.0
C1498 C 0.83849 0.3447 0.38718 0.0
C1499 C 0.85807 0.36229 0.41302 0.0
C1500 C 0.8916 0.38248 0.40693 0.0
C1501 C 0.90529 0.38626 0.37624 0.0
C1502 C 0.94298 0.40717 0.37645 0.0
C1503 C 0.96921 0.38811 0.36599 0.0
C1504 C 0.94472 0.43942 0.35484 0.0
C1505 C 0.94904 0.41334 0.4124 0.0
C1506 C 0.91907 0.39937 0.42964 0.0
C1507 C 0.91929 0.40052 0.46369 0.0
C1508 C 0.95102 0.41682 0.48038 0.0
C1509 C 0.98148 0.43103 0.46271 0.0
C1510 C 0.98059 0.42943 0.42857 0.0
H1511 H 0.66039 0.81867 0.43464 0.0
H1512 H 0.65646 0.8761 0.34099 0.0
H1513 H 0.65209 0.92387 0.37033 0.0
H1514 H 0.59563 0.84972 0.47097 0.0
H1515 H 0.61801 0.84826 0.51154 0.0
H1516 H 0.62194 0.81983 0.48252 0.0
H1517 H 0.69141 0.83973 0.49033 0.0
H1518 H 0.68727 0.86917 0.51837 0.0
H1519 H 0.71224 0.88278 0.48235 0.0
H1520 H 0.64844 0.96444 0.40955 0.0
H1521 H 0.6311 0.99112 0.45484 0.0
H1522 H 0.63779 0.90627 0.52178 0.0
C1523 C 0.65756 0.84094 0.42016 0.0
C1524 C 0.65856 0.84392 0.38571 0.0
C1525 C 0.65563 0.87364 0.36756 0.0
C1526 C 0.65373 0.90087 0.38395 0.0
C1527 C 0.65483 0.89756 0.41818 0.0
C1528 C 0.65571 0.86813 0.43597 0.0
C1529 C 0.65386 0.87011 0.4723 0.0
C1530 C 0.62037 0.84556 0.48506 0.0
C1531 C 0.68826 0.86514 0.49196 0.0
C1532 C 0.65098 0.9051 0.47211 0.0
C1533 C 0.6526 0.9209 0.44082 0.0
C1534 C 0.64764 0.95262 0.43424 0.0
C1535 C 0.63828 0.96767 0.46008 0.0
C1536 C 0.63356 0.95032 0.49133 0.0
C1537 C 0.64199 0.91978 0.49798 0.0
H1538 H 0.23027 0.74495 0.38323 0.0
H1539 H 0.23391 0.68233 0.30493 0.0
H1540 H 0.2018 0.63431 0.33727 0.0
H1541 H 0.24093 0.68586 0.45099 0.0
H1542 H 0.20942 0.69617 0.47589 0.0
H1543 H 0.23369 0.72693 0.44721 0.0
H1544 H 0.17393 0.73702 0.4191 0.0
H1545 H 0.14958 0.70672 0.44807 0.0
H1546 H 0.14002 0.70269 0.40442 0.0
H1547 H 0.17361 0.59303 0.3771 0.0
H1548 H 0.13803 0.55974 0.42025 0.0
H1549 H 0.14701 0.64734 0.47277 0.0
C1550 C 0.22373 0.72118 0.37291 0.0
C1551 C 0.23505 0.71719 0.34197 0.0
C1552 C 0.2261 0.68581 0.32897 0.0
C1553 C 0.20797 0.65828 0.34711 0.0
C1554 C 0.19852 0.66259 0.37801 0.0
C1555 C 0.20511 0.69309 0.39071 0.0
C1556 C 0.19019 0.69021 0.42424 0.0
C1557 C 0.22036 0.7004 0.45117 0.0
C1558 C 0.16172 0.71034 0.42392 0.0
C1559 C 0.1738 0.65349 0.42768 0.0
C1560 C 0.17999 0.63819 0.40101 0.0
C1561 C 0.16829 0.60452 0.39819 0.0
C1562 C 0.14837 0.58584 0.42296 0.0
C1563 C 0.13989 0.6011 0.4497 0.0
C1564 C 0.15323 0.63524 0.45246 0.0
H1565 H 0.4668 0.18475 0.37866 0.0
H1566 H 0.40855 0.2069 0.45644 0.0
H1567 H 0.42227 0.15987 0.49164 0.0
H1568 H 0.44547 0.09379 0.39459 0.0
H1569 H 0.49003 0.09135 0.38684 0.0
H1570 H 0.47091 0.12329 0.36556 0.0
H1571 H 0.52556 0.16769 0.38692 0.0
H1572 H 0.5448 0.13584 0.40776 0.0
H1573 H 0.53759 0.1682 0.43058 0.0
H1574 H 0.44537 0.11458 0.5194 0.0
H1575 H 0.48493 0.07819 0.54159 0.0
H1576 H 0.53022 0.08716 0.44694 0.0
C1577 C 0.45659 0.17916 0.40293 0.0
C1578 C 0.43667 0.19881 0.4152 0.0
C1579 C 0.42403 0.19175 0.44708 0.0
C1580 C 0.4312 0.165 0.46691 0.0
C1581 C 0.45089 0.14586 0.45418 0.0
C1582 C 0.46392 0.15283 0.42316 0.0
C1583 C 0.48852 0.13125 0.41724 0.0
C1584 C 0.47277 0.10858 0.3894 0.0
C1585 C 0.52634 0.15198 0.41026 0.0
C1586 C 0.48812 0.11194 0.45022 0.0
C1587 C 0.46538 0.12002 0.47079 0.0
C1588 C 0.46273 0.10744 0.50346 0.0
C1589 C 0.48505 0.0869 0.51581 0.0
C1590 C 0.5096 0.08011 0.49547 0.0
C1591 C 0.51058 0.09171 0.46225 0.0
H1592 H 0.71957 0.81553 0.68321 0.0
H1593 H 0.73724 0.87223 0.76989 0.0
H1594 H 0.70742 0.91211 0.74081 0.0
H1595 H 0.72912 0.88476 0.62192 0.0
H1596 H 0.6925 0.86593 0.59411 0.0
H1597 H 0.71658 0.84062 0.62053 0.0
H1598 H 0.65723 0.80781 0.64422 0.0
H1599 H 0.63295 0.83291 0.61777 0.0
H1600 H 0.629 0.82945 0.66168 0.0
H1601 H 0.68072 0.94919 0.70301 0.0
H1602 H 0.64643 0.97625 0.65993 0.0
H1603 H 0.63727 0.89523 0.59831 0.0
C1604 C 0.71674 0.83609 0.69609 0.0
C1605 C 0.73194 0.84074 0.72883 0.0
C1606 C 0.72709 0.86807 0.74466 0.0
C1607 C 0.71001 0.8912 0.72836 0.0
C1608 C 0.69664 0.88678 0.69612 0.0
C1609 C 0.69867 0.85962 0.68018 0.0
C1610 C 0.67975 0.86084 0.64579 0.0
C1611 C 0.70607 0.86316 0.61901 0.0
C1612 C 0.64783 0.83098 0.64216 0.0
C1613 C 0.66728 0.89277 0.64544 0.0
C1614 C 0.67821 0.90754 0.67459 0.0
C1615 C 0.67163 0.93782 0.68007 0.0
C1616 C 0.65248 0.95321 0.65535 0.0
C1617 C 0.63941 0.938 0.62578 0.0
C1618 C 0.64709 0.90742 0.62072 0.0
H1619 H 0.75067 0.23566 0.39131 0.0
H1620 H 0.74525 0.17766 0.30796 0.0
H1621 H 0.70684 0.12983 0.33731 0.0
H1622 H 0.75664 0.16959 0.45382 0.0
H1623 H 0.7298 0.18235 0.4818 0.0
H1624 H 0.75577 0.21236 0.45362 0.0
H1625 H 0.69852 0.23103 0.43065 0.0
H1626 H 0.67247 0.20107 0.45883 0.0
H1627 H 0.66015 0.201 0.41522 0.0
H1628 H 0.66697 0.08802 0.37597 0.0
H1629 H 0.63407 0.05511 0.42213 0.0
H1630 H 0.66848 0.13924 0.48158 0.0
C1631 C 0.74175 0.21271 0.37952 0.0
C1632 C 0.75128 0.21024 0.34729 0.0
C1633 C 0.73858 0.18 0.33254 0.0
C1634 C 0.71658 0.1527 0.34908 0.0
C1635 C 0.70758 0.15576 0.38079 0.0
C1636 C 0.72012 0.18492 0.39604 0.0
C1637 C 0.70732 0.18135 0.43063 0.0
C1638 C 0.73929 0.18672 0.4565 0.0
C1639 C 0.68318 0.20502 0.43401 0.0
C1640 C 0.68597 0.14569 0.43243 0.0
C1641 C 0.68593 0.13143 0.4033 0.0
C1642 C 0.66715 0.09889 0.39903 0.0
C1643 C 0.64843 0.08032 0.42535 0.0
C1644 C 0.64897 0.09413 0.45581 0.0
C1645 C 0.6679 0.12745 0.45896 0.0
H1646 H 0.84878 0.65912 0.33095 0.0
H1647 H 0.91558 0.75432 0.35323 0.0
H1648 H 0.95973 0.72663 0.3836 0.0
H1649 H 0.87065 0.61269 0.41081 0.0
H1650 H 0.87208 0.57554 0.39256 0.0
H1651 H 0.84496 0.60215 0.37262 0.0
H1652 H 0.87738 0.60611 0.31966 0.0
H1653 H 0.90476 0.57963 0.33947 0.0
H1654 H 0.92553 0.61961 0.3211 0.0
H1655 H 1.00247 0.68498 0.41522 0.0
H1656 H 0.03136 0.6416 0.44028 0.0
H1657 H 0.94183 0.56791 0.40203 0.0
C1658 C 0.8726 0.67478 0.34206 0.0
C1659 C 0.87617 0.71125 0.33774 0.0
C1660 C 0.90948 0.7277 0.35417 0.0
C1661 C 0.93575 0.71143 0.37222 0.0
C1662 C 0.93144 0.67652 0.37552 0.0
C1663 C 0.90014 0.65828 0.36063 0.0
C1664 C 0.90259 0.62081 0.36789 0.0
C1665 C 0.87064 0.60163 0.38709 0.0
C1666 C 0.9025 0.60559 0.33508 0.0
C1667 C 0.93927 0.62036 0.38923 0.0
C1668 C 0.95537 0.65333 0.39291 0.0
C1669 C 0.98911 0.65966 0.41136 0.0
C1670 C 1.00627 0.6337 0.42586 0.0
C1671 C 0.9924 0.59865 0.42369 0.0
C1672 C 0.95664 0.59307 0.40452 0.0
H1673 H 0.37751 0.81248 0.38851 0.0
H1674 H 0.35976 0.89007 0.31583 0.0
H1675 H 0.40319 0.931 0.3473 0.0
H1676 H 0.38497 0.86061 0.45936 0.0
H1677 H 0.41944 0.84328 0.48147 0.0
H1678 H 0.38763 0.81939 0.45282 0.0
H1679 H 0.4397 0.81076 0.42132 0.0
H1680 H 0.47159 0.83462 0.44996 0.0
H1681 H 0.47273 0.84609 0.40639 0.0
H1682 H 0.45018 0.96418 0.38561 0.0
H1683 H 0.49397 0.98715 0.4306 0.0
H1684 H 0.47944 0.88949 0.48041 0.0
C1685 C 0.38279 0.83807 0.37925 0.0
C1686 C 0.36494 0.84785 0.34954 0.0
C1687 C 0.37266 0.88173 0.33851 0.0
C1688 C 0.39753 0.90532 0.35618 0.0
C1689 C 0.41455 0.89501 0.38526 0.0
C1690 C 0.40734 0.86226 0.39698 0.0
C1691 C 0.42876 0.85816 0.42956 0.0
C1692 C 0.4037 0.84457 0.45745 0.0
C1693 C 0.45473 0.8361 0.42661 0.0
C1694 C 0.44898 0.89363 0.43409 0.0
C1695 C 0.4407 0.91443 0.40805 0.0
C1696 C 0.45675 0.94814 0.40625 0.0
C1697 C 0.48174 0.96101 0.43183 0.0
C1698 C 0.49012 0.94033 0.45917 0.0
C1699 C 0.47341 0.90614 0.46006 0.0
H1700 H 0.26206 0.35968 0.38119 0.0
H1701 H 0.1897 0.33731 0.29485 0.0
H1702 H 0.15012 0.36848 0.31487 0.0
H1703 H 0.19077 0.35376 0.44001 0.0
H1704 H 0.21509 0.38741 0.4636 0.0
H1705 H 0.23908 0.36444 0.44246 0.0
H1706 H 0.27238 0.418 0.41243 0.0
H1707 H 0.24837 0.44112 0.4334 0.0
H1708 H 0.24714 0.44435 0.38904 0.0
H1709 H 0.11393 0.40817 0.34678 0.0
H1710 H 0.08982 0.44028 0.38367 0.0
H1711 H 0.17941 0.43615 0.4541 0.0
C1712 C 0.238 0.36107 0.36593 0.0
C1713 C 0.23137 0.34423 0.33456 0.0
C1714 C 0.19802 0.3485 0.31798 0.0
C1715 C 0.17443 0.36693 0.32968 0.0
C1716 C 0.18177 0.38278 0.3598 0.0
C1717 C 0.2131 0.37956 0.37796 0.0
C1718 C 0.21419 0.39841 0.41016 0.0
C1719 C 0.21485 0.37459 0.4409 0.0
C1720 C 0.24753 0.42716 0.41137 0.0
C1721 C 0.17912 0.41219 0.40779 0.0
C1722 C 0.16107 0.40336 0.37794 0.0
C1723 C 0.12882 0.41447 0.36994 0.0
C1724 C 0.11486 0.43372 0.39167 0.0
C1725 C 0.13126 0.44321 0.42348 0.0
C1726 C 0.16459 0.43106 0.43066 0.0
H1727 H 0.4501 0.19983 0.64287 0.0
H1728 H 0.4155 0.13543 0.72925 0.0
H1729 H 0.44291 0.09354 0.7104 0.0
H1730 H 0.43807 0.1383 0.58559 0.0
H1731 H 0.47789 0.15791 0.56481 0.0
H1732 H 0.45445 0.1824 0.58444 0.0
H1733 H 0.51292 0.20743 0.6191 0.0
H1734 H 0.53638 0.18311 0.5993 0.0
H1735 H 0.53649 0.18037 0.6436 0.0
H1736 H 0.47219 0.0575 0.68045 0.0
H1737 H 0.50762 0.03361 0.64559 0.0
H1738 H 0.527 0.12392 0.58234 0.0
C1739 C 0.4486 0.17718 0.65821 0.0
C1740 C 0.43018 0.17095 0.68746 0.0
C1741 C 0.42863 0.14061 0.70635 0.0
C1742 C 0.44431 0.11668 0.69595 0.0
C1743 C 0.4618 0.12356 0.6668 0.0
C1744 C 0.46452 0.1533 0.6485 0.0
C1745 C 0.48579 0.15514 0.61868 0.0
C1746 C 0.46265 0.15864 0.58649 0.0
C1747 C 0.51992 0.18316 0.6203 0.0
C1748 C 0.49458 0.12179 0.62306 0.0
C1749 C 0.48007 0.10363 0.65061 0.0
C1750 C 0.48386 0.07159 0.65893 0.0
C1751 C 0.50368 0.05812 0.6389 0.0
C1752 C 0.51985 0.07701 0.61138 0.0
C1753 C 0.51493 0.10906 0.60334 0.0
H1754 H 0.88227 0.37901 0.72106 0.0
H1755 H 0.86954 0.2802 0.69082 0.0
H1756 H 0.9088 0.30245 0.64553 0.0
H1757 H 0.88649 0.42231 0.63832 0.0
H1758 H 0.92117 0.45735 0.65022 0.0
H1759 H 0.89107 0.43441 0.68003 0.0
H1760 H 0.94501 0.42522 0.71857 0.0
H1761 H 0.97523 0.44816 0.68885 0.0
H1762 H 0.97756 0.40683 0.70335 0.0
H1763 H 0.95147 0.33526 0.6025 0.0
H1764 H 0.99351 0.37446 0.5675 0.0
H1765 H 0.98252 0.45446 0.62289 0.0
C1766 C 0.8875 0.36197 0.70482 0.0
C1767 C 0.87182 0.32717 0.71034 0.0
C1768 C 0.88051 0.30654 0.68809 0.0
C1769 C 0.90307 0.31915 0.66187 0.0
C1770 C 0.9181 0.35307 0.65733 0.0
C1771 C 0.91084 0.37433 0.67833 0.0
C1772 C 0.93189 0.40972 0.66826 0.0
C1773 C 0.90611 0.43229 0.65864 0.0
C1774 C 0.95902 0.4233 0.69644 0.0
C1775 C 0.95144 0.40513 0.63813 0.0
C1776 C 0.94298 0.37203 0.63256 0.0
C1777 C 0.958 0.36114 0.60689 0.0
C1778 C 0.98221 0.38395 0.58682 0.0
C1779 C 0.99207 0.41831 0.59134 0.0
C1780 C 0.97577 0.42877 0.61773 0.0
H1781 H 0.2202 0.73734 0.6806 0.0
H1782 H 0.25514 0.66651 0.75191 0.0
H1783 H 0.22589 0.62188 0.71668 0.0
H1784 H 0.13297 0.68467 0.65548 0.0
H1785 H 0.13454 0.6981 0.61232 0.0
H1786 H 0.15832 0.72529 0.64285 0.0
H1787 H 0.21696 0.73181 0.61423 0.0
H1788 H 0.19335 0.70447 0.58371 0.0
H1789 H 0.23206 0.69569 0.6074 0.0
H1790 H 0.1929 0.58253 0.67237 0.0
H1791 H 0.15734 0.55362 0.62578 0.0
H1792 H 0.14036 0.64682 0.58116 0.0
C1793 C 0.22165 0.71247 0.68898 0.0
C1794 C 0.2408 0.70642 0.72 0.0
C1795 C 0.24145 0.67291 0.72886 0.0
C1796 C 0.22463 0.6469 0.70871 0.0
C1797 C 0.20657 0.65358 0.67859 0.0
C1798 C 0.20484 0.68562 0.66864 0.0
C1799 C 0.18366 0.68556 0.63469 0.0
C1800 C 0.15039 0.69922 0.63644 0.0
C1801 C 0.20794 0.70559 0.60845 0.0
C1802 C 0.173 0.64869 0.62774 0.0
C1803 C 0.18715 0.63083 0.65329 0.0
C1804 C 0.18183 0.59656 0.65236 0.0
C1805 C 0.16153 0.58011 0.62533 0.0
C1806 C 0.1456 0.59715 0.59874 0.0
C1807 C 0.15189 0.63235 0.60048 0.0
loop_
_geom_bond_atom_site_label_1
_geom_bond_atom_site_label_2
_geom_bond_distance
_geom_bond_site_symmetry_2
_ccdc_geom_bond_type
Tb0 C9 2.764 . S
Tb0 O10 2.325 . S
Tb0 O13 2.303 . S
Tb0 O17 2.322 . S
Tb0 O18 2.349 . S
Tb0 O21 2.415 . S
Tb0 O22 2.399 . S
Tb1 O11 2.322 . S
Tb1 O12 2.349 . S
Tb1 O14 2.415 . S
Tb1 O15 2.399 . S
Tb1 O16 2.325 . S
Tb1 O19 2.303 . S
Tb1 C30 2.764 . S
C2 O18 1.261 . S
C2 O19 1.257 . S
C3 C6 1.358 . S
C3 C7 1.332 . S
C3 C9 1.504 . S
C4 C5 1.373 . S
C4 C8 1.308 . S
C5 C4 1.373 . S
C5 C6 1.429 . S
C5 H32 0.932 . S
C6 C3 1.358 . S
C6 C5 1.429 . S
C6 H33 0.930 . S
C7 C3 1.332 . S
C7 C8 1.394 . S
C7 H34 0.932 . S
C8 C4 1.308 . S
C8 C7 1.394 . S
C8 H35 0.929 . S
C9 Tb0 2.764 . S
C9 C3 1.504 . S
C9 O21 1.239 . S
C9 O22 1.263 . S
O10 Tb0 2.325 . S
O10 C20 1.236 . S
O11 Tb1 2.322 . S
O11 C20 1.257 . S
O12 Tb1 2.349 . S
O12 C23 1.261 . S
O13 Tb0 2.303 . S
O13 C23 1.257 . S
O14 Tb1 2.415 . S
O14 C30 1.239 . S
O15 Tb1 2.399 . S
O15 C30 1.263 . S
O16 Tb1 2.325 . S
O16 C31 1.236 . S
O17 Tb0 2.322 . S
O17 C31 1.257 . S
O18 Tb0 2.349 . S
O18 C2 1.261 . S
O19 Tb1 2.303 . S
O19 C2 1.257 . S
C20 O10 1.236 . S
C20 O11 1.257 . S
O21 Tb0 2.415 . S
O21 C9 1.239 . S
O22 Tb0 2.399 . S
O22 C9 1.263 . S
C23 O12 1.261 . S
C23 O13 1.257 . S
C24 C27 1.358 . S
C24 C28 1.332 . S
C24 C30 1.504 . S
C25 C26 1.373 . S
C25 C29 1.308 . S
C26 C25 1.373 . S
C26 C27 1.429 . S
C26 H36 0.932 . S
C27 C24 1.358 . S
C27 C26 1.429 . S
C27 H37 0.930 . S
C28 C24 1.332 . S
C28 C29 1.394 . S
C28 H38 0.932 . S
C29 C25 1.308 . S
C29 C28 1.394 . S
C29 H39 0.929 . S
C30 Tb1 2.764 . S
C30 O14 1.239 . S
C30 O15 1.263 . S
C30 C24 1.504 . S
C31 O16 1.236 . S
C31 O17 1.257 . S
H32 C5 0.932 . S
H33 C6 0.930 . S
H34 C7 0.932 . S
H35 C8 0.929 . S
H36 C26 0.932 . S
H37 C27 0.930 . S
H38 C28 0.932 . S
H39 C29 0.929 . S
Tb40 C49 2.764 . S
Tb40 O50 2.325 . S
Tb40 O53 2.303 . S
Tb40 O57 2.322 . S
Tb40 O58 2.349 . S
Tb40 O61 2.415 . S
Tb40 O62 2.399 . S
Tb41 O51 2.322 . S
Tb41 O52 2.349 . S
Tb41 O54 2.415 . S
Tb41 O55 2.399 . S
Tb41 O56 2.325 . S
Tb41 O59 2.303 . S
Tb41 C70 2.764 . S
C42 O58 1.261 . S
C42 O59 1.257 . S
C43 C46 1.358 . S
C43 C47 1.332 . S
C43 C49 1.504 . S
C44 C45 1.373 . S
C44 C48 1.308 . S
C45 C44 1.373 . S
C45 C46 1.429 . S
C45 H72 0.932 . S
C46 C43 1.358 . S
C46 C45 1.429 . S
C46 H73 0.930 . S
C47 C43 1.332 . S
C47 C48 1.394 . S
C47 H74 0.932 . S
C48 C44 1.308 . S
C48 C47 1.394 . S
C48 H75 0.929 . S
C49 Tb40 2.764 . S
C49 C43 1.504 . S
C49 O61 1.239 . S
C49 O62 1.263 . S
O50 Tb40 2.325 . S
O50 C60 1.236 . S
O51 Tb41 2.322 . S
O51 C60 1.257 . S
O52 Tb41 2.349 . S
O52 C63 1.261 . S
O53 Tb40 2.303 . S
O53 C63 1.257 . S
O54 Tb41 2.415 . S
O54 C70 1.239 . S
O55 Tb41 2.399 . S
O55 C70 1.263 . S
O56 Tb41 2.325 . S
O56 C71 1.236 . S
O57 Tb40 2.322 . S
O57 C71 1.257 . S
O58 Tb40 2.349 . S
O58 C42 1.261 . S
O59 Tb41 2.303 . S
O59 C42 1.257 . S
C60 O50 1.236 . S
C60 O51 1.257 . S
O61 Tb40 2.415 . S
O61 C49 1.239 . S
O62 Tb40 2.399 . S
O62 C49 1.263 . S
C63 O52 1.261 . S
C63 O53 1.257 . S
C64 C67 1.358 . S
C64 C68 1.332 . S
C64 C70 1.504 . S
C65 C66 1.373 . S
C65 C69 1.308 . S
C66 C65 1.373 . S
C66 C67 1.429 . S
C66 H76 0.932 . S
C67 C64 1.358 . S
C67 C66 1.429 . S
C67 H77 0.930 . S
C68 C64 1.332 . S
C68 C69 1.394 . S
C68 H78 0.932 . S
C69 C65 1.308 . S
C69 C68 1.394 . S
C69 H79 0.929 . S
C70 Tb41 2.764 . S
C70 O54 1.239 . S
C70 O55 1.263 . S
C70 C64 1.504 . S
C71 O56 1.236 . S
C71 O57 1.257 . S
H72 C45 0.932 . S
H73 C46 0.930 . S
H74 C47 0.932 . S
H75 C48 0.929 . S
H76 C66 0.932 . S
H77 C67 0.930 . S
H78 C68 0.932 . S
H79 C69 0.929 . S
Tb80 C89 2.764 . S
Tb80 O90 2.325 . S
Tb80 O93 2.303 . S
Tb80 O97 2.322 . S
Tb80 O98 2.349 . S
Tb80 O101 2.415 . S
Tb80 O102 2.399 . S
Tb81 O91 2.322 . S
Tb81 O92 2.349 . S
Tb81 O94 2.415 . S
Tb81 O95 2.399 . S
Tb81 O96 2.325 . S
Tb81 O99 2.303 . S
Tb81 C110 2.764 . S
C82 O98 1.261 . S
C82 O99 1.257 . S
C83 C86 1.358 . S
C83 C87 1.332 . S
C83 C89 1.504 . S
C84 C85 1.373 . S
C84 C88 1.308 . S
C85 C84 1.373 . S
C85 C86 1.429 . S
C85 H112 0.932 . S
C86 C83 1.358 . S
C86 C85 1.429 . S
C86 H113 0.930 . S
C87 C83 1.332 . S
C87 C88 1.394 . S
C87 H114 0.932 . S
C88 C84 1.308 . S
C88 C87 1.394 . S
C88 H115 0.929 . S
C89 Tb80 2.764 . S
C89 C83 1.504 . S
C89 O101 1.239 . S
C89 O102 1.263 . S
O90 Tb80 2.325 . S
O90 C100 1.236 . S
O91 Tb81 2.322 . S
O91 C100 1.257 . S
O92 Tb81 2.349 . S
O92 C103 1.261 . S
O93 Tb80 2.303 . S
O93 C103 1.257 . S
O94 Tb81 2.415 . S
O94 C110 1.239 . S
O95 Tb81 2.399 . S
O95 C110 1.263 . S
O96 Tb81 2.325 . S
O96 C111 1.236 . S
O97 Tb80 2.322 . S
O97 C111 1.257 . S
O98 Tb80 2.349 . S
O98 C82 1.261 . S
O99 Tb81 2.303 . S
O99 C82 1.257 . S
C100 O90 1.236 . S
C100 O91 1.257 . S
O101 Tb80 2.415 . S
O101 C89 1.239 . S
O102 Tb80 2.399 . S
O102 C89 1.263 . S
C103 O92 1.261 . S
C103 O93 1.257 . S
C104 C107 1.358 . S
C104 C108 1.332 . S
C104 C110 1.504 . S
C105 C106 1.373 . S
C105 C109 1.308 . S
C106 C105 1.373 . S
C106 C107 1.429 . S
C106 H116 0.932 . S
C107 C104 1.358 . S
C107 C106 1.429 . S
C107 H117 0.930 . S
C108 C104 1.332 . S
C108 C109 1.394 . S
C108 H118 0.932 . S
C109 C105 1.308 . S
C109 C108 1.394 . S
C109 H119 0.929 . S
C110 Tb81 2.764 . S
C110 O94 1.239 . S
C110 O95 1.263 . S
C110 C104 1.504 . S
C111 O96 1.236 . S
C111 O97 1.257 . S
H112 C85 0.932 . S
H113 C86 0.930 . S
H114 C87 0.932 . S
H115 C88 0.929 . S
H116 C106 0.932 . S
H117 C107 0.930 . S
H118 C108 0.932 . S
H119 C109 0.929 . S
Tb120 C129 2.764 . S
Tb120 O130 2.325 . S
Tb120 O133 2.303 . S
Tb120 O137 2.322 . S
Tb120 O138 2.349 . S
Tb120 O141 2.415 . S
Tb120 O142 2.399 . S
Tb121 O131 2.322 . S
Tb121 O132 2.349 . S
Tb121 O134 2.415 . S
Tb121 O135 2.399 . S
Tb121 O136 2.325 . S
Tb121 O139 2.303 . S
Tb121 C150 2.764 . S
C122 O138 1.261 . S
C122 O139 1.257 . S
C123 C126 1.358 . S
C123 C127 1.332 . S
C123 C129 1.504 . S
C124 C125 1.373 . S
C124 C128 1.308 . S
C125 C124 1.373 . S
C125 C126 1.429 . S
C125 H152 0.932 . S
C126 C123 1.358 . S
C126 C125 1.429 . S
C126 H153 0.930 . S
C127 C123 1.332 . S
C127 C128 1.394 . S
C127 H154 0.932 . S
C128 C124 1.308 . S
C128 C127 1.394 . S
C128 H155 0.929 . S
C129 Tb120 2.764 . S
C129 C123 1.504 . S
C129 O141 1.239 . S
C129 O142 1.263 . S
O130 Tb120 2.325 . S
O130 C140 1.236 . S
O131 Tb121 2.322 . S
O131 C140 1.257 . S
O132 Tb121 2.349 . S
O132 C143 1.261 . S
O133 Tb120 2.303 . S
O133 C143 1.257 . S
O134 Tb121 2.415 . S
O134 C150 1.239 . S
O135 Tb121 2.399 . S
O135 C150 1.263 . S
O136 Tb121 2.325 . S
O136 C151 1.236 . S
O137 Tb120 2.322 . S
O137 C151 1.257 . S
O138 Tb120 2.349 . S
O138 C122 1.261 . S
O139 Tb121 2.303 . S
O139 C122 1.257 . S
C140 O130 1.236 . S
C140 O131 1.257 . S
O141 Tb120 2.415 . S
O141 C129 1.239 . S
O142 Tb120 2.399 . S
O142 C129 1.263 . S
C143 O132 1.261 . S
C143 O133 1.257 . S
C144 C147 1.358 . S
C144 C148 1.332 . S
C144 C150 1.504 . S
C145 C146 1.373 . S
C145 C149 1.308 . S
C146 C145 1.373 . S
C146 C147 1.429 . S
C146 H156 0.932 . S
C147 C144 1.358 . S
C147 C146 1.429 . S
C147 H157 0.930 . S
C148 C144 1.332 . S
C148 C149 1.394 . S
C148 H158 0.932 . S
C149 C145 1.308 . S
C149 C148 1.394 . S
C149 H159 0.929 . S
C150 Tb121 2.764 . S
C150 O134 1.239 . S
C150 O135 1.263 . S
C150 C144 1.504 . S
C151 O136 1.236 . S
C151 O137 1.257 . S
H152 C125 0.932 . S
H153 C126 0.930 . S
H154 C127 0.932 . S
H155 C128 0.929 . S
H156 C146 0.932 . S
H157 C147 0.930 . S
H158 C148 0.932 . S
H159 C149 0.929 . S
Tb160 C169 2.764 . S
Tb160 O170 2.325 . S
Tb160 O173 2.303 . S
Tb160 O177 2.322 . S
Tb160 O178 2.349 . S
Tb160 O181 2.415 . S
Tb160 O182 2.399 . S
Tb161 O171 2.322 . S
Tb161 O172 2.349 . S
Tb161 O174 2.415 . S
Tb161 O175 2.399 . S
Tb161 O176 2.325 . S
Tb161 O179 2.303 . S
Tb161 C190 2.764 . S
C162 O178 1.261 . S
C162 O179 1.257 . S
C163 C166 1.358 . S
C163 C167 1.332 . S
C163 C169 1.504 . S
C164 C165 1.373 . S
C164 C168 1.308 . S
C165 C164 1.373 . S
C165 C166 1.429 . S
C165 H192 0.932 . S
C166 C163 1.358 . S
C166 C165 1.429 . S
C166 H193 0.930 . S
C167 C163 1.332 . S
C167 C168 1.394 . S
C167 H194 0.932 . S
C168 C164 1.308 . S
C168 C167 1.394 . S
C168 H195 0.929 . S
C169 Tb160 2.764 . S
C169 C163 1.504 . S
C169 O181 1.239 . S
C169 O182 1.263 . S
O170 Tb160 2.325 . S
O170 C180 1.236 . S
O171 Tb161 2.322 . S
O171 C180 1.257 . S
O172 Tb161 2.349 . S
O172 C183 1.261 . S
O173 Tb160 2.303 . S
O173 C183 1.257 . S
O174 Tb161 2.415 . S
O174 C190 1.239 . S
O175 Tb161 2.399 . S
O175 C190 1.263 . S
O176 Tb161 2.325 . S
O176 C191 1.236 . S
O177 Tb160 2.322 . S
O177 C191 1.257 . S
O178 Tb160 2.349 . S
O178 C162 1.261 . S
O179 Tb161 2.303 . S
O179 C162 1.257 . S
C180 O170 1.236 . S
C180 O171 1.257 . S
O181 Tb160 2.415 . S
O181 C169 1.239 . S
O182 Tb160 2.399 . S
O182 C169 1.263 . S
C183 O172 1.261 . S
C183 O173 1.257 . S
C184 C187 1.358 . S
C184 C188 1.332 . S
C184 C190 1.504 . S
C185 C186 1.373 . S
C185 C189 1.308 . S
C186 C185 1.373 . S
C186 C187 1.429 . S
C186 H196 0.932 . S
C187 C184 1.358 . S
C187 C186 1.429 . S
C187 H197 0.930 . S
C188 C184 1.332 . S
C188 C189 1.394 . S
C188 H198 0.932 . S
C189 C185 1.308 . S
C189 C188 1.394 . S
C189 H199 0.929 . S
C190 Tb161 2.764 . S
C190 O174 1.239 . S
C190 O175 1.263 . S
C190 C184 1.504 . S
C191 O176 1.236 . S
C191 O177 1.257 . S
H192 C165 0.932 . S
H193 C166 0.930 . S
H194 C167 0.932 . S
H195 C168 0.929 . S
H196 C186 0.932 . S
H197 C187 0.930 . S
H198 C188 0.932 . S
H199 C189 0.929 . S
Tb200 C209 2.764 . S
Tb200 O210 2.325 . S
Tb200 O213 2.303 . S
Tb200 O217 2.322 . S
Tb200 O218 2.349 . S
Tb200 O221 2.415 . S
Tb200 O222 2.399 . S
Tb201 O211 2.322 . S
Tb201 O212 2.349 . S
Tb201 O214 2.415 . S
Tb201 O215 2.399 . S
Tb201 O216 2.325 . S
Tb201 O219 2.303 . S
Tb201 C230 2.764 . S
C202 O218 1.261 . S
C202 O219 1.257 . S
C203 C206 1.358 . S
C203 C207 1.332 . S
C203 C209 1.504 . S
C204 C205 1.373 . S
C204 C208 1.308 . S
C205 C204 1.373 . S
C205 C206 1.429 . S
C205 H232 0.932 . S
C206 C203 1.358 . S
C206 C205 1.429 . S
C206 H233 0.930 . S
C207 C203 1.332 . S
C207 C208 1.394 . S
C207 H234 0.932 . S
C208 C204 1.308 . S
C208 C207 1.394 . S
C208 H235 0.929 . S
C209 Tb200 2.764 . S
C209 C203 1.504 . S
C209 O221 1.239 . S
C209 O222 1.263 . S
O210 Tb200 2.325 . S
O210 C220 1.236 . S
O211 Tb201 2.322 . S
O211 C220 1.257 . S
O212 Tb201 2.349 . S
O212 C223 1.261 . S
O213 Tb200 2.303 . S
O213 C223 1.257 . S
O214 Tb201 2.415 . S
O214 C230 1.239 . S
O215 Tb201 2.399 . S
O215 C230 1.263 . S
O216 Tb201 2.325 . S
O216 C231 1.236 . S
O217 Tb200 2.322 . S
O217 C231 1.257 . S
O218 Tb200 2.349 . S
O218 C202 1.261 . S
O219 Tb201 2.303 . S
O219 C202 1.257 . S
C220 O210 1.236 . S
C220 O211 1.257 . S
O221 Tb200 2.415 . S
O221 C209 1.239 . S
O222 Tb200 2.399 . S
O222 C209 1.263 . S
C223 O212 1.261 . S
C223 O213 1.257 . S
C224 C227 1.358 . S
C224 C228 1.332 . S
C224 C230 1.504 . S
C225 C226 1.373 . S
C225 C229 1.308 . S
C226 C225 1.373 . S
C226 C227 1.429 . S
C226 H236 0.932 . S
C227 C224 1.358 . S
C227 C226 1.429 . S
C227 H237 0.930 . S
C228 C224 1.332 . S
C228 C229 1.394 . S
C228 H238 0.932 . S
C229 C225 1.308 . S
C229 C228 1.394 . S
C229 H239 0.929 . S
C230 Tb201 2.764 . S
C230 O214 1.239 . S
C230 O215 1.263 . S
C230 C224 1.504 . S
C231 O216 1.236 . S
C231 O217 1.257 . S
H232 C205 0.932 . S
H233 C206 0.930 . S
H234 C207 0.932 . S
H235 C208 0.929 . S
H236 C226 0.932 . S
H237 C227 0.930 . S
H238 C228 0.932 . S
H239 C229 0.929 . S
Tb240 C249 2.764 . S
Tb240 O250 2.325 . S
Tb240 O253 2.303 . S
Tb240 O257 2.322 . S
Tb240 O258 2.349 . S
Tb240 O261 2.415 . S
Tb240 O262 2.399 . S
Tb241 O251 2.322 . S
Tb241 O252 2.349 . S
Tb241 O254 2.415 . S
Tb241 O255 2.399 . S
Tb241 O256 2.325 . S
Tb241 O259 2.303 . S
Tb241 C270 2.764 . S
C242 O258 1.261 . S
C242 O259 1.257 . S
C243 C246 1.358 . S
C243 C247 1.332 . S
C243 C249 1.504 . S
C244 C245 1.373 . S
C244 C248 1.308 . S
C245 C244 1.373 . S
C245 C246 1.429 . S
C245 H272 0.932 . S
C246 C243 1.358 . S
C246 C245 1.429 . S
C246 H273 0.930 . S
C247 C243 1.332 . S
C247 C248 1.394 . S
C247 H274 0.932 . S
C248 C244 1.308 . S
C248 C247 1.394 . S
C248 H275 0.929 . S
C249 Tb240 2.764 . S
C249 C243 1.504 . S
C249 O261 1.239 . S
C249 O262 1.263 . S
O250 Tb240 2.325 . S
O250 C260 1.236 . S
O251 Tb241 2.322 . S
O251 C260 1.257 . S
O252 Tb241 2.349 . S
O252 C263 1.261 . S
O253 Tb240 2.303 . S
O253 C263 1.257 . S
O254 Tb241 2.415 . S
O254 C270 1.239 . S
O255 Tb241 2.399 . S
O255 C270 1.263 . S
O256 Tb241 2.325 . S
O256 C271 1.236 . S
O257 Tb240 2.322 . S
O257 C271 1.257 . S
O258 Tb240 2.349 . S
O258 C242 1.261 . S
O259 Tb241 2.303 . S
O259 C242 1.257 . S
C260 O250 1.236 . S
C260 O251 1.257 . S
O261 Tb240 2.415 . S
O261 C249 1.239 . S
O262 Tb240 2.399 . S
O262 C249 1.263 . S
C263 O252 1.261 . S
C263 O253 1.257 . S
C264 C267 1.358 . S
C264 C268 1.332 . S
C264 C270 1.504 . S
C265 C266 1.373 . S
C265 C269 1.308 . S
C266 C265 1.373 . S
C266 C267 1.429 . S
C266 H276 0.932 . S
C267 C264 1.358 . S
C267 C266 1.429 . S
C267 H277 0.930 . S
C268 C264 1.332 . S
C268 C269 1.394 . S
C268 H278 0.932 . S
C269 C265 1.308 . S
C269 C268 1.394 . S
C269 H279 0.929 . S
C270 Tb241 2.764 . S
C270 O254 1.239 . S
C270 O255 1.263 . S
C270 C264 1.504 . S
C271 O256 1.236 . S
C271 O257 1.257 . S
H272 C245 0.932 . S
H273 C246 0.930 . S
H274 C247 0.932 . S
H275 C248 0.929 . S
H276 C266 0.932 . S
H277 C267 0.930 . S
H278 C268 0.932 . S
H279 C269 0.929 . S
Tb280 C289 2.764 . S
Tb280 O290 2.325 . S
Tb280 O293 2.303 . S
Tb280 O297 2.322 . S
Tb280 O298 2.349 . S
Tb280 O301 2.415 . S
Tb280 O302 2.399 . S
Tb281 O291 2.322 . S
Tb281 O292 2.349 . S
Tb281 O294 2.415 . S
Tb281 O295 2.399 . S
Tb281 O296 2.325 . S
Tb281 O299 2.303 . S
Tb281 C310 2.764 . S
C282 O298 1.261 . S
C282 O299 1.257 . S
C283 C286 1.358 . S
C283 C287 1.332 . S
C283 C289 1.504 . S
C284 C285 1.373 . S
C284 C288 1.308 . S
C285 C284 1.373 . S
C285 C286 1.429 . S
C285 H312 0.932 . S
C286 C283 1.358 . S
C286 C285 1.429 . S
C286 H313 0.930 . S
C287 C283 1.332 . S
C287 C288 1.394 . S
C287 H314 0.932 . S
C288 C284 1.308 . S
C288 C287 1.394 . S
C288 H315 0.929 . S
C289 Tb280 2.764 . S
C289 C283 1.504 . S
C289 O301 1.239 . S
C289 O302 1.263 . S
O290 Tb280 2.325 . S
O290 C300 1.236 . S
O291 Tb281 2.322 . S
O291 C300 1.257 . S
O292 Tb281 2.349 . S
O292 C303 1.261 . S
O293 Tb280 2.303 . S
O293 C303 1.257 . S
O294 Tb281 2.415 . S
O294 C310 1.239 . S
O295 Tb281 2.399 . S
O295 C310 1.263 . S
O296 Tb281 2.325 . S
O296 C311 1.236 . S
O297 Tb280 2.322 . S
O297 C311 1.257 . S
O298 Tb280 2.349 . S
O298 C282 1.261 . S
O299 Tb281 2.303 . S
O299 C282 1.257 . S
C300 O290 1.236 . S
C300 O291 1.257 . S
O301 Tb280 2.415 . S
O301 C289 1.239 . S
O302 Tb280 2.399 . S
O302 C289 1.263 . S
C303 O292 1.261 . S
C303 O293 1.257 . S
C304 C307 1.358 . S
C304 C308 1.332 . S
C304 C310 1.504 . S
C305 C306 1.373 . S
C305 C309 1.308 . S
C306 C305 1.373 . S
C306 C307 1.429 . S
C306 H316 0.932 . S
C307 C304 1.358 . S
C307 C306 1.429 . S
C307 H317 0.930 . S
C308 C304 1.332 . S
C308 C309 1.394 . S
C308 H318 0.932 . S
C309 C305 1.308 . S
C309 C308 1.394 . S
C309 H319 0.929 . S
C310 Tb281 2.764 . S
C310 O294 1.239 . S
C310 O295 1.263 . S
C310 C304 1.504 . S
C311 O296 1.236 . S
C311 O297 1.257 . S
H312 C285 0.932 . S
H313 C286 0.930 . S
H314 C287 0.932 . S
H315 C288 0.929 . S
H316 C306 0.932 . S
H317 C307 0.930 . S
H318 C308 0.932 . S
H319 C309 0.929 . S
Fe320 O321 1.886 1_455 S
Fe320 O324 1.715 . S
Fe320 O329 2.077 1_455 S
Fe320 O334 1.935 . S
Fe320 O340 2.077 1_455 S
Fe320 O349 1.935 . S
O321 Fe320 1.886 1_655 S
O321 Fe323 1.715 . S
Fe322 O324 1.886 . S
Fe322 O325 1.715 1_545 S
Fe322 O332 1.935 . S
Fe322 O333 2.077 . S
Fe322 O339 1.935 . S
Fe322 O348 2.077 . S
Fe323 O321 1.715 . S
Fe323 O326 1.886 1_545 S
Fe323 O330 1.935 . S
Fe323 O335 2.077 1_545 S
Fe323 O341 1.935 . S
Fe323 O345 2.077 1_545 S
O324 Fe320 1.715 . S
O324 Fe322 1.886 . S
O325 Fe322 1.715 1_565 S
O325 Fe327 1.886 . S
O326 Fe323 1.886 1_565 S
O326 Fe327 1.715 1_655 S
Fe327 O325 1.886 . S
Fe327 O326 1.715 1_455 S
Fe327 O331 2.077 . S
Fe327 O336 1.935 1_455 S
Fe327 O338 2.077 . S
Fe327 O346 1.935 1_455 S
C328 O340 1.381 . S
C328 O341 1.421 . S
O329 Fe320 2.077 1_655 S
O329 C342 1.381 . S
O330 Fe323 1.935 . S
O330 C342 1.421 . S
O331 Fe327 2.077 . S
O331 C347 1.381 . S
O332 Fe322 1.935 . S
O332 C347 1.421 1_545 S
O333 Fe322 2.077 . S
O333 C337 1.381 . S
O334 Fe320 1.935 . S
O334 C337 1.421 . S
O335 Fe323 2.077 1_565 S
O335 C343 1.381 . S
O336 Fe327 1.935 1_655 S
O336 C343 1.421 . S
C337 O333 1.381 . S
C337 O334 1.421 . S
O338 Fe327 2.077 . S
O338 C350 1.381 . S
O339 Fe322 1.935 . S
O339 C350 1.421 1_545 S
O340 Fe320 2.077 1_655 S
O340 C328 1.381 . S
O341 Fe323 1.935 . S
O341 C328 1.421 . S
C342 O329 1.381 . S
C342 O330 1.421 . S
C343 O335 1.381 . S
C343 O336 1.421 . S
C344 O345 1.381 . S
C344 O346 1.421 . S
O345 Fe323 2.077 1_565 S
O345 C344 1.381 . S
O346 Fe327 1.935 1_655 S
O346 C344 1.421 . S
C347 O331 1.381 . S
C347 O332 1.421 1_565 S
O348 Fe322 2.077 . S
O348 C351 1.381 . S
O349 Fe320 1.935 . S
O349 C351 1.421 . S
C350 O338 1.381 . S
C350 O339 1.421 1_565 S
C351 O348 1.381 . S
C351 O349 1.421 . S
Fe352 O353 1.886 1_565 S
Fe352 O356 1.715 . S
Fe352 O361 2.077 . S
Fe352 O366 1.935 . S
Fe352 O372 2.077 . S
Fe352 O381 1.935 . S
O353 Fe352 1.886 1_545 S
O353 Fe355 1.715 . S
Fe354 O356 1.886 1_545 S
Fe354 O357 1.715 . S
Fe354 O364 1.935 . S
Fe354 O365 2.077 1_545 S
Fe354 O371 1.935 . S
Fe354 O380 2.077 1_545 S
Fe355 O353 1.715 . S
Fe355 O358 1.886 . S
Fe355 O362 1.935 . S
Fe355 O367 2.077 . S
Fe355 O373 1.935 . S
Fe355 O377 2.077 . S
O356 Fe352 1.715 . S
O356 Fe354 1.886 1_565 S
O357 Fe354 1.715 . S
O357 Fe359 1.886 . S
O358 Fe355 1.886 . S
O358 Fe359 1.715 . S
Fe359 O357 1.886 . S
Fe359 O358 1.715 . S
Fe359 O363 2.077 . S
Fe359 O368 1.935 . S
Fe359 O370 2.077 . S
Fe359 O378 1.935 . S
C360 O372 1.381 . S
C360 O373 1.421 1_565 S
O361 Fe352 2.077 . S
O361 C374 1.386 . S
O362 Fe355 1.935 . S
O362 C374 1.425 1_545 S
O363 Fe359 2.077 . S
O363 C379 1.381 1_554 S
O364 Fe354 1.935 . S
O364 C379 1.421 1_554 S
O365 Fe354 2.077 1_565 S
O365 C369 1.381 1_554 S
O366 Fe352 1.935 . S
O366 C369 1.421 1_554 S
O367 Fe355 2.077 . S
O367 C375 1.381 1_554 S
O368 Fe359 1.935 . S
O368 C375 1.421 1_554 S
C369 O365 1.381 1_556 S
C369 O366 1.421 1_556 S
O370 Fe359 2.077 . S
O370 C382 1.381 . S
O371 Fe354 1.935 . S
O371 C382 1.421 . S
O372 Fe352 2.077 . S
O372 C360 1.381 . S
O373 Fe355 1.935 . S
O373 C360 1.421 1_545 S
C374 O361 1.386 . S
C374 O362 1.425 1_565 S
C375 O367 1.381 1_556 S
C375 O368 1.421 1_556 S
C376 O377 1.381 . S
C376 O378 1.421 . S
O377 Fe355 2.077 . S
O377 C376 1.381 . S
O378 Fe359 1.935 . S
O378 C376 1.421 . S
C379 O363 1.381 1_556 S
C379 O364 1.421 1_556 S
O380 Fe354 2.077 1_565 S
O380 C383 1.381 . S
O381 Fe352 1.935 . S
O381 C383 1.421 . S
C382 O370 1.381 . S
C382 O371 1.421 . S
C383 O380 1.381 . S
C383 O381 1.421 . S
Fe384 O385 1.886 1_455 S
Fe384 O388 1.719 1_556 S
Fe384 O393 2.097 1_455 S
Fe384 O398 1.960 . S
Fe384 O404 2.055 1_456 S
Fe384 O413 1.911 1_556 S
O385 Fe384 1.886 1_655 S
O385 Fe387 1.715 . S
Fe386 O388 1.884 . S
Fe386 O389 1.715 . S
Fe386 O396 1.935 1_554 S
Fe386 O397 2.077 1_554 S
Fe386 O403 1.935 . S
Fe386 O412 2.077 . S
Fe387 O385 1.715 . S
Fe387 O390 1.887 1_556 S
Fe387 O394 1.935 . S
Fe387 O399 2.077 . S
Fe387 O405 1.935 1_556 S
Fe387 O409 2.077 1_556 S
O388 Fe384 1.719 1_554 S
O388 Fe386 1.884 . S
O389 Fe386 1.715 . S
O389 Fe391 1.886 1_455 S
O390 Fe387 1.887 1_554 S
O390 Fe391 1.714 . S
Fe391 O389 1.886 1_655 S
Fe391 O390 1.714 . S
Fe391 O395 2.077 1_654 S
Fe391 O400 1.935 1_554 S
Fe391 O402 2.077 1_655 S
Fe391 O410 1.935 . S
C392 O404 1.381 . S
C392 O405 1.421 . S
O393 Fe384 2.097 1_655 S
O393 C406 1.381 . S
O394 Fe387 1.935 . S
O394 C406 1.421 . S
O395 Fe391 2.077 1_456 S
O395 C411 1.381 . S
O396 Fe386 1.935 1_556 S
O396 C411 1.421 . S
O397 Fe386 2.077 1_556 S
O397 C401 1.381 . S
O398 Fe384 1.960 . S
O398 C401 1.421 . S
O399 Fe387 2.077 . S
O399 C407 1.381 . S
O400 Fe391 1.935 1_556 S
O400 C407 1.421 . S
C401 O397 1.381 . S
C401 O398 1.421 . S
O402 Fe391 2.077 1_455 S
O402 C414 1.381 . S
O403 Fe386 1.935 . S
O403 C414 1.421 . S
O404 Fe384 2.055 1_654 S
O404 C392 1.381 . S
O405 Fe387 1.935 1_554 S
O405 C392 1.421 . S
C406 O393 1.381 . S
C406 O394 1.421 . S
C407 O399 1.381 . S
C407 O400 1.421 . S
C408 O409 1.381 . S
C408 O410 1.421 . S
O409 Fe387 2.077 1_554 S
O409 C408 1.381 . S
O410 Fe391 1.935 . S
O410 C408 1.421 . S
C411 O395 1.381 . S
C411 O396 1.421 . S
O412 Fe386 2.077 . S
O412 C415 1.381 . S
O413 Fe384 1.911 1_554 S
O413 C415 1.421 . S
C414 O402 1.381 . S
C414 O403 1.421 . S
C415 O412 1.381 . S
C415 O413 1.421 . S
Fe416 O417 1.886 . S
Fe416 O420 1.715 . S
Fe416 O425 2.077 . S
Fe416 O430 1.935 . S
Fe416 O436 2.077 . S
Fe416 O445 1.935 . S
O417 Fe416 1.886 . S
O417 Fe419 1.715 1_556 S
Fe418 O420 1.886 1_554 S
Fe418 O421 1.715 . S
Fe418 O428 1.935 . S
Fe418 O429 2.077 1_554 S
Fe418 O435 1.935 . S
Fe418 O444 2.077 1_554 S
Fe419 O417 1.715 1_554 S
Fe419 O422 1.886 . S
Fe419 O426 1.935 1_554 S
Fe419 O431 2.077 . S
Fe419 O437 1.935 . S
Fe419 O441 2.077 . S
O420 Fe416 1.715 . S
O420 Fe418 1.886 1_556 S
O421 Fe418 1.715 . S
O421 Fe423 1.886 . S
O422 Fe419 1.886 . S
O422 Fe423 1.715 . S
Fe423 O421 1.886 . S
Fe423 O422 1.715 . S
Fe423 O427 2.077 . S
Fe423 O432 1.935 . S
Fe423 O434 2.077 . S
Fe423 O442 1.935 . S
C424 O436 1.381 . S
C424 O437 1.421 1_556 S
O425 Fe416 2.077 . S
O425 C438 1.381 . S
O426 Fe419 1.935 1_556 S
O426 C438 1.421 . S
O427 Fe423 2.077 . S
O427 C443 1.381 . S
O428 Fe418 1.935 . S
O428 C443 1.421 . S
O429 Fe418 2.077 1_556 S
O429 C433 1.381 . S
O430 Fe416 1.935 . S
O430 C433 1.421 . S
O431 Fe419 2.077 . S
O431 C439 1.381 . S
O432 Fe423 1.935 . S
O432 C439 1.421 . S
C433 O429 1.381 . S
C433 O430 1.421 . S
O434 Fe423 2.077 . S
O434 C446 1.381 . S
O435 Fe418 1.935 . S
O435 C446 1.421 . S
O436 Fe416 2.077 . S
O436 C424 1.381 . S
O437 Fe419 1.935 . S
O437 C424 1.421 1_554 S
C438 O425 1.381 . S
C438 O426 1.421 . S
C439 O431 1.381 . S
C439 O432 1.421 . S
C440 O441 1.381 . S
C440 O442 1.421 . S
O441 Fe419 2.077 . S
O441 C440 1.381 . S
O442 Fe423 1.935 . S
O442 C440 1.421 . S
C443 O427 1.381 . S
C443 O428 1.421 . S
O444 Fe418 2.077 1_556 S
O444 C447 1.381 . S
O445 Fe416 1.935 . S
O445 C447 1.421 . S
C446 O434 1.381 . S
C446 O435 1.421 . S
C447 O444 1.381 . S
C447 O445 1.421 . S
Fe448 O449 1.886 . S
Fe448 O452 1.715 . S
Fe448 O457 2.077 . S
Fe448 O462 1.935 . S
Fe448 O468 2.077 1_455 S
Fe448 O477 1.935 1_455 S
O449 Fe448 1.886 . S
O449 Fe451 1.715 . S
Fe450 O452 1.886 . S
Fe450 O453 1.715 . S
Fe450 O460 1.935 . S
Fe450 O461 2.077 . S
Fe450 O467 1.935 1_455 S
Fe450 O476 2.077 1_455 S
Fe451 O449 1.715 . S
Fe451 O454 1.886 . S
Fe451 O458 1.935 . S
Fe451 O463 2.077 . S
Fe451 O469 1.935 1_455 S
Fe451 O473 2.077 . S
O452 Fe448 1.715 . S
O452 Fe450 1.886 . S
O453 Fe450 1.715 . S
O453 Fe455 1.886 . S
O454 Fe451 1.886 . S
O454 Fe455 1.715 . S
Fe455 O453 1.886 . S
Fe455 O454 1.715 . S
Fe455 O459 2.077 . S
Fe455 O464 1.935 . S
Fe455 O466 2.077 . S
Fe455 O474 1.935 . S
C456 O468 1.381 . S
C456 O469 1.421 . S
O457 Fe448 2.077 . S
O457 C470 1.381 . S
O458 Fe451 1.935 . S
O458 C470 1.421 . S
O459 Fe455 2.077 . S
O459 C475 1.381 . S
O460 Fe450 1.935 . S
O460 C475 1.421 . S
O461 Fe450 2.077 . S
O461 C465 1.381 . S
O462 Fe448 1.935 . S
O462 C465 1.421 . S
O463 Fe451 2.077 . S
O463 C471 1.381 . S
O464 Fe455 1.935 . S
O464 C471 1.421 . S
C465 O461 1.381 . S
C465 O462 1.421 . S
O466 Fe455 2.077 . S
O466 C478 1.381 1_455 S
O467 Fe450 1.935 1_655 S
O467 C478 1.421 . S
O468 Fe448 2.077 1_655 S
O468 C456 1.381 . S
O469 Fe451 1.935 1_655 S
O469 C456 1.421 . S
C470 O457 1.381 . S
C470 O458 1.421 . S
C471 O463 1.381 . S
C471 O464 1.421 . S
C472 O473 1.381 1_655 S
C472 O474 1.421 1_655 S
O473 Fe451 2.077 . S
O473 C472 1.381 1_455 S
O474 Fe455 1.935 . S
O474 C472 1.421 1_455 S
C475 O459 1.381 . S
C475 O460 1.421 . S
O476 Fe450 2.077 1_655 S
O476 C479 1.381 . S
O477 Fe448 1.935 1_655 S
O477 C479 1.421 . S
C478 O466 1.381 1_655 S
C478 O467 1.421 . S
C479 O476 1.381 . S
C479 O477 1.421 . S
Fe480 O481 1.886 . S
Fe480 O484 1.715 . S
Fe480 O489 2.077 . S
Fe480 O494 1.935 . S
Fe480 O500 2.077 . S
Fe480 O509 1.935 . S
O481 Fe480 1.886 . S
O481 Fe483 1.715 1_565 S
Fe482 O484 1.886 1_545 S
Fe482 O485 1.715 . S
Fe482 O492 1.935 . S
Fe482 O493 2.077 1_545 S
Fe482 O499 1.935 . S
Fe482 O508 2.077 1_545 S
Fe483 O481 1.715 1_545 S
Fe483 O486 1.886 . S
Fe483 O490 1.935 1_545 S
Fe483 O495 2.077 . S
Fe483 O501 1.935 1_545 S
Fe483 O505 2.077 . S
O484 Fe480 1.715 . S
O484 Fe482 1.886 1_565 S
O485 Fe482 1.715 . S
O485 Fe487 1.886 . S
O486 Fe483 1.886 . S
O486 Fe487 1.715 . S
Fe487 O485 1.886 . S
Fe487 O486 1.715 . S
Fe487 O491 2.077 . S
Fe487 O496 1.935 . S
Fe487 O498 2.077 . S
Fe487 O506 1.935 . S
C488 O500 1.381 . S
C488 O501 1.421 . S
O489 Fe480 2.077 . S
O489 C502 1.381 . S
O490 Fe483 1.935 1_565 S
O490 C502 1.421 . S
O491 Fe487 2.077 . S
O491 C507 1.381 . S
O492 Fe482 1.935 . S
O492 C507 1.421 . S
O493 Fe482 2.077 1_565 S
O493 C497 1.381 . S
O494 Fe480 1.935 . S
O494 C497 1.421 . S
O495 Fe483 2.077 . S
O495 C503 1.381 . S
O496 Fe487 1.935 . S
O496 C503 1.421 . S
C497 O493 1.381 . S
C497 O494 1.421 . S
O498 Fe487 2.077 . S
O498 C510 1.381 . S
O499 Fe482 1.935 . S
O499 C510 1.421 . S
O500 Fe480 2.077 . S
O500 C488 1.381 . S
O501 Fe483 1.935 1_565 S
O501 C488 1.421 . S
C502 O489 1.381 . S
C502 O490 1.421 . S
C503 O495 1.381 . S
C503 O496 1.421 . S
C504 O505 1.381 . S
C504 O506 1.421 . S
O505 Fe483 2.077 . S
O505 C504 1.381 . S
O506 Fe487 1.935 . S
O506 C504 1.421 . S
C507 O491 1.381 . S
C507 O492 1.421 . S
O508 Fe482 2.077 1_565 S
O508 C511 1.381 . S
O509 Fe480 1.935 . S
O509 C511 1.421 . S
C510 O498 1.381 . S
C510 O499 1.421 . S
C511 O508 1.381 . S
C511 O509 1.421 . S
H512 C524 0.930 . S
H513 C526 0.930 . S
H514 C527 0.930 . S
H515 C531 0.959 . S
H516 C531 0.959 . S
H517 C531 0.961 . S
H518 C532 0.960 . S
H519 C532 0.961 . S
H520 C532 0.959 . S
H521 C535 0.929 . S
H522 C536 0.931 . S
H523 C538 0.930 . S
C524 H512 0.930 . S
C524 C525 1.399 . S
C524 C529 1.399 . S
C525 C524 1.399 . S
C525 C526 1.376 . S
C526 H513 0.930 . S
C526 C525 1.376 . S
C526 C527 1.388 . S
C527 H514 0.930 . S
C527 C526 1.388 . S
C527 C528 1.390 . S
C528 C527 1.390 . S
C528 C529 1.394 . S
C528 C534 1.465 . S
C529 C524 1.399 . S
C529 C528 1.394 . S
C529 C530 1.516 . S
C530 C529 1.516 . S
C530 C531 1.502 . S
C530 C532 1.561 . S
C530 C533 1.526 . S
C531 H515 0.959 . S
C531 H516 0.959 . S
C531 H517 0.961 . S
C531 C530 1.502 . S
C532 H518 0.960 . S
C532 H519 0.961 . S
C532 H520 0.959 . S
C532 C530 1.561 . S
C533 C530 1.526 . S
C533 C534 1.396 . S
C533 C538 1.390 . S
C534 C528 1.465 . S
C534 C533 1.396 . S
C534 C535 1.399 . S
C535 H521 0.929 . S
C535 C534 1.399 . S
C535 C536 1.385 . S
C536 H522 0.931 . S
C536 C535 1.385 . S
C536 C537 1.389 . S
C537 C536 1.389 . S
C537 C538 1.387 . S
C538 H523 0.930 . S
C538 C533 1.390 . S
C538 C537 1.387 . S
H539 C551 0.930 . S
H540 C553 0.930 . S
H541 C554 0.930 . S
H542 C558 0.959 . S
H543 C558 0.959 . S
H544 C558 0.961 . S
H545 C559 0.960 . S
H546 C559 0.961 . S
H547 C559 0.959 . S
H548 C562 0.929 . S
H549 C563 0.931 . S
H550 C565 0.930 . S
C551 H539 0.930 . S
C551 C552 1.399 . S
C551 C556 1.399 . S
C552 C551 1.399 . S
C552 C553 1.376 . S
C553 H540 0.930 . S
C553 C552 1.376 . S
C553 C554 1.388 . S
C554 H541 0.930 . S
C554 C553 1.388 . S
C554 C555 1.390 . S
C555 C554 1.390 . S
C555 C556 1.394 . S
C555 C561 1.465 . S
C556 C551 1.399 . S
C556 C555 1.394 . S
C556 C557 1.516 . S
C557 C556 1.516 . S
C557 C558 1.502 . S
C557 C559 1.561 . S
C557 C560 1.526 . S
C558 H542 0.959 . S
C558 H543 0.959 . S
C558 H544 0.961 . S
C558 C557 1.502 . S
C559 H545 0.960 . S
C559 H546 0.961 . S
C559 H547 0.959 . S
C559 C557 1.561 . S
C560 C557 1.526 . S
C560 C561 1.396 . S
C560 C565 1.390 . S
C561 C555 1.465 . S
C561 C560 1.396 . S
C561 C562 1.399 . S
C562 H548 0.929 . S
C562 C561 1.399 . S
C562 C563 1.385 . S
C563 H549 0.931 . S
C563 C562 1.385 . S
C563 C564 1.389 . S
C564 C563 1.389 . S
C564 C565 1.387 . S
C565 H550 0.930 . S
C565 C560 1.390 . S
C565 C564 1.387 . S
H566 C578 0.930 . S
H567 C580 0.930 . S
H568 C581 0.930 . S
H569 C585 0.959 . S
H570 C585 0.959 . S
H571 C585 0.961 . S
H572 C586 0.960 . S
H573 C586 0.961 . S
H574 C586 0.959 . S
H575 C589 0.929 . S
H576 C590 0.931 . S
H577 C592 0.930 . S
C578 H566 0.930 . S
C578 C579 1.399 . S
C578 C583 1.399 . S
C579 C578 1.399 . S
C579 C580 1.376 . S
C580 H567 0.930 . S
C580 C579 1.376 . S
C580 C581 1.388 . S
C581 H568 0.930 . S
C581 C580 1.388 . S
C581 C582 1.390 . S
C582 C581 1.390 . S
C582 C583 1.394 . S
C582 C588 1.465 . S
C583 C578 1.399 . S
C583 C582 1.394 . S
C583 C584 1.516 . S
C584 C583 1.516 . S
C584 C585 1.502 . S
C584 C586 1.561 . S
C584 C587 1.526 . S
C585 H569 0.959 . S
C585 H570 0.959 . S
C585 H571 0.961 . S
C585 C584 1.502 . S
C586 H572 0.960 . S
C586 H573 0.961 . S
C586 H574 0.959 . S
C586 C584 1.561 . S
C587 C584 1.526 . S
C587 C588 1.396 . S
C587 C592 1.390 . S
C588 C582 1.465 . S
C588 C587 1.396 . S
C588 C589 1.399 . S
C589 H575 0.929 . S
C589 C588 1.399 . S
C589 C590 1.385 . S
C590 H576 0.931 . S
C590 C589 1.385 . S
C590 C591 1.389 . S
C591 C590 1.389 . S
C591 C592 1.387 . S
C592 H577 0.930 . S
C592 C587 1.390 . S
C592 C591 1.387 . S
H593 C605 0.930 . S
H594 C607 0.930 . S
H595 C608 0.930 . S
H596 C612 0.959 . S
H597 C612 0.959 1_545 S
H598 C612 0.961 . S
H599 C613 0.960 . S
H600 C613 0.961 1_545 S
H601 C613 0.959 . S
H602 C616 0.929 . S
H603 C617 0.931 . S
H604 C619 0.930 1_545 S
C605 H593 0.930 . S
C605 C606 1.399 . S
C605 C610 1.399 . S
C606 C605 1.399 . S
C606 C607 1.376 . S
C607 H594 0.930 . S
C607 C606 1.376 . S
C607 C608 1.388 . S
C608 H595 0.930 . S
C608 C607 1.388 . S
C608 C609 1.390 . S
C609 C608 1.390 . S
C609 C610 1.394 . S
C609 C615 1.465 . S
C610 C605 1.399 . S
C610 C609 1.394 . S
C610 C611 1.516 . S
C611 C610 1.516 . S
C611 C612 1.502 . S
C611 C613 1.561 . S
C611 C614 1.526 . S
C612 H596 0.959 . S
C612 H597 0.959 1_565 S
C612 H598 0.961 . S
C612 C611 1.502 . S
C613 H599 0.960 . S
C613 H600 0.961 1_565 S
C613 H601 0.959 . S
C613 C611 1.561 . S
C614 C611 1.526 . S
C614 C615 1.396 . S
C614 C619 1.390 . S
C615 C609 1.465 . S
C615 C614 1.396 . S
C615 C616 1.399 . S
C616 H602 0.929 . S
C616 C615 1.399 . S
C616 C617 1.385 . S
C617 H603 0.931 . S
C617 C616 1.385 . S
C617 C618 1.389 . S
C618 C617 1.389 . S
C618 C619 1.387 . S
C619 H604 0.930 1_565 S
C619 C614 1.390 . S
C619 C618 1.387 . S
H620 C632 0.930 . S
H621 C634 0.930 . S
H622 C635 0.930 . S
H623 C639 0.959 . S
H624 C639 0.959 . S
H625 C639 0.961 . S
H626 C640 0.960 . S
H627 C640 0.961 . S
H628 C640 0.959 . S
H629 C643 0.929 . S
H630 C644 0.937 . S
H631 C646 0.930 . S
C632 H620 0.930 . S
C632 C633 1.399 . S
C632 C637 1.399 . S
C633 C632 1.399 . S
C633 C634 1.376 . S
C634 H621 0.930 . S
C634 C633 1.376 . S
C634 C635 1.388 . S
C635 H622 0.930 . S
C635 C634 1.388 . S
C635 C636 1.390 . S
C636 C635 1.390 . S
C636 C637 1.394 . S
C636 C642 1.465 . S
C637 C632 1.399 . S
C637 C636 1.394 . S
C637 C638 1.516 . S
C638 C637 1.516 . S
C638 C639 1.502 . S
C638 C640 1.561 . S
C638 C641 1.526 . S
C639 H623 0.959 . S
C639 H624 0.959 . S
C639 H625 0.961 . S
C639 C638 1.502 . S
C640 H626 0.960 . S
C640 H627 0.961 . S
C640 H628 0.959 . S
C640 C638 1.561 . S
C641 C638 1.526 . S
C641 C642 1.396 . S
C641 C646 1.390 . S
C642 C636 1.465 . S
C642 C641 1.396 . S
C642 C643 1.399 . S
C643 H629 0.929 . S
C643 C642 1.399 . S
C643 C644 1.385 . S
C644 H630 0.937 . S
C644 C643 1.385 . S
C644 C645 1.389 . S
C645 C644 1.389 . S
C645 C646 1.387 . S
C646 H631 0.930 . S
C646 C641 1.390 . S
C646 C645 1.387 . S
H647 C659 0.930 . S
H648 C661 0.930 . S
H649 C662 0.930 . S
H650 C666 0.959 . S
H651 C666 0.959 . S
H652 C666 0.961 . S
H653 C667 0.960 . S
H654 C667 0.961 . S
H655 C667 0.959 . S
H656 C670 0.929 . S
H657 C671 0.931 . S
H658 C673 0.930 . S
C659 H647 0.930 . S
C659 C660 1.399 . S
C659 C664 1.399 . S
C660 C659 1.399 . S
C660 C661 1.376 . S
C661 H648 0.930 . S
C661 C660 1.376 . S
C661 C662 1.388 . S
C662 H649 0.930 . S
C662 C661 1.388 . S
C662 C663 1.390 . S
C663 C662 1.390 . S
C663 C664 1.394 . S
C663 C669 1.465 . S
C664 C659 1.399 . S
C664 C663 1.394 . S
C664 C665 1.516 . S
C665 C664 1.516 . S
C665 C666 1.502 . S
C665 C667 1.561 . S
C665 C668 1.526 . S
C666 H650 0.959 . S
C666 H651 0.959 . S
C666 H652 0.961 . S
C666 C665 1.502 . S
C667 H653 0.960 . S
C667 H654 0.961 . S
C667 H655 0.959 . S
C667 C665 1.561 . S
C668 C665 1.526 . S
C668 C669 1.396 . S
C668 C673 1.390 . S
C669 C663 1.465 . S
C669 C668 1.396 . S
C669 C670 1.399 . S
C670 H656 0.929 . S
C670 C669 1.399 . S
C670 C671 1.385 . S
C671 H657 0.931 . S
C671 C670 1.385 . S
C671 C672 1.389 . S
C672 C671 1.389 . S
C672 C673 1.387 . S
C673 H658 0.930 . S
C673 C668 1.390 . S
C673 C672 1.387 . S
H674 C686 0.930 . S
H675 C688 0.930 . S
H676 C689 0.930 . S
H677 C693 0.959 . S
H678 C693 0.959 . S
H679 C693 0.961 . S
H680 C694 0.960 . S
H681 C694 0.961 . S
H682 C694 0.959 . S
H683 C697 0.929 . S
H684 C698 0.931 . S
H685 C700 0.930 . S
C686 H674 0.930 . S
C686 C687 1.399 . S
C686 C691 1.399 . S
C687 C686 1.399 . S
C687 C688 1.376 . S
C688 H675 0.930 . S
C688 C687 1.376 . S
C688 C689 1.388 . S
C689 H676 0.930 . S
C689 C688 1.388 . S
C689 C690 1.390 . S
C690 C689 1.390 . S
C690 C691 1.394 . S
C690 C696 1.465 . S
C691 C686 1.399 . S
C691 C690 1.394 . S
C691 C692 1.516 . S
C692 C691 1.516 . S
C692 C693 1.502 . S
C692 C694 1.561 . S
C692 C695 1.526 . S
C693 H677 0.959 . S
C693 H678 0.959 . S
C693 H679 0.961 . S
C693 C692 1.502 . S
C694 H680 0.960 . S
C694 H681 0.961 . S
C694 H682 0.959 . S
C694 C692 1.561 . S
C695 C692 1.526 . S
C695 C696 1.396 . S
C695 C700 1.390 . S
C696 C690 1.465 . S
C696 C695 1.396 . S
C696 C697 1.399 . S
C697 H683 0.929 . S
C697 C696 1.399 . S
C697 C698 1.385 . S
C698 H684 0.931 . S
C698 C697 1.385 . S
C698 C699 1.389 . S
C699 C698 1.389 . S
C699 C700 1.387 . S
C700 H685 0.930 . S
C700 C695 1.390 . S
C700 C699 1.387 . S
H701 C713 0.930 . S
H702 C715 0.930 . S
H703 C716 0.930 . S
H704 C720 0.959 . S
H705 C720 0.959 . S
H706 C720 0.961 . S
H707 C721 0.960 . S
H708 C721 0.961 . S
H709 C721 0.959 . S
H710 C724 0.929 . S
H711 C725 0.931 . S
H712 C727 0.930 . S
C713 H701 0.930 . S
C713 C714 1.399 . S
C713 C718 1.399 . S
C714 C713 1.399 . S
C714 C715 1.376 . S
C715 H702 0.930 . S
C715 C714 1.376 . S
C715 C716 1.388 . S
C716 H703 0.930 . S
C716 C715 1.388 . S
C716 C717 1.390 . S
C717 C716 1.390 . S
C717 C718 1.394 . S
C717 C723 1.465 . S
C718 C713 1.399 . S
C718 C717 1.394 . S
C718 C719 1.516 . S
C719 C718 1.516 . S
C719 C720 1.502 . S
C719 C721 1.561 . S
C719 C722 1.526 . S
C720 H704 0.959 . S
C720 H705 0.959 . S
C720 H706 0.961 . S
C720 C719 1.502 . S
C721 H707 0.960 . S
C721 H708 0.961 . S
C721 H709 0.959 . S
C721 C719 1.561 . S
C722 C719 1.526 . S
C722 C723 1.396 . S
C722 C727 1.390 . S
C723 C717 1.465 . S
C723 C722 1.396 . S
C723 C724 1.399 . S
C724 H710 0.929 . S
C724 C723 1.399 . S
C724 C725 1.385 . S
C725 H711 0.931 . S
C725 C724 1.385 . S
C725 C726 1.389 . S
C726 C725 1.389 . S
C726 C727 1.387 . S
C727 H712 0.930 . S
C727 C722 1.390 . S
C727 C726 1.387 . S
H728 C740 0.930 . S
H729 C742 0.930 . S
H730 C743 0.930 . S
H731 C747 0.959 . S
H732 C747 0.959 . S
H733 C747 0.961 . S
H734 C748 0.960 . S
H735 C748 0.961 . S
H736 C748 0.959 . S
H737 C751 0.929 . S
H738 C752 0.931 . S
H739 C754 0.930 . S
C740 H728 0.930 . S
C740 C741 1.399 . S
C740 C745 1.399 . S
C741 C740 1.399 . S
C741 C742 1.376 . S
C742 H729 0.930 . S
C742 C741 1.376 . S
C742 C743 1.388 . S
C743 H730 0.930 . S
C743 C742 1.388 . S
C743 C744 1.390 . S
C744 C743 1.390 . S
C744 C745 1.394 . S
C744 C750 1.465 . S
C745 C740 1.399 . S
C745 C744 1.394 . S
C745 C746 1.516 . S
C746 C745 1.516 . S
C746 C747 1.502 . S
C746 C748 1.561 . S
C746 C749 1.526 . S
C747 H731 0.959 . S
C747 H732 0.959 . S
C747 H733 0.961 . S
C747 C746 1.502 . S
C748 H734 0.960 . S
C748 H735 0.961 . S
C748 H736 0.959 . S
C748 C746 1.561 . S
C749 C746 1.526 . S
C749 C750 1.396 . S
C749 C754 1.390 . S
C750 C744 1.465 . S
C750 C749 1.396 . S
C750 C751 1.399 . S
C751 H737 0.929 . S
C751 C750 1.399 . S
C751 C752 1.385 . S
C752 H738 0.931 . S
C752 C751 1.385 . S
C752 C753 1.389 . S
C753 C752 1.389 . S
C753 C754 1.387 . S
C754 H739 0.930 . S
C754 C749 1.390 . S
C754 C753 1.387 . S
H755 C767 0.930 . S
H756 C769 0.930 . S
H757 C770 0.930 . S
H758 C774 0.959 . S
H759 C774 0.959 . S
H760 C774 0.961 . S
H761 C775 0.960 . S
H762 C775 0.961 . S
H763 C775 0.959 . S
H764 C778 0.929 . S
H765 C779 0.931 . S
H766 C781 0.930 . S
C767 H755 0.930 . S
C767 C768 1.399 . S
C767 C772 1.399 . S
C768 C767 1.399 . S
C768 C769 1.376 . S
C769 H756 0.930 . S
C769 C768 1.376 . S
C769 C770 1.388 . S
C770 H757 0.930 . S
C770 C769 1.388 . S
C770 C771 1.390 . S
C771 C770 1.390 . S
C771 C772 1.394 . S
C771 C777 1.465 . S
C772 C767 1.399 . S
C772 C771 1.394 . S
C772 C773 1.516 . S
C773 C772 1.516 . S
C773 C774 1.502 . S
C773 C775 1.561 . S
C773 C776 1.526 . S
C774 H758 0.959 . S
C774 H759 0.959 . S
C774 H760 0.961 . S
C774 C773 1.502 . S
C775 H761 0.960 . S
C775 H762 0.961 . S
C775 H763 0.959 . S
C775 C773 1.561 . S
C776 C773 1.526 . S
C776 C777 1.396 . S
C776 C781 1.390 . S
C777 C771 1.465 . S
C777 C776 1.396 . S
C777 C778 1.399 . S
C778 H764 0.929 . S
C778 C777 1.399 . S
C778 C779 1.385 . S
C779 H765 0.931 . S
C779 C778 1.385 . S
C779 C780 1.389 . S
C780 C779 1.389 . S
C780 C781 1.387 . S
C781 H766 0.930 . S
C781 C776 1.390 . S
C781 C780 1.387 . S
H782 C794 0.930 . S
H783 C796 0.930 . S
H784 C797 0.930 . S
H785 C801 0.959 . S
H786 C801 0.959 . S
H787 C801 0.961 . S
H788 C802 0.960 . S
H789 C802 0.961 . S
H790 C802 0.959 . S
H791 C805 0.929 . S
H792 C806 0.931 . S
H793 C808 0.930 . S
C794 H782 0.930 . S
C794 C795 1.399 . S
C794 C799 1.399 . S
C795 C794 1.399 . S
C795 C796 1.376 . S
C796 H783 0.930 . S
C796 C795 1.376 . S
C796 C797 1.388 . S
C797 H784 0.930 . S
C797 C796 1.388 . S
C797 C798 1.390 . S
C798 C797 1.390 . S
C798 C799 1.394 . S
C798 C804 1.465 . S
C799 C794 1.399 . S
C799 C798 1.394 . S
C799 C800 1.516 . S
C800 C799 1.516 . S
C800 C801 1.502 . S
C800 C802 1.561 . S
C800 C803 1.526 . S
C801 H785 0.959 . S
C801 H786 0.959 . S
C801 H787 0.961 . S
C801 C800 1.502 . S
C802 H788 0.960 . S
C802 H789 0.961 . S
C802 H790 0.959 . S
C802 C800 1.561 . S
C803 C800 1.526 . S
C803 C804 1.396 . S
C803 C808 1.390 . S
C804 C798 1.465 . S
C804 C803 1.396 . S
C804 C805 1.399 . S
C805 H791 0.929 . S
C805 C804 1.399 . S
C805 C806 1.385 . S
C806 H792 0.931 . S
C806 C805 1.385 . S
C806 C807 1.389 . S
C807 C806 1.389 . S
C807 C808 1.387 . S
C808 H793 0.930 . S
C808 C803 1.390 . S
C808 C807 1.387 . S
H809 C821 0.930 . S
H810 C823 0.930 . S
H811 C824 0.930 . S
H812 C828 0.959 . S
H813 C828 0.959 . S
H814 C828 0.961 . S
H815 C829 0.960 . S
H816 C829 0.961 . S
H817 C829 0.959 . S
H818 C832 0.929 . S
H819 C833 0.931 . S
H820 C835 0.930 . S
C821 H809 0.930 . S
C821 C822 1.399 . S
C821 C826 1.399 . S
C822 C821 1.399 . S
C822 C823 1.376 . S
C823 H810 0.930 . S
C823 C822 1.376 . S
C823 C824 1.388 . S
C824 H811 0.930 . S
C824 C823 1.388 . S
C824 C825 1.390 . S
C825 C824 1.390 . S
C825 C826 1.394 . S
C825 C831 1.465 . S
C826 C821 1.399 . S
C826 C825 1.394 . S
C826 C827 1.516 . S
C827 C826 1.516 . S
C827 C828 1.502 . S
C827 C829 1.561 . S
C827 C830 1.526 . S
C828 H812 0.959 . S
C828 H813 0.959 . S
C828 H814 0.961 . S
C828 C827 1.502 . S
C829 H815 0.960 . S
C829 H816 0.961 . S
C829 H817 0.959 . S
C829 C827 1.561 . S
C830 C827 1.526 . S
C830 C831 1.396 . S
C830 C835 1.390 . S
C831 C825 1.465 . S
C831 C830 1.396 . S
C831 C832 1.399 . S
C832 H818 0.929 . S
C832 C831 1.399 . S
C832 C833 1.385 . S
C833 H819 0.931 . S
C833 C832 1.385 . S
C833 C834 1.389 . S
C834 C833 1.389 . S
C834 C835 1.387 . S
C835 H820 0.930 . S
C835 C830 1.390 . S
C835 C834 1.387 . S
H836 C848 0.930 . S
H837 C850 0.930 . S
H838 C851 0.930 . S
H839 C855 0.959 . S
H840 C855 0.959 . S
H841 C855 0.961 . S
H842 C856 0.960 . S
H843 C856 0.961 . S
H844 C856 0.959 . S
H845 C859 0.929 . S
H846 C860 0.931 . S
H847 C862 0.930 . S
C848 H836 0.930 . S
C848 C849 1.399 . S
C848 C853 1.399 . S
C849 C848 1.399 . S
C849 C850 1.376 . S
C850 H837 0.930 . S
C850 C849 1.376 . S
C850 C851 1.388 . S
C851 H838 0.930 . S
C851 C850 1.388 . S
C851 C852 1.390 . S
C852 C851 1.390 . S
C852 C853 1.394 . S
C852 C858 1.465 . S
C853 C848 1.399 . S
C853 C852 1.394 . S
C853 C854 1.516 . S
C854 C853 1.516 . S
C854 C855 1.502 . S
C854 C856 1.561 . S
C854 C857 1.526 . S
C855 H839 0.959 . S
C855 H840 0.959 . S
C855 H841 0.961 . S
C855 C854 1.502 . S
C856 H842 0.960 . S
C856 H843 0.961 . S
C856 H844 0.959 . S
C856 C854 1.561 . S
C857 C854 1.526 . S
C857 C858 1.396 . S
C857 C862 1.390 . S
C858 C852 1.465 . S
C858 C857 1.396 . S
C858 C859 1.399 . S
C859 H845 0.929 . S
C859 C858 1.399 . S
C859 C860 1.385 . S
C860 H846 0.931 . S
C860 C859 1.385 . S
C860 C861 1.389 . S
C861 C860 1.389 . S
C861 C862 1.387 . S
C862 H847 0.930 . S
C862 C857 1.390 . S
C862 C861 1.387 . S
H863 C875 0.930 . S
H864 C877 0.930 . S
H865 C878 0.930 . S
H866 C882 0.959 . S
H867 C882 0.959 1_655 S
H868 C882 0.961 . S
H869 C883 0.960 . S
H870 C883 0.961 . S
H871 C883 0.959 . S
H872 C886 0.929 . S
H873 C887 0.931 . S
H874 C889 0.930 . S
C875 H863 0.930 . S
C875 C876 1.399 . S
C875 C880 1.399 . S
C876 C875 1.399 . S
C876 C877 1.376 . S
C877 H864 0.930 . S
C877 C876 1.376 . S
C877 C878 1.388 . S
C878 H865 0.930 . S
C878 C877 1.388 . S
C878 C879 1.390 . S
C879 C878 1.390 . S
C879 C880 1.394 . S
C879 C885 1.465 . S
C880 C875 1.399 . S
C880 C879 1.394 . S
C880 C881 1.516 . S
C881 C880 1.516 . S
C881 C882 1.502 . S
C881 C883 1.561 . S
C881 C884 1.526 . S
C882 H866 0.959 . S
C882 H867 0.959 1_455 S
C882 H868 0.961 . S
C882 C881 1.502 . S
C883 H869 0.960 . S
C883 H870 0.961 . S
C883 H871 0.959 . S
C883 C881 1.561 . S
C884 C881 1.526 . S
C884 C885 1.396 . S
C884 C889 1.390 . S
C885 C879 1.465 . S
C885 C884 1.396 . S
C885 C886 1.399 . S
C886 H872 0.929 . S
C886 C885 1.399 . S
C886 C887 1.385 . S
C887 H873 0.931 . S
C887 C886 1.385 . S
C887 C888 1.389 . S
C888 C887 1.389 . S
C888 C889 1.387 . S
C889 H874 0.930 . S
C889 C884 1.390 . S
C889 C888 1.387 . S
H890 C902 0.930 . S
H891 C904 0.930 . S
H892 C905 0.930 . S
H893 C909 0.959 . S
H894 C909 0.959 . S
H895 C909 0.961 . S
H896 C910 0.960 . S
H897 C910 0.961 . S
H898 C910 0.959 . S
H899 C913 0.929 . S
H900 C914 0.931 . S
H901 C916 0.930 . S
C902 H890 0.930 . S
C902 C903 1.399 . S
C902 C907 1.399 . S
C903 C902 1.399 . S
C903 C904 1.376 . S
C904 H891 0.930 . S
C904 C903 1.376 . S
C904 C905 1.388 . S
C905 H892 0.930 . S
C905 C904 1.388 . S
C905 C906 1.390 . S
C906 C905 1.390 . S
C906 C907 1.394 . S
C906 C912 1.465 . S
C907 C902 1.399 . S
C907 C906 1.394 . S
C907 C908 1.516 . S
C908 C907 1.516 . S
C908 C909 1.502 . S
C908 C910 1.561 . S
C908 C911 1.526 . S
C909 H893 0.959 . S
C909 H894 0.959 . S
C909 H895 0.961 . S
C909 C908 1.502 . S
C910 H896 0.960 . S
C910 H897 0.961 . S
C910 H898 0.959 . S
C910 C908 1.561 . S
C911 C908 1.526 . S
C911 C912 1.396 . S
C911 C916 1.390 . S
C912 C906 1.465 . S
C912 C911 1.396 . S
C912 C913 1.399 . S
C913 H899 0.929 . S
C913 C912 1.399 . S
C913 C914 1.385 . S
C914 H900 0.931 . S
C914 C913 1.385 . S
C914 C915 1.389 . S
C915 C914 1.389 . S
C915 C916 1.387 . S
C916 H901 0.930 . S
C916 C911 1.390 . S
C916 C915 1.387 . S
H917 C929 0.930 . S
H918 C931 0.930 . S
H919 C932 0.930 . S
H920 C936 0.959 . S
H921 C936 0.959 . S
H922 C936 0.961 . S
H923 C937 0.960 . S
H924 C937 0.961 . S
H925 C937 0.959 . S
H926 C940 0.929 . S
H927 C941 0.931 . S
H928 C943 0.930 . S
C929 H917 0.930 . S
C929 C930 1.399 . S
C929 C934 1.399 . S
C930 C929 1.399 . S
C930 C931 1.376 . S
C931 H918 0.930 . S
C931 C930 1.376 . S
C931 C932 1.388 . S
C932 H919 0.930 . S
C932 C931 1.388 . S
C932 C933 1.390 . S
C933 C932 1.390 . S
C933 C934 1.394 . S
C933 C939 1.465 . S
C934 C929 1.399 . S
C934 C933 1.394 . S
C934 C935 1.516 . S
C935 C934 1.516 . S
C935 C936 1.502 . S
C935 C937 1.561 . S
C935 C938 1.526 . S
C936 H920 0.959 . S
C936 H921 0.959 . S
C936 H922 0.961 . S
C936 C935 1.502 . S
C937 H923 0.960 . S
C937 H924 0.961 . S
C937 H925 0.959 . S
C937 C935 1.561 . S
C938 C935 1.526 . S
C938 C939 1.396 . S
C938 C943 1.390 . S
C939 C933 1.465 . S
C939 C938 1.396 . S
C939 C940 1.399 . S
C940 H926 0.929 . S
C940 C939 1.399 . S
C940 C941 1.385 . S
C941 H927 0.931 . S
C941 C940 1.385 . S
C941 C942 1.389 . S
C942 C941 1.389 . S
C942 C943 1.387 . S
C943 H928 0.930 . S
C943 C938 1.390 . S
C943 C942 1.387 . S
H944 C956 0.930 . S
H945 C958 0.930 . S
H946 C959 0.930 . S
H947 C963 0.959 . S
H948 C963 0.959 . S
H949 C963 0.961 . S
H950 C964 0.960 . S
H951 C964 0.961 . S
H952 C964 0.959 . S
H953 C967 0.929 . S
H954 C968 0.931 . S
H955 C970 0.930 . S
C956 H944 0.930 . S
C956 C957 1.399 . S
C956 C961 1.399 . S
C957 C956 1.399 . S
C957 C958 1.376 . S
C958 H945 0.930 . S
C958 C957 1.376 . S
C958 C959 1.388 . S
C959 H946 0.930 . S
C959 C958 1.388 . S
C959 C960 1.390 . S
C960 C959 1.390 . S
C960 C961 1.394 . S
C960 C966 1.465 . S
C961 C956 1.399 . S
C961 C960 1.394 . S
C961 C962 1.516 . S
C962 C961 1.516 . S
C962 C963 1.502 . S
C962 C964 1.561 . S
C962 C965 1.526 . S
C963 H947 0.959 . S
C963 H948 0.959 . S
C963 H949 0.961 . S
C963 C962 1.502 . S
C964 H950 0.960 . S
C964 H951 0.961 . S
C964 H952 0.959 . S
C964 C962 1.561 . S
C965 C962 1.526 . S
C965 C966 1.396 . S
C965 C970 1.390 . S
C966 C960 1.465 . S
C966 C965 1.396 . S
C966 C967 1.399 . S
C967 H953 0.929 . S
C967 C966 1.399 . S
C967 C968 1.385 . S
C968 H954 0.931 . S
C968 C967 1.385 . S
C968 C969 1.389 . S
C969 C968 1.389 . S
C969 C970 1.387 . S
C970 H955 0.930 . S
C970 C965 1.390 . S
C970 C969 1.387 . S
H971 C983 0.930 . S
H972 C985 0.930 . S
H973 C986 0.930 . S
H974 C990 0.959 . S
H975 C990 0.959 . S
H976 C990 0.961 . S
H977 C991 0.960 . S
H978 C991 0.961 . S
H979 C991 0.959 . S
H980 C994 0.929 . S
H981 C995 0.931 . S
H982 C997 0.930 . S
C983 H971 0.930 . S
C983 C984 1.399 . S
C983 C988 1.399 . S
C984 C983 1.399 . S
C984 C985 1.376 . S
C985 H972 0.930 . S
C985 C984 1.376 . S
C985 C986 1.388 . S
C986 H973 0.930 . S
C986 C985 1.388 . S
C986 C987 1.390 . S
C987 C986 1.390 . S
C987 C988 1.394 . S
C987 C993 1.465 . S
C988 C983 1.399 . S
C988 C987 1.394 . S
C988 C989 1.516 . S
C989 C988 1.516 . S
C989 C990 1.502 . S
C989 C991 1.561 . S
C989 C992 1.526 . S
C990 H974 0.959 . S
C990 H975 0.959 . S
C990 H976 0.961 . S
C990 C989 1.502 . S
C991 H977 0.960 . S
C991 H978 0.961 . S
C991 H979 0.959 . S
C991 C989 1.561 . S
C992 C989 1.526 . S
C992 C993 1.396 . S
C992 C997 1.390 . S
C993 C987 1.465 . S
C993 C992 1.396 . S
C993 C994 1.399 . S
C994 H980 0.929 . S
C994 C993 1.399 . S
C994 C995 1.385 . S
C995 H981 0.931 . S
C995 C994 1.385 . S
C995 C996 1.389 . S
C996 C995 1.389 . S
C996 C997 1.387 . S
C997 H982 0.930 . S
C997 C992 1.390 . S
C997 C996 1.387 . S
H998 C1010 0.930 . S
H999 C1012 0.930 . S
H1000 C1013 0.930 . S
H1001 C1017 0.959 . S
H1002 C1017 0.959 . S
H1003 C1017 0.961 . S
H1004 C1018 0.960 . S
H1005 C1018 0.961 . S
H1006 C1018 0.959 . S
H1007 C1021 0.929 . S
H1008 C1022 0.931 . S
H1009 C1024 0.930 . S
C1010 H998 0.930 . S
C1010 C1011 1.399 . S
C1010 C1015 1.399 . S
C1011 C1010 1.399 . S
C1011 C1012 1.376 . S
C1012 H999 0.930 . S
C1012 C1011 1.376 . S
C1012 C1013 1.388 . S
C1013 H1000 0.930 . S
C1013 C1012 1.388 . S
C1013 C1014 1.390 . S
C1014 C1013 1.390 . S
C1014 C1015 1.394 . S
C1014 C1020 1.465 . S
C1015 C1010 1.399 . S
C1015 C1014 1.394 . S
C1015 C1016 1.516 . S
C1016 C1015 1.516 . S
C1016 C1017 1.502 . S
C1016 C1018 1.561 . S
C1016 C1019 1.526 . S
C1017 H1001 0.959 . S
C1017 H1002 0.959 . S
C1017 H1003 0.961 . S
C1017 C1016 1.502 . S
C1018 H1004 0.960 . S
C1018 H1005 0.961 . S
C1018 H1006 0.959 . S
C1018 C1016 1.561 . S
C1019 C1016 1.526 . S
C1019 C1020 1.396 . S
C1019 C1024 1.390 . S
C1020 C1014 1.465 . S
C1020 C1019 1.396 . S
C1020 C1021 1.399 . S
C1021 H1007 0.929 . S
C1021 C1020 1.399 . S
C1021 C1022 1.385 . S
C1022 H1008 0.931 . S
C1022 C1021 1.385 . S
C1022 C1023 1.389 . S
C1023 C1022 1.389 . S
C1023 C1024 1.387 . S
C1024 H1009 0.930 . S
C1024 C1019 1.390 . S
C1024 C1023 1.387 . S
H1025 C1037 0.930 . S
H1026 C1039 0.930 . S
H1027 C1040 0.930 . S
H1028 C1044 0.959 . S
H1029 C1044 0.959 . S
H1030 C1044 0.961 . S
H1031 C1045 0.960 . S
H1032 C1045 0.961 . S
H1033 C1045 0.959 . S
H1034 C1048 0.929 . S
H1035 C1049 0.931 . S
H1036 C1051 0.930 . S
C1037 H1025 0.930 . S
C1037 C1038 1.399 . S
C1037 C1042 1.399 . S
C1038 C1037 1.399 . S
C1038 C1039 1.376 . S
C1039 H1026 0.930 . S
C1039 C1038 1.376 . S
C1039 C1040 1.388 . S
C1040 H1027 0.930 . S
C1040 C1039 1.388 . S
C1040 C1041 1.390 . S
C1041 C1040 1.390 . S
C1041 C1042 1.394 . S
C1041 C1047 1.465 . S
C1042 C1037 1.399 . S
C1042 C1041 1.394 . S
C1042 C1043 1.516 . S
C1043 C1042 1.516 . S
C1043 C1044 1.502 . S
C1043 C1045 1.561 . S
C1043 C1046 1.526 . S
C1044 H1028 0.959 . S
C1044 H1029 0.959 . S
C1044 H1030 0.961 . S
C1044 C1043 1.502 . S
C1045 H1031 0.960 . S
C1045 H1032 0.961 . S
C1045 H1033 0.959 . S
C1045 C1043 1.561 . S
C1046 C1043 1.526 . S
C1046 C1047 1.396 . S
C1046 C1051 1.390 . S
C1047 C1041 1.465 . S
C1047 C1046 1.396 . S
C1047 C1048 1.399 . S
C1048 H1034 0.929 . S
C1048 C1047 1.399 . S
C1048 C1049 1.385 . S
C1049 H1035 0.931 . S
C1049 C1048 1.385 . S
C1049 C1050 1.389 . S
C1050 C1049 1.389 . S
C1050 C1051 1.387 . S
C1051 H1036 0.930 . S
C1051 C1046 1.390 . S
C1051 C1050 1.387 . S
H1052 C1064 0.930 . S
H1053 C1066 0.930 . S
H1054 C1067 0.930 . S
H1055 C1071 0.959 . S
H1056 C1071 0.959 . S
H1057 C1071 0.961 . S
H1058 C1072 0.960 . S
H1059 C1072 0.961 1_545 S
H1060 C1072 0.959 . S
H1061 C1075 0.929 . S
H1062 C1076 0.936 . S
H1063 C1078 0.930 1_545 S
C1064 H1052 0.930 . S
C1064 C1065 1.399 . S
C1064 C1069 1.399 . S
C1065 C1064 1.399 . S
C1065 C1066 1.376 . S
C1066 H1053 0.930 . S
C1066 C1065 1.376 . S
C1066 C1067 1.388 . S
C1067 H1054 0.930 . S
C1067 C1066 1.388 . S
C1067 C1068 1.390 . S
C1068 C1067 1.390 . S
C1068 C1069 1.394 . S
C1068 C1074 1.465 . S
C1069 C1064 1.399 . S
C1069 C1068 1.394 . S
C1069 C1070 1.516 . S
C1070 C1069 1.516 . S
C1070 C1071 1.502 1_565 S
C1070 C1072 1.561 . S
C1070 C1073 1.526 . S
C1071 H1055 0.959 . S
C1071 H1056 0.959 . S
C1071 H1057 0.961 . S
C1071 C1070 1.502 1_545 S
C1072 H1058 0.960 . S
C1072 H1059 0.961 1_565 S
C1072 H1060 0.959 . S
C1072 C1070 1.561 . S
C1073 C1070 1.526 . S
C1073 C1074 1.396 . S
C1073 C1078 1.390 . S
C1074 C1068 1.465 . S
C1074 C1073 1.396 . S
C1074 C1075 1.399 . S
C1075 H1061 0.929 . S
C1075 C1074 1.399 . S
C1075 C1076 1.385 . S
C1076 H1062 0.936 . S
C1076 C1075 1.385 . S
C1076 C1077 1.389 . S
C1077 C1076 1.389 . S
C1077 C1078 1.387 . S
C1078 H1063 0.930 1_565 S
C1078 C1073 1.390 . S
C1078 C1077 1.387 . S
H1079 C1091 0.930 . S
H1080 C1093 0.930 . S
H1081 C1094 0.930 . S
H1082 C1098 0.959 . S
H1083 C1098 0.959 . S
H1084 C1098 0.961 . S
H1085 C1099 0.960 . S
H1086 C1099 0.961 . S
H1087 C1099 0.959 . S
H1088 C1102 0.929 . S
H1089 C1103 0.931 . S
H1090 C1105 0.930 . S
C1091 H1079 0.930 . S
C1091 C1092 1.399 . S
C1091 C1096 1.399 . S
C1092 C1091 1.399 . S
C1092 C1093 1.376 . S
C1093 H1080 0.930 . S
C1093 C1092 1.376 . S
C1093 C1094 1.388 . S
C1094 H1081 0.930 . S
C1094 C1093 1.388 . S
C1094 C1095 1.390 . S
C1095 C1094 1.390 . S
C1095 C1096 1.394 . S
C1095 C1101 1.465 . S
C1096 C1091 1.399 . S
C1096 C1095 1.394 . S
C1096 C1097 1.516 . S
C1097 C1096 1.516 . S
C1097 C1098 1.502 . S
C1097 C1099 1.561 . S
C1097 C1100 1.526 . S
C1098 H1082 0.959 . S
C1098 H1083 0.959 . S
C1098 H1084 0.961 . S
C1098 C1097 1.502 . S
C1099 H1085 0.960 . S
C1099 H1086 0.961 . S
C1099 H1087 0.959 . S
C1099 C1097 1.561 . S
C1100 C1097 1.526 . S
C1100 C1101 1.396 . S
C1100 C1105 1.390 . S
C1101 C1095 1.465 . S
C1101 C1100 1.396 . S
C1101 C1102 1.399 . S
C1102 H1088 0.929 . S
C1102 C1101 1.399 . S
C1102 C1103 1.385 . S
C1103 H1089 0.931 . S
C1103 C1102 1.385 . S
C1103 C1104 1.389 . S
C1104 C1103 1.389 . S
C1104 C1105 1.387 . S
C1105 H1090 0.930 . S
C1105 C1100 1.390 . S
C1105 C1104 1.387 . S
H1106 C1118 0.930 . S
H1107 C1120 0.930 . S
H1108 C1121 0.930 . S
H1109 C1125 0.959 . S
H1110 C1125 0.959 . S
H1111 C1125 0.961 . S
H1112 C1126 0.960 . S
H1113 C1126 0.961 . S
H1114 C1126 0.959 . S
H1115 C1129 0.929 . S
H1116 C1130 0.931 . S
H1117 C1132 0.930 . S
C1118 H1106 0.930 . S
C1118 C1119 1.399 . S
C1118 C1123 1.399 . S
C1119 C1118 1.399 . S
C1119 C1120 1.376 . S
C1120 H1107 0.930 . S
C1120 C1119 1.376 . S
C1120 C1121 1.388 . S
C1121 H1108 0.930 . S
C1121 C1120 1.388 . S
C1121 C1122 1.390 . S
C1122 C1121 1.390 . S
C1122 C1123 1.394 . S
C1122 C1128 1.465 . S
C1123 C1118 1.399 . S
C1123 C1122 1.394 . S
C1123 C1124 1.516 . S
C1124 C1123 1.516 . S
C1124 C1125 1.502 . S
C1124 C1126 1.561 . S
C1124 C1127 1.526 . S
C1125 H1109 0.959 . S
C1125 H1110 0.959 . S
C1125 H1111 0.961 . S
C1125 C1124 1.502 . S
C1126 H1112 0.960 . S
C1126 H1113 0.961 . S
C1126 H1114 0.959 . S
C1126 C1124 1.561 . S
C1127 C1124 1.526 . S
C1127 C1128 1.396 . S
C1127 C1132 1.390 . S
C1128 C1122 1.465 . S
C1128 C1127 1.396 . S
C1128 C1129 1.399 . S
C1129 H1115 0.929 . S
C1129 C1128 1.399 . S
C1129 C1130 1.385 . S
C1130 H1116 0.931 . S
C1130 C1129 1.385 . S
C1130 C1131 1.389 . S
C1131 C1130 1.389 . S
C1131 C1132 1.387 . S
C1132 H1117 0.930 . S
C1132 C1127 1.390 . S
C1132 C1131 1.387 . S
H1133 C1145 0.930 . S
H1134 C1147 0.930 . S
H1135 C1148 0.930 . S
H1136 C1152 0.959 . S
H1137 C1152 0.959 . S
H1138 C1152 0.961 . S
H1139 C1153 0.960 . S
H1140 C1153 0.961 . S
H1141 C1153 0.959 . S
H1142 C1156 0.929 . S
H1143 C1157 0.931 . S
H1144 C1159 0.930 . S
C1145 H1133 0.930 . S
C1145 C1146 1.399 . S
C1145 C1150 1.399 . S
C1146 C1145 1.399 . S
C1146 C1147 1.376 . S
C1147 H1134 0.930 . S
C1147 C1146 1.376 . S
C1147 C1148 1.388 . S
C1148 H1135 0.930 . S
C1148 C1147 1.388 . S
C1148 C1149 1.390 . S
C1149 C1148 1.390 . S
C1149 C1150 1.394 . S
C1149 C1155 1.465 . S
C1150 C1145 1.399 . S
C1150 C1149 1.394 . S
C1150 C1151 1.516 . S
C1151 C1150 1.516 . S
C1151 C1152 1.502 . S
C1151 C1153 1.561 . S
C1151 C1154 1.526 . S
C1152 H1136 0.959 . S
C1152 H1137 0.959 . S
C1152 H1138 0.961 . S
C1152 C1151 1.502 . S
C1153 H1139 0.960 . S
C1153 H1140 0.961 . S
C1153 H1141 0.959 . S
C1153 C1151 1.561 . S
C1154 C1151 1.526 . S
C1154 C1155 1.396 . S
C1154 C1159 1.390 . S
C1155 C1149 1.465 . S
C1155 C1154 1.396 . S
C1155 C1156 1.399 . S
C1156 H1142 0.929 . S
C1156 C1155 1.399 . S
C1156 C1157 1.385 . S
C1157 H1143 0.931 . S
C1157 C1156 1.385 . S
C1157 C1158 1.389 . S
C1158 C1157 1.389 . S
C1158 C1159 1.387 . S
C1159 H1144 0.930 . S
C1159 C1154 1.390 . S
C1159 C1158 1.387 . S
H1160 C1172 0.930 . S
H1161 C1174 0.930 . S
H1162 C1175 0.930 . S
H1163 C1179 0.959 . S
H1164 C1179 0.959 . S
H1165 C1179 0.961 . S
H1166 C1180 0.960 . S
H1167 C1180 0.961 . S
H1168 C1180 0.959 . S
H1169 C1183 0.929 . S
H1170 C1184 0.931 . S
H1171 C1186 0.930 . S
C1172 H1160 0.930 . S
C1172 C1173 1.399 . S
C1172 C1177 1.399 . S
C1173 C1172 1.399 . S
C1173 C1174 1.376 . S
C1174 H1161 0.930 . S
C1174 C1173 1.376 . S
C1174 C1175 1.388 . S
C1175 H1162 0.930 . S
C1175 C1174 1.388 . S
C1175 C1176 1.390 . S
C1176 C1175 1.390 . S
C1176 C1177 1.394 . S
C1176 C1182 1.465 . S
C1177 C1172 1.399 . S
C1177 C1176 1.394 . S
C1177 C1178 1.516 . S
C1178 C1177 1.516 . S
C1178 C1179 1.502 . S
C1178 C1180 1.561 . S
C1178 C1181 1.526 . S
C1179 H1163 0.959 . S
C1179 H1164 0.959 . S
C1179 H1165 0.961 . S
C1179 C1178 1.502 . S
C1180 H1166 0.960 . S
C1180 H1167 0.961 . S
C1180 H1168 0.959 . S
C1180 C1178 1.561 . S
C1181 C1178 1.526 . S
C1181 C1182 1.396 . S
C1181 C1186 1.390 . S
C1182 C1176 1.465 . S
C1182 C1181 1.396 . S
C1182 C1183 1.399 . S
C1183 H1169 0.929 . S
C1183 C1182 1.399 . S
C1183 C1184 1.385 . S
C1184 H1170 0.931 . S
C1184 C1183 1.385 . S
C1184 C1185 1.389 . S
C1185 C1184 1.389 . S
C1185 C1186 1.387 . S
C1186 H1171 0.930 . S
C1186 C1181 1.390 . S
C1186 C1185 1.387 . S
H1187 C1199 0.930 . S
H1188 C1201 0.930 . S
H1189 C1202 0.930 . S
H1190 C1206 0.959 . S
H1191 C1206 0.959 . S
H1192 C1206 0.961 . S
H1193 C1207 0.960 . S
H1194 C1207 0.961 . S
H1195 C1207 0.959 . S
H1196 C1210 0.929 . S
H1197 C1211 0.931 . S
H1198 C1213 0.930 . S
C1199 H1187 0.930 . S
C1199 C1200 1.399 . S
C1199 C1204 1.399 . S
C1200 C1199 1.399 . S
C1200 C1201 1.376 . S
C1201 H1188 0.930 . S
C1201 C1200 1.376 . S
C1201 C1202 1.388 . S
C1202 H1189 0.930 . S
C1202 C1201 1.388 . S
C1202 C1203 1.390 . S
C1203 C1202 1.390 . S
C1203 C1204 1.394 . S
C1203 C1209 1.465 . S
C1204 C1199 1.399 . S
C1204 C1203 1.394 . S
C1204 C1205 1.516 . S
C1205 C1204 1.516 . S
C1205 C1206 1.502 . S
C1205 C1207 1.561 . S
C1205 C1208 1.526 . S
C1206 H1190 0.959 . S
C1206 H1191 0.959 . S
C1206 H1192 0.961 . S
C1206 C1205 1.502 . S
C1207 H1193 0.960 . S
C1207 H1194 0.961 . S
C1207 H1195 0.959 . S
C1207 C1205 1.561 . S
C1208 C1205 1.526 . S
C1208 C1209 1.396 . S
C1208 C1213 1.390 . S
C1209 C1203 1.465 . S
C1209 C1208 1.396 . S
C1209 C1210 1.399 . S
C1210 H1196 0.929 . S
C1210 C1209 1.399 . S
C1210 C1211 1.385 . S
C1211 H1197 0.931 . S
C1211 C1210 1.385 . S
C1211 C1212 1.389 . S
C1212 C1211 1.389 . S
C1212 C1213 1.387 . S
C1213 H1198 0.930 . S
C1213 C1208 1.390 . S
C1213 C1212 1.387 . S
H1214 C1226 0.930 . S
H1215 C1228 0.930 . S
H1216 C1229 0.930 . S
H1217 C1233 0.959 . S
H1218 C1233 0.959 . S
H1219 C1233 0.961 . S
H1220 C1234 0.960 . S
H1221 C1234 0.961 . S
H1222 C1234 0.959 . S
H1223 C1237 0.929 . S
H1224 C1238 0.931 . S
H1225 C1240 0.930 . S
C1226 H1214 0.930 . S
C1226 C1227 1.399 . S
C1226 C1231 1.399 . S
C1227 C1226 1.399 . S
C1227 C1228 1.376 . S
C1228 H1215 0.930 . S
C1228 C1227 1.376 . S
C1228 C1229 1.388 . S
C1229 H1216 0.930 . S
C1229 C1228 1.388 . S
C1229 C1230 1.390 . S
C1230 C1229 1.390 . S
C1230 C1231 1.394 . S
C1230 C1236 1.465 . S
C1231 C1226 1.399 . S
C1231 C1230 1.394 . S
C1231 C1232 1.516 . S
C1232 C1231 1.516 . S
C1232 C1233 1.502 . S
C1232 C1234 1.561 . S
C1232 C1235 1.526 . S
C1233 H1217 0.959 . S
C1233 H1218 0.959 . S
C1233 H1219 0.961 . S
C1233 C1232 1.502 . S
C1234 H1220 0.960 . S
C1234 H1221 0.961 . S
C1234 H1222 0.959 . S
C1234 C1232 1.561 . S
C1235 C1232 1.526 . S
C1235 C1236 1.396 . S
C1235 C1240 1.390 . S
C1236 C1230 1.465 . S
C1236 C1235 1.396 . S
C1236 C1237 1.399 . S
C1237 H1223 0.929 . S
C1237 C1236 1.399 . S
C1237 C1238 1.385 . S
C1238 H1224 0.931 . S
C1238 C1237 1.385 . S
C1238 C1239 1.389 . S
C1239 C1238 1.389 . S
C1239 C1240 1.387 . S
C1240 H1225 0.930 . S
C1240 C1235 1.390 . S
C1240 C1239 1.387 . S
H1241 C1253 0.930 . S
H1242 C1255 0.930 . S
H1243 C1256 0.930 . S
H1244 C1260 0.959 . S
H1245 C1260 0.959 . S
H1246 C1260 0.961 . S
H1247 C1261 0.960 . S
H1248 C1261 0.961 . S
H1249 C1261 0.959 . S
H1250 C1264 0.929 . S
H1251 C1265 0.931 . S
H1252 C1267 0.930 . S
C1253 H1241 0.930 . S
C1253 C1254 1.399 . S
C1253 C1258 1.399 . S
C1254 C1253 1.399 . S
C1254 C1255 1.376 . S
C1255 H1242 0.930 . S
C1255 C1254 1.376 . S
C1255 C1256 1.388 . S
C1256 H1243 0.930 . S
C1256 C1255 1.388 . S
C1256 C1257 1.390 . S
C1257 C1256 1.390 . S
C1257 C1258 1.394 . S
C1257 C1263 1.465 . S
C1258 C1253 1.399 . S
C1258 C1257 1.394 . S
C1258 C1259 1.516 . S
C1259 C1258 1.516 . S
C1259 C1260 1.502 . S
C1259 C1261 1.561 . S
C1259 C1262 1.526 . S
C1260 H1244 0.959 . S
C1260 H1245 0.959 . S
C1260 H1246 0.961 . S
C1260 C1259 1.502 . S
C1261 H1247 0.960 . S
C1261 H1248 0.961 . S
C1261 H1249 0.959 . S
C1261 C1259 1.561 . S
C1262 C1259 1.526 . S
C1262 C1263 1.396 . S
C1262 C1267 1.390 . S
C1263 C1257 1.465 . S
C1263 C1262 1.396 . S
C1263 C1264 1.399 . S
C1264 H1250 0.929 . S
C1264 C1263 1.399 . S
C1264 C1265 1.385 . S
C1265 H1251 0.931 . S
C1265 C1264 1.385 . S
C1265 C1266 1.389 . S
C1266 C1265 1.389 . S
C1266 C1267 1.387 . S
C1267 H1252 0.930 . S
C1267 C1262 1.390 . S
C1267 C1266 1.387 . S
H1268 C1280 0.930 . S
H1269 C1282 0.930 . S
H1270 C1283 0.930 . S
H1271 C1287 0.959 . S
H1272 C1287 0.959 . S
H1273 C1287 0.961 . S
H1274 C1288 0.960 . S
H1275 C1288 0.961 . S
H1276 C1288 0.959 . S
H1277 C1291 0.929 . S
H1278 C1292 0.931 . S
H1279 C1294 0.930 . S
C1280 H1268 0.930 . S
C1280 C1281 1.399 . S
C1280 C1285 1.399 . S
C1281 C1280 1.399 . S
C1281 C1282 1.376 . S
C1282 H1269 0.930 . S
C1282 C1281 1.376 . S
C1282 C1283 1.388 . S
C1283 H1270 0.930 . S
C1283 C1282 1.388 . S
C1283 C1284 1.390 . S
C1284 C1283 1.390 . S
C1284 C1285 1.394 . S
C1284 C1290 1.465 . S
C1285 C1280 1.399 . S
C1285 C1284 1.394 . S
C1285 C1286 1.516 . S
C1286 C1285 1.516 . S
C1286 C1287 1.502 . S
C1286 C1288 1.561 . S
C1286 C1289 1.526 . S
C1287 H1271 0.959 . S
C1287 H1272 0.959 . S
C1287 H1273 0.961 . S
C1287 C1286 1.502 . S
C1288 H1274 0.960 . S
C1288 H1275 0.961 . S
C1288 H1276 0.959 . S
C1288 C1286 1.561 . S
C1289 C1286 1.526 . S
C1289 C1290 1.396 . S
C1289 C1294 1.390 . S
C1290 C1284 1.465 . S
C1290 C1289 1.396 . S
C1290 C1291 1.399 . S
C1291 H1277 0.929 . S
C1291 C1290 1.399 . S
C1291 C1292 1.385 . S
C1292 H1278 0.931 . S
C1292 C1291 1.385 . S
C1292 C1293 1.389 . S
C1293 C1292 1.389 . S
C1293 C1294 1.387 . S
C1294 H1279 0.930 . S
C1294 C1289 1.390 . S
C1294 C1293 1.387 . S
H1295 C1307 0.930 . S
H1296 C1309 0.930 . S
H1297 C1310 0.930 . S
H1298 C1314 0.959 . S
H1299 C1314 0.959 . S
H1300 C1314 0.961 . S
H1301 C1315 0.960 . S
H1302 C1315 0.961 . S
H1303 C1315 0.959 . S
H1304 C1318 0.929 . S
H1305 C1319 0.931 . S
H1306 C1321 0.930 . S
C1307 H1295 0.930 . S
C1307 C1308 1.399 . S
C1307 C1312 1.399 . S
C1308 C1307 1.399 . S
C1308 C1309 1.376 . S
C1309 H1296 0.930 . S
C1309 C1308 1.376 . S
C1309 C1310 1.388 . S
C1310 H1297 0.930 . S
C1310 C1309 1.388 . S
C1310 C1311 1.390 . S
C1311 C1310 1.390 . S
C1311 C1312 1.394 . S
C1311 C1317 1.465 . S
C1312 C1307 1.399 . S
C1312 C1311 1.394 . S
C1312 C1313 1.516 . S
C1313 C1312 1.516 . S
C1313 C1314 1.502 . S
C1313 C1315 1.561 . S
C1313 C1316 1.526 . S
C1314 H1298 0.959 . S
C1314 H1299 0.959 . S
C1314 H1300 0.961 . S
C1314 C1313 1.502 . S
C1315 H1301 0.960 . S
C1315 H1302 0.961 . S
C1315 H1303 0.959 . S
C1315 C1313 1.561 . S
C1316 C1313 1.526 . S
C1316 C1317 1.396 . S
C1316 C1321 1.390 . S
C1317 C1311 1.465 . S
C1317 C1316 1.396 . S
C1317 C1318 1.399 . S
C1318 H1304 0.929 . S
C1318 C1317 1.399 . S
C1318 C1319 1.385 . S
C1319 H1305 0.931 . S
C1319 C1318 1.385 . S
C1319 C1320 1.389 . S
C1320 C1319 1.389 . S
C1320 C1321 1.387 . S
C1321 H1306 0.930 . S
C1321 C1316 1.390 . S
C1321 C1320 1.387 . S
H1322 C1334 0.930 . S
H1323 C1336 0.930 . S
H1324 C1337 0.930 . S
H1325 C1341 0.959 . S
H1326 C1341 0.959 . S
H1327 C1341 0.961 . S
H1328 C1342 0.960 . S
H1329 C1342 0.961 . S
H1330 C1342 0.959 . S
H1331 C1345 0.929 . S
H1332 C1346 0.931 . S
H1333 C1348 0.930 . S
C1334 H1322 0.930 . S
C1334 C1335 1.399 . S
C1334 C1339 1.399 . S
C1335 C1334 1.399 . S
C1335 C1336 1.376 . S
C1336 H1323 0.930 . S
C1336 C1335 1.376 . S
C1336 C1337 1.388 . S
C1337 H1324 0.930 . S
C1337 C1336 1.388 . S
C1337 C1338 1.390 . S
C1338 C1337 1.390 . S
C1338 C1339 1.394 . S
C1338 C1344 1.465 . S
C1339 C1334 1.399 . S
C1339 C1338 1.394 . S
C1339 C1340 1.516 . S
C1340 C1339 1.516 . S
C1340 C1341 1.502 . S
C1340 C1342 1.561 . S
C1340 C1343 1.526 . S
C1341 H1325 0.959 . S
C1341 H1326 0.959 . S
C1341 H1327 0.961 . S
C1341 C1340 1.502 . S
C1342 H1328 0.960 . S
C1342 H1329 0.961 . S
C1342 H1330 0.959 . S
C1342 C1340 1.561 . S
C1343 C1340 1.526 . S
C1343 C1344 1.396 . S
C1343 C1348 1.390 . S
C1344 C1338 1.465 . S
C1344 C1343 1.396 . S
C1344 C1345 1.399 . S
C1345 H1331 0.929 . S
C1345 C1344 1.399 . S
C1345 C1346 1.385 . S
C1346 H1332 0.931 . S
C1346 C1345 1.385 . S
C1346 C1347 1.389 . S
C1347 C1346 1.389 . S
C1347 C1348 1.387 . S
C1348 H1333 0.930 . S
C1348 C1343 1.390 . S
C1348 C1347 1.387 . S
H1349 C1361 0.930 . S
H1350 C1363 0.930 . S
H1351 C1364 0.930 . S
H1352 C1368 0.959 . S
H1353 C1368 0.959 . S
H1354 C1368 0.961 . S
H1355 C1369 0.960 . S
H1356 C1369 0.961 . S
H1357 C1369 0.959 . S
H1358 C1372 0.929 . S
H1359 C1373 0.931 . S
H1360 C1375 0.930 . S
C1361 H1349 0.930 . S
C1361 C1362 1.399 . S
C1361 C1366 1.399 . S
C1362 C1361 1.399 . S
C1362 C1363 1.376 . S
C1363 H1350 0.930 . S
C1363 C1362 1.376 . S
C1363 C1364 1.388 . S
C1364 H1351 0.930 . S
C1364 C1363 1.388 . S
C1364 C1365 1.390 . S
C1365 C1364 1.390 . S
C1365 C1366 1.394 . S
C1365 C1371 1.465 . S
C1366 C1361 1.399 . S
C1366 C1365 1.394 . S
C1366 C1367 1.516 . S
C1367 C1366 1.516 . S
C1367 C1368 1.502 . S
C1367 C1369 1.561 . S
C1367 C1370 1.526 . S
C1368 H1352 0.959 . S
C1368 H1353 0.959 . S
C1368 H1354 0.961 . S
C1368 C1367 1.502 . S
C1369 H1355 0.960 . S
C1369 H1356 0.961 . S
C1369 H1357 0.959 . S
C1369 C1367 1.561 . S
C1370 C1367 1.526 . S
C1370 C1371 1.396 . S
C1370 C1375 1.390 . S
C1371 C1365 1.465 . S
C1371 C1370 1.396 . S
C1371 C1372 1.399 . S
C1372 H1358 0.929 . S
C1372 C1371 1.399 . S
C1372 C1373 1.385 . S
C1373 H1359 0.931 . S
C1373 C1372 1.385 . S
C1373 C1374 1.389 . S
C1374 C1373 1.389 . S
C1374 C1375 1.387 . S
C1375 H1360 0.930 . S
C1375 C1370 1.390 . S
C1375 C1374 1.387 . S
H1376 C1388 0.930 . S
H1377 C1390 0.930 . S
H1378 C1391 0.930 . S
H1379 C1395 0.959 . S
H1380 C1395 0.959 . S
H1381 C1395 0.961 . S
H1382 C1396 0.960 . S
H1383 C1396 0.961 . S
H1384 C1396 0.959 . S
H1385 C1399 0.929 . S
H1386 C1400 0.931 . S
H1387 C1402 0.930 . S
C1388 H1376 0.930 . S
C1388 C1389 1.399 . S
C1388 C1393 1.399 . S
C1389 C1388 1.399 . S
C1389 C1390 1.376 . S
C1390 H1377 0.930 . S
C1390 C1389 1.376 . S
C1390 C1391 1.388 . S
C1391 H1378 0.930 . S
C1391 C1390 1.388 . S
C1391 C1392 1.390 . S
C1392 C1391 1.390 . S
C1392 C1393 1.394 . S
C1392 C1398 1.465 . S
C1393 C1388 1.399 . S
C1393 C1392 1.394 . S
C1393 C1394 1.516 . S
C1394 C1393 1.516 . S
C1394 C1395 1.502 . S
C1394 C1396 1.561 . S
C1394 C1397 1.526 . S
C1395 H1379 0.959 . S
C1395 H1380 0.959 . S
C1395 H1381 0.961 . S
C1395 C1394 1.502 . S
C1396 H1382 0.960 . S
C1396 H1383 0.961 . S
C1396 H1384 0.959 . S
C1396 C1394 1.561 . S
C1397 C1394 1.526 . S
C1397 C1398 1.396 . S
C1397 C1402 1.390 . S
C1398 C1392 1.465 . S
C1398 C1397 1.396 . S
C1398 C1399 1.399 . S
C1399 H1385 0.929 . S
C1399 C1398 1.399 . S
C1399 C1400 1.385 . S
C1400 H1386 0.931 . S
C1400 C1399 1.385 . S
C1400 C1401 1.389 . S
C1401 C1400 1.389 . S
C1401 C1402 1.387 . S
C1402 H1387 0.930 . S
C1402 C1397 1.390 . S
C1402 C1401 1.387 . S
H1403 C1415 0.930 . S
H1404 C1417 0.930 . S
H1405 C1418 0.930 . S
H1406 C1422 0.959 . S
H1407 C1422 0.959 . S
H1408 C1422 0.961 . S
H1409 C1423 0.960 . S
H1410 C1423 0.961 . S
H1411 C1423 0.959 . S
H1412 C1426 0.929 . S
H1413 C1427 0.931 . S
H1414 C1429 0.930 . S
C1415 H1403 0.930 . S
C1415 C1416 1.399 . S
C1415 C1420 1.399 . S
C1416 C1415 1.399 . S
C1416 C1417 1.376 . S
C1417 H1404 0.930 . S
C1417 C1416 1.376 . S
C1417 C1418 1.388 . S
C1418 H1405 0.930 . S
C1418 C1417 1.388 . S
C1418 C1419 1.390 . S
C1419 C1418 1.390 . S
C1419 C1420 1.394 . S
C1419 C1425 1.465 . S
C1420 C1415 1.399 . S
C1420 C1419 1.394 . S
C1420 C1421 1.516 . S
C1421 C1420 1.516 . S
C1421 C1422 1.502 . S
C1421 C1423 1.561 . S
C1421 C1424 1.526 . S
C1422 H1406 0.959 . S
C1422 H1407 0.959 . S
C1422 H1408 0.961 . S
C1422 C1421 1.502 . S
C1423 H1409 0.960 . S
C1423 H1410 0.961 . S
C1423 H1411 0.959 . S
C1423 C1421 1.561 . S
C1424 C1421 1.526 . S
C1424 C1425 1.396 . S
C1424 C1429 1.390 . S
C1425 C1419 1.465 . S
C1425 C1424 1.396 . S
C1425 C1426 1.399 . S
C1426 H1412 0.929 . S
C1426 C1425 1.399 . S
C1426 C1427 1.385 . S
C1427 H1413 0.931 . S
C1427 C1426 1.385 . S
C1427 C1428 1.389 . S
C1428 C1427 1.389 . S
C1428 C1429 1.387 . S
C1429 H1414 0.930 . S
C1429 C1424 1.390 . S
C1429 C1428 1.387 . S
H1430 C1442 0.930 . S
H1431 C1444 0.930 . S
H1432 C1445 0.930 . S
H1433 C1449 0.959 . S
H1434 C1449 0.959 . S
H1435 C1449 0.961 . S
H1436 C1450 0.960 . S
H1437 C1450 0.961 . S
H1438 C1450 0.959 . S
H1439 C1453 0.929 . S
H1440 C1454 0.931 . S
H1441 C1456 0.930 . S
C1442 H1430 0.930 . S
C1442 C1443 1.399 . S
C1442 C1447 1.399 . S
C1443 C1442 1.399 . S
C1443 C1444 1.376 . S
C1444 H1431 0.930 . S
C1444 C1443 1.376 . S
C1444 C1445 1.388 . S
C1445 H1432 0.930 . S
C1445 C1444 1.388 . S
C1445 C1446 1.390 . S
C1446 C1445 1.390 . S
C1446 C1447 1.394 . S
C1446 C1452 1.465 . S
C1447 C1442 1.399 . S
C1447 C1446 1.394 . S
C1447 C1448 1.516 . S
C1448 C1447 1.516 . S
C1448 C1449 1.502 . S
C1448 C1450 1.561 . S
C1448 C1451 1.526 . S
C1449 H1433 0.959 . S
C1449 H1434 0.959 . S
C1449 H1435 0.961 . S
C1449 C1448 1.502 . S
C1450 H1436 0.960 . S
C1450 H1437 0.961 . S
C1450 H1438 0.959 . S
C1450 C1448 1.561 . S
C1451 C1448 1.526 . S
C1451 C1452 1.396 . S
C1451 C1456 1.390 . S
C1452 C1446 1.465 . S
C1452 C1451 1.396 . S
C1452 C1453 1.399 . S
C1453 H1439 0.929 . S
C1453 C1452 1.399 . S
C1453 C1454 1.385 . S
C1454 H1440 0.931 . S
C1454 C1453 1.385 . S
C1454 C1455 1.389 . S
C1455 C1454 1.389 . S
C1455 C1456 1.387 . S
C1456 H1441 0.930 . S
C1456 C1451 1.390 . S
C1456 C1455 1.387 . S
H1457 C1469 0.930 . S
H1458 C1471 0.930 . S
H1459 C1472 0.930 . S
H1460 C1476 0.959 . S
H1461 C1476 0.959 . S
H1462 C1476 0.961 . S
H1463 C1477 0.960 . S
H1464 C1477 0.961 . S
H1465 C1477 0.959 . S
H1466 C1480 0.929 . S
H1467 C1481 0.931 . S
H1468 C1483 0.930 . S
C1469 H1457 0.930 . S
C1469 C1470 1.399 . S
C1469 C1474 1.399 . S
C1470 C1469 1.399 . S
C1470 C1471 1.376 . S
C1471 H1458 0.930 . S
C1471 C1470 1.376 . S
C1471 C1472 1.388 . S
C1472 H1459 0.930 . S
C1472 C1471 1.388 . S
C1472 C1473 1.390 . S
C1473 C1472 1.390 . S
C1473 C1474 1.394 . S
C1473 C1479 1.465 . S
C1474 C1469 1.399 . S
C1474 C1473 1.394 . S
C1474 C1475 1.516 . S
C1475 C1474 1.516 . S
C1475 C1476 1.502 . S
C1475 C1477 1.561 . S
C1475 C1478 1.526 . S
C1476 H1460 0.959 . S
C1476 H1461 0.959 . S
C1476 H1462 0.961 . S
C1476 C1475 1.502 . S
C1477 H1463 0.960 . S
C1477 H1464 0.961 . S
C1477 H1465 0.959 . S
C1477 C1475 1.561 . S
C1478 C1475 1.526 . S
C1478 C1479 1.396 . S
C1478 C1483 1.390 . S
C1479 C1473 1.465 . S
C1479 C1478 1.396 . S
C1479 C1480 1.399 . S
C1480 H1466 0.929 . S
C1480 C1479 1.399 . S
C1480 C1481 1.385 . S
C1481 H1467 0.931 . S
C1481 C1480 1.385 . S
C1481 C1482 1.389 . S
C1482 C1481 1.389 . S
C1482 C1483 1.387 . S
C1483 H1468 0.930 . S
C1483 C1478 1.390 . S
C1483 C1482 1.387 . S
H1484 C1496 0.930 . S
H1485 C1498 0.930 . S
H1486 C1499 0.930 . S
H1487 C1503 0.959 . S
H1488 C1503 0.959 . S
H1489 C1503 0.961 . S
H1490 C1504 0.960 . S
H1491 C1504 0.961 . S
H1492 C1504 0.959 . S
H1493 C1507 0.929 . S
H1494 C1508 0.931 . S
H1495 C1510 0.930 . S
C1496 H1484 0.930 . S
C1496 C1497 1.399 . S
C1496 C1501 1.399 . S
C1497 C1496 1.399 . S
C1497 C1498 1.376 . S
C1498 H1485 0.930 . S
C1498 C1497 1.376 . S
C1498 C1499 1.388 . S
C1499 H1486 0.930 . S
C1499 C1498 1.388 . S
C1499 C1500 1.390 . S
C1500 C1499 1.390 . S
C1500 C1501 1.394 . S
C1500 C1506 1.465 . S
C1501 C1496 1.399 . S
C1501 C1500 1.394 . S
C1501 C1502 1.516 . S
C1502 C1501 1.516 . S
C1502 C1503 1.502 . S
C1502 C1504 1.561 . S
C1502 C1505 1.526 . S
C1503 H1487 0.959 . S
C1503 H1488 0.959 . S
C1503 H1489 0.961 . S
C1503 C1502 1.502 . S
C1504 H1490 0.960 . S
C1504 H1491 0.961 . S
C1504 H1492 0.959 . S
C1504 C1502 1.561 . S
C1505 C1502 1.526 . S
C1505 C1506 1.396 . S
C1505 C1510 1.390 . S
C1506 C1500 1.465 . S
C1506 C1505 1.396 . S
C1506 C1507 1.399 . S
C1507 H1493 0.929 . S
C1507 C1506 1.399 . S
C1507 C1508 1.385 . S
C1508 H1494 0.931 . S
C1508 C1507 1.385 . S
C1508 C1509 1.389 . S
C1509 C1508 1.389 . S
C1509 C1510 1.387 . S
C1510 H1495 0.930 . S
C1510 C1505 1.390 . S
C1510 C1509 1.387 . S
H1511 C1523 0.930 . S
H1512 C1525 0.930 . S
H1513 C1526 0.930 . S
H1514 C1530 0.959 . S
H1515 C1530 0.959 . S
H1516 C1530 0.961 . S
H1517 C1531 0.960 . S
H1518 C1531 0.961 . S
H1519 C1531 0.959 . S
H1520 C1534 0.929 . S
H1521 C1535 0.931 . S
H1522 C1537 0.930 . S
C1523 H1511 0.930 . S
C1523 C1524 1.399 . S
C1523 C1528 1.399 . S
C1524 C1523 1.399 . S
C1524 C1525 1.376 . S
C1525 H1512 0.930 . S
C1525 C1524 1.376 . S
C1525 C1526 1.388 . S
C1526 H1513 0.930 . S
C1526 C1525 1.388 . S
C1526 C1527 1.390 . S
C1527 C1526 1.390 . S
C1527 C1528 1.394 . S
C1527 C1533 1.465 . S
C1528 C1523 1.399 . S
C1528 C1527 1.394 . S
C1528 C1529 1.516 . S
C1529 C1528 1.516 . S
C1529 C1530 1.502 . S
C1529 C1531 1.561 . S
C1529 C1532 1.526 . S
C1530 H1514 0.959 . S
C1530 H1515 0.959 . S
C1530 H1516 0.961 . S
C1530 C1529 1.502 . S
C1531 H1517 0.960 . S
C1531 H1518 0.961 . S
C1531 H1519 0.959 . S
C1531 C1529 1.561 . S
C1532 C1529 1.526 . S
C1532 C1533 1.396 . S
C1532 C1537 1.390 . S
C1533 C1527 1.465 . S
C1533 C1532 1.396 . S
C1533 C1534 1.399 . S
C1534 H1520 0.929 . S
C1534 C1533 1.399 . S
C1534 C1535 1.385 . S
C1535 H1521 0.931 . S
C1535 C1534 1.385 . S
C1535 C1536 1.389 . S
C1536 C1535 1.389 . S
C1536 C1537 1.387 . S
C1537 H1522 0.930 . S
C1537 C1532 1.390 . S
C1537 C1536 1.387 . S
H1538 C1550 0.930 . S
H1539 C1552 0.930 . S
H1540 C1553 0.930 . S
H1541 C1557 0.959 . S
H1542 C1557 0.959 . S
H1543 C1557 0.961 . S
H1544 C1558 0.960 . S
H1545 C1558 0.961 . S
H1546 C1558 0.959 . S
H1547 C1561 0.929 . S
H1548 C1562 0.931 . S
H1549 C1564 0.930 . S
C1550 H1538 0.930 . S
C1550 C1551 1.399 . S
C1550 C1555 1.399 . S
C1551 C1550 1.399 . S
C1551 C1552 1.376 . S
C1552 H1539 0.930 . S
C1552 C1551 1.376 . S
C1552 C1553 1.388 . S
C1553 H1540 0.930 . S
C1553 C1552 1.388 . S
C1553 C1554 1.390 . S
C1554 C1553 1.390 . S
C1554 C1555 1.394 . S
C1554 C1560 1.465 . S
C1555 C1550 1.399 . S
C1555 C1554 1.394 . S
C1555 C1556 1.516 . S
C1556 C1555 1.516 . S
C1556 C1557 1.502 . S
C1556 C1558 1.561 . S
C1556 C1559 1.526 . S
C1557 H1541 0.959 . S
C1557 H1542 0.959 . S
C1557 H1543 0.961 . S
C1557 C1556 1.502 . S
C1558 H1544 0.960 . S
C1558 H1545 0.961 . S
C1558 H1546 0.959 . S
C1558 C1556 1.561 . S
C1559 C1556 1.526 . S
C1559 C1560 1.396 . S
C1559 C1564 1.390 . S
C1560 C1554 1.465 . S
C1560 C1559 1.396 . S
C1560 C1561 1.399 . S
C1561 H1547 0.929 . S
C1561 C1560 1.399 . S
C1561 C1562 1.385 . S
C1562 H1548 0.931 . S
C1562 C1561 1.385 . S
C1562 C1563 1.389 . S
C1563 C1562 1.389 . S
C1563 C1564 1.387 . S
C1564 H1549 0.930 . S
C1564 C1559 1.390 . S
C1564 C1563 1.387 . S
H1565 C1577 0.930 . S
H1566 C1579 0.930 . S
H1567 C1580 0.930 . S
H1568 C1584 0.959 . S
H1569 C1584 0.959 . S
H1570 C1584 0.961 . S
H1571 C1585 0.960 . S
H1572 C1585 0.961 . S
H1573 C1585 0.959 . S
H1574 C1588 0.929 . S
H1575 C1589 0.931 . S
H1576 C1591 0.930 . S
C1577 H1565 0.930 . S
C1577 C1578 1.399 . S
C1577 C1582 1.399 . S
C1578 C1577 1.399 . S
C1578 C1579 1.376 . S
C1579 H1566 0.930 . S
C1579 C1578 1.376 . S
C1579 C1580 1.388 . S
C1580 H1567 0.930 . S
C1580 C1579 1.388 . S
C1580 C1581 1.390 . S
C1581 C1580 1.390 . S
C1581 C1582 1.394 . S
C1581 C1587 1.465 . S
C1582 C1577 1.399 . S
C1582 C1581 1.394 . S
C1582 C1583 1.516 . S
C1583 C1582 1.516 . S
C1583 C1584 1.502 . S
C1583 C1585 1.561 . S
C1583 C1586 1.526 . S
C1584 H1568 0.959 . S
C1584 H1569 0.959 . S
C1584 H1570 0.961 . S
C1584 C1583 1.502 . S
C1585 H1571 0.960 . S
C1585 H1572 0.961 . S
C1585 H1573 0.959 . S
C1585 C1583 1.561 . S
C1586 C1583 1.526 . S
C1586 C1587 1.396 . S
C1586 C1591 1.390 . S
C1587 C1581 1.465 . S
C1587 C1586 1.396 . S
C1587 C1588 1.399 . S
C1588 H1574 0.929 . S
C1588 C1587 1.399 . S
C1588 C1589 1.385 . S
C1589 H1575 0.931 . S
C1589 C1588 1.385 . S
C1589 C1590 1.389 . S
C1590 C1589 1.389 . S
C1590 C1591 1.387 . S
C1591 H1576 0.930 . S
C1591 C1586 1.390 . S
C1591 C1590 1.387 . S
H1592 C1604 0.930 . S
H1593 C1606 0.930 . S
H1594 C1607 0.930 . S
H1595 C1611 0.959 . S
H1596 C1611 0.959 . S
H1597 C1611 0.961 . S
H1598 C1612 0.960 . S
H1599 C1612 0.961 . S
H1600 C1612 0.959 . S
H1601 C1615 0.929 . S
H1602 C1616 0.931 . S
H1603 C1618 0.930 . S
C1604 H1592 0.930 . S
C1604 C1605 1.399 . S
C1604 C1609 1.399 . S
C1605 C1604 1.399 . S
C1605 C1606 1.376 . S
C1606 H1593 0.930 . S
C1606 C1605 1.376 . S
C1606 C1607 1.388 . S
C1607 H1594 0.930 . S
C1607 C1606 1.388 . S
C1607 C1608 1.390 . S
C1608 C1607 1.390 . S
C1608 C1609 1.394 . S
C1608 C1614 1.465 . S
C1609 C1604 1.399 . S
C1609 C1608 1.394 . S
C1609 C1610 1.516 . S
C1610 C1609 1.516 . S
C1610 C1611 1.502 . S
C1610 C1612 1.561 . S
C1610 C1613 1.526 . S
C1611 H1595 0.959 . S
C1611 H1596 0.959 . S
C1611 H1597 0.961 . S
C1611 C1610 1.502 . S
C1612 H1598 0.960 . S
C1612 H1599 0.961 . S
C1612 H1600 0.959 . S
C1612 C1610 1.561 . S
C1613 C1610 1.526 . S
C1613 C1614 1.396 . S
C1613 C1618 1.390 . S
C1614 C1608 1.465 . S
C1614 C1613 1.396 . S
C1614 C1615 1.399 . S
C1615 H1601 0.929 . S
C1615 C1614 1.399 . S
C1615 C1616 1.385 . S
C1616 H1602 0.931 . S
C1616 C1615 1.385 . S
C1616 C1617 1.389 . S
C1617 C1616 1.389 . S
C1617 C1618 1.387 . S
C1618 H1603 0.930 . S
C1618 C1613 1.390 . S
C1618 C1617 1.387 . S
H1619 C1631 0.930 . S
H1620 C1633 0.930 . S
H1621 C1634 0.930 . S
H1622 C1638 0.959 . S
H1623 C1638 0.959 . S
H1624 C1638 0.961 . S
H1625 C1639 0.960 . S
H1626 C1639 0.961 . S
H1627 C1639 0.959 . S
H1628 C1642 0.929 . S
H1629 C1643 0.931 . S
H1630 C1645 0.930 . S
C1631 H1619 0.930 . S
C1631 C1632 1.399 . S
C1631 C1636 1.399 . S
C1632 C1631 1.399 . S
C1632 C1633 1.376 . S
C1633 H1620 0.930 . S
C1633 C1632 1.376 . S
C1633 C1634 1.388 . S
C1634 H1621 0.930 . S
C1634 C1633 1.388 . S
C1634 C1635 1.390 . S
C1635 C1634 1.390 . S
C1635 C1636 1.394 . S
C1635 C1641 1.465 . S
C1636 C1631 1.399 . S
C1636 C1635 1.394 . S
C1636 C1637 1.516 . S
C1637 C1636 1.516 . S
C1637 C1638 1.502 . S
C1637 C1639 1.561 . S
C1637 C1640 1.526 . S
C1638 H1622 0.959 . S
C1638 H1623 0.959 . S
C1638 H1624 0.961 . S
C1638 C1637 1.502 . S
C1639 H1625 0.960 . S
C1639 H1626 0.961 . S
C1639 H1627 0.959 . S
C1639 C1637 1.561 . S
C1640 C1637 1.526 . S
C1640 C1641 1.396 . S
C1640 C1645 1.390 . S
C1641 C1635 1.465 . S
C1641 C1640 1.396 . S
C1641 C1642 1.399 . S
C1642 H1628 0.929 . S
C1642 C1641 1.399 . S
C1642 C1643 1.385 . S
C1643 H1629 0.931 . S
C1643 C1642 1.385 . S
C1643 C1644 1.389 . S
C1644 C1643 1.389 . S
C1644 C1645 1.387 . S
C1645 H1630 0.930 . S
C1645 C1640 1.390 . S
C1645 C1644 1.387 . S
H1646 C1658 0.930 . S
H1647 C1660 0.930 . S
H1648 C1661 0.930 . S
H1649 C1665 0.959 . S
H1650 C1665 0.959 . S
H1651 C1665 0.961 . S
H1652 C1666 0.960 . S
H1653 C1666 0.961 . S
H1654 C1666 0.959 . S
H1655 C1669 0.929 . S
H1656 C1670 0.931 . S
H1657 C1672 0.930 . S
C1658 H1646 0.930 . S
C1658 C1659 1.399 . S
C1658 C1663 1.399 . S
C1659 C1658 1.399 . S
C1659 C1660 1.376 . S
C1660 H1647 0.930 . S
C1660 C1659 1.376 . S
C1660 C1661 1.388 . S
C1661 H1648 0.930 . S
C1661 C1660 1.388 . S
C1661 C1662 1.390 . S
C1662 C1661 1.390 . S
C1662 C1663 1.394 . S
C1662 C1668 1.465 . S
C1663 C1658 1.399 . S
C1663 C1662 1.394 . S
C1663 C1664 1.516 . S
C1664 C1663 1.516 . S
C1664 C1665 1.502 . S
C1664 C1666 1.561 . S
C1664 C1667 1.526 . S
C1665 H1649 0.959 . S
C1665 H1650 0.959 . S
C1665 H1651 0.961 . S
C1665 C1664 1.502 . S
C1666 H1652 0.960 . S
C1666 H1653 0.961 . S
C1666 H1654 0.959 . S
C1666 C1664 1.561 . S
C1667 C1664 1.526 . S
C1667 C1668 1.396 . S
C1667 C1672 1.390 . S
C1668 C1662 1.465 . S
C1668 C1667 1.396 . S
C1668 C1669 1.399 . S
C1669 H1655 0.929 . S
C1669 C1668 1.399 . S
C1669 C1670 1.385 . S
C1670 H1656 0.931 . S
C1670 C1669 1.385 . S
C1670 C1671 1.389 . S
C1671 C1670 1.389 . S
C1671 C1672 1.387 . S
C1672 H1657 0.930 . S
C1672 C1667 1.390 . S
C1672 C1671 1.387 . S
H1673 C1685 0.930 . S
H1674 C1687 0.930 . S
H1675 C1688 0.930 . S
H1676 C1692 0.959 . S
H1677 C1692 0.959 . S
H1678 C1692 0.961 . S
H1679 C1693 0.960 . S
H1680 C1693 0.961 . S
H1681 C1693 0.959 . S
H1682 C1696 0.929 . S
H1683 C1697 0.931 . S
H1684 C1699 0.930 . S
C1685 H1673 0.930 . S
C1685 C1686 1.399 . S
C1685 C1690 1.399 . S
C1686 C1685 1.399 . S
C1686 C1687 1.376 . S
C1687 H1674 0.930 . S
C1687 C1686 1.376 . S
C1687 C1688 1.388 . S
C1688 H1675 0.930 . S
C1688 C1687 1.388 . S
C1688 C1689 1.390 . S
C1689 C1688 1.390 . S
C1689 C1690 1.394 . S
C1689 C1695 1.465 . S
C1690 C1685 1.399 . S
C1690 C1689 1.394 . S
C1690 C1691 1.516 . S
C1691 C1690 1.516 . S
C1691 C1692 1.502 . S
C1691 C1693 1.561 . S
C1691 C1694 1.526 . S
C1692 H1676 0.959 . S
C1692 H1677 0.959 . S
C1692 H1678 0.961 . S
C1692 C1691 1.502 . S
C1693 H1679 0.960 . S
C1693 H1680 0.961 . S
C1693 H1681 0.959 . S
C1693 C1691 1.561 . S
C1694 C1691 1.526 . S
C1694 C1695 1.396 . S
C1694 C1699 1.390 . S
C1695 C1689 1.465 . S
C1695 C1694 1.396 . S
C1695 C1696 1.399 . S
C1696 H1682 0.929 . S
C1696 C1695 1.399 . S
C1696 C1697 1.385 . S
C1697 H1683 0.931 . S
C1697 C1696 1.385 . S
C1697 C1698 1.389 . S
C1698 C1697 1.389 . S
C1698 C1699 1.387 . S
C1699 H1684 0.930 . S
C1699 C1694 1.390 . S
C1699 C1698 1.387 . S
H1700 C1712 0.930 . S
H1701 C1714 0.930 . S
H1702 C1715 0.930 . S
H1703 C1719 0.959 . S
H1704 C1719 0.959 . S
H1705 C1719 0.961 . S
H1706 C1720 0.960 . S
H1707 C1720 0.961 . S
H1708 C1720 0.959 . S
H1709 C1723 0.929 . S
H1710 C1724 0.931 . S
H1711 C1726 0.930 . S
C1712 H1700 0.930 . S
C1712 C1713 1.399 . S
C1712 C1717 1.399 . S
C1713 C1712 1.399 . S
C1713 C1714 1.376 . S
C1714 H1701 0.930 . S
C1714 C1713 1.376 . S
C1714 C1715 1.388 . S
C1715 H1702 0.930 . S
C1715 C1714 1.388 . S
C1715 C1716 1.390 . S
C1716 C1715 1.390 . S
C1716 C1717 1.394 . S
C1716 C1722 1.465 . S
C1717 C1712 1.399 . S
C1717 C1716 1.394 . S
C1717 C1718 1.516 . S
C1718 C1717 1.516 . S
C1718 C1719 1.502 . S
C1718 C1720 1.561 . S
C1718 C1721 1.526 . S
C1719 H1703 0.959 . S
C1719 H1704 0.959 . S
C1719 H1705 0.961 . S
C1719 C1718 1.502 . S
C1720 H1706 0.960 . S
C1720 H1707 0.961 . S
C1720 H1708 0.959 . S
C1720 C1718 1.561 . S
C1721 C1718 1.526 . S
C1721 C1722 1.396 . S
C1721 C1726 1.390 . S
C1722 C1716 1.465 . S
C1722 C1721 1.396 . S
C1722 C1723 1.399 . S
C1723 H1709 0.929 . S
C1723 C1722 1.399 . S
C1723 C1724 1.385 . S
C1724 H1710 0.931 . S
C1724 C1723 1.385 . S
C1724 C1725 1.389 . S
C1725 C1724 1.389 . S
C1725 C1726 1.387 . S
C1726 H1711 0.930 . S
C1726 C1721 1.390 . S
C1726 C1725 1.387 . S
H1727 C1739 0.930 . S
H1728 C1741 0.930 . S
H1729 C1742 0.930 . S
H1730 C1746 0.959 . S
H1731 C1746 0.959 . S
H1732 C1746 0.961 . S
H1733 C1747 0.960 . S
H1734 C1747 0.961 . S
H1735 C1747 0.959 . S
H1736 C1750 0.929 . S
H1737 C1751 0.931 . S
H1738 C1753 0.930 . S
C1739 H1727 0.930 . S
C1739 C1740 1.399 . S
C1739 C1744 1.399 . S
C1740 C1739 1.399 . S
C1740 C1741 1.376 . S
C1741 H1728 0.930 . S
C1741 C1740 1.376 . S
C1741 C1742 1.388 . S
C1742 H1729 0.930 . S
C1742 C1741 1.388 . S
C1742 C1743 1.390 . S
C1743 C1742 1.390 . S
C1743 C1744 1.394 . S
C1743 C1749 1.465 . S
C1744 C1739 1.399 . S
C1744 C1743 1.394 . S
C1744 C1745 1.516 . S
C1745 C1744 1.516 . S
C1745 C1746 1.502 . S
C1745 C1747 1.561 . S
C1745 C1748 1.526 . S
C1746 H1730 0.959 . S
C1746 H1731 0.959 . S
C1746 H1732 0.961 . S
C1746 C1745 1.502 . S
C1747 H1733 0.960 . S
C1747 H1734 0.961 . S
C1747 H1735 0.959 . S
C1747 C1745 1.561 . S
C1748 C1745 1.526 . S
C1748 C1749 1.396 . S
C1748 C1753 1.390 . S
C1749 C1743 1.465 . S
C1749 C1748 1.396 . S
C1749 C1750 1.399 . S
C1750 H1736 0.929 . S
C1750 C1749 1.399 . S
C1750 C1751 1.385 . S
C1751 H1737 0.931 . S
C1751 C1750 1.385 . S
C1751 C1752 1.389 . S
C1752 C1751 1.389 . S
C1752 C1753 1.387 . S
C1753 H1738 0.930 . S
C1753 C1748 1.390 . S
C1753 C1752 1.387 . S
H1754 C1766 0.930 . S
H1755 C1768 0.930 . S
H1756 C1769 0.930 . S
H1757 C1773 0.959 . S
H1758 C1773 0.959 . S
H1759 C1773 0.961 . S
H1760 C1774 0.960 . S
H1761 C1774 0.961 . S
H1762 C1774 0.959 . S
H1763 C1777 0.929 . S
H1764 C1778 0.931 . S
H1765 C1780 0.930 . S
C1766 H1754 0.930 . S
C1766 C1767 1.399 . S
C1766 C1771 1.399 . S
C1767 C1766 1.399 . S
C1767 C1768 1.376 . S
C1768 H1755 0.930 . S
C1768 C1767 1.376 . S
C1768 C1769 1.388 . S
C1769 H1756 0.930 . S
C1769 C1768 1.388 . S
C1769 C1770 1.390 . S
C1770 C1769 1.390 . S
C1770 C1771 1.394 . S
C1770 C1776 1.465 . S
C1771 C1766 1.399 . S
C1771 C1770 1.394 . S
C1771 C1772 1.516 . S
C1772 C1771 1.516 . S
C1772 C1773 1.502 . S
C1772 C1774 1.561 . S
C1772 C1775 1.526 . S
C1773 H1757 0.959 . S
C1773 H1758 0.959 . S
C1773 H1759 0.961 . S
C1773 C1772 1.502 . S
C1774 H1760 0.960 . S
C1774 H1761 0.961 . S
C1774 H1762 0.959 . S
C1774 C1772 1.561 . S
C1775 C1772 1.526 . S
C1775 C1776 1.396 . S
C1775 C1780 1.390 . S
C1776 C1770 1.465 . S
C1776 C1775 1.396 . S
C1776 C1777 1.399 . S
C1777 H1763 0.929 . S
C1777 C1776 1.399 . S
C1777 C1778 1.385 . S
C1778 H1764 0.931 . S
C1778 C1777 1.385 . S
C1778 C1779 1.389 . S
C1779 C1778 1.389 . S
C1779 C1780 1.387 . S
C1780 H1765 0.930 . S
C1780 C1775 1.390 . S
C1780 C1779 1.387 . S
H1781 C1793 0.930 . S
H1782 C1795 0.930 . S
H1783 C1796 0.930 . S
H1784 C1800 0.959 . S
H1785 C1800 0.959 . S
H1786 C1800 0.961 . S
H1787 C1801 0.960 . S
H1788 C1801 0.961 . S
H1789 C1801 0.959 . S
H1790 C1804 0.929 . S
H1791 C1805 0.931 . S
H1792 C1807 0.930 . S
C1793 H1781 0.930 . S
C1793 C1794 1.399 . S
C1793 C1798 1.399 . S
C1794 C1793 1.399 . S
C1794 C1795 1.376 . S
C1795 H1782 0.930 . S
C1795 C1794 1.376 . S
C1795 C1796 1.388 . S
C1796 H1783 0.930 . S
C1796 C1795 1.388 . S
C1796 C1797 1.390 . S
C1797 C1796 1.390 . S
C1797 C1798 1.394 . S
C1797 C1803 1.465 . S
C1798 C1793 1.399 . S
C1798 C1797 1.394 . S
C1798 C1799 1.516 . S
C1799 C1798 1.516 . S
C1799 C1800 1.502 . S
C1799 C1801 1.561 . S
C1799 C1802 1.526 . S
C1800 H1784 0.959 . S
C1800 H1785 0.959 . S
C1800 H1786 0.961 . S
C1800 C1799 1.502 . S
C1801 H1787 0.960 . S
C1801 H1788 0.961 . S
C1801 H1789 0.959 . S
C1801 C1799 1.561 . S
C1802 C1799 1.526 . S
C1802 C1803 1.396 . S
C1802 C1807 1.390 . S
C1803 C1797 1.465 . S
C1803 C1802 1.396 . S
C1803 C1804 1.399 . S
C1804 H1790 0.929 . S
C1804 C1803 1.399 . S
C1804 C1805 1.385 . S
C1805 H1791 0.931 . S
C1805 C1804 1.385 . S
C1805 C1806 1.389 . S
C1806 C1805 1.389 . S
C1806 C1807 1.387 . S
C1807 H1792 0.930 . S
C1807 C1802 1.390 . S
C1807 C1806 1.387 . S
C537 C337 1.601 . S
C525 C2 1.571 . S
C564 C342 0.556 . S
C552 C65 0.327 . S
C591 C343 1.575 . S
C579 C82 1.559 . S
C606 C145 0.693 . S
C618 C347 0.740 . S
C633 C164 0.365 . S
C645 C350 0.447 . S
C672 C351 1.538 . S
C660 C223 1.540 . S
C687 C244 0.903 . S
C699 C328 0.894 . S
C714 C282 1.531 . S
C726 C344 1.581 . S
C753 C382 3.088 . S
C741 C31 3.146 . S
C768 C60 1.810 . S
C780 C408 1.755 . S
C807 C360 3.133 . S
C795 C111 3.248 . S
C834 C415 1.684 . S
C822 C140 1.700 . S
C849 C162 1.771 . S
C861 C369 1.742 . S
C888 C411 1.119 . S
C876 C225 1.126 . S
C903 C242 1.849 . S
C915 C375 1.867 . S
C930 C311 2.306 . S
C942 C406 2.237 . S
C957 C4 0.839 . S
C969 C414 0.832 . S
C984 C191 1.141 . S
C996 C401 1.042 . S
C1023 C379 2.763 . S
C1011 C220 2.788 . S
C1050 C407 1.231 . S
C1038 C271 1.217 . S
C1065 C284 1.431 . S
C1077 C374 1.410 1_556 S
C1092 C84 0.764 . S
C1104 C392 0.770 . S
C1131 C383 1.150 . S
C1119 C143 1.227 . S
C1146 C63 1.258 . S
C1158 C376 1.283 . S
C1173 C303 1.529 . S
C1185 C438 1.528 . S
C1200 C185 0.373 . S
C1212 C433 0.281 . S
C1239 C447 1.442 . S
C1227 C202 1.533 . S
C1266 C424 0.960 . S
C1254 C265 0.890 . S
C1281 C44 0.325 . S
C1293 C440 0.237 . S
C1320 C439 1.463 . S
C1308 C103 1.565 . S
C1335 C124 0.684 . S
C1347 C443 0.731 . S
C1362 C23 1.512 . S
C1374 C446 1.535 . S
C1389 C305 1.462 . S
C1401 C472 1.473 . S
C1428 C488 1.156 . S
C1416 C180 1.157 . S
C1443 C231 2.832 . S
C1455 C470 2.816 . S
C1470 C260 1.240 . S
C1482 C503 1.246 . S
C1509 C479 1.281 . S
C1497 C42 1.260 . S
C1524 C105 0.791 . S
C1536 C497 0.828 . S
C1563 C475 1.130 . S
C1551 C122 1.147 . S
C1590 C510 0.918 . S
C1578 C25 0.916 . S
C1617 C502 2.301 . S
C1605 C300 2.335 . S
C1632 C71 1.789 . S
C1644 C507 1.712 . S
C1659 C100 3.236 . S
C1671 C478 3.241 . S
C1698 C511 1.655 . S
C1686 C151 1.682 . S
C1713 C20 3.162 . S
C1725 C465 3.140 . S
C1740 C204 1.180 . S
C1752 C504 1.141 . S
C1779 C456 1.811 . S
C1767 C263 1.862 . S
C1806 C471 1.678 . S
C1794 C183 1.698 . S
