# Generated by pormake.
# Topology gar, (4,6)-cn, num edge types: 1
# Building blocks:
#     Node 0, Type 0, BuildingBlock: TATPOV_clean_sbu_0, # of connection points: 4
#     Node 1, Type 0, BuildingBlock: TATPOV_clean_sbu_0, # of connection points: 4
#     Node 2, Type 0, BuildingBlock: TATPOV_clean_sbu_0, # of connection points: 4
#     Node 3, Type 0, BuildingBlock: TATPOV_clean_sbu_0, # of connection points: 4
#     Node 4, Type 0, BuildingBlock: TATPOV_clean_sbu_0, # of connection points: 4
#     Node 5, Type 0, BuildingBlock: TATPOV_clean_sbu_0, # of connection points: 4
#     Node 6, Type 0, BuildingBlock: TATPOV_clean_sbu_0, # of connection points: 4
#     Node 7, Type 0, BuildingBlock: TATPOV_clean_sbu_0, # of connection points: 4
#     Node 8, Type 0, BuildingBlock: TATPOV_clean_sbu_0, # of connection points: 4
#     Node 9, Type 0, BuildingBlock: TATPOV_clean_sbu_0, # of connection points: 4
#     Node 10, Type 0, BuildingBlock: TATPOV_clean_sbu_0, # of connection points: 4
#     Node 11, Type 0, BuildingBlock: TATPOV_clean_sbu_0, # of connection points: 4
#     Node 12, Type 0, BuildingBlock: TATPOV_clean_sbu_0, # of connection points: 4
#     Node 13, Type 0, BuildingBlock: TATPOV_clean_sbu_0, # of connection points: 4
#     Node 14, Type 0, BuildingBlock: TATPOV_clean_sbu_0, # of connection points: 4
#     Node 15, Type 0, BuildingBlock: TATPOV_clean_sbu_0, # of connection points: 4
#     Node 16, Type 0, BuildingBlock: TATPOV_clean_sbu_0, # of connection points: 4
#     Node 17, Type 0, BuildingBlock: TATPOV_clean_sbu_0, # of connection points: 4
#     Node 18, Type 0, BuildingBlock: TATPOV_clean_sbu_0, # of connection points: 4
#     Node 19, Type 0, BuildingBlock: TATPOV_clean_sbu_0, # of connection points: 4
#     Node 20, Type 0, BuildingBlock: TATPOV_clean_sbu_0, # of connection points: 4
#     Node 21, Type 0, BuildingBlock: TATPOV_clean_sbu_0, # of connection points: 4
#     Node 22, Type 0, BuildingBlock: TATPOV_clean_sbu_0, # of connection points: 4
#     Node 23, Type 0, BuildingBlock: TATPOV_clean_sbu_0, # of connection points: 4
#     Node 24, Type 1, BuildingBlock: BETFEN_clean_sbu_0, # of connection points: 6
#     Node 25, Type 1, BuildingBlock: BETFEN_clean_sbu_0, # of connection points: 6
#     Node 26, Type 1, BuildingBlock: BETFEN_clean_sbu_0, # of connection points: 6
#     Node 27, Type 1, BuildingBlock: BETFEN_clean_sbu_0, # of connection points: 6
#     Node 28, Type 1, BuildingBlock: BETFEN_clean_sbu_0, # of connection points: 6
#     Node 29, Type 1, BuildingBlock: BETFEN_clean_sbu_0, # of connection points: 6
#     Node 30, Type 1, BuildingBlock: BETFEN_clean_sbu_0, # of connection points: 6
#     Node 31, Type 1, BuildingBlock: BETFEN_clean_sbu_0, # of connection points: 6
#     Node 32, Type 1, BuildingBlock: BETFEN_clean_sbu_0, # of connection points: 6
#     Node 33, Type 1, BuildingBlock: BETFEN_clean_sbu_0, # of connection points: 6
#     Node 34, Type 1, BuildingBlock: BETFEN_clean_sbu_0, # of connection points: 6
#     Node 35, Type 1, BuildingBlock: BETFEN_clean_sbu_0, # of connection points: 6
#     Node 36, Type 1, BuildingBlock: BETFEN_clean_sbu_0, # of connection points: 6
#     Node 37, Type 1, BuildingBlock: BETFEN_clean_sbu_0, # of connection points: 6
#     Node 38, Type 1, BuildingBlock: BETFEN_clean_sbu_0, # of connection points: 6
#     Node 39, Type 1, BuildingBlock: BETFEN_clean_sbu_0, # of connection points: 6
#     Edge 40, Type (0, 1), BuildingBlock: AJUNOK_clean_linker_0, # of connection points: 2
#     Edge 41, Type (0, 1), BuildingBlock: AJUNOK_clean_linker_0, # of connection points: 2
#     Edge 42, Type (0, 1), BuildingBlock: AJUNOK_clean_linker_0, # of connection points: 2
#     Edge 43, Type (0, 1), BuildingBlock: AJUNOK_clean_linker_0, # of connection points: 2
#     Edge 44, Type (0, 1), BuildingBlock: AJUNOK_clean_linker_0, # of connection points: 2
#     Edge 45, Type (0, 1), BuildingBlock: AJUNOK_clean_linker_0, # of connection points: 2
#     Edge 46, Type (0, 1), BuildingBlock: AJUNOK_clean_linker_0, # of connection points: 2
#     Edge 47, Type (0, 1), BuildingBlock: AJUNOK_clean_linker_0, # of connection points: 2
#     Edge 48, Type (0, 1), BuildingBlock: AJUNOK_clean_linker_0, # of connection points: 2
#     Edge 49, Type (0, 1), BuildingBlock: AJUNOK_clean_linker_0, # of connection points: 2
#     Edge 50, Type (0, 1), BuildingBlock: AJUNOK_clean_linker_0, # of connection points: 2
#     Edge 51, Type (0, 1), BuildingBlock: AJUNOK_clean_linker_0, # of connection points: 2
#     Edge 52, Type (0, 1), BuildingBlock: AJUNOK_clean_linker_0, # of connection points: 2
#     Edge 53, Type (0, 1), BuildingBlock: AJUNOK_clean_linker_0, # of connection points: 2
#     Edge 54, Type (0, 1), BuildingBlock: AJUNOK_clean_linker_0, # of connection points: 2
#     Edge 55, Type (0, 1), BuildingBlock: AJUNOK_clean_linker_0, # of connection points: 2
#     Edge 56, Type (0, 1), BuildingBlock: AJUNOK_clean_linker_0, # of connection points: 2
#     Edge 57, Type (0, 1), BuildingBlock: AJUNOK_clean_linker_0, # of connection points: 2
#     Edge 58, Type (0, 1), BuildingBlock: AJUNOK_clean_linker_0, # of connection points: 2
#     Edge 59, Type (0, 1), BuildingBlock: AJUNOK_clean_linker_0, # of connection points: 2
#     Edge 60, Type (0, 1), BuildingBlock: AJUNOK_clean_linker_0, # of connection points: 2
#     Edge 61, Type (0, 1), BuildingBlock: AJUNOK_clean_linker_0, # of connection points: 2
#     Edge 62, Type (0, 1), BuildingBlock: AJUNOK_clean_linker_0, # of connection points: 2
#     Edge 63, Type (0, 1), BuildingBlock: AJUNOK_clean_linker_0, # of connection points: 2
#     Edge 64, Type (0, 1), BuildingBlock: AJUNOK_clean_linker_0, # of connection points: 2
#     Edge 65, Type (0, 1), BuildingBlock: AJUNOK_clean_linker_0, # of connection points: 2
#     Edge 66, Type (0, 1), BuildingBlock: AJUNOK_clean_linker_0, # of connection points: 2
#     Edge 67, Type (0, 1), BuildingBlock: AJUNOK_clean_linker_0, # of connection points: 2
#     Edge 68, Type (0, 1), BuildingBlock: AJUNOK_clean_linker_0, # of connection points: 2
#     Edge 69, Type (0, 1), BuildingBlock: AJUNOK_clean_linker_0, # of connection points: 2
#     Edge 70, Type (0, 1), BuildingBlock: AJUNOK_clean_linker_0, # of connection points: 2
#     Edge 71, Type (0, 1), BuildingBlock: AJUNOK_clean_linker_0, # of connection points: 2
#     Edge 72, Type (0, 1), BuildingBlock: AJUNOK_clean_linker_0, # of connection points: 2
#     Edge 73, Type (0, 1), BuildingBlock: AJUNOK_clean_linker_0, # of connection points: 2
#     Edge 74, Type (0, 1), BuildingBlock: AJUNOK_clean_linker_0, # of connection points: 2
#     Edge 75, Type (0, 1), BuildingBlock: AJUNOK_clean_linker_0, # of connection points: 2
#     Edge 76, Type (0, 1), BuildingBlock: AJUNOK_clean_linker_0, # of connection points: 2
#     Edge 77, Type (0, 1), BuildingBlock: AJUNOK_clean_linker_0, # of connection points: 2
#     Edge 78, Type (0, 1), BuildingBlock: AJUNOK_clean_linker_0, # of connection points: 2
#     Edge 79, Type (0, 1), BuildingBlock: AJUNOK_clean_linker_0, # of connection points: 2
#     Edge 80, Type (0, 1), BuildingBlock: AJUNOK_clean_linker_0, # of connection points: 2
#     Edge 81, Type (0, 1), BuildingBlock: AJUNOK_clean_linker_0, # of connection points: 2
#     Edge 82, Type (0, 1), BuildingBlock: AJUNOK_clean_linker_0, # of connection points: 2
#     Edge 83, Type (0, 1), BuildingBlock: AJUNOK_clean_linker_0, # of connection points: 2
#     Edge 84, Type (0, 1), BuildingBlock: AJUNOK_clean_linker_0, # of connection points: 2
#     Edge 85, Type (0, 1), BuildingBlock: AJUNOK_clean_linker_0, # of connection points: 2
#     Edge 86, Type (0, 1), BuildingBlock: AJUNOK_clean_linker_0, # of connection points: 2
#     Edge 87, Type (0, 1), BuildingBlock: AJUNOK_clean_linker_0, # of connection points: 2
#     Edge 88, Type (0, 1), BuildingBlock: AJUNOK_clean_linker_0, # of connection points: 2
#     Edge 89, Type (0, 1), BuildingBlock: AJUNOK_clean_linker_0, # of connection points: 2
#     Edge 90, Type (0, 1), BuildingBlock: AJUNOK_clean_linker_0, # of connection points: 2
#     Edge 91, Type (0, 1), BuildingBlock: AJUNOK_clean_linker_0, # of connection points: 2
#     Edge 92, Type (0, 1), BuildingBlock: AJUNOK_clean_linker_0, # of connection points: 2
#     Edge 93, Type (0, 1), BuildingBlock: AJUNOK_clean_linker_0, # of connection points: 2
#     Edge 94, Type (0, 1), BuildingBlock: AJUNOK_clean_linker_0, # of connection points: 2
#     Edge 95, Type (0, 1), BuildingBlock: AJUNOK_clean_linker_0, # of connection points: 2
#     Edge 96, Type (0, 1), BuildingBlock: AJUNOK_clean_linker_0, # of connection points: 2
#     Edge 97, Type (0, 1), BuildingBlock: AJUNOK_clean_linker_0, # of connection points: 2
#     Edge 98, Type (0, 1), BuildingBlock: AJUNOK_clean_linker_0, # of connection points: 2
#     Edge 99, Type (0, 1), BuildingBlock: AJUNOK_clean_linker_0, # of connection points: 2
#     Edge 100, Type (0, 1), BuildingBlock: AJUNOK_clean_linker_0, # of connection points: 2
#     Edge 101, Type (0, 1), BuildingBlock: AJUNOK_clean_linker_0, # of connection points: 2
#     Edge 102, Type (0, 1), BuildingBlock: AJUNOK_clean_linker_0, # of connection points: 2
#     Edge 103, Type (0, 1), BuildingBlock: AJUNOK_clean_linker_0, # of connection points: 2
#     Edge 104, Type (0, 1), BuildingBlock: AJUNOK_clean_linker_0, # of connection points: 2
#     Edge 105, Type (0, 1), BuildingBlock: AJUNOK_clean_linker_0, # of connection points: 2
#     Edge 106, Type (0, 1), BuildingBlock: AJUNOK_clean_linker_0, # of connection points: 2
#     Edge 107, Type (0, 1), BuildingBlock: AJUNOK_clean_linker_0, # of connection points: 2
#     Edge 108, Type (0, 1), BuildingBlock: AJUNOK_clean_linker_0, # of connection points: 2
#     Edge 109, Type (0, 1), BuildingBlock: AJUNOK_clean_linker_0, # of connection points: 2
#     Edge 110, Type (0, 1), BuildingBlock: AJUNOK_clean_linker_0, # of connection points: 2
#     Edge 111, Type (0, 1), BuildingBlock: AJUNOK_clean_linker_0, # of connection points: 2
#     Edge 112, Type (0, 1), BuildingBlock: AJUNOK_clean_linker_0, # of connection points: 2
#     Edge 113, Type (0, 1), BuildingBlock: AJUNOK_clean_linker_0, # of connection points: 2
#     Edge 114, Type (0, 1), BuildingBlock: AJUNOK_clean_linker_0, # of connection points: 2
#     Edge 115, Type (0, 1), BuildingBlock: AJUNOK_clean_linker_0, # of connection points: 2
#     Edge 116, Type (0, 1), BuildingBlock: AJUNOK_clean_linker_0, # of connection points: 2
#     Edge 117, Type (0, 1), BuildingBlock: AJUNOK_clean_linker_0, # of connection points: 2
#     Edge 118, Type (0, 1), BuildingBlock: AJUNOK_clean_linker_0, # of connection points: 2
#     Edge 119, Type (0, 1), BuildingBlock: AJUNOK_clean_linker_0, # of connection points: 2
#     Edge 120, Type (0, 1), BuildingBlock: AJUNOK_clean_linker_0, # of connection points: 2
#     Edge 121, Type (0, 1), BuildingBlock: AJUNOK_clean_linker_0, # of connection points: 2
#     Edge 122, Type (0, 1), BuildingBlock: AJUNOK_clean_linker_0, # of connection points: 2
#     Edge 123, Type (0, 1), BuildingBlock: AJUNOK_clean_linker_0, # of connection points: 2
#     Edge 124, Type (0, 1), BuildingBlock: AJUNOK_clean_linker_0, # of connection points: 2
#     Edge 125, Type (0, 1), BuildingBlock: AJUNOK_clean_linker_0, # of connection points: 2
#     Edge 126, Type (0, 1), BuildingBlock: AJUNOK_clean_linker_0, # of connection points: 2
#     Edge 127, Type (0, 1), BuildingBlock: AJUNOK_clean_linker_0, # of connection points: 2
#     Edge 128, Type (0, 1), BuildingBlock: AJUNOK_clean_linker_0, # of connection points: 2
#     Edge 129, Type (0, 1), BuildingBlock: AJUNOK_clean_linker_0, # of connection points: 2
#     Edge 130, Type (0, 1), BuildingBlock: AJUNOK_clean_linker_0, # of connection points: 2
#     Edge 131, Type (0, 1), BuildingBlock: AJUNOK_clean_linker_0, # of connection points: 2
#     Edge 132, Type (0, 1), BuildingBlock: AJUNOK_clean_linker_0, # of connection points: 2
#     Edge 133, Type (0, 1), BuildingBlock: AJUNOK_clean_linker_0, # of connection points: 2
#     Edge 134, Type (0, 1), BuildingBlock: AJUNOK_clean_linker_0, # of connection points: 2
#     Edge 135, Type (0, 1), BuildingBlock: AJUNOK_clean_linker_0, # of connection points: 2
# Relax obj value: 0.266
# Max RMSD: 0.356
# Mean RMSD: 0.193
data_MOF--net-gar--node1-TATPOV_clean_sbu_0--node2-BETFEN_clean_sbu_0--edge1-AJUNOK_clean_linker_0
_symmetry_space_group_name_H-M    P1
_symmetry_Int_Tables_number       1
_symmetry_cell_setting            triclinic
loop_
_symmetry_equiv_pos_as_xyz
'x, y, z'
_cell_length_a     49.032283
_cell_length_b     42.087238
_cell_length_c     42.455633
_cell_angle_alpha  94.349625
_cell_angle_beta   100.83402
_cell_angle_gamma 104.48921
loop_
_atom_site_label
_atom_site_type_symbol
_atom_site_fract_x
_atom_site_fract_y
_atom_site_fract_z
_atom_type_partial_charge
Zn0 Zn 0.02178 0.35704 0.47044 0.0
Zn1 Zn 0.05488 0.35637 0.42895 0.0
O2 O 0.06928 0.40562 0.45457 0.0
O3 O 0.04085 0.40487 0.48917 0.0
O4 O 0.08654 0.35339 0.40361 0.0
O5 O 0.03048 0.3178 0.49158 0.0
O6 O 0.05479 0.31427 0.45365 0.0
C7 C 0.06086 0.42068 0.47679 0.0
C8 C 0.99101 0.34961 0.40292 0.0
O9 O 1.01566 0.35129 0.39612 0.0
O10 O 0.98847 0.35026 0.43213 0.0
C11 C 0.0834 0.34102 0.37434 0.0
O12 O 0.05733 0.33092 0.35598 0.0
C13 C 0.04502 0.3026 0.47752 0.0
Zn14 Zn 0.09883 0.83545 0.68805 0.0
Zn15 Zn 0.10759 0.87988 0.64882 0.0
O16 O 0.07503 0.8884 0.67208 0.0
O17 O 0.06877 0.85116 0.70555 0.0
O18 O 0.11315 0.92095 0.6236 0.0
O19 O 0.13942 0.85046 0.71292 0.0
O20 O 0.1489 0.88685 0.67929 0.0
C21 C 0.06245 0.87572 0.69376 0.0
C22 C 0.09051 0.8043 0.62296 0.0
O23 O 0.09638 0.83437 0.61657 0.0
O24 O 0.08956 0.79851 0.65161 0.0
C25 C 0.09383 0.92536 0.60092 0.0
O26 O 0.06994 0.90147 0.5906 0.0
C27 C 0.15747 0.87289 0.70364 0.0
Zn28 Zn 0.51557 0.85057 0.96878 0.0
Zn29 Zn 0.55396 0.85667 0.93281 0.0
O30 O 0.56739 0.9046 0.9603 0.0
O31 O 0.53286 0.89935 0.98758 0.0
O32 O 0.58507 0.85215 0.90774 0.0
O33 O 0.52563 0.81212 0.99081 0.0
O34 O 0.55388 0.81396 0.95635 0.0
C35 C 0.55484 0.91744 0.97983 0.0
C36 C 0.49004 0.84569 0.90065 0.0
O37 O 0.51638 0.85321 0.89803 0.0
O38 O 0.48389 0.84085 0.9279 0.0
C39 C 0.59695 0.86905 0.88791 0.0
O40 O 0.58943 0.8959 0.88067 0.0
C41 C 0.54269 0.79969 0.97822 0.0
Zn42 Zn 0.60454 0.33098 0.19104 0.0
Zn43 Zn 0.6075 0.37579 0.15071 0.0
O44 O 0.57574 0.38112 0.17696 0.0
O45 O 0.57185 0.34151 0.20802 0.0
O46 O 0.6078 0.41499 0.12292 0.0
O47 O 0.64499 0.3521 0.21549 0.0
O48 O 0.65019 0.38601 0.17865 0.0
C49 C 0.56405 0.36616 0.19823 0.0
C50 C 0.5957 0.30073 0.12513 0.0
O51 O 0.59724 0.33042 0.11869 0.0
O52 O 0.59837 0.29488 0.15423 0.0
C53 C 0.61382 0.44467 0.13703 0.0
O54 O 0.62107 0.44954 0.16878 0.0
C55 C 0.66088 0.37484 0.20403 0.0
Zn56 Zn 0.15149 0.88464 0.10383 0.0
Zn57 Zn 0.12133 0.88021 0.15003 0.0
O58 O 0.11278 0.91868 0.12542 0.0
O59 O 0.13436 0.92021 0.08441 0.0
O60 O 0.09418 0.87776 0.18057 0.0
O61 O 0.13397 0.83585 0.08804 0.0
O62 O 0.10833 0.83283 0.12561 0.0
C63 C 0.11821 0.93092 0.10003 0.0
C64 C 0.18648 0.89294 0.16972 0.0
O65 O 0.16229 0.88812 0.17822 0.0
O66 O 0.18742 0.89487 0.14023 0.0
C67 C 0.09091 0.90384 0.19477 0.0
O68 O 0.10747 0.93271 0.1916 0.0
C69 C 0.11603 0.81889 0.10235 0.0
Zn70 Zn 0.5018 0.8396 0.47595 0.0
Zn71 Zn 0.54083 0.84639 0.44011 0.0
O72 O 0.55105 0.89324 0.46474 0.0
O73 O 0.51968 0.88712 0.49611 0.0
O74 O 0.5728 0.84842 0.41578 0.0
O75 O 0.51284 0.80153 0.49669 0.0
O76 O 0.54586 0.80832 0.46755 0.0
C77 C 0.53993 0.90554 0.48586 0.0
C78 C 0.47708 0.83611 0.40791 0.0
O79 O 0.50317 0.83987 0.40526 0.0
O80 O 0.47074 0.83338 0.43537 0.0
C81 C 0.57099 0.85222 0.38612 0.0
O82 O 0.54687 0.85593 0.36933 0.0
C83 C 0.53385 0.79327 0.48844 0.0
Zn84 Zn 0.65751 0.39504 0.59752 0.0
Zn85 Zn 0.62159 0.3899 0.63585 0.0
O86 O 0.61514 0.42683 0.6065 0.0
O87 O 0.64638 0.43157 0.57518 0.0
O88 O 0.59166 0.38787 0.66379 0.0
O89 O 0.63985 0.34752 0.57878 0.0
O90 O 0.61007 0.34253 0.61205 0.0
C91 C 0.62585 0.44037 0.58396 0.0
C92 C 0.6864 0.39792 0.66296 0.0
O93 O 0.661 0.3948 0.66798 0.0
O94 O 0.69105 0.40189 0.63498 0.0
C95 C 0.58067 0.4115 0.66979 0.0
O96 O 0.5899 0.4397 0.65884 0.0
C97 C 0.62044 0.32961 0.59056 0.0
Zn98 Zn 0.99849 0.32928 0.96768 0.0
Zn99 Zn 0.03704 0.3415 0.93249 0.0
O100 O 0.04555 0.38661 0.96004 0.0
O101 O 1.01319 0.37607 0.99011 0.0
O102 O 0.06941 0.34733 0.90858 0.0
O103 O 1.01216 0.2922 0.98702 0.0
O104 O 0.04463 0.30248 0.95742 0.0
C105 C 0.03318 0.39644 0.98128 0.0
C106 C 0.97302 0.33016 0.90111 0.0
O107 O 0.99918 0.33625 0.89804 0.0
O108 O 0.96687 0.32323 0.92791 0.0
C109 C 0.06698 0.33667 0.8791 0.0
O110 O 0.04125 0.32288 0.8609 0.0
C111 C 0.0338 0.2861 0.97827 0.0
Zn112 Zn 0.54322 0.20802 0.31979 0.0
Zn113 Zn 0.50857 0.23942 0.32881 0.0
O114 O 0.52491 0.2319 0.37657 0.0
O115 O 0.54456 0.1927 0.36267 0.0
O116 O 0.47845 0.26498 0.32735 0.0
O117 O 0.57387 0.24717 0.3136 0.0
O118 O 0.53473 0.2629 0.29947 0.0
C119 C 0.53658 0.20865 0.38393 0.0
C120 C 0.48917 0.17477 0.28451 0.0
O121 O 0.48392 0.19572 0.30405 0.0
O122 O 0.51494 0.17719 0.28218 0.0
C123 C 0.45236 0.25072 0.32783 0.0
O124 O 0.44584 0.22043 0.33534 0.0
C125 C 0.56065 0.26473 0.29734 0.0
Zn126 Zn 0.26436 0.31143 0.51443 0.0
Zn127 Zn 0.29508 0.26873 0.51772 0.0
O128 O 0.30337 0.29427 0.47764 0.0
O129 O 0.27959 0.3321 0.47699 0.0
O130 O 0.32392 0.2409 0.52226 0.0
O131 O 0.28089 0.33106 0.56141 0.0
O132 O 0.30574 0.29429 0.56461 0.0
C133 C 0.29618 0.31842 0.46488 0.0
C134 C 0.2297 0.24242 0.50842 0.0
O135 O 0.25409 0.23585 0.51142 0.0
O136 O 0.22865 0.27214 0.50723 0.0
C137 C 0.33461 0.23083 0.49956 0.0
O138 O 0.32532 0.23651 0.47001 0.0
C139 C 0.29778 0.31746 0.57832 0.0
Zn140 Zn 0.20221 0.20037 0.90407 0.0
Zn141 Zn 0.22777 0.15512 0.8991 0.0
O142 O 0.2052 0.14825 0.93525 0.0
O143 O 0.19899 0.19656 0.94967 0.0
O144 O 0.25049 0.12145 0.89932 0.0
O145 O 0.16986 0.17119 0.86891 0.0
O146 O 0.19667 0.13841 0.85913 0.0
C147 C 0.1947 0.16613 0.95248 0.0
C148 C 0.25371 0.22745 0.8871 0.0
O149 O 0.25561 0.19836 0.89144 0.0
O150 O 0.23155 0.2359 0.89127 0.0
C151 C 0.27768 0.12859 0.90938 0.0
O152 O 0.29157 0.1588 0.92308 0.0
C153 C 0.17325 0.14673 0.85228 0.0
Zn154 Zn 0.38491 0.93497 0.0381 0.0
Zn155 Zn 0.35136 0.97474 0.03739 0.0
O156 O 0.33783 0.9472 0.9905 0.0
O157 O 0.36889 0.91734 0.99056 0.0
O158 O 0.32267 1.00303 0.03826 0.0
O159 O 0.37202 0.91234 0.07526 0.0
O160 O 0.34964 0.95107 0.07968 0.0
C161 C 0.34808 0.92682 0.9756 0.0
C162 C 0.41629 1.00405 0.04832 0.0
O163 O 0.39117 1.00866 0.04194 0.0
O164 O 0.41924 0.97511 0.04962 0.0
C165 C 0.32202 0.01925 0.06461 0.0
O166 O 0.34066 0.01833 0.09091 0.0
C167 C 0.35833 0.92713 0.09107 0.0
Zn168 Zn 0.39413 0.41926 0.06282 0.0
Zn169 Zn 0.36127 0.46071 0.0605 0.0
O170 O 0.35142 0.4366 0.01288 0.0
O171 O 0.37677 0.40017 0.01564 0.0
O172 O 0.33198 0.48811 0.06142 0.0
O173 O 0.37961 0.39735 0.10044 0.0
O174 O 0.35378 0.43307 0.09941 0.0
C175 C 0.35977 0.41383 0.99892 0.0
C176 C 0.42661 0.4894 0.0692 0.0
O177 O 0.40173 0.49453 0.06705 0.0
O178 O 0.42897 0.46003 0.06951 0.0
C179 C 0.31771 0.49693 0.03692 0.0
O180 O 0.32274 0.48981 1.00828 0.0
C181 C 0.36189 0.40942 0.11216 0.0
Zn182 Zn 0.78364 0.30105 0.02682 0.0
Zn183 Zn 0.81649 0.26035 0.02945 0.0
O184 O 0.81882 0.28251 0.98573 0.0
O185 O 0.79462 0.31986 0.98741 0.0
O186 O 0.84455 0.23084 0.03023 0.0
O187 O 0.80287 0.32411 0.07206 0.0
O188 O 0.83027 0.28974 0.07581 0.0
C189 C 0.80934 0.30541 0.97291 0.0
C190 C 0.75147 0.23235 0.02204 0.0
O191 O 0.77646 0.22732 0.02649 0.0
O192 O 0.74875 0.26135 0.02024 0.0
C193 C 0.8423 0.20951 1.00619 0.0
O194 O 0.82145 0.2065 0.98078 0.0
C195 C 0.82227 0.31353 0.08857 0.0
Zn196 Zn 0.12122 0.5104 0.19463 0.0
Zn197 Zn 0.15185 0.4836 0.22323 0.0
O198 O 0.12463 0.48271 0.25445 0.0
O199 O 0.09327 0.50302 0.22467 0.0
O200 O 0.17972 0.45718 0.23966 0.0
O201 O 0.13205 0.46904 0.17138 0.0
O202 O 0.13298 0.46705 0.17197 0.0
C203 C 0.10153 0.49192 0.25064 0.0
C204 C 0.17487 0.55519 0.21892 0.0
O205 O 0.17884 0.52862 0.22835 0.0
O206 O 0.15036 0.55548 0.20314 0.0
C207 C 0.20102 0.47125 0.26291 0.0
O208 O 0.20249 0.50058 0.27724 0.0
C209 C 0.12005 0.467 0.14236 0.0
Zn210 Zn 0.89391 0.91797 0.57024 0.0
Zn211 Zn 0.86043 0.95787 0.566 0.0
O212 O 0.84939 0.93162 0.51944 0.0
O213 O 0.87665 0.89722 0.52333 0.0
O214 O 0.83175 0.98587 0.56543 0.0
O215 O 0.88117 0.899 0.60984 0.0
O216 O 0.85274 0.93194 0.60603 0.0
C217 C 0.85856 0.90923 0.50619 0.0
C218 C 0.9258 0.98657 0.57215 0.0
O219 O 0.90095 0.99178 0.57014 0.0
O220 O 0.92847 0.95762 0.57466 0.0
C221 C 0.81727 0.99289 0.54001 0.0
O222 O 0.82166 0.98305 0.51173 0.0
C223 C 0.8625 0.91019 0.62054 0.0
Zn224 Zn 0.96887 0.0305 0.18652 0.0
Zn225 Zn 0.93365 0.06485 0.17651 0.0
O226 O 0.96087 0.09131 0.217 0.0
O227 O 0.99735 0.07083 0.21372 0.0
O228 O 0.90542 0.09223 0.16714 0.0
O229 O 0.96968 0.02235 0.13984 0.0
O230 O 0.95761 0.06889 0.14169 0.0
C231 C 0.98738 0.09252 0.22625 0.0
C232 C 0.918 0.99891 0.20325 0.0
O233 O 0.90985 0.02019 0.18669 0.0
O234 O 0.94416 0.99871 0.20886 0.0
C235 C 0.88782 0.0904 0.18585 0.0
O236 O 0.88808 0.06969 0.20748 0.0
C237 C 0.97075 0.05002 0.12976 0.0
Zn238 Zn 0.28167 0.80377 0.52569 0.0
Zn239 Zn 0.31486 0.76333 0.52684 0.0
O240 O 0.31756 0.78717 0.48415 0.0
O241 O 0.29221 0.82324 0.48637 0.0
O242 O 0.34354 0.73468 0.52605 0.0
O243 O 0.30113 0.82601 0.5713 0.0
O244 O 0.32772 0.79078 0.57421 0.0
C245 C 0.30771 0.81005 0.47186 0.0
C246 C 0.24986 0.73489 0.51981 0.0
O247 O 0.27485 0.72995 0.52319 0.0
O248 O 0.24692 0.76391 0.51934 0.0
C249 C 0.33893 0.71088 0.50352 0.0
O250 O 0.31522 0.70462 0.48101 0.0
C251 C 0.31984 0.81433 0.58766 0.0
Zn252 Zn 0.46617 0.52384 0.68131 0.0
Zn253 Zn 0.43574 0.56546 0.68633 0.0
O254 O 0.46801 0.58298 0.7256 0.0
O255 O 0.49835 0.5553 0.71456 0.0
O256 O 0.41045 0.59566 0.6881 0.0
O257 O 0.46422 0.52983 0.63464 0.0
O258 O 0.45261 0.57536 0.64722 0.0
C259 C 0.49287 0.57792 0.7317 0.0
C260 C 0.41417 0.49302 0.69685 0.0
O261 O 0.40938 0.52027 0.68988 0.0
O262 O 0.43855 0.4881 0.69691 0.0
C263 C 0.39408 0.59235 0.70818 0.0
O264 O 0.39424 0.56902 0.72706 0.0
C265 C 0.46274 0.55847 0.62874 0.0
Zn266 Zn 0.64616 0.0555 0.77209 0.0
Zn267 Zn 0.66285 1.00694 0.75155 0.0
O268 O 0.63441 0.98487 0.77942 0.0
O269 O 0.61382 0.02504 0.78589 0.0
O270 O 0.68626 0.97474 0.74472 0.0
O271 O 0.64023 0.06713 0.72673 0.0
O272 O 0.64337 0.01831 0.70747 0.0
C273 C 0.61491 0.99572 0.78894 0.0
C274 C 0.70317 0.06936 0.79644 0.0
O275 O 0.69755 0.0447 0.77484 0.0
O276 O 0.68269 0.07877 0.80461 0.0
C277 C 0.70033 0.97126 0.77211 0.0
O278 O 0.69442 0.98402 0.79841 0.0
C279 C 0.63781 0.04591 0.70285 0.0
Zn280 Zn 0.76601 0.81632 0.01976 0.0
Zn281 Zn 0.79991 0.77711 0.02303 0.0
O282 O 0.80698 0.80337 0.98282 0.0
O283 O 0.78056 0.83854 0.98252 0.0
O284 O 0.83049 0.75154 0.02659 0.0
O285 O 0.78241 0.83621 0.06664 0.0
O286 O 0.81038 0.80274 0.06993 0.0
C287 C 0.79842 0.82701 0.97052 0.0
C288 C 0.73467 0.74656 0.0154 0.0
O289 O 0.75989 0.74224 0.0181 0.0
O290 O 0.73153 0.77545 0.01345 0.0
C291 C 0.82812 0.72341 1.01139 0.0
O292 O 0.80363 0.70801 0.99139 0.0
C293 C 0.80081 0.82452 0.08357 0.0
Zn294 Zn 1.00613 0.6706 0.81836 0.0
Zn295 Zn 0.99437 0.72113 0.83274 0.0
O296 O 1.00933 0.70812 0.87822 0.0
O297 O 1.00339 0.65564 0.86151 0.0
O298 O 0.97565 0.75825 0.8375 0.0
O299 O 0.04461 0.69457 0.81211 0.0
O300 O 0.02689 0.73734 0.80747 0.0
C301 C 1.00896 0.67879 0.8845 0.0
C302 C 0.95311 0.66352 0.78385 0.0
O303 O 0.9578 0.68766 0.80579 0.0
O304 O 0.97382 0.65212 0.77962 0.0
C305 C 0.95126 0.75078 0.84549 0.0
O306 O 0.94364 0.7233 0.85825 0.0
C307 C 0.04668 0.72332 0.80435 0.0
Zn308 Zn 0.88373 0.4344 0.53949 0.0
Zn309 Zn 0.84862 0.47103 0.53511 0.0
O310 O 0.83774 0.44298 0.48761 0.0
O311 O 0.86903 0.41343 0.49304 0.0
O312 O 0.8174 0.49654 0.53532 0.0
O313 O 0.87174 0.41136 0.57639 0.0
O314 O 0.84598 0.44704 0.57794 0.0
C315 C 0.84887 0.42175 0.47525 0.0
C316 C 0.91362 0.50353 0.54702 0.0
O317 O 0.88802 0.50682 0.54013 0.0
O318 O 0.91752 0.47517 0.54981 0.0
C319 C 0.82241 0.52638 0.54835 0.0
O320 O 0.84922 0.54306 0.56106 0.0
C321 C 0.85566 0.42409 0.59034 0.0
Zn322 Zn 0.70347 0.68021 0.3919 0.0
Zn323 Zn 0.73288 0.64156 0.38939 0.0
O324 O 0.71272 0.63466 0.42727 0.0
O325 O 0.70827 0.68389 0.43989 0.0
O326 O 0.76002 0.61313 0.39383 0.0
O327 O 0.67063 0.6442 0.36396 0.0
O328 O 0.70195 0.61999 0.34956 0.0
C329 C 0.70466 0.65423 0.44545 0.0
C330 C 0.75082 0.71223 0.37136 0.0
O331 O 0.75754 0.68672 0.38118 0.0
O332 O 0.7258 0.71527 0.37084 0.0
C333 C 0.78622 0.62414 0.40866 0.0
O334 O 0.79564 0.6549 0.4227 0.0
C335 C 0.67623 0.62248 0.34577 0.0
Pr336 Pr 0.04725 0.09471 0.02225 0.0
Pr337 Pr 0.11456 0.12825 0.05632 0.0
C338 C 0.98909 0.07482 1.00709 0.0
C339 C 0.96695 0.09303 1.00867 0.0
C340 C 0.93751 0.07719 0.99725 0.0
C341 C 0.91676 0.09497 0.99751 0.0
C342 C 0.92505 0.12905 1.00907 0.0
C343 C 0.95455 0.14457 0.02111 0.0
C344 C 0.97521 0.12682 0.02083 0.0
C345 C 0.08821 0.09642 0.98412 0.0
C346 C 0.07427 0.17569 0.0239 0.0
C347 C 0.17251 0.1488 0.07018 0.0
C348 C 0.19493 0.13063 0.07028 0.0
C349 C 0.19344 0.1018 0.08538 0.0
C350 C 0.21403 0.0841 0.08444 0.0
C351 C 0.23656 0.09462 0.06821 0.0
C352 C 0.23778 0.12312 0.05261 0.0
C353 C 0.21726 0.14103 0.05378 0.0
C354 C 0.07395 0.12497 0.09495 0.0
C355 C 0.08728 0.04796 0.05827 0.0
O356 O 1.00433 0.07131 0.03483 0.0
O357 O 1.00481 0.08263 0.9856 0.0
O358 O 0.0904 0.09034 0.0127 0.0
O359 O 0.06257 0.0996 0.97282 0.0
O360 O 0.10095 0.17251 0.03133 0.0
O361 O 0.05149 0.15125 0.02438 0.0
O362 O 0.15698 0.15001 0.04184 0.0
O363 O 0.15727 0.14392 0.09254 0.0
O364 O 0.07147 0.13166 0.06652 0.0
O365 O 0.10005 0.12312 0.1061 0.0
O366 O 0.06066 0.05047 0.04748 0.0
O367 O 0.11054 0.0722 0.05872 0.0
H368 H 0.93056 0.05113 0.98788 0.0
H369 H 0.89421 0.082 0.98868 0.0
H370 H 0.9617 0.17071 0.03005 0.0
H371 H 0.99774 0.13963 0.02977 0.0
H372 H 0.17621 0.0927 0.09776 0.0
H373 H 0.2121 0.06187 0.09611 0.0
H374 H 0.25481 0.13178 0.03982 0.0
H375 H 0.21869 0.16287 0.04154 0.0
Pr376 Pr 0.34505 0.90473 0.29784 0.0
Pr377 Pr 0.33158 0.83697 0.26884 0.0
C378 C 0.3717 0.96847 0.31993 0.0
C379 C 0.38116 0.99808 0.3046 0.0
C380 C 0.3857 0.02938 0.32156 0.0
C381 C 0.39776 0.05762 0.30844 0.0
C382 C 0.40531 0.05478 0.27816 0.0
C383 C 0.39893 0.02348 0.26032 0.0
C384 C 0.38716 0.99531 0.2736 0.0
C385 C 0.28821 0.88391 0.26247 0.0
C386 C 0.35237 0.89056 0.22093 0.0
C387 C 0.30743 0.77429 0.24192 0.0
C388 C 0.29735 0.74051 0.2487 0.0
C389 C 0.29896 0.71479 0.22686 0.0
C390 C 0.2835 0.68249 0.22793 0.0
C391 C 0.26631 0.67587 0.25083 0.0
C392 C 0.2669 0.7012 0.2746 0.0
C393 C 0.28254 0.73351 0.27366 0.0
C394 C 0.38808 0.85767 0.30563 0.0
C395 C 0.32215 0.85015 0.34474 0.0
O396 O 0.38551 0.94594 0.31666 0.0
O397 O 0.34384 0.95624 0.31611 0.0
O398 O 0.30982 0.87774 0.25376 0.0
O399 O 0.29556 0.90043 0.29131 0.0
O400 O 0.34013 0.8593 0.22201 0.0
O401 O 0.35882 0.91218 0.24727 0.0
O402 O 0.2925 0.79472 0.24872 0.0
O403 O 0.33527 0.78755 0.24795 0.0
O404 O 0.36619 0.86381 0.31352 0.0
O405 O 0.38129 0.84176 0.27662 0.0
O406 O 0.33533 0.8814 0.34405 0.0
O407 O 0.31592 0.82838 0.31839 0.0
H408 H 0.38109 0.03192 0.34546 0.0
H409 H 0.40275 0.08154 0.32282 0.0
H410 H 0.40431 0.02071 0.23683 0.0
H411 H 0.384 0.97141 0.26021 0.0
H412 H 0.31041 0.71999 0.20753 0.0
H413 H 0.28301 0.66328 0.20917 0.0
H414 H 0.25374 0.69635 0.29246 0.0
H415 H 0.2814 0.75321 0.29092 0.0
Pr416 Pr 0.61313 0.12326 0.53841 0.0
Pr417 Pr 0.5483 0.11279 0.53969 0.0
C418 C 0.66868 0.123 0.54218 0.0
C419 C 0.68896 0.10225 0.54242 0.0
C420 C 0.71148 0.11116 0.52601 0.0
C421 C 0.73165 0.09281 0.52631 0.0
C422 C 0.72986 0.06513 0.54317 0.0
C423 C 0.70708 0.05598 0.55942 0.0
C424 C 0.68679 0.07439 0.55906 0.0
C425 C 0.58296 0.15239 0.49183 0.0
C426 C 0.56668 0.04892 0.51231 0.0
C427 C 0.49269 0.11286 0.53548 0.0
C428 C 0.47155 0.13261 0.53179 0.0
C429 C 0.44829 0.12449 0.54722 0.0
C430 C 0.4269 0.14131 0.54294 0.0
C431 C 0.42836 0.16679 0.52322 0.0
C432 C 0.4518 0.17503 0.50784 0.0
C433 C 0.47329 0.15814 0.51215 0.0
C434 C 0.58003 0.08735 0.58854 0.0
C435 C 0.59474 0.1864 0.56726 0.0
O436 O 0.65749 0.12585 0.56763 0.0
O437 O 0.65073 0.12193 0.51484 0.0
O438 O 0.57319 0.12383 0.49936 0.0
O439 O 0.6097 0.16522 0.50628 0.0
O440 O 0.54528 0.06293 0.51008 0.0
O441 O 0.59371 0.06578 0.52437 0.0
O442 O 0.50332 0.10643 0.51038 0.0
O443 O 0.51136 0.11804 0.56304 0.0
O444 O 0.58851 0.11504 0.57901 0.0
O445 O 0.5535 0.07269 0.57438 0.0
O446 O 0.61587 0.17186 0.57016 0.0
O447 O 0.56782 0.17013 0.55375 0.0
H448 H 0.7136 0.13258 0.51309 0.0
H449 H 0.74896 0.10058 0.51368 0.0
H450 H 0.70479 0.03442 0.57211 0.0
H451 H 0.66949 0.0669 0.57176 0.0
H452 H 0.4464 0.10465 0.5622 0.0
H453 H 0.40883 0.13383 0.55452 0.0
H454 H 0.45352 0.19457 0.49252 0.0
H455 H 0.49103 0.1648 0.49994 0.0
Pr456 Pr 0.29864 0.36117 0.78483 0.0
Pr457 Pr 0.36412 0.35995 0.79379 0.0
C458 C 0.24256 0.3574 0.78194 0.0
C459 C 0.21791 0.35321 0.79788 0.0
C460 C 0.20125 0.37588 0.79414 0.0
C461 C 0.17692 0.37214 0.80755 0.0
C462 C 0.1689 0.34574 0.82518 0.0
C463 C 0.1856 0.323 0.82904 0.0
C464 C 0.20988 0.32662 0.81532 0.0
C465 C 0.3339 0.41274 0.76173 0.0
C466 C 0.34181 0.38373 0.85845 0.0
C467 C 0.4201 0.3655 0.79353 0.0
C468 C 0.44282 0.37407 0.77497 0.0
C469 C 0.46948 0.36801 0.78666 0.0
C470 C 0.49144 0.37511 0.76944 0.0
C471 C 0.48721 0.38857 0.74019 0.0
C472 C 0.46043 0.39481 0.72854 0.0
C473 C 0.43834 0.38753 0.7458 0.0
C474 C 0.32958 0.30797 0.81701 0.0
C475 C 0.32038 0.33902 0.72001 0.0
O476 O 0.25173 0.33159 0.77477 0.0
O477 O 0.26307 0.38511 0.79023 0.0
O478 O 0.34132 0.40099 0.78749 0.0
O479 O 0.30687 0.39981 0.74886 0.0
O480 O 0.36462 0.38496 0.84554 0.0
O481 O 0.31506 0.37318 0.84128 0.0
O482 O 0.41101 0.38963 0.80535 0.0
O483 O 0.39957 0.33813 0.78285 0.0
O484 O 0.32156 0.32005 0.79158 0.0
O485 O 0.3569 0.32015 0.82893 0.0
O486 O 0.29795 0.33533 0.73384 0.0
O487 O 0.34722 0.35031 0.73694 0.0
H488 H 0.20692 0.39641 0.78051 0.0
H489 H 0.16445 0.39003 0.80433 0.0
H490 H 0.1796 0.30217 0.8422 0.0
H491 H 0.22212 0.30855 0.81804 0.0
H492 H 0.4733 0.35759 0.80913 0.0
H493 H 0.51184 0.3702 0.77909 0.0
H494 H 0.45638 0.40467 0.70581 0.0
H495 H 0.41776 0.39207 0.73627 0.0
Pr496 Pr 0.0693 0.10054 0.50428 0.0
Pr497 Pr 0.08265 0.12905 0.56862 0.0
C498 C 0.04403 0.0774 0.44262 0.0
C499 C 0.0401 0.09266 0.41301 0.0
C500 C 0.06154 0.11957 0.40751 0.0
C501 C 0.0573 0.13351 0.37877 0.0
C502 C 0.03141 0.12099 0.35578 0.0
C503 C 1.00965 0.095 0.36211 0.0
C504 C 1.014 0.0809 0.3905 0.0
C505 C 0.12635 0.14091 0.51991 0.0
C506 C 0.06052 0.17634 0.5181 0.0
C507 C 0.10713 0.15316 0.63029 0.0
C508 C 0.11018 0.14009 0.66131 0.0
C509 C 0.08602 0.12412 0.6731 0.0
C510 C 0.08973 0.11375 0.70369 0.0
C511 C 0.11759 0.11898 0.72247 0.0
C512 C 0.14163 0.1334 0.70987 0.0
C513 C 0.13793 0.14399 0.67959 0.0
C514 C 0.02554 0.08869 0.55313 0.0
C515 C 0.09123 0.05299 0.5546 0.0
O516 O 0.02978 0.08511 0.46383 0.0
O517 O 0.07038 0.07693 0.45528 0.0
O518 O 0.10483 0.14803 0.52779 0.0
O519 O 0.11896 0.11119 0.50446 0.0
O520 O 0.07512 0.17657 0.54745 0.0
O521 O 0.053 0.14899 0.4974 0.0
O522 O 0.12143 0.14347 0.61005 0.0
O523 O 0.08134 0.15461 0.61658 0.0
O524 O 0.04706 0.0816 0.54517 0.0
O525 O 0.03311 0.11828 0.56883 0.0
O526 O 0.07635 0.05298 0.52545 0.0
O527 O 0.09942 0.08061 0.57513 0.0
H528 H 0.08165 0.12939 0.42511 0.0
H529 H 0.07436 0.15336 0.37414 0.0
H530 H 0.98972 0.08451 0.34435 0.0
H531 H 0.99718 0.06045 0.39467 0.0
H532 H 0.06432 0.1204 0.65914 0.0
H533 H 0.07098 0.10275 0.71312 0.0
H534 H 0.16333 0.1382 0.72422 0.0
H535 H 0.15678 0.15608 0.67081 0.0
Pr536 Pr 0.31725 0.82915 0.78292 0.0
Pr537 Pr 0.34912 0.90822 0.78341 0.0
C538 C 0.29601 0.76353 0.76629 0.0
C539 C 0.30812 0.73757 0.75494 0.0
C540 C 0.29031 0.70577 0.74275 0.0
C541 C 0.30228 0.68104 0.73239 0.0
C542 C 0.33207 0.68817 0.73381 0.0
C543 C 0.34978 0.72005 0.74608 0.0
C544 C 0.33789 0.74456 0.75667 0.0
C545 C 0.31763 0.86697 0.8412 0.0
C546 C 0.38864 0.85756 0.81123 0.0
C547 C 0.36885 0.97336 0.80409 0.0
C548 C 0.35933 0.99561 0.82525 0.0
C549 C 0.36946 0.02995 0.8264 0.0
C550 C 0.35834 0.05102 0.84431 0.0
C551 C 0.33703 0.03796 0.86144 0.0
C552 C 0.32752 1.00348 0.86084 0.0
C553 C 0.3385 0.98248 0.84278 0.0
C554 C 0.34843 0.87231 0.72394 0.0
C555 C 0.27668 0.87897 0.75948 0.0
O556 O 0.292 0.78487 0.74614 0.0
O557 O 0.3076 0.77732 0.79609 0.0
O558 O 0.32723 0.87671 0.81709 0.0
O559 O 0.30557 0.83534 0.83475 0.0
O560 O 0.38718 0.88849 0.80975 0.0
O561 O 0.36634 0.83165 0.79911 0.0
O562 O 0.37974 0.95125 0.8181 0.0
O563 O 0.35096 0.96131 0.77631 0.0
O564 O 0.33884 0.86069 0.74765 0.0
O565 O 0.36019 0.90396 0.73174 0.0
O566 O 0.27843 0.84822 0.76026 0.0
O567 O 0.29925 0.90524 0.76924 0.0
H568 H 0.26729 0.70008 0.74143 0.0
H569 H 0.28836 0.65647 0.72317 0.0
H570 H 0.37288 0.72585 0.74789 0.0
H571 H 0.35193 0.76901 0.76613 0.0
H572 H 0.3853 0.04043 0.81269 0.0
H573 H 0.36556 0.07743 0.84366 0.0
H574 H 0.31112 0.99273 0.87375 0.0
H575 H 0.33018 0.95595 0.84179 0.0
Pr576 Pr 0.59695 0.11739 0.07612 0.0
Pr577 Pr 0.57047 0.11896 0.99819 0.0
C578 C 0.61354 0.13904 0.13956 0.0
C579 C 0.60735 0.16601 0.15855 0.0
C580 C 0.62389 0.17886 0.18953 0.0
C581 C 0.6182 0.20504 0.2071 0.0
C582 C 0.59642 0.21961 0.1936 0.0
C583 C 0.58013 0.20663 0.16225 0.0
C584 C 0.58525 0.1798 0.14516 0.0
C585 C 0.59152 0.05642 0.03883 0.0
C586 C 0.52611 0.09271 0.04672 0.0
C587 C 0.55011 0.09708 0.93504 0.0
C588 C 0.5484 0.06647 0.91492 0.0
C589 C 0.54194 0.06498 0.8813 0.0
C590 C 0.54472 0.03819 0.86195 0.0
C591 C 0.55394 1.01226 0.8759 0.0
C592 C 0.55862 1.01288 0.90969 0.0
C593 C 0.55589 0.03986 0.92906 0.0
C594 C 0.57577 0.17965 0.03587 0.0
C595 C 0.64197 0.14382 0.02771 0.0
O596 O 0.62992 0.14842 0.11904 0.0
O597 O 0.59139 0.11356 0.12742 0.0
O598 O 0.58589 0.08222 0.0293 0.0
O599 O 0.60178 0.06222 0.06997 0.0
O600 O 0.53039 0.09153 0.01694 0.0
O601 O 0.547 0.10592 0.0724 0.0
O602 O 0.53361 0.09418 0.95616 0.0
O603 O 0.57624 0.11621 0.94662 0.0
O604 O 0.58148 0.15371 0.04477 0.0
O605 O 0.56538 0.17422 1.00474 0.0
O606 O 0.63814 0.14237 0.05766 0.0
O607 O 0.62064 0.13349 1.00177 0.0
H608 H 0.64085 0.16828 0.20035 0.0
H609 H 0.63025 0.21287 0.23174 0.0
H610 H 0.56323 0.21699 0.15089 0.0
H611 H 0.57213 0.17002 0.12123 0.0
H612 H 0.53631 0.08541 0.87006 0.0
H613 H 0.54183 0.03923 0.83616 0.0
H614 H 0.56596 0.9935 0.92117 0.0
H615 H 0.56102 0.04078 0.95511 0.0
Pr616 Pr 0.30074 0.33132 0.27855 0.0
Pr617 Pr 0.35404 0.39085 0.29538 0.0
C618 C 0.24747 0.29311 0.27859 0.0
C619 C 0.224 0.29981 0.29348 0.0
C620 C 0.19514 0.28216 0.28091 0.0
C621 C 0.17292 0.28922 0.29445 0.0
C622 C 0.17903 0.31423 0.32084 0.0
C623 C 0.20803 0.3321 0.33308 0.0
C624 C 0.2302 0.3248 0.31977 0.0
C625 C 0.32163 0.355 0.2247 0.0
C626 C 0.29319 0.40709 0.29177 0.0
C627 C 0.4061 0.43021 0.29285 0.0
C628 C 0.4301 0.42454 0.27821 0.0
C629 C 0.45822 0.43207 0.29713 0.0
C630 C 0.48066 0.4248 0.28428 0.0
C631 C 0.47555 0.40981 0.25215 0.0
C632 C 0.44758 0.40323 0.23291 0.0
C633 C 0.42508 0.41026 0.24581 0.0
C634 C 0.3336 0.36824 0.34958 0.0
C635 C 0.36119 0.31376 0.28618 0.0
O636 O 0.27076 0.29147 0.29855 0.0
O637 O 0.2533 0.30965 0.25472 0.0
O638 O 0.31921 0.37226 0.24911 0.0
O639 O 0.31207 0.32354 0.22685 0.0
O640 O 0.31936 0.42035 0.28737 0.0
O641 O 0.28521 0.37605 0.29696 0.0
O642 O 0.3822 0.43005 0.27292 0.0
O643 O 0.40144 0.41502 0.31789 0.0
O644 O 0.3355 0.35043 0.3252 0.0
O645 O 0.34394 0.39956 0.34734 0.0
O646 O 0.33462 0.30151 0.28977 0.0
O647 O 0.37022 0.34471 0.28061 0.0
H648 H 0.18975 0.26289 0.26057 0.0
H649 H 0.15091 0.27486 0.2844 0.0
H650 H 0.21364 0.35213 0.35271 0.0
H651 H 0.25224 0.33891 0.32995 0.0
H652 H 0.46276 0.44312 0.32209 0.0
H653 H 0.50204 0.43072 0.29961 0.0
H654 H 0.44285 0.39151 0.20816 0.0
H655 H 0.40364 0.40387 0.23055 0.0
Pr656 Pr 0.578 0.60275 0.0165 0.0
Pr657 Pr 0.58569 0.63443 0.07725 0.0
C658 C 0.55839 0.57581 0.95468 0.0
C659 C 0.55582 0.58839 0.92323 0.0
C660 C 0.57985 0.59835 0.90911 0.0
C661 C 0.57647 0.60861 0.87845 0.0
C662 C 0.54911 0.60925 0.86173 0.0
C663 C 0.52542 0.60055 0.87648 0.0
C664 C 0.52872 0.59012 0.90686 0.0
C665 C 0.63443 0.64463 0.03408 0.0
C666 C 0.56574 0.67777 0.02255 0.0
C667 C 0.60181 0.65984 0.13977 0.0
C668 C 0.60185 0.64409 0.16912 0.0
C669 C 0.60961 0.66357 0.19914 0.0
C670 C 0.61266 0.64868 0.22727 0.0
C671 C 0.60826 0.61419 0.22556 0.0
C672 C 0.59899 0.59453 0.19544 0.0
C673 C 0.59548 0.60945 0.16728 0.0
C674 C 0.5294 0.59202 0.05828 0.0
C675 C 0.59886 0.56042 0.07216 0.0
O676 O 0.54165 0.58329 0.97303 0.0
O677 O 0.58435 0.57748 0.97068 0.0
O678 O 0.61206 0.65232 0.03893 0.0
O679 O 0.62817 0.6138 0.02195 0.0
O680 O 0.57895 0.68041 0.05287 0.0
O681 O 0.56003 0.64928 1.00386 0.0
O682 O 0.62002 0.65388 0.12274 0.0
O683 O 0.57636 0.65764 0.12231 0.0
O684 O 0.55219 0.58471 0.05485 0.0
O685 O 0.53514 0.62289 0.06982 0.0
O686 O 0.58397 0.55697 0.0424 0.0
O687 O 0.60624 0.58984 0.08951 0.0
H688 H 0.60107 0.59738 0.92126 0.0
H689 H 0.59491 0.61474 0.86725 0.0
H690 H 0.50389 0.59974 0.86368 0.0
H691 H 0.50985 0.58245 0.91713 0.0
H692 H 0.61437 0.69029 0.20081 0.0
H693 H 0.62026 0.66432 0.25035 0.0
H694 H 0.59564 0.56796 0.1937 0.0
H695 H 0.58885 0.5941 0.14408 0.0
Pr696 Pr 0.82078 0.3321 0.27713 0.0
Pr697 Pr 0.85193 0.41239 0.28235 0.0
C698 C 0.79957 0.26749 0.2542 0.0
C699 C 0.80946 0.24043 0.23979 0.0
C700 C 0.81965 0.21884 0.25965 0.0
C701 C 0.82972 0.19369 0.24675 0.0
C702 C 0.82962 0.18926 0.2136 0.0
C703 C 0.81883 0.2103 0.19345 0.0
C704 C 0.80877 0.23564 0.20643 0.0
C705 C 0.82 0.36584 0.33756 0.0
C706 C 0.88977 0.36124 0.31191 0.0
C707 C 0.8754 0.47709 0.30348 0.0
C708 C 0.87261 0.50068 0.32906 0.0
C709 C 0.87578 0.53376 0.32402 0.0
C710 C 0.8678 0.55512 0.34508 0.0
C711 C 0.85649 0.54359 0.37144 0.0
C712 C 0.85515 0.51097 0.37763 0.0
C713 C 0.86321 0.48965 0.35656 0.0
C714 C 0.85341 0.37811 0.22241 0.0
C715 C 0.78031 0.38365 0.25669 0.0
O716 O 0.79592 0.29105 0.23668 0.0
O717 O 0.81096 0.2784 0.28479 0.0
O718 O 0.829 0.37808 0.31394 0.0
O719 O 0.80949 0.33407 0.32919 0.0
O720 O 0.88585 0.39124 0.31441 0.0
O721 O 0.8702 0.33539 0.29407 0.0
O722 O 0.88779 0.45415 0.31279 0.0
O723 O 0.85248 0.46593 0.28007 0.0
O724 O 0.84387 0.36653 0.2459 0.0
O725 O 0.8642 0.40978 0.23062 0.0
O726 O 0.78235 0.35282 0.25467 0.0
O727 O 0.80234 0.40969 0.26953 0.0
H728 H 0.82012 0.22154 0.28535 0.0
H729 H 0.83806 0.17797 0.26289 0.0
H730 H 0.81803 0.20705 0.16771 0.0
H731 H 0.80056 0.25149 0.19036 0.0
H732 H 0.88283 0.54255 0.30277 0.0
H733 H 0.86847 0.57991 0.33933 0.0
H734 H 0.84641 0.50152 0.39773 0.0
H735 H 0.8607 0.46414 0.36078 0.0
Pr736 Pr 0.09449 0.61691 0.57395 0.0
Pr737 Pr 0.06929 0.62248 0.49768 0.0
C738 C 0.11295 0.63405 0.63803 0.0
C739 C 0.10998 0.66042 0.66087 0.0
C740 C 0.13345 0.67773 0.68555 0.0
C741 C 0.13032 0.70203 0.70795 0.0
C742 C 0.10345 0.70891 0.70644 0.0
C743 C 0.08044 0.69249 0.68059 0.0
C744 C 0.08378 0.66887 0.65786 0.0
C745 C 0.09217 0.55822 0.53494 0.0
C746 C 0.02333 0.59302 0.54396 0.0
C747 C 0.05029 0.60788 0.43325 0.0
C748 C 0.05271 0.58466 0.40696 0.0
C749 C 0.0533 0.59483 0.37642 0.0
C750 C 0.05722 0.57391 0.35156 0.0
C751 C 0.06057 0.54235 0.35679 0.0
C752 C 0.05913 0.53182 0.38722 0.0
C753 C 0.0554 0.55292 0.41218 0.0
C754 C 0.07285 0.68132 0.53763 0.0
C755 C 0.14008 0.64802 0.52807 0.0
O756 O 0.12922 0.64372 0.61752 0.0
O757 O 0.08931 0.61074 0.62497 0.0
O758 O 0.08515 0.5835 0.52564 0.0
O759 O 0.10219 0.56366 0.56603 0.0
O760 O 0.02788 0.59484 0.51436 0.0
O761 O 0.04432 0.60327 0.57015 0.0
O762 O 0.03536 0.59518 0.454 0.0
O763 O 0.07382 0.63111 0.44671 0.0
O764 O 0.07911 0.65537 0.54573 0.0
O765 O 0.06267 0.67671 0.50658 0.0
O766 O 0.13483 0.64705 0.5574 0.0
O767 O 0.1196 0.63586 0.50167 0.0
H768 H 0.15406 0.67207 0.68781 0.0
H769 H 0.14858 0.71435 0.72731 0.0
H770 H 0.05915 0.69609 0.67892 0.0
H771 H 0.06549 0.65635 0.63859 0.0
H772 H 0.05133 0.61927 0.37199 0.0
H773 H 0.05856 0.58286 0.32849 0.0
H774 H 0.06122 0.50749 0.39183 0.0
H775 H 0.05504 0.54465 0.43563 0.0
Pr776 Pr 0.80061 0.86758 0.28981 0.0
Pr777 Pr 0.86447 0.86539 0.29998 0.0
C778 C 0.74485 0.86575 0.28666 0.0
C779 C 0.7207 0.86307 0.3032 0.0
C780 C 0.70408 0.88564 0.2981 0.0
C781 C 0.67992 0.88304 0.31159 0.0
C782 C 0.67174 0.85763 0.3303 0.0
C783 C 0.68882 0.83546 0.33617 0.0
C784 C 0.71312 0.83808 0.3226 0.0
C785 C 0.83722 0.9204 0.26951 0.0
C786 C 0.84108 0.88522 0.36488 0.0
C787 C 0.92062 0.87053 0.30175 0.0
C788 C 0.94439 0.88008 0.28478 0.0
C789 C 0.97215 0.89579 0.30304 0.0
C790 C 0.99578 0.90211 0.28827 0.0
C791 C 0.99202 0.89282 0.25493 0.0
C792 C 0.96405 0.87798 0.23647 0.0
C793 C 0.94036 0.87176 0.25126 0.0
C794 C 0.82863 0.8114 0.31899 0.0
C795 C 0.82267 0.84653 0.22526 0.0
O796 O 0.75342 0.83932 0.28037 0.0
O797 O 0.76577 0.89313 0.29391 0.0
O798 O 0.84356 0.908 0.29518 0.0
O799 O 0.81069 0.90699 0.25484 0.0
O800 O 0.86422 0.88787 0.35236 0.0
O801 O 0.81478 0.87519 0.34659 0.0
O802 O 0.91161 0.89418 0.31455 0.0
O803 O 0.89995 0.84368 0.28945 0.0
O804 O 0.8216 0.82451 0.29393 0.0
O805 O 0.85534 0.82438 0.33323 0.0
O806 O 0.79997 0.84241 0.23864 0.0
O807 O 0.84928 0.8578 0.24284 0.0
H808 H 0.70963 0.90515 0.28329 0.0
H809 H 0.66759 0.90094 0.30734 0.0
H810 H 0.68303 0.81576 0.35068 0.0
H811 H 0.72571 0.82043 0.32693 0.0
H812 H 0.97568 0.90225 0.32896 0.0
H813 H 1.01713 0.91312 0.30314 0.0
H814 H 0.96059 0.87074 0.21069 0.0
H815 H 0.91907 0.85975 0.23667 0.0
Pr816 Pr 0.83471 0.39708 0.79415 0.0
Pr817 Pr 0.82621 0.33052 0.7678 0.0
C818 C 0.85443 0.46227 0.81335 0.0
C819 C 0.85872 0.49205 0.79671 0.0
C820 C 0.83727 0.50899 0.79066 0.0
C821 C 0.84234 0.5381 0.77619 0.0
C822 C 0.86898 0.5507 0.76781 0.0
C823 C 0.88979 0.53283 0.77266 0.0
C824 C 0.88477 0.50399 0.78699 0.0
C825 C 0.77798 0.3719 0.75896 0.0
C826 C 0.84318 0.38325 0.71777 0.0
C827 C 0.80748 0.26518 0.74992 0.0
C828 C 0.80309 0.23698 0.76864 0.0
C829 C 0.81969 0.2143 0.76769 0.0
C830 C 0.8143 0.18649 0.78398 0.0
C831 C 0.79196 0.18077 0.80108 0.0
C832 C 0.77668 0.20471 0.80354 0.0
C833 C 0.78231 0.23255 0.78773 0.0
C834 C 0.88278 0.35625 0.80354 0.0
C835 C 0.81758 0.34357 0.84378 0.0
O836 O 0.87135 0.44321 0.80984 0.0
O837 O 0.82782 0.44575 0.81241 0.0
O838 O 0.80016 0.36713 0.75044 0.0
O839 O 0.78474 0.38791 0.78792 0.0
O840 O 0.83173 0.35186 0.71963 0.0
O841 O 0.84923 0.40526 0.74384 0.0
O842 O 0.79003 0.28409 0.7508 0.0
O843 O 0.83422 0.28174 0.75174 0.0
O844 O 0.86033 0.36045 0.81168 0.0
O845 O 0.87643 0.34053 0.77446 0.0
O846 O 0.82904 0.37508 0.84227 0.0
O847 O 0.81113 0.32192 0.81745 0.0
H848 H 0.81687 0.50023 0.79778 0.0
H849 H 0.82593 0.55137 0.7727 0.0
H850 H 0.91085 0.54219 0.76723 0.0
H851 H 0.90179 0.49164 0.7913 0.0
H852 H 0.83619 0.21753 0.75354 0.0
H853 H 0.82644 0.1685 0.78164 0.0
H854 H 0.75876 0.20092 0.81561 0.0
H855 H 0.76947 0.24988 0.78952 0.0
Pr856 Pr 0.80016 0.83432 0.78727 0.0
Pr857 Pr 0.8587 0.89771 0.80155 0.0
C858 C 0.75053 0.79364 0.79442 0.0
C859 C 0.72793 0.80264 0.80928 0.0
C860 C 0.69929 0.78288 0.80159 0.0
C861 C 0.67776 0.79314 0.814 0.0
C862 C 0.68441 0.82368 0.83374 0.0
C863 C 0.71316 0.84314 0.84171 0.0
C864 C 0.73467 0.83262 0.82986 0.0
C865 C 0.82029 0.85865 0.73311 0.0
C866 C 0.79497 0.91072 0.79068 0.0
C867 C 0.90703 0.93903 0.79179 0.0
C868 C 0.93145 0.93347 0.77819 0.0
C869 C 0.94218 0.95311 0.75558 0.0
C870 C 0.9644 0.94676 0.74159 0.0
C871 C 0.97621 0.92044 0.74979 0.0
C872 C 0.96566 0.90133 0.77292 0.0
C873 C 0.94351 0.90756 0.78675 0.0
C874 C 0.83764 0.88239 0.85832 0.0
C875 C 0.86455 0.81969 0.8039 0.0
O876 O 0.77533 0.79652 0.81412 0.0
O877 O 0.75355 0.80526 0.76713 0.0
O878 O 0.83558 0.85597 0.75973 0.0
O879 O 0.79313 0.84581 0.73275 0.0
O880 O 0.82086 0.92174 0.78436 0.0
O881 O 0.78659 0.88177 0.80078 0.0
O882 O 0.88213 0.93306 0.77136 0.0
O883 O 0.90473 0.92852 0.81975 0.0
O884 O 0.82794 0.86983 0.82947 0.0
O885 O 0.85994 0.90726 0.85895 0.0
O886 O 0.83631 0.80679 0.80056 0.0
O887 O 0.87662 0.85121 0.8021 0.0
H888 H 0.69351 0.75975 0.78571 0.0
H889 H 0.65579 0.77759 0.80758 0.0
H890 H 0.71903 0.8665 0.85728 0.0
H891 H 0.75661 0.84816 0.8366 0.0
H892 H 0.93325 0.97325 0.74859 0.0
H893 H 0.97245 0.96268 0.72462 0.0
H894 H 0.97418 0.88099 0.78002 0.0
H895 H 0.93559 0.89172 0.80386 0.0
Pr896 Pr 0.54743 0.59724 0.50738 0.0
Pr897 Pr 0.61081 0.63163 0.55452 0.0
C898 C 0.49029 0.58566 0.48401 0.0
C899 C 0.4684 0.60398 0.48768 0.0
C900 C 0.45123 0.61109 0.46018 0.0
C901 C 0.43043 0.62815 0.46316 0.0
C902 C 0.42595 0.63825 0.49377 0.0
C903 C 0.44353 0.6316 0.52135 0.0
C904 C 0.46448 0.61474 0.51837 0.0
C905 C 0.5947 0.61345 0.47916 0.0
C906 C 0.57087 0.68004 0.53239 0.0
C907 C 0.66803 0.64328 0.57835 0.0
C908 C 0.68981 0.6254 0.5734 0.0
C909 C 0.71585 0.63144 0.59624 0.0
C910 C 0.73662 0.61484 0.59158 0.0
C911 C 0.73179 0.59162 0.56402 0.0
C912 C 0.70567 0.58572 0.5411 0.0
C913 C 0.68491 0.60232 0.54578 0.0
C914 C 0.56345 0.61402 0.58245 0.0
C915 C 0.58678 0.54879 0.53127 0.0
O916 O 0.50111 0.57346 0.50945 0.0
O917 O 0.50955 0.59809 0.46742 0.0
O918 O 0.58961 0.63003 0.50196 0.0
O919 O 0.57334 0.58709 0.46745 0.0
O920 O 0.59816 0.6796 0.5412 0.0
O921 O 0.54928 0.65259 0.52529 0.0
O922 O 0.65727 0.65634 0.55356 0.0
O923 O 0.64852 0.62925 0.59394 0.0
O924 O 0.56896 0.59845 0.55943 0.0
O925 O 0.5846 0.64035 0.59496 0.0
O926 O 0.55958 0.54957 0.52265 0.0
O927 O 0.60863 0.57596 0.53684 0.0
H928 H 0.45392 0.60349 0.43626 0.0
H929 H 0.41799 0.63365 0.44138 0.0
H930 H 0.44084 0.63906 0.54531 0.0
H931 H 0.47754 0.61007 0.54017 0.0
H932 H 0.72017 0.64909 0.61771 0.0
H933 H 0.75644 0.61998 0.60974 0.0
H934 H 0.70147 0.56866 0.51924 0.0
H935 H 0.66508 0.59727 0.52768 0.0
Pr936 Pr 0.10334 0.6115 0.04352 0.0
Pr937 Pr 0.03944 0.60166 0.04962 0.0
C938 C 0.1578 0.61039 0.04079 0.0
C939 C 0.17934 0.59084 0.0434 0.0
C940 C 0.1752 0.56205 0.02194 0.0
C941 C 0.19727 0.54624 0.02245 0.0
C942 C 0.22391 0.5587 0.04451 0.0
C943 C 0.22776 0.58706 0.06642 0.0
C944 C 0.20575 0.60295 0.0658 0.0
C945 C 0.06911 0.63731 0.99696 0.0
C946 C 0.05656 0.53806 0.01827 0.0
C947 C 0.98428 0.60265 0.04774 0.0
C948 C 0.96325 0.62238 0.04275 0.0
C949 C 0.93557 0.60905 0.04811 0.0
C950 C 0.91469 0.6265 0.04283 0.0
C951 C 0.92106 0.6578 0.03216 0.0
C952 C 0.94896 0.67126 0.0269 0.0
C953 C 0.96992 0.65366 0.03215 0.0
C954 C 0.06912 0.56923 0.09326 0.0
C955 C 0.08718 0.67535 0.07501 0.0
O956 O 0.15079 0.62072 0.06724 0.0
O957 O 0.13628 0.60262 0.01558 0.0
O958 O 0.06143 0.60984 1.00707 0.0
O959 O 0.09601 0.65185 1.00953 0.0
O960 O 0.03533 0.55228 0.01779 0.0
O961 O 0.08375 0.55442 0.02999 0.0
O962 O 0.99337 0.59322 0.02244 0.0
O963 O 1.00437 0.61072 0.07431 0.0
O964 O 0.08051 0.59743 0.08551 0.0
O965 O 0.04152 0.56027 0.08198 0.0
O966 O 0.10835 0.66117 0.0751 0.0
O967 O 0.05996 0.65886 0.06353 0.0
H968 H 0.15517 0.5521 1.00426 0.0
H969 H 0.1936 0.52437 1.00534 0.0
H970 H 0.24816 0.59766 0.08332 0.0
H971 H 0.2097 0.62532 0.08233 0.0
H972 H 0.93002 0.58493 0.05627 0.0
H973 H 0.89351 0.61556 0.04729 0.0
H974 H 0.95441 0.69509 0.01822 0.0
H975 H 0.99116 0.66427 0.02771 0.0
C976 C 0.06859 0.25038 0.98061 0.0
C977 C 0.04651 0.26022 0.99254 0.0
C978 C 0.07946 0.22459 0.9926 0.0
C979 C 0.06846 0.20758 0.01667 0.0
H980 H 0.07701 0.26201 0.96126 0.0
H981 H 0.0955 0.21691 0.98191 0.0
S982 S 1.01442 0.22695 0.06 0.0
N983 N 1.01688 0.25313 0.03297 0.0
N984 N 0.037 0.20481 0.05477 0.0
C985 C 0.0478 0.21847 0.03015 0.0
C986 C 0.03688 0.24468 0.01825 0.0
C987 C 0.2141 0.89501 0.22683 0.0
C988 C 0.21306 0.89221 0.19328 0.0
C989 C 0.2383 0.89203 0.24907 0.0
C990 C 0.26219 0.88543 0.23863 0.0
H991 H 0.19607 0.89954 0.23603 0.0
H992 H 0.23823 0.89474 0.27463 0.0
S993 S 0.27045 0.87564 0.15345 0.0
N994 N 0.23854 0.88267 0.15093 0.0
N995 N 0.2832 0.87623 0.19236 0.0
C996 C 0.26135 0.88237 0.20517 0.0
C997 C 0.23706 0.88602 0.18264 0.0
C998 C 0.57254 0.96255 0.48761 0.0
C999 C 0.54777 0.94198 0.4951 0.0
C1000 C 0.57865 0.99721 0.4932 0.0
C1001 C 0.55978 1.0125 0.50559 0.0
H1002 H 0.58724 0.95184 0.47714 0.0
H1003 H 0.598 1.01212 0.48725 0.0
S1004 S 0.49302 0.97029 0.53117 0.0
N1005 N 0.50508 0.93993 0.51736 0.0
N1006 N 0.51628 1.00471 0.52698 0.0
C1007 C 0.53525 0.99234 0.51369 0.0
C1008 C 0.52934 0.95719 0.5087 0.0
C1009 C 0.54723 0.37619 0.69933 0.0
C1010 C 0.55691 0.40667 0.68786 0.0
C1011 C 0.52467 0.3706 0.71598 0.0
C1012 C 0.51065 0.39515 0.72178 0.0
H1013 H 0.5571 0.35631 0.69542 0.0
H1014 H 0.51797 0.34667 0.72419 0.0
S1015 S 0.52788 0.47963 0.69782 0.0
N1016 N 0.55068 0.46206 0.6841 0.0
N1017 N 0.50842 0.45137 0.71551 0.0
C1018 C 0.52002 0.42575 0.71057 0.0
C1019 C 0.54311 0.43157 0.69367 0.0
C1020 C 0.10911 0.98818 0.60852 0.0
C1021 C 0.09661 0.95796 0.58804 0.0
C1022 C 0.1082 0.01887 0.59745 0.0
C1023 C 0.09519 0.02074 0.56524 0.0
H1024 H 0.11854 0.98804 0.63371 0.0
H1025 H 0.11709 0.04119 0.61456 0.0
S1026 S 0.0626 0.94877 0.50089 0.0
N1027 N 0.07276 0.93208 0.53351 0.0
N1028 N 0.07188 0.98905 0.51235 0.0
C1029 C 0.08405 0.99064 0.54417 0.0
C1030 C 0.08452 0.95953 0.55563 0.0
C1031 C 0.46695 0.87345 0.85679 0.0
C1032 C 0.46621 0.84546 0.87311 0.0
C1033 C 0.44211 0.87669 0.83579 0.0
C1034 C 0.41575 0.85176 0.82976 0.0
H1035 H 0.48632 0.89386 0.86179 0.0
H1036 H 0.44339 0.89936 0.82497 0.0
S1037 S 0.4037 0.77203 0.86425 0.0
N1038 N 0.43771 0.79158 0.8804 0.0
N1039 N 0.39149 0.79686 0.84035 0.0
C1040 C 0.41542 0.82274 0.84449 0.0
C1041 C 0.44049 0.81984 0.86633 0.0
C1042 C 0.60692 0.24812 0.10737 0.0
C1043 C 0.59222 0.27235 0.09978 0.0
C1044 C 0.60191 0.2188 0.08633 0.0
C1045 C 0.58166 0.21195 0.05683 0.0
H1046 H 0.62223 0.25161 0.1302 0.0
H1047 H 0.61383 0.20112 0.09345 0.0
S1048 S 0.5391 0.26825 0.02386 0.0
N1049 N 0.55795 0.28839 0.05934 0.0
N1050 N 0.54827 0.23318 0.01989 0.0
C1051 C 0.56777 0.23661 0.04811 0.0
C1052 C 0.57307 0.26676 0.06953 0.0
C1053 C 0.10661 0.33018 0.32787 0.0
C1054 C 0.10862 0.33575 0.3615 0.0
C1055 C 0.12938 0.32351 0.31505 0.0
C1056 C 0.15521 0.32182 0.33522 0.0
H1057 H 0.08723 0.331 0.31118 0.0
H1058 H 0.12674 0.31981 0.28901 0.0
S1059 S 0.17083 0.33221 0.42508 0.0
N1060 N 0.13845 0.33808 0.41478 0.0
N1061 N 0.18073 0.32478 0.39079 0.0
C1062 C 0.15744 0.3271 0.36893 0.0
C1063 C 0.13434 0.33422 0.382 0.0
C1064 C 0.99687 0.09583 0.10361 0.0
C1065 C 0.9961 0.06612 0.117 0.0
C1066 C 0.02261 0.11556 0.09793 0.0
C1067 C 0.04856 0.10659 0.10591 0.0
H1068 H 0.97753 0.10418 0.09799 0.0
H1069 H 0.0222 0.13792 0.087 0.0
S1070 S 0.05877 0.03202 0.14241 0.0
N1071 N 0.02404 0.02892 0.13825 0.0
N1072 N 0.07232 0.06669 0.12837 0.0
C1073 C 0.04831 0.07729 0.11961 0.0
C1074 C 0.02206 0.05675 0.12471 0.0
C1075 C 0.31615 0.79843 0.41529 0.0
C1076 C 0.3127 0.82062 0.43993 0.0
C1077 C 0.31816 0.80755 0.3842 0.0
C1078 C 0.31729 0.83943 0.37662 0.0
H1079 H 0.31673 0.7736 0.41983 0.0
H1080 H 0.32097 0.78969 0.36618 0.0
S1081 S 0.30904 0.90699 0.43255 0.0
N1082 N 0.30872 0.87607 0.45429 0.0
N1083 N 0.31283 0.89311 0.39667 0.0
C1084 C 0.31409 0.86182 0.40115 0.0
C1085 C 0.31171 0.85247 0.43249 0.0
C1086 C 0.63487 0.0866 0.66385 0.0
C1087 C 0.62669 0.05363 0.67033 0.0
C1088 C 0.62057 0.09691 0.63642 0.0
C1089 C 0.59709 0.07479 0.61481 0.0
H1090 H 0.65181 0.10493 0.68084 0.0
H1091 H 0.62705 0.12277 0.63302 0.0
S1092 S 0.5692 0.98501 0.6187 0.0
N1093 N 0.59542 0.99822 0.65128 0.0
N1094 N 0.56804 0.01772 0.59983 0.0
C1095 C 0.5897 0.04133 0.61993 0.0
C1096 C 0.60467 0.03069 0.64765 0.0
C1097 C 0.35839 0.3772 0.94849 0.0
C1098 C 0.35269 0.40561 0.96279 0.0
C1099 C 0.35515 0.37057 0.91479 0.0
C1100 C 0.34602 0.39199 0.89392 0.0
H1101 H 0.36577 0.36001 0.96348 0.0
H1102 H 0.35969 0.34839 0.90496 0.0
S1103 S 0.3288 0.46988 0.91805 0.0
N1104 N 0.33787 0.45562 0.95258 0.0
N1105 N 0.33128 0.44255 0.88941 0.0
C1106 C 0.33985 0.42012 0.90752 0.0
C1107 C 0.3433 0.42708 0.94187 0.0
C1108 C 0.99064 0.12948 0.27601 0.0
C1109 C 1.0047 0.11407 0.25598 0.0
C1110 C 1.00214 0.13745 0.30919 0.0
C1111 C 0.02798 0.13037 0.32294 0.0
H1112 H 0.96909 0.13166 0.26695 0.0
H1113 H 0.989 0.14505 0.32459 0.0
S1114 S 0.07786 0.10193 0.27916 0.0
N1115 N 0.04958 0.10128 0.25073 0.0
N1116 N 0.07086 0.11568 0.31341 0.0
C1117 C 0.04472 0.12105 0.30242 0.0
C1118 C 0.03308 0.11298 0.26863 0.0
C1119 C 0.33799 0.86205 0.63202 0.0
C1120 C 0.33087 0.8277 0.62274 0.0
C1121 C 0.34435 0.87565 0.6647 0.0
C1122 C 0.34308 0.85563 0.68989 0.0
H1123 H 0.33818 0.87867 0.61373 0.0
H1124 H 0.34941 0.90231 0.67012 0.0
S1125 S 0.32581 0.76394 0.67868 0.0
N1126 N 0.32359 0.77375 0.6415 0.0
N1127 N 0.33478 0.79927 0.70296 0.0
C1128 C 0.33635 0.82116 0.68106 0.0
C1129 C 0.33049 0.80726 0.64757 0.0
C1130 C 0.6092 0.98218 0.84253 0.0
C1131 C 0.59681 0.97809 0.80935 0.0
C1132 C 0.59333 0.9881 0.86553 0.0
C1133 C 0.56461 0.98957 0.85575 0.0
H1134 H 0.6323 0.98636 0.85052 0.0
H1135 H 0.6049 0.99622 0.89036 0.0
S1136 S 0.5198 0.96652 0.77268 0.0
N1137 N 0.55257 0.96616 0.76853 0.0
N1138 N 0.52221 0.97559 0.81184 0.0
C1139 C 0.5506 0.97825 0.82332 0.0
C1140 C 0.5669 0.97283 0.79997 0.0
C1141 C 0.35111 0.36355 0.14719 0.0
C1142 C 0.35095 0.39597 0.14071 0.0
C1143 C 0.34126 0.35035 0.17394 0.0
C1144 C 0.3314 0.36917 0.19596 0.0
H1145 H 0.35871 0.34802 0.13127 0.0
H1146 H 0.34178 0.32531 0.17764 0.0
S1147 S 0.32699 0.45558 0.19082 0.0
N1148 N 0.33988 0.44649 0.15905 0.0
N1149 N 0.32231 0.42221 0.20946 0.0
C1150 C 0.33138 0.40171 0.19 0.0
C1151 C 0.34084 0.41492 0.16241 0.0
C1152 C 0.2854 0.04698 0.03741 0.0
C1153 C 0.30041 0.03864 0.06594 0.0
C1154 C 0.26516 0.06545 0.03832 0.0
C1155 C 0.25872 0.07588 0.06772 0.0
H1156 H 0.28945 0.03939 0.01416 0.0
H1157 H 0.25412 0.07116 0.01576 0.0
S1158 S 0.29196 0.061 0.14932 0.0
N1159 N 0.30732 0.04275 0.12458 0.0
N1160 N 0.26938 0.07709 0.12608 0.0
C1161 C 0.27353 0.06777 0.09637 0.0
C1162 C 0.29432 0.04931 0.09553 0.0
C1163 C 0.68409 0.7272 0.02418 0.0
C1164 C 0.70926 0.71927 0.01854 0.0
C1165 C 0.66053 0.70315 0.02989 0.0
C1166 C 0.66069 0.66976 0.02989 0.0
H1167 H 0.6826 0.75247 0.02474 0.0
H1168 H 0.64186 0.71086 0.03399 0.0
S1169 S 0.72075 0.63523 0.016 0.0
N1170 N 0.73261 0.67508 0.01332 0.0
N1171 N 0.68812 0.62983 0.02342 0.0
C1172 C 0.68549 0.66123 0.02401 0.0
C1173 C 0.70975 0.6859 0.01851 0.0
C1174 C 0.79494 0.56914 0.39723 0.0
C1175 C 0.80624 0.60351 0.40603 0.0
C1176 C 0.81214 0.54946 0.38861 0.0
C1177 C 0.84127 0.56345 0.38826 0.0
H1178 H 0.77225 0.5575 0.39552 0.0
H1179 H 0.80201 0.52349 0.38004 0.0
S1180 S 0.88246 0.65119 0.41386 0.0
N1181 N 0.84928 0.6501 0.41744 0.0
N1182 N 0.88163 0.61284 0.40105 0.0
C1183 C 0.85344 0.59728 0.39933 0.0
C1184 C 0.83593 0.61739 0.40836 0.0
C1185 C 0.96424 0.53404 0.57348 0.0
C1186 C 0.9394 0.53172 0.54961 0.0
C1187 C 0.99091 0.55582 0.57278 0.0
C1188 C 0.99397 0.57545 0.54762 0.0
H1189 H 0.96329 0.51788 0.59217 0.0
H1190 H 1.0096 0.55563 0.59096 0.0
S1191 S 0.93499 0.58056 0.48069 0.0
N1192 N 0.919 0.55277 0.5016 0.0
N1193 N 0.96926 0.59305 0.49958 0.0
C1194 C 0.96897 0.57457 0.52447 0.0
C1195 C 0.94164 0.5529 0.52566 0.0
C1196 C 0.40266 0.25725 0.32623 0.0
C1197 C 0.42896 0.26626 0.31606 0.0
C1198 C 0.38008 0.27133 0.31504 0.0
C1199 C 0.38291 0.29479 0.29309 0.0
H1200 H 0.39969 0.2397 0.34351 0.0
H1201 H 0.36074 0.26468 0.32462 0.0
S1202 S 0.44524 0.32217 0.25454 0.0
N1203 N 0.45511 0.29714 0.27979 0.0
N1204 N 0.41275 0.32343 0.25876 0.0
C1205 C 0.40851 0.30269 0.28148 0.0
C1206 C 0.43151 0.28852 0.29297 0.0
C1207 C 0.36916 0.20236 0.48079 0.0
C1208 C 0.35837 0.21439 0.50645 0.0
C1209 C 0.39198 0.18749 0.48644 0.0
C1210 C 0.40496 0.18389 0.51797 0.0
H1211 H 0.3599 0.20436 0.45601 0.0
H1212 H 0.3992 0.17824 0.46586 0.0
S1213 S 0.38624 0.21277 0.59385 0.0
N1214 N 0.3634 0.22255 0.56489 0.0
N1215 N 0.40631 0.19489 0.57533 0.0
C1216 C 0.3947 0.19611 0.54389 0.0
C1217 C 0.37145 0.21125 0.53819 0.0
C1218 C 0.76061 0.75514 0.33463 0.0
C1219 C 0.77126 0.7371 0.35839 0.0
C1220 C 0.77931 0.77833 0.32112 0.0
C1221 C 0.80929 0.78491 0.33145 0.0
H1222 H 0.7376 0.75103 0.32604 0.0
H1223 H 0.77021 0.7915 0.30285 0.0
S1224 S 0.84814 0.74404 0.3927 0.0
N1225 N 0.81367 0.72675 0.39113 0.0
N1226 N 0.84893 0.77111 0.36646 0.0
C1227 C 0.82027 0.76694 0.35509 0.0
C1228 C 0.80121 0.74284 0.36839 0.0
C1229 C 0.91872 0.61987 0.74249 0.0
C1230 C 0.92338 0.64369 0.76938 0.0
C1231 C 0.89603 0.59101 0.73753 0.0
C1232 C 0.87821 0.5849 0.76003 0.0
H1233 H 0.9346 0.62155 0.72762 0.0
H1234 H 0.89537 0.57131 0.71917 0.0
S1235 S 0.87461 0.64563 0.82605 0.0
N1236 N 0.90265 0.66441 0.8118 0.0
N1237 N 0.86103 0.60923 0.80367 0.0
C1238 C 0.87898 0.61146 0.78264 0.0
C1239 C 0.90163 0.64124 0.78717 0.0
C1240 C 0.08658 0.95759 0.06313 0.0
C1241 C 0.10831 0.96003 0.09084 0.0
C1242 C 0.07844 0.98586 0.05344 0.0
C1243 C 0.0924 0.01744 0.07068 0.0
H1244 H 0.07609 0.93379 0.04872 0.0
H1245 H 0.06209 0.98318 0.03162 0.0
S1246 S 0.14997 0.03649 0.14543 0.0
N1247 N 0.14257 0.99601 0.13603 0.0
N1248 N 0.12837 0.04907 0.11733 0.0
C1249 C 0.11382 0.01987 0.09868 0.0
C1250 C 0.1215 0.99117 0.10889 0.0
C1251 C 0.95035 0.3321 0.84276 0.0
C1252 C 0.95049 0.33724 0.87596 0.0
C1253 C 0.92904 0.33941 0.81932 0.0
C1254 C 0.90758 0.35294 0.82828 0.0
H1255 H 0.9664 0.32171 0.83484 0.0
H1256 H 0.92908 0.33385 0.794 0.0
S1257 S 0.90089 0.37514 0.91238 0.0
N1258 N 0.92858 0.35906 0.9166 0.0
N1259 N 0.88965 0.3738 0.87306 0.0
C1260 C 0.90854 0.35974 0.86151 0.0
C1261 C 0.92964 0.35161 0.88518 0.0
C1262 C 0.5872 0.27285 0.58736 0.0
C1263 C 0.61343 0.29318 0.58314 0.0
C1264 C 0.58136 0.23822 0.58262 0.0
C1265 C 0.60192 0.22279 0.5745 0.0
H1266 H 0.57102 0.28376 0.59423 0.0
H1267 H 0.56068 0.22343 0.58555 0.0
S1268 S 0.67406 0.26484 0.56077 0.0
N1269 N 0.66013 0.29521 0.57012 0.0
N1270 N 0.64937 0.23045 0.56196 0.0
C1271 C 0.6283 0.24284 0.57044 0.0
C1272 C 0.63398 0.27795 0.57452 0.0
C1273 C 0.62258 0.85166 0.39018 0.0
C1274 C 0.59605 0.8526 0.37098 0.0
C1275 C 0.64677 0.85258 0.37678 0.0
C1276 C 0.64544 0.85458 0.34367 0.0
H1277 H 0.62486 0.85059 0.41593 0.0
H1278 H 0.66685 0.85249 0.39259 0.0
S1279 S 0.58083 0.85492 0.28221 0.0
N1280 N 0.56972 0.85383 0.31658 0.0
N1281 N 0.61517 0.85534 0.29153 0.0
C1282 C 0.61898 0.85472 0.32401 0.0
C1283 C 0.59431 0.85377 0.33761 0.0
C1284 C 0.05228 0.24555 0.46613 0.0
C1285 C 0.04953 0.27074 0.48825 0.0
C1286 C 0.05485 0.21473 0.47557 0.0
C1287 C 0.05543 0.20803 0.50772 0.0
H1288 H 0.05198 0.24945 0.44115 0.0
H1289 H 0.05702 0.19628 0.45767 0.0
S1290 S 0.04974 0.26574 0.57529 0.0
N1291 N 0.04773 0.2866 0.54392 0.0
N1292 N 0.05331 0.22953 0.56168 0.0
C1293 C 0.05304 0.23315 0.53009 0.0
C1294 C 0.04989 0.26418 0.52038 0.0
C1295 C 0.71277 0.38915 0.19902 0.0
C1296 C 0.69233 0.38495 0.21872 0.0
C1297 C 0.74184 0.39062 0.21183 0.0
C1298 C 0.75148 0.38852 0.2448 0.0
H1299 H 0.70592 0.38901 0.17321 0.0
H1300 H 0.75656 0.39185 0.19557 0.0
S1301 S 0.70763 0.38152 0.30729 0.0
N1302 N 0.68462 0.38173 0.27349 0.0
N1303 N 0.73907 0.38476 0.29724 0.0
C1304 C 0.73176 0.38645 0.26504 0.0
C1305 C 0.70225 0.38468 0.25208 0.0
C1306 C 0.59342 0.97232 0.99879 0.0
C1307 C 0.56423 0.95382 0.99238 0.0
C1308 C 0.6022 1.00588 0.01293 0.0
C1309 C 0.58205 0.02259 0.02011 0.0
H1310 H 0.60971 0.96048 0.99399 0.0
H1311 H 0.62496 0.01871 0.01872 0.0
S1312 S 0.50304 0.98661 1.00628 0.0
N1313 N 0.51517 0.95583 0.99343 0.0
N1314 N 0.53173 0.01843 0.0189 0.0
C1315 C 0.55286 1.00482 0.01275 0.0
C1316 C 0.54395 0.97066 0.99912 0.0
C1317 C 0.04224 0.89143 0.74036 0.0
C1318 C 0.04169 0.8903 0.70706 0.0
C1319 C 0.02183 0.90256 0.75392 0.0
C1320 C 0.99938 0.91234 0.73471 0.0
H1321 H 0.05861 0.88347 0.7562 0.0
H1322 H 0.0235 0.90304 0.77976 0.0
S1323 S 0.98819 0.91368 0.64577 0.0
N1324 N 1.01747 0.90065 0.65509 0.0
N1325 N 0.97802 0.92001 0.68013 0.0
C1326 C 0.99886 0.91187 0.70128 0.0
C1327 C 1.02021 0.90119 0.68758 0.0
C1328 C 0.16608 0.12065 0.97711 0.0
C1329 C 0.16787 0.14932 0.96189 0.0
C1330 C 0.13965 0.10249 0.9827 0.0
C1331 C 0.11411 0.11189 0.97235 0.0
H1332 H 0.18523 0.11247 0.98504 0.0
H1333 H 0.13933 0.08145 0.99599 0.0
S1334 S 0.10637 0.18094 0.92534 0.0
N1335 N 0.14119 0.18366 0.93266 0.0
N1336 N 0.09165 0.14917 0.94277 0.0
C1337 C 0.11529 0.13915 0.95519 0.0
C1338 C 0.14218 0.15803 0.95013 0.0
C1339 C 0.84888 0.43577 0.64761 0.0
C1340 C 0.85011 0.41317 0.62195 0.0
C1341 C 0.84734 0.42631 0.67868 0.0
C1342 C 0.8465 0.39372 0.68529 0.0
H1343 H 0.84997 0.4612 0.64394 0.0
H1344 H 0.84654 0.44465 0.69758 0.0
S1345 S 0.84774 0.32468 0.62597 0.0
N1346 N 0.84955 0.35649 0.60524 0.0
N1347 N 0.84625 0.33872 0.66279 0.0
C1348 C 0.84709 0.37082 0.65955 0.0
C1349 C 0.849 0.38052 0.62821 0.0
C1350 C 0.52996 0.16549 0.42012 0.0
C1351 C 0.54156 0.19891 0.41665 0.0
C1352 C 0.54218 0.15097 0.4459 0.0
C1353 C 0.5668 0.16927 0.46869 0.0
H1354 H 0.51272 0.14979 0.40133 0.0
H1355 H 0.53357 0.12475 0.4466 0.0
S1356 S 0.60238 0.259 0.47336 0.0
N1357 N 0.57658 0.25084 0.44028 0.0
N1358 N 0.59977 0.22379 0.48883 0.0
C1359 C 0.57697 0.20345 0.46711 0.0
C1360 C 0.56427 0.21825 0.44102 0.0
C1361 C 0.83104 0.82417 0.13903 0.0
C1362 C 0.80795 0.83288 0.11968 0.0
C1363 C 0.83614 0.8291 0.17316 0.0
C1364 C 0.81784 0.842 0.18927 0.0
H1365 H 0.84514 0.81316 0.12776 0.0
H1366 H 0.85409 0.82199 0.187 0.0
S1367 S 0.75549 0.87069 0.15049 0.0
N1368 N 0.76761 0.8569 0.11993 0.0
N1369 N 0.7768 0.86516 0.18339 0.0
C1370 C 0.79511 0.85138 0.17032 0.0
C1371 C 0.79028 0.8471 0.13578 0.0
C1372 C 0.15794 0.10705 0.80178 0.0
C1373 C 0.15187 0.13092 0.82242 0.0
C1374 C 0.14344 0.09924 0.76945 0.0
C1375 C 0.12246 0.115 0.75695 0.0
H1376 H 0.17574 0.09657 0.80969 0.0
H1377 H 0.15078 0.08352 0.75338 0.0
S1378 S 0.09291 0.17173 0.80309 0.0
N1379 N 0.11885 0.16424 0.82991 0.0
N1380 N 0.09207 0.14999 0.76871 0.0
C1381 C 0.11318 0.13492 0.77835 0.0
C1382 C 0.12786 0.14286 0.81134 0.0
C1383 C 0.82774 0.42381 0.41562 0.0
C1384 C 0.83985 0.40719 0.44005 0.0
C1385 C 0.82194 0.41117 0.38231 0.0
C1386 C 0.82778 0.3813 0.37218 0.0
H1387 H 0.82321 0.44702 0.42221 0.0
H1388 H 0.81246 0.42459 0.36447 0.0
S1389 S 0.85901 0.32789 0.42581 0.0
N1390 N 0.85703 0.35876 0.45087 0.0
N1391 N 0.84618 0.3356 0.38927 0.0
C1392 C 0.83955 0.36446 0.39629 0.0
C1393 C 0.84559 0.37723 0.42985 0.0
C1394 C 0.54939 0.25581 0.23823 0.0
C1395 C 0.5694 0.27181 0.2667 0.0
C1396 C 0.55848 0.24174 0.21253 0.0
C1397 C 0.58797 0.24455 0.21394 0.0
H1398 H 0.52647 0.24923 0.23779 0.0
H1399 H 0.54201 0.22542 0.19348 0.0
S1400 S 0.64871 0.29806 0.27649 0.0
N1401 N 0.61966 0.29874 0.29065 0.0
N1402 N 0.63702 0.27504 0.24086 0.0
C1403 C 0.6081 0.26694 0.23905 0.0
C1404 C 0.59875 0.28023 0.26575 0.0
C1405 C 0.81167 0.82099 0.91578 0.0
C1406 C 0.8092 0.84144 0.9424 0.0
C1407 C 0.82023 0.83433 0.88843 0.0
C1408 C 0.82761 0.86875 0.887 0.0
H1409 H 0.80635 0.79441 0.91576 0.0
H1410 H 0.82164 0.81758 0.86851 0.0
S1411 S 0.82556 0.93314 0.95041 0.0
N1412 N 0.81482 0.89803 0.9652 0.0
N1413 N 0.83221 0.92288 0.91485 0.0
C1414 C 0.82577 0.88943 0.91364 0.0
C1415 C 0.81621 0.87585 0.94098 0.0
C1416 C 0.88434 0.19014 0.03446 0.0
C1417 C 0.86293 0.18842 1.00658 0.0
C1418 C 0.90409 0.1708 0.03516 0.0
C1419 C 0.90327 0.1487 1.00809 0.0
H1420 H 0.88595 0.20661 0.05601 0.0
H1421 H 0.92006 0.17306 0.05723 0.0
S1422 S 0.85244 0.13561 0.92855 0.0
N1423 N 0.84276 0.163 0.9508 0.0
N1424 N 0.87983 0.12717 0.95221 0.0
C1425 C 0.88207 0.14677 0.98006 0.0
C1426 C 0.86199 0.16646 0.97927 0.0
C1427 C 0.47805 0.50881 0.06318 0.0
C1428 C 0.45263 0.51672 0.06787 0.0
C1429 C 0.50232 0.53314 0.05946 0.0
C1430 C 0.50259 0.56672 0.06057 0.0
H1431 H 0.47923 0.48341 0.06189 0.0
H1432 H 0.52118 0.52547 0.05598 0.0
S1433 S 0.44199 0.60118 0.07234 0.0
N1434 N 0.42946 0.56107 0.07325 0.0
N1435 N 0.47522 0.60675 0.06676 0.0
C1436 C 0.47749 0.57518 0.0654 0.0
C1437 C 0.45256 0.55028 0.06893 0.0
C1438 C 0.35767 0.61076 0.73352 0.0
C1439 C 0.37631 0.61556 0.71174 0.0
C1440 C 0.34231 0.63366 0.73944 0.0
C1441 C 0.34521 0.66222 0.72394 0.0
H1442 H 0.35537 0.58954 0.74672 0.0
H1443 H 0.32897 0.62968 0.7572 0.0
S1444 S 0.38867 0.68509 0.6625 0.0
N1445 N 0.39494 0.6501 0.67278 0.0
N1446 N 0.36607 0.69314 0.68428 0.0
C1447 C 0.36272 0.66675 0.70117 0.0
C1448 C 0.37826 0.64339 0.69494 0.0
C1449 C 0.20123 0.69784 0.49338 0.0
C1450 C 0.22427 0.70783 0.52045 0.0
C1451 C 0.17455 0.67683 0.4955 0.0
C1452 C 0.16971 0.66581 0.52504 0.0
H1453 H 0.20356 0.70726 0.4707 0.0
H1454 H 0.1572 0.6706 0.47421 0.0
S1455 S 0.2239 0.68512 0.60292 0.0
N1456 N 0.24116 0.7048 0.57723 0.0
N1457 N 0.19123 0.66589 0.5818 0.0
C1458 C 0.19312 0.67501 0.55207 0.0
C1459 C 0.22032 0.69593 0.54964 0.0
C1460 C 0.73329 0.944 0.80464 0.0
C1461 C 0.72475 0.95612 0.77545 0.0
C1462 C 0.75699 0.93084 0.80982 0.0
C1463 C 0.77367 0.93008 0.78641 0.0
H1464 H 0.72136 0.94425 0.82365 0.0
H1465 H 0.76208 0.9207 0.83224 0.0
S1466 S 0.76135 0.95958 0.70628 0.0
N1467 N 0.73532 0.96707 0.7229 0.0
N1468 N 0.78045 0.94269 0.73308 0.0
C1469 C 0.76598 0.94278 0.7574 0.0
C1470 C 0.74133 0.95565 0.75178 0.0
C1471 C 0.78006 0.01951 0.51338 0.0
C1472 C 0.79504 1.01119 0.54189 0.0
C1473 C 0.75894 0.03658 0.51406 0.0
C1474 C 0.75168 0.04595 0.54325 0.0
H1475 H 0.78466 1.01289 0.49017 0.0
H1476 H 0.74808 0.04235 0.49143 0.0
S1477 S 0.78442 0.03063 0.62489 0.0
N1478 N 0.80094 0.01387 0.60039 0.0
N1479 N 0.76138 0.04608 0.60153 0.0
C1480 C 0.7663 0.03771 0.57197 0.0
C1481 C 0.78794 0.02039 0.57133 0.0
C1482 C 0.40317 0.45889 0.74014 0.0
C1483 C 0.39333 0.47028 0.71099 0.0
C1484 C 0.38374 0.44104 0.75688 0.0
C1485 C 0.3539 0.43312 0.74457 0.0
H1486 H 0.42604 0.46492 0.75076 0.0
H1487 H 0.39216 0.43367 0.77971 0.0
S1488 S 0.3174 0.45643 0.66839 0.0
N1489 N 0.35213 0.47259 0.67035 0.0
N1490 N 0.3154 0.43762 0.70096 0.0
C1491 C 0.34382 0.44392 0.71506 0.0
C1492 C 0.36362 0.46282 0.69845 0.0
C1493 C 0.19255 0.61623 0.23089 0.0
C1494 C 0.19862 0.58547 0.22746 0.0
C1495 C 0.21482 0.64532 0.2401 0.0
C1496 C 0.2438 0.64453 0.24577 0.0
H1497 H 0.17047 0.61784 0.22661 0.0
H1498 H 0.20935 0.66871 0.24181 0.0
S1499 S 0.27113 0.57046 0.23937 0.0
N1500 N 0.23567 0.55582 0.2302 0.0
N1501 N 0.27761 0.611 0.24725 0.0
C1502 C 0.25023 0.61404 0.24247 0.0
C1503 C 0.22758 0.58433 0.2334 0.0
C1504 C 0.57087 0.76099 0.49869 0.0
C1505 C 0.54427 0.76598 0.50278 0.0
C1506 C 0.58044 0.73441 0.51044 0.0
C1507 C 0.5636 0.71149 0.52634 0.0
H1508 H 0.58424 0.77741 0.48578 0.0
H1509 H 0.60045 0.73084 0.50555 0.0
S1510 S 0.49372 0.71454 0.546 0.0
N1511 N 0.50233 0.74664 0.52625 0.0
N1512 N 0.52015 0.69657 0.54757 0.0
C1513 C 0.53758 0.71679 0.5317 0.0
C1514 C 0.52797 0.74403 0.52015 0.0
C1515 C 0.71058 0.39703 0.72101 0.0
C1516 C 0.70944 0.39099 0.68765 0.0
C1517 C 0.73214 0.38967 0.74407 0.0
C1518 C 0.75296 0.37531 0.73463 0.0
H1519 H 0.69508 0.40808 0.72937 0.0
H1520 H 0.73279 0.39586 0.76948 0.0
S1521 S 0.75721 0.35081 0.65014 0.0
N1522 N 0.72987 0.36746 0.64643 0.0
N1523 N 0.76939 0.35294 0.68939 0.0
C1524 C 0.75112 0.36774 0.70132 0.0
C1525 C 0.72968 0.3758 0.67797 0.0
C1526 C 0.06525 0.45435 0.9893 0.0
C1527 C 0.03946 0.43225 0.99253 0.0
C1528 C 0.07051 0.48858 0.99744 0.0
C1529 C 0.0499 0.50206 1.00839 0.0
H1530 H 0.0815 0.44516 0.98037 0.0
H1531 H 0.09078 0.50464 0.99482 0.0
S1532 S 0.97907 0.45506 0.02164 0.0
N1533 N 0.99323 0.42648 1.00808 0.0
N1534 N 1.00308 0.49072 0.02289 0.0
C1535 C 0.02409 0.48032 1.01184 0.0
C1536 C 1.0189 0.44546 1.00409 0.0
C1537 C 0.04503 0.87162 0.20784 0.0
C1538 C 0.0666 0.90172 0.2115 0.0
C1539 C 1.02088 0.86917 0.2216 0.0
C1540 C 1.01742 0.89661 0.23986 0.0
H1541 H 0.04652 0.84974 0.19384 0.0
H1542 H 1.00492 0.84546 0.21822 0.0
S1543 S 0.06733 0.9811 0.25688 0.0
N1544 N 0.08272 0.95968 0.23494 0.0
N1545 N 0.03727 0.95485 0.26081 0.0
C1546 C 0.0388 0.92679 0.24398 0.0
C1547 C 0.06336 0.92941 0.22979 0.0
C1548 C 0.62034 0.50605 0.13581 0.0
C1549 C 0.61151 0.47368 0.11888 0.0
C1550 C 0.61701 0.53378 0.12041 0.0
C1551 C 0.60453 0.53073 0.08721 0.0
H1552 H 0.62966 0.51015 0.1615 0.0
H1553 H 0.62383 0.55779 0.13496 0.0
S1554 S 0.57868 0.45184 0.03116 0.0
N1555 N 0.59049 0.44059 0.06648 0.0
N1556 N 0.5841 0.49234 0.0376 0.0
C1557 C 0.59616 0.4986 0.06975 0.0
C1558 C 0.59967 0.47029 0.08549 0.0
C1559 C 0.94637 0.36797 0.38787 0.0
C1560 C 0.96555 0.35117 0.37819 0.0
C1561 C 0.92214 0.37082 0.36611 0.0
C1562 C 0.91546 0.35639 0.33372 0.0
H1563 H 0.95034 0.37963 0.41255 0.0
H1564 H 0.90831 0.3843 0.37487 0.0
S1565 S 0.9579 0.309 0.2958 0.0
N1566 N 0.97607 0.31977 0.33369 0.0
N1567 N 0.92962 0.32417 0.29283 0.0
C1568 C 0.93399 0.33897 0.32357 0.0
C1569 C 0.9593 0.33672 0.34574 0.0
C1570 C 0.0659 0.76583 0.57076 0.0
C1571 C 0.08797 0.77537 0.59885 0.0
C1572 C 0.06119 0.73543 0.55107 0.0
C1573 C 0.07813 0.71327 0.55893 0.0
H1574 H 0.05162 0.78137 0.56454 0.0
H1575 H 0.04373 0.72889 0.52988 0.0
S1576 S 0.14162 0.72957 0.62687 0.0
N1577 N 0.12872 0.76187 0.63154 0.0
N1578 N 0.12001 0.70541 0.59472 0.0
C1579 C 0.10092 0.72332 0.58621 0.0
C1580 C 0.10576 0.75413 0.60608 0.0
C1581 C 0.6241 0.8269 0.87815 0.0
C1582 C 0.61899 0.8579 0.87311 0.0
C1583 C 0.64479 0.81575 0.86486 0.0
C1584 C 0.66157 0.83526 0.84629 0.0
H1585 H 0.61202 0.81096 0.89254 0.0
H1586 H 0.64806 0.79191 0.86967 0.0
S1587 S 0.65602 0.91737 0.82422 0.0
N1588 N 0.63202 0.90727 0.84684 0.0
N1589 N 0.671 0.88642 0.82236 0.0
C1590 C 0.65657 0.86606 0.8407 0.0
C1591 C 0.63528 0.87731 0.85392 0.0
C1592 C 0.49373 0.55619 0.5898 0.0
C1593 C 0.48225 0.57562 0.60915 0.0
C1594 C 0.51997 0.56936 0.58152 0.0
C1595 C 0.53547 0.6027 0.5914 0.0
H1596 H 0.48366 0.52988 0.58331 0.0
H1597 H 0.52868 0.55268 0.56825 0.0
S1598 S 0.51133 0.66622 0.63521 0.0
N1599 N 0.48588 0.63151 0.63331 0.0
N1600 N 0.53532 0.65632 0.61656 0.0
C1601 C 0.52295 0.62339 0.60777 0.0
C1602 C 0.49607 0.6099 0.61653 0.0
C1603 C 0.81181 0.34606 0.93238 0.0
C1604 C 0.81353 0.31454 0.94029 0.0
C1605 C 0.81291 0.35492 0.90126 0.0
C1606 C 0.81511 0.33249 0.87614 0.0
H1607 H 0.80952 0.36422 0.95047 0.0
H1608 H 0.81171 0.37958 0.8968 0.0
S1609 S 0.82114 0.247 0.88389 0.0
N1610 N 0.81835 0.26101 0.92025 0.0
N1611 N 0.81995 0.27742 0.86169 0.0
C1612 C 0.81706 0.3009 0.88363 0.0
C1613 C 0.81645 0.29204 0.91564 0.0
C1614 C 0.07854 0.489 0.12256 0.0
C1615 C 0.10842 0.49434 0.13127 0.0
C1616 C 0.06653 0.514 0.11145 0.0
C1617 C 0.08388 0.54537 0.10813 0.0
H1618 H 0.06428 0.46527 0.12438 0.0
H1619 H 0.04323 0.50827 0.10485 0.0
S1620 S 0.16384 0.57123 0.12722 0.0
N1621 N 0.15549 0.53268 0.13549 0.0
N1622 N 0.13285 0.58006 0.11479 0.0
C1623 C 0.11397 0.55104 0.11694 0.0
C1624 C 0.12625 0.5254 0.12835 0.0
C1625 C 0.87228 0.89067 0.45515 0.0
C1626 C 0.85206 0.90107 0.47015 0.0
C1627 C 0.86877 0.88623 0.42132 0.0
C1628 C 0.8446 0.89135 0.40077 0.0
H1629 H 0.89154 0.88678 0.46968 0.0
H1630 H 0.88509 0.87838 0.4112 0.0
S1631 S 0.78467 0.91756 0.42739 0.0
N1632 N 0.80667 0.91594 0.46149 0.0
N1633 N 0.79963 0.90669 0.398 0.0
C1634 C 0.82383 0.90104 0.41533 0.0
C1635 C 0.82769 0.90617 0.4499 0.0
C1636 C 0.53629 0.58083 0.77394 0.0
C1637 C 0.51381 0.59466 0.76154 0.0
C1638 C 0.55088 0.58927 0.80622 0.0
C1639 C 0.54352 0.6119 0.82688 0.0
H1640 H 0.54081 0.56106 0.7597 0.0
H1641 H 0.56563 0.57526 0.81577 0.0
S1642 S 0.49324 0.66283 0.80346 0.0
N1643 N 0.48989 0.63782 0.77021 0.0
N1644 N 0.5177 0.65377 0.83112 0.0
C1645 C 0.5244 0.62958 0.81352 0.0
C1646 C 0.50937 0.62089 0.78069 0.0
C1647 C 0.83303 0.31055 0.149 0.0
C1648 C 0.83465 0.32918 0.12279 0.0
C1649 C 0.8396 0.3262 0.18134 0.0
C1650 C 0.84843 0.36101 0.18865 0.0
H1651 H 0.82534 0.28382 0.14441 0.0
H1652 H 0.83734 0.311 0.20063 0.0
S1653 S 0.85801 0.42067 0.12868 0.0
N1654 N 0.8468 0.38403 0.10656 0.0
N1655 N 0.85987 0.41326 0.16654 0.0
C1656 C 0.8513 0.37963 0.16259 0.0
C1657 C 0.84418 0.36379 0.12993 0.0
C1658 C 0.06185 0.50609 0.27298 0.0
C1659 C 0.08743 0.49591 0.27817 0.0
C1660 C 0.0521 0.51887 0.29883 0.0
C1661 C 0.06747 0.52193 0.33088 0.0
H1662 H 0.05018 0.50614 0.24865 0.0
H1663 H 0.03317 0.52803 0.29354 0.0
S1664 S 0.13322 0.49422 0.35805 0.0
N1665 N 0.12587 0.48582 0.31827 0.0
N1666 N 0.10774 0.51044 0.36676 0.0
C1667 C 0.09158 0.50912 0.33669 0.0
C1668 C 0.10149 0.49592 0.31034 0.0
C1669 C 0.82464 0.89798 0.65477 0.0
C1670 C 0.85235 0.89798 0.64994 0.0
C1671 C 0.81445 0.88519 0.68154 0.0
C1672 C 0.83175 0.87263 0.70519 0.0
H1673 H 0.81043 0.90729 0.63735 0.0
H1674 H 0.79284 0.88533 0.68381 0.0
S1675 S 0.90624 0.86782 0.70475 0.0
N1676 N 0.897 0.88445 0.67177 0.0
N1677 N 0.87825 0.86162 0.72212 0.0
C1678 C 0.8597 0.87321 0.70108 0.0
C1679 C 0.86985 0.88551 0.67352 0.0
C1680 C 0.80489 0.57674 0.5592 0.0
C1681 C 0.7985 0.54219 0.55072 0.0
C1682 C 0.7833 0.59237 0.56324 0.0
C1683 C 0.75424 0.57425 0.55906 0.0
H1684 H 0.82685 0.592 0.56284 0.0
H1685 H 0.78945 0.61899 0.56958 0.0
S1686 S 0.72601 0.48302 0.53887 0.0
N1687 N 0.76077 0.49026 0.53922 0.0
N1688 N 0.7205 0.51954 0.54739 0.0
C1689 C 0.74751 0.5397 0.55073 0.0
C1690 C 0.76949 0.52374 0.54643 0.0
C1691 C 0.20216 0.18257 0.50818 0.0
C1692 C 0.2028 0.21638 0.50968 0.0
C1693 C 0.17746 0.15826 0.51142 0.0
C1694 C 0.15258 0.16679 0.51697 0.0
H1695 H 0.22091 0.17478 0.50457 0.0
H1696 H 0.17798 0.13262 0.50994 0.0
S1697 S 0.14248 0.25152 0.52227 0.0
N1698 N 0.1755 0.25667 0.51631 0.0
N1699 N 0.12998 0.21147 0.52307 0.0
C1700 C 0.15289 0.20042 0.51842 0.0
C1701 C 0.1777 0.22502 0.51457 0.0
C1702 C 0.27816 0.0739 0.88241 0.0
C1703 C 0.29354 0.10441 0.90113 0.0
C1704 C 0.29245 0.05217 0.87068 0.0
C1705 C 0.32272 0.05996 0.87721 0.0
H1706 H 0.25482 0.06707 0.87575 0.0
H1707 H 0.27962 0.02965 0.85529 0.0
S1708 S 0.37322 0.13459 0.92825 0.0
N1709 N 0.34093 0.13994 0.92788 0.0
N1710 N 0.36768 0.09873 0.906 0.0
C1711 C 0.33842 0.08955 0.89714 0.0
C1712 C 0.32387 0.1118 0.90912 0.0
C1713 C 0.4455 0.05255 0.02804 0.0
C1714 C 0.44253 0.03164 0.05215 0.0
C1715 C 0.47249 0.07373 0.02737 0.0
C1716 C 0.49717 0.07527 0.05125 0.0
H1717 H 0.42735 0.05091 1.00839 0.0
H1718 H 0.47426 0.08806 1.00734 0.0
S1719 S 0.49981 0.02771 0.1213 0.0
N1720 N 0.46582 0.01518 0.10151 0.0
N1721 N 0.51627 0.05568 0.10092 0.0
C1722 C 0.49394 0.0561 0.07668 0.0
C1723 C 0.46667 0.03405 0.07693 0.0
C1724 C 0.90498 0.765 0.84855 0.0
C1725 C 0.9293 0.76859 0.83451 0.0
C1726 C 0.88305 0.78006 0.83734 0.0
C1727 C 0.88465 0.7991 0.81164 0.0
H1728 H 0.90301 0.75075 0.8686 0.0
H1729 H 0.86532 0.77779 0.84963 0.0
S1730 S 0.94103 0.81181 0.76313 0.0
N1731 N 0.95178 0.78979 0.7911 0.0
N1732 N 0.91079 0.81816 0.77045 0.0
C1733 C 0.90818 0.80184 0.79661 0.0
C1734 C 0.93045 0.78659 0.80793 0.0
C1735 C 0.84826 0.67479 1.00311 0.0
C1736 C 0.85258 0.70782 0.01643 0.0
C1737 C 0.87055 0.65908 1.008 0.0
C1738 C 0.89827 0.67575 0.02621 0.0
H1739 H 0.82735 0.66068 0.989 0.0
H1740 H 0.86602 0.63359 0.99738 0.0
S1741 S 0.92135 0.76246 0.06624 0.0
N1742 N 0.88718 0.75678 0.04854 0.0
N1743 N 0.92888 0.72711 0.05769 0.0
C1744 C 0.9031 0.70886 0.03936 0.0
C1745 C 0.88034 0.72488 0.03455 0.0
C1746 C 0.26577 0.27301 0.85372 0.0
C1747 C 0.27461 0.24918 0.87169 0.0
C1748 C 0.2833 0.2912 0.83524 0.0
C1749 C 0.31051 0.2867 0.83444 0.0
H1750 H 0.24478 0.27711 0.85327 0.0
H1751 H 0.27581 0.30947 0.82217 0.0
S1752 S 0.34478 0.22907 0.87857 0.0
N1753 N 0.31293 0.22285 0.88823 0.0
N1754 N 0.34629 0.25793 0.85416 0.0
C1755 C 0.3201 0.26376 0.85299 0.0
C1756 C 0.30204 0.24475 0.87142 0.0
C1757 C 0.43741 0.14403 0.27152 0.0
C1758 C 0.46605 0.14445 0.27062 0.0
C1759 C 0.41657 0.11425 0.27044 0.0
C1760 C 0.42369 0.084 0.26815 0.0
H1761 H 0.43165 0.16693 0.27606 0.0
H1762 H 0.39545 0.11505 0.27408 0.0
S1763 S 0.49383 0.07129 0.25769 0.0
N1764 N 0.49904 0.1118 0.26135 0.0
N1765 N 0.45988 0.05573 0.25972 0.0
C1766 C 0.45116 0.08381 0.26296 0.0
C1767 C 0.47239 0.11417 0.26399 0.0
C1768 C 0.59074 0.47539 0.57656 0.0
C1769 C 0.61435 0.46617 0.56788 0.0
C1770 C 0.58046 0.50067 0.56275 0.0
C1771 C 0.59359 0.5179 0.54003 0.0
H1772 H 0.58043 0.46351 0.59465 0.0
H1773 H 0.56307 0.5079 0.57117 0.0
S1774 S 0.65345 0.5013 0.50588 0.0
N1775 N 0.64858 0.4747 0.5323 0.0
N1776 N 0.62969 0.52271 0.50759 0.0
C1777 C 0.61635 0.50827 0.53021 0.0
C1778 C 0.62658 0.48227 0.54377 0.0
C1779 C 0.43019 0.84848 0.3874 0.0
C1780 C 0.45469 0.84003 0.38049 0.0
C1781 C 0.40958 0.85524 0.3632 0.0
C1782 C 0.41208 0.85334 0.33067 0.0
H1783 H 0.427 0.85056 0.41196 0.0
H1784 H 0.39121 0.86148 0.37015 0.0
S1785 S 0.47191 0.83227 0.29921 0.0
N1786 N 0.48039 0.83051 0.33848 0.0
N1787 N 0.44104 0.84239 0.29267 0.0
C1788 C 0.43634 0.84482 0.32318 0.0
C1789 C 0.45773 0.83838 0.34809 0.0
C1790 C 0.12681 0.76639 0.08457 0.0
C1791 C 0.10738 0.78232 0.09491 0.0
C1792 C 0.1205 0.73181 0.07942 0.0
C1793 C 0.09424 0.7117 0.08378 0.0
H1794 H 0.14739 0.78073 0.08095 0.0
H1795 H 0.13611 0.72083 0.07121 0.0
S1796 S 0.0357 0.74108 0.11012 0.0
N1797 N 0.06082 0.77537 0.10948 0.0
N1798 N 0.04847 0.71027 0.09881 0.0
C1799 C 0.07446 0.72727 0.09388 0.0
C1800 C 0.08117 0.76258 0.09974 0.0
C1801 C 0.09182 0.33966 0.83259 0.0
C1802 C 0.09313 0.3385 0.86585 0.0
C1803 C 0.1164 0.34181 0.81961 0.0
C1804 C 0.14302 0.34217 0.83929 0.0
H1805 H 0.07178 0.33946 0.81654 0.0
H1806 H 0.11456 0.34309 0.79393 0.0
S1807 S 0.1577 0.33817 0.92757 0.0
N1808 N 0.12318 0.33698 0.91806 0.0
N1809 N 0.1692 0.34063 0.89346 0.0
C1810 C 0.14452 0.34036 0.87242 0.0
C1811 C 0.11963 0.33867 0.88576 0.0
C1812 C 0.54381 0.7586 0.01854 0.0
C1813 C 0.54889 0.76832 0.9886 0.0
C1814 C 0.54906 0.72927 0.02901 0.0
C1815 C 0.55882 0.70764 1.00967 0.0
H1816 H 0.53605 0.77405 0.03438 0.0
H1817 H 0.54527 0.72338 0.05249 0.0
S1818 S 0.57562 0.72091 0.92926 0.0
N1819 N 0.56479 0.75354 0.93987 0.0
N1820 N 0.57365 0.69808 0.95917 0.0
C1821 C 0.56368 0.71666 0.97953 0.0
C1822 C 0.55902 0.74701 0.96915 0.0
C1823 C 0.19582 0.86198 0.74583 0.0
C1824 C 0.18855 0.8798 0.72011 0.0
C1825 C 0.22446 0.86335 0.75927 0.0
C1826 C 0.2474 0.8831 0.7482 0.0
H1827 H 0.17919 0.84557 0.75505 0.0
H1828 H 0.22865 0.84799 0.77799 0.0
S1829 S 0.24109 0.9372 0.68378 0.0
N1830 N 0.20733 0.91972 0.68556 0.0
N1831 N 0.26146 0.92273 0.71159 0.0
C1832 C 0.2409 0.90271 0.72396 0.0
C1833 C 0.21144 0.90096 0.70975 0.0
C1834 C 0.05356 0.47775 0.47887 0.0
C1835 C 0.07198 0.45721 0.48668 0.0
C1836 C 0.06107 0.51123 0.49268 0.0
C1837 C 0.08708 0.52535 0.51537 0.0
H1838 H 0.03261 0.46747 0.46289 0.0
H1839 H 0.04559 0.52548 0.48712 0.0
S1840 S 0.14327 0.48262 0.5432 0.0
N1841 N 0.11788 0.454 0.5175 0.0
N1842 N 0.13175 0.51631 0.54402 0.0
C1843 C 0.10602 0.5053 0.5226 0.0
C1844 C 0.09857 0.47144 0.50812 0.0
C1845 C 0.52588 0.39732 0.19605 0.0
C1846 C 0.54197 0.37779 0.21245 0.0
C1847 C 0.50452 0.40763 0.20896 0.0
C1848 C 0.49886 0.39953 0.23915 0.0
H1849 H 0.52944 0.40426 0.1728 0.0
H1850 H 0.49246 0.42224 0.19526 0.0
S1851 S 0.5352 0.34945 0.29223 0.0
N1852 N 0.55061 0.35095 0.2608 0.0
N1853 N 0.5113 0.37096 0.28511 0.0
C1854 C 0.51513 0.38052 0.25602 0.0
C1855 C 0.53639 0.36949 0.24266 0.0
C1856 C 0.66962 0.66281 0.47776 0.0
C1857 C 0.68076 0.64044 0.4614 0.0
C1858 C 0.64155 0.65356 0.48253 0.0
C1859 C 0.62372 0.62125 0.47225 0.0
H1860 H 0.68187 0.68846 0.48483 0.0
H1861 H 0.63356 0.6723 0.49387 0.0
S1862 S 0.644 0.55137 0.43354 0.0
N1863 N 0.67283 0.58308 0.43831 0.0
N1864 N 0.61998 0.56567 0.44847 0.0
C1865 C 0.63511 0.59777 0.45818 0.0
C1866 C 0.66383 0.60725 0.45293 0.0
C1867 C 0.35966 0.88796 0.13298 0.0
C1868 C 0.35522 0.91819 0.12402 0.0
C1869 C 0.35925 0.87968 0.1644 0.0
C1870 C 0.35501 0.90148 0.18869 0.0
H1871 H 0.36351 0.87037 0.11551 0.0
H1872 H 0.36242 0.85593 0.16974 0.0
S1873 S 0.34112 0.9832 0.17805 0.0
N1874 N 0.34553 0.96968 0.14229 0.0
N1875 N 0.34495 0.95414 0.20122 0.0
C1876 C 0.35034 0.93171 0.18018 0.0
C1877 C 0.35033 0.93999 0.14795 0.0
C1878 C 0.04539 0.69266 0.93673 0.0
C1879 C 1.01979 0.67168 0.9174 0.0
C1880 C 0.06073 0.68179 0.96329 0.0
C1881 C 0.05085 0.64972 0.9715 0.0
H1882 H 0.05472 0.71664 0.92995 0.0
H1883 H 0.08105 0.69815 0.97666 0.0
S1884 S 0.9827 0.58728 0.93119 0.0
N1885 N 0.98361 0.61891 0.9103 0.0
N1886 N 1.01222 0.59854 0.96008 0.0
C1887 C 0.02415 0.62956 0.95379 0.0
C1888 C 1.00867 0.64055 0.92677 0.0
C1889 C 0.32756 0.31571 0.63356 0.0
C1890 C 0.30496 0.32543 0.61444 0.0
C1891 C 0.33281 0.32048 0.66768 0.0
C1892 C 0.31507 0.33414 0.684 0.0
H1893 H 0.34123 0.30414 0.6221 0.0
H1894 H 0.35045 0.31271 0.68135 0.0
S1895 S 0.25401 0.36531 0.64584 0.0
N1896 N 0.26564 0.35106 0.61509 0.0
N1897 N 0.27497 0.35887 0.67858 0.0
C1898 C 0.29274 0.34438 0.66528 0.0
C1899 C 0.28784 0.34034 0.63074 0.0
C1900 C 0.62628 0.61033 0.31351 0.0
C1901 C 0.65412 0.60575 0.3167 0.0
C1902 C 0.60876 0.6081 0.28301 0.0
C1903 C 0.61842 0.60064 0.25503 0.0
H1904 H 0.61927 0.61942 0.33433 0.0
H1905 H 0.58916 0.61598 0.28123 0.0
S1906 S 0.6849 0.57539 0.25079 0.0
N1907 N 0.68713 0.58502 0.2898 0.0
N1908 N 0.6539 0.58072 0.23228 0.0
C1909 C 0.6437 0.59016 0.25809 0.0
C1910 C 0.66171 0.59267 0.28916 0.0
C1911 C 0.35608 0.92503 0.91892 0.0
C1912 C 0.33754 0.91558 0.94028 0.0
C1913 C 0.34869 0.91094 0.8862 0.0
C1914 C 0.32276 0.88621 0.87378 0.0
H1915 H 0.3769 0.94277 0.92787 0.0
H1916 H 0.3641 0.91812 0.87107 0.0
S1917 S 0.26625 0.85378 0.91927 0.0
N1918 N 0.29155 0.88127 0.94618 0.0
N1919 N 0.27796 0.85401 0.88522 0.0
C1920 C 0.30369 0.87731 0.89468 0.0
C1921 C 0.31098 0.89217 0.92777 0.0
C1922 C 0.09358 0.72419 0.79094 0.0
C1923 C 0.06877 0.73578 0.78568 0.0
C1924 C 0.10757 0.71968 0.76586 0.0
C1925 C 0.09747 0.72711 0.73475 0.0
H1926 H 0.09995 0.71449 0.81328 0.0
H1927 H 0.124 0.70651 0.77008 0.0
S1928 S 0.04081 0.7706 0.71273 0.0
N1929 N 0.03973 0.76317 0.7502 0.0
N1930 N 0.06708 0.75628 0.70326 0.0
C1931 C 0.07638 0.74479 0.73123 0.0
C1932 C 0.06179 0.7489 0.75676 0.0
C1933 C 0.30824 0.36342 0.42952 0.0
C1934 C 0.30663 0.33056 0.43571 0.0
C1935 C 0.31725 0.37543 0.40197 0.0
C1936 C 0.32449 0.35499 0.37889 0.0
H1937 H 0.30265 0.38019 0.44628 0.0
H1938 H 0.31817 0.40089 0.39853 0.0
S1939 S 0.32327 0.26675 0.38281 0.0
N1940 N 0.31296 0.27776 0.41588 0.0
N1941 N 0.32917 0.29997 0.36404 0.0
C1942 C 0.32275 0.32201 0.38456 0.0
C1943 C 0.31407 0.30994 0.41292 0.0
C1944 C 0.38814 0.70139 0.52201 0.0
C1945 C 0.36039 0.6912 0.50173 0.0
C1946 C 0.40896 0.684 0.51966 0.0
C1947 C 0.40309 0.65569 0.49683 0.0
H1948 H 0.39406 0.72331 0.5396 0.0
H1949 H 0.43001 0.69323 0.53554 0.0
S1950 S 0.3328 0.61627 0.44046 0.0
N1951 N 0.32764 0.64921 0.45953 0.0
N1952 N 0.36649 0.61668 0.45548 0.0
C1953 C 0.37515 0.64462 0.47713 0.0
C1954 C 0.35395 0.66228 0.47949 0.0
C1955 C 0.9536 0.04676 0.5747 0.0
C1956 C 0.95111 1.0128 0.56735 0.0
C1957 C 0.97743 0.07125 0.56961 0.0
C1958 C 0.99938 0.06277 0.55632 0.0
H1959 H 0.93727 0.05449 0.58488 0.0
H1960 H 0.97872 0.09701 0.57633 0.0
S1961 S 1.0018 0.97741 0.53024 0.0
N1962 N 0.97218 0.97222 0.54453 0.0
N1963 N 1.01601 0.01778 0.53438 0.0
C1964 C 0.99659 0.02892 0.54796 0.0
C1965 C 0.97277 1.00412 0.55364 0.0
C1966 C 0.84735 0.10721 0.2035 0.0
C1967 C 0.87001 0.11399 0.1869 0.0
C1968 C 0.83324 0.13112 0.21027 0.0
C1969 C 0.8413 0.16285 0.20086 0.0
H1970 H 0.84111 0.08361 0.21245 0.0
H1971 H 0.81658 0.12511 0.22408 0.0
S1972 S 0.89749 0.19232 0.15422 0.0
N1973 N 0.89829 0.15392 0.15882 0.0
N1974 N 0.872 0.19917 0.17213 0.0
C1975 C 0.86268 0.16939 0.18249 0.0
C1976 C 0.877 0.14487 0.17537 0.0
C1977 C 0.69999 0.20361 0.99757 0.0
C1978 C 0.72524 0.20514 0.02044 0.0
C1979 C 0.67346 0.18181 0.99869 0.0
C1980 C 0.67102 0.1614 0.02335 0.0
H1981 H 0.70057 0.2202 0.97924 0.0
H1982 H 0.65444 0.18249 0.98129 0.0
S1983 S 0.73114 0.15458 0.08787 0.0
N1984 N 0.74661 0.18285 0.06708 0.0
N1985 N 0.69659 0.14262 0.06999 0.0
C1986 C 0.69637 0.16172 0.04559 0.0
C1987 C 0.72353 0.18338 0.04393 0.0
C1988 C 0.21929 0.42128 0.26778 0.0
C1989 C 0.22485 0.45583 0.27235 0.0
C1990 C 0.24157 0.40607 0.27522 0.0
C1991 C 0.27047 0.42478 0.28685 0.0
H1992 H 0.19754 0.40582 0.25832 0.0
H1993 H 0.23607 0.37929 0.27083 0.0
S1994 S 0.29646 0.51615 0.30364 0.0
N1995 N 0.26127 0.50852 0.29026 0.0
N1996 N 0.30334 0.47967 0.30318 0.0
C1997 C 0.27638 0.45935 0.29176 0.0
C1998 C 0.25351 0.47492 0.28486 0.0
C1999 C 0.27832 0.52168 1.01224 0.0
C2000 C 0.29446 0.51343 0.04006 0.0
C2001 C 0.2556 0.53605 0.01394 0.0
C2002 C 0.24802 0.54306 0.04355 0.0
H2003 H 0.28312 0.51686 0.98874 0.0
H2004 H 0.24403 0.54205 0.99183 0.0
S2005 S 0.28266 0.52588 0.12359 0.0
N2006 N 0.30074 0.51321 0.09833 0.0
N2007 N 0.25806 0.54013 0.10134 0.0
C2008 C 0.26392 0.5351 0.07161 0.0
C2009 C 0.28706 0.52032 0.06991 0.0
C2010 C 0.86887 0.96451 0.20476 0.0
C2011 C 0.89797 0.97794 0.21994 0.0
C2012 C 0.84938 0.94611 0.22119 0.0
C2013 C 0.8582 0.94119 0.25361 0.0
H2014 H 0.86119 0.96802 0.17997 0.0
H2015 H 0.82725 0.93557 0.20828 0.0
S2016 S 0.93145 0.97478 0.30525 0.0
N2017 N 0.93447 0.98676 0.26964 0.0
N2018 N 0.89743 0.9536 0.30095 0.0
C2019 C 0.88705 0.95539 0.26933 0.0
C2020 C 0.90706 0.97341 0.25237 0.0
C2021 C 0.7508 0.09235 0.78362 0.0
C2022 C 0.73279 0.09105 0.80592 0.0
C2023 C 0.77376 0.12021 0.7851 0.0
C2024 C 0.77956 0.1473 0.8092 0.0
H2025 H 0.74517 0.07377 0.76265 0.0
H2026 H 0.78436 0.12205 0.76485 0.0
S2027 S 0.74657 0.14911 0.88078 0.0
N2028 N 0.72738 0.11428 0.85785 0.0
N2029 N 0.77177 0.16612 0.86157 0.0
C2030 C 0.76545 0.1431 0.83515 0.0
C2031 C 0.74155 0.1151 0.83321 0.0
loop_
_geom_bond_atom_site_label_1
_geom_bond_atom_site_label_2
_geom_bond_distance
_geom_bond_site_symmetry_2
_ccdc_geom_bond_type
Zn0 O3 2.031 . S
Zn0 O5 2.049 . S
Zn0 O10 2.067 . S
Zn1 O2 1.962 . S
Zn1 O4 1.986 . S
Zn1 O6 1.996 . S
Zn1 O9 1.943 1_455 S
O2 Zn1 1.962 . S
O2 C7 1.254 . S
O3 Zn0 2.031 . S
O3 C7 1.269 1_655 S
O4 Zn1 1.986 . S
O4 C11 1.262 . S
O5 Zn0 2.049 . S
O5 C13 1.260 1_655 S
O6 Zn1 1.996 . S
O6 C13 1.257 . S
C7 O2 1.254 . S
C7 O3 1.269 1_455 S
C8 O9 1.249 . S
C8 O10 1.270 . S
O9 Zn1 1.943 1_655 S
O9 C8 1.249 . S
O10 Zn0 2.067 . S
O10 C8 1.270 . S
C11 O4 1.262 . S
C11 O12 1.232 . S
O12 C11 1.232 . S
C13 O5 1.260 1_455 S
C13 O6 1.257 . S
Zn14 O17 2.031 . S
Zn14 O19 2.049 . S
Zn14 O24 2.067 . S
Zn15 O16 1.962 . S
Zn15 O18 1.986 . S
Zn15 O20 1.996 . S
Zn15 O23 1.943 . S
O16 Zn15 1.962 . S
O16 C21 1.254 . S
O17 Zn14 2.031 . S
O17 C21 1.269 . S
O18 Zn15 1.986 . S
O18 C25 1.262 . S
O19 Zn14 2.049 . S
O19 C27 1.260 . S
O20 Zn15 1.996 . S
O20 C27 1.257 . S
C21 O16 1.254 . S
C21 O17 1.269 . S
C22 O23 1.249 . S
C22 O24 1.270 . S
O23 Zn15 1.943 . S
O23 C22 1.249 . S
O24 Zn14 2.067 . S
O24 C22 1.270 . S
C25 O18 1.262 . S
C25 O26 1.232 . S
O26 C25 1.232 . S
C27 O19 1.260 . S
C27 O20 1.257 . S
Zn28 O31 2.031 . S
Zn28 O33 2.049 . S
Zn28 O38 2.067 . S
Zn29 O30 1.962 . S
Zn29 O32 1.986 . S
Zn29 O34 1.996 . S
Zn29 O37 1.943 . S
O30 Zn29 1.962 . S
O30 C35 1.254 . S
O31 Zn28 2.031 . S
O31 C35 1.269 . S
O32 Zn29 1.986 . S
O32 C39 1.262 . S
O33 Zn28 2.049 . S
O33 C41 1.260 . S
O34 Zn29 1.996 . S
O34 C41 1.257 . S
C35 O30 1.254 . S
C35 O31 1.269 . S
C36 O37 1.249 . S
C36 O38 1.270 . S
O37 Zn29 1.943 . S
O37 C36 1.249 . S
O38 Zn28 2.067 . S
O38 C36 1.270 . S
C39 O32 1.262 . S
C39 O40 1.232 . S
O40 C39 1.232 . S
C41 O33 1.260 . S
C41 O34 1.257 . S
Zn42 O45 2.031 . S
Zn42 O47 2.049 . S
Zn42 O52 2.067 . S
Zn43 O44 1.962 . S
Zn43 O46 1.986 . S
Zn43 O48 1.996 . S
Zn43 O51 1.943 . S
O44 Zn43 1.962 . S
O44 C49 1.254 . S
O45 Zn42 2.031 . S
O45 C49 1.269 . S
O46 Zn43 1.986 . S
O46 C53 1.262 . S
O47 Zn42 2.049 . S
O47 C55 1.260 . S
O48 Zn43 1.996 . S
O48 C55 1.257 . S
C49 O44 1.254 . S
C49 O45 1.269 . S
C50 O51 1.249 . S
C50 O52 1.270 . S
O51 Zn43 1.943 . S
O51 C50 1.249 . S
O52 Zn42 2.067 . S
O52 C50 1.270 . S
C53 O46 1.262 . S
C53 O54 1.232 . S
O54 C53 1.232 . S
C55 O47 1.260 . S
C55 O48 1.257 . S
Zn56 O59 2.031 . S
Zn56 O61 2.049 . S
Zn56 O66 2.067 . S
Zn57 O58 1.962 . S
Zn57 O60 1.986 . S
Zn57 O62 1.996 . S
Zn57 O65 1.943 . S
O58 Zn57 1.962 . S
O58 C63 1.254 . S
O59 Zn56 2.031 . S
O59 C63 1.269 . S
O60 Zn57 1.986 . S
O60 C67 1.262 . S
O61 Zn56 2.049 . S
O61 C69 1.260 . S
O62 Zn57 1.996 . S
O62 C69 1.257 . S
C63 O58 1.254 . S
C63 O59 1.269 . S
C64 O65 1.249 . S
C64 O66 1.270 . S
O65 Zn57 1.943 . S
O65 C64 1.249 . S
O66 Zn56 2.067 . S
O66 C64 1.270 . S
C67 O60 1.262 . S
C67 O68 1.232 . S
O68 C67 1.232 . S
C69 O61 1.260 . S
C69 O62 1.257 . S
Zn70 O73 2.031 . S
Zn70 O75 2.049 . S
Zn70 O80 2.067 . S
Zn71 O72 1.962 . S
Zn71 O74 1.986 . S
Zn71 O76 1.996 . S
Zn71 O79 1.943 . S
O72 Zn71 1.962 . S
O72 C77 1.254 . S
O73 Zn70 2.031 . S
O73 C77 1.269 . S
O74 Zn71 1.986 . S
O74 C81 1.262 . S
O75 Zn70 2.049 . S
O75 C83 1.260 . S
O76 Zn71 1.996 . S
O76 C83 1.257 . S
C77 O72 1.254 . S
C77 O73 1.269 . S
C78 O79 1.249 . S
C78 O80 1.270 . S
O79 Zn71 1.943 . S
O79 C78 1.249 . S
O80 Zn70 2.067 . S
O80 C78 1.270 . S
C81 O74 1.262 . S
C81 O82 1.232 . S
O82 C81 1.232 . S
C83 O75 1.260 . S
C83 O76 1.257 . S
Zn84 O87 2.031 . S
Zn84 O89 2.049 . S
Zn84 O94 2.067 . S
Zn85 O86 1.962 . S
Zn85 O88 1.986 . S
Zn85 O90 1.996 . S
Zn85 O93 1.943 . S
O86 Zn85 1.962 . S
O86 C91 1.254 . S
O87 Zn84 2.031 . S
O87 C91 1.269 . S
O88 Zn85 1.986 . S
O88 C95 1.262 . S
O89 Zn84 2.049 . S
O89 C97 1.260 . S
O90 Zn85 1.996 . S
O90 C97 1.257 . S
C91 O86 1.254 . S
C91 O87 1.269 . S
C92 O93 1.249 . S
C92 O94 1.270 . S
O93 Zn85 1.943 . S
O93 C92 1.249 . S
O94 Zn84 2.067 . S
O94 C92 1.270 . S
C95 O88 1.262 . S
C95 O96 1.232 . S
O96 C95 1.232 . S
C97 O89 1.260 . S
C97 O90 1.257 . S
Zn98 O101 2.034 . S
Zn98 O103 2.049 . S
Zn98 O108 2.067 . S
Zn99 O100 1.962 . S
Zn99 O102 1.986 . S
Zn99 O104 1.996 . S
Zn99 O107 1.943 1_455 S
O100 Zn99 1.962 . S
O100 C105 1.254 . S
O101 Zn98 2.034 . S
O101 C105 1.253 1_655 S
O102 Zn99 1.986 . S
O102 C109 1.262 . S
O103 Zn98 2.049 . S
O103 C111 1.260 1_655 S
O104 Zn99 1.996 . S
O104 C111 1.257 . S
C105 O100 1.254 . S
C105 O101 1.253 1_455 S
C106 O107 1.249 . S
C106 O108 1.270 . S
O107 Zn99 1.943 1_655 S
O107 C106 1.249 . S
O108 Zn98 2.067 . S
O108 C106 1.270 . S
C109 O102 1.262 . S
C109 O110 1.232 . S
O110 C109 1.232 . S
C111 O103 1.260 1_455 S
C111 O104 1.257 . S
Zn112 O115 2.031 . S
Zn112 O117 2.049 . S
Zn112 O122 2.067 . S
Zn113 O114 1.962 . S
Zn113 O116 1.986 . S
Zn113 O118 1.996 . S
Zn113 O121 1.943 . S
O114 Zn113 1.962 . S
O114 C119 1.254 . S
O115 Zn112 2.031 . S
O115 C119 1.269 . S
O116 Zn113 1.986 . S
O116 C123 1.262 . S
O117 Zn112 2.049 . S
O117 C125 1.260 . S
O118 Zn113 1.996 . S
O118 C125 1.257 . S
C119 O114 1.254 . S
C119 O115 1.269 . S
C120 O121 1.249 . S
C120 O122 1.270 . S
O121 Zn113 1.943 . S
O121 C120 1.249 . S
O122 Zn112 2.067 . S
O122 C120 1.270 . S
C123 O116 1.262 . S
C123 O124 1.232 . S
O124 C123 1.232 . S
C125 O117 1.260 . S
C125 O118 1.257 . S
Zn126 O129 2.031 . S
Zn126 O131 2.049 . S
Zn126 O136 2.067 . S
Zn127 O128 1.962 . S
Zn127 O130 1.986 . S
Zn127 O132 1.996 . S
Zn127 O135 1.943 . S
O128 Zn127 1.962 . S
O128 C133 1.254 . S
O129 Zn126 2.031 . S
O129 C133 1.269 . S
O130 Zn127 1.986 . S
O130 C137 1.262 . S
O131 Zn126 2.049 . S
O131 C139 1.260 . S
O132 Zn127 1.996 . S
O132 C139 1.257 . S
C133 O128 1.254 . S
C133 O129 1.269 . S
C134 O135 1.249 . S
C134 O136 1.270 . S
O135 Zn127 1.943 . S
O135 C134 1.249 . S
O136 Zn126 2.067 . S
O136 C134 1.270 . S
C137 O130 1.262 . S
C137 O138 1.232 . S
O138 C137 1.232 . S
C139 O131 1.260 . S
C139 O132 1.257 . S
Zn140 O143 2.031 . S
Zn140 O145 2.049 . S
Zn140 O150 2.067 . S
Zn141 O142 1.962 . S
Zn141 O144 1.986 . S
Zn141 O146 1.996 . S
Zn141 O149 1.943 . S
O142 Zn141 1.962 . S
O142 C147 1.254 . S
O143 Zn140 2.031 . S
O143 C147 1.269 . S
O144 Zn141 1.986 . S
O144 C151 1.262 . S
O145 Zn140 2.049 . S
O145 C153 1.260 . S
O146 Zn141 1.996 . S
O146 C153 1.257 . S
C147 O142 1.254 . S
C147 O143 1.269 . S
C148 O149 1.249 . S
C148 O150 1.270 . S
O149 Zn141 1.943 . S
O149 C148 1.249 . S
O150 Zn140 2.067 . S
O150 C148 1.270 . S
C151 O144 1.262 . S
C151 O152 1.232 . S
O152 C151 1.232 . S
C153 O145 1.260 . S
C153 O146 1.257 . S
Zn154 O157 2.031 . S
Zn154 O159 2.049 . S
Zn154 O164 2.067 . S
Zn155 O156 1.962 . S
Zn155 O158 1.986 . S
Zn155 O160 1.996 . S
Zn155 O163 1.943 . S
O156 Zn155 1.962 . S
O156 C161 1.262 . S
O157 Zn154 2.031 . S
O157 C161 1.274 . S
O158 Zn155 1.986 . S
O158 C165 1.262 . S
O159 Zn154 2.049 . S
O159 C167 1.260 . S
O160 Zn155 1.996 . S
O160 C167 1.257 . S
C161 O156 1.262 . S
C161 O157 1.274 . S
C162 O163 1.249 . S
C162 O164 1.270 . S
O163 Zn155 1.943 . S
O163 C162 1.249 . S
O164 Zn154 2.067 . S
O164 C162 1.270 . S
C165 O158 1.262 . S
C165 O166 1.232 . S
O166 C165 1.232 . S
C167 O159 1.260 . S
C167 O160 1.257 . S
Zn168 O171 2.031 1_554 S
Zn168 O173 2.049 . S
Zn168 O178 2.067 . S
Zn169 O170 1.962 1_554 S
Zn169 O172 1.986 . S
Zn169 O174 1.996 . S
Zn169 O177 1.943 . S
O170 Zn169 1.962 1_556 S
O170 C175 1.254 . S
O171 Zn168 2.031 1_556 S
O171 C175 1.269 . S
O172 Zn169 1.986 . S
O172 C179 1.262 . S
O173 Zn168 2.049 . S
O173 C181 1.260 . S
O174 Zn169 1.996 . S
O174 C181 1.257 . S
C175 O170 1.254 . S
C175 O171 1.269 . S
C176 O177 1.249 . S
C176 O178 1.270 . S
O177 Zn169 1.943 . S
O177 C176 1.249 . S
O178 Zn168 2.067 . S
O178 C176 1.270 . S
C179 O172 1.262 . S
C179 O180 1.232 . S
O180 C179 1.232 . S
C181 O173 1.260 . S
C181 O174 1.257 . S
Zn182 O185 2.031 1_554 S
Zn182 O187 2.049 . S
Zn182 O192 2.067 . S
Zn183 O184 1.959 . S
Zn183 O186 1.987 1_556 S
Zn183 O188 1.998 1_556 S
Zn183 O191 1.943 . S
O184 Zn183 1.959 . S
O184 C189 1.254 . S
O185 Zn182 2.031 1_556 S
O185 C189 1.269 . S
O186 Zn183 1.987 1_554 S
O186 C193 1.271 . S
O187 Zn182 2.049 . S
O187 C195 1.260 . S
O188 Zn183 1.998 1_554 S
O188 C195 1.257 . S
C189 O184 1.254 . S
C189 O185 1.269 . S
C190 O191 1.249 . S
C190 O192 1.270 1_556 S
O191 Zn183 1.943 . S
O191 C190 1.249 . S
O192 Zn182 2.067 . S
O192 C190 1.270 1_554 S
C193 O186 1.271 . S
C193 O194 1.223 1_554 S
O194 C193 1.223 1_556 S
C195 O187 1.260 . S
C195 O188 1.257 . S
Zn196 O199 2.031 . S
Zn196 O201 2.049 . S
Zn196 O206 2.067 . S
Zn197 O198 1.962 . S
Zn197 O200 1.986 . S
Zn197 O202 1.996 . S
Zn197 O205 1.943 . S
O198 Zn197 1.962 . S
O198 C203 1.254 . S
O199 Zn196 2.031 . S
O199 C203 1.269 . S
O200 Zn197 1.986 . S
O200 C207 1.262 . S
O201 Zn196 2.049 . S
O201 C209 1.260 . S
O202 Zn197 1.996 . S
O202 C209 1.257 . S
C203 O198 1.254 . S
C203 O199 1.269 . S
C204 O205 1.249 . S
C204 O206 1.270 . S
O205 Zn197 1.943 . S
O205 C204 1.249 . S
O206 Zn196 2.067 . S
O206 C204 1.270 . S
C207 O200 1.262 . S
C207 O208 1.232 . S
O208 C207 1.232 . S
C209 O201 1.260 . S
C209 O202 1.257 . S
Zn210 O213 2.031 . S
Zn210 O215 2.049 . S
Zn210 O220 2.067 . S
Zn211 O212 1.962 . S
Zn211 O214 1.986 . S
Zn211 O216 1.996 . S
Zn211 O219 1.943 . S
O212 Zn211 1.962 . S
O212 C217 1.254 . S
O213 Zn210 2.031 . S
O213 C217 1.269 . S
O214 Zn211 1.986 . S
O214 C221 1.262 . S
O215 Zn210 2.049 . S
O215 C223 1.260 . S
O216 Zn211 1.996 . S
O216 C223 1.257 . S
C217 O212 1.254 . S
C217 O213 1.269 . S
C218 O219 1.249 . S
C218 O220 1.270 . S
O219 Zn211 1.943 . S
O219 C218 1.249 . S
O220 Zn210 2.067 . S
O220 C218 1.270 . S
C221 O214 1.262 . S
C221 O222 1.232 . S
O222 C221 1.232 . S
C223 O215 1.260 . S
C223 O216 1.257 . S
Zn224 O227 2.031 . S
Zn224 O229 2.049 . S
Zn224 O234 2.067 1_545 S
Zn225 O226 1.962 . S
Zn225 O228 1.986 . S
Zn225 O230 1.996 . S
Zn225 O233 1.943 . S
O226 Zn225 1.962 . S
O226 C231 1.254 . S
O227 Zn224 2.031 . S
O227 C231 1.269 . S
O228 Zn225 1.986 . S
O228 C235 1.262 . S
O229 Zn224 2.049 . S
O229 C237 1.260 . S
O230 Zn225 1.996 . S
O230 C237 1.257 . S
C231 O226 1.254 . S
C231 O227 1.269 . S
C232 O233 1.249 1_565 S
C232 O234 1.270 . S
O233 Zn225 1.943 . S
O233 C232 1.249 1_545 S
O234 Zn224 2.067 1_565 S
O234 C232 1.270 . S
C235 O228 1.262 . S
C235 O236 1.232 . S
O236 C235 1.232 . S
C237 O229 1.260 . S
C237 O230 1.257 . S
Zn238 O241 2.031 . S
Zn238 O243 2.049 . S
Zn238 O248 2.067 . S
Zn239 O240 1.962 . S
Zn239 O242 1.986 . S
Zn239 O244 1.996 . S
Zn239 O247 1.943 . S
O240 Zn239 1.962 . S
O240 C245 1.254 . S
O241 Zn238 2.031 . S
O241 C245 1.269 . S
O242 Zn239 1.986 . S
O242 C249 1.262 . S
O243 Zn238 2.049 . S
O243 C251 1.260 . S
O244 Zn239 1.996 . S
O244 C251 1.257 . S
C245 O240 1.254 . S
C245 O241 1.269 . S
C246 O247 1.249 . S
C246 O248 1.270 . S
O247 Zn239 1.943 . S
O247 C246 1.249 . S
O248 Zn238 2.067 . S
O248 C246 1.270 . S
C249 O242 1.262 . S
C249 O250 1.232 . S
O250 C249 1.232 . S
C251 O243 1.260 . S
C251 O244 1.257 . S
Zn252 O255 2.031 . S
Zn252 O257 2.049 . S
Zn252 O262 2.067 . S
Zn253 O254 1.962 . S
Zn253 O256 1.986 . S
Zn253 O258 1.996 . S
Zn253 O261 1.943 . S
O254 Zn253 1.962 . S
O254 C259 1.254 . S
O255 Zn252 2.031 . S
O255 C259 1.269 . S
O256 Zn253 1.986 . S
O256 C263 1.262 . S
O257 Zn252 2.049 . S
O257 C265 1.260 . S
O258 Zn253 1.996 . S
O258 C265 1.257 . S
C259 O254 1.254 . S
C259 O255 1.269 . S
C260 O261 1.249 . S
C260 O262 1.270 . S
O261 Zn253 1.943 . S
O261 C260 1.249 . S
O262 Zn252 2.067 . S
O262 C260 1.270 . S
C263 O256 1.262 . S
C263 O264 1.232 . S
O264 C263 1.232 . S
C265 O257 1.260 . S
C265 O258 1.257 . S
Zn266 O269 2.031 . S
Zn266 O271 2.049 . S
Zn266 O276 2.067 . S
Zn267 O268 1.962 . S
Zn267 O270 1.986 . S
Zn267 O272 1.996 . S
Zn267 O275 1.943 1_565 S
O268 Zn267 1.962 . S
O268 C273 1.254 1_565 S
O269 Zn266 2.031 . S
O269 C273 1.269 . S
O270 Zn267 1.986 . S
O270 C277 1.262 . S
O271 Zn266 2.049 . S
O271 C279 1.260 1_545 S
O272 Zn267 1.996 . S
O272 C279 1.257 . S
C273 O268 1.254 1_545 S
C273 O269 1.269 . S
C274 O275 1.249 . S
C274 O276 1.270 . S
O275 Zn267 1.943 1_545 S
O275 C274 1.249 . S
O276 Zn266 2.067 . S
O276 C274 1.270 . S
C277 O270 1.262 . S
C277 O278 1.232 . S
O278 C277 1.232 . S
C279 O271 1.260 1_565 S
C279 O272 1.257 . S
Zn280 O283 2.031 1_554 S
Zn280 O285 2.049 . S
Zn280 O290 2.067 . S
Zn281 O282 1.962 1_554 S
Zn281 O284 1.986 . S
Zn281 O286 1.996 . S
Zn281 O289 1.943 . S
O282 Zn281 1.962 1_556 S
O282 C287 1.254 . S
O283 Zn280 2.031 1_556 S
O283 C287 1.269 . S
O284 Zn281 1.986 . S
O284 C291 1.262 . S
O285 Zn280 2.049 . S
O285 C293 1.260 . S
O286 Zn281 1.996 . S
O286 C293 1.257 . S
C287 O282 1.254 . S
C287 O283 1.269 . S
C288 O289 1.249 . S
C288 O290 1.270 . S
O289 Zn281 1.943 . S
O289 C288 1.249 . S
O290 Zn280 2.067 . S
O290 C288 1.270 . S
C291 O284 1.262 . S
C291 O292 1.232 1_554 S
O292 C291 1.232 1_556 S
C293 O285 1.260 . S
C293 O286 1.257 . S
Zn294 O297 2.031 . S
Zn294 O299 2.049 . S
Zn294 O304 2.067 1_455 S
Zn295 O296 1.962 1_655 S
Zn295 O298 1.986 . S
Zn295 O300 1.996 1_655 S
Zn295 O303 1.943 . S
O296 Zn295 1.962 1_455 S
O296 C301 1.254 . S
O297 Zn294 2.031 . S
O297 C301 1.269 . S
O298 Zn295 1.986 . S
O298 C305 1.262 . S
O299 Zn294 2.049 . S
O299 C307 1.260 . S
O300 Zn295 1.996 1_455 S
O300 C307 1.257 . S
C301 O296 1.254 . S
C301 O297 1.269 . S
C302 O303 1.249 . S
C302 O304 1.270 . S
O303 Zn295 1.943 . S
O303 C302 1.249 . S
O304 Zn294 2.067 1_655 S
O304 C302 1.270 . S
C305 O298 1.262 . S
C305 O306 1.232 . S
O306 C305 1.232 . S
C307 O299 1.260 . S
C307 O300 1.257 . S
Zn308 O311 2.031 . S
Zn308 O313 2.049 . S
Zn308 O318 2.067 . S
Zn309 O310 1.962 . S
Zn309 O312 1.986 . S
Zn309 O314 1.996 . S
Zn309 O317 1.943 . S
O310 Zn309 1.962 . S
O310 C315 1.254 . S
O311 Zn308 2.031 . S
O311 C315 1.269 . S
O312 Zn309 1.986 . S
O312 C319 1.262 . S
O313 Zn308 2.049 . S
O313 C321 1.260 . S
O314 Zn309 1.996 . S
O314 C321 1.257 . S
C315 O310 1.254 . S
C315 O311 1.269 . S
C316 O317 1.249 . S
C316 O318 1.270 . S
O317 Zn309 1.943 . S
O317 C316 1.249 . S
O318 Zn308 2.067 . S
O318 C316 1.270 . S
C319 O312 1.262 . S
C319 O320 1.232 . S
O320 C319 1.232 . S
C321 O313 1.260 . S
C321 O314 1.257 . S
Zn322 O325 2.031 . S
Zn322 O327 2.049 . S
Zn322 O332 2.067 . S
Zn323 O324 1.962 . S
Zn323 O326 1.986 . S
Zn323 O328 1.996 . S
Zn323 O331 1.943 . S
O324 Zn323 1.962 . S
O324 C329 1.254 . S
O325 Zn322 2.031 . S
O325 C329 1.269 . S
O326 Zn323 1.986 . S
O326 C333 1.262 . S
O327 Zn322 2.049 . S
O327 C335 1.260 . S
O328 Zn323 1.996 . S
O328 C335 1.257 . S
C329 O324 1.254 . S
C329 O325 1.269 . S
C330 O331 1.249 . S
C330 O332 1.270 . S
O331 Zn323 1.943 . S
O331 C330 1.249 . S
O332 Zn322 2.067 . S
O332 C330 1.270 . S
C333 O326 1.262 . S
C333 O334 1.232 . S
O334 C333 1.232 . S
C335 O327 1.260 . S
C335 O328 1.257 . S
Pr336 C338 2.880 1_455 S
Pr336 O356 2.562 1_456 S
Pr336 O357 2.490 1_455 S
Pr336 O358 2.695 1_556 S
Pr336 O359 2.512 . S
Pr336 O361 2.437 1_556 S
Pr336 O364 2.436 1_556 S
Pr336 O366 2.438 1_556 S
Pr337 C347 2.880 . S
Pr337 O358 2.436 . S
Pr337 O360 2.438 . S
Pr337 O362 2.562 . S
Pr337 O363 2.490 . S
Pr337 O364 2.695 . S
Pr337 O365 2.512 . S
Pr337 O367 2.437 . S
C338 Pr336 2.880 1_655 S
C338 C339 1.491 . S
C338 O356 1.254 1_556 S
C338 O357 1.225 . S
C339 C338 1.491 . S
C339 C340 1.392 . S
C339 C344 1.356 . S
C340 C339 1.392 . S
C340 C341 1.368 . S
C340 H368 0.929 . S
C341 C340 1.368 . S
C341 C342 1.386 . S
C341 H369 0.929 . S
C342 C341 1.386 . S
C342 C343 1.373 . S
C343 C342 1.373 . S
C343 C344 1.409 . S
C343 H370 0.931 . S
C344 C339 1.356 . S
C344 C343 1.409 . S
C344 H371 0.930 1_556 S
C345 O358 1.270 1_556 S
C345 O359 1.248 . S
C346 O360 1.267 . S
C346 O361 1.278 . S
C347 Pr337 2.880 . S
C347 C348 1.491 . S
C347 O362 1.254 . S
C347 O363 1.225 . S
C348 C347 1.491 . S
C348 C349 1.392 . S
C348 C353 1.356 . S
C349 C348 1.392 . S
C349 C350 1.368 . S
C349 H372 0.929 . S
C350 C349 1.368 . S
C350 C351 1.386 . S
C350 H373 0.929 . S
C351 C350 1.386 . S
C351 C352 1.373 . S
C352 C351 1.373 . S
C352 C353 1.409 . S
C352 H374 0.931 . S
C353 C348 1.356 . S
C353 C352 1.409 . S
C353 H375 0.930 . S
C354 O364 1.270 . S
C354 O365 1.248 . S
C355 O366 1.267 . S
C355 O367 1.278 . S
O356 Pr336 2.562 1_654 S
O356 C338 1.254 1_554 S
O357 Pr336 2.490 1_655 S
O357 C338 1.225 . S
O358 Pr336 2.695 1_554 S
O358 Pr337 2.436 . S
O358 C345 1.270 1_554 S
O359 Pr336 2.512 . S
O359 C345 1.248 . S
O360 Pr337 2.438 . S
O360 C346 1.267 . S
O361 Pr336 2.437 1_554 S
O361 C346 1.278 . S
O362 Pr337 2.562 . S
O362 C347 1.254 . S
O363 Pr337 2.490 . S
O363 C347 1.225 . S
O364 Pr336 2.436 1_554 S
O364 Pr337 2.695 . S
O364 C354 1.270 . S
O365 Pr337 2.512 . S
O365 C354 1.248 . S
O366 Pr336 2.438 1_554 S
O366 C355 1.267 . S
O367 Pr337 2.437 . S
O367 C355 1.278 . S
H368 C340 0.929 . S
H369 C341 0.929 . S
H370 C343 0.931 . S
H371 C344 0.930 1_554 S
H372 C349 0.929 . S
H373 C350 0.929 . S
H374 C352 0.931 . S
H375 C353 0.930 . S
Pr376 C378 2.880 . S
Pr376 O396 2.562 . S
Pr376 O397 2.490 . S
Pr376 O398 2.695 . S
Pr376 O399 2.512 . S
Pr376 O401 2.437 . S
Pr376 O404 2.436 . S
Pr376 O406 2.438 . S
Pr377 C387 2.880 . S
Pr377 O398 2.436 . S
Pr377 O400 2.438 . S
Pr377 O402 2.562 . S
Pr377 O403 2.490 . S
Pr377 O404 2.695 . S
Pr377 O405 2.512 . S
Pr377 O407 2.437 . S
C378 Pr376 2.880 . S
C378 C379 1.491 . S
C378 O396 1.254 . S
C378 O397 1.225 . S
C379 C378 1.491 . S
C379 C380 1.392 1_565 S
C379 C384 1.356 1_565 S
C380 C379 1.392 1_545 S
C380 C381 1.368 . S
C380 H408 0.929 . S
C381 C380 1.368 . S
C381 C382 1.386 . S
C381 H409 0.929 . S
C382 C381 1.386 . S
C382 C383 1.373 . S
C383 C382 1.373 . S
C383 C384 1.409 . S
C383 H410 0.931 . S
C384 C379 1.356 1_545 S
C384 C383 1.409 . S
C384 H411 0.930 1_545 S
C385 O398 1.270 . S
C385 O399 1.248 . S
C386 O400 1.267 . S
C386 O401 1.278 . S
C387 Pr377 2.880 . S
C387 C388 1.491 . S
C387 O402 1.254 . S
C387 O403 1.225 . S
C388 C387 1.491 . S
C388 C389 1.392 . S
C388 C393 1.356 . S
C389 C388 1.392 . S
C389 C390 1.368 . S
C389 H412 0.929 . S
C390 C389 1.368 . S
C390 C391 1.386 . S
C390 H413 0.929 . S
C391 C390 1.386 . S
C391 C392 1.373 . S
C392 C391 1.373 . S
C392 C393 1.409 . S
C392 H414 0.931 . S
C393 C388 1.356 . S
C393 C392 1.409 . S
C393 H415 0.930 . S
C394 O404 1.270 . S
C394 O405 1.248 . S
C395 O406 1.267 . S
C395 O407 1.278 . S
O396 Pr376 2.562 . S
O396 C378 1.254 . S
O397 Pr376 2.490 . S
O397 C378 1.225 . S
O398 Pr376 2.695 . S
O398 Pr377 2.436 . S
O398 C385 1.270 . S
O399 Pr376 2.512 . S
O399 C385 1.248 . S
O400 Pr377 2.438 . S
O400 C386 1.267 . S
O401 Pr376 2.437 . S
O401 C386 1.278 . S
O402 Pr377 2.562 . S
O402 C387 1.254 . S
O403 Pr377 2.490 . S
O403 C387 1.225 . S
O404 Pr376 2.436 . S
O404 Pr377 2.695 . S
O404 C394 1.270 . S
O405 Pr377 2.512 . S
O405 C394 1.248 . S
O406 Pr376 2.438 . S
O406 C395 1.267 . S
O407 Pr377 2.437 . S
O407 C395 1.278 . S
H408 C380 0.929 . S
H409 C381 0.929 . S
H410 C383 0.931 . S
H411 C384 0.930 1_565 S
H412 C389 0.929 . S
H413 C390 0.929 . S
H414 C392 0.931 . S
H415 C393 0.930 . S
Pr416 C418 2.880 . S
Pr416 O436 2.562 . S
Pr416 O437 2.490 . S
Pr416 O438 2.695 . S
Pr416 O439 2.512 . S
Pr416 O441 2.437 . S
Pr416 O444 2.436 . S
Pr416 O446 2.438 . S
Pr417 C427 2.880 . S
Pr417 O438 2.436 . S
Pr417 O440 2.438 . S
Pr417 O442 2.562 . S
Pr417 O443 2.490 . S
Pr417 O444 2.695 . S
Pr417 O445 2.512 . S
Pr417 O447 2.437 . S
C418 Pr416 2.880 . S
C418 C419 1.491 . S
C418 O436 1.254 . S
C418 O437 1.225 . S
C419 C418 1.491 . S
C419 C420 1.392 . S
C419 C424 1.356 . S
C420 C419 1.392 . S
C420 C421 1.368 . S
C420 H448 0.929 . S
C421 C420 1.368 . S
C421 C422 1.386 . S
C421 H449 0.929 . S
C422 C421 1.386 . S
C422 C423 1.373 . S
C423 C422 1.373 . S
C423 C424 1.409 . S
C423 H450 0.912 1_545 S
C424 C419 1.356 . S
C424 C423 1.409 . S
C424 H451 0.930 . S
C425 O438 1.270 . S
C425 O439 1.248 . S
C426 O440 1.267 . S
C426 O441 1.278 . S
C427 Pr417 2.880 . S
C427 C428 1.491 . S
C427 O442 1.254 . S
C427 O443 1.225 . S
C428 C427 1.491 . S
C428 C429 1.392 . S
C428 C433 1.356 . S
C429 C428 1.392 . S
C429 C430 1.368 . S
C429 H452 0.929 . S
C430 C429 1.368 . S
C430 C431 1.386 . S
C430 H453 0.929 . S
C431 C430 1.386 . S
C431 C432 1.373 . S
C432 C431 1.373 . S
C432 C433 1.409 . S
C432 H454 0.931 . S
C433 C428 1.356 . S
C433 C432 1.409 . S
C433 H455 0.930 . S
C434 O444 1.270 . S
C434 O445 1.248 . S
C435 O446 1.267 . S
C435 O447 1.278 . S
O436 Pr416 2.562 . S
O436 C418 1.254 . S
O437 Pr416 2.490 . S
O437 C418 1.225 . S
O438 Pr416 2.695 . S
O438 Pr417 2.436 . S
O438 C425 1.270 . S
O439 Pr416 2.512 . S
O439 C425 1.248 . S
O440 Pr417 2.438 . S
O440 C426 1.267 . S
O441 Pr416 2.437 . S
O441 C426 1.278 . S
O442 Pr417 2.562 . S
O442 C427 1.254 . S
O443 Pr417 2.490 . S
O443 C427 1.225 . S
O444 Pr416 2.436 . S
O444 Pr417 2.695 . S
O444 C434 1.270 . S
O445 Pr417 2.512 . S
O445 C434 1.248 . S
O446 Pr416 2.438 . S
O446 C435 1.267 . S
O447 Pr417 2.437 . S
O447 C435 1.278 . S
H448 C420 0.929 . S
H449 C421 0.929 . S
H450 C423 0.912 1_565 S
H451 C424 0.930 . S
H452 C429 0.929 . S
H453 C430 0.929 . S
H454 C432 0.931 . S
H455 C433 0.930 . S
Pr456 C458 2.880 . S
Pr456 O476 2.562 . S
Pr456 O477 2.490 . S
Pr456 O478 2.695 . S
Pr456 O479 2.512 . S
Pr456 O481 2.437 . S
Pr456 O484 2.436 . S
Pr456 O486 2.438 . S
Pr457 C467 2.880 . S
Pr457 O478 2.436 . S
Pr457 O480 2.438 . S
Pr457 O482 2.562 . S
Pr457 O483 2.490 . S
Pr457 O484 2.695 . S
Pr457 O485 2.512 . S
Pr457 O487 2.437 . S
C458 Pr456 2.880 . S
C458 C459 1.491 . S
C458 O476 1.254 . S
C458 O477 1.225 . S
C459 C458 1.491 . S
C459 C460 1.392 . S
C459 C464 1.356 . S
C460 C459 1.392 . S
C460 C461 1.368 . S
C460 H488 0.929 . S
C461 C460 1.368 . S
C461 C462 1.386 . S
C461 H489 0.929 . S
C462 C461 1.386 . S
C462 C463 1.373 . S
C463 C462 1.373 . S
C463 C464 1.409 . S
C463 H490 0.931 . S
C464 C459 1.356 . S
C464 C463 1.409 . S
C464 H491 0.930 . S
C465 O478 1.270 . S
C465 O479 1.248 . S
C466 O480 1.267 . S
C466 O481 1.278 . S
C467 Pr457 2.880 . S
C467 C468 1.491 . S
C467 O482 1.254 . S
C467 O483 1.225 . S
C468 C467 1.491 . S
C468 C469 1.392 . S
C468 C473 1.356 . S
C469 C468 1.392 . S
C469 C470 1.368 . S
C469 H492 0.929 . S
C470 C469 1.368 . S
C470 C471 1.386 . S
C470 H493 0.929 . S
C471 C470 1.386 . S
C471 C472 1.373 . S
C472 C471 1.373 . S
C472 C473 1.409 . S
C472 H494 0.931 . S
C473 C468 1.356 . S
C473 C472 1.409 . S
C473 H495 0.930 . S
C474 O484 1.270 . S
C474 O485 1.248 . S
C475 O486 1.267 . S
C475 O487 1.278 . S
O476 Pr456 2.562 . S
O476 C458 1.254 . S
O477 Pr456 2.490 . S
O477 C458 1.225 . S
O478 Pr456 2.695 . S
O478 Pr457 2.436 . S
O478 C465 1.270 . S
O479 Pr456 2.512 . S
O479 C465 1.248 . S
O480 Pr457 2.438 . S
O480 C466 1.267 . S
O481 Pr456 2.437 . S
O481 C466 1.278 . S
O482 Pr457 2.562 . S
O482 C467 1.254 . S
O483 Pr457 2.490 . S
O483 C467 1.225 . S
O484 Pr456 2.436 . S
O484 Pr457 2.695 . S
O484 C474 1.270 . S
O485 Pr457 2.512 . S
O485 C474 1.248 . S
O486 Pr456 2.438 . S
O486 C475 1.267 . S
O487 Pr457 2.437 . S
O487 C475 1.278 . S
H488 C460 0.929 . S
H489 C461 0.929 . S
H490 C463 0.931 . S
H491 C464 0.930 . S
H492 C469 0.929 . S
H493 C470 0.929 . S
H494 C472 0.931 . S
H495 C473 0.930 . S
Pr496 C498 2.880 . S
Pr496 O516 2.562 . S
Pr496 O517 2.490 . S
Pr496 O518 2.695 . S
Pr496 O519 2.512 . S
Pr496 O521 2.437 . S
Pr496 O524 2.436 . S
Pr496 O526 2.438 . S
Pr497 C507 2.880 . S
Pr497 O518 2.436 . S
Pr497 O520 2.438 . S
Pr497 O522 2.562 . S
Pr497 O523 2.490 . S
Pr497 O524 2.695 . S
Pr497 O525 2.512 . S
Pr497 O527 2.437 . S
C498 Pr496 2.880 . S
C498 C499 1.491 . S
C498 O516 1.254 . S
C498 O517 1.225 . S
C499 C498 1.491 . S
C499 C500 1.392 . S
C499 C504 1.356 1_455 S
C500 C499 1.392 . S
C500 C501 1.368 . S
C500 H528 0.929 . S
C501 C500 1.368 . S
C501 C502 1.386 1_455 S
C501 H529 0.929 . S
C502 C501 1.386 1_655 S
C502 C503 1.373 . S
C503 C502 1.373 . S
C503 C504 1.409 . S
C503 H530 0.931 . S
C504 C499 1.356 1_655 S
C504 C503 1.409 . S
C504 H531 0.930 . S
C505 O518 1.270 . S
C505 O519 1.248 . S
C506 O520 1.267 . S
C506 O521 1.278 . S
C507 Pr497 2.880 . S
C507 C508 1.491 . S
C507 O522 1.254 . S
C507 O523 1.225 . S
C508 C507 1.491 . S
C508 C509 1.392 . S
C508 C513 1.356 . S
C509 C508 1.392 . S
C509 C510 1.368 . S
C509 H532 0.929 . S
C510 C509 1.368 . S
C510 C511 1.386 . S
C510 H533 0.929 . S
C511 C510 1.386 . S
C511 C512 1.373 . S
C512 C511 1.373 . S
C512 C513 1.409 . S
C512 H534 0.931 . S
C513 C508 1.356 . S
C513 C512 1.409 . S
C513 H535 0.930 . S
C514 O524 1.270 . S
C514 O525 1.248 . S
C515 O526 1.267 . S
C515 O527 1.278 . S
O516 Pr496 2.562 . S
O516 C498 1.254 . S
O517 Pr496 2.490 . S
O517 C498 1.225 . S
O518 Pr496 2.695 . S
O518 Pr497 2.436 . S
O518 C505 1.270 . S
O519 Pr496 2.512 . S
O519 C505 1.248 . S
O520 Pr497 2.438 . S
O520 C506 1.267 . S
O521 Pr496 2.437 . S
O521 C506 1.278 . S
O522 Pr497 2.562 . S
O522 C507 1.254 . S
O523 Pr497 2.490 . S
O523 C507 1.225 . S
O524 Pr496 2.436 . S
O524 Pr497 2.695 . S
O524 C514 1.270 . S
O525 Pr497 2.512 . S
O525 C514 1.248 . S
O526 Pr496 2.438 . S
O526 C515 1.267 . S
O527 Pr497 2.437 . S
O527 C515 1.278 . S
H528 C500 0.929 . S
H529 C501 0.929 . S
H530 C503 0.931 . S
H531 C504 0.930 . S
H532 C509 0.929 . S
H533 C510 0.929 . S
H534 C512 0.931 . S
H535 C513 0.930 . S
Pr536 C538 2.880 . S
Pr536 O556 2.562 . S
Pr536 O557 2.490 . S
Pr536 O558 2.695 . S
Pr536 O559 2.512 . S
Pr536 O561 2.437 . S
Pr536 O564 2.436 . S
Pr536 O566 2.438 . S
Pr537 C547 2.880 . S
Pr537 O558 2.436 . S
Pr537 O560 2.438 . S
Pr537 O562 2.562 . S
Pr537 O563 2.490 . S
Pr537 O564 2.695 . S
Pr537 O565 2.512 . S
Pr537 O567 2.437 . S
C538 Pr536 2.880 . S
C538 C539 1.491 . S
C538 O556 1.254 . S
C538 O557 1.225 . S
C539 C538 1.491 . S
C539 C540 1.392 . S
C539 C544 1.356 . S
C540 C539 1.392 . S
C540 C541 1.368 . S
C540 H568 0.929 . S
C541 C540 1.368 . S
C541 C542 1.386 . S
C541 H569 0.929 . S
C542 C541 1.386 . S
C542 C543 1.373 . S
C543 C542 1.373 . S
C543 C544 1.409 . S
C543 H570 0.931 . S
C544 C539 1.356 . S
C544 C543 1.409 . S
C544 H571 0.930 . S
C545 O558 1.270 . S
C545 O559 1.248 . S
C546 O560 1.267 . S
C546 O561 1.278 . S
C547 Pr537 2.880 . S
C547 C548 1.491 . S
C547 O562 1.254 . S
C547 O563 1.225 . S
C548 C547 1.491 . S
C548 C549 1.392 1_565 S
C548 C553 1.356 . S
C549 C548 1.392 1_545 S
C549 C550 1.368 . S
C549 H572 0.929 1_545 S
C550 C549 1.368 . S
C550 C551 1.386 . S
C550 H573 0.929 . S
C551 C550 1.386 . S
C551 C552 1.373 . S
C552 C551 1.373 . S
C552 C553 1.409 1_545 S
C552 H574 0.931 . S
C553 C548 1.356 . S
C553 C552 1.409 1_565 S
C553 H575 0.930 . S
C554 O564 1.270 . S
C554 O565 1.248 . S
C555 O566 1.267 . S
C555 O567 1.278 . S
O556 Pr536 2.562 . S
O556 C538 1.254 . S
O557 Pr536 2.490 . S
O557 C538 1.225 . S
O558 Pr536 2.695 . S
O558 Pr537 2.436 . S
O558 C545 1.270 . S
O559 Pr536 2.512 . S
O559 C545 1.248 . S
O560 Pr537 2.438 . S
O560 C546 1.267 . S
O561 Pr536 2.437 . S
O561 C546 1.278 . S
O562 Pr537 2.562 . S
O562 C547 1.254 . S
O563 Pr537 2.490 . S
O563 C547 1.225 . S
O564 Pr536 2.436 . S
O564 Pr537 2.695 . S
O564 C554 1.270 . S
O565 Pr537 2.512 . S
O565 C554 1.248 . S
O566 Pr536 2.438 . S
O566 C555 1.267 . S
O567 Pr537 2.437 . S
O567 C555 1.278 . S
H568 C540 0.929 . S
H569 C541 0.929 . S
H570 C543 0.931 . S
H571 C544 0.930 . S
H572 C549 0.929 1_565 S
H573 C550 0.929 . S
H574 C552 0.931 . S
H575 C553 0.930 . S
Pr576 C578 2.880 . S
Pr576 O596 2.562 . S
Pr576 O597 2.490 . S
Pr576 O598 2.695 . S
Pr576 O599 2.512 . S
Pr576 O601 2.437 . S
Pr576 O604 2.436 . S
Pr576 O606 2.438 . S
Pr577 C587 2.880 . S
Pr577 O598 2.436 1_556 S
Pr577 O600 2.438 . S
Pr577 O602 2.562 . S
Pr577 O603 2.490 . S
Pr577 O604 2.695 1_556 S
Pr577 O605 2.512 . S
Pr577 O607 2.437 . S
C578 Pr576 2.880 . S
C578 C579 1.491 . S
C578 O596 1.254 . S
C578 O597 1.225 . S
C579 C578 1.491 . S
C579 C580 1.392 . S
C579 C584 1.356 . S
C580 C579 1.392 . S
C580 C581 1.368 . S
C580 H608 0.929 . S
C581 C580 1.368 . S
C581 C582 1.386 . S
C581 H609 0.929 . S
C582 C581 1.386 . S
C582 C583 1.373 . S
C583 C582 1.373 . S
C583 C584 1.409 . S
C583 H610 0.931 . S
C584 C579 1.356 . S
C584 C583 1.409 . S
C584 H611 0.930 . S
C585 O598 1.270 . S
C585 O599 1.248 . S
C586 O600 1.267 1_554 S
C586 O601 1.278 . S
C587 Pr577 2.880 . S
C587 C588 1.491 . S
C587 O602 1.254 . S
C587 O603 1.225 . S
C588 C587 1.491 . S
C588 C589 1.392 . S
C588 C593 1.356 . S
C589 C588 1.392 . S
C589 C590 1.368 . S
C589 H612 0.929 . S
C590 C589 1.368 . S
C590 C591 1.386 . S
C590 H613 0.929 . S
C591 C590 1.386 . S
C591 C592 1.373 . S
C592 C591 1.373 . S
C592 C593 1.409 . S
C592 H614 0.931 . S
C593 C588 1.356 . S
C593 C592 1.409 . S
C593 H615 0.930 . S
C594 O604 1.270 . S
C594 O605 1.248 1_554 S
C595 O606 1.267 . S
C595 O607 1.278 1_554 S
O596 Pr576 2.562 . S
O596 C578 1.254 . S
O597 Pr576 2.490 . S
O597 C578 1.225 . S
O598 Pr576 2.695 . S
O598 Pr577 2.436 1_554 S
O598 C585 1.270 . S
O599 Pr576 2.512 . S
O599 C585 1.248 . S
O600 Pr577 2.438 . S
O600 C586 1.267 1_556 S
O601 Pr576 2.437 . S
O601 C586 1.278 . S
O602 Pr577 2.562 . S
O602 C587 1.254 . S
O603 Pr577 2.490 . S
O603 C587 1.225 . S
O604 Pr576 2.436 . S
O604 Pr577 2.695 1_554 S
O604 C594 1.270 . S
O605 Pr577 2.512 . S
O605 C594 1.248 1_556 S
O606 Pr576 2.438 . S
O606 C595 1.267 . S
O607 Pr577 2.437 . S
O607 C595 1.278 1_556 S
H608 C580 0.929 . S
H609 C581 0.929 . S
H610 C583 0.931 . S
H611 C584 0.930 . S
H612 C589 0.929 . S
H613 C590 0.929 . S
H614 C592 0.931 . S
H615 C593 0.930 . S
Pr616 C618 2.880 . S
Pr616 O636 2.562 . S
Pr616 O637 2.490 . S
Pr616 O638 2.695 . S
Pr616 O639 2.512 . S
Pr616 O641 2.437 . S
Pr616 O644 2.436 . S
Pr616 O646 2.438 . S
Pr617 C627 2.880 . S
Pr617 O638 2.436 . S
Pr617 O640 2.438 . S
Pr617 O642 2.562 . S
Pr617 O643 2.490 . S
Pr617 O644 2.695 . S
Pr617 O645 2.512 . S
Pr617 O647 2.437 . S
C618 Pr616 2.880 . S
C618 C619 1.491 . S
C618 O636 1.254 . S
C618 O637 1.225 . S
C619 C618 1.491 . S
C619 C620 1.392 . S
C619 C624 1.356 . S
C620 C619 1.392 . S
C620 C621 1.368 . S
C620 H648 0.929 . S
C621 C620 1.368 . S
C621 C622 1.386 . S
C621 H649 0.929 . S
C622 C621 1.386 . S
C622 C623 1.373 . S
C623 C622 1.373 . S
C623 C624 1.409 . S
C623 H650 0.931 . S
C624 C619 1.356 . S
C624 C623 1.409 . S
C624 H651 0.930 . S
C625 O638 1.270 . S
C625 O639 1.248 . S
C626 O640 1.267 . S
C626 O641 1.278 . S
C627 Pr617 2.880 . S
C627 C628 1.491 . S
C627 O642 1.254 . S
C627 O643 1.225 . S
C628 C627 1.491 . S
C628 C629 1.392 . S
C628 C633 1.356 . S
C629 C628 1.392 . S
C629 C630 1.368 . S
C629 H652 0.929 . S
C630 C629 1.368 . S
C630 C631 1.386 . S
C630 H653 0.929 . S
C631 C630 1.386 . S
C631 C632 1.373 . S
C632 C631 1.373 . S
C632 C633 1.409 . S
C632 H654 0.931 . S
C633 C628 1.356 . S
C633 C632 1.409 . S
C633 H655 0.930 . S
C634 O644 1.270 . S
C634 O645 1.248 . S
C635 O646 1.267 . S
C635 O647 1.278 . S
O636 Pr616 2.562 . S
O636 C618 1.254 . S
O637 Pr616 2.490 . S
O637 C618 1.225 . S
O638 Pr616 2.695 . S
O638 Pr617 2.436 . S
O638 C625 1.270 . S
O639 Pr616 2.512 . S
O639 C625 1.248 . S
O640 Pr617 2.438 . S
O640 C626 1.267 . S
O641 Pr616 2.437 . S
O641 C626 1.278 . S
O642 Pr617 2.562 . S
O642 C627 1.254 . S
O643 Pr617 2.490 . S
O643 C627 1.225 . S
O644 Pr616 2.436 . S
O644 Pr617 2.695 . S
O644 C634 1.270 . S
O645 Pr617 2.512 . S
O645 C634 1.248 . S
O646 Pr616 2.438 . S
O646 C635 1.267 . S
O647 Pr617 2.437 . S
O647 C635 1.278 . S
H648 C620 0.929 . S
H649 C621 0.929 . S
H650 C623 0.931 . S
H651 C624 0.930 . S
H652 C629 0.929 . S
H653 C630 0.929 . S
H654 C632 0.931 . S
H655 C633 0.930 . S
Pr656 C658 2.880 . S
Pr656 O676 2.562 . S
Pr656 O677 2.490 . S
Pr656 O678 2.695 1_556 S
Pr656 O679 2.512 . S
Pr656 O681 2.437 . S
Pr656 O684 2.436 1_556 S
Pr656 O686 2.438 1_556 S
Pr657 C667 2.880 . S
Pr657 O678 2.436 . S
Pr657 O680 2.438 . S
Pr657 O682 2.562 . S
Pr657 O683 2.490 . S
Pr657 O684 2.695 . S
Pr657 O685 2.512 . S
Pr657 O687 2.437 . S
C658 Pr656 2.880 . S
C658 C659 1.491 . S
C658 O676 1.254 . S
C658 O677 1.225 . S
C659 C658 1.491 . S
C659 C660 1.392 . S
C659 C664 1.356 . S
C660 C659 1.392 . S
C660 C661 1.368 . S
C660 H688 0.929 . S
C661 C660 1.368 . S
C661 C662 1.386 . S
C661 H689 0.929 . S
C662 C661 1.386 . S
C662 C663 1.373 . S
C663 C662 1.373 . S
C663 C664 1.409 . S
C663 H690 0.931 . S
C664 C659 1.356 . S
C664 C663 1.409 . S
C664 H691 0.930 . S
C665 O678 1.270 . S
C665 O679 1.248 1_554 S
C666 O680 1.267 1_556 S
C666 O681 1.278 . S
C667 Pr657 2.880 . S
C667 C668 1.491 . S
C667 O682 1.254 . S
C667 O683 1.225 . S
C668 C667 1.491 . S
C668 C669 1.392 . S
C668 C673 1.356 . S
C669 C668 1.392 . S
C669 C670 1.368 . S
C669 H692 0.929 . S
C670 C669 1.368 . S
C670 C671 1.386 . S
C670 H693 0.929 . S
C671 C670 1.386 . S
C671 C672 1.373 . S
C672 C671 1.373 . S
C672 C673 1.409 . S
C672 H694 0.931 . S
C673 C668 1.356 . S
C673 C672 1.409 . S
C673 H695 0.930 . S
C674 O684 1.270 . S
C674 O685 1.248 . S
C675 O686 1.267 . S
C675 O687 1.278 . S
O676 Pr656 2.562 . S
O676 C658 1.254 . S
O677 Pr656 2.490 . S
O677 C658 1.225 . S
O678 Pr656 2.695 1_554 S
O678 Pr657 2.436 . S
O678 C665 1.270 . S
O679 Pr656 2.512 . S
O679 C665 1.248 1_556 S
O680 Pr657 2.438 . S
O680 C666 1.267 1_554 S
O681 Pr656 2.437 . S
O681 C666 1.278 . S
O682 Pr657 2.562 . S
O682 C667 1.254 . S
O683 Pr657 2.490 . S
O683 C667 1.225 . S
O684 Pr656 2.436 1_554 S
O684 Pr657 2.695 . S
O684 C674 1.270 . S
O685 Pr657 2.512 . S
O685 C674 1.248 . S
O686 Pr656 2.438 1_554 S
O686 C675 1.267 . S
O687 Pr657 2.437 . S
O687 C675 1.278 . S
H688 C660 0.929 . S
H689 C661 0.929 . S
H690 C663 0.931 . S
H691 C664 0.930 . S
H692 C669 0.929 . S
H693 C670 0.929 . S
H694 C672 0.931 . S
H695 C673 0.930 . S
Pr696 C698 2.880 . S
Pr696 O716 2.562 . S
Pr696 O717 2.490 . S
Pr696 O718 2.695 . S
Pr696 O719 2.512 . S
Pr696 O721 2.437 . S
Pr696 O724 2.436 . S
Pr696 O726 2.438 . S
Pr697 C707 2.880 . S
Pr697 O718 2.436 . S
Pr697 O720 2.438 . S
Pr697 O722 2.562 . S
Pr697 O723 2.490 . S
Pr697 O724 2.695 . S
Pr697 O725 2.512 . S
Pr697 O727 2.437 . S
C698 Pr696 2.880 . S
C698 C699 1.491 . S
C698 O716 1.254 . S
C698 O717 1.225 . S
C699 C698 1.491 . S
C699 C700 1.392 . S
C699 C704 1.356 . S
C700 C699 1.392 . S
C700 C701 1.368 . S
C700 H728 0.929 . S
C701 C700 1.368 . S
C701 C702 1.386 . S
C701 H729 0.929 . S
C702 C701 1.386 . S
C702 C703 1.373 . S
C703 C702 1.373 . S
C703 C704 1.409 . S
C703 H730 0.931 . S
C704 C699 1.356 . S
C704 C703 1.409 . S
C704 H731 0.930 . S
C705 O718 1.270 . S
C705 O719 1.248 . S
C706 O720 1.267 . S
C706 O721 1.278 . S
C707 Pr697 2.880 . S
C707 C708 1.491 . S
C707 O722 1.254 . S
C707 O723 1.225 . S
C708 C707 1.491 . S
C708 C709 1.392 . S
C708 C713 1.356 . S
C709 C708 1.392 . S
C709 C710 1.368 . S
C709 H732 0.929 . S
C710 C709 1.368 . S
C710 C711 1.386 . S
C710 H733 0.929 . S
C711 C710 1.386 . S
C711 C712 1.373 . S
C712 C711 1.373 . S
C712 C713 1.409 . S
C712 H734 0.931 . S
C713 C708 1.356 . S
C713 C712 1.409 . S
C713 H735 0.930 . S
C714 O724 1.270 . S
C714 O725 1.248 . S
C715 O726 1.267 . S
C715 O727 1.278 . S
O716 Pr696 2.562 . S
O716 C698 1.254 . S
O717 Pr696 2.490 . S
O717 C698 1.225 . S
O718 Pr696 2.695 . S
O718 Pr697 2.436 . S
O718 C705 1.270 . S
O719 Pr696 2.512 . S
O719 C705 1.248 . S
O720 Pr697 2.438 . S
O720 C706 1.267 . S
O721 Pr696 2.437 . S
O721 C706 1.278 . S
O722 Pr697 2.562 . S
O722 C707 1.254 . S
O723 Pr697 2.490 . S
O723 C707 1.225 . S
O724 Pr696 2.436 . S
O724 Pr697 2.695 . S
O724 C714 1.270 . S
O725 Pr697 2.512 . S
O725 C714 1.248 . S
O726 Pr696 2.438 . S
O726 C715 1.267 . S
O727 Pr697 2.437 . S
O727 C715 1.278 . S
H728 C700 0.929 . S
H729 C701 0.929 . S
H730 C703 0.931 . S
H731 C704 0.930 . S
H732 C709 0.929 . S
H733 C710 0.929 . S
H734 C712 0.931 . S
H735 C713 0.930 . S
Pr736 C738 2.880 . S
Pr736 O756 2.562 . S
Pr736 O757 2.490 . S
Pr736 O758 2.695 . S
Pr736 O759 2.512 . S
Pr736 O761 2.437 . S
Pr736 O764 2.436 . S
Pr736 O766 2.438 . S
Pr737 C747 2.880 . S
Pr737 O758 2.436 . S
Pr737 O760 2.440 . S
Pr737 O762 2.562 . S
Pr737 O763 2.490 . S
Pr737 O764 2.695 . S
Pr737 O765 2.512 . S
Pr737 O767 2.437 . S
C738 Pr736 2.880 . S
C738 C739 1.491 . S
C738 O756 1.254 . S
C738 O757 1.225 . S
C739 C738 1.491 . S
C739 C740 1.392 . S
C739 C744 1.356 . S
C740 C739 1.392 . S
C740 C741 1.368 . S
C740 H768 0.929 . S
C741 C740 1.368 . S
C741 C742 1.386 . S
C741 H769 0.929 . S
C742 C741 1.386 . S
C742 C743 1.373 . S
C743 C742 1.373 . S
C743 C744 1.409 . S
C743 H770 0.931 1_455 S
C744 C739 1.356 . S
C744 C743 1.409 . S
C744 H771 0.930 . S
C745 O758 1.270 . S
C745 O759 1.248 . S
C746 O760 1.266 1_655 S
C746 O761 1.278 1_655 S
C747 Pr737 2.880 . S
C747 C748 1.491 . S
C747 O762 1.254 . S
C747 O763 1.225 . S
C748 C747 1.491 . S
C748 C749 1.392 . S
C748 C753 1.356 . S
C749 C748 1.392 . S
C749 C750 1.368 . S
C749 H772 0.929 . S
C750 C749 1.368 . S
C750 C751 1.386 . S
C750 H773 0.929 . S
C751 C750 1.386 . S
C751 C752 1.373 . S
C752 C751 1.373 . S
C752 C753 1.409 . S
C752 H774 0.931 . S
C753 C748 1.356 . S
C753 C752 1.409 . S
C753 H775 0.930 . S
C754 O764 1.270 . S
C754 O765 1.248 . S
C755 O766 1.267 . S
C755 O767 1.278 . S
O756 Pr736 2.562 . S
O756 C738 1.254 . S
O757 Pr736 2.490 . S
O757 C738 1.225 . S
O758 Pr736 2.695 . S
O758 Pr737 2.436 . S
O758 C745 1.270 . S
O759 Pr736 2.512 . S
O759 C745 1.248 . S
O760 Pr737 2.440 . S
O760 C746 1.266 1_455 S
O761 Pr736 2.437 . S
O761 C746 1.278 1_455 S
O762 Pr737 2.562 . S
O762 C747 1.254 . S
O763 Pr737 2.490 . S
O763 C747 1.225 . S
O764 Pr736 2.436 . S
O764 Pr737 2.695 . S
O764 C754 1.270 . S
O765 Pr737 2.512 . S
O765 C754 1.248 . S
O766 Pr736 2.438 . S
O766 C755 1.267 . S
O767 Pr737 2.437 . S
O767 C755 1.278 . S
H768 C740 0.929 . S
H769 C741 0.929 . S
H770 C743 0.931 1_655 S
H771 C744 0.930 . S
H772 C749 0.929 . S
H773 C750 0.929 . S
H774 C752 0.931 . S
H775 C753 0.930 . S
Pr776 C778 2.880 . S
Pr776 O796 2.562 . S
Pr776 O797 2.490 . S
Pr776 O798 2.695 . S
Pr776 O799 2.512 . S
Pr776 O801 2.437 . S
Pr776 O804 2.436 . S
Pr776 O806 2.438 . S
Pr777 C787 2.880 . S
Pr777 O798 2.436 . S
Pr777 O800 2.438 . S
Pr777 O802 2.562 . S
Pr777 O803 2.490 . S
Pr777 O804 2.695 . S
Pr777 O805 2.512 . S
Pr777 O807 2.437 . S
C778 Pr776 2.880 . S
C778 C779 1.491 . S
C778 O796 1.254 . S
C778 O797 1.225 . S
C779 C778 1.491 . S
C779 C780 1.392 . S
C779 C784 1.356 . S
C780 C779 1.392 . S
C780 C781 1.368 . S
C780 H808 0.929 . S
C781 C780 1.368 . S
C781 C782 1.386 . S
C781 H809 0.929 . S
C782 C781 1.386 . S
C782 C783 1.373 . S
C783 C782 1.373 . S
C783 C784 1.409 . S
C783 H810 0.931 . S
C784 C779 1.356 . S
C784 C783 1.409 . S
C784 H811 0.930 . S
C785 O798 1.270 . S
C785 O799 1.248 . S
C786 O800 1.267 . S
C786 O801 1.278 . S
C787 Pr777 2.880 . S
C787 C788 1.491 . S
C787 O802 1.254 . S
C787 O803 1.225 . S
C788 C787 1.491 . S
C788 C789 1.392 . S
C788 C793 1.356 . S
C789 C788 1.392 . S
C789 C790 1.368 . S
C789 H812 0.929 . S
C790 C789 1.368 . S
C790 C791 1.386 . S
C790 H813 0.929 . S
C791 C790 1.386 . S
C791 C792 1.373 . S
C792 C791 1.373 . S
C792 C793 1.409 . S
C792 H814 0.931 . S
C793 C788 1.356 . S
C793 C792 1.409 . S
C793 H815 0.930 . S
C794 O804 1.270 . S
C794 O805 1.248 . S
C795 O806 1.267 . S
C795 O807 1.278 . S
O796 Pr776 2.562 . S
O796 C778 1.254 . S
O797 Pr776 2.490 . S
O797 C778 1.225 . S
O798 Pr776 2.695 . S
O798 Pr777 2.436 . S
O798 C785 1.270 . S
O799 Pr776 2.512 . S
O799 C785 1.248 . S
O800 Pr777 2.438 . S
O800 C786 1.267 . S
O801 Pr776 2.437 . S
O801 C786 1.278 . S
O802 Pr777 2.562 . S
O802 C787 1.254 . S
O803 Pr777 2.490 . S
O803 C787 1.225 . S
O804 Pr776 2.436 . S
O804 Pr777 2.695 . S
O804 C794 1.270 . S
O805 Pr777 2.512 . S
O805 C794 1.248 . S
O806 Pr776 2.438 . S
O806 C795 1.267 . S
O807 Pr777 2.437 . S
O807 C795 1.278 . S
H808 C780 0.929 . S
H809 C781 0.929 . S
H810 C783 0.931 . S
H811 C784 0.930 . S
H812 C789 0.929 . S
H813 C790 0.929 . S
H814 C792 0.931 . S
H815 C793 0.930 . S
Pr816 C818 2.880 . S
Pr816 O836 2.562 . S
Pr816 O837 2.490 . S
Pr816 O838 2.695 . S
Pr816 O839 2.512 . S
Pr816 O841 2.437 . S
Pr816 O844 2.436 . S
Pr816 O846 2.438 . S
Pr817 C827 2.880 . S
Pr817 O838 2.436 . S
Pr817 O840 2.438 . S
Pr817 O842 2.562 . S
Pr817 O843 2.490 . S
Pr817 O844 2.695 . S
Pr817 O845 2.512 . S
Pr817 O847 2.437 . S
C818 Pr816 2.880 . S
C818 C819 1.491 . S
C818 O836 1.254 . S
C818 O837 1.225 . S
C819 C818 1.491 . S
C819 C820 1.392 . S
C819 C824 1.356 . S
C820 C819 1.392 . S
C820 C821 1.368 . S
C820 H848 0.929 . S
C821 C820 1.368 . S
C821 C822 1.386 . S
C821 H849 0.929 . S
C822 C821 1.386 . S
C822 C823 1.373 . S
C823 C822 1.373 . S
C823 C824 1.409 . S
C823 H850 0.931 . S
C824 C819 1.356 . S
C824 C823 1.409 . S
C824 H851 0.930 . S
C825 O838 1.270 . S
C825 O839 1.248 . S
C826 O840 1.267 . S
C826 O841 1.278 . S
C827 Pr817 2.880 . S
C827 C828 1.491 . S
C827 O842 1.254 . S
C827 O843 1.225 . S
C828 C827 1.491 . S
C828 C829 1.392 . S
C828 C833 1.356 . S
C829 C828 1.392 . S
C829 C830 1.368 . S
C829 H852 0.929 . S
C830 C829 1.368 . S
C830 C831 1.386 . S
C830 H853 0.929 . S
C831 C830 1.386 . S
C831 C832 1.373 . S
C832 C831 1.373 . S
C832 C833 1.409 . S
C832 H854 0.931 . S
C833 C828 1.356 . S
C833 C832 1.409 . S
C833 H855 0.930 . S
C834 O844 1.270 . S
C834 O845 1.248 . S
C835 O846 1.267 . S
C835 O847 1.278 . S
O836 Pr816 2.562 . S
O836 C818 1.254 . S
O837 Pr816 2.490 . S
O837 C818 1.225 . S
O838 Pr816 2.695 . S
O838 Pr817 2.436 . S
O838 C825 1.270 . S
O839 Pr816 2.512 . S
O839 C825 1.248 . S
O840 Pr817 2.438 . S
O840 C826 1.267 . S
O841 Pr816 2.437 . S
O841 C826 1.278 . S
O842 Pr817 2.562 . S
O842 C827 1.254 . S
O843 Pr817 2.490 . S
O843 C827 1.225 . S
O844 Pr816 2.436 . S
O844 Pr817 2.695 . S
O844 C834 1.270 . S
O845 Pr817 2.512 . S
O845 C834 1.248 . S
O846 Pr816 2.438 . S
O846 C835 1.267 . S
O847 Pr817 2.437 . S
O847 C835 1.278 . S
H848 C820 0.929 . S
H849 C821 0.929 . S
H850 C823 0.931 . S
H851 C824 0.930 . S
H852 C829 0.929 . S
H853 C830 0.929 . S
H854 C832 0.931 . S
H855 C833 0.930 . S
Pr856 C858 2.880 . S
Pr856 O876 2.562 . S
Pr856 O877 2.490 . S
Pr856 O878 2.695 . S
Pr856 O879 2.512 . S
Pr856 O881 2.437 . S
Pr856 O884 2.436 . S
Pr856 O886 2.438 . S
Pr857 C867 2.880 . S
Pr857 O878 2.436 . S
Pr857 O880 2.438 . S
Pr857 O882 2.562 . S
Pr857 O883 2.490 . S
Pr857 O884 2.695 . S
Pr857 O885 2.512 . S
Pr857 O887 2.437 . S
C858 Pr856 2.880 . S
C858 C859 1.491 . S
C858 O876 1.254 . S
C858 O877 1.225 . S
C859 C858 1.491 . S
C859 C860 1.392 . S
C859 C864 1.356 . S
C860 C859 1.392 . S
C860 C861 1.368 . S
C860 H888 0.929 . S
C861 C860 1.368 . S
C861 C862 1.386 . S
C861 H889 0.929 . S
C862 C861 1.386 . S
C862 C863 1.373 . S
C863 C862 1.373 . S
C863 C864 1.409 . S
C863 H890 0.931 . S
C864 C859 1.356 . S
C864 C863 1.409 . S
C864 H891 0.930 . S
C865 O878 1.270 . S
C865 O879 1.248 . S
C866 O880 1.267 . S
C866 O881 1.278 . S
C867 Pr857 2.880 . S
C867 C868 1.491 . S
C867 O882 1.254 . S
C867 O883 1.225 . S
C868 C867 1.491 . S
C868 C869 1.392 . S
C868 C873 1.356 . S
C869 C868 1.392 . S
C869 C870 1.368 . S
C869 H892 0.929 . S
C870 C869 1.368 . S
C870 C871 1.386 . S
C870 H893 0.929 . S
C871 C870 1.386 . S
C871 C872 1.373 . S
C872 C871 1.373 . S
C872 C873 1.409 . S
C872 H894 0.931 . S
C873 C868 1.356 . S
C873 C872 1.409 . S
C873 H895 0.930 . S
C874 O884 1.270 . S
C874 O885 1.248 . S
C875 O886 1.267 . S
C875 O887 1.278 . S
O876 Pr856 2.562 . S
O876 C858 1.254 . S
O877 Pr856 2.490 . S
O877 C858 1.225 . S
O878 Pr856 2.695 . S
O878 Pr857 2.436 . S
O878 C865 1.270 . S
O879 Pr856 2.512 . S
O879 C865 1.248 . S
O880 Pr857 2.438 . S
O880 C866 1.267 . S
O881 Pr856 2.437 . S
O881 C866 1.278 . S
O882 Pr857 2.562 . S
O882 C867 1.254 . S
O883 Pr857 2.490 . S
O883 C867 1.225 . S
O884 Pr856 2.436 . S
O884 Pr857 2.695 . S
O884 C874 1.270 . S
O885 Pr857 2.512 . S
O885 C874 1.248 . S
O886 Pr856 2.438 . S
O886 C875 1.267 . S
O887 Pr857 2.437 . S
O887 C875 1.278 . S
H888 C860 0.929 . S
H889 C861 0.929 . S
H890 C863 0.931 . S
H891 C864 0.930 . S
H892 C869 0.929 . S
H893 C870 0.929 . S
H894 C872 0.931 . S
H895 C873 0.930 . S
Pr896 C898 2.880 . S
Pr896 O916 2.562 . S
Pr896 O917 2.490 . S
Pr896 O918 2.695 . S
Pr896 O919 2.512 . S
Pr896 O921 2.437 . S
Pr896 O924 2.436 . S
Pr896 O926 2.438 . S
Pr897 C907 2.880 . S
Pr897 O918 2.436 . S
Pr897 O920 2.438 . S
Pr897 O922 2.562 . S
Pr897 O923 2.490 . S
Pr897 O924 2.695 . S
Pr897 O925 2.512 . S
Pr897 O927 2.437 . S
C898 Pr896 2.880 . S
C898 C899 1.491 . S
C898 O916 1.254 . S
C898 O917 1.225 . S
C899 C898 1.491 . S
C899 C900 1.392 . S
C899 C904 1.356 . S
C900 C899 1.392 . S
C900 C901 1.368 . S
C900 H928 0.929 . S
C901 C900 1.368 . S
C901 C902 1.386 . S
C901 H929 0.929 . S
C902 C901 1.386 . S
C902 C903 1.373 . S
C903 C902 1.373 . S
C903 C904 1.409 . S
C903 H930 0.931 . S
C904 C899 1.356 . S
C904 C903 1.409 . S
C904 H931 0.930 . S
C905 O918 1.270 . S
C905 O919 1.248 . S
C906 O920 1.267 . S
C906 O921 1.278 . S
C907 Pr897 2.880 . S
C907 C908 1.491 . S
C907 O922 1.254 . S
C907 O923 1.225 . S
C908 C907 1.491 . S
C908 C909 1.392 . S
C908 C913 1.356 . S
C909 C908 1.392 . S
C909 C910 1.368 . S
C909 H932 0.929 . S
C910 C909 1.368 . S
C910 C911 1.386 . S
C910 H933 0.929 . S
C911 C910 1.386 . S
C911 C912 1.373 . S
C912 C911 1.373 . S
C912 C913 1.409 . S
C912 H934 0.931 . S
C913 C908 1.356 . S
C913 C912 1.409 . S
C913 H935 0.930 . S
C914 O924 1.270 . S
C914 O925 1.248 . S
C915 O926 1.267 . S
C915 O927 1.278 . S
O916 Pr896 2.562 . S
O916 C898 1.254 . S
O917 Pr896 2.490 . S
O917 C898 1.225 . S
O918 Pr896 2.695 . S
O918 Pr897 2.436 . S
O918 C905 1.270 . S
O919 Pr896 2.512 . S
O919 C905 1.248 . S
O920 Pr897 2.438 . S
O920 C906 1.267 . S
O921 Pr896 2.437 . S
O921 C906 1.278 . S
O922 Pr897 2.562 . S
O922 C907 1.254 . S
O923 Pr897 2.490 . S
O923 C907 1.225 . S
O924 Pr896 2.436 . S
O924 Pr897 2.695 . S
O924 C914 1.270 . S
O925 Pr897 2.512 . S
O925 C914 1.248 . S
O926 Pr896 2.438 . S
O926 C915 1.267 . S
O927 Pr897 2.437 . S
O927 C915 1.278 . S
H928 C900 0.929 . S
H929 C901 0.929 . S
H930 C903 0.931 . S
H931 C904 0.930 . S
H932 C909 0.929 . S
H933 C910 0.929 . S
H934 C912 0.931 . S
H935 C913 0.930 . S
Pr936 C938 2.880 . S
Pr936 O956 2.562 . S
Pr936 O957 2.490 1_554 S
Pr936 O958 2.695 1_554 S
Pr936 O959 2.512 1_554 S
Pr936 O961 2.437 1_554 S
Pr936 O964 2.436 . S
Pr936 O966 2.438 . S
Pr937 C947 2.880 1_455 S
Pr937 O958 2.436 1_554 S
Pr937 O960 2.438 . S
Pr937 O962 2.562 1_455 S
Pr937 O963 2.490 1_455 S
Pr937 O964 2.695 . S
Pr937 O965 2.512 . S
Pr937 O967 2.437 . S
C938 Pr936 2.880 . S
C938 C939 1.491 1_554 S
C938 O956 1.254 . S
C938 O957 1.225 1_554 S
C939 C938 1.491 1_556 S
C939 C940 1.392 . S
C939 C944 1.356 1_556 S
C940 C939 1.392 . S
C940 C941 1.368 . S
C940 H968 0.929 . S
C941 C940 1.368 . S
C941 C942 1.386 . S
C941 H969 0.929 . S
C942 C941 1.386 . S
C942 C943 1.373 1_556 S
C943 C942 1.373 1_554 S
C943 C944 1.409 . S
C943 H970 0.931 . S
C944 C939 1.356 1_554 S
C944 C943 1.409 . S
C944 H971 0.930 . S
C945 O958 1.270 . S
C945 O959 1.248 . S
C946 O960 1.267 1_556 S
C946 O961 1.278 . S
C947 Pr937 2.880 1_655 S
C947 C948 1.491 . S
C947 O962 1.254 . S
C947 O963 1.225 . S
C948 C947 1.491 . S
C948 C949 1.392 . S
C948 C953 1.356 . S
C949 C948 1.392 . S
C949 C950 1.368 . S
C949 H972 0.929 . S
C950 C949 1.368 . S
C950 C951 1.386 . S
C950 H973 0.929 . S
C951 C950 1.386 . S
C951 C952 1.373 . S
C952 C951 1.373 . S
C952 C953 1.409 . S
C952 H974 0.931 . S
C953 C948 1.356 . S
C953 C952 1.409 . S
C953 H975 0.930 . S
C954 O964 1.270 . S
C954 O965 1.248 . S
C955 O966 1.267 . S
C955 O967 1.278 . S
O956 Pr936 2.562 . S
O956 C938 1.254 . S
O957 Pr936 2.490 1_556 S
O957 C938 1.225 1_556 S
O958 Pr936 2.695 1_556 S
O958 Pr937 2.436 1_556 S
O958 C945 1.270 . S
O959 Pr936 2.512 1_556 S
O959 C945 1.248 . S
O960 Pr937 2.438 . S
O960 C946 1.267 1_554 S
O961 Pr936 2.437 1_556 S
O961 C946 1.278 . S
O962 Pr937 2.562 1_655 S
O962 C947 1.254 . S
O963 Pr937 2.490 1_655 S
O963 C947 1.225 . S
O964 Pr936 2.436 . S
O964 Pr937 2.695 . S
O964 C954 1.270 . S
O965 Pr937 2.512 . S
O965 C954 1.248 . S
O966 Pr936 2.438 . S
O966 C955 1.267 . S
O967 Pr937 2.437 . S
O967 C955 1.278 . S
H968 C940 0.929 . S
H969 C941 0.929 . S
H970 C943 0.931 . S
H971 C944 0.930 . S
H972 C949 0.929 . S
H973 C950 0.929 . S
H974 C952 0.931 . S
H975 C953 0.930 . S
C976 C977 1.369 . S
C976 C978 1.419 . S
C976 H980 0.930 . S
C977 C976 1.369 . S
C977 C986 1.429 1_556 S
C978 C976 1.419 . S
C978 C979 1.363 1_556 S
C978 H981 0.929 . S
C979 C978 1.363 1_554 S
C979 C985 1.428 . S
H980 C976 0.930 . S
H981 C978 0.929 . S
S982 N983 1.613 . S
S982 N984 1.610 . S
N983 S982 1.613 . S
N983 C986 1.350 . S
N984 S982 1.610 . S
N984 C985 1.351 . S
C985 C979 1.428 . S
C985 N984 1.351 . S
C985 C986 1.434 . S
C986 C977 1.429 1_554 S
C986 N983 1.350 . S
C986 C985 1.434 . S
C987 C988 1.369 . S
C987 C989 1.419 . S
C987 H991 0.930 . S
C988 C987 1.369 . S
C988 C997 1.429 . S
C989 C987 1.419 . S
C989 C990 1.363 . S
C989 H992 0.929 . S
C990 C989 1.363 . S
C990 C996 1.428 . S
H991 C987 0.930 . S
H992 C989 0.929 . S
S993 N994 1.613 . S
S993 N995 1.610 . S
N994 S993 1.613 . S
N994 C997 1.350 . S
N995 S993 1.610 . S
N995 C996 1.351 . S
C996 C990 1.428 . S
C996 N995 1.351 . S
C996 C997 1.434 . S
C997 C988 1.429 . S
C997 N994 1.350 . S
C997 C996 1.434 . S
C998 C999 1.369 . S
C998 C1000 1.419 . S
C998 H1002 0.930 . S
C999 C998 1.369 . S
C999 C1008 1.429 . S
C1000 C998 1.419 . S
C1000 C1001 1.363 . S
C1000 H1003 0.929 . S
C1001 C1000 1.363 . S
C1001 C1007 1.428 . S
H1002 C998 0.930 . S
H1003 C1000 0.929 . S
S1004 N1005 1.613 . S
S1004 N1006 1.610 . S
N1005 S1004 1.613 . S
N1005 C1008 1.350 . S
N1006 S1004 1.610 . S
N1006 C1007 1.351 . S
C1007 C1001 1.428 . S
C1007 N1006 1.351 . S
C1007 C1008 1.434 . S
C1008 C999 1.429 . S
C1008 N1005 1.350 . S
C1008 C1007 1.434 . S
C1009 C1010 1.369 . S
C1009 C1011 1.419 . S
C1009 H1013 0.930 . S
C1010 C1009 1.369 . S
C1010 C1019 1.429 . S
C1011 C1009 1.419 . S
C1011 C1012 1.363 . S
C1011 H1014 0.929 . S
C1012 C1011 1.363 . S
C1012 C1018 1.428 . S
H1013 C1009 0.930 . S
H1014 C1011 0.929 . S
S1015 N1016 1.613 . S
S1015 N1017 1.610 . S
N1016 S1015 1.613 . S
N1016 C1019 1.350 . S
N1017 S1015 1.610 . S
N1017 C1018 1.351 . S
C1018 C1012 1.428 . S
C1018 N1017 1.351 . S
C1018 C1019 1.434 . S
C1019 C1010 1.429 . S
C1019 N1016 1.350 . S
C1019 C1018 1.434 . S
C1020 C1021 1.369 . S
C1020 C1022 1.419 1_565 S
C1020 H1024 0.930 . S
C1021 C1020 1.369 . S
C1021 C1030 1.429 . S
C1022 C1020 1.419 1_545 S
C1022 C1023 1.363 . S
C1022 H1025 0.929 . S
C1023 C1022 1.363 . S
C1023 C1029 1.428 1_545 S
H1024 C1020 0.930 . S
H1025 C1022 0.929 . S
S1026 N1027 1.613 . S
S1026 N1028 1.610 . S
N1027 S1026 1.613 . S
N1027 C1030 1.350 . S
N1028 S1026 1.610 . S
N1028 C1029 1.351 . S
C1029 C1023 1.428 1_565 S
C1029 N1028 1.351 . S
C1029 C1030 1.434 . S
C1030 C1021 1.429 . S
C1030 N1027 1.350 . S
C1030 C1029 1.434 . S
C1031 C1032 1.369 . S
C1031 C1033 1.419 . S
C1031 H1035 0.930 . S
C1032 C1031 1.369 . S
C1032 C1041 1.429 . S
C1033 C1031 1.419 . S
C1033 C1034 1.363 . S
C1033 H1036 0.929 . S
C1034 C1033 1.363 . S
C1034 C1040 1.428 . S
H1035 C1031 0.930 . S
H1036 C1033 0.929 . S
S1037 N1038 1.613 . S
S1037 N1039 1.610 . S
N1038 S1037 1.613 . S
N1038 C1041 1.350 . S
N1039 S1037 1.610 . S
N1039 C1040 1.351 . S
C1040 C1034 1.428 . S
C1040 N1039 1.351 . S
C1040 C1041 1.434 . S
C1041 C1032 1.429 . S
C1041 N1038 1.350 . S
C1041 C1040 1.434 . S
C1042 C1043 1.369 . S
C1042 C1044 1.419 . S
C1042 H1046 0.930 . S
C1043 C1042 1.369 . S
C1043 C1052 1.429 . S
C1044 C1042 1.419 . S
C1044 C1045 1.363 . S
C1044 H1047 0.929 . S
C1045 C1044 1.363 . S
C1045 C1051 1.428 . S
H1046 C1042 0.930 . S
H1047 C1044 0.929 . S
S1048 N1049 1.613 . S
S1048 N1050 1.610 . S
N1049 S1048 1.613 . S
N1049 C1052 1.350 . S
N1050 S1048 1.610 . S
N1050 C1051 1.351 . S
C1051 C1045 1.428 . S
C1051 N1050 1.351 . S
C1051 C1052 1.434 . S
C1052 C1043 1.429 . S
C1052 N1049 1.350 . S
C1052 C1051 1.434 . S
C1053 C1054 1.369 . S
C1053 C1055 1.419 . S
C1053 H1057 0.930 . S
C1054 C1053 1.369 . S
C1054 C1063 1.429 . S
C1055 C1053 1.419 . S
C1055 C1056 1.363 . S
C1055 H1058 0.929 . S
C1056 C1055 1.363 . S
C1056 C1062 1.428 . S
H1057 C1053 0.930 . S
H1058 C1055 0.929 . S
S1059 N1060 1.613 . S
S1059 N1061 1.610 . S
N1060 S1059 1.613 . S
N1060 C1063 1.350 . S
N1061 S1059 1.610 . S
N1061 C1062 1.351 . S
C1062 C1056 1.428 . S
C1062 N1061 1.351 . S
C1062 C1063 1.434 . S
C1063 C1054 1.429 . S
C1063 N1060 1.350 . S
C1063 C1062 1.434 . S
C1064 C1065 1.369 . S
C1064 C1066 1.419 . S
C1064 H1068 0.930 . S
C1065 C1064 1.369 . S
C1065 C1074 1.429 . S
C1066 C1064 1.419 . S
C1066 C1067 1.363 1_655 S
C1066 H1069 0.929 . S
C1067 C1066 1.363 1_455 S
C1067 C1073 1.428 . S
H1068 C1064 0.930 . S
H1069 C1066 0.929 . S
S1070 N1071 1.613 1_455 S
S1070 N1072 1.610 . S
N1071 S1070 1.613 1_655 S
N1071 C1074 1.350 . S
N1072 S1070 1.610 . S
N1072 C1073 1.351 . S
C1073 C1067 1.428 . S
C1073 N1072 1.351 . S
C1073 C1074 1.434 1_455 S
C1074 C1065 1.429 . S
C1074 N1071 1.350 . S
C1074 C1073 1.434 1_655 S
C1075 C1076 1.369 . S
C1075 C1077 1.419 . S
C1075 H1079 0.930 . S
C1076 C1075 1.369 . S
C1076 C1085 1.429 . S
C1077 C1075 1.419 . S
C1077 C1078 1.363 . S
C1077 H1080 0.929 . S
C1078 C1077 1.363 . S
C1078 C1084 1.428 . S
H1079 C1075 0.930 . S
H1080 C1077 0.929 . S
S1081 N1082 1.613 . S
S1081 N1083 1.610 . S
N1082 S1081 1.613 . S
N1082 C1085 1.350 . S
N1083 S1081 1.610 . S
N1083 C1084 1.351 . S
C1084 C1078 1.428 . S
C1084 N1083 1.351 . S
C1084 C1085 1.434 . S
C1085 C1076 1.429 . S
C1085 N1082 1.350 . S
C1085 C1084 1.434 . S
C1086 C1087 1.369 . S
C1086 C1088 1.419 . S
C1086 H1090 0.930 . S
C1087 C1086 1.369 . S
C1087 C1096 1.429 . S
C1088 C1086 1.419 . S
C1088 C1089 1.363 . S
C1088 H1091 0.929 . S
C1089 C1088 1.363 . S
C1089 C1095 1.428 . S
H1090 C1086 0.930 . S
H1091 C1088 0.929 . S
S1092 N1093 1.613 . S
S1092 N1094 1.610 . S
N1093 S1092 1.613 . S
N1093 C1096 1.350 . S
N1094 S1092 1.610 . S
N1094 C1095 1.351 . S
C1095 C1089 1.428 . S
C1095 N1094 1.351 . S
C1095 C1096 1.434 . S
C1096 C1087 1.429 . S
C1096 N1093 1.350 . S
C1096 C1095 1.434 . S
C1097 C1098 1.369 . S
C1097 C1099 1.419 . S
C1097 H1101 0.930 . S
C1098 C1097 1.369 . S
C1098 C1107 1.429 . S
C1099 C1097 1.419 . S
C1099 C1100 1.363 . S
C1099 H1102 0.929 . S
C1100 C1099 1.363 . S
C1100 C1106 1.428 . S
H1101 C1097 0.930 . S
H1102 C1099 0.929 . S
S1103 N1104 1.613 . S
S1103 N1105 1.610 . S
N1104 S1103 1.613 . S
N1104 C1107 1.350 . S
N1105 S1103 1.610 . S
N1105 C1106 1.351 . S
C1106 C1100 1.428 . S
C1106 N1105 1.351 . S
C1106 C1107 1.434 . S
C1107 C1098 1.429 . S
C1107 N1104 1.350 . S
C1107 C1106 1.434 . S
C1108 C1109 1.369 . S
C1108 C1110 1.419 . S
C1108 H1112 0.930 . S
C1109 C1108 1.369 . S
C1109 C1118 1.429 . S
C1110 C1108 1.419 . S
C1110 C1111 1.363 . S
C1110 H1113 0.929 . S
C1111 C1110 1.363 . S
C1111 C1117 1.428 . S
H1112 C1108 0.930 . S
H1113 C1110 0.929 . S
S1114 N1115 1.613 1_455 S
S1114 N1116 1.610 . S
N1115 S1114 1.613 1_655 S
N1115 C1118 1.350 . S
N1116 S1114 1.610 . S
N1116 C1117 1.351 1_455 S
C1117 C1111 1.428 . S
C1117 N1116 1.351 1_655 S
C1117 C1118 1.434 . S
C1118 C1109 1.429 . S
C1118 N1115 1.350 . S
C1118 C1117 1.434 . S
C1119 C1120 1.369 . S
C1119 C1121 1.419 . S
C1119 H1123 0.930 . S
C1120 C1119 1.369 . S
C1120 C1129 1.429 . S
C1121 C1119 1.419 . S
C1121 C1122 1.363 . S
C1121 H1124 0.929 . S
C1122 C1121 1.363 . S
C1122 C1128 1.428 . S
H1123 C1119 0.930 . S
H1124 C1121 0.929 . S
S1125 N1126 1.613 . S
S1125 N1127 1.610 . S
N1126 S1125 1.613 . S
N1126 C1129 1.350 . S
N1127 S1125 1.610 . S
N1127 C1128 1.351 . S
C1128 C1122 1.428 . S
C1128 N1127 1.351 . S
C1128 C1129 1.434 . S
C1129 C1120 1.429 . S
C1129 N1126 1.350 . S
C1129 C1128 1.434 . S
C1130 C1131 1.369 . S
C1130 C1132 1.419 . S
C1130 H1134 0.930 . S
C1131 C1130 1.369 . S
C1131 C1140 1.429 . S
C1132 C1130 1.419 . S
C1132 C1133 1.363 . S
C1132 H1135 0.929 . S
C1133 C1132 1.363 . S
C1133 C1139 1.428 . S
H1134 C1130 0.930 . S
H1135 C1132 0.929 . S
S1136 N1137 1.613 . S
S1136 N1138 1.610 . S
N1137 S1136 1.613 . S
N1137 C1140 1.350 . S
N1138 S1136 1.610 . S
N1138 C1139 1.351 . S
C1139 C1133 1.428 . S
C1139 N1138 1.351 . S
C1139 C1140 1.434 . S
C1140 C1131 1.429 . S
C1140 N1137 1.350 . S
C1140 C1139 1.434 . S
C1141 C1142 1.369 . S
C1141 C1143 1.419 . S
C1141 H1145 0.930 . S
C1142 C1141 1.369 . S
C1142 C1151 1.429 . S
C1143 C1141 1.419 . S
C1143 C1144 1.363 . S
C1143 H1146 0.929 . S
C1144 C1143 1.363 . S
C1144 C1150 1.428 . S
H1145 C1141 0.930 . S
H1146 C1143 0.929 . S
S1147 N1148 1.613 . S
S1147 N1149 1.610 . S
N1148 S1147 1.613 . S
N1148 C1151 1.350 . S
N1149 S1147 1.610 . S
N1149 C1150 1.351 . S
C1150 C1144 1.428 . S
C1150 N1149 1.351 . S
C1150 C1151 1.434 . S
C1151 C1142 1.429 . S
C1151 N1148 1.350 . S
C1151 C1150 1.434 . S
C1152 C1153 1.369 . S
C1152 C1154 1.419 . S
C1152 H1156 0.930 . S
C1153 C1152 1.369 . S
C1153 C1162 1.429 . S
C1154 C1152 1.419 . S
C1154 C1155 1.363 . S
C1154 H1157 0.929 . S
C1155 C1154 1.363 . S
C1155 C1161 1.428 . S
H1156 C1152 0.930 . S
H1157 C1154 0.929 . S
S1158 N1159 1.613 . S
S1158 N1160 1.610 . S
N1159 S1158 1.613 . S
N1159 C1162 1.350 . S
N1160 S1158 1.610 . S
N1160 C1161 1.351 . S
C1161 C1155 1.428 . S
C1161 N1160 1.351 . S
C1161 C1162 1.434 . S
C1162 C1153 1.429 . S
C1162 N1159 1.350 . S
C1162 C1161 1.434 . S
C1163 C1164 1.369 . S
C1163 C1165 1.419 . S
C1163 H1167 0.930 . S
C1164 C1163 1.369 . S
C1164 C1173 1.429 1_554 S
C1165 C1163 1.419 . S
C1165 C1166 1.363 . S
C1165 H1168 0.929 . S
C1166 C1165 1.363 . S
C1166 C1172 1.428 1_554 S
H1167 C1163 0.930 . S
H1168 C1165 0.929 . S
S1169 N1170 1.613 . S
S1169 N1171 1.610 . S
N1170 S1169 1.613 . S
N1170 C1173 1.350 . S
N1171 S1169 1.610 . S
N1171 C1172 1.351 . S
C1172 C1166 1.428 1_556 S
C1172 N1171 1.351 . S
C1172 C1173 1.434 . S
C1173 C1164 1.429 1_556 S
C1173 N1170 1.350 . S
C1173 C1172 1.434 . S
C1174 C1175 1.369 . S
C1174 C1176 1.419 . S
C1174 H1178 0.930 . S
C1175 C1174 1.369 . S
C1175 C1184 1.429 . S
C1176 C1174 1.419 . S
C1176 C1177 1.363 . S
C1176 H1179 0.929 . S
C1177 C1176 1.363 . S
C1177 C1183 1.428 . S
H1178 C1174 0.930 . S
H1179 C1176 0.929 . S
S1180 N1181 1.613 . S
S1180 N1182 1.610 . S
N1181 S1180 1.613 . S
N1181 C1184 1.350 . S
N1182 S1180 1.610 . S
N1182 C1183 1.351 . S
C1183 C1177 1.428 . S
C1183 N1182 1.351 . S
C1183 C1184 1.434 . S
C1184 C1175 1.429 . S
C1184 N1181 1.350 . S
C1184 C1183 1.434 . S
C1185 C1186 1.369 . S
C1185 C1187 1.419 . S
C1185 H1189 0.930 . S
C1186 C1185 1.369 . S
C1186 C1195 1.429 . S
C1187 C1185 1.419 . S
C1187 C1188 1.363 . S
C1187 H1190 0.929 . S
C1188 C1187 1.363 . S
C1188 C1194 1.428 . S
H1189 C1185 0.930 . S
H1190 C1187 0.929 . S
S1191 N1192 1.613 . S
S1191 N1193 1.610 . S
N1192 S1191 1.613 . S
N1192 C1195 1.350 . S
N1193 S1191 1.610 . S
N1193 C1194 1.351 . S
C1194 C1188 1.428 . S
C1194 N1193 1.351 . S
C1194 C1195 1.434 . S
C1195 C1186 1.429 . S
C1195 N1192 1.350 . S
C1195 C1194 1.434 . S
C1196 C1197 1.369 . S
C1196 C1198 1.419 . S
C1196 H1200 0.930 . S
C1197 C1196 1.369 . S
C1197 C1206 1.429 . S
C1198 C1196 1.419 . S
C1198 C1199 1.363 . S
C1198 H1201 0.929 . S
C1199 C1198 1.363 . S
C1199 C1205 1.428 . S
H1200 C1196 0.930 . S
H1201 C1198 0.929 . S
S1202 N1203 1.613 . S
S1202 N1204 1.610 . S
N1203 S1202 1.613 . S
N1203 C1206 1.350 . S
N1204 S1202 1.610 . S
N1204 C1205 1.351 . S
C1205 C1199 1.428 . S
C1205 N1204 1.351 . S
C1205 C1206 1.434 . S
C1206 C1197 1.429 . S
C1206 N1203 1.350 . S
C1206 C1205 1.434 . S
C1207 C1208 1.369 . S
C1207 C1209 1.419 . S
C1207 H1211 0.930 . S
C1208 C1207 1.369 . S
C1208 C1217 1.429 . S
C1209 C1207 1.419 . S
C1209 C1210 1.363 . S
C1209 H1212 0.929 . S
C1210 C1209 1.363 . S
C1210 C1216 1.428 . S
H1211 C1207 0.930 . S
H1212 C1209 0.929 . S
S1213 N1214 1.613 . S
S1213 N1215 1.610 . S
N1214 S1213 1.613 . S
N1214 C1217 1.350 . S
N1215 S1213 1.610 . S
N1215 C1216 1.351 . S
C1216 C1210 1.428 . S
C1216 N1215 1.351 . S
C1216 C1217 1.434 . S
C1217 C1208 1.429 . S
C1217 N1214 1.350 . S
C1217 C1216 1.434 . S
C1218 C1219 1.369 . S
C1218 C1220 1.419 . S
C1218 H1222 0.930 . S
C1219 C1218 1.369 . S
C1219 C1228 1.429 . S
C1220 C1218 1.419 . S
C1220 C1221 1.363 . S
C1220 H1223 0.929 . S
C1221 C1220 1.363 . S
C1221 C1227 1.428 . S
H1222 C1218 0.930 . S
H1223 C1220 0.929 . S
S1224 N1225 1.613 . S
S1224 N1226 1.610 . S
N1225 S1224 1.613 . S
N1225 C1228 1.350 . S
N1226 S1224 1.610 . S
N1226 C1227 1.351 . S
C1227 C1221 1.428 . S
C1227 N1226 1.351 . S
C1227 C1228 1.434 . S
C1228 C1219 1.429 . S
C1228 N1225 1.350 . S
C1228 C1227 1.434 . S
C1229 C1230 1.369 . S
C1229 C1231 1.419 . S
C1229 H1233 0.930 . S
C1230 C1229 1.369 . S
C1230 C1239 1.429 . S
C1231 C1229 1.419 . S
C1231 C1232 1.363 . S
C1231 H1234 0.929 . S
C1232 C1231 1.363 . S
C1232 C1238 1.428 . S
H1233 C1229 0.930 . S
H1234 C1231 0.929 . S
S1235 N1236 1.613 . S
S1235 N1237 1.610 . S
N1236 S1235 1.613 . S
N1236 C1239 1.350 . S
N1237 S1235 1.610 . S
N1237 C1238 1.351 . S
C1238 C1232 1.428 . S
C1238 N1237 1.351 . S
C1238 C1239 1.434 . S
C1239 C1230 1.429 . S
C1239 N1236 1.350 . S
C1239 C1238 1.434 . S
C1240 C1241 1.369 . S
C1240 C1242 1.419 . S
C1240 H1244 0.930 . S
C1241 C1240 1.369 . S
C1241 C1250 1.429 . S
C1242 C1240 1.419 . S
C1242 C1243 1.363 1_565 S
C1242 H1245 0.929 . S
C1243 C1242 1.363 1_545 S
C1243 C1249 1.428 . S
H1244 C1240 0.930 . S
H1245 C1242 0.929 . S
S1246 N1247 1.592 1_545 S
S1246 N1248 1.610 . S
N1247 S1246 1.592 1_565 S
N1247 C1250 1.353 . S
N1248 S1246 1.610 . S
N1248 C1249 1.351 . S
C1249 C1243 1.428 . S
C1249 N1248 1.351 . S
C1249 C1250 1.434 1_545 S
C1250 C1241 1.429 . S
C1250 N1247 1.353 . S
C1250 C1249 1.434 1_565 S
C1251 C1252 1.369 . S
C1251 C1253 1.419 . S
C1251 H1255 0.930 . S
C1252 C1251 1.369 . S
C1252 C1261 1.429 . S
C1253 C1251 1.419 . S
C1253 C1254 1.363 . S
C1253 H1256 0.929 . S
C1254 C1253 1.363 . S
C1254 C1260 1.428 . S
H1255 C1251 0.930 . S
H1256 C1253 0.929 . S
S1257 N1258 1.613 . S
S1257 N1259 1.610 . S
N1258 S1257 1.613 . S
N1258 C1261 1.350 . S
N1259 S1257 1.610 . S
N1259 C1260 1.351 . S
C1260 C1254 1.428 . S
C1260 N1259 1.351 . S
C1260 C1261 1.434 . S
C1261 C1252 1.429 . S
C1261 N1258 1.350 . S
C1261 C1260 1.434 . S
C1262 C1263 1.369 . S
C1262 C1264 1.419 . S
C1262 H1266 0.930 . S
C1263 C1262 1.369 . S
C1263 C1272 1.429 . S
C1264 C1262 1.419 . S
C1264 C1265 1.363 . S
C1264 H1267 0.929 . S
C1265 C1264 1.363 . S
C1265 C1271 1.428 . S
H1266 C1262 0.930 . S
H1267 C1264 0.929 . S
S1268 N1269 1.613 . S
S1268 N1270 1.610 . S
N1269 S1268 1.613 . S
N1269 C1272 1.350 . S
N1270 S1268 1.610 . S
N1270 C1271 1.351 . S
C1271 C1265 1.428 . S
C1271 N1270 1.351 . S
C1271 C1272 1.434 . S
C1272 C1263 1.429 . S
C1272 N1269 1.350 . S
C1272 C1271 1.434 . S
C1273 C1274 1.369 . S
C1273 C1275 1.419 . S
C1273 H1277 0.930 . S
C1274 C1273 1.369 . S
C1274 C1283 1.429 . S
C1275 C1273 1.419 . S
C1275 C1276 1.363 . S
C1275 H1278 0.929 . S
C1276 C1275 1.363 . S
C1276 C1282 1.428 . S
H1277 C1273 0.930 . S
H1278 C1275 0.929 . S
S1279 N1280 1.613 . S
S1279 N1281 1.610 . S
N1280 S1279 1.613 . S
N1280 C1283 1.350 . S
N1281 S1279 1.610 . S
N1281 C1282 1.351 . S
C1282 C1276 1.428 . S
C1282 N1281 1.351 . S
C1282 C1283 1.434 . S
C1283 C1274 1.429 . S
C1283 N1280 1.350 . S
C1283 C1282 1.434 . S
C1284 C1285 1.369 . S
C1284 C1286 1.419 . S
C1284 H1288 0.930 . S
C1285 C1284 1.369 . S
C1285 C1294 1.429 . S
C1286 C1284 1.419 . S
C1286 C1287 1.363 . S
C1286 H1289 0.929 . S
C1287 C1286 1.363 . S
C1287 C1293 1.428 . S
H1288 C1284 0.930 . S
H1289 C1286 0.929 . S
S1290 N1291 1.613 . S
S1290 N1292 1.610 . S
N1291 S1290 1.613 . S
N1291 C1294 1.350 . S
N1292 S1290 1.610 . S
N1292 C1293 1.351 . S
C1293 C1287 1.428 . S
C1293 N1292 1.351 . S
C1293 C1294 1.434 . S
C1294 C1285 1.429 . S
C1294 N1291 1.350 . S
C1294 C1293 1.434 . S
C1295 C1296 1.369 . S
C1295 C1297 1.419 . S
C1295 H1299 0.930 . S
C1296 C1295 1.369 . S
C1296 C1305 1.429 . S
C1297 C1295 1.419 . S
C1297 C1298 1.363 . S
C1297 H1300 0.929 . S
C1298 C1297 1.363 . S
C1298 C1304 1.428 . S
H1299 C1295 0.930 . S
H1300 C1297 0.929 . S
S1301 N1302 1.613 . S
S1301 N1303 1.610 . S
N1302 S1301 1.613 . S
N1302 C1305 1.350 . S
N1303 S1301 1.610 . S
N1303 C1304 1.351 . S
C1304 C1298 1.428 . S
C1304 N1303 1.351 . S
C1304 C1305 1.434 . S
C1305 C1296 1.429 . S
C1305 N1302 1.350 . S
C1305 C1304 1.434 . S
C1306 C1307 1.369 . S
C1306 C1308 1.419 . S
C1306 H1310 0.930 . S
C1307 C1306 1.369 . S
C1307 C1316 1.429 . S
C1308 C1306 1.419 . S
C1308 C1309 1.363 1_565 S
C1308 H1311 0.929 1_565 S
C1309 C1308 1.363 1_545 S
C1309 C1315 1.428 1_545 S
H1310 C1306 0.930 . S
H1311 C1308 0.929 1_545 S
S1312 N1313 1.613 1_554 S
S1312 N1314 1.610 . S
N1313 S1312 1.613 1_556 S
N1313 C1316 1.350 . S
N1314 S1312 1.610 . S
N1314 C1315 1.351 1_554 S
C1315 C1309 1.428 1_565 S
C1315 N1314 1.351 1_556 S
C1315 C1316 1.434 . S
C1316 C1307 1.429 . S
C1316 N1313 1.350 . S
C1316 C1315 1.434 . S
C1317 C1318 1.369 . S
C1317 C1319 1.419 . S
C1317 H1321 0.930 . S
C1318 C1317 1.369 . S
C1318 C1327 1.429 . S
C1319 C1317 1.419 . S
C1319 C1320 1.363 . S
C1319 H1322 0.929 . S
C1320 C1319 1.363 . S
C1320 C1326 1.428 . S
H1321 C1317 0.930 . S
H1322 C1319 0.929 . S
S1323 N1324 1.613 . S
S1323 N1325 1.610 . S
N1324 S1323 1.613 . S
N1324 C1327 1.350 . S
N1325 S1323 1.610 . S
N1325 C1326 1.351 . S
C1326 C1320 1.428 . S
C1326 N1325 1.351 . S
C1326 C1327 1.434 . S
C1327 C1318 1.429 . S
C1327 N1324 1.350 . S
C1327 C1326 1.434 . S
C1328 C1329 1.369 . S
C1328 C1330 1.419 . S
C1328 H1332 0.930 . S
C1329 C1328 1.369 . S
C1329 C1338 1.429 . S
C1330 C1328 1.419 . S
C1330 C1331 1.363 . S
C1330 H1333 0.929 . S
C1331 C1330 1.363 . S
C1331 C1337 1.428 . S
H1332 C1328 0.930 . S
H1333 C1330 0.929 . S
S1334 N1335 1.613 . S
S1334 N1336 1.610 . S
N1335 S1334 1.613 . S
N1335 C1338 1.350 . S
N1336 S1334 1.610 . S
N1336 C1337 1.351 . S
C1337 C1331 1.428 . S
C1337 N1336 1.351 . S
C1337 C1338 1.434 . S
C1338 C1329 1.429 . S
C1338 N1335 1.350 . S
C1338 C1337 1.434 . S
C1339 C1340 1.369 . S
C1339 C1341 1.419 . S
C1339 H1343 0.930 . S
C1340 C1339 1.369 . S
C1340 C1349 1.429 . S
C1341 C1339 1.419 . S
C1341 C1342 1.363 . S
C1341 H1344 0.929 . S
C1342 C1341 1.363 . S
C1342 C1348 1.428 . S
H1343 C1339 0.930 . S
H1344 C1341 0.929 . S
S1345 N1346 1.613 . S
S1345 N1347 1.610 . S
N1346 S1345 1.613 . S
N1346 C1349 1.350 . S
N1347 S1345 1.610 . S
N1347 C1348 1.351 . S
C1348 C1342 1.428 . S
C1348 N1347 1.351 . S
C1348 C1349 1.434 . S
C1349 C1340 1.429 . S
C1349 N1346 1.350 . S
C1349 C1348 1.434 . S
C1350 C1351 1.369 . S
C1350 C1352 1.419 . S
C1350 H1354 0.930 . S
C1351 C1350 1.369 . S
C1351 C1360 1.429 . S
C1352 C1350 1.419 . S
C1352 C1353 1.363 . S
C1352 H1355 0.929 . S
C1353 C1352 1.363 . S
C1353 C1359 1.428 . S
H1354 C1350 0.930 . S
H1355 C1352 0.929 . S
S1356 N1357 1.613 . S
S1356 N1358 1.610 . S
N1357 S1356 1.613 . S
N1357 C1360 1.350 . S
N1358 S1356 1.610 . S
N1358 C1359 1.351 . S
C1359 C1353 1.428 . S
C1359 N1358 1.351 . S
C1359 C1360 1.434 . S
C1360 C1351 1.429 . S
C1360 N1357 1.350 . S
C1360 C1359 1.434 . S
C1361 C1362 1.369 . S
C1361 C1363 1.419 . S
C1361 H1365 0.930 . S
C1362 C1361 1.369 . S
C1362 C1371 1.429 . S
C1363 C1361 1.419 . S
C1363 C1364 1.363 . S
C1363 H1366 0.929 . S
C1364 C1363 1.363 . S
C1364 C1370 1.428 . S
H1365 C1361 0.930 . S
H1366 C1363 0.929 . S
S1367 N1368 1.613 . S
S1367 N1369 1.610 . S
N1368 S1367 1.613 . S
N1368 C1371 1.350 . S
N1369 S1367 1.610 . S
N1369 C1370 1.351 . S
C1370 C1364 1.428 . S
C1370 N1369 1.351 . S
C1370 C1371 1.434 . S
C1371 C1362 1.429 . S
C1371 N1368 1.350 . S
C1371 C1370 1.434 . S
C1372 C1373 1.369 . S
C1372 C1374 1.419 . S
C1372 H1376 0.930 . S
C1373 C1372 1.369 . S
C1373 C1382 1.429 . S
C1374 C1372 1.419 . S
C1374 C1375 1.363 . S
C1374 H1377 0.929 . S
C1375 C1374 1.363 . S
C1375 C1381 1.428 . S
H1376 C1372 0.930 . S
H1377 C1374 0.929 . S
S1378 N1379 1.613 . S
S1378 N1380 1.610 . S
N1379 S1378 1.613 . S
N1379 C1382 1.350 . S
N1380 S1378 1.610 . S
N1380 C1381 1.351 . S
C1381 C1375 1.428 . S
C1381 N1380 1.351 . S
C1381 C1382 1.434 . S
C1382 C1373 1.429 . S
C1382 N1379 1.350 . S
C1382 C1381 1.434 . S
C1383 C1384 1.369 . S
C1383 C1385 1.419 . S
C1383 H1387 0.930 . S
C1384 C1383 1.369 . S
C1384 C1393 1.429 . S
C1385 C1383 1.419 . S
C1385 C1386 1.363 . S
C1385 H1388 0.929 . S
C1386 C1385 1.363 . S
C1386 C1392 1.428 . S
H1387 C1383 0.930 . S
H1388 C1385 0.929 . S
S1389 N1390 1.613 . S
S1389 N1391 1.610 . S
N1390 S1389 1.613 . S
N1390 C1393 1.350 . S
N1391 S1389 1.610 . S
N1391 C1392 1.351 . S
C1392 C1386 1.428 . S
C1392 N1391 1.351 . S
C1392 C1393 1.434 . S
C1393 C1384 1.429 . S
C1393 N1390 1.350 . S
C1393 C1392 1.434 . S
C1394 C1395 1.369 . S
C1394 C1396 1.419 . S
C1394 H1398 0.930 . S
C1395 C1394 1.369 . S
C1395 C1404 1.429 . S
C1396 C1394 1.419 . S
C1396 C1397 1.363 . S
C1396 H1399 0.929 . S
C1397 C1396 1.363 . S
C1397 C1403 1.428 . S
H1398 C1394 0.930 . S
H1399 C1396 0.929 . S
S1400 N1401 1.613 . S
S1400 N1402 1.610 . S
N1401 S1400 1.613 . S
N1401 C1404 1.350 . S
N1402 S1400 1.610 . S
N1402 C1403 1.351 . S
C1403 C1397 1.428 . S
C1403 N1402 1.351 . S
C1403 C1404 1.434 . S
C1404 C1395 1.429 . S
C1404 N1401 1.350 . S
C1404 C1403 1.434 . S
C1405 C1406 1.369 . S
C1405 C1407 1.419 . S
C1405 H1409 0.930 . S
C1406 C1405 1.369 . S
C1406 C1415 1.429 . S
C1407 C1405 1.419 . S
C1407 C1408 1.363 . S
C1407 H1410 0.929 . S
C1408 C1407 1.363 . S
C1408 C1414 1.428 . S
H1409 C1405 0.930 . S
H1410 C1407 0.929 . S
S1411 N1412 1.613 . S
S1411 N1413 1.610 . S
N1412 S1411 1.613 . S
N1412 C1415 1.350 . S
N1413 S1411 1.610 . S
N1413 C1414 1.351 . S
C1414 C1408 1.428 . S
C1414 N1413 1.351 . S
C1414 C1415 1.434 . S
C1415 C1406 1.429 . S
C1415 N1412 1.350 . S
C1415 C1414 1.434 . S
C1416 C1417 1.369 . S
C1416 C1418 1.419 . S
C1416 H1420 0.930 1_556 S
C1417 C1416 1.369 . S
C1417 C1426 1.429 . S
C1418 C1416 1.419 . S
C1418 C1419 1.363 . S
C1418 H1421 0.929 . S
C1419 C1418 1.363 . S
C1419 C1425 1.428 . S
H1420 C1416 0.930 1_554 S
H1421 C1418 0.929 . S
S1422 N1423 1.613 . S
S1422 N1424 1.610 . S
N1423 S1422 1.613 . S
N1423 C1426 1.350 . S
N1424 S1422 1.610 . S
N1424 C1425 1.351 . S
C1425 C1419 1.428 . S
C1425 N1424 1.351 . S
C1425 C1426 1.434 . S
C1426 C1417 1.429 . S
C1426 N1423 1.350 . S
C1426 C1425 1.434 . S
C1427 C1428 1.369 . S
C1427 C1429 1.419 . S
C1427 H1431 0.930 1_554 S
C1428 C1427 1.369 . S
C1428 C1437 1.429 . S
C1429 C1427 1.419 . S
C1429 C1430 1.363 . S
C1429 H1432 0.929 1_554 S
C1430 C1429 1.363 . S
C1430 C1436 1.428 . S
H1431 C1427 0.930 1_556 S
H1432 C1429 0.929 1_556 S
S1433 N1434 1.613 . S
S1433 N1435 1.610 . S
N1434 S1433 1.613 . S
N1434 C1437 1.350 . S
N1435 S1433 1.610 . S
N1435 C1436 1.351 . S
C1436 C1430 1.428 . S
C1436 N1435 1.351 . S
C1436 C1437 1.434 . S
C1437 C1428 1.429 . S
C1437 N1434 1.350 . S
C1437 C1436 1.434 . S
C1438 C1439 1.369 . S
C1438 C1440 1.419 . S
C1438 H1442 0.930 . S
C1439 C1438 1.369 . S
C1439 C1448 1.429 . S
C1440 C1438 1.419 . S
C1440 C1441 1.363 . S
C1440 H1443 0.929 . S
C1441 C1440 1.363 . S
C1441 C1447 1.428 . S
H1442 C1438 0.930 . S
H1443 C1440 0.929 . S
S1444 N1445 1.613 . S
S1444 N1446 1.610 . S
N1445 S1444 1.613 . S
N1445 C1448 1.350 . S
N1446 S1444 1.610 . S
N1446 C1447 1.351 . S
C1447 C1441 1.428 . S
C1447 N1446 1.351 . S
C1447 C1448 1.434 . S
C1448 C1439 1.429 . S
C1448 N1445 1.350 . S
C1448 C1447 1.434 . S
C1449 C1450 1.369 . S
C1449 C1451 1.419 . S
C1449 H1453 0.930 . S
C1450 C1449 1.369 . S
C1450 C1459 1.429 . S
C1451 C1449 1.419 . S
C1451 C1452 1.363 . S
C1451 H1454 0.929 . S
C1452 C1451 1.363 . S
C1452 C1458 1.428 . S
H1453 C1449 0.930 . S
H1454 C1451 0.929 . S
S1455 N1456 1.613 . S
S1455 N1457 1.610 . S
N1456 S1455 1.613 . S
N1456 C1459 1.350 . S
N1457 S1455 1.610 . S
N1457 C1458 1.351 . S
C1458 C1452 1.428 . S
C1458 N1457 1.351 . S
C1458 C1459 1.434 . S
C1459 C1450 1.429 . S
C1459 N1456 1.350 . S
C1459 C1458 1.434 . S
C1460 C1461 1.369 . S
C1460 C1462 1.419 . S
C1460 H1464 0.930 . S
C1461 C1460 1.369 . S
C1461 C1470 1.429 . S
C1462 C1460 1.419 . S
C1462 C1463 1.363 . S
C1462 H1465 0.929 . S
C1463 C1462 1.363 . S
C1463 C1469 1.428 . S
H1464 C1460 0.930 . S
H1465 C1462 0.929 . S
S1466 N1467 1.613 . S
S1466 N1468 1.610 . S
N1467 S1466 1.613 . S
N1467 C1470 1.350 . S
N1468 S1466 1.610 . S
N1468 C1469 1.351 . S
C1469 C1463 1.428 . S
C1469 N1468 1.351 . S
C1469 C1470 1.434 . S
C1470 C1461 1.429 . S
C1470 N1467 1.350 . S
C1470 C1469 1.434 . S
C1471 C1472 1.369 . S
C1471 C1473 1.419 . S
C1471 H1475 0.930 . S
C1472 C1471 1.369 . S
C1472 C1481 1.429 1_565 S
C1473 C1471 1.419 . S
C1473 C1474 1.363 1_565 S
C1473 H1476 0.929 . S
C1474 C1473 1.363 1_545 S
C1474 C1480 1.428 . S
H1475 C1471 0.930 . S
H1476 C1473 0.929 . S
S1477 N1478 1.613 . S
S1477 N1479 1.610 . S
N1478 S1477 1.613 . S
N1478 C1481 1.350 . S
N1479 S1477 1.610 . S
N1479 C1480 1.351 . S
C1480 C1474 1.428 . S
C1480 N1479 1.351 . S
C1480 C1481 1.434 . S
C1481 C1472 1.429 1_545 S
C1481 N1478 1.350 . S
C1481 C1480 1.434 . S
C1482 C1483 1.369 . S
C1482 C1484 1.419 . S
C1482 H1486 0.930 . S
C1483 C1482 1.369 . S
C1483 C1492 1.429 . S
C1484 C1482 1.419 . S
C1484 C1485 1.363 . S
C1484 H1487 0.929 . S
C1485 C1484 1.363 . S
C1485 C1491 1.428 . S
H1486 C1482 0.930 . S
H1487 C1484 0.929 . S
S1488 N1489 1.613 . S
S1488 N1490 1.610 . S
N1489 S1488 1.613 . S
N1489 C1492 1.350 . S
N1490 S1488 1.610 . S
N1490 C1491 1.351 . S
C1491 C1485 1.428 . S
C1491 N1490 1.351 . S
C1491 C1492 1.434 . S
C1492 C1483 1.429 . S
C1492 N1489 1.350 . S
C1492 C1491 1.434 . S
C1493 C1494 1.369 . S
C1493 C1495 1.419 . S
C1493 H1497 0.930 . S
C1494 C1493 1.369 . S
C1494 C1503 1.429 . S
C1495 C1493 1.419 . S
C1495 C1496 1.363 . S
C1495 H1498 0.929 . S
C1496 C1495 1.363 . S
C1496 C1502 1.428 . S
H1497 C1493 0.930 . S
H1498 C1495 0.929 . S
S1499 N1500 1.613 . S
S1499 N1501 1.610 . S
N1500 S1499 1.613 . S
N1500 C1503 1.350 . S
N1501 S1499 1.610 . S
N1501 C1502 1.351 . S
C1502 C1496 1.428 . S
C1502 N1501 1.351 . S
C1502 C1503 1.434 . S
C1503 C1494 1.429 . S
C1503 N1500 1.350 . S
C1503 C1502 1.434 . S
C1504 C1505 1.369 . S
C1504 C1506 1.419 . S
C1504 H1508 0.930 . S
C1505 C1504 1.369 . S
C1505 C1514 1.429 . S
C1506 C1504 1.419 . S
C1506 C1507 1.363 . S
C1506 H1509 0.929 . S
C1507 C1506 1.363 . S
C1507 C1513 1.428 . S
H1508 C1504 0.930 . S
H1509 C1506 0.929 . S
S1510 N1511 1.613 . S
S1510 N1512 1.610 . S
N1511 S1510 1.613 . S
N1511 C1514 1.350 . S
N1512 S1510 1.610 . S
N1512 C1513 1.351 . S
C1513 C1507 1.428 . S
C1513 N1512 1.351 . S
C1513 C1514 1.434 . S
C1514 C1505 1.429 . S
C1514 N1511 1.350 . S
C1514 C1513 1.434 . S
C1515 C1516 1.369 . S
C1515 C1517 1.419 . S
C1515 H1519 0.930 . S
C1516 C1515 1.369 . S
C1516 C1525 1.429 . S
C1517 C1515 1.419 . S
C1517 C1518 1.363 . S
C1517 H1520 0.929 . S
C1518 C1517 1.363 . S
C1518 C1524 1.428 . S
H1519 C1515 0.930 . S
H1520 C1517 0.929 . S
S1521 N1522 1.613 . S
S1521 N1523 1.610 . S
N1522 S1521 1.613 . S
N1522 C1525 1.350 . S
N1523 S1521 1.610 . S
N1523 C1524 1.351 . S
C1524 C1518 1.428 . S
C1524 N1523 1.351 . S
C1524 C1525 1.434 . S
C1525 C1516 1.429 . S
C1525 N1522 1.350 . S
C1525 C1524 1.434 . S
C1526 C1527 1.369 . S
C1526 C1528 1.419 . S
C1526 H1530 0.930 . S
C1527 C1526 1.369 . S
C1527 C1536 1.429 . S
C1528 C1526 1.419 . S
C1528 C1529 1.363 . S
C1528 H1531 0.929 . S
C1529 C1528 1.363 . S
C1529 C1535 1.428 . S
H1530 C1526 0.930 . S
H1531 C1528 0.929 . S
S1532 N1533 1.613 . S
S1532 N1534 1.610 . S
N1533 S1532 1.613 . S
N1533 C1536 1.350 1_655 S
N1534 S1532 1.610 . S
N1534 C1535 1.351 1_655 S
C1535 C1529 1.428 . S
C1535 N1534 1.351 1_455 S
C1535 C1536 1.434 . S
C1536 C1527 1.429 . S
C1536 N1533 1.350 1_455 S
C1536 C1535 1.434 . S
C1537 C1538 1.369 . S
C1537 C1539 1.419 1_455 S
C1537 H1541 0.930 . S
C1538 C1537 1.369 . S
C1538 C1547 1.429 . S
C1539 C1537 1.419 1_655 S
C1539 C1540 1.363 . S
C1539 H1542 0.929 . S
C1540 C1539 1.363 . S
C1540 C1546 1.428 . S
H1541 C1537 0.930 . S
H1542 C1539 0.929 . S
S1543 N1544 1.613 . S
S1543 N1545 1.610 1_455 S
N1544 S1543 1.613 . S
N1544 C1547 1.350 . S
N1545 S1543 1.610 1_655 S
N1545 C1546 1.351 . S
C1546 C1540 1.428 . S
C1546 N1545 1.351 . S
C1546 C1547 1.434 1_655 S
C1547 C1538 1.429 . S
C1547 N1544 1.350 . S
C1547 C1546 1.434 1_455 S
C1548 C1549 1.369 . S
C1548 C1550 1.419 . S
C1548 H1552 0.930 . S
C1549 C1548 1.369 . S
C1549 C1558 1.429 . S
C1550 C1548 1.419 . S
C1550 C1551 1.363 . S
C1550 H1553 0.929 . S
C1551 C1550 1.363 . S
C1551 C1557 1.428 . S
H1552 C1548 0.930 . S
H1553 C1550 0.929 . S
S1554 N1555 1.613 . S
S1554 N1556 1.610 . S
N1555 S1554 1.613 . S
N1555 C1558 1.350 . S
N1556 S1554 1.610 . S
N1556 C1557 1.351 . S
C1557 C1551 1.428 . S
C1557 N1556 1.351 . S
C1557 C1558 1.434 . S
C1558 C1549 1.429 . S
C1558 N1555 1.350 . S
C1558 C1557 1.434 . S
C1559 C1560 1.369 . S
C1559 C1561 1.419 . S
C1559 H1563 0.930 . S
C1560 C1559 1.369 . S
C1560 C1569 1.429 . S
C1561 C1559 1.419 . S
C1561 C1562 1.363 . S
C1561 H1564 0.929 . S
C1562 C1561 1.363 . S
C1562 C1568 1.428 . S
H1563 C1559 0.930 . S
H1564 C1561 0.929 . S
S1565 N1566 1.613 . S
S1565 N1567 1.610 . S
N1566 S1565 1.613 . S
N1566 C1569 1.350 . S
N1567 S1565 1.610 . S
N1567 C1568 1.351 . S
C1568 C1562 1.428 . S
C1568 N1567 1.351 . S
C1568 C1569 1.434 . S
C1569 C1560 1.429 . S
C1569 N1566 1.350 . S
C1569 C1568 1.434 . S
C1570 C1571 1.369 . S
C1570 C1572 1.419 . S
C1570 H1574 0.930 . S
C1571 C1570 1.369 . S
C1571 C1580 1.429 . S
C1572 C1570 1.419 . S
C1572 C1573 1.363 . S
C1572 H1575 0.929 . S
C1573 C1572 1.363 . S
C1573 C1579 1.428 . S
H1574 C1570 0.930 . S
H1575 C1572 0.929 . S
S1576 N1577 1.613 . S
S1576 N1578 1.610 . S
N1577 S1576 1.613 . S
N1577 C1580 1.350 . S
N1578 S1576 1.610 . S
N1578 C1579 1.351 . S
C1579 C1573 1.428 . S
C1579 N1578 1.351 . S
C1579 C1580 1.434 . S
C1580 C1571 1.429 . S
C1580 N1577 1.350 . S
C1580 C1579 1.434 . S
C1581 C1582 1.369 . S
C1581 C1583 1.419 . S
C1581 H1585 0.930 . S
C1582 C1581 1.369 . S
C1582 C1591 1.429 . S
C1583 C1581 1.419 . S
C1583 C1584 1.363 . S
C1583 H1586 0.929 . S
C1584 C1583 1.363 . S
C1584 C1590 1.428 . S
H1585 C1581 0.930 . S
H1586 C1583 0.929 . S
S1587 N1588 1.613 . S
S1587 N1589 1.610 . S
N1588 S1587 1.613 . S
N1588 C1591 1.350 . S
N1589 S1587 1.610 . S
N1589 C1590 1.351 . S
C1590 C1584 1.428 . S
C1590 N1589 1.351 . S
C1590 C1591 1.434 . S
C1591 C1582 1.429 . S
C1591 N1588 1.350 . S
C1591 C1590 1.434 . S
C1592 C1593 1.369 . S
C1592 C1594 1.419 . S
C1592 H1596 0.930 . S
C1593 C1592 1.369 . S
C1593 C1602 1.429 . S
C1594 C1592 1.419 . S
C1594 C1595 1.363 . S
C1594 H1597 0.929 . S
C1595 C1594 1.363 . S
C1595 C1601 1.428 . S
H1596 C1592 0.930 . S
H1597 C1594 0.929 . S
S1598 N1599 1.613 . S
S1598 N1600 1.610 . S
N1599 S1598 1.613 . S
N1599 C1602 1.350 . S
N1600 S1598 1.610 . S
N1600 C1601 1.351 . S
C1601 C1595 1.428 . S
C1601 N1600 1.351 . S
C1601 C1602 1.434 . S
C1602 C1593 1.429 . S
C1602 N1599 1.350 . S
C1602 C1601 1.434 . S
C1603 C1604 1.369 . S
C1603 C1605 1.419 . S
C1603 H1607 0.930 . S
C1604 C1603 1.369 . S
C1604 C1613 1.429 . S
C1605 C1603 1.419 . S
C1605 C1606 1.363 . S
C1605 H1608 0.929 . S
C1606 C1605 1.363 . S
C1606 C1612 1.428 . S
H1607 C1603 0.930 . S
H1608 C1605 0.929 . S
S1609 N1610 1.613 . S
S1609 N1611 1.610 . S
N1610 S1609 1.613 . S
N1610 C1613 1.350 . S
N1611 S1609 1.610 . S
N1611 C1612 1.351 . S
C1612 C1606 1.428 . S
C1612 N1611 1.351 . S
C1612 C1613 1.434 . S
C1613 C1604 1.429 . S
C1613 N1610 1.350 . S
C1613 C1612 1.434 . S
C1614 C1615 1.369 . S
C1614 C1616 1.419 . S
C1614 H1618 0.930 . S
C1615 C1614 1.369 . S
C1615 C1624 1.429 . S
C1616 C1614 1.419 . S
C1616 C1617 1.363 . S
C1616 H1619 0.929 . S
C1617 C1616 1.363 . S
C1617 C1623 1.428 . S
H1618 C1614 0.930 . S
H1619 C1616 0.929 . S
S1620 N1621 1.613 . S
S1620 N1622 1.610 . S
N1621 S1620 1.613 . S
N1621 C1624 1.350 . S
N1622 S1620 1.610 . S
N1622 C1623 1.351 . S
C1623 C1617 1.428 . S
C1623 N1622 1.351 . S
C1623 C1624 1.434 . S
C1624 C1615 1.429 . S
C1624 N1621 1.350 . S
C1624 C1623 1.434 . S
C1625 C1626 1.369 . S
C1625 C1627 1.419 . S
C1625 H1629 0.930 . S
C1626 C1625 1.369 . S
C1626 C1635 1.429 . S
C1627 C1625 1.419 . S
C1627 C1628 1.363 . S
C1627 H1630 0.929 . S
C1628 C1627 1.363 . S
C1628 C1634 1.428 . S
H1629 C1625 0.930 . S
H1630 C1627 0.929 . S
S1631 N1632 1.613 . S
S1631 N1633 1.610 . S
N1632 S1631 1.613 . S
N1632 C1635 1.350 . S
N1633 S1631 1.610 . S
N1633 C1634 1.351 . S
C1634 C1628 1.428 . S
C1634 N1633 1.351 . S
C1634 C1635 1.434 . S
C1635 C1626 1.429 . S
C1635 N1632 1.350 . S
C1635 C1634 1.434 . S
C1636 C1637 1.369 . S
C1636 C1638 1.419 . S
C1636 H1640 0.930 . S
C1637 C1636 1.369 . S
C1637 C1646 1.429 . S
C1638 C1636 1.419 . S
C1638 C1639 1.363 . S
C1638 H1641 0.929 . S
C1639 C1638 1.363 . S
C1639 C1645 1.428 . S
H1640 C1636 0.930 . S
H1641 C1638 0.929 . S
S1642 N1643 1.613 . S
S1642 N1644 1.610 . S
N1643 S1642 1.613 . S
N1643 C1646 1.350 . S
N1644 S1642 1.610 . S
N1644 C1645 1.351 . S
C1645 C1639 1.428 . S
C1645 N1644 1.351 . S
C1645 C1646 1.434 . S
C1646 C1637 1.429 . S
C1646 N1643 1.350 . S
C1646 C1645 1.434 . S
C1647 C1648 1.369 . S
C1647 C1649 1.419 . S
C1647 H1651 0.930 . S
C1648 C1647 1.369 . S
C1648 C1657 1.429 . S
C1649 C1647 1.419 . S
C1649 C1650 1.363 . S
C1649 H1652 0.929 . S
C1650 C1649 1.363 . S
C1650 C1656 1.428 . S
H1651 C1647 0.930 . S
H1652 C1649 0.929 . S
S1653 N1654 1.613 . S
S1653 N1655 1.610 . S
N1654 S1653 1.613 . S
N1654 C1657 1.350 . S
N1655 S1653 1.610 . S
N1655 C1656 1.351 . S
C1656 C1650 1.428 . S
C1656 N1655 1.351 . S
C1656 C1657 1.434 . S
C1657 C1648 1.429 . S
C1657 N1654 1.350 . S
C1657 C1656 1.434 . S
C1658 C1659 1.369 . S
C1658 C1660 1.419 . S
C1658 H1662 0.930 . S
C1659 C1658 1.369 . S
C1659 C1668 1.429 . S
C1660 C1658 1.419 . S
C1660 C1661 1.363 . S
C1660 H1663 0.929 . S
C1661 C1660 1.363 . S
C1661 C1667 1.428 . S
H1662 C1658 0.930 . S
H1663 C1660 0.929 . S
S1664 N1665 1.613 . S
S1664 N1666 1.610 . S
N1665 S1664 1.613 . S
N1665 C1668 1.350 . S
N1666 S1664 1.610 . S
N1666 C1667 1.351 . S
C1667 C1661 1.428 . S
C1667 N1666 1.351 . S
C1667 C1668 1.434 . S
C1668 C1659 1.429 . S
C1668 N1665 1.350 . S
C1668 C1667 1.434 . S
C1669 C1670 1.369 . S
C1669 C1671 1.419 . S
C1669 H1673 0.930 . S
C1670 C1669 1.369 . S
C1670 C1679 1.429 . S
C1671 C1669 1.419 . S
C1671 C1672 1.363 . S
C1671 H1674 0.929 . S
C1672 C1671 1.363 . S
C1672 C1678 1.428 . S
H1673 C1669 0.930 . S
H1674 C1671 0.929 . S
S1675 N1676 1.613 . S
S1675 N1677 1.610 . S
N1676 S1675 1.613 . S
N1676 C1679 1.350 . S
N1677 S1675 1.610 . S
N1677 C1678 1.351 . S
C1678 C1672 1.428 . S
C1678 N1677 1.351 . S
C1678 C1679 1.434 . S
C1679 C1670 1.429 . S
C1679 N1676 1.350 . S
C1679 C1678 1.434 . S
C1680 C1681 1.369 . S
C1680 C1682 1.419 . S
C1680 H1684 0.930 . S
C1681 C1680 1.369 . S
C1681 C1690 1.429 . S
C1682 C1680 1.419 . S
C1682 C1683 1.363 . S
C1682 H1685 0.929 . S
C1683 C1682 1.363 . S
C1683 C1689 1.428 . S
H1684 C1680 0.930 . S
H1685 C1682 0.929 . S
S1686 N1687 1.613 . S
S1686 N1688 1.610 . S
N1687 S1686 1.613 . S
N1687 C1690 1.350 . S
N1688 S1686 1.610 . S
N1688 C1689 1.351 . S
C1689 C1683 1.428 . S
C1689 N1688 1.351 . S
C1689 C1690 1.434 . S
C1690 C1681 1.429 . S
C1690 N1687 1.350 . S
C1690 C1689 1.434 . S
C1691 C1692 1.369 . S
C1691 C1693 1.419 . S
C1691 H1695 0.930 . S
C1692 C1691 1.369 . S
C1692 C1701 1.429 . S
C1693 C1691 1.419 . S
C1693 C1694 1.363 . S
C1693 H1696 0.929 . S
C1694 C1693 1.363 . S
C1694 C1700 1.428 . S
H1695 C1691 0.930 . S
H1696 C1693 0.929 . S
S1697 N1698 1.613 . S
S1697 N1699 1.610 . S
N1698 S1697 1.613 . S
N1698 C1701 1.350 . S
N1699 S1697 1.610 . S
N1699 C1700 1.351 . S
C1700 C1694 1.428 . S
C1700 N1699 1.351 . S
C1700 C1701 1.434 . S
C1701 C1692 1.429 . S
C1701 N1698 1.350 . S
C1701 C1700 1.434 . S
C1702 C1703 1.369 . S
C1702 C1704 1.419 . S
C1702 H1706 0.930 . S
C1703 C1702 1.369 . S
C1703 C1712 1.429 . S
C1704 C1702 1.419 . S
C1704 C1705 1.363 . S
C1704 H1707 0.929 . S
C1705 C1704 1.363 . S
C1705 C1711 1.428 . S
H1706 C1702 0.930 . S
H1707 C1704 0.929 . S
S1708 N1709 1.613 . S
S1708 N1710 1.610 . S
N1709 S1708 1.613 . S
N1709 C1712 1.350 . S
N1710 S1708 1.610 . S
N1710 C1711 1.351 . S
C1711 C1705 1.428 . S
C1711 N1710 1.351 . S
C1711 C1712 1.434 . S
C1712 C1703 1.429 . S
C1712 N1709 1.350 . S
C1712 C1711 1.434 . S
C1713 C1714 1.369 . S
C1713 C1715 1.419 . S
C1713 H1717 0.930 . S
C1714 C1713 1.369 . S
C1714 C1723 1.429 . S
C1715 C1713 1.419 . S
C1715 C1716 1.363 . S
C1715 H1718 0.929 . S
C1716 C1715 1.363 . S
C1716 C1722 1.428 . S
H1717 C1713 0.930 . S
H1718 C1715 0.929 . S
S1719 N1720 1.613 . S
S1719 N1721 1.610 . S
N1720 S1719 1.613 . S
N1720 C1723 1.350 . S
N1721 S1719 1.610 . S
N1721 C1722 1.351 . S
C1722 C1716 1.428 . S
C1722 N1721 1.351 . S
C1722 C1723 1.434 . S
C1723 C1714 1.429 . S
C1723 N1720 1.350 . S
C1723 C1722 1.434 . S
C1724 C1725 1.369 . S
C1724 C1726 1.419 . S
C1724 H1728 0.930 . S
C1725 C1724 1.369 . S
C1725 C1734 1.429 . S
C1726 C1724 1.419 . S
C1726 C1727 1.363 . S
C1726 H1729 0.929 . S
C1727 C1726 1.363 . S
C1727 C1733 1.428 . S
H1728 C1724 0.930 . S
H1729 C1726 0.929 . S
S1730 N1731 1.613 . S
S1730 N1732 1.610 . S
N1731 S1730 1.613 . S
N1731 C1734 1.350 . S
N1732 S1730 1.610 . S
N1732 C1733 1.351 . S
C1733 C1727 1.428 . S
C1733 N1732 1.351 . S
C1733 C1734 1.434 . S
C1734 C1725 1.429 . S
C1734 N1731 1.350 . S
C1734 C1733 1.434 . S
C1735 C1736 1.369 . S
C1735 C1737 1.419 . S
C1735 H1739 0.930 . S
C1736 C1735 1.369 . S
C1736 C1745 1.429 . S
C1737 C1735 1.419 . S
C1737 C1738 1.363 . S
C1737 H1740 0.929 . S
C1738 C1737 1.363 . S
C1738 C1744 1.428 . S
H1739 C1735 0.930 . S
H1740 C1737 0.929 . S
S1741 N1742 1.613 . S
S1741 N1743 1.610 . S
N1742 S1741 1.613 . S
N1742 C1745 1.350 . S
N1743 S1741 1.610 . S
N1743 C1744 1.351 . S
C1744 C1738 1.428 . S
C1744 N1743 1.351 . S
C1744 C1745 1.434 . S
C1745 C1736 1.429 . S
C1745 N1742 1.350 . S
C1745 C1744 1.434 . S
C1746 C1747 1.369 . S
C1746 C1748 1.419 . S
C1746 H1750 0.930 . S
C1747 C1746 1.369 . S
C1747 C1756 1.429 . S
C1748 C1746 1.419 . S
C1748 C1749 1.363 . S
C1748 H1751 0.929 . S
C1749 C1748 1.363 . S
C1749 C1755 1.428 . S
H1750 C1746 0.930 . S
H1751 C1748 0.929 . S
S1752 N1753 1.613 . S
S1752 N1754 1.610 . S
N1753 S1752 1.613 . S
N1753 C1756 1.350 . S
N1754 S1752 1.610 . S
N1754 C1755 1.351 . S
C1755 C1749 1.428 . S
C1755 N1754 1.351 . S
C1755 C1756 1.434 . S
C1756 C1747 1.429 . S
C1756 N1753 1.350 . S
C1756 C1755 1.434 . S
C1757 C1758 1.369 . S
C1757 C1759 1.419 . S
C1757 H1761 0.930 . S
C1758 C1757 1.369 . S
C1758 C1767 1.429 . S
C1759 C1757 1.419 . S
C1759 C1760 1.363 . S
C1759 H1762 0.929 . S
C1760 C1759 1.363 . S
C1760 C1766 1.428 . S
H1761 C1757 0.930 . S
H1762 C1759 0.929 . S
S1763 N1764 1.613 . S
S1763 N1765 1.610 . S
N1764 S1763 1.613 . S
N1764 C1767 1.350 . S
N1765 S1763 1.610 . S
N1765 C1766 1.351 . S
C1766 C1760 1.428 . S
C1766 N1765 1.351 . S
C1766 C1767 1.434 . S
C1767 C1758 1.429 . S
C1767 N1764 1.350 . S
C1767 C1766 1.434 . S
C1768 C1769 1.369 . S
C1768 C1770 1.419 . S
C1768 H1772 0.930 . S
C1769 C1768 1.369 . S
C1769 C1778 1.429 . S
C1770 C1768 1.419 . S
C1770 C1771 1.363 . S
C1770 H1773 0.929 . S
C1771 C1770 1.363 . S
C1771 C1777 1.428 . S
H1772 C1768 0.930 . S
H1773 C1770 0.929 . S
S1774 N1775 1.613 . S
S1774 N1776 1.610 . S
N1775 S1774 1.613 . S
N1775 C1778 1.350 . S
N1776 S1774 1.610 . S
N1776 C1777 1.351 . S
C1777 C1771 1.428 . S
C1777 N1776 1.351 . S
C1777 C1778 1.434 . S
C1778 C1769 1.429 . S
C1778 N1775 1.350 . S
C1778 C1777 1.434 . S
C1779 C1780 1.369 . S
C1779 C1781 1.419 . S
C1779 H1783 0.930 . S
C1780 C1779 1.369 . S
C1780 C1789 1.429 . S
C1781 C1779 1.419 . S
C1781 C1782 1.363 . S
C1781 H1784 0.929 . S
C1782 C1781 1.363 . S
C1782 C1788 1.428 . S
H1783 C1779 0.930 . S
H1784 C1781 0.929 . S
S1785 N1786 1.613 . S
S1785 N1787 1.610 . S
N1786 S1785 1.613 . S
N1786 C1789 1.350 . S
N1787 S1785 1.610 . S
N1787 C1788 1.351 . S
C1788 C1782 1.428 . S
C1788 N1787 1.351 . S
C1788 C1789 1.434 . S
C1789 C1780 1.429 . S
C1789 N1786 1.350 . S
C1789 C1788 1.434 . S
C1790 C1791 1.369 . S
C1790 C1792 1.419 . S
C1790 H1794 0.930 . S
C1791 C1790 1.369 . S
C1791 C1800 1.429 . S
C1792 C1790 1.419 . S
C1792 C1793 1.363 . S
C1792 H1795 0.929 . S
C1793 C1792 1.363 . S
C1793 C1799 1.428 . S
H1794 C1790 0.930 . S
H1795 C1792 0.929 . S
S1796 N1797 1.613 . S
S1796 N1798 1.610 . S
N1797 S1796 1.613 . S
N1797 C1800 1.350 . S
N1798 S1796 1.610 . S
N1798 C1799 1.351 . S
C1799 C1793 1.428 . S
C1799 N1798 1.351 . S
C1799 C1800 1.434 . S
C1800 C1791 1.429 . S
C1800 N1797 1.350 . S
C1800 C1799 1.434 . S
C1801 C1802 1.369 . S
C1801 C1803 1.419 . S
C1801 H1805 0.930 . S
C1802 C1801 1.369 . S
C1802 C1811 1.429 . S
C1803 C1801 1.419 . S
C1803 C1804 1.363 . S
C1803 H1806 0.929 . S
C1804 C1803 1.363 . S
C1804 C1810 1.428 . S
H1805 C1801 0.930 . S
H1806 C1803 0.929 . S
S1807 N1808 1.613 . S
S1807 N1809 1.610 . S
N1808 S1807 1.613 . S
N1808 C1811 1.350 . S
N1809 S1807 1.610 . S
N1809 C1810 1.351 . S
C1810 C1804 1.428 . S
C1810 N1809 1.351 . S
C1810 C1811 1.434 . S
C1811 C1802 1.429 . S
C1811 N1808 1.350 . S
C1811 C1810 1.434 . S
C1812 C1813 1.369 . S
C1812 C1814 1.419 . S
C1812 H1816 0.930 . S
C1813 C1812 1.369 . S
C1813 C1822 1.429 . S
C1814 C1812 1.419 . S
C1814 C1815 1.363 . S
C1814 H1817 0.929 . S
C1815 C1814 1.363 . S
C1815 C1821 1.428 . S
H1816 C1812 0.930 . S
H1817 C1814 0.929 . S
S1818 N1819 1.613 . S
S1818 N1820 1.610 . S
N1819 S1818 1.613 . S
N1819 C1822 1.350 . S
N1820 S1818 1.610 . S
N1820 C1821 1.351 . S
C1821 C1815 1.428 . S
C1821 N1820 1.351 . S
C1821 C1822 1.434 . S
C1822 C1813 1.429 . S
C1822 N1819 1.350 . S
C1822 C1821 1.434 . S
C1823 C1824 1.369 . S
C1823 C1825 1.419 . S
C1823 H1827 0.930 . S
C1824 C1823 1.369 . S
C1824 C1833 1.429 . S
C1825 C1823 1.419 . S
C1825 C1826 1.363 . S
C1825 H1828 0.929 . S
C1826 C1825 1.363 . S
C1826 C1832 1.428 . S
H1827 C1823 0.930 . S
H1828 C1825 0.929 . S
S1829 N1830 1.613 . S
S1829 N1831 1.610 . S
N1830 S1829 1.613 . S
N1830 C1833 1.350 . S
N1831 S1829 1.610 . S
N1831 C1832 1.351 . S
C1832 C1826 1.428 . S
C1832 N1831 1.351 . S
C1832 C1833 1.434 . S
C1833 C1824 1.429 . S
C1833 N1830 1.350 . S
C1833 C1832 1.434 . S
C1834 C1835 1.369 . S
C1834 C1836 1.419 . S
C1834 H1838 0.930 1_455 S
C1835 C1834 1.369 . S
C1835 C1844 1.429 . S
C1836 C1834 1.419 . S
C1836 C1837 1.363 . S
C1836 H1839 0.929 . S
C1837 C1836 1.363 . S
C1837 C1843 1.428 . S
H1838 C1834 0.930 1_655 S
H1839 C1836 0.929 . S
S1840 N1841 1.613 . S
S1840 N1842 1.610 . S
N1841 S1840 1.613 . S
N1841 C1844 1.350 . S
N1842 S1840 1.610 . S
N1842 C1843 1.351 . S
C1843 C1837 1.428 . S
C1843 N1842 1.351 . S
C1843 C1844 1.434 . S
C1844 C1835 1.429 . S
C1844 N1841 1.350 . S
C1844 C1843 1.434 . S
C1845 C1846 1.369 . S
C1845 C1847 1.419 . S
C1845 H1849 0.930 . S
C1846 C1845 1.369 . S
C1846 C1855 1.429 . S
C1847 C1845 1.419 . S
C1847 C1848 1.363 . S
C1847 H1850 0.929 . S
C1848 C1847 1.363 . S
C1848 C1854 1.428 . S
H1849 C1845 0.930 . S
H1850 C1847 0.929 . S
S1851 N1852 1.613 . S
S1851 N1853 1.610 . S
N1852 S1851 1.613 . S
N1852 C1855 1.350 . S
N1853 S1851 1.610 . S
N1853 C1854 1.351 . S
C1854 C1848 1.428 . S
C1854 N1853 1.351 . S
C1854 C1855 1.434 . S
C1855 C1846 1.429 . S
C1855 N1852 1.350 . S
C1855 C1854 1.434 . S
C1856 C1857 1.369 . S
C1856 C1858 1.419 . S
C1856 H1860 0.930 . S
C1857 C1856 1.369 . S
C1857 C1866 1.429 . S
C1858 C1856 1.419 . S
C1858 C1859 1.363 . S
C1858 H1861 0.929 . S
C1859 C1858 1.363 . S
C1859 C1865 1.428 . S
H1860 C1856 0.930 . S
H1861 C1858 0.929 . S
S1862 N1863 1.613 . S
S1862 N1864 1.610 . S
N1863 S1862 1.613 . S
N1863 C1866 1.350 . S
N1864 S1862 1.610 . S
N1864 C1865 1.351 . S
C1865 C1859 1.428 . S
C1865 N1864 1.351 . S
C1865 C1866 1.434 . S
C1866 C1857 1.429 . S
C1866 N1863 1.350 . S
C1866 C1865 1.434 . S
C1867 C1868 1.369 . S
C1867 C1869 1.419 . S
C1867 H1871 0.930 . S
C1868 C1867 1.369 . S
C1868 C1877 1.429 . S
C1869 C1867 1.419 . S
C1869 C1870 1.363 . S
C1869 H1872 0.929 . S
C1870 C1869 1.363 . S
C1870 C1876 1.428 . S
H1871 C1867 0.930 . S
H1872 C1869 0.929 . S
S1873 N1874 1.613 . S
S1873 N1875 1.610 . S
N1874 S1873 1.613 . S
N1874 C1877 1.350 . S
N1875 S1873 1.610 . S
N1875 C1876 1.351 . S
C1876 C1870 1.428 . S
C1876 N1875 1.351 . S
C1876 C1877 1.434 . S
C1877 C1868 1.429 . S
C1877 N1874 1.350 . S
C1877 C1876 1.434 . S
C1878 C1879 1.369 . S
C1878 C1880 1.419 . S
C1878 H1882 0.930 . S
C1879 C1878 1.369 . S
C1879 C1888 1.429 . S
C1880 C1878 1.419 . S
C1880 C1881 1.363 . S
C1880 H1883 0.929 . S
C1881 C1880 1.363 . S
C1881 C1887 1.428 . S
H1882 C1878 0.930 . S
H1883 C1880 0.929 . S
S1884 N1885 1.613 . S
S1884 N1886 1.610 . S
N1885 S1884 1.613 . S
N1885 C1888 1.350 1_655 S
N1886 S1884 1.610 . S
N1886 C1887 1.351 1_655 S
C1887 C1881 1.428 . S
C1887 N1886 1.351 1_455 S
C1887 C1888 1.434 . S
C1888 C1879 1.429 . S
C1888 N1885 1.350 1_455 S
C1888 C1887 1.434 . S
C1889 C1890 1.369 . S
C1889 C1891 1.419 . S
C1889 H1893 0.930 . S
C1890 C1889 1.369 . S
C1890 C1899 1.429 . S
C1891 C1889 1.419 . S
C1891 C1892 1.363 . S
C1891 H1894 0.929 . S
C1892 C1891 1.363 . S
C1892 C1898 1.428 . S
H1893 C1889 0.930 . S
H1894 C1891 0.929 . S
S1895 N1896 1.613 . S
S1895 N1897 1.610 . S
N1896 S1895 1.613 . S
N1896 C1899 1.350 . S
N1897 S1895 1.610 . S
N1897 C1898 1.351 . S
C1898 C1892 1.428 . S
C1898 N1897 1.351 . S
C1898 C1899 1.434 . S
C1899 C1890 1.429 . S
C1899 N1896 1.350 . S
C1899 C1898 1.434 . S
C1900 C1901 1.369 . S
C1900 C1902 1.419 . S
C1900 H1904 0.930 . S
C1901 C1900 1.369 . S
C1901 C1910 1.429 . S
C1902 C1900 1.419 . S
C1902 C1903 1.363 . S
C1902 H1905 0.929 . S
C1903 C1902 1.363 . S
C1903 C1909 1.428 . S
H1904 C1900 0.930 . S
H1905 C1902 0.929 . S
S1906 N1907 1.613 . S
S1906 N1908 1.610 . S
N1907 S1906 1.613 . S
N1907 C1910 1.350 . S
N1908 S1906 1.610 . S
N1908 C1909 1.351 . S
C1909 C1903 1.428 . S
C1909 N1908 1.351 . S
C1909 C1910 1.434 . S
C1910 C1901 1.429 . S
C1910 N1907 1.350 . S
C1910 C1909 1.434 . S
C1911 C1912 1.369 . S
C1911 C1913 1.419 . S
C1911 H1915 0.930 . S
C1912 C1911 1.369 . S
C1912 C1921 1.429 . S
C1913 C1911 1.419 . S
C1913 C1914 1.363 . S
C1913 H1916 0.929 . S
C1914 C1913 1.363 . S
C1914 C1920 1.428 . S
H1915 C1911 0.930 . S
H1916 C1913 0.929 . S
S1917 N1918 1.613 . S
S1917 N1919 1.610 . S
N1918 S1917 1.613 . S
N1918 C1921 1.350 . S
N1919 S1917 1.610 . S
N1919 C1920 1.351 . S
C1920 C1914 1.428 . S
C1920 N1919 1.351 . S
C1920 C1921 1.434 . S
C1921 C1912 1.429 . S
C1921 N1918 1.350 . S
C1921 C1920 1.434 . S
C1922 C1923 1.370 . S
C1922 C1924 1.421 1_455 S
C1922 H1926 0.926 1_455 S
C1923 C1922 1.370 . S
C1923 C1932 1.429 . S
C1924 C1922 1.421 1_655 S
C1924 C1925 1.363 1_655 S
C1924 H1927 0.929 . S
C1925 C1924 1.363 1_455 S
C1925 C1931 1.428 . S
H1926 C1922 0.926 1_655 S
H1927 C1924 0.929 . S
S1928 N1929 1.613 . S
S1928 N1930 1.610 . S
N1929 S1928 1.613 . S
N1929 C1932 1.350 . S
N1930 S1928 1.610 . S
N1930 C1931 1.351 . S
C1931 C1925 1.428 . S
C1931 N1930 1.351 . S
C1931 C1932 1.434 . S
C1932 C1923 1.429 . S
C1932 N1929 1.350 . S
C1932 C1931 1.434 . S
C1933 C1934 1.369 . S
C1933 C1935 1.419 . S
C1933 H1937 0.930 . S
C1934 C1933 1.369 . S
C1934 C1943 1.429 . S
C1935 C1933 1.419 . S
C1935 C1936 1.363 . S
C1935 H1938 0.929 . S
C1936 C1935 1.363 . S
C1936 C1942 1.428 . S
H1937 C1933 0.930 . S
H1938 C1935 0.929 . S
S1939 N1940 1.613 . S
S1939 N1941 1.610 . S
N1940 S1939 1.613 . S
N1940 C1943 1.350 . S
N1941 S1939 1.610 . S
N1941 C1942 1.351 . S
C1942 C1936 1.428 . S
C1942 N1941 1.351 . S
C1942 C1943 1.434 . S
C1943 C1934 1.429 . S
C1943 N1940 1.350 . S
C1943 C1942 1.434 . S
C1944 C1945 1.369 . S
C1944 C1946 1.419 . S
C1944 H1948 0.930 . S
C1945 C1944 1.369 . S
C1945 C1954 1.429 . S
C1946 C1944 1.419 . S
C1946 C1947 1.363 . S
C1946 H1949 0.929 . S
C1947 C1946 1.363 . S
C1947 C1953 1.428 . S
H1948 C1944 0.930 . S
H1949 C1946 0.929 . S
S1950 N1951 1.613 . S
S1950 N1952 1.610 . S
N1951 S1950 1.613 . S
N1951 C1954 1.350 . S
N1952 S1950 1.610 . S
N1952 C1953 1.351 . S
C1953 C1947 1.428 . S
C1953 N1952 1.351 . S
C1953 C1954 1.434 . S
C1954 C1945 1.429 . S
C1954 N1951 1.350 . S
C1954 C1953 1.434 . S
C1955 C1956 1.369 . S
C1955 C1957 1.419 . S
C1955 H1959 0.930 . S
C1956 C1955 1.369 . S
C1956 C1965 1.435 . S
C1957 C1955 1.419 . S
C1957 C1958 1.363 . S
C1957 H1960 0.929 . S
C1958 C1957 1.363 . S
C1958 C1964 1.428 . S
H1959 C1955 0.930 . S
H1960 C1957 0.929 . S
S1961 N1962 1.613 . S
S1961 N1963 1.610 1_565 S
N1962 S1961 1.613 . S
N1962 C1965 1.338 1_565 S
N1963 S1961 1.610 1_545 S
N1963 C1964 1.351 . S
C1964 C1958 1.428 . S
C1964 N1963 1.351 . S
C1964 C1965 1.439 . S
C1965 C1956 1.435 . S
C1965 N1962 1.338 1_545 S
C1965 C1964 1.439 . S
C1966 C1967 1.369 . S
C1966 C1968 1.419 . S
C1966 H1970 0.930 . S
C1967 C1966 1.369 . S
C1967 C1976 1.429 . S
C1968 C1966 1.419 . S
C1968 C1969 1.363 . S
C1968 H1971 0.929 . S
C1969 C1968 1.363 . S
C1969 C1975 1.428 . S
H1970 C1966 0.930 . S
H1971 C1968 0.929 . S
S1972 N1973 1.613 . S
S1972 N1974 1.610 . S
N1973 S1972 1.613 . S
N1973 C1976 1.350 . S
N1974 S1972 1.610 . S
N1974 C1975 1.351 . S
C1975 C1969 1.428 . S
C1975 N1974 1.351 . S
C1975 C1976 1.434 . S
C1976 C1967 1.429 . S
C1976 N1973 1.350 . S
C1976 C1975 1.434 . S
C1977 C1978 1.369 . S
C1977 C1979 1.419 . S
C1977 H1981 0.930 . S
C1978 C1977 1.369 . S
C1978 C1987 1.429 1_556 S
C1979 C1977 1.419 . S
C1979 C1980 1.363 1_556 S
C1979 H1982 0.929 . S
C1980 C1979 1.363 1_554 S
C1980 C1986 1.428 . S
H1981 C1977 0.930 . S
H1982 C1979 0.929 . S
S1983 N1984 1.613 . S
S1983 N1985 1.610 . S
N1984 S1983 1.613 . S
N1984 C1987 1.350 . S
N1985 S1983 1.610 . S
N1985 C1986 1.351 . S
C1986 C1980 1.428 . S
C1986 N1985 1.351 . S
C1986 C1987 1.434 . S
C1987 C1978 1.429 1_554 S
C1987 N1984 1.350 . S
C1987 C1986 1.434 . S
C1988 C1989 1.369 . S
C1988 C1990 1.419 . S
C1988 H1992 0.930 . S
C1989 C1988 1.369 . S
C1989 C1998 1.429 . S
C1990 C1988 1.419 . S
C1990 C1991 1.363 . S
C1990 H1993 0.929 . S
C1991 C1990 1.363 . S
C1991 C1997 1.428 . S
H1992 C1988 0.930 . S
H1993 C1990 0.929 . S
S1994 N1995 1.613 . S
S1994 N1996 1.610 . S
N1995 S1994 1.613 . S
N1995 C1998 1.350 . S
N1996 S1994 1.610 . S
N1996 C1997 1.351 . S
C1997 C1991 1.428 . S
C1997 N1996 1.351 . S
C1997 C1998 1.434 . S
C1998 C1989 1.429 . S
C1998 N1995 1.350 . S
C1998 C1997 1.434 . S
C1999 C2000 1.369 . S
C1999 C2001 1.419 . S
C1999 H2003 0.930 . S
C2000 C1999 1.369 . S
C2000 C2009 1.429 . S
C2001 C1999 1.419 . S
C2001 C2002 1.363 1_554 S
C2001 H2004 0.929 . S
C2002 C2001 1.363 1_556 S
C2002 C2008 1.428 . S
H2003 C1999 0.930 . S
H2004 C2001 0.929 . S
S2005 N2006 1.613 1_556 S
S2005 N2007 1.610 . S
N2006 S2005 1.613 1_554 S
N2006 C2009 1.350 . S
N2007 S2005 1.610 . S
N2007 C2008 1.351 . S
C2008 C2002 1.428 . S
C2008 N2007 1.351 . S
C2008 C2009 1.434 1_556 S
C2009 C2000 1.429 . S
C2009 N2006 1.350 . S
C2009 C2008 1.434 1_554 S
C2010 C2011 1.369 . S
C2010 C2012 1.419 . S
C2010 H2014 0.930 . S
C2011 C2010 1.369 . S
C2011 C2020 1.429 . S
C2012 C2010 1.419 . S
C2012 C2013 1.363 . S
C2012 H2015 0.929 . S
C2013 C2012 1.363 . S
C2013 C2019 1.428 . S
H2014 C2010 0.930 . S
H2015 C2012 0.929 . S
S2016 N2017 1.613 . S
S2016 N2018 1.610 . S
N2017 S2016 1.613 . S
N2017 C2020 1.350 . S
N2018 S2016 1.610 . S
N2018 C2019 1.351 . S
C2019 C2013 1.428 . S
C2019 N2018 1.351 . S
C2019 C2020 1.434 . S
C2020 C2011 1.429 . S
C2020 N2017 1.350 . S
C2020 C2019 1.434 . S
C2021 C2022 1.369 . S
C2021 C2023 1.419 . S
C2021 H2025 0.930 . S
C2022 C2021 1.369 . S
C2022 C2031 1.429 . S
C2023 C2021 1.419 . S
C2023 C2024 1.363 . S
C2023 H2026 0.929 . S
C2024 C2023 1.363 . S
C2024 C2030 1.428 . S
H2025 C2021 0.930 . S
H2026 C2023 0.929 . S
S2027 N2028 1.613 . S
S2027 N2029 1.610 . S
N2028 S2027 1.613 . S
N2028 C2031 1.350 . S
N2029 S2027 1.610 . S
N2029 C2030 1.351 . S
C2030 C2024 1.428 . S
C2030 N2029 1.351 . S
C2030 C2031 1.434 . S
C2031 C2022 1.429 . S
C2031 N2028 1.350 . S
C2031 C2030 1.434 . S
C977 C111 2.136 . S
C979 C346 2.118 . S
C988 C64 1.870 . S
C990 C385 1.910 . S
C999 C77 1.503 . S
C1001 C426 1.501 1_565 S
C1012 C471 1.356 . S
C1010 C95 1.426 . S
C1021 C25 1.914 . S
C1023 C515 1.954 . S
C1034 C546 1.569 . S
C1032 C36 1.656 . S
C1045 C594 2.011 . S
C1043 C50 1.971 . S
C1054 C11 2.098 . S
C1056 C622 1.896 . S
C1067 C354 1.829 . S
C1065 C237 1.640 . S
C1076 C245 1.603 . S
C1078 C395 1.547 . S
C1089 C434 1.608 . S
C1087 C279 1.230 1_545 S
C1100 C466 1.599 . S
C1098 C175 1.591 . S
C1109 C231 0.472 . S
C1111 C502 0.493 . S
C1122 C554 2.067 . S
C1120 C251 2.037 . S
C1133 C591 1.606 . S
C1131 C273 1.609 . S
C1144 C625 2.027 . S
C1142 C181 1.967 . S
C1155 C351 2.037 . S
C1153 C165 2.226 1_545 S
C1164 C288 1.919 . S
C1166 C665 1.955 . S
C1177 C711 1.556 . S
C1175 C333 1.655 . S
C1188 C746 1.697 . S
C1186 C316 1.802 . S
C1197 C123 2.167 . S
C1199 C635 2.047 . S
C1208 C137 1.445 . S
C1210 C431 1.376 . S
C1219 C330 1.345 . S
C1221 C794 1.542 . S
C1232 C822 0.607 . S
C1230 C302 0.647 . S
C1243 C355 2.227 . S
C1241 C63 2.275 . S
C1254 C834 1.880 . S
C1252 C106 1.934 . S
C1263 C97 1.586 . S
C1265 C435 1.631 . S
C1274 C81 1.429 . S
C1276 C782 1.412 . S
C1287 C506 2.119 . S
C1285 C13 2.130 . S
C1296 C55 1.407 . S
C1298 C715 1.562 . S
C1309 C585 1.959 1_556 S
C1307 C35 1.975 . S
C1320 C871 1.921 1_455 S
C1318 C21 2.022 . S
C1331 C345 1.884 . S
C1329 C147 1.784 . S
C1342 C826 1.673 . S
C1340 C321 1.702 . S
C1351 C119 1.539 . S
C1353 C425 1.657 . S
C1362 C293 1.694 . S
C1364 C795 1.758 . S
C1373 C153 0.461 . S
C1375 C511 0.490 . S
C1386 C705 2.156 . S
C1384 C315 2.187 . S
C1395 C125 1.217 . S
C1397 C582 1.440 . S
C1406 C287 2.088 . S
C1408 C874 2.098 . S
C1417 C193 2.125 1_556 S
C1419 C342 2.054 . S
C1428 C176 1.997 . S
C1430 C674 1.959 . S
C1439 C263 1.533 . S
C1441 C542 1.585 . S
C1450 C246 1.707 . S
C1452 C755 1.748 . S
C1463 C866 2.057 . S
C1461 C277 2.110 . S
C1472 C221 1.430 . S
C1474 C422 1.411 . S
C1485 C465 1.558 . S
C1483 C260 1.574 . S
C1496 C391 0.703 . S
C1494 C204 0.699 . S
C1505 C83 2.139 . S
C1507 C906 2.115 . S
C1518 C825 1.911 . S
C1516 C92 1.870 . S
C1527 C105 1.504 . S
C1529 C946 1.501 . S
C1538 C67 1.426 . S
C1540 C791 1.358 . S
C1549 C53 1.916 . S
C1551 C675 1.956 . S
C1562 C706 1.573 . S
C1560 C8 1.656 . S
C1573 C754 2.012 . S
C1571 C22 1.969 . S
C1584 C862 1.898 . S
C1582 C39 2.097 . S
C1595 C914 1.830 . S
C1593 C265 1.642 . S
C1604 C189 1.604 . S
C1606 C835 1.558 . S
C1617 C954 1.608 . S
C1615 C209 1.244 . S
C1628 C786 1.600 . S
C1626 C217 1.595 . S
C1639 C662 0.509 . S
C1637 C259 0.455 . S
C1648 C195 2.032 . S
C1650 C714 2.059 . S
C1661 C751 1.601 . S
C1659 C203 1.621 . S
C1670 C223 1.966 . S
C1672 C865 2.027 . S
C1683 C911 2.029 . S
C1681 C319 2.230 . S
C1692 C134 1.911 . S
C1694 C505 1.959 . S
C1705 C551 1.553 . S
C1703 C151 1.658 . S
C1716 C586 1.698 . S
C1714 C162 1.803 1_545 S
C1727 C875 2.045 . S
C1725 C305 2.169 . S
C1736 C291 1.448 . S
C1738 C951 1.371 . S
C1749 C474 1.546 . S
C1747 C148 1.336 . S
C1760 C382 0.608 . S
C1758 C120 0.634 . S
C1769 C91 2.274 . S
C1771 C915 2.231 . S
C1782 C394 1.882 . S
C1780 C78 1.936 . S
C1791 C69 1.593 . S
C1793 C955 1.633 . S
C1802 C109 1.419 . S
C1804 C462 1.418 . S
C1813 C41 2.133 . S
C1815 C666 2.119 . S
C1826 C555 1.554 . S
C1824 C27 1.418 . S
C1835 C7 1.975 . S
C1837 C745 1.959 . S
C1846 C49 2.023 . S
C1848 C631 1.922 . S
C1859 C905 1.886 . S
C1857 C329 1.783 . S
C1868 C167 1.699 . S
C1870 C386 1.679 . S
C1881 C945 1.660 . S
C1879 C301 1.540 . S
C1890 C139 1.694 . S
C1892 C475 1.758 . S
C1901 C335 0.468 . S
C1903 C671 0.488 . S
C1914 C545 2.157 . S
C1912 C161 2.173 1_556 S
C1923 C307 1.217 . S
C1925 C742 1.440 . S
C1936 C634 2.099 . S
C1934 C133 2.089 . S
C1947 C902 2.047 . S
C1945 C249 2.136 . S
C1958 C514 1.963 1_655 S
C1956 C218 1.993 1_545 S
C1967 C235 1.523 . S
C1969 C702 1.590 . S
C1980 C595 1.749 . S
C1978 C190 1.706 . S
C1989 C207 2.100 . S
C1991 C626 2.064 . S
C2000 C179 1.420 . S
C2002 C942 1.418 . S
C2013 C785 1.560 . S
C2011 C232 1.572 . S
C2024 C831 0.707 . S
C2022 C274 0.688 . S
