# Generated by pormake.
# Topology ocu, (6,8)-cn, num edge types: 1
# Building blocks:
#     Node 0, Type 0, BuildingBlock: KUMBUR_clean_sbu_0, # of connection points: 6
#     Node 1, Type 0, BuildingBlock: KUMBUR_clean_sbu_0, # of connection points: 6
#     Node 2, Type 0, BuildingBlock: KUMBUR_clean_sbu_0, # of connection points: 6
#     Node 3, Type 0, BuildingBlock: KUMBUR_clean_sbu_0, # of connection points: 6
#     Node 4, Type 0, BuildingBlock: KUMBUR_clean_sbu_0, # of connection points: 6
#     Node 5, Type 0, BuildingBlock: KUMBUR_clean_sbu_0, # of connection points: 6
#     Node 6, Type 0, BuildingBlock: KUMBUR_clean_sbu_0, # of connection points: 6
#     Node 7, Type 0, BuildingBlock: KUMBUR_clean_sbu_0, # of connection points: 6
#     Node 8, Type 1, BuildingBlock: VETTIZ_charged_sbu_0, # of connection points: 8
#     Node 9, Type 1, BuildingBlock: VETTIZ_charged_sbu_0, # of connection points: 8
#     Node 10, Type 1, BuildingBlock: VETTIZ_charged_sbu_0, # of connection points: 8
#     Node 11, Type 1, BuildingBlock: VETTIZ_charged_sbu_0, # of connection points: 8
#     Node 12, Type 1, BuildingBlock: VETTIZ_charged_sbu_0, # of connection points: 8
#     Node 13, Type 1, BuildingBlock: VETTIZ_charged_sbu_0, # of connection points: 8
#     Edge 14, Type (0, 1), BuildingBlock: EZIPEK_clean_linker_0, # of connection points: 2
#     Edge 15, Type (0, 1), BuildingBlock: EZIPEK_clean_linker_0, # of connection points: 2
#     Edge 16, Type (0, 1), BuildingBlock: EZIPEK_clean_linker_0, # of connection points: 2
#     Edge 17, Type (0, 1), BuildingBlock: EZIPEK_clean_linker_0, # of connection points: 2
#     Edge 18, Type (0, 1), BuildingBlock: EZIPEK_clean_linker_0, # of connection points: 2
#     Edge 19, Type (0, 1), BuildingBlock: EZIPEK_clean_linker_0, # of connection points: 2
#     Edge 20, Type (0, 1), BuildingBlock: EZIPEK_clean_linker_0, # of connection points: 2
#     Edge 21, Type (0, 1), BuildingBlock: EZIPEK_clean_linker_0, # of connection points: 2
#     Edge 22, Type (0, 1), BuildingBlock: EZIPEK_clean_linker_0, # of connection points: 2
#     Edge 23, Type (0, 1), BuildingBlock: EZIPEK_clean_linker_0, # of connection points: 2
#     Edge 24, Type (0, 1), BuildingBlock: EZIPEK_clean_linker_0, # of connection points: 2
#     Edge 25, Type (0, 1), BuildingBlock: EZIPEK_clean_linker_0, # of connection points: 2
#     Edge 26, Type (0, 1), BuildingBlock: EZIPEK_clean_linker_0, # of connection points: 2
#     Edge 27, Type (0, 1), BuildingBlock: EZIPEK_clean_linker_0, # of connection points: 2
#     Edge 28, Type (0, 1), BuildingBlock: EZIPEK_clean_linker_0, # of connection points: 2
#     Edge 29, Type (0, 1), BuildingBlock: EZIPEK_clean_linker_0, # of connection points: 2
#     Edge 30, Type (0, 1), BuildingBlock: EZIPEK_clean_linker_0, # of connection points: 2
#     Edge 31, Type (0, 1), BuildingBlock: EZIPEK_clean_linker_0, # of connection points: 2
#     Edge 32, Type (0, 1), BuildingBlock: EZIPEK_clean_linker_0, # of connection points: 2
#     Edge 33, Type (0, 1), BuildingBlock: EZIPEK_clean_linker_0, # of connection points: 2
#     Edge 34, Type (0, 1), BuildingBlock: EZIPEK_clean_linker_0, # of connection points: 2
#     Edge 35, Type (0, 1), BuildingBlock: EZIPEK_clean_linker_0, # of connection points: 2
#     Edge 36, Type (0, 1), BuildingBlock: EZIPEK_clean_linker_0, # of connection points: 2
#     Edge 37, Type (0, 1), BuildingBlock: EZIPEK_clean_linker_0, # of connection points: 2
#     Edge 38, Type (0, 1), BuildingBlock: EZIPEK_clean_linker_0, # of connection points: 2
#     Edge 39, Type (0, 1), BuildingBlock: EZIPEK_clean_linker_0, # of connection points: 2
#     Edge 40, Type (0, 1), BuildingBlock: EZIPEK_clean_linker_0, # of connection points: 2
#     Edge 41, Type (0, 1), BuildingBlock: EZIPEK_clean_linker_0, # of connection points: 2
#     Edge 42, Type (0, 1), BuildingBlock: EZIPEK_clean_linker_0, # of connection points: 2
#     Edge 43, Type (0, 1), BuildingBlock: EZIPEK_clean_linker_0, # of connection points: 2
#     Edge 44, Type (0, 1), BuildingBlock: EZIPEK_clean_linker_0, # of connection points: 2
#     Edge 45, Type (0, 1), BuildingBlock: EZIPEK_clean_linker_0, # of connection points: 2
#     Edge 46, Type (0, 1), BuildingBlock: EZIPEK_clean_linker_0, # of connection points: 2
#     Edge 47, Type (0, 1), BuildingBlock: EZIPEK_clean_linker_0, # of connection points: 2
#     Edge 48, Type (0, 1), BuildingBlock: EZIPEK_clean_linker_0, # of connection points: 2
#     Edge 49, Type (0, 1), BuildingBlock: EZIPEK_clean_linker_0, # of connection points: 2
#     Edge 50, Type (0, 1), BuildingBlock: EZIPEK_clean_linker_0, # of connection points: 2
#     Edge 51, Type (0, 1), BuildingBlock: EZIPEK_clean_linker_0, # of connection points: 2
#     Edge 52, Type (0, 1), BuildingBlock: EZIPEK_clean_linker_0, # of connection points: 2
#     Edge 53, Type (0, 1), BuildingBlock: EZIPEK_clean_linker_0, # of connection points: 2
#     Edge 54, Type (0, 1), BuildingBlock: EZIPEK_clean_linker_0, # of connection points: 2
#     Edge 55, Type (0, 1), BuildingBlock: EZIPEK_clean_linker_0, # of connection points: 2
#     Edge 56, Type (0, 1), BuildingBlock: EZIPEK_clean_linker_0, # of connection points: 2
#     Edge 57, Type (0, 1), BuildingBlock: EZIPEK_clean_linker_0, # of connection points: 2
#     Edge 58, Type (0, 1), BuildingBlock: EZIPEK_clean_linker_0, # of connection points: 2
#     Edge 59, Type (0, 1), BuildingBlock: EZIPEK_clean_linker_0, # of connection points: 2
#     Edge 60, Type (0, 1), BuildingBlock: EZIPEK_clean_linker_0, # of connection points: 2
#     Edge 61, Type (0, 1), BuildingBlock: EZIPEK_clean_linker_0, # of connection points: 2
# Relax obj value: 0.133
# Max RMSD: 0.244
# Mean RMSD: 0.168
data_MOF--net-ocu--node1-KUMBUR_clean_sbu_0--node2-VETTIZ_charged_sbu_0--edge1-EZIPEK_clean_linker_0
_symmetry_space_group_name_H-M    P1
_symmetry_Int_Tables_number       1
_symmetry_cell_setting            triclinic
loop_
_symmetry_equiv_pos_as_xyz
'x, y, z'
_cell_length_a     29.905464
_cell_length_b     30.143234
_cell_length_c     32.050595
_cell_angle_alpha  76.539416
_cell_angle_beta   101.54772
_cell_angle_gamma 107.46504
loop_
_atom_site_label
_atom_site_type_symbol
_atom_site_fract_x
_atom_site_fract_y
_atom_site_fract_z
_atom_type_partial_charge
Tb0 Tb 0.27362 0.20998 0.25897 0.0
C1 C 0.43723 0.36929 0.30134 0.0
C2 C 0.47102 0.34017 0.37398 0.0
C3 C 0.52178 0.3973 0.32451 0.0
C4 C 0.43165 0.3405 0.3413 0.0
C5 C 0.48225 0.39844 0.29252 0.0
C6 C 0.51613 0.3683 0.36522 0.0
C7 C 0.44532 0.42995 0.22223 0.0
N8 N 0.39818 0.36949 0.27137 0.0
C9 C 0.40143 0.40068 0.23258 0.0
C10 C 0.48602 0.42849 0.25215 0.0
Tb11 Tb 0.32792 0.31852 0.29111 0.0
N12 N 0.38748 0.31376 0.34851 0.0
C13 C 0.38011 0.2883 0.38902 0.0
C14 C 0.46377 0.31225 0.41474 0.0
C15 C 0.41801 0.28661 0.42239 0.0
H16 H 0.37023 0.40198 0.20911 0.0
H17 H 0.41185 0.26526 0.45396 0.0
H18 H 0.54671 0.36845 0.38996 0.0
H19 H 0.4477 0.45364 0.19121 0.0
H20 H 0.34545 0.26744 0.39585 0.0
H21 H 0.22751 0.2028 0.0879 0.0
H22 H 0.49307 0.31087 0.44066 0.0
H23 H 0.21607 0.12906 0.33526 0.0
H24 H 0.28143 0.21102 0.15602 0.0
H25 H 0.13371 0.08401 0.34381 0.0
H26 H 0.5567 0.41929 0.31837 0.0
H27 H 0.14089 0.18223 0.0875 0.0
H28 H 0.07289 0.15182 0.13095 0.0
H29 H 0.51999 0.45131 0.24411 0.0
H30 H 0.04689 0.11729 0.20244 0.0
N31 N 0.22641 0.20077 0.19374 0.0
C32 C 0.24387 0.20357 0.15648 0.0
C33 C 0.1645 0.18686 0.1175 0.0
C34 C 0.14683 0.17671 0.15689 0.0
C35 C 0.21333 0.19829 0.11762 0.0
C36 C 0.17928 0.18292 0.19502 0.0
H37 H 0.06981 0.08956 0.28209 0.0
N38 N 0.199 0.16189 0.26974 0.0
C39 C 0.1419 0.10624 0.31305 0.0
C40 C 0.16491 0.16255 0.2349 0.0
C41 C 0.18863 0.13158 0.30792 0.0
C42 C 0.10588 0.1098 0.27825 0.0
C43 C 0.11738 0.13685 0.23812 0.0
O44 O 0.2695 0.13822 0.26266 0.0
O45 O 0.33579 0.24564 0.30038 0.0
O46 O 0.37078 0.30658 0.24929 0.0
O47 O 0.311 0.26202 0.20704 0.0
O48 O 0.29767 0.18048 0.3259 0.0
O49 O 0.32956 0.19231 0.24096 0.0
O50 O 0.30088 0.3412 0.33605 0.0
O51 O 0.26384 0.28124 0.25216 0.0
O52 O 0.22878 0.22165 0.30096 0.0
O53 O 0.2823 0.27487 0.33941 0.0
O54 O 0.29207 0.34893 0.2283 0.0
O55 O 0.33243 0.39096 0.28421 0.0
C56 C 0.33634 0.21222 0.33416 0.0
C57 C 0.30657 0.12314 0.21005 0.0
C58 C 0.34694 0.09785 0.16385 0.0
C59 C 0.34883 0.12136 0.19778 0.0
C60 C 0.30276 0.07728 0.14184 0.0
C61 C 0.26283 0.10134 0.18784 0.0
C62 C 0.26112 0.07922 0.15364 0.0
C63 C 0.35384 0.29137 0.21257 0.0
C64 C 0.3083 0.14741 0.24598 0.0
C65 C 0.08374 0.13604 0.2006 0.0
C66 C 0.09852 0.15588 0.15988 0.0
C67 C 0.257 0.31403 0.21943 0.0
C68 C 0.27021 0.40857 0.30827 0.0
C69 C 0.24474 0.40605 0.34195 0.0
C70 C 0.20988 0.4311 0.33474 0.0
C71 C 0.2008 0.4585 0.29379 0.0
C72 C 0.25979 0.43607 0.2675 0.0
C73 C 0.2255 0.46082 0.26045 0.0
C74 C 0.24058 0.24446 0.33408 0.0
C75 C 0.30908 0.38481 0.31606 0.0
H76 H 0.38287 0.13782 0.2146 0.0
H77 H 0.30057 0.05969 0.11533 0.0
H78 H 0.22979 0.10173 0.19653 0.0
H79 H 0.22727 0.06322 0.13634 0.0
H80 H 0.25225 0.3852 0.37367 0.0
H81 H 0.1743 0.47798 0.28762 0.0
H82 H 0.27822 0.43855 0.24091 0.0
H83 H 0.21798 0.48188 0.22891 0.0
Tb84 Tb 0.81631 0.21984 0.27516 0.0
C85 C 0.72894 0.36058 0.32653 0.0
C86 C 0.64459 0.32506 0.32188 0.0
C87 C 0.68112 0.38923 0.36187 0.0
C88 C 0.6892 0.32836 0.31132 0.0
C89 C 0.72557 0.39146 0.3521 0.0
C90 C 0.6407 0.35602 0.34679 0.0
C91 C 0.81004 0.42481 0.35587 0.0
N92 N 0.77113 0.36074 0.31707 0.0
C93 C 0.81142 0.39383 0.33006 0.0
C94 C 0.76691 0.42357 0.36707 0.0
Tb95 Tb 0.76868 0.31364 0.26868 0.0
N96 N 0.69493 0.29799 0.28877 0.0
C97 C 0.65692 0.26265 0.27654 0.0
C98 C 0.60549 0.28999 0.30804 0.0
C99 C 0.61183 0.25822 0.28578 0.0
H100 H 0.84497 0.39593 0.32086 0.0
H101 H 0.58196 0.23031 0.27563 0.0
H102 H 0.60677 0.35397 0.35518 0.0
H103 H 0.84222 0.44989 0.36675 0.0
H104 H 0.66069 0.23748 0.25974 0.0
H105 H 1.00174 0.31567 0.3177 0.0
H106 H 0.57054 0.28677 0.31491 0.0
H107 H 0.76356 0.19263 0.17482 0.0
H108 H 0.9176 0.29909 0.31627 0.0
H109 H 0.78629 0.19129 0.10792 0.0
H110 H 0.6777 0.41267 0.38135 0.0
H111 H 1.03211 0.29399 0.26136 0.0
H112 H 1.01395 0.26624 0.19106 0.0
H113 H 0.76587 0.44774 0.38692 0.0
H114 H 0.95482 0.23758 0.13149 0.0
N115 N 0.89724 0.25414 0.26999 0.0
C116 C 0.92903 0.28163 0.29698 0.0
C117 C 0.99448 0.28275 0.26335 0.0
C118 C 0.96194 0.26129 0.23149 0.0
C119 C 0.97766 0.29439 0.29549 0.0
C120 C 0.91305 0.24752 0.2356 0.0
H121 H 0.87057 0.21227 0.09949 0.0
N122 N 0.83339 0.2228 0.20596 0.0
C123 C 0.81321 0.20373 0.13379 0.0
C124 C 0.87994 0.23228 0.20201 0.0
C125 C 0.8003 0.20665 0.17238 0.0
C126 C 0.86065 0.21497 0.12935 0.0
C127 C 0.89473 0.229 0.16369 0.0
O128 O 0.78626 0.15526 0.25423 0.0
O129 O 0.75671 0.23705 0.29235 0.0
O130 O 0.8074 0.30453 0.33477 0.0
O131 O 0.85024 0.25048 0.33626 0.0
O132 O 0.78773 0.19132 0.33725 0.0
O133 O 0.84757 0.16347 0.30227 0.0
O134 O 0.72782 0.34356 0.21448 0.0
O135 O 0.81531 0.28906 0.23995 0.0
O136 O 0.74539 0.20326 0.2369 0.0
O137 O 0.72421 0.27385 0.21746 0.0
O138 O 0.8424 0.35148 0.26021 0.0
O139 O 0.79411 0.38552 0.2421 0.0
C140 C 0.7533 0.21117 0.33052 0.0
C141 C 0.79416 0.08624 0.30235 0.0
C142 C 0.78829 0.03351 0.37171 0.0
C143 C 0.81464 0.07044 0.3436 0.0
C144 C 0.74391 1.00654 0.35538 0.0
C145 C 0.75105 0.05769 0.28495 0.0
C146 C 0.72668 0.01715 0.31128 0.0
C147 C 0.84099 0.28313 0.35357 0.0
C148 C 0.8159 0.13421 0.27983 0.0
C149 C 0.94308 0.2402 0.1605 0.0
C150 C 0.9767 0.25618 0.19446 0.0
C151 C 0.85106 0.32497 0.23858 0.0
C152 C 0.77892 0.39699 0.16628 0.0
C153 C 0.74648 0.38709 0.13008 0.0
C154 C 0.75707 0.41034 0.08855 0.0
C155 C 0.80438 0.43132 0.0826 0.0
C156 C 0.82556 0.42334 0.16059 0.0
C157 C 0.83858 0.43772 0.11887 0.0
C158 C 0.71908 0.23019 0.21171 0.0
C159 C 0.76177 0.38257 0.20869 0.0
H160 H 0.84973 0.09037 0.35554 0.0
H161 H 0.7221 0.97871 0.37647 0.0
H162 H 0.73505 0.06801 0.25203 0.0
H163 H 0.6927 0.99629 0.2983 0.0
H164 H 0.7099 0.36997 0.13476 0.0
H165 H 0.81363 0.44861 0.05068 0.0
H166 H 0.85183 0.4324 0.18802 0.0
H167 H 0.87444 0.45638 0.11427 0.0
Tb168 Tb 0.75128 0.72782 0.30784 0.0
C169 C 0.88559 0.89748 0.22202 0.0
C170 C 0.84234 0.93242 0.15712 0.0
C171 C 0.90798 0.98277 0.19682 0.0
C172 C 0.84843 0.89255 0.18875 0.0
C173 C 0.91696 0.94243 0.22545 0.0
C174 C 0.87081 0.97773 0.16244 0.0
C175 C 0.96914 0.90342 0.27819 0.0
N176 N 0.8944 0.85747 0.24756 0.0
C177 C 0.93739 0.85971 0.2731 0.0
C178 C 0.95829 0.94509 0.25529 0.0
Tb179 Tb 0.83854 0.78752 0.2382 0.0
N180 N 0.822 0.8481 0.18445 0.0
C181 C 0.7933 0.84107 0.14628 0.0
C182 C 0.80967 0.92528 0.11992 0.0
C183 C 0.78545 0.87934 0.11436 0.0
H184 H 0.94646 0.82781 0.29052 0.0
H185 H 0.7615 0.87323 0.08509 0.0
H186 H 0.86584 1.00879 0.13902 0.0
H187 H 1.00231 0.90494 0.29908 0.0
H188 H 0.77791 0.80634 0.13881 0.0
H189 H 0.82857 0.6301 0.45468 0.0
H190 H 0.80415 0.95482 0.09465 0.0
H191 H 0.6382 0.6944 0.25964 0.0
H192 H 0.81273 0.70086 0.40587 0.0
H193 H 0.58028 0.62059 0.24564 0.0
H194 H 0.93125 0.01765 0.19937 0.0
H195 H 0.78252 0.55082 0.44009 0.0
H196 H 0.7153 0.50216 0.39515 0.0
H197 H 0.98343 0.97886 0.25884 0.0
H198 H 0.64732 0.49951 0.33708 0.0
N199 N 0.7645 0.66367 0.35912 0.0
C200 C 0.79541 0.66724 0.39667 0.0
C201 C 0.77685 0.58213 0.41744 0.0
C202 C 0.74151 0.57861 0.38157 0.0
C203 C 0.8031 0.62677 0.42561 0.0
C204 C 0.73556 0.62063 0.35323 0.0
H205 H 0.59604 0.54368 0.28148 0.0
N206 N 0.68994 0.66107 0.29856 0.0
C207 C 0.61344 0.61959 0.26642 0.0
C208 C 0.69711 0.61922 0.32135 0.0
C209 C 0.64705 0.66174 0.27376 0.0
C210 C 0.62243 0.57628 0.2867 0.0
C211 C 0.66392 0.57569 0.31585 0.0
O212 O 0.74577 0.78554 0.33189 0.0
O213 O 0.76734 0.78458 0.25085 0.0
O214 O 0.85254 0.82292 0.29486 0.0
O215 O 0.81735 0.76139 0.3457 0.0
O216 O 0.70047 0.76421 0.2644 0.0
O217 O 0.71075 0.71445 0.35839 0.0
O218 O 0.89294 0.80549 0.19917 0.0
O219 O 0.82119 0.72904 0.29376 0.0
O220 O 0.73745 0.68987 0.25289 0.0
O221 O 0.77466 0.74984 0.20111 0.0
O222 O 0.887 0.74799 0.27995 0.0
O223 O 0.84364 0.73733 0.20426 0.0
C224 C 0.72639 0.79446 0.23739 0.0
C225 C 0.67379 0.77446 0.35842 0.0
C226 C 0.63504 0.82568 0.37975 0.0
C227 C 0.67663 0.81321 0.37785 0.0
C228 C 0.59125 0.79964 0.36115 0.0
C229 C 0.6294 0.7498 0.33972 0.0
C230 C 0.58863 0.76249 0.34093 0.0
C231 C 0.84658 0.80366 0.33571 0.0
C232 C 0.71667 0.75908 0.35845 0.0
C233 C 0.672 0.53334 0.34127 0.0
C234 C 0.7107 0.53483 0.37429 0.0
C235 C 0.86065 0.7162 0.30526 0.0
C236 C 0.92168 0.74032 0.19718 0.0
C237 C 0.9212 0.70893 0.1704 0.0
C238 C 0.95691 0.68487 0.17881 0.0
C239 C 0.99163 0.69082 0.2151 0.0
C240 C 0.95896 0.74802 0.23153 0.0
C241 C 0.99263 0.72227 0.24122 0.0
C242 C 0.74583 0.70769 0.21231 0.0
C243 C 0.88256 0.76344 0.19 0.0
H244 H 0.71072 0.83309 0.39182 0.0
H245 H 0.55894 0.80856 0.36184 0.0
H246 H 0.62608 0.72038 0.32435 0.0
H247 H 0.55476 0.74328 0.32613 0.0
H248 H 0.89362 0.70359 0.14298 0.0
H249 H 1.01892 0.67222 0.22244 0.0
H250 H 0.96212 0.77364 0.2513 0.0
H251 H 1.02042 0.72765 0.26844 0.0
Tb252 Tb 0.30306 0.71362 0.28641 0.0
C253 C 0.18935 0.84993 0.17554 0.0
C254 C 0.24216 0.9153 0.13507 0.0
C255 C 0.15871 0.8919 0.1065 0.0
C256 C 0.23434 0.87796 0.17094 0.0
C257 C 0.1508 0.85671 0.14365 0.0
C258 C 0.20437 0.92138 0.10233 0.0
C259 C 0.0992 0.79695 0.1896 0.0
N260 N 0.18321 0.8172 0.21243 0.0
C261 C 0.1385 0.79205 0.22059 0.0
C262 C 0.10535 0.829 0.15075 0.0
Tb263 Tb 0.24976 0.8122 0.26165 0.0
N264 N 0.26973 0.87131 0.20362 0.0
C265 C 0.3132 0.9032 0.2037 0.0
C266 C 0.28726 0.94649 0.13409 0.0
C267 C 0.32277 0.94032 0.16861 0.0
H268 H 0.13286 0.76726 0.25049 0.0
H269 H 0.35779 0.96336 0.16767 0.0
H270 H 0.20985 0.94953 0.0743 0.0
H271 H 0.06412 0.77624 0.19569 0.0
H272 H 0.34092 0.89959 0.23065 0.0
H273 H 0.18025 0.57123 0.3763 0.0
H274 H 0.295 0.97546 0.10705 0.0
H275 H 0.42039 0.73132 0.29922 0.0
H276 H 0.20834 0.62494 0.31023 0.0
H277 H 0.48406 0.71957 0.35915 0.0
H278 H 0.12959 0.89753 0.08153 0.0
H279 H 0.23254 0.57466 0.44688 0.0
H280 H 0.3167 0.59367 0.48514 0.0
H281 H 0.07474 0.83294 0.12704 0.0
H282 H 0.40143 0.63196 0.47987 0.0
N283 N 0.27643 0.65489 0.34281 0.0
C284 C 0.23233 0.62407 0.34029 0.0
C285 C 0.24575 0.5949 0.41735 0.0
C286 C 0.29314 0.62046 0.41799 0.0
C287 C 0.2161 0.59379 0.37772 0.0
C288 C 0.30739 0.65005 0.37947 0.0
H289 H 0.46473 0.67809 0.43218 0.0
N290 N 0.36499 0.69796 0.33798 0.0
C291 C 0.44754 0.70622 0.36467 0.0
C292 C 0.35402 0.6717 0.37676 0.0
C293 C 0.41112 0.71281 0.3307 0.0
C294 C 0.43651 0.68292 0.40592 0.0
C295 C 0.38904 0.66436 0.41216 0.0
O296 O 0.34021 0.69389 0.24748 0.0
O297 O 0.30177 0.7834 0.24669 0.0
O298 O 0.2209 0.76973 0.21 0.0
O299 O 0.23089 0.69825 0.25053 0.0
O300 O 0.35969 0.76215 0.249 0.0
O301 O 0.27081 0.65173 0.26043 0.0
O302 O 0.2112 0.83582 0.29577 0.0
O303 O 0.25087 0.74284 0.3011 0.0
O304 O 0.33465 0.75556 0.33763 0.0
O305 O 0.32023 0.82806 0.3021 0.0
O306 O 0.1993 0.76999 0.30724 0.0
O307 O 0.28133 0.87735 0.28231 0.0
C308 C 0.34099 0.79636 0.23097 0.0
C309 C 0.32166 0.61284 0.24495 0.0
C310 C 0.35116 0.56577 0.21001 0.0
C311 C 0.33365 0.60467 0.20779 0.0
C312 C 0.35422 0.53368 0.24939 0.0
C313 C 0.325 0.5807 0.28414 0.0
C314 C 0.34086 0.541 0.28613 0.0
C315 C 0.21512 0.72364 0.21415 0.0
C316 C 0.30684 0.65577 0.24169 0.0
C317 C 0.37522 0.63746 0.45189 0.0
C318 C 0.32705 0.6158 0.45492 0.0
C319 C 0.21644 0.73446 0.32285 0.0
C320 C 0.22625 0.91813 0.2865 0.0
C321 C 0.20807 0.92904 0.31847 0.0
C322 C 0.18682 0.96631 0.30876 0.0
C323 C 0.18383 0.99326 0.26681 0.0
C324 C 0.22436 0.94587 0.24472 0.0
C325 C 0.20274 0.98295 0.23488 0.0
C326 C 0.34001 0.80128 0.33546 0.0
C327 C 0.2436 0.87571 0.29767 0.0
H328 H 0.33109 0.62953 0.17747 0.0
H329 H 0.3675 0.50331 0.25177 0.0
H330 H 0.31567 0.58643 0.31305 0.0
H331 H 0.34335 0.51613 0.31635 0.0
H332 H 0.20932 0.90772 0.35084 0.0
H333 H 0.16699 0.02195 0.25896 0.0
H334 H 0.23898 0.93894 0.21967 0.0
H335 H 0.20007 1.00322 0.20235 0.0
Tb336 Tb 0.32437 0.71111 0.77751 0.0
C337 C 0.16476 0.81066 0.76754 0.0
C338 C 0.10079 0.75848 0.72956 0.0
C339 C 0.08488 0.81888 0.75865 0.0
C340 C 0.14961 0.7762 0.74305 0.0
C341 C 0.13261 0.83132 0.77736 0.0
C342 C 0.06885 0.78217 0.73474 0.0
C343 C 0.19549 0.86812 0.82863 0.0
N344 N 0.21014 0.81815 0.78721 0.0
C345 C 0.22572 0.84602 0.81811 0.0
C346 C 0.14889 0.86138 0.80764 0.0
Tb347 Tb 0.26134 0.79504 0.75711 0.0
N348 N 0.18168 0.75289 0.74239 0.0
C349 C 0.16504 0.70638 0.73725 0.0
C350 C 0.08524 0.71462 0.71647 0.0
C351 C 0.11725 0.68746 0.72237 0.0
H352 H 0.26208 0.85318 0.8334 0.0
H353 H 0.10519 0.65179 0.71595 0.0
H354 H 1.03135 0.77 0.72354 0.0
H355 H 0.20833 0.89076 0.85259 0.0
H356 H 0.18878 0.68418 0.74319 0.0
H357 H 0.4333 0.66845 0.93096 0.0
H358 H 0.04812 0.69968 0.70571 0.0
H359 H 0.35369 0.74039 0.67481 0.0
H360 H 0.35914 0.66394 0.88238 0.0
H361 H 0.42457 0.76075 0.64124 0.0
H362 H 0.05961 0.83498 0.76496 0.0
H363 H 0.50947 0.70642 0.90284 0.0
H364 H 0.5527 0.74632 0.83924 0.0
H365 H 0.12544 0.87811 0.81617 0.0
H366 H 0.55056 0.76689 0.75998 0.0
N367 N 0.39106 0.70059 0.82539 0.0
C368 C 0.39125 0.68039 0.86852 0.0
C369 C 0.4766 0.70445 0.88083 0.0
C370 C 0.47656 0.7218 0.83647 0.0
C371 C 0.43373 0.68291 0.89677 0.0
C372 C 0.43277 0.71893 0.80923 0.0
H373 H 0.50294 0.76918 0.68617 0.0
N374 N 0.38874 0.73207 0.74022 0.0
C375 C 0.42714 0.75321 0.67621 0.0
C376 C 0.43152 0.73409 0.76513 0.0
C377 C 0.38629 0.74037 0.696 0.0
C378 C 0.47125 0.75814 0.7016 0.0
C379 C 0.47394 0.74896 0.74662 0.0
O380 O 0.26403 0.65848 0.75948 0.0
O381 O 0.26752 0.72902 0.79759 0.0
O382 O 0.30277 0.79609 0.82342 0.0
O383 O 0.3596 0.75695 0.82633 0.0
O384 O 0.29164 0.67653 0.83642 0.0
O385 O 0.33248 0.64484 0.77467 0.0
O386 O 0.3113 0.85656 0.77359 0.0
O387 O 0.32614 0.7841 0.74627 0.0
O388 O 0.28843 0.71212 0.71057 0.0
O389 O 0.23582 0.75783 0.69988 0.0
O390 O 0.2895 0.82018 0.69545 0.0
O391 O 0.24858 0.86021 0.72702 0.0
C392 C 0.25995 0.69838 0.83282 0.0
C393 C 0.26572 0.58278 0.79449 0.0
C394 C 0.27762 0.53276 0.86368 0.0
C395 C 0.28467 0.5773 0.83776 0.0
C396 C 0.24111 0.49516 0.84991 0.0
C397 C 0.22968 0.54559 0.77944 0.0
C398 C 0.21606 0.50223 0.80791 0.0
C399 C 0.34419 0.78662 0.84115 0.0
C400 C 0.2867 0.62661 0.76597 0.0
C401 C 0.51764 0.75388 0.77359 0.0
C402 C 0.51888 0.74161 0.81857 0.0
C403 C 0.32858 0.80774 0.70723 0.0
C404 C 0.31844 0.92215 0.71574 0.0
C405 C 0.29549 0.94167 0.67696 0.0
C406 C 0.31782 0.98444 0.65268 0.0
C407 C 0.36568 1.00598 0.66484 0.0
C408 C 0.36671 0.94321 0.72807 0.0
C409 C 0.39046 0.98448 0.70202 0.0
C410 C 0.25109 0.72551 0.68806 0.0
C411 C 0.28948 0.8839 0.74468 0.0
H412 H 0.31377 0.60513 0.84868 0.0
H413 H 0.23476 0.46018 0.86982 0.0
H414 H 0.21322 0.54961 0.74594 0.0
H415 H 0.18874 0.47317 0.79639 0.0
H416 H 0.25811 0.9261 0.66731 0.0
H417 H 0.38296 0.03972 0.64683 0.0
H418 H 0.38556 0.92876 0.75818 0.0
H419 H 0.42741 1.00105 0.71182 0.0
Tb420 Tb 0.23531 0.23595 0.82363 0.0
C421 C 0.36513 0.37477 0.70401 0.0
C422 C 0.30879 0.4019 0.64604 0.0
C423 C 0.38685 0.45449 0.66216 0.0
C424 C 0.32088 0.36682 0.68039 0.0
C425 C 0.39936 0.41812 0.69445 0.0
C426 C 0.34154 0.44636 0.63793 0.0
C427 C 0.45695 0.38364 0.74468 0.0
N428 N 0.37574 0.33832 0.73411 0.0
C429 C 0.42169 0.34118 0.75244 0.0
C430 C 0.44553 0.42268 0.7162 0.0
Tb431 Tb 0.31551 0.27079 0.74744 0.0
N432 N 0.29086 0.32327 0.68916 0.0
C433 C 0.24923 0.31119 0.66213 0.0
C434 C 0.26495 0.3906 0.62006 0.0
C435 C 0.23542 0.34473 0.62766 0.0
H436 H 0.4314 0.31077 0.77304 0.0
H437 H 0.2018 0.33523 0.60726 0.0
H438 H 0.33275 0.47406 0.6121 0.0
H439 H 0.49302 0.38602 0.76021 0.0
H440 H 0.22556 0.27617 0.66766 0.0
H441 H 0.27993 0.30243 0.97456 0.0
H442 H 0.25418 0.41652 0.59341 0.0
H443 H 0.22944 0.12777 0.80393 0.0
H444 H 0.25083 0.30507 0.89608 0.0
H445 H 0.24064 0.05278 0.84566 0.0
H446 H 0.41243 0.48831 0.65463 0.0
H447 H 0.29586 0.22957 1.02031 0.0
H448 H 0.29588 0.14532 0.02681 0.0
H449 H 0.47298 0.45536 0.7098 0.0
H450 H 0.28451 0.07749 0.99203 0.0
N451 N 0.25909 0.23719 0.89642 0.0
C452 C 0.25986 0.27372 0.91564 0.0
C453 C 0.28468 0.23098 0.98581 0.0
C454 C 0.27855 0.19181 0.96695 0.0
C455 C 0.27526 0.2721 0.96004 0.0
C456 C 0.26527 0.1959 0.92162 0.0
H457 H 0.26402 0.0428 0.92489 0.0
N458 N 0.24464 0.16239 0.85842 0.0
C459 C 0.24525 0.0818 0.86204 0.0
C460 C 0.25798 0.15743 0.90207 0.0
C461 C 0.23835 0.12499 0.83835 0.0
C462 C 0.25856 0.07633 0.9067 0.0
C463 C 0.26504 0.11425 0.92732 0.0
O464 O 0.17241 0.19458 0.8499 0.0
O465 O 0.24652 0.2758 0.75772 0.0
O466 O 0.33847 0.32554 0.78895 0.0
O467 O 0.29904 0.28465 0.84836 0.0
O468 O 0.22933 0.30867 0.79797 0.0
O469 O 0.18152 0.26776 0.82377 0.0
O470 O 0.36376 0.23324 0.74361 0.0
O471 O 0.29543 0.21943 0.80666 0.0
O472 O 0.19924 0.19269 0.77273 0.0
O473 O 0.25375 0.21854 0.72405 0.0
O474 O 0.36538 0.24829 0.80275 0.0
O475 O 0.31422 0.24935 0.68885 0.0
C476 C 0.23583 0.31417 0.75839 0.0
C477 C 0.14347 0.24056 0.88627 0.0
C478 C 0.1301 0.29489 0.92707 0.0
C479 C 0.14114 0.28643 0.88904 0.0
C480 C 0.12112 0.25707 0.96198 0.0
C481 C 0.13391 0.20374 0.92196 0.0
C482 C 0.12291 0.21202 0.95936 0.0
C483 C 0.33053 0.32036 0.82949 0.0
C484 C 0.15665 0.23133 0.84683 0.0
C485 C 0.27878 0.11029 0.97227 0.0
C486 C 0.28536 0.14893 0.99206 0.0
C487 C 0.33723 0.21937 0.82839 0.0
C488 C 0.38265 0.23385 0.67497 0.0
C489 C 0.39107 0.19318 0.66656 0.0
C490 C 0.42501 0.19766 0.63977 0.0
C491 C 0.44949 0.24316 0.62089 0.0
C492 C 0.40756 0.27883 0.65563 0.0
C493 C 0.44065 0.28334 0.62864 0.0
C494 C 0.21344 0.19112 0.73637 0.0
C495 C 0.34779 0.22854 0.70385 0.0
H496 H 0.1486 0.31561 0.86212 0.0
H497 H 0.11305 0.26257 0.99157 0.0
H498 H 0.13533 0.16846 0.92118 0.0
H499 H 0.11602 0.18331 0.98671 0.0
H500 H 0.37209 0.15824 0.68149 0.0
H501 H 0.47585 0.24757 0.60041 0.0
H502 H 0.40145 0.31038 0.66142 0.0
H503 H 0.45985 0.31818 0.61391 0.0
Tb504 Tb 0.82189 0.208 0.79953 0.0
C505 C 0.72367 0.35278 0.67769 0.0
C506 C 0.78692 0.40712 0.64067 0.0
C507 C 0.70583 0.39506 0.60461 0.0
C508 C 0.77097 0.37352 0.67686 0.0
C509 C 0.69015 0.36434 0.64221 0.0
C510 C 0.75432 0.41644 0.60382 0.0
C511 C 0.62886 0.31979 0.68595 0.0
N512 N 0.71048 0.32394 0.71492 0.0
C513 C 0.66364 0.30971 0.72027 0.0
C514 C 0.6421 0.34634 0.64636 0.0
Tb515 Tb 0.77015 0.30456 0.76774 0.0
N516 N 0.801 0.36377 0.71322 0.0
C517 C 0.84649 0.39161 0.71758 0.0
C518 C 0.83471 0.43181 0.64348 0.0
C519 C 0.86426 0.4256 0.68274 0.0
H520 H 0.6522 0.28994 0.75062 0.0
H521 H 0.90093 0.44607 0.68588 0.0
H522 H 0.76601 0.44159 0.57539 0.0
H523 H 0.59183 0.30715 0.69014 0.0
H524 H 0.86976 0.38676 0.74742 0.0
H525 H 0.67294 0.053 0.82312 0.0
H526 H 0.84865 0.45655 0.61598 0.0
H527 H 0.92912 0.22809 0.862 0.0
H528 H 0.72452 0.1187 0.78005 0.0
H529 H 0.96057 0.20593 0.93905 0.0
H530 H 0.68072 0.40391 0.57673 0.0
H531 H 0.69127 0.03783 0.90314 0.0
H532 H 0.74846 0.05422 0.96938 0.0
H533 H 0.61514 0.35433 0.61992 0.0
H534 H 0.82756 0.09566 1.00115 0.0
N535 N 0.77155 0.143 0.83484 0.0
C536 C 0.73336 0.11344 0.81474 0.0
C537 C 0.71447 0.0665 0.88415 0.0
C538 C 0.75601 0.09371 0.90422 0.0
C539 C 0.70407 0.07515 0.83911 0.0
C540 C 0.78484 0.13152 0.87828 0.0
H541 H 0.90739 0.15109 0.98983 0.0
N542 N 0.85813 0.18752 0.86942 0.0
C543 C 0.92359 0.19147 0.92751 0.0
C544 C 0.82951 0.15454 0.89617 0.0
C545 C 0.90574 0.20368 0.88392 0.0
C546 C 0.89341 0.16068 0.95608 0.0
C547 C 0.84614 0.14077 0.94037 0.0
O548 O 0.82447 0.17247 0.75096 0.0
O549 O 0.82244 0.27415 0.75258 0.0
O550 O 0.73972 0.26408 0.71608 0.0
O551 O 0.76135 0.19344 0.74691 0.0
O552 O 0.88491 0.25937 0.77547 0.0
O553 O 0.86774 0.16415 0.81225 0.0
O554 O 0.731 0.3211 0.80688 0.0
O555 O 0.77059 0.23776 0.81375 0.0
O556 O 0.84948 0.25433 0.8475 0.0
O557 O 0.83773 0.32519 0.80923 0.0
O558 O 0.7077 0.25216 0.79359 0.0
O559 O 0.79774 0.36839 0.79095 0.0
C560 C 0.86658 0.28966 0.74764 0.0
C561 C 0.90217 0.16863 0.75142 0.0
C562 C 0.93948 0.1579 0.69545 0.0
C563 C 0.8998 0.14726 0.71648 0.0
C564 C 0.98135 0.19079 0.70866 0.0
C565 C 0.9449 0.20047 0.76543 0.0
C566 C 0.98398 0.21199 0.74363 0.0
C567 C 0.73837 0.21982 0.71584 0.0
C568 C 0.86004 0.1572 0.77292 0.0
C569 C 0.81576 0.10608 0.96698 0.0
C570 C 0.77071 0.08255 0.94892 0.0
C571 C 0.72669 0.22064 0.81818 0.0
C572 C 0.743 0.40156 0.80702 0.0
C573 C 0.73532 0.41114 0.84512 0.0
C574 C 0.713 0.44618 0.84342 0.0
C575 C 0.70064 0.47368 0.80334 0.0
C576 C 0.73063 0.42883 0.76685 0.0
C577 C 0.70979 0.46515 0.76517 0.0
C578 C 0.85609 0.30003 0.84409 0.0
C579 C 0.7618 0.36128 0.81087 0.0
H580 H 0.8675 0.12185 0.70606 0.0
H581 H 1.01212 0.19934 0.69238 0.0
H582 H 0.94836 0.21648 0.7932 0.0
H583 H 1.0165 0.23688 0.75422 0.0
H584 H 0.74406 0.38938 0.87607 0.0
H585 H 0.68294 0.50073 0.80158 0.0
H586 H 0.73664 0.4218 0.7371 0.0
H587 H 0.70006 0.48618 0.73426 0.0
Tb588 Tb 0.77226 0.71527 0.74776 0.0
C589 C 0.90661 0.86913 0.85352 0.0
C590 C 0.92034 0.82594 0.92632 0.0
C591 C 0.97327 0.90319 0.90429 0.0
C592 C 0.89413 0.82953 0.88438 0.0
C593 C 0.94595 0.90697 0.86315 0.0
C594 C 0.9603 0.86279 0.93596 0.0
C595 C 0.9239 0.952 0.79352 0.0
N596 N 0.8782 0.87183 0.81494 0.0
C597 C 0.88455 0.91397 0.78637 0.0
C598 C 0.95531 0.94821 0.83185 0.0
Tb599 Tb 0.81237 0.80921 0.80639 0.0
N600 N 0.85613 0.79431 0.87322 0.0
C601 C 0.84203 0.75465 0.90331 0.0
C602 C 0.90571 0.78533 0.95712 0.0
C603 C 0.86638 0.74941 0.94546 0.0
H604 H 0.8581 0.91952 0.75908 0.0
H605 H 0.85474 0.71765 0.96889 0.0
H606 H 0.98113 0.86053 0.96782 0.0
H607 H 0.92891 0.9848 0.77018 0.0
H608 H 0.81185 0.72711 0.89518 0.0
H609 H 0.74048 0.79373 0.57865 0.0
H610 H 0.92471 0.78119 0.98972 0.0
H611 H 0.69189 0.61645 0.79313 0.0
H612 H 0.78814 0.76604 0.64617 0.0
H613 H 0.606 0.59145 0.794 0.0
H614 H 1.00369 0.93178 0.91227 0.0
H615 H 0.65523 0.78513 0.57722 0.0
H616 H 0.58362 0.75355 0.61578 0.0
H617 H 0.98515 0.97809 0.83788 0.0
H618 H 0.54674 0.69948 0.6773 0.0
N619 N 0.73088 0.74259 0.68339 0.0
C620 C 0.75114 0.7622 0.64637 0.0
C621 C 0.67604 0.77272 0.60693 0.0
C622 C 0.65488 0.74975 0.64408 0.0
C623 C 0.72408 0.77751 0.60767 0.0
C624 C 0.68337 0.73336 0.68174 0.0
H625 H 0.55463 0.63725 0.74366 0.0
N626 N 0.69108 0.68077 0.74724 0.0
C627 C 0.62149 0.62338 0.77237 0.0
C628 C 0.66278 0.70231 0.71573 0.0
C629 C 0.67049 0.63836 0.77216 0.0
C630 C 0.59266 0.64937 0.74405 0.0
C631 C 0.61296 0.68781 0.71359 0.0
O632 O 0.74806 0.65074 0.7254 0.0
O633 O 0.825 0.74118 0.80193 0.0
O634 O 0.86988 0.81995 0.76901 0.0
O635 O 0.82939 0.77229 0.71768 0.0
O636 O 0.81482 0.67438 0.79519 0.0
O637 O 0.8142 0.69909 0.71052 0.0
O638 O 0.78419 0.86736 0.7971 0.0
O639 O 0.75877 0.78165 0.75322 0.0
O640 O 0.7473 0.686 0.81068 0.0
O641 O 0.75517 0.75412 0.83618 0.0
O642 O 0.79249 0.85142 0.74324 0.0
O643 O 0.77701 0.81438 0.85522 0.0
C644 C 0.84387 0.70516 0.81667 0.0
C645 C 0.80844 0.617 0.71983 0.0
C646 C 0.86367 0.57832 0.70565 0.0
C647 C 0.84233 0.61609 0.69533 0.0
C648 C 0.85116 0.54165 0.74071 0.0
C649 C 0.79624 0.57959 0.75473 0.0
C650 C 0.81785 0.5425 0.76521 0.0
C651 C 0.86635 0.80518 0.7322 0.0
C652 C 0.78625 0.65696 0.70884 0.0
C653 C 0.58491 0.70922 0.67891 0.0
C654 C 0.60588 0.73992 0.64387 0.0
C655 C 0.7593 0.82062 0.72515 0.0
C656 C 0.77154 0.89062 0.85825 0.0
C657 C 0.73176 0.88971 0.87577 0.0
C658 C 0.7328 0.92625 0.89651 0.0
C659 C 0.77389 0.96376 0.89973 0.0
C660 C 0.81254 0.92818 0.86195 0.0
C661 C 0.81358 0.96463 0.88253 0.0
C662 C 0.73791 0.70834 0.83716 0.0
C663 C 0.76769 0.85368 0.83386 0.0
H664 H 0.85175 0.64433 0.66807 0.0
H665 H 0.86696 0.5122 0.7489 0.0
H666 H 0.77059 0.57929 0.77441 0.0
H667 H 0.80891 0.51437 0.79256 0.0
H668 H 0.70001 0.86068 0.87331 0.0
H669 H 0.77543 0.9919 0.91616 0.0
H670 H 0.8435 0.92973 0.84869 0.0
H671 H 0.84525 0.99356 0.88524 0.0
Fe672 Fe 1.03477 0.09902 0.50967 0.0
O673 O 1.00868 0.03524 0.55138 0.0
Fe674 Fe 0.12461 0.05339 0.51573 0.0
Fe675 Fe 0.96808 0.98159 0.52695 0.0
O676 O 0.06348 0.06157 0.48723 0.0
O677 O 0.06454 0.99155 0.53284 0.0
O678 O 1.036 0.97995 0.52663 0.0
Fe679 Fe 0.05566 0.91873 0.53165 0.0
C680 C 0.96936 0.08795 0.55565 0.0
O681 O 0.97965 0.09355 0.45947 0.0
O682 O 0.96788 0.02009 0.46817 0.0
O683 O 0.09675 0.94623 0.48029 0.0
O684 O 0.12308 0.02714 0.46244 0.0
O685 O 0.13941 0.12287 0.48062 0.0
O686 O 0.07581 0.15517 0.47052 0.0
O687 O 0.93696 0.92323 0.49735 0.0
O688 O 0.99893 0.90595 0.48297 0.0
C689 C 0.1174 0.15546 0.46302 0.0
O690 O 0.11628 0.92158 0.57878 0.0
O691 O 0.11401 0.98921 0.54917 0.0
O692 O 0.99331 0.1258 0.53356 0.0
O693 O 0.98331 0.04818 0.55804 0.0
C694 C 0.95021 0.05434 0.45885 0.0
C695 C 0.95537 0.9051 0.47535 0.0
C696 C 0.98587 0.90259 0.60131 0.0
O697 O 0.96937 0.93861 0.58572 0.0
O698 O 1.01446 0.891 0.58311 0.0
C699 C 0.11648 0.98515 0.45591 0.0
O700 O 0.13285 0.07641 0.57388 0.0
O701 O 0.08464 0.1206 0.55934 0.0
C702 C 0.13857 0.96403 0.57341 0.0
C703 C 0.11837 0.10758 0.58349 0.0
Fe704 Fe 0.53205 0.95308 0.03888 0.0
O705 O 0.57427 0.0139 0.05605 0.0
Fe706 Fe 0.42566 0.98403 0.99912 0.0
Fe707 Fe 0.64416 0.03249 0.05839 0.0
O708 O 0.49497 0.99821 1.00096 0.0
O709 O 0.49577 1.00571 0.99719 0.0
O710 O 0.57518 0.02058 0.05232 0.0
Fe711 Fe 0.53688 0.06578 1.01756 0.0
C712 C 0.62119 0.93042 0.11083 0.0
O713 O 0.57005 0.9612 0.98926 0.0
O714 O 0.64404 0.98372 1.02221 0.0
O715 O 0.48489 0.10291 0.97623 0.0
O716 O 0.42529 0.04337 0.94941 0.0
O717 O 0.42638 0.93579 0.96294 0.0
O718 O 0.48029 0.89767 1.00791 0.0
O719 O 0.64982 0.08407 1.00117 0.0
O720 O 0.5781 0.08747 0.96561 0.0
C721 C 0.44618 0.90093 0.97465 0.0
O722 O 0.50157 0.05158 0.07008 0.0
O723 O 0.42637 0.02828 0.04121 0.0
O724 O 0.58227 0.91574 0.08354 0.0
O725 O 0.63939 0.97538 0.11174 0.0
C726 C 0.61406 0.96455 0.99285 0.0
C727 C 0.62364 0.09891 0.96705 0.0
C728 C 0.62003 0.11745 0.08106 0.0
O729 O 0.64244 0.08459 0.09079 0.0
O730 O 0.58511 0.12013 0.04918 0.0
C731 C 0.44544 0.08802 0.94974 0.0
O732 O 0.42305 0.92652 0.05042 0.0
O733 O 0.49213 0.94012 0.09061 0.0
C734 C 0.45808 0.04703 0.06983 0.0
C735 C 0.44706 0.92319 0.0879 0.0
Fe736 Fe 0.05613 0.5673 1.0177 0.0
O737 O 1.00696 0.50984 1.0006 0.0
Fe738 Fe 0.15596 0.51931 0.05739 0.0
Fe739 Fe 0.93828 0.49746 1.00651 0.0
O740 O 0.08854 0.51709 0.05385 0.0
O741 O 0.08784 0.51035 0.05732 0.0
O742 O 1.00592 0.50294 1.0051 0.0
Fe743 Fe 1.04011 0.45333 0.03936 0.0
C744 C 0.98298 0.56787 0.06873 0.0
O745 O 1.01023 0.61065 0.97426 0.0
O746 O 0.94175 0.55497 0.95462 0.0
O747 O 0.0735 0.45975 0.98653 0.0
O748 O 0.14627 0.46734 1.02059 0.0
O749 O 0.1638 0.569 1.00147 0.0
O750 O 0.09534 0.58108 0.96568 0.0
O751 O 0.92978 0.44363 0.9732 0.0
O752 O 0.98469 0.40264 1.01054 0.0
C753 C 0.14058 0.58857 0.96836 0.0
O754 O 0.08477 0.40897 0.08037 0.0
O755 O 0.14797 0.46276 0.11035 0.0
O756 O 1.02342 0.56195 0.07012 0.0
O757 O 0.94765 0.54876 0.04348 0.0
C758 C 0.96814 0.59857 0.95029 0.0
C759 C 0.94922 0.40872 0.98035 0.0
C760 C 0.96144 0.43044 0.09463 0.0
O761 O 0.9335 0.4447 0.06207 0.0
O762 O 1.00591 0.44059 0.09354 0.0
C763 C 0.1148 0.45456 0.98918 0.0
O764 O 0.16312 0.57517 0.08908 0.0
O765 O 0.11151 0.61787 0.04646 0.0
C766 C 0.12358 0.41929 0.10855 0.0
C767 C 0.14511 0.61149 0.07854 0.0
Fe768 Fe 0.53028 0.50544 0.92888 0.0
O769 O 0.53516 0.49199 0.99097 0.0
Fe770 Fe 0.48136 0.49073 1.02427 0.0
Fe771 Fe 0.59037 0.52065 0.03058 0.0
O772 O 0.53104 0.48799 0.99192 0.0
O773 O 0.53662 0.52525 0.0621 0.0
O774 O 0.54243 0.52999 0.06111 0.0
Fe775 Fe 0.54701 0.50462 0.12565 0.0
C776 C 0.62288 0.47962 0.96407 0.0
O777 O 0.58384 0.5659 0.92718 0.0
O778 O 0.6025 0.58737 0.99186 0.0
O779 O 0.49049 0.53171 0.12051 0.0
O780 O 0.43762 0.50059 0.06416 0.0
O781 O 0.47631 0.55408 0.98559 0.0
O782 O 0.48131 0.54121 0.92163 0.0
O783 O 0.64328 0.55412 0.07742 0.0
O784 O 0.60021 0.56557 0.12424 0.0
C785 C 0.46379 0.55887 0.94486 0.0
O786 O 0.49669 0.44078 0.12713 0.0
O787 O 0.48166 0.42465 0.06105 0.0
O788 O 0.58236 0.47224 0.93953 0.0
O789 O 0.63384 0.50244 0.99625 0.0
C790 C 0.60635 0.59523 0.95167 0.0
C791 C 0.63788 0.57638 0.10588 0.0
C792 C 0.60115 0.44764 0.10192 0.0
O793 O 0.57704 0.45432 0.06587 0.0
O794 O 0.60056 0.47193 0.12913 0.0
C795 C 0.44878 0.52169 0.09773 0.0
O796 O 0.43021 0.45317 0.97982 0.0
O797 O 0.47491 0.44678 0.93146 0.0
C798 C 0.47907 0.41196 0.10128 0.0
C799 C 0.43686 0.43435 0.94948 0.0
Fe800 Fe 0.05359 0.40003 0.5396 0.0
O801 O 0.06431 0.46949 0.53394 0.0
Fe802 Fe 1.03118 0.5067 0.47142 0.0
Fe803 Fe 0.04821 0.49667 0.57902 0.0
O804 O 0.06123 0.46981 0.52684 0.0
O805 O 1.01304 0.53269 0.51614 0.0
O806 O 1.01602 0.53223 0.5238 0.0
Fe807 Fe 1.02342 0.60213 0.51033 0.0
C808 C 0.98267 0.39887 0.60207 0.0
O809 O 0.11052 0.41024 0.58858 0.0
O810 O 0.08898 0.45233 0.62897 0.0
O811 O 0.06719 0.6224 0.46096 0.0
O812 O 0.0947 0.5605 0.46762 0.0
O813 O 0.06262 0.47338 0.43673 0.0
O814 O 0.09377 0.41893 0.48979 0.0
O815 O 0.11075 0.55308 0.58119 0.0
O816 O 0.08215 0.61574 0.55476 0.0
C817 C 0.09015 0.44439 0.45122 0.0
O818 O 0.96603 0.59153 0.46195 0.0
O819 O 0.99154 0.55304 0.421 0.0
O820 O 1.00887 0.37951 0.58913 0.0
O821 O 0.98516 0.44258 0.58713 0.0
C822 C 0.11339 0.42337 0.62484 0.0
C823 C 0.11321 0.59707 0.5788 0.0
C824 C 0.99162 0.55762 0.60137 0.0
O825 O 1.0201 0.52987 0.61489 0.0
O826 O 0.98644 0.58314 0.56273 0.0
C827 C 0.09714 0.60414 0.45268 0.0
O828 O 0.96797 0.45126 0.4669 0.0
O829 O 0.99577 0.38753 0.49182 0.0
C830 C 0.96512 0.58025 0.42522 0.0
C831 C 0.96494 0.40743 0.46826 0.0
Fe832 Fe 0.54052 0.95526 0.53117 0.0
O833 O 0.57746 1.01071 0.55945 0.0
Fe834 Fe 0.50396 0.01558 0.42584 0.0
Fe835 Fe 0.58326 1.00767 0.62252 0.0
O836 O 0.51204 1.00636 0.49047 0.0
O837 O 0.5126 0.01361 0.48868 0.0
O838 O 0.57772 0.01783 0.55787 0.0
Fe839 Fe 0.55031 0.06933 0.51642 0.0
C840 C 0.48961 0.92785 0.61155 0.0
O841 O 0.58223 0.91188 0.58135 0.0
O842 O 0.62712 0.96364 0.62617 0.0
O843 O 0.60431 0.08716 0.47722 0.0
O844 O 0.56185 0.07464 0.41343 0.0
O845 O 0.54514 0.97063 0.42706 0.0
O846 O 0.59157 0.96697 0.4906 0.0
O847 O 0.63259 0.07253 0.61149 0.0
O848 O 0.59584 0.11843 0.55441 0.0
C849 C 0.58028 0.95866 0.45178 0.0
O850 O 0.51129 0.11432 0.4682 0.0
O851 O 0.46431 0.06423 0.42281 0.0
O852 O 0.48648 0.9362 0.57022 0.0
O853 O 0.5281 0.94642 0.63402 0.0
C854 C 0.61728 0.92353 0.61324 0.0
C855 C 0.62745 0.11295 0.58863 0.0
C856 C 0.50533 0.0634 0.59436 0.0
O857 O 0.53635 0.04636 0.62077 0.0
O858 O 0.49858 0.06015 0.55439 0.0
C859 C 0.59996 0.09462 0.43573 0.0
O860 O 0.45258 0.95277 0.43895 0.0
O861 O 0.49285 0.90634 0.49253 0.0
C862 C 0.47555 0.10384 0.43711 0.0
C863 C 0.45895 0.91205 0.45999 0.0
C864 C 0.15635 0.21556 0.35315 0.0
C865 C 0.2057 0.2346 0.36637 0.0
C866 C 0.18868 0.21876 0.44203 0.0
C867 C 0.14206 0.19253 0.42933 0.0
N868 N 0.0814 0.16359 0.37279 0.0
N869 N 0.2615 0.27332 0.42283 0.0
C870 C 0.12553 0.1912 0.3848 0.0
C871 C 0.21996 0.24196 0.41055 0.0
N872 N 0.138 0.22343 0.31029 0.0
N873 N 0.20396 0.2192 0.48521 0.0
H874 H 0.28482 0.29508 0.40245 0.0
H875 H 0.27039 0.28357 0.45291 0.0
H876 H 0.18089 0.20677 0.50844 0.0
H877 H 0.23944 0.22903 0.49848 0.0
H878 H 0.10186 0.2145 0.2991 0.0
H879 H 0.15803 0.24437 0.28627 0.0
H880 H 0.07002 0.15522 0.34196 0.0
H881 H 0.05703 0.14649 0.39437 0.0
C882 C 0.82751 0.07337 0.43242 0.0
C883 C 0.80763 0.02954 0.41817 0.0
C884 C 0.869 1.00151 0.46813 0.0
C885 C 0.8991 0.04798 0.46166 0.0
N886 N 0.90142 0.1318 0.44619 0.0
N887 N 0.80607 0.94664 0.43199 0.0
C888 C 0.87671 0.08551 0.44751 0.0
C889 C 0.82662 0.99139 0.43951 0.0
N890 N 0.80127 0.10503 0.42486 0.0
N891 N 0.87641 0.97033 0.50505 0.0
H892 H 0.77408 0.93767 0.41187 0.0
H893 H 0.82221 0.91925 0.44551 0.0
H894 H 0.90115 0.9816 0.53092 0.0
H895 H 0.853 0.93685 0.51187 0.0
H896 H 0.8134 0.13719 0.43569 0.0
H897 H 0.76595 0.09632 0.41082 0.0
H898 H 0.88693 0.15969 0.43017 0.0
H899 H 0.93566 0.14256 0.46196 0.0
C900 C 0.89391 0.80555 0.41188 0.0
C901 C 0.87375 0.82978 0.37202 0.0
C902 C 0.90944 0.90447 0.39951 0.0
C903 C 0.92491 0.87938 0.44055 0.0
N904 N 0.92296 0.80459 0.48833 0.0
N905 N 0.85227 0.90155 0.33443 0.0
C906 C 0.91422 0.82948 0.44747 0.0
C907 C 0.87871 0.87909 0.36765 0.0
N908 N 0.89654 0.76045 0.4154 0.0
N909 N 0.92543 0.95257 0.39009 0.0
H910 H 0.82687 0.88393 0.31222 0.0
H911 H 0.85138 0.93634 0.33215 0.0
H912 H 0.94922 0.97206 0.41189 0.0
H913 H 0.91911 0.97231 0.35924 0.0
H914 H 0.91563 0.74328 0.44168 0.0
H915 H 0.88403 0.74182 0.39022 0.0
H916 H 0.91105 0.76786 0.49631 0.0
H917 H 0.93808 0.82087 0.51511 0.0
C918 C 0.19537 1.00733 0.36992 0.0
C919 C 0.16658 0.97532 0.34314 0.0
C920 C 0.103 0.95426 0.38728 0.0
C921 C 0.13374 0.98178 0.4171 0.0
N922 N 0.21262 0.02766 0.44108 0.0
N923 N 0.09679 0.91165 0.33036 0.0
C924 C 0.18087 1.00681 0.40953 0.0
C925 C 0.12146 0.9468 0.35296 0.0
N926 N 0.23681 0.03769 0.35777 0.0
N927 N 0.05573 0.93721 0.39039 0.0
H928 H 0.1074 0.90691 0.30298 0.0
H929 H 0.06802 0.88487 0.34126 0.0
H930 H 1.04004 0.94518 0.41295 0.0
H931 H 1.03127 0.91935 0.36782 0.0
H932 H 0.25706 0.06496 0.37394 0.0
H933 H 0.24897 0.03828 0.32928 0.0
H934 H 0.24859 0.04191 0.43899 0.0
H935 H 0.20436 0.02669 0.4714 0.0
C936 C 0.27197 0.99014 0.58106 0.0
C937 C 0.2858 1.00765 0.61996 0.0
C938 C 0.20444 1.00696 0.62244 0.0
C939 C 0.18953 0.9818 0.5876 0.0
N940 N 0.20793 0.94791 0.53385 0.0
N941 N 0.27009 0.04167 0.67374 0.0
C942 C 0.22301 0.97399 0.56609 0.0
C943 C 0.25356 0.02143 0.63779 0.0
N944 N 0.30603 0.98527 0.56116 0.0
N945 N 0.17145 0.01395 0.6425 0.0
H946 H 0.30637 0.05349 0.68397 0.0
H947 H 0.24883 0.04554 0.69388 0.0
H948 H 0.17939 0.03324 0.66723 0.0
H949 H 0.13508 1.00052 0.63412 0.0
H950 H 0.29984 0.976 0.5308 0.0
H951 H 0.34161 0.99386 0.57462 0.0
H952 H 0.23031 0.93782 0.51906 0.0
H953 H 0.17235 0.93366 0.52331 0.0
C954 C 0.13616 0.15554 0.69018 0.0
C955 C 0.18473 0.15921 0.70478 0.0
C956 C 0.19055 0.13314 0.63869 0.0
C957 C 0.14172 0.12967 0.6235 0.0
N958 N 0.07607 0.16017 0.62856 0.0
N959 N 0.25384 0.13728 0.69949 0.0
C960 C 0.11644 0.14686 0.64741 0.0
C961 C 0.21033 0.14334 0.68088 0.0
N962 N 0.10788 0.15861 0.71737 0.0
N963 N 0.21932 0.13151 0.61112 0.0
H964 H 0.2661 0.13876 0.73206 0.0
H965 H 0.27605 0.12729 0.68451 0.0
H966 H 0.20791 0.13073 0.57831 0.0
H967 H 0.25588 0.13763 0.61868 0.0
H968 H 0.07112 0.15066 0.70997 0.0
H969 H 0.11991 0.16229 0.74945 0.0
H970 H 0.06039 0.17785 0.64338 0.0
H971 H 0.0611 0.16036 0.59653 0.0
C972 C 0.9635 0.09697 0.67152 0.0
C973 C 0.93868 0.13208 0.6615 0.0
C974 C 0.91905 0.12077 0.58666 0.0
C975 C 0.95359 0.09521 0.59413 0.0
N976 N 1.01357 0.06332 0.64591 0.0
N977 N 0.89331 0.17928 0.60914 0.0
C978 C 0.97651 0.08332 0.6373 0.0
C979 C 0.91612 0.14431 0.61899 0.0
N980 N 0.97549 0.07747 0.71376 0.0
N981 N 0.88823 0.1213 0.54909 0.0
H982 H 0.89021 0.19711 0.63224 0.0
H983 H 0.8805 0.19281 0.57752 0.0
H984 H 0.88723 0.1004 0.52714 0.0
H985 H 0.86014 0.13673 0.54287 0.0
H986 H 0.9894 0.04823 0.72277 0.0
H987 H 0.96687 0.08729 0.73967 0.0
H988 H 1.03364 0.0588 0.67639 0.0
H989 H 1.02915 0.05688 0.62269 0.0
C990 C 0.9196 0.87827 0.69242 0.0
C991 C 0.90454 0.82842 0.70385 0.0
C992 C 0.95247 0.82362 0.65159 0.0
C993 C 0.96936 0.87404 0.64313 0.0
N994 N 0.9849 0.94471 0.67282 0.0
N995 N 0.92012 0.75445 0.7039 0.0
C996 C 0.95915 0.89938 0.67041 0.0
C997 C 0.92532 0.80118 0.68652 0.0
N998 N 0.89249 0.90556 0.69635 0.0
N999 N 0.95986 0.79704 0.62581 0.0
H1000 H 0.9032 0.73849 0.73113 0.0
H1001 H 0.93732 0.73364 0.69468 0.0
H1002 H 0.98017 0.81097 0.60069 0.0
H1003 H 0.94335 0.76096 0.62813 0.0
H1004 H 0.90106 0.94216 0.68565 0.0
H1005 H 0.8582 0.89038 0.70334 0.0
H1006 H 0.97886 0.96356 0.6937 0.0
H1007 H 1.01502 0.9608 0.6575 0.0
C1008 C 0.40735 0.12553 0.11232 0.0
C1009 C 0.39023 0.09441 0.14964 0.0
C1010 C 0.43458 0.03996 0.14362 0.0
C1011 C 0.44402 0.06707 0.10231 0.0
N1012 N 0.46563 0.14686 0.06325 0.0
N1013 N 0.40097 0.0319 0.20946 0.0
C1014 C 0.43866 0.11359 0.09145 0.0
C1015 C 0.40877 0.05495 0.16844 0.0
N1016 N 0.39232 0.16547 0.09592 0.0
N1017 N 0.45058 1.00048 0.15878 0.0
H1018 H 0.38221 0.04268 0.22765 0.0
H1019 H 0.41473 1.00391 0.22636 0.0
H1020 H 0.47254 0.99175 0.14231 0.0
H1021 H 0.4434 0.97718 0.18763 0.0
H1022 H 0.39967 0.18679 0.06614 0.0
H1023 H 0.37092 0.17609 0.11157 0.0
H1024 H 0.46653 0.1826 0.05711 0.0
H1025 H 0.4901 0.13896 0.04901 0.0
C1026 C 0.92745 0.38173 0.21115 0.0
C1027 C 0.88328 0.34694 0.20287 0.0
C1028 C 0.89957 0.35952 0.12732 0.0
C1029 C 0.9395 0.3984 0.13389 0.0
N1030 N 0.99029 0.4482 0.18282 0.0
N1031 N 0.82296 0.31525 0.14661 0.0
C1032 C 0.95358 0.40939 0.17623 0.0
C1033 C 0.86854 0.3386 0.1594 0.0
N1034 N 0.94464 0.38923 0.25249 0.0
N1035 N 0.89073 0.34238 0.0898 0.0
H1036 H 0.79733 0.30241 0.16695 0.0
H1037 H 0.80901 0.31365 0.11431 0.0
H1038 H 0.91254 0.35642 0.06574 0.0
H1039 H 0.86481 0.31141 0.08463 0.0
H1040 H 0.97919 0.40813 0.2618 0.0
H1041 H 0.92596 0.37396 0.27862 0.0
H1042 H 0.99833 0.46256 0.21082 0.0
H1043 H 1.0107 0.46881 0.1589 0.0
C1044 C 0.65469 0.81366 0.181 0.0
C1045 C 0.70338 0.82961 0.20057 0.0
C1046 C 0.69896 0.9104 0.15901 0.0
C1047 C 0.64917 0.89506 0.14208 0.0
N1048 N 0.5787 0.83124 0.15288 0.0
N1049 N 0.76153 0.89901 0.21932 0.0
C1050 C 0.62697 0.8464 0.15749 0.0
C1051 C 0.72234 0.87976 0.19282 0.0
N1052 N 0.63389 0.7663 0.18455 0.0
N1053 N 0.72545 0.95387 0.14191 0.0
H1054 H 0.7788 0.87817 0.24399 0.0
H1055 H 0.7741 0.93525 0.21914 0.0
H1056 H 0.71475 0.97313 0.11211 0.0
H1057 H 0.76074 0.96777 0.15381 0.0
H1058 H 0.60093 0.75222 0.16769 0.0
H1059 H 0.65225 0.74118 0.19914 0.0
H1060 H 0.56031 0.79792 0.1676 0.0
H1061 H 0.55694 0.85369 0.13971 0.0
C1062 C 0.22384 0.70081 0.14558 0.0
C1063 C 0.19452 0.69978 0.17589 0.0
C1064 C 0.1327 0.63878 0.14294 0.0
C1065 C 0.15981 0.64496 0.1094 0.0
N1066 N 0.22386 0.69549 0.07167 0.0
N1067 N 0.11479 0.67758 0.19281 0.0
C1068 C 0.20318 0.68025 0.10841 0.0
C1069 C 0.1469 0.67184 0.17133 0.0
N1070 N 0.27161 0.71882 0.15299 0.0
N1071 N 0.0948 0.60038 0.1492 0.0
H1072 H 0.12324 0.70464 0.21025 0.0
H1073 H 0.07887 0.66016 0.18798 0.0
H1074 H 0.08585 0.57342 0.13138 0.0
H1075 H 0.07606 0.59284 0.17529 0.0
H1076 H 0.29432 0.71647 0.13325 0.0
H1077 H 0.28851 0.73164 0.18108 0.0
H1078 H 0.25472 0.72307 0.0689 0.0
H1079 H 0.20568 0.6856 0.04259 0.0
C1080 C 0.34905 0.81372 0.91338 0.0
C1081 C 0.37289 0.80832 0.88089 0.0
C1082 C 0.44898 0.85276 0.91943 0.0
C1083 C 0.42404 0.86154 0.94854 0.0
N1084 N 0.35355 0.83878 0.9816 0.0
N1085 N 0.44804 0.82453 0.85436 0.0
C1086 C 0.37496 0.83866 0.9477 0.0
C1087 C 0.4237 0.82736 0.88501 0.0
N1088 N 0.3011 0.79577 0.91135 0.0
N1089 N 0.49733 0.86828 0.92515 0.0
H1090 H 0.43363 0.80477 0.83023 0.0
H1091 H 0.48278 0.84378 0.85107 0.0
H1092 H 0.51635 0.88771 0.94899 0.0
H1093 H 0.51915 0.85876 0.90926 0.0
H1094 H 0.28046 0.80547 0.92839 0.0
H1095 H 0.28106 0.77183 0.89174 0.0
H1096 H 0.3194 0.81887 0.98662 0.0
H1097 H 0.37188 0.85528 1.0076 0.0
C1098 C 0.17068 0.37192 0.95433 0.0
C1099 C 0.12996 0.34336 0.93248 0.0
C1100 C 0.08653 0.40157 0.93131 0.0
C1101 C 0.1236 0.42416 0.96104 0.0
N1102 N 0.2085 0.44599 0.97981 0.0
N1103 N 0.0483 0.33115 0.90004 0.0
C1104 C 0.16813 0.41382 0.96646 0.0
C1105 C 0.08784 0.3586 0.92044 0.0
N1106 N 0.21149 0.35792 0.96484 0.0
N1107 N 0.05266 0.42369 0.90983 0.0
H1108 H 0.04831 0.30051 0.89017 0.0
H1109 H 1.01499 0.3373 0.8954 0.0
H1110 H 0.05453 0.4581 0.9123 0.0
H1111 H 1.02787 0.41144 0.88439 0.0
H1112 H 0.24066 0.3727 0.98584 0.0
H1113 H 0.21506 0.32956 0.95373 0.0
H1114 H 0.24247 0.44259 0.98155 0.0
H1115 H 0.20847 0.4795 0.9832 0.0
C1116 C 0.71481 0.19894 0.89931 0.0
C1117 C 0.70217 0.18793 0.85691 0.0
C1118 C 0.63282 0.12388 0.88445 0.0
C1119 C 0.64869 0.1315 0.92814 0.0
N1120 N 0.70883 0.17723 0.97604 0.0
N1121 N 0.64004 0.14816 0.80734 0.0
C1122 C 0.69093 0.16906 0.93503 0.0
C1123 C 0.65832 0.15297 0.8492 0.0
N1124 N 0.74579 0.24155 0.90474 0.0
N1125 N 0.59505 0.08647 0.87659 0.0
H1126 H 0.65917 0.16454 0.78156 0.0
H1127 H 0.60539 0.12986 0.79766 0.0
H1128 H 0.57533 0.06437 0.90033 0.0
H1129 H 0.58497 0.07477 0.84718 0.0
H1130 H 0.75152 0.25548 0.93279 0.0
H1131 H 0.76255 0.26536 0.87976 0.0
H1132 H 0.74308 0.19776 0.9841 0.0
H1133 H 0.69049 0.16244 1.00244 0.0
C1134 C 0.92045 0.70921 0.88087 0.0
C1135 C 0.88632 0.68777 0.84849 0.0
C1136 C 0.92258 0.61862 0.87371 0.0
C1137 C 0.94688 0.63427 0.91304 0.0
N1138 N 0.96958 0.69968 0.95139 0.0
N1139 N 0.88945 0.64 0.79945 0.0
C1140 C 0.94627 0.68126 0.91566 0.0
C1141 C 0.89656 0.64688 0.84103 0.0
N1142 N 0.93603 0.75704 0.87327 0.0
N1143 N 0.92594 0.57712 0.8659 0.0
H1144 H 0.88146 0.66539 0.77316 0.0
H1145 H 0.89926 0.6137 0.79058 0.0
H1146 H 0.95236 0.56085 0.88231 0.0
H1147 H 0.90206 0.55879 0.84318 0.0
H1148 H 0.9656 0.77533 0.89177 0.0
H1149 H 0.92359 0.77682 0.84434 0.0
H1150 H 0.96801 0.73217 0.95618 0.0
H1151 H 0.98817 0.68123 0.97697 0.0
C1152 C 0.1833 0.34622 0.21121 0.0
C1153 C 0.21069 0.32615 0.19283 0.0
C1154 C 0.16968 0.35619 0.11955 0.0
C1155 C 0.14604 0.38021 0.13776 0.0
N1156 N 0.12769 0.39476 0.20193 0.0
N1157 N 0.22067 0.30429 0.12888 0.0
C1158 C 0.15176 0.37356 0.18403 0.0
C1159 C 0.2008 0.32898 0.14679 0.0
N1160 N 0.18732 0.33868 0.2552 0.0
N1161 N 0.16457 0.36164 0.07547 0.0
H1162 H 0.24432 0.28642 0.14775 0.0
H1163 H 0.2122 0.29909 0.09698 0.0
H1164 H 0.13951 0.37715 0.05502 0.0
H1165 H 0.18573 0.35227 0.05875 0.0
H1166 H 0.16587 0.34739 0.27181 0.0
H1167 H 0.21072 0.32078 0.27544 0.0
H1168 H 0.13157 0.39534 0.23475 0.0
H1169 H 0.10331 0.41258 0.18322 0.0
C1170 C 0.17829 0.67155 0.86073 0.0
C1171 C 0.22846 0.68525 0.86907 0.0
C1172 C 0.21917 0.64635 0.94546 0.0
C1173 C 0.16995 0.62293 0.93379 0.0
N1174 N 0.10651 0.61021 0.87372 0.0
N1175 N 0.29667 0.68294 0.92359 0.0
C1176 C 0.15067 0.63444 0.88948 0.0
C1177 C 0.24865 0.67136 0.91264 0.0
N1178 N 0.15651 0.69914 0.82929 0.0
N1179 N 0.23816 0.64796 0.98777 0.0
H1180 H 0.3194 0.70773 0.90351 0.0
H1181 H 0.31368 0.66698 0.95225 0.0
H1182 H 0.21932 0.634 1.01375 0.0
H1183 H 0.27182 0.66893 0.99699 0.0
H1184 H 0.11983 0.69361 0.8228 0.0
H1185 H 0.17705 0.73254 0.81842 0.0
H1186 H 0.09294 0.61671 0.84091 0.0
H1187 H 0.08609 0.58045 0.89176 0.0
C1188 C 0.36909 0.14467 0.84739 0.0
C1189 C 0.3569 0.18046 0.86195 0.0
C1190 C 0.39969 0.15307 0.93473 0.0
C1191 C 0.4179 0.1226 0.91879 0.0
N1192 N 0.42268 0.09484 0.85567 0.0
N1193 N 0.37321 0.22429 0.91991 0.0
C1194 C 0.40299 0.11985 0.87387 0.0
C1195 C 0.37628 0.18636 0.90563 0.0
N1196 N 0.34789 0.13392 0.80788 0.0
N1197 N 0.40101 0.14774 0.97822 0.0
H1198 H 0.35527 0.24816 0.90086 0.0
H1199 H 0.39091 0.23324 0.94955 0.0
H1200 H 0.41135 0.11961 0.99944 0.0
H1201 H 0.38566 0.16654 0.9921 0.0
H1202 H 0.351 0.10551 0.79643 0.0
H1203 H 0.32317 0.15074 0.78859 0.0
H1204 H 0.41756 0.09503 0.82253 0.0
H1205 H 0.44804 0.07768 0.87324 0.0
C1206 C 0.88465 0.30336 0.92504 0.0
C1207 C 0.88622 0.32466 0.88024 0.0
C1208 C 0.93391 0.39964 0.90246 0.0
C1209 C 0.93319 0.37796 0.94686 0.0
N1210 N 0.92107 0.30529 0.99949 0.0
N1211 N 0.92805 0.38848 0.82942 0.0
C1212 C 0.91322 0.32854 0.95786 0.0
C1213 C 0.91532 0.37153 0.86988 0.0
N1214 N 0.85378 0.26055 0.93709 0.0
N1215 N 0.95319 0.44729 0.89101 0.0
H1216 H 0.91855 0.36778 0.80577 0.0
H1217 H 0.95291 0.42052 0.82108 0.0
H1218 H 0.9736 0.46863 0.91302 0.0
H1219 H 0.94779 0.46588 0.85947 0.0
H1220 H 0.84712 0.2469 0.96891 0.0
H1221 H 0.83126 0.24025 0.91555 0.0
H1222 H 0.91154 0.26851 1.00822 0.0
H1223 H 0.94177 0.32203 1.02445 0.0
C1224 C 0.65514 0.94331 0.89545 0.0
C1225 C 0.69258 0.92375 0.91839 0.0
C1226 C 0.66127 0.91126 0.98621 0.0
C1227 C 0.63172 0.94141 0.96526 0.0
N1228 N 0.59165 0.97685 0.89855 0.0
N1229 N 0.72684 0.88052 0.98337 0.0
C1230 C 0.62498 0.9536 0.91923 0.0
C1231 C 0.69387 0.90453 0.96313 0.0
N1232 N 0.64915 0.95245 0.85116 0.0
N1233 N 0.65676 0.8882 0.02782 0.0
H1234 H 0.75002 0.87355 0.96692 0.0
H1235 H 0.73189 0.86765 1.01639 0.0
H1236 H 0.63024 0.8898 0.04358 0.0
H1237 H 0.67514 0.86379 0.04506 0.0
H1238 H 0.62079 0.96351 0.83171 0.0
H1239 H 0.67145 0.94596 0.83341 0.0
H1240 H 0.58784 0.99092 0.86563 0.0
H1241 H 0.56719 0.9823 0.91439 0.0
C1242 C 0.93794 0.60647 0.15493 0.0
C1243 C 0.96075 0.65558 0.14862 0.0
C1244 C 0.99974 0.64747 0.091 0.0
C1245 C 0.9768 0.59804 0.09731 0.0
N1246 N 0.93503 0.52925 0.14283 0.0
N1247 N 1.00954 0.72458 0.10856 0.0
C1248 C 0.94848 0.57728 0.1311 0.0
C1249 C 0.99086 0.67651 0.11619 0.0
N1250 N 0.9054 0.58785 0.18317 0.0
N1251 N 1.03127 0.66638 0.06189 0.0
H1252 H 1.00399 0.74673 0.12651 0.0
H1253 H 1.02805 0.74342 0.08293 0.0
H1254 H 1.03707 0.64713 0.04147 0.0
H1255 H 0.05381 0.7004 0.05915 0.0
H1256 H 0.88345 0.55349 0.18568 0.0
H1257 H 0.89753 0.60803 0.20172 0.0
H1258 H 0.91918 0.51143 0.17032 0.0
H1259 H 0.94447 0.50732 0.12736 0.0
C1260 C 0.34319 0.84639 0.15183 0.0
C1261 C 0.36443 0.83667 0.19574 0.0
C1262 C 0.44211 0.88228 0.17053 0.0
C1263 C 0.42009 0.89592 0.12714 0.0
N1264 N 0.34454 0.90564 0.08664 0.0
N1265 N 0.43223 0.8636 0.24657 0.0
C1266 C 0.36914 0.88197 0.12061 0.0
C1267 C 0.41341 0.85998 0.20479 0.0
N1268 N 0.29743 0.82383 0.13969 0.0
N1269 N 0.48999 0.88927 0.1802 0.0
H1270 H 0.41045 0.85364 0.2706 0.0
H1271 H 0.46669 0.88311 0.25554 0.0
H1272 H 0.51369 0.9046 0.15804 0.0
H1273 H 0.506 0.87533 0.21038 0.0
H1274 H 0.28202 0.82472 0.1074 0.0
H1275 H 0.27581 0.80317 0.1622 0.0
H1276 H 0.30772 0.89681 0.08023 0.0
H1277 H 0.35995 0.93915 0.07001 0.0
C1278 C 0.68312 0.22791 0.13194 0.0
C1279 C 0.68177 0.20799 0.1769 0.0
C1280 C 0.62577 0.13491 0.15553 0.0
C1281 C 0.6341 0.15197 0.1118 0.0
N1282 N 0.66713 0.21593 0.05705 0.0
N1283 N 0.64748 0.14344 0.23105 0.0
C1284 C 0.66114 0.19918 0.09956 0.0
C1285 C 0.65131 0.16187 0.18837 0.0
N1286 N 0.70572 0.27437 0.12014 0.0
N1287 N 0.59233 0.09312 0.16534 0.0
H1288 H 0.6613 0.16378 0.25515 0.0
H1289 H 0.63181 0.10808 0.24285 0.0
H1290 H 0.57273 0.07325 0.1419 0.0
H1291 H 0.58085 0.08006 0.1955 0.0
H1292 H 0.70648 0.29258 0.08841 0.0
H1293 H 0.7208 0.29595 0.14275 0.0
H1294 H 0.6913 0.24731 0.04584 0.0
H1295 H 0.64828 0.19734 0.03256 0.0
C1296 C 0.6574 0.68684 0.86029 0.0
C1297 C 0.70416 0.68162 0.8686 0.0
C1298 C 0.69005 0.63735 0.94156 0.0
C1299 C 0.6415 0.63673 0.931 0.0
N1300 N 0.57807 0.65922 0.87969 0.0
N1301 N 0.76148 0.64301 0.91345 0.0
C1302 C 0.62528 0.66203 0.89047 0.0
C1303 C 0.71968 0.65457 0.90834 0.0
N1304 N 0.64318 0.71445 0.8228 0.0
N1305 N 0.70752 0.62053 0.983 0.0
H1306 H 0.78151 0.6509 0.88823 0.0
H1307 H 0.77438 0.62226 0.94121 0.0
H1308 H 0.68686 0.60849 1.008 0.0
H1309 H 0.74338 0.62337 0.99353 0.0
H1310 H 0.61153 0.724 0.81664 0.0
H1311 H 0.66367 0.72832 0.79781 0.0
H1312 H 0.56216 0.66773 0.84799 0.0
H1313 H 0.55442 0.64502 0.90236 0.0
C1314 C 0.33171 0.54256 0.93278 0.0
C1315 C 0.32122 0.52674 0.89254 0.0
C1316 C 0.40303 0.56107 0.88166 0.0
C1317 C 0.41626 0.56601 0.92541 0.0
N1318 N 0.39146 0.57033 0.99127 0.0
N1319 N 0.35192 0.51461 0.83229 0.0
C1320 C 0.38004 0.55911 0.95097 0.0
C1321 C 0.35884 0.53177 0.86946 0.0
N1322 N 0.29564 0.54529 0.95142 0.0
N1323 N 0.4339 0.58239 0.85228 0.0
H1324 H 0.31978 0.49313 0.82018 0.0
H1325 H 0.31978 0.49313 0.82018 0.0
H1326 H 0.46638 0.60617 0.86037 0.0
H1327 H 0.42519 0.5788 0.81978 0.0
H1328 H 0.30073 0.56121 0.97818 0.0
H1329 H 0.2603 0.53384 0.93805 0.0
H1330 H 0.36754 0.56028 1.01351 0.0
H1331 H 0.42492 0.59079 1.00182 0.0
C1332 C 0.40104 0.34408 0.88371 0.0
C1333 C 0.35901 0.35347 0.85871 0.0
C1334 C 0.35632 0.40141 0.91059 0.0
C1335 C 0.40036 0.39499 0.93234 0.0
N1336 N 0.45228 0.34441 0.95265 0.0
N1337 N 0.29618 0.39134 0.8477 0.0
C1338 C 0.41807 0.3604 0.92327 0.0
C1339 C 0.33617 0.38188 0.87237 0.0
N1340 N 0.4258 0.32115 0.86887 0.0
N1341 N 0.3332 0.42407 0.92778 0.0
H1342 H 0.2836 0.38115 0.81781 0.0
H1343 H 0.27735 0.41178 0.85489 0.0
H1344 H 0.34688 0.43635 0.95678 0.0
H1345 H 0.29873 0.42626 0.91633 0.0
H1346 H 0.45894 0.31693 0.88379 0.0
H1347 H 0.41504 0.31047 0.8392 0.0
H1348 H 0.46445 0.31634 0.95002 0.0
H1349 H 0.46472 0.35654 0.98196 0.0
C1350 C 0.7213 0.48691 0.90573 0.0
C1351 C 0.69706 0.44924 0.88317 0.0
C1352 C 0.6393 0.41909 0.93398 0.0
C1353 C 0.65785 0.46148 0.95078 0.0
N1354 N 0.72723 0.52361 0.96716 0.0
N1355 N 0.63304 0.37879 0.87525 0.0
C1356 C 0.70239 0.49177 0.94131 0.0
C1357 C 0.65685 0.41425 0.89793 0.0
N1358 N 0.76085 0.51925 0.89164 0.0
N1359 N 0.60347 0.38444 0.95197 0.0
H1360 H 0.64385 0.37433 0.8479 0.0
H1361 H 0.60047 0.35551 0.88143 0.0
H1362 H 0.58954 0.38841 0.97782 0.0
H1363 H 0.5908 0.3507 0.94442 0.0
H1364 H 0.77694 0.5507 0.90312 0.0
H1365 H 0.77651 0.5156 0.86675 0.0
H1366 H 0.76257 0.5419 0.96569 0.0
H1367 H 0.71471 0.52705 0.99391 0.0
C1368 C 0.67616 0.3987 0.05421 0.0
C1369 C 0.71979 0.43203 0.06302 0.0
C1370 C 0.68714 0.46393 0.10816 0.0
C1371 C 0.64272 0.43206 0.10022 0.0
N1372 N 0.59428 0.36549 0.06789 0.0
N1373 N 0.75758 0.51026 0.0791 0.0
C1374 C 0.63683 0.39832 0.07336 0.0
C1375 C 0.72038 0.47104 0.08053 0.0
N1376 N 0.67526 0.3644 0.03265 0.0
N1377 N 0.69968 0.48329 0.14452 0.0
H1378 H 0.78407 0.51666 0.05994 0.0
H1379 H 0.78407 0.51666 0.05994 0.0
H1380 H 0.6774 0.47492 0.16804 0.0
H1381 H 0.73481 0.50081 0.15397 0.0
H1382 H 0.6464 0.33549 0.02819 0.0
H1383 H 0.70506 0.3655 1.01964 0.0
H1384 H 0.58666 0.34045 0.0482 0.0
H1385 H 0.56652 0.363 0.0843 0.0
C1386 C 0.74018 0.64002 0.17571 0.0
C1387 C 0.72386 0.67915 0.17746 0.0
C1388 C 0.66171 0.66009 0.11675 0.0
C1389 C 0.67505 0.61844 0.1184 0.0
N1390 N 0.74225 0.58784 0.12942 0.0
N1391 N 0.68619 0.73846 0.13329 0.0
C1392 C 0.71893 0.61368 0.14202 0.0
C1393 C 0.68996 0.69322 0.14286 0.0
N1394 N 0.77658 0.62861 0.20521 0.0
N1395 N 0.62157 0.66763 0.09066 0.0
H1396 H 0.70649 0.76391 0.15123 0.0
H1397 H 0.66573 0.75159 0.10552 0.0
H1398 H 0.60237 0.64587 0.06852 0.0
H1399 H 0.6068 0.69433 0.09226 0.0
H1400 H 0.78643 0.59761 0.20773 0.0
H1401 H 0.79569 0.64946 0.22792 0.0
H1402 H 0.7767 0.58652 0.14284 0.0
H1403 H 0.72902 0.57337 0.10149 0.0
C1404 C 0.40917 0.59261 0.15589 0.0
C1405 C 0.36856 0.55953 0.17186 0.0
C1406 C 0.3715 0.50466 0.12738 0.0
C1407 C 0.41282 0.53735 0.1124 0.0
N1408 N 0.45864 0.61851 0.09883 0.0
N1409 N 0.3017 0.49295 0.16072 0.0
C1410 C 0.42699 0.58362 0.12181 0.0
C1411 C 0.34652 0.51842 0.15347 0.0
N1412 N 0.43302 0.63066 0.17517 0.0
N1413 N 0.35769 0.45971 0.11934 0.0
H1414 H 0.28231 0.50352 0.17848 0.0
H1415 H 0.28213 0.46477 0.1454 0.0
H1416 H 0.37441 0.4481 0.10009 0.0
H1417 H 0.33109 0.43333 0.13402 0.0
H1418 H 0.46564 0.65278 0.16749 0.0
H1419 H 0.42273 0.63782 0.20155 0.0
H1420 H 0.46751 0.65391 0.10185 0.0
H1421 H 0.47197 0.61249 0.07351 0.0
C1422 C 0.36827 0.33476 0.13605 0.0
C1423 C 0.38416 0.3098 0.17695 0.0
C1424 C 0.46521 0.3392 0.15923 0.0
C1425 C 0.44869 0.36485 0.11904 0.0
N1426 N 0.38272 0.36639 0.06195 0.0
N1427 N 0.44476 0.27379 0.21867 0.0
C1428 C 0.39951 0.35468 0.10466 0.0
C1429 C 0.43182 0.30723 0.18573 0.0
N1430 N 0.32597 0.34513 0.12895 0.0
N1431 N 0.51269 0.34653 0.17253 0.0
H1432 H 0.41976 0.24786 0.23584 0.0
H1433 H 0.47846 0.26834 0.22508 0.0
H1434 H 0.53755 0.36766 0.15245 0.0
H1435 H 0.52697 0.33315 0.20367 0.0
H1436 H 0.31312 0.3642 0.09988 0.0
H1437 H 0.3085 0.3421 0.1547 0.0
H1438 H 0.34671 0.35753 0.04996 0.0
H1439 H 0.40495 0.37851 0.0382 0.0
C1440 C 0.8782 0.55678 0.63939 0.0
C1441 C 0.89682 0.57477 0.6782 0.0
C1442 C 0.97681 0.57332 0.67108 0.0
C1443 C 0.95895 0.55874 0.63049 0.0
N1444 N 0.8927 0.53699 0.57514 0.0
N1445 N 0.96421 0.60887 0.72673 0.0
C1446 C 0.90964 0.55085 0.61437 0.0
C1447 C 0.9462 0.58511 0.69304 0.0
N1448 N 0.83018 0.54357 0.62737 0.0
N1449 N 1.02296 0.57636 0.68868 0.0
H1450 H 0.94317 0.62101 0.74121 0.0
H1451 H 1.00019 0.62105 0.7373 0.0
H1452 H 0.04771 0.57138 0.67281 0.0
H1453 H 1.03606 0.58031 0.72062 0.0
H1454 H 0.81357 0.52619 0.60166 0.0
H1455 H 0.80601 0.54752 0.64467 0.0
H1456 H 0.85956 0.5384 0.55798 0.0
H1457 H 0.91196 0.52395 0.55933 0.0
C1458 C 0.41756 0.85245 0.7046 0.0
C1459 C 0.37111 0.83559 0.68325 0.0
C1460 C 0.39974 0.88589 0.61522 0.0
C1461 C 0.44796 0.895 0.63526 0.0
N1462 N 0.49988 0.86847 0.69807 0.0
N1463 N 0.32269 0.82916 0.61347 0.0
C1464 C 0.45605 0.8732 0.67983 0.0
C1465 C 0.36374 0.85006 0.6371 0.0
N1466 N 0.42552 0.85042 0.74817 0.0
N1467 N 0.38695 0.9128 0.57665 0.0
H1468 H 0.29655 0.80124 0.62724 0.0
H1469 H 0.31744 0.83579 0.57967 0.0
H1470 H 0.41014 0.94274 0.56165 0.0
H1471 H 0.35171 0.90927 0.56275 0.0
H1472 H 0.45861 0.86563 0.76424 0.0
H1473 H 0.39806 0.83961 0.76675 0.0
H1474 H 0.50751 0.85263 0.73028 0.0
H1475 H 0.525 0.87156 0.67865 0.0
C1476 C 0.15835 0.31966 0.70493 0.0
C1477 C 0.20499 0.34232 0.72302 0.0
C1478 C 0.18655 0.41994 0.68562 0.0
C1479 C 0.1424 0.39657 0.66336 0.0
N1480 N 0.09169 0.32078 0.64827 0.0
N1481 N 0.26411 0.41617 0.72716 0.0
C1482 C 0.13025 0.34561 0.67204 0.0
C1483 C 0.21888 0.39318 0.71258 0.0
N1484 N 0.13896 0.27314 0.72074 0.0
N1485 N 0.19797 0.46804 0.68078 0.0
H1486 H 0.28852 0.3981 0.74519 0.0
H1487 H 0.27894 0.45231 0.71816 0.0
H1488 H 0.17619 0.48809 0.66081 0.0
H1489 H 0.22679 0.48773 0.69883 0.0
H1490 H 0.10326 0.25605 0.71341 0.0
H1491 H 0.15706 0.25301 0.74493 0.0
H1492 H 0.08541 0.28484 0.64821 0.0
H1493 H 0.06743 0.33614 0.62652 0.0
C1494 C 0.73496 0.18333 0.65118 0.0
C1495 C 0.71145 0.19941 0.67686 0.0
C1496 C 0.63864 0.18143 0.62506 0.0
C1497 C 0.65888 0.15479 0.6068 0.0
N1498 N 0.72784 0.13409 0.59878 0.0
N1499 N 0.63892 0.21058 0.68929 0.0
C1500 C 0.70778 0.15747 0.61846 0.0
C1501 C 0.6629 0.19845 0.66359 0.0
N1502 N 0.78322 0.19422 0.65679 0.0
N1503 N 0.59606 0.18979 0.60623 0.0
H1504 H 0.65443 0.21942 0.71933 0.0
H1505 H 0.60271 0.20756 0.68293 0.0
H1506 H 0.5778 0.17854 0.57769 0.0
H1507 H 0.58149 0.21228 0.6162 0.0
H1508 H 0.80242 0.18735 0.63641 0.0
H1509 H 0.80439 0.21464 0.67906 0.0
H1510 H 0.76148 0.12893 0.60953 0.0
H1511 H 0.70961 0.11829 0.5723 0.0
C1512 C 0.92078 0.31684 0.39591 0.0
C1513 C 0.87144 0.30202 0.39369 0.0
C1514 C 0.88066 0.35641 0.44514 0.0
C1515 C 0.9285 0.37787 0.43789 0.0
N1516 N 0.98381 0.38768 0.3892 0.0
N1517 N 0.80687 0.29603 0.42976 0.0
C1518 C 0.94567 0.36062 0.40846 0.0
C1519 C 0.85178 0.31912 0.42201 0.0
N1520 N 0.94495 0.28687 0.39181 0.0
N1521 N 0.86329 0.37144 0.47399 0.0
H1522 H 0.79139 0.26273 0.42154 0.0
H1523 H 0.78731 0.30711 0.44678 0.0
H1524 H 0.88337 0.39969 0.48907 0.0
H1525 H 0.82945 0.3569 0.48257 0.0
H1526 H 0.98186 0.29598 0.39615 0.0
H1527 H 0.92761 0.25212 0.38787 0.0
H1528 H 0.99414 0.37735 0.36446 0.0
H1529 H 1.00012 0.42213 0.39415 0.0
C1530 C 0.63698 0.86085 0.44467 0.0
C1531 C 0.63519 0.86661 0.39934 0.0
C1532 C 0.61038 0.93987 0.39006 0.0
C1533 C 0.60433 0.92969 0.43495 0.0
N1534 N 0.60185 0.87155 0.50164 0.0
N1535 N 0.62057 0.91178 0.32818 0.0
C1536 C 0.61602 0.88841 0.46168 0.0
C1537 C 0.62255 0.90657 0.372 0.0
N1538 N 0.65713 0.82769 0.47171 0.0
N1539 N 0.60476 0.98143 0.36428 0.0
H1540 H 0.63323 0.89073 0.31424 0.0
H1541 H 0.60458 0.93533 0.30554 0.0
H1542 H 0.59401 1.00642 0.37445 0.0
H1543 H 0.61474 0.99347 0.33345 0.0
H1544 H 0.66462 0.82594 0.50512 0.0
H1545 H 0.67091 0.80546 0.46048 0.0
H1546 H 0.60539 0.83932 0.52059 0.0
H1547 H 0.58055 0.8859 0.51346 0.0
C1548 C 0.1466 0.66358 0.34396 0.0
C1549 C 0.192 0.69361 0.35663 0.0
C1550 C 0.17587 0.6647 0.43342 0.0
C1551 C 0.13167 0.63307 0.42035 0.0
N1552 N 0.08225 0.59437 0.36308 0.0
N1553 N 0.25261 0.71588 0.41518 0.0
C1554 C 0.11929 0.63028 0.37559 0.0
C1555 C 0.2073 0.6921 0.402 0.0
N1556 N 0.12925 0.66682 0.30107 0.0
N1557 N 0.18765 0.66907 0.47597 0.0
H1558 H 0.27621 0.73395 0.39315 0.0
H1559 H 0.26823 0.71362 0.4474 0.0
H1560 H 0.16667 0.64853 0.49958 0.0
H1561 H 0.21652 0.69469 0.4875 0.0
H1562 H 0.09421 0.65151 0.2893 0.0
H1563 H 0.15008 0.68701 0.27753 0.0
H1564 H 0.0742 0.58723 0.33176 0.0
H1565 H 0.06272 0.56848 0.38507 0.0
C1566 C 0.42583 0.20518 0.35695 0.0
C1567 C 0.37781 0.19395 0.36526 0.0
C1568 C 0.39606 0.12713 0.42361 0.0
C1569 C 0.44384 0.13828 0.41566 0.0
N1570 N 0.50571 0.19373 0.37839 0.0
N1571 N 0.32547 0.15349 0.41857 0.0
C1572 C 0.45906 0.17937 0.38365 0.0
C1573 C 0.36575 0.15772 0.40228 0.0
N1574 N 0.43983 0.23962 0.32273 0.0
N1575 N 0.37858 0.08613 0.45104 0.0
H1576 H 0.30381 0.17629 0.40589 0.0
H1577 H 0.31667 0.13137 0.44763 0.0
H1578 H 0.39941 0.06385 0.46844 0.0
H1579 H 0.34276 0.07257 0.45415 0.0
H1580 H 0.47176 0.24635 0.31113 0.0
H1581 H 0.41858 0.26092 0.30496 0.0
H1582 H 0.5215 0.2261 0.36036 0.0
H1583 H 0.52959 0.17438 0.39487 0.0
C1584 C 0.67756 0.84167 0.7102 0.0
C1585 C 0.71793 0.83909 0.69422 0.0
C1586 C 0.68757 0.88501 0.62282 0.0
C1587 C 0.64868 0.88974 0.63952 0.0
N1588 N 0.61858 0.884 0.70556 0.0
N1589 N 0.76659 0.87249 0.6371 0.0
C1590 C 0.6468 0.87068 0.6849 0.0
C1591 C 0.72419 0.86488 0.65102 0.0
N1592 N 0.66979 0.81873 0.7511 0.0
N1593 N 0.6906 0.90095 0.57975 0.0
H1594 H 0.79326 0.8575 0.65519 0.0
H1595 H 0.77626 0.8957 0.60879 0.0
H1596 H 0.66688 0.91829 0.55914 0.0
H1597 H 0.71432 0.89383 0.56408 0.0
H1598 H 0.63813 0.81307 0.7629 0.0
H1599 H 0.69437 0.80346 0.77256 0.0
H1600 H 0.61871 0.87599 0.73898 0.0
H1601 H 0.59917 0.90806 0.69009 0.0
C1602 C 0.69266 0.13454 0.35756 0.0
C1603 C 0.70878 0.18474 0.35324 0.0
C1604 C 0.65176 0.17678 0.40405 0.0
C1605 C 0.6407 0.12652 0.41137 0.0
N1606 N 0.66714 0.06068 0.40663 0.0
N1607 N 0.70834 0.25125 0.38237 0.0
C1608 C 0.66575 0.10636 0.39127 0.0
C1609 C 0.68927 0.2052 0.37913 0.0
N1610 N 0.70186 0.11294 0.32872 0.0
N1611 N 0.62697 0.1977 0.4213 0.0
H1612 H 0.73591 0.27188 0.36565 0.0
H1613 H 0.69979 0.26744 0.40397 0.0
H1614 H 0.60235 0.17832 0.44218 0.0
H1615 H 0.62897 0.23372 0.41288 0.0
H1616 H 0.68515 0.0775 0.32742 0.0
H1617 H 0.72019 0.13176 0.30295 0.0
H1618 H 0.6881 0.04504 0.39552 0.0
H1619 H 0.65123 0.04047 0.43354 0.0
C1620 C 0.8627 0.62776 0.34442 0.0
C1621 C 0.8831 0.67808 0.3385 0.0
C1622 C 0.96022 0.65807 0.37301 0.0
C1623 C 0.93809 0.60936 0.38677 0.0
N1624 N 0.86451 0.54883 0.38633 0.0
N1625 N 0.95502 0.73901 0.35489 0.0
C1626 C 0.88811 0.59469 0.37278 0.0
C1627 C 0.93292 0.69221 0.35505 0.0
N1628 N 0.82031 0.61091 0.32078 0.0
N1629 N 1.00835 0.67201 0.37582 0.0
H1630 H 0.93742 0.7654 0.3446 0.0
H1631 H 0.98937 0.75105 0.37022 0.0
H1632 H 1.02852 0.64767 0.386 0.0
H1633 H 1.0272 0.70578 0.36248 0.0
H1634 H 0.80577 0.57515 0.31939 0.0
H1635 H 0.80146 0.63353 0.30047 0.0
H1636 H 0.82781 0.53618 0.38037 0.0
H1637 H 0.88204 0.52416 0.40517 0.0
C1638 C 0.34846 0.8411 0.39924 0.0
C1639 C 0.36983 0.82391 0.37262 0.0
C1640 C 0.44638 0.84621 0.41914 0.0
C1641 C 0.42696 0.87079 0.44058 0.0
N1642 N 0.35873 0.8888 0.45398 0.0
N1643 N 0.44074 0.81476 0.35495 0.0
C1644 C 0.3775 0.86675 0.43175 0.0
C1645 C 0.41909 0.82708 0.38242 0.0
N1646 N 0.30028 0.83221 0.39393 0.0
N1647 N 0.49095 0.84097 0.43374 0.0
H1648 H 0.42213 0.80127 0.32766 0.0
H1649 H 0.47731 0.82193 0.35686 0.0
H1650 H 0.51109 0.85266 0.46139 0.0
H1651 H 0.50562 0.81997 0.42183 0.0
H1652 H 0.28187 0.83938 0.41478 0.0
H1653 H 0.27805 0.81433 0.3702 0.0
H1654 H 0.32464 0.89316 0.44584 0.0
H1655 H 0.37836 0.90417 0.48029 0.0
C1656 C 0.13545 0.39955 0.37001 0.0
C1657 C 0.18215 0.42944 0.36943 0.0
C1658 C 0.1709 0.46405 0.4278 0.0
C1659 C 0.12197 0.43954 0.42288 0.0
N1660 N 0.07181 0.36273 0.41265 0.0
N1661 N 0.24708 0.48643 0.40132 0.0
C1662 C 0.10784 0.4011 0.40055 0.0
C1663 C 0.20099 0.46006 0.39999 0.0
N1664 N 0.117 0.36957 0.34125 0.0
N1665 N 0.18935 0.48746 0.46165 0.0
H1666 H 0.2698 0.48427 0.38151 0.0
H1667 H 0.26291 0.51106 0.4214 0.0
H1668 H 0.16845 0.4935 0.48108 0.0
H1669 H 0.2254 0.4967 0.47309 0.0
H1670 H 0.0814 0.35106 0.33714 0.0
H1671 H 0.13684 0.36525 0.32011 0.0
H1672 H 0.06435 0.33119 0.40133 0.0
H1673 H 0.05345 0.36032 0.43788 0.0
C1674 C 0.47227 0.13744 0.66268 0.0
C1675 C 0.43768 0.15565 0.63261 0.0
C1676 C 0.43707 0.10151 0.58552 0.0
C1677 C 0.47953 0.09167 0.6103 0.0
N1678 N 0.54184 0.11044 0.6715 0.0
N1679 N 0.38808 0.1565 0.56347 0.0
C1680 C 0.498 0.11163 0.6491 0.0
C1681 C 0.42046 0.13819 0.59339 0.0
N1682 N 0.48205 0.14632 0.70393 0.0
N1683 N 0.41044 0.07384 0.55649 0.0
H1684 H 0.37306 0.18124 0.5692 0.0
H1685 H 0.3785 0.14918 0.53217 0.0
H1686 H 0.41745 0.04294 0.5536 0.0
H1687 H 0.37748 0.0774 0.5403 0.0
H1688 H 0.5026 0.12912 0.72886 0.0
H1689 H 0.46563 0.1669 0.71445 0.0
H1690 H 0.55669 0.12652 0.69832 0.0
H1691 H 0.56737 0.1007 0.66086 0.0
C1692 C 0.94452 0.33728 0.7168 0.0
C1693 C 0.8938 0.32037 0.7088 0.0
C1694 C 0.90106 0.35834 0.63042 0.0
C1695 C 0.95153 0.37085 0.63835 0.0
N1696 N 1.01995 0.3615 0.69018 0.0
N1697 N 0.82617 0.30913 0.65279 0.0
C1698 C 0.9725 0.35696 0.68176 0.0
C1699 C 0.87291 0.32926 0.66405 0.0
N1700 N 0.96717 0.33636 0.75843 0.0
N1701 N 0.87945 0.3745 0.59045 0.0
H1702 H 0.80432 0.29032 0.67563 0.0
H1703 H 0.8099 0.30856 0.62093 0.0
H1704 H 0.89842 0.39423 0.56525 0.0
H1705 H 0.84326 0.37163 0.5833 0.0
H1706 H 1.00249 0.35446 0.76606 0.0
H1707 H 0.95059 0.32168 0.78585 0.0
H1708 H 1.03662 0.34554 0.71902 0.0
H1709 H 0.04196 0.37744 0.66684 0.0
C1710 C 0.23298 0.65799 0.64226 0.0
C1711 C 0.22214 0.69802 0.6519 0.0
C1712 C 0.14058 0.66774 0.61788 0.0
C1713 C 0.1515 0.62983 0.60545 0.0
N1714 N 0.21416 0.60029 0.59515 0.0
N1715 N 0.17047 0.74959 0.6257 0.0
C1716 C 0.19937 0.62805 0.61473 0.0
C1717 C 0.1776 0.70572 0.63223 0.0
N1718 N 0.27524 0.64777 0.65824 0.0
N1719 N 0.09479 0.66709 0.61819 0.0
H1720 H 0.19823 0.77955 0.63014 0.0
H1721 H 0.13893 0.75705 0.60941 0.0
H1722 H 0.06635 0.63785 0.61373 0.0
H1723 H 0.08591 0.69306 0.62889 0.0
H1724 H 0.28002 0.61446 0.65999 0.0
H1725 H 0.30585 0.67217 0.66796 0.0
H1726 H 0.24968 0.60142 0.59704 0.0
H1727 H 0.19198 0.58026 0.5729 0.0
loop_
_geom_bond_atom_site_label_1
_geom_bond_atom_site_label_2
_geom_bond_distance
_geom_bond_site_symmetry_2
_ccdc_geom_bond_type
Tb0 N31 2.660 . S
Tb0 N38 2.600 . S
Tb0 O44 2.546 . S
Tb0 O45 2.610 . S
Tb0 O47 2.320 . S
Tb0 O48 2.552 . S
Tb0 O49 2.413 . S
Tb0 O51 2.362 . S
Tb0 O52 2.421 . S
Tb0 C64 2.833 . S
C1 C4 1.432 . S
C1 C5 1.414 . S
C1 N8 1.359 . S
C2 C4 1.417 . S
C2 C6 1.432 . S
C2 C14 1.410 . S
C3 C5 1.444 . S
C3 C6 1.317 . S
C3 H26 0.929 . S
C4 C1 1.432 . S
C4 C2 1.417 . S
C4 N12 1.360 . S
C5 C1 1.414 . S
C5 C3 1.444 . S
C5 C10 1.385 . S
C6 C2 1.432 . S
C6 C3 1.317 . S
C6 H18 0.930 . S
C7 C9 1.392 . S
C7 C10 1.370 . S
C7 H19 0.931 . S
N8 C1 1.359 . S
N8 C9 1.327 . S
N8 Tb11 2.600 . S
C9 C7 1.392 . S
C9 N8 1.327 . S
C9 H16 0.930 . S
C10 C5 1.385 . S
C10 C7 1.370 . S
C10 H29 0.930 . S
Tb11 N8 2.600 . S
Tb11 N12 2.660 . S
Tb11 O45 2.362 . S
Tb11 O46 2.421 . S
Tb11 O50 2.546 . S
Tb11 O51 2.610 . S
Tb11 O53 2.320 . S
Tb11 O54 2.552 . S
Tb11 O55 2.413 . S
Tb11 C75 2.833 . S
N12 C4 1.360 . S
N12 Tb11 2.660 . S
N12 C13 1.305 . S
C13 N12 1.305 . S
C13 C15 1.407 . S
C13 H20 0.930 . S
C14 C2 1.410 . S
C14 C15 1.345 . S
C14 H22 0.930 . S
C15 C13 1.407 . S
C15 C14 1.345 . S
C15 H17 0.930 . S
H16 C9 0.930 . S
H17 C15 0.930 . S
H18 C6 0.930 . S
H19 C7 0.931 . S
H20 C13 0.930 . S
H21 C35 0.930 . S
H22 C14 0.930 . S
H23 C41 0.930 . S
H24 C32 0.930 . S
H25 C39 0.931 . S
H26 C3 0.929 . S
H27 C33 0.930 . S
H28 C66 0.930 . S
H29 C10 0.930 . S
H30 C65 0.929 . S
N31 Tb0 2.660 . S
N31 C32 1.305 . S
N31 C36 1.360 . S
C32 H24 0.930 . S
C32 N31 1.305 . S
C32 C35 1.407 . S
C33 H27 0.930 . S
C33 C34 1.410 . S
C33 C35 1.345 . S
C34 C33 1.410 . S
C34 C36 1.417 . S
C34 C66 1.432 . S
C35 H21 0.930 . S
C35 C32 1.407 . S
C35 C33 1.345 . S
C36 N31 1.360 . S
C36 C34 1.417 . S
C36 C40 1.432 . S
H37 C42 0.930 . S
N38 Tb0 2.600 . S
N38 C40 1.359 . S
N38 C41 1.327 . S
C39 H25 0.931 . S
C39 C41 1.392 . S
C39 C42 1.370 . S
C40 C36 1.432 . S
C40 N38 1.359 . S
C40 C43 1.414 . S
C41 H23 0.930 . S
C41 N38 1.327 . S
C41 C39 1.392 . S
C42 H37 0.930 . S
C42 C39 1.370 . S
C42 C43 1.385 . S
C43 C40 1.414 . S
C43 C42 1.385 . S
C43 C65 1.444 . S
O44 Tb0 2.546 . S
O44 C64 1.251 . S
O45 Tb0 2.610 . S
O45 Tb11 2.362 . S
O45 C56 1.283 . S
O46 Tb11 2.421 . S
O46 C63 1.262 . S
O47 Tb0 2.320 . S
O47 C63 1.260 . S
O48 Tb0 2.552 . S
O48 C56 1.243 . S
O49 Tb0 2.413 . S
O49 C64 1.256 . S
O50 Tb11 2.546 . S
O50 C75 1.251 . S
O51 Tb0 2.362 . S
O51 Tb11 2.610 . S
O51 C67 1.283 . S
O52 Tb0 2.421 . S
O52 C74 1.262 . S
O53 Tb11 2.320 . S
O53 C74 1.260 . S
O54 Tb11 2.552 . S
O54 C67 1.243 . S
O55 Tb11 2.413 . S
O55 C75 1.256 . S
C56 O45 1.283 . S
C56 O48 1.243 . S
C57 C59 1.382 . S
C57 C61 1.393 . S
C57 C64 1.500 . S
C58 C59 1.400 . S
C58 C60 1.384 . S
C59 C57 1.382 . S
C59 C58 1.400 . S
C59 H76 0.930 . S
C60 C58 1.384 . S
C60 C62 1.392 . S
C60 H77 0.931 . S
C61 C57 1.393 . S
C61 C62 1.401 . S
C61 H78 0.930 . S
C62 C60 1.392 . S
C62 C61 1.401 . S
C62 H79 0.930 . S
C63 O46 1.262 . S
C63 O47 1.260 . S
C64 Tb0 2.833 . S
C64 O44 1.251 . S
C64 O49 1.256 . S
C64 C57 1.500 . S
C65 H30 0.929 . S
C65 C43 1.444 . S
C65 C66 1.317 . S
C66 H28 0.930 . S
C66 C34 1.432 . S
C66 C65 1.317 . S
C67 O51 1.283 . S
C67 O54 1.243 . S
C68 C69 1.382 . S
C68 C72 1.393 . S
C68 C75 1.500 . S
C69 C68 1.382 . S
C69 C70 1.400 . S
C69 H80 0.930 . S
C70 C69 1.400 . S
C70 C71 1.384 . S
C71 C70 1.384 . S
C71 C73 1.392 . S
C71 H81 0.931 . S
C72 C68 1.393 . S
C72 C73 1.401 . S
C72 H82 0.930 . S
C73 C71 1.392 . S
C73 C72 1.401 . S
C73 H83 0.930 . S
C74 O52 1.262 . S
C74 O53 1.260 . S
C75 Tb11 2.833 . S
C75 O50 1.251 . S
C75 O55 1.256 . S
C75 C68 1.500 . S
H76 C59 0.930 . S
H77 C60 0.931 . S
H78 C61 0.930 . S
H79 C62 0.930 . S
H80 C69 0.930 . S
H81 C71 0.931 . S
H82 C72 0.930 . S
H83 C73 0.930 . S
Tb84 N115 2.660 . S
Tb84 N122 2.600 . S
Tb84 O128 2.546 . S
Tb84 O129 2.610 . S
Tb84 O131 2.320 . S
Tb84 O132 2.552 . S
Tb84 O133 2.413 . S
Tb84 O135 2.362 . S
Tb84 O136 2.421 . S
Tb84 C148 2.833 . S
C85 C88 1.432 . S
C85 C89 1.414 . S
C85 N92 1.359 . S
C86 C88 1.417 . S
C86 C90 1.432 . S
C86 C98 1.410 . S
C87 C89 1.444 . S
C87 C90 1.317 . S
C87 H110 0.929 . S
C88 C85 1.432 . S
C88 C86 1.417 . S
C88 N96 1.360 . S
C89 C85 1.414 . S
C89 C87 1.444 . S
C89 C94 1.385 . S
C90 C86 1.432 . S
C90 C87 1.317 . S
C90 H102 0.930 . S
C91 C93 1.392 . S
C91 C94 1.370 . S
C91 H103 0.931 . S
N92 C85 1.359 . S
N92 C93 1.327 . S
N92 Tb95 2.600 . S
C93 C91 1.392 . S
C93 N92 1.327 . S
C93 H100 0.930 . S
C94 C89 1.385 . S
C94 C91 1.370 . S
C94 H113 0.930 . S
Tb95 N92 2.600 . S
Tb95 N96 2.660 . S
Tb95 O129 2.362 . S
Tb95 O130 2.421 . S
Tb95 O134 2.546 . S
Tb95 O135 2.610 . S
Tb95 O137 2.320 . S
Tb95 O138 2.552 . S
Tb95 O139 2.413 . S
Tb95 C159 2.833 . S
N96 C88 1.360 . S
N96 Tb95 2.660 . S
N96 C97 1.305 . S
C97 N96 1.305 . S
C97 C99 1.407 . S
C97 H104 0.930 . S
C98 C86 1.410 . S
C98 C99 1.345 . S
C98 H106 0.930 . S
C99 C97 1.407 . S
C99 C98 1.345 . S
C99 H101 0.930 . S
H100 C93 0.930 . S
H101 C99 0.930 . S
H102 C90 0.930 . S
H103 C91 0.931 . S
H104 C97 0.930 . S
H105 C119 0.930 . S
H106 C98 0.930 . S
H107 C125 0.930 . S
H108 C116 0.930 . S
H109 C123 0.931 . S
H110 C87 0.929 . S
H111 C117 0.930 . S
H112 C150 0.930 . S
H113 C94 0.930 . S
H114 C149 0.929 . S
N115 Tb84 2.660 . S
N115 C116 1.305 . S
N115 C120 1.360 . S
C116 H108 0.930 . S
C116 N115 1.305 . S
C116 C119 1.407 . S
C117 H111 0.930 . S
C117 C118 1.410 . S
C117 C119 1.345 . S
C118 C117 1.410 . S
C118 C120 1.417 . S
C118 C150 1.432 . S
C119 H105 0.930 . S
C119 C116 1.407 . S
C119 C117 1.345 . S
C120 N115 1.360 . S
C120 C118 1.417 . S
C120 C124 1.432 . S
H121 C126 0.930 . S
N122 Tb84 2.600 . S
N122 C124 1.359 . S
N122 C125 1.327 . S
C123 H109 0.931 . S
C123 C125 1.392 . S
C123 C126 1.370 . S
C124 C120 1.432 . S
C124 N122 1.359 . S
C124 C127 1.414 . S
C125 H107 0.930 . S
C125 N122 1.327 . S
C125 C123 1.392 . S
C126 H121 0.930 . S
C126 C123 1.370 . S
C126 C127 1.385 . S
C127 C124 1.414 . S
C127 C126 1.385 . S
C127 C149 1.444 . S
O128 Tb84 2.546 . S
O128 C148 1.251 . S
O129 Tb84 2.610 . S
O129 Tb95 2.362 . S
O129 C140 1.283 . S
O130 Tb95 2.421 . S
O130 C147 1.262 . S
O131 Tb84 2.320 . S
O131 C147 1.260 . S
O132 Tb84 2.552 . S
O132 C140 1.243 . S
O133 Tb84 2.413 . S
O133 C148 1.256 . S
O134 Tb95 2.546 . S
O134 C159 1.251 . S
O135 Tb84 2.362 . S
O135 Tb95 2.610 . S
O135 C151 1.283 . S
O136 Tb84 2.421 . S
O136 C158 1.262 . S
O137 Tb95 2.320 . S
O137 C158 1.260 . S
O138 Tb95 2.552 . S
O138 C151 1.243 . S
O139 Tb95 2.413 . S
O139 C159 1.256 . S
C140 O129 1.283 . S
C140 O132 1.243 . S
C141 C143 1.382 . S
C141 C145 1.393 . S
C141 C148 1.500 . S
C142 C143 1.400 . S
C142 C144 1.384 . S
C143 C141 1.382 . S
C143 C142 1.400 . S
C143 H160 0.930 . S
C144 C142 1.384 . S
C144 C146 1.392 . S
C144 H161 0.931 . S
C145 C141 1.393 . S
C145 C146 1.401 . S
C145 H162 0.930 . S
C146 C144 1.392 . S
C146 C145 1.401 . S
C146 H163 0.930 . S
C147 O130 1.262 . S
C147 O131 1.260 . S
C148 Tb84 2.833 . S
C148 O128 1.251 . S
C148 O133 1.256 . S
C148 C141 1.500 . S
C149 H114 0.929 . S
C149 C127 1.444 . S
C149 C150 1.317 . S
C150 H112 0.930 . S
C150 C118 1.432 . S
C150 C149 1.317 . S
C151 O135 1.283 . S
C151 O138 1.243 . S
C152 C153 1.382 . S
C152 C156 1.393 . S
C152 C159 1.500 . S
C153 C152 1.382 . S
C153 C154 1.400 . S
C153 H164 0.930 . S
C154 C153 1.400 . S
C154 C155 1.384 . S
C155 C154 1.384 . S
C155 C157 1.392 . S
C155 H165 0.931 . S
C156 C152 1.393 . S
C156 C157 1.401 . S
C156 H166 0.930 . S
C157 C155 1.392 . S
C157 C156 1.401 . S
C157 H167 0.930 . S
C158 O136 1.262 . S
C158 O137 1.260 . S
C159 Tb95 2.833 . S
C159 O134 1.251 . S
C159 O139 1.256 . S
C159 C152 1.500 . S
H160 C143 0.930 . S
H161 C144 0.931 . S
H162 C145 0.930 . S
H163 C146 0.930 . S
H164 C153 0.930 . S
H165 C155 0.931 . S
H166 C156 0.930 . S
H167 C157 0.930 . S
Tb168 N199 2.660 . S
Tb168 N206 2.600 . S
Tb168 O212 2.546 . S
Tb168 O213 2.610 . S
Tb168 O215 2.320 . S
Tb168 O216 2.552 . S
Tb168 O217 2.413 . S
Tb168 O219 2.362 . S
Tb168 O220 2.421 . S
Tb168 C232 2.833 . S
C169 C172 1.432 . S
C169 C173 1.414 . S
C169 N176 1.359 . S
C170 C172 1.417 . S
C170 C174 1.432 . S
C170 C182 1.410 . S
C171 C173 1.444 . S
C171 C174 1.317 . S
C171 H194 0.929 . S
C172 C169 1.432 . S
C172 C170 1.417 . S
C172 N180 1.360 . S
C173 C169 1.414 . S
C173 C171 1.444 . S
C173 C178 1.385 . S
C174 C170 1.432 . S
C174 C171 1.317 . S
C174 H186 0.930 . S
C175 C177 1.392 . S
C175 C178 1.370 . S
C175 H187 0.931 . S
N176 C169 1.359 . S
N176 C177 1.327 . S
N176 Tb179 2.600 . S
C177 C175 1.392 . S
C177 N176 1.327 . S
C177 H184 0.930 . S
C178 C173 1.385 . S
C178 C175 1.370 . S
C178 H197 0.930 . S
Tb179 N176 2.600 . S
Tb179 N180 2.660 . S
Tb179 O213 2.362 . S
Tb179 O214 2.421 . S
Tb179 O218 2.546 . S
Tb179 O219 2.610 . S
Tb179 O221 2.320 . S
Tb179 O222 2.552 . S
Tb179 O223 2.413 . S
Tb179 C243 2.833 . S
N180 C172 1.360 . S
N180 Tb179 2.660 . S
N180 C181 1.305 . S
C181 N180 1.305 . S
C181 C183 1.407 . S
C181 H188 0.930 . S
C182 C170 1.410 . S
C182 C183 1.345 . S
C182 H190 0.930 . S
C183 C181 1.407 . S
C183 C182 1.345 . S
C183 H185 0.930 . S
H184 C177 0.930 . S
H185 C183 0.930 . S
H186 C174 0.930 . S
H187 C175 0.931 . S
H188 C181 0.930 . S
H189 C203 0.930 . S
H190 C182 0.930 . S
H191 C209 0.930 . S
H192 C200 0.930 . S
H193 C207 0.931 . S
H194 C171 0.929 . S
H195 C201 0.930 . S
H196 C234 0.930 . S
H197 C178 0.930 . S
H198 C233 0.929 . S
N199 Tb168 2.660 . S
N199 C200 1.305 . S
N199 C204 1.360 . S
C200 H192 0.930 . S
C200 N199 1.305 . S
C200 C203 1.407 . S
C201 H195 0.930 . S
C201 C202 1.410 . S
C201 C203 1.345 . S
C202 C201 1.410 . S
C202 C204 1.417 . S
C202 C234 1.432 . S
C203 H189 0.930 . S
C203 C200 1.407 . S
C203 C201 1.345 . S
C204 N199 1.360 . S
C204 C202 1.417 . S
C204 C208 1.432 . S
H205 C210 0.930 . S
N206 Tb168 2.600 . S
N206 C208 1.359 . S
N206 C209 1.327 . S
C207 H193 0.931 . S
C207 C209 1.392 . S
C207 C210 1.370 . S
C208 C204 1.432 . S
C208 N206 1.359 . S
C208 C211 1.414 . S
C209 H191 0.930 . S
C209 N206 1.327 . S
C209 C207 1.392 . S
C210 H205 0.930 . S
C210 C207 1.370 . S
C210 C211 1.385 . S
C211 C208 1.414 . S
C211 C210 1.385 . S
C211 C233 1.444 . S
O212 Tb168 2.546 . S
O212 C232 1.251 . S
O213 Tb168 2.610 . S
O213 Tb179 2.362 . S
O213 C224 1.283 . S
O214 Tb179 2.421 . S
O214 C231 1.262 . S
O215 Tb168 2.320 . S
O215 C231 1.260 . S
O216 Tb168 2.552 . S
O216 C224 1.243 . S
O217 Tb168 2.413 . S
O217 C232 1.256 . S
O218 Tb179 2.546 . S
O218 C243 1.251 . S
O219 Tb168 2.362 . S
O219 Tb179 2.610 . S
O219 C235 1.283 . S
O220 Tb168 2.421 . S
O220 C242 1.262 . S
O221 Tb179 2.320 . S
O221 C242 1.260 . S
O222 Tb179 2.552 . S
O222 C235 1.243 . S
O223 Tb179 2.413 . S
O223 C243 1.256 . S
C224 O213 1.283 . S
C224 O216 1.243 . S
C225 C227 1.382 . S
C225 C229 1.393 . S
C225 C232 1.500 . S
C226 C227 1.400 . S
C226 C228 1.384 . S
C227 C225 1.382 . S
C227 C226 1.400 . S
C227 H244 0.930 . S
C228 C226 1.384 . S
C228 C230 1.392 . S
C228 H245 0.931 . S
C229 C225 1.393 . S
C229 C230 1.401 . S
C229 H246 0.930 . S
C230 C228 1.392 . S
C230 C229 1.401 . S
C230 H247 0.930 . S
C231 O214 1.262 . S
C231 O215 1.260 . S
C232 Tb168 2.833 . S
C232 O212 1.251 . S
C232 O217 1.256 . S
C232 C225 1.500 . S
C233 H198 0.929 . S
C233 C211 1.444 . S
C233 C234 1.317 . S
C234 H196 0.930 . S
C234 C202 1.432 . S
C234 C233 1.317 . S
C235 O219 1.283 . S
C235 O222 1.243 . S
C236 C237 1.382 . S
C236 C240 1.393 . S
C236 C243 1.500 . S
C237 C236 1.382 . S
C237 C238 1.400 . S
C237 H248 0.930 . S
C238 C237 1.400 . S
C238 C239 1.384 . S
C239 C238 1.384 . S
C239 C241 1.392 . S
C239 H249 0.931 . S
C240 C236 1.393 . S
C240 C241 1.401 . S
C240 H250 0.930 . S
C241 C239 1.392 . S
C241 C240 1.401 . S
C241 H251 0.930 . S
C242 O220 1.262 . S
C242 O221 1.260 . S
C243 Tb179 2.833 . S
C243 O218 1.251 . S
C243 O223 1.256 . S
C243 C236 1.500 . S
H244 C227 0.930 . S
H245 C228 0.931 . S
H246 C229 0.930 . S
H247 C230 0.930 . S
H248 C237 0.930 . S
H249 C239 0.931 . S
H250 C240 0.930 . S
H251 C241 0.930 . S
Tb252 N283 2.660 . S
Tb252 N290 2.600 . S
Tb252 O296 2.546 . S
Tb252 O297 2.610 . S
Tb252 O299 2.320 . S
Tb252 O300 2.552 . S
Tb252 O301 2.413 . S
Tb252 O303 2.362 . S
Tb252 O304 2.421 . S
Tb252 C316 2.833 . S
C253 C256 1.432 . S
C253 C257 1.414 . S
C253 N260 1.359 . S
C254 C256 1.417 . S
C254 C258 1.432 . S
C254 C266 1.410 . S
C255 C257 1.444 . S
C255 C258 1.317 . S
C255 H278 0.929 . S
C256 C253 1.432 . S
C256 C254 1.417 . S
C256 N264 1.360 . S
C257 C253 1.414 . S
C257 C255 1.444 . S
C257 C262 1.385 . S
C258 C254 1.432 . S
C258 C255 1.317 . S
C258 H270 0.930 . S
C259 C261 1.392 . S
C259 C262 1.370 . S
C259 H271 0.931 . S
N260 C253 1.359 . S
N260 C261 1.327 . S
N260 Tb263 2.600 . S
C261 C259 1.392 . S
C261 N260 1.327 . S
C261 H268 0.930 . S
C262 C257 1.385 . S
C262 C259 1.370 . S
C262 H281 0.930 . S
Tb263 N260 2.600 . S
Tb263 N264 2.660 . S
Tb263 O297 2.362 . S
Tb263 O298 2.421 . S
Tb263 O302 2.546 . S
Tb263 O303 2.610 . S
Tb263 O305 2.320 . S
Tb263 O306 2.552 . S
Tb263 O307 2.413 . S
Tb263 C327 2.833 . S
N264 C256 1.360 . S
N264 Tb263 2.660 . S
N264 C265 1.305 . S
C265 N264 1.305 . S
C265 C267 1.407 . S
C265 H272 0.930 . S
C266 C254 1.410 . S
C266 C267 1.345 . S
C266 H274 0.930 . S
C267 C265 1.407 . S
C267 C266 1.345 . S
C267 H269 0.930 . S
H268 C261 0.930 . S
H269 C267 0.930 . S
H270 C258 0.930 . S
H271 C259 0.931 . S
H272 C265 0.930 . S
H273 C287 0.930 . S
H274 C266 0.930 . S
H275 C293 0.930 . S
H276 C284 0.930 . S
H277 C291 0.931 . S
H278 C255 0.929 . S
H279 C285 0.930 . S
H280 C318 0.930 . S
H281 C262 0.930 . S
H282 C317 0.929 . S
N283 Tb252 2.660 . S
N283 C284 1.305 . S
N283 C288 1.360 . S
C284 H276 0.930 . S
C284 N283 1.305 . S
C284 C287 1.407 . S
C285 H279 0.930 . S
C285 C286 1.410 . S
C285 C287 1.345 . S
C286 C285 1.410 . S
C286 C288 1.417 . S
C286 C318 1.432 . S
C287 H273 0.930 . S
C287 C284 1.407 . S
C287 C285 1.345 . S
C288 N283 1.360 . S
C288 C286 1.417 . S
C288 C292 1.432 . S
H289 C294 0.930 . S
N290 Tb252 2.600 . S
N290 C292 1.359 . S
N290 C293 1.327 . S
C291 H277 0.931 . S
C291 C293 1.392 . S
C291 C294 1.370 . S
C292 C288 1.432 . S
C292 N290 1.359 . S
C292 C295 1.414 . S
C293 H275 0.930 . S
C293 N290 1.327 . S
C293 C291 1.392 . S
C294 H289 0.930 . S
C294 C291 1.370 . S
C294 C295 1.385 . S
C295 C292 1.414 . S
C295 C294 1.385 . S
C295 C317 1.444 . S
O296 Tb252 2.546 . S
O296 C316 1.251 . S
O297 Tb252 2.610 . S
O297 Tb263 2.362 . S
O297 C308 1.283 . S
O298 Tb263 2.421 . S
O298 C315 1.262 . S
O299 Tb252 2.320 . S
O299 C315 1.260 . S
O300 Tb252 2.552 . S
O300 C308 1.243 . S
O301 Tb252 2.413 . S
O301 C316 1.256 . S
O302 Tb263 2.546 . S
O302 C327 1.251 . S
O303 Tb252 2.362 . S
O303 Tb263 2.610 . S
O303 C319 1.283 . S
O304 Tb252 2.421 . S
O304 C326 1.262 . S
O305 Tb263 2.320 . S
O305 C326 1.260 . S
O306 Tb263 2.552 . S
O306 C319 1.243 . S
O307 Tb263 2.413 . S
O307 C327 1.256 . S
C308 O297 1.283 . S
C308 O300 1.243 . S
C309 C311 1.382 . S
C309 C313 1.393 . S
C309 C316 1.500 . S
C310 C311 1.400 . S
C310 C312 1.384 . S
C311 C309 1.382 . S
C311 C310 1.400 . S
C311 H328 0.930 . S
C312 C310 1.384 . S
C312 C314 1.392 . S
C312 H329 0.931 . S
C313 C309 1.393 . S
C313 C314 1.401 . S
C313 H330 0.930 . S
C314 C312 1.392 . S
C314 C313 1.401 . S
C314 H331 0.930 . S
C315 O298 1.262 . S
C315 O299 1.260 . S
C316 Tb252 2.833 . S
C316 O296 1.251 . S
C316 O301 1.256 . S
C316 C309 1.500 . S
C317 H282 0.929 . S
C317 C295 1.444 . S
C317 C318 1.317 . S
C318 H280 0.930 . S
C318 C286 1.432 . S
C318 C317 1.317 . S
C319 O303 1.283 . S
C319 O306 1.243 . S
C320 C321 1.382 . S
C320 C324 1.393 . S
C320 C327 1.500 . S
C321 C320 1.382 . S
C321 C322 1.400 . S
C321 H332 0.930 . S
C322 C321 1.400 . S
C322 C323 1.384 . S
C323 C322 1.384 . S
C323 C325 1.392 . S
C323 H333 0.931 . S
C324 C320 1.393 . S
C324 C325 1.401 . S
C324 H334 0.930 . S
C325 C323 1.392 . S
C325 C324 1.401 . S
C325 H335 0.930 . S
C326 O304 1.262 . S
C326 O305 1.260 . S
C327 Tb263 2.833 . S
C327 O302 1.251 . S
C327 O307 1.256 . S
C327 C320 1.500 . S
H328 C311 0.930 . S
H329 C312 0.931 . S
H330 C313 0.930 . S
H331 C314 0.930 . S
H332 C321 0.930 . S
H333 C323 0.931 . S
H334 C324 0.930 . S
H335 C325 0.930 . S
Tb336 N367 2.660 . S
Tb336 N374 2.600 . S
Tb336 O380 2.546 . S
Tb336 O381 2.610 . S
Tb336 O383 2.320 . S
Tb336 O384 2.552 . S
Tb336 O385 2.413 . S
Tb336 O387 2.362 . S
Tb336 O388 2.421 . S
Tb336 C400 2.833 . S
C337 C340 1.432 . S
C337 C341 1.414 . S
C337 N344 1.359 . S
C338 C340 1.417 . S
C338 C342 1.432 . S
C338 C350 1.410 . S
C339 C341 1.444 . S
C339 C342 1.317 . S
C339 H362 0.929 . S
C340 C337 1.432 . S
C340 C338 1.417 . S
C340 N348 1.360 . S
C341 C337 1.414 . S
C341 C339 1.444 . S
C341 C346 1.385 . S
C342 C338 1.432 . S
C342 C339 1.317 . S
C342 H354 0.930 . S
C343 C345 1.392 . S
C343 C346 1.370 . S
C343 H355 0.931 . S
N344 C337 1.359 . S
N344 C345 1.327 . S
N344 Tb347 2.600 . S
C345 C343 1.392 . S
C345 N344 1.327 . S
C345 H352 0.930 . S
C346 C341 1.385 . S
C346 C343 1.370 . S
C346 H365 0.930 . S
Tb347 N344 2.600 . S
Tb347 N348 2.660 . S
Tb347 O381 2.362 . S
Tb347 O382 2.421 . S
Tb347 O386 2.546 . S
Tb347 O387 2.610 . S
Tb347 O389 2.320 . S
Tb347 O390 2.552 . S
Tb347 O391 2.413 . S
Tb347 C411 2.833 . S
N348 C340 1.360 . S
N348 Tb347 2.660 . S
N348 C349 1.305 . S
C349 N348 1.305 . S
C349 C351 1.407 . S
C349 H356 0.930 . S
C350 C338 1.410 . S
C350 C351 1.345 . S
C350 H358 0.930 . S
C351 C349 1.407 . S
C351 C350 1.345 . S
C351 H353 0.930 . S
H352 C345 0.930 . S
H353 C351 0.930 . S
H354 C342 0.930 . S
H355 C343 0.931 . S
H356 C349 0.930 . S
H357 C371 0.930 . S
H358 C350 0.930 . S
H359 C377 0.930 . S
H360 C368 0.930 . S
H361 C375 0.931 . S
H362 C339 0.929 . S
H363 C369 0.930 . S
H364 C402 0.930 . S
H365 C346 0.930 . S
H366 C401 0.929 . S
N367 Tb336 2.660 . S
N367 C368 1.305 . S
N367 C372 1.360 . S
C368 H360 0.930 . S
C368 N367 1.305 . S
C368 C371 1.407 . S
C369 H363 0.930 . S
C369 C370 1.410 . S
C369 C371 1.345 . S
C370 C369 1.410 . S
C370 C372 1.417 . S
C370 C402 1.432 . S
C371 H357 0.930 . S
C371 C368 1.407 . S
C371 C369 1.345 . S
C372 N367 1.360 . S
C372 C370 1.417 . S
C372 C376 1.432 . S
H373 C378 0.930 . S
N374 Tb336 2.600 . S
N374 C376 1.359 . S
N374 C377 1.327 . S
C375 H361 0.931 . S
C375 C377 1.392 . S
C375 C378 1.370 . S
C376 C372 1.432 . S
C376 N374 1.359 . S
C376 C379 1.414 . S
C377 H359 0.930 . S
C377 N374 1.327 . S
C377 C375 1.392 . S
C378 H373 0.930 . S
C378 C375 1.370 . S
C378 C379 1.385 . S
C379 C376 1.414 . S
C379 C378 1.385 . S
C379 C401 1.444 . S
O380 Tb336 2.546 . S
O380 C400 1.251 . S
O381 Tb336 2.610 . S
O381 Tb347 2.362 . S
O381 C392 1.283 . S
O382 Tb347 2.421 . S
O382 C399 1.262 . S
O383 Tb336 2.320 . S
O383 C399 1.260 . S
O384 Tb336 2.552 . S
O384 C392 1.243 . S
O385 Tb336 2.413 . S
O385 C400 1.256 . S
O386 Tb347 2.546 . S
O386 C411 1.251 . S
O387 Tb336 2.362 . S
O387 Tb347 2.610 . S
O387 C403 1.283 . S
O388 Tb336 2.421 . S
O388 C410 1.262 . S
O389 Tb347 2.320 . S
O389 C410 1.260 . S
O390 Tb347 2.552 . S
O390 C403 1.243 . S
O391 Tb347 2.413 . S
O391 C411 1.256 . S
C392 O381 1.283 . S
C392 O384 1.243 . S
C393 C395 1.382 . S
C393 C397 1.393 . S
C393 C400 1.500 . S
C394 C395 1.400 . S
C394 C396 1.384 . S
C395 C393 1.382 . S
C395 C394 1.400 . S
C395 H412 0.930 . S
C396 C394 1.384 . S
C396 C398 1.392 . S
C396 H413 0.931 . S
C397 C393 1.393 . S
C397 C398 1.401 . S
C397 H414 0.930 . S
C398 C396 1.392 . S
C398 C397 1.401 . S
C398 H415 0.930 . S
C399 O382 1.262 . S
C399 O383 1.260 . S
C400 Tb336 2.833 . S
C400 O380 1.251 . S
C400 O385 1.256 . S
C400 C393 1.500 . S
C401 H366 0.929 . S
C401 C379 1.444 . S
C401 C402 1.317 . S
C402 H364 0.930 . S
C402 C370 1.432 . S
C402 C401 1.317 . S
C403 O387 1.283 . S
C403 O390 1.243 . S
C404 C405 1.382 . S
C404 C408 1.393 . S
C404 C411 1.500 . S
C405 C404 1.382 . S
C405 C406 1.400 . S
C405 H416 0.930 . S
C406 C405 1.400 . S
C406 C407 1.384 . S
C407 C406 1.384 . S
C407 C409 1.392 . S
C407 H417 0.931 . S
C408 C404 1.393 . S
C408 C409 1.401 . S
C408 H418 0.930 . S
C409 C407 1.392 . S
C409 C408 1.401 . S
C409 H419 0.930 . S
C410 O388 1.262 . S
C410 O389 1.260 . S
C411 Tb347 2.833 . S
C411 O386 1.251 . S
C411 O391 1.256 . S
C411 C404 1.500 . S
H412 C395 0.930 . S
H413 C396 0.931 . S
H414 C397 0.930 . S
H415 C398 0.930 . S
H416 C405 0.930 . S
H417 C407 0.931 . S
H418 C408 0.930 . S
H419 C409 0.930 . S
Tb420 N451 2.660 . S
Tb420 N458 2.600 . S
Tb420 O464 2.546 . S
Tb420 O465 2.610 . S
Tb420 O467 2.320 . S
Tb420 O468 2.552 . S
Tb420 O469 2.413 . S
Tb420 O471 2.362 . S
Tb420 O472 2.421 . S
Tb420 C484 2.833 . S
C421 C424 1.432 . S
C421 C425 1.414 . S
C421 N428 1.359 . S
C422 C424 1.417 . S
C422 C426 1.432 . S
C422 C434 1.410 . S
C423 C425 1.444 . S
C423 C426 1.317 . S
C423 H446 0.929 . S
C424 C421 1.432 . S
C424 C422 1.417 . S
C424 N432 1.360 . S
C425 C421 1.414 . S
C425 C423 1.444 . S
C425 C430 1.385 . S
C426 C422 1.432 . S
C426 C423 1.317 . S
C426 H438 0.930 . S
C427 C429 1.392 . S
C427 C430 1.370 . S
C427 H439 0.931 . S
N428 C421 1.359 . S
N428 C429 1.327 . S
N428 Tb431 2.600 . S
C429 C427 1.392 . S
C429 N428 1.327 . S
C429 H436 0.930 . S
C430 C425 1.385 . S
C430 C427 1.370 . S
C430 H449 0.930 . S
Tb431 N428 2.600 . S
Tb431 N432 2.660 . S
Tb431 O465 2.362 . S
Tb431 O466 2.421 . S
Tb431 O470 2.546 . S
Tb431 O471 2.610 . S
Tb431 O473 2.320 . S
Tb431 O474 2.552 . S
Tb431 O475 2.413 . S
Tb431 C495 2.833 . S
N432 C424 1.360 . S
N432 Tb431 2.660 . S
N432 C433 1.305 . S
C433 N432 1.305 . S
C433 C435 1.407 . S
C433 H440 0.930 . S
C434 C422 1.410 . S
C434 C435 1.345 . S
C434 H442 0.930 . S
C435 C433 1.407 . S
C435 C434 1.345 . S
C435 H437 0.930 . S
H436 C429 0.930 . S
H437 C435 0.930 . S
H438 C426 0.930 . S
H439 C427 0.931 . S
H440 C433 0.930 . S
H441 C455 0.930 . S
H442 C434 0.930 . S
H443 C461 0.930 . S
H444 C452 0.930 . S
H445 C459 0.931 . S
H446 C423 0.929 . S
H447 C453 0.930 . S
H448 C486 0.930 . S
H449 C430 0.930 . S
H450 C485 0.929 . S
N451 Tb420 2.660 . S
N451 C452 1.305 . S
N451 C456 1.360 . S
C452 H444 0.930 . S
C452 N451 1.305 . S
C452 C455 1.407 . S
C453 H447 0.930 . S
C453 C454 1.410 . S
C453 C455 1.345 . S
C454 C453 1.410 . S
C454 C456 1.417 . S
C454 C486 1.432 . S
C455 H441 0.930 . S
C455 C452 1.407 . S
C455 C453 1.345 . S
C456 N451 1.360 . S
C456 C454 1.417 . S
C456 C460 1.432 . S
H457 C462 0.930 . S
N458 Tb420 2.600 . S
N458 C460 1.359 . S
N458 C461 1.327 . S
C459 H445 0.931 . S
C459 C461 1.392 . S
C459 C462 1.370 . S
C460 C456 1.432 . S
C460 N458 1.359 . S
C460 C463 1.414 . S
C461 H443 0.930 . S
C461 N458 1.327 . S
C461 C459 1.392 . S
C462 H457 0.930 . S
C462 C459 1.370 . S
C462 C463 1.385 . S
C463 C460 1.414 . S
C463 C462 1.385 . S
C463 C485 1.444 . S
O464 Tb420 2.546 . S
O464 C484 1.251 . S
O465 Tb420 2.610 . S
O465 Tb431 2.362 . S
O465 C476 1.283 . S
O466 Tb431 2.421 . S
O466 C483 1.262 . S
O467 Tb420 2.320 . S
O467 C483 1.260 . S
O468 Tb420 2.552 . S
O468 C476 1.243 . S
O469 Tb420 2.413 . S
O469 C484 1.256 . S
O470 Tb431 2.546 . S
O470 C495 1.251 . S
O471 Tb420 2.362 . S
O471 Tb431 2.610 . S
O471 C487 1.283 . S
O472 Tb420 2.421 . S
O472 C494 1.262 . S
O473 Tb431 2.320 . S
O473 C494 1.260 . S
O474 Tb431 2.552 . S
O474 C487 1.243 . S
O475 Tb431 2.413 . S
O475 C495 1.256 . S
C476 O465 1.283 . S
C476 O468 1.243 . S
C477 C479 1.382 . S
C477 C481 1.393 . S
C477 C484 1.500 . S
C478 C479 1.400 . S
C478 C480 1.384 . S
C479 C477 1.382 . S
C479 C478 1.400 . S
C479 H496 0.930 . S
C480 C478 1.384 . S
C480 C482 1.392 . S
C480 H497 0.931 . S
C481 C477 1.393 . S
C481 C482 1.401 . S
C481 H498 0.930 . S
C482 C480 1.392 . S
C482 C481 1.401 . S
C482 H499 0.930 . S
C483 O466 1.262 . S
C483 O467 1.260 . S
C484 Tb420 2.833 . S
C484 O464 1.251 . S
C484 O469 1.256 . S
C484 C477 1.500 . S
C485 H450 0.929 . S
C485 C463 1.444 . S
C485 C486 1.317 . S
C486 H448 0.930 . S
C486 C454 1.432 . S
C486 C485 1.317 . S
C487 O471 1.283 . S
C487 O474 1.243 . S
C488 C489 1.382 . S
C488 C492 1.393 . S
C488 C495 1.500 . S
C489 C488 1.382 . S
C489 C490 1.400 . S
C489 H500 0.930 . S
C490 C489 1.400 . S
C490 C491 1.384 . S
C491 C490 1.384 . S
C491 C493 1.392 . S
C491 H501 0.931 . S
C492 C488 1.393 . S
C492 C493 1.401 . S
C492 H502 0.930 . S
C493 C491 1.392 . S
C493 C492 1.401 . S
C493 H503 0.930 . S
C494 O472 1.262 . S
C494 O473 1.260 . S
C495 Tb431 2.833 . S
C495 O470 1.251 . S
C495 O475 1.256 . S
C495 C488 1.500 . S
H496 C479 0.930 . S
H497 C480 0.931 . S
H498 C481 0.930 . S
H499 C482 0.930 . S
H500 C489 0.930 . S
H501 C491 0.931 . S
H502 C492 0.930 . S
H503 C493 0.930 . S
Tb504 N535 2.660 . S
Tb504 N542 2.600 . S
Tb504 O548 2.546 . S
Tb504 O549 2.610 . S
Tb504 O551 2.320 . S
Tb504 O552 2.552 . S
Tb504 O553 2.413 . S
Tb504 O555 2.362 . S
Tb504 O556 2.421 . S
Tb504 C568 2.833 . S
C505 C508 1.432 . S
C505 C509 1.414 . S
C505 N512 1.359 . S
C506 C508 1.417 . S
C506 C510 1.432 . S
C506 C518 1.410 . S
C507 C509 1.444 . S
C507 C510 1.317 . S
C507 H530 0.929 . S
C508 C505 1.432 . S
C508 C506 1.417 . S
C508 N516 1.360 . S
C509 C505 1.414 . S
C509 C507 1.444 . S
C509 C514 1.385 . S
C510 C506 1.432 . S
C510 C507 1.317 . S
C510 H522 0.930 . S
C511 C513 1.392 . S
C511 C514 1.370 . S
C511 H523 0.931 . S
N512 C505 1.359 . S
N512 C513 1.327 . S
N512 Tb515 2.600 . S
C513 C511 1.392 . S
C513 N512 1.327 . S
C513 H520 0.930 . S
C514 C509 1.385 . S
C514 C511 1.370 . S
C514 H533 0.930 . S
Tb515 N512 2.600 . S
Tb515 N516 2.660 . S
Tb515 O549 2.362 . S
Tb515 O550 2.421 . S
Tb515 O554 2.546 . S
Tb515 O555 2.610 . S
Tb515 O557 2.320 . S
Tb515 O558 2.552 . S
Tb515 O559 2.413 . S
Tb515 C579 2.833 . S
N516 C508 1.360 . S
N516 Tb515 2.660 . S
N516 C517 1.305 . S
C517 N516 1.305 . S
C517 C519 1.407 . S
C517 H524 0.930 . S
C518 C506 1.410 . S
C518 C519 1.345 . S
C518 H526 0.930 . S
C519 C517 1.407 . S
C519 C518 1.345 . S
C519 H521 0.930 . S
H520 C513 0.930 . S
H521 C519 0.930 . S
H522 C510 0.930 . S
H523 C511 0.931 . S
H524 C517 0.930 . S
H525 C539 0.930 . S
H526 C518 0.930 . S
H527 C545 0.930 . S
H528 C536 0.930 . S
H529 C543 0.931 . S
H530 C507 0.929 . S
H531 C537 0.930 . S
H532 C570 0.930 . S
H533 C514 0.930 . S
H534 C569 0.929 . S
N535 Tb504 2.660 . S
N535 C536 1.305 . S
N535 C540 1.360 . S
C536 H528 0.930 . S
C536 N535 1.305 . S
C536 C539 1.407 . S
C537 H531 0.930 . S
C537 C538 1.410 . S
C537 C539 1.345 . S
C538 C537 1.410 . S
C538 C540 1.417 . S
C538 C570 1.432 . S
C539 H525 0.930 . S
C539 C536 1.407 . S
C539 C537 1.345 . S
C540 N535 1.360 . S
C540 C538 1.417 . S
C540 C544 1.432 . S
H541 C546 0.930 . S
N542 Tb504 2.600 . S
N542 C544 1.359 . S
N542 C545 1.327 . S
C543 H529 0.931 . S
C543 C545 1.392 . S
C543 C546 1.370 . S
C544 C540 1.432 . S
C544 N542 1.359 . S
C544 C547 1.414 . S
C545 H527 0.930 . S
C545 N542 1.327 . S
C545 C543 1.392 . S
C546 H541 0.930 . S
C546 C543 1.370 . S
C546 C547 1.385 . S
C547 C544 1.414 . S
C547 C546 1.385 . S
C547 C569 1.444 . S
O548 Tb504 2.546 . S
O548 C568 1.251 . S
O549 Tb504 2.610 . S
O549 Tb515 2.362 . S
O549 C560 1.283 . S
O550 Tb515 2.421 . S
O550 C567 1.262 . S
O551 Tb504 2.320 . S
O551 C567 1.260 . S
O552 Tb504 2.552 . S
O552 C560 1.243 . S
O553 Tb504 2.413 . S
O553 C568 1.256 . S
O554 Tb515 2.546 . S
O554 C579 1.251 . S
O555 Tb504 2.362 . S
O555 Tb515 2.610 . S
O555 C571 1.283 . S
O556 Tb504 2.421 . S
O556 C578 1.262 . S
O557 Tb515 2.320 . S
O557 C578 1.260 . S
O558 Tb515 2.552 . S
O558 C571 1.243 . S
O559 Tb515 2.413 . S
O559 C579 1.256 . S
C560 O549 1.283 . S
C560 O552 1.243 . S
C561 C563 1.382 . S
C561 C565 1.393 . S
C561 C568 1.500 . S
C562 C563 1.400 . S
C562 C564 1.384 . S
C563 C561 1.382 . S
C563 C562 1.400 . S
C563 H580 0.930 . S
C564 C562 1.384 . S
C564 C566 1.392 . S
C564 H581 0.931 . S
C565 C561 1.393 . S
C565 C566 1.401 . S
C565 H582 0.930 . S
C566 C564 1.392 . S
C566 C565 1.401 . S
C566 H583 0.930 . S
C567 O550 1.262 . S
C567 O551 1.260 . S
C568 Tb504 2.833 . S
C568 O548 1.251 . S
C568 O553 1.256 . S
C568 C561 1.500 . S
C569 H534 0.929 . S
C569 C547 1.444 . S
C569 C570 1.317 . S
C570 H532 0.930 . S
C570 C538 1.432 . S
C570 C569 1.317 . S
C571 O555 1.283 . S
C571 O558 1.243 . S
C572 C573 1.382 . S
C572 C576 1.393 . S
C572 C579 1.500 . S
C573 C572 1.382 . S
C573 C574 1.400 . S
C573 H584 0.930 . S
C574 C573 1.400 . S
C574 C575 1.384 . S
C575 C574 1.384 . S
C575 C577 1.392 . S
C575 H585 0.931 . S
C576 C572 1.393 . S
C576 C577 1.401 . S
C576 H586 0.930 . S
C577 C575 1.392 . S
C577 C576 1.401 . S
C577 H587 0.930 . S
C578 O556 1.262 . S
C578 O557 1.260 . S
C579 Tb515 2.833 . S
C579 O554 1.251 . S
C579 O559 1.256 . S
C579 C572 1.500 . S
H580 C563 0.930 . S
H581 C564 0.931 . S
H582 C565 0.930 . S
H583 C566 0.930 . S
H584 C573 0.930 . S
H585 C575 0.931 . S
H586 C576 0.930 . S
H587 C577 0.930 . S
Tb588 N619 2.660 . S
Tb588 N626 2.600 . S
Tb588 O632 2.546 . S
Tb588 O633 2.610 . S
Tb588 O635 2.320 . S
Tb588 O636 2.552 . S
Tb588 O637 2.413 . S
Tb588 O639 2.362 . S
Tb588 O640 2.421 . S
Tb588 C652 2.833 . S
C589 C592 1.432 . S
C589 C593 1.414 . S
C589 N596 1.359 . S
C590 C592 1.417 . S
C590 C594 1.432 . S
C590 C602 1.410 . S
C591 C593 1.444 . S
C591 C594 1.317 . S
C591 H614 0.929 . S
C592 C589 1.432 . S
C592 C590 1.417 . S
C592 N600 1.360 . S
C593 C589 1.414 . S
C593 C591 1.444 . S
C593 C598 1.385 . S
C594 C590 1.432 . S
C594 C591 1.317 . S
C594 H606 0.930 . S
C595 C597 1.392 . S
C595 C598 1.370 . S
C595 H607 0.931 . S
N596 C589 1.359 . S
N596 C597 1.327 . S
N596 Tb599 2.600 . S
C597 C595 1.392 . S
C597 N596 1.327 . S
C597 H604 0.930 . S
C598 C593 1.385 . S
C598 C595 1.370 . S
C598 H617 0.930 . S
Tb599 N596 2.600 . S
Tb599 N600 2.660 . S
Tb599 O633 2.362 . S
Tb599 O634 2.421 . S
Tb599 O638 2.546 . S
Tb599 O639 2.610 . S
Tb599 O641 2.320 . S
Tb599 O642 2.552 . S
Tb599 O643 2.413 . S
Tb599 C663 2.833 . S
N600 C592 1.360 . S
N600 Tb599 2.660 . S
N600 C601 1.305 . S
C601 N600 1.305 . S
C601 C603 1.407 . S
C601 H608 0.930 . S
C602 C590 1.410 . S
C602 C603 1.345 . S
C602 H610 0.930 . S
C603 C601 1.407 . S
C603 C602 1.345 . S
C603 H605 0.930 . S
H604 C597 0.930 . S
H605 C603 0.930 . S
H606 C594 0.930 . S
H607 C595 0.931 . S
H608 C601 0.930 . S
H609 C623 0.930 . S
H610 C602 0.930 . S
H611 C629 0.930 . S
H612 C620 0.930 . S
H613 C627 0.931 . S
H614 C591 0.929 . S
H615 C621 0.930 . S
H616 C654 0.930 . S
H617 C598 0.930 . S
H618 C653 0.929 . S
N619 Tb588 2.660 . S
N619 C620 1.305 . S
N619 C624 1.360 . S
C620 H612 0.930 . S
C620 N619 1.305 . S
C620 C623 1.407 . S
C621 H615 0.930 . S
C621 C622 1.410 . S
C621 C623 1.345 . S
C622 C621 1.410 . S
C622 C624 1.417 . S
C622 C654 1.432 . S
C623 H609 0.930 . S
C623 C620 1.407 . S
C623 C621 1.345 . S
C624 N619 1.360 . S
C624 C622 1.417 . S
C624 C628 1.432 . S
H625 C630 0.930 . S
N626 Tb588 2.600 . S
N626 C628 1.359 . S
N626 C629 1.327 . S
C627 H613 0.931 . S
C627 C629 1.392 . S
C627 C630 1.370 . S
C628 C624 1.432 . S
C628 N626 1.359 . S
C628 C631 1.414 . S
C629 H611 0.930 . S
C629 N626 1.327 . S
C629 C627 1.392 . S
C630 H625 0.930 . S
C630 C627 1.370 . S
C630 C631 1.385 . S
C631 C628 1.414 . S
C631 C630 1.385 . S
C631 C653 1.444 . S
O632 Tb588 2.546 . S
O632 C652 1.251 . S
O633 Tb588 2.610 . S
O633 Tb599 2.362 . S
O633 C644 1.283 . S
O634 Tb599 2.421 . S
O634 C651 1.262 . S
O635 Tb588 2.320 . S
O635 C651 1.260 . S
O636 Tb588 2.552 . S
O636 C644 1.243 . S
O637 Tb588 2.413 . S
O637 C652 1.256 . S
O638 Tb599 2.546 . S
O638 C663 1.251 . S
O639 Tb588 2.362 . S
O639 Tb599 2.610 . S
O639 C655 1.283 . S
O640 Tb588 2.421 . S
O640 C662 1.262 . S
O641 Tb599 2.320 . S
O641 C662 1.260 . S
O642 Tb599 2.552 . S
O642 C655 1.243 . S
O643 Tb599 2.413 . S
O643 C663 1.256 . S
C644 O633 1.283 . S
C644 O636 1.243 . S
C645 C647 1.382 . S
C645 C649 1.393 . S
C645 C652 1.500 . S
C646 C647 1.400 . S
C646 C648 1.384 . S
C647 C645 1.382 . S
C647 C646 1.400 . S
C647 H664 0.930 . S
C648 C646 1.384 . S
C648 C650 1.392 . S
C648 H665 0.931 . S
C649 C645 1.393 . S
C649 C650 1.401 . S
C649 H666 0.930 . S
C650 C648 1.392 . S
C650 C649 1.401 . S
C650 H667 0.930 . S
C651 O634 1.262 . S
C651 O635 1.260 . S
C652 Tb588 2.833 . S
C652 O632 1.251 . S
C652 O637 1.256 . S
C652 C645 1.500 . S
C653 H618 0.929 . S
C653 C631 1.444 . S
C653 C654 1.317 . S
C654 H616 0.930 . S
C654 C622 1.432 . S
C654 C653 1.317 . S
C655 O639 1.283 . S
C655 O642 1.243 . S
C656 C657 1.382 . S
C656 C660 1.393 . S
C656 C663 1.500 . S
C657 C656 1.382 . S
C657 C658 1.400 . S
C657 H668 0.930 . S
C658 C657 1.400 . S
C658 C659 1.384 . S
C659 C658 1.384 . S
C659 C661 1.392 . S
C659 H669 0.931 . S
C660 C656 1.393 . S
C660 C661 1.401 . S
C660 H670 0.930 . S
C661 C659 1.392 . S
C661 C660 1.401 . S
C661 H671 0.930 . S
C662 O640 1.262 . S
C662 O641 1.260 . S
C663 Tb599 2.833 . S
C663 O638 1.251 . S
C663 O643 1.256 . S
C663 C656 1.500 . S
H664 C647 0.930 . S
H665 C648 0.931 . S
H666 C649 0.930 . S
H667 C650 0.930 . S
H668 C657 0.930 . S
H669 C659 0.931 . S
H670 C660 0.930 . S
H671 C661 0.930 . S
Fe672 O673 1.886 1_455 S
Fe672 O676 1.715 . S
Fe672 O681 2.077 1_455 S
Fe672 O686 1.935 . S
Fe672 O692 2.077 1_455 S
Fe672 O701 1.935 . S
O673 Fe672 1.886 1_655 S
O673 Fe675 1.715 1_545 S
Fe674 O676 1.886 . S
Fe674 O677 1.715 1_545 S
Fe674 O684 1.935 1_545 S
Fe674 O685 2.077 . S
Fe674 O691 1.935 1_545 S
Fe674 O700 2.077 . S
Fe675 O673 1.715 1_565 S
Fe675 O678 1.886 . S
Fe675 O682 1.935 1_565 S
Fe675 O687 2.077 . S
Fe675 O693 1.935 1_565 S
Fe675 O697 2.077 . S
O676 Fe672 1.715 . S
O676 Fe674 1.886 . S
O677 Fe674 1.715 1_565 S
O677 Fe679 1.886 1_455 S
O678 Fe675 1.886 . S
O678 Fe679 1.715 . S
Fe679 O677 1.886 1_655 S
Fe679 O678 1.715 . S
Fe679 O683 2.077 1_655 S
Fe679 O688 1.935 . S
Fe679 O690 2.077 1_655 S
Fe679 O698 1.935 . S
C680 O692 1.381 . S
C680 O693 1.421 . S
O681 Fe672 2.077 1_655 S
O681 C694 1.381 . S
O682 Fe675 1.935 1_545 S
O682 C694 1.421 . S
O683 Fe679 2.077 1_455 S
O683 C699 1.381 . S
O684 Fe674 1.935 1_565 S
O684 C699 1.421 . S
O685 Fe674 2.077 . S
O685 C689 1.381 . S
O686 Fe672 1.935 . S
O686 C689 1.421 . S
O687 Fe675 2.077 . S
O687 C695 1.381 . S
O688 Fe679 1.935 . S
O688 C695 1.421 . S
C689 O685 1.381 . S
C689 O686 1.421 . S
O690 Fe679 2.077 1_455 S
O690 C702 1.381 . S
O691 Fe674 1.935 1_565 S
O691 C702 1.421 . S
O692 Fe672 2.077 1_655 S
O692 C680 1.381 . S
O693 Fe675 1.935 1_545 S
O693 C680 1.421 . S
C694 O681 1.381 . S
C694 O682 1.421 . S
C695 O687 1.381 . S
C695 O688 1.421 . S
C696 O697 1.381 . S
C696 O698 1.421 . S
O697 Fe675 2.077 . S
O697 C696 1.381 . S
O698 Fe679 1.935 . S
O698 C696 1.421 . S
C699 O683 1.381 . S
C699 O684 1.421 . S
O700 Fe674 2.077 . S
O700 C703 1.381 . S
O701 Fe672 1.935 . S
O701 C703 1.421 . S
C702 O690 1.381 . S
C702 O691 1.421 . S
C703 O700 1.381 . S
C703 O701 1.421 . S
Fe704 O705 1.886 . S
Fe704 O708 1.714 . S
Fe704 O713 2.077 1_554 S
Fe704 O718 1.935 1_554 S
Fe704 O724 2.077 . S
Fe704 O733 1.935 . S
O705 Fe704 1.886 . S
O705 Fe707 1.715 1_565 S
Fe706 O708 1.887 1_556 S
Fe706 O709 1.715 1_565 S
Fe706 O716 1.935 1_565 S
Fe706 O717 2.077 . S
Fe706 O723 1.935 1_566 S
Fe706 O732 2.077 1_556 S
Fe707 O705 1.715 1_545 S
Fe707 O710 1.886 1_554 S
Fe707 O714 1.935 1_544 S
Fe707 O719 2.077 1_554 S
Fe707 O725 1.935 1_545 S
Fe707 O729 2.077 . S
O708 Fe704 1.714 . S
O708 Fe706 1.887 1_554 S
O709 Fe706 1.715 1_545 S
O709 Fe711 1.886 . S
O710 Fe707 1.886 1_556 S
O710 Fe711 1.714 . S
Fe711 O709 1.886 . S
Fe711 O710 1.714 . S
Fe711 O715 2.077 . S
Fe711 O720 1.935 . S
Fe711 O722 2.077 1_556 S
Fe711 O730 1.935 1_556 S
C712 O724 1.381 . S
C712 O725 1.421 . S
O713 Fe704 2.077 1_556 S
O713 C726 1.381 . S
O714 Fe707 1.935 1_566 S
O714 C726 1.421 . S
O715 Fe711 2.077 . S
O715 C731 1.381 . S
O716 Fe706 1.935 1_545 S
O716 C731 1.421 . S
O717 Fe706 2.077 . S
O717 C721 1.381 . S
O718 Fe704 1.935 1_556 S
O718 C721 1.421 . S
O719 Fe707 2.077 1_556 S
O719 C727 1.381 . S
O720 Fe711 1.935 . S
O720 C727 1.421 . S
C721 O717 1.381 . S
C721 O718 1.421 . S
O722 Fe711 2.077 1_554 S
O722 C734 1.381 . S
O723 Fe706 1.935 1_544 S
O723 C734 1.421 . S
O724 Fe704 2.077 . S
O724 C712 1.381 . S
O725 Fe707 1.935 1_565 S
O725 C712 1.421 . S
C726 O713 1.381 . S
C726 O714 1.421 . S
C727 O719 1.381 . S
C727 O720 1.421 . S
C728 O729 1.381 . S
C728 O730 1.421 . S
O729 Fe707 2.077 . S
O729 C728 1.381 . S
O730 Fe711 1.935 1_554 S
O730 C728 1.421 . S
C731 O715 1.381 . S
C731 O716 1.421 . S
O732 Fe706 2.077 1_554 S
O732 C735 1.381 . S
O733 Fe704 1.935 . S
O733 C735 1.421 . S
C734 O722 1.381 . S
C734 O723 1.421 . S
C735 O732 1.381 . S
C735 O733 1.421 . S
Fe736 O737 1.886 1_455 S
Fe736 O740 1.715 . S
Fe736 O745 2.077 1_455 S
Fe736 O750 1.935 . S
Fe736 O756 2.077 1_456 S
Fe736 O765 1.935 1_556 S
O737 Fe736 1.886 1_655 S
O737 Fe739 1.715 . S
Fe738 O740 1.886 1_554 S
Fe738 O741 1.715 . S
Fe738 O748 1.935 1_554 S
Fe738 O749 2.077 1_554 S
Fe738 O755 1.935 . S
Fe738 O764 2.077 . S
Fe739 O737 1.715 . S
Fe739 O742 1.887 1_556 S
Fe739 O746 1.935 . S
Fe739 O751 2.077 . S
Fe739 O757 1.935 1_556 S
Fe739 O761 2.077 1_556 S
O740 Fe736 1.715 . S
O740 Fe738 1.886 1_556 S
O741 Fe738 1.715 . S
O741 Fe743 1.886 1_455 S
O742 Fe739 1.887 1_554 S
O742 Fe743 1.714 . S
Fe743 O741 1.886 1_655 S
Fe743 O742 1.714 . S
Fe743 O747 2.077 1_654 S
Fe743 O752 1.935 1_554 S
Fe743 O754 2.077 1_655 S
Fe743 O762 1.935 . S
C744 O756 1.381 . S
C744 O757 1.421 . S
O745 Fe736 2.077 1_655 S
O745 C758 1.381 . S
O746 Fe739 1.935 . S
O746 C758 1.421 . S
O747 Fe743 2.077 1_456 S
O747 C763 1.381 . S
O748 Fe738 1.935 1_556 S
O748 C763 1.421 . S
O749 Fe738 2.077 1_556 S
O749 C753 1.381 . S
O750 Fe736 1.935 . S
O750 C753 1.421 . S
O751 Fe739 2.077 . S
O751 C759 1.381 . S
O752 Fe743 1.935 1_556 S
O752 C759 1.421 . S
C753 O749 1.381 . S
C753 O750 1.421 . S
O754 Fe743 2.077 1_455 S
O754 C766 1.381 . S
O755 Fe738 1.935 . S
O755 C766 1.421 . S
O756 Fe736 2.077 1_654 S
O756 C744 1.381 . S
O757 Fe739 1.935 1_554 S
O757 C744 1.421 . S
C758 O745 1.381 . S
C758 O746 1.421 . S
C759 O751 1.381 . S
C759 O752 1.421 . S
C760 O761 1.381 . S
C760 O762 1.421 . S
O761 Fe739 2.077 1_554 S
O761 C760 1.381 . S
O762 Fe743 1.935 . S
O762 C760 1.421 . S
C763 O747 1.381 . S
C763 O748 1.421 . S
O764 Fe738 2.077 . S
O764 C767 1.381 . S
O765 Fe736 1.935 1_554 S
O765 C767 1.421 . S
C766 O754 1.381 . S
C766 O755 1.421 . S
C767 O764 1.381 . S
C767 O765 1.421 . S
Fe768 O769 1.886 . S
Fe768 O772 1.715 . S
Fe768 O777 2.077 . S
Fe768 O782 1.935 . S
Fe768 O788 2.077 . S
Fe768 O797 1.935 . S
O769 Fe768 1.886 . S
O769 Fe771 1.715 1_556 S
Fe770 O772 1.886 . S
Fe770 O773 1.715 1_556 S
Fe770 O780 1.935 1_556 S
Fe770 O781 2.077 . S
Fe770 O787 1.935 1_556 S
Fe770 O796 2.077 . S
Fe771 O769 1.715 1_554 S
Fe771 O774 1.886 . S
Fe771 O778 1.935 1_554 S
Fe771 O783 2.077 . S
Fe771 O789 1.935 1_554 S
Fe771 O793 2.077 . S
O772 Fe768 1.715 . S
O772 Fe770 1.886 . S
O773 Fe770 1.715 1_554 S
O773 Fe775 1.886 . S
O774 Fe771 1.886 . S
O774 Fe775 1.715 . S
Fe775 O773 1.886 . S
Fe775 O774 1.715 . S
Fe775 O779 2.077 . S
Fe775 O784 1.935 . S
Fe775 O786 2.077 . S
Fe775 O794 1.935 . S
C776 O788 1.381 . S
C776 O789 1.421 . S
O777 Fe768 2.077 . S
O777 C790 1.381 . S
O778 Fe771 1.935 1_556 S
O778 C790 1.421 . S
O779 Fe775 2.077 . S
O779 C795 1.381 . S
O780 Fe770 1.935 1_554 S
O780 C795 1.421 . S
O781 Fe770 2.077 . S
O781 C785 1.381 . S
O782 Fe768 1.935 . S
O782 C785 1.421 . S
O783 Fe771 2.077 . S
O783 C791 1.381 . S
O784 Fe775 1.935 . S
O784 C791 1.421 . S
C785 O781 1.381 . S
C785 O782 1.421 . S
O786 Fe775 2.077 . S
O786 C798 1.381 . S
O787 Fe770 1.935 1_554 S
O787 C798 1.421 . S
O788 Fe768 2.077 . S
O788 C776 1.381 . S
O789 Fe771 1.935 1_556 S
O789 C776 1.421 . S
C790 O777 1.381 . S
C790 O778 1.421 . S
C791 O783 1.381 . S
C791 O784 1.421 . S
C792 O793 1.381 . S
C792 O794 1.421 . S
O793 Fe771 2.077 . S
O793 C792 1.381 . S
O794 Fe775 1.935 . S
O794 C792 1.421 . S
C795 O779 1.381 . S
C795 O780 1.421 . S
O796 Fe770 2.077 . S
O796 C799 1.381 . S
O797 Fe768 1.935 . S
O797 C799 1.421 . S
C798 O786 1.381 . S
C798 O787 1.421 . S
C799 O796 1.381 . S
C799 O797 1.421 . S
Fe800 O801 1.886 . S
Fe800 O804 1.715 . S
Fe800 O809 2.077 1_655 S
Fe800 O814 1.935 1_655 S
Fe800 O820 2.077 . S
Fe800 O829 1.935 . S
O801 Fe800 1.886 . S
O801 Fe803 1.715 1_655 S
Fe802 O804 1.886 . S
Fe802 O805 1.715 1_655 S
Fe802 O812 1.935 1_655 S
Fe802 O813 2.077 1_655 S
Fe802 O819 1.935 . S
Fe802 O828 2.077 . S
Fe803 O801 1.715 1_455 S
Fe803 O806 1.886 . S
Fe803 O810 1.935 . S
Fe803 O815 2.077 . S
Fe803 O821 1.935 1_455 S
Fe803 O825 2.077 1_455 S
O804 Fe800 1.715 . S
O804 Fe802 1.886 . S
O805 Fe802 1.715 1_455 S
O805 Fe807 1.886 . S
O806 Fe803 1.886 . S
O806 Fe807 1.715 . S
Fe807 O805 1.886 . S
Fe807 O806 1.715 . S
Fe807 O811 2.077 . S
Fe807 O816 1.935 . S
Fe807 O818 2.077 1_455 S
Fe807 O826 1.935 1_455 S
C808 O820 1.381 . S
C808 O821 1.421 . S
O809 Fe800 2.077 1_455 S
O809 C822 1.381 . S
O810 Fe803 1.935 . S
O810 C822 1.421 . S
O811 Fe807 2.077 . S
O811 C827 1.381 . S
O812 Fe802 1.935 1_455 S
O812 C827 1.421 . S
O813 Fe802 2.077 1_455 S
O813 C817 1.381 . S
O814 Fe800 1.935 1_455 S
O814 C817 1.421 . S
O815 Fe803 2.077 . S
O815 C823 1.381 . S
O816 Fe807 1.935 . S
O816 C823 1.421 . S
C817 O813 1.381 . S
C817 O814 1.421 . S
O818 Fe807 2.077 1_655 S
O818 C830 1.381 . S
O819 Fe802 1.935 . S
O819 C830 1.421 . S
O820 Fe800 2.077 . S
O820 C808 1.381 . S
O821 Fe803 1.935 1_655 S
O821 C808 1.421 . S
C822 O809 1.381 . S
C822 O810 1.421 . S
C823 O815 1.381 . S
C823 O816 1.421 . S
C824 O825 1.381 . S
C824 O826 1.421 . S
O825 Fe803 2.077 1_655 S
O825 C824 1.381 . S
O826 Fe807 1.935 1_655 S
O826 C824 1.421 . S
C827 O811 1.381 . S
C827 O812 1.421 . S
O828 Fe802 2.077 . S
O828 C831 1.381 . S
O829 Fe800 1.935 . S
O829 C831 1.421 . S
C830 O818 1.381 . S
C830 O819 1.421 . S
C831 O828 1.381 . S
C831 O829 1.421 . S
Fe832 O833 1.886 . S
Fe832 O836 1.715 . S
Fe832 O841 2.077 . S
Fe832 O846 1.935 . S
Fe832 O852 2.077 . S
Fe832 O861 1.935 . S
O833 Fe832 1.886 . S
O833 Fe835 1.715 . S
Fe834 O836 1.886 1_545 S
Fe834 O837 1.715 . S
Fe834 O844 1.935 . S
Fe834 O845 2.077 1_545 S
Fe834 O851 1.935 . S
Fe834 O860 2.077 1_545 S
Fe835 O833 1.715 . S
Fe835 O838 1.886 1_565 S
Fe835 O842 1.935 . S
Fe835 O847 2.077 1_565 S
Fe835 O853 1.935 . S
Fe835 O857 2.077 1_565 S
O836 Fe832 1.715 . S
O836 Fe834 1.886 1_565 S
O837 Fe834 1.715 . S
O837 Fe839 1.886 . S
O838 Fe835 1.886 1_545 S
O838 Fe839 1.715 . S
Fe839 O837 1.886 . S
Fe839 O838 1.715 . S
Fe839 O843 2.077 . S
Fe839 O848 1.935 . S
Fe839 O850 2.077 . S
Fe839 O858 1.935 . S
C840 O852 1.381 . S
C840 O853 1.421 . S
O841 Fe832 2.077 . S
O841 C854 1.381 . S
O842 Fe835 1.935 . S
O842 C854 1.421 . S
O843 Fe839 2.077 . S
O843 C859 1.381 . S
O844 Fe834 1.935 . S
O844 C859 1.421 . S
O845 Fe834 2.077 1_565 S
O845 C849 1.381 . S
O846 Fe832 1.935 . S
O846 C849 1.421 . S
O847 Fe835 2.077 1_545 S
O847 C855 1.381 . S
O848 Fe839 1.935 . S
O848 C855 1.421 . S
C849 O845 1.381 . S
C849 O846 1.421 . S
O850 Fe839 2.077 . S
O850 C862 1.381 . S
O851 Fe834 1.935 . S
O851 C862 1.421 . S
O852 Fe832 2.077 . S
O852 C840 1.381 . S
O853 Fe835 1.935 . S
O853 C840 1.421 . S
C854 O841 1.381 . S
C854 O842 1.421 . S
C855 O847 1.381 . S
C855 O848 1.421 . S
C856 O857 1.381 . S
C856 O858 1.421 . S
O857 Fe835 2.077 1_545 S
O857 C856 1.381 . S
O858 Fe839 1.935 . S
O858 C856 1.421 . S
C859 O843 1.381 . S
C859 O844 1.421 . S
O860 Fe834 2.077 1_565 S
O860 C863 1.381 . S
O861 Fe832 1.935 . S
O861 C863 1.421 . S
C862 O850 1.381 . S
C862 O851 1.421 . S
C863 O860 1.381 . S
C863 O861 1.421 . S
C864 C865 1.363 . S
C864 C870 1.379 . S
C864 N872 1.356 . S
C865 C864 1.363 . S
C865 C871 1.363 . S
C866 C867 1.363 . S
C866 C871 1.379 . S
C866 N873 1.356 . S
C867 C866 1.363 . S
C867 C870 1.363 . S
N868 C870 1.356 . S
N868 H880 0.984 . S
N868 H881 0.985 . S
N869 C871 1.356 . S
N869 H874 0.984 . S
N869 H875 0.985 . S
C870 C864 1.379 . S
C870 C867 1.363 . S
C870 N868 1.356 . S
C871 C865 1.363 . S
C871 C866 1.379 . S
C871 N869 1.356 . S
N872 C864 1.356 . S
N872 H878 0.984 . S
N872 H879 0.984 . S
N873 C866 1.356 . S
N873 H876 0.984 . S
N873 H877 0.985 . S
H874 N869 0.984 . S
H875 N869 0.985 . S
H876 N873 0.984 . S
H877 N873 0.985 . S
H878 N872 0.984 . S
H879 N872 0.984 . S
H880 N868 0.984 . S
H881 N868 0.985 . S
C882 C883 1.363 . S
C882 C888 1.379 . S
C882 N890 1.356 . S
C883 C882 1.363 . S
C883 C889 1.363 . S
C884 C885 1.363 . S
C884 C889 1.379 . S
C884 N891 1.356 . S
C885 C884 1.363 . S
C885 C888 1.363 . S
N886 C888 1.356 . S
N886 H898 0.984 1_655 S
N886 H899 0.985 1_655 S
N887 C889 1.356 . S
N887 H892 0.984 . S
N887 H893 0.985 . S
C888 C882 1.379 . S
C888 C885 1.363 . S
C888 N886 1.356 . S
C889 C883 1.363 . S
C889 C884 1.379 . S
C889 N887 1.356 . S
N890 C882 1.356 . S
N890 H896 0.984 . S
N890 H897 0.984 . S
N891 C884 1.356 . S
N891 H894 0.984 . S
N891 H895 0.985 1_545 S
H892 N887 0.984 . S
H893 N887 0.985 . S
H894 N891 0.984 . S
H895 N891 0.985 1_565 S
H896 N890 0.984 . S
H897 N890 0.984 . S
H898 N886 0.984 1_455 S
H899 N886 0.985 1_455 S
C900 C901 1.363 . S
C900 C906 1.379 . S
C900 N908 1.356 . S
C901 C900 1.363 . S
C901 C907 1.363 . S
C902 C903 1.363 . S
C902 C907 1.379 . S
C902 N909 1.356 . S
C903 C902 1.363 . S
C903 C906 1.363 . S
N904 C906 1.356 . S
N904 H916 0.984 . S
N904 H917 0.985 . S
N905 C907 1.356 . S
N905 H910 0.984 . S
N905 H911 0.985 . S
C906 C900 1.379 . S
C906 C903 1.363 . S
C906 N904 1.356 . S
C907 C901 1.363 . S
C907 C902 1.379 . S
C907 N905 1.356 . S
N908 C900 1.356 . S
N908 H914 0.984 . S
N908 H915 0.984 . S
N909 C902 1.356 . S
N909 H912 0.984 . S
N909 H913 0.985 . S
H910 N905 0.984 . S
H911 N905 0.985 . S
H912 N909 0.984 . S
H913 N909 0.985 . S
H914 N908 0.984 . S
H915 N908 0.984 . S
H916 N904 0.984 . S
H917 N904 0.985 . S
C918 C919 1.363 . S
C918 C924 1.379 . S
C918 N926 1.356 . S
C919 C918 1.363 . S
C919 C925 1.363 . S
C920 C921 1.363 . S
C920 C925 1.379 . S
C920 N927 1.356 . S
C921 C920 1.363 . S
C921 C924 1.363 . S
N922 C924 1.356 . S
N922 H934 0.984 . S
N922 H935 0.985 . S
N923 C925 1.356 . S
N923 H928 0.984 . S
N923 H929 0.985 . S
C924 C918 1.379 . S
C924 C921 1.363 . S
C924 N922 1.356 . S
C925 C919 1.363 . S
C925 C920 1.379 . S
C925 N923 1.356 . S
N926 C918 1.356 . S
N926 H932 0.984 . S
N926 H933 0.984 . S
N927 C920 1.356 . S
N927 H930 0.984 . S
N927 H931 0.985 1_455 S
H928 N923 0.984 . S
H929 N923 0.985 . S
H930 N927 0.984 . S
H931 N927 0.985 1_655 S
H932 N926 0.984 . S
H933 N926 0.984 . S
H934 N922 0.984 . S
H935 N922 0.985 . S
C936 C937 1.363 . S
C936 C942 1.379 . S
C936 N944 1.356 . S
C937 C936 1.363 . S
C937 C943 1.363 . S
C938 C939 1.363 . S
C938 C943 1.379 . S
C938 N945 1.356 . S
C939 C938 1.363 . S
C939 C942 1.363 . S
N940 C942 1.356 . S
N940 H952 0.984 . S
N940 H953 0.985 . S
N941 C943 1.356 . S
N941 H946 0.984 . S
N941 H947 0.985 . S
C942 C936 1.379 . S
C942 C939 1.363 . S
C942 N940 1.356 . S
C943 C937 1.363 . S
C943 C938 1.379 . S
C943 N941 1.356 . S
N944 C936 1.356 . S
N944 H950 0.984 . S
N944 H951 0.984 . S
N945 C938 1.356 . S
N945 H948 0.984 . S
N945 H949 0.985 1_565 S
H946 N941 0.984 . S
H947 N941 0.985 . S
H948 N945 0.984 . S
H949 N945 0.985 1_545 S
H950 N944 0.984 . S
H951 N944 0.984 . S
H952 N940 0.984 . S
H953 N940 0.985 . S
C954 C955 1.363 . S
C954 C960 1.379 . S
C954 N962 1.356 . S
C955 C954 1.363 . S
C955 C961 1.363 . S
C956 C957 1.363 . S
C956 C961 1.379 . S
C956 N963 1.356 . S
C957 C956 1.363 . S
C957 C960 1.363 . S
N958 C960 1.356 . S
N958 H970 0.984 . S
N958 H971 0.985 . S
N959 C961 1.356 . S
N959 H964 0.984 . S
N959 H965 0.985 . S
C960 C954 1.379 . S
C960 C957 1.363 . S
C960 N958 1.356 . S
C961 C955 1.363 . S
C961 C956 1.379 . S
C961 N959 1.356 . S
N962 C954 1.356 . S
N962 H968 0.984 . S
N962 H969 0.984 . S
N963 C956 1.356 . S
N963 H966 0.984 . S
N963 H967 0.985 . S
H964 N959 0.984 . S
H965 N959 0.985 . S
H966 N963 0.984 . S
H967 N963 0.985 . S
H968 N962 0.984 . S
H969 N962 0.984 . S
H970 N958 0.984 . S
H971 N958 0.985 . S
C972 C973 1.363 . S
C972 C978 1.379 . S
C972 N980 1.356 . S
C973 C972 1.363 . S
C973 C979 1.363 . S
C974 C975 1.363 . S
C974 C979 1.379 . S
C974 N981 1.356 . S
C975 C974 1.363 . S
C975 C978 1.363 . S
N976 C978 1.356 . S
N976 H988 0.984 . S
N976 H989 0.985 . S
N977 C979 1.356 . S
N977 H982 0.984 . S
N977 H983 0.985 . S
C978 C972 1.379 . S
C978 C975 1.363 . S
C978 N976 1.356 . S
C979 C973 1.363 . S
C979 C974 1.379 . S
C979 N977 1.356 . S
N980 C972 1.356 . S
N980 H986 0.984 . S
N980 H987 0.984 . S
N981 C974 1.356 . S
N981 H984 0.984 . S
N981 H985 0.985 . S
H982 N977 0.984 . S
H983 N977 0.985 . S
H984 N981 0.984 . S
H985 N981 0.985 . S
H986 N980 0.984 . S
H987 N980 0.984 . S
H988 N976 0.984 . S
H989 N976 0.985 . S
C990 C991 1.363 . S
C990 C996 1.379 . S
C990 N998 1.356 . S
C991 C990 1.363 . S
C991 C997 1.363 . S
C992 C993 1.363 . S
C992 C997 1.379 . S
C992 N999 1.356 . S
C993 C992 1.363 . S
C993 C996 1.363 . S
N994 C996 1.356 . S
N994 H1006 0.984 . S
N994 H1007 0.985 . S
N995 C997 1.356 . S
N995 H1000 0.984 . S
N995 H1001 0.985 . S
C996 C990 1.379 . S
C996 C993 1.363 . S
C996 N994 1.356 . S
C997 C991 1.363 . S
C997 C992 1.379 . S
C997 N995 1.356 . S
N998 C990 1.356 . S
N998 H1004 0.984 . S
N998 H1005 0.984 . S
N999 C992 1.356 . S
N999 H1002 0.984 . S
N999 H1003 0.985 . S
H1000 N995 0.984 . S
H1001 N995 0.985 . S
H1002 N999 0.984 . S
H1003 N999 0.985 . S
H1004 N998 0.984 . S
H1005 N998 0.984 . S
H1006 N994 0.984 . S
H1007 N994 0.985 . S
C1008 C1009 1.363 . S
C1008 C1014 1.379 . S
C1008 N1016 1.356 . S
C1009 C1008 1.363 . S
C1009 C1015 1.363 . S
C1010 C1011 1.363 . S
C1010 C1015 1.379 . S
C1010 N1017 1.356 . S
C1011 C1010 1.363 . S
C1011 C1014 1.363 . S
N1012 C1014 1.356 . S
N1012 H1024 0.984 . S
N1012 H1025 0.985 . S
N1013 C1015 1.356 . S
N1013 H1018 0.984 . S
N1013 H1019 0.985 . S
C1014 C1008 1.379 . S
C1014 C1011 1.363 . S
C1014 N1012 1.356 . S
C1015 C1009 1.363 . S
C1015 C1010 1.379 . S
C1015 N1013 1.356 . S
N1016 C1008 1.356 . S
N1016 H1022 0.984 . S
N1016 H1023 0.984 . S
N1017 C1010 1.356 . S
N1017 H1020 0.984 . S
N1017 H1021 0.985 1_545 S
H1018 N1013 0.984 . S
H1019 N1013 0.985 . S
H1020 N1017 0.984 . S
H1021 N1017 0.985 1_565 S
H1022 N1016 0.984 . S
H1023 N1016 0.984 . S
H1024 N1012 0.984 . S
H1025 N1012 0.985 . S
C1026 C1027 1.363 . S
C1026 C1032 1.379 . S
C1026 N1034 1.356 . S
C1027 C1026 1.363 . S
C1027 C1033 1.363 . S
C1028 C1029 1.363 . S
C1028 C1033 1.379 . S
C1028 N1035 1.356 . S
C1029 C1028 1.363 . S
C1029 C1032 1.363 . S
N1030 C1032 1.356 . S
N1030 H1042 0.984 . S
N1030 H1043 0.985 . S
N1031 C1033 1.356 . S
N1031 H1036 0.984 . S
N1031 H1037 0.985 . S
C1032 C1026 1.379 . S
C1032 C1029 1.363 . S
C1032 N1030 1.356 . S
C1033 C1027 1.363 . S
C1033 C1028 1.379 . S
C1033 N1031 1.356 . S
N1034 C1026 1.356 . S
N1034 H1040 0.984 . S
N1034 H1041 0.984 . S
N1035 C1028 1.356 . S
N1035 H1038 0.984 . S
N1035 H1039 0.985 . S
H1036 N1031 0.984 . S
H1037 N1031 0.985 . S
H1038 N1035 0.984 . S
H1039 N1035 0.985 . S
H1040 N1034 0.984 . S
H1041 N1034 0.984 . S
H1042 N1030 0.984 . S
H1043 N1030 0.985 . S
C1044 C1045 1.363 . S
C1044 C1050 1.379 . S
C1044 N1052 1.356 . S
C1045 C1044 1.363 . S
C1045 C1051 1.363 . S
C1046 C1047 1.363 . S
C1046 C1051 1.379 . S
C1046 N1053 1.356 . S
C1047 C1046 1.363 . S
C1047 C1050 1.363 . S
N1048 C1050 1.356 . S
N1048 H1060 0.984 . S
N1048 H1061 0.985 . S
N1049 C1051 1.356 . S
N1049 H1054 0.984 . S
N1049 H1055 0.985 . S
C1050 C1044 1.379 . S
C1050 C1047 1.363 . S
C1050 N1048 1.356 . S
C1051 C1045 1.363 . S
C1051 C1046 1.379 . S
C1051 N1049 1.356 . S
N1052 C1044 1.356 . S
N1052 H1058 0.984 . S
N1052 H1059 0.984 . S
N1053 C1046 1.356 . S
N1053 H1056 0.984 . S
N1053 H1057 0.985 . S
H1054 N1049 0.984 . S
H1055 N1049 0.985 . S
H1056 N1053 0.984 . S
H1057 N1053 0.985 . S
H1058 N1052 0.984 . S
H1059 N1052 0.984 . S
H1060 N1048 0.984 . S
H1061 N1048 0.985 . S
C1062 C1063 1.363 . S
C1062 C1068 1.379 . S
C1062 N1070 1.356 . S
C1063 C1062 1.363 . S
C1063 C1069 1.363 . S
C1064 C1065 1.363 . S
C1064 C1069 1.379 . S
C1064 N1071 1.356 . S
C1065 C1064 1.363 . S
C1065 C1068 1.363 . S
N1066 C1068 1.356 . S
N1066 H1078 0.984 . S
N1066 H1079 0.985 . S
N1067 C1069 1.356 . S
N1067 H1072 0.984 . S
N1067 H1073 0.985 . S
C1068 C1062 1.379 . S
C1068 C1065 1.363 . S
C1068 N1066 1.356 . S
C1069 C1063 1.363 . S
C1069 C1064 1.379 . S
C1069 N1067 1.356 . S
N1070 C1062 1.356 . S
N1070 H1076 0.984 . S
N1070 H1077 0.984 . S
N1071 C1064 1.356 . S
N1071 H1074 0.984 . S
N1071 H1075 0.985 . S
H1072 N1067 0.984 . S
H1073 N1067 0.985 . S
H1074 N1071 0.984 . S
H1075 N1071 0.985 . S
H1076 N1070 0.984 . S
H1077 N1070 0.984 . S
H1078 N1066 0.984 . S
H1079 N1066 0.985 . S
C1080 C1081 1.363 . S
C1080 C1086 1.379 . S
C1080 N1088 1.356 . S
C1081 C1080 1.363 . S
C1081 C1087 1.363 . S
C1082 C1083 1.363 . S
C1082 C1087 1.379 . S
C1082 N1089 1.356 . S
C1083 C1082 1.363 . S
C1083 C1086 1.363 . S
N1084 C1086 1.356 . S
N1084 H1096 0.984 . S
N1084 H1097 0.985 . S
N1085 C1087 1.356 . S
N1085 H1090 0.984 . S
N1085 H1091 0.985 . S
C1086 C1080 1.379 . S
C1086 C1083 1.363 . S
C1086 N1084 1.356 . S
C1087 C1081 1.363 . S
C1087 C1082 1.379 . S
C1087 N1085 1.356 . S
N1088 C1080 1.356 . S
N1088 H1094 0.984 . S
N1088 H1095 0.984 . S
N1089 C1082 1.356 . S
N1089 H1092 0.984 . S
N1089 H1093 0.985 . S
H1090 N1085 0.984 . S
H1091 N1085 0.985 . S
H1092 N1089 0.984 . S
H1093 N1089 0.985 . S
H1094 N1088 0.984 . S
H1095 N1088 0.984 . S
H1096 N1084 0.984 . S
H1097 N1084 0.985 . S
C1098 C1099 1.363 . S
C1098 C1104 1.379 . S
C1098 N1106 1.356 . S
C1099 C1098 1.363 . S
C1099 C1105 1.363 . S
C1100 C1101 1.363 . S
C1100 C1105 1.379 . S
C1100 N1107 1.356 . S
C1101 C1100 1.363 . S
C1101 C1104 1.363 . S
N1102 C1104 1.356 . S
N1102 H1114 0.984 . S
N1102 H1115 0.985 . S
N1103 C1105 1.356 . S
N1103 H1108 0.984 . S
N1103 H1109 0.985 . S
C1104 C1098 1.379 . S
C1104 C1101 1.363 . S
C1104 N1102 1.356 . S
C1105 C1099 1.363 . S
C1105 C1100 1.379 . S
C1105 N1103 1.356 . S
N1106 C1098 1.356 . S
N1106 H1112 0.984 . S
N1106 H1113 0.984 . S
N1107 C1100 1.356 . S
N1107 H1110 0.984 . S
N1107 H1111 0.985 1_455 S
H1108 N1103 0.984 . S
H1109 N1103 0.985 . S
H1110 N1107 0.984 . S
H1111 N1107 0.985 1_655 S
H1112 N1106 0.984 . S
H1113 N1106 0.984 . S
H1114 N1102 0.984 . S
H1115 N1102 0.985 . S
C1116 C1117 1.363 . S
C1116 C1122 1.379 . S
C1116 N1124 1.356 . S
C1117 C1116 1.363 . S
C1117 C1123 1.363 . S
C1118 C1119 1.363 . S
C1118 C1123 1.379 . S
C1118 N1125 1.356 . S
C1119 C1118 1.363 . S
C1119 C1122 1.363 . S
N1120 C1122 1.356 . S
N1120 H1132 0.984 . S
N1120 H1133 0.985 . S
N1121 C1123 1.356 . S
N1121 H1126 0.984 . S
N1121 H1127 0.985 . S
C1122 C1116 1.379 . S
C1122 C1119 1.363 . S
C1122 N1120 1.356 . S
C1123 C1117 1.363 . S
C1123 C1118 1.379 . S
C1123 N1121 1.356 . S
N1124 C1116 1.356 . S
N1124 H1130 0.984 . S
N1124 H1131 0.984 . S
N1125 C1118 1.356 . S
N1125 H1128 0.984 . S
N1125 H1129 0.985 . S
H1126 N1121 0.984 . S
H1127 N1121 0.985 . S
H1128 N1125 0.984 . S
H1129 N1125 0.985 . S
H1130 N1124 0.984 . S
H1131 N1124 0.984 . S
H1132 N1120 0.984 . S
H1133 N1120 0.985 . S
C1134 C1135 1.363 . S
C1134 C1140 1.379 . S
C1134 N1142 1.356 . S
C1135 C1134 1.363 . S
C1135 C1141 1.363 . S
C1136 C1137 1.363 . S
C1136 C1141 1.379 . S
C1136 N1143 1.356 . S
C1137 C1136 1.363 . S
C1137 C1140 1.363 . S
N1138 C1140 1.356 . S
N1138 H1150 0.984 . S
N1138 H1151 0.985 . S
N1139 C1141 1.356 . S
N1139 H1144 0.984 . S
N1139 H1145 0.985 . S
C1140 C1134 1.379 . S
C1140 C1137 1.363 . S
C1140 N1138 1.356 . S
C1141 C1135 1.363 . S
C1141 C1136 1.379 . S
C1141 N1139 1.356 . S
N1142 C1134 1.356 . S
N1142 H1148 0.984 . S
N1142 H1149 0.984 . S
N1143 C1136 1.356 . S
N1143 H1146 0.984 . S
N1143 H1147 0.985 . S
H1144 N1139 0.984 . S
H1145 N1139 0.985 . S
H1146 N1143 0.984 . S
H1147 N1143 0.985 . S
H1148 N1142 0.984 . S
H1149 N1142 0.984 . S
H1150 N1138 0.984 . S
H1151 N1138 0.985 . S
C1152 C1153 1.363 . S
C1152 C1158 1.379 . S
C1152 N1160 1.356 . S
C1153 C1152 1.363 . S
C1153 C1159 1.363 . S
C1154 C1155 1.363 . S
C1154 C1159 1.379 . S
C1154 N1161 1.356 . S
C1155 C1154 1.363 . S
C1155 C1158 1.363 . S
N1156 C1158 1.356 . S
N1156 H1168 0.984 . S
N1156 H1169 0.985 . S
N1157 C1159 1.356 . S
N1157 H1162 0.984 . S
N1157 H1163 0.985 . S
C1158 C1152 1.379 . S
C1158 C1155 1.363 . S
C1158 N1156 1.356 . S
C1159 C1153 1.363 . S
C1159 C1154 1.379 . S
C1159 N1157 1.356 . S
N1160 C1152 1.356 . S
N1160 H1166 0.984 . S
N1160 H1167 0.984 . S
N1161 C1154 1.356 . S
N1161 H1164 0.984 . S
N1161 H1165 0.985 . S
H1162 N1157 0.984 . S
H1163 N1157 0.985 . S
H1164 N1161 0.984 . S
H1165 N1161 0.985 . S
H1166 N1160 0.984 . S
H1167 N1160 0.984 . S
H1168 N1156 0.984 . S
H1169 N1156 0.985 . S
C1170 C1171 1.363 . S
C1170 C1176 1.379 . S
C1170 N1178 1.356 . S
C1171 C1170 1.363 . S
C1171 C1177 1.363 . S
C1172 C1173 1.363 . S
C1172 C1177 1.379 . S
C1172 N1179 1.356 . S
C1173 C1172 1.363 . S
C1173 C1176 1.363 . S
N1174 C1176 1.356 . S
N1174 H1186 0.984 . S
N1174 H1187 0.985 . S
N1175 C1177 1.356 . S
N1175 H1180 0.984 . S
N1175 H1181 0.985 . S
C1176 C1170 1.379 . S
C1176 C1173 1.363 . S
C1176 N1174 1.356 . S
C1177 C1171 1.363 . S
C1177 C1172 1.379 . S
C1177 N1175 1.356 . S
N1178 C1170 1.356 . S
N1178 H1184 0.984 . S
N1178 H1185 0.984 . S
N1179 C1172 1.356 . S
N1179 H1182 0.984 . S
N1179 H1183 0.985 . S
H1180 N1175 0.984 . S
H1181 N1175 0.985 . S
H1182 N1179 0.984 . S
H1183 N1179 0.985 . S
H1184 N1178 0.984 . S
H1185 N1178 0.984 . S
H1186 N1174 0.984 . S
H1187 N1174 0.985 . S
C1188 C1189 1.363 . S
C1188 C1194 1.379 . S
C1188 N1196 1.356 . S
C1189 C1188 1.363 . S
C1189 C1195 1.363 . S
C1190 C1191 1.363 . S
C1190 C1195 1.379 . S
C1190 N1197 1.356 . S
C1191 C1190 1.363 . S
C1191 C1194 1.363 . S
N1192 C1194 1.356 . S
N1192 H1204 0.984 . S
N1192 H1205 0.985 . S
N1193 C1195 1.356 . S
N1193 H1198 0.984 . S
N1193 H1199 0.985 . S
C1194 C1188 1.379 . S
C1194 C1191 1.363 . S
C1194 N1192 1.356 . S
C1195 C1189 1.363 . S
C1195 C1190 1.379 . S
C1195 N1193 1.356 . S
N1196 C1188 1.356 . S
N1196 H1202 0.984 . S
N1196 H1203 0.984 . S
N1197 C1190 1.356 . S
N1197 H1200 0.984 . S
N1197 H1201 0.985 . S
H1198 N1193 0.984 . S
H1199 N1193 0.985 . S
H1200 N1197 0.984 . S
H1201 N1197 0.985 . S
H1202 N1196 0.984 . S
H1203 N1196 0.984 . S
H1204 N1192 0.984 . S
H1205 N1192 0.985 . S
C1206 C1207 1.363 . S
C1206 C1212 1.379 . S
C1206 N1214 1.356 . S
C1207 C1206 1.363 . S
C1207 C1213 1.363 . S
C1208 C1209 1.363 . S
C1208 C1213 1.379 . S
C1208 N1215 1.356 . S
C1209 C1208 1.363 . S
C1209 C1212 1.363 . S
N1210 C1212 1.356 . S
N1210 H1222 0.984 . S
N1210 H1223 0.985 . S
N1211 C1213 1.356 . S
N1211 H1216 0.984 . S
N1211 H1217 0.985 . S
C1212 C1206 1.379 . S
C1212 C1209 1.363 . S
C1212 N1210 1.356 . S
C1213 C1207 1.363 . S
C1213 C1208 1.379 . S
C1213 N1211 1.356 . S
N1214 C1206 1.356 . S
N1214 H1220 0.984 . S
N1214 H1221 0.984 . S
N1215 C1208 1.356 . S
N1215 H1218 0.984 . S
N1215 H1219 0.985 . S
H1216 N1211 0.984 . S
H1217 N1211 0.985 . S
H1218 N1215 0.984 . S
H1219 N1215 0.985 . S
H1220 N1214 0.984 . S
H1221 N1214 0.984 . S
H1222 N1210 0.984 . S
H1223 N1210 0.985 . S
C1224 C1225 1.363 . S
C1224 C1230 1.379 . S
C1224 N1232 1.356 . S
C1225 C1224 1.363 . S
C1225 C1231 1.363 . S
C1226 C1227 1.363 . S
C1226 C1231 1.379 . S
C1226 N1233 1.356 . S
C1227 C1226 1.363 . S
C1227 C1230 1.363 . S
N1228 C1230 1.356 . S
N1228 H1240 0.984 1_565 S
N1228 H1241 0.985 . S
N1229 C1231 1.356 . S
N1229 H1234 0.984 . S
N1229 H1235 0.985 . S
C1230 C1224 1.379 . S
C1230 C1227 1.363 . S
C1230 N1228 1.356 . S
C1231 C1225 1.363 . S
C1231 C1226 1.379 . S
C1231 N1229 1.356 . S
N1232 C1224 1.356 . S
N1232 H1238 0.984 1_565 S
N1232 H1239 0.984 . S
N1233 C1226 1.356 . S
N1233 H1236 0.984 . S
N1233 H1237 0.985 . S
H1234 N1229 0.984 . S
H1235 N1229 0.985 . S
H1236 N1233 0.984 . S
H1237 N1233 0.985 . S
H1238 N1232 0.984 1_545 S
H1239 N1232 0.984 . S
H1240 N1228 0.984 1_545 S
H1241 N1228 0.985 . S
C1242 C1243 1.363 . S
C1242 C1248 1.379 . S
C1242 N1250 1.356 . S
C1243 C1242 1.363 . S
C1243 C1249 1.363 . S
C1244 C1245 1.363 . S
C1244 C1249 1.379 . S
C1244 N1251 1.356 . S
C1245 C1244 1.363 . S
C1245 C1248 1.363 . S
N1246 C1248 1.356 . S
N1246 H1258 0.984 . S
N1246 H1259 0.985 . S
N1247 C1249 1.356 . S
N1247 H1252 0.984 . S
N1247 H1253 0.985 . S
C1248 C1242 1.379 . S
C1248 C1245 1.363 . S
C1248 N1246 1.356 . S
C1249 C1243 1.363 . S
C1249 C1244 1.379 . S
C1249 N1247 1.356 . S
N1250 C1242 1.356 . S
N1250 H1256 0.984 . S
N1250 H1257 0.984 . S
N1251 C1244 1.356 . S
N1251 H1254 0.984 . S
N1251 H1255 0.985 1_554 S
H1252 N1247 0.984 . S
H1253 N1247 0.985 . S
H1254 N1251 0.984 . S
H1255 N1251 0.985 1_556 S
H1256 N1250 0.984 . S
H1257 N1250 0.984 . S
H1258 N1246 0.984 . S
H1259 N1246 0.985 . S
C1260 C1261 1.363 . S
C1260 C1266 1.379 . S
C1260 N1268 1.356 . S
C1261 C1260 1.363 . S
C1261 C1267 1.363 . S
C1262 C1263 1.363 . S
C1262 C1267 1.379 . S
C1262 N1269 1.356 . S
C1263 C1262 1.363 . S
C1263 C1266 1.363 . S
N1264 C1266 1.356 . S
N1264 H1276 0.984 . S
N1264 H1277 0.985 . S
N1265 C1267 1.356 . S
N1265 H1270 0.984 . S
N1265 H1271 0.985 . S
C1266 C1260 1.379 . S
C1266 C1263 1.363 . S
C1266 N1264 1.356 . S
C1267 C1261 1.363 . S
C1267 C1262 1.379 . S
C1267 N1265 1.356 . S
N1268 C1260 1.356 . S
N1268 H1274 0.984 . S
N1268 H1275 0.984 . S
N1269 C1262 1.356 . S
N1269 H1272 0.984 . S
N1269 H1273 0.985 . S
H1270 N1265 0.984 . S
H1271 N1265 0.985 . S
H1272 N1269 0.984 . S
H1273 N1269 0.985 . S
H1274 N1268 0.984 . S
H1275 N1268 0.984 . S
H1276 N1264 0.984 . S
H1277 N1264 0.985 . S
C1278 C1279 1.363 . S
C1278 C1284 1.379 . S
C1278 N1286 1.356 . S
C1279 C1278 1.363 . S
C1279 C1285 1.363 . S
C1280 C1281 1.363 . S
C1280 C1285 1.379 . S
C1280 N1287 1.356 . S
C1281 C1280 1.363 . S
C1281 C1284 1.363 . S
N1282 C1284 1.356 . S
N1282 H1294 0.984 . S
N1282 H1295 0.985 . S
N1283 C1285 1.356 . S
N1283 H1288 0.984 . S
N1283 H1289 0.985 . S
C1284 C1278 1.379 . S
C1284 C1281 1.363 . S
C1284 N1282 1.356 . S
C1285 C1279 1.363 . S
C1285 C1280 1.379 . S
C1285 N1283 1.356 . S
N1286 C1278 1.356 . S
N1286 H1292 0.984 . S
N1286 H1293 0.984 . S
N1287 C1280 1.356 . S
N1287 H1290 0.984 . S
N1287 H1291 0.985 . S
H1288 N1283 0.984 . S
H1289 N1283 0.985 . S
H1290 N1287 0.984 . S
H1291 N1287 0.985 . S
H1292 N1286 0.984 . S
H1293 N1286 0.984 . S
H1294 N1282 0.984 . S
H1295 N1282 0.985 . S
C1296 C1297 1.363 . S
C1296 C1302 1.379 . S
C1296 N1304 1.356 . S
C1297 C1296 1.363 . S
C1297 C1303 1.363 . S
C1298 C1299 1.363 . S
C1298 C1303 1.379 . S
C1298 N1305 1.356 . S
C1299 C1298 1.363 . S
C1299 C1302 1.363 . S
N1300 C1302 1.356 . S
N1300 H1312 0.984 . S
N1300 H1313 0.985 . S
N1301 C1303 1.356 . S
N1301 H1306 0.984 . S
N1301 H1307 0.985 . S
C1302 C1296 1.379 . S
C1302 C1299 1.363 . S
C1302 N1300 1.356 . S
C1303 C1297 1.363 . S
C1303 C1298 1.379 . S
C1303 N1301 1.356 . S
N1304 C1296 1.356 . S
N1304 H1310 0.984 . S
N1304 H1311 0.984 . S
N1305 C1298 1.356 . S
N1305 H1308 0.984 . S
N1305 H1309 0.985 . S
H1306 N1301 0.984 . S
H1307 N1301 0.985 . S
H1308 N1305 0.984 . S
H1309 N1305 0.985 . S
H1310 N1304 0.984 . S
H1311 N1304 0.984 . S
H1312 N1300 0.984 . S
H1313 N1300 0.985 . S
C1314 C1315 1.363 . S
C1314 C1320 1.379 . S
C1314 N1322 1.356 . S
C1315 C1314 1.363 . S
C1315 C1321 1.363 . S
C1316 C1317 1.363 . S
C1316 C1321 1.379 . S
C1316 N1323 1.356 . S
C1317 C1316 1.363 . S
C1317 C1320 1.363 . S
N1318 C1320 1.356 . S
N1318 H1330 0.984 . S
N1318 H1331 0.985 . S
N1319 C1321 1.356 . S
N1319 H1324 0.984 . S
N1319 H1325 0.985 . S
C1320 C1314 1.379 . S
C1320 C1317 1.363 . S
C1320 N1318 1.356 . S
C1321 C1315 1.363 . S
C1321 C1316 1.379 . S
C1321 N1319 1.356 . S
N1322 C1314 1.356 . S
N1322 H1328 0.984 1_556 S
N1322 H1329 0.984 . S
N1323 C1316 1.356 . S
N1323 H1326 0.984 . S
N1323 H1327 0.985 . S
H1324 N1319 0.984 . S
H1325 N1319 0.985 . S
H1326 N1323 0.984 . S
H1327 N1323 0.985 . S
H1328 N1322 0.984 1_554 S
H1329 N1322 0.984 . S
H1330 N1318 0.984 . S
H1331 N1318 0.985 . S
C1332 C1333 1.363 . S
C1332 C1338 1.379 . S
C1332 N1340 1.356 . S
C1333 C1332 1.363 . S
C1333 C1339 1.363 . S
C1334 C1335 1.363 . S
C1334 C1339 1.379 . S
C1334 N1341 1.356 . S
C1335 C1334 1.363 . S
C1335 C1338 1.363 . S
N1336 C1338 1.356 . S
N1336 H1348 0.984 . S
N1336 H1349 0.985 . S
N1337 C1339 1.356 . S
N1337 H1342 0.984 . S
N1337 H1343 0.985 . S
C1338 C1332 1.379 . S
C1338 C1335 1.363 . S
C1338 N1336 1.356 . S
C1339 C1333 1.363 . S
C1339 C1334 1.379 . S
C1339 N1337 1.356 . S
N1340 C1332 1.356 . S
N1340 H1346 0.984 . S
N1340 H1347 0.984 . S
N1341 C1334 1.356 . S
N1341 H1344 0.984 . S
N1341 H1345 0.985 . S
H1342 N1337 0.984 . S
H1343 N1337 0.985 . S
H1344 N1341 0.984 . S
H1345 N1341 0.985 . S
H1346 N1340 0.984 . S
H1347 N1340 0.984 . S
H1348 N1336 0.984 . S
H1349 N1336 0.985 . S
C1350 C1351 1.363 . S
C1350 C1356 1.379 . S
C1350 N1358 1.356 . S
C1351 C1350 1.363 . S
C1351 C1357 1.363 . S
C1352 C1353 1.363 . S
C1352 C1357 1.379 . S
C1352 N1359 1.356 . S
C1353 C1352 1.363 . S
C1353 C1356 1.363 . S
N1354 C1356 1.356 . S
N1354 H1366 0.984 . S
N1354 H1367 0.985 . S
N1355 C1357 1.356 . S
N1355 H1360 0.984 . S
N1355 H1361 0.985 . S
C1356 C1350 1.379 . S
C1356 C1353 1.363 . S
C1356 N1354 1.356 . S
C1357 C1351 1.363 . S
C1357 C1352 1.379 . S
C1357 N1355 1.356 . S
N1358 C1350 1.356 . S
N1358 H1364 0.984 . S
N1358 H1365 0.984 . S
N1359 C1352 1.356 . S
N1359 H1362 0.984 . S
N1359 H1363 0.985 . S
H1360 N1355 0.984 . S
H1361 N1355 0.985 . S
H1362 N1359 0.984 . S
H1363 N1359 0.985 . S
H1364 N1358 0.984 . S
H1365 N1358 0.984 . S
H1366 N1354 0.984 . S
H1367 N1354 0.985 . S
C1368 C1369 1.363 . S
C1368 C1374 1.379 . S
C1368 N1376 1.356 . S
C1369 C1368 1.363 . S
C1369 C1375 1.363 . S
C1370 C1371 1.363 . S
C1370 C1375 1.379 . S
C1370 N1377 1.356 . S
C1371 C1370 1.363 . S
C1371 C1374 1.363 . S
N1372 C1374 1.356 . S
N1372 H1384 0.984 . S
N1372 H1385 0.985 . S
N1373 C1375 1.356 . S
N1373 H1378 0.984 . S
N1373 H1379 0.985 . S
C1374 C1368 1.379 . S
C1374 C1371 1.363 . S
C1374 N1372 1.356 . S
C1375 C1369 1.363 . S
C1375 C1370 1.379 . S
C1375 N1373 1.356 . S
N1376 C1368 1.356 . S
N1376 H1382 0.984 . S
N1376 H1383 0.984 . S
N1377 C1370 1.356 . S
N1377 H1380 0.984 . S
N1377 H1381 0.985 . S
H1378 N1373 0.984 . S
H1379 N1373 0.985 . S
H1380 N1377 0.984 . S
H1381 N1377 0.985 . S
H1382 N1376 0.984 . S
H1383 N1376 0.984 . S
H1384 N1372 0.984 . S
H1385 N1372 0.985 . S
C1386 C1387 1.363 . S
C1386 C1392 1.379 . S
C1386 N1394 1.356 . S
C1387 C1386 1.363 . S
C1387 C1393 1.363 . S
C1388 C1389 1.363 . S
C1388 C1393 1.379 . S
C1388 N1395 1.356 . S
C1389 C1388 1.363 . S
C1389 C1392 1.363 . S
N1390 C1392 1.356 . S
N1390 H1402 0.984 . S
N1390 H1403 0.985 . S
N1391 C1393 1.356 . S
N1391 H1396 0.984 . S
N1391 H1397 0.985 . S
C1392 C1386 1.379 . S
C1392 C1389 1.363 . S
C1392 N1390 1.356 . S
C1393 C1387 1.363 . S
C1393 C1388 1.379 . S
C1393 N1391 1.356 . S
N1394 C1386 1.356 . S
N1394 H1400 0.984 . S
N1394 H1401 0.984 . S
N1395 C1388 1.356 . S
N1395 H1398 0.984 . S
N1395 H1399 0.985 . S
H1396 N1391 0.984 . S
H1397 N1391 0.985 . S
H1398 N1395 0.984 . S
H1399 N1395 0.985 . S
H1400 N1394 0.984 . S
H1401 N1394 0.984 . S
H1402 N1390 0.984 . S
H1403 N1390 0.985 . S
C1404 C1405 1.363 . S
C1404 C1410 1.379 . S
C1404 N1412 1.356 . S
C1405 C1404 1.363 . S
C1405 C1411 1.363 . S
C1406 C1407 1.363 . S
C1406 C1411 1.379 . S
C1406 N1413 1.356 . S
C1407 C1406 1.363 . S
C1407 C1410 1.363 . S
N1408 C1410 1.356 . S
N1408 H1420 0.984 . S
N1408 H1421 0.985 . S
N1409 C1411 1.356 . S
N1409 H1414 0.984 . S
N1409 H1415 0.985 . S
C1410 C1404 1.379 . S
C1410 C1407 1.363 . S
C1410 N1408 1.356 . S
C1411 C1405 1.363 . S
C1411 C1406 1.379 . S
C1411 N1409 1.356 . S
N1412 C1404 1.356 . S
N1412 H1418 0.984 . S
N1412 H1419 0.984 . S
N1413 C1406 1.356 . S
N1413 H1416 0.984 . S
N1413 H1417 0.985 . S
H1414 N1409 0.984 . S
H1415 N1409 0.985 . S
H1416 N1413 0.984 . S
H1417 N1413 0.985 . S
H1418 N1412 0.984 . S
H1419 N1412 0.984 . S
H1420 N1408 0.984 . S
H1421 N1408 0.985 . S
C1422 C1423 1.363 . S
C1422 C1428 1.379 . S
C1422 N1430 1.356 . S
C1423 C1422 1.363 . S
C1423 C1429 1.363 . S
C1424 C1425 1.363 . S
C1424 C1429 1.379 . S
C1424 N1431 1.356 . S
C1425 C1424 1.363 . S
C1425 C1428 1.363 . S
N1426 C1428 1.356 . S
N1426 H1438 0.984 . S
N1426 H1439 0.985 . S
N1427 C1429 1.356 . S
N1427 H1432 0.984 . S
N1427 H1433 0.985 . S
C1428 C1422 1.379 . S
C1428 C1425 1.363 . S
C1428 N1426 1.356 . S
C1429 C1423 1.363 . S
C1429 C1424 1.379 . S
C1429 N1427 1.356 . S
N1430 C1422 1.356 . S
N1430 H1436 0.984 . S
N1430 H1437 0.984 . S
N1431 C1424 1.356 . S
N1431 H1434 0.984 . S
N1431 H1435 0.985 . S
H1432 N1427 0.984 . S
H1433 N1427 0.985 . S
H1434 N1431 0.984 . S
H1435 N1431 0.985 . S
H1436 N1430 0.984 . S
H1437 N1430 0.984 . S
H1438 N1426 0.984 . S
H1439 N1426 0.985 . S
C1440 C1441 1.363 . S
C1440 C1446 1.379 . S
C1440 N1448 1.356 . S
C1441 C1440 1.363 . S
C1441 C1447 1.363 . S
C1442 C1443 1.363 . S
C1442 C1447 1.379 . S
C1442 N1449 1.356 . S
C1443 C1442 1.363 . S
C1443 C1446 1.363 . S
N1444 C1446 1.356 . S
N1444 H1456 0.984 . S
N1444 H1457 0.985 . S
N1445 C1447 1.356 . S
N1445 H1450 0.984 . S
N1445 H1451 0.985 . S
C1446 C1440 1.379 . S
C1446 C1443 1.363 . S
C1446 N1444 1.356 . S
C1447 C1441 1.363 . S
C1447 C1442 1.379 . S
C1447 N1445 1.356 . S
N1448 C1440 1.356 . S
N1448 H1454 0.984 . S
N1448 H1455 0.984 . S
N1449 C1442 1.356 . S
N1449 H1452 0.984 . S
N1449 H1453 0.985 . S
H1450 N1445 0.984 . S
H1451 N1445 0.985 . S
H1452 N1449 0.984 . S
H1453 N1449 0.985 . S
H1454 N1448 0.984 . S
H1455 N1448 0.984 . S
H1456 N1444 0.984 . S
H1457 N1444 0.985 . S
C1458 C1459 1.363 . S
C1458 C1464 1.379 . S
C1458 N1466 1.356 . S
C1459 C1458 1.363 . S
C1459 C1465 1.363 . S
C1460 C1461 1.363 . S
C1460 C1465 1.379 . S
C1460 N1467 1.356 . S
C1461 C1460 1.363 . S
C1461 C1464 1.363 . S
N1462 C1464 1.356 . S
N1462 H1474 0.984 . S
N1462 H1475 0.985 . S
N1463 C1465 1.356 . S
N1463 H1468 0.984 . S
N1463 H1469 0.985 . S
C1464 C1458 1.379 . S
C1464 C1461 1.363 . S
C1464 N1462 1.356 . S
C1465 C1459 1.363 . S
C1465 C1460 1.379 . S
C1465 N1463 1.356 . S
N1466 C1458 1.356 . S
N1466 H1472 0.984 . S
N1466 H1473 0.984 . S
N1467 C1460 1.356 . S
N1467 H1470 0.984 . S
N1467 H1471 0.985 . S
H1468 N1463 0.984 . S
H1469 N1463 0.985 . S
H1470 N1467 0.984 . S
H1471 N1467 0.985 . S
H1472 N1466 0.984 . S
H1473 N1466 0.984 . S
H1474 N1462 0.984 . S
H1475 N1462 0.985 . S
C1476 C1477 1.363 . S
C1476 C1482 1.379 . S
C1476 N1484 1.356 . S
C1477 C1476 1.363 . S
C1477 C1483 1.363 . S
C1478 C1479 1.363 . S
C1478 C1483 1.379 . S
C1478 N1485 1.356 . S
C1479 C1478 1.363 . S
C1479 C1482 1.363 . S
N1480 C1482 1.356 . S
N1480 H1492 0.984 . S
N1480 H1493 0.985 . S
N1481 C1483 1.356 . S
N1481 H1486 0.984 . S
N1481 H1487 0.985 . S
C1482 C1476 1.379 . S
C1482 C1479 1.363 . S
C1482 N1480 1.356 . S
C1483 C1477 1.363 . S
C1483 C1478 1.379 . S
C1483 N1481 1.356 . S
N1484 C1476 1.356 . S
N1484 H1490 0.984 . S
N1484 H1491 0.984 . S
N1485 C1478 1.356 . S
N1485 H1488 0.984 . S
N1485 H1489 0.985 . S
H1486 N1481 0.984 . S
H1487 N1481 0.985 . S
H1488 N1485 0.984 . S
H1489 N1485 0.985 . S
H1490 N1484 0.984 . S
H1491 N1484 0.984 . S
H1492 N1480 0.984 . S
H1493 N1480 0.985 . S
C1494 C1495 1.363 . S
C1494 C1500 1.379 . S
C1494 N1502 1.356 . S
C1495 C1494 1.363 . S
C1495 C1501 1.363 . S
C1496 C1497 1.363 . S
C1496 C1501 1.379 . S
C1496 N1503 1.356 . S
C1497 C1496 1.363 . S
C1497 C1500 1.363 . S
N1498 C1500 1.356 . S
N1498 H1510 0.984 . S
N1498 H1511 0.985 . S
N1499 C1501 1.356 . S
N1499 H1504 0.984 . S
N1499 H1505 0.985 . S
C1500 C1494 1.379 . S
C1500 C1497 1.363 . S
C1500 N1498 1.356 . S
C1501 C1495 1.363 . S
C1501 C1496 1.379 . S
C1501 N1499 1.356 . S
N1502 C1494 1.356 . S
N1502 H1508 0.984 . S
N1502 H1509 0.984 . S
N1503 C1496 1.356 . S
N1503 H1506 0.984 . S
N1503 H1507 0.985 . S
H1504 N1499 0.984 . S
H1505 N1499 0.985 . S
H1506 N1503 0.984 . S
H1507 N1503 0.985 . S
H1508 N1502 0.984 . S
H1509 N1502 0.984 . S
H1510 N1498 0.984 . S
H1511 N1498 0.985 . S
C1512 C1513 1.363 . S
C1512 C1518 1.379 . S
C1512 N1520 1.356 . S
C1513 C1512 1.363 . S
C1513 C1519 1.363 . S
C1514 C1515 1.363 . S
C1514 C1519 1.379 . S
C1514 N1521 1.356 . S
C1515 C1514 1.363 . S
C1515 C1518 1.363 . S
N1516 C1518 1.356 . S
N1516 H1528 0.984 . S
N1516 H1529 0.985 . S
N1517 C1519 1.356 . S
N1517 H1522 0.984 . S
N1517 H1523 0.985 . S
C1518 C1512 1.379 . S
C1518 C1515 1.363 . S
C1518 N1516 1.356 . S
C1519 C1513 1.363 . S
C1519 C1514 1.379 . S
C1519 N1517 1.356 . S
N1520 C1512 1.356 . S
N1520 H1526 0.984 . S
N1520 H1527 0.984 . S
N1521 C1514 1.356 . S
N1521 H1524 0.984 . S
N1521 H1525 0.985 . S
H1522 N1517 0.984 . S
H1523 N1517 0.985 . S
H1524 N1521 0.984 . S
H1525 N1521 0.985 . S
H1526 N1520 0.984 . S
H1527 N1520 0.984 . S
H1528 N1516 0.984 . S
H1529 N1516 0.985 . S
C1530 C1531 1.363 . S
C1530 C1536 1.379 . S
C1530 N1538 1.356 . S
C1531 C1530 1.363 . S
C1531 C1537 1.363 . S
C1532 C1533 1.363 . S
C1532 C1537 1.379 . S
C1532 N1539 1.356 . S
C1533 C1532 1.363 . S
C1533 C1536 1.363 . S
N1534 C1536 1.356 . S
N1534 H1546 0.984 . S
N1534 H1547 0.985 . S
N1535 C1537 1.356 . S
N1535 H1540 0.984 . S
N1535 H1541 0.985 . S
C1536 C1530 1.379 . S
C1536 C1533 1.363 . S
C1536 N1534 1.356 . S
C1537 C1531 1.363 . S
C1537 C1532 1.379 . S
C1537 N1535 1.356 . S
N1538 C1530 1.356 . S
N1538 H1544 0.984 . S
N1538 H1545 0.984 . S
N1539 C1532 1.356 . S
N1539 H1542 0.984 . S
N1539 H1543 0.985 . S
H1540 N1535 0.984 . S
H1541 N1535 0.985 . S
H1542 N1539 0.984 . S
H1543 N1539 0.985 . S
H1544 N1538 0.984 . S
H1545 N1538 0.984 . S
H1546 N1534 0.984 . S
H1547 N1534 0.985 . S
C1548 C1549 1.363 . S
C1548 C1554 1.379 . S
C1548 N1556 1.356 . S
C1549 C1548 1.363 . S
C1549 C1555 1.363 . S
C1550 C1551 1.363 . S
C1550 C1555 1.379 . S
C1550 N1557 1.356 . S
C1551 C1550 1.363 . S
C1551 C1554 1.363 . S
N1552 C1554 1.356 . S
N1552 H1564 0.984 . S
N1552 H1565 0.985 . S
N1553 C1555 1.356 . S
N1553 H1558 0.984 . S
N1553 H1559 0.985 . S
C1554 C1548 1.379 . S
C1554 C1551 1.363 . S
C1554 N1552 1.356 . S
C1555 C1549 1.363 . S
C1555 C1550 1.379 . S
C1555 N1553 1.356 . S
N1556 C1548 1.356 . S
N1556 H1562 0.984 . S
N1556 H1563 0.984 . S
N1557 C1550 1.356 . S
N1557 H1560 0.984 . S
N1557 H1561 0.985 . S
H1558 N1553 0.984 . S
H1559 N1553 0.985 . S
H1560 N1557 0.984 . S
H1561 N1557 0.985 . S
H1562 N1556 0.984 . S
H1563 N1556 0.984 . S
H1564 N1552 0.984 . S
H1565 N1552 0.985 . S
C1566 C1567 1.363 . S
C1566 C1572 1.379 . S
C1566 N1574 1.356 . S
C1567 C1566 1.363 . S
C1567 C1573 1.363 . S
C1568 C1569 1.363 . S
C1568 C1573 1.379 . S
C1568 N1575 1.356 . S
C1569 C1568 1.363 . S
C1569 C1572 1.363 . S
N1570 C1572 1.356 . S
N1570 H1582 0.984 . S
N1570 H1583 0.985 . S
N1571 C1573 1.356 . S
N1571 H1576 0.984 . S
N1571 H1577 0.985 . S
C1572 C1566 1.379 . S
C1572 C1569 1.363 . S
C1572 N1570 1.356 . S
C1573 C1567 1.363 . S
C1573 C1568 1.379 . S
C1573 N1571 1.356 . S
N1574 C1566 1.356 . S
N1574 H1580 0.984 . S
N1574 H1581 0.984 . S
N1575 C1568 1.356 . S
N1575 H1578 0.984 . S
N1575 H1579 0.985 . S
H1576 N1571 0.984 . S
H1577 N1571 0.985 . S
H1578 N1575 0.984 . S
H1579 N1575 0.985 . S
H1580 N1574 0.984 . S
H1581 N1574 0.984 . S
H1582 N1570 0.984 . S
H1583 N1570 0.985 . S
C1584 C1585 1.363 . S
C1584 C1590 1.379 . S
C1584 N1592 1.356 . S
C1585 C1584 1.363 . S
C1585 C1591 1.363 . S
C1586 C1587 1.363 . S
C1586 C1591 1.379 . S
C1586 N1593 1.356 . S
C1587 C1586 1.363 . S
C1587 C1590 1.363 . S
N1588 C1590 1.356 . S
N1588 H1600 0.984 . S
N1588 H1601 0.985 . S
N1589 C1591 1.356 . S
N1589 H1594 0.984 . S
N1589 H1595 0.985 . S
C1590 C1584 1.379 . S
C1590 C1587 1.363 . S
C1590 N1588 1.356 . S
C1591 C1585 1.363 . S
C1591 C1586 1.379 . S
C1591 N1589 1.356 . S
N1592 C1584 1.356 . S
N1592 H1598 0.984 . S
N1592 H1599 0.984 . S
N1593 C1586 1.356 . S
N1593 H1596 0.984 . S
N1593 H1597 0.985 . S
H1594 N1589 0.984 . S
H1595 N1589 0.985 . S
H1596 N1593 0.984 . S
H1597 N1593 0.985 . S
H1598 N1592 0.984 . S
H1599 N1592 0.984 . S
H1600 N1588 0.984 . S
H1601 N1588 0.985 . S
C1602 C1603 1.363 . S
C1602 C1608 1.379 . S
C1602 N1610 1.356 . S
C1603 C1602 1.363 . S
C1603 C1609 1.363 . S
C1604 C1605 1.363 . S
C1604 C1609 1.379 . S
C1604 N1611 1.356 . S
C1605 C1604 1.363 . S
C1605 C1608 1.363 . S
N1606 C1608 1.356 . S
N1606 H1618 0.984 . S
N1606 H1619 0.985 . S
N1607 C1609 1.356 . S
N1607 H1612 0.984 . S
N1607 H1613 0.985 . S
C1608 C1602 1.379 . S
C1608 C1605 1.363 . S
C1608 N1606 1.356 . S
C1609 C1603 1.363 . S
C1609 C1604 1.379 . S
C1609 N1607 1.356 . S
N1610 C1602 1.356 . S
N1610 H1616 0.984 . S
N1610 H1617 0.984 . S
N1611 C1604 1.356 . S
N1611 H1614 0.984 . S
N1611 H1615 0.985 . S
H1612 N1607 0.984 . S
H1613 N1607 0.985 . S
H1614 N1611 0.984 . S
H1615 N1611 0.985 . S
H1616 N1610 0.984 . S
H1617 N1610 0.984 . S
H1618 N1606 0.984 . S
H1619 N1606 0.985 . S
C1620 C1621 1.363 . S
C1620 C1626 1.379 . S
C1620 N1628 1.356 . S
C1621 C1620 1.363 . S
C1621 C1627 1.363 . S
C1622 C1623 1.363 . S
C1622 C1627 1.379 . S
C1622 N1629 1.356 . S
C1623 C1622 1.363 . S
C1623 C1626 1.363 . S
N1624 C1626 1.356 . S
N1624 H1636 0.984 . S
N1624 H1637 0.985 . S
N1625 C1627 1.356 . S
N1625 H1630 0.984 . S
N1625 H1631 0.985 . S
C1626 C1620 1.379 . S
C1626 C1623 1.363 . S
C1626 N1624 1.356 . S
C1627 C1621 1.363 . S
C1627 C1622 1.379 . S
C1627 N1625 1.356 . S
N1628 C1620 1.356 . S
N1628 H1634 0.984 . S
N1628 H1635 0.984 . S
N1629 C1622 1.356 . S
N1629 H1632 0.984 . S
N1629 H1633 0.985 . S
H1630 N1625 0.984 . S
H1631 N1625 0.985 . S
H1632 N1629 0.984 . S
H1633 N1629 0.985 . S
H1634 N1628 0.984 . S
H1635 N1628 0.984 . S
H1636 N1624 0.984 . S
H1637 N1624 0.985 . S
C1638 C1639 1.363 . S
C1638 C1644 1.379 . S
C1638 N1646 1.356 . S
C1639 C1638 1.363 . S
C1639 C1645 1.363 . S
C1640 C1641 1.363 . S
C1640 C1645 1.379 . S
C1640 N1647 1.356 . S
C1641 C1640 1.363 . S
C1641 C1644 1.363 . S
N1642 C1644 1.356 . S
N1642 H1654 0.984 . S
N1642 H1655 0.985 . S
N1643 C1645 1.356 . S
N1643 H1648 0.984 . S
N1643 H1649 0.985 . S
C1644 C1638 1.379 . S
C1644 C1641 1.363 . S
C1644 N1642 1.356 . S
C1645 C1639 1.363 . S
C1645 C1640 1.379 . S
C1645 N1643 1.356 . S
N1646 C1638 1.356 . S
N1646 H1652 0.984 . S
N1646 H1653 0.984 . S
N1647 C1640 1.356 . S
N1647 H1650 0.984 . S
N1647 H1651 0.985 . S
H1648 N1643 0.984 . S
H1649 N1643 0.985 . S
H1650 N1647 0.984 . S
H1651 N1647 0.985 . S
H1652 N1646 0.984 . S
H1653 N1646 0.984 . S
H1654 N1642 0.984 . S
H1655 N1642 0.985 . S
C1656 C1657 1.363 . S
C1656 C1662 1.379 . S
C1656 N1664 1.356 . S
C1657 C1656 1.363 . S
C1657 C1663 1.363 . S
C1658 C1659 1.363 . S
C1658 C1663 1.379 . S
C1658 N1665 1.356 . S
C1659 C1658 1.363 . S
C1659 C1662 1.363 . S
N1660 C1662 1.356 . S
N1660 H1672 0.984 1_455 S
N1660 H1673 0.985 . S
N1661 C1663 1.356 . S
N1661 H1666 0.984 . S
N1661 H1667 0.985 . S
C1662 C1656 1.379 . S
C1662 C1659 1.363 . S
C1662 N1660 1.356 . S
C1663 C1657 1.363 . S
C1663 C1658 1.379 . S
C1663 N1661 1.356 . S
N1664 C1656 1.356 . S
N1664 H1670 0.984 . S
N1664 H1671 0.984 . S
N1665 C1658 1.356 . S
N1665 H1668 0.984 . S
N1665 H1669 0.985 . S
H1666 N1661 0.984 . S
H1667 N1661 0.985 . S
H1668 N1665 0.984 . S
H1669 N1665 0.985 . S
H1670 N1664 0.984 . S
H1671 N1664 0.984 . S
H1672 N1660 0.984 1_655 S
H1673 N1660 0.985 . S
C1674 C1675 1.363 . S
C1674 C1680 1.379 . S
C1674 N1682 1.356 . S
C1675 C1674 1.363 . S
C1675 C1681 1.363 . S
C1676 C1677 1.363 . S
C1676 C1681 1.379 . S
C1676 N1683 1.356 . S
C1677 C1676 1.363 . S
C1677 C1680 1.363 . S
N1678 C1680 1.356 . S
N1678 H1690 0.984 . S
N1678 H1691 0.985 . S
N1679 C1681 1.356 . S
N1679 H1684 0.984 . S
N1679 H1685 0.985 . S
C1680 C1674 1.379 . S
C1680 C1677 1.363 . S
C1680 N1678 1.356 . S
C1681 C1675 1.363 . S
C1681 C1676 1.379 . S
C1681 N1679 1.356 . S
N1682 C1674 1.356 . S
N1682 H1688 0.984 . S
N1682 H1689 0.984 . S
N1683 C1676 1.356 . S
N1683 H1686 0.984 . S
N1683 H1687 0.985 . S
H1684 N1679 0.984 . S
H1685 N1679 0.985 . S
H1686 N1683 0.984 . S
H1687 N1683 0.985 . S
H1688 N1682 0.984 . S
H1689 N1682 0.984 . S
H1690 N1678 0.984 . S
H1691 N1678 0.985 . S
C1692 C1693 1.363 . S
C1692 C1698 1.379 . S
C1692 N1700 1.356 . S
C1693 C1692 1.363 . S
C1693 C1699 1.363 . S
C1694 C1695 1.363 . S
C1694 C1699 1.379 . S
C1694 N1701 1.356 . S
C1695 C1694 1.363 . S
C1695 C1698 1.363 . S
N1696 C1698 1.356 . S
N1696 H1708 0.984 . S
N1696 H1709 0.985 . S
N1697 C1699 1.356 . S
N1697 H1702 0.984 . S
N1697 H1703 0.985 . S
C1698 C1692 1.379 . S
C1698 C1695 1.363 . S
C1698 N1696 1.356 . S
C1699 C1693 1.363 . S
C1699 C1694 1.379 . S
C1699 N1697 1.356 . S
N1700 C1692 1.356 . S
N1700 H1706 0.984 . S
N1700 H1707 0.984 . S
N1701 C1694 1.356 . S
N1701 H1704 0.984 . S
N1701 H1705 0.985 . S
H1702 N1697 0.984 . S
H1703 N1697 0.985 . S
H1704 N1701 0.984 . S
H1705 N1701 0.985 . S
H1706 N1700 0.984 . S
H1707 N1700 0.984 . S
H1708 N1696 0.984 . S
H1709 N1696 0.985 . S
C1710 C1711 1.363 . S
C1710 C1716 1.379 . S
C1710 N1718 1.356 . S
C1711 C1710 1.363 . S
C1711 C1717 1.363 . S
C1712 C1713 1.363 . S
C1712 C1717 1.379 . S
C1712 N1719 1.356 . S
C1713 C1712 1.363 . S
C1713 C1716 1.363 . S
N1714 C1716 1.356 . S
N1714 H1726 0.984 . S
N1714 H1727 0.985 . S
N1715 C1717 1.356 . S
N1715 H1720 0.984 . S
N1715 H1721 0.985 . S
C1716 C1710 1.379 . S
C1716 C1713 1.363 . S
C1716 N1714 1.356 . S
C1717 C1711 1.363 . S
C1717 C1712 1.379 . S
C1717 N1715 1.356 . S
N1718 C1710 1.356 . S
N1718 H1724 0.984 . S
N1718 H1725 0.984 . S
N1719 C1712 1.356 . S
N1719 H1722 0.984 . S
N1719 H1723 0.985 . S
H1720 N1715 0.984 . S
H1721 N1715 0.985 . S
H1722 N1719 0.984 . S
H1723 N1719 0.985 . S
H1724 N1718 0.984 . S
H1725 N1718 0.984 . S
H1726 N1714 0.984 . S
H1727 N1714 0.985 . S
C867 C689 1.668 . S
C865 C74 1.518 . S
C885 C694 0.916 . S
C883 C142 1.078 . S
C903 C695 1.686 . S
C901 C231 1.537 . S
C919 C322 1.221 . S
C921 C699 1.302 . S
C937 C406 1.078 . S
C939 C702 0.916 . S
C957 C703 1.686 . S
C955 C494 1.537 . S
C973 C562 1.221 . S
C975 C680 1.302 . S
C991 C651 1.518 . S
C993 C696 1.668 . S
C1011 C734 1.299 . S
C1009 C58 1.293 . S
C1027 C151 1.610 . S
C1029 C760 1.622 . S
C1047 C712 2.467 . S
C1045 C224 2.385 . S
C1065 C767 1.515 . S
C1063 C315 1.496 . S
C1081 C399 1.498 . S
C1083 C721 1.527 . S
C1101 C763 1.308 . S
C1099 C478 1.288 . S
C1117 C571 1.541 . S
C1119 C727 1.618 . S
C1135 C644 2.375 . S
C1137 C758 2.471 . S
C1153 C67 2.375 . S
C1155 C766 2.471 . S
C1171 C392 1.610 . S
C1173 C753 1.622 . S
C1191 C731 2.467 . S
C1189 C487 2.385 . S
C1209 C759 1.515 . S
C1207 C578 1.496 . S
C1225 C658 1.293 . S
C1227 C726 1.299 . S
C1243 C238 1.288 . S
C1245 C744 1.308 . S
C1263 C735 1.618 . S
C1261 C308 1.541 . S
C1279 C158 1.498 . S
C1281 C728 1.527 . S
C1297 C662 1.495 . S
C1299 C790 1.544 . S
C1315 C394 1.081 . S
C1317 C785 0.572 . S
C1335 C799 1.523 . S
C1333 C483 1.510 . S
C1353 C776 1.272 . S
C1351 C574 1.201 . S
C1369 C154 1.081 . S
C1371 C792 0.572 . S
C1389 C791 1.523 . S
C1387 C242 1.510 . S
C1405 C310 1.200 . S
C1407 C795 1.272 . S
C1423 C63 1.495 . S
C1425 C798 1.544 . S
C1441 C646 1.301 . S
C1443 C824 1.361 . S
C1461 C840 1.618 . S
C1459 C403 1.619 . S
C1477 C476 2.391 . S
C1479 C822 2.555 . S
C1495 C567 1.492 . S
C1497 C855 1.458 . S
C1515 C831 1.449 . S
C1513 C147 1.475 . S
C1531 C226 1.303 . S
C1533 C849 1.296 . S
C1551 C827 1.582 . S
C1549 C319 1.518 . S
C1569 C862 2.509 . S
C1567 C56 2.401 . S
C1587 C854 2.509 . S
C1585 C655 2.401 . S
C1603 C140 1.619 . S
C1605 C859 1.618 . S
C1621 C235 2.391 . S
C1623 C830 2.555 . S
C1641 C863 1.458 . S
C1639 C326 1.492 . S
C1657 C70 1.301 . S
C1659 C817 1.361 . S
C1675 C490 1.303 . S
C1677 C856 1.296 . S
C1695 C808 1.582 . S
C1693 C560 1.518 . S
C1713 C823 1.449 . S
C1711 C410 1.475 . S
