# Generated by pormake.
# Topology pth, (4,4)-cn, num edge types: 1
# Building blocks:
#     Node 0, Type 0, BuildingBlock: QUQFOY_clean_sbu_1, # of connection points: 4
#     Node 1, Type 0, BuildingBlock: QUQFOY_clean_sbu_1, # of connection points: 4
#     Node 2, Type 0, BuildingBlock: QUQFOY_clean_sbu_1, # of connection points: 4
#     Node 3, Type 1, BuildingBlock: MUDLON_clean_sbu_0, # of connection points: 4
#     Node 4, Type 1, BuildingBlock: MUDLON_clean_sbu_0, # of connection points: 4
#     Node 5, Type 1, BuildingBlock: MUDLON_clean_sbu_0, # of connection points: 4
#     Edge 6, Type (0, 1), BuildingBlock: CIFDUS_clean_linker_0, # of connection points: 2
#     Edge 7, Type (0, 1), BuildingBlock: CIFDUS_clean_linker_0, # of connection points: 2
#     Edge 8, Type (0, 1), BuildingBlock: CIFDUS_clean_linker_0, # of connection points: 2
#     Edge 9, Type (0, 1), BuildingBlock: CIFDUS_clean_linker_0, # of connection points: 2
#     Edge 10, Type (0, 1), BuildingBlock: CIFDUS_clean_linker_0, # of connection points: 2
#     Edge 11, Type (0, 1), BuildingBlock: CIFDUS_clean_linker_0, # of connection points: 2
#     Edge 12, Type (0, 1), BuildingBlock: CIFDUS_clean_linker_0, # of connection points: 2
#     Edge 13, Type (0, 1), BuildingBlock: CIFDUS_clean_linker_0, # of connection points: 2
#     Edge 14, Type (0, 1), BuildingBlock: CIFDUS_clean_linker_0, # of connection points: 2
#     Edge 15, Type (0, 1), BuildingBlock: CIFDUS_clean_linker_0, # of connection points: 2
#     Edge 16, Type (0, 1), BuildingBlock: CIFDUS_clean_linker_0, # of connection points: 2
#     Edge 17, Type (0, 1), BuildingBlock: CIFDUS_clean_linker_0, # of connection points: 2
# Relax obj value: 0.039
# Max RMSD: 0.130
# Mean RMSD: 0.076
data_MOF--net-pth--node1-QUQFOY_clean_sbu_1--node2-MUDLON_clean_sbu_0--edge1-CIFDUS_clean_linker_0
_symmetry_space_group_name_H-M    P1
_symmetry_Int_Tables_number       1
_symmetry_cell_setting            triclinic
loop_
_symmetry_equiv_pos_as_xyz
'x, y, z'
_cell_length_a     19.346032
_cell_length_b     20.661308
_cell_length_c     53.891972
_cell_angle_alpha  90.486757
_cell_angle_beta   89.160177
_cell_angle_gamma 120.27859
loop_
_atom_site_label
_atom_site_type_symbol
_atom_site_fract_x
_atom_site_fract_y
_atom_site_fract_z
_atom_type_partial_charge
O0 O 0.0789 0.13055 0.0573 0.0
Cd1 Cd 0.97549 0.06943 0.07802 0.0
Cd2 Cd 0.0393 0.97812 0.0846 0.0
O3 O 0.13462 0.06206 0.06484 0.0
O4 O 0.93902 0.13569 0.09374 0.0
O5 O 0.98121 0.07108 0.11492 0.0
C6 C 0.95407 0.1168 0.11491 0.0
C7 C 0.06157 0.92855 0.12043 0.0
C8 C 0.13673 0.11822 0.05455 0.0
C9 C 0.87946 0.91594 0.05797 0.0
O10 O 0.93514 0.9061 0.06593 0.0
O11 O 0.8826 0.97844 0.06087 0.0
O12 O 0.07764 0.91243 0.09873 0.0
O13 O 0.03568 0.9751 0.12179 0.0
O14 O 0.93278 0.06582 0.44407 0.0
Cd15 Cd 0.04136 0.10668 0.42573 0.0
Cd16 Cd 0.97894 0.95289 0.41961 0.0
O17 O 0.88418 0.94378 0.44054 0.0
O18 O 0.08054 0.21587 0.4223 0.0
O19 O 0.05358 0.14059 0.39003 0.0
C20 C 0.0763 0.2069 0.39857 0.0
C21 C 0.95912 0.88569 0.38285 0.0
C22 C 0.87815 0.99874 0.44857 0.0
C23 C 0.13624 0.04188 0.44645 0.0
O24 O 0.08223 0.97925 0.43797 0.0
O25 O 0.13169 0.10068 0.4438 0.0
O26 O 0.94281 0.85291 0.40415 0.0
O27 O 0.98355 0.9566 0.38239 0.0
O28 O 0.89264 0.97613 0.73634 0.0
Cd29 Cd 0.96589 0.9417 0.75143 0.0
Cd30 Cd 0.0768 0.10161 0.74455 0.0
O31 O 0.97869 0.09431 0.72693 0.0
O32 O 0.88876 0.83493 0.76015 0.0
O33 O 0.96042 0.92014 0.78822 0.0
C34 C 0.90703 0.85178 0.7831 0.0
C35 C 0.15314 0.20864 0.76886 0.0
C36 C 0.90814 0.03801 0.72666 0.0
C37 C 0.11573 0.98848 0.72123 0.0
O38 O 0.13856 0.05598 0.72716 0.0
O39 O 0.0477 0.93511 0.72807 0.0
O40 O 0.15737 0.21103 0.74499 0.0
O41 O 0.10467 0.14506 0.77917 0.0
Mg42 Mg 0.01305 0.51384 0.25054 0.0
C43 C 0.08754 0.48338 0.2948 0.0
O44 O 0.06533 0.52728 0.30563 0.0
C45 C 0.03503 0.63283 0.21772 0.0
O46 O 0.96105 0.60192 0.22613 0.0
C47 C 0.93608 0.36026 0.22723 0.0
O48 O 0.96705 0.34799 0.24691 0.0
O49 O 0.93765 0.42239 0.22549 0.0
O50 O 0.08077 0.47462 0.2714 0.0
O51 O 0.95357 0.55125 0.27714 0.0
C52 C 0.994 0.62063 0.28268 0.0
O53 O 0.06527 0.66182 0.27256 0.0
O54 O 0.07879 0.60702 0.22493 0.0
Mg55 Mg 0.51713 0.03089 0.587 0.0
C56 C 0.4414 0.05008 0.54461 0.0
O57 O 0.43796 0.98521 0.54225 0.0
C58 C 0.61374 0.04749 0.62869 0.0
O59 O 0.5569 0.97689 0.62734 0.0
C60 C 0.34331 0.93379 0.60742 0.0
O61 O 0.32005 0.93524 0.58477 0.0
O62 O 0.41727 0.96063 0.61165 0.0
O63 O 0.4758 0.08998 0.5636 0.0
O64 O 0.5635 0.98239 0.5604 0.0
C65 C 0.5735 0.92622 0.55953 0.0
O66 O 0.55092 0.87965 0.57836 0.0
O67 O 0.61568 0.0929 0.61249 0.0
Mg68 Mg 0.49751 0.54333 0.91834 0.0
C69 C 0.41809 0.5176 0.8686 0.0
O70 O 0.49246 0.54595 0.86084 0.0
C71 C 0.55197 0.6262 0.96524 0.0
O72 O 0.53966 0.55918 0.97028 0.0
C73 C 0.44642 0.39907 0.95342 0.0
O74 O 0.52013 0.41281 0.95574 0.0
O75 O 0.4322 0.44136 0.94008 0.0
O76 O 0.4046 0.5206 0.89163 0.0
O77 O 0.60436 0.56729 0.89685 0.0
C78 C 0.67229 0.62165 0.90314 0.0
O79 O 0.67956 0.6515 0.92524 0.0
O80 O 0.53331 0.63766 0.94383 0.0
H81 H 0.90368 0.21794 0.12112 0.0
H82 H 0.97915 0.08564 0.16186 0.0
H83 H 0.97047 0.14298 0.20061 0.0
H84 H 0.95242 0.23766 0.22251 0.0
H85 H 0.88157 0.37369 0.18194 0.0
H86 H 0.87583 0.30675 0.14371 0.0
C87 C 0.91761 0.20121 0.1385 0.0
C88 C 0.94287 0.14809 0.1385 0.0
C89 C 0.9132 0.23498 0.16079 0.0
C90 C 0.96019 0.12678 0.16123 0.0
C91 C 0.95517 0.15951 0.18345 0.0
C92 C 0.93443 0.25202 0.20542 0.0
C93 C 0.91809 0.31115 0.20513 0.0
C94 C 0.93322 0.21464 0.1834 0.0
C95 C 0.89472 0.32863 0.18274 0.0
C96 C 0.89189 0.29065 0.16081 0.0
H97 H 0.79502 0.88448 0.48133 0.0
H98 H 0.81073 0.08577 0.45251 0.0
H99 H 0.71097 0.07568 0.48284 0.0
H100 H 0.62953 1.01723 0.51954 0.0
H101 H 0.61937 0.82125 0.55115 0.0
H102 H 0.70612 0.82114 0.51753 0.0
C103 C 0.77537 0.92523 0.48146 0.0
C104 C 0.81014 0.98587 0.46475 0.0
C105 C 0.71976 0.92047 0.49956 0.0
C106 C 0.78505 0.03887 0.46527 0.0
C107 C 0.72816 0.03319 0.48262 0.0
C108 C 0.64556 0.97391 0.5191 0.0
C109 C 0.61855 0.91975 0.53806 0.0
C110 C 0.69677 0.97541 0.50021 0.0
C111 C 0.63962 0.86387 0.53691 0.0
C112 C 0.68938 0.86392 0.51771 0.0
H113 H 0.93554 0.86575 0.83296 0.0
H114 H 0.78189 0.70965 0.77739 0.0
H115 H 0.70145 0.62009 0.80961 0.0
H116 H 0.6664 0.59109 0.8536 0.0
H117 H 0.81862 0.74729 0.90938 0.0
H118 H 0.90849 0.83049 0.87712 0.0
C119 C 0.88499 0.81182 0.82789 0.0
C120 C 0.8643 0.79504 0.80278 0.0
C121 C 0.83848 0.76032 0.84658 0.0
C122 C 0.799 0.72449 0.79656 0.0
C123 C 0.75277 0.67306 0.81499 0.0
C124 C 0.72001 0.6426 0.85876 0.0
C125 C 0.73491 0.66317 0.88393 0.0
C126 C 0.7708 0.69105 0.84009 0.0
C127 C 0.80512 0.73009 0.89018 0.0
C128 C 0.85646 0.77808 0.87171 0.0
H129 H 0.13396 0.84514 0.12511 0.0
H130 H 0.99652 0.92353 0.16595 0.0
H131 H 0.98296 0.84335 0.2008 0.0
H132 H 0.99697 0.74097 0.21769 0.0
H133 H 0.13663 0.66357 0.17797 0.0
H134 H 0.16361 0.75415 0.14473 0.0
C135 C 0.10206 0.84544 0.14179 0.0
C136 C 0.06523 0.88937 0.14278 0.0
C137 C 0.09451 0.79912 0.16185 0.0
C138 C 0.02506 0.89 0.16463 0.0
C139 C 0.01697 0.84391 0.18455 0.0
C140 C 0.0343 0.74479 0.20189 0.0
C141 C 0.06394 0.69531 0.19998 0.0
C142 C 0.0494 0.79673 0.18305 0.0
C143 C 0.11327 0.70129 0.17974 0.0
C144 C 0.12816 0.75265 0.16071 0.0
H145 H 0.22425 0.13789 0.48367 0.0
H146 H 0.19737 0.95064 0.43996 0.0
H147 H 0.29673 0.94318 0.46503 0.0
H148 H 0.3812 0.98151 0.50118 0.0
H149 H 0.40445 0.16283 0.54739 0.0
H150 H 0.31752 0.18195 0.51928 0.0
C151 C 0.24123 0.09632 0.47947 0.0
C152 C 0.20318 0.04451 0.46011 0.0
C153 C 0.2972 0.09101 0.49446 0.0
C154 C 0.22522 0.99059 0.45491 0.0
C155 C 0.28204 0.9863 0.46922 0.0
C156 C 0.36793 0.02573 0.50512 0.0
C157 C 0.39845 0.07009 0.52652 0.0
C158 C 0.31676 0.0349 0.48936 0.0
C159 C 0.38147 0.12775 0.53106 0.0
C160 C 0.33149 0.1384 0.51506 0.0
H161 H 0.13302 0.23715 0.81721 0.0
H162 H 0.28967 0.33278 0.75358 0.0
H163 H 0.38152 0.44135 0.77817 0.0
H164 H 0.42298 0.50422 0.81852 0.0
H165 H 0.2655 0.41098 0.88211 0.0
H166 H 0.16779 0.3078 0.85667 0.0
C167 C 0.18704 0.28202 0.80873 0.0
C168 C 0.20499 0.27637 0.7837 0.0
C169 C 0.23938 0.34503 0.82294 0.0
C170 C 0.27455 0.33551 0.77284 0.0
C171 C 0.32723 0.3977 0.7869 0.0
C172 C 0.36666 0.46209 0.82674 0.0
C173 C 0.35215 0.4651 0.85225 0.0
C174 C 0.31097 0.40245 0.81206 0.0
C175 C 0.27844 0.41028 0.86252 0.0
C176 C 0.2227 0.35073 0.84803 0.0
H177 H 0.92192 0.13877 0.69136 0.0
H178 H 0.74837 0.94477 0.7327 0.0
H179 H 0.64104 0.93745 0.70771 0.0
H180 H 0.59812 0.97649 0.67154 0.0
H181 H 0.76872 0.16655 0.62838 0.0
H182 H 0.87544 0.18615 0.65696 0.0
C183 C 0.86044 0.09575 0.69514 0.0
C184 C 0.84337 0.04174 0.71366 0.0
C185 C 0.79864 0.09088 0.6803 0.0
C186 C 0.76339 0.98638 0.71835 0.0
C187 C 0.70185 0.98211 0.70408 0.0
C188 C 0.65852 0.02283 0.6685 0.0
C189 C 0.67591 0.06933 0.64772 0.0
C190 C 0.71912 0.03254 0.68457 0.0
C191 C 0.754 0.12991 0.64426 0.0
C192 C 0.815 0.14072 0.66049 0.0
H193 H 0.78728 0.92537 0.02189 0.0
H194 H 0.82012 0.76726 0.06459 0.0
H195 H 0.7148 0.66356 0.04133 0.0
H196 H 0.62125 0.61847 1.00727 0.0
H197 H 0.59396 0.77468 0.96166 0.0
H198 H 0.68847 0.87856 0.98791 0.0
C199 C 0.77056 0.8681 0.02624 0.0
C200 C 0.81152 0.8539 0.04487 0.0
C201 C 0.71126 0.80859 1.01227 0.0
C202 C 0.78991 0.77959 0.0502 0.0
C203 C 0.72963 0.72028 0.03695 0.0
C204 C 0.635 0.67506 1.00312 0.0
C205 C 0.60064 0.68873 0.98246 0.0
C206 C 0.69105 0.73424 1.01769 0.0
C207 C 0.61956 0.76258 0.97745 0.0
C208 C 0.67385 0.82198 0.99239 0.0
H209 H 0.89033 0.73462 0.37681 0.0
H210 H 0.02507 0.94443 0.33766 0.0
H211 H 0.04173 0.87908 0.3022 0.0
H212 H 0.0304 0.76474 0.28421 0.0
H213 H 0.89413 0.55416 0.3226 0.0
H214 H 0.86481 0.61724 0.35641 0.0
C215 C 0.92235 0.76589 0.36038 0.0
C216 C 0.95733 0.84447 0.36002 0.0
C217 C 0.9319 0.72791 0.34003 0.0
C218 C 0.99778 0.88404 0.33847 0.0
C219 C 1.0077 0.84675 0.31822 0.0
C220 C 0.99347 0.73254 0.29986 0.0
C221 C 0.96533 0.65521 0.30115 0.0
C222 C 0.97698 0.76911 0.3191 0.0
C223 C 0.91645 0.61379 0.32126 0.0
C224 C 0.90013 0.64993 0.34063 0.0
H225 H 0.07039 0.89402 0.68182 0.0
H226 H 0.27686 0.05128 0.7234 0.0
H227 H 0.36513 0.03809 0.69343 0.0
H228 H 0.3841 0.99282 0.65343 0.0
H229 H 0.17959 0.84854 0.60872 0.0
H230 H 0.08968 0.84458 0.64198 0.0
C231 C 0.13465 0.92418 0.68447 0.0
C232 C 0.1674 0.97328 0.70476 0.0
C233 C 0.18515 0.91892 0.66653 0.0
C234 C 0.25064 1.01328 0.70787 0.0
C235 C 0.30098 1.00578 0.69075 0.0
C236 C 0.31981 0.95914 0.65111 0.0
C237 C 0.28846 0.9207 0.62866 0.0
C238 C 0.269 0.96027 0.66971 0.0
C239 C 0.20507 0.87847 0.62584 0.0
C240 C 0.15376 0.87652 0.6448 0.0
H241 H 0.1332 0.19841 1.01596 0.0
H242 H 0.29081 0.14487 0.05503 0.0
H243 H 0.40093 0.22452 0.02652 0.0
H244 H 0.45279 0.31239 0.99084 0.0
H245 H 0.28963 0.35863 0.95132 0.0
H246 H 0.18157 0.2782 0.97943 0.0
C247 C 0.19178 0.20448 0.01835 0.0
C248 C 0.20421 0.16679 0.03777 0.0
C249 C 0.25384 0.2487 1.00165 0.0
C250 C 0.27995 0.17382 0.04028 0.0
C251 C 0.34283 0.21921 0.02396 0.0
C252 C 0.39342 0.30416 0.98824 0.0
C253 C 0.38 0.34235 0.96907 0.0
C254 C 0.33053 0.25718 1.00457 0.0
C255 C 0.30235 0.33069 0.96596 0.0
C256 C 0.24019 0.28473 0.98209 0.0
H257 H 0.08546 0.21166 0.3478 0.0
H258 H 0.10409 0.34495 0.41223 0.0
H259 H 0.11787 0.4456 0.38567 0.0
H260 H 0.11262 0.49151 0.34444 0.0
H261 H 0.09469 0.35976 0.2797 0.0
H262 H 0.09429 0.26389 0.30602 0.0
C263 C 0.09331 0.26302 0.35601 0.0
C264 C 0.0927 0.27018 0.382 0.0
C265 C 0.10132 0.32115 0.34057 0.0
C266 C 0.10381 0.33752 0.39231 0.0
C267 C 0.11164 0.39527 0.37712 0.0
C268 C 0.10986 0.4424 0.33602 0.0
C269 C 0.10272 0.4326 0.31014 0.0
C270 C 0.10878 0.38708 0.35127 0.0
C271 C 0.10001 0.36884 0.29957 0.0
C272 C 0.09924 0.31362 0.31464 0.0
loop_
_geom_bond_atom_site_label_1
_geom_bond_atom_site_label_2
_geom_bond_distance
_geom_bond_site_symmetry_2
_ccdc_geom_bond_type
O0 Cd1 2.223 1_455 S
O0 C8 1.315 . S
Cd1 O0 2.223 1_655 S
Cd1 O4 2.297 . S
Cd1 O5 2.439 . S
Cd1 O11 2.240 1_545 S
Cd2 O3 2.240 1_565 S
Cd2 O10 2.223 1_455 S
Cd2 O12 2.297 . S
Cd2 O13 2.439 . S
O3 Cd2 2.240 1_545 S
O3 C8 1.279 . S
O4 Cd1 2.297 . S
O4 C6 1.247 . S
O5 Cd1 2.439 . S
O5 C6 1.208 . S
C6 O4 1.247 . S
C6 O5 1.208 . S
C7 O12 1.247 . S
C7 O13 1.208 . S
C8 O0 1.315 . S
C8 O3 1.279 . S
C9 O10 1.315 . S
C9 O11 1.279 . S
O10 Cd2 2.223 1_655 S
O10 C9 1.315 . S
O11 Cd1 2.240 1_565 S
O11 C9 1.279 . S
O12 Cd2 2.297 . S
O12 C7 1.247 . S
O13 Cd2 2.439 . S
O13 C7 1.208 . S
O14 Cd15 2.223 1_655 S
O14 C22 1.315 . S
Cd15 O14 2.223 1_455 S
Cd15 O18 2.297 . S
Cd15 O19 2.439 . S
Cd15 O25 2.240 . S
Cd16 O17 2.240 . S
Cd16 O24 2.223 1_655 S
Cd16 O26 2.297 . S
Cd16 O27 2.439 . S
O17 Cd16 2.240 . S
O17 C22 1.279 1_565 S
O18 Cd15 2.297 . S
O18 C20 1.247 . S
O19 Cd15 2.439 . S
O19 C20 1.208 . S
C20 O18 1.247 . S
C20 O19 1.208 . S
C21 O26 1.247 . S
C21 O27 1.208 . S
C22 O14 1.315 . S
C22 O17 1.279 1_545 S
C23 O24 1.315 . S
C23 O25 1.279 1_565 S
O24 Cd16 2.223 1_455 S
O24 C23 1.315 . S
O25 Cd15 2.240 . S
O25 C23 1.279 1_545 S
O26 Cd16 2.297 . S
O26 C21 1.247 . S
O27 Cd16 2.439 . S
O27 C21 1.208 . S
O28 Cd29 2.223 . S
O28 C36 1.315 . S
Cd29 O28 2.223 . S
Cd29 O32 2.297 . S
Cd29 O33 2.439 . S
Cd29 O39 2.240 1_655 S
Cd30 O31 2.240 1_455 S
Cd30 O38 2.223 . S
Cd30 O40 2.297 . S
Cd30 O41 2.439 . S
O31 Cd30 2.240 1_655 S
O31 C36 1.279 1_545 S
O32 Cd29 2.297 . S
O32 C34 1.247 . S
O33 Cd29 2.439 . S
O33 C34 1.208 . S
C34 O32 1.247 . S
C34 O33 1.208 . S
C35 O40 1.247 . S
C35 O41 1.208 . S
C36 O28 1.315 . S
C36 O31 1.279 1_565 S
C37 O38 1.315 . S
C37 O39 1.279 1_545 S
O38 Cd30 2.223 . S
O38 C37 1.315 . S
O39 Cd29 2.240 1_455 S
O39 C37 1.279 1_565 S
O40 Cd30 2.297 . S
O40 C35 1.247 . S
O41 Cd30 2.439 . S
O41 C35 1.208 . S
Mg42 O49 2.141 . S
Mg42 O50 2.048 . S
Mg42 O51 2.048 . S
Mg42 O54 2.141 . S
C43 O44 1.313 . S
C43 O50 1.195 1_655 S
O44 C43 1.313 . S
C45 O46 1.245 . S
C45 O54 1.289 1_655 S
O46 C45 1.245 . S
C47 O48 1.245 . S
C47 O49 1.289 1_655 S
O48 C47 1.245 . S
O49 Mg42 2.141 . S
O49 C47 1.289 1_455 S
O50 Mg42 2.048 . S
O50 C43 1.195 1_455 S
O51 Mg42 2.048 . S
O51 C52 1.195 1_455 S
C52 O51 1.195 1_655 S
C52 O53 1.313 . S
O53 C52 1.313 . S
O54 Mg42 2.141 . S
O54 C45 1.289 1_455 S
Mg55 O62 2.141 . S
Mg55 O63 2.048 . S
Mg55 O64 2.048 . S
Mg55 O67 2.141 . S
C56 O57 1.313 . S
C56 O63 1.195 1_565 S
O57 C56 1.313 . S
C58 O59 1.245 . S
C58 O67 1.289 1_565 S
O59 C58 1.245 . S
C60 O61 1.245 . S
C60 O62 1.289 1_565 S
O61 C60 1.245 . S
O62 Mg55 2.141 . S
O62 C60 1.289 1_545 S
O63 Mg55 2.048 . S
O63 C56 1.195 1_545 S
O64 Mg55 2.048 . S
O64 C65 1.195 1_545 S
C65 O64 1.195 1_565 S
C65 O66 1.313 . S
O66 C65 1.313 . S
O67 Mg55 2.141 . S
O67 C58 1.289 1_545 S
Mg68 O75 2.141 . S
Mg68 O76 2.048 . S
Mg68 O77 2.048 . S
Mg68 O80 2.141 . S
C69 O70 1.313 . S
C69 O76 1.195 . S
O70 C69 1.313 . S
C71 O72 1.245 . S
C71 O80 1.289 . S
O72 C71 1.245 . S
C73 O74 1.245 . S
C73 O75 1.289 . S
O74 C73 1.245 . S
O75 Mg68 2.141 . S
O75 C73 1.289 . S
O76 Mg68 2.048 . S
O76 C69 1.195 . S
O77 Mg68 2.048 . S
O77 C78 1.195 . S
C78 O77 1.195 . S
C78 O79 1.313 . S
O79 C78 1.313 . S
O80 Mg68 2.141 . S
O80 C71 1.289 . S
H81 C87 0.930 . S
H82 C90 0.925 . S
H83 C91 0.934 . S
H84 C92 0.930 . S
H85 C95 0.930 . S
H86 C96 0.930 . S
C87 H81 0.930 . S
C87 C88 1.355 . S
C87 C89 1.416 . S
C88 C87 1.355 . S
C88 C90 1.419 . S
C89 C87 1.416 . S
C89 C94 1.428 1_455 S
C89 C96 1.407 1_455 S
C90 H82 0.925 . S
C90 C88 1.419 . S
C90 C91 1.367 . S
C91 H83 0.934 . S
C91 C90 1.367 . S
C91 C94 1.395 1_455 S
C92 H84 0.930 . S
C92 C93 1.355 . S
C92 C94 1.419 . S
C93 C92 1.355 . S
C93 C95 1.419 . S
C94 C89 1.428 1_655 S
C94 C91 1.395 1_655 S
C94 C92 1.419 . S
C95 H85 0.930 . S
C95 C93 1.419 . S
C95 C96 1.362 . S
C96 H86 0.930 . S
C96 C89 1.407 1_655 S
C96 C95 1.362 . S
H97 C103 0.929 . S
H98 C106 0.930 . S
H99 C107 0.930 . S
H100 C108 0.930 . S
H101 C111 0.930 . S
H102 C112 0.930 . S
C103 H97 0.929 . S
C103 C104 1.356 1_565 S
C103 C105 1.413 . S
C104 C103 1.356 1_545 S
C104 C106 1.419 . S
C105 C103 1.413 . S
C105 C110 1.425 1_565 S
C105 C112 1.409 . S
C106 H98 0.930 . S
C106 C104 1.419 . S
C106 C107 1.362 . S
C107 H99 0.930 . S
C107 C106 1.362 . S
C107 C110 1.409 . S
C108 H100 0.930 . S
C108 C109 1.355 1_545 S
C108 C110 1.415 . S
C109 C108 1.355 1_565 S
C109 C111 1.419 . S
C110 C105 1.425 1_545 S
C110 C107 1.409 . S
C110 C108 1.415 . S
C111 H101 0.930 . S
C111 C109 1.419 . S
C111 C112 1.362 . S
C112 H102 0.930 . S
C112 C105 1.409 . S
C112 C111 1.362 . S
H113 C119 0.930 . S
H114 C122 0.930 . S
H115 C123 0.930 . S
H116 C124 0.930 . S
H117 C127 0.930 . S
H118 C128 0.930 . S
C119 H113 0.930 . S
C119 C120 1.355 . S
C119 C121 1.415 . S
C120 C119 1.355 . S
C120 C122 1.419 . S
C121 C119 1.415 . S
C121 C126 1.425 . S
C121 C128 1.409 . S
C122 H114 0.930 . S
C122 C120 1.419 . S
C122 C123 1.362 . S
C123 H115 0.930 . S
C123 C122 1.362 . S
C123 C126 1.409 . S
C124 H116 0.930 . S
C124 C125 1.355 . S
C124 C126 1.415 . S
C125 C124 1.355 . S
C125 C127 1.419 . S
C126 C121 1.425 . S
C126 C123 1.409 . S
C126 C124 1.415 . S
C127 H117 0.930 . S
C127 C125 1.419 . S
C127 C128 1.362 . S
C128 H118 0.930 . S
C128 C121 1.409 . S
C128 C127 1.362 . S
H129 C135 0.930 . S
H130 C138 0.930 . S
H131 C139 0.930 . S
H132 C140 0.930 . S
H133 C143 0.930 . S
H134 C144 0.930 . S
C135 H129 0.930 . S
C135 C136 1.355 1_455 S
C135 C137 1.415 . S
C136 C135 1.355 1_655 S
C136 C138 1.419 . S
C137 C135 1.415 . S
C137 C142 1.425 1_455 S
C137 C144 1.409 . S
C138 H130 0.930 . S
C138 C136 1.419 . S
C138 C139 1.362 . S
C139 H131 0.930 . S
C139 C138 1.362 . S
C139 C142 1.409 . S
C140 H132 0.930 . S
C140 C141 1.355 1_655 S
C140 C142 1.415 . S
C141 C140 1.355 1_455 S
C141 C143 1.419 . S
C142 C137 1.425 1_655 S
C142 C139 1.409 . S
C142 C140 1.415 . S
C143 H133 0.930 . S
C143 C141 1.419 . S
C143 C144 1.362 . S
C144 H134 0.930 . S
C144 C137 1.409 . S
C144 C143 1.362 . S
H145 C151 0.930 . S
H146 C154 0.930 . S
H147 C155 0.930 . S
H148 C156 0.930 . S
H149 C159 0.930 . S
H150 C160 0.930 . S
C151 H145 0.930 . S
C151 C152 1.355 1_545 S
C151 C153 1.415 . S
C152 C151 1.355 1_565 S
C152 C154 1.419 . S
C153 C151 1.415 . S
C153 C158 1.425 1_545 S
C153 C160 1.409 . S
C154 H146 0.930 . S
C154 C152 1.419 . S
C154 C155 1.362 . S
C155 H147 0.930 . S
C155 C154 1.362 . S
C155 C158 1.409 . S
C156 H148 0.930 . S
C156 C157 1.351 1_565 S
C156 C158 1.415 . S
C157 C156 1.351 1_545 S
C157 C159 1.430 . S
C158 C153 1.425 1_565 S
C158 C155 1.409 . S
C158 C156 1.415 . S
C159 H149 0.930 . S
C159 C157 1.430 . S
C159 C160 1.362 . S
C160 H150 0.930 . S
C160 C153 1.409 . S
C160 C159 1.362 . S
H161 C167 0.930 . S
H162 C170 0.930 . S
H163 C171 0.930 . S
H164 C172 0.930 . S
H165 C175 0.930 . S
H166 C176 0.930 . S
C167 H161 0.930 . S
C167 C168 1.355 . S
C167 C169 1.415 . S
C168 C167 1.355 . S
C168 C170 1.419 . S
C169 C167 1.415 . S
C169 C174 1.425 . S
C169 C176 1.409 . S
C170 H162 0.930 . S
C170 C168 1.419 . S
C170 C171 1.362 . S
C171 H163 0.930 . S
C171 C170 1.362 . S
C171 C174 1.409 . S
C172 H164 0.930 . S
C172 C173 1.355 . S
C172 C174 1.415 . S
C173 C172 1.355 . S
C173 C175 1.419 . S
C174 C169 1.425 . S
C174 C171 1.409 . S
C174 C172 1.415 . S
C175 H165 0.930 . S
C175 C173 1.419 . S
C175 C176 1.362 . S
C176 H166 0.930 . S
C176 C169 1.409 . S
C176 C175 1.362 . S
H177 C183 0.930 . S
H178 C186 0.930 . S
H179 C187 0.930 . S
H180 C188 0.930 . S
H181 C191 0.930 . S
H182 C192 0.930 . S
C183 H177 0.930 . S
C183 C184 1.355 1_545 S
C183 C185 1.415 . S
C184 C183 1.355 1_565 S
C184 C186 1.419 . S
C185 C183 1.415 . S
C185 C190 1.425 1_545 S
C185 C192 1.409 . S
C186 H178 0.930 . S
C186 C184 1.419 . S
C186 C187 1.362 . S
C187 H179 0.930 . S
C187 C186 1.362 . S
C187 C190 1.409 . S
C188 H180 0.930 . S
C188 C189 1.355 1_565 S
C188 C190 1.415 . S
C189 C188 1.355 1_545 S
C189 C191 1.419 . S
C190 C185 1.425 1_565 S
C190 C187 1.409 . S
C190 C188 1.415 . S
C191 H181 0.930 . S
C191 C189 1.419 . S
C191 C192 1.362 . S
C192 H182 0.930 . S
C192 C185 1.409 . S
C192 C191 1.362 . S
H193 C199 0.930 . S
H194 C202 0.930 . S
H195 C203 0.930 . S
H196 C204 0.930 . S
H197 C207 0.930 . S
H198 C208 0.930 . S
C199 H193 0.930 . S
C199 C200 1.355 1_556 S
C199 C201 1.415 . S
C200 C199 1.355 1_554 S
C200 C202 1.419 . S
C201 C199 1.415 . S
C201 C206 1.425 . S
C201 C208 1.409 . S
C202 H194 0.930 . S
C202 C200 1.419 . S
C202 C203 1.362 . S
C203 H195 0.930 . S
C203 C202 1.362 . S
C203 C206 1.409 1_554 S
C204 H196 0.930 . S
C204 C205 1.355 . S
C204 C206 1.415 . S
C205 C204 1.355 . S
C205 C207 1.419 . S
C206 C201 1.425 . S
C206 C203 1.409 1_556 S
C206 C204 1.415 . S
C207 H197 0.930 . S
C207 C205 1.419 . S
C207 C208 1.362 . S
C208 H198 0.930 . S
C208 C201 1.409 . S
C208 C207 1.362 . S
H209 C215 0.930 . S
H210 C218 0.930 . S
H211 C219 0.930 . S
H212 C220 0.930 . S
H213 C223 0.930 . S
H214 C224 0.930 . S
C215 H209 0.930 . S
C215 C216 1.355 . S
C215 C217 1.415 . S
C216 C215 1.355 . S
C216 C218 1.419 1_455 S
C217 C215 1.415 . S
C217 C222 1.425 1_455 S
C217 C224 1.409 . S
C218 H210 0.930 . S
C218 C216 1.419 1_655 S
C218 C219 1.362 . S
C219 H211 0.930 . S
C219 C218 1.362 . S
C219 C222 1.409 . S
C220 H212 0.930 . S
C220 C221 1.355 1_655 S
C220 C222 1.415 . S
C221 C220 1.355 1_455 S
C221 C223 1.419 . S
C222 C217 1.425 1_655 S
C222 C219 1.409 . S
C222 C220 1.415 . S
C223 H213 0.930 . S
C223 C221 1.419 . S
C223 C224 1.362 . S
C224 H214 0.930 . S
C224 C217 1.409 . S
C224 C223 1.362 . S
H225 C231 0.930 . S
H226 C234 0.930 . S
H227 C235 0.930 . S
H228 C236 0.930 . S
H229 C239 0.930 . S
H230 C240 0.930 . S
C231 H225 0.930 . S
C231 C232 1.355 1_565 S
C231 C233 1.415 . S
C232 C231 1.355 1_545 S
C232 C234 1.419 . S
C233 C231 1.415 . S
C233 C238 1.425 1_565 S
C233 C240 1.409 . S
C234 H226 0.930 . S
C234 C232 1.419 . S
C234 C235 1.362 . S
C235 H227 0.930 . S
C235 C234 1.362 . S
C235 C238 1.409 . S
C236 H228 0.930 . S
C236 C237 1.355 . S
C236 C238 1.415 . S
C237 C236 1.355 . S
C237 C239 1.419 1_545 S
C238 C233 1.425 1_545 S
C238 C235 1.409 . S
C238 C236 1.415 . S
C239 H229 0.930 . S
C239 C237 1.419 1_565 S
C239 C240 1.362 . S
C240 H230 0.930 . S
C240 C233 1.409 . S
C240 C239 1.362 . S
H241 C247 0.930 . S
H242 C250 0.930 . S
H243 C251 0.928 1_556 S
H244 C252 0.930 . S
H245 C255 0.930 . S
H246 C256 0.930 . S
C247 H241 0.930 . S
C247 C248 1.355 . S
C247 C249 1.415 1_554 S
C248 C247 1.355 . S
C248 C250 1.419 . S
C249 C247 1.415 1_556 S
C249 C254 1.425 . S
C249 C256 1.409 . S
C250 H242 0.930 . S
C250 C248 1.419 . S
C250 C251 1.368 . S
C251 H243 0.928 1_554 S
C251 C250 1.368 . S
C251 C254 1.404 1_554 S
C252 H244 0.930 . S
C252 C253 1.355 . S
C252 C254 1.415 . S
C253 C252 1.355 . S
C253 C255 1.419 . S
C254 C249 1.425 . S
C254 C251 1.404 1_556 S
C254 C252 1.415 . S
C255 H245 0.930 . S
C255 C253 1.419 . S
C255 C256 1.362 . S
C256 H246 0.930 . S
C256 C249 1.409 . S
C256 C255 1.362 . S
H257 C263 0.930 . S
H258 C266 0.930 . S
H259 C267 0.930 . S
H260 C268 0.930 . S
H261 C271 0.930 . S
H262 C272 0.930 . S
C263 H257 0.930 . S
C263 C264 1.355 1_455 S
C263 C265 1.415 . S
C264 C263 1.355 1_655 S
C264 C266 1.419 . S
C265 C263 1.415 . S
C265 C270 1.425 1_455 S
C265 C272 1.409 . S
C266 H258 0.930 . S
C266 C264 1.419 . S
C266 C267 1.362 . S
C267 H259 0.930 . S
C267 C266 1.362 . S
C267 C270 1.409 . S
C268 H260 0.930 . S
C268 C269 1.358 . S
C268 C270 1.415 . S
C269 C268 1.358 . S
C269 C271 1.409 1_655 S
C270 C265 1.425 1_655 S
C270 C267 1.409 . S
C270 C268 1.415 . S
C271 H261 0.930 . S
C271 C269 1.409 1_455 S
C271 C272 1.362 . S
C272 H262 0.930 . S
C272 C265 1.409 . S
C272 C271 1.362 . S
C93 C47 1.417 . S
C88 C6 1.436 1_455 S
C104 C22 1.528 . S
C109 C65 1.545 . S
C120 C34 1.308 . S
C125 C78 1.340 . S
C136 C7 1.440 1_655 S
C141 C45 1.443 1_455 S
C157 C56 1.543 1_545 S
C152 C23 1.522 . S
C168 C35 1.323 . S
C173 C69 1.339 . S
C189 C58 1.500 1_545 S
C184 C36 1.467 . S
C200 C9 1.650 . S
C205 C71 1.671 . S
C221 C52 1.492 1_455 S
C216 C21 1.483 1_455 S
C237 C60 1.487 1_545 S
C232 C37 1.474 . S
C253 C73 1.689 . S
C248 C8 1.675 . S
C264 C20 1.466 1_655 S
C269 C43 1.494 . S
