# Generated by pormake.
# Topology gar, (4,6)-cn, num edge types: 1
# Building blocks:
#     Node 0, Type 0, BuildingBlock: TATPOV_clean_sbu_0, # of connection points: 4
#     Node 1, Type 0, BuildingBlock: TATPOV_clean_sbu_0, # of connection points: 4
#     Node 2, Type 0, BuildingBlock: TATPOV_clean_sbu_0, # of connection points: 4
#     Node 3, Type 0, BuildingBlock: TATPOV_clean_sbu_0, # of connection points: 4
#     Node 4, Type 0, BuildingBlock: TATPOV_clean_sbu_0, # of connection points: 4
#     Node 5, Type 0, BuildingBlock: TATPOV_clean_sbu_0, # of connection points: 4
#     Node 6, Type 0, BuildingBlock: TATPOV_clean_sbu_0, # of connection points: 4
#     Node 7, Type 0, BuildingBlock: TATPOV_clean_sbu_0, # of connection points: 4
#     Node 8, Type 0, BuildingBlock: TATPOV_clean_sbu_0, # of connection points: 4
#     Node 9, Type 0, BuildingBlock: TATPOV_clean_sbu_0, # of connection points: 4
#     Node 10, Type 0, BuildingBlock: TATPOV_clean_sbu_0, # of connection points: 4
#     Node 11, Type 0, BuildingBlock: TATPOV_clean_sbu_0, # of connection points: 4
#     Node 12, Type 0, BuildingBlock: TATPOV_clean_sbu_0, # of connection points: 4
#     Node 13, Type 0, BuildingBlock: TATPOV_clean_sbu_0, # of connection points: 4
#     Node 14, Type 0, BuildingBlock: TATPOV_clean_sbu_0, # of connection points: 4
#     Node 15, Type 0, BuildingBlock: TATPOV_clean_sbu_0, # of connection points: 4
#     Node 16, Type 0, BuildingBlock: TATPOV_clean_sbu_0, # of connection points: 4
#     Node 17, Type 0, BuildingBlock: TATPOV_clean_sbu_0, # of connection points: 4
#     Node 18, Type 0, BuildingBlock: TATPOV_clean_sbu_0, # of connection points: 4
#     Node 19, Type 0, BuildingBlock: TATPOV_clean_sbu_0, # of connection points: 4
#     Node 20, Type 0, BuildingBlock: TATPOV_clean_sbu_0, # of connection points: 4
#     Node 21, Type 0, BuildingBlock: TATPOV_clean_sbu_0, # of connection points: 4
#     Node 22, Type 0, BuildingBlock: TATPOV_clean_sbu_0, # of connection points: 4
#     Node 23, Type 0, BuildingBlock: TATPOV_clean_sbu_0, # of connection points: 4
#     Node 24, Type 1, BuildingBlock: PAMTUU_clean_sbu_0, # of connection points: 6
#     Node 25, Type 1, BuildingBlock: PAMTUU_clean_sbu_0, # of connection points: 6
#     Node 26, Type 1, BuildingBlock: PAMTUU_clean_sbu_0, # of connection points: 6
#     Node 27, Type 1, BuildingBlock: PAMTUU_clean_sbu_0, # of connection points: 6
#     Node 28, Type 1, BuildingBlock: PAMTUU_clean_sbu_0, # of connection points: 6
#     Node 29, Type 1, BuildingBlock: PAMTUU_clean_sbu_0, # of connection points: 6
#     Node 30, Type 1, BuildingBlock: PAMTUU_clean_sbu_0, # of connection points: 6
#     Node 31, Type 1, BuildingBlock: PAMTUU_clean_sbu_0, # of connection points: 6
#     Node 32, Type 1, BuildingBlock: PAMTUU_clean_sbu_0, # of connection points: 6
#     Node 33, Type 1, BuildingBlock: PAMTUU_clean_sbu_0, # of connection points: 6
#     Node 34, Type 1, BuildingBlock: PAMTUU_clean_sbu_0, # of connection points: 6
#     Node 35, Type 1, BuildingBlock: PAMTUU_clean_sbu_0, # of connection points: 6
#     Node 36, Type 1, BuildingBlock: PAMTUU_clean_sbu_0, # of connection points: 6
#     Node 37, Type 1, BuildingBlock: PAMTUU_clean_sbu_0, # of connection points: 6
#     Node 38, Type 1, BuildingBlock: PAMTUU_clean_sbu_0, # of connection points: 6
#     Node 39, Type 1, BuildingBlock: PAMTUU_clean_sbu_0, # of connection points: 6
#     Edge 40, Type (0, 1), BuildingBlock: CIFDUS_clean_linker_0, # of connection points: 2
#     Edge 41, Type (0, 1), BuildingBlock: CIFDUS_clean_linker_0, # of connection points: 2
#     Edge 42, Type (0, 1), BuildingBlock: CIFDUS_clean_linker_0, # of connection points: 2
#     Edge 43, Type (0, 1), BuildingBlock: CIFDUS_clean_linker_0, # of connection points: 2
#     Edge 44, Type (0, 1), BuildingBlock: CIFDUS_clean_linker_0, # of connection points: 2
#     Edge 45, Type (0, 1), BuildingBlock: CIFDUS_clean_linker_0, # of connection points: 2
#     Edge 46, Type (0, 1), BuildingBlock: CIFDUS_clean_linker_0, # of connection points: 2
#     Edge 47, Type (0, 1), BuildingBlock: CIFDUS_clean_linker_0, # of connection points: 2
#     Edge 48, Type (0, 1), BuildingBlock: CIFDUS_clean_linker_0, # of connection points: 2
#     Edge 49, Type (0, 1), BuildingBlock: CIFDUS_clean_linker_0, # of connection points: 2
#     Edge 50, Type (0, 1), BuildingBlock: CIFDUS_clean_linker_0, # of connection points: 2
#     Edge 51, Type (0, 1), BuildingBlock: CIFDUS_clean_linker_0, # of connection points: 2
#     Edge 52, Type (0, 1), BuildingBlock: CIFDUS_clean_linker_0, # of connection points: 2
#     Edge 53, Type (0, 1), BuildingBlock: CIFDUS_clean_linker_0, # of connection points: 2
#     Edge 54, Type (0, 1), BuildingBlock: CIFDUS_clean_linker_0, # of connection points: 2
#     Edge 55, Type (0, 1), BuildingBlock: CIFDUS_clean_linker_0, # of connection points: 2
#     Edge 56, Type (0, 1), BuildingBlock: CIFDUS_clean_linker_0, # of connection points: 2
#     Edge 57, Type (0, 1), BuildingBlock: CIFDUS_clean_linker_0, # of connection points: 2
#     Edge 58, Type (0, 1), BuildingBlock: CIFDUS_clean_linker_0, # of connection points: 2
#     Edge 59, Type (0, 1), BuildingBlock: CIFDUS_clean_linker_0, # of connection points: 2
#     Edge 60, Type (0, 1), BuildingBlock: CIFDUS_clean_linker_0, # of connection points: 2
#     Edge 61, Type (0, 1), BuildingBlock: CIFDUS_clean_linker_0, # of connection points: 2
#     Edge 62, Type (0, 1), BuildingBlock: CIFDUS_clean_linker_0, # of connection points: 2
#     Edge 63, Type (0, 1), BuildingBlock: CIFDUS_clean_linker_0, # of connection points: 2
#     Edge 64, Type (0, 1), BuildingBlock: CIFDUS_clean_linker_0, # of connection points: 2
#     Edge 65, Type (0, 1), BuildingBlock: CIFDUS_clean_linker_0, # of connection points: 2
#     Edge 66, Type (0, 1), BuildingBlock: CIFDUS_clean_linker_0, # of connection points: 2
#     Edge 67, Type (0, 1), BuildingBlock: CIFDUS_clean_linker_0, # of connection points: 2
#     Edge 68, Type (0, 1), BuildingBlock: CIFDUS_clean_linker_0, # of connection points: 2
#     Edge 69, Type (0, 1), BuildingBlock: CIFDUS_clean_linker_0, # of connection points: 2
#     Edge 70, Type (0, 1), BuildingBlock: CIFDUS_clean_linker_0, # of connection points: 2
#     Edge 71, Type (0, 1), BuildingBlock: CIFDUS_clean_linker_0, # of connection points: 2
#     Edge 72, Type (0, 1), BuildingBlock: CIFDUS_clean_linker_0, # of connection points: 2
#     Edge 73, Type (0, 1), BuildingBlock: CIFDUS_clean_linker_0, # of connection points: 2
#     Edge 74, Type (0, 1), BuildingBlock: CIFDUS_clean_linker_0, # of connection points: 2
#     Edge 75, Type (0, 1), BuildingBlock: CIFDUS_clean_linker_0, # of connection points: 2
#     Edge 76, Type (0, 1), BuildingBlock: CIFDUS_clean_linker_0, # of connection points: 2
#     Edge 77, Type (0, 1), BuildingBlock: CIFDUS_clean_linker_0, # of connection points: 2
#     Edge 78, Type (0, 1), BuildingBlock: CIFDUS_clean_linker_0, # of connection points: 2
#     Edge 79, Type (0, 1), BuildingBlock: CIFDUS_clean_linker_0, # of connection points: 2
#     Edge 80, Type (0, 1), BuildingBlock: CIFDUS_clean_linker_0, # of connection points: 2
#     Edge 81, Type (0, 1), BuildingBlock: CIFDUS_clean_linker_0, # of connection points: 2
#     Edge 82, Type (0, 1), BuildingBlock: CIFDUS_clean_linker_0, # of connection points: 2
#     Edge 83, Type (0, 1), BuildingBlock: CIFDUS_clean_linker_0, # of connection points: 2
#     Edge 84, Type (0, 1), BuildingBlock: CIFDUS_clean_linker_0, # of connection points: 2
#     Edge 85, Type (0, 1), BuildingBlock: CIFDUS_clean_linker_0, # of connection points: 2
#     Edge 86, Type (0, 1), BuildingBlock: CIFDUS_clean_linker_0, # of connection points: 2
#     Edge 87, Type (0, 1), BuildingBlock: CIFDUS_clean_linker_0, # of connection points: 2
#     Edge 88, Type (0, 1), BuildingBlock: CIFDUS_clean_linker_0, # of connection points: 2
#     Edge 89, Type (0, 1), BuildingBlock: CIFDUS_clean_linker_0, # of connection points: 2
#     Edge 90, Type (0, 1), BuildingBlock: CIFDUS_clean_linker_0, # of connection points: 2
#     Edge 91, Type (0, 1), BuildingBlock: CIFDUS_clean_linker_0, # of connection points: 2
#     Edge 92, Type (0, 1), BuildingBlock: CIFDUS_clean_linker_0, # of connection points: 2
#     Edge 93, Type (0, 1), BuildingBlock: CIFDUS_clean_linker_0, # of connection points: 2
#     Edge 94, Type (0, 1), BuildingBlock: CIFDUS_clean_linker_0, # of connection points: 2
#     Edge 95, Type (0, 1), BuildingBlock: CIFDUS_clean_linker_0, # of connection points: 2
#     Edge 96, Type (0, 1), BuildingBlock: CIFDUS_clean_linker_0, # of connection points: 2
#     Edge 97, Type (0, 1), BuildingBlock: CIFDUS_clean_linker_0, # of connection points: 2
#     Edge 98, Type (0, 1), BuildingBlock: CIFDUS_clean_linker_0, # of connection points: 2
#     Edge 99, Type (0, 1), BuildingBlock: CIFDUS_clean_linker_0, # of connection points: 2
#     Edge 100, Type (0, 1), BuildingBlock: CIFDUS_clean_linker_0, # of connection points: 2
#     Edge 101, Type (0, 1), BuildingBlock: CIFDUS_clean_linker_0, # of connection points: 2
#     Edge 102, Type (0, 1), BuildingBlock: CIFDUS_clean_linker_0, # of connection points: 2
#     Edge 103, Type (0, 1), BuildingBlock: CIFDUS_clean_linker_0, # of connection points: 2
#     Edge 104, Type (0, 1), BuildingBlock: CIFDUS_clean_linker_0, # of connection points: 2
#     Edge 105, Type (0, 1), BuildingBlock: CIFDUS_clean_linker_0, # of connection points: 2
#     Edge 106, Type (0, 1), BuildingBlock: CIFDUS_clean_linker_0, # of connection points: 2
#     Edge 107, Type (0, 1), BuildingBlock: CIFDUS_clean_linker_0, # of connection points: 2
#     Edge 108, Type (0, 1), BuildingBlock: CIFDUS_clean_linker_0, # of connection points: 2
#     Edge 109, Type (0, 1), BuildingBlock: CIFDUS_clean_linker_0, # of connection points: 2
#     Edge 110, Type (0, 1), BuildingBlock: CIFDUS_clean_linker_0, # of connection points: 2
#     Edge 111, Type (0, 1), BuildingBlock: CIFDUS_clean_linker_0, # of connection points: 2
#     Edge 112, Type (0, 1), BuildingBlock: CIFDUS_clean_linker_0, # of connection points: 2
#     Edge 113, Type (0, 1), BuildingBlock: CIFDUS_clean_linker_0, # of connection points: 2
#     Edge 114, Type (0, 1), BuildingBlock: CIFDUS_clean_linker_0, # of connection points: 2
#     Edge 115, Type (0, 1), BuildingBlock: CIFDUS_clean_linker_0, # of connection points: 2
#     Edge 116, Type (0, 1), BuildingBlock: CIFDUS_clean_linker_0, # of connection points: 2
#     Edge 117, Type (0, 1), BuildingBlock: CIFDUS_clean_linker_0, # of connection points: 2
#     Edge 118, Type (0, 1), BuildingBlock: CIFDUS_clean_linker_0, # of connection points: 2
#     Edge 119, Type (0, 1), BuildingBlock: CIFDUS_clean_linker_0, # of connection points: 2
#     Edge 120, Type (0, 1), BuildingBlock: CIFDUS_clean_linker_0, # of connection points: 2
#     Edge 121, Type (0, 1), BuildingBlock: CIFDUS_clean_linker_0, # of connection points: 2
#     Edge 122, Type (0, 1), BuildingBlock: CIFDUS_clean_linker_0, # of connection points: 2
#     Edge 123, Type (0, 1), BuildingBlock: CIFDUS_clean_linker_0, # of connection points: 2
#     Edge 124, Type (0, 1), BuildingBlock: CIFDUS_clean_linker_0, # of connection points: 2
#     Edge 125, Type (0, 1), BuildingBlock: CIFDUS_clean_linker_0, # of connection points: 2
#     Edge 126, Type (0, 1), BuildingBlock: CIFDUS_clean_linker_0, # of connection points: 2
#     Edge 127, Type (0, 1), BuildingBlock: CIFDUS_clean_linker_0, # of connection points: 2
#     Edge 128, Type (0, 1), BuildingBlock: CIFDUS_clean_linker_0, # of connection points: 2
#     Edge 129, Type (0, 1), BuildingBlock: CIFDUS_clean_linker_0, # of connection points: 2
#     Edge 130, Type (0, 1), BuildingBlock: CIFDUS_clean_linker_0, # of connection points: 2
#     Edge 131, Type (0, 1), BuildingBlock: CIFDUS_clean_linker_0, # of connection points: 2
#     Edge 132, Type (0, 1), BuildingBlock: CIFDUS_clean_linker_0, # of connection points: 2
#     Edge 133, Type (0, 1), BuildingBlock: CIFDUS_clean_linker_0, # of connection points: 2
#     Edge 134, Type (0, 1), BuildingBlock: CIFDUS_clean_linker_0, # of connection points: 2
#     Edge 135, Type (0, 1), BuildingBlock: CIFDUS_clean_linker_0, # of connection points: 2
# Relax obj value: 0.216
# Max RMSD: 0.354
# Mean RMSD: 0.185
data_MOF--net-gar--node1-TATPOV_clean_sbu_0--node2-PAMTUU_clean_sbu_0--edge1-CIFDUS_clean_linker_0
_symmetry_space_group_name_H-M    P1
_symmetry_Int_Tables_number       1
_symmetry_cell_setting            triclinic
loop_
_symmetry_equiv_pos_as_xyz
'x, y, z'
_cell_length_a     52.789526
_cell_length_b     49.047197
_cell_length_c     53.080062
_cell_angle_alpha  93.54434
_cell_angle_beta   94.733305
_cell_angle_gamma 108.97522
loop_
_atom_site_label
_atom_site_type_symbol
_atom_site_fract_x
_atom_site_fract_y
_atom_site_fract_z
_atom_type_partial_charge
Zn0 Zn 0.03952 0.28462 0.42623 0.0
Zn1 Zn 0.07898 0.29726 0.39731 0.0
O2 O 0.08605 0.33874 0.42276 0.0
O3 O 0.05304 0.32404 0.44674 0.0
O4 O 0.11762 0.30441 0.37574 0.0
O5 O 0.04395 0.24912 0.44187 0.0
O6 O 0.07752 0.25685 0.41845 0.0
C7 C 0.07279 0.34451 0.4408 0.0
C8 C 1.0142 0.28843 0.37711 0.0
O9 O 0.0394 0.29485 0.37233 0.0
O10 O 1.00877 0.28075 0.39894 0.0
C11 C 0.12958 0.28669 0.36687 0.0
O12 O 0.11767 0.25896 0.36873 0.0
C13 C 0.06314 0.24148 0.43472 0.0
Zn14 Zn 0.05691 0.76617 0.70235 0.0
Zn15 Zn 0.06979 0.80767 0.67285 0.0
O16 O 0.032 0.80773 0.69332 0.0
O17 O 1.02332 0.77181 0.71739 0.0
O18 O 0.07519 0.84508 0.64789 0.0
O19 O 0.09521 0.77892 0.72181 0.0
O20 O 0.10984 0.81326 0.6967 0.0
C21 C 1.01676 0.79266 0.70931 0.0
C22 C 0.05825 0.74011 0.65152 0.0
O23 O 0.06501 0.76712 0.64686 0.0
O24 O 0.05196 0.73417 0.67361 0.0
C25 C 0.07365 0.87084 0.65288 0.0
O26 O 0.06911 0.87756 0.67602 0.0
C27 C 0.11514 0.79846 0.71475 0.0
Zn28 Zn 0.54248 0.79157 0.92559 0.0
Zn29 Zn 0.58012 0.80096 0.89405 0.0
O30 O 0.58586 0.84358 0.91781 0.0
O31 O 0.5563 0.83109 0.94551 0.0
O32 O 0.61907 0.80796 0.87279 0.0
O33 O 0.54666 0.75535 0.94059 0.0
O34 O 0.57841 0.76097 0.91521 0.0
C35 C 0.57426 0.85098 0.9366 0.0
C36 C 0.51603 0.79269 0.87541 0.0
O37 O 0.54026 0.79574 0.86912 0.0
O38 O 0.51197 0.78941 0.89841 0.0
C39 C 0.63073 0.79011 0.86355 0.0
O40 O 0.61821 0.76235 0.86464 0.0
C41 C 0.56463 0.74642 0.93219 0.0
Zn42 Zn 0.55877 0.26715 0.20011 0.0
Zn43 Zn 0.56569 0.31168 0.17248 0.0
O44 O 0.52817 0.30831 0.19413 0.0
O45 O 0.52477 0.27139 0.21628 0.0
O46 O 0.57002 0.35292 0.15282 0.0
O47 O 0.59807 0.28032 0.2179 0.0
O48 O 0.60685 0.31715 0.19458 0.0
C49 C 0.51524 0.29109 0.21005 0.0
C50 C 0.55658 0.24621 0.14679 0.0
O51 O 0.55986 0.27329 0.1439 0.0
O52 O 0.55425 0.23791 0.16891 0.0
C53 C 0.56723 0.35869 0.12931 0.0
O54 O 0.56149 0.33702 0.11161 0.0
C55 C 0.61555 0.30215 0.21059 0.0
Zn56 Zn 0.15474 0.82969 0.11075 0.0
Zn57 Zn 0.11495 0.81543 0.14033 0.0
O58 O 0.11049 0.85087 0.12228 0.0
O59 O 0.1446 0.86369 0.09935 0.0
O60 O 0.08374 0.80522 0.16215 0.0
O61 O 0.13999 0.78951 0.09172 0.0
O62 O 0.10862 0.77714 0.11771 0.0
C63 C 0.12405 0.86788 0.10724 0.0
C64 C 0.17411 0.83158 0.16348 0.0
O65 O 0.14903 0.82419 0.16627 0.0
O66 O 0.18174 0.83564 0.14159 0.0
C67 C 0.07773 0.82526 0.174 0.0
O68 O 0.09231 0.85233 0.17226 0.0
C69 C 0.12033 0.77036 0.09939 0.0
Zn70 Zn 0.49562 0.77199 0.47249 0.0
Zn71 Zn 0.52947 0.77711 0.43757 0.0
O72 O 0.5423 0.81812 0.45743 0.0
O73 O 0.51375 0.81403 0.48609 0.0
O74 O 0.55586 0.78071 0.41108 0.0
O75 O 0.50588 0.739 0.48628 0.0
O76 O 0.53386 0.74266 0.45721 0.0
C77 C 0.53352 0.82943 0.47562 0.0
C78 C 0.46867 0.76494 0.42205 0.0
O79 O 0.49249 0.76951 0.41585 0.0
O80 O 0.46461 0.76385 0.44521 0.0
C81 C 0.58036 0.79705 0.41547 0.0
O82 O 0.58883 0.81195 0.43774 0.0
C83 C 0.52294 0.73019 0.47592 0.0
Zn84 Zn 0.66522 0.33679 0.60457 0.0
Zn85 Zn 0.62808 0.32654 0.63718 0.0
O86 O 0.62429 0.36271 0.62018 0.0
O87 O 0.65512 0.37133 0.59347 0.0
O88 O 0.59665 0.31539 0.65837 0.0
O89 O 0.64928 0.29557 0.58702 0.0
O90 O 0.6197 0.28787 0.61482 0.0
C91 C 0.63677 0.37806 0.60357 0.0
C92 C 0.68746 0.34107 0.65748 0.0
O93 O 0.66293 0.33479 0.66212 0.0
O94 O 0.69323 0.34343 0.63482 0.0
C95 C 0.5911 0.33146 0.67527 0.0
O96 O 0.60734 0.35822 0.681 0.0
C97 C 0.62952 0.27843 0.59636 0.0
Zn98 Zn 0.99508 0.26327 0.97601 0.0
Zn99 Zn 0.02899 0.27622 0.9409 0.0
O100 O 0.03877 0.31392 0.96504 0.0
O101 O 1.01069 0.30384 0.99423 0.0
O102 O 0.05832 0.28857 0.91747 0.0
O103 O 1.00717 0.22937 0.98493 0.0
O104 O 0.03476 0.23958 0.95535 0.0
C105 C 0.02957 0.32192 0.98462 0.0
C106 C 0.96856 0.26226 0.92551 0.0
O107 O 0.99242 0.2693 0.91886 0.0
O108 O 0.96478 0.25756 0.94834 0.0
C109 C 0.06303 0.27297 0.89962 0.0
O110 O 0.04707 0.24604 0.89424 0.0
C111 C 1.0246 0.22356 0.97255 0.0
Zn112 Zn 0.54113 0.05639 0.29205 0.0
Zn113 Zn 0.50045 0.07448 0.30722 0.0
O114 O 0.52892 0.08836 0.33777 0.0
O115 O 0.56194 0.07376 0.32629 0.0
O116 O 0.46956 0.08768 0.31465 0.0
O117 O 0.5433 0.07998 0.26168 0.0
O118 O 0.50826 0.09044 0.27332 0.0
C119 C 0.55207 0.08594 0.34278 0.0
C120 C 0.49038 1.01031 0.2954 0.0
O121 O 0.483 0.03125 0.30322 0.0
O122 O 0.51397 0.01506 0.289 0.0
C123 C 0.46472 0.09937 0.33487 0.0
O124 O 0.4819 0.10478 0.35541 0.0
C125 C 0.52528 0.0915 0.25751 0.0
Zn126 Zn 0.29638 0.27068 0.53476 0.0
Zn127 Zn 0.32459 0.23625 0.53232 0.0
O128 O 0.32957 0.25665 0.49772 0.0
O129 O 0.30835 0.28812 0.50119 0.0
O130 O 0.35118 0.21437 0.5307 0.0
O131 O 0.31185 0.28846 0.57133 0.0
O132 O 0.33314 0.25679 0.57025 0.0
C133 C 0.32186 0.27638 0.48821 0.0
C134 C 0.26493 0.20824 0.53206 0.0
O135 O 0.28759 0.2046 0.53042 0.0
O136 O 0.26356 0.23367 0.53352 0.0
C137 C 0.35493 0.19814 0.54739 0.0
O138 O 0.34093 0.19502 0.56701 0.0
C139 C 0.32626 0.2759 0.58293 0.0
Zn140 Zn 0.13489 0.08515 0.85254 0.0
Zn141 Zn 0.15191 0.0471 0.82523 0.0
O142 O 0.14524 0.02841 0.85823 0.0
O143 O 0.13555 0.06147 0.88188 0.0
O144 O 0.17015 0.02258 0.80738 0.0
O145 O 0.1021 0.07351 0.82678 0.0
O146 O 0.11663 0.04352 0.80401 0.0
C147 C 0.13969 0.03751 0.87924 0.0
C148 C 0.18442 0.11296 0.83473 0.0
O149 O 0.18085 0.08704 0.82622 0.0
O150 O 0.16702 0.11882 0.847 0.0
C151 C 0.19329 0.02626 0.81891 0.0
O152 O 0.20116 0.04368 0.83997 0.0
C153 C 0.09891 0.05548 0.80765 0.0
Zn154 Zn 0.38548 0.94 0.98468 0.0
Zn155 Zn 0.35714 0.96738 0.99882 0.0
O156 O 0.33352 0.93789 0.96939 0.0
O157 O 0.35486 0.90633 0.96814 0.0
O158 O 0.3311 0.9863 0.01047 0.0
O159 O 0.40194 0.93716 0.01911 0.0
O160 O 0.3683 0.94998 0.03108 0.0
C161 C 0.33462 0.91341 0.96107 0.0
C162 C 0.40341 0.99683 0.96992 0.0
O163 O 0.38793 1.00017 0.98618 0.0
O164 O 0.404 0.97173 0.96375 0.0
C165 C 0.33713 1.01045 0.02373 0.0
O166 O 0.36256 0.02531 0.031 0.0
C167 C 0.38776 0.94045 0.03633 0.0
Zn168 Zn 0.35066 0.3336 0.04003 0.0
Zn169 Zn 0.31958 0.36555 0.04136 0.0
O170 O 0.31275 0.3442 0.00369 0.0
O171 O 0.33684 0.31518 0.00354 0.0
O172 O 0.29128 0.38589 0.04019 0.0
O173 O 0.33857 0.3162 0.07358 0.0
O174 O 0.31496 0.34551 0.07636 0.0
C175 C 0.32137 0.32616 0.99148 0.0
C176 C 0.37932 0.3962 0.04226 0.0
O177 O 0.35603 0.39836 0.04363 0.0
O178 O 0.38223 0.37148 0.04102 0.0
C179 C 0.29478 0.41048 0.052 0.0
O180 O 0.31767 0.42374 0.06616 0.0
C181 C 0.32392 0.32675 0.08619 0.0
Zn182 Zn 0.76297 0.17162 0.09381 0.0
Zn183 Zn 0.78845 0.13792 0.08291 0.0
O184 O 0.78619 0.15818 0.04981 0.0
O185 O 0.75687 0.17973 0.05807 0.0
O186 O 0.80859 0.11062 0.07529 0.0
O187 O 0.7948 0.19875 0.11527 0.0
O188 O 0.81298 0.16439 0.11314 0.0
C189 C 0.77158 0.17319 0.0428 0.0
C190 C 0.734 0.11575 0.1044 0.0
O191 O 0.7524 0.11082 0.09262 0.0
O192 O 0.73478 0.14156 0.10942 0.0
C193 C 0.80796 0.09779 0.0536 0.0
O194 O 0.79329 0.10228 0.0341 0.0
C195 C 0.81348 0.18916 0.1223 0.0
Zn196 Zn 0.15456 0.54487 0.26445 0.0
Zn197 Zn 0.19474 0.52684 0.25041 0.0
O198 O 0.19121 0.51666 0.28739 0.0
O199 O 0.15355 0.52385 0.2957 0.0
O200 O 0.22392 0.51184 0.23998 0.0
O201 O 0.13141 0.52446 0.23256 0.0
O202 O 0.1635 0.50751 0.22273 0.0
C203 C 0.17313 0.51536 0.30219 0.0
C204 C 0.20288 0.591 0.25603 0.0
O205 O 0.21032 0.57003 0.24845 0.0
O206 O 0.18051 0.58632 0.26504 0.0
C207 C 0.24859 0.52746 0.24108 0.0
O208 O 0.25599 0.55495 0.24949 0.0
C209 C 0.14007 0.5092 0.21769 0.0
Zn210 Zn 0.86282 0.82853 0.54224 0.0
Zn211 Zn 0.82906 0.85687 0.54019 0.0
O212 O 0.82397 0.83464 0.50269 0.0
O213 O 0.84921 0.80708 0.50701 0.0
O214 O 0.80046 0.87694 0.53851 0.0
O215 O 0.85139 0.81238 0.57613 0.0
O216 O 0.82341 0.83705 0.57547 0.0
C217 C 0.83377 0.81619 0.49281 0.0
C218 C 0.88899 0.89065 0.54289 0.0
O219 O 0.86497 0.89085 0.54365 0.0
O220 O 0.89364 0.86685 0.54205 0.0
C221 C 0.80465 0.90128 0.5294 0.0
O222 O 0.82756 0.91325 0.52006 0.0
C223 C 0.83421 0.82064 0.58696 0.0
Zn224 Zn 1.00975 0.02864 0.23799 0.0
Zn225 Zn 0.98243 0.06175 0.25658 0.0
O226 O 1.01851 0.07611 0.27936 0.0
O227 O 0.04125 0.04996 0.26325 0.0
O228 O 0.95911 0.0829 0.27016 0.0
O229 O 1.00602 0.04478 0.20499 0.0
O230 O 0.98453 0.07294 0.22015 0.0
C231 C 0.03996 0.06947 0.27934 0.0
C232 C 0.96129 0.99513 0.25602 0.0
O233 O 0.9593 0.02011 0.26038 0.0
O234 O 0.98162 0.99248 0.24642 0.0
C235 C 0.96242 0.09735 0.29157 0.0
O236 O 0.98408 0.101 0.30727 0.0
C237 C 0.99476 0.06368 0.20205 0.0
Zn238 Zn 0.28835 0.70415 0.59866 0.0
Zn239 Zn 0.31323 0.67227 0.58265 0.0
O240 O 0.30735 0.69524 0.55241 0.0
O241 O 0.27709 0.7137 0.56458 0.0
O242 O 0.33351 0.64786 0.56805 0.0
O243 O 0.32185 0.73108 0.6183 0.0
O244 O 0.33864 0.69584 0.61376 0.0
C245 C 0.29101 0.70902 0.54763 0.0
C246 C 0.26149 0.64655 0.60702 0.0
O247 O 0.27841 0.64297 0.59244 0.0
O248 O 0.26305 0.67192 0.61511 0.0
C249 C 0.34006 0.62918 0.58017 0.0
O250 O 0.33312 0.62517 0.60322 0.0
C251 C 0.34012 0.72045 0.6242 0.0
Zn252 Zn 0.50758 0.54207 0.73543 0.0
Zn253 Zn 0.483 0.57591 0.75307 0.0
O254 O 0.5188 0.59043 0.77627 0.0
O255 O 0.54134 0.56601 0.75728 0.0
O256 O 0.46033 0.5986 0.76448 0.0
O257 O 0.50005 0.55171 0.70037 0.0
O258 O 0.48614 0.58616 0.71634 0.0
C259 C 0.54055 0.58476 0.77441 0.0
C260 C 0.4615 0.51007 0.75664 0.0
O261 O 0.45868 0.53489 0.75848 0.0
O262 O 0.48223 0.50713 0.74814 0.0
C263 C 0.45222 0.5986 0.78632 0.0
O264 O 0.4614 0.58565 0.80408 0.0
C265 C 0.4918 0.57289 0.69747 0.0
Zn266 Zn 0.62878 0.05301 0.76948 0.0
Zn267 Zn 0.67605 0.04166 0.76714 0.0
O268 O 0.66156 0.02206 0.79775 0.0
O269 O 0.62353 0.03066 0.80109 0.0
O270 O 0.71053 0.03375 0.76604 0.0
O271 O 0.61703 0.0329 0.73372 0.0
O272 O 0.6564 0.02686 0.73202 0.0
C273 C 0.64105 0.0199 0.80944 0.0
C274 C 0.67692 0.10376 0.77526 0.0
O275 O 0.68845 0.08481 0.7736 0.0
O276 O 0.65142 0.09639 0.7733 0.0
C277 C 0.72857 0.04348 0.78477 0.0
O278 O 0.72407 0.05876 0.80405 0.0
C279 C 0.63326 0.02471 0.72139 0.0
Zn280 Zn 0.79784 0.77429 0.03072 0.0
Zn281 Zn 0.81751 0.73247 0.03533 0.0
O282 O 0.82571 0.74831 0.99915 0.0
O283 O 0.81376 0.78698 0.99698 0.0
O284 O 0.83945 0.70521 0.03861 0.0
O285 O 0.81259 0.79335 0.0672 0.0
O286 O 0.8255 0.75561 0.07204 0.0
C287 C 0.82339 0.76907 0.98661 0.0
C288 C 0.75772 0.71521 0.0305 0.0
O289 O 0.77819 0.70684 0.03283 0.0
O290 O 0.76093 0.74183 0.02868 0.0
C291 C 0.8335 0.68201 0.0239 0.0
O292 O 0.81268 0.67564 0.00656 0.0
C293 C 0.82189 0.77844 0.08178 0.0
Zn294 Zn 0.03649 0.55424 0.80746 0.0
Zn295 Zn 0.99523 0.57429 0.81585 0.0
O296 O 1.01948 0.58869 0.84911 0.0
O297 O 0.05334 0.57308 0.84256 0.0
O298 O 0.96525 0.59049 0.8162 0.0
O299 O 0.04428 0.57627 0.77633 0.0
O300 O 1.00862 0.58832 0.78283 0.0
C301 C 0.04196 0.58603 0.8569 0.0
C302 C 0.98368 0.50965 0.80762 0.0
O303 O 0.97614 0.53123 0.81294 0.0
O304 O 1.00799 0.51351 0.80384 0.0
C305 C 0.9432 0.58013 0.82568 0.0
O306 O 0.93974 0.55837 0.83977 0.0
C307 C 0.02742 0.58842 0.76937 0.0
Zn308 Zn 0.86877 0.42023 0.48107 0.0
Zn309 Zn 0.83844 0.4475 0.49726 0.0
O310 O 0.81555 0.42306 0.46533 0.0
O311 O 0.83802 0.39321 0.45801 0.0
O312 O 0.81547 0.47034 0.50843 0.0
O313 O 0.87625 0.40904 0.5157 0.0
O314 O 0.84399 0.42463 0.5275 0.0
C315 C 0.81752 0.40073 0.45328 0.0
C316 C 0.89196 0.47991 0.47776 0.0
O317 O 0.87259 0.47976 0.49058 0.0
O318 O 0.89387 0.4562 0.46886 0.0
C319 C 0.81509 0.47998 0.5311 0.0
O320 O 0.82998 0.47408 0.54965 0.0
C321 C 0.8611 0.41178 0.53224 0.0
Zn322 Zn 0.62109 0.55999 0.32582 0.0
Zn323 Zn 0.65157 0.52675 0.31696 0.0
O324 O 0.63872 0.51447 0.35117 0.0
O325 O 0.61456 0.54278 0.35871 0.0
O326 O 0.6771 0.50539 0.31037 0.0
O327 O 0.5961 0.53877 0.29547 0.0
O328 O 0.62184 0.51268 0.28688 0.0
C329 C 0.62379 0.52311 0.36502 0.0
C330 C 0.67464 0.59352 0.31903 0.0
O331 O 0.67691 0.56846 0.31708 0.0
O332 O 0.65217 0.59634 0.32258 0.0
C333 C 0.69618 0.5079 0.32754 0.0
O334 O 0.69735 0.5227 0.34935 0.0
C335 C 0.60071 0.51933 0.28165 0.0
Tb336 Tb 0.08615 0.0515 0.0393 0.0
Tb337 Tb 1.022 1.00993 0.02685 0.0
C338 C 0.04283 0.05784 0.07404 0.0
C339 C 0.15988 0.07099 0.04202 0.0
C340 C 0.20385 0.05082 0.03784 0.0
C341 C 0.20178 0.06605 0.06047 0.0
C342 C 0.1799 0.07599 0.06255 0.0
C343 C 0.16249 0.05656 0.01916 0.0
C344 C 0.18419 0.04659 0.01714 0.0
C345 C 0.13586 0.07971 0.0448 0.0
O346 O 0.08137 0.01486 0.06219 0.0
O347 O 0.04216 0.98129 0.04201 0.0
O348 O 0.04242 1.00828 0.99333 0.0
O349 O 0.08417 0.0153 0.01308 0.0
O350 O 0.98545 0.98326 0.03813 0.0
O351 O 0.98952 0.99094 0.99886 0.0
O352 O 1.02237 0.05336 0.02117 0.0
O353 O 0.06651 0.07424 0.01388 0.0
O354 O 0.06608 0.07037 0.06559 0.0
O355 O 0.02574 0.03268 0.06407 0.0
C356 C 0.06429 0.98817 0.05784 0.0
O357 O 0.12004 0.07762 0.02401 0.0
O358 O 0.12219 0.07003 0.06367 0.0
C359 C 0.06618 1.00532 0.99344 0.0
C360 C 0.94855 0.98996 0.01425 0.0
C361 C 0.90435 1.01011 0.01548 0.0
C362 C 0.90589 0.98741 0.0298 0.0
C363 C 0.92776 0.97733 0.02908 0.0
C364 C 0.94669 1.01225 0.99952 0.0
C365 C 0.92474 0.0221 1.00004 0.0
C366 C 0.97281 0.98118 0.01555 0.0
C367 C 0.04161 0.07462 0.01341 0.0
H368 H 0.21665 0.06957 0.07674 0.0
H369 H 0.17836 0.08712 0.08034 0.0
H370 H 0.14763 0.05262 0.00285 0.0
H371 H 0.18559 0.03546 0.99931 0.0
H372 H 0.89036 0.97775 0.0418 0.0
H373 H 0.9288 0.96017 0.04061 0.0
H374 H 0.9625 0.0227 0.98807 0.0
H375 H 0.92427 0.03992 0.98913 0.0
Tb376 Tb 0.32131 0.81596 0.30907 0.0
Tb377 Tb 0.34735 0.80111 0.25803 0.0
C378 C 0.29943 0.82539 0.25519 0.0
C379 C 0.30351 0.81038 0.37307 0.0
C380 C 0.30569 0.78211 0.41727 0.0
C381 C 0.29717 0.80653 0.41753 0.0
C382 C 0.29613 0.82061 0.39555 0.0
C383 C 0.31196 0.78605 0.37272 0.0
C384 C 0.31306 0.77203 0.39461 0.0
C385 C 0.30354 0.82535 0.35007 0.0
O386 O 0.30846 0.76932 0.30337 0.0
O387 O 0.31204 0.76362 0.26068 0.0
O388 O 0.36379 0.77977 0.28658 0.0
O389 O 0.3573 0.80575 0.32179 0.0
O390 O 0.34086 0.78495 0.21964 0.0
O391 O 0.3811 0.80488 0.23834 0.0
O392 O 0.37462 0.84109 0.27786 0.0
O393 O 0.34404 0.85721 0.29644 0.0
O394 O 0.29269 0.8158 0.27704 0.0
O395 O 0.32349 0.82852 0.24844 0.0
C396 C 0.30193 0.75372 0.28141 0.0
O397 O 0.32743 0.84008 0.34442 0.0
O398 O 0.28837 0.80951 0.33032 0.0
C399 C 0.36855 0.78832 0.311 0.0
C400 C 0.3717 0.81755 0.19766 0.0
C401 C 0.37603 0.85652 0.16027 0.0
C402 C 0.37975 0.82971 0.15479 0.0
C403 C 0.3774 0.81022 0.17336 0.0
C404 C 0.369 0.84474 0.20339 0.0
C405 C 0.37096 0.86398 0.18482 0.0
C406 C 0.36626 0.79643 0.21661 0.0
C407 C 0.36776 0.86215 0.28833 0.0
H408 H 0.29167 0.81498 0.43482 0.0
H409 H 0.2898 0.83952 0.39613 0.0
H410 H 0.3178 0.77793 0.35548 0.0
H411 H 0.3194 0.75312 0.39371 0.0
H412 H 0.3835 0.82342 0.1359 0.0
H413 H 0.37937 0.78926 0.16861 0.0
H414 H 0.36473 0.85084 0.22212 0.0
H415 H 0.36827 0.8846 0.18957 0.0
Tb416 Tb 0.55295 0.05338 0.53837 0.0
Tb417 Tb 0.61541 0.05614 0.52828 0.0
C418 C 0.58952 0.0348 0.57805 0.0
C419 C 0.49011 0.07236 0.5479 0.0
C420 C 0.45543 0.10564 0.55239 0.0
C421 C 0.47214 0.10323 0.57359 0.0
C422 C 0.48918 0.08674 0.57139 0.0
C423 C 0.47382 0.07523 0.52658 0.0
C424 C 0.45677 0.09178 0.52877 0.0
C425 C 0.50606 0.05245 0.54623 0.0
O426 O 0.58007 0.09476 0.55695 0.0
O427 O 0.61705 0.10106 0.53485 0.0
O428 O 0.59454 0.06092 0.49255 0.0
O429 O 0.56311 0.07937 0.50698 0.0
O430 O 0.65681 0.06773 0.54064 0.0
O431 O 0.6409 0.0476 0.50278 0.0
O432 O 0.59207 1.01042 0.52529 0.0
O433 O 0.54945 1.01293 0.51618 0.0
O434 O 0.56529 0.02881 0.5663 0.0
O435 O 0.61128 0.04969 0.56816 0.0
C436 C 0.60263 0.11149 0.54938 0.0
O437 O 0.51274 0.04627 0.52397 0.0
O438 O 0.52566 0.05616 0.56417 0.0
C439 C 0.57738 0.07501 0.4891 0.0
C440 C 0.67945 0.03854 0.52084 0.0
C441 C 0.7147 1.00558 0.52239 0.0
C442 C 0.71354 0.02275 0.50232 0.0
C443 C 0.69621 0.03903 0.50162 0.0
C444 C 0.67989 0.02091 0.54067 0.0
C445 C 0.69738 1.00454 0.54143 0.0
C446 C 0.66206 0.05684 0.51944 0.0
C447 C 0.56647 0.99828 0.5169 0.0
H448 H 0.4719 0.11392 0.592 0.0
H449 H 0.50124 0.0848 0.58828 0.0
H450 H 0.47372 0.06411 0.50827 0.0
H451 H 0.44395 0.09287 0.51212 0.0
H452 H 0.7261 0.02364 0.48705 0.0
H453 H 0.69602 0.05225 0.48602 0.0
H454 H 0.66697 0.02002 0.55565 0.0
H455 H 0.69779 0.99166 0.5572 0.0
Tb456 Tb 0.35049 0.28852 0.78867 0.0
Tb457 Tb 0.30371 0.32001 0.78618 0.0
C458 C 0.29016 0.25378 0.79169 0.0
C459 C 0.41408 0.27556 0.7768 0.0
C460 C 0.4623 0.29364 0.75339 0.0
C461 C 0.46306 0.29489 0.77996 0.0
C462 C 0.43923 0.2858 0.79151 0.0
C463 C 0.41325 0.27376 0.75017 0.0
C464 C 0.43717 0.28253 0.73858 0.0
C465 C 0.38929 0.26903 0.78978 0.0
O466 O 0.33459 0.28363 0.74826 0.0
O467 O 0.31676 0.32067 0.74787 0.0
O468 O 0.34182 0.3555 0.79221 0.0
O469 O 0.36913 0.33134 0.7775 0.0
O470 O 0.26714 0.32097 0.76787 0.0
O471 O 0.28716 0.35051 0.80072 0.0
O472 O 0.30688 0.30934 0.82561 0.0
O473 O 0.34881 0.30444 0.82807 0.0
O474 O 0.31509 0.25649 0.79968 0.0
O475 O 0.28404 0.27366 0.77963 0.0
C476 C 0.32536 0.30155 0.73576 0.0
O477 O 0.38833 0.29008 0.80547 0.0
O478 O 0.36613 0.2562 0.7762 0.0
C479 C 0.36473 0.35534 0.78439 0.0
C480 C 0.23927 0.3308 0.79736 0.0
C481 C 0.19012 0.31149 0.81929 0.0
C482 C 0.19028 0.30986 0.79276 0.0
C483 C 0.21458 0.31955 0.78193 0.0
C484 C 0.23911 0.33258 0.82391 0.0
C485 C 0.2148 0.32314 0.83472 0.0
C486 C 0.26488 0.33945 0.78553 0.0
C487 C 0.32825 0.30757 0.83913 0.0
H488 H 0.48212 0.30304 0.79185 0.0
H489 H 0.44043 0.28741 0.81206 0.0
H490 H 0.39417 0.2662 0.73828 0.0
H491 H 0.43598 0.28149 0.71805 0.0
H492 H 0.17158 0.30123 0.78036 0.0
H493 H 0.21409 0.31795 0.76143 0.0
H494 H 0.25775 0.34094 0.83641 0.0
H495 H 0.21537 0.32439 0.85522 0.0
Tb496 Tb 0.06353 0.07212 0.56743 0.0
Tb497 Tb 0.08469 0.04458 0.52094 0.0
C498 C 1.02438 0.01993 0.53152 0.0
C499 C 0.04304 0.07652 0.63004 0.0
C500 C 0.03232 0.0471 0.67387 0.0
C501 C 1.01568 0.0625 0.66478 0.0
C502 C 1.02089 0.07695 0.64278 0.0
C503 C 0.05931 0.06087 0.63908 0.0
C504 C 0.05396 0.04623 0.66055 0.0
C505 C 0.04895 0.09102 0.60674 0.0
O506 O 0.07787 0.03788 0.5835 0.0
O507 O 0.08094 1.01052 0.54794 0.0
O508 O 0.11928 0.06831 0.54797 0.0
O509 O 0.10186 0.10249 0.56042 0.0
O510 O 0.08083 0.01405 0.48996 0.0
O511 O 0.11762 0.04989 0.49983 0.0
O512 O 0.08012 0.08545 0.50704 0.0
O513 O 0.05318 0.09516 0.53556 0.0
O514 O 0.03138 0.03235 0.55467 0.0
O515 O 0.04079 0.02658 0.51383 0.0
C516 C 0.07976 0.0134 0.5728 0.0
O517 O 0.07404 0.09805 0.60199 0.0
O518 O 0.0323 0.07881 0.58655 0.0
C519 C 0.12283 0.09514 0.55601 0.0
C520 C 0.10043 0.04159 0.45744 0.0
C521 C 0.09751 0.07358 0.41573 0.0
C522 C 0.12166 0.06873 0.42367 0.0
C523 C 0.12312 0.0529 0.44447 0.0
C524 C 0.07629 0.0462 0.44931 0.0
C525 C 0.07482 0.06186 0.42866 0.0
C526 C 0.10309 0.03028 0.4821 0.0
C527 C 0.0652 0.10099 0.51459 0.0
H528 H 0.99908 0.06383 0.67493 0.0
H529 H 1.00794 0.08872 0.63594 0.0
H530 H 0.07671 0.06045 0.62985 0.0
H531 H 0.06776 0.03547 0.66747 0.0
H532 H 0.13944 0.07743 0.414 0.0
H533 H 0.14213 0.05028 0.45093 0.0
H534 H 0.05863 0.03841 0.45935 0.0
H535 H 0.05568 0.06443 0.42265 0.0
Tb536 Tb 0.33414 0.8419 0.78907 0.0
Tb537 Tb 0.30848 0.77375 0.79353 0.0
C538 C 0.34494 0.79782 0.7501 0.0
C539 C 0.33474 0.91578 0.7894 0.0
C540 C 0.30413 0.95279 0.79468 0.0
C541 C 0.33221 0.96427 0.79396 0.0
C542 C 0.34743 0.94583 0.79132 0.0
C543 C 0.30675 0.90429 0.78975 0.0
C544 C 0.29158 0.9226 0.79235 0.0
C545 C 0.35034 0.89602 0.78803 0.0
O546 O 0.29498 0.82877 0.76449 0.0
O547 O 0.27285 0.78774 0.78236 0.0
O548 O 0.31007 0.79516 0.83075 0.0
O549 O 0.30555 0.83624 0.817 0.0
O550 O 0.28213 0.73319 0.77756 0.0
O551 O 0.30294 0.73822 0.81515 0.0
O552 O 0.35271 0.78152 0.80231 0.0
O553 O 0.36587 0.83058 0.81268 0.0
O554 O 0.35359 0.82412 0.76137 0.0
O555 O 0.3249 0.77702 0.75734 0.0
C556 C 0.272 0.80872 0.76799 0.0
O557 O 0.35216 0.88319 0.80858 0.0
O558 O 0.34397 0.87779 0.76771 0.0
C559 C 0.30397 0.81867 0.83474 0.0
C560 C 0.30006 0.69704 0.78909 0.0
C561 C 0.33016 0.66004 0.7808 0.0
C562 C 0.3148 0.65736 0.8015 0.0
C563 C 0.29985 0.67577 0.80562 0.0
C564 C 0.31428 0.69873 0.7677 0.0
C565 C 0.32913 0.68038 0.76357 0.0
C566 C 0.28904 0.71997 0.79615 0.0
C567 C 0.37145 0.80597 0.81234 0.0
H568 H 0.34238 0.98747 0.79559 0.0
H569 H 0.36905 0.95498 0.79112 0.0
H570 H 0.29666 0.8811 0.78851 0.0
H571 H 0.27012 0.91305 0.79335 0.0
H572 H 0.31504 0.64167 0.81494 0.0
H573 H 0.28916 0.67432 0.82232 0.0
H574 H 0.31503 0.71518 0.75482 0.0
H575 H 0.34104 0.6833 0.74765 0.0
Tb576 Tb 0.53739 0.04027 0.03944 0.0
Tb577 Tb 0.59473 0.0718 0.02098 0.0
C578 C 0.5894 0.04313 0.07061 0.0
C579 C 0.47856 0.03424 0.07129 0.0
C580 C 0.4705 0.06209 0.11617 0.0
C581 C 0.46134 0.03167 0.11232 0.0
C582 C 0.4655 0.0178 0.09001 0.0
C583 C 0.48475 0.06451 0.07398 0.0
C584 C 0.48096 0.07835 0.09635 0.0
C585 C 0.4905 0.0209 0.05201 0.0
O586 O 0.54567 0.08687 0.05227 0.0
O587 O 0.59148 0.10389 0.05119 0.0
O588 O 0.56528 0.08904 0.00304 0.0
O589 O 0.53605 0.04447 0.99909 0.0
O590 O 0.63695 0.08823 0.02898 0.0
O591 O 0.61728 0.09031 0.99205 0.0
O592 O 0.5813 0.02778 0.99931 0.0
O593 O 0.5493 1.00347 0.02429 0.0
O594 O 0.56696 0.04859 0.07254 0.0
O595 O 0.59772 0.04171 0.04826 0.0
C596 C 0.56921 0.10763 0.05846 0.0
O597 O 0.4964 0.03517 0.03214 0.0
O598 O 0.51018 1.01227 0.06089 0.0
C599 C 0.54297 0.07048 0.99184 0.0
C600 C 0.65577 0.07743 0.99241 0.0
C601 C 0.67076 0.04556 0.95425 0.0
C602 C 0.65513 0.03122 0.97261 0.0
C603 C 0.64784 0.0471 0.99174 0.0
C604 C 0.67388 0.09186 0.9759 0.0
C605 C 0.68156 0.07598 0.95701 0.0
C606 C 0.64002 0.09267 0.00523 0.0
C607 C 0.56546 1.00295 0.00641 0.0
H608 H 0.45342 0.01873 0.12751 0.0
H609 H 0.46057 0.99447 0.08831 0.0
H610 H 0.49455 0.07778 0.0597 0.0
H611 H 0.48814 0.10181 0.09897 0.0
H612 H 0.64665 1.0078 0.97082 0.0
H613 H 0.63392 0.03558 0.00444 0.0
H614 H 0.68003 0.11521 0.97604 0.0
H615 H 0.69346 0.08751 0.94291 0.0
Tb616 Tb 0.31519 0.26686 0.28066 0.0
Tb617 Tb 0.33452 0.33524 0.29458 0.0
C618 C 0.31332 0.30951 0.23701 0.0
C619 C 0.31505 0.19307 0.28118 0.0
C620 C 0.34479 0.15737 0.29623 0.0
C621 C 0.31883 0.14523 0.28297 0.0
C622 C 0.30404 0.16302 0.2755 0.0
C623 C 0.34069 0.20515 0.29472 0.0
C624 C 0.35542 0.18753 0.30214 0.0
C625 C 0.30037 0.21232 0.27309 0.0
O626 O 0.35863 0.27804 0.27444 0.0
O627 O 0.36911 0.3272 0.27622 0.0
O628 O 0.33529 0.31836 0.33183 0.0
O629 O 0.33405 0.27243 0.32001 0.0
O630 O 0.36765 0.37239 0.30819 0.0
O631 O 0.32785 0.37477 0.29876 0.0
O632 O 0.29283 0.32262 0.30686 0.0
O633 O 0.27744 0.2751 0.29062 0.0
O634 O 0.31098 0.28322 0.24323 0.0
O635 O 0.31899 0.33153 0.25448 0.0
C636 C 0.37573 0.30363 0.27069 0.0
O637 O 0.29335 0.22607 0.2915 0.0
O638 O 0.31136 0.22973 0.25655 0.0
C639 C 0.33601 0.29307 0.33786 0.0
C640 C 0.36364 0.4147 0.29139 0.0
C641 C 0.36217 0.46129 0.26401 0.0
C642 C 0.36858 0.4654 0.29055 0.0
C643 C 0.36915 0.44214 0.30416 0.0
C644 C 0.36144 0.41155 0.26476 0.0
C645 C 0.36086 0.43484 0.2511 0.0
C646 C 0.35322 0.38933 0.30539 0.0
C647 C 0.27301 0.29741 0.3029 0.0
H648 H 0.31006 0.12205 0.27826 0.0
H649 H 0.28419 0.15338 0.26515 0.0
H650 H 0.34953 0.22835 0.29925 0.0
H651 H 0.37553 0.19769 0.31181 0.0
H652 H 0.3697 0.48544 0.30113 0.0
H653 H 0.3709 0.44488 0.32472 0.0
H654 H 0.35725 0.39044 0.25461 0.0
H655 H 0.35635 0.4312 0.23064 0.0
Tb656 Tb 0.56242 0.56751 0.05681 0.0
Tb657 Tb 0.57748 0.54115 0.00559 0.0
C658 C 0.51827 0.51614 0.02215 0.0
C659 C 0.5388 0.5687 0.11831 0.0
C660 C 0.52517 0.53573 0.15944 0.0
C661 C 0.53109 0.56597 0.16244 0.0
C662 C 0.53806 0.5824 0.14197 0.0
C663 C 0.5305 0.53833 0.11472 0.0
C664 C 0.52385 0.52192 0.13521 0.0
C665 C 0.55129 0.58567 0.09824 0.0
O666 O 0.572 0.52818 0.06859 0.0
O667 O 0.57227 0.50487 0.02973 0.0
O668 O 0.61396 0.56049 0.03136 0.0
O669 O 0.6015 0.59631 0.04916 0.0
O670 O 0.56838 0.52376 0.96755 0.0
O671 O 0.60823 0.53312 0.98674 0.0
O672 O 0.57591 0.58452 0.9959 0.0
O673 O 0.55403 0.59577 0.02837 0.0
O674 O 0.52555 0.53292 0.04344 0.0
O675 O 0.53451 0.51735 0.00443 0.0
C676 C 0.57218 0.50468 0.05472 0.0
O677 O 0.57513 0.58451 0.09466 0.0
O678 O 0.53584 0.58182 0.07694 0.0
C679 C 0.62039 0.58697 0.04166 0.0
C680 C 0.60418 0.54532 0.94482 0.0
C681 C 0.60952 0.5803 0.9044 0.0
C682 C 0.61523 0.59303 0.92951 0.0
C683 C 0.61277 0.57563 0.94963 0.0
C684 C 0.60087 0.53279 0.91988 0.0
C685 C 0.60371 0.55019 0.89976 0.0
C686 C 0.59348 0.52709 0.96492 0.0
C687 C 0.56399 0.60161 0.00643 0.0
H688 H 0.53265 0.57717 0.18104 0.0
H689 H 0.54444 0.60581 0.14497 0.0
H690 H 0.5308 0.52742 0.09643 0.0
H691 H 0.51945 0.4987 0.13249 0.0
H692 H 0.61981 0.61615 0.93353 0.0
H693 H 0.61563 0.58572 0.96885 0.0
H694 H 0.59405 0.50945 0.91585 0.0
H695 H 0.59887 0.53974 0.88056 0.0
Tb696 Tb 0.83134 0.33044 0.28281 0.0
Tb697 Tb 0.80503 0.26341 0.29251 0.0
C698 C 0.83554 0.28228 0.24579 0.0
C699 C 0.83503 0.40401 0.27354 0.0
C700 C 0.80213 0.43882 0.27776 0.0
C701 C 0.82789 0.44737 0.29141 0.0
C702 C 0.84423 0.43008 0.28929 0.0
C703 C 0.80985 0.39624 0.25894 0.0
C704 C 0.79362 0.4135 0.26098 0.0
C705 C 0.84964 0.3831 0.27522 0.0
O706 O 0.78719 0.32258 0.27197 0.0
O707 O 0.77158 0.27283 0.27008 0.0
O708 O 0.78757 0.28402 0.31991 0.0
O709 O 0.81587 0.33083 0.31929 0.0
O710 O 0.78768 0.22069 0.27566 0.0
O711 O 0.79531 0.22988 0.31644 0.0
O712 O 0.84435 0.27856 0.31657 0.0
O713 O 0.86728 0.31737 0.29633 0.0
O714 O 0.82843 0.3053 0.24737 0.0
O715 O 0.83346 0.26626 0.26472 0.0
C716 C 0.76714 0.29757 0.26627 0.0
O717 O 0.85163 0.37368 0.29745 0.0
O718 O 0.84283 0.36203 0.25717 0.0
C719 C 0.79667 0.31124 0.32886 0.0
C720 C 0.80665 0.19148 0.29837 0.0
C721 C 0.84029 0.15726 0.29923 0.0
C722 C 0.81219 0.1443 0.29875 0.0
C723 C 0.79544 0.16138 0.29841 0.0
C724 C 0.83463 0.20433 0.29881 0.0
C725 C 0.85128 0.18745 0.29933 0.0
C726 C 0.7898 0.21003 0.29737 0.0
C727 C 0.86767 0.29718 0.3119 0.0
H728 H 0.83503 0.46694 0.30431 0.0
H729 H 0.86349 0.43636 0.30083 0.0
H730 H 0.802 0.37608 0.24684 0.0
H731 H 0.77374 0.4061 0.25049 0.0
H732 H 0.80323 0.12103 0.29862 0.0
H733 H 0.77385 0.15114 0.29799 0.0
H734 H 0.84364 0.2275 0.29845 0.0
H735 H 0.87274 0.19803 0.2991 0.0
Tb736 Tb 0.06063 0.53848 0.54963 0.0
Tb737 Tb 0.10099 0.57591 0.51279 0.0
C738 C 0.12142 0.5502 0.55932 0.0
C739 C 1.00736 0.52012 0.58998 0.0
C740 C 0.98925 0.549 0.62789 0.0
C741 C 0.98763 0.51999 0.62948 0.0
C742 C 0.9969 0.50566 0.61067 0.0
C743 C 1.00588 0.54786 0.58692 0.0
C744 C 0.99716 0.56239 0.60596 0.0
C745 C 1.02481 0.5095 0.57493 0.0
O746 O 0.06582 0.58241 0.5669 0.0
O747 O 0.09292 0.60914 0.53919 0.0
O748 O 0.06197 0.56491 0.49117 0.0
O749 O 0.0391 0.5601 0.52598 0.0
O750 O 0.14068 0.60387 0.51257 0.0
O751 O 0.11222 0.59404 0.47891 0.0
O752 O 0.09368 0.53181 0.4948 0.0
O753 O 0.06891 0.50494 0.52391 0.0
O754 O 0.10031 0.55017 0.57052 0.0
O755 O 0.12164 0.55235 0.53498 0.0
C756 C 0.07907 0.60778 0.55924 0.0
O757 O 1.02103 0.51045 0.55045 0.0
O758 O 0.05029 0.52005 0.58353 0.0
C759 C 0.04005 0.56278 0.50171 0.0
C760 C 0.156 0.59523 0.47363 0.0
C761 C 0.18347 0.57178 0.43988 0.0
C762 C 0.18333 0.60033 0.43862 0.0
C763 C 0.16954 0.61192 0.45534 0.0
C764 C 0.15777 0.56755 0.47614 0.0
C765 C 0.17135 0.55587 0.45934 0.0
C766 C 0.1375 0.60496 0.48807 0.0
C767 C 0.08138 0.50641 0.50301 0.0
H768 H 0.98195 0.50952 0.64653 0.0
H769 H 0.99806 0.48436 0.61337 0.0
H770 H 1.01371 0.5593 0.57093 0.0
H771 H 0.99876 0.58483 0.60459 0.0
H772 H 0.19217 0.61293 0.42356 0.0
H773 H 0.16826 0.63327 0.45312 0.0
H774 H 0.1475 0.55436 0.49025 0.0
H775 H 0.17119 0.53387 0.46073 0.0
Tb776 Tb 0.8439 0.77519 0.29079 0.0
Tb777 Tb 0.79956 0.80918 0.28253 0.0
C778 C 0.78249 0.74271 0.29173 0.0
C779 C 0.90339 0.75635 0.27771 0.0
C780 C 0.94819 0.76596 0.24958 0.0
C781 C 0.94461 0.74724 0.26906 0.0
C782 C 0.92245 0.7426 0.2831 0.0
C783 C 0.90654 0.77445 0.2579 0.0
C784 C 0.92875 0.77929 0.24404 0.0
C785 C 0.88097 0.7531 0.29337 0.0
O786 O 0.82799 0.76699 0.25037 0.0
O787 O 0.81361 0.80587 0.24481 0.0
O788 O 0.83872 0.84273 0.28952 0.0
O789 O 0.86431 0.81598 0.27652 0.0
O790 O 0.76302 0.81065 0.26459 0.0
O791 O 0.78728 0.84467 0.29269 0.0
O792 O 0.80094 0.80185 0.32282 0.0
O793 O 0.84102 0.79278 0.32941 0.0
O794 O 0.80698 0.74501 0.30107 0.0
O795 O 0.77727 0.76308 0.27949 0.0
C796 C 0.82133 0.78465 0.23536 0.0
O797 O 0.88204 0.77666 0.30688 0.0
O798 O 0.85683 0.73977 0.28189 0.0
C799 C 0.86113 0.84094 0.28186 0.0
C800 C 0.74047 0.83071 0.29369 0.0
C801 C 0.6997 0.82734 0.32591 0.0
C802 C 0.71538 0.85419 0.31856 0.0
C803 C 0.73551 0.85583 0.30255 0.0
C804 C 0.72448 0.80378 0.30058 0.0
C805 C 0.70417 0.80209 0.31638 0.0
C806 C 0.76389 0.83324 0.27941 0.0
C807 C 0.82075 0.79927 0.33823 0.0
H808 H 0.95932 0.7368 0.27389 0.0
H809 H 0.9204 0.72864 0.29838 0.0
H810 H 0.89198 0.78515 0.25333 0.0
H811 H 0.93068 0.79348 0.22894 0.0
H812 H 0.71227 0.874 0.32543 0.0
H813 H 0.74771 0.87685 0.29765 0.0
H814 H 0.72816 0.78412 0.29435 0.0
H815 H 0.69267 0.78113 0.32194 0.0
Tb816 Tb 0.81465 0.31631 0.82435 0.0
Tb817 Tb 0.83644 0.30124 0.77102 0.0
C818 C 0.78948 0.32568 0.77129 0.0
C819 C 0.79172 0.30778 0.88775 0.0
C820 C 0.78066 0.27219 0.92801 0.0
C821 C 0.76039 0.28097 0.91563 0.0
C822 C 0.76592 0.29871 0.89583 0.0
C823 C 0.81204 0.29897 0.89991 0.0
C824 C 0.8066 0.28148 0.91995 0.0
C825 C 0.79627 0.32433 0.86537 0.0
O826 O 0.80425 0.26982 0.81941 0.0
O827 O 0.79984 0.26628 0.77614 0.0
O828 O 0.85611 0.28149 0.79847 0.0
O829 O 0.85162 0.30702 0.83496 0.0
O830 O 0.82636 0.27915 0.73454 0.0
O831 O 0.86713 0.30606 0.74714 0.0
O832 O 0.86493 0.34191 0.78862 0.0
O833 O 0.837 0.35784 0.81191 0.0
O834 O 0.78444 0.31542 0.79329 0.0
O835 O 0.8129 0.32923 0.76294 0.0
C836 C 0.7941 0.25503 0.79754 0.0
O837 O 0.82122 0.33718 0.86125 0.0
O838 O 0.78121 0.31115 0.84461 0.0
C839 C 0.86273 0.29036 0.82276 0.0
C840 C 0.85024 0.30781 0.70529 0.0
C841 C 0.84731 0.33704 0.66185 0.0
C842 C 0.85257 0.31066 0.66012 0.0
C843 C 0.85392 0.29608 0.68173 0.0
C844 C 0.8452 0.3342 0.70711 0.0
C845 C 0.84361 0.34865 0.68555 0.0
C846 C 0.85016 0.29197 0.72778 0.0
C847 C 0.85945 0.36274 0.80128 0.0
H848 H 0.74006 0.27381 0.92099 0.0
H849 H 0.74986 0.30489 0.88646 0.0
H850 H 0.83207 0.30535 0.89383 0.0
H851 H 0.82279 0.27549 0.92926 0.0
H852 H 0.85526 0.30113 0.64201 0.0
H853 H 0.85758 0.27559 0.68001 0.0
H854 H 0.84241 0.34361 0.72522 0.0
H855 H 0.83985 0.36908 0.68747 0.0
Tb856 Tb 0.81347 0.76274 0.78162 0.0
Tb857 Tb 0.83708 0.83069 0.79133 0.0
C858 C 0.8151 0.80257 0.73651 0.0
C859 C 0.80777 0.68665 0.76556 0.0
C860 C 0.83885 0.64985 0.7649 0.0
C861 C 0.81227 0.63977 0.77132 0.0
C862 C 0.79688 0.65815 0.77179 0.0
C863 C 0.83316 0.69582 0.75661 0.0
C864 C 0.84864 0.67757 0.75632 0.0
C865 C 0.79593 0.70815 0.77437 0.0
O866 O 0.8573 0.77093 0.77868 0.0
O867 O 0.87072 0.81933 0.77414 0.0
O868 O 0.85046 0.81592 0.82659 0.0
O869 O 0.81753 0.77203 0.82314 0.0
O870 O 0.861 0.86965 0.779 0.0
O871 O 0.84321 0.86948 0.81397 0.0
O872 O 0.79533 0.82129 0.80438 0.0
O873 O 0.7766 0.77407 0.78775 0.0
O874 O 0.819 0.77897 0.74384 0.0
O875 O 0.81378 0.82225 0.75384 0.0
C876 C 0.87561 0.79439 0.77204 0.0
O877 O 0.80824 0.72274 0.79569 0.0
O878 O 0.79086 0.72496 0.75799 0.0
C879 C 0.83576 0.7935 0.83728 0.0
C880 C 0.84644 0.90844 0.78977 0.0
C881 C 0.8257 0.95222 0.77681 0.0
C882 C 0.84978 0.95899 0.79304 0.0
C883 C 0.86011 0.93718 0.79945 0.0
C884 C 0.82282 0.90168 0.77308 0.0
C885 C 0.81255 0.92341 0.76661 0.0
C886 C 0.85639 0.88539 0.79749 0.0
C887 C 0.77391 0.7972 0.80019 0.0
H888 H 0.804 0.61833 0.77754 0.0
H889 H 0.77736 0.65084 0.7789 0.0
H890 H 0.84195 0.71787 0.75193 0.0
H891 H 0.86907 0.68614 0.75142 0.0
H892 H 0.86034 0.98103 0.80108 0.0
H893 H 0.87845 0.94264 0.8123 0.0
H894 H 0.81202 0.87951 0.76552 0.0
H895 H 0.79369 0.91742 0.75447 0.0
Tb896 Tb 0.61039 0.57547 0.55374 0.0
Tb897 Tb 0.54785 0.53492 0.53284 0.0
C898 C 0.56154 0.57806 0.58129 0.0
C899 C 0.68198 0.59423 0.57556 0.0
C900 C 0.72412 0.57087 0.57695 0.0
C901 C 0.70091 0.55764 0.58868 0.0
C902 C 0.67991 0.5691 0.58784 0.0
C903 C 0.70584 0.60841 0.5652 0.0
C904 C 0.72673 0.59675 0.56578 0.0
C905 C 0.65839 0.60362 0.57058 0.0
O906 O 0.60255 0.53487 0.57183 0.0
O907 O 0.56634 0.50387 0.54545 0.0
O908 O 0.57196 0.53216 0.50231 0.0
O909 O 0.61411 0.54477 0.52449 0.0
O910 O 0.51151 0.50415 0.54009 0.0
O911 O 0.51501 0.52347 0.50453 0.0
O912 O 0.55099 0.57949 0.52749 0.0
O913 O 0.5964 0.59899 0.52489 0.0
O914 O 0.5847 0.59333 0.57429 0.0
O915 O 0.54893 0.55139 0.57166 0.0
C916 C 0.58645 0.50857 0.56331 0.0
O917 O 0.64907 0.60116 0.5467 0.0
O918 O 0.63908 0.59447 0.58506 0.0
C919 C 0.59729 0.53332 0.50411 0.0
C920 C 0.47562 0.51877 0.52457 0.0
C921 C 0.43556 0.54018 0.54087 0.0
C922 C 0.43355 0.51115 0.54315 0.0
C923 C 0.45342 0.50053 0.53501 0.0
C924 C 0.47733 0.54762 0.52184 0.0
C925 C 0.45748 0.55816 0.52982 0.0
C926 C 0.49854 0.50895 0.5198 0.0
C927 C 0.57175 0.59993 0.52083 0.0
H928 H 0.69829 0.53746 0.5971 0.0
H929 H 0.66159 0.5575 0.59575 0.0
H930 H 0.70778 0.6277 0.55554 0.0
H931 H 0.74451 0.60733 0.55666 0.0
H932 H 0.41679 0.49676 0.55147 0.0
H933 H 0.4519 0.47833 0.53761 0.0
H934 H 0.49447 0.5624 0.51432 0.0
H935 H 0.45986 0.58075 0.52819 0.0
Tb936 Tb 0.02994 0.53905 0.04954 0.0
Tb937 Tb 0.09428 0.54843 0.04046 0.0
C938 C 0.06784 0.52079 0.08854 0.0
C939 C 0.96624 0.55571 0.05282 0.0
C940 C 0.9359 0.59371 0.04931 0.0
C941 C 0.923 0.56366 0.04934 0.0
C942 C 0.93804 0.54489 0.0511 0.0
C943 C 0.97928 0.58563 0.05274 0.0
C944 C 0.96426 0.60446 0.05107 0.0
C945 C 0.98173 0.53557 0.0544 0.0
O946 O 0.05496 0.57898 0.07155 0.0
O947 O 0.0915 0.59159 0.04872 0.0
O948 O 0.07358 0.5523 0.00464 0.0
O949 O 0.04001 0.56704 0.01921 0.0
O950 O 0.13559 0.56628 0.0536 0.0
O951 O 0.12222 0.54168 0.01703 0.0
O952 O 0.07433 0.50187 0.03607 0.0
O953 O 0.02982 0.49923 0.02846 0.0
O954 O 0.04305 0.5156 0.07826 0.0
O955 O 0.08921 0.53708 0.07894 0.0
C956 C 0.07616 0.59855 0.06456 0.0
O957 O 0.98986 0.52841 0.03322 0.0
O958 O 1.00065 0.54136 0.07331 0.0
C959 C 0.05531 0.56494 1.00149 0.0
C960 C 0.16184 0.53865 0.03907 0.0
C961 C 0.19929 0.50896 0.04721 0.0
C962 C 0.20795 0.53832 0.04242 0.0
C963 C 0.18943 0.55295 0.03837 0.0
C964 C 0.15297 0.50939 0.04398 0.0
C965 C 0.17152 0.49465 0.04793 0.0
C966 C 0.14273 0.55445 0.03393 0.0
C967 C 0.04888 0.48725 0.02859 0.0
H968 H 0.90126 0.55466 0.04834 0.0
H969 H 0.92763 0.52187 0.05113 0.0
H970 H 1.00106 0.5944 0.05388 0.0
H971 H 0.97484 0.6274 0.0508 0.0
H972 H 0.22909 0.54993 0.04137 0.0
H973 H 0.19667 0.57545 0.03448 0.0
H974 H 0.13172 0.49794 0.04464 0.0
H975 H 0.16417 0.47217 0.05182 0.0
H976 H 0.9959 0.1768 0.99491 0.0
H977 H 0.07014 0.21138 0.96148 0.0
H978 H 0.08229 0.16856 0.97094 0.0
H979 H 0.07184 0.12112 0.98951 0.0
H980 H 0.99593 0.08675 0.02067 0.0
H981 H 0.98457 0.12937 0.01121 0.0
C982 C 1.01481 0.17509 0.98972 0.0
C983 C 0.03218 0.19751 0.97773 0.0
C984 C 1.02139 0.15024 0.99478 0.0
C985 C 0.05638 0.19454 0.97079 0.0
C986 C 0.06335 0.17003 0.97623 0.0
C987 C 0.05278 0.12293 0.99412 0.0
C988 C 0.03489 0.10054 0.0059 0.0
C989 C 0.04603 0.14769 0.98831 0.0
C990 C 1.0102 0.10335 0.01157 0.0
C991 C 1.00362 0.12788 0.00624 0.0
H992 H 0.22849 0.84989 0.16371 0.0
H993 H 0.16563 0.81616 0.21184 0.0
H994 H 0.19914 0.81308 0.24531 0.0
H995 H 0.24597 0.81642 0.25952 0.0
H996 H 0.3081 0.84925 0.21031 0.0
H997 H 0.27516 0.85621 0.17878 0.0
C998 C 0.22204 0.8421 0.1816 0.0
C999 C 0.19447 0.83305 0.18511 0.0
C1000 C 0.24132 0.84001 0.20056 0.0
C1001 C 0.18666 0.82325 0.20854 0.0
C1002 C 0.20583 0.82135 0.22767 0.0
C1003 C 0.25237 0.8254 0.24203 0.0
C1004 C 0.27953 0.83209 0.23732 0.0
C1005 C 0.23317 0.82913 0.22369 0.0
C1006 C 0.28738 0.84372 0.21449 0.0
C1007 C 0.26852 0.84771 0.19637 0.0
H1008 H 0.5065 0.86359 0.49339 0.0
H1009 H 0.58484 0.86648 0.47354 0.0
H1010 H 0.60211 0.91902 0.48482 0.0
H1011 H 0.59469 0.96419 0.50022 0.0
H1012 H 0.51518 0.96116 0.51674 0.0
H1013 H 0.49855 0.90868 0.50666 0.0
C1014 C 0.52743 0.87568 0.49173 0.0
C1015 C 0.54449 0.86109 0.48302 0.0
C1016 C 0.53692 0.9059 0.49745 0.0
C1017 C 0.57137 0.87717 0.48037 0.0
C1018 C 0.58121 0.9072 0.48678 0.0
C1019 C 0.57371 0.95203 0.50157 0.0
C1020 C 0.55622 0.96662 0.50932 0.0
C1021 C 0.56414 0.92182 0.4953 0.0
C1022 C 0.52904 0.95057 0.5107 0.0
C1023 C 0.51954 0.9205 0.50506 0.0
H1024 H 0.57483 0.35772 0.7147 0.0
H1025 H 0.55049 0.27977 0.66333 0.0
H1026 H 0.50851 0.26148 0.68251 0.0
H1027 H 0.47842 0.26747 0.71393 0.0
H1028 H 0.50314 0.34481 0.76589 0.0
H1029 H 0.5451 0.36337 0.74651 0.0
C1030 C 0.56037 0.33672 0.7077 0.0
C1031 C 0.56589 0.32023 0.68754 0.0
C1032 C 0.53624 0.32617 0.71894 0.0
C1033 C 0.54688 0.29298 0.67883 0.0
C1034 C 0.52278 0.28247 0.68976 0.0
C1035 C 0.49296 0.28845 0.72088 0.0
C1036 C 0.48768 0.30472 0.74131 0.0
C1037 C 0.51719 0.29888 0.70979 0.0
C1038 C 0.50685 0.33173 0.75034 0.0
C1039 C 0.53081 0.34241 0.73921 0.0
H1040 H 0.07602 0.928 0.6616 0.0
H1041 H 0.07685 0.86715 0.59986 0.0
H1042 H 0.07906 0.90432 0.57007 0.0
H1043 H 0.07994 0.95526 0.56093 0.0
H1044 H 0.0802 0.01459 0.62448 0.0
H1045 H 0.07827 0.9776 0.65314 0.0
C1046 C 0.07676 0.9225 0.64164 0.0
C1047 C 0.07621 0.89393 0.63357 0.0
C1048 C 0.07814 0.94428 0.62444 0.0
C1049 C 0.07728 0.88837 0.60727 0.0
C1050 C 0.0785 0.90992 0.59003 0.0
C1051 C 0.07975 0.96031 0.58105 0.0
C1052 C 0.08011 0.98878 0.5899 0.0
C1053 C 0.07886 0.93818 0.59824 0.0
C1054 C 0.07976 0.99373 0.61636 0.0
C1055 C 0.07871 0.97221 0.63311 0.0
H1056 H 0.48082 0.82198 0.88526 0.0
H1057 H 0.49437 0.76614 0.82591 0.0
H1058 H 0.45145 0.76384 0.80197 0.0
H1059 H 0.40798 0.7766 0.79829 0.0
H1060 H 0.39819 0.83611 0.85692 0.0
H1061 H 0.44065 0.83777 0.88011 0.0
C1062 C 0.47479 0.80955 0.86686 0.0
C1063 C 0.49178 0.79445 0.85772 0.0
C1064 C 0.44997 0.80869 0.85291 0.0
C1065 C 0.4827 0.7785 0.83371 0.0
C1066 C 0.4577 0.77697 0.82001 0.0
C1067 C 0.41504 0.78996 0.81615 0.0
C1068 C 0.39882 0.80602 0.82566 0.0
C1069 C 0.44078 0.79172 0.82944 0.0
C1070 C 0.40939 0.82341 0.84877 0.0
C1071 C 0.43401 0.8244 0.86221 0.0
H1072 H 0.59749 0.22642 0.13212 0.0
H1073 H 0.51264 0.21099 0.11497 0.0
H1074 H 0.50847 0.16739 0.08722 0.0
H1075 H 0.52855 0.13153 0.06863 0.0
H1076 H 0.6139 0.14828 0.08515 0.0
H1077 H 0.61801 0.19246 0.11156 0.0
C1078 C 0.57818 0.2141 0.12172 0.0
C1079 C 0.55557 0.22325 0.1253 0.0
C1080 C 0.57587 0.18851 0.10563 0.0
C1081 C 0.53066 0.20568 0.11221 0.0
C1082 C 0.52821 0.18028 0.09644 0.0
C1083 C 0.54815 0.14479 0.07789 0.0
C1084 C 0.5709 0.13571 0.07447 0.0
C1085 C 0.55059 0.1711 0.09312 0.0
C1086 C 0.59591 0.154 0.08691 0.0
C1087 C 0.59832 0.17959 0.10223 0.0
H1088 H 0.15316 0.25147 0.34082 0.0
H1089 H 0.1703 0.34149 0.36573 0.0
H1090 H 0.2145 0.35299 0.34904 0.0
H1091 H 0.25016 0.33733 0.32751 0.0
H1092 H 0.23035 0.24679 0.30222 0.0
H1093 H 0.18679 0.23643 0.31856 0.0
C1094 C 0.16626 0.27384 0.34268 0.0
C1095 C 0.15718 0.2954 0.355 0.0
C1096 C 0.19207 0.28043 0.33273 0.0
C1097 C 0.17557 0.32403 0.35658 0.0
C1098 C 0.20132 0.33066 0.34694 0.0
C1099 C 0.2364 0.31526 0.32535 0.0
C1100 C 0.24483 0.29299 0.31306 0.0
C1101 C 0.21014 0.30907 0.33497 0.0
C1102 C 0.22563 0.26477 0.31108 0.0
C1103 C 0.20022 0.25867 0.32064 0.0
H1104 H 0.03651 0.10116 0.18434 0.0
H1105 H 0.95357 0.04841 0.16447 0.0
H1106 H 0.96057 0.04671 0.11948 0.0
H1107 H 0.99314 0.04916 0.08861 0.0
H1108 H 0.0772 0.09832 0.10965 0.0
H1109 H 0.06703 0.11298 0.15131 0.0
C1110 C 1.01972 0.09068 0.16991 0.0
C1111 C 0.99469 0.07483 0.1773 0.0
C1112 C 1.02442 0.08832 0.14448 0.0
C1113 C 0.97294 0.06094 0.15889 0.0
C1114 C 0.97711 0.05952 0.13329 0.0
C1115 C 1.00913 0.06352 0.10218 0.0
C1116 C 0.03598 0.07176 0.09657 0.0
C1117 C 1.00323 0.07128 0.12624 0.0
C1118 C 0.05643 0.09119 0.11382 0.0
C1119 C 0.05064 0.09957 0.13764 0.0
H1120 H 0.32662 0.71775 0.51221 0.0
H1121 H 0.25076 0.72715 0.52788 0.0
H1122 H 0.24845 0.75008 0.48874 0.0
H1123 H 0.26845 0.76875 0.45075 0.0
H1124 H 0.34509 0.76128 0.43557 0.0
H1125 H 0.34649 0.73609 0.47369 0.0
C1126 C 0.30948 0.72458 0.50691 0.0
C1127 C 0.28895 0.72082 0.52294 0.0
C1128 C 0.30846 0.73821 0.48454 0.0
C1129 C 0.26693 0.72994 0.51593 0.0
C1130 C 0.26557 0.74308 0.49357 0.0
C1131 C 0.28557 0.76184 0.45591 0.0
C1132 C 0.30665 0.76697 0.44044 0.0
C1133 C 0.28637 0.74766 0.47792 0.0
C1134 C 0.32847 0.75737 0.44708 0.0
C1135 C 0.32935 0.74307 0.46891 0.0
H1136 H 0.58523 0.01374 0.69304 0.0
H1137 H 0.66823 0.02101 0.68721 0.0
H1138 H 0.6614 0.02234 0.64137 0.0
H1139 H 0.63363 0.02854 0.60402 0.0
H1140 H 0.55065 0.02116 0.61014 0.0
H1141 H 0.55575 1.01271 0.6547 0.0
C1142 C 0.60169 0.015 0.68169 0.0
C1143 C 0.6273 0.01788 0.69359 0.0
C1144 C 0.59778 0.01625 0.65541 0.0
C1145 C 0.64831 0.019 0.67857 0.0
C1146 C 0.64451 0.02001 0.65234 0.0
C1147 C 0.61663 0.02478 0.61507 0.0
C1148 C 0.592 0.02604 0.60396 0.0
C1149 C 0.61964 0.01988 0.64074 0.0
C1150 C 0.56993 0.02052 0.6183 0.0
C1151 C 0.5728 0.01573 0.64382 0.0
H1152 H 0.35002 0.30521 0.959 0.0
H1153 H 0.28321 0.33753 0.9588 0.0
H1154 H 0.27879 0.33399 0.91223 0.0
H1155 H 0.29505 0.32333 0.87106 0.0
H1156 H 0.36366 0.29369 0.87231 0.0
H1157 H 0.36614 0.29472 0.91843 0.0
C1158 C 0.33419 0.31113 0.94887 0.0
C1159 C 0.31676 0.32132 0.96279 0.0
C1160 C 0.33225 0.30982 0.92196 0.0
C1161 C 0.29682 0.32939 0.94892 0.0
C1162 C 0.29436 0.32749 0.92214 0.0
C1163 C 0.31053 0.31702 0.88137 0.0
C1164 C 0.32918 0.30846 0.86776 0.0
C1165 C 0.31215 0.31802 0.90836 0.0
C1166 C 0.34908 0.30053 0.88185 0.0
C1167 C 0.35049 0.30103 0.90842 0.0
H1168 H 0.04136 0.10501 0.32136 0.0
H1169 H 0.08756 0.05877 0.28496 0.0
H1170 H 0.11502 0.06241 0.32489 0.0
H1171 H 0.11724 0.06692 0.37113 0.0
H1172 H 0.07086 0.1124 0.40807 0.0
H1173 H 0.05246 0.12124 0.36686 0.0
C1174 C 0.05797 0.09653 0.32198 0.0
C1175 C 0.06162 0.08052 0.30054 0.0
C1176 C 0.0733 0.09801 0.34519 0.0
C1177 C 0.08374 0.07042 0.30143 0.0
C1178 C 0.09946 0.07239 0.3243 0.0
C1179 C 0.10402 0.07983 0.37026 0.0
C1180 C 0.09451 0.0879 0.39247 0.0
C1181 C 0.09313 0.08432 0.34656 0.0
C1182 C 0.07763 0.10496 0.39105 0.0
C1183 C 0.0671 0.11003 0.36752 0.0
H1184 H 0.36407 0.77717 0.63884 0.0
H1185 H 0.35438 0.69221 0.66244 0.0
H1186 H 0.3606 0.71136 0.7069 0.0
H1187 H 0.35507 0.74872 0.73701 0.0
H1188 H 0.36201 0.83297 0.71296 0.0
H1189 H 0.37085 0.81792 0.67074 0.0
C1190 C 0.36472 0.76323 0.65382 0.0
C1191 C 0.35795 0.73331 0.6476 0.0
C1192 C 0.36679 0.7741 0.67916 0.0
C1193 C 0.3593 0.71533 0.66688 0.0
C1194 C 0.36232 0.72618 0.69231 0.0
C1195 C 0.35914 0.76389 0.72262 0.0
C1196 C 0.35694 0.79144 0.7275 0.0
C1197 C 0.36379 0.75494 0.69841 0.0
C1198 C 0.36316 0.81145 0.70928 0.0
C1199 C 0.36815 0.80283 0.68518 0.0
H1200 H 0.68433 0.02184 0.84122 0.0
H1201 H 0.59784 0.99932 0.8364 0.0
H1202 H 0.59967 0.99811 0.88251 0.0
H1203 H 0.62649 0.01409 0.92387 0.0
H1204 H 0.71321 0.04446 0.9284 0.0
H1205 H 0.71083 0.03154 0.88272 0.0
C1206 C 0.66577 0.01575 0.85015 0.0
C1207 C 0.64097 1.01097 0.8355 0.0
C1208 C 0.66718 0.01698 0.87669 0.0
C1209 C 0.61715 1.00329 0.84734 0.0
C1210 C 0.61823 1.00278 0.87369 0.0
C1211 C 0.64484 0.01681 0.91497 0.0
C1212 C 0.67001 0.03013 0.92929 0.0
C1213 C 0.64323 1.01115 0.88858 0.0
C1214 C 0.69368 0.03415 0.91762 0.0
C1215 C 0.69227 0.02699 0.89153 0.0
H1216 H 0.31198 0.35712 0.12711 0.0
H1217 H 0.32555 0.27711 0.10596 0.0
H1218 H 0.3217 0.26385 0.14942 0.0
H1219 H 0.31684 0.27567 0.1945 0.0
H1220 H 0.30607 0.35697 0.21648 0.0
H1221 H 0.30637 0.36864 0.17236 0.0
C1222 C 0.31372 0.33659 0.13188 0.0
C1223 C 0.3189 0.31814 0.11278 0.0
C1224 C 0.31214 0.32925 0.15745 0.0
C1225 C 0.32153 0.29186 0.11987 0.0
C1226 C 0.31937 0.28421 0.14491 0.0
C1227 C 0.31416 0.29579 0.18967 0.0
C1228 C 0.31116 0.31517 0.20924 0.0
C1229 C 0.31499 0.30282 0.16403 0.0
C1230 C 0.30827 0.34138 0.2022 0.0
C1231 C 0.3085 0.34817 0.17679 0.0
H1232 H 0.2833 0.98319 0.0139 0.0
H1233 H 0.34219 0.06334 0.04795 0.0
H1234 H 0.30608 0.08256 0.05655 0.0
H1235 H 0.25764 0.07723 0.05254 0.0
H1236 H 0.19943 0.99681 0.01823 0.0
H1237 H 0.23546 0.9771 0.01157 0.0
C1238 C 0.28832 1.00486 0.02328 0.0
C1239 C 0.31544 0.02185 0.03011 0.0
C1240 C 0.26755 0.01577 0.02803 0.0
C1241 C 0.32149 0.0498 0.04241 0.0
C1242 C 0.30084 0.06082 0.04732 0.0
C1243 C 0.25289 0.05529 0.04389 0.0
C1244 C 0.22594 0.03861 0.03566 0.0
C1245 C 0.27379 0.04409 0.03998 0.0
C1246 C 0.22006 1.01025 0.02434 0.0
C1247 C 0.24062 0.99892 0.0206 0.0
H1248 H 0.74262 0.65649 0.03216 0.0
H1249 H 0.71092 0.72734 0.03202 0.0
H1250 H 0.66622 0.69426 0.03691 0.0
H1251 H 0.63593 0.64531 0.04136 0.0
H1252 H 0.66671 0.57391 0.03964 0.0
H1253 H 0.71192 0.60711 0.03564 0.0
C1254 C 0.72592 0.6647 0.0331 0.0
C1255 C 0.73026 0.69444 0.03174 0.0
C1256 C 0.7001 0.64548 0.03585 0.0
C1257 C 0.70828 0.7046 0.03293 0.0
C1258 C 0.68266 0.6857 0.03585 0.0
C1259 C 0.65261 0.63707 0.04044 0.0
C1260 C 0.64807 0.60726 0.04115 0.0
C1261 C 0.67836 0.65615 0.03749 0.0
C1262 C 0.66975 0.59681 0.03932 0.0
C1263 C 0.69557 0.61577 0.03693 0.0
H1264 H 0.70811 0.49116 0.28167 0.0
H1265 H 0.73298 0.49853 0.36204 0.0
H1266 H 0.76909 0.47938 0.35358 0.0
H1267 H 0.79251 0.45903 0.32342 0.0
H1268 H 0.76834 0.45284 0.24301 0.0
H1269 H 0.733 0.47319 0.25143 0.0
C1270 C 0.72137 0.48847 0.29734 0.0
C1271 C 0.71775 0.49598 0.32244 0.0
C1272 C 0.74226 0.47783 0.29233 0.0
C1273 C 0.73532 0.49281 0.34254 0.0
C1274 C 0.75599 0.48191 0.33772 0.0
C1275 C 0.77988 0.4627 0.30771 0.0
C1276 C 0.78302 0.45445 0.28263 0.0
C1277 C 0.75959 0.4743 0.31269 0.0
C1278 C 0.76615 0.45882 0.2625 0.0
C1279 C 0.74596 0.47043 0.2673 0.0
H1280 H 0.93106 0.49029 0.44599 0.0
H1281 H 0.9046 0.52976 0.50905 0.0
H1282 H 0.94931 0.56594 0.51821 0.0
H1283 H 0.99766 0.5772 0.51526 0.0
H1284 H 1.02465 0.53598 0.45379 0.0
H1285 H 0.97796 0.51036 0.43648 0.0
C1286 C 0.93488 0.50739 0.46122 0.0
C1287 C 0.91494 0.50677 0.47739 0.0
C1288 C 0.96084 0.52761 0.46684 0.0
C1289 C 0.91979 0.52946 0.4966 0.0
C1290 C 0.94543 0.55006 0.50198 0.0
C1291 C 0.99326 0.56347 0.49751 0.0
C1292 C 1.01432 0.55774 0.48615 0.0
C1293 C 0.96646 0.54803 0.4883 0.0
C1294 C 1.00865 0.54047 0.46295 0.0
C1295 C 0.98194 0.52553 0.45324 0.0
H1296 H 0.4231 0.08479 0.29776 0.0
H1297 H 0.45248 0.13499 0.37027 0.0
H1298 H 0.41558 0.1549 0.36598 0.0
H1299 H 0.37776 0.16148 0.33965 0.0
H1300 H 0.35035 0.11293 0.2662 0.0
H1301 H 0.38334 0.08833 0.27319 0.0
C1302 C 0.42137 0.09993 0.31277 0.0
C1303 C 0.44078 0.10877 0.33412 0.0
C1304 C 0.40044 0.11153 0.31001 0.0
C1305 C 0.43793 0.12799 0.35356 0.0
C1306 C 0.41688 0.13943 0.35108 0.0
C1307 C 0.37893 0.1454 0.32523 0.0
C1308 C 0.36181 0.1393 0.30231 0.0
C1309 C 0.39847 0.13192 0.32907 0.0
C1310 C 0.36312 0.11792 0.28407 0.0
C1311 C 0.38218 0.10404 0.28795 0.0
H1312 H 0.36813 0.16253 0.57966 0.0
H1313 H 0.3867 0.19952 0.50895 0.0
H1314 H 0.41939 0.17448 0.50431 0.0
H1315 H 0.44288 0.14206 0.52033 0.0
H1316 H 0.42378 0.10469 0.59078 0.0
H1317 H 0.39147 0.13013 0.59559 0.0
C1318 C 0.3793 0.16514 0.56322 0.0
C1319 C 0.37487 0.18291 0.54469 0.0
C1320 C 0.39813 0.15068 0.56065 0.0
C1321 C 0.38963 0.18601 0.52353 0.0
C1322 C 0.40837 0.17167 0.52084 0.0
C1323 C 0.43153 0.13933 0.53665 0.0
C1324 C 0.43592 0.12154 0.5552 0.0
C1325 C 0.41278 0.15391 0.53926 0.0
C1326 C 0.4212 0.11858 0.57639 0.0
C1327 C 0.40254 0.13298 0.57909 0.0
H1328 H 0.67345 0.64515 0.30495 0.0
H1329 H 0.72806 0.59922 0.32574 0.0
H1330 H 0.7665 0.6415 0.31946 0.0
H1331 H 0.78445 0.69145 0.3076 0.0
H1332 H 0.72903 0.7357 0.28437 0.0
H1333 H 0.69112 0.69414 0.29202 0.0
C1334 C 0.69378 0.64446 0.30828 0.0
C1335 C 0.69794 0.61923 0.31597 0.0
C1336 C 0.71565 0.66851 0.30408 0.0
C1337 C 0.72436 0.61846 0.31982 0.0
C1338 C 0.74633 0.6426 0.31623 0.0
C1339 C 0.76408 0.69199 0.30421 0.0
C1340 C 0.75966 0.71678 0.29557 0.0
C1341 C 0.7422 0.66772 0.30826 0.0
C1342 C 0.7331 0.71699 0.29107 0.0
C1343 C 0.71134 0.69321 0.29547 0.0
H1344 H 0.93205 0.49422 0.8192 0.0
H1345 H 0.9904 0.45871 0.79116 0.0
H1346 H 0.95689 0.41023 0.78652 0.0
H1347 H 0.91114 0.37816 0.79011 0.0
H1348 H 0.85298 0.41344 0.81888 0.0
H1349 H 0.88648 0.46198 0.8235 0.0
C1350 C 0.9375 0.4759 0.81208 0.0
C1351 C 0.96371 0.48013 0.80547 0.0
C1352 C 0.91819 0.44812 0.80954 0.0
C1353 C 0.97041 0.4561 0.79641 0.0
C1354 C 0.95125 0.42837 0.79371 0.0
C1355 C 0.9057 0.39645 0.79732 0.0
C1356 C 0.87953 0.39219 0.80402 0.0
C1357 C 0.92508 0.42418 0.80012 0.0
C1358 C 0.87297 0.41611 0.81357 0.0
C1359 C 0.8921 0.44386 0.81621 0.0
H1360 H 0.07414 0.87434 0.10214 0.0
H1361 H 0.15799 0.91869 0.09476 0.0
H1362 H 0.1473 0.96053 0.08089 0.0
H1363 H 0.11403 0.98411 0.06911 0.0
H1364 H 0.02968 0.93852 0.07256 0.0
H1365 H 0.04054 0.89793 0.08973 0.0
C1366 C 0.09004 0.89325 0.09763 0.0
C1367 C 0.11684 0.89331 0.09951 0.0
C1368 C 0.08364 0.91712 0.08891 0.0
C1369 C 0.13718 0.91792 0.09334 0.0
C1370 C 0.1311 0.94195 0.08545 0.0
C1371 C 0.09806 0.96543 0.07391 0.0
C1372 C 0.0711 0.96446 0.06978 0.0
C1373 C 0.1044 0.94174 0.08294 0.0
C1374 C 0.0506 0.93982 0.07561 0.0
C1375 C 0.05681 0.91658 0.08541 0.0
H1376 H 0.96576 0.26764 0.87393 0.0
H1377 H 0.91864 0.25843 0.93766 0.0
H1378 H 0.88185 0.26541 0.91144 0.0
H1379 H 0.86378 0.27744 0.87138 0.0
H1380 H 0.90853 0.28406 0.80644 0.0
H1381 H 0.94522 0.27464 0.83197 0.0
C1382 C 0.94732 0.26681 0.88197 0.0
C1383 C 0.94529 0.2628 0.9079 0.0
C1384 C 0.92577 0.27059 0.8666 0.0
C1385 C 0.92104 0.26156 0.91787 0.0
C1386 C 0.89987 0.26567 0.9029 0.0
C1387 C 0.88151 0.27662 0.86279 0.0
C1388 C 0.88364 0.28175 0.83721 0.0
C1389 C 0.90219 0.27075 0.87742 0.0
C1390 C 0.90647 0.28015 0.82615 0.0
C1391 C 0.92748 0.27489 0.84077 0.0
H1392 H 0.65369 0.24834 0.5672 0.0
H1393 H 0.58325 0.23726 0.60667 0.0
H1394 H 0.56883 0.18494 0.59584 0.0
H1395 H 0.57677 0.14203 0.57619 0.0
H1396 H 0.64782 0.15317 0.53754 0.0
H1397 H 0.6614 0.20551 0.54721 0.0
C1398 C 0.63502 0.23455 0.57321 0.0
C1399 C 0.61956 0.2469 0.58766 0.0
C1400 C 0.62705 0.20432 0.56731 0.0
C1401 C 0.59557 0.22849 0.59549 0.0
C1402 C 0.58733 0.19849 0.58938 0.0
C1403 C 0.59529 0.15584 0.56993 0.0
C1404 C 0.61125 0.14341 0.55621 0.0
C1405 C 0.60306 0.1861 0.57554 0.0
C1406 C 0.63511 0.16189 0.5482 0.0
C1407 C 0.6429 0.19195 0.55366 0.0
H1408 H 0.6311 0.83527 0.41652 0.0
H1409 H 0.57206 0.76374 0.3702 0.0
H1410 H 0.60358 0.76683 0.33836 0.0
H1411 H 0.64825 0.78964 0.32382 0.0
H1412 H 0.70674 0.86159 0.37008 0.0
H1413 H 0.67506 0.85867 0.40164 0.0
C1414 C 0.62508 0.82032 0.39947 0.0
C1415 C 0.59925 0.79922 0.39586 0.0
C1416 C 0.64322 0.82236 0.38115 0.0
C1417 C 0.59179 0.7802 0.37352 0.0
C1418 C 0.60983 0.78193 0.35529 0.0
C1419 C 0.65403 0.80462 0.34084 0.0
C1420 C 0.67982 0.82584 0.34454 0.0
C1421 C 0.63564 0.80287 0.35894 0.0
C1422 C 0.68693 0.8453 0.36659 0.0
C1423 C 0.66887 0.84353 0.38473 0.0
H1424 H 0.03725 0.2098 0.47218 0.0
H1425 H 0.09921 0.21139 0.42378 0.0
H1426 H 0.10493 0.16869 0.44258 0.0
H1427 H 0.09257 0.13008 0.47403 0.0
H1428 H 0.03068 0.13123 0.52204 0.0
H1429 H 1.02508 0.17261 0.50236 0.0
C1430 C 0.05215 0.20109 0.4655 0.0
C1431 C 0.06774 0.21477 0.44615 0.0
C1432 C 0.05546 0.17635 0.47663 0.0
C1433 C 0.08679 0.20218 0.43842 0.0
C1434 C 0.09006 0.17742 0.44932 0.0
C1435 C 0.07772 0.1392 0.4802 0.0
C1436 C 0.06207 0.12651 0.50005 0.0
C1437 C 0.07455 0.16411 0.46861 0.0
C1438 C 0.0432 0.13961 0.50723 0.0
C1439 C 0.03992 0.16368 0.49584 0.0
H1440 H 0.63892 0.26507 0.23312 0.0
H1441 H 0.66219 0.35119 0.20906 0.0
H1442 H 0.70961 0.35823 0.22402 0.0
H1443 H 0.74592 0.3396 0.24443 0.0
H1444 H 0.72046 0.2519 0.2655 0.0
H1445 H 0.67393 0.24638 0.25152 0.0
C1446 C 0.65414 0.28562 0.23108 0.0
C1447 C 0.64584 0.3076 0.21983 0.0
C1448 C 0.68184 0.28935 0.23937 0.0
C1449 C 0.66694 0.33365 0.21748 0.0
C1450 C 0.69445 0.33769 0.22616 0.0
C1451 C 0.73031 0.31919 0.24601 0.0
C1452 C 0.73792 0.29617 0.25645 0.0
C1453 C 0.70245 0.31569 0.23723 0.0
C1454 C 0.71641 0.27017 0.25777 0.0
C1455 C 0.68928 0.26691 0.2497 0.0
H1456 H 0.5502 0.86933 0.97525 0.0
H1457 H 0.60708 0.90481 0.92224 0.0
H1458 H 0.60977 0.95411 0.93838 0.0
H1459 H 0.5947 0.98801 0.96761 0.0
H1460 H 0.53687 0.94942 0.01919 0.0
H1461 H 0.5359 0.90158 0.00348 0.0
C1462 C 0.56349 0.88763 0.96709 0.0
C1463 C 0.57859 0.88242 0.94733 0.0
C1464 C 0.56461 0.91605 0.97627 0.0
C1465 C 0.59532 0.9073 0.93744 0.0
C1466 C 0.59672 0.93579 0.9467 0.0
C1467 C 0.58189 0.9692 0.9755 0.0
C1468 C 0.5658 0.97332 0.99498 0.0
C1469 C 0.58128 0.94064 0.96611 0.0
C1470 C 0.54947 0.94794 0.00443 0.0
C1471 C 0.5489 0.92013 0.99538 0.0
H1472 H 0.9771 0.7583 0.73709 0.0
H1473 H 0.99718 0.83964 0.70403 0.0
H1474 H 0.95771 0.8481 0.72029 0.0
H1475 H 0.91599 0.83246 0.74453 0.0
H1476 H 0.89618 0.74967 0.7754 0.0
H1477 H 0.93584 0.74235 0.75976 0.0
C1478 C 0.97313 0.77805 0.73325 0.0
C1479 C 0.99127 0.79824 0.71893 0.0
C1480 C 0.94973 0.78274 0.74263 0.0
C1481 C 0.9845 0.82338 0.71464 0.0
C1482 C 0.96155 0.82829 0.72416 0.0
C1483 C 0.92027 0.81281 0.74809 0.0
C1484 C 0.90207 0.79184 0.76192 0.0
C1485 C 0.94377 0.80821 0.73833 0.0
C1486 C 0.90888 0.76657 0.76536 0.0
C1487 C 0.93198 0.76224 0.75622 0.0
H1488 H 0.09075 1.00159 0.8825 0.0
H1489 H 0.17144 0.03263 0.92051 0.0
H1490 H 0.15438 0.016 0.96037 0.0
H1491 H 0.11625 1.00551 0.9855 0.0
H1492 H 0.03545 0.98356 0.9481 0.0
H1493 H 0.05246 0.98259 0.90682 0.0
C1494 C 0.10455 1.00341 0.89935 0.0
C1495 C 0.1321 0.0181 0.89899 0.0
C1496 C 0.09439 0.99606 0.92237 0.0
C1497 C 0.15013 0.02107 0.92065 0.0
C1498 C 0.14032 1.01194 0.94341 0.0
C1499 C 0.10228 1.0 0.96835 0.0
C1500 C 0.07483 0.99596 0.96971 0.0
C1501 C 0.1124 1.00143 0.94478 0.0
C1502 C 0.05681 0.98764 0.94744 0.0
C1503 C 0.06653 0.98717 0.92385 0.0
H1504 H 0.8271 0.40504 0.56924 0.0
H1505 H 0.8993 0.38935 0.54957 0.0
H1506 H 0.90137 0.36518 0.58791 0.0
H1507 H 0.88234 0.34739 0.62647 0.0
H1508 H 0.81001 0.36209 0.6465 0.0
H1509 H 0.80844 0.38791 0.6087 0.0
C1510 C 0.84336 0.3965 0.57345 0.0
C1511 C 0.8629 0.39889 0.55647 0.0
C1512 C 0.84439 0.38234 0.59553 0.0
C1513 C 0.88386 0.38768 0.5622 0.0
C1514 C 0.8851 0.37381 0.58413 0.0
C1515 C 0.86612 0.35606 0.62244 0.0
C1516 C 0.84625 0.35271 0.63907 0.0
C1517 C 0.86534 0.37075 0.60076 0.0
C1518 C 0.82563 0.36455 0.63396 0.0
C1519 C 0.82468 0.37921 0.61234 0.0
H1520 H 0.53249 0.10309 0.38443 0.0
H1521 H 0.60076 0.08206 0.36065 0.0
H1522 H 0.61628 0.0797 0.40476 0.0
H1523 H 0.60668 0.07635 0.44911 0.0
H1524 H 0.53747 0.09577 0.47249 0.0
H1525 H 0.52622 0.10605 0.42949 0.0
C1526 C 0.5511 0.09864 0.38888 0.0
C1527 C 0.56511 0.09218 0.36921 0.0
C1528 C 0.55949 0.09646 0.41419 0.0
C1529 C 0.58937 0.08678 0.3754 0.0
C1530 C 0.59818 0.08522 0.40062 0.0
C1531 C 0.58929 0.08311 0.44487 0.0
C1532 C 0.57265 0.08468 0.46387 0.0
C1533 C 0.58274 0.08875 0.42003 0.0
C1534 C 0.55049 0.09404 0.45817 0.0
C1535 C 0.544 0.09993 0.43356 0.0
H1536 H 0.83086 0.7457 0.12014 0.0
H1537 H 0.81797 0.8266 0.10821 0.0
H1538 H 0.81639 0.83569 0.15371 0.0
H1539 H 0.81685 0.82001 0.19739 0.0
H1540 H 0.83005 0.73919 0.20914 0.0
H1541 H 0.83316 0.73101 0.1639 0.0
C1542 C 0.82811 0.76557 0.12745 0.0
C1543 C 0.82467 0.78542 0.11029 0.0
C1544 C 0.8269 0.77063 0.15394 0.0
C1545 C 0.82082 0.81084 0.12057 0.0
C1546 C 0.81975 0.81604 0.14677 0.0
C1547 C 0.82035 0.80055 0.19012 0.0
C1548 C 0.82294 0.7802 0.20712 0.0
C1549 C 0.82238 0.79594 0.16371 0.0
C1550 C 0.82779 0.75532 0.19692 0.0
C1551 C 0.82965 0.75057 0.17085 0.0
H1552 H 0.07771 1.01093 0.77069 0.0
H1553 H 0.06914 0.09095 0.80063 0.0
H1554 H 0.04004 0.09109 0.76266 0.0
H1555 H 0.02691 0.0749 0.71755 0.0
H1556 H 0.03572 0.9953 0.68715 0.0
H1557 H 0.05395 0.98799 0.72899 0.0
C1558 C 0.06892 0.02799 0.76913 0.0
C1559 C 0.07629 0.05138 0.78796 0.0
C1560 C 0.05235 0.02811 0.74712 0.0
C1561 C 0.06418 0.07294 0.78613 0.0
C1562 C 0.04756 0.0731 0.76439 0.0
C1563 C 0.03156 0.05524 0.72031 0.0
C1564 C 0.03091 0.0362 0.69925 0.0
C1565 C 0.04283 0.05169 0.7442 0.0
C1566 C 0.03673 1.01064 0.70311 0.0
C1567 C 0.04741 1.0066 0.72695 0.0
H1568 H 0.79449 0.34345 0.44207 0.0
H1569 H 0.80083 0.42567 0.41397 0.0
H1570 H 0.78875 0.40258 0.37048 0.0
H1571 H 0.78902 0.36196 0.34096 0.0
H1572 H 0.78405 0.28005 0.36929 0.0
H1573 H 0.78239 0.29977 0.41229 0.0
C1574 C 0.79192 0.35594 0.42646 0.0
C1575 C 0.79897 0.3861 0.43084 0.0
C1576 C 0.78593 0.34269 0.40161 0.0
C1577 C 0.79548 0.40235 0.41082 0.0
C1578 C 0.789 0.38923 0.38596 0.0
C1579 C 0.78673 0.34826 0.3565 0.0
C1580 C 0.78748 0.32001 0.35237 0.0
C1581 C 0.78617 0.35987 0.38112 0.0
C1582 C 0.78384 0.30203 0.37226 0.0
C1583 C 0.78305 0.31333 0.39682 0.0
H1584 H 0.47675 0.08533 0.2332 0.0
H1585 H 0.56155 0.11378 0.22398 0.0
H1586 H 0.55102 0.11344 0.17815 0.0
H1587 H 0.51787 0.0952 0.14075 0.0
H1588 H 0.43347 0.05886 0.14996 0.0
H1589 H 0.44344 0.07234 0.19585 0.0
C1590 C 0.49296 0.0924 0.22126 0.0
C1591 C 0.51989 0.09946 0.23182 0.0
C1592 C 0.48667 0.09015 0.1949 0.0
C1593 C 0.54069 0.10819 0.21616 0.0
C1594 C 0.53465 0.10778 0.19 0.0
C1595 C 0.50161 0.09116 0.15277 0.0
C1596 C 0.47499 0.0762 0.14223 0.0
C1597 C 0.50773 0.09732 0.1791 0.0
C1598 C 0.45406 0.07044 0.15785 0.0
C1599 C 0.45981 0.07799 0.184 0.0
H1600 H 0.83682 0.81592 0.9575 0.0
H1601 H 0.82035 0.7236 0.95261 0.0
H1602 H 0.82261 0.7226 0.90676 0.0
H1603 H 0.82705 0.74751 0.86703 0.0
H1604 H 0.84787 0.84037 0.87238 0.0
H1605 H 0.84629 0.84154 0.91838 0.0
C1606 C 0.83405 0.79561 0.94649 0.0
C1607 C 0.82831 0.76983 0.9589 0.0
C1608 C 0.83604 0.79523 0.91986 0.0
C1609 C 0.82495 0.74385 0.94397 0.0
C1610 C 0.82609 0.74321 0.91754 0.0
C1611 C 0.83153 0.76806 0.87828 0.0
C1612 C 0.83751 0.79384 0.86589 0.0
C1613 C 0.83129 0.76869 0.90512 0.0
C1614 C 0.84339 0.82018 0.8811 0.0
C1615 C 0.84234 0.82085 0.90755 0.0
H1616 H 0.81894 0.07495 0.00938 0.0
H1617 H 0.83432 0.07826 0.09088 0.0
H1618 H 0.8638 0.04944 0.08614 0.0
H1619 H 0.88741 0.02585 0.05901 0.0
H1620 H 0.87359 0.02378 0.9776 0.0
H1621 H 0.84125 0.04949 0.98212 0.0
C1622 C 0.82857 0.06916 0.02609 0.0
C1623 C 0.82453 0.07889 0.05043 0.0
C1624 C 0.84584 0.05288 0.02325 0.0
C1625 C 0.83722 0.07125 0.0719 0.0
C1626 C 0.85407 0.05472 0.06923 0.0
C1627 C 0.87693 0.03056 0.04226 0.0
C1628 C 0.88277 0.02292 0.01803 0.0
C1629 C 0.8588 0.04575 0.04503 0.0
C1630 C 0.86946 0.02962 0.99647 0.0
C1631 C 0.851 0.04429 0.99904 0.0
H1632 H 0.42027 0.3997 0.01392 0.0
H1633 H 0.39062 0.45098 0.06515 0.0
H1634 H 0.43039 0.49341 0.06215 0.0
H1635 H 0.47457 0.51508 0.04644 0.0
H1636 H 0.50278 0.46421 0.99332 0.0
H1637 H 0.46225 0.42257 0.99512 0.0
C1638 C 0.42257 0.42018 0.02446 0.0
C1639 C 0.40286 0.42215 0.04013 0.0
C1640 C 0.44505 0.44456 0.02208 0.0
C1641 C 0.40567 0.44894 0.05316 0.0
C1642 C 0.42837 0.47316 0.0514 0.0
C1643 C 0.47168 0.49499 0.03497 0.0
C1644 C 0.49176 0.49275 0.01982 0.0
C1645 C 0.44829 0.47113 0.03609 0.0
C1646 C 0.4876 0.46663 0.00497 0.0
C1647 C 0.46453 0.44272 0.00619 0.0
H1648 H 0.41524 0.60312 0.7503 0.0
H1649 H 0.43872 0.61792 0.8311 0.0
H1650 H 0.40146 0.63648 0.83681 0.0
H1651 H 0.3638 0.65066 0.81827 0.0
H1652 H 0.33977 0.6338 0.73753 0.0
H1653 H 0.3758 0.61362 0.73233 0.0
C1654 C 0.4123 0.61052 0.76918 0.0
C1655 C 0.42991 0.60969 0.79023 0.0
C1656 C 0.39074 0.6206 0.77228 0.0
C1657 C 0.42549 0.61863 0.81462 0.0
C1658 C 0.40421 0.62916 0.81786 0.0
C1659 C 0.36606 0.64197 0.79963 0.0
C1660 C 0.34926 0.64389 0.77828 0.0
C1661 C 0.38684 0.63042 0.79678 0.0
C1662 C 0.35268 0.6329 0.75419 0.0
C1663 C 0.37325 0.62138 0.75121 0.0
H1664 H 0.24362 0.59284 0.58173 0.0
H1665 H 0.22409 0.64591 0.6398 0.0
H1666 H 0.17746 0.6137 0.63465 0.0
H1667 H 0.14088 0.57923 0.60558 0.0
H1668 H 0.16022 0.52956 0.5448 0.0
H1669 H 0.20811 0.55087 0.55948 0.0
C1670 C 0.2294 0.5968 0.59388 0.0
C1671 C 0.23702 0.62227 0.61041 0.0
C1672 C 0.20235 0.57892 0.59002 0.0
C1673 C 0.21851 0.62682 0.6264 0.0
C1674 C 0.19178 0.60846 0.6234 0.0
C1675 C 0.15553 0.57213 0.59632 0.0
C1676 C 0.14729 0.55343 0.5739 0.0
C1677 C 0.18313 0.58569 0.60403 0.0
C1678 C 0.16632 0.54431 0.56195 0.0
C1679 C 0.1937 0.55668 0.5702 0.0
H1680 H 0.74678 0.01879 0.74638 0.0
H1681 H 0.76423 0.04781 0.82633 0.0
H1682 H 0.79923 0.02532 0.83006 0.0
H1683 H 0.81981 0.99151 0.81192 0.0
H1684 H 0.80166 0.96167 0.73219 0.0
H1685 H 0.77197 0.99059 0.72701 0.0
C1686 C 0.7585 0.02053 0.76455 0.0
C1687 C 0.75259 0.03439 0.78614 0.0
C1688 C 0.77824 1.00721 0.76663 0.0
C1689 C 0.76824 0.037 0.80946 0.0
C1690 C 0.78818 0.02406 0.81163 0.0
C1691 C 0.81 0.99201 0.79326 0.0
C1692 C 0.81257 0.9742 0.77254 0.0
C1693 C 0.79266 1.00827 0.79053 0.0
C1694 C 0.79956 0.97485 0.7485 0.0
C1695 C 0.78262 0.99135 0.74554 0.0
H1696 H 0.81095 0.95591 0.51727 0.0
H1697 H 0.75301 0.88126 0.54279 0.0
H1698 H 0.72019 0.90688 0.54343 0.0
H1699 H 0.70772 0.95053 0.536 0.0
H1700 H 0.76681 0.02517 0.51157 0.0
H1701 H 0.79919 0.99944 0.51115 0.0
C1702 C 0.79114 0.94513 0.52294 0.0
C1703 C 0.78449 0.91659 0.52985 0.0
C1704 C 0.77247 0.96002 0.52342 0.0
C1705 C 0.75872 0.90318 0.53733 0.0
C1706 C 0.73992 0.91784 0.53771 0.0
C1707 C 0.72776 0.96125 0.53082 0.0
C1708 C 0.73458 0.98972 0.52353 0.0
C1709 C 0.74655 0.94631 0.53076 0.0
C1710 C 0.76068 1.00312 0.51674 0.0
C1711 C 0.77934 0.98847 0.51663 0.0
H1712 H 0.4656 0.45731 0.76171 0.0
H1713 H 0.41077 0.50553 0.7687 0.0
H1714 H 0.37606 0.46207 0.77936 0.0
H1715 H 0.36084 0.40967 0.78477 0.0
H1716 H 0.4167 0.36261 0.77732 0.0
H1717 H 0.45146 0.40648 0.76888 0.0
C1718 C 0.44609 0.45841 0.76558 0.0
C1719 C 0.4407 0.48451 0.76419 0.0
C1720 C 0.42638 0.43354 0.77162 0.0
C1721 C 0.41539 0.48561 0.76957 0.0
C1722 C 0.39554 0.46079 0.77564 0.0
C1723 C 0.38069 0.40913 0.78154 0.0
C1724 C 0.38603 0.38284 0.78146 0.0
C1725 C 0.40074 0.43453 0.77647 0.0
C1726 C 0.41188 0.38246 0.77723 0.0
C1727 C 0.43186 0.40755 0.77241 0.0
H1728 H 0.2088 0.63663 0.28985 0.0
H1729 H 0.23911 0.61144 0.22238 0.0
H1730 H 0.27225 0.66002 0.22385 0.0
H1731 H 0.29339 0.70918 0.24512 0.0
H1732 H 0.26512 0.73292 0.31447 0.0
H1733 H 0.23057 0.6853 0.31162 0.0
C1734 C 0.22246 0.64195 0.27532 0.0
C1735 C 0.22142 0.62076 0.25589 0.0
C1736 C 0.242 0.66951 0.2768 0.0
C1737 C 0.23956 0.62758 0.23746 0.0
C1738 C 0.25851 0.65527 0.23833 0.0
C1739 C 0.27964 0.7039 0.25957 0.0
C1740 C 0.28179 0.7245 0.27994 0.0
C1741 C 0.26008 0.67632 0.25806 0.0
C1742 C 0.264 0.71734 0.29867 0.0
C1743 C 0.24414 0.69018 0.29701 0.0
H1744 H 0.56734 0.71308 0.47041 0.0
H1745 H 0.49145 0.6893 0.5025 0.0
H1746 H 0.49955 0.64707 0.51833 0.0
H1747 H 0.52799 0.61696 0.52378 0.0
H1748 H 0.6051 0.64083 0.49414 0.0
H1749 H 0.59679 0.68278 0.47685 0.0
C1750 C 0.5526 0.69861 0.48082 0.0
C1751 C 0.52879 0.70452 0.48519 0.0
C1752 C 0.5576 0.67433 0.49042 0.0
C1753 C 0.51001 0.68555 0.49892 0.0
C1754 C 0.51458 0.66126 0.50798 0.0
C1755 C 0.543 0.63119 0.51342 0.0
C1756 C 0.56708 0.62553 0.51015 0.0
C1757 C 0.53829 0.65546 0.50393 0.0
C1758 C 0.58638 0.64459 0.49698 0.0
C1759 C 0.58161 0.6686 0.48704 0.0
H1760 H 0.68355 0.32723 0.70681 0.0
H1761 H 0.7414 0.36107 0.6539 0.0
H1762 H 0.77793 0.361 0.68487 0.0
H1763 H 0.79348 0.34839 0.72571 0.0
H1764 H 0.73634 0.31389 0.77895 0.0
H1765 H 0.69982 0.31751 0.74932 0.0
C1766 C 0.70417 0.33495 0.70219 0.0
C1767 C 0.70953 0.34392 0.67789 0.0
C1768 C 0.72534 0.33463 0.72013 0.0
C1769 C 0.73648 0.35382 0.67231 0.0
C1770 C 0.75751 0.35379 0.69003 0.0
C1771 C 0.7731 0.34188 0.73101 0.0
C1772 C 0.76774 0.33071 0.75452 0.0
C1773 C 0.75215 0.34375 0.7138 0.0
C1774 C 0.74114 0.32255 0.76099 0.0
C1775 C 0.72017 0.32453 0.744 0.0
H1776 H 0.9992 0.35122 0.00441 0.0
H1777 H 0.0794 0.36269 0.98474 0.0
H1778 H 0.09271 0.41482 0.99718 0.0
H1779 H 0.08104 0.45736 0.01248 0.0
H1780 H 0.99959 0.44593 0.0286 0.0
H1781 H 0.98722 0.39369 0.01847 0.0
C1782 C 1.01971 0.36508 0.00318 0.0
C1783 C 0.03843 0.35305 0.99405 0.0
C1784 C 0.02687 0.39512 0.0094 0.0
C1785 C 0.0647 0.3714 0.99191 0.0
C1786 C 0.07227 0.40121 0.99893 0.0
C1787 C 0.06057 0.44344 0.01377 0.0
C1788 C 0.04127 0.45564 0.0213 0.0
C1789 C 0.05344 0.41337 0.00747 0.0
C1790 C 1.0148 0.43724 0.02267 0.0
C1791 C 1.00774 0.40731 0.01702 0.0
H1792 H 0.04661 0.77227 0.18654 0.0
H1793 H 0.05591 0.86324 0.19522 0.0
H1794 H 1.01695 0.85292 0.21916 0.0
H1795 H 0.98003 0.81826 0.23759 0.0
H1796 H 0.97067 0.72737 0.22978 0.0
H1797 H 1.00991 0.73749 0.20584 0.0
C1798 C 0.04012 0.78983 0.19367 0.0
C1799 C 0.05422 0.8185 0.18897 0.0
C1800 C 1.01768 0.78378 0.20767 0.0
C1801 C 0.04555 0.84098 0.19852 0.0
C1802 C 1.0232 0.83511 0.21222 0.0
C1803 C 0.98646 0.80063 0.2305 0.0
C1804 C 0.97232 0.77208 0.23535 0.0
C1805 C 1.00906 0.80662 0.21685 0.0
C1806 C 0.98127 0.74956 0.22645 0.0
C1807 C 1.00364 0.75533 0.21266 0.0
H1808 H 0.56724 0.37607 0.08059 0.0
H1809 H 0.57215 0.41116 0.15793 0.0
H1810 H 0.57393 0.45827 0.14287 0.0
H1811 H 0.57364 0.49054 0.10676 0.0
H1812 H 0.56945 0.45304 0.03007 0.0
H1813 H 0.56787 0.40723 0.04579 0.0
C1814 C 0.56879 0.39387 0.09445 0.0
C1815 C 0.56954 0.38909 0.12075 0.0
C1816 C 0.56993 0.42125 0.08555 0.0
C1817 C 0.5716 0.41331 0.13773 0.0
C1818 C 0.57257 0.44058 0.12897 0.0
C1819 C 0.5725 0.47247 0.09338 0.0
C1820 C 0.57179 0.47639 0.06673 0.0
C1821 C 0.5717 0.44505 0.10278 0.0
C1822 C 0.57017 0.45184 0.0504 0.0
C1823 C 0.56922 0.42512 0.05947 0.0
H1824 H 0.9595 0.26613 0.38125 0.0
H1825 H 1.01338 0.31865 0.33302 0.0
H1826 H 0.97468 0.32699 0.30932 0.0
H1827 H 0.924 0.32031 0.30262 0.0
H1828 H 0.87231 0.26634 0.35198 0.0
H1829 H 0.91088 0.25827 0.37413 0.0
C1830 C 0.96318 0.2793 0.36541 0.0
C1831 C 0.99031 0.29144 0.35935 0.0
C1832 C 0.94057 0.28417 0.35182 0.0
C1833 C 0.99341 0.30845 0.33848 0.0
C1834 C 0.97094 0.31346 0.3249 0.0
C1835 C 0.92104 0.30689 0.3183 0.0
C1836 C 0.89412 0.29431 0.32525 0.0
C1837 C 0.94417 0.30169 0.33143 0.0
C1838 C 0.89185 0.2767 0.34565 0.0
C1839 C 0.91428 0.2719 0.35858 0.0
H1840 H 0.08885 0.73608 0.60966 0.0
H1841 H 0.02694 0.68394 0.6515 0.0
H1842 H 0.028 0.64016 0.62835 0.0
H1843 H 0.04709 0.61483 0.59705 0.0
H1844 H 0.10817 0.66532 0.55378 0.0
H1845 H 0.10672 0.71003 0.5761 0.0
C1846 C 0.07517 0.71528 0.61343 0.0
C1847 C 0.05763 0.7143 0.63279 0.0
C1848 C 0.07589 0.68909 0.59973 0.0
C1849 C 0.04069 0.68633 0.63709 0.0
C1850 C 0.0413 0.66081 0.62375 0.0
C1851 C 0.06013 0.63551 0.5923 0.0
C1852 C 0.07785 0.63583 0.57337 0.0
C1853 C 0.059 0.66166 0.6052 0.0
C1854 C 0.09429 0.66356 0.568 0.0
C1855 C 0.09344 0.68949 0.58091 0.0
H1856 H 0.65306 0.75494 0.83598 0.0
H1857 H 0.67329 0.84427 0.86475 0.0
H1858 H 0.71776 0.8549 0.84865 0.0
H1859 H 0.7529 0.83842 0.82651 0.0
H1860 H 0.72939 0.7485 0.79745 0.0
H1861 H 0.68586 0.73936 0.8132 0.0
C1862 C 0.66689 0.777 0.83881 0.0
C1863 C 0.65856 0.79859 0.85203 0.0
C1864 C 0.69283 0.78308 0.82922 0.0
C1865 C 0.67792 0.8268 0.85485 0.0
C1866 C 0.70385 0.83291 0.84556 0.0
C1867 C 0.73834 0.81677 0.82338 0.0
C1868 C 0.74584 0.79429 0.81019 0.0
C1869 C 0.71191 0.81123 0.83269 0.0
C1870 C 0.72554 0.76667 0.80703 0.0
C1871 C 0.70007 0.76121 0.81625 0.0
H1872 H 0.53242 0.61636 0.68481 0.0
H1873 H 0.45647 0.55259 0.65527 0.0
H1874 H 0.47066 0.55403 0.61254 0.0
H1875 H 0.50893 0.56259 0.58763 0.0
H1876 H 0.58707 0.62138 0.61883 0.0
H1877 H 0.568 0.63313 0.65683 0.0
C1878 C 0.51856 0.60406 0.66867 0.0
C1879 C 0.49362 0.58437 0.67281 0.0
C1880 C 0.52778 0.60326 0.64476 0.0
C1881 C 0.47571 0.56802 0.65219 0.0
C1882 C 0.48405 0.56846 0.62793 0.0
C1883 C 0.52166 0.57837 0.6026 0.0
C1884 C 0.54948 0.59025 0.60112 0.0
C1885 C 0.51077 0.58419 0.62457 0.0
C1886 C 0.56567 0.61149 0.61997 0.0
C1887 C 0.55478 0.61817 0.64166 0.0
H1888 H 0.74759 0.21072 0.02657 0.0
H1889 H 0.80041 0.1647 0.00381 0.0
H1890 H 0.80693 0.19041 0.9654 0.0
H1891 H 0.79928 0.22788 0.93962 0.0
H1892 H 0.74903 0.27583 0.9653 0.0
H1893 H 0.73963 0.24704 1.00116 0.0
C1894 C 0.76037 0.206 0.01317 0.0
C1895 C 0.77357 0.18586 0.01814 0.0
C1896 C 0.76456 0.2213 0.99168 0.0
C1897 C 0.79003 0.18013 1.00047 0.0
C1898 C 0.79385 0.1949 0.97857 0.0
C1899 C 0.78643 0.23218 0.95316 0.0
C1900 C 0.77484 0.25402 0.94962 0.0
C1901 C 0.78158 0.21595 0.97424 0.0
C1902 C 0.75786 0.25889 0.96718 0.0
C1903 C 0.75261 0.24256 0.98785 0.0
H1904 H 0.08823 0.50405 0.20248 0.0
H1905 H 0.15875 0.4906 0.17577 0.0
H1906 H 0.13979 0.48834 0.13195 0.0
H1907 H 0.10795 0.50049 0.10217 0.0
H1908 H 0.038 0.51519 0.12859 0.0
H1909 H 0.05183 0.5064 0.17168 0.0
C1910 C 0.09913 0.49984 0.18706 0.0
C1911 C 0.12519 0.4984 0.19234 0.0
C1912 C 0.08845 0.49936 0.16193 0.0
C1913 C 0.1388 0.49222 0.17223 0.0
C1914 C 0.12809 0.49117 0.14714 0.0
C1915 C 0.09549 0.50115 0.11732 0.0
C1916 C 0.07244 0.50914 0.11262 0.0
C1917 C 0.10371 0.49641 0.1419 0.0
C1918 C 0.05598 0.50931 0.13201 0.0
C1919 C 0.06395 0.50443 0.1566 0.0
H1920 H 0.80646 0.83428 0.45327 0.0
H1921 H 0.85499 0.77989 0.46763 0.0
H1922 H 0.85601 0.77052 0.42229 0.0
H1923 H 0.84477 0.77876 0.37779 0.0
H1924 H 0.79423 0.83074 0.36279 0.0
H1925 H 0.79252 0.83981 0.40831 0.0
C1926 C 0.81695 0.82005 0.44654 0.0
C1927 C 0.83065 0.80797 0.46442 0.0
C1928 C 0.81742 0.81442 0.41992 0.0
C1929 C 0.84417 0.78966 0.45481 0.0
C1930 C 0.84492 0.7843 0.42864 0.0
C1931 C 0.8334 0.79211 0.38443 0.0
C1932 C 0.81987 0.80418 0.36651 0.0
C1933 C 0.83196 0.79682 0.41092 0.0
C1934 C 0.80493 0.82108 0.37583 0.0
C1935 C 0.80392 0.82634 0.40205 0.0
H1936 H 0.54215 0.61429 0.82007 0.0
H1937 H 0.59032 0.57942 0.77424 0.0
H1938 H 0.62122 0.58173 0.81155 0.0
H1939 H 0.62739 0.58183 0.85787 0.0
H1940 H 0.578 0.6144 0.90384 0.0
H1941 H 0.55546 0.62575 0.86596 0.0
C1942 C 0.5599 0.60813 0.8181 0.0
C1943 C 0.56334 0.59565 0.79463 0.0
C1944 C 0.57724 0.60874 0.83979 0.0
C1945 C 0.58676 0.58834 0.79227 0.0
C1946 C 0.60445 0.58956 0.81362 0.0
C1947 C 0.61236 0.59237 0.85955 0.0
C1948 C 0.60389 0.59663 0.8834 0.0
C1949 C 0.59881 0.59785 0.83765 0.0
C1950 C 0.58476 0.61076 0.88559 0.0
C1951 C 0.57161 0.61694 0.8639 0.0
H1952 H 0.83495 0.24667 0.13213 0.0
H1953 H 0.83276 0.16642 0.16217 0.0
H1954 H 0.84574 0.19114 0.20507 0.0
H1955 H 0.8452 0.23206 0.23396 0.0
H1956 H 0.84314 0.31099 0.2033 0.0
H1957 H 0.84462 0.29048 0.16074 0.0
C1958 C 0.83842 0.23492 0.14801 0.0
C1959 C 0.83228 0.20483 0.14435 0.0
C1960 C 0.84429 0.24888 0.17256 0.0
C1961 C 0.83723 0.18966 0.16472 0.0
C1962 C 0.84421 0.20371 0.18927 0.0
C1963 C 0.84572 0.24502 0.21804 0.0
C1964 C 0.843 0.27255 0.22157 0.0
C1965 C 0.84577 0.23278 0.1935 0.0
C1966 C 0.84441 0.28939 0.20093 0.0
C1967 C 0.84531 0.27772 0.17659 0.0
H1968 H 0.21663 0.54481 0.33423 0.0
H1969 H 0.13871 0.47887 0.33009 0.0
H1970 H 0.13855 0.48662 0.37602 0.0
H1971 H 0.15508 0.52037 0.41417 0.0
H1972 H 0.22973 0.59131 0.41677 0.0
H1973 H 0.23695 0.57354 0.37477 0.0
C1974 C 0.20028 0.53124 0.34367 0.0
C1975 C 0.17776 0.51125 0.32907 0.0
C1976 C 0.19944 0.53747 0.36968 0.0
C1977 C 0.15629 0.4942 0.34117 0.0
C1978 C 0.15607 0.49894 0.36733 0.0
C1979 C 0.17344 0.5313 0.40596 0.0
C1980 C 0.19174 0.55725 0.41834 0.0
C1981 C 0.17671 0.52178 0.3814 0.0
C1982 C 0.21526 0.57146 0.40738 0.0
C1983 C 0.21933 0.56133 0.38338 0.0
H1984 H 0.8151 0.84773 0.6254 0.0
H1985 H 0.84094 0.7743 0.60891 0.0
H1986 H 0.83614 0.76151 0.65233 0.0
H1987 H 0.82677 0.772 0.69611 0.0
H1988 H 0.80284 0.84646 0.71378 0.0
H1989 H 0.80465 0.85766 0.66951 0.0
C1990 C 0.81932 0.82869 0.63117 0.0
C1991 C 0.8283 0.81201 0.61339 0.0
C1992 C 0.81704 0.82161 0.65678 0.0
C1993 C 0.83401 0.78768 0.62177 0.0
C1994 C 0.83131 0.7803 0.64681 0.0
C1995 C 0.82165 0.79054 0.69033 0.0
C1996 C 0.8145 0.80816 0.70869 0.0
C1997 C 0.82316 0.79723 0.66466 0.0
C1998 C 0.80832 0.83229 0.70042 0.0
C1999 C 0.8094 0.83879 0.67492 0.0
H2000 H 0.80186 0.49658 0.57684 0.0
H2001 H 0.79127 0.50509 0.49648 0.0
H2002 H 0.7638 0.53551 0.50402 0.0
H2003 H 0.74153 0.55839 0.53301 0.0
H2004 H 0.74968 0.54847 0.61306 0.0
H2005 H 0.77949 0.51999 0.60616 0.0
C2006 C 0.79361 0.50519 0.56102 0.0
C2007 C 0.79859 0.49852 0.53615 0.0
C2008 C 0.77747 0.52245 0.56544 0.0
C2009 C 0.78764 0.50972 0.51581 0.0
C2010 C 0.77198 0.52721 0.52009 0.0
C2011 C 0.75023 0.55038 0.54898 0.0
C2012 C 0.74381 0.55573 0.57351 0.0
C2013 C 0.76668 0.53359 0.54476 0.0
C2014 C 0.75454 0.54465 0.59402 0.0
C2015 C 0.77149 0.52837 0.59005 0.0
H2016 H 0.22043 0.20985 0.55294 0.0
H2017 H 0.25479 0.15048 0.51768 0.0
H2018 H 0.21446 0.10969 0.52315 0.0
H2019 H 0.1687 0.09118 0.53722 0.0
H2020 H 0.13612 0.15161 0.57378 0.0
H2021 H 0.17662 0.19151 0.56884 0.0
C2022 C 0.21909 0.18802 0.54627 0.0
C2023 C 0.24045 0.18329 0.53457 0.0
C2024 C 0.19621 0.16476 0.54996 0.0
C2025 C 0.23855 0.15475 0.52658 0.0
C2026 C 0.21552 0.13142 0.52977 0.0
C2027 C 0.17064 0.11302 0.54442 0.0
C2028 C 0.14924 0.11828 0.55579 0.0
C2029 C 0.19415 0.13617 0.54143 0.0
C2030 C 0.15213 0.1468 0.56489 0.0
C2031 C 0.17528 0.16975 0.56199 0.0
H2032 H 0.24541 0.03635 0.83603 0.0
H2033 H 0.18168 0.98293 0.78017 0.0
H2034 H 0.2113 0.95685 0.76633 0.0
H2035 H 0.25451 0.94772 0.77178 0.0
H2036 H 0.31742 1.00055 0.82866 0.0
H2037 H 0.28901 0.0289 0.84003 0.0
C2038 C 0.23795 0.01905 0.82078 0.0
C2039 C 0.21129 1.01135 0.80934 0.0
C2040 C 0.25498 1.00419 0.81302 0.0
C2041 C 0.20209 0.98915 0.78937 0.0
C2042 C 0.219 0.97425 0.78147 0.0
C2043 C 0.26199 0.96548 0.78664 0.0
C2044 C 0.28798 0.97192 0.79945 0.0
C2045 C 0.24535 0.98133 0.79342 0.0
C2046 C 0.29762 0.99533 0.81832 0.0
C2047 C 0.28129 1.01137 0.825 0.0
H2048 H 0.42835 0.05009 0.99549 0.0
H2049 H 0.42629 0.99866 0.92597 0.0
H2050 H 0.47248 0.02774 0.92141 0.0
H2051 H 0.51605 0.05461 0.94542 0.0
H2052 H 0.5191 0.1046 0.01573 0.0
H2053 H 0.47006 0.09028 0.01145 0.0
C2054 C 0.43756 0.04625 0.97869 0.0
C2055 C 0.4245 0.02159 0.96166 0.0
C2056 C 0.46459 0.06246 0.97668 0.0
C2057 C 0.43639 0.01706 0.93974 0.0
C2058 C 0.46287 0.0336 0.93717 0.0
C2059 C 0.50599 0.06393 0.95884 0.0
C2060 C 0.52079 0.07956 0.98128 0.0
C2061 C 0.47778 0.05452 0.95672 0.0
C2062 C 0.5079 0.09196 0.9985 0.0
C2063 C 0.47976 0.08334 0.99627 0.0
H2064 H 0.93566 0.6027 0.78189 0.0
H2065 H 0.89966 0.57882 0.85084 0.0
H2066 H 0.86269 0.59633 0.83699 0.0
H2067 H 0.84253 0.62109 0.80645 0.0
H2068 H 0.8779 0.64296 0.73673 0.0
H2069 H 0.9134 0.62333 0.74978 0.0
C2070 C 0.91977 0.60141 0.79395 0.0
C2071 C 0.92056 0.59004 0.81757 0.0
C2072 C 0.89854 0.611 0.78569 0.0
C2073 C 0.89952 0.58777 0.8327 0.0
C2074 C 0.87843 0.59771 0.82476 0.0
C2075 C 0.85756 0.6209 0.79376 0.0
C2076 C 0.85761 0.63362 0.77066 0.0
C2077 C 0.8779 0.60961 0.80138 0.0
C2078 C 0.87759 0.63363 0.75472 0.0
C2079 C 0.89788 0.62243 0.76217 0.0
H2080 H 0.88026 0.69049 0.05461 0.0
H2081 H 0.82349 0.62927 0.99775 0.0
H2082 H 0.84994 0.59684 1.00058 0.0
H2083 H 0.88934 0.58577 0.01886 0.0
H2084 H 0.94627 0.64671 0.07568 0.0
H2085 H 0.91985 0.67934 0.07294 0.0
C2086 C 0.87363 0.67003 0.04286 0.0
C2087 C 0.84982 0.6624 0.02601 0.0
C2088 C 0.88907 0.65142 0.04447 0.0
C2089 C 0.84168 0.63581 0.01088 0.0
C2090 C 0.85682 0.61718 0.01248 0.0
C2091 C 0.89587 0.60607 0.03082 0.0
C2092 C 0.91979 0.61368 0.04748 0.0
C2093 C 0.88054 0.62473 0.02919 0.0
C2094 C 0.92814 0.64037 0.06248 0.0
C2095 C 0.91294 0.659 0.06104 0.0
H2096 H 0.18541 0.16645 0.82567 0.0
H2097 H 0.23477 0.11162 0.82816 0.0
H2098 H 0.27248 0.15066 0.81512 0.0
H2099 H 0.29098 0.20042 0.80252 0.0
H2100 H 0.23946 0.25301 0.79705 0.0
H2101 H 0.20291 0.21469 0.8115 0.0
C2102 C 0.20453 0.16318 0.8236 0.0
C2103 C 0.20759 0.13654 0.82815 0.0
C2104 C 0.22557 0.18517 0.81528 0.0
C2105 C 0.23216 0.13217 0.82485 0.0
C2106 C 0.25362 0.15439 0.81736 0.0
C2107 C 0.27169 0.20332 0.80439 0.0
C2108 C 0.26788 0.22938 0.79863 0.0
C2109 C 0.25049 0.18096 0.81237 0.0
C2110 C 0.24279 0.23296 0.80104 0.0
C2111 C 0.22191 0.21117 0.80949 0.0
H2112 H 0.43922 0.99373 0.30815 0.0
H2113 H 0.49756 0.96009 0.27744 0.0
H2114 H 0.46455 0.91131 0.27245 0.0
H2115 H 0.4192 0.87856 0.27639 0.0
H2116 H 0.3609 0.91216 0.30725 0.0
H2117 H 0.39403 0.96088 0.31251 0.0
C2118 C 0.44482 0.97574 0.30041 0.0
C2119 C 0.47086 0.98058 0.29315 0.0
C2120 C 0.42576 0.94786 0.29755 0.0
C2121 C 0.47771 0.957 0.28319 0.0
C2122 C 0.45881 0.92912 0.2803 0.0
C2123 C 0.41365 0.8965 0.28426 0.0
C2124 C 0.38757 0.89172 0.29139 0.0
C2125 C 0.43278 0.92436 0.28732 0.0
C2126 C 0.38082 0.91523 0.30161 0.0
C2127 C 0.39975 0.94308 0.30463 0.0
H2128 H 0.5886 0.3885 0.59992 0.0
H2129 H 0.67314 0.42811 0.59255 0.0
H2130 H 0.66561 0.47276 0.58173 0.0
H2131 H 0.63476 0.50034 0.57283 0.0
H2132 H 0.54956 0.45915 0.5754 0.0
H2133 H 0.55743 0.41571 0.58964 0.0
C2134 C 0.60533 0.40697 0.59602 0.0
C2135 C 0.63141 0.40494 0.59709 0.0
C2136 C 0.6007 0.43241 0.58892 0.0
C2137 C 0.65285 0.42899 0.59171 0.0
C2138 C 0.64858 0.45461 0.58558 0.0
C2139 C 0.61799 0.48194 0.5768 0.0
C2140 C 0.59165 0.48307 0.57338 0.0
C2141 C 0.62258 0.45655 0.58396 0.0
C2142 C 0.57003 0.45883 0.57801 0.0
C2143 C 0.57453 0.43396 0.58611 0.0
H2144 H 0.46764 0.76533 0.37002 0.0
H2145 H 0.41833 0.76323 0.43144 0.0
H2146 H 0.38281 0.76883 0.40234 0.0
H2147 H 0.36689 0.7783 0.36035 0.0
H2148 H 0.41415 0.7784 0.29792 0.0
H2149 H 0.44907 0.76939 0.32637 0.0
C2150 C 0.44899 0.76571 0.37696 0.0
C2151 C 0.44599 0.7642 0.40305 0.0
C2152 C 0.42827 0.7688 0.35997 0.0
C2153 C 0.42148 0.76449 0.41158 0.0
C2154 C 0.40105 0.7678 0.39494 0.0
C2155 C 0.38472 0.77608 0.35292 0.0
C2156 C 0.3881 0.77933 0.32717 0.0
C2157 C 0.40446 0.77063 0.36926 0.0
C2158 C 0.4111 0.77596 0.3177 0.0
C2159 C 0.43112 0.77096 0.334 0.0
H2160 H 0.08491 0.72198 0.1156 0.0
H2161 H 0.1397 0.74951 0.05893 0.0
H2162 H 0.13146 0.69918 0.04356 0.0
H2163 H 0.10969 0.64705 0.0468 0.0
H2164 H 0.05459 0.61956 0.10323 0.0
H2165 H 0.06213 0.6699 0.11803 0.0
C2166 C 0.09485 0.71703 0.09972 0.0
C2167 C 0.11293 0.73969 0.08852 0.0
C2168 C 0.09021 0.68789 0.09103 0.0
C2169 C 0.12568 0.73266 0.068 0.0
C2170 C 0.12107 0.7038 0.05921 0.0
C2171 C 0.09945 0.65205 0.06244 0.0
C2172 C 0.08177 0.6294 0.07396 0.0
C2173 C 0.10363 0.68119 0.07076 0.0
C2174 C 0.0684 0.63642 0.09399 0.0
C2175 C 0.07264 0.66529 0.10248 0.0
H2176 H 0.07785 0.24746 0.85869 0.0
H2177 H 0.10324 0.32503 0.91061 0.0
H2178 H 0.14442 0.34374 0.89033 0.0
H2179 H 0.17385 0.33787 0.85839 0.0
H2180 H 0.14856 0.26077 0.8061 0.0
H2181 H 0.10675 0.24227 0.8258 0.0
C2182 C 0.09233 0.2685 0.86552 0.0
C2183 C 0.08739 0.2847 0.88625 0.0
C2184 C 0.11607 0.27927 0.85369 0.0
C2185 C 0.10641 0.31202 0.89472 0.0
C2186 C 0.13006 0.32276 0.88316 0.0
C2187 C 0.15922 0.31697 0.85138 0.0
C2188 C 0.16437 0.30069 0.83087 0.0
C2189 C 0.1352 0.30651 0.86275 0.0
C2190 C 0.14501 0.27384 0.82174 0.0
C2191 C 0.12114 0.26319 0.83307 0.0
H2192 H 0.54161 0.71659 0.9719 0.0
H2193 H 0.59611 0.71286 0.91672 0.0
H2194 H 0.6004 0.66859 0.93346 0.0
H2195 H 0.58863 0.62985 0.9646 0.0
H2196 H 0.53462 0.63614 0.01974 0.0
H2197 H 0.53049 0.67944 0.00238 0.0
C2198 C 0.55458 0.70636 0.96333 0.0
C2199 C 0.56849 0.71899 0.94268 0.0
C2200 C 0.5571 0.68069 0.97328 0.0
C2201 C 0.58509 0.7045 0.93246 0.0
C2202 C 0.58751 0.67883 0.94215 0.0
C2203 C 0.57584 0.64053 0.97285 0.0
C2204 C 0.56188 0.62869 0.99389 0.0
C2205 C 0.5736 0.66649 0.96266 0.0
C2206 C 0.54572 0.64382 0.00387 0.0
C2207 C 0.54329 0.66898 0.99382 0.0
H2208 H 0.16971 0.83006 0.70384 0.0
H2209 H 0.12664 0.77138 0.75529 0.0
H2210 H 0.1685 0.76834 0.77486 0.0
H2211 H 0.21838 0.78073 0.77821 0.0
H2212 H 0.26309 0.84123 0.72928 0.0
H2213 H 0.22101 0.84477 0.70894 0.0
C2214 C 0.1693 0.81683 0.71949 0.0
C2215 C 0.14372 0.80094 0.72747 0.0
C2216 C 0.19447 0.81511 0.73151 0.0
C2217 C 0.14498 0.784 0.74801 0.0
C2218 C 0.16937 0.78208 0.7595 0.0
C2219 C 0.21916 0.79472 0.76306 0.0
C2220 C 0.24484 0.8104 0.75554 0.0
C2221 C 0.19439 0.79722 0.75145 0.0
C2222 C 0.24433 0.82858 0.73587 0.0
C2223 C 0.2199 0.83069 0.72405 0.0
H2224 H 0.0902 0.40238 0.42577 0.0
H2225 H 0.06657 0.35439 0.49024 0.0
H2226 H 0.06627 0.39798 0.51442 0.0
H2227 H 0.07036 0.45004 0.51775 0.0
H2228 H 0.09555 0.49953 0.45456 0.0
H2229 H 0.09745 0.45624 0.43032 0.0
C2230 C 0.08562 0.40148 0.44528 0.0
C2231 C 0.07859 0.37423 0.45581 0.0
C2232 C 0.08523 0.42736 0.45962 0.0
C2233 C 0.07219 0.37439 0.48119 0.0
C2234 C 0.07183 0.39958 0.49523 0.0
C2235 C 0.07625 0.45154 0.49867 0.0
C2236 C 0.08246 0.47874 0.48831 0.0
C2237 C 0.07782 0.42623 0.48466 0.0
C2238 C 0.0904 0.47943 0.46345 0.0
C2239 C 0.09157 0.45438 0.44939 0.0
H2240 H 0.49003 0.33583 0.21877 0.0
H2241 H 0.47721 0.24545 0.22671 0.0
H2242 H 0.43554 0.24087 0.24502 0.0
H2243 H 0.401 0.26136 0.25991 0.0
H2244 H 0.41339 0.35185 0.25411 0.0
H2245 H 0.45511 0.35688 0.23475 0.0
C2246 C 0.47822 0.31499 0.22429 0.0
C2247 C 0.48808 0.29098 0.22066 0.0
C2248 C 0.45331 0.31226 0.23575 0.0
C2249 C 0.4714 0.26465 0.22876 0.0
C2250 C 0.44701 0.26185 0.23948 0.0
C2251 C 0.41266 0.28237 0.25457 0.0
C2252 C 0.40288 0.30616 0.25908 0.0
C2253 C 0.43751 0.28537 0.2433 0.0
C2254 C 0.41941 0.33285 0.25149 0.0
C2255 C 0.44371 0.3358 0.24013 0.0
H2256 H 0.65678 0.53074 0.4081 0.0
H2257 H 0.57474 0.49012 0.37482 0.0
H2258 H 0.55941 0.48422 0.41696 0.0
H2259 H 0.56833 0.50043 0.46211 0.0
H2260 H 0.64999 0.5451 0.49548 0.0
H2261 H 0.66666 0.53915 0.45468 0.0
C2262 C 0.63577 0.51952 0.41027 0.0
C2263 C 0.61679 0.5108 0.38879 0.0
C2264 C 0.62702 0.51762 0.43452 0.0
C2265 C 0.58953 0.49676 0.39138 0.0
C2266 C 0.58079 0.49369 0.4154 0.0
C2267 C 0.58982 0.50839 0.46058 0.0
C2268 C 0.6078 0.52396 0.48149 0.0
C2269 C 0.59916 0.50562 0.43699 0.0
C2270 C 0.63566 0.53345 0.47947 0.0
C2271 C 0.64522 0.53015 0.45613 0.0
H2272 H 0.35479 0.93175 0.07415 0.0
H2273 H 0.43032 0.92479 0.05437 0.0
H2274 H 0.434 0.89933 0.09172 0.0
H2275 H 0.41379 0.87504 0.12784 0.0
H2276 H 0.33838 0.88176 0.14781 0.0
H2277 H 0.33667 0.91135 0.11268 0.0
C2278 C 0.37227 0.92512 0.07825 0.0
C2279 C 0.39202 0.92981 0.06127 0.0
C2280 C 0.37414 0.91009 0.09964 0.0
C2281 C 0.41463 0.92116 0.06694 0.0
C2282 C 0.41674 0.90649 0.08828 0.0
C2283 C 0.39708 0.88312 0.1245 0.0
C2284 C 0.37614 0.87607 0.14013 0.0
C2285 C 0.39625 0.9001 0.10433 0.0
C2286 C 0.35477 0.887 0.13597 0.0
C2287 C 0.35374 0.90383 0.11587 0.0
H2288 H 1.01474 0.59509 0.89602 0.0
H2289 H 0.09191 0.59063 0.87882 0.0
H2290 H 0.10414 0.58695 0.92348 0.0
H2291 H 0.0899 0.57682 0.9656 0.0
H2292 H 1.012 0.57915 0.98256 0.0
H2293 H 1.00313 0.59196 0.93977 0.0
C2294 C 0.03455 0.59417 0.90213 0.0
C2295 C 0.05219 0.59257 0.88408 0.0
C2296 C 0.04106 0.59099 0.92768 0.0
C2297 C 0.07782 0.59151 0.89233 0.0
C2298 C 0.08476 0.58919 0.91783 0.0
C2299 C 0.07108 0.5804 0.96001 0.0
C2300 C 0.05137 0.57635 0.97696 0.0
C2301 C 0.06601 0.58745 0.93538 0.0
C2302 C 0.02737 0.58177 0.96972 0.0
C2303 C 1.02227 0.58908 0.94526 0.0
H2304 H 0.30949 0.31031 0.6162 0.0
H2305 H 0.35409 0.25063 0.61497 0.0
H2306 H 0.35794 0.25313 0.66141 0.0
H2307 H 0.34702 0.27074 0.7029 0.0
H2308 H 0.30227 0.33038 0.70343 0.0
H2309 H 0.30016 0.32922 0.65733 0.0
C2310 C 0.3204 0.29809 0.62599 0.0
C2311 C 0.33158 0.28037 0.61163 0.0
C2312 C 0.32229 0.29934 0.65291 0.0
C2313 C 0.34538 0.26462 0.62512 0.0
C2314 C 0.34746 0.26591 0.65185 0.0
C2315 C 0.33678 0.28351 0.69299 0.0
C2316 C 0.32469 0.30053 0.70712 0.0
C2317 C 0.33569 0.28289 0.66604 0.0
C2318 C 0.31177 0.31701 0.69352 0.0
C2319 C 0.31054 0.31639 0.66695 0.0
H2320 H 0.5499 0.51927 0.27113 0.0
H2321 H 0.61163 0.49285 0.23886 0.0
H2322 H 0.58771 0.48759 0.19643 0.0
H2323 H 0.55648 0.5031 0.16878 0.0
H2324 H 0.49826 0.53525 0.20129 0.0
H2325 H 0.51319 0.52517 0.24347 0.0
C2326 C 0.5578 0.51168 0.25486 0.0
C2327 C 0.58292 0.50744 0.25789 0.0
C2328 C 0.54469 0.51013 0.23059 0.0
C2329 C 0.59254 0.49674 0.23689 0.0
C2330 C 0.57896 0.49395 0.21263 0.0
C2331 C 0.54629 0.50671 0.18496 0.0
C2332 C 0.52664 0.52031 0.18219 0.0
C2333 C 0.55604 0.50243 0.2092 0.0
C2334 C 0.51364 0.52508 0.2032 0.0
C2335 C 0.52232 0.51953 0.22726 0.0
H2336 H 0.32026 0.85572 0.9503 0.0
H2337 H 0.30825 0.93207 0.92302 0.0
H2338 H 0.29223 0.90655 0.8807 0.0
H2339 H 0.29194 0.86664 0.8501 0.0
H2340 H 0.30623 0.79125 0.87758 0.0
H2341 H 0.31061 0.8121 0.9212 0.0
C2342 C 0.31324 0.86641 0.93527 0.0
C2343 C 0.31597 0.89582 0.93948 0.0
C2344 C 0.30503 0.85197 0.91089 0.0
C2345 C 0.30644 0.90943 0.92013 0.0
C2346 C 0.29761 0.89495 0.89585 0.0
C2347 C 0.29538 0.85446 0.86564 0.0
C2348 C 0.29964 0.82787 0.86059 0.0
C2349 C 0.29845 0.86684 0.89073 0.0
C2350 C 0.30344 0.81205 0.88092 0.0
C2351 C 0.306 0.82397 0.90591 0.0
H2352 H 0.98175 0.58235 0.74 0.0
H2353 H 0.06805 0.60932 0.73958 0.0
H2354 H 0.06271 0.60703 0.69315 0.0
H2355 H 0.03351 0.58607 0.65368 0.0
H2356 H 0.9477 0.54936 0.65517 0.0
H2357 H 0.95245 0.56714 0.70011 0.0
C2358 C 0.99943 0.58871 0.72978 0.0
C2359 C 1.02527 0.59577 0.74302 0.0
C2360 C 0.99607 0.58506 0.70323 0.0
C2361 C 0.048 0.60367 0.72965 0.0
C2362 C 0.04491 0.60215 0.70317 0.0
C2363 C 1.01584 0.58303 0.66374 0.0
C2364 C 0.9903 0.56672 0.65148 0.0
C2365 C 1.01904 0.5912 0.68983 0.0
C2366 C 0.96744 0.56213 0.66444 0.0
C2367 C 0.97025 0.57204 0.69009 0.0
H2368 H 0.33551 0.24622 0.44818 0.0
H2369 H 0.31904 0.32508 0.46745 0.0
H2370 H 0.32345 0.33782 0.42394 0.0
H2371 H 0.32983 0.32597 0.3795 0.0
H2372 H 0.34428 0.24625 0.35913 0.0
H2373 H 0.34293 0.2348 0.40338 0.0
C2374 C 0.3332 0.26638 0.44298 0.0
C2375 C 0.32701 0.28464 0.46156 0.0
C2376 C 0.33528 0.27348 0.41739 0.0
C2377 C 0.32378 0.31046 0.45395 0.0
C2378 C 0.32628 0.31782 0.42888 0.0
C2379 C 0.33303 0.30621 0.38467 0.0
C2380 C 0.33736 0.28719 0.36557 0.0
C2381 C 0.33173 0.29941 0.4103 0.0
C2382 C 0.34103 0.26152 0.37307 0.0
C2383 C 0.34019 0.25487 0.39854 0.0
H2384 H 0.35892 0.58918 0.60118 0.0
H2385 H 0.35763 0.63298 0.53319 0.0
H2386 H 0.38588 0.60824 0.51467 0.0
H2387 H 0.41219 0.57544 0.51818 0.0
H2388 H 0.41457 0.53235 0.58632 0.0
H2389 H 0.38431 0.55515 0.60418 0.0
C2390 C 0.36471 0.59322 0.58227 0.0
C2391 C 0.35624 0.61305 0.56868 0.0
C2392 C 0.3811 0.57898 0.5717 0.0
C2393 C 0.3639 0.61794 0.54415 0.0
C2394 C 0.38008 0.60379 0.53351 0.0
C2395 C 0.40608 0.57106 0.53695 0.0
C2396 C 0.41562 0.55228 0.55091 0.0
C2397 C 0.389 0.5845 0.5472 0.0
C2398 C 0.40724 0.54646 0.57505 0.0
C2399 C 0.39011 0.55966 0.58535 0.0
H2400 H 0.9313 0.89932 0.51511 0.0
H2401 H 0.89637 0.94342 0.56776 0.0
H2402 H 0.93442 0.98823 0.56735 0.0
H2403 H 0.97888 0.01389 0.55395 0.0
H2404 H 1.01253 0.97081 0.49922 0.0
H2405 H 0.9734 0.9267 0.49798 0.0
C2406 C 0.93207 0.91879 0.52647 0.0
C2407 C 0.91139 0.91801 0.54185 0.0
C2408 C 0.9536 0.94464 0.52554 0.0
C2409 C 0.9122 0.94349 0.55597 0.0
C2410 C 0.93391 0.96908 0.55571 0.0
C2411 C 0.97741 0.99497 0.54142 0.0
C2412 C 0.99861 0.99554 0.52676 0.0
C2413 C 0.95486 0.96979 0.5408 0.0
C2414 C 0.99639 0.97099 0.5105 0.0
C2415 C 0.97415 0.94568 0.51001 0.0
H2416 H 0.91084 0.08127 0.27024 0.0
H2417 H 0.96709 0.1406 0.3286 0.0
H2418 H 0.93307 0.16275 0.3378 0.0
H2419 H 0.88843 0.16723 0.32714 0.0
H2420 H 0.8327 0.10818 0.2683 0.0
H2421 H 0.86529 0.08336 0.26182 0.0
C2422 C 0.91567 0.09902 0.28503 0.0
C2423 C 0.94156 0.10961 0.29847 0.0
C2424 C 0.89607 0.11151 0.29021 0.0
C2425 C 0.94734 0.1322 0.3179 0.0
C2426 C 0.92792 0.14486 0.32314 0.0
C2427 C 0.8834 0.14879 0.31302 0.0
C2428 C 0.85832 0.13968 0.29805 0.0
C2429 C 0.90239 0.13499 0.30911 0.0
C2430 C 0.8518 0.11546 0.28016 0.0
C2431 C 0.87051 0.10146 0.27628 0.0
H2432 H 0.6921 0.11933 0.12926 0.0
H2433 H 0.72059 0.05829 0.08816 0.0
H2434 H 0.67501 0.0235 0.0817 0.0
H2435 H 0.62701 0.01752 0.07649 0.0
H2436 H 0.59857 0.08153 0.11248 0.0
H2437 H 0.64386 0.10735 0.13324 0.0
C2438 C 0.68849 0.09808 0.11955 0.0
C2439 C 0.70944 0.09184 0.10825 0.0
C2440 C 0.66205 0.07875 0.11487 0.0
C2441 C 0.70467 0.06392 0.09646 0.0
C2442 C 0.67856 0.04403 0.09268 0.0
C2443 C 0.63057 0.03634 0.08991 0.0
C2444 C 0.60991 0.04822 0.09241 0.0
C2445 C 0.65696 0.05216 0.10012 0.0
C2446 C 0.61431 0.07218 0.11011 0.0
C2447 C 0.64035 0.08726 0.12158 0.0
H2448 H 0.30307 0.5509 0.25193 0.0
H2449 H 0.24 0.4733 0.21863 0.0
H2450 H 0.27241 0.44761 0.21715 0.0
H2451 H 0.31592 0.44474 0.23276 0.0
H2452 H 0.37859 0.52089 0.26898 0.0
H2453 H 0.34921 0.54986 0.26126 0.0
C2454 C 0.29652 0.52854 0.24388 0.0
C2455 C 0.26905 0.51382 0.23598 0.0
C2456 C 0.31516 0.51363 0.24372 0.0
C2457 C 0.26094 0.48496 0.22532 0.0
C2458 C 0.27946 0.47025 0.22443 0.0
C2459 C 0.32368 0.46791 0.23804 0.0
C2460 C 0.34932 0.48058 0.25171 0.0
C2461 C 0.30632 0.48401 0.23461 0.0
C2462 C 0.35881 0.51059 0.25865 0.0
C2463 C 0.34193 0.52708 0.25444 0.0
H2464 H 0.2973 0.46383 0.07242 0.0
H2465 H 0.24445 0.38852 0.02558 0.0
H2466 H 0.21004 0.41178 0.0206 0.0
H2467 H 0.1953 0.45415 0.02863 0.0
H2468 H 0.24848 0.52931 0.0754 0.0
H2469 H 0.28232 0.50555 0.08113 0.0
C2470 C 0.27825 0.45241 0.06117 0.0
C2471 C 0.27359 0.42441 0.04939 0.0
C2472 C 0.25856 0.46598 0.05825 0.0
C2473 C 0.24869 0.41007 0.03486 0.0
C2474 C 0.22896 0.42338 0.03199 0.0
C2475 C 0.21417 0.4652 0.0403 0.0
C2476 C 0.2193 0.4936 0.05145 0.0
C2477 C 0.23369 0.45139 0.04351 0.0
C2478 C 0.24407 0.50766 0.06627 0.0
C2479 C 0.26343 0.49403 0.06967 0.0
H2480 H 0.96183 0.94001 0.25351 0.0
H2481 H 0.91296 0.99209 0.27299 0.0
H2482 H 0.87785 0.94905 0.28339 0.0
H2483 H 0.86083 0.89651 0.28636 0.0
H2484 H 0.91022 0.84493 0.26685 0.0
H2485 H 0.94534 0.88802 0.25719 0.0
C2486 C 0.9435 0.942 0.26001 0.0
C2487 C 0.94 0.9692 0.26238 0.0
C2488 C 0.92349 0.91727 0.26602 0.0
C2489 C 0.91617 0.97138 0.27097 0.0
C2490 C 0.89608 0.94679 0.27693 0.0
C2491 C 0.87932 0.89471 0.28012 0.0
C2492 C 0.88279 0.8675 0.2773 0.0
C2493 C 0.89951 0.91961 0.27448 0.0
C2494 C 0.90691 0.86557 0.26916 0.0
C2495 C 0.92705 0.89021 0.26359 0.0
H2496 H 0.72344 0.12606 0.80536 0.0
H2497 H 0.66854 0.14938 0.75326 0.0
H2498 H 0.70065 0.19878 0.75516 0.0
H2499 H 0.74554 0.23428 0.77 0.0
H2500 H 0.79855 0.21167 0.82474 0.0
H2501 H 0.76601 0.16268 0.82344 0.0
C2502 C 0.71845 0.14212 0.79466 0.0
C2503 C 0.69394 0.13432 0.77905 0.0
C2504 C 0.73675 0.17029 0.79612 0.0
C2505 C 0.68734 0.15515 0.76547 0.0
C2506 C 0.70574 0.18322 0.76641 0.0
C2507 C 0.74984 0.21848 0.78155 0.0
C2508 C 0.77438 0.226 0.79707 0.0
C2509 C 0.7307 0.19083 0.78132 0.0
C2510 C 0.77975 0.20596 0.81253 0.0
C2511 C 0.7612 0.1781 0.81181 0.0
loop_
_geom_bond_atom_site_label_1
_geom_bond_atom_site_label_2
_geom_bond_distance
_geom_bond_site_symmetry_2
_ccdc_geom_bond_type
Zn0 O3 2.031 . S
Zn0 O5 2.049 . S
Zn0 O10 2.067 1_455 S
Zn1 O2 1.962 . S
Zn1 O4 1.986 . S
Zn1 O6 1.996 . S
Zn1 O9 1.943 . S
O2 Zn1 1.962 . S
O2 C7 1.254 . S
O3 Zn0 2.031 . S
O3 C7 1.269 . S
O4 Zn1 1.986 . S
O4 C11 1.262 . S
O5 Zn0 2.049 . S
O5 C13 1.260 . S
O6 Zn1 1.996 . S
O6 C13 1.257 . S
C7 O2 1.254 . S
C7 O3 1.269 . S
C8 O9 1.249 . S
C8 O10 1.270 1_455 S
O9 Zn1 1.943 . S
O9 C8 1.249 . S
O10 Zn0 2.067 1_655 S
O10 C8 1.270 1_655 S
C11 O4 1.262 . S
C11 O12 1.232 . S
O12 C11 1.232 . S
C13 O5 1.260 . S
C13 O6 1.257 . S
Zn14 O17 2.031 . S
Zn14 O19 2.049 . S
Zn14 O24 2.067 . S
Zn15 O16 1.962 . S
Zn15 O18 1.986 . S
Zn15 O20 1.996 . S
Zn15 O23 1.943 . S
O16 Zn15 1.962 . S
O16 C21 1.254 . S
O17 Zn14 2.031 . S
O17 C21 1.269 . S
O18 Zn15 1.986 . S
O18 C25 1.262 . S
O19 Zn14 2.049 . S
O19 C27 1.260 . S
O20 Zn15 1.996 . S
O20 C27 1.257 . S
C21 O16 1.254 . S
C21 O17 1.269 . S
C22 O23 1.249 . S
C22 O24 1.270 . S
O23 Zn15 1.943 . S
O23 C22 1.249 . S
O24 Zn14 2.067 . S
O24 C22 1.270 . S
C25 O18 1.262 . S
C25 O26 1.232 . S
O26 C25 1.232 . S
C27 O19 1.260 . S
C27 O20 1.257 . S
Zn28 O31 2.031 . S
Zn28 O33 2.049 . S
Zn28 O38 2.067 . S
Zn29 O30 1.962 . S
Zn29 O32 1.986 . S
Zn29 O34 1.996 . S
Zn29 O37 1.943 . S
O30 Zn29 1.962 . S
O30 C35 1.254 . S
O31 Zn28 2.031 . S
O31 C35 1.269 . S
O32 Zn29 1.986 . S
O32 C39 1.262 . S
O33 Zn28 2.049 . S
O33 C41 1.260 . S
O34 Zn29 1.996 . S
O34 C41 1.257 . S
C35 O30 1.254 . S
C35 O31 1.269 . S
C36 O37 1.249 . S
C36 O38 1.270 . S
O37 Zn29 1.943 . S
O37 C36 1.249 . S
O38 Zn28 2.067 . S
O38 C36 1.270 . S
C39 O32 1.262 . S
C39 O40 1.232 . S
O40 C39 1.232 . S
C41 O33 1.260 . S
C41 O34 1.257 . S
Zn42 O45 2.031 . S
Zn42 O47 2.049 . S
Zn42 O52 2.067 . S
Zn43 O44 1.962 . S
Zn43 O46 1.986 . S
Zn43 O48 1.996 . S
Zn43 O51 1.943 . S
O44 Zn43 1.962 . S
O44 C49 1.254 . S
O45 Zn42 2.031 . S
O45 C49 1.269 . S
O46 Zn43 1.986 . S
O46 C53 1.262 . S
O47 Zn42 2.049 . S
O47 C55 1.260 . S
O48 Zn43 1.996 . S
O48 C55 1.257 . S
C49 O44 1.254 . S
C49 O45 1.269 . S
C50 O51 1.249 . S
C50 O52 1.270 . S
O51 Zn43 1.943 . S
O51 C50 1.249 . S
O52 Zn42 2.067 . S
O52 C50 1.270 . S
C53 O46 1.262 . S
C53 O54 1.232 . S
O54 C53 1.232 . S
C55 O47 1.260 . S
C55 O48 1.257 . S
Zn56 O59 2.031 . S
Zn56 O61 2.049 . S
Zn56 O66 2.067 . S
Zn57 O58 1.962 . S
Zn57 O60 1.986 . S
Zn57 O62 1.996 . S
Zn57 O65 1.943 . S
O58 Zn57 1.962 . S
O58 C63 1.254 . S
O59 Zn56 2.031 . S
O59 C63 1.269 . S
O60 Zn57 1.986 . S
O60 C67 1.262 . S
O61 Zn56 2.049 . S
O61 C69 1.260 . S
O62 Zn57 1.996 . S
O62 C69 1.257 . S
C63 O58 1.254 . S
C63 O59 1.269 . S
C64 O65 1.249 . S
C64 O66 1.270 . S
O65 Zn57 1.943 . S
O65 C64 1.249 . S
O66 Zn56 2.067 . S
O66 C64 1.270 . S
C67 O60 1.262 . S
C67 O68 1.232 . S
O68 C67 1.232 . S
C69 O61 1.260 . S
C69 O62 1.257 . S
Zn70 O73 2.031 . S
Zn70 O75 2.049 . S
Zn70 O80 2.067 . S
Zn71 O72 1.962 . S
Zn71 O74 1.986 . S
Zn71 O76 1.996 . S
Zn71 O79 1.943 . S
O72 Zn71 1.962 . S
O72 C77 1.254 . S
O73 Zn70 2.031 . S
O73 C77 1.269 . S
O74 Zn71 1.986 . S
O74 C81 1.262 . S
O75 Zn70 2.049 . S
O75 C83 1.260 . S
O76 Zn71 1.996 . S
O76 C83 1.257 . S
C77 O72 1.254 . S
C77 O73 1.269 . S
C78 O79 1.249 . S
C78 O80 1.270 . S
O79 Zn71 1.943 . S
O79 C78 1.249 . S
O80 Zn70 2.067 . S
O80 C78 1.270 . S
C81 O74 1.262 . S
C81 O82 1.232 . S
O82 C81 1.232 . S
C83 O75 1.260 . S
C83 O76 1.257 . S
Zn84 O87 2.031 . S
Zn84 O89 2.049 . S
Zn84 O94 2.067 . S
Zn85 O86 1.962 . S
Zn85 O88 1.986 . S
Zn85 O90 1.996 . S
Zn85 O93 1.943 . S
O86 Zn85 1.962 . S
O86 C91 1.254 . S
O87 Zn84 2.031 . S
O87 C91 1.269 . S
O88 Zn85 1.986 . S
O88 C95 1.262 . S
O89 Zn84 2.049 . S
O89 C97 1.260 . S
O90 Zn85 1.996 . S
O90 C97 1.257 . S
C91 O86 1.254 . S
C91 O87 1.269 . S
C92 O93 1.249 . S
C92 O94 1.270 . S
O93 Zn85 1.943 . S
O93 C92 1.249 . S
O94 Zn84 2.067 . S
O94 C92 1.270 . S
C95 O88 1.262 . S
C95 O96 1.232 . S
O96 C95 1.232 . S
C97 O89 1.260 . S
C97 O90 1.257 . S
Zn98 O101 2.031 . S
Zn98 O103 2.049 . S
Zn98 O108 2.067 . S
Zn99 O100 1.962 . S
Zn99 O102 1.986 . S
Zn99 O104 1.995 1_455 S
Zn99 O107 1.943 1_455 S
O100 Zn99 1.962 . S
O100 C105 1.254 . S
O101 Zn98 2.031 . S
O101 C105 1.269 1_655 S
O102 Zn99 1.986 . S
O102 C109 1.262 . S
O103 Zn98 2.049 . S
O103 C111 1.260 . S
O104 Zn99 1.995 1_655 S
O104 C111 1.260 . S
C105 O100 1.254 . S
C105 O101 1.269 1_455 S
C106 O107 1.249 . S
C106 O108 1.270 . S
O107 Zn99 1.943 1_655 S
O107 C106 1.249 . S
O108 Zn98 2.067 . S
O108 C106 1.270 . S
C109 O102 1.262 . S
C109 O110 1.232 . S
O110 C109 1.232 . S
C111 O103 1.260 . S
C111 O104 1.260 . S
Zn112 O115 2.031 1_565 S
Zn112 O117 2.049 1_565 S
Zn112 O122 2.067 . S
Zn113 O114 1.962 . S
Zn113 O116 1.986 . S
Zn113 O118 1.996 . S
Zn113 O121 1.943 . S
O114 Zn113 1.962 . S
O114 C119 1.254 . S
O115 Zn112 2.031 1_545 S
O115 C119 1.269 . S
O116 Zn113 1.986 . S
O116 C123 1.262 . S
O117 Zn112 2.049 1_545 S
O117 C125 1.260 . S
O118 Zn113 1.996 . S
O118 C125 1.257 . S
C119 O114 1.254 . S
C119 O115 1.269 . S
C120 O121 1.249 1_565 S
C120 O122 1.270 . S
O121 Zn113 1.943 . S
O121 C120 1.249 1_545 S
O122 Zn112 2.067 . S
O122 C120 1.270 . S
C123 O116 1.262 . S
C123 O124 1.232 . S
O124 C123 1.232 . S
C125 O117 1.260 . S
C125 O118 1.257 . S
Zn126 O129 2.031 . S
Zn126 O131 2.049 . S
Zn126 O136 2.067 . S
Zn127 O128 1.962 . S
Zn127 O130 1.986 . S
Zn127 O132 1.996 . S
Zn127 O135 1.943 . S
O128 Zn127 1.962 . S
O128 C133 1.254 . S
O129 Zn126 2.031 . S
O129 C133 1.269 . S
O130 Zn127 1.986 . S
O130 C137 1.262 . S
O131 Zn126 2.049 . S
O131 C139 1.260 . S
O132 Zn127 1.996 . S
O132 C139 1.257 . S
C133 O128 1.254 . S
C133 O129 1.269 . S
C134 O135 1.249 . S
C134 O136 1.270 . S
O135 Zn127 1.943 . S
O135 C134 1.249 . S
O136 Zn126 2.067 . S
O136 C134 1.270 . S
C137 O130 1.262 . S
C137 O138 1.232 . S
O138 C137 1.232 . S
C139 O131 1.260 . S
C139 O132 1.257 . S
Zn140 O143 2.031 . S
Zn140 O145 2.049 . S
Zn140 O150 2.067 . S
Zn141 O142 1.962 . S
Zn141 O144 1.986 . S
Zn141 O146 1.996 . S
Zn141 O149 1.943 . S
O142 Zn141 1.962 . S
O142 C147 1.254 . S
O143 Zn140 2.031 . S
O143 C147 1.269 . S
O144 Zn141 1.986 . S
O144 C151 1.262 . S
O145 Zn140 2.049 . S
O145 C153 1.260 . S
O146 Zn141 1.996 . S
O146 C153 1.257 . S
C147 O142 1.254 . S
C147 O143 1.269 . S
C148 O149 1.249 . S
C148 O150 1.270 . S
O149 Zn141 1.943 . S
O149 C148 1.249 . S
O150 Zn140 2.067 . S
O150 C148 1.270 . S
C151 O144 1.262 . S
C151 O152 1.232 . S
O152 C151 1.232 . S
C153 O145 1.260 . S
C153 O146 1.257 . S
Zn154 O157 2.031 1_554 S
Zn154 O159 2.049 . S
Zn154 O164 2.067 . S
Zn155 O156 1.962 . S
Zn155 O158 1.986 1_556 S
Zn155 O160 1.996 1_556 S
Zn155 O163 1.943 1_556 S
O156 Zn155 1.962 . S
O156 C161 1.254 . S
O157 Zn154 2.031 1_556 S
O157 C161 1.269 . S
O158 Zn155 1.986 1_554 S
O158 C165 1.262 1_554 S
O159 Zn154 2.049 . S
O159 C167 1.260 . S
O160 Zn155 1.996 1_554 S
O160 C167 1.257 . S
C161 O156 1.254 . S
C161 O157 1.269 . S
C162 O163 1.249 . S
C162 O164 1.270 . S
O163 Zn155 1.943 1_554 S
O163 C162 1.249 . S
O164 Zn154 2.067 . S
O164 C162 1.270 . S
C165 O158 1.262 1_556 S
C165 O166 1.232 . S
O166 C165 1.232 . S
C167 O159 1.260 . S
C167 O160 1.257 . S
Zn168 O171 2.031 . S
Zn168 O173 2.049 . S
Zn168 O178 2.067 . S
Zn169 O170 1.962 . S
Zn169 O172 1.986 . S
Zn169 O174 1.996 . S
Zn169 O177 1.943 . S
O170 Zn169 1.962 . S
O170 C175 1.254 1_554 S
O171 Zn168 2.031 . S
O171 C175 1.269 1_554 S
O172 Zn169 1.986 . S
O172 C179 1.262 . S
O173 Zn168 2.049 . S
O173 C181 1.260 . S
O174 Zn169 1.996 . S
O174 C181 1.257 . S
C175 O170 1.254 1_556 S
C175 O171 1.269 1_556 S
C176 O177 1.249 . S
C176 O178 1.270 . S
O177 Zn169 1.943 . S
O177 C176 1.249 . S
O178 Zn168 2.067 . S
O178 C176 1.270 . S
C179 O172 1.262 . S
C179 O180 1.232 . S
O180 C179 1.232 . S
C181 O173 1.260 . S
C181 O174 1.257 . S
Zn182 O185 2.031 . S
Zn182 O187 2.049 . S
Zn182 O192 2.067 . S
Zn183 O184 1.962 . S
Zn183 O186 1.986 . S
Zn183 O188 1.996 . S
Zn183 O191 1.943 . S
O184 Zn183 1.962 . S
O184 C189 1.254 . S
O185 Zn182 2.031 . S
O185 C189 1.269 . S
O186 Zn183 1.986 . S
O186 C193 1.262 . S
O187 Zn182 2.049 . S
O187 C195 1.260 . S
O188 Zn183 1.996 . S
O188 C195 1.257 . S
C189 O184 1.254 . S
C189 O185 1.269 . S
C190 O191 1.249 . S
C190 O192 1.270 . S
O191 Zn183 1.943 . S
O191 C190 1.249 . S
O192 Zn182 2.067 . S
O192 C190 1.270 . S
C193 O186 1.262 . S
C193 O194 1.232 . S
O194 C193 1.232 . S
C195 O187 1.260 . S
C195 O188 1.257 . S
Zn196 O199 2.031 . S
Zn196 O201 2.049 . S
Zn196 O206 2.067 . S
Zn197 O198 1.962 . S
Zn197 O200 1.986 . S
Zn197 O202 1.996 . S
Zn197 O205 1.943 . S
O198 Zn197 1.962 . S
O198 C203 1.254 . S
O199 Zn196 2.031 . S
O199 C203 1.269 . S
O200 Zn197 1.986 . S
O200 C207 1.262 . S
O201 Zn196 2.049 . S
O201 C209 1.260 . S
O202 Zn197 1.996 . S
O202 C209 1.257 . S
C203 O198 1.254 . S
C203 O199 1.269 . S
C204 O205 1.249 . S
C204 O206 1.270 . S
O205 Zn197 1.943 . S
O205 C204 1.249 . S
O206 Zn196 2.067 . S
O206 C204 1.270 . S
C207 O200 1.262 . S
C207 O208 1.232 . S
O208 C207 1.232 . S
C209 O201 1.260 . S
C209 O202 1.257 . S
Zn210 O213 2.031 . S
Zn210 O215 2.049 . S
Zn210 O220 2.067 . S
Zn211 O212 1.962 . S
Zn211 O214 1.986 . S
Zn211 O216 1.996 . S
Zn211 O219 1.943 . S
O212 Zn211 1.962 . S
O212 C217 1.254 . S
O213 Zn210 2.031 . S
O213 C217 1.269 . S
O214 Zn211 1.986 . S
O214 C221 1.262 . S
O215 Zn210 2.049 . S
O215 C223 1.260 . S
O216 Zn211 1.996 . S
O216 C223 1.257 . S
C217 O212 1.254 . S
C217 O213 1.269 . S
C218 O219 1.249 . S
C218 O220 1.270 . S
O219 Zn211 1.943 . S
O219 C218 1.249 . S
O220 Zn210 2.067 . S
O220 C218 1.270 . S
C221 O214 1.262 . S
C221 O222 1.232 . S
O222 C221 1.232 . S
C223 O215 1.260 . S
C223 O216 1.257 . S
Zn224 O227 2.031 . S
Zn224 O229 2.049 . S
Zn224 O234 2.067 . S
Zn225 O226 1.962 . S
Zn225 O228 1.986 . S
Zn225 O230 1.996 . S
Zn225 O233 1.943 1_545 S
O226 Zn225 1.962 . S
O226 C231 1.254 . S
O227 Zn224 2.031 . S
O227 C231 1.269 1_565 S
O228 Zn225 1.986 . S
O228 C235 1.262 . S
O229 Zn224 2.049 . S
O229 C237 1.260 1_565 S
O230 Zn225 1.996 . S
O230 C237 1.257 . S
C231 O226 1.254 . S
C231 O227 1.269 1_545 S
C232 O233 1.249 . S
C232 O234 1.270 . S
O233 Zn225 1.943 1_565 S
O233 C232 1.249 . S
O234 Zn224 2.067 . S
O234 C232 1.270 . S
C235 O228 1.262 . S
C235 O236 1.232 . S
O236 C235 1.232 . S
C237 O229 1.260 1_545 S
C237 O230 1.257 . S
Zn238 O241 2.031 . S
Zn238 O243 2.049 . S
Zn238 O248 2.067 . S
Zn239 O240 1.962 . S
Zn239 O242 1.986 . S
Zn239 O244 1.996 . S
Zn239 O247 1.943 . S
O240 Zn239 1.962 . S
O240 C245 1.254 . S
O241 Zn238 2.031 . S
O241 C245 1.269 . S
O242 Zn239 1.986 . S
O242 C249 1.262 . S
O243 Zn238 2.049 . S
O243 C251 1.260 . S
O244 Zn239 1.996 . S
O244 C251 1.257 . S
C245 O240 1.254 . S
C245 O241 1.269 . S
C246 O247 1.249 . S
C246 O248 1.270 . S
O247 Zn239 1.943 . S
O247 C246 1.249 . S
O248 Zn238 2.067 . S
O248 C246 1.270 . S
C249 O242 1.262 . S
C249 O250 1.232 . S
O250 C249 1.232 . S
C251 O243 1.260 . S
C251 O244 1.257 . S
Zn252 O255 2.031 . S
Zn252 O257 2.049 . S
Zn252 O262 2.067 . S
Zn253 O254 1.962 . S
Zn253 O256 1.986 . S
Zn253 O258 1.996 . S
Zn253 O261 1.943 . S
O254 Zn253 1.962 . S
O254 C259 1.254 . S
O255 Zn252 2.031 . S
O255 C259 1.269 . S
O256 Zn253 1.986 . S
O256 C263 1.262 . S
O257 Zn252 2.049 . S
O257 C265 1.260 . S
O258 Zn253 1.996 . S
O258 C265 1.257 . S
C259 O254 1.254 . S
C259 O255 1.269 . S
C260 O261 1.249 . S
C260 O262 1.270 . S
O261 Zn253 1.943 . S
O261 C260 1.249 . S
O262 Zn252 2.067 . S
O262 C260 1.270 . S
C263 O256 1.262 . S
C263 O264 1.232 . S
O264 C263 1.232 . S
C265 O257 1.260 . S
C265 O258 1.257 . S
Zn266 O269 2.031 . S
Zn266 O271 2.049 . S
Zn266 O276 2.067 . S
Zn267 O268 1.962 . S
Zn267 O270 1.986 . S
Zn267 O272 1.996 . S
Zn267 O275 1.943 . S
O268 Zn267 1.962 . S
O268 C273 1.254 . S
O269 Zn266 2.031 . S
O269 C273 1.269 . S
O270 Zn267 1.986 . S
O270 C277 1.262 . S
O271 Zn266 2.049 . S
O271 C279 1.260 . S
O272 Zn267 1.996 . S
O272 C279 1.257 . S
C273 O268 1.254 . S
C273 O269 1.269 . S
C274 O275 1.249 . S
C274 O276 1.270 . S
O275 Zn267 1.943 . S
O275 C274 1.249 . S
O276 Zn266 2.067 . S
O276 C274 1.270 . S
C277 O270 1.262 . S
C277 O278 1.232 . S
O278 C277 1.232 . S
C279 O271 1.260 . S
C279 O272 1.257 . S
Zn280 O283 2.031 . S
Zn280 O285 2.049 . S
Zn280 O290 2.067 . S
Zn281 O282 1.962 . S
Zn281 O284 1.986 . S
Zn281 O286 1.996 . S
Zn281 O289 1.943 . S
O282 Zn281 1.962 . S
O282 C287 1.254 1_554 S
O283 Zn280 2.031 . S
O283 C287 1.269 1_554 S
O284 Zn281 1.986 . S
O284 C291 1.262 . S
O285 Zn280 2.049 . S
O285 C293 1.260 . S
O286 Zn281 1.996 . S
O286 C293 1.257 . S
C287 O282 1.254 1_556 S
C287 O283 1.269 1_556 S
C288 O289 1.249 . S
C288 O290 1.270 . S
O289 Zn281 1.943 . S
O289 C288 1.249 . S
O290 Zn280 2.067 . S
O290 C288 1.270 . S
C291 O284 1.262 . S
C291 O292 1.232 . S
O292 C291 1.232 . S
C293 O285 1.260 . S
C293 O286 1.257 . S
Zn294 O297 2.031 . S
Zn294 O299 2.049 . S
Zn294 O304 2.067 . S
Zn295 O296 1.962 . S
Zn295 O298 1.986 . S
Zn295 O300 1.996 . S
Zn295 O303 1.943 . S
O296 Zn295 1.962 . S
O296 C301 1.254 . S
O297 Zn294 2.031 . S
O297 C301 1.269 . S
O298 Zn295 1.986 . S
O298 C305 1.262 . S
O299 Zn294 2.049 . S
O299 C307 1.260 . S
O300 Zn295 1.996 . S
O300 C307 1.257 . S
C301 O296 1.254 . S
C301 O297 1.269 . S
C302 O303 1.249 . S
C302 O304 1.270 . S
O303 Zn295 1.943 . S
O303 C302 1.249 . S
O304 Zn294 2.067 . S
O304 C302 1.270 . S
C305 O298 1.262 . S
C305 O306 1.232 . S
O306 C305 1.232 . S
C307 O299 1.260 . S
C307 O300 1.257 . S
Zn308 O311 2.031 . S
Zn308 O313 2.049 . S
Zn308 O318 2.067 . S
Zn309 O310 1.962 . S
Zn309 O312 1.986 . S
Zn309 O314 1.996 . S
Zn309 O317 1.943 . S
O310 Zn309 1.962 . S
O310 C315 1.254 . S
O311 Zn308 2.031 . S
O311 C315 1.269 . S
O312 Zn309 1.986 . S
O312 C319 1.262 . S
O313 Zn308 2.049 . S
O313 C321 1.260 . S
O314 Zn309 1.996 . S
O314 C321 1.257 . S
C315 O310 1.254 . S
C315 O311 1.269 . S
C316 O317 1.249 . S
C316 O318 1.270 . S
O317 Zn309 1.943 . S
O317 C316 1.249 . S
O318 Zn308 2.067 . S
O318 C316 1.270 . S
C319 O312 1.262 . S
C319 O320 1.232 . S
O320 C319 1.232 . S
C321 O313 1.260 . S
C321 O314 1.257 . S
Zn322 O325 2.031 . S
Zn322 O327 2.049 . S
Zn322 O332 2.067 . S
Zn323 O324 1.962 . S
Zn323 O326 1.986 . S
Zn323 O328 1.996 . S
Zn323 O331 1.943 . S
O324 Zn323 1.962 . S
O324 C329 1.254 . S
O325 Zn322 2.031 . S
O325 C329 1.269 . S
O326 Zn323 1.986 . S
O326 C333 1.262 . S
O327 Zn322 2.049 . S
O327 C335 1.260 . S
O328 Zn323 1.996 . S
O328 C335 1.257 . S
C329 O324 1.254 . S
C329 O325 1.269 . S
C330 O331 1.249 . S
C330 O332 1.270 . S
O331 Zn323 1.943 . S
O331 C330 1.249 . S
O332 Zn322 2.067 . S
O332 C330 1.270 . S
C333 O326 1.262 . S
C333 O334 1.232 . S
O334 C333 1.232 . S
C335 O327 1.260 . S
C335 O328 1.257 . S
Tb336 C345 2.764 . S
Tb336 O346 2.325 . S
Tb336 O349 2.303 . S
Tb336 O353 2.322 . S
Tb336 O354 2.349 . S
Tb336 O357 2.415 . S
Tb336 O358 2.399 . S
Tb337 O347 2.322 1_545 S
Tb337 O348 2.349 1_554 S
Tb337 O350 2.415 1_455 S
Tb337 O351 2.399 1_454 S
Tb337 O352 2.325 . S
Tb337 O355 2.303 . S
Tb337 C366 2.764 1_455 S
C338 O354 1.261 . S
C338 O355 1.257 . S
C339 C342 1.358 . S
C339 C343 1.332 . S
C339 C345 1.504 . S
C340 C341 1.373 . S
C340 C344 1.308 . S
C341 C340 1.373 . S
C341 C342 1.429 . S
C341 H368 0.932 . S
C342 C339 1.358 . S
C342 C341 1.429 . S
C342 H369 0.930 . S
C343 C339 1.332 . S
C343 C344 1.394 . S
C343 H370 0.932 . S
C344 C340 1.308 . S
C344 C343 1.394 . S
C344 H371 0.929 . S
C345 Tb336 2.764 . S
C345 C339 1.504 . S
C345 O357 1.239 . S
C345 O358 1.263 . S
O346 Tb336 2.325 . S
O346 C356 1.236 1_545 S
O347 Tb337 2.322 1_565 S
O347 C356 1.257 . S
O348 Tb337 2.349 1_556 S
O348 C359 1.261 . S
O349 Tb336 2.303 . S
O349 C359 1.257 1_554 S
O350 Tb337 2.415 1_655 S
O350 C366 1.239 . S
O351 Tb337 2.399 1_656 S
O351 C366 1.263 1_556 S
O352 Tb337 2.325 . S
O352 C367 1.236 . S
O353 Tb336 2.322 . S
O353 C367 1.257 . S
O354 Tb336 2.349 . S
O354 C338 1.261 . S
O355 Tb337 2.303 . S
O355 C338 1.257 . S
C356 O346 1.236 1_565 S
C356 O347 1.257 . S
O357 Tb336 2.415 . S
O357 C345 1.239 . S
O358 Tb336 2.399 . S
O358 C345 1.263 . S
C359 O348 1.261 . S
C359 O349 1.257 1_556 S
C360 C363 1.358 1_554 S
C360 C364 1.332 . S
C360 C366 1.504 . S
C361 C362 1.373 . S
C361 C365 1.308 1_556 S
C362 C361 1.373 . S
C362 C363 1.429 . S
C362 H372 0.932 . S
C363 C360 1.358 1_556 S
C363 C362 1.429 . S
C363 H373 0.930 . S
C364 C360 1.332 . S
C364 C365 1.394 . S
C364 H374 0.932 . S
C365 C361 1.308 1_554 S
C365 C364 1.394 . S
C365 H375 0.929 . S
C366 Tb337 2.764 1_655 S
C366 O350 1.239 . S
C366 O351 1.263 1_554 S
C366 C360 1.504 . S
C367 O352 1.236 . S
C367 O353 1.257 . S
H368 C341 0.932 . S
H369 C342 0.930 . S
H370 C343 0.932 . S
H371 C344 0.929 . S
H372 C362 0.932 . S
H373 C363 0.930 . S
H374 C364 0.932 . S
H375 C365 0.929 . S
Tb376 C385 2.764 . S
Tb376 O386 2.325 . S
Tb376 O389 2.303 . S
Tb376 O393 2.322 . S
Tb376 O394 2.349 . S
Tb376 O397 2.415 . S
Tb376 O398 2.399 . S
Tb377 O387 2.322 . S
Tb377 O388 2.349 . S
Tb377 O390 2.415 . S
Tb377 O391 2.399 . S
Tb377 O392 2.325 . S
Tb377 O395 2.303 . S
Tb377 C406 2.764 . S
C378 O394 1.261 . S
C378 O395 1.257 . S
C379 C382 1.358 . S
C379 C383 1.332 . S
C379 C385 1.504 . S
C380 C381 1.373 . S
C380 C384 1.308 . S
C381 C380 1.373 . S
C381 C382 1.429 . S
C381 H408 0.932 . S
C382 C379 1.358 . S
C382 C381 1.429 . S
C382 H409 0.930 . S
C383 C379 1.332 . S
C383 C384 1.394 . S
C383 H410 0.932 . S
C384 C380 1.308 . S
C384 C383 1.394 . S
C384 H411 0.929 . S
C385 Tb376 2.764 . S
C385 C379 1.504 . S
C385 O397 1.239 . S
C385 O398 1.263 . S
O386 Tb376 2.325 . S
O386 C396 1.236 . S
O387 Tb377 2.322 . S
O387 C396 1.257 . S
O388 Tb377 2.349 . S
O388 C399 1.261 . S
O389 Tb376 2.303 . S
O389 C399 1.257 . S
O390 Tb377 2.415 . S
O390 C406 1.239 . S
O391 Tb377 2.399 . S
O391 C406 1.263 . S
O392 Tb377 2.325 . S
O392 C407 1.236 . S
O393 Tb376 2.322 . S
O393 C407 1.257 . S
O394 Tb376 2.349 . S
O394 C378 1.261 . S
O395 Tb377 2.303 . S
O395 C378 1.257 . S
C396 O386 1.236 . S
C396 O387 1.257 . S
O397 Tb376 2.415 . S
O397 C385 1.239 . S
O398 Tb376 2.399 . S
O398 C385 1.263 . S
C399 O388 1.261 . S
C399 O389 1.257 . S
C400 C403 1.358 . S
C400 C404 1.332 . S
C400 C406 1.504 . S
C401 C402 1.373 . S
C401 C405 1.308 . S
C402 C401 1.373 . S
C402 C403 1.429 . S
C402 H412 0.932 . S
C403 C400 1.358 . S
C403 C402 1.429 . S
C403 H413 0.930 . S
C404 C400 1.332 . S
C404 C405 1.394 . S
C404 H414 0.932 . S
C405 C401 1.308 . S
C405 C404 1.394 . S
C405 H415 0.929 . S
C406 Tb377 2.764 . S
C406 O390 1.239 . S
C406 O391 1.263 . S
C406 C400 1.504 . S
C407 O392 1.236 . S
C407 O393 1.257 . S
H408 C381 0.932 . S
H409 C382 0.930 . S
H410 C383 0.932 . S
H411 C384 0.929 . S
H412 C402 0.932 . S
H413 C403 0.930 . S
H414 C404 0.932 . S
H415 C405 0.929 . S
Tb416 C425 2.764 . S
Tb416 O426 2.325 . S
Tb416 O429 2.303 . S
Tb416 O433 2.322 1_545 S
Tb416 O434 2.349 . S
Tb416 O437 2.415 . S
Tb416 O438 2.399 . S
Tb417 O427 2.322 . S
Tb417 O428 2.349 . S
Tb417 O430 2.415 . S
Tb417 O431 2.399 . S
Tb417 O432 2.325 1_545 S
Tb417 O435 2.303 . S
Tb417 C446 2.764 . S
C418 O434 1.261 . S
C418 O435 1.257 . S
C419 C422 1.358 . S
C419 C423 1.332 . S
C419 C425 1.504 . S
C420 C421 1.373 . S
C420 C424 1.308 . S
C421 C420 1.373 . S
C421 C422 1.429 . S
C421 H448 0.932 . S
C422 C419 1.358 . S
C422 C421 1.429 . S
C422 H449 0.930 . S
C423 C419 1.332 . S
C423 C424 1.394 . S
C423 H450 0.932 . S
C424 C420 1.308 . S
C424 C423 1.394 . S
C424 H451 0.929 . S
C425 Tb416 2.764 . S
C425 C419 1.504 . S
C425 O437 1.239 . S
C425 O438 1.263 . S
O426 Tb416 2.325 . S
O426 C436 1.236 . S
O427 Tb417 2.322 . S
O427 C436 1.257 . S
O428 Tb417 2.349 . S
O428 C439 1.261 . S
O429 Tb416 2.303 . S
O429 C439 1.257 . S
O430 Tb417 2.415 . S
O430 C446 1.239 . S
O431 Tb417 2.399 . S
O431 C446 1.263 . S
O432 Tb417 2.325 1_565 S
O432 C447 1.236 . S
O433 Tb416 2.322 1_565 S
O433 C447 1.257 . S
O434 Tb416 2.349 . S
O434 C418 1.261 . S
O435 Tb417 2.303 . S
O435 C418 1.257 . S
C436 O426 1.236 . S
C436 O427 1.257 . S
O437 Tb416 2.415 . S
O437 C425 1.239 . S
O438 Tb416 2.399 . S
O438 C425 1.263 . S
C439 O428 1.261 . S
C439 O429 1.257 . S
C440 C443 1.358 1_565 S
C440 C444 1.338 . S
C440 C446 1.498 1_565 S
C441 C442 1.373 . S
C441 C445 1.308 . S
C442 C441 1.373 . S
C442 C443 1.429 1_565 S
C442 H452 0.932 . S
C443 C440 1.358 1_545 S
C443 C442 1.429 1_545 S
C443 H453 0.930 . S
C444 C440 1.338 . S
C444 C445 1.394 . S
C444 H454 0.932 . S
C445 C441 1.308 . S
C445 C444 1.394 . S
C445 H455 0.929 . S
C446 Tb417 2.764 . S
C446 O430 1.239 . S
C446 O431 1.263 . S
C446 C440 1.498 1_545 S
C447 O432 1.236 . S
C447 O433 1.257 . S
H448 C421 0.932 . S
H449 C422 0.930 . S
H450 C423 0.932 . S
H451 C424 0.929 . S
H452 C442 0.932 . S
H453 C443 0.930 . S
H454 C444 0.932 . S
H455 C445 0.929 . S
Tb456 C465 2.764 . S
Tb456 O466 2.325 . S
Tb456 O469 2.303 . S
Tb456 O473 2.322 . S
Tb456 O474 2.349 . S
Tb456 O477 2.415 . S
Tb456 O478 2.399 . S
Tb457 O467 2.322 . S
Tb457 O468 2.349 . S
Tb457 O470 2.415 . S
Tb457 O471 2.399 . S
Tb457 O472 2.325 . S
Tb457 O475 2.303 . S
Tb457 C486 2.764 . S
C458 O474 1.261 . S
C458 O475 1.257 . S
C459 C462 1.358 . S
C459 C463 1.332 . S
C459 C465 1.504 . S
C460 C461 1.373 . S
C460 C464 1.308 . S
C461 C460 1.373 . S
C461 C462 1.429 . S
C461 H488 0.932 . S
C462 C459 1.358 . S
C462 C461 1.429 . S
C462 H489 0.930 . S
C463 C459 1.332 . S
C463 C464 1.394 . S
C463 H490 0.932 . S
C464 C460 1.308 . S
C464 C463 1.394 . S
C464 H491 0.929 . S
C465 Tb456 2.764 . S
C465 C459 1.504 . S
C465 O477 1.239 . S
C465 O478 1.263 . S
O466 Tb456 2.325 . S
O466 C476 1.236 . S
O467 Tb457 2.322 . S
O467 C476 1.257 . S
O468 Tb457 2.349 . S
O468 C479 1.261 . S
O469 Tb456 2.303 . S
O469 C479 1.257 . S
O470 Tb457 2.415 . S
O470 C486 1.239 . S
O471 Tb457 2.399 . S
O471 C486 1.263 . S
O472 Tb457 2.325 . S
O472 C487 1.236 . S
O473 Tb456 2.322 . S
O473 C487 1.257 . S
O474 Tb456 2.349 . S
O474 C458 1.261 . S
O475 Tb457 2.303 . S
O475 C458 1.257 . S
C476 O466 1.236 . S
C476 O467 1.257 . S
O477 Tb456 2.415 . S
O477 C465 1.239 . S
O478 Tb456 2.399 . S
O478 C465 1.263 . S
C479 O468 1.261 . S
C479 O469 1.257 . S
C480 C483 1.358 . S
C480 C484 1.332 . S
C480 C486 1.504 . S
C481 C482 1.373 . S
C481 C485 1.308 . S
C482 C481 1.373 . S
C482 C483 1.429 . S
C482 H492 0.932 . S
C483 C480 1.358 . S
C483 C482 1.429 . S
C483 H493 0.930 . S
C484 C480 1.332 . S
C484 C485 1.394 . S
C484 H494 0.932 . S
C485 C481 1.308 . S
C485 C484 1.394 . S
C485 H495 0.929 . S
C486 Tb457 2.764 . S
C486 O470 1.239 . S
C486 O471 1.263 . S
C486 C480 1.504 . S
C487 O472 1.236 . S
C487 O473 1.257 . S
H488 C461 0.932 . S
H489 C462 0.930 . S
H490 C463 0.932 . S
H491 C464 0.929 . S
H492 C482 0.932 . S
H493 C483 0.930 . S
H494 C484 0.932 . S
H495 C485 0.929 . S
Tb496 C505 2.764 . S
Tb496 O506 2.325 . S
Tb496 O509 2.303 . S
Tb496 O513 2.322 . S
Tb496 O514 2.349 . S
Tb496 O517 2.415 . S
Tb496 O518 2.399 . S
Tb497 O507 2.322 1_545 S
Tb497 O508 2.349 . S
Tb497 O510 2.415 . S
Tb497 O511 2.399 . S
Tb497 O512 2.325 . S
Tb497 O515 2.303 . S
Tb497 C526 2.764 . S
C498 O514 1.264 1_655 S
C498 O515 1.226 1_655 S
C499 C502 1.358 . S
C499 C503 1.332 . S
C499 C505 1.504 . S
C500 C501 1.373 . S
C500 C504 1.308 . S
C501 C500 1.373 . S
C501 C502 1.429 . S
C501 H528 0.932 . S
C502 C499 1.358 . S
C502 C501 1.429 . S
C502 H529 0.930 . S
C503 C499 1.332 . S
C503 C504 1.394 . S
C503 H530 0.932 . S
C504 C500 1.308 . S
C504 C503 1.394 . S
C504 H531 0.929 . S
C505 Tb496 2.764 . S
C505 C499 1.504 . S
C505 O517 1.239 . S
C505 O518 1.263 . S
O506 Tb496 2.325 . S
O506 C516 1.236 1_545 S
O507 Tb497 2.322 1_565 S
O507 C516 1.257 . S
O508 Tb497 2.349 . S
O508 C519 1.261 . S
O509 Tb496 2.303 . S
O509 C519 1.257 . S
O510 Tb497 2.415 . S
O510 C526 1.239 . S
O511 Tb497 2.399 . S
O511 C526 1.263 . S
O512 Tb497 2.325 . S
O512 C527 1.236 . S
O513 Tb496 2.322 . S
O513 C527 1.257 . S
O514 Tb496 2.349 . S
O514 C498 1.264 1_455 S
O515 Tb497 2.303 . S
O515 C498 1.226 1_455 S
C516 O506 1.236 1_565 S
C516 O507 1.257 . S
O517 Tb496 2.415 . S
O517 C505 1.239 . S
O518 Tb496 2.399 . S
O518 C505 1.263 . S
C519 O508 1.261 . S
C519 O509 1.257 . S
C520 C523 1.358 . S
C520 C524 1.332 1_455 S
C520 C526 1.504 . S
C521 C522 1.384 . S
C521 C525 1.300 1_455 S
C522 C521 1.384 . S
C522 C523 1.429 . S
C522 H532 0.932 . S
C523 C520 1.358 . S
C523 C522 1.429 . S
C523 H533 0.930 . S
C524 C520 1.332 1_655 S
C524 C525 1.394 . S
C524 H534 0.932 . S
C525 C521 1.300 1_655 S
C525 C524 1.394 . S
C525 H535 0.929 . S
C526 Tb497 2.764 . S
C526 O510 1.239 . S
C526 O511 1.263 . S
C526 C520 1.504 . S
C527 O512 1.236 . S
C527 O513 1.257 . S
H528 C501 0.932 . S
H529 C502 0.930 . S
H530 C503 0.932 . S
H531 C504 0.929 . S
H532 C522 0.932 . S
H533 C523 0.930 . S
H534 C524 0.932 . S
H535 C525 0.929 . S
Tb536 C545 2.764 . S
Tb536 O546 2.325 . S
Tb536 O549 2.303 . S
Tb536 O553 2.322 . S
Tb536 O554 2.349 . S
Tb536 O557 2.415 . S
Tb536 O558 2.399 . S
Tb537 O547 2.322 . S
Tb537 O548 2.349 . S
Tb537 O550 2.415 . S
Tb537 O551 2.399 . S
Tb537 O552 2.325 . S
Tb537 O555 2.303 . S
Tb537 C566 2.764 . S
C538 O554 1.261 . S
C538 O555 1.257 . S
C539 C542 1.358 . S
C539 C543 1.332 . S
C539 C545 1.504 . S
C540 C541 1.373 . S
C540 C544 1.308 . S
C541 C540 1.373 . S
C541 C542 1.429 . S
C541 H568 0.932 . S
C542 C539 1.358 . S
C542 C541 1.429 . S
C542 H569 0.930 . S
C543 C539 1.332 . S
C543 C544 1.394 . S
C543 H570 0.932 . S
C544 C540 1.308 . S
C544 C543 1.394 . S
C544 H571 0.929 . S
C545 Tb536 2.764 . S
C545 C539 1.504 . S
C545 O557 1.239 . S
C545 O558 1.263 . S
O546 Tb536 2.325 . S
O546 C556 1.236 . S
O547 Tb537 2.322 . S
O547 C556 1.257 . S
O548 Tb537 2.349 . S
O548 C559 1.261 . S
O549 Tb536 2.303 . S
O549 C559 1.257 . S
O550 Tb537 2.415 . S
O550 C566 1.239 . S
O551 Tb537 2.399 . S
O551 C566 1.263 . S
O552 Tb537 2.325 . S
O552 C567 1.236 . S
O553 Tb536 2.322 . S
O553 C567 1.257 . S
O554 Tb536 2.349 . S
O554 C538 1.261 . S
O555 Tb537 2.303 . S
O555 C538 1.257 . S
C556 O546 1.236 . S
C556 O547 1.257 . S
O557 Tb536 2.415 . S
O557 C545 1.239 . S
O558 Tb536 2.399 . S
O558 C545 1.263 . S
C559 O548 1.261 . S
C559 O549 1.257 . S
C560 C563 1.358 . S
C560 C564 1.332 . S
C560 C566 1.504 . S
C561 C562 1.373 . S
C561 C565 1.308 . S
C562 C561 1.373 . S
C562 C563 1.429 . S
C562 H572 0.932 . S
C563 C560 1.358 . S
C563 C562 1.429 . S
C563 H573 0.930 . S
C564 C560 1.332 . S
C564 C565 1.394 . S
C564 H574 0.932 . S
C565 C561 1.308 . S
C565 C564 1.394 . S
C565 H575 0.929 . S
C566 Tb537 2.764 . S
C566 O550 1.239 . S
C566 O551 1.263 . S
C566 C560 1.504 . S
C567 O552 1.236 . S
C567 O553 1.257 . S
H568 C541 0.932 . S
H569 C542 0.930 . S
H570 C543 0.932 . S
H571 C544 0.929 . S
H572 C562 0.932 . S
H573 C563 0.930 . S
H574 C564 0.932 . S
H575 C565 0.929 . S
Tb576 C585 2.764 . S
Tb576 O586 2.325 . S
Tb576 O589 2.303 . S
Tb576 O593 2.343 . S
Tb576 O594 2.349 . S
Tb576 O597 2.415 . S
Tb576 O598 2.399 . S
Tb577 O587 2.333 . S
Tb577 O588 2.350 1_554 S
Tb577 O590 2.405 1_554 S
Tb577 O591 2.385 1_554 S
Tb577 O592 2.325 1_554 S
Tb577 O595 2.313 . S
Tb577 C606 2.750 1_554 S
C578 O594 1.261 . S
C578 O595 1.257 . S
C579 C582 1.358 . S
C579 C583 1.332 . S
C579 C585 1.504 . S
C580 C581 1.373 . S
C580 C584 1.308 . S
C581 C580 1.373 . S
C581 C582 1.429 . S
C581 H608 0.932 . S
C582 C579 1.358 . S
C582 C581 1.429 . S
C582 H609 0.930 . S
C583 C579 1.332 . S
C583 C584 1.394 . S
C583 H610 0.932 . S
C584 C580 1.308 . S
C584 C583 1.394 . S
C584 H611 0.929 . S
C585 Tb576 2.764 . S
C585 C579 1.504 . S
C585 O597 1.239 . S
C585 O598 1.263 . S
O586 Tb576 2.325 . S
O586 C596 1.236 . S
O587 Tb577 2.333 . S
O587 C596 1.257 . S
O588 Tb577 2.350 1_556 S
O588 C599 1.261 1_556 S
O589 Tb576 2.303 . S
O589 C599 1.257 . S
O590 Tb577 2.405 1_556 S
O590 C606 1.239 . S
O591 Tb577 2.385 1_556 S
O591 C606 1.263 . S
O592 Tb577 2.325 1_556 S
O592 C607 1.236 1_546 S
O593 Tb576 2.343 . S
O593 C607 1.259 1_545 S
O594 Tb576 2.349 . S
O594 C578 1.261 . S
O595 Tb577 2.313 . S
O595 C578 1.257 . S
C596 O586 1.236 . S
C596 O587 1.257 . S
O597 Tb576 2.415 . S
O597 C585 1.239 . S
O598 Tb576 2.399 . S
O598 C585 1.263 . S
C599 O588 1.261 1_554 S
C599 O589 1.257 . S
C600 C603 1.358 . S
C600 C604 1.332 . S
C600 C606 1.504 . S
C601 C602 1.373 . S
C601 C605 1.308 . S
C602 C601 1.373 . S
C602 C603 1.429 . S
C602 H612 0.932 . S
C603 C600 1.358 . S
C603 C602 1.429 . S
C603 H613 0.930 . S
C604 C600 1.332 . S
C604 C605 1.394 . S
C604 H614 0.932 . S
C605 C601 1.308 . S
C605 C604 1.394 . S
C605 H615 0.929 . S
C606 Tb577 2.750 1_556 S
C606 O590 1.239 . S
C606 O591 1.263 . S
C606 C600 1.504 . S
C607 O592 1.236 1_564 S
C607 O593 1.259 1_565 S
H608 C581 0.932 . S
H609 C582 0.930 . S
H610 C583 0.932 . S
H611 C584 0.929 . S
H612 C602 0.932 . S
H613 C603 0.930 . S
H614 C604 0.932 . S
H615 C605 0.929 . S
Tb616 C625 2.764 . S
Tb616 O626 2.325 . S
Tb616 O629 2.303 . S
Tb616 O633 2.322 . S
Tb616 O634 2.349 . S
Tb616 O637 2.415 . S
Tb616 O638 2.399 . S
Tb617 O627 2.322 . S
Tb617 O628 2.349 . S
Tb617 O630 2.415 . S
Tb617 O631 2.399 . S
Tb617 O632 2.325 . S
Tb617 O635 2.303 . S
Tb617 C646 2.764 . S
C618 O634 1.261 . S
C618 O635 1.257 . S
C619 C622 1.358 . S
C619 C623 1.332 . S
C619 C625 1.504 . S
C620 C621 1.373 . S
C620 C624 1.308 . S
C621 C620 1.373 . S
C621 C622 1.429 . S
C621 H648 0.932 . S
C622 C619 1.358 . S
C622 C621 1.429 . S
C622 H649 0.930 . S
C623 C619 1.332 . S
C623 C624 1.394 . S
C623 H650 0.932 . S
C624 C620 1.308 . S
C624 C623 1.394 . S
C624 H651 0.929 . S
C625 Tb616 2.764 . S
C625 C619 1.504 . S
C625 O637 1.239 . S
C625 O638 1.263 . S
O626 Tb616 2.325 . S
O626 C636 1.236 . S
O627 Tb617 2.322 . S
O627 C636 1.257 . S
O628 Tb617 2.349 . S
O628 C639 1.261 . S
O629 Tb616 2.303 . S
O629 C639 1.257 . S
O630 Tb617 2.415 . S
O630 C646 1.239 . S
O631 Tb617 2.399 . S
O631 C646 1.263 . S
O632 Tb617 2.325 . S
O632 C647 1.236 . S
O633 Tb616 2.322 . S
O633 C647 1.257 . S
O634 Tb616 2.349 . S
O634 C618 1.261 . S
O635 Tb617 2.303 . S
O635 C618 1.257 . S
C636 O626 1.236 . S
C636 O627 1.257 . S
O637 Tb616 2.415 . S
O637 C625 1.239 . S
O638 Tb616 2.399 . S
O638 C625 1.263 . S
C639 O628 1.261 . S
C639 O629 1.257 . S
C640 C643 1.358 . S
C640 C644 1.332 . S
C640 C646 1.504 . S
C641 C642 1.373 . S
C641 C645 1.308 . S
C642 C641 1.373 . S
C642 C643 1.429 . S
C642 H652 0.932 . S
C643 C640 1.358 . S
C643 C642 1.429 . S
C643 H653 0.930 . S
C644 C640 1.332 . S
C644 C645 1.394 . S
C644 H654 0.932 . S
C645 C641 1.308 . S
C645 C644 1.394 . S
C645 H655 0.929 . S
C646 Tb617 2.764 . S
C646 O630 1.239 . S
C646 O631 1.263 . S
C646 C640 1.504 . S
C647 O632 1.236 . S
C647 O633 1.257 . S
H648 C621 0.932 . S
H649 C622 0.930 . S
H650 C623 0.932 . S
H651 C624 0.929 . S
H652 C642 0.932 . S
H653 C643 0.930 . S
H654 C644 0.932 . S
H655 C645 0.929 . S
Tb656 C665 2.764 . S
Tb656 O666 2.325 . S
Tb656 O669 2.303 . S
Tb656 O673 2.322 . S
Tb656 O674 2.349 . S
Tb656 O677 2.415 . S
Tb656 O678 2.399 . S
Tb657 O667 2.322 1_556 S
Tb657 O668 2.349 1_556 S
Tb657 O670 2.415 . S
Tb657 O671 2.399 . S
Tb657 O672 2.325 . S
Tb657 O675 2.303 1_556 S
Tb657 C686 2.764 . S
C658 O674 1.261 . S
C658 O675 1.257 . S
C659 C662 1.358 . S
C659 C663 1.332 . S
C659 C665 1.504 . S
C660 C661 1.373 . S
C660 C664 1.308 . S
C661 C660 1.373 . S
C661 C662 1.429 . S
C661 H688 0.932 . S
C662 C659 1.358 . S
C662 C661 1.429 . S
C662 H689 0.930 . S
C663 C659 1.332 . S
C663 C664 1.394 . S
C663 H690 0.932 . S
C664 C660 1.308 . S
C664 C663 1.394 . S
C664 H691 0.929 . S
C665 Tb656 2.764 . S
C665 C659 1.504 . S
C665 O677 1.239 . S
C665 O678 1.263 . S
O666 Tb656 2.325 . S
O666 C676 1.236 . S
O667 Tb657 2.322 1_554 S
O667 C676 1.257 . S
O668 Tb657 2.349 1_554 S
O668 C679 1.261 . S
O669 Tb656 2.303 . S
O669 C679 1.257 . S
O670 Tb657 2.415 . S
O670 C686 1.239 . S
O671 Tb657 2.399 . S
O671 C686 1.263 . S
O672 Tb657 2.325 . S
O672 C687 1.236 1_556 S
O673 Tb656 2.322 . S
O673 C687 1.257 . S
O674 Tb656 2.349 . S
O674 C658 1.261 . S
O675 Tb657 2.303 1_554 S
O675 C658 1.257 . S
C676 O666 1.236 . S
C676 O667 1.257 . S
O677 Tb656 2.415 . S
O677 C665 1.239 . S
O678 Tb656 2.399 . S
O678 C665 1.263 . S
C679 O668 1.261 . S
C679 O669 1.257 . S
C680 C683 1.358 . S
C680 C684 1.332 . S
C680 C686 1.504 . S
C681 C682 1.373 . S
C681 C685 1.308 . S
C682 C681 1.373 . S
C682 C683 1.429 . S
C682 H692 0.932 . S
C683 C680 1.358 . S
C683 C682 1.429 . S
C683 H693 0.930 . S
C684 C680 1.332 . S
C684 C685 1.394 . S
C684 H694 0.932 . S
C685 C681 1.308 . S
C685 C684 1.394 . S
C685 H695 0.929 . S
C686 Tb657 2.764 . S
C686 O670 1.239 . S
C686 O671 1.263 . S
C686 C680 1.504 . S
C687 O672 1.236 1_554 S
C687 O673 1.257 . S
H688 C661 0.932 . S
H689 C662 0.930 . S
H690 C663 0.932 . S
H691 C664 0.929 . S
H692 C682 0.932 . S
H693 C683 0.930 . S
H694 C684 0.932 . S
H695 C685 0.929 . S
Tb696 C705 2.764 . S
Tb696 O706 2.325 . S
Tb696 O709 2.303 . S
Tb696 O713 2.322 . S
Tb696 O714 2.349 . S
Tb696 O717 2.415 . S
Tb696 O718 2.399 . S
Tb697 O707 2.322 . S
Tb697 O708 2.349 . S
Tb697 O710 2.415 . S
Tb697 O711 2.399 . S
Tb697 O712 2.325 . S
Tb697 O715 2.303 . S
Tb697 C726 2.764 . S
C698 O714 1.261 . S
C698 O715 1.257 . S
C699 C702 1.358 . S
C699 C703 1.332 . S
C699 C705 1.504 . S
C700 C701 1.373 . S
C700 C704 1.308 . S
C701 C700 1.373 . S
C701 C702 1.429 . S
C701 H728 0.932 . S
C702 C699 1.358 . S
C702 C701 1.429 . S
C702 H729 0.930 . S
C703 C699 1.332 . S
C703 C704 1.394 . S
C703 H730 0.932 . S
C704 C700 1.308 . S
C704 C703 1.394 . S
C704 H731 0.929 . S
C705 Tb696 2.764 . S
C705 C699 1.504 . S
C705 O717 1.239 . S
C705 O718 1.263 . S
O706 Tb696 2.325 . S
O706 C716 1.236 . S
O707 Tb697 2.322 . S
O707 C716 1.257 . S
O708 Tb697 2.349 . S
O708 C719 1.261 . S
O709 Tb696 2.303 . S
O709 C719 1.257 . S
O710 Tb697 2.415 . S
O710 C726 1.239 . S
O711 Tb697 2.399 . S
O711 C726 1.263 . S
O712 Tb697 2.325 . S
O712 C727 1.236 . S
O713 Tb696 2.322 . S
O713 C727 1.257 . S
O714 Tb696 2.349 . S
O714 C698 1.261 . S
O715 Tb697 2.303 . S
O715 C698 1.257 . S
C716 O706 1.236 . S
C716 O707 1.257 . S
O717 Tb696 2.415 . S
O717 C705 1.239 . S
O718 Tb696 2.399 . S
O718 C705 1.263 . S
C719 O708 1.261 . S
C719 O709 1.257 . S
C720 C723 1.358 . S
C720 C724 1.332 . S
C720 C726 1.504 . S
C721 C722 1.373 . S
C721 C725 1.308 . S
C722 C721 1.373 . S
C722 C723 1.429 . S
C722 H732 0.932 . S
C723 C720 1.358 . S
C723 C722 1.429 . S
C723 H733 0.930 . S
C724 C720 1.332 . S
C724 C725 1.394 . S
C724 H734 0.932 . S
C725 C721 1.308 . S
C725 C724 1.394 . S
C725 H735 0.929 . S
C726 Tb697 2.764 . S
C726 O710 1.239 . S
C726 O711 1.263 . S
C726 C720 1.504 . S
C727 O712 1.236 . S
C727 O713 1.257 . S
H728 C701 0.932 . S
H729 C702 0.930 . S
H730 C703 0.932 . S
H731 C704 0.929 . S
H732 C722 0.932 . S
H733 C723 0.930 . S
H734 C724 0.932 . S
H735 C725 0.929 . S
Tb736 C745 2.764 . S
Tb736 O746 2.325 . S
Tb736 O749 2.303 . S
Tb736 O753 2.322 . S
Tb736 O754 2.349 . S
Tb736 O757 2.415 . S
Tb736 O758 2.399 . S
Tb737 O747 2.322 . S
Tb737 O748 2.349 . S
Tb737 O750 2.415 . S
Tb737 O751 2.399 . S
Tb737 O752 2.325 . S
Tb737 O755 2.303 . S
Tb737 C766 2.764 . S
C738 O754 1.261 . S
C738 O755 1.257 . S
C739 C742 1.358 . S
C739 C743 1.332 1_455 S
C739 C745 1.504 . S
C740 C741 1.373 . S
C740 C744 1.308 1_455 S
C741 C740 1.373 . S
C741 C742 1.429 . S
C741 H768 0.932 . S
C742 C739 1.358 . S
C742 C741 1.429 . S
C742 H769 0.930 . S
C743 C739 1.332 1_655 S
C743 C744 1.394 . S
C743 H770 0.932 . S
C744 C740 1.308 1_655 S
C744 C743 1.394 . S
C744 H771 0.929 . S
C745 Tb736 2.764 . S
C745 C739 1.504 . S
C745 O757 1.239 . S
C745 O758 1.263 . S
O746 Tb736 2.325 . S
O746 C756 1.236 . S
O747 Tb737 2.322 . S
O747 C756 1.257 . S
O748 Tb737 2.349 . S
O748 C759 1.261 1_455 S
O749 Tb736 2.303 . S
O749 C759 1.257 1_455 S
O750 Tb737 2.415 . S
O750 C766 1.239 . S
O751 Tb737 2.399 . S
O751 C766 1.263 . S
O752 Tb737 2.325 . S
O752 C767 1.236 . S
O753 Tb736 2.322 . S
O753 C767 1.257 . S
O754 Tb736 2.349 . S
O754 C738 1.261 . S
O755 Tb737 2.303 . S
O755 C738 1.257 . S
C756 O746 1.236 . S
C756 O747 1.257 . S
O757 Tb736 2.415 . S
O757 C745 1.239 . S
O758 Tb736 2.399 . S
O758 C745 1.263 . S
C759 O748 1.261 1_655 S
C759 O749 1.257 1_655 S
C760 C763 1.358 . S
C760 C764 1.332 . S
C760 C766 1.504 . S
C761 C762 1.373 . S
C761 C765 1.308 . S
C762 C761 1.373 . S
C762 C763 1.429 . S
C762 H772 0.932 . S
C763 C760 1.358 . S
C763 C762 1.429 . S
C763 H773 0.930 . S
C764 C760 1.332 . S
C764 C765 1.394 . S
C764 H774 0.932 . S
C765 C761 1.308 . S
C765 C764 1.394 . S
C765 H775 0.929 . S
C766 Tb737 2.764 . S
C766 O750 1.239 . S
C766 O751 1.263 . S
C766 C760 1.504 . S
C767 O752 1.236 . S
C767 O753 1.257 . S
H768 C741 0.932 . S
H769 C742 0.930 . S
H770 C743 0.932 . S
H771 C744 0.929 . S
H772 C762 0.932 . S
H773 C763 0.930 . S
H774 C764 0.932 . S
H775 C765 0.929 . S
Tb776 C785 2.764 . S
Tb776 O786 2.325 . S
Tb776 O789 2.303 . S
Tb776 O793 2.322 . S
Tb776 O794 2.349 . S
Tb776 O797 2.415 . S
Tb776 O798 2.399 . S
Tb777 O787 2.322 . S
Tb777 O788 2.349 . S
Tb777 O790 2.415 . S
Tb777 O791 2.399 . S
Tb777 O792 2.325 . S
Tb777 O795 2.303 . S
Tb777 C806 2.764 . S
C778 O794 1.261 . S
C778 O795 1.257 . S
C779 C782 1.358 . S
C779 C783 1.332 . S
C779 C785 1.504 . S
C780 C781 1.373 . S
C780 C784 1.308 . S
C781 C780 1.373 . S
C781 C782 1.429 . S
C781 H808 0.932 . S
C782 C779 1.358 . S
C782 C781 1.429 . S
C782 H809 0.930 . S
C783 C779 1.332 . S
C783 C784 1.394 . S
C783 H810 0.932 . S
C784 C780 1.308 . S
C784 C783 1.394 . S
C784 H811 0.929 . S
C785 Tb776 2.764 . S
C785 C779 1.504 . S
C785 O797 1.239 . S
C785 O798 1.263 . S
O786 Tb776 2.325 . S
O786 C796 1.236 . S
O787 Tb777 2.322 . S
O787 C796 1.257 . S
O788 Tb777 2.349 . S
O788 C799 1.261 . S
O789 Tb776 2.303 . S
O789 C799 1.257 . S
O790 Tb777 2.415 . S
O790 C806 1.239 . S
O791 Tb777 2.399 . S
O791 C806 1.263 . S
O792 Tb777 2.325 . S
O792 C807 1.236 . S
O793 Tb776 2.322 . S
O793 C807 1.257 . S
O794 Tb776 2.349 . S
O794 C778 1.261 . S
O795 Tb777 2.303 . S
O795 C778 1.257 . S
C796 O786 1.236 . S
C796 O787 1.257 . S
O797 Tb776 2.415 . S
O797 C785 1.239 . S
O798 Tb776 2.399 . S
O798 C785 1.263 . S
C799 O788 1.261 . S
C799 O789 1.257 . S
C800 C803 1.358 . S
C800 C804 1.332 . S
C800 C806 1.504 . S
C801 C802 1.373 . S
C801 C805 1.308 . S
C802 C801 1.373 . S
C802 C803 1.429 . S
C802 H812 0.932 . S
C803 C800 1.358 . S
C803 C802 1.429 . S
C803 H813 0.930 . S
C804 C800 1.332 . S
C804 C805 1.394 . S
C804 H814 0.932 . S
C805 C801 1.308 . S
C805 C804 1.394 . S
C805 H815 0.929 . S
C806 Tb777 2.764 . S
C806 O790 1.239 . S
C806 O791 1.263 . S
C806 C800 1.504 . S
C807 O792 1.236 . S
C807 O793 1.257 . S
H808 C781 0.932 . S
H809 C782 0.930 . S
H810 C783 0.932 . S
H811 C784 0.929 . S
H812 C802 0.932 . S
H813 C803 0.930 . S
H814 C804 0.932 . S
H815 C805 0.929 . S
Tb816 C825 2.764 . S
Tb816 O826 2.325 . S
Tb816 O829 2.303 . S
Tb816 O833 2.322 . S
Tb816 O834 2.349 . S
Tb816 O837 2.415 . S
Tb816 O838 2.399 . S
Tb817 O827 2.322 . S
Tb817 O828 2.349 . S
Tb817 O830 2.415 . S
Tb817 O831 2.399 . S
Tb817 O832 2.325 . S
Tb817 O835 2.303 . S
Tb817 C846 2.764 . S
C818 O834 1.261 . S
C818 O835 1.257 . S
C819 C822 1.358 . S
C819 C823 1.332 . S
C819 C825 1.504 . S
C820 C821 1.373 . S
C820 C824 1.308 . S
C821 C820 1.373 . S
C821 C822 1.429 . S
C821 H848 0.932 . S
C822 C819 1.358 . S
C822 C821 1.429 . S
C822 H849 0.930 . S
C823 C819 1.332 . S
C823 C824 1.394 . S
C823 H850 0.932 . S
C824 C820 1.308 . S
C824 C823 1.394 . S
C824 H851 0.929 . S
C825 Tb816 2.764 . S
C825 C819 1.504 . S
C825 O837 1.239 . S
C825 O838 1.263 . S
O826 Tb816 2.325 . S
O826 C836 1.236 . S
O827 Tb817 2.322 . S
O827 C836 1.257 . S
O828 Tb817 2.349 . S
O828 C839 1.261 . S
O829 Tb816 2.303 . S
O829 C839 1.257 . S
O830 Tb817 2.415 . S
O830 C846 1.239 . S
O831 Tb817 2.399 . S
O831 C846 1.263 . S
O832 Tb817 2.325 . S
O832 C847 1.236 . S
O833 Tb816 2.322 . S
O833 C847 1.257 . S
O834 Tb816 2.349 . S
O834 C818 1.261 . S
O835 Tb817 2.303 . S
O835 C818 1.257 . S
C836 O826 1.236 . S
C836 O827 1.257 . S
O837 Tb816 2.415 . S
O837 C825 1.239 . S
O838 Tb816 2.399 . S
O838 C825 1.263 . S
C839 O828 1.261 . S
C839 O829 1.257 . S
C840 C843 1.358 . S
C840 C844 1.332 . S
C840 C846 1.504 . S
C841 C842 1.373 . S
C841 C845 1.308 . S
C842 C841 1.373 . S
C842 C843 1.429 . S
C842 H852 0.932 . S
C843 C840 1.358 . S
C843 C842 1.429 . S
C843 H853 0.930 . S
C844 C840 1.332 . S
C844 C845 1.394 . S
C844 H854 0.932 . S
C845 C841 1.308 . S
C845 C844 1.394 . S
C845 H855 0.929 . S
C846 Tb817 2.764 . S
C846 O830 1.239 . S
C846 O831 1.263 . S
C846 C840 1.504 . S
C847 O832 1.236 . S
C847 O833 1.257 . S
H848 C821 0.932 . S
H849 C822 0.930 . S
H850 C823 0.932 . S
H851 C824 0.929 . S
H852 C842 0.932 . S
H853 C843 0.930 . S
H854 C844 0.932 . S
H855 C845 0.929 . S
Tb856 C865 2.764 . S
Tb856 O866 2.325 . S
Tb856 O869 2.303 . S
Tb856 O873 2.322 . S
Tb856 O874 2.349 . S
Tb856 O877 2.415 . S
Tb856 O878 2.399 . S
Tb857 O867 2.322 . S
Tb857 O868 2.349 . S
Tb857 O870 2.415 . S
Tb857 O871 2.399 . S
Tb857 O872 2.325 . S
Tb857 O875 2.303 . S
Tb857 C886 2.764 . S
C858 O874 1.261 . S
C858 O875 1.257 . S
C859 C862 1.358 . S
C859 C863 1.332 . S
C859 C865 1.504 . S
C860 C861 1.373 . S
C860 C864 1.308 . S
C861 C860 1.373 . S
C861 C862 1.429 . S
C861 H888 0.932 . S
C862 C859 1.358 . S
C862 C861 1.429 . S
C862 H889 0.930 . S
C863 C859 1.332 . S
C863 C864 1.394 . S
C863 H890 0.932 . S
C864 C860 1.308 . S
C864 C863 1.394 . S
C864 H891 0.929 . S
C865 Tb856 2.764 . S
C865 C859 1.504 . S
C865 O877 1.239 . S
C865 O878 1.263 . S
O866 Tb856 2.325 . S
O866 C876 1.236 . S
O867 Tb857 2.322 . S
O867 C876 1.257 . S
O868 Tb857 2.349 . S
O868 C879 1.261 . S
O869 Tb856 2.303 . S
O869 C879 1.257 . S
O870 Tb857 2.415 . S
O870 C886 1.239 . S
O871 Tb857 2.399 . S
O871 C886 1.263 . S
O872 Tb857 2.325 . S
O872 C887 1.236 . S
O873 Tb856 2.322 . S
O873 C887 1.257 . S
O874 Tb856 2.349 . S
O874 C858 1.261 . S
O875 Tb857 2.303 . S
O875 C858 1.257 . S
C876 O866 1.236 . S
C876 O867 1.257 . S
O877 Tb856 2.415 . S
O877 C865 1.239 . S
O878 Tb856 2.399 . S
O878 C865 1.263 . S
C879 O868 1.261 . S
C879 O869 1.257 . S
C880 C883 1.358 . S
C880 C884 1.332 . S
C880 C886 1.504 . S
C881 C882 1.373 . S
C881 C885 1.308 . S
C882 C881 1.373 . S
C882 C883 1.429 . S
C882 H892 0.932 . S
C883 C880 1.358 . S
C883 C882 1.429 . S
C883 H893 0.930 . S
C884 C880 1.332 . S
C884 C885 1.394 . S
C884 H894 0.932 . S
C885 C881 1.308 . S
C885 C884 1.394 . S
C885 H895 0.929 . S
C886 Tb857 2.764 . S
C886 O870 1.239 . S
C886 O871 1.263 . S
C886 C880 1.504 . S
C887 O872 1.236 . S
C887 O873 1.257 . S
H888 C861 0.932 . S
H889 C862 0.930 . S
H890 C863 0.932 . S
H891 C864 0.929 . S
H892 C882 0.932 . S
H893 C883 0.930 . S
H894 C884 0.932 . S
H895 C885 0.929 . S
Tb896 C905 2.764 . S
Tb896 O906 2.325 . S
Tb896 O909 2.303 . S
Tb896 O913 2.322 . S
Tb896 O914 2.349 . S
Tb896 O917 2.415 . S
Tb896 O918 2.399 . S
Tb897 O907 2.322 . S
Tb897 O908 2.349 . S
Tb897 O910 2.415 . S
Tb897 O911 2.399 . S
Tb897 O912 2.325 . S
Tb897 O915 2.303 . S
Tb897 C926 2.764 . S
C898 O914 1.261 . S
C898 O915 1.257 . S
C899 C902 1.358 . S
C899 C903 1.332 . S
C899 C905 1.504 . S
C900 C901 1.373 . S
C900 C904 1.308 . S
C901 C900 1.373 . S
C901 C902 1.429 . S
C901 H928 0.932 . S
C902 C899 1.358 . S
C902 C901 1.429 . S
C902 H929 0.930 . S
C903 C899 1.332 . S
C903 C904 1.394 . S
C903 H930 0.932 . S
C904 C900 1.308 . S
C904 C903 1.394 . S
C904 H931 0.929 . S
C905 Tb896 2.764 . S
C905 C899 1.504 . S
C905 O917 1.239 . S
C905 O918 1.263 . S
O906 Tb896 2.325 . S
O906 C916 1.236 . S
O907 Tb897 2.322 . S
O907 C916 1.257 . S
O908 Tb897 2.349 . S
O908 C919 1.261 . S
O909 Tb896 2.303 . S
O909 C919 1.257 . S
O910 Tb897 2.415 . S
O910 C926 1.239 . S
O911 Tb897 2.399 . S
O911 C926 1.263 . S
O912 Tb897 2.325 . S
O912 C927 1.236 . S
O913 Tb896 2.322 . S
O913 C927 1.257 . S
O914 Tb896 2.349 . S
O914 C898 1.261 . S
O915 Tb897 2.303 . S
O915 C898 1.257 . S
C916 O906 1.236 . S
C916 O907 1.257 . S
O917 Tb896 2.415 . S
O917 C905 1.239 . S
O918 Tb896 2.399 . S
O918 C905 1.263 . S
C919 O908 1.261 . S
C919 O909 1.257 . S
C920 C923 1.358 . S
C920 C924 1.332 . S
C920 C926 1.504 . S
C921 C922 1.373 . S
C921 C925 1.308 . S
C922 C921 1.373 . S
C922 C923 1.429 . S
C922 H932 0.932 . S
C923 C920 1.358 . S
C923 C922 1.429 . S
C923 H933 0.930 . S
C924 C920 1.332 . S
C924 C925 1.394 . S
C924 H934 0.932 . S
C925 C921 1.308 . S
C925 C924 1.394 . S
C925 H935 0.929 . S
C926 Tb897 2.764 . S
C926 O910 1.239 . S
C926 O911 1.263 . S
C926 C920 1.504 . S
C927 O912 1.236 . S
C927 O913 1.257 . S
H928 C901 0.932 . S
H929 C902 0.930 . S
H930 C903 0.932 . S
H931 C904 0.929 . S
H932 C922 0.932 . S
H933 C923 0.930 . S
H934 C924 0.932 . S
H935 C925 0.929 . S
Tb936 C945 2.764 1_455 S
Tb936 O946 2.325 . S
Tb936 O949 2.303 . S
Tb936 O953 2.322 . S
Tb936 O954 2.349 . S
Tb936 O957 2.415 1_455 S
Tb936 O958 2.399 1_455 S
Tb937 O947 2.322 . S
Tb937 O948 2.349 1_554 S
Tb937 O950 2.415 . S
Tb937 O951 2.399 . S
Tb937 O952 2.325 . S
Tb937 O955 2.303 . S
Tb937 C966 2.764 . S
C938 O954 1.261 . S
C938 O955 1.257 . S
C939 C942 1.358 . S
C939 C943 1.332 . S
C939 C945 1.504 . S
C940 C941 1.373 . S
C940 C944 1.308 . S
C941 C940 1.373 . S
C941 C942 1.429 . S
C941 H968 0.932 . S
C942 C939 1.358 . S
C942 C941 1.429 . S
C942 H969 0.930 . S
C943 C939 1.332 . S
C943 C944 1.394 . S
C943 H970 0.932 . S
C944 C940 1.308 . S
C944 C943 1.394 . S
C944 H971 0.929 . S
C945 Tb936 2.764 1_655 S
C945 C939 1.504 . S
C945 O957 1.239 . S
C945 O958 1.263 . S
O946 Tb936 2.325 . S
O946 C956 1.236 . S
O947 Tb937 2.322 . S
O947 C956 1.257 . S
O948 Tb937 2.349 1_556 S
O948 C959 1.261 . S
O949 Tb936 2.303 . S
O949 C959 1.257 1_554 S
O950 Tb937 2.415 . S
O950 C966 1.239 . S
O951 Tb937 2.399 . S
O951 C966 1.263 . S
O952 Tb937 2.325 . S
O952 C967 1.236 . S
O953 Tb936 2.322 . S
O953 C967 1.257 . S
O954 Tb936 2.349 . S
O954 C938 1.261 . S
O955 Tb937 2.303 . S
O955 C938 1.257 . S
C956 O946 1.236 . S
C956 O947 1.257 . S
O957 Tb936 2.415 1_655 S
O957 C945 1.239 . S
O958 Tb936 2.399 1_655 S
O958 C945 1.263 . S
C959 O948 1.261 . S
C959 O949 1.257 1_556 S
C960 C963 1.358 1_554 S
C960 C964 1.332 . S
C960 C966 1.504 . S
C961 C962 1.373 1_554 S
C961 C965 1.308 . S
C962 C961 1.373 1_556 S
C962 C963 1.429 . S
C962 H972 0.932 . S
C963 C960 1.358 1_556 S
C963 C962 1.429 . S
C963 H973 0.930 . S
C964 C960 1.332 . S
C964 C965 1.394 . S
C964 H974 0.932 . S
C965 C961 1.308 . S
C965 C964 1.394 . S
C965 H975 0.929 . S
C966 Tb937 2.764 . S
C966 O950 1.239 . S
C966 O951 1.263 . S
C966 C960 1.504 . S
C967 O952 1.236 . S
C967 O953 1.257 . S
H968 C941 0.932 . S
H969 C942 0.930 . S
H970 C943 0.932 . S
H971 C944 0.929 . S
H972 C962 0.932 . S
H973 C963 0.930 . S
H974 C964 0.932 . S
H975 C965 0.929 . S
H976 C982 0.925 1_655 S
H977 C985 0.930 . S
H978 C986 0.930 . S
H979 C987 0.917 1_556 S
H980 C990 0.930 . S
H981 C991 0.930 . S
C982 H976 0.925 1_455 S
C982 C983 1.355 1_554 S
C982 C984 1.415 . S
C983 C982 1.355 1_556 S
C983 C985 1.419 . S
C984 C982 1.415 . S
C984 C989 1.425 1_554 S
C984 C991 1.409 . S
C985 H977 0.930 . S
C985 C983 1.419 . S
C985 C986 1.362 . S
C986 H978 0.930 . S
C986 C985 1.362 . S
C986 C989 1.409 . S
C987 H979 0.917 1_554 S
C987 C988 1.372 . S
C987 C989 1.409 1_554 S
C988 C987 1.372 . S
C988 C990 1.419 . S
C989 C984 1.425 1_556 S
C989 C986 1.409 . S
C989 C987 1.409 1_556 S
C990 H980 0.930 . S
C990 C988 1.419 . S
C990 C991 1.362 . S
C991 H981 0.930 . S
C991 C984 1.409 . S
C991 C990 1.362 . S
H992 C998 0.930 . S
H993 C1001 0.930 . S
H994 C1002 0.930 . S
H995 C1003 0.930 . S
H996 C1006 0.930 . S
H997 C1007 0.930 . S
C998 H992 0.930 . S
C998 C999 1.355 . S
C998 C1000 1.415 . S
C999 C998 1.355 . S
C999 C1001 1.419 . S
C1000 C998 1.415 . S
C1000 C1005 1.425 . S
C1000 C1007 1.409 . S
C1001 H993 0.930 . S
C1001 C999 1.419 . S
C1001 C1002 1.362 . S
C1002 H994 0.930 . S
C1002 C1001 1.362 . S
C1002 C1005 1.409 . S
C1003 H995 0.930 . S
C1003 C1004 1.355 . S
C1003 C1005 1.415 . S
C1004 C1003 1.355 . S
C1004 C1006 1.419 . S
C1005 C1000 1.425 . S
C1005 C1002 1.409 . S
C1005 C1003 1.415 . S
C1006 H996 0.930 . S
C1006 C1004 1.419 . S
C1006 C1007 1.362 . S
C1007 H997 0.930 . S
C1007 C1000 1.409 . S
C1007 C1006 1.362 . S
H1008 C1014 0.930 . S
H1009 C1017 0.930 . S
H1010 C1018 0.930 . S
H1011 C1019 0.930 . S
H1012 C1022 0.930 . S
H1013 C1023 0.930 . S
C1014 H1008 0.930 . S
C1014 C1015 1.355 . S
C1014 C1016 1.415 . S
C1015 C1014 1.355 . S
C1015 C1017 1.419 . S
C1016 C1014 1.415 . S
C1016 C1021 1.425 . S
C1016 C1023 1.409 . S
C1017 H1009 0.930 . S
C1017 C1015 1.419 . S
C1017 C1018 1.362 . S
C1018 H1010 0.930 . S
C1018 C1017 1.362 . S
C1018 C1021 1.409 . S
C1019 H1011 0.930 . S
C1019 C1020 1.355 . S
C1019 C1021 1.415 . S
C1020 C1019 1.355 . S
C1020 C1022 1.419 . S
C1021 C1016 1.425 . S
C1021 C1018 1.409 . S
C1021 C1019 1.415 . S
C1022 H1012 0.930 . S
C1022 C1020 1.419 . S
C1022 C1023 1.362 . S
C1023 H1013 0.930 . S
C1023 C1016 1.409 . S
C1023 C1022 1.362 . S
H1024 C1030 0.930 . S
H1025 C1033 0.930 . S
H1026 C1034 0.930 . S
H1027 C1035 0.930 . S
H1028 C1038 0.930 . S
H1029 C1039 0.930 . S
C1030 H1024 0.930 . S
C1030 C1031 1.355 . S
C1030 C1032 1.415 . S
C1031 C1030 1.355 . S
C1031 C1033 1.419 . S
C1032 C1030 1.415 . S
C1032 C1037 1.425 . S
C1032 C1039 1.409 . S
C1033 H1025 0.930 . S
C1033 C1031 1.419 . S
C1033 C1034 1.362 . S
C1034 H1026 0.930 . S
C1034 C1033 1.362 . S
C1034 C1037 1.409 . S
C1035 H1027 0.930 . S
C1035 C1036 1.355 . S
C1035 C1037 1.415 . S
C1036 C1035 1.355 . S
C1036 C1038 1.419 . S
C1037 C1032 1.425 . S
C1037 C1034 1.409 . S
C1037 C1035 1.415 . S
C1038 H1028 0.930 . S
C1038 C1036 1.419 . S
C1038 C1039 1.362 . S
C1039 H1029 0.930 . S
C1039 C1032 1.409 . S
C1039 C1038 1.362 . S
H1040 C1046 0.930 . S
H1041 C1049 0.930 . S
H1042 C1050 0.930 . S
H1043 C1051 0.930 . S
H1044 C1054 0.930 . S
H1045 C1055 0.930 . S
C1046 H1040 0.930 . S
C1046 C1047 1.355 . S
C1046 C1048 1.415 . S
C1047 C1046 1.355 . S
C1047 C1049 1.419 . S
C1048 C1046 1.415 . S
C1048 C1053 1.425 . S
C1048 C1055 1.409 . S
C1049 H1041 0.930 . S
C1049 C1047 1.419 . S
C1049 C1050 1.362 . S
C1050 H1042 0.930 . S
C1050 C1049 1.362 . S
C1050 C1053 1.409 . S
C1051 H1043 0.930 . S
C1051 C1052 1.355 . S
C1051 C1053 1.415 . S
C1052 C1051 1.355 . S
C1052 C1054 1.419 . S
C1053 C1048 1.425 . S
C1053 C1050 1.409 . S
C1053 C1051 1.415 . S
C1054 H1044 0.930 . S
C1054 C1052 1.419 . S
C1054 C1055 1.362 . S
C1055 H1045 0.930 . S
C1055 C1048 1.409 . S
C1055 C1054 1.362 . S
H1056 C1062 0.930 . S
H1057 C1065 0.930 . S
H1058 C1066 0.930 . S
H1059 C1067 0.930 . S
H1060 C1070 0.930 . S
H1061 C1071 0.930 . S
C1062 H1056 0.930 . S
C1062 C1063 1.355 . S
C1062 C1064 1.415 . S
C1063 C1062 1.355 . S
C1063 C1065 1.419 . S
C1064 C1062 1.415 . S
C1064 C1069 1.425 . S
C1064 C1071 1.409 . S
C1065 H1057 0.930 . S
C1065 C1063 1.419 . S
C1065 C1066 1.362 . S
C1066 H1058 0.930 . S
C1066 C1065 1.362 . S
C1066 C1069 1.409 . S
C1067 H1059 0.930 . S
C1067 C1068 1.355 . S
C1067 C1069 1.415 . S
C1068 C1067 1.355 . S
C1068 C1070 1.419 . S
C1069 C1064 1.425 . S
C1069 C1066 1.409 . S
C1069 C1067 1.415 . S
C1070 H1060 0.930 . S
C1070 C1068 1.419 . S
C1070 C1071 1.362 . S
C1071 H1061 0.930 . S
C1071 C1064 1.409 . S
C1071 C1070 1.362 . S
H1072 C1078 0.930 . S
H1073 C1081 0.930 . S
H1074 C1082 0.930 . S
H1075 C1083 0.930 . S
H1076 C1086 0.930 . S
H1077 C1087 0.930 . S
C1078 H1072 0.930 . S
C1078 C1079 1.355 . S
C1078 C1080 1.415 . S
C1079 C1078 1.355 . S
C1079 C1081 1.419 . S
C1080 C1078 1.415 . S
C1080 C1085 1.425 . S
C1080 C1087 1.409 . S
C1081 H1073 0.930 . S
C1081 C1079 1.419 . S
C1081 C1082 1.362 . S
C1082 H1074 0.930 . S
C1082 C1081 1.362 . S
C1082 C1085 1.409 . S
C1083 H1075 0.930 . S
C1083 C1084 1.355 . S
C1083 C1085 1.415 . S
C1084 C1083 1.355 . S
C1084 C1086 1.419 . S
C1085 C1080 1.425 . S
C1085 C1082 1.409 . S
C1085 C1083 1.415 . S
C1086 H1076 0.930 . S
C1086 C1084 1.419 . S
C1086 C1087 1.362 . S
C1087 H1077 0.930 . S
C1087 C1080 1.409 . S
C1087 C1086 1.362 . S
H1088 C1094 0.930 . S
H1089 C1097 0.930 . S
H1090 C1098 0.930 . S
H1091 C1099 0.930 . S
H1092 C1102 0.930 . S
H1093 C1103 0.930 . S
C1094 H1088 0.930 . S
C1094 C1095 1.355 . S
C1094 C1096 1.415 . S
C1095 C1094 1.355 . S
C1095 C1097 1.419 . S
C1096 C1094 1.415 . S
C1096 C1101 1.425 . S
C1096 C1103 1.409 . S
C1097 H1089 0.930 . S
C1097 C1095 1.419 . S
C1097 C1098 1.362 . S
C1098 H1090 0.930 . S
C1098 C1097 1.362 . S
C1098 C1101 1.409 . S
C1099 H1091 0.930 . S
C1099 C1100 1.355 . S
C1099 C1101 1.415 . S
C1100 C1099 1.355 . S
C1100 C1102 1.419 . S
C1101 C1096 1.425 . S
C1101 C1098 1.409 . S
C1101 C1099 1.415 . S
C1102 H1092 0.930 . S
C1102 C1100 1.419 . S
C1102 C1103 1.362 . S
C1103 H1093 0.930 . S
C1103 C1096 1.409 . S
C1103 C1102 1.362 . S
H1104 C1110 0.930 . S
H1105 C1113 0.930 . S
H1106 C1114 0.930 . S
H1107 C1115 0.930 1_655 S
H1108 C1118 0.930 . S
H1109 C1119 0.930 . S
C1110 H1104 0.930 . S
C1110 C1111 1.355 . S
C1110 C1112 1.419 . S
C1111 C1110 1.355 . S
C1111 C1113 1.419 . S
C1112 C1110 1.419 . S
C1112 C1117 1.429 . S
C1112 C1119 1.400 1_655 S
C1113 H1105 0.930 . S
C1113 C1111 1.419 . S
C1113 C1114 1.362 . S
C1114 H1106 0.930 . S
C1114 C1113 1.362 . S
C1114 C1117 1.409 . S
C1115 H1107 0.930 1_455 S
C1115 C1116 1.355 . S
C1115 C1117 1.415 1_455 S
C1116 C1115 1.355 . S
C1116 C1118 1.419 . S
C1117 C1112 1.429 . S
C1117 C1114 1.409 . S
C1117 C1115 1.415 1_655 S
C1118 H1108 0.930 . S
C1118 C1116 1.419 . S
C1118 C1119 1.362 . S
C1119 H1109 0.930 . S
C1119 C1112 1.400 1_455 S
C1119 C1118 1.362 . S
H1120 C1126 0.930 . S
H1121 C1129 0.930 . S
H1122 C1130 0.930 . S
H1123 C1131 0.930 . S
H1124 C1134 0.930 . S
H1125 C1135 0.930 . S
C1126 H1120 0.930 . S
C1126 C1127 1.355 . S
C1126 C1128 1.415 . S
C1127 C1126 1.355 . S
C1127 C1129 1.419 . S
C1128 C1126 1.415 . S
C1128 C1133 1.425 . S
C1128 C1135 1.409 . S
C1129 H1121 0.930 . S
C1129 C1127 1.419 . S
C1129 C1130 1.362 . S
C1130 H1122 0.930 . S
C1130 C1129 1.362 . S
C1130 C1133 1.409 . S
C1131 H1123 0.930 . S
C1131 C1132 1.355 . S
C1131 C1133 1.415 . S
C1132 C1131 1.355 . S
C1132 C1134 1.419 . S
C1133 C1128 1.425 . S
C1133 C1130 1.409 . S
C1133 C1131 1.415 . S
C1134 H1124 0.930 . S
C1134 C1132 1.419 . S
C1134 C1135 1.362 . S
C1135 H1125 0.930 . S
C1135 C1128 1.409 . S
C1135 C1134 1.362 . S
H1136 C1142 0.930 . S
H1137 C1145 0.930 . S
H1138 C1146 0.930 . S
H1139 C1147 0.930 . S
H1140 C1150 0.930 . S
H1141 C1151 0.930 . S
C1142 H1136 0.930 . S
C1142 C1143 1.355 . S
C1142 C1144 1.415 . S
C1143 C1142 1.355 . S
C1143 C1145 1.419 . S
C1144 C1142 1.415 . S
C1144 C1149 1.425 . S
C1144 C1151 1.409 . S
C1145 H1137 0.930 . S
C1145 C1143 1.419 . S
C1145 C1146 1.362 . S
C1146 H1138 0.930 . S
C1146 C1145 1.362 . S
C1146 C1149 1.409 . S
C1147 H1139 0.930 . S
C1147 C1148 1.355 . S
C1147 C1149 1.415 . S
C1148 C1147 1.355 . S
C1148 C1150 1.419 . S
C1149 C1144 1.425 . S
C1149 C1146 1.409 . S
C1149 C1147 1.415 . S
C1150 H1140 0.930 . S
C1150 C1148 1.419 . S
C1150 C1151 1.362 . S
C1151 H1141 0.930 . S
C1151 C1144 1.409 . S
C1151 C1150 1.362 . S
H1152 C1158 0.930 . S
H1153 C1161 0.930 . S
H1154 C1162 0.930 . S
H1155 C1163 0.930 . S
H1156 C1166 0.930 . S
H1157 C1167 0.930 . S
C1158 H1152 0.930 . S
C1158 C1159 1.355 . S
C1158 C1160 1.415 . S
C1159 C1158 1.355 . S
C1159 C1161 1.419 . S
C1160 C1158 1.415 . S
C1160 C1165 1.425 . S
C1160 C1167 1.409 . S
C1161 H1153 0.930 . S
C1161 C1159 1.419 . S
C1161 C1162 1.362 . S
C1162 H1154 0.930 . S
C1162 C1161 1.362 . S
C1162 C1165 1.409 . S
C1163 H1155 0.930 . S
C1163 C1164 1.355 . S
C1163 C1165 1.415 . S
C1164 C1163 1.355 . S
C1164 C1166 1.419 . S
C1165 C1160 1.425 . S
C1165 C1162 1.409 . S
C1165 C1163 1.415 . S
C1166 H1156 0.930 . S
C1166 C1164 1.419 . S
C1166 C1167 1.362 . S
C1167 H1157 0.930 . S
C1167 C1160 1.409 . S
C1167 C1166 1.362 . S
H1168 C1174 0.930 . S
H1169 C1177 0.930 . S
H1170 C1178 0.930 . S
H1171 C1179 0.930 . S
H1172 C1182 0.930 . S
H1173 C1183 0.930 . S
C1174 H1168 0.930 . S
C1174 C1175 1.355 . S
C1174 C1176 1.415 . S
C1175 C1174 1.355 . S
C1175 C1177 1.419 1_545 S
C1176 C1174 1.415 . S
C1176 C1181 1.425 1_545 S
C1176 C1183 1.409 . S
C1177 H1169 0.930 . S
C1177 C1175 1.419 1_565 S
C1177 C1178 1.362 . S
C1178 H1170 0.930 . S
C1178 C1177 1.362 . S
C1178 C1181 1.409 . S
C1179 H1171 0.930 . S
C1179 C1180 1.355 1_565 S
C1179 C1181 1.415 . S
C1180 C1179 1.355 1_545 S
C1180 C1182 1.419 1_655 S
C1181 C1176 1.425 1_565 S
C1181 C1178 1.409 . S
C1181 C1179 1.415 . S
C1182 H1172 0.930 . S
C1182 C1180 1.419 1_455 S
C1182 C1183 1.362 1_455 S
C1183 H1173 0.930 . S
C1183 C1176 1.409 . S
C1183 C1182 1.362 1_655 S
H1184 C1190 0.930 . S
H1185 C1193 0.930 . S
H1186 C1194 0.930 . S
H1187 C1195 0.930 . S
H1188 C1198 0.930 . S
H1189 C1199 0.930 . S
C1190 H1184 0.930 . S
C1190 C1191 1.355 . S
C1190 C1192 1.415 . S
C1191 C1190 1.355 . S
C1191 C1193 1.419 . S
C1192 C1190 1.415 . S
C1192 C1197 1.425 . S
C1192 C1199 1.409 . S
C1193 H1185 0.930 . S
C1193 C1191 1.419 . S
C1193 C1194 1.362 . S
C1194 H1186 0.930 . S
C1194 C1193 1.362 . S
C1194 C1197 1.409 . S
C1195 H1187 0.930 . S
C1195 C1196 1.355 . S
C1195 C1197 1.415 . S
C1196 C1195 1.355 . S
C1196 C1198 1.419 . S
C1197 C1192 1.425 . S
C1197 C1194 1.409 . S
C1197 C1195 1.415 . S
C1198 H1188 0.930 . S
C1198 C1196 1.419 . S
C1198 C1199 1.362 . S
C1199 H1189 0.930 . S
C1199 C1192 1.409 . S
C1199 C1198 1.362 . S
H1200 C1206 0.930 . S
H1201 C1209 0.930 . S
H1202 C1210 0.930 . S
H1203 C1211 0.930 . S
H1204 C1214 0.930 . S
H1205 C1215 0.930 . S
C1206 H1200 0.930 . S
C1206 C1207 1.355 . S
C1206 C1208 1.415 . S
C1207 C1206 1.355 . S
C1207 C1209 1.419 . S
C1208 C1206 1.415 . S
C1208 C1213 1.425 . S
C1208 C1215 1.409 . S
C1209 H1201 0.930 . S
C1209 C1207 1.419 . S
C1209 C1210 1.362 . S
C1210 H1202 0.930 . S
C1210 C1209 1.362 . S
C1210 C1213 1.409 . S
C1211 H1203 0.930 . S
C1211 C1212 1.355 . S
C1211 C1213 1.415 . S
C1212 C1211 1.355 . S
C1212 C1214 1.419 . S
C1213 C1208 1.425 . S
C1213 C1210 1.409 . S
C1213 C1211 1.415 . S
C1214 H1204 0.930 . S
C1214 C1212 1.419 . S
C1214 C1215 1.362 . S
C1215 H1205 0.930 . S
C1215 C1208 1.409 . S
C1215 C1214 1.362 . S
H1216 C1222 0.930 . S
H1217 C1225 0.930 . S
H1218 C1226 0.930 . S
H1219 C1227 0.930 . S
H1220 C1230 0.930 . S
H1221 C1231 0.930 . S
C1222 H1216 0.930 . S
C1222 C1223 1.355 . S
C1222 C1224 1.415 . S
C1223 C1222 1.355 . S
C1223 C1225 1.419 . S
C1224 C1222 1.415 . S
C1224 C1229 1.425 . S
C1224 C1231 1.409 . S
C1225 H1217 0.930 . S
C1225 C1223 1.419 . S
C1225 C1226 1.362 . S
C1226 H1218 0.930 . S
C1226 C1225 1.362 . S
C1226 C1229 1.409 . S
C1227 H1219 0.930 . S
C1227 C1228 1.355 . S
C1227 C1229 1.415 . S
C1228 C1227 1.355 . S
C1228 C1230 1.419 . S
C1229 C1224 1.425 . S
C1229 C1226 1.409 . S
C1229 C1227 1.415 . S
C1230 H1220 0.930 . S
C1230 C1228 1.419 . S
C1230 C1231 1.362 . S
C1231 H1221 0.930 . S
C1231 C1224 1.409 . S
C1231 C1230 1.362 . S
H1232 C1238 0.930 . S
H1233 C1241 0.930 . S
H1234 C1242 0.930 . S
H1235 C1243 0.930 . S
H1236 C1246 0.930 . S
H1237 C1247 0.930 . S
C1238 H1232 0.930 . S
C1238 C1239 1.355 . S
C1238 C1240 1.415 . S
C1239 C1238 1.355 . S
C1239 C1241 1.419 1_565 S
C1240 C1238 1.415 . S
C1240 C1245 1.425 1_565 S
C1240 C1247 1.409 . S
C1241 H1233 0.930 . S
C1241 C1239 1.419 1_545 S
C1241 C1242 1.362 . S
C1242 H1234 0.930 . S
C1242 C1241 1.362 . S
C1242 C1245 1.409 . S
C1243 H1235 0.930 . S
C1243 C1244 1.355 . S
C1243 C1245 1.415 . S
C1244 C1243 1.355 . S
C1244 C1246 1.419 1_545 S
C1245 C1240 1.425 1_545 S
C1245 C1242 1.409 . S
C1245 C1243 1.415 . S
C1246 H1236 0.930 . S
C1246 C1244 1.419 1_565 S
C1246 C1247 1.362 . S
C1247 H1237 0.930 . S
C1247 C1240 1.409 . S
C1247 C1246 1.362 . S
H1248 C1254 0.930 . S
H1249 C1257 0.930 . S
H1250 C1258 0.930 . S
H1251 C1259 0.930 . S
H1252 C1262 0.930 . S
H1253 C1263 0.930 . S
C1254 H1248 0.930 . S
C1254 C1255 1.355 . S
C1254 C1256 1.415 . S
C1255 C1254 1.355 . S
C1255 C1257 1.419 . S
C1256 C1254 1.415 . S
C1256 C1261 1.425 . S
C1256 C1263 1.409 . S
C1257 H1249 0.930 . S
C1257 C1255 1.419 . S
C1257 C1258 1.362 . S
C1258 H1250 0.930 . S
C1258 C1257 1.362 . S
C1258 C1261 1.409 . S
C1259 H1251 0.930 . S
C1259 C1260 1.355 . S
C1259 C1261 1.415 . S
C1260 C1259 1.355 . S
C1260 C1262 1.419 . S
C1261 C1256 1.425 . S
C1261 C1258 1.409 . S
C1261 C1259 1.415 . S
C1262 H1252 0.930 . S
C1262 C1260 1.419 . S
C1262 C1263 1.362 . S
C1263 H1253 0.930 . S
C1263 C1256 1.409 . S
C1263 C1262 1.362 . S
H1264 C1270 0.930 . S
H1265 C1273 0.930 . S
H1266 C1274 0.930 . S
H1267 C1275 0.930 . S
H1268 C1278 0.930 . S
H1269 C1279 0.930 . S
C1270 H1264 0.930 . S
C1270 C1271 1.355 . S
C1270 C1272 1.415 . S
C1271 C1270 1.355 . S
C1271 C1273 1.419 . S
C1272 C1270 1.415 . S
C1272 C1277 1.425 . S
C1272 C1279 1.409 . S
C1273 H1265 0.930 . S
C1273 C1271 1.419 . S
C1273 C1274 1.362 . S
C1274 H1266 0.930 . S
C1274 C1273 1.362 . S
C1274 C1277 1.409 . S
C1275 H1267 0.930 . S
C1275 C1276 1.355 . S
C1275 C1277 1.415 . S
C1276 C1275 1.355 . S
C1276 C1278 1.419 . S
C1277 C1272 1.425 . S
C1277 C1274 1.409 . S
C1277 C1275 1.415 . S
C1278 H1268 0.930 . S
C1278 C1276 1.419 . S
C1278 C1279 1.362 . S
C1279 H1269 0.930 . S
C1279 C1272 1.409 . S
C1279 C1278 1.362 . S
H1280 C1286 0.930 . S
H1281 C1289 0.930 . S
H1282 C1290 0.930 . S
H1283 C1291 0.930 . S
H1284 C1294 0.930 . S
H1285 C1295 0.930 . S
C1286 H1280 0.930 . S
C1286 C1287 1.355 . S
C1286 C1288 1.415 . S
C1287 C1286 1.355 . S
C1287 C1289 1.419 . S
C1288 C1286 1.415 . S
C1288 C1293 1.425 . S
C1288 C1295 1.409 . S
C1289 H1281 0.930 . S
C1289 C1287 1.419 . S
C1289 C1290 1.362 . S
C1290 H1282 0.930 . S
C1290 C1289 1.362 . S
C1290 C1293 1.409 . S
C1291 H1283 0.930 . S
C1291 C1292 1.355 . S
C1291 C1293 1.415 . S
C1292 C1291 1.355 . S
C1292 C1294 1.419 . S
C1293 C1288 1.425 . S
C1293 C1290 1.409 . S
C1293 C1291 1.415 . S
C1294 H1284 0.930 . S
C1294 C1292 1.419 . S
C1294 C1295 1.362 . S
C1295 H1285 0.930 . S
C1295 C1288 1.409 . S
C1295 C1294 1.362 . S
H1296 C1302 0.930 . S
H1297 C1305 0.930 . S
H1298 C1306 0.930 . S
H1299 C1307 0.930 . S
H1300 C1310 0.930 . S
H1301 C1311 0.930 . S
C1302 H1296 0.930 . S
C1302 C1303 1.355 . S
C1302 C1304 1.415 . S
C1303 C1302 1.355 . S
C1303 C1305 1.419 . S
C1304 C1302 1.415 . S
C1304 C1309 1.425 . S
C1304 C1311 1.409 . S
C1305 H1297 0.930 . S
C1305 C1303 1.419 . S
C1305 C1306 1.362 . S
C1306 H1298 0.930 . S
C1306 C1305 1.362 . S
C1306 C1309 1.409 . S
C1307 H1299 0.930 . S
C1307 C1308 1.355 . S
C1307 C1309 1.415 . S
C1308 C1307 1.355 . S
C1308 C1310 1.419 . S
C1309 C1304 1.425 . S
C1309 C1306 1.409 . S
C1309 C1307 1.415 . S
C1310 H1300 0.930 . S
C1310 C1308 1.419 . S
C1310 C1311 1.362 . S
C1311 H1301 0.930 . S
C1311 C1304 1.409 . S
C1311 C1310 1.362 . S
H1312 C1318 0.930 . S
H1313 C1321 0.930 . S
H1314 C1322 0.930 . S
H1315 C1323 0.930 . S
H1316 C1326 0.930 . S
H1317 C1327 0.930 . S
C1318 H1312 0.930 . S
C1318 C1319 1.355 . S
C1318 C1320 1.415 . S
C1319 C1318 1.355 . S
C1319 C1321 1.419 . S
C1320 C1318 1.415 . S
C1320 C1325 1.425 . S
C1320 C1327 1.409 . S
C1321 H1313 0.930 . S
C1321 C1319 1.419 . S
C1321 C1322 1.362 . S
C1322 H1314 0.930 . S
C1322 C1321 1.362 . S
C1322 C1325 1.409 . S
C1323 H1315 0.930 . S
C1323 C1324 1.355 . S
C1323 C1325 1.415 . S
C1324 C1323 1.355 . S
C1324 C1326 1.419 . S
C1325 C1320 1.425 . S
C1325 C1322 1.409 . S
C1325 C1323 1.415 . S
C1326 H1316 0.930 . S
C1326 C1324 1.419 . S
C1326 C1327 1.362 . S
C1327 H1317 0.930 . S
C1327 C1320 1.409 . S
C1327 C1326 1.362 . S
H1328 C1334 0.930 . S
H1329 C1337 0.930 . S
H1330 C1338 0.930 . S
H1331 C1339 0.930 . S
H1332 C1342 0.930 . S
H1333 C1343 0.930 . S
C1334 H1328 0.930 . S
C1334 C1335 1.355 . S
C1334 C1336 1.415 . S
C1335 C1334 1.355 . S
C1335 C1337 1.419 . S
C1336 C1334 1.415 . S
C1336 C1341 1.425 . S
C1336 C1343 1.409 . S
C1337 H1329 0.930 . S
C1337 C1335 1.419 . S
C1337 C1338 1.362 . S
C1338 H1330 0.930 . S
C1338 C1337 1.362 . S
C1338 C1341 1.409 . S
C1339 H1331 0.930 . S
C1339 C1340 1.355 . S
C1339 C1341 1.415 . S
C1340 C1339 1.355 . S
C1340 C1342 1.419 . S
C1341 C1336 1.425 . S
C1341 C1338 1.409 . S
C1341 C1339 1.415 . S
C1342 H1332 0.930 . S
C1342 C1340 1.419 . S
C1342 C1343 1.362 . S
C1343 H1333 0.930 . S
C1343 C1336 1.409 . S
C1343 C1342 1.362 . S
H1344 C1350 0.930 . S
H1345 C1353 0.930 . S
H1346 C1354 0.930 . S
H1347 C1355 0.930 . S
H1348 C1358 0.930 . S
H1349 C1359 0.930 . S
C1350 H1344 0.930 . S
C1350 C1351 1.355 . S
C1350 C1352 1.415 . S
C1351 C1350 1.355 . S
C1351 C1353 1.419 . S
C1352 C1350 1.415 . S
C1352 C1357 1.425 . S
C1352 C1359 1.409 . S
C1353 H1345 0.930 . S
C1353 C1351 1.419 . S
C1353 C1354 1.362 . S
C1354 H1346 0.930 . S
C1354 C1353 1.362 . S
C1354 C1357 1.409 . S
C1355 H1347 0.930 . S
C1355 C1356 1.355 . S
C1355 C1357 1.415 . S
C1356 C1355 1.355 . S
C1356 C1358 1.419 . S
C1357 C1352 1.425 . S
C1357 C1354 1.409 . S
C1357 C1355 1.415 . S
C1358 H1348 0.930 . S
C1358 C1356 1.419 . S
C1358 C1359 1.362 . S
C1359 H1349 0.930 . S
C1359 C1352 1.409 . S
C1359 C1358 1.362 . S
H1360 C1366 0.930 . S
H1361 C1369 0.930 . S
H1362 C1370 0.930 . S
H1363 C1371 0.930 . S
H1364 C1374 0.930 . S
H1365 C1375 0.930 . S
C1366 H1360 0.930 . S
C1366 C1367 1.355 . S
C1366 C1368 1.415 . S
C1367 C1366 1.355 . S
C1367 C1369 1.419 . S
C1368 C1366 1.415 . S
C1368 C1373 1.425 . S
C1368 C1375 1.409 . S
C1369 H1361 0.930 . S
C1369 C1367 1.419 . S
C1369 C1370 1.362 . S
C1370 H1362 0.930 . S
C1370 C1369 1.362 . S
C1370 C1373 1.409 . S
C1371 H1363 0.930 . S
C1371 C1372 1.355 . S
C1371 C1373 1.415 . S
C1372 C1371 1.355 . S
C1372 C1374 1.419 . S
C1373 C1368 1.425 . S
C1373 C1370 1.409 . S
C1373 C1371 1.415 . S
C1374 H1364 0.930 . S
C1374 C1372 1.419 . S
C1374 C1375 1.362 . S
C1375 H1365 0.930 . S
C1375 C1368 1.409 . S
C1375 C1374 1.362 . S
H1376 C1382 0.930 . S
H1377 C1385 0.930 . S
H1378 C1386 0.930 . S
H1379 C1387 0.930 . S
H1380 C1390 0.930 . S
H1381 C1391 0.930 . S
C1382 H1376 0.930 . S
C1382 C1383 1.355 . S
C1382 C1384 1.415 . S
C1383 C1382 1.355 . S
C1383 C1385 1.419 . S
C1384 C1382 1.415 . S
C1384 C1389 1.425 . S
C1384 C1391 1.409 . S
C1385 H1377 0.930 . S
C1385 C1383 1.419 . S
C1385 C1386 1.362 . S
C1386 H1378 0.930 . S
C1386 C1385 1.362 . S
C1386 C1389 1.409 . S
C1387 H1379 0.930 . S
C1387 C1388 1.355 . S
C1387 C1389 1.415 . S
C1388 C1387 1.355 . S
C1388 C1390 1.419 . S
C1389 C1384 1.425 . S
C1389 C1386 1.409 . S
C1389 C1387 1.415 . S
C1390 H1380 0.930 . S
C1390 C1388 1.419 . S
C1390 C1391 1.362 . S
C1391 H1381 0.930 . S
C1391 C1384 1.409 . S
C1391 C1390 1.362 . S
H1392 C1398 0.930 . S
H1393 C1401 0.930 . S
H1394 C1402 0.930 . S
H1395 C1403 0.930 . S
H1396 C1406 0.930 . S
H1397 C1407 0.930 . S
C1398 H1392 0.930 . S
C1398 C1399 1.355 . S
C1398 C1400 1.415 . S
C1399 C1398 1.355 . S
C1399 C1401 1.419 . S
C1400 C1398 1.415 . S
C1400 C1405 1.425 . S
C1400 C1407 1.409 . S
C1401 H1393 0.930 . S
C1401 C1399 1.419 . S
C1401 C1402 1.362 . S
C1402 H1394 0.930 . S
C1402 C1401 1.362 . S
C1402 C1405 1.409 . S
C1403 H1395 0.930 . S
C1403 C1404 1.355 . S
C1403 C1405 1.415 . S
C1404 C1403 1.355 . S
C1404 C1406 1.419 . S
C1405 C1400 1.425 . S
C1405 C1402 1.409 . S
C1405 C1403 1.415 . S
C1406 H1396 0.930 . S
C1406 C1404 1.419 . S
C1406 C1407 1.362 . S
C1407 H1397 0.930 . S
C1407 C1400 1.409 . S
C1407 C1406 1.362 . S
H1408 C1414 0.930 . S
H1409 C1417 0.930 . S
H1410 C1418 0.930 . S
H1411 C1419 0.930 . S
H1412 C1422 0.930 . S
H1413 C1423 0.930 . S
C1414 H1408 0.930 . S
C1414 C1415 1.355 . S
C1414 C1416 1.415 . S
C1415 C1414 1.355 . S
C1415 C1417 1.419 . S
C1416 C1414 1.415 . S
C1416 C1421 1.425 . S
C1416 C1423 1.409 . S
C1417 H1409 0.930 . S
C1417 C1415 1.419 . S
C1417 C1418 1.362 . S
C1418 H1410 0.930 . S
C1418 C1417 1.362 . S
C1418 C1421 1.409 . S
C1419 H1411 0.930 . S
C1419 C1420 1.355 . S
C1419 C1421 1.415 . S
C1420 C1419 1.355 . S
C1420 C1422 1.419 . S
C1421 C1416 1.425 . S
C1421 C1418 1.409 . S
C1421 C1419 1.415 . S
C1422 H1412 0.930 . S
C1422 C1420 1.419 . S
C1422 C1423 1.362 . S
C1423 H1413 0.930 . S
C1423 C1416 1.409 . S
C1423 C1422 1.362 . S
H1424 C1430 0.930 . S
H1425 C1433 0.930 . S
H1426 C1434 0.930 . S
H1427 C1435 0.930 . S
H1428 C1438 0.930 . S
H1429 C1439 0.930 . S
C1430 H1424 0.930 . S
C1430 C1431 1.355 . S
C1430 C1432 1.415 . S
C1431 C1430 1.355 . S
C1431 C1433 1.419 . S
C1432 C1430 1.415 . S
C1432 C1437 1.425 . S
C1432 C1439 1.409 . S
C1433 H1425 0.930 . S
C1433 C1431 1.419 . S
C1433 C1434 1.362 . S
C1434 H1426 0.930 . S
C1434 C1433 1.362 . S
C1434 C1437 1.409 . S
C1435 H1427 0.930 . S
C1435 C1436 1.355 . S
C1435 C1437 1.415 . S
C1436 C1435 1.355 . S
C1436 C1438 1.419 . S
C1437 C1432 1.425 . S
C1437 C1434 1.409 . S
C1437 C1435 1.415 . S
C1438 H1428 0.930 . S
C1438 C1436 1.419 . S
C1438 C1439 1.362 . S
C1439 H1429 0.930 . S
C1439 C1432 1.409 . S
C1439 C1438 1.362 . S
H1440 C1446 0.930 . S
H1441 C1449 0.930 . S
H1442 C1450 0.930 . S
H1443 C1451 0.930 . S
H1444 C1454 0.930 . S
H1445 C1455 0.930 . S
C1446 H1440 0.930 . S
C1446 C1447 1.355 . S
C1446 C1448 1.415 . S
C1447 C1446 1.355 . S
C1447 C1449 1.419 . S
C1448 C1446 1.415 . S
C1448 C1453 1.425 . S
C1448 C1455 1.409 . S
C1449 H1441 0.930 . S
C1449 C1447 1.419 . S
C1449 C1450 1.362 . S
C1450 H1442 0.930 . S
C1450 C1449 1.362 . S
C1450 C1453 1.409 . S
C1451 H1443 0.930 . S
C1451 C1452 1.355 . S
C1451 C1453 1.415 . S
C1452 C1451 1.355 . S
C1452 C1454 1.419 . S
C1453 C1448 1.425 . S
C1453 C1450 1.409 . S
C1453 C1451 1.415 . S
C1454 H1444 0.930 . S
C1454 C1452 1.419 . S
C1454 C1455 1.362 . S
C1455 H1445 0.930 . S
C1455 C1448 1.409 . S
C1455 C1454 1.362 . S
H1456 C1462 0.930 . S
H1457 C1465 0.930 . S
H1458 C1466 0.930 . S
H1459 C1467 0.930 . S
H1460 C1470 0.930 . S
H1461 C1471 0.930 1_554 S
C1462 H1456 0.930 . S
C1462 C1463 1.355 . S
C1462 C1464 1.415 . S
C1463 C1462 1.355 . S
C1463 C1465 1.419 . S
C1464 C1462 1.415 . S
C1464 C1469 1.425 . S
C1464 C1471 1.409 . S
C1465 H1457 0.930 . S
C1465 C1463 1.419 . S
C1465 C1466 1.362 . S
C1466 H1458 0.930 . S
C1466 C1465 1.362 . S
C1466 C1469 1.409 . S
C1467 H1459 0.930 . S
C1467 C1468 1.355 . S
C1467 C1469 1.415 . S
C1468 C1467 1.355 . S
C1468 C1470 1.419 1_556 S
C1469 C1464 1.425 . S
C1469 C1466 1.409 . S
C1469 C1467 1.415 . S
C1470 H1460 0.930 . S
C1470 C1468 1.419 1_554 S
C1470 C1471 1.362 1_554 S
C1471 H1461 0.930 1_556 S
C1471 C1464 1.409 . S
C1471 C1470 1.362 1_556 S
H1472 C1478 0.930 . S
H1473 C1481 0.930 . S
H1474 C1482 0.930 . S
H1475 C1483 0.930 . S
H1476 C1486 0.930 . S
H1477 C1487 0.930 . S
C1478 H1472 0.930 . S
C1478 C1479 1.355 . S
C1478 C1480 1.415 . S
C1479 C1478 1.355 . S
C1479 C1481 1.419 . S
C1480 C1478 1.415 . S
C1480 C1485 1.425 . S
C1480 C1487 1.409 . S
C1481 H1473 0.930 . S
C1481 C1479 1.419 . S
C1481 C1482 1.362 . S
C1482 H1474 0.930 . S
C1482 C1481 1.362 . S
C1482 C1485 1.409 . S
C1483 H1475 0.930 . S
C1483 C1484 1.355 . S
C1483 C1485 1.415 . S
C1484 C1483 1.355 . S
C1484 C1486 1.419 . S
C1485 C1480 1.425 . S
C1485 C1482 1.409 . S
C1485 C1483 1.415 . S
C1486 H1476 0.930 . S
C1486 C1484 1.419 . S
C1486 C1487 1.362 . S
C1487 H1477 0.930 . S
C1487 C1480 1.409 . S
C1487 C1486 1.362 . S
H1488 C1494 0.930 . S
H1489 C1497 0.930 . S
H1490 C1498 0.930 . S
H1491 C1499 0.930 . S
H1492 C1502 0.930 1_554 S
H1493 C1503 0.930 . S
C1494 H1488 0.930 . S
C1494 C1495 1.355 . S
C1494 C1496 1.415 . S
C1495 C1494 1.355 . S
C1495 C1497 1.419 . S
C1496 C1494 1.415 . S
C1496 C1501 1.425 . S
C1496 C1503 1.409 . S
C1497 H1489 0.930 . S
C1497 C1495 1.419 . S
C1497 C1498 1.362 . S
C1498 H1490 0.930 . S
C1498 C1497 1.362 . S
C1498 C1501 1.409 . S
C1499 H1491 0.930 . S
C1499 C1500 1.355 . S
C1499 C1501 1.415 . S
C1500 C1499 1.355 . S
C1500 C1502 1.419 . S
C1501 C1496 1.425 . S
C1501 C1498 1.409 . S
C1501 C1499 1.415 . S
C1502 H1492 0.930 1_556 S
C1502 C1500 1.419 . S
C1502 C1503 1.362 . S
C1503 H1493 0.930 . S
C1503 C1496 1.409 . S
C1503 C1502 1.362 . S
H1504 C1510 0.930 . S
H1505 C1513 0.930 . S
H1506 C1514 0.930 . S
H1507 C1515 0.930 . S
H1508 C1518 0.930 . S
H1509 C1519 0.930 . S
C1510 H1504 0.930 . S
C1510 C1511 1.355 . S
C1510 C1512 1.415 . S
C1511 C1510 1.355 . S
C1511 C1513 1.419 . S
C1512 C1510 1.415 . S
C1512 C1517 1.425 . S
C1512 C1519 1.409 . S
C1513 H1505 0.930 . S
C1513 C1511 1.419 . S
C1513 C1514 1.362 . S
C1514 H1506 0.930 . S
C1514 C1513 1.362 . S
C1514 C1517 1.409 . S
C1515 H1507 0.930 . S
C1515 C1516 1.355 . S
C1515 C1517 1.415 . S
C1516 C1515 1.355 . S
C1516 C1518 1.419 . S
C1517 C1512 1.425 . S
C1517 C1514 1.409 . S
C1517 C1515 1.415 . S
C1518 H1508 0.930 . S
C1518 C1516 1.419 . S
C1518 C1519 1.362 . S
C1519 H1509 0.930 . S
C1519 C1512 1.409 . S
C1519 C1518 1.362 . S
H1520 C1526 0.930 . S
H1521 C1529 0.930 . S
H1522 C1530 0.930 . S
H1523 C1531 0.930 . S
H1524 C1534 0.930 . S
H1525 C1535 0.930 . S
C1526 H1520 0.930 . S
C1526 C1527 1.355 . S
C1526 C1528 1.415 . S
C1527 C1526 1.355 . S
C1527 C1529 1.419 . S
C1528 C1526 1.415 . S
C1528 C1533 1.425 . S
C1528 C1535 1.409 . S
C1529 H1521 0.930 . S
C1529 C1527 1.419 . S
C1529 C1530 1.362 . S
C1530 H1522 0.930 . S
C1530 C1529 1.362 . S
C1530 C1533 1.409 . S
C1531 H1523 0.930 . S
C1531 C1532 1.355 . S
C1531 C1533 1.415 . S
C1532 C1531 1.355 . S
C1532 C1534 1.419 . S
C1533 C1528 1.425 . S
C1533 C1530 1.409 . S
C1533 C1531 1.415 . S
C1534 H1524 0.930 . S
C1534 C1532 1.419 . S
C1534 C1535 1.362 . S
C1535 H1525 0.930 . S
C1535 C1528 1.409 . S
C1535 C1534 1.362 . S
H1536 C1542 0.930 . S
H1537 C1545 0.930 . S
H1538 C1546 0.930 . S
H1539 C1547 0.930 . S
H1540 C1550 0.930 . S
H1541 C1551 0.930 . S
C1542 H1536 0.930 . S
C1542 C1543 1.355 . S
C1542 C1544 1.415 . S
C1543 C1542 1.355 . S
C1543 C1545 1.419 . S
C1544 C1542 1.415 . S
C1544 C1549 1.425 . S
C1544 C1551 1.409 . S
C1545 H1537 0.930 . S
C1545 C1543 1.419 . S
C1545 C1546 1.362 . S
C1546 H1538 0.930 . S
C1546 C1545 1.362 . S
C1546 C1549 1.409 . S
C1547 H1539 0.930 . S
C1547 C1548 1.355 . S
C1547 C1549 1.415 . S
C1548 C1547 1.355 . S
C1548 C1550 1.419 . S
C1549 C1544 1.425 . S
C1549 C1546 1.409 . S
C1549 C1547 1.415 . S
C1550 H1540 0.930 . S
C1550 C1548 1.419 . S
C1550 C1551 1.362 . S
C1551 H1541 0.930 . S
C1551 C1544 1.409 . S
C1551 C1550 1.362 . S
H1552 C1558 0.930 . S
H1553 C1561 0.930 . S
H1554 C1562 0.930 . S
H1555 C1563 0.930 . S
H1556 C1566 0.930 . S
H1557 C1567 0.930 . S
C1558 H1552 0.930 . S
C1558 C1559 1.355 . S
C1558 C1560 1.415 . S
C1559 C1558 1.355 . S
C1559 C1561 1.419 . S
C1560 C1558 1.415 . S
C1560 C1565 1.425 . S
C1560 C1567 1.409 . S
C1561 H1553 0.930 . S
C1561 C1559 1.419 . S
C1561 C1562 1.362 . S
C1562 H1554 0.930 . S
C1562 C1561 1.362 . S
C1562 C1565 1.409 . S
C1563 H1555 0.930 . S
C1563 C1564 1.355 . S
C1563 C1565 1.415 . S
C1564 C1563 1.355 . S
C1564 C1566 1.419 . S
C1565 C1560 1.425 . S
C1565 C1562 1.409 . S
C1565 C1563 1.415 . S
C1566 H1556 0.930 . S
C1566 C1564 1.419 . S
C1566 C1567 1.362 . S
C1567 H1557 0.930 . S
C1567 C1560 1.409 . S
C1567 C1566 1.362 . S
H1568 C1574 0.930 . S
H1569 C1577 0.930 . S
H1570 C1578 0.930 . S
H1571 C1579 0.930 . S
H1572 C1582 0.930 . S
H1573 C1583 0.930 . S
C1574 H1568 0.930 . S
C1574 C1575 1.355 . S
C1574 C1576 1.415 . S
C1575 C1574 1.355 . S
C1575 C1577 1.419 . S
C1576 C1574 1.415 . S
C1576 C1581 1.425 . S
C1576 C1583 1.409 . S
C1577 H1569 0.930 . S
C1577 C1575 1.419 . S
C1577 C1578 1.362 . S
C1578 H1570 0.930 . S
C1578 C1577 1.362 . S
C1578 C1581 1.409 . S
C1579 H1571 0.930 . S
C1579 C1580 1.355 . S
C1579 C1581 1.415 . S
C1580 C1579 1.355 . S
C1580 C1582 1.419 . S
C1581 C1576 1.425 . S
C1581 C1578 1.409 . S
C1581 C1579 1.415 . S
C1582 H1572 0.930 . S
C1582 C1580 1.419 . S
C1582 C1583 1.362 . S
C1583 H1573 0.930 . S
C1583 C1576 1.409 . S
C1583 C1582 1.362 . S
H1584 C1590 0.930 . S
H1585 C1593 0.930 . S
H1586 C1594 0.930 . S
H1587 C1595 0.930 . S
H1588 C1598 0.930 . S
H1589 C1599 0.930 . S
C1590 H1584 0.930 . S
C1590 C1591 1.355 . S
C1590 C1592 1.415 . S
C1591 C1590 1.355 . S
C1591 C1593 1.419 . S
C1592 C1590 1.415 . S
C1592 C1597 1.425 . S
C1592 C1599 1.409 . S
C1593 H1585 0.930 . S
C1593 C1591 1.419 . S
C1593 C1594 1.362 . S
C1594 H1586 0.930 . S
C1594 C1593 1.362 . S
C1594 C1597 1.409 . S
C1595 H1587 0.930 . S
C1595 C1596 1.355 . S
C1595 C1597 1.415 . S
C1596 C1595 1.355 . S
C1596 C1598 1.419 . S
C1597 C1592 1.425 . S
C1597 C1594 1.409 . S
C1597 C1595 1.415 . S
C1598 H1588 0.930 . S
C1598 C1596 1.419 . S
C1598 C1599 1.362 . S
C1599 H1589 0.930 . S
C1599 C1592 1.409 . S
C1599 C1598 1.362 . S
H1600 C1606 0.930 . S
H1601 C1609 0.930 . S
H1602 C1610 0.930 . S
H1603 C1611 0.930 . S
H1604 C1614 0.930 . S
H1605 C1615 0.930 . S
C1606 H1600 0.930 . S
C1606 C1607 1.355 . S
C1606 C1608 1.415 . S
C1607 C1606 1.355 . S
C1607 C1609 1.419 . S
C1608 C1606 1.415 . S
C1608 C1613 1.425 . S
C1608 C1615 1.409 . S
C1609 H1601 0.930 . S
C1609 C1607 1.419 . S
C1609 C1610 1.362 . S
C1610 H1602 0.930 . S
C1610 C1609 1.362 . S
C1610 C1613 1.409 . S
C1611 H1603 0.930 . S
C1611 C1612 1.355 . S
C1611 C1613 1.415 . S
C1612 C1611 1.355 . S
C1612 C1614 1.419 . S
C1613 C1608 1.425 . S
C1613 C1610 1.409 . S
C1613 C1611 1.415 . S
C1614 H1604 0.930 . S
C1614 C1612 1.419 . S
C1614 C1615 1.362 . S
C1615 H1605 0.930 . S
C1615 C1608 1.409 . S
C1615 C1614 1.362 . S
H1616 C1622 0.930 . S
H1617 C1625 0.930 . S
H1618 C1626 0.930 . S
H1619 C1627 0.930 . S
H1620 C1630 0.930 . S
H1621 C1631 0.930 1_556 S
C1622 H1616 0.930 . S
C1622 C1623 1.355 . S
C1622 C1624 1.415 . S
C1623 C1622 1.355 . S
C1623 C1625 1.419 . S
C1624 C1622 1.415 . S
C1624 C1629 1.425 . S
C1624 C1631 1.409 . S
C1625 H1617 0.930 . S
C1625 C1623 1.419 . S
C1625 C1626 1.362 . S
C1626 H1618 0.930 . S
C1626 C1625 1.362 . S
C1626 C1629 1.409 . S
C1627 H1619 0.930 . S
C1627 C1628 1.355 . S
C1627 C1629 1.415 . S
C1628 C1627 1.355 . S
C1628 C1630 1.419 1_554 S
C1629 C1624 1.425 . S
C1629 C1626 1.409 . S
C1629 C1627 1.415 . S
C1630 H1620 0.930 . S
C1630 C1628 1.419 1_556 S
C1630 C1631 1.362 1_556 S
C1631 H1621 0.930 1_554 S
C1631 C1624 1.409 . S
C1631 C1630 1.362 1_554 S
H1632 C1638 0.930 . S
H1633 C1641 0.930 . S
H1634 C1642 0.930 . S
H1635 C1643 0.930 . S
H1636 C1646 0.930 . S
H1637 C1647 0.930 . S
C1638 H1632 0.930 . S
C1638 C1639 1.355 . S
C1638 C1640 1.415 . S
C1639 C1638 1.355 . S
C1639 C1641 1.419 . S
C1640 C1638 1.415 . S
C1640 C1645 1.425 . S
C1640 C1647 1.409 . S
C1641 H1633 0.930 . S
C1641 C1639 1.419 . S
C1641 C1642 1.362 . S
C1642 H1634 0.930 . S
C1642 C1641 1.362 . S
C1642 C1645 1.409 . S
C1643 H1635 0.930 . S
C1643 C1644 1.355 . S
C1643 C1645 1.415 . S
C1644 C1643 1.355 . S
C1644 C1646 1.419 . S
C1645 C1640 1.425 . S
C1645 C1642 1.409 . S
C1645 C1643 1.415 . S
C1646 H1636 0.930 . S
C1646 C1644 1.419 . S
C1646 C1647 1.362 . S
C1647 H1637 0.930 . S
C1647 C1640 1.409 . S
C1647 C1646 1.362 . S
H1648 C1654 0.930 . S
H1649 C1657 0.930 . S
H1650 C1658 0.930 . S
H1651 C1659 0.930 . S
H1652 C1662 0.930 . S
H1653 C1663 0.930 . S
C1654 H1648 0.930 . S
C1654 C1655 1.355 . S
C1654 C1656 1.415 . S
C1655 C1654 1.355 . S
C1655 C1657 1.419 . S
C1656 C1654 1.415 . S
C1656 C1661 1.425 . S
C1656 C1663 1.409 . S
C1657 H1649 0.930 . S
C1657 C1655 1.419 . S
C1657 C1658 1.362 . S
C1658 H1650 0.930 . S
C1658 C1657 1.362 . S
C1658 C1661 1.409 . S
C1659 H1651 0.930 . S
C1659 C1660 1.355 . S
C1659 C1661 1.415 . S
C1660 C1659 1.355 . S
C1660 C1662 1.419 . S
C1661 C1656 1.425 . S
C1661 C1658 1.409 . S
C1661 C1659 1.415 . S
C1662 H1652 0.930 . S
C1662 C1660 1.419 . S
C1662 C1663 1.362 . S
C1663 H1653 0.930 . S
C1663 C1656 1.409 . S
C1663 C1662 1.362 . S
H1664 C1670 0.930 . S
H1665 C1673 0.930 . S
H1666 C1674 0.930 . S
H1667 C1675 0.930 . S
H1668 C1678 0.930 . S
H1669 C1679 0.930 . S
C1670 H1664 0.930 . S
C1670 C1671 1.355 . S
C1670 C1672 1.415 . S
C1671 C1670 1.355 . S
C1671 C1673 1.419 . S
C1672 C1670 1.415 . S
C1672 C1677 1.425 . S
C1672 C1679 1.409 . S
C1673 H1665 0.930 . S
C1673 C1671 1.419 . S
C1673 C1674 1.362 . S
C1674 H1666 0.930 . S
C1674 C1673 1.362 . S
C1674 C1677 1.409 . S
C1675 H1667 0.930 . S
C1675 C1676 1.355 . S
C1675 C1677 1.415 . S
C1676 C1675 1.355 . S
C1676 C1678 1.419 . S
C1677 C1672 1.425 . S
C1677 C1674 1.409 . S
C1677 C1675 1.415 . S
C1678 H1668 0.930 . S
C1678 C1676 1.419 . S
C1678 C1679 1.362 . S
C1679 H1669 0.930 . S
C1679 C1672 1.409 . S
C1679 C1678 1.362 . S
H1680 C1686 0.930 . S
H1681 C1689 0.930 . S
H1682 C1690 0.930 . S
H1683 C1691 0.930 . S
H1684 C1694 0.930 . S
H1685 C1695 0.930 . S
C1686 H1680 0.930 . S
C1686 C1687 1.355 . S
C1686 C1688 1.415 . S
C1687 C1686 1.355 . S
C1687 C1689 1.419 . S
C1688 C1686 1.415 . S
C1688 C1693 1.425 . S
C1688 C1695 1.409 . S
C1689 H1681 0.930 . S
C1689 C1687 1.419 . S
C1689 C1690 1.362 . S
C1690 H1682 0.930 . S
C1690 C1689 1.362 . S
C1690 C1693 1.409 . S
C1691 H1683 0.930 . S
C1691 C1692 1.355 . S
C1691 C1693 1.415 . S
C1692 C1691 1.355 . S
C1692 C1694 1.419 . S
C1693 C1688 1.425 . S
C1693 C1690 1.409 . S
C1693 C1691 1.415 . S
C1694 H1684 0.930 . S
C1694 C1692 1.419 . S
C1694 C1695 1.362 . S
C1695 H1685 0.930 . S
C1695 C1688 1.409 . S
C1695 C1694 1.362 . S
H1696 C1702 0.930 . S
H1697 C1705 0.930 . S
H1698 C1706 0.930 . S
H1699 C1707 0.930 . S
H1700 C1710 0.930 1_545 S
H1701 C1711 0.930 . S
C1702 H1696 0.930 . S
C1702 C1703 1.355 . S
C1702 C1704 1.415 . S
C1703 C1702 1.355 . S
C1703 C1705 1.419 . S
C1704 C1702 1.415 . S
C1704 C1709 1.425 . S
C1704 C1711 1.409 . S
C1705 H1697 0.930 . S
C1705 C1703 1.419 . S
C1705 C1706 1.362 . S
C1706 H1698 0.930 . S
C1706 C1705 1.362 . S
C1706 C1709 1.409 . S
C1707 H1699 0.930 . S
C1707 C1708 1.355 . S
C1707 C1709 1.415 . S
C1708 C1707 1.355 . S
C1708 C1710 1.419 . S
C1709 C1704 1.425 . S
C1709 C1706 1.409 . S
C1709 C1707 1.415 . S
C1710 H1700 0.930 1_565 S
C1710 C1708 1.419 . S
C1710 C1711 1.362 . S
C1711 H1701 0.930 . S
C1711 C1704 1.409 . S
C1711 C1710 1.362 . S
H1712 C1718 0.930 . S
H1713 C1721 0.930 . S
H1714 C1722 0.930 . S
H1715 C1723 0.930 . S
H1716 C1726 0.930 . S
H1717 C1727 0.930 . S
C1718 H1712 0.930 . S
C1718 C1719 1.355 . S
C1718 C1720 1.415 . S
C1719 C1718 1.355 . S
C1719 C1721 1.419 . S
C1720 C1718 1.415 . S
C1720 C1725 1.425 . S
C1720 C1727 1.409 . S
C1721 H1713 0.930 . S
C1721 C1719 1.419 . S
C1721 C1722 1.362 . S
C1722 H1714 0.930 . S
C1722 C1721 1.362 . S
C1722 C1725 1.409 . S
C1723 H1715 0.930 . S
C1723 C1724 1.355 . S
C1723 C1725 1.415 . S
C1724 C1723 1.355 . S
C1724 C1726 1.419 . S
C1725 C1720 1.425 . S
C1725 C1722 1.409 . S
C1725 C1723 1.415 . S
C1726 H1716 0.930 . S
C1726 C1724 1.419 . S
C1726 C1727 1.362 . S
C1727 H1717 0.930 . S
C1727 C1720 1.409 . S
C1727 C1726 1.362 . S
H1728 C1734 0.930 . S
H1729 C1737 0.930 . S
H1730 C1738 0.930 . S
H1731 C1739 0.930 . S
H1732 C1742 0.930 . S
H1733 C1743 0.930 . S
C1734 H1728 0.930 . S
C1734 C1735 1.355 . S
C1734 C1736 1.415 . S
C1735 C1734 1.355 . S
C1735 C1737 1.419 . S
C1736 C1734 1.415 . S
C1736 C1741 1.425 . S
C1736 C1743 1.409 . S
C1737 H1729 0.930 . S
C1737 C1735 1.419 . S
C1737 C1738 1.362 . S
C1738 H1730 0.930 . S
C1738 C1737 1.362 . S
C1738 C1741 1.409 . S
C1739 H1731 0.930 . S
C1739 C1740 1.355 . S
C1739 C1741 1.415 . S
C1740 C1739 1.355 . S
C1740 C1742 1.419 . S
C1741 C1736 1.425 . S
C1741 C1738 1.409 . S
C1741 C1739 1.415 . S
C1742 H1732 0.930 . S
C1742 C1740 1.419 . S
C1742 C1743 1.362 . S
C1743 H1733 0.930 . S
C1743 C1736 1.409 . S
C1743 C1742 1.362 . S
H1744 C1750 0.930 . S
H1745 C1753 0.930 . S
H1746 C1754 0.930 . S
H1747 C1755 0.930 . S
H1748 C1758 0.930 . S
H1749 C1759 0.930 . S
C1750 H1744 0.930 . S
C1750 C1751 1.355 . S
C1750 C1752 1.415 . S
C1751 C1750 1.355 . S
C1751 C1753 1.419 . S
C1752 C1750 1.415 . S
C1752 C1757 1.425 . S
C1752 C1759 1.409 . S
C1753 H1745 0.930 . S
C1753 C1751 1.419 . S
C1753 C1754 1.362 . S
C1754 H1746 0.930 . S
C1754 C1753 1.362 . S
C1754 C1757 1.409 . S
C1755 H1747 0.930 . S
C1755 C1756 1.355 . S
C1755 C1757 1.415 . S
C1756 C1755 1.355 . S
C1756 C1758 1.419 . S
C1757 C1752 1.425 . S
C1757 C1754 1.409 . S
C1757 C1755 1.415 . S
C1758 H1748 0.930 . S
C1758 C1756 1.419 . S
C1758 C1759 1.362 . S
C1759 H1749 0.930 . S
C1759 C1752 1.409 . S
C1759 C1758 1.362 . S
H1760 C1766 0.930 . S
H1761 C1769 0.930 . S
H1762 C1770 0.930 . S
H1763 C1771 0.930 . S
H1764 C1774 0.930 . S
H1765 C1775 0.930 . S
C1766 H1760 0.930 . S
C1766 C1767 1.355 . S
C1766 C1768 1.415 . S
C1767 C1766 1.355 . S
C1767 C1769 1.419 . S
C1768 C1766 1.415 . S
C1768 C1773 1.425 . S
C1768 C1775 1.409 . S
C1769 H1761 0.930 . S
C1769 C1767 1.419 . S
C1769 C1770 1.362 . S
C1770 H1762 0.930 . S
C1770 C1769 1.362 . S
C1770 C1773 1.409 . S
C1771 H1763 0.930 . S
C1771 C1772 1.355 . S
C1771 C1773 1.415 . S
C1772 C1771 1.355 . S
C1772 C1774 1.419 . S
C1773 C1768 1.425 . S
C1773 C1770 1.409 . S
C1773 C1771 1.415 . S
C1774 H1764 0.930 . S
C1774 C1772 1.419 . S
C1774 C1775 1.362 . S
C1775 H1765 0.930 . S
C1775 C1768 1.409 . S
C1775 C1774 1.362 . S
H1776 C1782 0.930 1_655 S
H1777 C1785 0.930 . S
H1778 C1786 0.930 . S
H1779 C1787 0.930 . S
H1780 C1790 0.928 . S
H1781 C1791 0.960 . S
C1782 H1776 0.930 1_455 S
C1782 C1783 1.355 . S
C1782 C1784 1.415 . S
C1783 C1782 1.355 . S
C1783 C1785 1.419 1_556 S
C1784 C1782 1.415 . S
C1784 C1789 1.425 1_556 S
C1784 C1791 1.377 1_455 S
C1785 H1777 0.930 . S
C1785 C1783 1.419 1_554 S
C1785 C1786 1.362 . S
C1786 H1778 0.930 . S
C1786 C1785 1.362 . S
C1786 C1789 1.409 . S
C1787 H1779 0.930 . S
C1787 C1788 1.355 . S
C1787 C1789 1.415 . S
C1788 C1787 1.355 . S
C1788 C1790 1.419 1_554 S
C1789 C1784 1.425 1_554 S
C1789 C1786 1.409 . S
C1789 C1787 1.415 . S
C1790 H1780 0.928 . S
C1790 C1788 1.419 1_556 S
C1790 C1791 1.367 1_455 S
C1791 H1781 0.960 . S
C1791 C1784 1.377 1_655 S
C1791 C1790 1.367 1_655 S
H1792 C1798 0.930 . S
H1793 C1801 0.930 . S
H1794 C1802 0.930 . S
H1795 C1803 0.930 . S
H1796 C1806 0.930 . S
H1797 C1807 0.930 . S
C1798 H1792 0.930 . S
C1798 C1799 1.355 . S
C1798 C1800 1.415 1_455 S
C1799 C1798 1.355 . S
C1799 C1801 1.419 . S
C1800 C1798 1.415 1_655 S
C1800 C1805 1.425 . S
C1800 C1807 1.409 . S
C1801 H1793 0.930 . S
C1801 C1799 1.419 . S
C1801 C1802 1.362 . S
C1802 H1794 0.930 . S
C1802 C1801 1.362 . S
C1802 C1805 1.409 1_455 S
C1803 H1795 0.930 . S
C1803 C1804 1.355 . S
C1803 C1805 1.415 . S
C1804 C1803 1.355 . S
C1804 C1806 1.419 . S
C1805 C1800 1.425 . S
C1805 C1802 1.409 1_655 S
C1805 C1803 1.415 . S
C1806 H1796 0.930 . S
C1806 C1804 1.419 . S
C1806 C1807 1.362 . S
C1807 H1797 0.930 . S
C1807 C1800 1.409 . S
C1807 C1806 1.362 . S
H1808 C1814 0.930 . S
H1809 C1817 0.930 . S
H1810 C1818 0.930 . S
H1811 C1819 0.930 . S
H1812 C1822 0.930 . S
H1813 C1823 0.930 . S
C1814 H1808 0.930 . S
C1814 C1815 1.355 . S
C1814 C1816 1.415 . S
C1815 C1814 1.355 . S
C1815 C1817 1.419 . S
C1816 C1814 1.415 . S
C1816 C1821 1.425 . S
C1816 C1823 1.409 . S
C1817 H1809 0.930 . S
C1817 C1815 1.419 . S
C1817 C1818 1.362 . S
C1818 H1810 0.930 . S
C1818 C1817 1.362 . S
C1818 C1821 1.409 . S
C1819 H1811 0.930 . S
C1819 C1820 1.355 . S
C1819 C1821 1.415 . S
C1820 C1819 1.355 . S
C1820 C1822 1.419 . S
C1821 C1816 1.425 . S
C1821 C1818 1.409 . S
C1821 C1819 1.415 . S
C1822 H1812 0.930 . S
C1822 C1820 1.419 . S
C1822 C1823 1.362 . S
C1823 H1813 0.930 . S
C1823 C1816 1.409 . S
C1823 C1822 1.362 . S
H1824 C1830 0.930 . S
H1825 C1833 0.930 . S
H1826 C1834 0.930 . S
H1827 C1835 0.930 . S
H1828 C1838 0.930 . S
H1829 C1839 0.930 . S
C1830 H1824 0.930 . S
C1830 C1831 1.355 . S
C1830 C1832 1.415 . S
C1831 C1830 1.355 . S
C1831 C1833 1.419 . S
C1832 C1830 1.415 . S
C1832 C1837 1.425 . S
C1832 C1839 1.409 . S
C1833 H1825 0.930 . S
C1833 C1831 1.419 . S
C1833 C1834 1.362 . S
C1834 H1826 0.930 . S
C1834 C1833 1.362 . S
C1834 C1837 1.409 . S
C1835 H1827 0.930 . S
C1835 C1836 1.355 . S
C1835 C1837 1.415 . S
C1836 C1835 1.355 . S
C1836 C1838 1.419 . S
C1837 C1832 1.425 . S
C1837 C1834 1.409 . S
C1837 C1835 1.415 . S
C1838 H1828 0.930 . S
C1838 C1836 1.419 . S
C1838 C1839 1.362 . S
C1839 H1829 0.930 . S
C1839 C1832 1.409 . S
C1839 C1838 1.362 . S
H1840 C1846 0.930 . S
H1841 C1849 0.930 . S
H1842 C1850 0.930 . S
H1843 C1851 0.930 . S
H1844 C1854 0.930 . S
H1845 C1855 0.930 . S
C1846 H1840 0.930 . S
C1846 C1847 1.355 . S
C1846 C1848 1.415 . S
C1847 C1846 1.355 . S
C1847 C1849 1.419 . S
C1848 C1846 1.415 . S
C1848 C1853 1.425 . S
C1848 C1855 1.409 . S
C1849 H1841 0.930 . S
C1849 C1847 1.419 . S
C1849 C1850 1.362 . S
C1850 H1842 0.930 . S
C1850 C1849 1.362 . S
C1850 C1853 1.409 . S
C1851 H1843 0.930 . S
C1851 C1852 1.355 . S
C1851 C1853 1.415 . S
C1852 C1851 1.355 . S
C1852 C1854 1.419 . S
C1853 C1848 1.425 . S
C1853 C1850 1.409 . S
C1853 C1851 1.415 . S
C1854 H1844 0.930 . S
C1854 C1852 1.419 . S
C1854 C1855 1.362 . S
C1855 H1845 0.930 . S
C1855 C1848 1.409 . S
C1855 C1854 1.362 . S
H1856 C1862 0.930 . S
H1857 C1865 0.930 . S
H1858 C1866 0.930 . S
H1859 C1867 0.930 . S
H1860 C1870 0.930 . S
H1861 C1871 0.930 . S
C1862 H1856 0.930 . S
C1862 C1863 1.355 . S
C1862 C1864 1.415 . S
C1863 C1862 1.355 . S
C1863 C1865 1.419 . S
C1864 C1862 1.415 . S
C1864 C1869 1.425 . S
C1864 C1871 1.409 . S
C1865 H1857 0.930 . S
C1865 C1863 1.419 . S
C1865 C1866 1.362 . S
C1866 H1858 0.930 . S
C1866 C1865 1.362 . S
C1866 C1869 1.409 . S
C1867 H1859 0.930 . S
C1867 C1868 1.355 . S
C1867 C1869 1.415 . S
C1868 C1867 1.355 . S
C1868 C1870 1.419 . S
C1869 C1864 1.425 . S
C1869 C1866 1.409 . S
C1869 C1867 1.415 . S
C1870 H1860 0.930 . S
C1870 C1868 1.419 . S
C1870 C1871 1.362 . S
C1871 H1861 0.930 . S
C1871 C1864 1.409 . S
C1871 C1870 1.362 . S
H1872 C1878 0.930 . S
H1873 C1881 0.930 . S
H1874 C1882 0.930 . S
H1875 C1883 0.930 . S
H1876 C1886 0.930 . S
H1877 C1887 0.930 . S
C1878 H1872 0.930 . S
C1878 C1879 1.355 . S
C1878 C1880 1.415 . S
C1879 C1878 1.355 . S
C1879 C1881 1.419 . S
C1880 C1878 1.415 . S
C1880 C1885 1.425 . S
C1880 C1887 1.409 . S
C1881 H1873 0.930 . S
C1881 C1879 1.419 . S
C1881 C1882 1.362 . S
C1882 H1874 0.930 . S
C1882 C1881 1.362 . S
C1882 C1885 1.409 . S
C1883 H1875 0.930 . S
C1883 C1884 1.355 . S
C1883 C1885 1.415 . S
C1884 C1883 1.355 . S
C1884 C1886 1.419 . S
C1885 C1880 1.425 . S
C1885 C1882 1.409 . S
C1885 C1883 1.415 . S
C1886 H1876 0.930 . S
C1886 C1884 1.419 . S
C1886 C1887 1.362 . S
C1887 H1877 0.930 . S
C1887 C1880 1.409 . S
C1887 C1886 1.362 . S
H1888 C1894 0.930 . S
H1889 C1897 0.928 1_554 S
H1890 C1898 0.930 . S
H1891 C1899 0.930 . S
H1892 C1902 0.930 . S
H1893 C1903 0.930 . S
C1894 H1888 0.930 . S
C1894 C1895 1.355 . S
C1894 C1896 1.415 1_554 S
C1895 C1894 1.355 . S
C1895 C1897 1.411 1_554 S
C1896 C1894 1.415 1_556 S
C1896 C1901 1.425 . S
C1896 C1903 1.409 . S
C1897 H1889 0.928 1_556 S
C1897 C1895 1.411 1_556 S
C1897 C1898 1.372 . S
C1898 H1890 0.930 . S
C1898 C1897 1.372 . S
C1898 C1901 1.409 . S
C1899 H1891 0.930 . S
C1899 C1900 1.355 . S
C1899 C1901 1.415 . S
C1900 C1899 1.355 . S
C1900 C1902 1.419 . S
C1901 C1896 1.425 . S
C1901 C1898 1.409 . S
C1901 C1899 1.415 . S
C1902 H1892 0.930 . S
C1902 C1900 1.419 . S
C1902 C1903 1.362 . S
C1903 H1893 0.930 . S
C1903 C1896 1.409 . S
C1903 C1902 1.362 . S
H1904 C1910 0.930 . S
H1905 C1913 0.930 . S
H1906 C1914 0.930 . S
H1907 C1915 0.930 . S
H1908 C1918 0.930 . S
H1909 C1919 0.930 . S
C1910 H1904 0.930 . S
C1910 C1911 1.355 . S
C1910 C1912 1.415 . S
C1911 C1910 1.355 . S
C1911 C1913 1.419 . S
C1912 C1910 1.415 . S
C1912 C1917 1.425 . S
C1912 C1919 1.409 . S
C1913 H1905 0.930 . S
C1913 C1911 1.419 . S
C1913 C1914 1.362 . S
C1914 H1906 0.930 . S
C1914 C1913 1.362 . S
C1914 C1917 1.409 . S
C1915 H1907 0.930 . S
C1915 C1916 1.355 . S
C1915 C1917 1.415 . S
C1916 C1915 1.355 . S
C1916 C1918 1.419 . S
C1917 C1912 1.425 . S
C1917 C1914 1.409 . S
C1917 C1915 1.415 . S
C1918 H1908 0.930 . S
C1918 C1916 1.419 . S
C1918 C1919 1.362 . S
C1919 H1909 0.930 . S
C1919 C1912 1.409 . S
C1919 C1918 1.362 . S
H1920 C1926 0.930 . S
H1921 C1929 0.930 . S
H1922 C1930 0.930 . S
H1923 C1931 0.930 . S
H1924 C1934 0.930 . S
H1925 C1935 0.930 . S
C1926 H1920 0.930 . S
C1926 C1927 1.355 . S
C1926 C1928 1.415 . S
C1927 C1926 1.355 . S
C1927 C1929 1.419 . S
C1928 C1926 1.415 . S
C1928 C1933 1.425 . S
C1928 C1935 1.409 . S
C1929 H1921 0.930 . S
C1929 C1927 1.419 . S
C1929 C1930 1.362 . S
C1930 H1922 0.930 . S
C1930 C1929 1.362 . S
C1930 C1933 1.409 . S
C1931 H1923 0.930 . S
C1931 C1932 1.355 . S
C1931 C1933 1.415 . S
C1932 C1931 1.355 . S
C1932 C1934 1.419 . S
C1933 C1928 1.425 . S
C1933 C1930 1.409 . S
C1933 C1931 1.415 . S
C1934 H1924 0.930 . S
C1934 C1932 1.419 . S
C1934 C1935 1.362 . S
C1935 H1925 0.930 . S
C1935 C1928 1.409 . S
C1935 C1934 1.362 . S
H1936 C1942 0.930 . S
H1937 C1945 0.930 . S
H1938 C1946 0.930 . S
H1939 C1947 0.930 . S
H1940 C1950 0.930 . S
H1941 C1951 0.930 . S
C1942 H1936 0.930 . S
C1942 C1943 1.355 . S
C1942 C1944 1.415 . S
C1943 C1942 1.355 . S
C1943 C1945 1.419 . S
C1944 C1942 1.415 . S
C1944 C1949 1.425 . S
C1944 C1951 1.409 . S
C1945 H1937 0.930 . S
C1945 C1943 1.419 . S
C1945 C1946 1.362 . S
C1946 H1938 0.930 . S
C1946 C1945 1.362 . S
C1946 C1949 1.409 . S
C1947 H1939 0.930 . S
C1947 C1948 1.355 . S
C1947 C1949 1.415 . S
C1948 C1947 1.355 . S
C1948 C1950 1.419 . S
C1949 C1944 1.425 . S
C1949 C1946 1.409 . S
C1949 C1947 1.415 . S
C1950 H1940 0.930 . S
C1950 C1948 1.419 . S
C1950 C1951 1.362 . S
C1951 H1941 0.930 . S
C1951 C1944 1.409 . S
C1951 C1950 1.362 . S
H1952 C1958 0.930 . S
H1953 C1961 0.930 . S
H1954 C1962 0.930 . S
H1955 C1963 0.930 . S
H1956 C1966 0.930 . S
H1957 C1967 0.930 . S
C1958 H1952 0.930 . S
C1958 C1959 1.355 . S
C1958 C1960 1.415 . S
C1959 C1958 1.355 . S
C1959 C1961 1.419 . S
C1960 C1958 1.415 . S
C1960 C1965 1.425 . S
C1960 C1967 1.409 . S
C1961 H1953 0.930 . S
C1961 C1959 1.419 . S
C1961 C1962 1.362 . S
C1962 H1954 0.930 . S
C1962 C1961 1.362 . S
C1962 C1965 1.409 . S
C1963 H1955 0.930 . S
C1963 C1964 1.355 . S
C1963 C1965 1.415 . S
C1964 C1963 1.355 . S
C1964 C1966 1.419 . S
C1965 C1960 1.425 . S
C1965 C1962 1.409 . S
C1965 C1963 1.415 . S
C1966 H1956 0.930 . S
C1966 C1964 1.419 . S
C1966 C1967 1.362 . S
C1967 H1957 0.930 . S
C1967 C1960 1.409 . S
C1967 C1966 1.362 . S
H1968 C1974 0.930 . S
H1969 C1977 0.930 . S
H1970 C1978 0.930 . S
H1971 C1979 0.930 . S
H1972 C1982 0.930 . S
H1973 C1983 0.930 . S
C1974 H1968 0.930 . S
C1974 C1975 1.355 . S
C1974 C1976 1.415 . S
C1975 C1974 1.355 . S
C1975 C1977 1.419 . S
C1976 C1974 1.415 . S
C1976 C1981 1.425 . S
C1976 C1983 1.409 . S
C1977 H1969 0.930 . S
C1977 C1975 1.419 . S
C1977 C1978 1.362 . S
C1978 H1970 0.930 . S
C1978 C1977 1.362 . S
C1978 C1981 1.409 . S
C1979 H1971 0.930 . S
C1979 C1980 1.355 . S
C1979 C1981 1.415 . S
C1980 C1979 1.355 . S
C1980 C1982 1.419 . S
C1981 C1976 1.425 . S
C1981 C1978 1.409 . S
C1981 C1979 1.415 . S
C1982 H1972 0.930 . S
C1982 C1980 1.419 . S
C1982 C1983 1.362 . S
C1983 H1973 0.930 . S
C1983 C1976 1.409 . S
C1983 C1982 1.362 . S
H1984 C1990 0.930 . S
H1985 C1993 0.930 . S
H1986 C1994 0.930 . S
H1987 C1995 0.930 . S
H1988 C1998 0.930 . S
H1989 C1999 0.930 . S
C1990 H1984 0.930 . S
C1990 C1991 1.355 . S
C1990 C1992 1.415 . S
C1991 C1990 1.355 . S
C1991 C1993 1.419 . S
C1992 C1990 1.415 . S
C1992 C1997 1.425 . S
C1992 C1999 1.409 . S
C1993 H1985 0.930 . S
C1993 C1991 1.419 . S
C1993 C1994 1.362 . S
C1994 H1986 0.930 . S
C1994 C1993 1.362 . S
C1994 C1997 1.409 . S
C1995 H1987 0.930 . S
C1995 C1996 1.355 . S
C1995 C1997 1.415 . S
C1996 C1995 1.355 . S
C1996 C1998 1.419 . S
C1997 C1992 1.425 . S
C1997 C1994 1.409 . S
C1997 C1995 1.415 . S
C1998 H1988 0.930 . S
C1998 C1996 1.419 . S
C1998 C1999 1.362 . S
C1999 H1989 0.930 . S
C1999 C1992 1.409 . S
C1999 C1998 1.362 . S
H2000 C2006 0.930 . S
H2001 C2009 0.930 . S
H2002 C2010 0.930 . S
H2003 C2011 0.930 . S
H2004 C2014 0.930 . S
H2005 C2015 0.930 . S
C2006 H2000 0.930 . S
C2006 C2007 1.355 . S
C2006 C2008 1.415 . S
C2007 C2006 1.355 . S
C2007 C2009 1.419 . S
C2008 C2006 1.415 . S
C2008 C2013 1.425 . S
C2008 C2015 1.409 . S
C2009 H2001 0.930 . S
C2009 C2007 1.419 . S
C2009 C2010 1.362 . S
C2010 H2002 0.930 . S
C2010 C2009 1.362 . S
C2010 C2013 1.409 . S
C2011 H2003 0.930 . S
C2011 C2012 1.355 . S
C2011 C2013 1.415 . S
C2012 C2011 1.355 . S
C2012 C2014 1.419 . S
C2013 C2008 1.425 . S
C2013 C2010 1.409 . S
C2013 C2011 1.415 . S
C2014 H2004 0.930 . S
C2014 C2012 1.419 . S
C2014 C2015 1.362 . S
C2015 H2005 0.930 . S
C2015 C2008 1.409 . S
C2015 C2014 1.362 . S
H2016 C2022 0.930 . S
H2017 C2025 0.930 . S
H2018 C2026 0.930 . S
H2019 C2027 0.930 . S
H2020 C2030 0.930 . S
H2021 C2031 0.930 . S
C2022 H2016 0.930 . S
C2022 C2023 1.355 . S
C2022 C2024 1.415 . S
C2023 C2022 1.355 . S
C2023 C2025 1.419 . S
C2024 C2022 1.415 . S
C2024 C2029 1.425 . S
C2024 C2031 1.409 . S
C2025 H2017 0.930 . S
C2025 C2023 1.419 . S
C2025 C2026 1.362 . S
C2026 H2018 0.930 . S
C2026 C2025 1.362 . S
C2026 C2029 1.409 . S
C2027 H2019 0.930 . S
C2027 C2028 1.355 . S
C2027 C2029 1.415 . S
C2028 C2027 1.355 . S
C2028 C2030 1.419 . S
C2029 C2024 1.425 . S
C2029 C2026 1.409 . S
C2029 C2027 1.415 . S
C2030 H2020 0.930 . S
C2030 C2028 1.419 . S
C2030 C2031 1.362 . S
C2031 H2021 0.930 . S
C2031 C2024 1.409 . S
C2031 C2030 1.362 . S
H2032 C2038 0.930 . S
H2033 C2041 0.930 . S
H2034 C2042 0.930 . S
H2035 C2043 0.930 . S
H2036 C2046 0.921 1_545 S
H2037 C2047 0.930 . S
C2038 H2032 0.930 . S
C2038 C2039 1.355 . S
C2038 C2040 1.415 . S
C2039 C2038 1.355 . S
C2039 C2041 1.419 1_545 S
C2040 C2038 1.415 . S
C2040 C2045 1.425 1_545 S
C2040 C2047 1.409 . S
C2041 H2033 0.930 . S
C2041 C2039 1.419 1_565 S
C2041 C2042 1.362 . S
C2042 H2034 0.930 . S
C2042 C2041 1.362 . S
C2042 C2045 1.409 . S
C2043 H2035 0.930 . S
C2043 C2044 1.355 . S
C2043 C2045 1.415 . S
C2044 C2043 1.355 . S
C2044 C2046 1.460 . S
C2045 C2040 1.425 1_565 S
C2045 C2042 1.409 . S
C2045 C2043 1.415 . S
C2046 H2036 0.921 1_565 S
C2046 C2044 1.460 . S
C2046 C2047 1.332 1_565 S
C2047 H2037 0.930 . S
C2047 C2040 1.409 . S
C2047 C2046 1.332 1_545 S
H2048 C2054 0.938 . S
H2049 C2057 0.930 . S
H2050 C2058 0.930 . S
H2051 C2059 0.934 . S
H2052 C2062 0.930 . S
H2053 C2063 0.930 . S
C2054 H2048 0.938 . S
C2054 C2055 1.344 1_544 S
C2054 C2056 1.414 . S
C2055 C2054 1.344 1_566 S
C2055 C2057 1.422 . S
C2056 C2054 1.414 . S
C2056 C2061 1.425 1_545 S
C2056 C2063 1.409 . S
C2057 H2049 0.930 . S
C2057 C2055 1.422 . S
C2057 C2058 1.362 . S
C2058 H2050 0.930 . S
C2058 C2057 1.362 . S
C2058 C2061 1.409 1_556 S
C2059 H2051 0.934 . S
C2059 C2060 1.351 1_565 S
C2059 C2061 1.414 . S
C2060 C2059 1.351 1_545 S
C2060 C2062 1.419 . S
C2061 C2056 1.425 1_565 S
C2061 C2058 1.409 1_554 S
C2061 C2059 1.414 . S
C2062 H2052 0.930 . S
C2062 C2060 1.419 . S
C2062 C2063 1.362 . S
C2063 H2053 0.930 . S
C2063 C2056 1.409 . S
C2063 C2062 1.362 . S
H2064 C2070 0.930 . S
H2065 C2073 0.930 . S
H2066 C2074 0.930 . S
H2067 C2075 0.930 . S
H2068 C2078 0.930 . S
H2069 C2079 0.930 . S
C2070 H2064 0.930 . S
C2070 C2071 1.355 . S
C2070 C2072 1.415 . S
C2071 C2070 1.355 . S
C2071 C2073 1.419 . S
C2072 C2070 1.415 . S
C2072 C2077 1.425 . S
C2072 C2079 1.409 . S
C2073 H2065 0.930 . S
C2073 C2071 1.419 . S
C2073 C2074 1.362 . S
C2074 H2066 0.930 . S
C2074 C2073 1.362 . S
C2074 C2077 1.409 . S
C2075 H2067 0.930 . S
C2075 C2076 1.355 . S
C2075 C2077 1.415 . S
C2076 C2075 1.355 . S
C2076 C2078 1.419 . S
C2077 C2072 1.425 . S
C2077 C2074 1.409 . S
C2077 C2075 1.415 . S
C2078 H2068 0.930 . S
C2078 C2076 1.419 . S
C2078 C2079 1.362 . S
C2079 H2069 0.930 . S
C2079 C2072 1.409 . S
C2079 C2078 1.362 . S
H2080 C2086 0.930 . S
H2081 C2089 0.930 . S
H2082 C2090 0.930 . S
H2083 C2091 0.930 . S
H2084 C2094 0.930 . S
H2085 C2095 0.930 . S
C2086 H2080 0.930 . S
C2086 C2087 1.355 . S
C2086 C2088 1.415 . S
C2087 C2086 1.355 . S
C2087 C2089 1.419 . S
C2088 C2086 1.415 . S
C2088 C2093 1.425 . S
C2088 C2095 1.409 . S
C2089 H2081 0.930 . S
C2089 C2087 1.419 . S
C2089 C2090 1.362 . S
C2090 H2082 0.930 . S
C2090 C2089 1.362 . S
C2090 C2093 1.409 . S
C2091 H2083 0.930 . S
C2091 C2092 1.355 . S
C2091 C2093 1.415 . S
C2092 C2091 1.355 . S
C2092 C2094 1.419 . S
C2093 C2088 1.425 . S
C2093 C2090 1.409 . S
C2093 C2091 1.415 . S
C2094 H2084 0.930 . S
C2094 C2092 1.419 . S
C2094 C2095 1.362 . S
C2095 H2085 0.930 . S
C2095 C2088 1.409 . S
C2095 C2094 1.362 . S
H2096 C2102 0.930 . S
H2097 C2105 0.930 . S
H2098 C2106 0.930 . S
H2099 C2107 0.930 . S
H2100 C2110 0.930 . S
H2101 C2111 0.930 . S
C2102 H2096 0.930 . S
C2102 C2103 1.355 . S
C2102 C2104 1.415 . S
C2103 C2102 1.355 . S
C2103 C2105 1.419 . S
C2104 C2102 1.415 . S
C2104 C2109 1.425 . S
C2104 C2111 1.409 . S
C2105 H2097 0.930 . S
C2105 C2103 1.419 . S
C2105 C2106 1.362 . S
C2106 H2098 0.930 . S
C2106 C2105 1.362 . S
C2106 C2109 1.409 . S
C2107 H2099 0.930 . S
C2107 C2108 1.355 . S
C2107 C2109 1.415 . S
C2108 C2107 1.355 . S
C2108 C2110 1.419 . S
C2109 C2104 1.425 . S
C2109 C2106 1.409 . S
C2109 C2107 1.415 . S
C2110 H2100 0.930 . S
C2110 C2108 1.419 . S
C2110 C2111 1.362 . S
C2111 H2101 0.930 . S
C2111 C2104 1.409 . S
C2111 C2110 1.362 . S
H2112 C2118 0.930 . S
H2113 C2121 0.930 . S
H2114 C2122 0.930 . S
H2115 C2123 0.930 . S
H2116 C2126 0.930 . S
H2117 C2127 0.930 . S
C2118 H2112 0.930 . S
C2118 C2119 1.355 . S
C2118 C2120 1.415 . S
C2119 C2118 1.355 . S
C2119 C2121 1.419 . S
C2120 C2118 1.415 . S
C2120 C2125 1.425 . S
C2120 C2127 1.409 . S
C2121 H2113 0.930 . S
C2121 C2119 1.419 . S
C2121 C2122 1.362 . S
C2122 H2114 0.930 . S
C2122 C2121 1.362 . S
C2122 C2125 1.409 . S
C2123 H2115 0.930 . S
C2123 C2124 1.355 . S
C2123 C2125 1.415 . S
C2124 C2123 1.355 . S
C2124 C2126 1.419 . S
C2125 C2120 1.425 . S
C2125 C2122 1.409 . S
C2125 C2123 1.415 . S
C2126 H2116 0.930 . S
C2126 C2124 1.419 . S
C2126 C2127 1.362 . S
C2127 H2117 0.930 . S
C2127 C2120 1.409 . S
C2127 C2126 1.362 . S
H2128 C2134 0.930 . S
H2129 C2137 0.930 . S
H2130 C2138 0.930 . S
H2131 C2139 0.930 . S
H2132 C2142 0.930 . S
H2133 C2143 0.930 . S
C2134 H2128 0.930 . S
C2134 C2135 1.355 . S
C2134 C2136 1.415 . S
C2135 C2134 1.355 . S
C2135 C2137 1.419 . S
C2136 C2134 1.415 . S
C2136 C2141 1.425 . S
C2136 C2143 1.409 . S
C2137 H2129 0.930 . S
C2137 C2135 1.419 . S
C2137 C2138 1.362 . S
C2138 H2130 0.930 . S
C2138 C2137 1.362 . S
C2138 C2141 1.409 . S
C2139 H2131 0.930 . S
C2139 C2140 1.355 . S
C2139 C2141 1.415 . S
C2140 C2139 1.355 . S
C2140 C2142 1.419 . S
C2141 C2136 1.425 . S
C2141 C2138 1.409 . S
C2141 C2139 1.415 . S
C2142 H2132 0.930 . S
C2142 C2140 1.419 . S
C2142 C2143 1.362 . S
C2143 H2133 0.930 . S
C2143 C2136 1.409 . S
C2143 C2142 1.362 . S
H2144 C2150 0.930 . S
H2145 C2153 0.930 . S
H2146 C2154 0.930 . S
H2147 C2155 0.930 . S
H2148 C2158 0.930 . S
H2149 C2159 0.930 . S
C2150 H2144 0.930 . S
C2150 C2151 1.355 . S
C2150 C2152 1.415 . S
C2151 C2150 1.355 . S
C2151 C2153 1.419 . S
C2152 C2150 1.415 . S
C2152 C2157 1.425 . S
C2152 C2159 1.409 . S
C2153 H2145 0.930 . S
C2153 C2151 1.419 . S
C2153 C2154 1.362 . S
C2154 H2146 0.930 . S
C2154 C2153 1.362 . S
C2154 C2157 1.409 . S
C2155 H2147 0.930 . S
C2155 C2156 1.355 . S
C2155 C2157 1.415 . S
C2156 C2155 1.355 . S
C2156 C2158 1.419 . S
C2157 C2152 1.425 . S
C2157 C2154 1.409 . S
C2157 C2155 1.415 . S
C2158 H2148 0.930 . S
C2158 C2156 1.419 . S
C2158 C2159 1.362 . S
C2159 H2149 0.930 . S
C2159 C2152 1.409 . S
C2159 C2158 1.362 . S
H2160 C2166 0.930 . S
H2161 C2169 0.930 . S
H2162 C2170 0.930 . S
H2163 C2171 0.930 . S
H2164 C2174 0.930 . S
H2165 C2175 0.930 . S
C2166 H2160 0.930 . S
C2166 C2167 1.355 . S
C2166 C2168 1.415 . S
C2167 C2166 1.355 . S
C2167 C2169 1.419 . S
C2168 C2166 1.415 . S
C2168 C2173 1.425 . S
C2168 C2175 1.409 . S
C2169 H2161 0.930 . S
C2169 C2167 1.419 . S
C2169 C2170 1.362 . S
C2170 H2162 0.930 . S
C2170 C2169 1.362 . S
C2170 C2173 1.409 . S
C2171 H2163 0.930 . S
C2171 C2172 1.355 . S
C2171 C2173 1.415 . S
C2172 C2171 1.355 . S
C2172 C2174 1.419 . S
C2173 C2168 1.425 . S
C2173 C2170 1.409 . S
C2173 C2171 1.415 . S
C2174 H2164 0.930 . S
C2174 C2172 1.419 . S
C2174 C2175 1.362 . S
C2175 H2165 0.930 . S
C2175 C2168 1.409 . S
C2175 C2174 1.362 . S
H2176 C2182 0.930 . S
H2177 C2185 0.930 . S
H2178 C2186 0.930 . S
H2179 C2187 0.930 . S
H2180 C2190 0.930 . S
H2181 C2191 0.930 . S
C2182 H2176 0.930 . S
C2182 C2183 1.355 . S
C2182 C2184 1.415 . S
C2183 C2182 1.355 . S
C2183 C2185 1.419 . S
C2184 C2182 1.415 . S
C2184 C2189 1.425 . S
C2184 C2191 1.409 . S
C2185 H2177 0.930 . S
C2185 C2183 1.419 . S
C2185 C2186 1.362 . S
C2186 H2178 0.930 . S
C2186 C2185 1.362 . S
C2186 C2189 1.409 . S
C2187 H2179 0.930 . S
C2187 C2188 1.355 . S
C2187 C2189 1.415 . S
C2188 C2187 1.355 . S
C2188 C2190 1.419 . S
C2189 C2184 1.425 . S
C2189 C2186 1.409 . S
C2189 C2187 1.415 . S
C2190 H2180 0.930 . S
C2190 C2188 1.419 . S
C2190 C2191 1.362 . S
C2191 H2181 0.930 . S
C2191 C2184 1.409 . S
C2191 C2190 1.362 . S
H2192 C2198 0.930 . S
H2193 C2201 0.930 . S
H2194 C2202 0.930 . S
H2195 C2203 0.930 . S
H2196 C2206 0.930 . S
H2197 C2207 0.930 . S
C2198 H2192 0.930 . S
C2198 C2199 1.355 . S
C2198 C2200 1.415 . S
C2199 C2198 1.355 . S
C2199 C2201 1.419 . S
C2200 C2198 1.415 . S
C2200 C2205 1.425 . S
C2200 C2207 1.409 . S
C2201 H2193 0.930 . S
C2201 C2199 1.419 . S
C2201 C2202 1.362 . S
C2202 H2194 0.930 . S
C2202 C2201 1.362 . S
C2202 C2205 1.409 . S
C2203 H2195 0.930 . S
C2203 C2204 1.355 . S
C2203 C2205 1.415 . S
C2204 C2203 1.355 . S
C2204 C2206 1.419 . S
C2205 C2200 1.425 . S
C2205 C2202 1.409 . S
C2205 C2203 1.415 . S
C2206 H2196 0.930 . S
C2206 C2204 1.419 . S
C2206 C2207 1.362 . S
C2207 H2197 0.930 . S
C2207 C2200 1.409 . S
C2207 C2206 1.362 . S
H2208 C2214 0.930 . S
H2209 C2217 0.930 . S
H2210 C2218 0.930 . S
H2211 C2219 0.930 . S
H2212 C2222 0.930 . S
H2213 C2223 0.930 . S
C2214 H2208 0.930 . S
C2214 C2215 1.355 . S
C2214 C2216 1.415 . S
C2215 C2214 1.355 . S
C2215 C2217 1.419 . S
C2216 C2214 1.415 . S
C2216 C2221 1.425 . S
C2216 C2223 1.409 . S
C2217 H2209 0.930 . S
C2217 C2215 1.419 . S
C2217 C2218 1.362 . S
C2218 H2210 0.930 . S
C2218 C2217 1.362 . S
C2218 C2221 1.409 . S
C2219 H2211 0.930 . S
C2219 C2220 1.355 . S
C2219 C2221 1.415 . S
C2220 C2219 1.355 . S
C2220 C2222 1.419 . S
C2221 C2216 1.425 . S
C2221 C2218 1.409 . S
C2221 C2219 1.415 . S
C2222 H2212 0.930 . S
C2222 C2220 1.419 . S
C2222 C2223 1.362 . S
C2223 H2213 0.930 . S
C2223 C2216 1.409 . S
C2223 C2222 1.362 . S
H2224 C2230 0.930 . S
H2225 C2233 0.930 . S
H2226 C2234 0.930 . S
H2227 C2235 0.930 . S
H2228 C2238 0.930 . S
H2229 C2239 0.930 . S
C2230 H2224 0.930 . S
C2230 C2231 1.355 . S
C2230 C2232 1.415 . S
C2231 C2230 1.355 . S
C2231 C2233 1.419 . S
C2232 C2230 1.415 . S
C2232 C2237 1.425 . S
C2232 C2239 1.409 . S
C2233 H2225 0.930 . S
C2233 C2231 1.419 . S
C2233 C2234 1.362 . S
C2234 H2226 0.930 . S
C2234 C2233 1.362 . S
C2234 C2237 1.409 . S
C2235 H2227 0.930 . S
C2235 C2236 1.355 . S
C2235 C2237 1.415 . S
C2236 C2235 1.355 . S
C2236 C2238 1.419 . S
C2237 C2232 1.425 . S
C2237 C2234 1.409 . S
C2237 C2235 1.415 . S
C2238 H2228 0.930 . S
C2238 C2236 1.419 . S
C2238 C2239 1.362 . S
C2239 H2229 0.930 . S
C2239 C2232 1.409 . S
C2239 C2238 1.362 . S
H2240 C2246 0.930 . S
H2241 C2249 0.930 . S
H2242 C2250 0.930 . S
H2243 C2251 0.930 . S
H2244 C2254 0.930 . S
H2245 C2255 0.930 . S
C2246 H2240 0.930 . S
C2246 C2247 1.355 . S
C2246 C2248 1.415 . S
C2247 C2246 1.355 . S
C2247 C2249 1.419 . S
C2248 C2246 1.415 . S
C2248 C2253 1.425 . S
C2248 C2255 1.409 . S
C2249 H2241 0.930 . S
C2249 C2247 1.419 . S
C2249 C2250 1.362 . S
C2250 H2242 0.930 . S
C2250 C2249 1.362 . S
C2250 C2253 1.409 . S
C2251 H2243 0.930 . S
C2251 C2252 1.355 . S
C2251 C2253 1.415 . S
C2252 C2251 1.355 . S
C2252 C2254 1.419 . S
C2253 C2248 1.425 . S
C2253 C2250 1.409 . S
C2253 C2251 1.415 . S
C2254 H2244 0.930 . S
C2254 C2252 1.419 . S
C2254 C2255 1.362 . S
C2255 H2245 0.930 . S
C2255 C2248 1.409 . S
C2255 C2254 1.362 . S
H2256 C2262 0.930 . S
H2257 C2265 0.930 . S
H2258 C2266 0.930 . S
H2259 C2267 0.930 . S
H2260 C2270 0.930 . S
H2261 C2271 0.930 . S
C2262 H2256 0.930 . S
C2262 C2263 1.355 . S
C2262 C2264 1.415 . S
C2263 C2262 1.355 . S
C2263 C2265 1.419 . S
C2264 C2262 1.415 . S
C2264 C2269 1.425 . S
C2264 C2271 1.409 . S
C2265 H2257 0.930 . S
C2265 C2263 1.419 . S
C2265 C2266 1.362 . S
C2266 H2258 0.930 . S
C2266 C2265 1.362 . S
C2266 C2269 1.409 . S
C2267 H2259 0.930 . S
C2267 C2268 1.355 . S
C2267 C2269 1.415 . S
C2268 C2267 1.355 . S
C2268 C2270 1.419 . S
C2269 C2264 1.425 . S
C2269 C2266 1.409 . S
C2269 C2267 1.415 . S
C2270 H2260 0.930 . S
C2270 C2268 1.419 . S
C2270 C2271 1.362 . S
C2271 H2261 0.930 . S
C2271 C2264 1.409 . S
C2271 C2270 1.362 . S
H2272 C2278 0.930 . S
H2273 C2281 0.930 . S
H2274 C2282 0.930 . S
H2275 C2283 0.930 . S
H2276 C2286 0.930 . S
H2277 C2287 0.930 . S
C2278 H2272 0.930 . S
C2278 C2279 1.355 . S
C2278 C2280 1.415 . S
C2279 C2278 1.355 . S
C2279 C2281 1.419 . S
C2280 C2278 1.415 . S
C2280 C2285 1.425 . S
C2280 C2287 1.409 . S
C2281 H2273 0.930 . S
C2281 C2279 1.419 . S
C2281 C2282 1.362 . S
C2282 H2274 0.930 . S
C2282 C2281 1.362 . S
C2282 C2285 1.409 . S
C2283 H2275 0.930 . S
C2283 C2284 1.355 . S
C2283 C2285 1.415 . S
C2284 C2283 1.355 . S
C2284 C2286 1.419 . S
C2285 C2280 1.425 . S
C2285 C2282 1.409 . S
C2285 C2283 1.415 . S
C2286 H2276 0.930 . S
C2286 C2284 1.419 . S
C2286 C2287 1.362 . S
C2287 H2277 0.930 . S
C2287 C2280 1.409 . S
C2287 C2286 1.362 . S
H2288 C2294 0.930 . S
H2289 C2297 0.930 . S
H2290 C2298 0.930 . S
H2291 C2299 0.930 . S
H2292 C2302 0.930 . S
H2293 C2303 0.930 . S
C2294 H2288 0.930 . S
C2294 C2295 1.355 . S
C2294 C2296 1.415 . S
C2295 C2294 1.355 . S
C2295 C2297 1.419 1_655 S
C2296 C2294 1.415 . S
C2296 C2301 1.425 1_655 S
C2296 C2303 1.409 . S
C2297 H2289 0.930 . S
C2297 C2295 1.419 1_455 S
C2297 C2298 1.362 . S
C2298 H2290 0.930 . S
C2298 C2297 1.362 . S
C2298 C2301 1.409 . S
C2299 H2291 0.930 . S
C2299 C2300 1.355 . S
C2299 C2301 1.415 . S
C2300 C2299 1.355 . S
C2300 C2302 1.419 1_455 S
C2301 C2296 1.425 1_455 S
C2301 C2298 1.409 . S
C2301 C2299 1.415 . S
C2302 H2292 0.930 . S
C2302 C2300 1.419 1_655 S
C2302 C2303 1.362 . S
C2303 H2293 0.930 . S
C2303 C2296 1.409 . S
C2303 C2302 1.362 . S
H2304 C2310 0.930 . S
H2305 C2313 0.930 . S
H2306 C2314 0.930 . S
H2307 C2315 0.930 . S
H2308 C2318 0.930 . S
H2309 C2319 0.930 . S
C2310 H2304 0.930 . S
C2310 C2311 1.355 . S
C2310 C2312 1.415 . S
C2311 C2310 1.355 . S
C2311 C2313 1.419 . S
C2312 C2310 1.415 . S
C2312 C2317 1.425 . S
C2312 C2319 1.409 . S
C2313 H2305 0.930 . S
C2313 C2311 1.419 . S
C2313 C2314 1.362 . S
C2314 H2306 0.930 . S
C2314 C2313 1.362 . S
C2314 C2317 1.409 . S
C2315 H2307 0.930 . S
C2315 C2316 1.355 . S
C2315 C2317 1.415 . S
C2316 C2315 1.355 . S
C2316 C2318 1.419 . S
C2317 C2312 1.425 . S
C2317 C2314 1.409 . S
C2317 C2315 1.415 . S
C2318 H2308 0.930 . S
C2318 C2316 1.419 . S
C2318 C2319 1.362 . S
C2319 H2309 0.930 . S
C2319 C2312 1.409 . S
C2319 C2318 1.362 . S
H2320 C2326 0.930 . S
H2321 C2329 0.930 . S
H2322 C2330 0.930 . S
H2323 C2331 0.930 . S
H2324 C2334 0.930 . S
H2325 C2335 0.930 . S
C2326 H2320 0.930 . S
C2326 C2327 1.355 . S
C2326 C2328 1.415 . S
C2327 C2326 1.355 . S
C2327 C2329 1.419 . S
C2328 C2326 1.415 . S
C2328 C2333 1.425 . S
C2328 C2335 1.409 . S
C2329 H2321 0.930 . S
C2329 C2327 1.419 . S
C2329 C2330 1.362 . S
C2330 H2322 0.930 . S
C2330 C2329 1.362 . S
C2330 C2333 1.409 . S
C2331 H2323 0.930 . S
C2331 C2332 1.355 . S
C2331 C2333 1.415 . S
C2332 C2331 1.355 . S
C2332 C2334 1.419 . S
C2333 C2328 1.425 . S
C2333 C2330 1.409 . S
C2333 C2331 1.415 . S
C2334 H2324 0.930 . S
C2334 C2332 1.419 . S
C2334 C2335 1.362 . S
C2335 H2325 0.930 . S
C2335 C2328 1.409 . S
C2335 C2334 1.362 . S
H2336 C2342 0.930 . S
H2337 C2345 0.930 . S
H2338 C2346 0.930 . S
H2339 C2347 0.930 . S
H2340 C2350 0.930 . S
H2341 C2351 0.930 . S
C2342 H2336 0.930 . S
C2342 C2343 1.355 . S
C2342 C2344 1.415 . S
C2343 C2342 1.355 . S
C2343 C2345 1.419 . S
C2344 C2342 1.415 . S
C2344 C2349 1.425 . S
C2344 C2351 1.409 . S
C2345 H2337 0.930 . S
C2345 C2343 1.419 . S
C2345 C2346 1.362 . S
C2346 H2338 0.930 . S
C2346 C2345 1.362 . S
C2346 C2349 1.409 . S
C2347 H2339 0.930 . S
C2347 C2348 1.355 . S
C2347 C2349 1.415 . S
C2348 C2347 1.355 . S
C2348 C2350 1.419 . S
C2349 C2344 1.425 . S
C2349 C2346 1.409 . S
C2349 C2347 1.415 . S
C2350 H2340 0.930 . S
C2350 C2348 1.419 . S
C2350 C2351 1.362 . S
C2351 H2341 0.930 . S
C2351 C2344 1.409 . S
C2351 C2350 1.362 . S
H2352 C2358 0.930 . S
H2353 C2361 0.933 . S
H2354 C2362 0.930 . S
H2355 C2363 0.930 . S
H2356 C2366 0.930 . S
H2357 C2367 0.930 . S
C2358 H2352 0.930 . S
C2358 C2359 1.355 . S
C2358 C2360 1.415 . S
C2359 C2358 1.355 . S
C2359 C2361 1.407 1_655 S
C2360 C2358 1.415 . S
C2360 C2365 1.425 1_655 S
C2360 C2367 1.409 . S
C2361 H2353 0.933 . S
C2361 C2359 1.407 1_455 S
C2361 C2362 1.371 . S
C2362 H2354 0.930 . S
C2362 C2361 1.371 . S
C2362 C2365 1.409 . S
C2363 H2355 0.930 . S
C2363 C2364 1.355 . S
C2363 C2365 1.415 . S
C2364 C2363 1.355 . S
C2364 C2366 1.419 1_455 S
C2365 C2360 1.425 1_455 S
C2365 C2362 1.409 . S
C2365 C2363 1.415 . S
C2366 H2356 0.930 . S
C2366 C2364 1.419 1_655 S
C2366 C2367 1.362 . S
C2367 H2357 0.930 . S
C2367 C2360 1.409 . S
C2367 C2366 1.362 . S
H2368 C2374 0.930 . S
H2369 C2377 0.930 . S
H2370 C2378 0.930 . S
H2371 C2379 0.930 . S
H2372 C2382 0.930 . S
H2373 C2383 0.930 . S
C2374 H2368 0.930 . S
C2374 C2375 1.355 . S
C2374 C2376 1.415 . S
C2375 C2374 1.355 . S
C2375 C2377 1.419 . S
C2376 C2374 1.415 . S
C2376 C2381 1.425 . S
C2376 C2383 1.409 . S
C2377 H2369 0.930 . S
C2377 C2375 1.419 . S
C2377 C2378 1.362 . S
C2378 H2370 0.930 . S
C2378 C2377 1.362 . S
C2378 C2381 1.409 . S
C2379 H2371 0.930 . S
C2379 C2380 1.355 . S
C2379 C2381 1.415 . S
C2380 C2379 1.355 . S
C2380 C2382 1.419 . S
C2381 C2376 1.425 . S
C2381 C2378 1.409 . S
C2381 C2379 1.415 . S
C2382 H2372 0.930 . S
C2382 C2380 1.419 . S
C2382 C2383 1.362 . S
C2383 H2373 0.930 . S
C2383 C2376 1.409 . S
C2383 C2382 1.362 . S
H2384 C2390 0.930 . S
H2385 C2393 0.930 . S
H2386 C2394 0.930 . S
H2387 C2395 0.930 . S
H2388 C2398 0.930 . S
H2389 C2399 0.930 . S
C2390 H2384 0.930 . S
C2390 C2391 1.355 . S
C2390 C2392 1.415 . S
C2391 C2390 1.355 . S
C2391 C2393 1.419 . S
C2392 C2390 1.415 . S
C2392 C2397 1.425 . S
C2392 C2399 1.409 . S
C2393 H2385 0.930 . S
C2393 C2391 1.419 . S
C2393 C2394 1.362 . S
C2394 H2386 0.930 . S
C2394 C2393 1.362 . S
C2394 C2397 1.409 . S
C2395 H2387 0.930 . S
C2395 C2396 1.355 . S
C2395 C2397 1.415 . S
C2396 C2395 1.355 . S
C2396 C2398 1.419 . S
C2397 C2392 1.425 . S
C2397 C2394 1.409 . S
C2397 C2395 1.415 . S
C2398 H2388 0.930 . S
C2398 C2396 1.419 . S
C2398 C2399 1.362 . S
C2399 H2389 0.930 . S
C2399 C2392 1.409 . S
C2399 C2398 1.362 . S
H2400 C2406 0.930 . S
H2401 C2409 0.930 . S
H2402 C2410 0.930 . S
H2403 C2411 0.930 . S
H2404 C2414 0.930 . S
H2405 C2415 0.930 . S
C2406 H2400 0.930 . S
C2406 C2407 1.355 . S
C2406 C2408 1.415 . S
C2407 C2406 1.355 . S
C2407 C2409 1.419 . S
C2408 C2406 1.415 . S
C2408 C2413 1.425 . S
C2408 C2415 1.409 . S
C2409 H2401 0.930 . S
C2409 C2407 1.419 . S
C2409 C2410 1.362 . S
C2410 H2402 0.930 . S
C2410 C2409 1.362 . S
C2410 C2413 1.409 . S
C2411 H2403 0.930 . S
C2411 C2412 1.355 . S
C2411 C2413 1.415 . S
C2412 C2411 1.355 . S
C2412 C2414 1.419 . S
C2413 C2408 1.425 . S
C2413 C2410 1.409 . S
C2413 C2411 1.415 . S
C2414 H2404 0.930 . S
C2414 C2412 1.419 . S
C2414 C2415 1.362 . S
C2415 H2405 0.930 . S
C2415 C2408 1.409 . S
C2415 C2414 1.362 . S
H2416 C2422 0.930 . S
H2417 C2425 0.930 . S
H2418 C2426 0.930 . S
H2419 C2427 0.930 . S
H2420 C2430 0.930 . S
H2421 C2431 0.930 . S
C2422 H2416 0.930 . S
C2422 C2423 1.355 . S
C2422 C2424 1.415 . S
C2423 C2422 1.355 . S
C2423 C2425 1.419 . S
C2424 C2422 1.415 . S
C2424 C2429 1.425 . S
C2424 C2431 1.409 . S
C2425 H2417 0.930 . S
C2425 C2423 1.419 . S
C2425 C2426 1.362 . S
C2426 H2418 0.930 . S
C2426 C2425 1.362 . S
C2426 C2429 1.409 . S
C2427 H2419 0.930 . S
C2427 C2428 1.355 . S
C2427 C2429 1.415 . S
C2428 C2427 1.355 . S
C2428 C2430 1.419 . S
C2429 C2424 1.425 . S
C2429 C2426 1.409 . S
C2429 C2427 1.415 . S
C2430 H2420 0.930 . S
C2430 C2428 1.419 . S
C2430 C2431 1.362 . S
C2431 H2421 0.930 . S
C2431 C2424 1.409 . S
C2431 C2430 1.362 . S
H2432 C2438 0.930 . S
H2433 C2441 0.930 . S
H2434 C2442 0.930 . S
H2435 C2443 0.930 . S
H2436 C2446 0.930 . S
H2437 C2447 0.930 . S
C2438 H2432 0.930 . S
C2438 C2439 1.355 . S
C2438 C2440 1.415 . S
C2439 C2438 1.355 . S
C2439 C2441 1.419 . S
C2440 C2438 1.415 . S
C2440 C2445 1.425 . S
C2440 C2447 1.409 . S
C2441 H2433 0.930 . S
C2441 C2439 1.419 . S
C2441 C2442 1.362 . S
C2442 H2434 0.930 . S
C2442 C2441 1.362 . S
C2442 C2445 1.409 . S
C2443 H2435 0.930 . S
C2443 C2444 1.355 . S
C2443 C2445 1.415 . S
C2444 C2443 1.355 . S
C2444 C2446 1.419 . S
C2445 C2440 1.425 . S
C2445 C2442 1.409 . S
C2445 C2443 1.415 . S
C2446 H2436 0.930 . S
C2446 C2444 1.419 . S
C2446 C2447 1.362 . S
C2447 H2437 0.930 . S
C2447 C2440 1.409 . S
C2447 C2446 1.362 . S
H2448 C2454 0.930 . S
H2449 C2457 0.930 . S
H2450 C2458 0.930 . S
H2451 C2459 0.930 . S
H2452 C2462 0.930 . S
H2453 C2463 0.930 . S
C2454 H2448 0.930 . S
C2454 C2455 1.355 . S
C2454 C2456 1.415 . S
C2455 C2454 1.355 . S
C2455 C2457 1.419 . S
C2456 C2454 1.415 . S
C2456 C2461 1.425 . S
C2456 C2463 1.409 . S
C2457 H2449 0.930 . S
C2457 C2455 1.419 . S
C2457 C2458 1.362 . S
C2458 H2450 0.930 . S
C2458 C2457 1.362 . S
C2458 C2461 1.409 . S
C2459 H2451 0.930 . S
C2459 C2460 1.355 . S
C2459 C2461 1.415 . S
C2460 C2459 1.355 . S
C2460 C2462 1.419 . S
C2461 C2456 1.425 . S
C2461 C2458 1.409 . S
C2461 C2459 1.415 . S
C2462 H2452 0.930 . S
C2462 C2460 1.419 . S
C2462 C2463 1.362 . S
C2463 H2453 0.930 . S
C2463 C2456 1.409 . S
C2463 C2462 1.362 . S
H2464 C2470 0.930 . S
H2465 C2473 0.930 . S
H2466 C2474 0.930 . S
H2467 C2475 0.930 . S
H2468 C2478 0.930 . S
H2469 C2479 0.930 . S
C2470 H2464 0.930 . S
C2470 C2471 1.355 . S
C2470 C2472 1.415 . S
C2471 C2470 1.355 . S
C2471 C2473 1.419 . S
C2472 C2470 1.415 . S
C2472 C2477 1.425 . S
C2472 C2479 1.409 . S
C2473 H2465 0.930 . S
C2473 C2471 1.419 . S
C2473 C2474 1.362 . S
C2474 H2466 0.930 . S
C2474 C2473 1.362 . S
C2474 C2477 1.409 . S
C2475 H2467 0.930 . S
C2475 C2476 1.355 . S
C2475 C2477 1.415 . S
C2476 C2475 1.355 . S
C2476 C2478 1.419 . S
C2477 C2472 1.425 . S
C2477 C2474 1.409 . S
C2477 C2475 1.415 . S
C2478 H2468 0.930 . S
C2478 C2476 1.419 . S
C2478 C2479 1.362 . S
C2479 H2469 0.930 . S
C2479 C2472 1.409 . S
C2479 C2478 1.362 . S
H2480 C2486 0.930 . S
H2481 C2489 0.930 . S
H2482 C2490 0.930 . S
H2483 C2491 0.930 . S
H2484 C2494 0.930 . S
H2485 C2495 0.930 . S
C2486 H2480 0.930 . S
C2486 C2487 1.355 . S
C2486 C2488 1.415 . S
C2487 C2486 1.355 . S
C2487 C2489 1.419 . S
C2488 C2486 1.415 . S
C2488 C2493 1.425 . S
C2488 C2495 1.409 . S
C2489 H2481 0.930 . S
C2489 C2487 1.419 . S
C2489 C2490 1.362 . S
C2490 H2482 0.930 . S
C2490 C2489 1.362 . S
C2490 C2493 1.409 . S
C2491 H2483 0.930 . S
C2491 C2492 1.355 . S
C2491 C2493 1.415 . S
C2492 C2491 1.355 . S
C2492 C2494 1.419 . S
C2493 C2488 1.425 . S
C2493 C2490 1.409 . S
C2493 C2491 1.415 . S
C2494 H2484 0.930 . S
C2494 C2492 1.419 . S
C2494 C2495 1.362 . S
C2495 H2485 0.930 . S
C2495 C2488 1.409 . S
C2495 C2494 1.362 . S
H2496 C2502 0.930 . S
H2497 C2505 0.930 . S
H2498 C2506 0.930 . S
H2499 C2507 0.930 . S
H2500 C2510 0.930 . S
H2501 C2511 0.930 . S
C2502 H2496 0.930 . S
C2502 C2503 1.355 . S
C2502 C2504 1.415 . S
C2503 C2502 1.355 . S
C2503 C2505 1.419 . S
C2504 C2502 1.415 . S
C2504 C2509 1.425 . S
C2504 C2511 1.409 . S
C2505 H2497 0.930 . S
C2505 C2503 1.419 . S
C2505 C2506 1.362 . S
C2506 H2498 0.930 . S
C2506 C2505 1.362 . S
C2506 C2509 1.409 . S
C2507 H2499 0.930 . S
C2507 C2508 1.355 . S
C2507 C2509 1.415 . S
C2508 C2507 1.355 . S
C2508 C2510 1.419 . S
C2509 C2504 1.425 . S
C2509 C2506 1.409 . S
C2509 C2507 1.415 . S
C2510 H2500 0.930 . S
C2510 C2508 1.419 . S
C2510 C2511 1.362 . S
C2511 H2501 0.930 . S
C2511 C2504 1.409 . S
C2511 C2510 1.362 . S
C983 C111 2.264 1_455 S
C988 C367 2.234 . S
C999 C64 1.828 . S
C1004 C378 1.941 . S
C1015 C77 1.657 . S
C1020 C447 1.617 . S
C1036 C460 1.011 . S
C1031 C95 1.034 . S
C1047 C25 2.335 . S
C1052 C516 2.298 . S
C1068 C567 2.221 . S
C1063 C36 2.204 . S
C1084 C596 2.374 . S
C1079 C50 2.334 . S
C1095 C11 2.434 . S
C1100 C647 2.406 . S
C1116 C338 1.280 . S
C1111 C237 1.279 . S
C1127 C245 0.971 . S
C1132 C380 0.910 . S
C1148 C418 0.912 . S
C1143 C279 0.975 . S
C1164 C487 1.691 . S
C1159 C175 1.683 . S
C1175 C231 0.536 . S
C1180 C521 0.534 1_655 S
C1196 C538 1.294 . S
C1191 C251 1.282 . S
C1212 C601 0.461 . S
C1207 C273 0.427 . S
C1228 C618 2.071 . S
C1223 C181 2.037 . S
C1244 C340 1.728 . S
C1239 C165 1.925 1_554 S
C1255 C288 1.610 . S
C1260 C679 1.627 . S
C1276 C700 1.610 . S
C1271 C333 1.736 . S
C1292 C759 0.390 . S
C1287 C316 0.476 . S
C1303 C123 1.183 . S
C1308 C620 1.148 . S
C1319 C137 1.420 . S
C1324 C420 1.383 . S
C1335 C330 0.927 . S
C1340 C778 1.027 . S
C1356 C847 0.944 . S
C1351 C302 1.006 . S
C1372 C356 2.326 . S
C1367 C63 2.356 . S
C1388 C839 1.949 . S
C1383 C106 1.950 . S
C1399 C97 1.693 . S
C1404 C436 1.712 . S
C1415 C81 1.103 . S
C1420 C801 1.076 . S
C1436 C527 2.469 . S
C1431 C13 2.415 . S
C1447 C55 2.051 . S
C1452 C716 2.180 . S
C1468 C607 2.374 1_556 S
C1463 C35 2.358 . S
C1484 C876 2.571 . S
C1479 C21 2.619 1_655 S
C1500 C359 1.362 . S
C1495 C147 1.348 . S
C1516 C841 0.931 . S
C1511 C321 0.913 . S
C1527 C119 0.991 . S
C1532 C439 1.021 . S
C1543 C293 1.726 . S
C1548 C796 1.843 . S
C1559 C153 0.591 . S
C1564 C500 0.625 . S
C1580 C719 1.397 . S
C1575 C315 1.370 . S
C1591 C125 0.429 . S
C1596 C580 0.423 . S
C1607 C287 2.225 . S
C1612 C879 2.152 . S
C1623 C193 1.847 . S
C1628 C361 1.770 1_554 S
C1639 C176 1.647 . S
C1644 C658 1.591 . S
C1655 C263 1.531 . S
C1660 C561 1.511 . S
C1671 C246 0.624 . S
C1676 C738 0.703 . S
C1692 C881 1.051 . S
C1687 C277 1.037 1_565 S
C1703 C221 1.378 . S
C1708 C441 1.376 . S
C1724 C479 1.086 . S
C1719 C260 1.083 . S
C1740 C396 0.998 . S
C1735 C204 1.067 . S
C1751 C83 2.260 . S
C1756 C927 2.243 . S
C1772 C818 1.930 . S
C1767 C92 1.852 . S
C1783 C105 1.656 . S
C1788 C967 1.613 . S
C1799 C67 1.032 . S
C1804 C780 1.052 . S
C1815 C53 2.341 . S
C1820 C676 2.294 . S
C1836 C727 2.211 . S
C1831 C8 2.203 1_655 S
C1852 C756 2.379 . S
C1847 C22 2.318 . S
C1868 C887 2.390 . S
C1863 C39 2.443 . S
C1884 C898 1.300 . S
C1879 C265 1.274 . S
C1895 C189 1.037 . S
C1900 C820 1.020 . S
C1916 C938 0.965 . S
C1911 C209 0.849 . S
C1932 C807 1.688 . S
C1927 C217 1.662 . S
C1948 C681 0.569 . S
C1943 C259 0.550 . S
C1959 C195 1.263 . S
C1964 C698 1.284 . S
C1980 C761 0.449 . S
C1975 C203 0.445 . S
C1991 C223 2.028 . S
C1996 C858 2.079 . S
C2012 C900 1.777 . S
C2007 C319 1.920 . S
C2023 C134 1.587 . S
C2028 C519 1.567 . S
C2044 C540 1.596 . S
C2039 C151 1.723 . S
C2060 C599 0.541 . S
C2055 C162 0.514 1_556 S
C2076 C860 1.117 . S
C2071 C305 1.172 . S
C2087 C291 1.413 . S
C2092 C940 1.350 . S
C2108 C458 1.000 . S
C2103 C148 0.857 . S
C2124 C407 1.012 . S
C2119 C120 0.965 . S
C2135 C91 2.366 . S
C2140 C916 2.341 . S
C2156 C399 1.946 . S
C2151 C78 1.947 . S
C2167 C69 1.639 . S
C2172 C956 1.717 . S
C2183 C109 1.065 . S
C2188 C481 1.083 . S
C2199 C41 2.404 . S
C2204 C687 2.478 1_556 S
C2220 C556 2.180 . S
C2215 C27 2.001 . S
C2231 C7 2.351 . S
C2236 C767 2.369 . S
C2247 C49 2.615 . S
C2252 C636 2.547 . S
C2268 C919 1.353 . S
C2263 C329 1.363 . S
C2279 C167 0.921 . S
C2284 C401 0.934 . S
C2300 C959 1.001 . S
C2295 C301 1.001 . S
C2311 C139 1.789 . S
C2316 C476 1.844 . S
C2327 C335 0.760 . S
C2332 C660 0.709 . S
C2348 C559 1.357 . S
C2343 C161 1.373 . S
C2359 C307 0.496 . S
C2364 C740 0.426 . S
C2380 C639 2.180 . S
C2375 C133 2.231 . S
C2396 C921 1.751 . S
C2391 C249 1.788 . S
C2412 C498 1.598 1_565 S
C2407 C218 1.651 . S
C2423 C235 1.533 . S
C2428 C721 1.515 . S
C2444 C578 0.634 . S
C2439 C190 0.740 . S
C2455 C207 1.142 . S
C2460 C641 1.136 . S
C2471 C179 1.381 . S
C2476 C961 1.378 . S
C2492 C799 1.045 . S
C2487 C232 1.029 . S
C2508 C836 1.011 . S
C2503 C274 1.062 . S
