# Generated by pormake.
# Topology csq, (4,8)-cn, num edge types: 1
# Building blocks:
#     Node 0, Type 0, BuildingBlock: NAWXER_clean_sbu_0, # of connection points: 4
#     Node 1, Type 0, BuildingBlock: NAWXER_clean_sbu_0, # of connection points: 4
#     Node 2, Type 0, BuildingBlock: NAWXER_clean_sbu_0, # of connection points: 4
#     Node 3, Type 0, BuildingBlock: NAWXER_clean_sbu_0, # of connection points: 4
#     Node 4, Type 0, BuildingBlock: NAWXER_clean_sbu_0, # of connection points: 4
#     Node 5, Type 0, BuildingBlock: NAWXER_clean_sbu_0, # of connection points: 4
#     Node 6, Type 1, BuildingBlock: TAGTUT_clean_sbu_1, # of connection points: 8
#     Node 7, Type 1, BuildingBlock: TAGTUT_clean_sbu_1, # of connection points: 8
#     Node 8, Type 1, BuildingBlock: TAGTUT_clean_sbu_1, # of connection points: 8
#     Edge 9, Type (0, 1), BuildingBlock: XIVTED_clean_linker_0, # of connection points: 2
#     Edge 10, Type (0, 1), BuildingBlock: XIVTED_clean_linker_0, # of connection points: 2
#     Edge 11, Type (0, 1), BuildingBlock: XIVTED_clean_linker_0, # of connection points: 2
#     Edge 12, Type (0, 1), BuildingBlock: XIVTED_clean_linker_0, # of connection points: 2
#     Edge 13, Type (0, 1), BuildingBlock: XIVTED_clean_linker_0, # of connection points: 2
#     Edge 14, Type (0, 1), BuildingBlock: XIVTED_clean_linker_0, # of connection points: 2
#     Edge 15, Type (0, 1), BuildingBlock: XIVTED_clean_linker_0, # of connection points: 2
#     Edge 16, Type (0, 1), BuildingBlock: XIVTED_clean_linker_0, # of connection points: 2
#     Edge 17, Type (0, 1), BuildingBlock: XIVTED_clean_linker_0, # of connection points: 2
#     Edge 18, Type (0, 1), BuildingBlock: XIVTED_clean_linker_0, # of connection points: 2
#     Edge 19, Type (0, 1), BuildingBlock: XIVTED_clean_linker_0, # of connection points: 2
#     Edge 20, Type (0, 1), BuildingBlock: XIVTED_clean_linker_0, # of connection points: 2
#     Edge 21, Type (0, 1), BuildingBlock: XIVTED_clean_linker_0, # of connection points: 2
#     Edge 22, Type (0, 1), BuildingBlock: XIVTED_clean_linker_0, # of connection points: 2
#     Edge 23, Type (0, 1), BuildingBlock: XIVTED_clean_linker_0, # of connection points: 2
#     Edge 24, Type (0, 1), BuildingBlock: XIVTED_clean_linker_0, # of connection points: 2
#     Edge 25, Type (0, 1), BuildingBlock: XIVTED_clean_linker_0, # of connection points: 2
#     Edge 26, Type (0, 1), BuildingBlock: XIVTED_clean_linker_0, # of connection points: 2
#     Edge 27, Type (0, 1), BuildingBlock: XIVTED_clean_linker_0, # of connection points: 2
#     Edge 28, Type (0, 1), BuildingBlock: XIVTED_clean_linker_0, # of connection points: 2
#     Edge 29, Type (0, 1), BuildingBlock: XIVTED_clean_linker_0, # of connection points: 2
#     Edge 30, Type (0, 1), BuildingBlock: XIVTED_clean_linker_0, # of connection points: 2
#     Edge 31, Type (0, 1), BuildingBlock: XIVTED_clean_linker_0, # of connection points: 2
#     Edge 32, Type (0, 1), BuildingBlock: XIVTED_clean_linker_0, # of connection points: 2
# Relax obj value: 0.042
# Max RMSD: 0.128
# Mean RMSD: 0.072
data_MOF--net-csq--node1-NAWXER_clean_sbu_0--node2-TAGTUT_clean_sbu_1--edge1-XIVTED_clean_linker_0
_symmetry_space_group_name_H-M    P1
_symmetry_Int_Tables_number       1
_symmetry_cell_setting            triclinic
loop_
_symmetry_equiv_pos_as_xyz
'x, y, z'
_cell_length_a     50.083489
_cell_length_b     49.671836
_cell_length_c     19.695701
_cell_angle_alpha  92.23572
_cell_angle_beta   92.176327
_cell_angle_gamma 119.89565
loop_
_atom_site_label
_atom_site_type_symbol
_atom_site_fract_x
_atom_site_fract_y
_atom_site_fract_z
_atom_type_partial_charge
C0 C 0.3022 0.51715 0.09649 0.0
C1 C 0.22889 0.51921 0.25383 0.0
O2 O 0.30455 0.54162 0.12591 0.0
Zn3 Zn 0.26707 0.52054 0.17635 0.0
O4 O 0.28021 0.49041 0.11002 0.0
Zn5 Zn 0.24107 0.47 0.1694 0.0
O6 O 0.20819 0.44852 0.09649 0.0
O7 O 0.23269 0.4997 0.09477 0.0
O8 O 0.22307 0.49186 0.23375 0.0
O9 O 0.25178 0.54289 0.2316 0.0
O10 O 0.27982 0.49918 0.25208 0.0
O11 O 0.25233 0.44803 0.23502 0.0
C12 C 0.21224 0.47287 0.06845 0.0
C13 C 0.27293 0.4721 0.27009 0.0
C14 C 0.72675 0.21853 0.03486 0.0
C15 C 0.80083 0.29926 0.20173 0.0
O16 O 0.74517 0.21144 0.06544 0.0
Zn17 Zn 0.78249 0.23078 0.13969 0.0
O18 O 0.72885 0.24469 0.04973 0.0
Zn19 Zn 0.76277 0.25987 0.11951 0.0
O20 O 0.80159 0.26837 0.06329 0.0
O21 O 0.81689 0.23498 0.08863 0.0
O22 O 0.77996 0.30105 0.1665 0.0
O23 O 0.80309 0.27471 0.19561 0.0
O24 O 0.76754 0.20273 0.21225 0.0
O25 O 0.74367 0.22975 0.20161 0.0
C26 C 0.82015 0.25791 0.05597 0.0
C27 C 0.74763 0.20953 0.23227 0.0
C28 C 0.5751 0.82606 0.14541 0.0
C29 C 0.56976 0.74395 0.99351 0.0
O30 O 0.59774 0.82328 0.1272 0.0
Zn31 Zn 0.57359 0.78554 0.06955 0.0
O32 O 0.54741 0.805 0.12623 0.0
Zn33 Zn 0.52396 0.76272 0.06348 0.0
O34 O 0.50066 0.73068 0.12503 0.0
O35 O 0.55117 0.75077 0.13997 0.0
O36 O 0.54325 0.7402 0.00609 0.0
O37 O 0.5942 0.76828 0.01739 0.0
O38 O 0.5535 0.80075 0.99379 0.0
O39 O 0.5027 0.77391 0.99576 0.0
C40 C 0.52381 0.73123 0.15545 0.0
C41 C 0.52677 0.79521 0.97124 0.0
C42 C 0.78822 0.4902 0.98747 0.0
C43 C 0.71511 0.49203 0.14583 0.0
O44 O 0.79394 0.51751 0.00758 0.0
Zn45 Zn 0.77593 0.53926 0.07207 0.0
O46 O 0.76543 0.46645 0.00979 0.0
Zn47 Zn 0.75006 0.48869 0.0653 0.0
O48 O 0.73697 0.50992 0.98988 0.0
O49 O 0.76448 0.56108 0.00661 0.0
O50 O 0.71274 0.46756 0.11636 0.0
O51 O 0.73699 0.51877 0.13199 0.0
O52 O 0.80893 0.56091 0.14455 0.0
O53 O 0.78465 0.50973 0.14643 0.0
C54 C 0.74377 0.53697 0.97182 0.0
C55 C 0.80508 0.53661 0.17254 0.0
C56 C 0.19742 0.75677 0.19868 0.0
C57 C 0.26355 0.7922 0.00718 0.0
O58 O 0.19906 0.77643 0.15705 0.0
Zn59 Zn 0.23098 0.77593 0.10576 0.0
O60 O 0.21496 0.74488 0.19408 0.0
Zn61 Zn 0.24932 0.74647 0.12809 0.0
O62 O 0.28509 0.76128 0.18989 0.0
O63 O 0.26976 0.79573 0.17914 0.0
O64 O 0.2672 0.77249 0.04052 0.0
O65 O 0.24486 0.80064 0.02714 0.0
O66 O 0.20492 0.72924 0.06368 0.0
O67 O 0.22874 0.70346 0.09136 0.0
C68 C 0.28812 0.78766 0.20666 0.0
C69 C 0.20576 0.7039 0.06284 0.0
C70 C 0.44198 0.25843 0.25263 0.0
C71 C 0.43846 0.17799 0.09831 0.0
O72 O 0.46869 0.26256 0.24061 0.0
Zn73 Zn 0.48873 0.24094 0.18269 0.0
O74 O 0.4178 0.23416 0.22754 0.0
Zn75 Zn 0.43907 0.21775 0.17518 0.0
O76 O 0.45895 0.2022 0.25069 0.0
O77 O 0.50978 0.22942 0.25031 0.0
O78 O 0.41555 0.18039 0.11609 0.0
O79 O 0.46597 0.19913 0.11848 0.0
O80 O 0.51218 0.27366 0.12251 0.0
O81 O 0.46169 0.25339 0.10671 0.0
C82 C 0.48561 0.20778 0.27377 0.0
C83 C 0.4891 0.27331 0.09221 0.0
C84 C 0.9792 0.40847 0.77297 0.0
C85 C 0.0698 0.46957 0.70987 0.0
C86 C 0.03913 0.55946 0.7456 0.0
Mg87 Mg 0.00478 0.43527 0.63519 0.0
O88 O 0.99829 0.46719 0.66958 0.0
Mg89 Mg 0.0164 0.48674 0.76268 0.0
Mg90 Mg 0.00922 0.50579 0.62151 0.0
O91 O 0.02008 0.54441 0.57445 0.0
Mg92 Mg 0.01195 0.57486 0.61129 0.0
Mg93 Mg 0.0029 0.52594 0.48034 0.0
C94 C 0.97745 0.45103 0.49945 0.0
C95 C 0.06207 0.51746 0.51466 0.0
O96 O 0.99256 0.43667 0.79879 0.0
O97 O 0.97906 0.40192 0.70919 0.0
O98 O 0.05994 0.48381 0.74767 0.0
O99 O 0.05303 0.45027 0.66039 0.0
O100 O 0.98485 0.43324 0.53155 0.0
O101 O 0.98218 0.47715 0.52627 0.0
C102 C 0.95682 0.49456 0.72914 0.0
O103 O 0.96572 0.50287 0.66922 0.0
O104 O 0.97242 0.48809 0.77156 0.0
O105 O 0.02782 0.5774 0.44741 0.0
O106 O 0.03867 0.60921 0.54179 0.0
O107 O 0.95913 0.52853 0.4938 0.0
C108 C 0.04051 0.60479 0.47795 0.0
O109 O 0.96398 0.56 0.58352 0.0
O110 O 0.03072 0.57697 0.71582 0.0
C111 C 0.94825 0.5416 0.53202 0.0
O112 O 0.03617 0.53458 0.71608 0.0
O113 O 0.05275 0.50865 0.57405 0.0
O114 O 0.04689 0.52451 0.47244 0.0
C115 C 0.44051 0.01217 0.81323 0.0
C116 C 0.41441 0.92777 0.6986 0.0
C117 C 0.53668 0.9668 0.70708 0.0
Mg118 Mg 0.43959 0.9949 0.65967 0.0
O119 O 0.48007 0.00601 0.68911 0.0
Mg120 Mg 0.48569 0.98311 0.76472 0.0
Mg121 Mg 0.50662 0.00172 0.62245 0.0
O122 O 0.53342 -0.00257 0.55629 0.0
Mg123 Mg 0.57392 0.00877 0.58614 0.0
Mg124 Mg 0.52771 0.01973 0.48003 0.0
C125 C 0.47635 0.03626 0.53749 0.0
C126 C 0.46316 0.95565 0.49444 0.0
O127 O 0.45926 0.00218 0.82738 0.0
O128 O 0.43064 0.01209 0.75216 0.0
O129 O 0.43921 0.93843 0.7369 0.0
O130 O 0.41021 0.94493 0.65791 0.0
O131 O 0.45159 0.02277 0.57001 0.0
O132 O 0.50003 0.03352 0.55275 0.0
C133 C 0.5512 0.04639 0.751 0.0
O134 O 0.54742 0.04262 0.68586 0.0
O135 O 0.53135 0.02725 0.78941 0.0
O136 O 0.55493 0.00135 0.41846 0.0
O137 O 0.58345 0.99163 0.49424 0.0
O138 O 0.57356 0.06487 0.50823 0.0
C139 C 0.57377 0.99153 0.43299 0.0
O140 O 0.60271 0.05886 0.58789 0.0
O141 O 0.56167 0.98064 0.67542 0.0
C142 C 0.59827 0.07581 0.54694 0.0
O143 O 0.513 0.96947 0.69136 0.0
O144 O 0.4659 0.96094 0.55928 0.0
O145 O 0.48321 0.97424 0.45562 0.0
C146 C 0.53078 0.56334 0.39945 0.0
C147 C 0.57371 0.51014 0.46347 0.0
C148 C 0.46327 0.43195 0.55206 0.0
Mg149 Mg 0.55971 0.55685 0.53628 0.0
O150 O 0.51774 0.52732 0.54098 0.0
Mg151 Mg 0.49901 0.4932 0.46622 0.0
Mg152 Mg 0.50716 0.50203 0.62148 0.0
O153 O 0.49656 0.47669 0.70193 0.0
Mg154 Mg 0.45453 0.44721 0.70637 0.0
Mg155 Mg 0.51512 0.51086 0.77657 0.0
C156 C 0.55103 0.57211 0.6907 0.0
C157 C 0.57154 0.51356 0.69626 0.0
O158 O 0.51069 0.53402 0.39493 0.0
O159 O 0.55144 0.57633 0.44888 0.0
O160 O 0.54496 0.49504 0.44502 0.0
O161 O 0.58494 0.53411 0.50519 0.0
O162 O 0.56704 0.58006 0.63792 0.0
O163 O 0.526 0.54575 0.69202 0.0
C164 C 0.44278 0.49072 0.54687 0.0
O165 O 0.45791 0.49557 0.60448 0.0
O166 O 0.45401 0.48983 0.49021 0.0
O167 O 0.50325 0.47009 0.84819 0.0
O168 O 0.46237 0.4278 0.79447 0.0
O169 O 0.46916 0.50903 0.79715 0.0
C170 C 0.48296 0.44083 0.84401 0.0
O171 O 0.4293 0.47009 0.73644 0.0
O172 O 0.44728 0.42393 0.60484 0.0
C173 C 0.44045 0.49403 0.77822 0.0
O174 O 0.48826 0.45835 0.55087 0.0
O175 O 0.55643 0.50857 0.63857 0.0
O176 O 0.56021 0.51437 0.75284 0.0
H177 H 0.2228 0.57028 0.28623 0.0
H178 H 0.08814 0.48088 0.54014 0.0
H179 H 0.18923 0.4751 0.33441 0.0
H180 H 0.10257 0.56188 0.43796 0.0
H181 H 0.13309 0.48383 0.4862 0.0
H182 H 0.18632 0.57272 0.36257 0.0
C183 C 0.20799 0.55003 0.31324 0.0
C184 C 0.20878 0.52234 0.30313 0.0
C185 C 0.12655 0.50115 0.47641 0.0
C186 C 0.16726 0.52501 0.39092 0.0
C187 C 0.10109 0.49956 0.50749 0.0
C188 C 0.09147 0.52091 0.49271 0.0
C189 C 0.14261 0.52454 0.43139 0.0
C190 C 0.10898 0.54466 0.44988 0.0
C191 C 0.18716 0.55139 0.35672 0.0
C192 C 0.1891 0.49681 0.33981 0.0
N193 N 0.13355 0.54575 0.42058 0.0
N194 N 0.16911 0.49872 0.38182 0.0
H195 H 0.75366 0.17065 0.31944 0.0
H196 H 0.59694 0.12437 0.48941 0.0
H197 H 0.6999 0.21512 0.28008 0.0
H198 H 0.65963 0.09385 0.5589 0.0
H199 H 0.63731 0.16271 0.42343 0.0
H200 H 0.7219 0.14567 0.41422 0.0
C201 C 0.73525 0.17524 0.33076 0.0
C202 C 0.72924 0.19474 0.29109 0.0
C203 C 0.64255 0.14816 0.45433 0.0
C204 C 0.69284 0.16632 0.39985 0.0
C205 C 0.61955 0.12644 0.49261 0.0
C206 C 0.62477 0.1056 0.52914 0.0
C207 C 0.6708 0.14869 0.45157 0.0
C208 C 0.65453 0.10937 0.53139 0.0
C209 C 0.71725 0.16114 0.38525 0.0
C210 C 0.70526 0.20007 0.30876 0.0
N211 N 0.67619 0.12993 0.49172 0.0
N212 N 0.68779 0.18572 0.36127 0.0
H213 H 0.56493 0.73559 0.25443 0.0
H214 H 0.47932 0.55511 0.32435 0.0
H215 H 0.47544 0.67111 0.15657 0.0
H216 H 0.5764 0.62004 0.36874 0.0
H217 H 0.47451 0.59594 0.2676 0.0
H218 H 0.56538 0.69288 0.30929 0.0
C219 C 0.54507 0.71242 0.2455 0.0
C220 C 0.5202 0.70683 0.20066 0.0
C221 C 0.49687 0.60099 0.28915 0.0
C222 C 0.52088 0.65745 0.26196 0.0
C223 C 0.49971 0.57765 0.32076 0.0
C224 C 0.52828 0.58431 0.35176 0.0
C225 C 0.52273 0.631 0.28921 0.0
C226 C 0.55387 0.61396 0.34629 0.0
C227 C 0.54547 0.68794 0.27624 0.0
C228 C 0.495 0.67637 0.19115 0.0
N229 N 0.5504 0.6362 0.3164 0.0
N230 N 0.49609 0.65261 0.22107 0.0
H231 H 0.79747 0.48808 0.24477 0.0
H232 H 0.93653 0.58941 0.52216 0.0
H233 H 0.85195 0.58831 0.24745 0.0
H234 H 0.8964 0.49074 0.47621 0.0
H235 H 0.89749 0.5893 0.44252 0.0
H236 H 0.82601 0.4892 0.34786 0.0
C237 C 0.81551 0.51046 0.26693 0.0
C238 C 0.82262 0.53817 0.23642 0.0
C239 C 0.89678 0.56758 0.45132 0.0
C240 C 0.85552 0.53947 0.3559 0.0
C241 C 0.91869 0.56751 0.49756 0.0
C242 C 0.91956 0.54 0.50566 0.0
C243 C 0.87555 0.53985 0.41386 0.0
C244 C 0.89643 0.51241 0.47142 0.0
C245 C 0.83174 0.51101 0.32624 0.0
C246 C 0.84595 0.56637 0.26868 0.0
N247 N 0.87558 0.5131 0.42655 0.0
N248 N 0.8618 0.56629 0.32654 0.0
H249 H 0.2883 0.83324 0.28845 0.0
H250 H 0.46488 0.91851 0.39292 0.0
H251 H 0.34301 0.79073 0.24153 0.0
H252 H 0.40222 0.92823 0.52223 0.0
H253 H 0.421 0.87364 0.33116 0.0
H254 H 0.33003 0.87064 0.3692 0.0
C255 C 0.30908 0.83175 0.29536 0.0
C256 C 0.31243 0.8091 0.25795 0.0
C257 C 0.41688 0.8853 0.37366 0.0
C258 C 0.36007 0.85179 0.34947 0.0
C259 C 0.44181 0.91093 0.40859 0.0
C260 C 0.43696 0.92695 0.46243 0.0
C261 C 0.38687 0.87623 0.39154 0.0
C262 C 0.40677 0.91626 0.48119 0.0
C263 C 0.3327 0.85289 0.34176 0.0
C264 C 0.3396 0.80791 0.26931 0.0
N265 N 0.38266 0.89178 0.44486 0.0
N266 N 0.36266 0.82933 0.31337 0.0
H267 H 0.39366 0.25619 0.32017 0.0
H268 H 0.49295 0.43754 0.43507 0.0
H269 H 0.48637 0.31897 0.26561 0.0
H270 H 0.41241 0.37344 0.53608 0.0
H271 H 0.48287 0.39584 0.35106 0.0
H272 H 0.39348 0.30033 0.38136 0.0
C273 C 0.41384 0.27918 0.32093 0.0
C274 C 0.44028 0.28388 0.28916 0.0
C275 C 0.46718 0.39098 0.39118 0.0
C276 C 0.43998 0.33411 0.35685 0.0
C277 C 0.47285 0.41487 0.43905 0.0
C278 C 0.45395 0.40885 0.49369 0.0
C279 C 0.44253 0.36081 0.39816 0.0
C280 C 0.42797 0.37899 0.49552 0.0
C281 C 0.4137 0.30428 0.35549 0.0
C282 C 0.46573 0.31413 0.29078 0.0
N283 N 0.42328 0.35588 0.44903 0.0
N284 N 0.46495 0.33801 0.32414 0.0
H285 H 0.572 0.83479 0.89423 0.0
H286 H 0.48449 0.92207 0.7628 0.0
H287 H 0.47856 0.80581 0.94317 0.0
H288 H 0.58273 0.9582 0.76018 0.0
H289 H 0.47993 0.87821 0.8246 0.0
H290 H 0.57363 0.87733 0.83444 0.0
C291 C 0.55161 0.83714 0.89163 0.0
C292 C 0.52517 0.81684 0.92417 0.0
C293 C 0.50247 0.89596 0.81099 0.0
C294 C 0.52708 0.86607 0.8565 0.0
C295 C 0.50516 0.92115 0.77626 0.0
C296 C 0.53403 0.94376 0.75567 0.0
C297 C 0.5288 0.89339 0.82472 0.0
C298 C 0.55996 0.94123 0.77426 0.0
C299 C 0.55265 0.86165 0.85791 0.0
C300 C 0.49938 0.82093 0.91861 0.0
N301 N 0.55666 0.91638 0.80705 0.0
N302 N 0.50104 0.84531 0.88579 0.0
H303 H 0.73754 0.58653 0.93323 0.0
H304 H 0.59563 0.47559 0.67299 0.0
H305 H 0.71098 0.49167 0.87167 0.0
H306 H 0.62017 0.56954 0.73579 0.0
H307 H 0.64582 0.48573 0.72203 0.0
H308 H 0.7025 0.58528 0.84091 0.0
C309 C 0.72474 0.56566 0.89973 0.0
C310 C 0.7266 0.53896 0.91118 0.0
C311 C 0.64066 0.50447 0.72337 0.0
C312 C 0.68659 0.53727 0.80573 0.0
C313 C 0.61219 0.49873 0.69453 0.0
C314 C 0.60404 0.5218 0.70052 0.0
C315 C 0.66063 0.53329 0.75923 0.0
C316 C 0.62587 0.55123 0.73023 0.0
C317 C 0.70474 0.56491 0.84703 0.0
C318 C 0.7097 0.51259 0.86581 0.0
N319 N 0.65296 0.556 0.75967 0.0
N320 N 0.69016 0.51228 0.8158 0.0
H321 H 0.20182 0.65032 0.00518 0.0
H322 H 0.0346 0.59709 0.84321 0.0
H323 H 0.1472 0.69242 0.05646 0.0
H324 H 0.08299 0.54756 0.79906 0.0
H325 H 0.07146 0.62507 0.93973 0.0
H326 H 0.15555 0.60626 0.94586 0.0
C327 C 0.18005 0.65005 0.00461 0.0
C328 C 0.1784 0.67535 0.03363 0.0
C329 C 0.07382 0.60771 0.90978 0.0
C330 C 0.12578 0.62542 0.96734 0.0
C331 C 0.05269 0.59171 0.85475 0.0
C332 C 0.05619 0.57053 0.81252 0.0
C333 C 0.09909 0.60309 0.92142 0.0
C334 C 0.07971 0.564 0.83018 0.0
C335 C 0.15369 0.62497 0.97108 0.0
C336 C 0.14968 0.67382 0.03267 0.0
N337 N 0.10083 0.58084 0.88243 0.0
N338 N 0.12464 0.6495 -0.00057 0.0
H339 H 0.38768 0.13376 0.01875 0.0
H340 H 0.46865 0.03293 0.94135 0.0
H341 H 0.47898 0.15704 0.09646 0.0
H342 H 0.39535 0.02794 0.80887 0.0
H343 H 0.46321 0.06884 0.01997 0.0
H344 H 0.38224 0.08652 0.95948 0.0
C345 C 0.40648 0.12891 0.02336 0.0
C346 C 0.43402 0.14956 0.06138 0.0
C347 C 0.44803 0.05949 0.9741 0.0
C348 C 0.42766 0.09564 0.996 0.0
C349 C 0.45097 0.03883 0.92943 0.0
C350 C 0.43291 0.02799 0.86773 0.0
C351 C 0.42683 0.06925 0.957 0.0
C352 C 0.41021 0.03629 0.85526 0.0
C353 C 0.40333 0.10201 0.98992 0.0
C354 C 0.45758 0.1421 0.06652 0.0
N355 N 0.40808 0.05681 0.8991 0.0
N356 N 0.45385 0.11579 0.03421 0.0
H357 H 0.36114 0.5644 0.07372 0.0
H358 H 0.37713 0.46366 0.76558 0.0
H359 H 0.29009 0.4725 0.99737 0.0
H360 H 0.45581 0.54364 0.86953 0.0
H361 H 0.34323 0.47309 0.83618 0.0
H362 H 0.39471 0.5629 0.98692 0.0
C363 C 0.35256 0.54408 0.03857 0.0
C364 C 0.32295 0.51839 0.04344 0.0
C365 C 0.36792 0.48876 0.84315 0.0
C366 C 0.36079 0.51667 0.94393 0.0
C367 C 0.38731 0.48348 0.8025 0.0
C368 C 0.41945 0.50256 0.81216 0.0
C369 C 0.38065 0.51335 0.89394 0.0
C370 C 0.43119 0.52804 0.86076 0.0
C371 C 0.37167 0.54321 0.98918 0.0
C372 C 0.31292 0.49267 0.9964 0.0
N373 N 0.41183 0.53251 0.9003 0.0
N374 N 0.33174 0.49248 0.94893 0.0
H375 H 0.84354 0.23871 0.95158 0.0
H376 H 0.97779 0.41353 0.91103 0.0
H377 H 0.85893 0.31922 0.07566 0.0
H378 H 0.93989 0.34575 0.73905 0.0
H379 H 0.94328 0.37406 0.98358 0.0
H380 H 0.88704 0.27322 0.88394 0.0
C381 C 0.85641 0.26351 0.9651 0.0
C382 C 0.84776 0.27636 0.01865 0.0
C383 C 0.94269 0.36772 0.93007 0.0
C384 C 0.89712 0.31538 0.94329 0.0
C385 C 0.96243 0.39026 0.88844 0.0
C386 C 0.96138 0.38319 0.81834 0.0
C387 C 0.92161 0.33772 0.90182 0.0
C388 C 0.94125 0.35235 0.79263 0.0
C389 C 0.88098 0.2831 0.92655 0.0
C390 C 0.86484 0.30854 0.03429 0.0
N391 N 0.92183 0.33075 0.83429 0.0
N392 N 0.88866 0.32689 0.9969 0.0
H393 H 0.79547 0.4397 0.95674 0.0
H394 H 0.9294 0.52975 0.70165 0.0
H395 H 0.82702 0.53415 0.90553 0.0
H396 H 0.91731 0.45054 0.80799 0.0
H397 H 0.88395 0.52598 0.7548 0.0
H398 H 0.83246 0.4378 0.88116 0.0
C399 C 0.80992 0.45988 0.92917 0.0
C400 C 0.80845 0.48724 0.93825 0.0
C401 C 0.89112 0.50924 0.7657 0.0
C402 C 0.85055 0.48518 0.85138 0.0
C403 C 0.91688 0.5113 0.7351 0.0
C404 C 0.92729 0.4907 0.75124 0.0
C405 C 0.87556 0.4861 0.81157 0.0
C406 C 0.9103 0.4672 0.79504 0.0
C407 C 0.83105 0.45883 0.88616 0.0
C408 C 0.82769 0.51271 0.90093 0.0
N409 N 0.88542 0.46562 0.82381 0.0
N410 N 0.84798 0.51111 0.8594 0.0
H411 H 0.30987 0.78387 0.96024 0.0
H412 H 0.35283 0.90854 0.67925 0.0
H413 H 0.25885 0.83086 0.91713 0.0
H414 H 0.41524 0.87992 0.7612 0.0
H415 H 0.31173 0.86917 0.7425 0.0
H416 H 0.34232 0.809 0.86685 0.0
C417 C 0.30528 0.79926 0.93081 0.0
C418 C 0.28181 0.80558 0.94731 0.0
C419 C 0.33425 0.87105 0.74539 0.0
C420 C 0.31888 0.83429 0.83971 0.0
C421 C 0.35766 0.89327 0.70852 0.0
C422 C 0.38771 0.8979 0.71572 0.0
C423 C 0.34088 0.8532 0.78921 0.0
C424 C 0.39253 0.87745 0.7548 0.0
C425 C 0.32383 0.81358 0.87739 0.0
C426 C 0.27688 0.82558 0.90686 0.0
N427 N 0.36952 0.85634 0.79088 0.0
N428 N 0.29539 0.83938 0.85527 0.0
H429 H 0.53929 0.33231 0.08716 0.0
H430 H 0.43577 0.38671 0.88173 0.0
H431 H 0.44657 0.27148 0.00028 0.0
H432 H 0.53433 0.44677 0.91492 0.0
H433 H 0.43958 0.34659 0.94052 0.0
H434 H 0.53918 0.37604 0.03255 0.0
C435 C 0.51924 0.32801 0.05538 0.0
C436 C 0.49282 0.29826 0.04848 0.0
C437 C 0.46045 0.36856 0.93547 0.0
C438 C 0.49224 0.348 0.9881 0.0
C439 C 0.45822 0.39161 0.90243 0.0
C440 C 0.4848 0.41999 0.89297 0.0
C441 C 0.48951 0.37369 0.95913 0.0
C442 C 0.51327 0.42518 0.92139 0.0
C443 C 0.51908 0.35299 0.02498 0.0
C444 C 0.46735 0.29404 0.0075 0.0
N445 N 0.51498 0.40203 0.95272 0.0
N446 N 0.46761 0.31862 0.97954 0.0
H447 H 0.22082 0.52145 0.99515 0.0
H448 H 0.08038 0.42103 0.72021 0.0
H449 H 0.16482 0.42139 0.99404 0.0
H450 H 0.12263 0.5201 0.7635 0.0
H451 H 0.11927 0.42061 0.79933 0.0
H452 H 0.19247 0.52057 0.89193 0.0
C453 C 0.20249 0.49916 0.9733 0.0
C454 C 0.19489 0.47143 0.00432 0.0
C455 C 0.12048 0.44253 0.79005 0.0
C456 C 0.1622 0.47041 0.88469 0.0
C457 C 0.09865 0.44288 0.74408 0.0
C458 C 0.09838 0.47069 0.73545 0.0
C459 C 0.14226 0.47024 0.82674 0.0
C460 C 0.12209 0.49821 0.76875 0.0
C461 C 0.18636 0.49873 0.91391 0.0
C462 C 0.17121 0.44335 0.97242 0.0
N463 N 0.14284 0.49723 0.81343 0.0
N464 N 0.15547 0.44356 0.91451 0.0
H465 H 0.68667 0.22536 0.94579 0.0
H466 H 0.58223 0.04486 0.86391 0.0
H467 H 0.7124 0.15864 0.00929 0.0
H468 H 0.58418 0.10707 0.71481 0.0
H469 H 0.6267 0.08821 0.92641 0.0
H470 H 0.64571 0.18428 0.86747 0.0
C471 C 0.68384 0.20225 0.94309 0.0
C472 C 0.70281 0.19536 0.98461 0.0
C473 C 0.61761 0.09245 0.87977 0.0
C474 C 0.65634 0.14876 0.89624 0.0
C475 C 0.59219 0.06775 0.84426 0.0
C476 C 0.57959 0.07253 0.7844 0.0
C477 C 0.63025 0.12239 0.85623 0.0
C478 C 0.59344 0.10258 0.7608 0.0
C479 C 0.66069 0.17899 0.89824 0.0
C480 C 0.69831 0.1651 0.97874 0.0
N481 N 0.61794 0.12667 0.79746 0.0
N482 N 0.67539 0.14294 0.9361 0.0
H483 H 0.52545 0.68336 0.98493 0.0
H484 H 0.60252 0.63021 0.70768 0.0
H485 H 0.61688 0.7454 0.92242 0.0
H486 H 0.52053 0.56729 0.80598 0.0
H487 H 0.61149 0.67174 0.79192 0.0
H488 H 0.52579 0.64012 0.92464 0.0
C489 C 0.54563 0.68791 0.95809 0.0
C490 C 0.57097 0.71811 0.95747 0.0
C491 C 0.59186 0.64869 0.79568 0.0
C492 C 0.57156 0.6684 0.88819 0.0
C493 C 0.58668 0.62492 0.74763 0.0
C494 C 0.56029 0.59533 0.74881 0.0
C495 C 0.57038 0.64281 0.84481 0.0
C496 C 0.54089 0.58978 0.8023 0.0
C497 C 0.54593 0.66308 0.92417 0.0
C498 C 0.59677 0.72247 0.92339 0.0
N499 N 0.54607 0.61344 0.84747 0.0
N500 N 0.59625 0.69785 0.88909 0.0
H501 H 0.43986 0.1671 0.34821 0.0
H502 H 0.52843 0.08115 0.48176 0.0
H503 H 0.53408 0.19769 0.3032 0.0
H504 H 0.43007 0.04435 0.48382 0.0
H505 H 0.53271 0.12483 0.41969 0.0
H506 H 0.43832 0.12449 0.40742 0.0
C507 C 0.46043 0.16508 0.35153 0.0
C508 C 0.48709 0.1859 0.32031 0.0
C509 C 0.5102 0.10698 0.43321 0.0
C510 C 0.4853 0.13655 0.38739 0.0
C511 C 0.50767 0.08188 0.46808 0.0
C512 C 0.47885 0.05914 0.48861 0.0
C513 C 0.48375 0.10931 0.41922 0.0
C514 C 0.45281 0.06143 0.46978 0.0
C515 C 0.45944 0.14052 0.38494 0.0
C516 C 0.51309 0.18219 0.32675 0.0
N517 N 0.45595 0.08619 0.43682 0.0
N518 N 0.51149 0.15776 0.35927 0.0
H519 H 0.30308 0.51643 0.37327 0.0
H520 H 0.39306 0.43447 0.51439 0.0
H521 H 0.28126 0.42348 0.30665 0.0
H522 H 0.42032 0.53041 0.56226 0.0
H523 H 0.34358 0.42532 0.46397 0.0
H524 H 0.33731 0.51707 0.46511 0.0
C525 C 0.30528 0.49596 0.37834 0.0
C526 C 0.28981 0.47008 0.33122 0.0
C527 C 0.35991 0.44815 0.48732 0.0
C528 C 0.32926 0.4708 0.43664 0.0
C529 C 0.38795 0.45327 0.51687 0.0
C530 C 0.41049 0.48316 0.54276 0.0
C531 C 0.3547 0.4733 0.48274 0.0
C532 C 0.40328 0.50697 0.54349 0.0
C533 C 0.32479 0.49635 0.43109 0.0
C534 C 0.29302 0.44403 0.34137 0.0
N535 N 0.37615 0.50166 0.51267 0.0
N536 N 0.31284 0.44525 0.39236 0.0
H537 H 0.83494 0.29563 0.30595 0.0
H538 H 0.9366 0.46686 0.44221 0.0
H539 H 0.82157 0.36244 0.19782 0.0
H540 H 0.97191 0.40396 0.41392 0.0
H541 H 0.89259 0.43297 0.36164 0.0
H542 H 0.88118 0.33785 0.36457 0.0
C543 C 0.84158 0.31929 0.29498 0.0
C544 C 0.82466 0.32553 0.24611 0.0
C545 C 0.91054 0.42725 0.37177 0.0
C546 C 0.87795 0.37407 0.31306 0.0
C547 C 0.93574 0.44659 0.41733 0.0
C548 C 0.95753 0.43773 0.43605 0.0
C549 C 0.9073 0.39902 0.34597 0.0
C550 C 0.95527 0.41128 0.40226 0.0
C551 C 0.86816 0.34334 0.32805 0.0
C552 C 0.8341 0.35673 0.23512 0.0
N553 N 0.93018 0.39247 0.3601 0.0
N554 N 0.86041 0.38012 0.2684 0.0
H555 H 0.62574 0.86929 0.22681 0.0
H556 H 0.54704 0.97234 0.30338 0.0
H557 H 0.53575 0.84845 0.14513 0.0
H558 H 0.61803 0.97446 0.43898 0.0
H559 H 0.55264 0.93675 0.22414 0.0
H560 H 0.63165 0.91655 0.28711 0.0
C561 C 0.60736 0.87471 0.22146 0.0
C562 C 0.58 0.85471 0.18214 0.0
C563 C 0.56729 0.94539 0.27086 0.0
C564 C 0.58689 0.90863 0.24874 0.0
C565 C 0.56426 0.96587 0.31593 0.0
C566 C 0.5816 0.97583 0.3786 0.0
C567 C 0.58784 0.93491 0.28852 0.0
C568 C 0.60372 0.96682 0.39179 0.0
C569 C 0.61076 0.90161 0.25553 0.0
C570 C 0.55697 0.86287 0.17612 0.0
N571 N 0.60593 0.94648 0.34751 0.0
N572 N 0.56093 0.88915 0.20907 0.0
H573 H 0.72787 0.53645 0.24588 0.0
H574 H 0.55826 0.46017 0.3731 0.0
H575 H 0.65597 0.44509 0.16883 0.0
H576 H 0.63708 0.54136 0.4731 0.0
H577 H 0.59298 0.45209 0.30187 0.0
H578 H 0.69453 0.53697 0.3314 0.0
C579 C 0.70495 0.5164 0.24689 0.0
C580 C 0.69458 0.49081 0.19941 0.0
C581 C 0.60268 0.47139 0.34005 0.0
C582 C 0.65594 0.49132 0.29816 0.0
C583 C 0.58289 0.47606 0.38091 0.0
C584 C 0.59469 0.50179 0.42878 0.0
C585 C 0.63449 0.49273 0.34663 0.0
C586 C 0.62682 0.52137 0.43669 0.0
C587 C 0.68594 0.51666 0.29626 0.0
C588 C 0.66482 0.46534 0.20424 0.0
N589 N 0.64549 0.51666 0.39549 0.0
N590 N 0.64634 0.46638 0.25229 0.0
H591 H 0.13611 0.73444 0.17034 0.0
H592 H 0.08781 0.66109 0.52914 0.0
H593 H 0.20258 0.74714 0.33209 0.0
H594 H 0.03859 0.61084 0.3399 0.0
H595 H 0.1241 0.70414 0.46499 0.0
H596 H 0.09428 0.70065 0.24135 0.0
C597 C 0.14179 0.73102 0.22173 0.0
C598 C 0.17266 0.74364 0.24595 0.0
C599 C 0.10506 0.68385 0.43777 0.0
C600 C 0.12537 0.70532 0.32654 0.0
C601 C 0.08428 0.6593 0.47417 0.0
C602 C 0.06026 0.63218 0.43972 0.0
C603 C 0.10147 0.68157 0.36652 0.0
C604 C 0.05695 0.63118 0.36839 0.0
C605 C 0.11803 0.71152 0.26169 0.0
C606 C 0.17898 0.73791 0.31203 0.0
N607 N 0.0774 0.65555 0.33402 0.0
N608 N 0.15551 0.71911 0.35014 0.0
loop_
_geom_bond_atom_site_label_1
_geom_bond_atom_site_label_2
_geom_bond_distance
_geom_bond_site_symmetry_2
_ccdc_geom_bond_type
C0 O2 1.247 . S
C0 O4 1.258 . S
C1 O8 1.247 . S
C1 O9 1.258 . S
O2 C0 1.247 . S
O2 Zn3 2.028 . S
Zn3 O2 2.028 . S
Zn3 O7 2.035 . S
Zn3 O9 2.035 . S
Zn3 O10 2.028 . S
O4 C0 1.258 . S
O4 Zn5 2.035 . S
Zn5 O4 2.035 . S
Zn5 O6 2.028 . S
Zn5 O8 2.028 . S
Zn5 O11 2.035 . S
O6 Zn5 2.028 . S
O6 C12 1.247 . S
O7 Zn3 2.035 . S
O7 C12 1.258 . S
O8 C1 1.247 . S
O8 Zn5 2.028 . S
O9 C1 1.258 . S
O9 Zn3 2.035 . S
O10 Zn3 2.028 . S
O10 C13 1.247 . S
O11 Zn5 2.035 . S
O11 C13 1.258 . S
C12 O6 1.247 . S
C12 O7 1.258 . S
C13 O10 1.247 . S
C13 O11 1.258 . S
C14 O16 1.247 . S
C14 O18 1.258 . S
C15 O22 1.247 . S
C15 O23 1.258 . S
O16 C14 1.247 . S
O16 Zn17 2.028 . S
Zn17 O16 2.028 . S
Zn17 O21 2.035 . S
Zn17 O23 2.035 . S
Zn17 O24 2.028 . S
O18 C14 1.258 . S
O18 Zn19 2.035 . S
Zn19 O18 2.035 . S
Zn19 O20 2.028 . S
Zn19 O22 2.028 . S
Zn19 O25 2.035 . S
O20 Zn19 2.028 . S
O20 C26 1.247 . S
O21 Zn17 2.035 . S
O21 C26 1.258 . S
O22 C15 1.247 . S
O22 Zn19 2.028 . S
O23 C15 1.258 . S
O23 Zn17 2.035 . S
O24 Zn17 2.028 . S
O24 C27 1.247 . S
O25 Zn19 2.035 . S
O25 C27 1.258 . S
C26 O20 1.247 . S
C26 O21 1.258 . S
C27 O24 1.247 . S
C27 O25 1.258 . S
C28 O30 1.247 . S
C28 O32 1.258 . S
C29 O36 1.247 . S
C29 O37 1.258 . S
O30 C28 1.247 . S
O30 Zn31 2.028 . S
Zn31 O30 2.028 . S
Zn31 O35 2.035 . S
Zn31 O37 2.035 1_554 S
Zn31 O38 2.028 1_554 S
O32 C28 1.258 . S
O32 Zn33 2.035 . S
Zn33 O32 2.035 . S
Zn33 O34 2.028 . S
Zn33 O36 2.028 1_554 S
Zn33 O39 2.035 1_554 S
O34 Zn33 2.028 . S
O34 C40 1.247 . S
O35 Zn31 2.035 . S
O35 C40 1.258 . S
O36 C29 1.247 . S
O36 Zn33 2.028 1_556 S
O37 C29 1.258 . S
O37 Zn31 2.035 1_556 S
O38 Zn31 2.028 1_556 S
O38 C41 1.247 . S
O39 Zn33 2.035 1_556 S
O39 C41 1.258 . S
C40 O34 1.247 . S
C40 O35 1.258 . S
C41 O38 1.247 . S
C41 O39 1.258 . S
C42 O44 1.247 1_556 S
C42 O46 1.258 . S
C43 O50 1.247 . S
C43 O51 1.258 . S
O44 C42 1.247 1_554 S
O44 Zn45 2.028 . S
Zn45 O44 2.028 . S
Zn45 O49 2.035 . S
Zn45 O51 2.035 . S
Zn45 O52 2.028 . S
O46 C42 1.258 . S
O46 Zn47 2.035 1_556 S
Zn47 O46 2.035 1_554 S
Zn47 O48 2.028 1_554 S
Zn47 O50 2.028 . S
Zn47 O53 2.035 . S
O48 Zn47 2.028 1_556 S
O48 C54 1.247 . S
O49 Zn45 2.035 . S
O49 C54 1.258 1_554 S
O50 C43 1.247 . S
O50 Zn47 2.028 . S
O51 C43 1.258 . S
O51 Zn45 2.035 . S
O52 Zn45 2.028 . S
O52 C55 1.247 . S
O53 Zn47 2.035 . S
O53 C55 1.258 . S
C54 O48 1.247 . S
C54 O49 1.258 1_556 S
C55 O52 1.247 . S
C55 O53 1.258 . S
C56 O58 1.247 . S
C56 O60 1.258 . S
C57 O64 1.247 . S
C57 O65 1.258 . S
O58 C56 1.247 . S
O58 Zn59 2.028 . S
Zn59 O58 2.028 . S
Zn59 O63 2.035 . S
Zn59 O65 2.035 . S
Zn59 O66 2.028 . S
O60 C56 1.258 . S
O60 Zn61 2.035 . S
Zn61 O60 2.035 . S
Zn61 O62 2.028 . S
Zn61 O64 2.028 . S
Zn61 O67 2.035 . S
O62 Zn61 2.028 . S
O62 C68 1.247 . S
O63 Zn59 2.035 . S
O63 C68 1.258 . S
O64 C57 1.247 . S
O64 Zn61 2.028 . S
O65 C57 1.258 . S
O65 Zn59 2.035 . S
O66 Zn59 2.028 . S
O66 C69 1.247 . S
O67 Zn61 2.035 . S
O67 C69 1.258 . S
C68 O62 1.247 . S
C68 O63 1.258 . S
C69 O66 1.247 . S
C69 O67 1.258 . S
C70 O72 1.247 . S
C70 O74 1.258 . S
C71 O78 1.247 . S
C71 O79 1.258 . S
O72 C70 1.247 . S
O72 Zn73 2.028 . S
Zn73 O72 2.028 . S
Zn73 O77 2.035 . S
Zn73 O79 2.035 . S
Zn73 O80 2.028 . S
O74 C70 1.258 . S
O74 Zn75 2.035 . S
Zn75 O74 2.035 . S
Zn75 O76 2.028 . S
Zn75 O78 2.028 . S
Zn75 O81 2.035 . S
O76 Zn75 2.028 . S
O76 C82 1.247 . S
O77 Zn73 2.035 . S
O77 C82 1.258 . S
O78 C71 1.247 . S
O78 Zn75 2.028 . S
O79 C71 1.258 . S
O79 Zn73 2.035 . S
O80 Zn73 2.028 . S
O80 C83 1.247 . S
O81 Zn75 2.035 . S
O81 C83 1.258 . S
C82 O76 1.247 . S
C82 O77 1.258 . S
C83 O80 1.247 . S
C83 O81 1.258 . S
C84 O96 1.241 . S
C84 O97 1.280 . S
C85 O98 1.277 . S
C85 O99 1.245 . S
C86 O110 1.247 . S
C86 O112 1.289 . S
Mg87 O88 1.926 . S
Mg87 O97 1.984 . S
Mg87 O99 1.988 1_655 S
Mg87 O100 2.061 . S
O88 Mg87 1.926 . S
O88 Mg89 1.986 1_655 S
O88 Mg90 1.917 1_655 S
Mg89 O88 1.986 1_455 S
Mg89 O96 2.042 1_455 S
Mg89 O98 2.041 . S
Mg89 O104 2.038 1_455 S
Mg89 O112 2.238 . S
Mg90 O88 1.917 1_455 S
Mg90 O91 1.917 . S
Mg90 O101 2.106 1_455 S
Mg90 O103 2.079 1_455 S
Mg90 O112 2.106 . S
Mg90 O113 2.079 . S
O91 Mg90 1.917 . S
O91 Mg92 1.926 . S
O91 Mg93 1.986 . S
Mg92 O91 1.926 . S
Mg92 O106 1.984 . S
Mg92 O109 1.988 1_455 S
Mg92 O110 2.061 . S
Mg93 O91 1.986 . S
Mg93 O101 2.238 1_455 S
Mg93 O105 2.042 . S
Mg93 O107 2.041 1_455 S
Mg93 O114 2.038 . S
C94 O100 1.247 . S
C94 O101 1.289 . S
C95 O113 1.245 . S
C95 O114 1.274 . S
O96 C84 1.241 . S
O96 Mg89 2.042 1_655 S
O97 C84 1.280 . S
O97 Mg87 1.984 . S
O98 C85 1.277 . S
O98 Mg89 2.041 . S
O99 C85 1.245 . S
O99 Mg87 1.988 1_455 S
O100 Mg87 2.061 . S
O100 C94 1.247 . S
O101 Mg90 2.106 1_655 S
O101 Mg93 2.238 1_655 S
O101 C94 1.289 . S
C102 O103 1.245 . S
C102 O104 1.274 . S
O103 Mg90 2.079 1_655 S
O103 C102 1.245 . S
O104 Mg89 2.038 1_655 S
O104 C102 1.274 . S
O105 Mg93 2.042 . S
O105 C108 1.241 . S
O106 Mg92 1.984 . S
O106 C108 1.280 . S
O107 Mg93 2.041 1_655 S
O107 C111 1.277 . S
C108 O105 1.241 . S
C108 O106 1.280 . S
O109 Mg92 1.988 1_655 S
O109 C111 1.245 . S
O110 C86 1.247 . S
O110 Mg92 2.061 . S
C111 O107 1.277 . S
C111 O109 1.245 . S
O112 C86 1.289 . S
O112 Mg89 2.238 . S
O112 Mg90 2.106 . S
O113 Mg90 2.079 . S
O113 C95 1.245 . S
O114 Mg93 2.038 . S
O114 C95 1.274 . S
C115 O127 1.241 . S
C115 O128 1.280 . S
C116 O129 1.277 . S
C116 O130 1.245 . S
C117 O141 1.247 . S
C117 O143 1.289 . S
Mg118 O119 1.926 . S
Mg118 O128 1.984 . S
Mg118 O130 1.988 1_545 S
Mg118 O131 2.061 . S
O119 Mg118 1.926 . S
O119 Mg120 1.986 . S
O119 Mg121 1.917 . S
Mg120 O119 1.986 . S
Mg120 O127 2.042 . S
Mg120 O129 2.041 1_545 S
Mg120 O135 2.038 . S
Mg120 O143 2.238 1_545 S
Mg121 O119 1.917 . S
Mg121 O122 1.917 1_545 S
Mg121 O132 2.106 . S
Mg121 O134 2.079 . S
Mg121 O143 2.106 1_545 S
Mg121 O144 2.079 1_545 S
O122 Mg121 1.917 1_565 S
O122 Mg123 1.926 . S
O122 Mg124 1.986 1_565 S
Mg123 O122 1.926 . S
Mg123 O137 1.984 . S
Mg123 O140 1.988 1_565 S
Mg123 O141 2.061 . S
Mg124 O122 1.986 1_545 S
Mg124 O132 2.238 . S
Mg124 O136 2.042 1_545 S
Mg124 O138 2.041 . S
Mg124 O145 2.038 1_545 S
C125 O131 1.247 . S
C125 O132 1.289 . S
C126 O144 1.245 . S
C126 O145 1.274 . S
O127 C115 1.241 . S
O127 Mg120 2.042 . S
O128 C115 1.280 . S
O128 Mg118 1.984 . S
O129 C116 1.277 . S
O129 Mg120 2.041 1_565 S
O130 C116 1.245 . S
O130 Mg118 1.988 1_565 S
O131 Mg118 2.061 . S
O131 C125 1.247 . S
O132 Mg121 2.106 . S
O132 Mg124 2.238 . S
O132 C125 1.289 . S
C133 O134 1.245 . S
C133 O135 1.274 . S
O134 Mg121 2.079 . S
O134 C133 1.245 . S
O135 Mg120 2.038 . S
O135 C133 1.274 . S
O136 Mg124 2.042 1_565 S
O136 C139 1.241 . S
O137 Mg123 1.984 . S
O137 C139 1.280 . S
O138 Mg124 2.041 . S
O138 C142 1.277 . S
C139 O136 1.241 . S
C139 O137 1.280 . S
O140 Mg123 1.988 1_545 S
O140 C142 1.245 . S
O141 C117 1.247 . S
O141 Mg123 2.061 . S
C142 O138 1.277 . S
C142 O140 1.245 . S
O143 C117 1.289 . S
O143 Mg120 2.238 1_565 S
O143 Mg121 2.106 1_565 S
O144 Mg121 2.079 1_565 S
O144 C126 1.245 . S
O145 Mg124 2.038 1_565 S
O145 C126 1.274 . S
C146 O158 1.241 . S
C146 O159 1.280 . S
C147 O160 1.277 . S
C147 O161 1.245 . S
C148 O172 1.247 . S
C148 O174 1.289 . S
Mg149 O150 1.926 . S
Mg149 O159 1.984 . S
Mg149 O161 1.988 . S
Mg149 O162 2.061 . S
O150 Mg149 1.926 . S
O150 Mg151 1.986 . S
O150 Mg152 1.917 . S
Mg151 O150 1.986 . S
Mg151 O158 2.042 . S
Mg151 O160 2.041 . S
Mg151 O166 2.038 . S
Mg151 O174 2.238 . S
Mg152 O150 1.917 . S
Mg152 O153 1.917 . S
Mg152 O163 2.106 . S
Mg152 O165 2.079 . S
Mg152 O174 2.106 . S
Mg152 O175 2.079 . S
O153 Mg152 1.917 . S
O153 Mg154 1.926 . S
O153 Mg155 1.986 . S
Mg154 O153 1.926 . S
Mg154 O168 1.984 . S
Mg154 O171 1.988 . S
Mg154 O172 2.061 . S
Mg155 O153 1.986 . S
Mg155 O163 2.238 . S
Mg155 O167 2.042 . S
Mg155 O169 2.041 . S
Mg155 O176 2.038 . S
C156 O162 1.247 . S
C156 O163 1.289 . S
C157 O175 1.245 . S
C157 O176 1.274 . S
O158 C146 1.241 . S
O158 Mg151 2.042 . S
O159 C146 1.280 . S
O159 Mg149 1.984 . S
O160 C147 1.277 . S
O160 Mg151 2.041 . S
O161 C147 1.245 . S
O161 Mg149 1.988 . S
O162 Mg149 2.061 . S
O162 C156 1.247 . S
O163 Mg152 2.106 . S
O163 Mg155 2.238 . S
O163 C156 1.289 . S
C164 O165 1.245 . S
C164 O166 1.274 . S
O165 Mg152 2.079 . S
O165 C164 1.245 . S
O166 Mg151 2.038 . S
O166 C164 1.274 . S
O167 Mg155 2.042 . S
O167 C170 1.241 . S
O168 Mg154 1.984 . S
O168 C170 1.280 . S
O169 Mg155 2.041 . S
O169 C173 1.277 . S
C170 O167 1.241 . S
C170 O168 1.280 . S
O171 Mg154 1.988 . S
O171 C173 1.245 . S
O172 C148 1.247 . S
O172 Mg154 2.061 . S
C173 O169 1.277 . S
C173 O171 1.245 . S
O174 C148 1.289 . S
O174 Mg151 2.238 . S
O174 Mg152 2.106 . S
O175 Mg152 2.079 . S
O175 C157 1.245 . S
O176 Mg155 2.038 . S
O176 C157 1.274 . S
H177 C183 0.930 . S
H178 C187 0.930 . S
H179 C192 0.929 . S
H180 C190 0.929 . S
H181 C185 0.929 . S
H182 C191 0.929 . S
C183 H177 0.930 . S
C183 C184 1.367 . S
C183 C191 1.378 . S
C184 C183 1.367 . S
C184 C192 1.433 . S
C185 H181 0.929 . S
C185 C187 1.378 . S
C185 C189 1.350 . S
C186 C189 1.463 . S
C186 C191 1.350 . S
C186 N194 1.427 . S
C187 H178 0.930 . S
C187 C185 1.378 . S
C187 C188 1.367 . S
C188 C187 1.367 . S
C188 C190 1.433 . S
C189 C185 1.350 . S
C189 C186 1.463 . S
C189 N193 1.427 . S
C190 H180 0.929 . S
C190 C188 1.433 . S
C190 N193 1.384 . S
C191 H182 0.929 . S
C191 C183 1.378 . S
C191 C186 1.350 . S
C192 H179 0.929 . S
C192 C184 1.433 . S
C192 N194 1.384 . S
N193 C189 1.427 . S
N193 C190 1.384 . S
N194 C186 1.427 . S
N194 C192 1.384 . S
H195 C201 0.930 . S
H196 C205 0.930 . S
H197 C210 0.929 . S
H198 C208 0.929 . S
H199 C203 0.929 . S
H200 C209 0.929 . S
C201 H195 0.930 . S
C201 C202 1.367 . S
C201 C209 1.378 . S
C202 C201 1.367 . S
C202 C210 1.433 . S
C203 H199 0.929 . S
C203 C205 1.378 . S
C203 C207 1.350 . S
C204 C207 1.463 . S
C204 C209 1.350 . S
C204 N212 1.427 . S
C205 H196 0.930 . S
C205 C203 1.378 . S
C205 C206 1.367 . S
C206 C205 1.367 . S
C206 C208 1.433 . S
C207 C203 1.350 . S
C207 C204 1.463 . S
C207 N211 1.427 . S
C208 H198 0.929 . S
C208 C206 1.433 . S
C208 N211 1.384 . S
C209 H200 0.929 . S
C209 C201 1.378 . S
C209 C204 1.350 . S
C210 H197 0.929 . S
C210 C202 1.433 . S
C210 N212 1.384 . S
N211 C207 1.427 . S
N211 C208 1.384 . S
N212 C204 1.427 . S
N212 C210 1.384 . S
H213 C219 0.930 . S
H214 C223 0.930 . S
H215 C228 0.929 . S
H216 C226 0.929 . S
H217 C221 0.929 . S
H218 C227 0.929 . S
C219 H213 0.930 . S
C219 C220 1.367 . S
C219 C227 1.378 . S
C220 C219 1.367 . S
C220 C228 1.433 . S
C221 H217 0.929 . S
C221 C223 1.378 . S
C221 C225 1.350 . S
C222 C225 1.463 . S
C222 C227 1.350 . S
C222 N230 1.427 . S
C223 H214 0.930 . S
C223 C221 1.378 . S
C223 C224 1.367 . S
C224 C223 1.367 . S
C224 C226 1.433 . S
C225 C221 1.350 . S
C225 C222 1.463 . S
C225 N229 1.427 . S
C226 H216 0.929 . S
C226 C224 1.433 . S
C226 N229 1.384 . S
C227 H218 0.929 . S
C227 C219 1.378 . S
C227 C222 1.350 . S
C228 H215 0.929 . S
C228 C220 1.433 . S
C228 N230 1.384 . S
N229 C225 1.427 . S
N229 C226 1.384 . S
N230 C222 1.427 . S
N230 C228 1.384 . S
H231 C237 0.930 . S
H232 C241 0.930 . S
H233 C246 0.929 . S
H234 C244 0.929 . S
H235 C239 0.929 . S
H236 C245 0.929 . S
C237 H231 0.930 . S
C237 C238 1.367 . S
C237 C245 1.378 . S
C238 C237 1.367 . S
C238 C246 1.433 . S
C239 H235 0.929 . S
C239 C241 1.378 . S
C239 C243 1.350 . S
C240 C243 1.463 . S
C240 C245 1.350 . S
C240 N248 1.427 . S
C241 H232 0.930 . S
C241 C239 1.378 . S
C241 C242 1.367 . S
C242 C241 1.367 . S
C242 C244 1.433 . S
C243 C239 1.350 . S
C243 C240 1.463 . S
C243 N247 1.427 . S
C244 H234 0.929 . S
C244 C242 1.433 . S
C244 N247 1.384 . S
C245 H236 0.929 . S
C245 C237 1.378 . S
C245 C240 1.350 . S
C246 H233 0.929 . S
C246 C238 1.433 . S
C246 N248 1.384 . S
N247 C243 1.427 . S
N247 C244 1.384 . S
N248 C240 1.427 . S
N248 C246 1.384 . S
H249 C255 0.930 . S
H250 C259 0.930 . S
H251 C264 0.929 . S
H252 C262 0.929 . S
H253 C257 0.929 . S
H254 C263 0.929 . S
C255 H249 0.930 . S
C255 C256 1.367 . S
C255 C263 1.378 . S
C256 C255 1.367 . S
C256 C264 1.433 . S
C257 H253 0.929 . S
C257 C259 1.378 . S
C257 C261 1.350 . S
C258 C261 1.463 . S
C258 C263 1.350 . S
C258 N266 1.427 . S
C259 H250 0.930 . S
C259 C257 1.378 . S
C259 C260 1.367 . S
C260 C259 1.367 . S
C260 C262 1.433 . S
C261 C257 1.350 . S
C261 C258 1.463 . S
C261 N265 1.427 . S
C262 H252 0.929 . S
C262 C260 1.433 . S
C262 N265 1.384 . S
C263 H254 0.929 . S
C263 C255 1.378 . S
C263 C258 1.350 . S
C264 H251 0.929 . S
C264 C256 1.433 . S
C264 N266 1.384 . S
N265 C261 1.427 . S
N265 C262 1.384 . S
N266 C258 1.427 . S
N266 C264 1.384 . S
H267 C273 0.930 . S
H268 C277 0.930 . S
H269 C282 0.929 . S
H270 C280 0.929 . S
H271 C275 0.929 . S
H272 C281 0.929 . S
C273 H267 0.930 . S
C273 C274 1.367 . S
C273 C281 1.378 . S
C274 C273 1.367 . S
C274 C282 1.433 . S
C275 H271 0.929 . S
C275 C277 1.378 . S
C275 C279 1.350 . S
C276 C279 1.463 . S
C276 C281 1.350 . S
C276 N284 1.427 . S
C277 H268 0.930 . S
C277 C275 1.378 . S
C277 C278 1.367 . S
C278 C277 1.367 . S
C278 C280 1.433 . S
C279 C275 1.350 . S
C279 C276 1.463 . S
C279 N283 1.427 . S
C280 H270 0.929 . S
C280 C278 1.433 . S
C280 N283 1.384 . S
C281 H272 0.929 . S
C281 C273 1.378 . S
C281 C276 1.350 . S
C282 H269 0.929 . S
C282 C274 1.433 . S
C282 N284 1.384 . S
N283 C279 1.427 . S
N283 C280 1.384 . S
N284 C276 1.427 . S
N284 C282 1.384 . S
H285 C291 0.930 . S
H286 C295 0.930 . S
H287 C300 0.929 . S
H288 C298 0.929 . S
H289 C293 0.929 . S
H290 C299 0.929 . S
C291 H285 0.930 . S
C291 C292 1.367 . S
C291 C299 1.378 . S
C292 C291 1.367 . S
C292 C300 1.433 . S
C293 H289 0.929 . S
C293 C295 1.378 . S
C293 C297 1.350 . S
C294 C297 1.463 . S
C294 C299 1.350 . S
C294 N302 1.427 . S
C295 H286 0.930 . S
C295 C293 1.378 . S
C295 C296 1.367 . S
C296 C295 1.367 . S
C296 C298 1.433 . S
C297 C293 1.350 . S
C297 C294 1.463 . S
C297 N301 1.427 . S
C298 H288 0.929 . S
C298 C296 1.433 . S
C298 N301 1.384 . S
C299 H290 0.929 . S
C299 C291 1.378 . S
C299 C294 1.350 . S
C300 H287 0.929 . S
C300 C292 1.433 . S
C300 N302 1.384 . S
N301 C297 1.427 . S
N301 C298 1.384 . S
N302 C294 1.427 . S
N302 C300 1.384 . S
H303 C309 0.930 . S
H304 C313 0.930 . S
H305 C318 0.929 . S
H306 C316 0.929 . S
H307 C311 0.929 . S
H308 C317 0.929 . S
C309 H303 0.930 . S
C309 C310 1.367 . S
C309 C317 1.378 . S
C310 C309 1.367 . S
C310 C318 1.433 . S
C311 H307 0.929 . S
C311 C313 1.378 . S
C311 C315 1.350 . S
C312 C315 1.463 . S
C312 C317 1.350 . S
C312 N320 1.427 . S
C313 H304 0.930 . S
C313 C311 1.378 . S
C313 C314 1.367 . S
C314 C313 1.367 . S
C314 C316 1.433 . S
C315 C311 1.350 . S
C315 C312 1.463 . S
C315 N319 1.427 . S
C316 H306 0.929 . S
C316 C314 1.433 . S
C316 N319 1.384 . S
C317 H308 0.929 . S
C317 C309 1.378 . S
C317 C312 1.350 . S
C318 H305 0.929 . S
C318 C310 1.433 . S
C318 N320 1.384 . S
N319 C315 1.427 . S
N319 C316 1.384 . S
N320 C312 1.427 . S
N320 C318 1.384 . S
H321 C327 0.930 . S
H322 C331 0.930 . S
H323 C336 0.929 1_554 S
H324 C334 0.929 . S
H325 C329 0.929 . S
H326 C335 0.929 . S
C327 H321 0.930 . S
C327 C328 1.367 . S
C327 C335 1.378 . S
C328 C327 1.367 . S
C328 C336 1.433 . S
C329 H325 0.929 . S
C329 C331 1.378 . S
C329 C333 1.350 . S
C330 C333 1.463 . S
C330 C335 1.350 . S
C330 N338 1.427 . S
C331 H322 0.930 . S
C331 C329 1.378 . S
C331 C332 1.367 . S
C332 C331 1.367 . S
C332 C334 1.433 . S
C333 C329 1.350 . S
C333 C330 1.463 . S
C333 N337 1.427 . S
C334 H324 0.929 . S
C334 C332 1.433 . S
C334 N337 1.384 . S
C335 H326 0.929 . S
C335 C327 1.378 . S
C335 C330 1.350 . S
C336 H323 0.929 1_556 S
C336 C328 1.433 . S
C336 N338 1.384 . S
N337 C333 1.427 . S
N337 C334 1.384 . S
N338 C330 1.427 . S
N338 C336 1.384 . S
H339 C345 0.930 . S
H340 C349 0.930 . S
H341 C354 0.929 . S
H342 C352 0.929 . S
H343 C347 0.929 . S
H344 C353 0.929 1_556 S
C345 H339 0.930 . S
C345 C346 1.367 . S
C345 C353 1.378 . S
C346 C345 1.367 . S
C346 C354 1.433 . S
C347 H343 0.929 . S
C347 C349 1.378 . S
C347 C351 1.350 . S
C348 C351 1.463 . S
C348 C353 1.350 1_556 S
C348 N356 1.427 1_556 S
C349 H340 0.930 . S
C349 C347 1.378 . S
C349 C350 1.367 . S
C350 C349 1.367 . S
C350 C352 1.433 . S
C351 C347 1.350 . S
C351 C348 1.463 . S
C351 N355 1.427 . S
C352 H342 0.929 . S
C352 C350 1.433 . S
C352 N355 1.384 . S
C353 H344 0.929 1_554 S
C353 C345 1.378 . S
C353 C348 1.350 1_554 S
C354 H341 0.929 . S
C354 C346 1.433 . S
C354 N356 1.384 . S
N355 C351 1.427 . S
N355 C352 1.384 . S
N356 C348 1.427 1_554 S
N356 C354 1.384 . S
H357 C363 0.930 . S
H358 C367 0.930 . S
H359 C372 0.929 . S
H360 C370 0.929 . S
H361 C365 0.929 . S
H362 C371 0.929 . S
C363 H357 0.930 . S
C363 C364 1.367 . S
C363 C371 1.378 1_554 S
C364 C363 1.367 . S
C364 C372 1.433 1_554 S
C365 H361 0.929 . S
C365 C367 1.378 . S
C365 C369 1.350 . S
C366 C369 1.463 . S
C366 C371 1.350 . S
C366 N374 1.427 . S
C367 H358 0.930 . S
C367 C365 1.378 . S
C367 C368 1.367 . S
C368 C367 1.367 . S
C368 C370 1.433 . S
C369 C365 1.350 . S
C369 C366 1.463 . S
C369 N373 1.427 . S
C370 H360 0.929 . S
C370 C368 1.433 . S
C370 N373 1.384 . S
C371 H362 0.929 . S
C371 C363 1.378 1_556 S
C371 C366 1.350 . S
C372 H359 0.929 . S
C372 C364 1.433 1_556 S
C372 N374 1.384 . S
N373 C369 1.427 . S
N373 C370 1.384 . S
N374 C366 1.427 . S
N374 C372 1.384 . S
H375 C381 0.930 . S
H376 C385 0.930 . S
H377 C390 0.929 . S
H378 C388 0.929 . S
H379 C383 0.929 . S
H380 C389 0.929 . S
C381 H375 0.930 . S
C381 C382 1.367 . S
C381 C389 1.378 1_554 S
C382 C381 1.367 . S
C382 C390 1.433 1_554 S
C383 H379 0.929 . S
C383 C385 1.378 . S
C383 C387 1.350 . S
C384 C387 1.463 . S
C384 C389 1.350 . S
C384 N392 1.427 . S
C385 H376 0.930 . S
C385 C383 1.378 . S
C385 C386 1.367 . S
C386 C385 1.367 . S
C386 C388 1.433 . S
C387 C383 1.350 . S
C387 C384 1.463 . S
C387 N391 1.427 . S
C388 H378 0.929 . S
C388 C386 1.433 . S
C388 N391 1.384 . S
C389 H380 0.929 . S
C389 C381 1.378 1_556 S
C389 C384 1.350 . S
C390 H377 0.929 . S
C390 C382 1.433 1_556 S
C390 N392 1.384 . S
N391 C387 1.427 . S
N391 C388 1.384 . S
N392 C384 1.427 . S
N392 C390 1.384 . S
H393 C399 0.930 . S
H394 C403 0.930 . S
H395 C408 0.929 . S
H396 C406 0.929 . S
H397 C401 0.929 . S
H398 C407 0.929 . S
C399 H393 0.930 . S
C399 C400 1.367 . S
C399 C407 1.378 . S
C400 C399 1.367 . S
C400 C408 1.433 . S
C401 H397 0.929 . S
C401 C403 1.378 . S
C401 C405 1.350 . S
C402 C405 1.463 . S
C402 C407 1.350 . S
C402 N410 1.427 . S
C403 H394 0.930 . S
C403 C401 1.378 . S
C403 C404 1.367 . S
C404 C403 1.367 . S
C404 C406 1.433 . S
C405 C401 1.350 . S
C405 C402 1.463 . S
C405 N409 1.427 . S
C406 H396 0.929 . S
C406 C404 1.433 . S
C406 N409 1.384 . S
C407 H398 0.929 . S
C407 C399 1.378 . S
C407 C402 1.350 . S
C408 H395 0.929 . S
C408 C400 1.433 . S
C408 N410 1.384 . S
N409 C405 1.427 . S
N409 C406 1.384 . S
N410 C402 1.427 . S
N410 C408 1.384 . S
H411 C417 0.930 . S
H412 C421 0.930 . S
H413 C426 0.929 . S
H414 C424 0.929 . S
H415 C419 0.929 . S
H416 C425 0.929 . S
C417 H411 0.930 . S
C417 C418 1.367 . S
C417 C425 1.378 . S
C418 C417 1.367 . S
C418 C426 1.433 . S
C419 H415 0.929 . S
C419 C421 1.378 . S
C419 C423 1.350 . S
C420 C423 1.463 . S
C420 C425 1.350 . S
C420 N428 1.427 . S
C421 H412 0.930 . S
C421 C419 1.378 . S
C421 C422 1.367 . S
C422 C421 1.367 . S
C422 C424 1.433 . S
C423 C419 1.350 . S
C423 C420 1.463 . S
C423 N427 1.427 . S
C424 H414 0.929 . S
C424 C422 1.433 . S
C424 N427 1.384 . S
C425 H416 0.929 . S
C425 C417 1.378 . S
C425 C420 1.350 . S
C426 H413 0.929 . S
C426 C418 1.433 . S
C426 N428 1.384 . S
N427 C423 1.427 . S
N427 C424 1.384 . S
N428 C420 1.427 . S
N428 C426 1.384 . S
H429 C435 0.930 . S
H430 C439 0.930 . S
H431 C444 0.929 . S
H432 C442 0.929 . S
H433 C437 0.929 . S
H434 C443 0.929 . S
C435 H429 0.930 . S
C435 C436 1.367 . S
C435 C443 1.378 . S
C436 C435 1.367 . S
C436 C444 1.433 . S
C437 H433 0.929 . S
C437 C439 1.378 . S
C437 C441 1.350 . S
C438 C441 1.463 . S
C438 C443 1.350 1_556 S
C438 N446 1.428 . S
C439 H430 0.930 . S
C439 C437 1.378 . S
C439 C440 1.367 . S
C440 C439 1.367 . S
C440 C442 1.433 . S
C441 C437 1.350 . S
C441 C438 1.463 . S
C441 N445 1.427 . S
C442 H432 0.929 . S
C442 C440 1.433 . S
C442 N445 1.384 . S
C443 H434 0.929 . S
C443 C435 1.378 . S
C443 C438 1.350 1_554 S
C444 H431 0.929 . S
C444 C436 1.433 . S
C444 N446 1.381 1_554 S
N445 C441 1.427 . S
N445 C442 1.384 . S
N446 C438 1.428 . S
N446 C444 1.381 1_556 S
H447 C453 0.930 . S
H448 C457 0.930 . S
H449 C462 0.929 . S
H450 C460 0.929 . S
H451 C455 0.929 . S
H452 C461 0.929 . S
C453 H447 0.930 . S
C453 C454 1.367 . S
C453 C461 1.378 . S
C454 C453 1.367 . S
C454 C462 1.433 1_554 S
C455 H451 0.929 . S
C455 C457 1.378 . S
C455 C459 1.350 . S
C456 C459 1.463 . S
C456 C461 1.350 1_556 S
C456 N464 1.427 . S
C457 H448 0.930 . S
C457 C455 1.378 . S
C457 C458 1.367 . S
C458 C457 1.367 . S
C458 C460 1.433 . S
C459 C455 1.350 . S
C459 C456 1.463 . S
C459 N463 1.427 . S
C460 H450 0.929 . S
C460 C458 1.433 . S
C460 N463 1.384 . S
C461 H452 0.929 . S
C461 C453 1.378 . S
C461 C456 1.350 1_554 S
C462 H449 0.929 . S
C462 C454 1.433 1_556 S
C462 N464 1.384 . S
N463 C459 1.427 . S
N463 C460 1.384 . S
N464 C456 1.427 . S
N464 C462 1.384 . S
H465 C471 0.930 . S
H466 C475 0.930 . S
H467 C480 0.929 . S
H468 C478 0.929 . S
H469 C473 0.929 . S
H470 C479 0.929 . S
C471 H465 0.930 . S
C471 C472 1.367 . S
C471 C479 1.378 . S
C472 C471 1.367 . S
C472 C480 1.433 1_556 S
C473 H469 0.929 . S
C473 C475 1.378 . S
C473 C477 1.350 . S
C474 C477 1.463 . S
C474 C479 1.350 . S
C474 N482 1.427 . S
C475 H466 0.930 . S
C475 C473 1.378 . S
C475 C476 1.367 . S
C476 C475 1.367 . S
C476 C478 1.433 . S
C477 C473 1.350 . S
C477 C474 1.463 . S
C477 N481 1.427 . S
C478 H468 0.929 . S
C478 C476 1.433 . S
C478 N481 1.384 . S
C479 H470 0.929 . S
C479 C471 1.378 . S
C479 C474 1.350 . S
C480 H467 0.929 . S
C480 C472 1.433 1_554 S
C480 N482 1.384 1_554 S
N481 C477 1.427 . S
N481 C478 1.384 . S
N482 C474 1.427 . S
N482 C480 1.384 1_556 S
H483 C489 0.930 . S
H484 C493 0.930 . S
H485 C498 0.929 . S
H486 C496 0.929 . S
H487 C491 0.929 . S
H488 C497 0.929 . S
C489 H483 0.930 . S
C489 C490 1.367 . S
C489 C497 1.378 . S
C490 C489 1.367 . S
C490 C498 1.433 . S
C491 H487 0.929 . S
C491 C493 1.378 . S
C491 C495 1.350 . S
C492 C495 1.463 . S
C492 C497 1.350 . S
C492 N500 1.427 . S
C493 H484 0.930 . S
C493 C491 1.378 . S
C493 C494 1.367 . S
C494 C493 1.367 . S
C494 C496 1.433 . S
C495 C491 1.350 . S
C495 C492 1.463 . S
C495 N499 1.427 . S
C496 H486 0.929 . S
C496 C494 1.433 . S
C496 N499 1.384 . S
C497 H488 0.929 . S
C497 C489 1.378 . S
C497 C492 1.350 . S
C498 H485 0.929 . S
C498 C490 1.433 . S
C498 N500 1.384 . S
N499 C495 1.427 . S
N499 C496 1.384 . S
N500 C492 1.427 . S
N500 C498 1.384 . S
H501 C507 0.930 . S
H502 C511 0.930 . S
H503 C516 0.929 . S
H504 C514 0.929 . S
H505 C509 0.929 . S
H506 C515 0.929 . S
C507 H501 0.930 . S
C507 C508 1.367 . S
C507 C515 1.378 . S
C508 C507 1.367 . S
C508 C516 1.433 . S
C509 H505 0.929 . S
C509 C511 1.378 . S
C509 C513 1.350 . S
C510 C513 1.463 . S
C510 C515 1.350 . S
C510 N518 1.427 . S
C511 H502 0.930 . S
C511 C509 1.378 . S
C511 C512 1.367 . S
C512 C511 1.367 . S
C512 C514 1.433 . S
C513 C509 1.350 . S
C513 C510 1.463 . S
C513 N517 1.427 . S
C514 H504 0.929 . S
C514 C512 1.433 . S
C514 N517 1.384 . S
C515 H506 0.929 . S
C515 C507 1.378 . S
C515 C510 1.350 . S
C516 H503 0.929 . S
C516 C508 1.433 . S
C516 N518 1.384 . S
N517 C513 1.427 . S
N517 C514 1.384 . S
N518 C510 1.427 . S
N518 C516 1.384 . S
H519 C525 0.930 . S
H520 C529 0.930 . S
H521 C534 0.929 . S
H522 C532 0.929 . S
H523 C527 0.929 . S
H524 C533 0.929 . S
C525 H519 0.930 . S
C525 C526 1.367 . S
C525 C533 1.378 . S
C526 C525 1.367 . S
C526 C534 1.433 . S
C527 H523 0.929 . S
C527 C529 1.378 . S
C527 C531 1.350 . S
C528 C531 1.463 . S
C528 C533 1.350 . S
C528 N536 1.427 . S
C529 H520 0.930 . S
C529 C527 1.378 . S
C529 C530 1.367 . S
C530 C529 1.367 . S
C530 C532 1.433 . S
C531 C527 1.350 . S
C531 C528 1.463 . S
C531 N535 1.427 . S
C532 H522 0.929 . S
C532 C530 1.433 . S
C532 N535 1.384 . S
C533 H524 0.929 . S
C533 C525 1.378 . S
C533 C528 1.350 . S
C534 H521 0.929 . S
C534 C526 1.433 . S
C534 N536 1.384 . S
N535 C531 1.427 . S
N535 C532 1.384 . S
N536 C528 1.427 . S
N536 C534 1.384 . S
H537 C543 0.930 . S
H538 C547 0.930 . S
H539 C552 0.929 . S
H540 C550 0.929 . S
H541 C545 0.929 . S
H542 C551 0.929 . S
C543 H537 0.930 . S
C543 C544 1.367 . S
C543 C551 1.378 . S
C544 C543 1.367 . S
C544 C552 1.433 . S
C545 H541 0.929 . S
C545 C547 1.378 . S
C545 C549 1.350 . S
C546 C549 1.463 . S
C546 C551 1.350 . S
C546 N554 1.427 . S
C547 H538 0.930 . S
C547 C545 1.378 . S
C547 C548 1.367 . S
C548 C547 1.367 . S
C548 C550 1.433 . S
C549 C545 1.350 . S
C549 C546 1.463 . S
C549 N553 1.427 . S
C550 H540 0.929 . S
C550 C548 1.433 . S
C550 N553 1.384 . S
C551 H542 0.929 . S
C551 C543 1.378 . S
C551 C546 1.350 . S
C552 H539 0.929 . S
C552 C544 1.433 . S
C552 N554 1.384 . S
N553 C549 1.427 . S
N553 C550 1.384 . S
N554 C546 1.427 . S
N554 C552 1.384 . S
H555 C561 0.930 . S
H556 C565 0.930 . S
H557 C570 0.929 . S
H558 C568 0.929 . S
H559 C563 0.929 . S
H560 C569 0.929 . S
C561 H555 0.930 . S
C561 C562 1.367 . S
C561 C569 1.378 . S
C562 C561 1.367 . S
C562 C570 1.433 . S
C563 H559 0.929 . S
C563 C565 1.378 . S
C563 C567 1.350 . S
C564 C567 1.463 . S
C564 C569 1.350 . S
C564 N572 1.427 . S
C565 H556 0.930 . S
C565 C563 1.378 . S
C565 C566 1.367 . S
C566 C565 1.367 . S
C566 C568 1.433 . S
C567 C563 1.350 . S
C567 C564 1.463 . S
C567 N571 1.427 . S
C568 H558 0.929 . S
C568 C566 1.433 . S
C568 N571 1.384 . S
C569 H560 0.929 . S
C569 C561 1.378 . S
C569 C564 1.350 . S
C570 H557 0.929 . S
C570 C562 1.433 . S
C570 N572 1.384 . S
N571 C567 1.427 . S
N571 C568 1.384 . S
N572 C564 1.427 . S
N572 C570 1.384 . S
H573 C579 0.930 . S
H574 C583 0.930 . S
H575 C588 0.929 . S
H576 C586 0.929 . S
H577 C581 0.929 . S
H578 C587 0.929 . S
C579 H573 0.930 . S
C579 C580 1.367 . S
C579 C587 1.378 . S
C580 C579 1.367 . S
C580 C588 1.433 . S
C581 H577 0.929 . S
C581 C583 1.378 . S
C581 C585 1.350 . S
C582 C585 1.463 . S
C582 C587 1.350 . S
C582 N590 1.427 . S
C583 H574 0.930 . S
C583 C581 1.378 . S
C583 C584 1.367 . S
C584 C583 1.367 . S
C584 C586 1.433 . S
C585 C581 1.350 . S
C585 C582 1.463 . S
C585 N589 1.427 . S
C586 H576 0.929 . S
C586 C584 1.433 . S
C586 N589 1.384 . S
C587 H578 0.929 . S
C587 C579 1.378 . S
C587 C582 1.350 . S
C588 H575 0.929 . S
C588 C580 1.433 . S
C588 N590 1.384 . S
N589 C585 1.427 . S
N589 C586 1.384 . S
N590 C582 1.427 . S
N590 C588 1.384 . S
H591 C597 0.930 . S
H592 C601 0.930 . S
H593 C606 0.929 . S
H594 C604 0.929 . S
H595 C599 0.929 . S
H596 C605 0.929 . S
C597 H591 0.930 . S
C597 C598 1.367 . S
C597 C605 1.378 . S
C598 C597 1.367 . S
C598 C606 1.433 . S
C599 H595 0.929 . S
C599 C601 1.378 . S
C599 C603 1.350 . S
C600 C603 1.463 . S
C600 C605 1.350 . S
C600 N608 1.427 . S
C601 H592 0.930 . S
C601 C599 1.378 . S
C601 C602 1.367 . S
C602 C601 1.367 . S
C602 C604 1.433 . S
C603 C599 1.350 . S
C603 C600 1.463 . S
C603 N607 1.427 . S
C604 H594 0.929 . S
C604 C602 1.433 . S
C604 N607 1.384 . S
C605 H596 0.929 . S
C605 C597 1.378 . S
C605 C600 1.350 . S
C606 H593 0.929 . S
C606 C598 1.433 . S
C606 N608 1.384 . S
N607 C603 1.427 . S
N607 C604 1.384 . S
N608 C600 1.427 . S
N608 C606 1.384 . S
C184 C1 1.794 . S
C188 C95 1.711 . S
C202 C27 1.557 . S
C206 C142 1.526 . S
C224 C146 1.703 . S
C220 C40 1.754 . S
C242 C111 1.451 . S
C238 C55 1.489 . S
C256 C68 1.732 . S
C260 C126 1.650 . S
C278 C148 0.994 . S
C274 C70 1.023 . S
C296 C117 1.388 . S
C292 C41 1.438 . S
C310 C54 1.382 . S
C314 C157 1.333 . S
C332 C86 1.306 . S
C328 C69 1.359 1_556 S
C346 C71 1.405 . S
C350 C115 1.371 . S
C364 C0 1.845 . S
C368 C173 1.793 . S
C386 C84 1.435 . S
C382 C26 1.471 . S
C404 C102 1.712 . S
C400 C42 1.793 . S
C422 C116 1.515 . S
C418 C57 1.553 1_556 S
C440 C170 1.692 . S
C436 C83 1.750 . S
C458 C85 1.453 . S
C454 C12 1.490 . S
C476 C133 1.644 . S
C472 C14 1.729 1_556 S
C490 C29 1.018 . S
C494 C156 0.985 . S
C512 C125 1.389 . S
C508 C82 1.437 . S
C530 C164 1.322 . S
C526 C13 1.374 . S
C548 C94 1.311 . S
C544 C15 1.360 . S
C566 C139 1.370 . S
C562 C28 1.405 . S
C580 C43 1.848 . S
C584 C147 1.797 . S
C598 C56 1.469 . S
C602 C108 1.429 . S
