# Generated by pormake.
# Topology zzz, (3,6)-cn, num edge types: 1
# Building blocks:
#     Node 0, Type 0, BuildingBlock: WUSLED_clean_sbu_0, # of connection points: 3
#     Node 1, Type 0, BuildingBlock: WUSLED_clean_sbu_0, # of connection points: 3
#     Node 2, Type 0, BuildingBlock: WUSLED_clean_sbu_0, # of connection points: 3
#     Node 3, Type 0, BuildingBlock: WUSLED_clean_sbu_0, # of connection points: 3
#     Node 4, Type 0, BuildingBlock: WUSLED_clean_sbu_0, # of connection points: 3
#     Node 5, Type 0, BuildingBlock: WUSLED_clean_sbu_0, # of connection points: 3
#     Node 6, Type 0, BuildingBlock: WUSLED_clean_sbu_0, # of connection points: 3
#     Node 7, Type 0, BuildingBlock: WUSLED_clean_sbu_0, # of connection points: 3
#     Node 8, Type 1, BuildingBlock: VOLQOD_clean_sbu_1, # of connection points: 6
#     Node 9, Type 1, BuildingBlock: VOLQOD_clean_sbu_1, # of connection points: 6
#     Node 10, Type 1, BuildingBlock: VOLQOD_clean_sbu_1, # of connection points: 6
#     Node 11, Type 1, BuildingBlock: VOLQOD_clean_sbu_1, # of connection points: 6
#     Edge 12, Type (0, 1), BuildingBlock: ZUJKAS_clean_linker_0, # of connection points: 2
#     Edge 13, Type (0, 1), BuildingBlock: ZUJKAS_clean_linker_0, # of connection points: 2
#     Edge 14, Type (0, 1), BuildingBlock: ZUJKAS_clean_linker_0, # of connection points: 2
#     Edge 15, Type (0, 1), BuildingBlock: ZUJKAS_clean_linker_0, # of connection points: 2
#     Edge 16, Type (0, 1), BuildingBlock: ZUJKAS_clean_linker_0, # of connection points: 2
#     Edge 17, Type (0, 1), BuildingBlock: ZUJKAS_clean_linker_0, # of connection points: 2
#     Edge 18, Type (0, 1), BuildingBlock: ZUJKAS_clean_linker_0, # of connection points: 2
#     Edge 19, Type (0, 1), BuildingBlock: ZUJKAS_clean_linker_0, # of connection points: 2
#     Edge 20, Type (0, 1), BuildingBlock: ZUJKAS_clean_linker_0, # of connection points: 2
#     Edge 21, Type (0, 1), BuildingBlock: ZUJKAS_clean_linker_0, # of connection points: 2
#     Edge 22, Type (0, 1), BuildingBlock: ZUJKAS_clean_linker_0, # of connection points: 2
#     Edge 23, Type (0, 1), BuildingBlock: ZUJKAS_clean_linker_0, # of connection points: 2
#     Edge 24, Type (0, 1), BuildingBlock: ZUJKAS_clean_linker_0, # of connection points: 2
#     Edge 25, Type (0, 1), BuildingBlock: ZUJKAS_clean_linker_0, # of connection points: 2
#     Edge 26, Type (0, 1), BuildingBlock: ZUJKAS_clean_linker_0, # of connection points: 2
#     Edge 27, Type (0, 1), BuildingBlock: ZUJKAS_clean_linker_0, # of connection points: 2
#     Edge 28, Type (0, 1), BuildingBlock: ZUJKAS_clean_linker_0, # of connection points: 2
#     Edge 29, Type (0, 1), BuildingBlock: ZUJKAS_clean_linker_0, # of connection points: 2
#     Edge 30, Type (0, 1), BuildingBlock: ZUJKAS_clean_linker_0, # of connection points: 2
#     Edge 31, Type (0, 1), BuildingBlock: ZUJKAS_clean_linker_0, # of connection points: 2
#     Edge 32, Type (0, 1), BuildingBlock: ZUJKAS_clean_linker_0, # of connection points: 2
#     Edge 33, Type (0, 1), BuildingBlock: ZUJKAS_clean_linker_0, # of connection points: 2
#     Edge 34, Type (0, 1), BuildingBlock: ZUJKAS_clean_linker_0, # of connection points: 2
#     Edge 35, Type (0, 1), BuildingBlock: ZUJKAS_clean_linker_0, # of connection points: 2
# Relax obj value: 0.345
# Max RMSD: 0.256
# Mean RMSD: 0.201
data_MOF--net-zzz--node1-WUSLED_clean_sbu_0--node2-VOLQOD_clean_sbu_1--edge1-ZUJKAS_clean_linker_0
_symmetry_space_group_name_H-M    P1
_symmetry_Int_Tables_number       1
_symmetry_cell_setting            triclinic
loop_
_symmetry_equiv_pos_as_xyz
'x, y, z'
_cell_length_a     76.337766
_cell_length_b     74.935443
_cell_length_c     29.781992
_cell_angle_alpha  90.256569
_cell_angle_beta   90.290535
_cell_angle_gamma 92.08915
loop_
_atom_site_label
_atom_site_type_symbol
_atom_site_fract_x
_atom_site_fract_y
_atom_site_fract_z
_atom_type_partial_charge
C0 C 0.79455 0.4828 0.23545 0.0
C1 C 0.81196 0.48439 0.22067 0.0
C2 C 0.82258 0.48458 0.2979 0.0
C3 C 0.8258 0.48536 0.25146 0.0
C4 C 0.80508 0.4827 0.31261 0.0
C5 C 0.79117 0.48185 0.28158 0.0
U6 U 0.78234 0.47853 0.11507 0.0
O7 O 0.76044 0.46591 0.07659 0.0
O8 O 0.76665 0.49482 0.06997 0.0
C9 C 0.75689 0.48099 0.05652 0.0
C10 C 0.78021 0.48241 0.20217 0.0
C11 C 0.73894 0.48407 0.04103 0.0
C12 C 0.70784 0.47601 0.03625 0.0
C13 C 0.72419 0.47447 0.05736 0.0
C14 C 0.72089 0.49685 0.98302 0.0
C15 C 0.70608 0.48703 0.99834 0.0
C16 C 0.73706 0.49541 0.00419 0.0
C17 C 0.81768 0.47291 0.03102 0.0
C18 C 0.81196 0.46215 0.95487 0.0
C19 C 0.8342 0.48546 0.96873 0.0
C20 C 0.83072 0.48475 0.01458 0.0
C21 C 0.82482 0.47422 0.93853 0.0
C22 C 0.80824 0.46165 0.00078 0.0
C23 C 0.81286 0.47392 0.07872 0.0
O24 O 0.78071 0.49597 0.17427 0.0
O25 O 0.77726 0.46694 0.18188 0.0
O26 O 0.80302 0.46058 0.0943 0.0
O27 O 0.80765 0.48965 0.09143 0.0
H28 H 0.81485 0.48512 0.18513 0.0
H29 H 0.83901 0.48711 0.23876 0.0
H30 H 0.80211 0.48181 0.34806 0.0
H31 H 0.77782 0.48052 0.29359 0.0
H32 H 0.69666 0.46838 0.04914 0.0
H33 H 0.72539 0.46548 0.08549 0.0
H34 H 0.72021 0.50511 0.95337 0.0
H35 H 0.74835 0.50263 0.99042 0.0
H36 H 0.80478 0.4532 0.93214 0.0
H37 H 0.84454 0.49454 0.95693 0.0
H38 H 0.83805 0.49363 0.03719 0.0
H39 H 0.79788 0.45259 0.01244 0.0
C40 C 0.99704 0.78059 0.28705 0.0
C41 C 0.99699 0.79808 0.27042 0.0
C42 C 0.99745 0.81012 0.34646 0.0
C43 C 0.99727 0.81266 0.29971 0.0
C44 C 0.99757 0.79254 0.36312 0.0
C45 C 0.99734 0.77788 0.33358 0.0
U46 U 0.9902 0.76609 0.1688 0.0
O47 O 0.00533 0.74944 0.12263 0.0
O48 O 0.97731 0.74231 0.13715 0.0
C49 C 0.99167 0.73857 0.11538 0.0
C50 C 0.99657 0.76549 0.25523 0.0
C51 C 0.9925 0.72303 0.0853 0.0
C52 C 0.99098 0.69088 0.07394 0.0
C53 C 0.99052 0.70571 0.10258 0.0
C54 C 0.99507 0.71058 0.01025 0.0
C55 C 0.99314 0.69314 0.02738 0.0
C56 C 0.99487 0.72539 0.03904 0.0
C57 C 0.98025 0.80498 0.09079 0.0
C58 C 0.98489 0.80363 0.01042 0.0
C59 C 0.97984 0.832 0.04672 0.0
C60 C 0.97795 0.82337 0.08785 0.0
C61 C 0.98416 0.82233 0.00796 0.0
C62 C 0.983 0.79499 0.0517 0.0
C63 C 0.98281 0.79721 0.13513 0.0
O64 O 0.98103 0.76143 0.23798 0.0
O65 O 0.00903 0.76624 0.22491 0.0
O66 O -0.00116 0.79217 0.14272 0.0
O67 O 0.97069 0.78565 0.14907 0.0
H68 H 0.99676 0.80047 0.23459 0.0
H69 H 0.99752 0.82596 0.28559 0.0
H70 H 0.99756 0.79009 0.39892 0.0
H71 H 0.99732 0.76447 0.34702 0.0
H72 H 0.98932 0.67765 0.08815 0.0
H73 H 0.98866 0.70367 0.13826 0.0
H74 H 0.99691 0.71276 0.97463 0.0
H75 H 0.99635 0.73869 0.02512 0.0
H76 H 0.98801 0.79584 0.981 0.0
H77 H 0.97941 0.84643 0.0462 0.0
H78 H 0.97595 0.83125 0.11787 0.0
H79 H 0.98484 0.78074 0.0536 0.0
C80 C 0.73793 0.99689 0.24912 0.0
C81 C 0.72092 0.99067 0.2377 0.0
C82 C 0.71123 0.99552 0.31435 0.0
C83 C 0.70773 0.98994 0.26997 0.0
C84 C 0.7283 0.00185 0.32568 0.0
C85 C 0.74156 0.0025 0.29325 0.0
U86 U 0.74699 0.99744 0.1268 0.0
O87 O 0.76344 0.01518 0.08397 0.0
O88 O 0.76679 0.98607 0.0833 0.0
C89 C 0.77185 0.00171 0.06712 0.0
C90 C 0.75132 0.99852 0.21393 0.0
C91 C 0.7905 0.00442 0.05633 0.0
C92 C 0.8207 0.99535 0.06172 0.0
C93 C 0.80372 0.99562 0.07946 0.0
C94 C 0.81147 0.01334 0.99907 0.0
C95 C 0.82446 0.00364 0.02045 0.0
C96 C 0.79466 0.01377 0.01695 0.0
C97 C 0.70982 0.99279 0.04633 0.0
C98 C 0.71443 0.00406 0.97087 0.0
C99 C 0.68725 0.98811 0.98967 0.0
C100 C 0.69333 0.98567 0.03349 0.0
C101 C 0.69754 0.99786 0.95865 0.0
C102 C 0.72061 0.00136 0.01432 0.0
C103 C 0.71549 0.99243 0.09337 0.0
O104 O 0.75344 0.98396 0.18993 0.0
O105 O 0.75028 0.01296 0.18931 0.0
O106 O 0.72148 0.00795 0.10879 0.0
O107 O 0.72542 0.97914 0.10415 0.0
H108 H 0.71777 0.98659 0.20356 0.0
H109 H 0.69467 0.98534 0.2599 0.0
H110 H 0.73141 0.00617 0.35963 0.0
H111 H 0.75457 0.00753 0.3025 0.0
H112 H 0.83055 0.98779 0.07875 0.0
H113 H 0.80073 0.98823 0.10981 0.0
H114 H 0.81413 0.02001 0.96748 0.0
H115 H 0.78461 0.02055 0.99849 0.0
H116 H 0.72248 0.0117 0.94747 0.0
H117 H 0.67406 0.98345 0.98092 0.0
H118 H 0.68491 0.97894 0.05774 0.0
H119 H 0.73349 0.00676 0.02361 0.0
C120 C 0.55762 0.71415 0.22813 0.0
C121 C 0.55877 0.69624 0.21492 0.0
C122 C 0.55504 0.68647 0.29222 0.0
C123 C 0.55744 0.68257 0.24648 0.0
C124 C 0.5538 0.70447 0.30544 0.0
C125 C 0.55511 0.71822 0.27358 0.0
U126 U 0.56625 0.72398 0.10866 0.0
O127 O 0.5525 0.7391 0.05716 0.0
O128 O 0.58055 0.74505 0.07064 0.0
C129 C 0.56665 0.74869 0.04657 0.0
C130 C 0.55896 0.7282 0.19369 0.0
C131 C 0.56449 0.76726 0.03233 0.0
C132 C 0.54795 0.79436 0.02842 0.0
C133 C 0.551 0.7778 0.04832 0.0
C134 C 0.57207 0.79006 0.97741 0.0
C135 C 0.55821 0.80042 0.99197 0.0
C136 C 0.57517 0.77369 0.9974 0.0
C137 C 0.57555 0.68418 0.03653 0.0
C138 C 0.57368 0.68788 0.95579 0.0
C139 C 0.57335 0.65822 0.9881 0.0
C140 C 0.5752 0.66565 0.03095 0.0
C141 C 0.5717 0.66928 0.9503 0.0
C142 C 0.57555 0.6953 0.99872 0.0
C143 C 0.57279 0.69168 0.08121 0.0
O144 O 0.57479 0.73116 0.17741 0.0
O145 O 0.54682 0.7268 0.16225 0.0
O146 O 0.55688 0.69729 0.08721 0.0
O147 O 0.58508 0.70294 0.09617 0.0
H148 H 0.56063 0.6928 0.17996 0.0
H149 H 0.55808 0.6689 0.23484 0.0
H150 H 0.55207 0.70795 0.34042 0.0
H151 H 0.55418 0.73198 0.2844 0.0
H152 H 0.53716 0.80206 0.04029 0.0
H153 H 0.54251 0.773 0.07505 0.0
H154 H 0.58038 0.79448 0.94993 0.0
H155 H 0.58557 0.76569 0.98436 0.0
H156 H 0.5726 0.69669 0.92726 0.0
H157 H 0.57165 0.64385 0.98519 0.0
H158 H 0.57507 0.65693 0.05988 0.0
H159 H 0.57577 0.70969 0.00264 0.0
C160 C 0.23134 0.52043 0.08747 0.0
C161 C 0.21424 0.52401 0.10107 0.0
C162 C 0.20302 0.51747 0.02612 0.0
C163 C 0.20028 0.52261 0.07085 0.0
C164 C 0.22025 0.51429 0.01204 0.0
C165 C 0.23433 0.51569 0.04263 0.0
U166 U 0.24005 0.52061 0.20815 0.0
O167 O 0.25791 0.50764 0.25487 0.0
O168 O 0.25672 0.53702 0.25406 0.0
C169 C 0.26355 0.52295 0.27249 0.0
C170 C 0.24538 0.52073 0.12167 0.0
C171 C 0.28184 0.52455 0.2878 0.0
C172 C 0.31233 0.51642 0.28492 0.0
C173 C 0.29558 0.51645 0.26529 0.0
C174 C 0.30171 0.53296 0.34873 0.0
C175 C 0.31547 0.52441 0.32728 0.0
C176 C 0.28511 0.53303 0.32914 0.0
C177 C 0.19861 0.52046 0.27765 0.0
C178 C 0.19602 0.51284 0.35675 0.0
C179 C 0.17753 0.53507 0.3241 0.0
C180 C 0.18523 0.53258 0.28249 0.0
C181 C 0.18294 0.52534 0.3615 0.0
C182 C 0.20401 0.51055 0.315 0.0
C183 C 0.20736 0.51944 0.23405 0.0
O184 O 0.24632 0.53537 0.14624 0.0
O185 O 0.24598 0.50609 0.14581 0.0
O186 O 0.21612 0.50501 0.22584 0.0
O187 O 0.21575 0.53427 0.2222 0.0
H188 H 0.21159 0.52766 0.13548 0.0
H189 H 0.18729 0.52549 0.08267 0.0
H190 H 0.22277 0.51023 0.97781 0.0
H191 H 0.24741 0.51278 0.03154 0.0
H192 H 0.32271 0.50987 0.26736 0.0
H193 H 0.29327 0.50979 0.23335 0.0
H194 H 0.30352 0.53893 0.38169 0.0
H195 H 0.27459 0.53915 0.34725 0.0
H196 H 0.20017 0.5051 0.38526 0.0
H197 H 0.16716 0.54451 0.32704 0.0
H198 H 0.18092 0.54033 0.25413 0.0
H199 H 0.21446 0.50122 0.31208 0.0
C200 C 0.08479 0.20931 0.16299 0.0
C201 C 0.08562 0.19136 0.17595 0.0
C202 C 0.0806 0.18158 0.09876 0.0
C203 C 0.08347 0.17765 0.14425 0.0
C204 C 0.08028 0.1996 0.0856 0.0
C205 C 0.08228 0.21336 0.11754 0.0
U206 U 0.09824 0.22248 0.27961 0.0
O207 O 0.10917 0.24694 0.31212 0.0
O208 O 0.08389 0.23504 0.33453 0.0
C209 C 0.09609 0.24765 0.3406 0.0
C210 C 0.08607 0.22356 0.19734 0.0
C211 C 0.09048 0.26525 0.35543 0.0
C212 C 0.07889 0.29461 0.34292 0.0
C213 C 0.08403 0.27806 0.32605 0.0
C214 C 0.08673 0.28549 0.41813 0.0
C215 C 0.08009 0.29844 0.38929 0.0
C216 C 0.09181 0.26911 0.40136 0.0
C217 C 0.11748 0.18751 0.35243 0.0
C218 C 0.11552 0.19257 0.43273 0.0
C219 C 0.12136 0.16307 0.404 0.0
C220 C 0.12126 0.16965 0.36019 0.0
C221 C 0.11742 0.17425 0.44038 0.0
C222 C 0.11555 0.19916 0.38896 0.0
C223 C 0.11203 0.193 0.30749 0.0
O224 O 0.07603 0.22068 0.2325 0.0
O225 O 0.10208 0.22923 0.20814 0.0
O226 O 0.12138 0.20609 0.28916 0.0
O227 O 0.09507 0.19502 0.30398 0.0
H228 H 0.08771 0.18792 0.21081 0.0
H229 H 0.08407 0.16394 0.15538 0.0
H230 H 0.07802 0.20304 0.05083 0.0
H231 H 0.08164 0.22712 0.10686 0.0
H232 H 0.07376 0.30429 0.31987 0.0
H233 H 0.08292 0.27526 0.29042 0.0
H234 H 0.08819 0.28807 0.45379 0.0
H235 H 0.09687 0.25939 0.42449 0.0
H236 H 0.11251 0.20146 0.4602 0.0
H237 H 0.12267 0.14886 0.40882 0.0
H238 H 0.12267 0.16048 0.33232 0.0
H239 H 0.11256 0.21301 0.38345 0.0
C240 C 0.30724 0.00304 0.10148 0.0
C241 C 0.3235 1.00001 0.12177 0.0
C242 C 0.33833 0.0051 0.0504 0.0
C243 C 0.3389 0.00095 0.09643 0.0
C244 C 0.32197 0.00816 0.03036 0.0
C245 C 0.30659 0.00716 0.0557 0.0
U246 U 0.28273 0.00454 0.21266 0.0
O247 O 0.25682 0.01497 0.22721 0.0
O248 O 0.26155 0.98652 0.23758 0.0
C249 C 0.25041 0.99943 0.24091 0.0
C250 C 0.29086 0.0017 0.12741 0.0
C251 C 0.2395 0.99966 0.2814 0.0
C252 C 0.2104 0.9963 0.31314 0.0
C253 C 0.22162 0.9953 0.27654 0.0
C254 C 0.23492 0.00559 0.36082 0.0
C255 C 0.21683 0.00171 0.35556 0.0
C256 C 0.24621 0.00465 0.32382 0.0
C257 C 0.31216 0.01444 0.31786 0.0
C258 C 0.31232 0.00209 0.39312 0.0
C259 C 0.33365 0.02531 0.37253 0.0
C260 C 0.32604 0.02621 0.33 0.0
C261 C 0.32751 0.01253 0.40374 0.0
C262 C 0.30471 0.00299 0.35035 0.0
C263 C 0.30811 0.01225 0.26983 0.0
O264 O 0.28937 0.98798 0.15459 0.0
O265 O 0.28579 0.01665 0.14565 0.0
O266 O 0.29887 0.02457 0.25052 0.0
O267 O 0.30398 0.99593 0.25614 0.0
H268 H 0.32429 0.9969 0.1572 0.0
H269 H 0.35126 0.99869 0.11306 0.0
H270 H 0.32099 0.0111 0.99488 0.0
H271 H 0.29416 0.00951 0.03944 0.0
H272 H 0.19662 0.99286 0.30818 0.0
H273 H 0.21624 0.99133 0.24411 0.0
H274 H 0.24023 0.00977 0.39315 0.0
H275 H 0.26004 0.00806 0.3281 0.0
H276 H 0.30708 0.99234 0.4167 0.0
H277 H 0.34539 0.03347 0.37913 0.0
H278 H 0.33196 0.03513 0.30535 0.0
H279 H 0.29385 0.99389 0.34174 0.0
C280 C 0.46518 0.28166 0.07796 0.0
C281 C 0.45877 0.29766 0.09482 0.0
C282 C 0.46677 0.3129 0.02531 0.0
C283 C 0.4595 0.31315 0.06864 0.0
C284 C 0.47295 0.29672 0.0085 0.0
C285 C 0.47217 0.28126 0.03462 0.0
U286 U 0.45897 0.25866 0.19074 0.0
O287 O 0.44984 0.23117 0.20682 0.0
O288 O 0.47676 0.24042 0.22389 0.0
C289 C 0.46483 0.22734 0.22579 0.0
C290 C 0.46569 0.26561 0.10609 0.0
C291 C 0.46415 0.21641 0.26696 0.0
C292 C 0.45883 0.18686 0.29849 0.0
C293 C 0.45671 0.19906 0.26379 0.0
C294 C 0.47493 0.20949 0.34182 0.0
C295 C 0.46846 0.19174 0.33724 0.0
C296 C 0.47286 0.22173 0.30684 0.0
C297 C 0.44334 0.28965 0.28664 0.0
C298 C 0.45096 0.28918 0.36576 0.0
C299 C 0.43497 0.31377 0.33545 0.0
C300 C 0.4346 0.30551 0.29343 0.0
C301 C 0.4441 0.30625 0.37148 0.0
C302 C 0.45072 0.28098 0.32343 0.0
C303 C 0.44747 0.28468 0.24035 0.0
O304 O 0.47768 0.26636 0.13785 0.0
O305 O 0.45047 0.25901 0.11992 0.0
O306 O 0.43691 0.273 0.21988 0.0
O307 O 0.46416 0.28241 0.23229 0.0
H308 H 0.45348 0.29823 0.12848 0.0
H309 H 0.45478 0.32542 0.08275 0.0
H310 H 0.4784 0.29599 0.97505 0.0
H311 H 0.47724 0.26903 0.02116 0.0
H312 H 0.45344 0.17338 0.29431 0.0
H313 H 0.44999 0.19463 0.23337 0.0
H314 H 0.48242 0.21362 0.3713 0.0
H315 H 0.47876 0.23504 0.31018 0.0
H316 H 0.45772 0.28281 0.39307 0.0
H317 H 0.42961 0.32691 0.33814 0.0
H318 H 0.42884 0.31236 0.26531 0.0
H319 H 0.45744 0.26863 0.31874 0.0
O320 O 0.07032 0.00272 0.69422 0.0
Zn321 Zn 0.05113 0.00209 0.74077 0.0
O322 O 0.02774 0.00065 0.71209 0.0
Zn323 Zn 0.01451 0.02001 0.73569 0.0
Zn324 Zn 0.03004 0.0025 0.64675 0.0
Zn325 Zn 0.01456 0.97889 0.7261 0.0
O326 O 0.99068 0.01261 0.75756 0.0
O327 O 0.99154 0.98309 0.75779 0.0
O328 O 0.05428 0.02404 0.78129 0.0
O329 O 0.0268 0.03239 0.78716 0.0
O330 O 0.01373 0.03898 0.69008 0.0
O331 O 0.02355 0.02722 0.62672 0.0
O332 O 0.0177 0.9816 0.61342 0.0
O333 O 0.05459 0.97994 0.77774 0.0
O334 O 0.00967 0.96421 0.67045 0.0
O335 O 0.02936 0.96457 0.76594 0.0
C336 C 0.06995 0.002 0.65148 0.0
C337 C 0.98372 0.9974 0.76681 0.0
C338 C 0.01824 0.0405 0.64922 0.0
C339 C 0.04284 0.03391 0.7987 0.0
C340 C 0.01118 0.96686 0.62841 0.0
C341 C 0.04452 0.96625 0.78369 0.0
O342 O 0.0555 0.00141 0.62991 0.0
O343 O 0.50868 0.04213 0.65586 0.0
Zn344 Zn 0.51566 0.02413 0.70252 0.0
O345 O 0.52233 0.00159 0.67405 0.0
Zn346 Zn 0.50582 0.98233 0.68909 0.0
Zn347 Zn 0.52314 0.00492 0.60929 0.0
Zn348 Zn 0.54482 0.9943 0.69552 0.0
O349 O 0.51723 0.96046 0.71332 0.0
O350 O 0.54343 0.97178 0.73298 0.0
O351 O 0.49562 0.01969 0.74623 0.0
O352 O 0.48991 0.99057 0.7375 0.0
O353 O 0.49037 0.97633 0.63645 0.0
O354 O 0.5026 0.99171 0.58047 0.0
O355 O 0.54636 0.99775 0.58321 0.0
O356 O 0.53659 0.03593 0.73452 0.0
O357 O 0.56143 0.99082 0.64431 0.0
O358 O 0.55568 0.0142 0.73039 0.0
C359 C 0.51238 0.04341 0.61427 0.0
C360 C 0.53188 0.95907 0.7334 0.0
C361 C 0.49048 0.9813 0.59565 0.0
C362 C 0.48696 0.0054 0.75648 0.0
C363 C 0.56043 0.99282 0.60195 0.0
C364 C 0.55161 0.02979 0.74243 0.0
O365 O 0.51941 0.03067 0.59333 0.0
O366 O 0.46939 0.49811 0.6379 0.0
Zn367 Zn 0.48925 0.49741 0.68366 0.0
O368 O 0.51236 0.49724 0.65329 0.0
Zn369 Zn 0.52427 0.47568 0.66882 0.0
Zn370 Zn 0.50933 0.49823 0.58836 0.0
Zn371 Zn 0.52745 0.51735 0.67139 0.0
O372 O 0.54864 0.48039 0.69335 0.0
O373 O 0.54986 0.50985 0.70073 0.0
O374 O 0.48574 0.4758 0.72522 0.0
O375 O 0.51104 0.46256 0.71663 0.0
O376 O 0.52421 0.45883 0.61669 0.0
O377 O 0.51472 0.47481 0.55955 0.0
O378 O 0.52234 0.51933 0.55987 0.0
O379 O 0.48759 0.51989 0.72114 0.0
O380 O 0.53324 0.53375 0.61952 0.0
O381 O 0.51466 0.53181 0.71527 0.0
C382 C 0.46969 0.50012 0.5954 0.0
C383 C 0.55664 0.49474 0.7062 0.0
C384 C 0.51983 0.46015 0.57559 0.0
C385 C 0.49612 0.46342 0.73518 0.0
C386 C 0.53059 0.53277 0.5773 0.0
C387 C 0.49925 0.53184 0.73113 0.0
O388 O 0.48406 0.50094 0.57393 0.0
O389 O 0.97942 0.51655 0.60609 0.0
Zn390 Zn 0.00187 0.52226 0.64202 0.0
O391 O 0.01184 0.50016 0.66536 0.0
Zn392 Zn 0.01241 0.50129 0.73017 0.0
Zn393 Zn 0.99759 0.47972 0.64532 0.0
Zn394 Zn 0.03532 0.49653 0.64553 0.0
O395 O 0.03576 0.49463 0.75709 0.0
O396 O 0.05249 0.49886 0.697 0.0
O397 O 0.99791 0.54041 0.69237 0.0
O398 O 0.00908 0.52638 0.75074 0.0
O399 O 0.99122 0.48785 0.7533 0.0
O400 O 0.98178 0.47157 0.69477 0.0
O401 O 0.01161 0.45961 0.62055 0.0
O402 O 0.01918 0.534 0.59913 0.0
O403 O 0.03821 0.47234 0.61664 0.0
O404 O 0.04112 0.51509 0.60055 0.0
C405 C 0.97373 0.50184 0.58856 0.0
C406 C 0.05087 0.49656 0.73918 0.0
C407 C 0.98013 0.47691 0.73504 0.0
C408 C 0.00259 0.54019 0.7336 0.0
C409 C 0.0277 0.45901 0.60974 0.0
C410 C 0.03402 0.52898 0.58562 0.0
O411 O 0.98075 0.48714 0.59779 0.0
H412 H 0.22001 0.98974 0.44237 0.0
H413 H 0.1974 0.98962 0.50108 0.0
H414 H 0.16296 0.01722 0.41218 0.0
H415 H 0.18538 0.0176 0.35394 0.0
H416 H 0.17492 0.02211 0.53636 0.0
H417 H 0.13894 0.96601 0.44921 0.0
H418 H 0.16221 0.97041 0.44231 0.0
H419 H 0.1468 0.98419 0.41457 0.0
C420 C 0.20774 0.99608 0.43576 0.0
C421 C 0.20435 0.00344 0.39334 0.0
C422 C 0.19485 0.99595 0.4692 0.0
C423 C 0.17849 0.00322 0.46058 0.0
C424 C 0.17546 0.01138 0.4192 0.0
H425 H 0.07459 0.0076 0.56172 0.0
H426 H 0.1019 0.00757 0.51959 0.0
C427 C 0.18825 0.01151 0.38594 0.0
C428 C 0.164 0.00144 0.49324 0.0
H429 H 0.12393 0.98062 0.50727 0.0
C430 C 0.16384 0.0129 0.53056 0.0
C431 C 0.14961 0.98945 0.48522 0.0
C432 C 0.14933 0.97669 0.44585 0.0
C433 C 0.14922 0.01322 0.55911 0.0
C434 C 0.1346 0.00149 0.55043 0.0
C435 C 0.1351 0.98963 0.51386 0.0
C436 C 0.11821 0.0019 0.57708 0.0
C437 C 0.14923 0.02668 0.59695 0.0
C438 C 0.11824 0.99864 0.62347 0.0
C439 C 0.10261 0.99882 0.64784 0.0
C440 C 0.08661 0.00199 0.6261 0.0
C441 C 0.08664 0.00507 0.57955 0.0
C442 C 0.10226 0.00506 0.55538 0.0
H443 H 0.15944 0.03745 0.59234 0.0
H444 H 0.13628 0.03284 0.59978 0.0
H445 H 0.152 0.01984 0.62905 0.0
H446 H 0.13031 0.99574 0.64077 0.0
H447 H 0.10302 0.99624 0.68358 0.0
H448 H 0.48054 0.15874 0.31989 0.0
H449 H 0.48816 0.13565 0.37347 0.0
H450 H 0.47479 0.17016 0.48329 0.0
H451 H 0.46703 0.1935 0.42953 0.0
H452 H 0.51413 0.1404 0.44967 0.0
H453 H 0.446 0.1205 0.50019 0.0
H454 H 0.45068 0.13164 0.4477 0.0
H455 H 0.45221 0.14393 0.49942 0.0
C456 C 0.47903 0.16138 0.35543 0.0
C457 C 0.47298 0.17787 0.37049 0.0
C458 C 0.48351 0.14822 0.38597 0.0
C459 C 0.4819 0.15116 0.43222 0.0
C460 C 0.47598 0.16762 0.44763 0.0
H461 H 0.49694 0.07337 0.64663 0.0
H462 H 0.49031 0.10052 0.60543 0.0
C463 C 0.47163 0.18093 0.41697 0.0
C464 C 0.48661 0.13691 0.4639 0.0
H465 H 0.46888 0.10434 0.53138 0.0
C466 C 0.50428 0.13259 0.46788 0.0
C467 C 0.47371 0.12682 0.48759 0.0
C468 C 0.45454 0.1308 0.48361 0.0
C469 C 0.50939 0.11827 0.49461 0.0
C470 C 0.49642 0.10774 0.51707 0.0
C471 C 0.47879 0.11239 0.51405 0.0
C472 C 0.50078 0.09143 0.54232 0.0
C473 C 0.52864 0.1146 0.49863 0.0
C474 C 0.50866 0.0772 0.52038 0.0
C475 C 0.51248 0.06168 0.54377 0.0
C476 C 0.50839 0.05998 0.58962 0.0
C477 C 0.50034 0.07422 0.61142 0.0
C478 C 0.49653 0.08976 0.58794 0.0
H479 H 0.53695 0.12671 0.49129 0.0
H480 H 0.53195 0.1098 0.53275 0.0
H481 H 0.53196 0.10412 0.47398 0.0
H482 H 0.51169 0.07801 0.48494 0.0
H483 H 0.51858 0.05098 0.52577 0.0
H484 H 0.33599 0.49524 0.33175 0.0
H485 H 0.36227 0.4917 0.37777 0.0
H486 H 0.35941 0.5461 0.42402 0.0
H487 H 0.33344 0.54997 0.37711 0.0
H488 H 0.39375 0.53553 0.40044 0.0
H489 H 0.36022 0.48789 0.51699 0.0
H490 H 0.35807 0.48233 0.45838 0.0
H491 H 0.34844 0.50217 0.47962 0.0
C492 C 0.34113 0.50657 0.35099 0.0
C493 C 0.33254 0.52286 0.35096 0.0
C494 C 0.35601 0.50444 0.37773 0.0
C495 C 0.36252 0.51852 0.40496 0.0
C496 C 0.35446 0.53502 0.40356 0.0
H497 H 0.43737 0.50927 0.62656 0.0
H498 H 0.41096 0.51431 0.58155 0.0
C499 C 0.33959 0.53717 0.37687 0.0
C500 C 0.37763 0.516 0.43531 0.0
H501 H 0.39099 0.49212 0.52584 0.0
C502 C 0.39316 0.52609 0.42794 0.0
C503 C 0.37665 0.50394 0.47169 0.0
C504 C 0.35992 0.49355 0.48259 0.0
C505 C 0.40797 0.52406 0.45528 0.0
C506 C 0.40727 0.51138 0.49042 0.0
C507 C 0.39155 0.50169 0.49861 0.0
C508 C 0.42289 0.50766 0.51812 0.0
C509 C 0.42418 0.53564 0.44646 0.0
C510 C 0.43811 0.50175 0.49755 0.0
C511 C 0.45315 0.49902 0.52296 0.0
C512 C 0.45321 0.50185 0.56969 0.0
C513 C 0.43772 0.50701 0.59064 0.0
C514 C 0.42266 0.50992 0.56498 0.0
H515 H 0.42096 0.54801 0.42824 0.0
H516 H 0.43104 0.53943 0.47824 0.0
H517 H 0.43331 0.52814 0.42523 0.0
H518 H 0.43841 0.49939 0.46166 0.0
H519 H 0.46478 0.49475 0.50585 0.0
H520 H 0.08588 0.33219 0.35525 0.0
H521 H 0.07856 0.36068 0.39027 0.0
H522 H 0.05481 0.33229 0.50125 0.0
H523 H 0.06179 0.3039 0.46644 0.0
H524 H 0.04545 0.37338 0.41727 0.0
H525 H 0.09079 0.36726 0.562 0.0
H526 H 0.09232 0.35379 0.51181 0.0
H527 H 0.07627 0.34811 0.55385 0.0
C528 C 0.07892 0.33202 0.38684 0.0
C529 C 0.0746 0.31577 0.40827 0.0
C530 C 0.07485 0.3483 0.40693 0.0
C531 C 0.0665 0.34858 0.44883 0.0
C532 C 0.06167 0.33238 0.46949 0.0
H533 H 0.0087 0.42889 0.58438 0.0
H534 H 0.01903 0.40286 0.54406 0.0
C535 C 0.06567 0.31617 0.44948 0.0
C536 C 0.06254 0.36572 0.47098 0.0
H537 H 0.06944 0.38967 0.56776 0.0
C538 C 0.0508 0.37704 0.44998 0.0
C539 C 0.06974 0.37058 0.51339 0.0
C540 C 0.08312 0.3594 0.53646 0.0
C541 C 0.04554 0.39275 0.47109 0.0
C542 C 0.05203 0.39712 0.51451 0.0
C543 C 0.06431 0.38617 0.53473 0.0
C544 C 0.04593 0.41279 0.53983 0.0
C545 C 0.03306 0.40456 0.44677 0.0
C546 C 0.05775 0.42678 0.55202 0.0
C547 C 0.0519 0.44169 0.57525 0.0
C548 C 0.03413 0.44282 0.58707 0.0
C549 C 0.02244 0.42854 0.57569 0.0
C550 C 0.02829 0.41368 0.55237 0.0
H551 H 0.03291 0.40191 0.41002 0.0
H552 H 0.01959 0.40193 0.45959 0.0
H553 H 0.03661 0.41889 0.45261 0.0
H554 H 0.07145 0.42627 0.54296 0.0
H555 H 0.06129 0.4524 0.58356 0.0
H556 H 0.85791 0.00982 0.05242 0.0
H557 H 0.88538 0.00717 0.01032 0.0
H558 H 0.85592 0.98782 0.89489 0.0
H559 H 0.82863 0.99095 0.93619 0.0
H560 H 0.90111 0.9791 0.9674 0.0
H561 H 0.88292 0.03059 0.84434 0.0
H562 H 0.87101 0.02683 0.89578 0.0
H563 H 0.86692 0.01253 0.84786 0.0
C564 C 0.8574 0.00496 0.01812 0.0
C565 C 0.84122 0.00091 0.99715 0.0
C566 C 0.87303 0.00342 0.99416 0.0
C567 C 0.87264 0.9977 0.94913 0.0
C568 C 0.8565 0.99276 0.92912 0.0
H569 H 0.96282 0.96786 0.78743 0.0
H570 H 0.93585 0.96707 0.8319 0.0
C571 C 0.84094 0.99452 0.95274 0.0
C572 C 0.88894 0.99738 0.92236 0.0
H573 H 0.90774 0.01378 0.82663 0.0
C574 C 0.90263 0.98672 0.93671 0.0
C575 C 0.89097 0.00752 0.88263 0.0
C576 C 0.87725 0.02015 0.86694 0.0
C577 C 0.91823 0.98579 0.91204 0.0
C578 C 0.91998 0.99546 0.87146 0.0
C579 C 0.90631 0.0062 0.85742 0.0
C580 C 0.9362 0.99559 0.84419 0.0
C581 C 0.93284 0.97483 0.93025 0.0
C582 C 0.945 0.0119 0.83496 0.0
C583 C 0.96013 0.01244 0.80895 0.0
C584 C 0.96693 0.99663 0.79166 0.0
C585 C 0.95798 0.98027 0.80039 0.0
C586 C 0.94267 0.97977 0.82619 0.0
H587 H 0.93125 0.97216 0.9667 0.0
H588 H 0.93273 0.96178 0.91248 0.0
H589 H 0.94581 0.98166 0.92489 0.0
H590 H 0.94023 0.02428 0.84832 0.0
H591 H 0.96668 0.02528 0.80314 0.0
H592 H 0.55652 0.80519 0.90142 0.0
H593 H 0.55166 0.83285 0.86061 0.0
H594 H 0.54571 0.8609 0.98592 0.0
H595 H 0.55078 0.8332 0.02732 0.0
H596 H 0.51813 0.86313 0.89783 0.0
H597 H 0.58926 0.88052 0.87805 0.0
H598 H 0.58181 0.85742 0.87416 0.0
H599 H 0.58086 0.86891 0.92691 0.0
C600 C 0.55425 0.81725 0.92037 0.0
C601 C 0.55421 0.81707 0.96763 0.0
C602 C 0.5514 0.83299 0.89698 0.0
C603 C 0.54845 0.84885 0.92034 0.0
C604 C 0.54797 0.84872 0.96743 0.0
H605 H 0.5527 0.95595 0.80758 0.0
H606 H 0.55614 0.92949 0.85424 0.0
C607 C 0.55081 0.83292 0.99096 0.0
C608 C 0.54624 0.86557 0.89513 0.0
H609 H 0.56937 0.89845 0.84002 0.0
C610 C 0.52927 0.87098 0.88536 0.0
C611 C 0.56084 0.87572 0.87931 0.0
C612 C 0.57929 0.8705 0.89007 0.0
C613 C 0.5265 0.8863 0.85961 0.0
C614 C 0.54115 0.8962 0.84226 0.0
C615 C 0.55814 0.89086 0.85292 0.0
C616 C 0.53919 0.91217 0.81331 0.0
C617 C 0.50791 0.89184 0.85205 0.0
C618 C 0.52886 0.91121 0.77413 0.0
C619 C 0.52659 0.92642 0.74795 0.0
C620 C 0.53508 0.94275 0.7596 0.0
C621 C 0.54604 0.94352 0.79767 0.0
C622 C 0.54798 0.92841 0.82441 0.0
H623 H 0.49902 0.88655 0.87865 0.0
H624 H 0.50709 0.90659 0.85124 0.0
H625 H 0.50306 0.88632 0.81947 0.0
H626 H 0.52248 0.89872 0.76378 0.0
H627 H 0.51826 0.92537 0.71843 0.0
H628 H 0.69174 0.51607 0.95869 0.0
H629 H 0.6663 0.5164 0.90872 0.0
H630 H 0.65665 0.46008 0.93038 0.0
H631 H 0.6825 0.45941 0.97933 0.0
H632 H 0.66225 0.49282 0.82754 0.0
H633 H 0.60843 0.48551 0.95244 0.0
H634 H 0.63017 0.49389 0.96755 0.0
H635 H 0.62624 0.47049 0.95714 0.0
C636 C 0.68425 0.50371 0.95291 0.0
C637 C 0.68928 0.48767 0.97285 0.0
C638 C 0.66967 0.50397 0.92448 0.0
C639 C 0.65965 0.48829 0.91597 0.0
C640 C 0.66418 0.47236 0.93691 0.0
H641 H 0.57445 0.46478 0.72749 0.0
H642 H 0.60017 0.46289 0.77645 0.0
C643 C 0.67889 0.47204 0.9651 0.0
C644 C 0.64492 0.48852 0.8836 0.0
H645 H 0.60026 0.48583 0.8758 0.0
C646 C 0.6487 0.49126 0.83801 0.0
C647 C 0.6273 0.48652 0.89755 0.0
C648 C 0.62265 0.48404 0.94635 0.0
C649 C 0.63523 0.49201 0.80588 0.0
C650 C 0.61764 0.49007 0.81988 0.0
C651 C 0.61384 0.48725 0.86538 0.0
C652 C 0.60296 0.49135 0.78781 0.0
C653 C 0.63974 0.49489 0.75716 0.0
C654 C 0.59628 0.50803 0.77766 0.0
C655 C 0.58161 0.50921 0.74971 0.0
C656 C 0.57334 0.49368 0.73155 0.0
C657 C 0.58046 0.47701 0.74086 0.0
C658 C 0.59512 0.47587 0.76888 0.0
H659 H 0.65412 0.49548 0.75142 0.0
H660 H 0.63371 0.48391 0.73646 0.0
H661 H 0.6342 0.50756 0.74547 0.0
H662 H 0.60221 0.52011 0.79214 0.0
H663 H 0.57649 0.52226 0.74336 0.0
H664 H 0.01007 0.66189 0.03942 0.0
H665 H 0.01053 0.63612 0.98858 0.0
H666 H 0.97689 0.66283 0.89579 0.0
H667 H 0.9764 0.68866 0.94637 0.0
H668 H 0.98248 0.61431 0.95515 0.0
H669 H 0.01821 0.64907 0.81698 0.0
H670 H 0.01729 0.65815 0.87312 0.0
H671 H -0.00111 0.65982 0.83569 0.0
C672 C 0.00271 0.66225 0.00827 0.0
C673 C 0.9933 0.67738 0.99678 0.0
C674 C 0.00302 0.64753 0.97921 0.0
C675 C 0.99398 0.64767 0.93805 0.0
C676 C 0.98431 0.66261 0.92687 0.0
H677 H 0.98556 0.57118 0.71513 0.0
H678 H 0.98244 0.59707 0.76487 0.0
C679 C 0.98404 0.67736 0.95581 0.0
C680 C 0.99457 0.63213 0.90701 0.0
H681 H 0.00748 0.61962 0.80214 0.0
C682 C 0.98796 0.61545 0.92171 0.0
C683 C 0.00167 0.63366 0.86333 0.0
C684 C 0.00957 0.65109 0.84633 0.0
C685 C 0.98808 0.60029 0.89375 0.0
C686 C 0.99536 0.60177 0.85018 0.0
C687 C 0.00184 0.6185 0.8354 0.0
C688 C 0.99699 0.58602 0.82009 0.0
C689 C 0.98014 0.58291 0.91098 0.0
C690 C 0.00647 0.57136 0.83422 0.0
C691 C 0.00817 0.55657 0.80611 0.0
C692 C 0.00066 0.55615 0.76279 0.0
C693 C 0.99146 0.57102 0.74827 0.0
C694 C 0.98966 0.58582 0.77667 0.0
H695 H 0.97047 0.5852 0.93798 0.0
H696 H 0.97354 0.57508 0.88361 0.0
H697 H 0.99067 0.57482 0.92536 0.0
H698 H 0.0127 0.5714 0.86696 0.0
H699 H 0.01555 0.5455 0.81836 0.0
H700 H 0.13268 0.14866 0.49208 0.0
H701 H 0.11715 0.12904 0.54564 0.0
H702 H 0.07138 0.16085 0.53329 0.0
H703 H 0.08701 0.18083 0.48237 0.0
H704 H 0.07113 0.14601 0.61138 0.0
H705 H 0.08477 0.09443 0.48269 0.0
H706 H 0.10395 0.10325 0.51117 0.0
H707 H 0.09141 0.11752 0.47575 0.0
C708 C 0.11955 0.15179 0.50233 0.0
C709 C 0.11094 0.16605 0.48252 0.0
C710 C 0.11062 0.14051 0.5325 0.0
C711 C 0.09283 0.14301 0.54175 0.0
C712 C 0.08501 0.15848 0.52623 0.0
H713 H 0.01835 0.05403 0.56337 0.0
H714 H 0.03438 0.08127 0.53908 0.0
C715 C 0.09402 0.16997 0.49709 0.0
C716 C 0.08148 0.12857 0.56119 0.0
H717 H 0.06659 0.08575 0.54208 0.0
C718 C 0.07013 0.1328 0.59634 0.0
C719 C 0.07986 0.11147 0.54071 0.0
C720 C 0.0905 0.1064 0.50025 0.0
C721 C 0.05694 0.12063 0.6108 0.0
C722 C 0.05565 0.10337 0.59109 0.0
C723 C 0.06736 0.09901 0.55688 0.0
C724 C 0.04283 0.08925 0.60616 0.0
C725 C 0.04417 0.12684 0.6456 0.0
C726 C 0.04147 0.08511 0.65186 0.0
C727 C 0.03153 0.07026 0.66572 0.0
C728 C 0.02346 0.05858 0.63408 0.0
C729 C 0.02424 0.06294 0.58841 0.0
C730 C 0.03358 0.07837 0.57463 0.0
H731 H 0.04257 0.1415 0.64361 0.0
H732 H 0.03107 0.12009 0.64164 0.0
H733 H 0.04935 0.124 0.6796 0.0
H734 H 0.04899 0.09264 0.67685 0.0
H735 H 0.03163 0.06704 0.70116 0.0
H736 H 0.34734 0.03491 0.45918 0.0
H737 H 0.37339 0.0264 0.50117 0.0
H738 H 0.36015 0.97087 0.47616 0.0
H739 H 0.33451 0.9791 0.43323 0.0
H740 H 0.3819 0.99532 0.57422 0.0
H741 H 0.40632 0.99042 0.39869 0.0
H742 H 0.38854 0.00445 0.41382 0.0
H743 H 0.38494 0.9807 0.41082 0.0
C744 C 0.34967 0.02086 0.46379 0.0
C745 C 0.33905 0.00772 0.44186 0.0
C746 C 0.36449 0.01604 0.48803 0.0
C747 C 0.36872 0.99805 0.49098 0.0
C748 C 0.35703 0.98483 0.47403 0.0
H749 H 0.46394 0.95633 0.60881 0.0
H750 H 0.43392 0.95799 0.58028 0.0
C751 C 0.34228 0.98961 0.44967 0.0
C752 C 0.38666 0.99328 0.50337 0.0
H753 H 0.42559 0.98264 0.45634 0.0
C754 C 0.39149 0.99245 0.54867 0.0
C755 C 0.39909 0.98989 0.46967 0.0
C756 C 0.39462 0.99147 0.42043 0.0
C757 C 0.40863 0.98829 0.56126 0.0
C758 C 0.421 0.98442 0.52745 0.0
C759 C 0.41604 0.98531 0.48215 0.0
C760 C 0.43953 0.98095 0.53819 0.0
C761 C 0.41347 0.98875 0.61049 0.0
C762 C 0.45289 0.99217 0.52058 0.0
C763 C 0.47012 0.99089 0.53567 0.0
C764 C 0.4742 0.97853 0.56918 0.0
C765 C 0.46113 0.96615 0.58343 0.0
C766 C 0.44393 0.96725 0.56768 0.0
H767 H 0.40396 0.99627 0.63061 0.0
H768 H 0.41346 0.9749 0.62351 0.0
H769 H 0.42675 0.99497 0.61578 0.0
H770 H 0.44984 0.00267 0.49723 0.0
H771 H 0.47986 0.00063 0.52392 0.0
H772 H 0.42539 0.33188 0.41537 0.0
H773 H 0.43831 0.35712 0.45816 0.0
H774 H 0.48832 0.3323 0.45772 0.0
H775 H 0.47595 0.30755 0.41375 0.0
H776 H 0.46391 0.3615 0.54213 0.0
H777 H 0.48971 0.37952 0.37321 0.0
H778 H 0.47088 0.3646 0.38102 0.0
H779 H 0.49253 0.35686 0.39083 0.0
C780 C 0.43904 0.33156 0.42535 0.0
C781 C 0.4497 0.31785 0.41002 0.0
C782 C 0.44634 0.34593 0.45004 0.0
C783 C 0.4643 0.34661 0.46014 0.0
C784 C 0.47444 0.33198 0.44983 0.0
H785 H 0.52998 0.42652 0.59639 0.0
H786 H 0.51712 0.3986 0.56635 0.0
C787 C 0.46724 0.31772 0.42492 0.0
C788 C 0.47312 0.36354 0.47418 0.0
H789 H 0.50017 0.39702 0.43437 0.0
C790 C 0.47183 0.36933 0.51874 0.0
C791 C 0.48309 0.37382 0.4431 0.0
C792 C 0.4841 0.36854 0.39423 0.0
C793 C 0.4807 0.38505 0.5334 0.0
C794 C 0.4914 0.39487 0.50275 0.0
C795 C 0.49224 0.38928 0.4579 0.0
C796 C 0.5013 0.41136 0.51622 0.0
C797 C 0.47828 0.39117 0.58125 0.0
C798 C 0.49779 0.4276 0.49537 0.0
C799 C 0.50538 0.44356 0.5118 0.0
C800 C 0.51652 0.44351 0.5496 0.0
C801 C 0.5213 0.42704 0.56758 0.0
C802 C 0.51378 0.41109 0.55089 0.0
H803 H 0.46628 0.38496 0.5964 0.0
H804 H 0.48969 0.38725 0.60172 0.0
H805 H 0.47742 0.40591 0.58317 0.0
H806 H 0.4884 0.42804 0.46802 0.0
H807 H 0.50143 0.45598 0.49702 0.0
H808 H 0.16225 0.50111 0.4054 0.0
H809 H 0.13852 0.50875 0.45633 0.0
H810 H 0.15868 0.56323 0.46225 0.0
H811 H 0.1823 0.55566 0.41101 0.0
H812 H 0.13283 0.53007 0.54259 0.0
H813 H 0.11218 0.56064 0.38132 0.0
H814 H 0.12918 0.54459 0.38425 0.0
H815 H 0.13356 0.56712 0.40284 0.0
C816 C 0.1621 0.51446 0.41951 0.0
C817 C 0.1738 0.5279 0.40415 0.0
C818 C 0.14856 0.51883 0.44842 0.0
C819 C 0.14677 0.53662 0.46206 0.0
C820 C 0.15986 0.54948 0.45164 0.0
H821 H 0.05102 0.56042 0.60343 0.0
H822 H 0.07911 0.56894 0.56867 0.0
C823 C 0.17332 0.54515 0.42257 0.0
C824 C 0.12963 0.54227 0.47807 0.0
H825 H 0.09203 0.56065 0.44046 0.0
C826 C 0.12401 0.53711 0.52085 0.0
C827 C 0.11815 0.55111 0.44884 0.0
C828 C 0.12342 0.55613 0.4016 0.0
C829 C 0.10688 0.54019 0.5349 0.0
C830 C 0.09532 0.54887 0.50546 0.0
C831 C 0.10112 0.55443 0.46313 0.0
C832 C 0.07649 0.54929 0.51543 0.0
C833 C 0.10091 0.53313 0.57996 0.0
C834 C 0.06519 0.53669 0.49422 0.0
C835 C 0.04921 0.53189 0.51387 0.0
C836 C 0.04443 0.53981 0.55447 0.0
C837 C 0.05445 0.55435 0.57172 0.0
C838 C 0.07054 0.55908 0.55221 0.0
H839 H 0.11091 0.52488 0.59629 0.0
H840 H 0.0982 0.54449 0.60261 0.0
H841 H 0.08859 0.5249 0.57616 0.0
H842 H 0.0696 0.52906 0.46569 0.0
H843 H 0.04169 0.5205 0.50048 0.0
H844 H 0.97127 0.85219 0.96849 0.0
H845 H 0.98737 0.87253 0.91821 0.0
H846 H 0.02888 0.83522 0.90834 0.0
H847 H 0.01315 0.81504 0.95935 0.0
H848 H 0.03921 0.86899 0.94323 0.0
H849 H 0.0014 0.87507 0.78488 0.0
H850 H 0.98828 0.87681 0.83446 0.0
H851 H -0.00146 0.85616 0.82195 0.0
C852 C 0.98359 0.8481 0.95456 0.0
C853 C 0.99101 0.8321 0.96823 0.0
C854 C 0.99271 0.85966 0.9256 0.0
C855 C 0.00929 0.85531 0.90967 0.0
C856 C 0.01606 0.83872 0.92024 0.0
H857 H 0.06062 0.93792 0.75031 0.0
H858 H 0.05817 0.90794 0.78259 0.0
C859 C 0.00696 0.82715 0.94913 0.0
C860 C 0.02063 0.86918 0.88842 0.0
H861 H 0.02174 0.89929 0.80321 0.0
C862 C 0.03565 0.87538 0.91204 0.0
C863 C 0.01594 0.8774 0.84781 0.0
C864 C 0.00024 0.87092 0.82055 0.0
C865 C 0.04551 0.89036 0.89741 0.0
C866 C 0.04019 0.8992 0.85829 0.0
C867 C 0.02581 0.89236 0.83321 0.0
C868 C 0.04761 0.91687 0.84573 0.0
C869 C 0.06111 0.89708 0.92467 0.0
C870 C 0.04344 0.93177 0.87175 0.0
C871 C 0.04481 0.94884 0.85333 0.0
C872 C 0.05049 0.95106 0.80903 0.0
C873 C 0.05656 0.93642 0.78496 0.0
C874 C 0.05507 0.91934 0.8032 0.0
H875 H 0.0661 0.88652 0.94693 0.0
H876 H 0.07187 0.90197 0.90241 0.0
H877 H 0.05719 0.90841 0.94605 0.0
H878 H 0.03737 0.93006 0.90433 0.0
H879 H 0.03967 0.95997 0.87184 0.0
H880 H 0.68349 0.97832 0.88866 0.0
H881 H 0.6639 0.98938 0.83038 0.0
H882 H 0.67205 0.04297 0.88253 0.0
H883 H 0.69253 0.03211 0.93772 0.0
H884 H 0.63531 0.99988 0.85226 0.0
H885 H 0.66403 0.05609 0.75806 0.0
H886 H 0.67757 0.04135 0.78964 0.0
H887 H 0.66852 0.06072 0.81601 0.0
C888 C 0.68164 0.99254 0.886 0.0
C889 C 0.68936 0.00442 0.91739 0.0
C890 C 0.67047 0.99888 0.85287 0.0
C891 C 0.6664 0.01707 0.85187 0.0
C892 C 0.67524 0.02902 0.88136 0.0
H893 H 0.55902 0.03848 0.82944 0.0
H894 H 0.58933 0.04124 0.85658 0.0
C895 C 0.68682 0.02277 0.91339 0.0
C896 C 0.65041 0.02282 0.8283 0.0
H897 H 0.63252 0.0586 0.77689 0.0
C898 C 0.63489 0.01255 0.83491 0.0
C899 C 0.64965 0.03919 0.80486 0.0
C900 C 0.66593 0.04979 0.79135 0.0
C901 C 0.61866 0.01859 0.82113 0.0
C902 C 0.61768 0.03595 0.80287 0.0
C903 C 0.63322 0.04576 0.79334 0.0
C904 C 0.60057 0.04307 0.79004 0.0
C905 C 0.60277 0.00609 0.82588 0.0
C906 C 0.59697 0.04595 0.74456 0.0
C907 C 0.57967 0.04521 0.7294 0.0
C908 C 0.566 0.04126 0.75953 0.0
C909 C 0.5694 0.0416 0.80574 0.0
C910 C 0.58673 0.04289 0.82108 0.0
H911 H 0.60652 0.99192 0.82793 0.0
H912 H 0.59576 0.00931 0.85726 0.0
H913 H 0.59361 0.00736 0.79709 0.0
H914 H 0.60744 0.04642 0.72012 0.0
H915 H 0.57723 0.04494 0.6935 0.0
H916 H 0.54556 0.68213 0.8983 0.0
H917 H 0.52738 0.66483 0.84508 0.0
H918 H 0.56234 0.62112 0.85542 0.0
H919 H 0.58092 0.63851 0.90788 0.0
H920 H 0.54462 0.62572 0.76726 0.0
H921 H 0.50056 0.62392 0.91628 0.0
H922 H 0.50745 0.64537 0.89436 0.0
H923 H 0.52322 0.6315 0.9204 0.0
C924 C 0.54988 0.66918 0.88768 0.0
C925 C 0.56448 0.66149 0.90802 0.0
C926 C 0.53937 0.65927 0.85749 0.0
C927 C 0.54333 0.64162 0.84742 0.0
C928 C 0.55903 0.63472 0.86324 0.0
H929 H 0.5102 0.53973 0.81504 0.0
H930 H 0.51482 0.57019 0.8434 0.0
C931 C 0.56958 0.64462 0.89334 0.0
C932 C 0.52991 0.62925 0.82779 0.0
H933 H 0.49411 0.60356 0.85836 0.0
C934 C 0.53325 0.6212 0.78637 0.0
C935 C 0.51523 0.62335 0.85337 0.0
C936 C 0.51134 0.63135 0.8987 0.0
C937 C 0.52284 0.60663 0.77095 0.0
C938 C 0.50876 0.60011 0.79776 0.0
C939 C 0.50478 0.60883 0.83784 0.0
C940 C 0.50063 0.58232 0.78908 0.0
C941 C 0.52779 0.59739 0.7279 0.0
C942 C 0.48995 0.57912 0.75127 0.0
C943 C 0.48703 0.56166 0.73557 0.0
C944 C 0.49489 0.54746 0.75753 0.0
C945 C 0.50379 0.55052 0.79821 0.0
C946 C 0.50653 0.5679 0.81415 0.0
H947 H 0.53976 0.60356 0.71249 0.0
H948 H 0.5301 0.58308 0.73434 0.0
H949 H 0.51686 0.59804 0.70333 0.0
H950 H 0.48531 0.59016 0.73167 0.0
H951 H 0.48043 0.55953 0.70359 0.0
H952 H 0.83596 0.44581 0.8917 0.0
H953 H 0.85657 0.44797 0.82953 0.0
H954 H 0.84698 0.50406 0.8167 0.0
H955 H 0.82663 0.50204 0.87985 0.0
H956 H 0.86596 0.46544 0.73975 0.0
H957 H 0.89266 0.49885 0.89498 0.0
H958 H 0.87232 0.48591 0.89562 0.0
H959 H 0.87335 0.50757 0.86994 0.0
C960 C 0.83749 0.45836 0.87397 0.0
C961 C 0.83025 0.47389 0.89116 0.0
C962 C 0.8492 0.45957 0.83823 0.0
C963 C 0.85363 0.47628 0.81964 0.0
C964 C 0.84384 0.4911 0.83115 0.0
H965 H 0.96287 0.50389 0.77101 0.0
H966 H 0.93154 0.50508 0.78295 0.0
C967 C 0.83232 0.48996 0.86736 0.0
C968 C 0.87155 0.47906 0.80222 0.0
H969 H 0.91234 0.49155 0.83997 0.0
C970 C 0.87614 0.47148 0.76101 0.0
C971 C 0.88474 0.48691 0.83032 0.0
C972 C 0.88065 0.49521 0.87528 0.0
C973 C 0.89375 0.47129 0.74743 0.0
C974 C 0.90703 0.47813 0.77698 0.0
C975 C 0.90224 0.48621 0.81741 0.0
C976 C 0.92604 0.47712 0.76768 0.0
C977 C 0.89785 0.46387 0.70166 0.0
C978 C 0.93358 0.46089 0.75599 0.0
C979 C 0.95161 0.4603 0.74798 0.0
C980 C 0.96239 0.47571 0.75372 0.0
C981 C 0.95495 0.49164 0.76778 0.0
C982 C 0.93697 0.4924 0.77394 0.0
H983 H 0.88666 0.46531 0.67809 0.0
H984 H 0.90966 0.47064 0.68702 0.0
H985 H 0.90022 0.4494 0.7046 0.0
H986 H 0.92556 0.44875 0.75266 0.0
H987 H 0.95705 0.44796 0.73637 0.0
H988 H 0.0597 0.15147 0.10821 0.0
H989 H 0.05485 0.12698 0.05434 0.0
H990 H 0.08947 0.15376 0.96048 0.0
H991 H 0.0945 0.17839 0.01437 0.0
H992 H 0.04507 0.13479 0.94622 0.0
H993 H 0.10403 0.09684 0.99162 0.0
H994 H 0.09309 0.11003 0.03319 0.0
H995 H 0.10518 0.12093 0.98916 0.0
C996 C 0.06639 0.15212 0.07624 0.0
C997 C 0.07754 0.16685 0.06561 0.0
C998 C 0.06353 0.13816 0.04548 0.0
C999 C 0.07186 0.13859 0.00366 0.0
C1000 C 0.08296 0.15324 0.99271 0.0
H1001 H 0.0744 0.05242 0.80439 0.0
H1002 H 0.08168 0.07858 0.85165 0.0
C1003 C 0.08574 0.1673 0.02339 0.0
C1004 C 0.06874 0.1237 0.97144 0.0
H1005 H 0.08458 0.08375 0.93847 0.0
C1006 C 0.05372 0.12365 0.94422 0.0
C1007 C 0.08018 0.10938 0.96872 0.0
C1008 C 0.09657 0.10912 0.99712 0.0
C1009 C 0.04972 0.10946 0.91444 0.0
C1010 C 0.06076 0.09464 0.91305 0.0
C1011 C 0.07604 0.09498 0.93968 0.0
C1012 C 0.05653 0.07852 0.88502 0.0
C1013 C 0.03384 0.11073 0.88435 0.0
C1014 C 0.04019 0.06944 0.88885 0.0
C1015 C 0.03594 0.05471 0.86147 0.0
C1016 C 0.04813 0.04837 0.83057 0.0
C1017 C 0.0648 0.05692 0.82815 0.0
C1018 C 0.06892 0.07191 0.85499 0.0
H1019 H 0.0306 0.12486 0.87833 0.0
H1020 H 0.03588 0.10415 0.85141 0.0
H1021 H 0.02236 0.10411 0.90088 0.0
H1022 H 0.03062 0.07381 0.91286 0.0
H1023 H 0.02304 0.04831 0.86438 0.0
H1024 H 0.36669 0.98356 0.0546 0.0
H1025 H 0.39296 0.98492 0.00765 0.0
H1026 H 0.37316 0.0301 0.9372 0.0
H1027 H 0.34718 0.02941 0.98513 0.0
H1028 H 0.38606 0.9911 0.88928 0.0
H1029 H 0.43121 0.03316 0.99691 0.0
H1030 H 0.41581 0.0173 0.02187 0.0
H1031 H 0.40795 0.03688 0.99534 0.0
C1032 C 0.368 0.99396 0.02961 0.0
C1033 C 0.35467 0.00624 0.02327 0.0
C1034 C 0.38295 0.99461 0.00263 0.0
C1035 C 0.38477 0.00743 0.96874 0.0
C1036 C 0.37181 0.01999 0.96295 0.0
H1037 H 0.47104 0.03474 0.79064 0.0
H1038 H 0.44607 0.035 0.84201 0.0
C1039 C 0.35694 0.01947 0.99014 0.0
C1040 C 0.39998 0.00735 0.93842 0.0
H1041 H 0.44239 0.02267 0.9285 0.0
C1042 C 0.39839 0.99801 0.89764 0.0
C1043 C 0.41592 0.0164 0.9497 0.0
C1044 C 0.41801 0.02656 0.99329 0.0
C1045 C 0.41245 0.99754 0.86751 0.0
C1046 C 0.42855 0.00646 0.87901 0.0
C1047 C 0.43005 0.01586 0.91981 0.0
C1048 C 0.44397 0.00627 0.84905 0.0
C1049 C 0.40982 0.98781 0.82334 0.0
C1050 C 0.45131 0.99007 0.83695 0.0
C1051 C 0.46545 0.98987 0.80747 0.0
C1052 C 0.47271 0.0059 0.78996 0.0
C1053 C 0.46575 0.02217 0.80347 0.0
C1054 C 0.45148 0.02234 0.83274 0.0
H1055 H 0.3957 0.98603 0.81453 0.0
H1056 H 0.41661 0.99508 0.79564 0.0
H1057 H 0.41533 0.97435 0.82588 0.0
H1058 H 0.44605 0.97755 0.85016 0.0
H1059 H 0.47064 0.9771 0.79825 0.0
H1060 H 0.44244 0.33868 0.01441 0.0
H1061 H 0.44469 0.36528 0.96676 0.0
H1062 H 0.49665 0.35118 0.92709 0.0
H1063 H 0.49455 0.32469 0.97454 0.0
H1064 H 0.46932 0.39443 0.96657 0.0
H1065 H 0.47103 0.35625 0.80693 0.0
H1066 H 0.46443 0.34612 0.85936 0.0
H1067 H 0.4873 0.34978 0.84678 0.0
C1068 C 0.45438 0.34132 0.99576 0.0
C1069 C 0.46822 0.32943 0.99782 0.0
C1070 C 0.45563 0.35649 0.96846 0.0
C1071 C 0.47069 0.36 0.94267 0.0
C1072 C 0.48472 0.34847 0.94578 0.0
H1073 H 0.51591 0.43619 0.76418 0.0
H1074 H 0.50776 0.41221 0.81545 0.0
C1075 C 0.48348 0.33332 0.9729 0.0
C1076 C 0.47185 0.37565 0.91229 0.0
H1077 H 0.47928 0.38723 0.80311 0.0
C1078 C 0.47126 0.3929 0.93073 0.0
C1079 C 0.47428 0.3736 0.86551 0.0
C1080 C 0.47413 0.35544 0.84335 0.0
C1081 C 0.4739 0.40816 0.90387 0.0
C1082 C 0.47698 0.40605 0.85739 0.0
C1083 C 0.47696 0.38881 0.83879 0.0
C1084 C 0.48169 0.42138 0.82788 0.0
C1085 C 0.47418 0.42638 0.92563 0.0
C1086 C 0.46971 0.43461 0.81781 0.0
C1087 C 0.47433 0.44851 0.78816 0.0
C1088 C 0.491 0.44931 0.76806 0.0
C1089 C 0.50294 0.43607 0.7788 0.0
C1090 C 0.49832 0.42228 0.80819 0.0
H1091 H 0.47441 0.42559 0.96287 0.0
H1092 H 0.4858 0.4345 0.91441 0.0
H1093 H 0.46229 0.43344 0.91533 0.0
H1094 H 0.45671 0.43401 0.83222 0.0
H1095 H 0.46481 0.45843 0.78056 0.0
H1096 H 0.2003 0.52773 0.93788 0.0
H1097 H 0.17451 0.52441 0.8885 0.0
H1098 H 0.14552 0.49844 0.99515 0.0
H1099 H 0.17112 0.50153 0.04434 0.0
H1100 H 0.15574 0.49246 0.86274 0.0
H1101 H 0.11319 0.53828 0.95556 0.0
H1102 H 0.13663 0.53818 0.964 0.0
H1103 H 0.12263 0.52137 0.98962 0.0
C1104 C 0.18846 0.52121 0.95067 0.0
C1105 C 0.18773 0.51504 0.99517 0.0
C1106 C 0.17372 0.51943 0.92254 0.0
C1107 C 0.158 0.5115 0.93848 0.0
C1108 C 0.15736 0.50502 0.98253 0.0
H1109 H 0.0539 0.48784 0.82836 0.0
H1110 H 0.08015 0.49084 0.87593 0.0
C1111 C 0.17203 0.50678 0.01058 0.0
C1112 C 0.14239 0.50943 0.90875 0.0
H1113 H 0.09954 0.52046 0.89832 0.0
C1114 C 0.14348 0.49866 0.87029 0.0
C1115 C 0.12638 0.51744 0.91893 0.0
C1116 C 0.1246 0.5296 0.95905 0.0
C1117 C 0.12887 0.49535 0.8422 0.0
C1118 C 0.11283 0.50339 0.85226 0.0
C1119 C 0.11179 0.51424 0.89068 0.0
C1120 C 0.09706 0.50098 0.82302 0.0
C1121 C 0.13067 0.48286 0.80274 0.0
C1122 C 0.09779 0.50576 0.77756 0.0
C1123 C 0.08291 0.50384 0.75022 0.0
C1124 C 0.06683 0.4974 0.76791 0.0
C1125 C 0.06607 0.49275 0.81359 0.0
C1126 C 0.08106 0.49451 0.84085 0.0
H1127 H 0.14166 0.47373 0.80771 0.0
H1128 H 0.11844 0.47469 0.79692 0.0
H1129 H 0.1335 0.49081 0.77211 0.0
H1130 H 0.10981 0.51129 0.76329 0.0
H1131 H 0.08394 0.50782 0.71539 0.0
H1132 H 0.97905 0.8406 0.33759 0.0
H1133 H 0.98065 0.86729 0.38488 0.0
H1134 H 0.0169 0.84193 0.47351 0.0
H1135 H 0.01593 0.81534 0.42527 0.0
H1136 H 0.97255 0.87212 0.47356 0.0
H1137 H 0.04301 0.88882 0.44412 0.0
H1138 H 0.03073 0.87257 0.41055 0.0
H1139 H 0.03862 0.86672 0.46533 0.0
C1140 C 0.98753 0.84072 0.36687 0.0
C1141 C 0.99755 0.82587 0.37724 0.0
C1142 C 0.98831 0.85597 0.39408 0.0
C1143 C -0.00087 0.85676 0.43229 0.0
C1144 C 0.00874 0.84177 0.44364 0.0
H1145 H 0.99634 0.93417 0.64911 0.0
H1146 H 0.99264 0.90805 0.60051 0.0
C1147 C 0.008 0.82649 0.41633 0.0
C1148 C 0.00025 0.87331 0.46005 0.0
H1149 H 0.02866 0.90631 0.49829 0.0
C1150 C 0.98481 0.87962 0.47893 0.0
C1151 C 0.01621 0.88322 0.46648 0.0
C1152 C 0.03307 0.87762 0.44525 0.0
C1153 C 0.98494 0.89542 0.50454 0.0
C1154 C 0.00098 0.90508 0.51204 0.0
C1155 C 0.01638 0.89889 0.49266 0.0
C1156 C 0.00219 0.92139 0.54071 0.0
C1157 C 0.96783 0.90177 0.52273 0.0
C1158 C 0.00892 0.93765 0.52345 0.0
C1159 C 0.01116 0.95271 0.55132 0.0
C1160 C 0.00683 0.95175 0.59716 0.0
C1161 C -0.00026 0.9355 0.61399 0.0
C1162 C 0.99752 0.92051 0.58615 0.0
H1163 H 0.95643 0.89599 0.50361 0.0
H1164 H 0.96645 0.89749 0.5582 0.0
H1165 H 0.96738 0.91656 0.52168 0.0
H1166 H 0.01269 0.93862 0.48849 0.0
H1167 H 0.01676 0.96492 0.53723 0.0
H1168 H 0.68673 0.96864 0.32791 0.0
H1169 H 0.66209 0.96823 0.38007 0.0
H1170 H 0.67885 0.02021 0.43001 0.0
H1171 H 0.70343 0.02089 0.37718 0.0
H1172 H 0.6623 0.9717 0.47615 0.0
H1173 H 0.62687 0.0257 0.39088 0.0
H1174 H 0.64432 0.01403 0.36417 0.0
H1175 H 0.64935 0.03083 0.40589 0.0
C1176 C 0.68515 0.98003 0.34987 0.0
C1177 C 0.69697 0.99486 0.34818 0.0
C1178 C 0.67113 0.97971 0.37983 0.0
C1179 C 0.66854 0.99426 0.40851 0.0
C1180 C 0.68051 0.00893 0.40774 0.0
H1181 H 0.59441 0.99449 0.63109 0.0
H1182 H 0.62093 0.99452 0.58563 0.0
C1183 C 0.69462 0.00923 0.37785 0.0
C1184 C 0.65313 0.99402 0.43864 0.0
H1185 H 0.61419 0.01378 0.45675 0.0
C1186 C 0.65178 0.98092 0.47209 0.0
C1187 C 0.63938 0.00595 0.43283 0.0
C1188 C 0.63988 0.01986 0.39633 0.0
C1189 C 0.63699 0.97939 0.49991 0.0
C1190 C 0.62328 0.99143 0.49438 0.0
C1191 C 0.6247 0.00457 0.46097 0.0
C1192 C 0.60722 0.99055 0.52238 0.0
C1193 C 0.63601 0.9646 0.53413 0.0
C1194 C 0.59062 0.98862 0.50197 0.0
C1195 C 0.57538 0.98888 0.52783 0.0
C1196 C 0.57645 0.99096 0.57469 0.0
C1197 C 0.59311 0.99256 0.59514 0.0
C1198 C 0.60832 0.99253 0.5692 0.0
H1199 H 0.6451 0.95381 0.52596 0.0
H1200 H 0.63981 0.97011 0.56757 0.0
H1201 H 0.6225 0.95869 0.53647 0.0
H1202 H 0.58945 0.98709 0.46587 0.0
H1203 H 0.56276 0.98763 0.5111 0.0
H1204 H 0.57436 0.65643 0.29527 0.0
H1205 H 0.57086 0.631 0.34575 0.0
H1206 H 0.53002 0.6576 0.41629 0.0
H1207 H 0.53296 0.6829 0.36469 0.0
H1208 H 0.57426 0.62837 0.43744 0.0
H1209 H 0.5063 0.60958 0.38338 0.0
H1210 H 0.52007 0.62531 0.35273 0.0
H1211 H 0.50929 0.63218 0.40312 0.0
C1212 C 0.56451 0.65685 0.32125 0.0
C1213 C 0.55377 0.67165 0.32546 0.0
C1214 C 0.56262 0.64233 0.35034 0.0
C1215 C 0.54997 0.64223 0.38432 0.0
C1216 C 0.53963 0.65722 0.38972 0.0
H1217 H 0.54348 0.5657 0.60442 0.0
H1218 H 0.54885 0.59217 0.55834 0.0
C1219 C 0.54148 0.67178 0.36052 0.0
C1220 C 0.54759 0.62631 0.41358 0.0
H1221 H 0.51799 0.59325 0.44353 0.0
C1222 C 0.56195 0.62069 0.43884 0.0
C1223 C 0.5316 0.61615 0.41488 0.0
C1224 C 0.51596 0.62097 0.38681 0.0
C1225 C 0.56075 0.60525 0.46548 0.0
C1226 C 0.54465 0.5953 0.4675 0.0
C1227 C 0.53031 0.6009 0.44212 0.0
C1228 C 0.54236 0.57896 0.49535 0.0
C1229 C 0.57687 0.59952 0.49031 0.0
C1230 C 0.53672 0.5627 0.47546 0.0
C1231 C 0.53347 0.54752 0.50181 0.0
C1232 C 0.53576 0.54828 0.5487 0.0
C1233 C 0.54175 0.56453 0.5684 0.0
C1234 C 0.54489 0.57971 0.54205 0.0
H1235 H 0.58906 0.60549 0.47554 0.0
H1236 H 0.57619 0.60406 0.52575 0.0
H1237 H 0.57773 0.58476 0.49005 0.0
H1238 H 0.53463 0.5618 0.4395 0.0
H1239 H 0.52883 0.53529 0.48547 0.0
H1240 H 0.85518 0.47052 0.29055 0.0
H1241 H 0.88022 0.47477 0.34141 0.0
H1242 H 0.84898 0.50587 0.43043 0.0
H1243 H 0.82394 0.50224 0.37905 0.0
H1244 H 0.89517 0.51076 0.37296 0.0
H1245 H 0.87182 0.46482 0.5083 0.0
H1246 H 0.86404 0.46272 0.45106 0.0
H1247 H 0.85652 0.48032 0.48619 0.0
C1248 C 0.85361 0.47839 0.32074 0.0
C1249 C 0.83749 0.48611 0.33048 0.0
C1250 C 0.86793 0.48072 0.34986 0.0
C1251 C 0.86641 0.4906 0.38962 0.0
C1252 C 0.85034 0.49808 0.40001 0.0
H1253 H 0.95293 0.52956 0.56413 0.0
H1254 H 0.92667 0.52792 0.51617 0.0
C1255 C 0.83602 0.49588 0.37071 0.0
C1256 C 0.88179 0.49331 0.41976 0.0
H1257 H 0.89869 0.48064 0.52056 0.0
C1258 C 0.89594 0.50428 0.40536 0.0
C1259 C 0.88275 0.48469 0.46174 0.0
C1260 C 0.86806 0.47237 0.47793 0.0
C1261 C 0.91111 0.50684 0.43193 0.0
C1262 C 0.91205 0.49828 0.47406 0.0
C1263 C 0.89786 0.48732 0.48842 0.0
C1264 C 0.92805 0.49962 0.50257 0.0
C1265 C 0.92621 0.51824 0.41421 0.0
C1266 C 0.93741 0.48425 0.51112 0.0
C1267 C 0.95234 0.48512 0.53841 0.0
C1268 C 0.95823 0.5014 0.55807 0.0
C1269 C 0.94884 0.51684 0.54934 0.0
C1270 C 0.93386 0.51594 0.52187 0.0
H1271 H 0.92474 0.52106 0.37782 0.0
H1272 H 0.92685 0.53118 0.43255 0.0
H1273 H 0.93882 0.51163 0.41972 0.0
H1274 H 0.93317 0.47152 0.49657 0.0
H1275 H 0.95918 0.47293 0.54428 0.0
loop_
_geom_bond_atom_site_label_1
_geom_bond_atom_site_label_2
_geom_bond_distance
_geom_bond_site_symmetry_2
_ccdc_geom_bond_type
C0 C1 1.264 . S
C0 C5 1.479 . S
C0 C10 1.465 . S
C1 C0 1.264 . S
C1 C3 1.339 . S
C1 H28 0.931 . S
C2 C3 1.395 . S
C2 C4 1.320 . S
C3 C1 1.339 . S
C3 C2 1.395 . S
C3 H29 0.929 . S
C4 C2 1.320 . S
C4 C5 1.405 . S
C4 H30 0.930 . S
C5 C0 1.479 . S
C5 C4 1.405 . S
C5 H31 0.931 . S
U6 O7 2.454 . S
U6 O8 2.458 1_554 S
U6 C9 2.984 . S
U6 C10 2.847 . S
U6 C23 2.882 1_554 S
U6 O24 2.441 . S
U6 O25 2.420 . S
U6 O26 2.455 1_554 S
U6 O27 2.449 . S
O7 U6 2.454 . S
O7 C9 1.353 . S
O8 U6 2.458 1_556 S
O8 C9 1.286 1_556 S
C9 U6 2.984 . S
C9 O7 1.353 . S
C9 O8 1.286 1_554 S
C9 C11 1.363 . S
C10 C0 1.465 . S
C10 U6 2.847 . S
C10 O24 1.249 . S
C10 O25 1.202 . S
C11 C9 1.363 . S
C11 C13 1.408 . S
C11 C16 1.342 1_554 S
C12 C13 1.310 . S
C12 C15 1.461 1_554 S
C12 H32 0.932 . S
C13 C11 1.408 . S
C13 C12 1.310 . S
C13 H33 0.930 . S
C14 C15 1.474 . S
C14 C16 1.285 . S
C14 H34 0.929 . S
C15 C12 1.461 1_556 S
C15 C14 1.474 . S
C16 C11 1.342 1_556 S
C16 C14 1.285 . S
C16 H35 0.930 . S
C17 C20 1.424 . S
C17 C22 1.245 . S
C17 C23 1.428 . S
C18 C21 1.260 . S
C18 C22 1.477 . S
C18 H36 0.932 . S
C19 C20 1.384 . S
C19 C21 1.479 . S
C19 H37 0.929 . S
C20 C17 1.424 . S
C20 C19 1.384 . S
C20 H38 0.928 . S
C21 C18 1.260 . S
C21 C19 1.479 . S
C22 C17 1.245 . S
C22 C18 1.477 . S
C22 H39 0.932 . S
C23 U6 2.882 1_556 S
C23 C17 1.428 . S
C23 O26 1.301 . S
C23 O27 1.282 1_556 S
O24 U6 2.441 . S
O24 C10 1.249 . S
O25 U6 2.420 . S
O25 C10 1.202 . S
O26 U6 2.455 1_556 S
O26 C23 1.301 . S
O27 U6 2.449 . S
O27 C23 1.282 1_554 S
H28 C1 0.931 . S
H29 C3 0.929 . S
H30 C4 0.930 . S
H31 C5 0.931 . S
H32 C12 0.932 . S
H33 C13 0.930 . S
H34 C14 0.929 . S
H35 C16 0.930 . S
H36 C18 0.932 . S
H37 C19 0.929 . S
H38 C20 0.928 . S
H39 C22 0.932 . S
C40 C41 1.264 . S
C40 C45 1.480 . S
C40 C50 1.465 . S
C41 C40 1.264 . S
C41 C43 1.339 . S
C41 H68 0.931 . S
C42 C43 1.395 1_655 S
C42 C44 1.320 . S
C43 C41 1.339 . S
C43 C42 1.395 1_455 S
C43 H69 0.929 . S
C44 C42 1.320 . S
C44 C45 1.402 1_655 S
C44 H70 0.930 . S
C45 C40 1.480 . S
C45 C44 1.402 1_455 S
C45 H71 0.928 . S
U46 O47 2.454 1_455 S
U46 O48 2.458 1_455 S
U46 C49 2.984 1_455 S
U46 C50 2.847 . S
U46 C63 2.882 . S
U46 O64 2.441 . S
U46 O65 2.420 . S
U46 O66 2.455 . S
U46 O67 2.449 . S
O47 U46 2.454 1_655 S
O47 C49 1.353 . S
O48 U46 2.458 1_655 S
O48 C49 1.286 . S
C49 U46 2.984 1_655 S
C49 O47 1.353 . S
C49 O48 1.286 . S
C49 C51 1.363 . S
C50 C40 1.465 . S
C50 U46 2.847 . S
C50 O64 1.249 . S
C50 O65 1.202 . S
C51 C49 1.363 . S
C51 C53 1.408 . S
C51 C56 1.342 . S
C52 C53 1.310 . S
C52 C55 1.461 . S
C52 H72 0.932 . S
C53 C51 1.408 . S
C53 C52 1.310 . S
C53 H73 0.930 . S
C54 C55 1.474 . S
C54 C56 1.285 . S
C54 H74 0.929 1_554 S
C55 C52 1.461 . S
C55 C54 1.474 . S
C56 C51 1.342 . S
C56 C54 1.285 . S
C56 H75 0.930 . S
C57 C60 1.424 . S
C57 C62 1.245 1_554 S
C57 C63 1.428 . S
C58 C61 1.251 1_455 S
C58 C62 1.477 . S
C58 H76 0.932 . S
C59 C60 1.384 1_556 S
C59 C61 1.473 1_455 S
C59 H77 0.929 1_556 S
C60 C57 1.424 . S
C60 C59 1.384 1_554 S
C60 H78 0.928 . S
C61 C58 1.251 1_655 S
C61 C59 1.473 1_655 S
C62 C57 1.245 1_556 S
C62 C58 1.477 . S
C62 H79 0.932 . S
C63 U46 2.882 . S
C63 C57 1.428 . S
C63 O66 1.301 . S
C63 O67 1.282 . S
O64 U46 2.441 . S
O64 C50 1.249 . S
O65 U46 2.420 . S
O65 C50 1.202 . S
O66 U46 2.455 . S
O66 C63 1.301 . S
O67 U46 2.449 . S
O67 C63 1.282 . S
H68 C41 0.931 . S
H69 C43 0.929 . S
H70 C44 0.930 . S
H71 C45 0.928 . S
H72 C52 0.932 . S
H73 C53 0.930 . S
H74 C54 0.929 1_556 S
H75 C56 0.930 . S
H76 C58 0.932 . S
H77 C59 0.929 1_554 S
H78 C60 0.928 . S
H79 C62 0.932 . S
C80 C81 1.264 . S
C80 C85 1.479 . S
C80 C90 1.465 . S
C81 C80 1.264 . S
C81 C83 1.339 . S
C81 H108 0.931 . S
C82 C83 1.395 . S
C82 C84 1.320 . S
C83 C81 1.339 . S
C83 C82 1.395 . S
C83 H109 0.929 . S
C84 C82 1.320 . S
C84 C85 1.405 . S
C84 H110 0.920 1_545 S
C85 C80 1.479 . S
C85 C84 1.405 . S
C85 H111 0.931 . S
U86 O87 2.454 . S
U86 O88 2.458 . S
U86 C89 2.984 . S
U86 C90 2.847 . S
U86 C103 2.882 . S
U86 O104 2.441 . S
U86 O105 2.420 . S
U86 O106 2.455 1_554 S
U86 O107 2.449 . S
O87 U86 2.454 . S
O87 C89 1.353 . S
O88 U86 2.458 . S
O88 C89 1.286 . S
C89 U86 2.984 . S
C89 O87 1.353 . S
C89 O88 1.286 . S
C89 C91 1.363 . S
C90 C80 1.465 . S
C90 U86 2.847 . S
C90 O104 1.249 . S
C90 O105 1.202 . S
C91 C89 1.363 . S
C91 C93 1.408 . S
C91 C96 1.351 1_554 S
C92 C93 1.310 . S
C92 C95 1.460 1_545 S
C92 H112 0.935 . S
C93 C91 1.408 . S
C93 C92 1.310 . S
C93 H113 0.930 . S
C94 C95 1.475 1_556 S
C94 C96 1.278 1_565 S
C94 H114 0.933 . S
C95 C92 1.460 1_565 S
C95 C94 1.475 1_554 S
C96 C91 1.351 1_556 S
C96 C94 1.278 1_545 S
C96 H115 0.930 . S
C97 C100 1.424 . S
C97 C102 1.245 . S
C97 C103 1.428 1_556 S
C98 C101 1.260 . S
C98 C102 1.477 . S
C98 H116 0.932 . S
C99 C100 1.384 . S
C99 C101 1.479 . S
C99 H117 0.929 . S
C100 C97 1.424 . S
C100 C99 1.384 . S
C100 H118 0.928 1_556 S
C101 C98 1.260 . S
C101 C99 1.479 . S
C102 C97 1.245 . S
C102 C98 1.477 . S
C102 H119 0.932 . S
C103 U86 2.882 . S
C103 C97 1.428 1_554 S
C103 O106 1.301 1_554 S
C103 O107 1.282 . S
O104 U86 2.441 . S
O104 C90 1.249 . S
O105 U86 2.420 . S
O105 C90 1.202 . S
O106 U86 2.455 1_556 S
O106 C103 1.301 1_556 S
O107 U86 2.449 . S
O107 C103 1.282 . S
H108 C81 0.931 . S
H109 C83 0.929 . S
H110 C84 0.920 1_565 S
H111 C85 0.931 . S
H112 C92 0.935 . S
H113 C93 0.930 . S
H114 C94 0.933 . S
H115 C96 0.930 . S
H116 C98 0.932 . S
H117 C99 0.929 . S
H118 C100 0.928 1_554 S
H119 C102 0.932 . S
C120 C121 1.264 . S
C120 C125 1.479 . S
C120 C130 1.465 . S
C121 C120 1.264 . S
C121 C123 1.339 . S
C121 H148 0.931 . S
C122 C123 1.395 . S
C122 C124 1.320 . S
C123 C121 1.339 . S
C123 C122 1.395 . S
C123 H149 0.929 . S
C124 C122 1.320 . S
C124 C125 1.405 . S
C124 H150 0.930 . S
C125 C120 1.479 . S
C125 C124 1.405 . S
C125 H151 0.931 . S
U126 O127 2.454 . S
U126 O128 2.458 . S
U126 C129 2.984 . S
U126 C130 2.847 . S
U126 C143 2.882 1_554 S
U126 O144 2.441 . S
U126 O145 2.420 . S
U126 O146 2.455 1_554 S
U126 O147 2.449 . S
O127 U126 2.454 . S
O127 C129 1.353 . S
O128 U126 2.458 . S
O128 C129 1.286 . S
C129 U126 2.984 . S
C129 O127 1.353 . S
C129 O128 1.286 . S
C129 C131 1.363 . S
C130 C120 1.465 . S
C130 U126 2.847 . S
C130 O144 1.249 . S
C130 O145 1.202 . S
C131 C129 1.363 . S
C131 C133 1.408 . S
C131 C136 1.342 1_554 S
C132 C133 1.310 . S
C132 C135 1.461 1_554 S
C132 H152 0.932 . S
C133 C131 1.408 . S
C133 C132 1.310 . S
C133 H153 0.930 . S
C134 C135 1.474 . S
C134 C136 1.285 . S
C134 H154 0.929 . S
C135 C132 1.461 1_556 S
C135 C134 1.474 . S
C136 C131 1.342 1_556 S
C136 C134 1.285 . S
C136 H155 0.930 . S
C137 C140 1.424 . S
C137 C142 1.245 . S
C137 C143 1.428 . S
C138 C141 1.260 . S
C138 C142 1.477 . S
C138 H156 0.932 . S
C139 C140 1.384 . S
C139 C141 1.479 . S
C139 H157 0.929 . S
C140 C137 1.424 . S
C140 C139 1.384 . S
C140 H158 0.928 . S
C141 C138 1.260 . S
C141 C139 1.479 . S
C142 C137 1.245 . S
C142 C138 1.477 . S
C142 H159 0.932 . S
C143 U126 2.882 1_556 S
C143 C137 1.428 . S
C143 O146 1.301 . S
C143 O147 1.282 1_556 S
O144 U126 2.441 . S
O144 C130 1.249 . S
O145 U126 2.420 . S
O145 C130 1.202 . S
O146 U126 2.455 1_556 S
O146 C143 1.301 . S
O147 U126 2.449 . S
O147 C143 1.282 1_554 S
H148 C121 0.931 . S
H149 C123 0.929 . S
H150 C124 0.930 . S
H151 C125 0.931 . S
H152 C132 0.932 . S
H153 C133 0.930 . S
H154 C134 0.929 . S
H155 C136 0.930 . S
H156 C138 0.932 . S
H157 C139 0.929 . S
H158 C140 0.928 . S
H159 C142 0.932 . S
C160 C161 1.264 . S
C160 C165 1.479 . S
C160 C170 1.465 . S
C161 C160 1.264 . S
C161 C163 1.339 . S
C161 H188 0.931 . S
C162 C163 1.395 . S
C162 C164 1.320 . S
C163 C161 1.339 . S
C163 C162 1.395 . S
C163 H189 0.929 . S
C164 C162 1.320 . S
C164 C165 1.405 . S
C164 H190 0.930 . S
C165 C160 1.479 . S
C165 C164 1.405 . S
C165 H191 0.931 . S
U166 O167 2.454 . S
U166 O168 2.458 . S
U166 C169 2.984 . S
U166 C170 2.847 . S
U166 C183 2.882 . S
U166 O184 2.441 . S
U166 O185 2.420 . S
U166 O186 2.455 . S
U166 O187 2.449 . S
O167 U166 2.454 . S
O167 C169 1.353 . S
O168 U166 2.458 . S
O168 C169 1.286 . S
C169 U166 2.984 . S
C169 O167 1.353 . S
C169 O168 1.286 . S
C169 C171 1.363 . S
C170 C160 1.465 . S
C170 U166 2.847 . S
C170 O184 1.249 . S
C170 O185 1.202 . S
C171 C169 1.363 . S
C171 C173 1.408 . S
C171 C176 1.342 . S
C172 C173 1.310 . S
C172 C175 1.461 . S
C172 H192 0.932 . S
C173 C171 1.408 . S
C173 C172 1.310 . S
C173 H193 0.930 . S
C174 C175 1.474 . S
C174 C176 1.285 . S
C174 H194 0.929 . S
C175 C172 1.461 . S
C175 C174 1.474 . S
C176 C171 1.342 . S
C176 C174 1.285 . S
C176 H195 0.930 . S
C177 C180 1.424 . S
C177 C182 1.245 . S
C177 C183 1.428 . S
C178 C181 1.260 . S
C178 C182 1.477 . S
C178 H196 0.932 . S
C179 C180 1.384 . S
C179 C181 1.479 . S
C179 H197 0.929 . S
C180 C177 1.424 . S
C180 C179 1.384 . S
C180 H198 0.928 . S
C181 C178 1.260 . S
C181 C179 1.479 . S
C182 C177 1.245 . S
C182 C178 1.477 . S
C182 H199 0.932 . S
C183 U166 2.882 . S
C183 C177 1.428 . S
C183 O186 1.301 . S
C183 O187 1.282 . S
O184 U166 2.441 . S
O184 C170 1.249 . S
O185 U166 2.420 . S
O185 C170 1.202 . S
O186 U166 2.455 . S
O186 C183 1.301 . S
O187 U166 2.449 . S
O187 C183 1.282 . S
H188 C161 0.931 . S
H189 C163 0.929 . S
H190 C164 0.930 . S
H191 C165 0.931 . S
H192 C172 0.932 . S
H193 C173 0.930 . S
H194 C174 0.929 . S
H195 C176 0.930 . S
H196 C178 0.932 . S
H197 C179 0.929 . S
H198 C180 0.928 . S
H199 C182 0.932 . S
C200 C201 1.264 . S
C200 C205 1.479 . S
C200 C210 1.465 . S
C201 C200 1.264 . S
C201 C203 1.339 . S
C201 H228 0.931 . S
C202 C203 1.395 . S
C202 C204 1.320 . S
C203 C201 1.339 . S
C203 C202 1.395 . S
C203 H229 0.929 . S
C204 C202 1.320 . S
C204 C205 1.405 . S
C204 H230 0.930 . S
C205 C200 1.479 . S
C205 C204 1.405 . S
C205 H231 0.931 . S
U206 O207 2.454 . S
U206 O208 2.458 . S
U206 C209 2.984 . S
U206 C210 2.847 . S
U206 C223 2.882 . S
U206 O224 2.441 . S
U206 O225 2.420 . S
U206 O226 2.455 . S
U206 O227 2.449 . S
O207 U206 2.454 . S
O207 C209 1.353 . S
O208 U206 2.458 . S
O208 C209 1.286 . S
C209 U206 2.984 . S
C209 O207 1.353 . S
C209 O208 1.286 . S
C209 C211 1.363 . S
C210 C200 1.465 . S
C210 U206 2.847 . S
C210 O224 1.249 . S
C210 O225 1.202 . S
C211 C209 1.363 . S
C211 C213 1.408 . S
C211 C216 1.342 . S
C212 C213 1.310 . S
C212 C215 1.461 . S
C212 H232 0.932 . S
C213 C211 1.408 . S
C213 C212 1.310 . S
C213 H233 0.930 . S
C214 C215 1.474 . S
C214 C216 1.285 . S
C214 H234 0.929 . S
C215 C212 1.461 . S
C215 C214 1.474 . S
C216 C211 1.342 . S
C216 C214 1.285 . S
C216 H235 0.930 . S
C217 C220 1.424 . S
C217 C222 1.245 . S
C217 C223 1.428 . S
C218 C221 1.260 . S
C218 C222 1.477 . S
C218 H236 0.932 . S
C219 C220 1.384 . S
C219 C221 1.479 . S
C219 H237 0.929 . S
C220 C217 1.424 . S
C220 C219 1.384 . S
C220 H238 0.928 . S
C221 C218 1.260 . S
C221 C219 1.479 . S
C222 C217 1.245 . S
C222 C218 1.477 . S
C222 H239 0.932 . S
C223 U206 2.882 . S
C223 C217 1.428 . S
C223 O226 1.301 . S
C223 O227 1.282 . S
O224 U206 2.441 . S
O224 C210 1.249 . S
O225 U206 2.420 . S
O225 C210 1.202 . S
O226 U206 2.455 . S
O226 C223 1.301 . S
O227 U206 2.449 . S
O227 C223 1.282 . S
H228 C201 0.931 . S
H229 C203 0.929 . S
H230 C204 0.930 . S
H231 C205 0.931 . S
H232 C212 0.932 . S
H233 C213 0.930 . S
H234 C214 0.929 . S
H235 C216 0.930 . S
H236 C218 0.932 . S
H237 C219 0.929 . S
H238 C220 0.928 . S
H239 C222 0.932 . S
C240 C241 1.264 . S
C240 C245 1.479 . S
C240 C250 1.465 . S
C241 C240 1.264 . S
C241 C243 1.339 . S
C241 H268 0.931 . S
C242 C243 1.395 . S
C242 C244 1.320 . S
C243 C241 1.339 . S
C243 C242 1.395 . S
C243 H269 0.929 . S
C244 C242 1.320 . S
C244 C245 1.405 . S
C244 H270 0.924 1_545 S
C245 C240 1.479 . S
C245 C244 1.405 . S
C245 H271 0.931 . S
U246 O247 2.454 . S
U246 O248 2.458 . S
U246 C249 2.984 . S
U246 C250 2.847 . S
U246 C263 2.882 . S
U246 O264 2.441 . S
U246 O265 2.420 . S
U246 O266 2.455 . S
U246 O267 2.449 . S
O247 U246 2.454 . S
O247 C249 1.353 . S
O248 U246 2.458 . S
O248 C249 1.286 . S
C249 U246 2.984 . S
C249 O247 1.353 . S
C249 O248 1.286 . S
C249 C251 1.363 . S
C250 C240 1.465 . S
C250 U246 2.847 . S
C250 O264 1.249 . S
C250 O265 1.202 . S
C251 C249 1.363 . S
C251 C253 1.408 . S
C251 C256 1.342 . S
C252 C253 1.310 . S
C252 C255 1.460 . S
C252 H272 0.934 . S
C253 C251 1.408 . S
C253 C252 1.310 . S
C253 H273 0.930 . S
C254 C255 1.474 1_565 S
C254 C256 1.285 1_565 S
C254 H274 0.931 . S
C255 C252 1.460 . S
C255 C254 1.474 1_545 S
C256 C251 1.342 . S
C256 C254 1.285 1_545 S
C256 H275 0.934 . S
C257 C260 1.424 . S
C257 C262 1.245 . S
C257 C263 1.428 . S
C258 C261 1.260 . S
C258 C262 1.477 . S
C258 H276 0.932 . S
C259 C260 1.384 . S
C259 C261 1.479 . S
C259 H277 0.929 . S
C260 C257 1.424 . S
C260 C259 1.384 . S
C260 H278 0.928 . S
C261 C258 1.260 . S
C261 C259 1.479 . S
C262 C257 1.245 . S
C262 C258 1.477 . S
C262 H279 0.932 . S
C263 U246 2.882 . S
C263 C257 1.428 . S
C263 O266 1.301 . S
C263 O267 1.282 . S
O264 U246 2.441 . S
O264 C250 1.249 . S
O265 U246 2.420 . S
O265 C250 1.202 . S
O266 U246 2.455 . S
O266 C263 1.301 . S
O267 U246 2.449 . S
O267 C263 1.282 . S
H268 C241 0.931 . S
H269 C243 0.929 . S
H270 C244 0.924 1_565 S
H271 C245 0.931 . S
H272 C252 0.934 . S
H273 C253 0.930 . S
H274 C254 0.931 . S
H275 C256 0.934 . S
H276 C258 0.932 . S
H277 C259 0.929 . S
H278 C260 0.928 . S
H279 C262 0.932 . S
C280 C281 1.264 . S
C280 C285 1.479 . S
C280 C290 1.465 . S
C281 C280 1.264 . S
C281 C283 1.339 . S
C281 H308 0.931 . S
C282 C283 1.395 . S
C282 C284 1.320 . S
C283 C281 1.339 . S
C283 C282 1.395 . S
C283 H309 0.929 . S
C284 C282 1.320 . S
C284 C285 1.405 . S
C284 H310 0.930 . S
C285 C280 1.479 . S
C285 C284 1.405 . S
C285 H311 0.931 . S
U286 O287 2.454 . S
U286 O288 2.458 . S
U286 C289 2.984 . S
U286 C290 2.847 . S
U286 C303 2.882 . S
U286 O304 2.441 . S
U286 O305 2.420 . S
U286 O306 2.455 . S
U286 O307 2.449 . S
O287 U286 2.454 . S
O287 C289 1.353 . S
O288 U286 2.458 . S
O288 C289 1.286 . S
C289 U286 2.984 . S
C289 O287 1.353 . S
C289 O288 1.286 . S
C289 C291 1.363 . S
C290 C280 1.465 . S
C290 U286 2.847 . S
C290 O304 1.249 . S
C290 O305 1.202 . S
C291 C289 1.363 . S
C291 C293 1.408 . S
C291 C296 1.342 . S
C292 C293 1.310 . S
C292 C295 1.461 . S
C292 H312 0.932 . S
C293 C291 1.408 . S
C293 C292 1.310 . S
C293 H313 0.930 . S
C294 C295 1.474 . S
C294 C296 1.285 . S
C294 H314 0.929 . S
C295 C292 1.461 . S
C295 C294 1.474 . S
C296 C291 1.342 . S
C296 C294 1.285 . S
C296 H315 0.930 . S
C297 C300 1.424 . S
C297 C302 1.245 . S
C297 C303 1.428 . S
C298 C301 1.260 . S
C298 C302 1.477 . S
C298 H316 0.932 . S
C299 C300 1.384 . S
C299 C301 1.479 . S
C299 H317 0.929 . S
C300 C297 1.424 . S
C300 C299 1.384 . S
C300 H318 0.928 . S
C301 C298 1.260 . S
C301 C299 1.479 . S
C302 C297 1.245 . S
C302 C298 1.477 . S
C302 H319 0.932 . S
C303 U286 2.882 . S
C303 C297 1.428 . S
C303 O306 1.301 . S
C303 O307 1.282 . S
O304 U286 2.441 . S
O304 C290 1.249 . S
O305 U286 2.420 . S
O305 C290 1.202 . S
O306 U286 2.455 . S
O306 C303 1.301 . S
O307 U286 2.449 . S
O307 C303 1.282 . S
H308 C281 0.931 . S
H309 C283 0.929 . S
H310 C284 0.930 . S
H311 C285 0.931 . S
H312 C292 0.932 . S
H313 C293 0.930 . S
H314 C294 0.929 . S
H315 C296 0.930 . S
H316 C298 0.932 . S
H317 C299 0.929 . S
H318 C300 0.928 . S
H319 C302 0.932 . S
O320 Zn321 1.954 . S
O320 C336 1.230 . S
Zn321 O320 1.954 . S
Zn321 O322 1.948 . S
Zn321 O328 1.888 1_565 S
Zn321 O333 1.962 . S
O322 Zn321 1.948 . S
O322 Zn323 1.905 1_565 S
O322 Zn324 1.952 . S
O322 Zn325 1.960 . S
Zn323 O322 1.905 1_545 S
Zn323 O326 1.933 1_455 S
Zn323 O329 1.941 . S
Zn323 O330 1.965 . S
Zn324 O322 1.952 . S
Zn324 O331 1.938 1_565 S
Zn324 O332 1.906 . S
Zn324 O342 1.953 . S
Zn325 O322 1.960 . S
Zn325 O327 1.932 1_455 S
Zn325 O334 1.977 . S
Zn325 O335 1.910 . S
O326 Zn323 1.933 1_655 S
O326 C337 1.226 . S
O327 Zn325 1.932 1_655 S
O327 C337 1.307 1_565 S
O328 Zn321 1.888 1_545 S
O328 C339 1.253 . S
O329 Zn323 1.941 . S
O329 C339 1.283 . S
O330 Zn323 1.965 . S
O330 C338 1.303 . S
O331 Zn324 1.938 1_545 S
O331 C338 1.247 . S
O332 Zn324 1.906 . S
O332 C340 1.304 . S
O333 Zn321 1.962 . S
O333 C341 1.311 . S
O334 Zn325 1.977 . S
O334 C340 1.272 . S
O335 Zn325 1.910 . S
O335 C341 1.231 . S
C336 O320 1.230 . S
C336 O342 1.298 . S
C337 O326 1.226 . S
C337 O327 1.307 1_545 S
C338 O330 1.303 . S
C338 O331 1.247 . S
C339 O328 1.253 . S
C339 O329 1.283 . S
C340 O332 1.304 . S
C340 O334 1.272 . S
C341 O333 1.311 . S
C341 O335 1.231 . S
O342 Zn324 1.953 . S
O342 C336 1.298 . S
O343 Zn344 1.953 . S
O343 C359 1.225 . S
Zn344 O343 1.953 . S
Zn344 O345 1.949 . S
Zn344 O351 1.919 . S
Zn344 O356 1.924 . S
O345 Zn344 1.949 . S
O345 Zn346 1.923 1_545 S
O345 Zn347 1.950 . S
O345 Zn348 1.945 1_545 S
Zn346 O345 1.923 1_565 S
Zn346 O349 1.933 . S
Zn346 O352 1.941 . S
Zn346 O353 1.965 . S
Zn347 O345 1.950 . S
Zn347 O354 1.938 . S
Zn347 O355 1.903 1_545 S
Zn347 O365 1.953 . S
Zn348 O345 1.945 1_565 S
Zn348 O350 1.932 . S
Zn348 O357 1.977 . S
Zn348 O358 1.910 1_565 S
O349 Zn346 1.933 . S
O349 C360 1.226 . S
O350 Zn348 1.932 . S
O350 C360 1.307 . S
O351 Zn344 1.919 . S
O351 C362 1.253 . S
O352 Zn346 1.941 . S
O352 C362 1.283 1_565 S
O353 Zn346 1.965 . S
O353 C361 1.303 . S
O354 Zn347 1.938 . S
O354 C361 1.247 1_545 S
O355 Zn347 1.903 1_565 S
O355 C363 1.308 . S
O356 Zn344 1.924 . S
O356 C364 1.311 . S
O357 Zn348 1.977 . S
O357 C363 1.272 . S
O358 Zn348 1.910 1_545 S
O358 C364 1.231 . S
C359 O343 1.225 . S
C359 O365 1.298 . S
C360 O349 1.226 . S
C360 O350 1.307 . S
C361 O353 1.303 . S
C361 O354 1.247 1_565 S
C362 O351 1.253 . S
C362 O352 1.283 1_545 S
C363 O355 1.308 . S
C363 O357 1.272 . S
C364 O356 1.311 . S
C364 O358 1.231 . S
O365 Zn347 1.953 . S
O365 C359 1.298 . S
O366 Zn367 1.953 . S
O366 C382 1.225 . S
Zn367 O366 1.953 . S
Zn367 O368 1.949 . S
Zn367 O374 1.919 . S
Zn367 O379 1.924 . S
O368 Zn367 1.949 . S
O368 Zn369 1.923 . S
O368 Zn370 1.950 . S
O368 Zn371 1.945 . S
Zn369 O368 1.923 . S
Zn369 O372 1.933 . S
Zn369 O375 1.941 . S
Zn369 O376 1.965 . S
Zn370 O368 1.950 . S
Zn370 O377 1.938 . S
Zn370 O378 1.906 . S
Zn370 O388 1.953 . S
Zn371 O368 1.945 . S
Zn371 O373 1.932 . S
Zn371 O380 1.977 . S
Zn371 O381 1.910 . S
O372 Zn369 1.933 . S
O372 C383 1.226 . S
O373 Zn371 1.932 . S
O373 C383 1.307 . S
O374 Zn367 1.919 . S
O374 C385 1.253 . S
O375 Zn369 1.941 . S
O375 C385 1.283 . S
O376 Zn369 1.965 . S
O376 C384 1.303 . S
O377 Zn370 1.938 . S
O377 C384 1.247 . S
O378 Zn370 1.906 . S
O378 C386 1.304 . S
O379 Zn367 1.924 . S
O379 C387 1.311 . S
O380 Zn371 1.977 . S
O380 C386 1.272 . S
O381 Zn371 1.910 . S
O381 C387 1.231 . S
C382 O366 1.225 . S
C382 O388 1.298 . S
C383 O372 1.226 . S
C383 O373 1.307 . S
C384 O376 1.303 . S
C384 O377 1.247 . S
C385 O374 1.253 . S
C385 O375 1.283 . S
C386 O378 1.304 . S
C386 O380 1.272 . S
C387 O379 1.311 . S
C387 O381 1.231 . S
O388 Zn370 1.953 . S
O388 C382 1.298 . S
O389 Zn390 1.953 1_655 S
O389 C405 1.225 . S
Zn390 O389 1.953 1_455 S
Zn390 O391 1.949 . S
Zn390 O397 1.919 . S
Zn390 O402 1.924 . S
O391 Zn390 1.949 . S
O391 Zn392 1.923 . S
O391 Zn393 1.950 1_455 S
O391 Zn394 1.945 . S
Zn392 O391 1.923 . S
Zn392 O395 1.933 . S
Zn392 O398 1.941 . S
Zn392 O399 1.965 1_455 S
Zn393 O391 1.950 1_655 S
Zn393 O400 1.938 . S
Zn393 O401 1.906 1_655 S
Zn393 O411 1.953 . S
Zn394 O391 1.945 . S
Zn394 O396 1.932 . S
Zn394 O403 1.977 . S
Zn394 O404 1.910 . S
O395 Zn392 1.933 . S
O395 C406 1.226 . S
O396 Zn394 1.932 . S
O396 C406 1.307 . S
O397 Zn390 1.919 . S
O397 C408 1.253 . S
O398 Zn392 1.941 . S
O398 C408 1.283 . S
O399 Zn392 1.965 1_655 S
O399 C407 1.303 . S
O400 Zn393 1.938 . S
O400 C407 1.247 . S
O401 Zn393 1.906 1_455 S
O401 C409 1.304 . S
O402 Zn390 1.924 . S
O402 C410 1.311 . S
O403 Zn394 1.977 . S
O403 C409 1.272 . S
O404 Zn394 1.910 . S
O404 C410 1.231 . S
C405 O389 1.225 . S
C405 O411 1.298 . S
C406 O395 1.226 . S
C406 O396 1.307 . S
C407 O399 1.303 . S
C407 O400 1.247 . S
C408 O397 1.253 . S
C408 O398 1.283 . S
C409 O401 1.304 . S
C409 O403 1.272 . S
C410 O402 1.311 . S
C410 O404 1.231 . S
O411 Zn393 1.953 . S
O411 C405 1.298 . S
H412 C420 0.929 . S
H413 C422 0.930 . S
H414 C424 0.930 . S
H415 C427 0.929 . S
H416 C430 0.930 . S
H417 C432 0.960 . S
H418 C432 0.960 . S
H419 C432 0.960 . S
C420 H412 0.929 . S
C420 C421 1.398 . S
C420 C422 1.384 . S
C421 C420 1.398 . S
C421 C427 1.372 1_565 S
C422 H413 0.930 . S
C422 C420 1.384 . S
C422 C423 1.372 . S
C423 C422 1.372 . S
C423 C424 1.400 1_565 S
C423 C428 1.490 . S
C424 H414 0.930 . S
C424 C423 1.400 1_545 S
C424 C427 1.386 . S
H425 C441 0.930 . S
H426 C442 0.931 . S
C427 H415 0.929 . S
C427 C421 1.372 1_545 S
C427 C424 1.386 . S
C428 C423 1.490 . S
C428 C430 1.395 1_565 S
C428 C431 1.403 . S
H429 C435 0.930 . S
C430 H416 0.930 . S
C430 C428 1.395 1_545 S
C430 C433 1.403 . S
C431 C428 1.403 . S
C431 C432 1.524 . S
C431 C435 1.400 . S
C432 H417 0.960 . S
C432 H418 0.960 . S
C432 H419 0.960 . S
C432 C431 1.524 . S
C433 C430 1.403 . S
C433 C434 1.392 1_545 S
C433 C437 1.495 . S
C434 C433 1.392 1_565 S
C434 C435 1.385 . S
C434 C436 1.478 . S
C435 H429 0.930 . S
C435 C431 1.400 . S
C435 C434 1.385 . S
C436 C434 1.478 . S
C436 C438 1.381 . S
C436 C442 1.383 1_565 S
C437 C433 1.495 . S
C437 H443 0.959 . S
C437 H444 0.961 . S
C437 H445 0.960 . S
C438 C436 1.381 . S
C438 C439 1.394 . S
C438 H446 0.930 . S
C439 C438 1.394 . S
C439 C440 1.383 . S
C439 H447 0.929 . S
C440 C439 1.383 . S
C440 C441 1.377 1_565 S
C441 H425 0.930 . S
C441 C440 1.377 1_545 S
C441 C442 1.379 . S
C442 H426 0.931 . S
C442 C436 1.383 1_545 S
C442 C441 1.379 . S
H443 C437 0.959 . S
H444 C437 0.961 . S
H445 C437 0.960 . S
H446 C438 0.930 . S
H447 C439 0.929 . S
H448 C456 0.929 . S
H449 C458 0.930 . S
H450 C460 0.930 . S
H451 C463 0.929 . S
H452 C466 0.930 . S
H453 C468 0.960 . S
H454 C468 0.960 . S
H455 C468 0.960 . S
C456 H448 0.929 . S
C456 C457 1.377 . S
C456 C458 1.384 . S
C457 C456 1.377 . S
C457 C463 1.390 . S
C458 H449 0.930 . S
C458 C456 1.384 . S
C458 C459 1.372 . S
C459 C458 1.372 . S
C459 C460 1.400 . S
C459 C464 1.490 . S
C460 H450 0.930 . S
C460 C459 1.400 . S
C460 C463 1.386 . S
H461 C477 0.930 . S
H462 C478 0.931 . S
C463 H451 0.929 . S
C463 C457 1.390 . S
C463 C460 1.386 . S
C464 C459 1.490 . S
C464 C466 1.395 . S
C464 C467 1.403 . S
H465 C471 0.930 . S
C466 H452 0.930 . S
C466 C464 1.395 . S
C466 C469 1.403 . S
C467 C464 1.403 . S
C467 C468 1.524 . S
C467 C471 1.400 . S
C468 H453 0.960 . S
C468 H454 0.960 . S
C468 H455 0.960 . S
C468 C467 1.524 . S
C469 C466 1.403 . S
C469 C470 1.392 . S
C469 C473 1.495 . S
C470 C469 1.392 . S
C470 C471 1.385 . S
C470 C472 1.478 . S
C471 H465 0.930 . S
C471 C467 1.400 . S
C471 C470 1.385 . S
C472 C470 1.478 . S
C472 C474 1.381 . S
C472 C478 1.383 . S
C473 C469 1.495 . S
C473 H479 0.959 . S
C473 H480 0.961 . S
C473 H481 0.960 . S
C474 C472 1.381 . S
C474 C475 1.394 . S
C474 H482 0.930 . S
C475 C474 1.394 . S
C475 C476 1.383 . S
C475 H483 0.929 . S
C476 C475 1.383 . S
C476 C477 1.377 . S
C477 H461 0.930 . S
C477 C476 1.377 . S
C477 C478 1.379 . S
C478 H462 0.931 . S
C478 C472 1.383 . S
C478 C477 1.379 . S
H479 C473 0.959 . S
H480 C473 0.961 . S
H481 C473 0.960 . S
H482 C474 0.930 . S
H483 C475 0.929 . S
H484 C492 0.929 . S
H485 C494 0.930 . S
H486 C496 0.930 . S
H487 C499 0.929 . S
H488 C502 0.930 . S
H489 C504 0.960 . S
H490 C504 0.960 . S
H491 C504 0.960 . S
C492 H484 0.929 . S
C492 C493 1.377 . S
C492 C494 1.384 . S
C493 C492 1.377 . S
C493 C499 1.390 . S
C494 H485 0.930 . S
C494 C492 1.384 . S
C494 C495 1.372 . S
C495 C494 1.372 . S
C495 C496 1.400 . S
C495 C500 1.490 . S
C496 H486 0.930 . S
C496 C495 1.400 . S
C496 C499 1.386 . S
H497 C513 0.930 . S
H498 C514 0.931 . S
C499 H487 0.929 . S
C499 C493 1.390 . S
C499 C496 1.386 . S
C500 C495 1.490 . S
C500 C502 1.395 . S
C500 C503 1.403 . S
H501 C507 0.930 . S
C502 H488 0.930 . S
C502 C500 1.395 . S
C502 C505 1.403 . S
C503 C500 1.403 . S
C503 C504 1.524 . S
C503 C507 1.400 . S
C504 H489 0.960 . S
C504 H490 0.960 . S
C504 H491 0.960 . S
C504 C503 1.524 . S
C505 C502 1.403 . S
C505 C506 1.392 . S
C505 C509 1.495 . S
C506 C505 1.392 . S
C506 C507 1.385 . S
C506 C508 1.478 . S
C507 H501 0.930 . S
C507 C503 1.400 . S
C507 C506 1.385 . S
C508 C506 1.478 . S
C508 C510 1.381 . S
C508 C514 1.383 . S
C509 C505 1.495 . S
C509 H515 0.959 . S
C509 H516 0.961 . S
C509 H517 0.960 . S
C510 C508 1.381 . S
C510 C511 1.394 . S
C510 H518 0.930 . S
C511 C510 1.394 . S
C511 C512 1.383 . S
C511 H519 0.929 . S
C512 C511 1.383 . S
C512 C513 1.377 . S
C513 H497 0.930 . S
C513 C512 1.377 . S
C513 C514 1.379 . S
C514 H498 0.931 . S
C514 C508 1.383 . S
C514 C513 1.379 . S
H515 C509 0.959 . S
H516 C509 0.961 . S
H517 C509 0.960 . S
H518 C510 0.930 . S
H519 C511 0.929 . S
H520 C528 0.929 . S
H521 C530 0.930 . S
H522 C532 0.930 . S
H523 C535 0.929 . S
H524 C538 0.930 . S
H525 C540 0.960 . S
H526 C540 0.960 . S
H527 C540 0.960 . S
C528 H520 0.929 . S
C528 C529 1.377 . S
C528 C530 1.384 . S
C529 C528 1.377 . S
C529 C535 1.390 . S
C530 H521 0.930 . S
C530 C528 1.384 . S
C530 C531 1.372 . S
C531 C530 1.372 . S
C531 C532 1.400 . S
C531 C536 1.490 . S
C532 H522 0.930 . S
C532 C531 1.400 . S
C532 C535 1.386 . S
H533 C549 0.930 . S
H534 C550 0.931 . S
C535 H523 0.929 . S
C535 C529 1.390 . S
C535 C532 1.386 . S
C536 C531 1.490 . S
C536 C538 1.395 . S
C536 C539 1.403 . S
H537 C543 0.930 . S
C538 H524 0.930 . S
C538 C536 1.395 . S
C538 C541 1.403 . S
C539 C536 1.403 . S
C539 C540 1.524 . S
C539 C543 1.400 . S
C540 H525 0.960 . S
C540 H526 0.960 . S
C540 H527 0.960 . S
C540 C539 1.524 . S
C541 C538 1.403 . S
C541 C542 1.392 . S
C541 C545 1.495 . S
C542 C541 1.392 . S
C542 C543 1.385 . S
C542 C544 1.478 . S
C543 H537 0.930 . S
C543 C539 1.400 . S
C543 C542 1.385 . S
C544 C542 1.478 . S
C544 C546 1.381 . S
C544 C550 1.383 . S
C545 C541 1.495 . S
C545 H551 0.959 . S
C545 H552 0.961 . S
C545 H553 0.960 . S
C546 C544 1.381 . S
C546 C547 1.394 . S
C546 H554 0.930 . S
C547 C546 1.394 . S
C547 C548 1.383 . S
C547 H555 0.929 . S
C548 C547 1.383 . S
C548 C549 1.377 . S
C549 H533 0.930 . S
C549 C548 1.377 . S
C549 C550 1.379 . S
C550 H534 0.931 . S
C550 C544 1.383 . S
C550 C549 1.379 . S
H551 C545 0.959 . S
H552 C545 0.961 . S
H553 C545 0.960 . S
H554 C546 0.930 . S
H555 C547 0.929 . S
H556 C564 0.929 . S
H557 C566 0.930 . S
H558 C568 0.930 . S
H559 C571 0.929 . S
H560 C574 0.930 . S
H561 C576 0.960 . S
H562 C576 0.960 . S
H563 C576 0.960 . S
C564 H556 0.929 . S
C564 C565 1.385 1_554 S
C564 C566 1.384 1_554 S
C565 C564 1.385 1_556 S
C565 C571 1.383 1_545 S
C566 H557 0.930 . S
C566 C564 1.384 1_556 S
C566 C567 1.372 . S
C567 C566 1.372 . S
C567 C568 1.400 1_545 S
C567 C572 1.490 . S
C568 H558 0.930 . S
C568 C567 1.400 1_565 S
C568 C571 1.386 . S
H569 C585 0.930 . S
H570 C586 0.931 . S
C571 H559 0.929 . S
C571 C565 1.383 1_565 S
C571 C568 1.386 . S
C572 C567 1.490 . S
C572 C574 1.395 1_545 S
C572 C575 1.403 . S
H573 C579 0.930 . S
C574 H560 0.930 . S
C574 C572 1.395 1_565 S
C574 C577 1.403 . S
C575 C572 1.403 . S
C575 C576 1.524 . S
C575 C579 1.400 . S
C576 H561 0.960 . S
C576 H562 0.960 . S
C576 H563 0.960 . S
C576 C575 1.524 . S
C577 C574 1.403 . S
C577 C578 1.392 1_565 S
C577 C581 1.495 . S
C578 C577 1.392 1_545 S
C578 C579 1.385 . S
C578 C580 1.478 . S
C579 H573 0.930 . S
C579 C575 1.400 . S
C579 C578 1.385 . S
C580 C578 1.478 . S
C580 C582 1.381 . S
C580 C586 1.383 1_545 S
C581 C577 1.495 . S
C581 H587 0.959 . S
C581 H588 0.961 . S
C581 H589 0.960 . S
C582 C580 1.381 . S
C582 C583 1.394 . S
C582 H590 0.930 . S
C583 C582 1.394 . S
C583 C584 1.383 . S
C583 H591 0.929 . S
C584 C583 1.383 . S
C584 C585 1.377 1_545 S
C585 H569 0.930 . S
C585 C584 1.377 1_565 S
C585 C586 1.379 . S
C586 H570 0.931 . S
C586 C580 1.383 1_565 S
C586 C585 1.379 . S
H587 C581 0.959 . S
H588 C581 0.961 . S
H589 C581 0.960 . S
H590 C582 0.930 . S
H591 C583 0.929 . S
H592 C600 0.929 . S
H593 C602 0.930 . S
H594 C604 0.930 . S
H595 C607 0.929 1_554 S
H596 C610 0.930 . S
H597 C612 0.960 . S
H598 C612 0.960 . S
H599 C612 0.960 . S
C600 H592 0.929 . S
C600 C601 1.377 . S
C600 C602 1.384 . S
C601 C600 1.377 . S
C601 C607 1.390 . S
C602 H593 0.930 . S
C602 C600 1.384 . S
C602 C603 1.372 . S
C603 C602 1.372 . S
C603 C604 1.400 . S
C603 C608 1.490 . S
C604 H594 0.930 . S
C604 C603 1.400 . S
C604 C607 1.386 . S
H605 C621 0.930 . S
H606 C622 0.931 . S
C607 H595 0.929 1_556 S
C607 C601 1.390 . S
C607 C604 1.386 . S
C608 C603 1.490 . S
C608 C610 1.395 . S
C608 C611 1.403 . S
H609 C615 0.930 . S
C610 H596 0.930 . S
C610 C608 1.395 . S
C610 C613 1.403 . S
C611 C608 1.403 . S
C611 C612 1.524 . S
C611 C615 1.400 . S
C612 H597 0.960 . S
C612 H598 0.960 . S
C612 H599 0.960 . S
C612 C611 1.524 . S
C613 C610 1.403 . S
C613 C614 1.392 . S
C613 C617 1.495 . S
C614 C613 1.392 . S
C614 C615 1.385 . S
C614 C616 1.478 . S
C615 H609 0.930 . S
C615 C611 1.400 . S
C615 C614 1.385 . S
C616 C614 1.478 . S
C616 C618 1.381 . S
C616 C622 1.383 . S
C617 C613 1.495 . S
C617 H623 0.959 . S
C617 H624 0.961 . S
C617 H625 0.960 . S
C618 C616 1.381 . S
C618 C619 1.394 . S
C618 H626 0.930 . S
C619 C618 1.394 . S
C619 C620 1.383 . S
C619 H627 0.929 . S
C620 C619 1.383 . S
C620 C621 1.377 . S
C621 H605 0.930 . S
C621 C620 1.377 . S
C621 C622 1.379 . S
C622 H606 0.931 . S
C622 C616 1.383 . S
C622 C621 1.379 . S
H623 C617 0.959 . S
H624 C617 0.961 . S
H625 C617 0.960 . S
H626 C618 0.930 . S
H627 C619 0.929 . S
H628 C636 0.929 . S
H629 C638 0.930 . S
H630 C640 0.930 . S
H631 C643 0.929 . S
H632 C646 0.930 . S
H633 C648 0.960 . S
H634 C648 0.960 . S
H635 C648 0.960 . S
C636 H628 0.929 . S
C636 C637 1.377 . S
C636 C638 1.384 . S
C637 C636 1.377 . S
C637 C643 1.390 . S
C638 H629 0.930 . S
C638 C636 1.384 . S
C638 C639 1.372 . S
C639 C638 1.372 . S
C639 C640 1.400 . S
C639 C644 1.490 . S
C640 H630 0.930 . S
C640 C639 1.400 . S
C640 C643 1.386 . S
H641 C657 0.930 . S
H642 C658 0.931 . S
C643 H631 0.929 . S
C643 C637 1.390 . S
C643 C640 1.386 . S
C644 C639 1.490 . S
C644 C646 1.395 . S
C644 C647 1.403 . S
H645 C651 0.930 . S
C646 H632 0.930 . S
C646 C644 1.395 . S
C646 C649 1.403 . S
C647 C644 1.403 . S
C647 C648 1.524 . S
C647 C651 1.400 . S
C648 H633 0.960 . S
C648 H634 0.960 . S
C648 H635 0.960 . S
C648 C647 1.524 . S
C649 C646 1.403 . S
C649 C650 1.392 . S
C649 C653 1.495 . S
C650 C649 1.392 . S
C650 C651 1.385 . S
C650 C652 1.478 . S
C651 H645 0.930 . S
C651 C647 1.400 . S
C651 C650 1.385 . S
C652 C650 1.478 . S
C652 C654 1.381 . S
C652 C658 1.383 . S
C653 C649 1.495 . S
C653 H659 0.959 . S
C653 H660 0.961 . S
C653 H661 0.960 . S
C654 C652 1.381 . S
C654 C655 1.394 . S
C654 H662 0.930 . S
C655 C654 1.394 . S
C655 C656 1.383 . S
C655 H663 0.929 . S
C656 C655 1.383 . S
C656 C657 1.377 . S
C657 H641 0.930 . S
C657 C656 1.377 . S
C657 C658 1.379 . S
C658 H642 0.931 . S
C658 C652 1.383 . S
C658 C657 1.379 . S
H659 C653 0.959 . S
H660 C653 0.961 . S
H661 C653 0.960 . S
H662 C654 0.930 . S
H663 C655 0.929 . S
H664 C672 0.929 . S
H665 C674 0.930 . S
H666 C676 0.930 . S
H667 C679 0.929 . S
H668 C682 0.930 . S
H669 C684 0.960 . S
H670 C684 0.960 . S
H671 C684 0.960 . S
C672 H664 0.929 . S
C672 C673 1.377 1_455 S
C672 C674 1.384 1_554 S
C673 C672 1.377 1_655 S
C673 C679 1.390 1_554 S
C674 H665 0.930 . S
C674 C672 1.384 1_556 S
C674 C675 1.372 1_455 S
C675 C674 1.372 1_655 S
C675 C676 1.400 . S
C675 C680 1.496 . S
C676 H666 0.930 . S
C676 C675 1.400 . S
C676 C679 1.386 . S
H677 C693 0.930 . S
H678 C694 0.931 . S
C679 H667 0.929 . S
C679 C673 1.390 1_556 S
C679 C676 1.386 . S
C680 C675 1.496 . S
C680 C682 1.409 . S
C680 C683 1.384 1_655 S
H681 C687 0.930 . S
C682 H668 0.930 . S
C682 C680 1.409 . S
C682 C685 1.403 . S
C683 C680 1.384 1_455 S
C683 C684 1.524 . S
C683 C687 1.400 . S
C684 H669 0.960 . S
C684 H670 0.960 . S
C684 H671 0.960 . S
C684 C683 1.524 . S
C685 C682 1.403 . S
C685 C686 1.392 1_655 S
C685 C689 1.495 . S
C686 C685 1.392 1_455 S
C686 C687 1.385 . S
C686 C688 1.478 . S
C687 H681 0.930 . S
C687 C683 1.400 . S
C687 C686 1.385 . S
C688 C686 1.478 . S
C688 C690 1.381 . S
C688 C694 1.383 1_455 S
C689 C685 1.495 . S
C689 H695 0.959 . S
C689 H696 0.961 . S
C689 H697 0.960 . S
C690 C688 1.381 . S
C690 C691 1.394 . S
C690 H698 0.930 . S
C691 C690 1.394 . S
C691 C692 1.383 . S
C691 H699 0.929 . S
C692 C691 1.383 . S
C692 C693 1.377 1_455 S
C693 H677 0.930 . S
C693 C692 1.377 1_655 S
C693 C694 1.379 . S
C694 H678 0.931 . S
C694 C688 1.383 1_655 S
C694 C693 1.379 . S
H695 C689 0.959 . S
H696 C689 0.961 . S
H697 C689 0.960 . S
H698 C690 0.930 . S
H699 C691 0.929 . S
H700 C708 0.929 . S
H701 C710 0.930 . S
H702 C712 0.930 . S
H703 C715 0.929 . S
H704 C718 0.930 . S
H705 C720 0.960 . S
H706 C720 0.960 . S
H707 C720 0.960 . S
C708 H700 0.929 . S
C708 C709 1.377 . S
C708 C710 1.384 . S
C709 C708 1.377 . S
C709 C715 1.390 . S
C710 H701 0.930 . S
C710 C708 1.384 . S
C710 C711 1.372 . S
C711 C710 1.372 . S
C711 C712 1.400 . S
C711 C716 1.490 . S
C712 H702 0.930 . S
C712 C711 1.400 . S
C712 C715 1.386 . S
H713 C729 0.930 . S
H714 C730 0.931 . S
C715 H703 0.929 . S
C715 C709 1.390 . S
C715 C712 1.386 . S
C716 C711 1.490 . S
C716 C718 1.395 . S
C716 C719 1.403 . S
H717 C723 0.930 . S
C718 H704 0.930 . S
C718 C716 1.395 . S
C718 C721 1.403 . S
C719 C716 1.403 . S
C719 C720 1.524 . S
C719 C723 1.400 . S
C720 H705 0.960 . S
C720 H706 0.960 . S
C720 H707 0.960 . S
C720 C719 1.524 . S
C721 C718 1.403 . S
C721 C722 1.392 . S
C721 C725 1.495 . S
C722 C721 1.392 . S
C722 C723 1.385 . S
C722 C724 1.478 . S
C723 H717 0.930 . S
C723 C719 1.400 . S
C723 C722 1.385 . S
C724 C722 1.478 . S
C724 C726 1.381 . S
C724 C730 1.383 . S
C725 C721 1.495 . S
C725 H731 0.959 . S
C725 H732 0.961 . S
C725 H733 0.960 . S
C726 C724 1.381 . S
C726 C727 1.394 . S
C726 H734 0.930 . S
C727 C726 1.394 . S
C727 C728 1.383 . S
C727 H735 0.929 . S
C728 C727 1.383 . S
C728 C729 1.377 . S
C729 H713 0.930 . S
C729 C728 1.377 . S
C729 C730 1.379 . S
C730 H714 0.931 . S
C730 C724 1.383 . S
C730 C729 1.379 . S
H731 C725 0.959 . S
H732 C725 0.961 . S
H733 C725 0.960 . S
H734 C726 0.930 . S
H735 C727 0.929 . S
H736 C744 0.929 . S
H737 C746 0.930 . S
H738 C748 0.930 . S
H739 C751 0.929 . S
H740 C754 0.930 . S
H741 C756 0.960 . S
H742 C756 0.960 . S
H743 C756 0.960 1_565 S
C744 H736 0.929 . S
C744 C745 1.413 . S
C744 C746 1.384 . S
C745 C744 1.413 . S
C745 C751 1.353 1_545 S
C746 H737 0.930 . S
C746 C744 1.384 . S
C746 C747 1.419 . S
C747 C746 1.419 . S
C747 C748 1.357 1_545 S
C747 C752 1.489 . S
C748 H738 0.930 . S
C748 C747 1.357 1_565 S
C748 C751 1.386 . S
H749 C765 0.930 . S
H750 C766 0.931 . S
C751 H739 0.929 . S
C751 C745 1.353 1_565 S
C751 C748 1.386 . S
C752 C747 1.489 . S
C752 C754 1.393 1_545 S
C752 C755 1.403 . S
H753 C759 0.931 . S
C754 H740 0.930 . S
C754 C752 1.393 1_565 S
C754 C757 1.401 . S
C755 C752 1.403 . S
C755 C756 1.524 . S
C755 C759 1.403 . S
C756 H741 0.960 . S
C756 H742 0.960 . S
C756 H743 0.960 1_545 S
C756 C755 1.524 . S
C757 C754 1.401 . S
C757 C758 1.393 . S
C757 C761 1.500 . S
C758 C757 1.393 . S
C758 C759 1.383 1_565 S
C758 C760 1.480 . S
C759 H753 0.931 . S
C759 C755 1.403 . S
C759 C758 1.383 1_545 S
C760 C758 1.480 . S
C760 C762 1.381 1_565 S
C760 C766 1.383 . S
C761 C757 1.500 . S
C761 H767 0.959 . S
C761 H768 0.961 . S
C761 H769 0.960 1_565 S
C762 C760 1.381 1_545 S
C762 C763 1.394 . S
C762 H770 0.930 . S
C763 C762 1.394 . S
C763 C764 1.383 1_545 S
C763 H771 0.929 . S
C764 C763 1.383 1_565 S
C764 C765 1.377 . S
C765 H749 0.930 . S
C765 C764 1.377 . S
C765 C766 1.379 . S
C766 H750 0.931 . S
C766 C760 1.383 . S
C766 C765 1.379 . S
H767 C761 0.959 . S
H768 C761 0.961 . S
H769 C761 0.960 1_545 S
H770 C762 0.930 . S
H771 C763 0.929 . S
H772 C780 0.929 . S
H773 C782 0.930 . S
H774 C784 0.930 . S
H775 C787 0.929 . S
H776 C790 0.930 . S
H777 C792 0.960 . S
H778 C792 0.960 . S
H779 C792 0.960 . S
C780 H772 0.929 . S
C780 C781 1.377 . S
C780 C782 1.384 . S
C781 C780 1.377 . S
C781 C787 1.390 . S
C782 H773 0.930 . S
C782 C780 1.384 . S
C782 C783 1.372 . S
C783 C782 1.372 . S
C783 C784 1.400 . S
C783 C788 1.490 . S
C784 H774 0.930 . S
C784 C783 1.400 . S
C784 C787 1.386 . S
H785 C801 0.930 . S
H786 C802 0.931 . S
C787 H775 0.929 . S
C787 C781 1.390 . S
C787 C784 1.386 . S
C788 C783 1.490 . S
C788 C790 1.395 . S
C788 C791 1.403 . S
H789 C795 0.930 . S
C790 H776 0.930 . S
C790 C788 1.395 . S
C790 C793 1.403 . S
C791 C788 1.403 . S
C791 C792 1.524 . S
C791 C795 1.400 . S
C792 H777 0.960 . S
C792 H778 0.960 . S
C792 H779 0.960 . S
C792 C791 1.524 . S
C793 C790 1.403 . S
C793 C794 1.392 . S
C793 C797 1.495 . S
C794 C793 1.392 . S
C794 C795 1.385 . S
C794 C796 1.478 . S
C795 H789 0.930 . S
C795 C791 1.400 . S
C795 C794 1.385 . S
C796 C794 1.478 . S
C796 C798 1.381 . S
C796 C802 1.383 . S
C797 C793 1.495 . S
C797 H803 0.959 . S
C797 H804 0.961 . S
C797 H805 0.960 . S
C798 C796 1.381 . S
C798 C799 1.394 . S
C798 H806 0.930 . S
C799 C798 1.394 . S
C799 C800 1.383 . S
C799 H807 0.929 . S
C800 C799 1.383 . S
C800 C801 1.377 . S
C801 H785 0.930 . S
C801 C800 1.377 . S
C801 C802 1.379 . S
C802 H786 0.931 . S
C802 C796 1.383 . S
C802 C801 1.379 . S
H803 C797 0.959 . S
H804 C797 0.961 . S
H805 C797 0.960 . S
H806 C798 0.930 . S
H807 C799 0.929 . S
H808 C816 0.929 . S
H809 C818 0.930 . S
H810 C820 0.930 . S
H811 C823 0.929 . S
H812 C826 0.930 . S
H813 C828 0.960 . S
H814 C828 0.960 . S
H815 C828 0.960 . S
C816 H808 0.929 . S
C816 C817 1.377 . S
C816 C818 1.384 . S
C817 C816 1.377 . S
C817 C823 1.390 . S
C818 H809 0.930 . S
C818 C816 1.384 . S
C818 C819 1.372 . S
C819 C818 1.372 . S
C819 C820 1.400 . S
C819 C824 1.490 . S
C820 H810 0.930 . S
C820 C819 1.400 . S
C820 C823 1.386 . S
H821 C837 0.930 . S
H822 C838 0.931 . S
C823 H811 0.929 . S
C823 C817 1.390 . S
C823 C820 1.386 . S
C824 C819 1.490 . S
C824 C826 1.395 . S
C824 C827 1.403 . S
H825 C831 0.930 . S
C826 H812 0.930 . S
C826 C824 1.395 . S
C826 C829 1.403 . S
C827 C824 1.403 . S
C827 C828 1.524 . S
C827 C831 1.400 . S
C828 H813 0.960 . S
C828 H814 0.960 . S
C828 H815 0.960 . S
C828 C827 1.524 . S
C829 C826 1.403 . S
C829 C830 1.392 . S
C829 C833 1.495 . S
C830 C829 1.392 . S
C830 C831 1.385 . S
C830 C832 1.478 . S
C831 H825 0.930 . S
C831 C827 1.400 . S
C831 C830 1.385 . S
C832 C830 1.478 . S
C832 C834 1.381 . S
C832 C838 1.383 . S
C833 C829 1.495 . S
C833 H839 0.959 . S
C833 H840 0.961 . S
C833 H841 0.960 . S
C834 C832 1.381 . S
C834 C835 1.394 . S
C834 H842 0.930 . S
C835 C834 1.394 . S
C835 C836 1.383 . S
C835 H843 0.929 . S
C836 C835 1.383 . S
C836 C837 1.377 . S
C837 H821 0.930 . S
C837 C836 1.377 . S
C837 C838 1.379 . S
C838 H822 0.931 . S
C838 C832 1.383 . S
C838 C837 1.379 . S
H839 C833 0.959 . S
H840 C833 0.961 . S
H841 C833 0.960 . S
H842 C834 0.930 . S
H843 C835 0.929 . S
H844 C852 0.929 . S
H845 C854 0.930 1_455 S
H846 C856 0.930 . S
H847 C859 0.929 . S
H848 C862 0.930 . S
H849 C864 0.960 . S
H850 C864 0.960 . S
H851 C864 0.960 . S
C852 H844 0.929 . S
C852 C853 1.377 . S
C852 C854 1.392 . S
C853 C852 1.377 . S
C853 C859 1.390 . S
C854 H845 0.930 1_655 S
C854 C852 1.392 . S
C854 C855 1.364 1_655 S
C855 C854 1.364 1_455 S
C855 C856 1.400 . S
C855 C860 1.490 . S
C856 H846 0.930 . S
C856 C855 1.400 . S
C856 C859 1.386 1_455 S
H857 C873 0.930 . S
H858 C874 0.931 . S
C859 H847 0.929 . S
C859 C853 1.390 . S
C859 C856 1.386 1_655 S
C860 C855 1.490 . S
C860 C862 1.395 . S
C860 C863 1.403 . S
H861 C867 0.930 . S
C862 H848 0.930 . S
C862 C860 1.395 . S
C862 C865 1.403 . S
C863 C860 1.403 . S
C863 C864 1.524 1_455 S
C863 C867 1.400 . S
C864 H849 0.960 . S
C864 H850 0.960 . S
C864 H851 0.960 . S
C864 C863 1.524 1_655 S
C865 C862 1.403 . S
C865 C866 1.392 . S
C865 C869 1.495 . S
C866 C865 1.392 . S
C866 C867 1.385 . S
C866 C868 1.478 . S
C867 H861 0.930 . S
C867 C863 1.400 . S
C867 C866 1.385 . S
C868 C866 1.478 . S
C868 C870 1.381 . S
C868 C874 1.383 . S
C869 C865 1.495 . S
C869 H875 0.959 . S
C869 H876 0.961 . S
C869 H877 0.960 . S
C870 C868 1.381 . S
C870 C871 1.394 . S
C870 H878 0.930 . S
C871 C870 1.394 . S
C871 C872 1.383 . S
C871 H879 0.929 . S
C872 C871 1.383 . S
C872 C873 1.377 . S
C873 H857 0.930 . S
C873 C872 1.377 . S
C873 C874 1.379 . S
C874 H858 0.931 . S
C874 C868 1.383 . S
C874 C873 1.379 . S
H875 C869 0.959 . S
H876 C869 0.961 . S
H877 C869 0.960 . S
H878 C870 0.930 . S
H879 C871 0.929 . S
H880 C888 0.929 . S
H881 C890 0.930 . S
H882 C892 0.930 . S
H883 C895 0.929 . S
H884 C898 0.930 . S
H885 C900 0.960 . S
H886 C900 0.960 . S
H887 C900 0.960 . S
C888 H880 0.929 . S
C888 C889 1.377 . S
C888 C890 1.384 . S
C889 C888 1.377 . S
C889 C895 1.390 1_565 S
C890 H881 0.930 . S
C890 C888 1.384 . S
C890 C891 1.372 1_565 S
C891 C890 1.372 1_545 S
C891 C892 1.400 . S
C891 C896 1.490 . S
C892 H882 0.930 . S
C892 C891 1.400 . S
C892 C895 1.386 . S
H893 C909 0.930 . S
H894 C910 0.931 . S
C895 H883 0.929 . S
C895 C889 1.390 1_545 S
C895 C892 1.386 . S
C896 C891 1.490 . S
C896 C898 1.395 1_545 S
C896 C899 1.403 . S
H897 C903 0.930 . S
C898 H884 0.930 . S
C898 C896 1.395 1_565 S
C898 C901 1.403 . S
C899 C896 1.403 . S
C899 C900 1.524 . S
C899 C903 1.400 . S
C900 H885 0.960 . S
C900 H886 0.960 . S
C900 H887 0.960 . S
C900 C899 1.524 . S
C901 C898 1.403 . S
C901 C902 1.392 1_565 S
C901 C905 1.495 . S
C902 C901 1.392 1_545 S
C902 C903 1.385 . S
C902 C904 1.478 . S
C903 H897 0.930 . S
C903 C899 1.400 . S
C903 C902 1.385 . S
C904 C902 1.478 . S
C904 C906 1.381 . S
C904 C910 1.383 . S
C905 C901 1.495 . S
C905 H911 0.959 . S
C905 H912 0.961 . S
C905 H913 0.960 . S
C906 C904 1.381 . S
C906 C907 1.394 . S
C906 H914 0.930 1_545 S
C907 C906 1.394 . S
C907 C908 1.383 . S
C907 H915 0.929 . S
C908 C907 1.383 . S
C908 C909 1.377 . S
C909 H893 0.930 . S
C909 C908 1.377 . S
C909 C910 1.379 . S
C910 H894 0.931 . S
C910 C904 1.383 . S
C910 C909 1.379 . S
H911 C905 0.959 . S
H912 C905 0.961 . S
H913 C905 0.960 . S
H914 C906 0.930 1_565 S
H915 C907 0.929 . S
H916 C924 0.929 . S
H917 C926 0.930 . S
H918 C928 0.930 . S
H919 C931 0.929 . S
H920 C934 0.930 . S
H921 C936 0.960 . S
H922 C936 0.960 . S
H923 C936 0.960 . S
C924 H916 0.929 . S
C924 C925 1.377 . S
C924 C926 1.384 . S
C925 C924 1.377 . S
C925 C931 1.390 . S
C926 H917 0.930 . S
C926 C924 1.384 . S
C926 C927 1.372 . S
C927 C926 1.372 . S
C927 C928 1.400 . S
C927 C932 1.490 . S
C928 H918 0.930 . S
C928 C927 1.400 . S
C928 C931 1.386 . S
H929 C945 0.930 . S
H930 C946 0.931 . S
C931 H919 0.929 . S
C931 C925 1.390 . S
C931 C928 1.386 . S
C932 C927 1.490 . S
C932 C934 1.395 . S
C932 C935 1.403 . S
H933 C939 0.930 . S
C934 H920 0.930 . S
C934 C932 1.395 . S
C934 C937 1.403 . S
C935 C932 1.403 . S
C935 C936 1.524 . S
C935 C939 1.400 . S
C936 H921 0.960 . S
C936 H922 0.960 . S
C936 H923 0.960 . S
C936 C935 1.524 . S
C937 C934 1.403 . S
C937 C938 1.392 . S
C937 C941 1.495 . S
C938 C937 1.392 . S
C938 C939 1.385 . S
C938 C940 1.478 . S
C939 H933 0.930 . S
C939 C935 1.400 . S
C939 C938 1.385 . S
C940 C938 1.478 . S
C940 C942 1.381 . S
C940 C946 1.383 . S
C941 C937 1.495 . S
C941 H947 0.959 . S
C941 H948 0.961 . S
C941 H949 0.960 . S
C942 C940 1.381 . S
C942 C943 1.394 . S
C942 H950 0.930 . S
C943 C942 1.394 . S
C943 C944 1.383 . S
C943 H951 0.929 . S
C944 C943 1.383 . S
C944 C945 1.377 . S
C945 H929 0.930 . S
C945 C944 1.377 . S
C945 C946 1.379 . S
C946 H930 0.931 . S
C946 C940 1.383 . S
C946 C945 1.379 . S
H947 C941 0.959 . S
H948 C941 0.961 . S
H949 C941 0.960 . S
H950 C942 0.930 . S
H951 C943 0.929 . S
H952 C960 0.929 . S
H953 C962 0.930 . S
H954 C964 0.930 . S
H955 C967 0.929 . S
H956 C970 0.930 . S
H957 C972 0.960 . S
H958 C972 0.960 . S
H959 C972 0.960 . S
C960 H952 0.929 . S
C960 C961 1.377 . S
C960 C962 1.384 . S
C961 C960 1.377 . S
C961 C967 1.390 . S
C962 H953 0.930 . S
C962 C960 1.384 . S
C962 C963 1.372 . S
C963 C962 1.372 . S
C963 C964 1.400 . S
C963 C968 1.490 . S
C964 H954 0.930 . S
C964 C963 1.400 . S
C964 C967 1.386 . S
H965 C981 0.930 . S
H966 C982 0.931 . S
C967 H955 0.929 . S
C967 C961 1.390 . S
C967 C964 1.386 . S
C968 C963 1.490 . S
C968 C970 1.395 . S
C968 C971 1.403 . S
H969 C975 0.930 . S
C970 H956 0.930 . S
C970 C968 1.395 . S
C970 C973 1.403 . S
C971 C968 1.403 . S
C971 C972 1.524 . S
C971 C975 1.400 . S
C972 H957 0.960 . S
C972 H958 0.960 . S
C972 H959 0.960 . S
C972 C971 1.524 . S
C973 C970 1.403 . S
C973 C974 1.392 . S
C973 C977 1.495 . S
C974 C973 1.392 . S
C974 C975 1.385 . S
C974 C976 1.478 . S
C975 H969 0.930 . S
C975 C971 1.400 . S
C975 C974 1.385 . S
C976 C974 1.478 . S
C976 C978 1.381 . S
C976 C982 1.383 . S
C977 C973 1.495 . S
C977 H983 0.959 . S
C977 H984 0.961 . S
C977 H985 0.960 . S
C978 C976 1.381 . S
C978 C979 1.394 . S
C978 H986 0.930 . S
C979 C978 1.394 . S
C979 C980 1.383 . S
C979 H987 0.929 . S
C980 C979 1.383 . S
C980 C981 1.377 . S
C981 H965 0.930 . S
C981 C980 1.377 . S
C981 C982 1.379 . S
C982 H966 0.931 . S
C982 C976 1.383 . S
C982 C981 1.379 . S
H983 C977 0.959 . S
H984 C977 0.961 . S
H985 C977 0.960 . S
H986 C978 0.930 . S
H987 C979 0.929 . S
H988 C996 0.929 . S
H989 C998 0.930 . S
H990 C1000 0.931 1_556 S
H991 C1003 0.929 . S
H992 C1006 0.930 . S
H993 C1008 0.960 . S
H994 C1008 0.960 1_554 S
H995 C1008 0.960 . S
C996 H988 0.929 . S
C996 C997 1.377 . S
C996 C998 1.384 . S
C997 C996 1.377 . S
C997 C1003 1.390 . S
C998 H989 0.930 . S
C998 C996 1.384 . S
C998 C999 1.372 . S
C999 C998 1.372 . S
C999 C1000 1.399 . S
C999 C1004 1.490 1_554 S
C1000 H990 0.931 1_554 S
C1000 C999 1.399 . S
C1000 C1003 1.385 . S
H1001 C1017 0.930 . S
H1002 C1018 0.931 . S
C1003 H991 0.929 . S
C1003 C997 1.390 . S
C1003 C1000 1.385 . S
C1004 C999 1.490 1_556 S
C1004 C1006 1.395 . S
C1004 C1007 1.403 . S
H1005 C1011 0.930 . S
C1006 H992 0.930 . S
C1006 C1004 1.395 . S
C1006 C1009 1.403 . S
C1007 C1004 1.403 . S
C1007 C1008 1.524 . S
C1007 C1011 1.400 . S
C1008 H993 0.960 . S
C1008 H994 0.960 1_556 S
C1008 H995 0.960 . S
C1008 C1007 1.524 . S
C1009 C1006 1.403 . S
C1009 C1010 1.392 . S
C1009 C1013 1.495 . S
C1010 C1009 1.392 . S
C1010 C1011 1.385 . S
C1010 C1012 1.478 . S
C1011 H1005 0.930 . S
C1011 C1007 1.400 . S
C1011 C1010 1.385 . S
C1012 C1010 1.478 . S
C1012 C1014 1.381 . S
C1012 C1018 1.383 . S
C1013 C1009 1.495 . S
C1013 H1019 0.959 . S
C1013 H1020 0.961 . S
C1013 H1021 0.960 . S
C1014 C1012 1.381 . S
C1014 C1015 1.394 . S
C1014 H1022 0.930 . S
C1015 C1014 1.394 . S
C1015 C1016 1.383 . S
C1015 H1023 0.929 . S
C1016 C1015 1.383 . S
C1016 C1017 1.377 . S
C1017 H1001 0.930 . S
C1017 C1016 1.377 . S
C1017 C1018 1.379 . S
C1018 H1002 0.931 . S
C1018 C1012 1.383 . S
C1018 C1017 1.379 . S
H1019 C1013 0.959 . S
H1020 C1013 0.961 . S
H1021 C1013 0.960 . S
H1022 C1014 0.930 . S
H1023 C1015 0.929 . S
H1024 C1032 0.929 . S
H1025 C1034 0.930 . S
H1026 C1036 0.930 . S
H1027 C1039 0.929 . S
H1028 C1042 0.930 . S
H1029 C1044 0.960 . S
H1030 C1044 0.960 1_554 S
H1031 C1044 0.960 . S
C1032 H1024 0.929 . S
C1032 C1033 1.380 1_565 S
C1032 C1034 1.384 1_554 S
C1033 C1032 1.380 1_545 S
C1033 C1039 1.387 . S
C1034 H1025 0.930 . S
C1034 C1032 1.384 1_556 S
C1034 C1035 1.412 . S
C1035 C1034 1.412 . S
C1035 C1036 1.357 1_565 S
C1035 C1040 1.493 . S
C1036 H1026 0.930 . S
C1036 C1035 1.357 1_545 S
C1036 C1039 1.386 1_556 S
H1037 C1053 0.930 . S
H1038 C1054 0.931 . S
C1039 H1027 0.929 . S
C1039 C1033 1.387 . S
C1039 C1036 1.386 1_554 S
C1040 C1035 1.493 . S
C1040 C1042 1.395 . S
C1040 C1043 1.403 1_565 S
H1041 C1047 0.930 . S
C1042 H1028 0.930 . S
C1042 C1040 1.395 . S
C1042 C1045 1.403 . S
C1043 C1040 1.403 1_545 S
C1043 C1044 1.524 . S
C1043 C1047 1.400 . S
C1044 H1029 0.960 . S
C1044 H1030 0.960 1_556 S
C1044 H1031 0.960 . S
C1044 C1043 1.524 . S
C1045 C1042 1.403 . S
C1045 C1046 1.392 . S
C1045 C1049 1.495 . S
C1046 C1045 1.392 . S
C1046 C1047 1.385 1_565 S
C1046 C1048 1.478 . S
C1047 H1041 0.930 . S
C1047 C1043 1.400 . S
C1047 C1046 1.385 1_545 S
C1048 C1046 1.478 . S
C1048 C1050 1.381 . S
C1048 C1054 1.383 1_565 S
C1049 C1045 1.495 . S
C1049 H1055 0.959 . S
C1049 H1056 0.961 . S
C1049 H1057 0.960 . S
C1050 C1048 1.381 . S
C1050 C1051 1.394 . S
C1050 H1058 0.930 . S
C1051 C1050 1.394 . S
C1051 C1052 1.415 . S
C1051 H1059 0.929 . S
C1052 C1051 1.415 . S
C1052 C1053 1.346 1_565 S
C1053 H1037 0.930 . S
C1053 C1052 1.346 1_545 S
C1053 C1054 1.379 . S
C1054 H1038 0.931 . S
C1054 C1048 1.383 1_545 S
C1054 C1053 1.379 . S
H1055 C1049 0.959 . S
H1056 C1049 0.961 . S
H1057 C1049 0.960 . S
H1058 C1050 0.930 . S
H1059 C1051 0.929 . S
H1060 C1068 0.929 . S
H1061 C1070 0.930 . S
H1062 C1072 0.930 . S
H1063 C1075 0.929 . S
H1064 C1078 0.930 . S
H1065 C1080 0.960 . S
H1066 C1080 0.960 . S
H1067 C1080 0.960 . S
C1068 H1060 0.929 . S
C1068 C1069 1.377 . S
C1068 C1070 1.384 . S
C1069 C1068 1.377 . S
C1069 C1075 1.390 . S
C1070 H1061 0.930 . S
C1070 C1068 1.384 . S
C1070 C1071 1.372 . S
C1071 C1070 1.372 . S
C1071 C1072 1.400 . S
C1071 C1076 1.490 . S
C1072 H1062 0.930 . S
C1072 C1071 1.400 . S
C1072 C1075 1.386 . S
H1073 C1089 0.930 . S
H1074 C1090 0.931 . S
C1075 H1063 0.929 . S
C1075 C1069 1.390 . S
C1075 C1072 1.386 . S
C1076 C1071 1.490 . S
C1076 C1078 1.395 . S
C1076 C1079 1.403 . S
H1077 C1083 0.930 . S
C1078 H1064 0.930 . S
C1078 C1076 1.395 . S
C1078 C1081 1.403 . S
C1079 C1076 1.403 . S
C1079 C1080 1.524 . S
C1079 C1083 1.400 . S
C1080 H1065 0.960 . S
C1080 H1066 0.960 . S
C1080 H1067 0.960 . S
C1080 C1079 1.524 . S
C1081 C1078 1.403 . S
C1081 C1082 1.392 . S
C1081 C1085 1.495 . S
C1082 C1081 1.392 . S
C1082 C1083 1.385 . S
C1082 C1084 1.478 . S
C1083 H1077 0.930 . S
C1083 C1079 1.400 . S
C1083 C1082 1.385 . S
C1084 C1082 1.478 . S
C1084 C1086 1.381 . S
C1084 C1090 1.383 . S
C1085 C1081 1.495 . S
C1085 H1091 0.959 . S
C1085 H1092 0.961 . S
C1085 H1093 0.960 . S
C1086 C1084 1.381 . S
C1086 C1087 1.394 . S
C1086 H1094 0.930 . S
C1087 C1086 1.394 . S
C1087 C1088 1.383 . S
C1087 H1095 0.929 . S
C1088 C1087 1.383 . S
C1088 C1089 1.377 . S
C1089 H1073 0.930 . S
C1089 C1088 1.377 . S
C1089 C1090 1.379 . S
C1090 H1074 0.931 . S
C1090 C1084 1.383 . S
C1090 C1089 1.379 . S
H1091 C1085 0.959 . S
H1092 C1085 0.961 . S
H1093 C1085 0.960 . S
H1094 C1086 0.930 . S
H1095 C1087 0.929 . S
H1096 C1104 0.929 . S
H1097 C1106 0.930 . S
H1098 C1108 0.931 . S
H1099 C1111 0.929 . S
H1100 C1114 0.930 . S
H1101 C1116 0.960 . S
H1102 C1116 0.960 . S
H1103 C1116 0.960 . S
C1104 H1096 0.929 . S
C1104 C1105 1.377 . S
C1104 C1106 1.384 . S
C1105 C1104 1.377 . S
C1105 C1111 1.390 1_556 S
C1106 H1097 0.930 . S
C1106 C1104 1.384 . S
C1106 C1107 1.372 . S
C1107 C1106 1.372 . S
C1107 C1108 1.400 . S
C1107 C1112 1.490 . S
C1108 H1098 0.931 . S
C1108 C1107 1.400 . S
C1108 C1111 1.386 1_556 S
H1109 C1125 0.930 . S
H1110 C1126 0.931 . S
C1111 H1099 0.929 . S
C1111 C1105 1.390 1_554 S
C1111 C1108 1.386 1_554 S
C1112 C1107 1.490 . S
C1112 C1114 1.395 . S
C1112 C1115 1.403 . S
H1113 C1119 0.930 . S
C1114 H1100 0.930 . S
C1114 C1112 1.395 . S
C1114 C1117 1.403 . S
C1115 C1112 1.403 . S
C1115 C1116 1.524 . S
C1115 C1119 1.400 . S
C1116 H1101 0.960 . S
C1116 H1102 0.960 . S
C1116 H1103 0.960 . S
C1116 C1115 1.524 . S
C1117 C1114 1.403 . S
C1117 C1118 1.392 . S
C1117 C1121 1.495 . S
C1118 C1117 1.392 . S
C1118 C1119 1.385 . S
C1118 C1120 1.478 . S
C1119 H1113 0.930 . S
C1119 C1115 1.400 . S
C1119 C1118 1.385 . S
C1120 C1118 1.478 . S
C1120 C1122 1.381 . S
C1120 C1126 1.383 . S
C1121 C1117 1.495 . S
C1121 H1127 0.959 . S
C1121 H1128 0.961 . S
C1121 H1129 0.960 . S
C1122 C1120 1.381 . S
C1122 C1123 1.394 . S
C1122 H1130 0.930 . S
C1123 C1122 1.394 . S
C1123 C1124 1.383 . S
C1123 H1131 0.929 . S
C1124 C1123 1.383 . S
C1124 C1125 1.377 . S
C1125 H1109 0.930 . S
C1125 C1124 1.377 . S
C1125 C1126 1.379 . S
C1126 H1110 0.931 . S
C1126 C1120 1.383 . S
C1126 C1125 1.379 . S
H1127 C1121 0.959 . S
H1128 C1121 0.961 . S
H1129 C1121 0.960 . S
H1130 C1122 0.930 . S
H1131 C1123 0.929 . S
H1132 C1140 0.929 . S
H1133 C1142 0.930 . S
H1134 C1144 0.930 . S
H1135 C1147 0.929 . S
H1136 C1150 0.930 . S
H1137 C1152 0.960 . S
H1138 C1152 0.960 . S
H1139 C1152 0.960 . S
C1140 H1132 0.929 . S
C1140 C1141 1.377 . S
C1140 C1142 1.384 . S
C1141 C1140 1.377 . S
C1141 C1147 1.390 1_655 S
C1142 H1133 0.930 . S
C1142 C1140 1.384 . S
C1142 C1143 1.372 . S
C1143 C1142 1.372 . S
C1143 C1144 1.400 1_655 S
C1143 C1148 1.491 . S
C1144 H1134 0.930 . S
C1144 C1143 1.400 1_455 S
C1144 C1147 1.386 . S
H1145 C1161 0.930 . S
H1146 C1162 0.931 . S
C1147 H1135 0.929 . S
C1147 C1141 1.390 1_455 S
C1147 C1144 1.386 . S
C1148 C1143 1.491 . S
C1148 C1150 1.446 . S
C1148 C1151 1.354 1_655 S
H1149 C1155 0.930 . S
C1150 H1136 0.930 . S
C1150 C1148 1.446 . S
C1150 C1153 1.403 . S
C1151 C1148 1.354 1_455 S
C1151 C1152 1.524 . S
C1151 C1155 1.400 . S
C1152 H1137 0.960 . S
C1152 H1138 0.960 . S
C1152 H1139 0.960 . S
C1152 C1151 1.524 . S
C1153 C1150 1.403 . S
C1153 C1154 1.449 . S
C1153 C1157 1.495 . S
C1154 C1153 1.449 . S
C1154 C1155 1.328 1_655 S
C1154 C1156 1.477 1_655 S
C1155 H1149 0.930 . S
C1155 C1151 1.400 . S
C1155 C1154 1.328 1_455 S
C1156 C1154 1.477 1_455 S
C1156 C1158 1.376 1_455 S
C1156 C1162 1.389 . S
C1157 C1153 1.495 . S
C1157 H1163 0.959 . S
C1157 H1164 0.961 . S
C1157 H1165 0.960 . S
C1158 C1156 1.376 1_655 S
C1158 C1159 1.394 . S
C1158 H1166 0.930 . S
C1159 C1158 1.394 . S
C1159 C1160 1.383 1_655 S
C1159 H1167 0.929 . S
C1160 C1159 1.383 1_455 S
C1160 C1161 1.377 . S
C1161 H1145 0.930 . S
C1161 C1160 1.377 . S
C1161 C1162 1.379 . S
C1162 H1146 0.931 . S
C1162 C1156 1.389 . S
C1162 C1161 1.379 . S
H1163 C1157 0.959 . S
H1164 C1157 0.961 . S
H1165 C1157 0.960 . S
H1166 C1158 0.930 . S
H1167 C1159 0.929 . S
H1168 C1176 0.929 . S
H1169 C1178 0.930 . S
H1170 C1180 0.930 . S
H1171 C1183 0.929 . S
H1172 C1186 0.930 . S
H1173 C1188 0.960 . S
H1174 C1188 0.960 . S
H1175 C1188 0.960 . S
C1176 H1168 0.929 . S
C1176 C1177 1.377 . S
C1176 C1178 1.384 . S
C1177 C1176 1.377 . S
C1177 C1183 1.390 1_565 S
C1178 H1169 0.930 . S
C1178 C1176 1.384 . S
C1178 C1179 1.372 . S
C1179 C1178 1.372 . S
C1179 C1180 1.400 1_565 S
C1179 C1184 1.490 . S
C1180 H1170 0.930 . S
C1180 C1179 1.400 1_545 S
C1180 C1183 1.386 . S
H1181 C1197 0.917 1_545 S
H1182 C1198 0.954 . S
C1183 H1171 0.929 . S
C1183 C1177 1.390 1_545 S
C1183 C1180 1.386 . S
C1184 C1179 1.490 . S
C1184 C1186 1.395 . S
C1184 C1187 1.403 1_565 S
H1185 C1191 0.909 1_545 S
C1186 H1172 0.930 . S
C1186 C1184 1.395 . S
C1186 C1189 1.403 . S
C1187 C1184 1.403 1_545 S
C1187 C1188 1.524 . S
C1187 C1191 1.396 1_545 S
C1188 H1173 0.960 . S
C1188 H1174 0.960 . S
C1188 H1175 0.960 . S
C1188 C1187 1.524 . S
C1189 C1186 1.403 . S
C1189 C1190 1.392 . S
C1189 C1193 1.495 . S
C1190 C1189 1.392 . S
C1190 C1191 1.410 . S
C1190 C1192 1.478 . S
C1191 H1185 0.909 1_565 S
C1191 C1187 1.396 1_565 S
C1191 C1190 1.410 . S
C1192 C1190 1.478 . S
C1192 C1194 1.381 . S
C1192 C1198 1.361 1_565 S
C1193 C1189 1.495 . S
C1193 H1199 0.959 . S
C1193 H1200 0.961 . S
C1193 H1201 0.960 . S
C1194 C1192 1.381 . S
C1194 C1195 1.394 . S
C1194 H1202 0.930 . S
C1195 C1194 1.394 . S
C1195 C1196 1.383 . S
C1195 H1203 0.929 . S
C1196 C1195 1.383 . S
C1196 C1197 1.389 . S
C1197 H1181 0.917 1_565 S
C1197 C1196 1.389 . S
C1197 C1198 1.380 1_565 S
C1198 H1182 0.954 . S
C1198 C1192 1.361 1_545 S
C1198 C1197 1.380 1_545 S
H1199 C1193 0.959 . S
H1200 C1193 0.961 . S
H1201 C1193 0.960 . S
H1202 C1194 0.930 . S
H1203 C1195 0.929 . S
H1204 C1212 0.929 . S
H1205 C1214 0.930 . S
H1206 C1216 0.930 . S
H1207 C1219 0.929 . S
H1208 C1222 0.930 . S
H1209 C1224 0.960 . S
H1210 C1224 0.960 . S
H1211 C1224 0.960 . S
C1212 H1204 0.929 . S
C1212 C1213 1.377 . S
C1212 C1214 1.384 . S
C1213 C1212 1.377 . S
C1213 C1219 1.390 . S
C1214 H1205 0.930 . S
C1214 C1212 1.384 . S
C1214 C1215 1.372 . S
C1215 C1214 1.372 . S
C1215 C1216 1.400 . S
C1215 C1220 1.490 . S
C1216 H1206 0.930 . S
C1216 C1215 1.400 . S
C1216 C1219 1.386 . S
H1217 C1233 0.930 . S
H1218 C1234 0.931 . S
C1219 H1207 0.929 . S
C1219 C1213 1.390 . S
C1219 C1216 1.386 . S
C1220 C1215 1.490 . S
C1220 C1222 1.395 . S
C1220 C1223 1.403 . S
H1221 C1227 0.930 . S
C1222 H1208 0.930 . S
C1222 C1220 1.395 . S
C1222 C1225 1.403 . S
C1223 C1220 1.403 . S
C1223 C1224 1.524 . S
C1223 C1227 1.400 . S
C1224 H1209 0.960 . S
C1224 H1210 0.960 . S
C1224 H1211 0.960 . S
C1224 C1223 1.524 . S
C1225 C1222 1.403 . S
C1225 C1226 1.392 . S
C1225 C1229 1.495 . S
C1226 C1225 1.392 . S
C1226 C1227 1.385 . S
C1226 C1228 1.478 . S
C1227 H1221 0.930 . S
C1227 C1223 1.400 . S
C1227 C1226 1.385 . S
C1228 C1226 1.478 . S
C1228 C1230 1.381 . S
C1228 C1234 1.383 . S
C1229 C1225 1.495 . S
C1229 H1235 0.959 . S
C1229 H1236 0.961 . S
C1229 H1237 0.960 . S
C1230 C1228 1.381 . S
C1230 C1231 1.394 . S
C1230 H1238 0.930 . S
C1231 C1230 1.394 . S
C1231 C1232 1.383 . S
C1231 H1239 0.929 . S
C1232 C1231 1.383 . S
C1232 C1233 1.377 . S
C1233 H1217 0.930 . S
C1233 C1232 1.377 . S
C1233 C1234 1.379 . S
C1234 H1218 0.931 . S
C1234 C1228 1.383 . S
C1234 C1233 1.379 . S
H1235 C1229 0.959 . S
H1236 C1229 0.961 . S
H1237 C1229 0.960 . S
H1238 C1230 0.930 . S
H1239 C1231 0.929 . S
H1240 C1248 0.929 . S
H1241 C1250 0.930 . S
H1242 C1252 0.930 . S
H1243 C1255 0.929 . S
H1244 C1258 0.930 . S
H1245 C1260 0.960 . S
H1246 C1260 0.960 . S
H1247 C1260 0.960 . S
C1248 H1240 0.929 . S
C1248 C1249 1.377 . S
C1248 C1250 1.384 . S
C1249 C1248 1.377 . S
C1249 C1255 1.390 . S
C1250 H1241 0.930 . S
C1250 C1248 1.384 . S
C1250 C1251 1.372 . S
C1251 C1250 1.372 . S
C1251 C1252 1.400 . S
C1251 C1256 1.490 . S
C1252 H1242 0.930 . S
C1252 C1251 1.400 . S
C1252 C1255 1.386 . S
H1253 C1269 0.930 . S
H1254 C1270 0.931 . S
C1255 H1243 0.929 . S
C1255 C1249 1.390 . S
C1255 C1252 1.386 . S
C1256 C1251 1.490 . S
C1256 C1258 1.395 . S
C1256 C1259 1.403 . S
H1257 C1263 0.930 . S
C1258 H1244 0.930 . S
C1258 C1256 1.395 . S
C1258 C1261 1.403 . S
C1259 C1256 1.403 . S
C1259 C1260 1.524 . S
C1259 C1263 1.400 . S
C1260 H1245 0.960 . S
C1260 H1246 0.960 . S
C1260 H1247 0.960 . S
C1260 C1259 1.524 . S
C1261 C1258 1.403 . S
C1261 C1262 1.392 . S
C1261 C1265 1.495 . S
C1262 C1261 1.392 . S
C1262 C1263 1.385 . S
C1262 C1264 1.478 . S
C1263 H1257 0.930 . S
C1263 C1259 1.400 . S
C1263 C1262 1.385 . S
C1264 C1262 1.478 . S
C1264 C1266 1.381 . S
C1264 C1270 1.383 . S
C1265 C1261 1.495 . S
C1265 H1271 0.959 . S
C1265 H1272 0.961 . S
C1265 H1273 0.960 . S
C1266 C1264 1.381 . S
C1266 C1267 1.394 . S
C1266 H1274 0.930 . S
C1267 C1266 1.394 . S
C1267 C1268 1.383 . S
C1267 H1275 0.929 . S
C1268 C1267 1.383 . S
C1268 C1269 1.377 . S
C1269 H1253 0.930 . S
C1269 C1268 1.377 . S
C1269 C1270 1.379 . S
C1270 H1254 0.931 . S
C1270 C1264 1.383 . S
C1270 C1269 1.379 . S
H1271 C1265 0.959 . S
H1272 C1265 0.961 . S
H1273 C1265 0.960 . S
H1274 C1266 0.930 . S
H1275 C1267 0.929 . S
C421 C255 1.612 1_565 S
C440 C336 1.625 . S
C476 C359 1.842 . S
C457 C295 1.834 . S
C512 C382 1.709 . S
C493 C175 1.713 . S
C548 C409 1.575 . S
C529 C215 1.678 . S
C584 C337 1.557 . S
C565 C95 1.563 1_546 S
C601 C135 1.575 . S
C620 C360 1.607 . S
C637 C15 1.404 . S
C656 C383 1.430 . S
C673 C55 1.693 . S
C692 C408 1.682 . S
C728 C338 0.463 . S
C709 C221 0.656 . S
C764 C361 0.785 . S
C745 C261 0.884 . S
C800 C384 0.480 . S
C781 C301 0.552 . S
C817 C181 0.677 . S
C836 C410 0.765 . S
C853 C61 0.679 . S
C872 C341 0.792 . S
C908 C364 0.794 . S
C889 C101 0.671 1_565 S
C944 C387 0.732 . S
C925 C141 0.682 . S
C961 C21 0.701 . S
C980 C407 0.632 . S
C997 C202 2.038 . S
C1016 C339 1.995 . S
C1033 C242 1.900 . S
C1052 C362 1.886 1_565 S
C1088 C385 1.957 . S
C1069 C282 1.962 1_556 S
C1124 C406 1.574 . S
C1105 C162 1.515 1_556 S
C1141 C42 1.958 . S
C1160 C340 1.935 . S
C1196 C363 1.777 . S
C1177 C82 1.831 1_565 S
C1232 C386 1.784 . S
C1213 C122 1.798 . S
C1249 C2 2.053 . S
C1268 C405 2.105 . S
