# Generated by pormake.
# Topology tsx, (6,3)-cn, num edge types: 1
# Building blocks:
#     Node 0, Type 0, BuildingBlock: CIFDUS_clean_sbu_1, # of connection points: 6
#     Node 1, Type 0, BuildingBlock: CIFDUS_clean_sbu_1, # of connection points: 6
#     Node 2, Type 1, BuildingBlock: OLANEW_clean_sbu_2, # of connection points: 3
#     Node 3, Type 1, BuildingBlock: OLANEW_clean_sbu_2, # of connection points: 3
#     Node 4, Type 1, BuildingBlock: OLANEW_clean_sbu_2, # of connection points: 3
#     Node 5, Type 1, BuildingBlock: OLANEW_clean_sbu_2, # of connection points: 3
#     Edge 6, Type (0, 1), BuildingBlock: MIFKUJ_clean_linker_0, # of connection points: 2
#     Edge 7, Type (0, 1), BuildingBlock: MIFKUJ_clean_linker_0, # of connection points: 2
#     Edge 8, Type (0, 1), BuildingBlock: MIFKUJ_clean_linker_0, # of connection points: 2
#     Edge 9, Type (0, 1), BuildingBlock: MIFKUJ_clean_linker_0, # of connection points: 2
#     Edge 10, Type (0, 1), BuildingBlock: MIFKUJ_clean_linker_0, # of connection points: 2
#     Edge 11, Type (0, 1), BuildingBlock: MIFKUJ_clean_linker_0, # of connection points: 2
#     Edge 12, Type (0, 1), BuildingBlock: MIFKUJ_clean_linker_0, # of connection points: 2
#     Edge 13, Type (0, 1), BuildingBlock: MIFKUJ_clean_linker_0, # of connection points: 2
#     Edge 14, Type (0, 1), BuildingBlock: MIFKUJ_clean_linker_0, # of connection points: 2
#     Edge 15, Type (0, 1), BuildingBlock: MIFKUJ_clean_linker_0, # of connection points: 2
#     Edge 16, Type (0, 1), BuildingBlock: MIFKUJ_clean_linker_0, # of connection points: 2
#     Edge 17, Type (0, 1), BuildingBlock: MIFKUJ_clean_linker_0, # of connection points: 2
# Relax obj value: 0.039
# Max RMSD: 0.094
# Mean RMSD: 0.052
data_MOF--net-tsx--node1-CIFDUS_clean_sbu_1--node2-OLANEW_clean_sbu_2--edge1-MIFKUJ_clean_linker_0
_symmetry_space_group_name_H-M    P1
_symmetry_Int_Tables_number       1
_symmetry_cell_setting            triclinic
loop_
_symmetry_equiv_pos_as_xyz
'x, y, z'
_cell_length_a     26.167044
_cell_length_b     31.246428
_cell_length_c     45.163078
_cell_angle_alpha  102.65903
_cell_angle_beta   90.818524
_cell_angle_gamma 90.461833
loop_
_atom_site_label
_atom_site_type_symbol
_atom_site_fract_x
_atom_site_fract_y
_atom_site_fract_z
_atom_type_partial_charge
O0 O 0.98639 0.07389 0.00953 0.0
Mn1 Mn 0.03063 0.01649 0.00118 0.0
O2 O 0.9163 0.05546 0.98042 0.0
Mn3 Mn 0.93742 -5e-05 0.96351 0.0
O4 O 0.07524 0.95953 0.99306 0.0
O5 O 0.09289 0.05548 0.01187 0.0
Mn6 Mn 0.13434 0.03304 0.03527 0.0
O7 O 0.02222 0.01172 0.04689 0.0
O8 O 0.15324 0.97865 0.01365 0.0
O9 O 0.04285 0.02273 0.95594 0.0
O10 O 0.97446 0.99378 0.92909 0.0
O11 O 0.16647 0.08325 0.03027 0.0
O12 O 0.09869 0.03146 0.0698 0.0
C13 C 0.9267 0.94903 0.9845 0.0
C14 C 0.94246 0.083 0.99957 0.0
C15 C 0.12187 0.95063 0.99855 0.0
C16 C 0.12636 0.08674 0.01389 0.0
C17 C 0.0523 0.01906 0.07043 0.0
C18 C 0.01872 0.01038 0.93053 0.0
O19 O 0.96703 0.97516 0.99099 0.0
O20 O 0.89381 0.95672 0.96456 0.0
O21 O 0.487 0.57241 0.50383 0.0
Mn22 Mn 0.53183 0.5168 0.50084 0.0
O23 O 0.43789 0.54867 0.46259 0.0
Mn24 Mn 0.45188 0.48944 0.45879 0.0
O25 O 0.57703 0.46038 0.49706 0.0
O26 O 0.5939 0.55601 0.50994 0.0
Mn27 Mn 0.63232 0.53976 0.53772 0.0
O28 O 0.52085 0.51879 0.5473 0.0
O29 O 0.65107 0.48259 0.52211 0.0
O30 O 0.54649 0.51771 0.45458 0.0
O31 O 0.49808 0.46419 0.43072 0.0
O32 O 0.66589 0.58677 0.5283 0.0
O33 O 0.5928 0.54769 0.5719 0.0
C34 C 0.42418 0.45323 0.48707 0.0
C35 C 0.45362 0.57931 0.48437 0.0
C36 C 0.62217 0.45286 0.50638 0.0
C37 C 0.62691 0.58709 0.51039 0.0
C38 C 0.5469 0.53388 0.57185 0.0
C39 C 0.53363 0.49085 0.42987 0.0
O40 O 0.46648 0.47668 0.49434 0.0
O41 O 0.39961 0.455 0.46219 0.0
O42 O 0.02841 0.9798 0.39408 0.0
Cd43 Cd 0.0342 0.97482 0.44769 0.0
O44 O 0.0845 0.03369 0.39805 0.0
Cd45 Cd 0.06755 0.05318 0.44628 0.0
O46 O 0.0045 0.09466 0.46656 0.0
C47 C 0.96848 0.09643 0.44766 0.0
O48 O 0.97201 0.07268 0.41991 0.0
C49 C 0.0562 0.0043 0.38172 0.0
C50 C 0.1127 0.92051 0.46046 0.0
O51 O 0.07017 0.90441 0.44842 0.0
O52 O 0.11861 0.9623 0.46626 0.0
O53 O 0.99688 0.10781 0.62652 0.0
Cd54 Cd 0.98927 0.10967 0.57291 0.0
O55 O 0.01952 0.04143 0.60537 0.0
Cd56 Cd 0.02913 0.97184 0.6026 0.0
O57 O 0.97597 0.92191 0.57865 0.0
C58 C 0.92898 0.93063 0.58322 0.0
O59 O 0.91663 0.96638 0.603 0.0
C60 C 0.01156 0.07031 0.62933 0.0
C61 C 0.07291 0.15414 0.55676 0.0
O62 O 0.03003 0.17324 0.56318 0.0
O63 O 0.07609 0.11345 0.55736 0.0
O64 O 0.53252 0.47307 0.89174 0.0
Cd65 Cd 0.53493 0.47474 0.94624 0.0
O66 O 0.57859 0.53363 0.89812 0.0
Cd67 Cd 0.56426 0.55104 0.94667 0.0
O68 O 0.50159 0.59262 0.9667 0.0
C69 C 0.47247 0.60138 0.94609 0.0
O70 O 0.48303 0.58439 0.9176 0.0
C71 C 0.55635 0.50128 0.88052 0.0
C72 C 0.61034 0.42007 0.96123 0.0
O73 O 0.56435 0.40621 0.955 0.0
O74 O 0.62076 0.45995 0.96042 0.0
O75 O 0.49312 0.61532 0.13055 0.0
Cd76 Cd 0.48624 0.61826 0.07708 0.0
O77 O 0.51614 0.54961 0.10793 0.0
Cd78 Cd 0.52664 0.47971 0.10357 0.0
O79 O 0.47588 0.42777 0.07933 0.0
C80 C 0.42908 0.43842 0.07918 0.0
O81 O 0.41573 0.47754 0.09421 0.0
C82 C 0.50822 0.57751 0.1324 0.0
C83 C 0.57225 0.65955 0.06064 0.0
O84 O 0.52959 0.6796 0.06517 0.0
O85 O 0.57422 0.61967 0.06338 0.0
H86 H 0.07847 0.1633 0.03544 0.0
H87 H 0.11795 0.23315 0.0318 0.0
H88 H 0.21269 0.16539 0.95952 0.0
H89 H 0.17286 0.09577 0.96297 0.0
H90 H 0.26113 0.19965 0.01892 0.0
H91 H 0.15225 0.2458 0.94507 0.0
H92 H 0.06852 0.26215 0.92469 0.0
H93 H 0.04392 0.36212 0.00495 0.0
H94 H 0.1273 0.34598 0.02599 0.0
H95 H 0.44386 0.36562 0.03419 0.0
H96 H 0.37931 0.31236 0.00915 0.0
H97 H 0.2617 0.38758 0.06237 0.0
H98 H 0.32582 0.44192 0.08655 0.0
H99 H 0.22341 0.35075 0.00786 0.0
H100 H 0.31596 0.30273 0.0856 0.0
H101 H 0.39326 0.28776 0.11333 0.0
H102 H 0.43976 0.19172 0.03532 0.0
H103 H 0.36304 0.20671 0.00694 0.0
C104 C 0.1048 0.16379 0.01721 0.0
C105 C 0.12274 0.12429 0.99949 0.0
C106 C 0.12783 0.20371 0.01536 0.0
C107 C 0.16886 0.20425 0.99574 0.0
C108 C 0.18113 0.16562 0.97482 0.0
C109 C 0.15785 0.12587 0.97654 0.0
C110 C 0.20665 0.24079 0.00262 0.0
C111 C 0.25341 0.23243 0.01572 0.0
C112 C 0.1953 0.28396 1.00008 0.0
C113 C 0.14582 0.29446 0.98718 0.0
C114 C 0.12885 0.27109 0.95845 0.0
C115 C 0.08149 0.28036 0.94676 0.0
C116 C 0.05087 0.31309 0.96354 0.0
C117 C 0.06768 0.33678 0.99198 0.0
C118 C 0.11504 0.32765 0.00377 0.0
C119 C 0.40419 0.37099 0.04035 0.0
C120 C 0.38999 0.40744 0.06274 0.0
C121 C 0.3673 0.34065 0.02595 0.0
C122 C 0.31575 0.34552 0.0343 0.0
C123 C 0.30117 0.38309 0.05556 0.0
C124 C 0.33796 0.4139 0.06956 0.0
C125 C 0.27838 0.30923 0.02344 0.0
C126 C 0.23158 0.3177 0.01027 0.0
C127 C 0.28867 0.26618 0.02688 0.0
C128 C 0.33411 0.25615 0.04406 0.0
C129 C 0.34282 0.27857 0.07432 0.0
C130 C 0.38651 0.2701 0.09015 0.0
C131 C 0.42147 0.23889 0.07606 0.0
C132 C 0.41267 0.21594 0.04617 0.0
C133 C 0.36909 0.22439 0.0302 0.0
H134 H 0.45533 0.23241 0.08834 0.0
H135 H 0.01414 0.32015 0.95449 0.0
H136 H 0.13996 0.9016 0.03907 0.0
H137 H 0.18945 0.83412 0.03132 0.0
H138 H 0.19634 0.8315 0.93554 0.0
H139 H 0.14615 0.89937 0.94336 0.0
H140 H 0.18605 0.74657 0.94969 0.0
H141 H 0.29002 0.87855 0.97876 0.0
H142 H 0.31536 0.94982 0.01141 0.0
H143 H 0.33815 0.88842 0.08676 0.0
H144 H 0.31214 0.81687 0.05465 0.0
H145 H 0.41113 0.63128 0.90618 0.0
H146 H 0.34187 0.68335 0.91724 0.0
H147 H 0.36456 0.69165 0.01318 0.0
H148 H 0.4356 0.64007 0.00224 0.0
H149 H 0.35501 0.77039 0.00246 0.0
H150 H 0.25846 0.63781 0.97392 0.0
H151 H 0.23351 0.5657 0.94233 0.0
H152 H 0.19611 0.62593 0.86811 0.0
H153 H 0.22144 0.69836 0.89913 0.0
C154 C 0.15062 0.8857 0.01621 0.0
C155 C 0.1392 0.90512 0.99172 0.0
C156 C 0.17909 0.84743 0.01186 0.0
C157 C 0.19714 0.82829 0.98296 0.0
C158 C 0.18265 0.84589 0.95801 0.0
C159 C 0.15391 0.88437 0.9624 0.0
C160 C 0.23522 0.79284 0.97951 0.0
C161 C 0.22318 0.75175 0.96097 0.0
C162 C 0.28299 0.79939 0.99508 0.0
C163 C 0.29857 0.84245 0.01439 0.0
C164 C 0.29996 0.88032 0.00236 0.0
C165 C 0.31453 0.92075 0.02076 0.0
C166 C 0.32822 0.92367 0.05116 0.0
C167 C 0.32745 0.88613 0.06322 0.0
C168 C 0.31281 0.84563 0.04493 0.0
C169 C 0.40129 0.64383 0.92968 0.0
C170 C 0.42886 0.63146 0.95335 0.0
C171 C 0.36131 0.67344 0.93595 0.0
C172 C 0.34731 0.69085 0.96601 0.0
C173 C 0.37453 0.67841 0.98978 0.0
C174 C 0.41502 0.64893 0.98351 0.0
C175 C 0.30623 0.72393 0.97235 0.0
C176 C 0.3177 0.76478 0.99142 0.0
C177 C 0.25782 0.71697 0.9575 0.0
C178 C 0.24212 0.67351 0.93882 0.0
C179 C 0.24519 0.63566 0.95081 0.0
C180 C 0.23094 0.59472 0.93301 0.0
C181 C 0.21331 0.59123 0.90322 0.0
C182 C 0.20977 0.62869 0.89119 0.0
C183 C 0.22397 0.6697 0.90889 0.0
H184 H 0.20231 0.55951 0.88947 0.0
H185 H 0.33955 0.95499 0.06536 0.0
H186 H 0.93997 0.94073 0.04411 0.0
H187 H 0.89493 0.88595 0.06678 0.0
H188 H 0.83722 0.822 0.9781 0.0
H189 H 0.88339 0.87381 0.95561 0.0
H190 H 0.77497 0.87402 0.05071 0.0
H191 H 0.86472 0.74871 0.97326 0.0
H192 H 0.94837 0.71872 0.95517 0.0
H193 H 0.99814 0.72553 0.04715 0.0
H194 H 0.9153 0.75728 0.06576 0.0
H195 H 0.57887 0.71884 0.02501 0.0
H196 H 0.65379 0.76242 0.01771 0.0
H197 H 0.74342 0.69827 0.07594 0.0
H198 H 0.6692 0.65232 0.0814 0.0
H199 H 0.80095 0.71318 0.03257 0.0
H200 H 0.68617 0.80326 0.1022 0.0
H201 H 0.6008 0.83281 0.11684 0.0
H202 H 0.59735 0.89462 0.04079 0.0
H203 H 0.6824 0.86502 0.02548 0.0
C204 C 0.9198 0.91356 0.02948 0.0
C205 C 0.91535 0.91132 0.99813 0.0
C206 C 0.89364 0.8827 0.04241 0.0
C207 C 0.86336 0.84956 0.02396 0.0
C208 C 0.86159 0.84627 0.99261 0.0
C209 C 0.88789 0.87621 0.97982 0.0
C210 C 0.82785 0.82136 0.03659 0.0
C211 C 0.78087 0.83897 0.04747 0.0
C212 C 0.83539 0.77574 0.03201 0.0
C213 C 0.88441 0.75593 0.02086 0.0
C214 C 0.89378 0.7443 0.9896 0.0
C215 C 0.94101 0.72706 0.97926 0.0
C216 C 0.97865 0.72039 1.0 0.0
C217 C 0.96908 0.73098 0.03113 0.0
C218 C 0.92214 0.74885 0.04158 0.0
C219 C 0.61479 0.71378 0.03592 0.0
C220 C 0.61836 0.68276 0.05403 0.0
C221 C 0.65747 0.73887 0.03197 0.0
C222 C 0.70382 0.73488 0.04724 0.0
C223 C 0.70798 0.70237 0.06423 0.0
C224 C 0.66564 0.67618 0.06736 0.0
C225 C 0.74715 0.76559 0.04618 0.0
C226 C 0.79531 0.74836 0.03716 0.0
C227 C 0.74036 0.81171 0.05238 0.0
C228 C 0.69073 0.83197 0.06274 0.0
C229 C 0.6673 0.82333 0.08869 0.0
C230 C 0.61889 0.83997 0.09704 0.0
C231 C 0.59368 0.86559 0.07976 0.0
C232 C 0.61697 0.87486 0.0542 0.0
C233 C 0.66535 0.85827 0.04572 0.0
H234 H 0.5561 0.87825 0.08617 0.0
H235 H 0.01514 0.70687 0.99196 0.0
H236 H 0.98682 0.16369 0.0013 0.0
H237 H 0.93906 0.23095 0.99964 0.0
H238 H 0.79862 0.16579 0.01401 0.0
H239 H 0.8457 0.09965 0.01622 0.0
H240 H 0.80608 0.1966 0.95747 0.0
H241 H 0.83119 0.24207 0.06649 0.0
H242 H 0.885 0.26096 0.11285 0.0
H243 H 0.95633 0.36525 0.07978 0.0
H244 H 0.90342 0.34644 0.03294 0.0
H245 H 0.59798 0.33642 0.96891 0.0
H246 H 0.66386 0.28687 0.97958 0.0
H247 H 0.779 0.38686 0.98084 0.0
H248 H 0.71291 0.43718 0.97072 0.0
H249 H 0.79624 0.34393 0.02591 0.0
H250 H 0.76496 0.30379 0.91915 0.0
H251 H 0.71337 0.28395 0.87193 0.0
H252 H 0.65701 0.16887 0.89871 0.0
H253 H 0.70768 0.18837 0.94632 0.0
C254 C 0.94617 0.16465 0.00558 0.0
C255 C 0.9198 0.1267 0.00897 0.0
C256 C 0.91889 0.20277 0.00426 0.0
C257 C 0.8653 0.20289 0.00628 0.0
C258 C 0.83988 0.16618 0.01223 0.0
C259 C 0.86687 0.12859 0.01373 0.0
C260 C 0.83434 0.23862 0.99884 0.0
C261 C 0.80375 0.22881 0.97245 0.0
C262 C 0.83268 0.28087 0.0179 0.0
C263 C 0.86389 0.29253 0.04611 0.0
C264 C 0.8587 0.26876 0.06899 0.0
C265 C 0.88895 0.2795 0.09537 0.0
C266 C 0.92419 0.3142 0.09922 0.0
C267 C 0.92909 0.33833 0.07674 0.0
C268 C 0.89898 0.32766 0.05028 0.0
C269 C 0.63726 0.348 0.97152 0.0
C270 C 0.65025 0.39063 0.9687 0.0
C271 C 0.67494 0.31957 0.97754 0.0
C272 C 0.72649 0.33291 0.98047 0.0
C273 C 0.73949 0.37584 0.97852 0.0
C274 C 0.7017 0.40447 0.97264 0.0
C275 C 0.76653 0.30145 0.98496 0.0
C276 C 0.799 0.31201 0.01064 0.0
C277 C 0.7702 0.25974 0.9651 0.0
C278 C 0.73984 0.24774 0.93641 0.0
C279 C 0.74129 0.27442 0.91507 0.0
C280 C 0.71224 0.26321 0.88822 0.0
C281 C 0.68186 0.22522 0.88235 0.0
C282 C 0.68054 0.1983 0.90329 0.0
C283 C 0.70946 0.2094 0.9302 0.0
H284 H 0.65939 0.21661 0.86155 0.0
H285 H 0.9476 0.32246 0.11966 0.0
H286 H 0.57796 0.66206 0.53275 0.0
H287 H 0.61624 0.7321 0.52967 0.0
H288 H 0.70568 0.66718 0.45371 0.0
H289 H 0.66875 0.59673 0.45784 0.0
H290 H 0.76375 0.69705 0.50182 0.0
H291 H 0.62935 0.75992 0.45239 0.0
H292 H 0.54006 0.77995 0.4445 0.0
H293 H 0.53924 0.86274 0.53396 0.0
H294 H 0.62821 0.84261 0.54264 0.0
H295 H 0.93771 0.87173 0.52923 0.0
H296 H 0.8716 0.82202 0.50201 0.0
H297 H 0.76361 0.87402 0.57174 0.0
H298 H 0.82899 0.92524 0.59831 0.0
H299 H 0.71497 0.85344 0.51875 0.0
H300 H 0.83158 0.78165 0.5738 0.0
H301 H 0.91668 0.76024 0.5893 0.0
H302 H 0.94482 0.69222 0.49766 0.0
H303 H 0.86008 0.71384 0.48154 0.0
C304 C 0.60297 0.66319 0.514 0.0
C305 C 0.62083 0.62413 0.49571 0.0
C306 C 0.62528 0.70339 0.51236 0.0
C307 C 0.66476 0.70492 0.49183 0.0
C308 C 0.6757 0.66676 0.46996 0.0
C309 C 0.65398 0.62649 0.47198 0.0
C310 C 0.70258 0.74174 0.49843 0.0
C311 C 0.75321 0.73119 0.50447 0.0
C312 C 0.6885 0.78641 0.50368 0.0
C313 C 0.63546 0.79956 0.49819 0.0
C314 C 0.61008 0.78223 0.47044 0.0
C315 C 0.55949 0.79361 0.46583 0.0
C316 C 0.53396 0.82255 0.48873 0.0
C317 C 0.55905 0.84033 0.51624 0.0
C318 C 0.6096 0.82901 0.52099 0.0
C319 C 0.89977 0.87274 0.53863 0.0
C320 C 0.8887 0.9017 0.56618 0.0
C321 C 0.86196 0.84448 0.523 0.0
C322 C 0.81286 0.84369 0.53512 0.0
C323 C 0.80115 0.874 0.56194 0.0
C324 C 0.83869 0.90295 0.57725 0.0
C325 C 0.77567 0.80835 0.52169 0.0
C326 C 0.72546 0.81918 0.51496 0.0
C327 C 0.78938 0.76368 0.5167 0.0
C328 C 0.83982 0.74976 0.5264 0.0
C329 C 0.85605 0.7623 0.55693 0.0
C330 C 0.90419 0.75015 0.56583 0.0
C331 C 0.93621 0.725 0.54446 0.0
C332 C 0.92002 0.71178 0.51417 0.0
C333 C 0.87194 0.72396 0.50514 0.0
H334 H 0.97351 0.71566 0.55137 0.0
H335 H 0.49475 0.83121 0.48513 0.0
H336 H 0.66895 0.41463 0.54697 0.0
H337 H 0.71815 0.34724 0.53697 0.0
H338 H 0.67298 0.32287 0.44247 0.0
H339 H 0.62225 0.39064 0.45267 0.0
H340 H 0.68042 0.24508 0.46619 0.0
H341 H 0.78294 0.37249 0.46201 0.0
H342 H 0.8161 0.44772 0.48124 0.0
H343 H 0.87834 0.41022 0.56019 0.0
H344 H 0.84494 0.33488 0.54162 0.0
H345 H 0.89098 0.11098 0.4103 0.0
H346 H 0.82387 0.16537 0.42132 0.0
H347 H 0.88006 0.20553 0.51363 0.0
H348 H 0.94858 0.15162 0.5025 0.0
H349 H 0.86478 0.27442 0.49038 0.0
H350 H 0.76493 0.14735 0.49526 0.0
H351 H 0.73112 0.07205 0.47749 0.0
H352 H 0.6639 0.10771 0.39914 0.0
H353 H 0.69782 0.18313 0.41627 0.0
C354 C 0.66857 0.39442 0.52416 0.0
C355 C 0.64234 0.40792 0.50049 0.0
C356 C 0.69676 0.35599 0.51848 0.0
C357 C 0.70014 0.3306 0.48888 0.0
C358 C 0.671 0.3422 0.46546 0.0
C359 C 0.64203 0.38073 0.47126 0.0
C360 C 0.73785 0.29466 0.48241 0.0
C361 C 0.72083 0.25143 0.47104 0.0
C362 C 0.79042 0.30295 0.4895 0.0
C363 C 0.8111 0.34813 0.50052 0.0
C364 C 0.80342 0.38035 0.48355 0.0
C365 C 0.8223 0.42301 0.49433 0.0
C366 C 0.84922 0.43376 0.52194 0.0
C367 C 0.85745 0.40185 0.53881 0.0
C368 C 0.83862 0.35916 0.52815 0.0
C369 C 0.88889 0.13102 0.43308 0.0
C370 C 0.92529 0.12701 0.45552 0.0
C371 C 0.85015 0.16199 0.43939 0.0
C372 C 0.84644 0.18929 0.46839 0.0
C373 C 0.8821 0.18477 0.49107 0.0
C374 C 0.92117 0.15389 0.48472 0.0
C375 C 0.80753 0.22445 0.47435 0.0
C376 C 0.8244 0.26778 0.48555 0.0
C377 C 0.75492 0.2161 0.46723 0.0
C378 C 0.73425 0.17082 0.45694 0.0
C379 C 0.74323 0.13907 0.47413 0.0
C380 C 0.72399 0.09637 0.4642 0.0
C381 C 0.69547 0.08508 0.43717 0.0
C382 C 0.68602 0.1165 0.42007 0.0
C383 C 0.70517 0.15924 0.4299 0.0
H384 H 0.68061 0.05201 0.42952 0.0
H385 H 0.86379 0.4668 0.53025 0.0
H386 H 0.32412 0.44601 0.49521 0.0
H387 H 0.27998 0.39145 0.51601 0.0
H388 H 0.42407 0.34527 0.5439 0.0
H389 H 0.46955 0.40011 0.52151 0.0
H390 H 0.3591 0.27789 0.51139 0.0
H391 H 0.34183 0.39713 0.59828 0.0
H392 H 0.32535 0.47431 0.62275 0.0
H393 H 0.17327 0.46263 0.58463 0.0
H394 H 0.18896 0.38563 0.55967 0.0
H395 H 0.17395 0.13415 0.56157 0.0
H396 H 0.2479 0.1812 0.55757 0.0
H397 H 0.14699 0.27705 0.53324 0.0
H398 H 0.07334 0.23108 0.53822 0.0
H399 H 0.20844 0.31485 0.57711 0.0
H400 H 0.22731 0.20931 0.48181 0.0
H401 H 0.23937 0.13556 0.4496 0.0
H402 H 0.38123 0.12373 0.49595 0.0
H403 H 0.36966 0.19726 0.52873 0.0
C404 C 0.34665 0.42495 0.50632 0.0
C405 C 0.40025 0.42721 0.50674 0.0
C406 C 0.32124 0.39378 0.51836 0.0
C407 C 0.34857 0.36455 0.53188 0.0
C408 C 0.4023 0.36777 0.53369 0.0
C409 C 0.42816 0.3993 0.5213 0.0
C410 C 0.31951 0.32934 0.54178 0.0
C411 C 0.32705 0.28562 0.52653 0.0
C412 C 0.27694 0.33968 0.56092 0.0
C413 C 0.26657 0.38545 0.57723 0.0
C414 C 0.30483 0.41098 0.59519 0.0
C415 C 0.29565 0.45475 0.6091 0.0
C416 C 0.24827 0.47334 0.60529 0.0
C417 C 0.20989 0.44815 0.58767 0.0
C418 C 0.21885 0.40439 0.57373 0.0
C419 C 0.16776 0.16504 0.55499 0.0
C420 C 0.11793 0.17927 0.55052 0.0
C421 C 0.21003 0.19184 0.55267 0.0
C422 C 0.20301 0.23282 0.54531 0.0
C423 C 0.15333 0.24585 0.53937 0.0
C424 C 0.11124 0.21951 0.54212 0.0
C425 C 0.24634 0.26383 0.54542 0.0
C426 C 0.24145 0.30667 0.56278 0.0
C427 C 0.29043 0.25278 0.52764 0.0
C428 C 0.29726 0.20852 0.50802 0.0
C429 C 0.26083 0.19081 0.48534 0.0
C430 C 0.26763 0.14909 0.46693 0.0
C431 C 0.31094 0.1249 0.47081 0.0
C432 C 0.34762 0.14245 0.49304 0.0
C433 C 0.34097 0.18415 0.51153 0.0
H434 H 0.31615 0.09261 0.45653 0.0
H435 H 0.24132 0.50727 0.61596 0.0
H436 H 0.4456 0.64742 0.53481 0.0
H437 H 0.39781 0.71587 0.53792 0.0
H438 H 0.36246 0.67749 0.44208 0.0
H439 H 0.41002 0.61039 0.43879 0.0
H440 H 0.38345 0.76112 0.45615 0.0
H441 H 0.27927 0.65984 0.49657 0.0
H442 H 0.25714 0.61263 0.53178 0.0
H443 H 0.26511 0.72405 0.60678 0.0
H444 H 0.2881 0.77184 0.57202 0.0
H445 H 0.12856 0.83484 0.43342 0.0
H446 H 0.19677 0.7871 0.44455 0.0
H447 H 0.25613 0.89221 0.51522 0.0
H448 H 0.18894 0.94083 0.50351 0.0
H449 H 0.23179 0.78696 0.52213 0.0
H450 H 0.32893 0.88848 0.47461 0.0
H451 H 0.34173 0.92914 0.43421 0.0
H452 H 0.33782 0.80822 0.3671 0.0
H453 H 0.32392 0.76693 0.40708 0.0
C454 C 0.42825 0.65409 0.51439 0.0
C455 C 0.43098 0.62322 0.48665 0.0
C456 C 0.40073 0.69301 0.51621 0.0
C457 C 0.37594 0.7016 0.49028 0.0
C458 C 0.38107 0.67173 0.46241 0.0
C459 C 0.40811 0.63311 0.46062 0.0
C460 C 0.34239 0.74019 0.49165 0.0
C461 C 0.35061 0.76694 0.47085 0.0
C462 C 0.29946 0.74806 0.51082 0.0
C463 C 0.28626 0.71928 0.53177 0.0
C464 C 0.27689 0.67419 0.52061 0.0
C465 C 0.26407 0.64734 0.54048 0.0
C466 C 0.25995 0.66529 0.57152 0.0
C467 C 0.26852 0.71016 0.58274 0.0
C468 C 0.28148 0.73714 0.56298 0.0
C469 C 0.15613 0.84782 0.45132 0.0
C470 C 0.15361 0.89162 0.46749 0.0
C471 C 0.19498 0.82053 0.45765 0.0
C472 C 0.23136 0.83625 0.48065 0.0
C473 C 0.2284 0.87962 0.49733 0.0
C474 C 0.19021 0.90732 0.49052 0.0
C475 C 0.27289 0.80713 0.48649 0.0
C476 C 0.26573 0.78198 0.50832 0.0
C477 C 0.31617 0.79992 0.46781 0.0
C478 C 0.32471 0.82471 0.4438 0.0
C479 C 0.33013 0.87063 0.45121 0.0
C480 C 0.33773 0.89377 0.42839 0.0
C481 C 0.34041 0.87129 0.39809 0.0
C482 C 0.33562 0.8256 0.39056 0.0
C483 C 0.32788 0.80233 0.4133 0.0
H484 H 0.34635 0.88926 0.38046 0.0
H485 H 0.24994 0.64447 0.58685 0.0
H486 H 0.10722 0.97458 0.10364 0.0
H487 H 0.09326 0.96799 0.15538 0.0
H488 H 0.94879 0.0337 0.15542 0.0
H489 H 0.96355 0.04129 0.10283 0.0
H490 H 0.00666 0.06939 0.20514 0.0
H491 H 0.95316 0.92432 0.15841 0.0
H492 H 0.95712 0.8524 0.12273 0.0
H493 H 0.09903 0.82556 0.16363 0.0
H494 H 0.09639 0.8976 0.19925 0.0
H495 H 0.96836 0.01483 0.35232 0.0
H496 H 0.95654 0.01584 0.29842 0.0
H497 H 0.11712 0.99102 0.28395 0.0
H498 H 0.12949 0.99204 0.33831 0.0
H499 H 0.03614 0.93309 0.24202 0.0
H500 H 0.09496 0.08166 0.28295 0.0
H501 H 0.09315 0.15438 0.31775 0.0
H502 H 0.94078 0.17406 0.28719 0.0
H503 H 0.94135 0.101 0.25255 0.0
C504 C 0.07192 0.98697 0.11441 0.0
C505 C 0.03652 0.0086 0.09931 0.0
C506 C 0.06383 0.98291 0.144 0.0
C507 C 0.01974 -0.0001 0.15931 0.0
C508 C 0.98301 0.02014 0.14395 0.0
C509 C 0.99115 0.02415 0.11393 0.0
C510 C 0.01533 -0.00075 0.19202 0.0
C511 C 0.01167 0.03939 0.21317 0.0
C512 C 0.02317 0.96025 0.20259 0.0
C513 C 0.02462 0.91653 0.18146 0.0
C514 C 0.98535 0.9032 0.15971 0.0
C515 C 0.98736 0.86238 0.13949 0.0
C516 C 0.02831 0.83445 0.1409 0.0
C517 C 0.0673 0.84722 0.16258 0.0
C518 C 0.06551 0.88802 0.18283 0.0
C519 C 1.00103 0.0095 0.33753 0.0
C520 C 0.04973 0.00299 0.34914 0.0
C521 C 0.99428 0.01029 0.30691 0.0
C522 C 0.03595 0.00351 0.28735 0.0
C523 C 0.08458 0.99636 0.29882 0.0
C524 C 0.09163 0.99691 0.3297 0.0
C525 C 0.02849 0.00313 0.25476 0.0
C526 C 0.02997 0.96282 0.23383 0.0
C527 C 0.01856 0.04186 0.24443 0.0
C528 C 0.01786 0.08552 0.26555 0.0
C529 C 0.06076 0.10118 0.28398 0.0
C530 C 0.06005 0.14254 0.30359 0.0
C531 C 0.01678 0.16874 0.30479 0.0
C532 C 0.9742 0.15366 0.28632 0.0
C533 C 0.97469 0.11227 0.2667 0.0
H534 H 0.01634 0.2008 0.31995 0.0
H535 H 0.02981 0.80288 0.12521 0.0
H536 H 0.10919 0.99403 0.89868 0.0
H537 H 0.12214 0.00453 0.84646 0.0
H538 H 0.97502 0.06616 0.84841 0.0
H539 H 0.96277 0.05712 0.89993 0.0
H540 H 0.99548 0.98304 0.80008 0.0
H541 H 0.04806 0.1302 0.84748 0.0
H542 H 0.1012 0.18618 0.88145 0.0
H543 H 0.23456 0.1382 0.83093 0.0
H544 H 0.18222 0.08113 0.79707 0.0
H545 H 0.95392 0.09983 0.67923 0.0
H546 H 0.96718 0.08618 0.7303 0.0
H547 H 0.0983 0.00731 0.69914 0.0
H548 H 0.08414 0.0195 0.64773 0.0
H549 H 0.09718 0.09213 0.76026 0.0
H550 H 0.03125 0.94691 0.70853 0.0
H551 H 0.96815 0.89817 0.67634 0.0
H552 H 0.84879 0.95136 0.73739 0.0
H553 H 0.91106 0.00116 0.76956 0.0
C554 C 0.0807 0.01112 0.88819 0.0
C555 C 0.03484 0.02449 0.90304 0.0
C556 C 0.08787 0.01682 0.85844 0.0
C557 C 0.04914 0.03569 0.84367 0.0
C558 C 0.00512 0.05136 0.85939 0.0
C559 C 0.9983 0.04623 0.88881 0.0
C560 C 0.05095 0.03568 0.81101 0.0
C561 C 0.01825 0.00648 0.79126 0.0
C562 C 0.0799 0.06681 0.79979 0.0
C563 C 0.11147 0.10076 0.82019 0.0
C564 C 0.08885 0.13105 0.84395 0.0
C565 C 0.11877 0.16311 0.86311 0.0
C566 C 0.17129 0.16557 0.85847 0.0
C567 C 0.19392 0.13608 0.83459 0.0
C568 C 0.16416 0.10383 0.81544 0.0
C569 C 0.98524 0.07925 0.68326 0.0
C570 C 0.01778 0.06038 0.6596 0.0
C571 C 0.99278 0.07155 0.71233 0.0
C572 C 0.03366 0.04577 0.71829 0.0
C573 C 0.06644 0.02712 0.6948 0.0
C574 C 0.05811 0.03386 0.66552 0.0
C575 C 0.04224 0.03907 0.74932 0.0
C576 C 0.076 0.06755 0.76885 0.0
C577 C 0.01318 0.00803 0.76059 0.0
C578 C 0.97572 0.97822 0.74118 0.0
C579 C 0.99145 0.94869 0.71484 0.0
C580 C 0.95584 0.92076 0.69665 0.0
C581 C 0.90445 0.92178 0.70475 0.0
C582 C 0.88858 0.95068 0.73109 0.0
C583 C 0.92401 0.97878 0.74929 0.0
H584 H 0.87697 0.90008 0.69066 0.0
H585 H 0.19439 0.19047 0.8733 0.0
H586 H 0.55528 0.59643 0.62339 0.0
H587 H 0.54656 0.58588 0.67503 0.0
H588 H 0.48805 0.45483 0.64002 0.0
H589 H 0.4958 0.46572 0.5879 0.0
H590 H 0.44446 0.49707 0.69638 0.0
H591 H 0.61093 0.4662 0.6535 0.0
H592 H 0.68903 0.48144 0.62748 0.0
H593 H 0.72057 0.59511 0.69837 0.0
H594 H 0.64223 0.58093 0.72458 0.0
H595 H 0.5151 0.43602 0.83546 0.0
H596 H 0.5054 0.43629 0.78147 0.0
H597 H 0.58011 0.56307 0.79723 0.0
H598 H 0.59117 0.5625 0.85074 0.0
H599 H 0.61456 0.51326 0.74794 0.0
H600 H 0.44678 0.54877 0.78903 0.0
H601 H 0.36818 0.53612 0.81555 0.0
H602 H 0.33895 0.41668 0.74941 0.0
H603 H 0.41774 0.42838 0.72269 0.0
C604 C 0.53878 0.56595 0.62673 0.0
C605 C 0.52643 0.53181 0.60175 0.0
C606 C 0.53415 0.55984 0.65621 0.0
C607 C 0.51796 0.51919 0.66129 0.0
C608 C 0.50095 0.48636 0.63653 0.0
C609 C 0.50507 0.49268 0.60682 0.0
C610 C 0.52459 0.50995 0.69196 0.0
C611 C 0.4817 0.4999 0.70755 0.0
C612 C 0.57319 0.51413 0.70661 0.0
C613 C 0.62048 0.52265 0.6909 0.0
C614 C 0.63431 0.49462 0.66343 0.0
C615 C 0.67866 0.50305 0.64866 0.0
C616 C 0.70971 0.53925 0.66124 0.0
C617 C 0.69649 0.56709 0.68864 0.0
C618 C 0.65214 0.55885 0.70348 0.0
C619 C 0.52992 0.46373 0.82733 0.0
C620 C 0.55402 0.49919 0.84743 0.0
C621 C 0.52394 0.46401 0.79651 0.0
C622 C 0.54136 0.5 0.78533 0.0
C623 C 0.56634 0.53493 0.80528 0.0
C624 C 0.5727 0.53451 0.83593 0.0
C625 C 0.53421 0.50169 0.7529 0.0
C626 C 0.57726 0.51007 0.73682 0.0
C627 C 0.48576 0.49626 0.73801 0.0
C628 C 0.43841 0.48922 0.75405 0.0
C629 C 0.42379 0.51965 0.78028 0.0
C630 C 0.37917 0.51268 0.79532 0.0
C631 C 0.34866 0.47556 0.78421 0.0
C632 C 0.36266 0.44538 0.75801 0.0
C633 C 0.40726 0.45218 0.74289 0.0
H634 H 0.31412 0.47023 0.79587 0.0
H635 H 0.74405 0.5457 0.64979 0.0
H636 H 0.6205 0.52165 0.4057 0.0
H637 H 0.62727 0.53696 0.35434 0.0
H638 H 0.4673 0.50443 0.33762 0.0
H639 H 0.46076 0.48848 0.38722 0.0
H640 H 0.51788 0.46346 0.29205 0.0
H641 H 0.51121 0.60952 0.35254 0.0
H642 H 0.53863 0.67328 0.39231 0.0
H643 H 0.6819 0.67784 0.34785 0.0
H644 H 0.65561 0.61361 0.30804 0.0
H645 H 0.44504 0.59554 0.18085 0.0
H646 H 0.45956 0.57909 0.23112 0.0
H647 H 0.60412 0.52089 0.20162 0.0
H648 H 0.58848 0.5351 0.15088 0.0
H649 H 0.57341 0.604 0.26814 0.0
H650 H 0.56464 0.44963 0.20522 0.0
H651 H 0.51961 0.39246 0.16728 0.0
H652 H 0.38383 0.41194 0.22064 0.0
H653 H 0.42768 0.47021 0.25842 0.0
C654 C 0.58713 0.51773 0.39085 0.0
C655 C 0.54062 0.50254 0.40014 0.0
C656 C 0.59087 0.52659 0.36166 0.0
C657 C 0.54787 0.52113 0.34193 0.0
C658 C 0.50128 0.5079 0.352 0.0
C659 C 0.49774 0.49864 0.38051 0.0
C660 C 0.54996 0.52785 0.3104 0.0
C661 C 0.5306 0.49413 0.28691 0.0
C662 C 0.56574 0.56798 0.30357 0.0
C663 C 0.58183 0.60629 0.32761 0.0
C664 C 0.54882 0.62378 0.35144 0.0
C665 C 0.56409 0.66008 0.37395 0.0
C666 C 0.61208 0.67946 0.3727 0.0
C667 C 0.64482 0.66268 0.34886 0.0
C668 C 0.62977 0.62632 0.32633 0.0
C669 C 0.47959 0.57883 0.1851 0.0
C670 C 0.51548 0.56617 0.16211 0.0
C671 C 0.4879 0.56961 0.21371 0.0
C672 C 0.53276 0.54864 0.21987 0.0
C673 C 0.569 0.53659 0.19708 0.0
C674 C 0.55999 0.54458 0.16819 0.0
C675 C 0.54163 0.5396 0.25027 0.0
C676 C 0.56238 0.57298 0.2734 0.0
C677 C 0.52532 0.49979 0.25713 0.0
C678 C 0.49913 0.46491 0.23428 0.0
C679 C 0.52492 0.44234 0.20856 0.0
C680 C 0.49965 0.4096 0.18714 0.0
C681 C 0.4488 0.39874 0.19145 0.0
C682 C 0.42313 0.42053 0.21723 0.0
C683 C 0.44814 0.45348 0.2386 0.0
H684 H 0.42936 0.3733 0.17489 0.0
H685 H 0.62383 0.70757 0.39014 0.0
loop_
_geom_bond_atom_site_label_1
_geom_bond_atom_site_label_2
_geom_bond_distance
_geom_bond_site_symmetry_2
_ccdc_geom_bond_type
O0 Mn1 2.163 1_654 S
O0 C14 1.244 1_554 S
Mn1 O0 2.163 1_456 S
Mn1 O4 2.160 1_545 S
Mn1 O5 2.221 1_556 S
Mn1 O7 2.163 1_556 S
Mn1 O9 2.160 . S
Mn1 O19 2.221 1_445 S
O2 Mn3 2.084 1_545 S
O2 C14 1.256 . S
Mn3 O2 2.084 1_565 S
Mn3 O10 2.087 1_565 S
Mn3 O19 2.292 . S
Mn3 O20 2.254 . S
O4 Mn1 2.160 1_565 S
O4 C15 1.239 1_556 S
O5 Mn1 2.221 1_554 S
O5 Mn6 2.290 . S
O5 C16 1.278 . S
Mn6 O5 2.290 . S
Mn6 O8 2.089 1_545 S
Mn6 O11 2.251 . S
Mn6 O12 2.087 . S
O7 Mn1 2.163 1_554 S
O7 C17 1.244 . S
O8 Mn6 2.089 1_565 S
O8 C15 1.256 . S
O9 Mn1 2.160 . S
O9 C18 1.239 . S
O10 Mn3 2.087 1_545 S
O10 C18 1.256 1_655 S
O11 Mn6 2.251 . S
O11 C16 1.241 . S
O12 Mn6 2.087 . S
O12 C17 1.256 . S
C13 O19 1.278 . S
C13 O20 1.241 . S
C14 O0 1.244 1_556 S
C14 O2 1.256 . S
C15 O4 1.239 1_554 S
C15 O8 1.256 . S
C16 O5 1.278 . S
C16 O11 1.241 . S
C17 O7 1.244 . S
C17 O12 1.256 . S
C18 O9 1.239 . S
C18 O10 1.256 1_455 S
O19 Mn1 2.221 1_665 S
O19 Mn3 2.292 . S
O19 C13 1.278 . S
O20 Mn3 2.254 . S
O20 C13 1.241 . S
O21 Mn22 2.163 . S
O21 C35 1.244 . S
Mn22 O21 2.163 . S
Mn22 O25 2.160 . S
Mn22 O26 2.221 . S
Mn22 O28 2.163 . S
Mn22 O30 2.160 . S
Mn22 O40 2.221 . S
O23 Mn24 2.087 . S
O23 C35 1.256 . S
Mn24 O23 2.087 . S
Mn24 O31 2.089 . S
Mn24 O40 2.290 . S
Mn24 O41 2.251 . S
O25 Mn22 2.160 . S
O25 C36 1.239 . S
O26 Mn22 2.221 . S
O26 Mn27 2.290 . S
O26 C37 1.278 . S
Mn27 O26 2.290 . S
Mn27 O29 2.089 . S
Mn27 O32 2.251 . S
Mn27 O33 2.087 . S
O28 Mn22 2.163 . S
O28 C38 1.244 . S
O29 Mn27 2.089 . S
O29 C36 1.256 . S
O30 Mn22 2.160 . S
O30 C39 1.239 . S
O31 Mn24 2.089 . S
O31 C39 1.256 . S
O32 Mn27 2.251 . S
O32 C37 1.241 . S
O33 Mn27 2.087 . S
O33 C38 1.256 . S
C34 O40 1.278 . S
C34 O41 1.241 . S
C35 O21 1.244 . S
C35 O23 1.256 . S
C36 O25 1.239 . S
C36 O29 1.256 . S
C37 O26 1.278 . S
C37 O32 1.241 . S
C38 O28 1.244 . S
C38 O33 1.256 . S
C39 O30 1.239 . S
C39 O31 1.256 . S
O40 Mn22 2.221 . S
O40 Mn24 2.290 . S
O40 C34 1.278 . S
O41 Mn24 2.251 . S
O41 C34 1.241 . S
O42 Cd43 2.300 . S
O42 C49 1.275 1_565 S
Cd43 O42 2.300 . S
Cd43 O51 2.381 . S
Cd43 O52 2.378 . S
O44 Cd45 2.385 . S
O44 C49 1.255 . S
Cd45 O44 2.385 . S
Cd45 O46 2.317 . S
O46 Cd45 2.317 . S
O46 C47 1.232 1_455 S
C47 O46 1.232 1_655 S
C47 O48 1.218 . S
O48 C47 1.218 . S
C49 O42 1.275 1_545 S
C49 O44 1.255 . S
C50 O51 1.258 . S
C50 O52 1.256 . S
O51 Cd43 2.381 . S
O51 C50 1.258 . S
O52 Cd43 2.378 . S
O52 C50 1.256 . S
O53 Cd54 2.300 . S
O53 C60 1.275 . S
Cd54 O53 2.300 . S
Cd54 O62 2.381 . S
Cd54 O63 2.378 . S
O55 Cd56 2.385 1_545 S
O55 C60 1.255 . S
Cd56 O55 2.385 1_565 S
Cd56 O57 2.317 1_455 S
O57 Cd56 2.317 1_655 S
O57 C58 1.232 . S
C58 O57 1.232 . S
C58 O59 1.218 . S
O59 C58 1.218 . S
C60 O53 1.275 . S
C60 O55 1.255 . S
C61 O62 1.258 . S
C61 O63 1.256 . S
O62 Cd54 2.381 . S
O62 C61 1.258 . S
O63 Cd54 2.378 . S
O63 C61 1.256 . S
O64 Cd65 2.300 . S
O64 C71 1.275 . S
Cd65 O64 2.300 . S
Cd65 O73 2.381 . S
Cd65 O74 2.378 . S
O66 Cd67 2.385 . S
O66 C71 1.255 . S
Cd67 O66 2.385 . S
Cd67 O68 2.317 . S
O68 Cd67 2.317 . S
O68 C69 1.232 . S
C69 O68 1.232 . S
C69 O70 1.218 . S
O70 C69 1.218 . S
C71 O64 1.275 . S
C71 O66 1.255 . S
C72 O73 1.258 . S
C72 O74 1.256 . S
O73 Cd65 2.381 . S
O73 C72 1.258 . S
O74 Cd65 2.378 . S
O74 C72 1.256 . S
O75 Cd76 2.300 . S
O75 C82 1.275 . S
Cd76 O75 2.300 . S
Cd76 O84 2.381 . S
Cd76 O85 2.378 . S
O77 Cd78 2.385 . S
O77 C82 1.255 . S
Cd78 O77 2.385 . S
Cd78 O79 2.317 . S
O79 Cd78 2.317 . S
O79 C80 1.232 . S
C80 O79 1.232 . S
C80 O81 1.218 . S
O81 C80 1.218 . S
C82 O75 1.275 . S
C82 O77 1.255 . S
C83 O84 1.258 . S
C83 O85 1.256 . S
O84 Cd76 2.381 . S
O84 C83 1.258 . S
O85 Cd76 2.378 . S
O85 C83 1.256 . S
H86 C104 0.951 . S
H87 C106 0.951 . S
H88 C108 0.950 1_556 S
H89 C109 0.950 . S
H90 C111 0.950 . S
H91 C114 0.950 . S
H92 C115 0.950 . S
H93 C117 0.953 . S
H94 C118 0.950 . S
H95 C119 0.951 . S
H96 C121 0.951 . S
H97 C123 0.950 . S
H98 C124 0.950 . S
H99 C126 0.950 . S
H100 C129 0.950 . S
H101 C130 0.950 . S
H102 C132 0.950 . S
H103 C133 0.950 . S
C104 H86 0.951 . S
C104 C105 1.366 . S
C104 C106 1.388 . S
C105 C104 1.366 . S
C105 C109 1.385 1_554 S
C106 H87 0.951 . S
C106 C104 1.388 . S
C106 C107 1.366 . S
C107 C106 1.366 . S
C107 C108 1.414 . S
C107 C110 1.499 . S
C108 H88 0.950 1_554 S
C108 C107 1.414 . S
C108 C109 1.374 1_554 S
C109 H89 0.950 . S
C109 C105 1.385 1_556 S
C109 C108 1.374 1_556 S
C110 C107 1.499 . S
C110 C111 1.373 . S
C110 C112 1.389 . S
C111 H90 0.950 . S
C111 C110 1.373 . S
C111 C127 1.377 . S
C112 C110 1.389 . S
C112 C113 1.524 . S
C112 C126 1.377 . S
C113 C112 1.524 . S
C113 C114 1.397 1_554 S
C113 C118 1.363 . S
C114 H91 0.950 . S
C114 C113 1.397 1_556 S
C114 C115 1.334 . S
C115 H92 0.950 . S
C115 C114 1.334 . S
C115 C116 1.287 . S
C116 C115 1.287 . S
C116 C117 1.513 1_556 S
C116 H135 0.913 . S
C117 H93 0.953 . S
C117 C116 1.513 1_554 S
C117 C118 1.422 . S
C118 H94 0.950 . S
C118 C113 1.363 . S
C118 C117 1.422 . S
C119 H95 0.951 . S
C119 C120 1.366 . S
C119 C121 1.388 . S
C120 C119 1.366 . S
C120 C124 1.385 . S
C121 H96 0.951 . S
C121 C119 1.388 . S
C121 C122 1.366 . S
C122 C121 1.366 . S
C122 C123 1.414 . S
C122 C125 1.499 . S
C123 H97 0.950 . S
C123 C122 1.414 . S
C123 C124 1.374 . S
C124 H98 0.950 . S
C124 C120 1.385 . S
C124 C123 1.374 . S
C125 C122 1.499 . S
C125 C126 1.373 . S
C125 C127 1.389 . S
C126 H99 0.950 . S
C126 C112 1.377 . S
C126 C125 1.373 . S
C127 C111 1.377 . S
C127 C125 1.389 . S
C127 C128 1.524 . S
C128 C127 1.524 . S
C128 C129 1.397 . S
C128 C133 1.363 . S
C129 H100 0.950 . S
C129 C128 1.397 . S
C129 C130 1.334 . S
C130 H101 0.950 . S
C130 C129 1.334 . S
C130 C131 1.287 . S
C131 C130 1.287 . S
C131 C132 1.524 . S
C131 H134 0.999 . S
C132 H102 0.950 . S
C132 C131 1.524 . S
C132 C133 1.415 . S
C133 H103 0.950 . S
C133 C128 1.363 . S
C133 C132 1.415 . S
H134 C131 0.999 . S
H135 C116 0.913 . S
H136 C154 0.951 . S
H137 C156 0.951 . S
H138 C158 0.950 . S
H139 C159 0.950 . S
H140 C161 0.950 . S
H141 C164 0.950 1_556 S
H142 C165 0.950 . S
H143 C167 0.950 . S
H144 C168 0.950 . S
H145 C169 0.951 . S
H146 C171 0.951 . S
H147 C173 0.950 1_554 S
H148 C174 0.950 1_554 S
H149 C176 0.950 1_554 S
H150 C179 0.950 . S
H151 C180 0.950 . S
H152 C182 0.950 . S
H153 C183 0.950 . S
C154 H136 0.951 . S
C154 C155 1.366 1_554 S
C154 C156 1.388 . S
C155 C154 1.366 1_556 S
C155 C159 1.385 . S
C156 H137 0.951 . S
C156 C154 1.388 . S
C156 C157 1.366 1_554 S
C157 C156 1.366 1_556 S
C157 C158 1.414 . S
C157 C160 1.499 . S
C158 H138 0.950 . S
C158 C157 1.414 . S
C158 C159 1.374 . S
C159 H139 0.950 . S
C159 C155 1.385 . S
C159 C158 1.374 . S
C160 C157 1.499 . S
C160 C161 1.373 . S
C160 C162 1.369 1_556 S
C161 H140 0.950 . S
C161 C160 1.373 . S
C161 C177 1.377 . S
C162 C160 1.369 1_554 S
C162 C163 1.542 . S
C162 C176 1.380 1_554 S
C163 C162 1.542 . S
C163 C164 1.397 . S
C163 C168 1.363 . S
C164 H141 0.950 1_554 S
C164 C163 1.397 . S
C164 C165 1.334 . S
C165 H142 0.950 . S
C165 C164 1.334 . S
C165 C166 1.287 . S
C166 C165 1.287 . S
C166 C167 1.524 . S
C166 H185 0.913 . S
C167 H143 0.950 . S
C167 C166 1.524 . S
C167 C168 1.415 . S
C168 H144 0.950 . S
C168 C163 1.363 . S
C168 C167 1.415 . S
C169 H145 0.951 . S
C169 C170 1.366 . S
C169 C171 1.388 . S
C170 C169 1.366 . S
C170 C174 1.385 . S
C171 H146 0.951 . S
C171 C169 1.388 . S
C171 C172 1.366 . S
C172 C171 1.366 . S
C172 C173 1.414 . S
C172 C175 1.499 . S
C173 H147 0.950 1_556 S
C173 C172 1.414 . S
C173 C174 1.374 . S
C174 H148 0.950 1_556 S
C174 C170 1.385 . S
C174 C173 1.374 . S
C175 C172 1.499 . S
C175 C176 1.373 . S
C175 C177 1.389 . S
C176 H149 0.950 1_556 S
C176 C162 1.380 1_556 S
C176 C175 1.373 . S
C177 C161 1.377 . S
C177 C175 1.389 . S
C177 C178 1.524 . S
C178 C177 1.524 . S
C178 C179 1.397 . S
C178 C183 1.363 . S
C179 H150 0.950 . S
C179 C178 1.397 . S
C179 C180 1.334 . S
C180 H151 0.950 . S
C180 C179 1.334 . S
C180 C181 1.287 . S
C181 C180 1.287 . S
C181 C182 1.524 . S
C181 H184 0.999 . S
C182 H152 0.950 . S
C182 C181 1.524 . S
C182 C183 1.415 . S
C183 H153 0.950 . S
C183 C178 1.363 . S
C183 C182 1.415 . S
H184 C181 0.999 . S
H185 C166 0.913 . S
H186 C204 0.951 . S
H187 C206 0.951 . S
H188 C208 0.950 . S
H189 C209 0.950 . S
H190 C211 0.950 . S
H191 C214 0.950 . S
H192 C215 0.950 . S
H193 C217 0.950 . S
H194 C218 0.950 . S
H195 C219 0.951 . S
H196 C221 0.951 . S
H197 C223 0.950 . S
H198 C224 0.950 . S
H199 C226 0.950 . S
H200 C229 0.950 . S
H201 C230 0.950 . S
H202 C232 0.950 . S
H203 C233 0.950 . S
C204 H186 0.951 . S
C204 C205 1.366 . S
C204 C206 1.388 . S
C205 C204 1.366 . S
C205 C209 1.385 1_554 S
C206 H187 0.951 . S
C206 C204 1.388 . S
C206 C207 1.366 . S
C207 C206 1.366 . S
C207 C208 1.414 1_554 S
C207 C210 1.499 . S
C208 H188 0.950 . S
C208 C207 1.414 1_556 S
C208 C209 1.374 . S
C209 H189 0.950 . S
C209 C205 1.385 1_556 S
C209 C208 1.374 . S
C210 C207 1.499 . S
C210 C211 1.373 . S
C210 C212 1.389 . S
C211 H190 0.950 . S
C211 C210 1.373 . S
C211 C227 1.377 . S
C212 C210 1.389 . S
C212 C213 1.524 . S
C212 C226 1.377 . S
C213 C212 1.524 . S
C213 C214 1.397 1_554 S
C213 C218 1.363 . S
C214 H191 0.950 . S
C214 C213 1.397 1_556 S
C214 C215 1.334 . S
C215 H192 0.950 . S
C215 C214 1.334 . S
C215 C216 1.287 . S
C216 C215 1.287 . S
C216 C217 1.524 1_556 S
C216 H235 0.913 . S
C217 H193 0.950 . S
C217 C216 1.524 1_554 S
C217 C218 1.415 . S
C218 H194 0.950 . S
C218 C213 1.363 . S
C218 C217 1.415 . S
C219 H195 0.951 . S
C219 C220 1.366 . S
C219 C221 1.388 . S
C220 C219 1.366 . S
C220 C224 1.385 . S
C221 H196 0.951 . S
C221 C219 1.388 . S
C221 C222 1.366 . S
C222 C221 1.366 . S
C222 C223 1.414 . S
C222 C225 1.499 . S
C223 H197 0.950 . S
C223 C222 1.414 . S
C223 C224 1.374 . S
C224 H198 0.950 . S
C224 C220 1.385 . S
C224 C223 1.374 . S
C225 C222 1.499 . S
C225 C226 1.373 . S
C225 C227 1.389 . S
C226 H199 0.950 . S
C226 C212 1.377 . S
C226 C225 1.373 . S
C227 C211 1.377 . S
C227 C225 1.389 . S
C227 C228 1.524 . S
C228 C227 1.524 . S
C228 C229 1.397 . S
C228 C233 1.363 . S
C229 H200 0.950 . S
C229 C228 1.397 . S
C229 C230 1.334 . S
C230 H201 0.950 . S
C230 C229 1.334 . S
C230 C231 1.287 . S
C231 C230 1.287 . S
C231 C232 1.524 . S
C231 H234 0.999 . S
C232 H202 0.950 . S
C232 C231 1.524 . S
C232 C233 1.415 . S
C233 H203 0.950 . S
C233 C228 1.363 . S
C233 C232 1.415 . S
H234 C231 0.999 . S
H235 C216 0.913 . S
H236 C254 0.952 . S
H237 C256 0.951 . S
H238 C258 0.950 . S
H239 C259 0.950 . S
H240 C261 0.950 . S
H241 C264 0.950 . S
H242 C265 0.950 . S
H243 C267 0.950 . S
H244 C268 0.950 . S
H245 C269 0.951 . S
H246 C271 0.951 . S
H247 C273 0.950 . S
H248 C274 0.950 . S
H249 C276 0.950 . S
H250 C279 0.950 . S
H251 C280 0.950 . S
H252 C282 0.950 . S
H253 C283 0.950 . S
C254 H236 0.952 . S
C254 C255 1.371 1_554 S
C254 C256 1.386 1_554 S
C255 C254 1.371 1_556 S
C255 C259 1.386 . S
C256 H237 0.951 . S
C256 C254 1.386 1_556 S
C256 C257 1.366 . S
C257 C256 1.366 . S
C257 C258 1.414 . S
C257 C260 1.499 . S
C258 H238 0.950 . S
C258 C257 1.414 . S
C258 C259 1.374 . S
C259 H239 0.950 . S
C259 C255 1.386 . S
C259 C258 1.374 . S
C260 C257 1.499 . S
C260 C261 1.373 . S
C260 C262 1.389 1_556 S
C261 H240 0.950 . S
C261 C260 1.373 . S
C261 C277 1.377 . S
C262 C260 1.389 1_554 S
C262 C263 1.524 . S
C262 C276 1.377 . S
C263 C262 1.524 . S
C263 C264 1.397 . S
C263 C268 1.363 . S
C264 H241 0.950 . S
C264 C263 1.397 . S
C264 C265 1.334 . S
C265 H242 0.950 . S
C265 C264 1.334 . S
C265 C266 1.287 . S
C266 C265 1.287 . S
C266 C267 1.524 . S
C266 H285 0.913 . S
C267 H243 0.950 . S
C267 C266 1.524 . S
C267 C268 1.415 . S
C268 H244 0.950 . S
C268 C263 1.363 . S
C268 C267 1.415 . S
C269 H245 0.951 . S
C269 C270 1.366 . S
C269 C271 1.388 . S
C270 C269 1.366 . S
C270 C274 1.385 . S
C271 H246 0.951 . S
C271 C269 1.388 . S
C271 C272 1.366 . S
C272 C271 1.366 . S
C272 C273 1.414 . S
C272 C275 1.499 . S
C273 H247 0.950 . S
C273 C272 1.414 . S
C273 C274 1.374 . S
C274 H248 0.950 . S
C274 C270 1.385 . S
C274 C273 1.374 . S
C275 C272 1.499 . S
C275 C276 1.373 1_556 S
C275 C277 1.389 . S
C276 H249 0.950 . S
C276 C262 1.377 . S
C276 C275 1.373 1_554 S
C277 C261 1.377 . S
C277 C275 1.389 . S
C277 C278 1.524 . S
C278 C277 1.524 . S
C278 C279 1.397 . S
C278 C283 1.363 . S
C279 H250 0.950 . S
C279 C278 1.397 . S
C279 C280 1.334 . S
C280 H251 0.950 . S
C280 C279 1.334 . S
C280 C281 1.287 . S
C281 C280 1.287 . S
C281 C282 1.524 . S
C281 H284 0.999 . S
C282 H252 0.950 . S
C282 C281 1.524 . S
C282 C283 1.415 . S
C283 H253 0.950 . S
C283 C278 1.363 . S
C283 C282 1.415 . S
H284 C281 0.999 . S
H285 C266 0.913 . S
H286 C304 0.951 . S
H287 C306 0.951 . S
H288 C308 0.950 . S
H289 C309 0.950 . S
H290 C311 0.950 . S
H291 C314 0.950 . S
H292 C315 0.950 . S
H293 C317 0.950 . S
H294 C318 0.950 . S
H295 C319 0.951 . S
H296 C321 0.951 . S
H297 C323 0.950 . S
H298 C324 0.950 . S
H299 C326 0.950 . S
H300 C329 0.950 . S
H301 C330 0.950 . S
H302 C332 0.950 . S
H303 C333 0.950 . S
C304 H286 0.951 . S
C304 C305 1.366 . S
C304 C306 1.388 . S
C305 C304 1.366 . S
C305 C309 1.385 . S
C306 H287 0.951 . S
C306 C304 1.388 . S
C306 C307 1.366 . S
C307 C306 1.366 . S
C307 C308 1.414 . S
C307 C310 1.499 . S
C308 H288 0.950 . S
C308 C307 1.414 . S
C308 C309 1.374 . S
C309 H289 0.950 . S
C309 C305 1.385 . S
C309 C308 1.374 . S
C310 C307 1.499 . S
C310 C311 1.373 . S
C310 C312 1.389 . S
C311 H290 0.950 . S
C311 C310 1.373 . S
C311 C327 1.377 . S
C312 C310 1.389 . S
C312 C313 1.524 . S
C312 C326 1.377 . S
C313 C312 1.524 . S
C313 C314 1.397 . S
C313 C318 1.363 . S
C314 H291 0.950 . S
C314 C313 1.397 . S
C314 C315 1.334 . S
C315 H292 0.950 . S
C315 C314 1.334 . S
C315 C316 1.287 . S
C316 C315 1.287 . S
C316 C317 1.524 . S
C316 H335 0.913 . S
C317 H293 0.950 . S
C317 C316 1.524 . S
C317 C318 1.415 . S
C318 H294 0.950 . S
C318 C313 1.363 . S
C318 C317 1.415 . S
C319 H295 0.951 . S
C319 C320 1.366 . S
C319 C321 1.388 . S
C320 C319 1.366 . S
C320 C324 1.385 . S
C321 H296 0.951 . S
C321 C319 1.388 . S
C321 C322 1.366 . S
C322 C321 1.366 . S
C322 C323 1.414 . S
C322 C325 1.499 . S
C323 H297 0.950 . S
C323 C322 1.414 . S
C323 C324 1.374 . S
C324 H298 0.950 . S
C324 C320 1.385 . S
C324 C323 1.374 . S
C325 C322 1.499 . S
C325 C326 1.373 . S
C325 C327 1.389 . S
C326 H299 0.950 . S
C326 C312 1.377 . S
C326 C325 1.373 . S
C327 C311 1.377 . S
C327 C325 1.389 . S
C327 C328 1.524 . S
C328 C327 1.524 . S
C328 C329 1.397 . S
C328 C333 1.363 . S
C329 H300 0.950 . S
C329 C328 1.397 . S
C329 C330 1.334 . S
C330 H301 0.950 . S
C330 C329 1.334 . S
C330 C331 1.287 . S
C331 C330 1.287 . S
C331 C332 1.524 . S
C331 H334 0.999 . S
C332 H302 0.950 . S
C332 C331 1.524 . S
C332 C333 1.415 . S
C333 H303 0.950 . S
C333 C328 1.363 . S
C333 C332 1.415 . S
H334 C331 0.999 . S
H335 C316 0.913 . S
H336 C354 0.951 . S
H337 C356 0.951 . S
H338 C358 0.950 . S
H339 C359 0.950 . S
H340 C361 0.950 . S
H341 C364 0.950 . S
H342 C365 0.950 . S
H343 C367 0.950 . S
H344 C368 0.950 . S
H345 C369 0.951 . S
H346 C371 0.951 . S
H347 C373 0.950 . S
H348 C374 0.950 . S
H349 C376 0.950 . S
H350 C379 0.950 . S
H351 C380 0.950 . S
H352 C382 0.950 . S
H353 C383 0.950 . S
C354 H336 0.951 . S
C354 C355 1.366 . S
C354 C356 1.388 . S
C355 C354 1.366 . S
C355 C359 1.385 . S
C356 H337 0.951 . S
C356 C354 1.388 . S
C356 C357 1.366 . S
C357 C356 1.366 . S
C357 C358 1.414 . S
C357 C360 1.499 . S
C358 H338 0.950 . S
C358 C357 1.414 . S
C358 C359 1.374 . S
C359 H339 0.950 . S
C359 C355 1.385 . S
C359 C358 1.374 . S
C360 C357 1.499 . S
C360 C361 1.373 . S
C360 C362 1.389 . S
C361 H340 0.950 . S
C361 C360 1.373 . S
C361 C377 1.377 . S
C362 C360 1.389 . S
C362 C363 1.524 . S
C362 C376 1.377 . S
C363 C362 1.524 . S
C363 C364 1.397 . S
C363 C368 1.363 . S
C364 H341 0.950 . S
C364 C363 1.397 . S
C364 C365 1.334 . S
C365 H342 0.950 . S
C365 C364 1.334 . S
C365 C366 1.287 . S
C366 C365 1.287 . S
C366 C367 1.524 . S
C366 H385 0.913 . S
C367 H343 0.950 . S
C367 C366 1.524 . S
C367 C368 1.415 . S
C368 H344 0.950 . S
C368 C363 1.363 . S
C368 C367 1.415 . S
C369 H345 0.951 . S
C369 C370 1.366 . S
C369 C371 1.388 . S
C370 C369 1.366 . S
C370 C374 1.385 . S
C371 H346 0.951 . S
C371 C369 1.388 . S
C371 C372 1.366 . S
C372 C371 1.366 . S
C372 C373 1.414 . S
C372 C375 1.499 . S
C373 H347 0.950 . S
C373 C372 1.414 . S
C373 C374 1.374 . S
C374 H348 0.950 . S
C374 C370 1.385 . S
C374 C373 1.374 . S
C375 C372 1.499 . S
C375 C376 1.373 . S
C375 C377 1.389 . S
C376 H349 0.950 . S
C376 C362 1.377 . S
C376 C375 1.373 . S
C377 C361 1.377 . S
C377 C375 1.389 . S
C377 C378 1.524 . S
C378 C377 1.524 . S
C378 C379 1.397 . S
C378 C383 1.363 . S
C379 H350 0.950 . S
C379 C378 1.397 . S
C379 C380 1.334 . S
C380 H351 0.950 . S
C380 C379 1.334 . S
C380 C381 1.287 . S
C381 C380 1.287 . S
C381 C382 1.524 . S
C381 H384 0.999 . S
C382 H352 0.950 . S
C382 C381 1.524 . S
C382 C383 1.415 . S
C383 H353 0.950 . S
C383 C378 1.363 . S
C383 C382 1.415 . S
H384 C381 0.999 . S
H385 C366 0.913 . S
H386 C404 0.951 . S
H387 C406 0.951 . S
H388 C408 0.950 . S
H389 C409 0.950 . S
H390 C411 0.950 . S
H391 C414 0.950 . S
H392 C415 0.950 . S
H393 C417 0.950 . S
H394 C418 0.950 . S
H395 C419 0.951 . S
H396 C421 0.951 . S
H397 C423 0.950 . S
H398 C424 0.950 . S
H399 C426 0.950 . S
H400 C429 0.950 . S
H401 C430 0.950 . S
H402 C432 0.950 . S
H403 C433 0.950 . S
C404 H386 0.951 . S
C404 C405 1.366 . S
C404 C406 1.388 . S
C405 C404 1.366 . S
C405 C409 1.385 . S
C406 H387 0.951 . S
C406 C404 1.388 . S
C406 C407 1.366 . S
C407 C406 1.366 . S
C407 C408 1.414 . S
C407 C410 1.499 . S
C408 H388 0.950 . S
C408 C407 1.414 . S
C408 C409 1.374 . S
C409 H389 0.950 . S
C409 C405 1.385 . S
C409 C408 1.374 . S
C410 C407 1.499 . S
C410 C411 1.373 . S
C410 C412 1.389 . S
C411 H390 0.950 . S
C411 C410 1.373 . S
C411 C427 1.377 . S
C412 C410 1.389 . S
C412 C413 1.524 . S
C412 C426 1.377 . S
C413 C412 1.524 . S
C413 C414 1.397 . S
C413 C418 1.363 . S
C414 H391 0.950 . S
C414 C413 1.397 . S
C414 C415 1.334 . S
C415 H392 0.950 . S
C415 C414 1.334 . S
C415 C416 1.287 . S
C416 C415 1.287 . S
C416 C417 1.524 . S
C416 H435 0.913 . S
C417 H393 0.950 . S
C417 C416 1.524 . S
C417 C418 1.415 . S
C418 H394 0.950 . S
C418 C413 1.363 . S
C418 C417 1.415 . S
C419 H395 0.951 . S
C419 C420 1.366 . S
C419 C421 1.388 . S
C420 C419 1.366 . S
C420 C424 1.385 . S
C421 H396 0.951 . S
C421 C419 1.388 . S
C421 C422 1.366 . S
C422 C421 1.366 . S
C422 C423 1.414 . S
C422 C425 1.499 . S
C423 H397 0.950 . S
C423 C422 1.414 . S
C423 C424 1.374 . S
C424 H398 0.950 . S
C424 C420 1.385 . S
C424 C423 1.374 . S
C425 C422 1.499 . S
C425 C426 1.373 . S
C425 C427 1.389 . S
C426 H399 0.950 . S
C426 C412 1.377 . S
C426 C425 1.373 . S
C427 C411 1.377 . S
C427 C425 1.389 . S
C427 C428 1.524 . S
C428 C427 1.524 . S
C428 C429 1.397 . S
C428 C433 1.363 . S
C429 H400 0.950 . S
C429 C428 1.397 . S
C429 C430 1.334 . S
C430 H401 0.950 . S
C430 C429 1.334 . S
C430 C431 1.287 . S
C431 C430 1.287 . S
C431 C432 1.524 . S
C431 H434 0.999 . S
C432 H402 0.950 . S
C432 C431 1.524 . S
C432 C433 1.415 . S
C433 H403 0.950 . S
C433 C428 1.363 . S
C433 C432 1.415 . S
H434 C431 0.999 . S
H435 C416 0.913 . S
H436 C454 0.951 . S
H437 C456 0.951 . S
H438 C458 0.950 . S
H439 C459 0.950 . S
H440 C461 0.950 . S
H441 C464 0.950 . S
H442 C465 0.950 . S
H443 C467 0.950 . S
H444 C468 0.950 . S
H445 C469 0.951 . S
H446 C471 0.951 . S
H447 C473 0.950 . S
H448 C474 0.950 . S
H449 C476 0.950 . S
H450 C479 0.950 . S
H451 C480 0.950 . S
H452 C482 0.950 . S
H453 C483 0.950 . S
C454 H436 0.951 . S
C454 C455 1.366 . S
C454 C456 1.388 . S
C455 C454 1.366 . S
C455 C459 1.385 . S
C456 H437 0.951 . S
C456 C454 1.388 . S
C456 C457 1.366 . S
C457 C456 1.366 . S
C457 C458 1.414 . S
C457 C460 1.499 . S
C458 H438 0.950 . S
C458 C457 1.414 . S
C458 C459 1.374 . S
C459 H439 0.950 . S
C459 C455 1.385 . S
C459 C458 1.374 . S
C460 C457 1.499 . S
C460 C461 1.373 . S
C460 C462 1.389 . S
C461 H440 0.950 . S
C461 C460 1.373 . S
C461 C477 1.377 . S
C462 C460 1.389 . S
C462 C463 1.524 . S
C462 C476 1.377 . S
C463 C462 1.524 . S
C463 C464 1.397 . S
C463 C468 1.363 . S
C464 H441 0.950 . S
C464 C463 1.397 . S
C464 C465 1.334 . S
C465 H442 0.950 . S
C465 C464 1.334 . S
C465 C466 1.287 . S
C466 C465 1.287 . S
C466 C467 1.524 . S
C466 H485 0.913 . S
C467 H443 0.950 . S
C467 C466 1.524 . S
C467 C468 1.415 . S
C468 H444 0.950 . S
C468 C463 1.363 . S
C468 C467 1.415 . S
C469 H445 0.951 . S
C469 C470 1.366 . S
C469 C471 1.388 . S
C470 C469 1.366 . S
C470 C474 1.385 . S
C471 H446 0.951 . S
C471 C469 1.388 . S
C471 C472 1.366 . S
C472 C471 1.366 . S
C472 C473 1.414 . S
C472 C475 1.499 . S
C473 H447 0.950 . S
C473 C472 1.414 . S
C473 C474 1.374 . S
C474 H448 0.950 . S
C474 C470 1.385 . S
C474 C473 1.374 . S
C475 C472 1.499 . S
C475 C476 1.373 . S
C475 C477 1.389 . S
C476 H449 0.950 . S
C476 C462 1.377 . S
C476 C475 1.373 . S
C477 C461 1.377 . S
C477 C475 1.389 . S
C477 C478 1.524 . S
C478 C477 1.524 . S
C478 C479 1.397 . S
C478 C483 1.363 . S
C479 H450 0.950 . S
C479 C478 1.397 . S
C479 C480 1.334 . S
C480 H451 0.950 . S
C480 C479 1.334 . S
C480 C481 1.287 . S
C481 C480 1.287 . S
C481 C482 1.524 . S
C481 H484 0.999 . S
C482 H452 0.950 . S
C482 C481 1.524 . S
C482 C483 1.415 . S
C483 H453 0.950 . S
C483 C478 1.363 . S
C483 C482 1.415 . S
H484 C481 0.999 . S
H485 C466 0.913 . S
H486 C504 0.951 . S
H487 C506 0.951 . S
H488 C508 0.950 . S
H489 C509 0.950 . S
H490 C511 0.950 . S
H491 C514 0.950 1_655 S
H492 C515 0.950 1_655 S
H493 C517 0.950 . S
H494 C518 0.950 . S
H495 C519 0.951 . S
H496 C521 0.951 . S
H497 C523 0.950 . S
H498 C524 0.950 . S
H499 C526 0.950 . S
H500 C529 0.950 . S
H501 C530 0.950 . S
H502 C532 0.950 . S
H503 C533 0.950 . S
C504 H486 0.951 . S
C504 C505 1.366 1_565 S
C504 C506 1.388 . S
C505 C504 1.366 1_545 S
C505 C509 1.385 1_455 S
C506 H487 0.951 . S
C506 C504 1.388 . S
C506 C507 1.366 1_565 S
C507 C506 1.366 1_545 S
C507 C508 1.414 1_455 S
C507 C510 1.499 . S
C508 H488 0.950 . S
C508 C507 1.414 1_655 S
C508 C509 1.374 . S
C509 H489 0.950 . S
C509 C505 1.385 1_655 S
C509 C508 1.374 . S
C510 C507 1.499 . S
C510 C511 1.373 . S
C510 C512 1.389 1_545 S
C511 H490 0.950 . S
C511 C510 1.373 . S
C511 C527 1.377 . S
C512 C510 1.389 1_565 S
C512 C513 1.524 . S
C512 C526 1.377 . S
C513 C512 1.524 . S
C513 C514 1.397 . S
C513 C518 1.363 . S
C514 H491 0.950 1_455 S
C514 C513 1.397 . S
C514 C515 1.334 . S
C515 H492 0.950 1_455 S
C515 C514 1.334 . S
C515 C516 1.287 . S
C516 C515 1.287 . S
C516 C517 1.524 . S
C516 H535 0.913 . S
C517 H493 0.950 . S
C517 C516 1.524 . S
C517 C518 1.415 . S
C518 H494 0.950 . S
C518 C513 1.363 . S
C518 C517 1.415 . S
C519 H495 0.951 . S
C519 C520 1.366 1_655 S
C519 C521 1.388 . S
C520 C519 1.366 1_455 S
C520 C524 1.385 1_545 S
C521 H496 0.951 . S
C521 C519 1.388 . S
C521 C522 1.366 1_655 S
C522 C521 1.366 1_455 S
C522 C523 1.414 1_545 S
C522 C525 1.499 . S
C523 H497 0.950 . S
C523 C522 1.414 1_565 S
C523 C524 1.374 . S
C524 H498 0.950 . S
C524 C520 1.385 1_565 S
C524 C523 1.374 . S
C525 C522 1.499 . S
C525 C526 1.373 1_545 S
C525 C527 1.389 . S
C526 H499 0.950 . S
C526 C512 1.377 . S
C526 C525 1.373 1_565 S
C527 C511 1.377 . S
C527 C525 1.389 . S
C527 C528 1.524 . S
C528 C527 1.524 . S
C528 C529 1.397 . S
C528 C533 1.363 1_455 S
C529 H500 0.950 . S
C529 C528 1.397 . S
C529 C530 1.334 . S
C530 H501 0.950 . S
C530 C529 1.334 . S
C530 C531 1.287 . S
C531 C530 1.287 . S
C531 C532 1.524 1_455 S
C531 H534 0.999 . S
C532 H502 0.950 . S
C532 C531 1.524 1_655 S
C532 C533 1.415 . S
C533 H503 0.950 . S
C533 C528 1.363 1_655 S
C533 C532 1.415 . S
H534 C531 0.999 . S
H535 C516 0.913 . S
H536 C554 0.951 . S
H537 C556 0.951 . S
H538 C558 0.950 . S
H539 C559 0.950 . S
H540 C561 0.950 1_565 S
H541 C564 0.950 . S
H542 C565 0.950 . S
H543 C567 0.950 . S
H544 C568 0.950 . S
H545 C569 0.951 . S
H546 C571 0.951 . S
H547 C573 0.950 . S
H548 C574 0.950 . S
H549 C576 0.950 . S
H550 C579 0.950 1_455 S
H551 C580 0.950 . S
H552 C582 0.950 . S
H553 C583 0.950 . S
C554 H536 0.951 . S
C554 C555 1.366 . S
C554 C556 1.388 . S
C555 C554 1.366 . S
C555 C559 1.385 1_455 S
C556 H537 0.951 . S
C556 C554 1.388 . S
C556 C557 1.366 . S
C557 C556 1.366 . S
C557 C558 1.414 1_455 S
C557 C560 1.499 . S
C558 H538 0.950 . S
C558 C557 1.414 1_655 S
C558 C559 1.374 . S
C559 H539 0.950 . S
C559 C555 1.385 1_655 S
C559 C558 1.374 . S
C560 C557 1.499 . S
C560 C561 1.373 1_455 S
C560 C562 1.389 . S
C561 H540 0.950 1_545 S
C561 C560 1.373 1_655 S
C561 C577 1.377 . S
C562 C560 1.389 . S
C562 C563 1.524 . S
C562 C576 1.377 . S
C563 C562 1.524 . S
C563 C564 1.397 . S
C563 C568 1.363 . S
C564 H541 0.950 . S
C564 C563 1.397 . S
C564 C565 1.334 . S
C565 H542 0.950 . S
C565 C564 1.334 . S
C565 C566 1.287 . S
C566 C565 1.287 . S
C566 C567 1.524 . S
C566 H585 0.913 . S
C567 H543 0.950 . S
C567 C566 1.524 . S
C567 C568 1.415 . S
C568 H544 0.950 . S
C568 C563 1.363 . S
C568 C567 1.415 . S
C569 H545 0.951 . S
C569 C570 1.384 . S
C569 C571 1.388 . S
C570 C569 1.384 . S
C570 C574 1.364 1_655 S
C571 H546 0.951 . S
C571 C569 1.388 . S
C571 C572 1.366 1_655 S
C572 C571 1.366 1_455 S
C572 C573 1.414 . S
C572 C575 1.499 . S
C573 H547 0.950 . S
C573 C572 1.414 . S
C573 C574 1.374 . S
C574 H548 0.950 . S
C574 C570 1.364 1_455 S
C574 C573 1.374 . S
C575 C572 1.499 . S
C575 C576 1.373 . S
C575 C577 1.389 1_455 S
C576 H549 0.950 . S
C576 C562 1.377 . S
C576 C575 1.373 . S
C577 C561 1.377 . S
C577 C575 1.389 1_655 S
C577 C578 1.524 1_545 S
C578 C577 1.524 1_565 S
C578 C579 1.397 . S
C578 C583 1.363 . S
C579 H550 0.950 1_655 S
C579 C578 1.397 . S
C579 C580 1.334 . S
C580 H551 0.950 . S
C580 C579 1.334 . S
C580 C581 1.287 . S
C581 C580 1.287 . S
C581 C582 1.524 . S
C581 H584 0.999 . S
C582 H552 0.950 . S
C582 C581 1.524 . S
C582 C583 1.415 . S
C583 H553 0.950 . S
C583 C578 1.363 . S
C583 C582 1.415 . S
H584 C581 0.999 . S
H585 C566 0.913 . S
H586 C604 0.951 . S
H587 C606 0.951 . S
H588 C608 0.950 . S
H589 C609 0.950 . S
H590 C611 0.950 . S
H591 C614 0.950 . S
H592 C615 0.950 . S
H593 C617 0.950 . S
H594 C618 0.950 . S
H595 C619 0.951 . S
H596 C621 0.951 . S
H597 C623 0.950 . S
H598 C624 0.950 . S
H599 C626 0.950 . S
H600 C629 0.950 . S
H601 C630 0.950 . S
H602 C632 0.950 . S
H603 C633 0.950 . S
C604 H586 0.951 . S
C604 C605 1.366 . S
C604 C606 1.388 . S
C605 C604 1.366 . S
C605 C609 1.385 . S
C606 H587 0.951 . S
C606 C604 1.388 . S
C606 C607 1.366 . S
C607 C606 1.366 . S
C607 C608 1.414 . S
C607 C610 1.499 . S
C608 H588 0.950 . S
C608 C607 1.414 . S
C608 C609 1.374 . S
C609 H589 0.950 . S
C609 C605 1.385 . S
C609 C608 1.374 . S
C610 C607 1.499 . S
C610 C611 1.373 . S
C610 C612 1.389 . S
C611 H590 0.950 . S
C611 C610 1.373 . S
C611 C627 1.377 . S
C612 C610 1.389 . S
C612 C613 1.524 . S
C612 C626 1.377 . S
C613 C612 1.524 . S
C613 C614 1.397 . S
C613 C618 1.363 . S
C614 H591 0.950 . S
C614 C613 1.397 . S
C614 C615 1.334 . S
C615 H592 0.950 . S
C615 C614 1.334 . S
C615 C616 1.287 . S
C616 C615 1.287 . S
C616 C617 1.524 . S
C616 H635 0.913 . S
C617 H593 0.950 . S
C617 C616 1.524 . S
C617 C618 1.415 . S
C618 H594 0.950 . S
C618 C613 1.363 . S
C618 C617 1.415 . S
C619 H595 0.951 . S
C619 C620 1.366 . S
C619 C621 1.388 . S
C620 C619 1.366 . S
C620 C624 1.385 . S
C621 H596 0.951 . S
C621 C619 1.388 . S
C621 C622 1.366 . S
C622 C621 1.366 . S
C622 C623 1.414 . S
C622 C625 1.499 . S
C623 H597 0.950 . S
C623 C622 1.414 . S
C623 C624 1.374 . S
C624 H598 0.950 . S
C624 C620 1.385 . S
C624 C623 1.374 . S
C625 C622 1.499 . S
C625 C626 1.373 . S
C625 C627 1.389 . S
C626 H599 0.950 . S
C626 C612 1.377 . S
C626 C625 1.373 . S
C627 C611 1.377 . S
C627 C625 1.389 . S
C627 C628 1.524 . S
C628 C627 1.524 . S
C628 C629 1.397 . S
C628 C633 1.363 . S
C629 H600 0.950 . S
C629 C628 1.397 . S
C629 C630 1.334 . S
C630 H601 0.950 . S
C630 C629 1.334 . S
C630 C631 1.287 . S
C631 C630 1.287 . S
C631 C632 1.524 . S
C631 H634 0.999 . S
C632 H602 0.950 . S
C632 C631 1.524 . S
C632 C633 1.415 . S
C633 H603 0.950 . S
C633 C628 1.363 . S
C633 C632 1.415 . S
H634 C631 0.999 . S
H635 C616 0.913 . S
H636 C654 0.951 . S
H637 C656 0.951 . S
H638 C658 0.950 . S
H639 C659 0.950 . S
H640 C661 0.950 . S
H641 C664 0.950 . S
H642 C665 0.950 . S
H643 C667 0.950 . S
H644 C668 0.950 . S
H645 C669 0.951 . S
H646 C671 0.951 . S
H647 C673 0.950 . S
H648 C674 0.950 . S
H649 C676 0.950 . S
H650 C679 0.950 . S
H651 C680 0.950 . S
H652 C682 0.950 . S
H653 C683 0.950 . S
C654 H636 0.951 . S
C654 C655 1.366 . S
C654 C656 1.388 . S
C655 C654 1.366 . S
C655 C659 1.385 . S
C656 H637 0.951 . S
C656 C654 1.388 . S
C656 C657 1.366 . S
C657 C656 1.366 . S
C657 C658 1.414 . S
C657 C660 1.499 . S
C658 H638 0.950 . S
C658 C657 1.414 . S
C658 C659 1.374 . S
C659 H639 0.950 . S
C659 C655 1.385 . S
C659 C658 1.374 . S
C660 C657 1.499 . S
C660 C661 1.373 . S
C660 C662 1.389 . S
C661 H640 0.950 . S
C661 C660 1.373 . S
C661 C677 1.377 . S
C662 C660 1.389 . S
C662 C663 1.524 . S
C662 C676 1.377 . S
C663 C662 1.524 . S
C663 C664 1.397 . S
C663 C668 1.363 . S
C664 H641 0.950 . S
C664 C663 1.397 . S
C664 C665 1.334 . S
C665 H642 0.950 . S
C665 C664 1.334 . S
C665 C666 1.287 . S
C666 C665 1.287 . S
C666 C667 1.524 . S
C666 H685 0.913 . S
C667 H643 0.950 . S
C667 C666 1.524 . S
C667 C668 1.415 . S
C668 H644 0.950 . S
C668 C663 1.363 . S
C668 C667 1.415 . S
C669 H645 0.951 . S
C669 C670 1.366 . S
C669 C671 1.388 . S
C670 C669 1.366 . S
C670 C674 1.385 . S
C671 H646 0.951 . S
C671 C669 1.388 . S
C671 C672 1.366 . S
C672 C671 1.366 . S
C672 C673 1.414 . S
C672 C675 1.499 . S
C673 H647 0.950 . S
C673 C672 1.414 . S
C673 C674 1.374 . S
C674 H648 0.950 . S
C674 C670 1.385 . S
C674 C673 1.374 . S
C675 C672 1.499 . S
C675 C676 1.373 . S
C675 C677 1.389 . S
C676 H649 0.950 . S
C676 C662 1.377 . S
C676 C675 1.373 . S
C677 C661 1.377 . S
C677 C675 1.389 . S
C677 C678 1.524 . S
C678 C677 1.524 . S
C678 C679 1.397 . S
C678 C683 1.363 . S
C679 H650 0.950 . S
C679 C678 1.397 . S
C679 C680 1.334 . S
C680 H651 0.950 . S
C680 C679 1.334 . S
C680 C681 1.287 . S
C681 C680 1.287 . S
C681 C682 1.524 . S
C681 H684 0.999 . S
C682 H652 0.950 . S
C682 C681 1.524 . S
C682 C683 1.415 . S
C683 H653 0.950 . S
C683 C678 1.363 . S
C683 C682 1.415 . S
H684 C681 0.999 . S
H685 C666 0.913 . S
C120 C80 1.181 . S
C105 C16 1.237 . S
C155 C15 1.469 1_556 S
C170 C69 1.262 . S
C205 C13 1.270 1_554 S
C220 C83 1.411 . S
C255 C14 1.316 . S
C270 C72 1.347 . S
C305 C37 1.237 . S
C320 C58 1.181 . S
C355 C36 1.469 . S
C370 C47 1.262 . S
C420 C61 1.411 . S
C405 C34 1.270 . S
C470 C50 1.347 . S
C455 C35 1.320 . S
C505 C17 1.527 . S
C520 C49 1.525 . S
C555 C18 1.370 . S
C570 C60 1.360 1_655 S
C620 C71 1.525 . S
C605 C38 1.528 . S
C655 C39 1.370 . S
C670 C82 1.365 . S
