# Generated by pormake.
# Topology iac, (4,6)-cn, num edge types: 1
# Building blocks:
#     Node 0, Type 0, BuildingBlock: QUQFOY_clean_sbu_3, # of connection points: 4
#     Node 1, Type 0, BuildingBlock: QUQFOY_clean_sbu_3, # of connection points: 4
#     Node 2, Type 0, BuildingBlock: QUQFOY_clean_sbu_3, # of connection points: 4
#     Node 3, Type 0, BuildingBlock: QUQFOY_clean_sbu_3, # of connection points: 4
#     Node 4, Type 0, BuildingBlock: QUQFOY_clean_sbu_3, # of connection points: 4
#     Node 5, Type 0, BuildingBlock: QUQFOY_clean_sbu_3, # of connection points: 4
#     Node 6, Type 0, BuildingBlock: QUQFOY_clean_sbu_3, # of connection points: 4
#     Node 7, Type 0, BuildingBlock: QUQFOY_clean_sbu_3, # of connection points: 4
#     Node 8, Type 0, BuildingBlock: QUQFOY_clean_sbu_3, # of connection points: 4
#     Node 9, Type 0, BuildingBlock: QUQFOY_clean_sbu_3, # of connection points: 4
#     Node 10, Type 0, BuildingBlock: QUQFOY_clean_sbu_3, # of connection points: 4
#     Node 11, Type 0, BuildingBlock: QUQFOY_clean_sbu_3, # of connection points: 4
#     Node 12, Type 0, BuildingBlock: QUQFOY_clean_sbu_3, # of connection points: 4
#     Node 13, Type 0, BuildingBlock: QUQFOY_clean_sbu_3, # of connection points: 4
#     Node 14, Type 0, BuildingBlock: QUQFOY_clean_sbu_3, # of connection points: 4
#     Node 15, Type 0, BuildingBlock: QUQFOY_clean_sbu_3, # of connection points: 4
#     Node 16, Type 0, BuildingBlock: QUQFOY_clean_sbu_3, # of connection points: 4
#     Node 17, Type 0, BuildingBlock: QUQFOY_clean_sbu_3, # of connection points: 4
#     Node 18, Type 0, BuildingBlock: QUQFOY_clean_sbu_3, # of connection points: 4
#     Node 19, Type 0, BuildingBlock: QUQFOY_clean_sbu_3, # of connection points: 4
#     Node 20, Type 0, BuildingBlock: QUQFOY_clean_sbu_3, # of connection points: 4
#     Node 21, Type 0, BuildingBlock: QUQFOY_clean_sbu_3, # of connection points: 4
#     Node 22, Type 0, BuildingBlock: QUQFOY_clean_sbu_3, # of connection points: 4
#     Node 23, Type 0, BuildingBlock: QUQFOY_clean_sbu_3, # of connection points: 4
#     Node 24, Type 1, BuildingBlock: FUNLAD_clean_sbu_0, # of connection points: 6
#     Node 25, Type 1, BuildingBlock: FUNLAD_clean_sbu_0, # of connection points: 6
#     Node 26, Type 1, BuildingBlock: FUNLAD_clean_sbu_0, # of connection points: 6
#     Node 27, Type 1, BuildingBlock: FUNLAD_clean_sbu_0, # of connection points: 6
#     Node 28, Type 1, BuildingBlock: FUNLAD_clean_sbu_0, # of connection points: 6
#     Node 29, Type 1, BuildingBlock: FUNLAD_clean_sbu_0, # of connection points: 6
#     Node 30, Type 1, BuildingBlock: FUNLAD_clean_sbu_0, # of connection points: 6
#     Node 31, Type 1, BuildingBlock: FUNLAD_clean_sbu_0, # of connection points: 6
#     Node 32, Type 1, BuildingBlock: FUNLAD_clean_sbu_0, # of connection points: 6
#     Node 33, Type 1, BuildingBlock: FUNLAD_clean_sbu_0, # of connection points: 6
#     Node 34, Type 1, BuildingBlock: FUNLAD_clean_sbu_0, # of connection points: 6
#     Node 35, Type 1, BuildingBlock: FUNLAD_clean_sbu_0, # of connection points: 6
#     Node 36, Type 1, BuildingBlock: FUNLAD_clean_sbu_0, # of connection points: 6
#     Node 37, Type 1, BuildingBlock: FUNLAD_clean_sbu_0, # of connection points: 6
#     Node 38, Type 1, BuildingBlock: FUNLAD_clean_sbu_0, # of connection points: 6
#     Node 39, Type 1, BuildingBlock: FUNLAD_clean_sbu_0, # of connection points: 6
#     Edge 40, Type (0, 1), BuildingBlock: KIFKEQ_clean_linker_1, # of connection points: 2
#     Edge 41, Type (0, 1), BuildingBlock: KIFKEQ_clean_linker_1, # of connection points: 2
#     Edge 42, Type (0, 1), BuildingBlock: KIFKEQ_clean_linker_1, # of connection points: 2
#     Edge 43, Type (0, 1), BuildingBlock: KIFKEQ_clean_linker_1, # of connection points: 2
#     Edge 44, Type (0, 1), BuildingBlock: KIFKEQ_clean_linker_1, # of connection points: 2
#     Edge 45, Type (0, 1), BuildingBlock: KIFKEQ_clean_linker_1, # of connection points: 2
#     Edge 46, Type (0, 1), BuildingBlock: KIFKEQ_clean_linker_1, # of connection points: 2
#     Edge 47, Type (0, 1), BuildingBlock: KIFKEQ_clean_linker_1, # of connection points: 2
#     Edge 48, Type (0, 1), BuildingBlock: KIFKEQ_clean_linker_1, # of connection points: 2
#     Edge 49, Type (0, 1), BuildingBlock: KIFKEQ_clean_linker_1, # of connection points: 2
#     Edge 50, Type (0, 1), BuildingBlock: KIFKEQ_clean_linker_1, # of connection points: 2
#     Edge 51, Type (0, 1), BuildingBlock: KIFKEQ_clean_linker_1, # of connection points: 2
#     Edge 52, Type (0, 1), BuildingBlock: KIFKEQ_clean_linker_1, # of connection points: 2
#     Edge 53, Type (0, 1), BuildingBlock: KIFKEQ_clean_linker_1, # of connection points: 2
#     Edge 54, Type (0, 1), BuildingBlock: KIFKEQ_clean_linker_1, # of connection points: 2
#     Edge 55, Type (0, 1), BuildingBlock: KIFKEQ_clean_linker_1, # of connection points: 2
#     Edge 56, Type (0, 1), BuildingBlock: KIFKEQ_clean_linker_1, # of connection points: 2
#     Edge 57, Type (0, 1), BuildingBlock: KIFKEQ_clean_linker_1, # of connection points: 2
#     Edge 58, Type (0, 1), BuildingBlock: KIFKEQ_clean_linker_1, # of connection points: 2
#     Edge 59, Type (0, 1), BuildingBlock: KIFKEQ_clean_linker_1, # of connection points: 2
#     Edge 60, Type (0, 1), BuildingBlock: KIFKEQ_clean_linker_1, # of connection points: 2
#     Edge 61, Type (0, 1), BuildingBlock: KIFKEQ_clean_linker_1, # of connection points: 2
#     Edge 62, Type (0, 1), BuildingBlock: KIFKEQ_clean_linker_1, # of connection points: 2
#     Edge 63, Type (0, 1), BuildingBlock: KIFKEQ_clean_linker_1, # of connection points: 2
#     Edge 64, Type (0, 1), BuildingBlock: KIFKEQ_clean_linker_1, # of connection points: 2
#     Edge 65, Type (0, 1), BuildingBlock: KIFKEQ_clean_linker_1, # of connection points: 2
#     Edge 66, Type (0, 1), BuildingBlock: KIFKEQ_clean_linker_1, # of connection points: 2
#     Edge 67, Type (0, 1), BuildingBlock: KIFKEQ_clean_linker_1, # of connection points: 2
#     Edge 68, Type (0, 1), BuildingBlock: KIFKEQ_clean_linker_1, # of connection points: 2
#     Edge 69, Type (0, 1), BuildingBlock: KIFKEQ_clean_linker_1, # of connection points: 2
#     Edge 70, Type (0, 1), BuildingBlock: KIFKEQ_clean_linker_1, # of connection points: 2
#     Edge 71, Type (0, 1), BuildingBlock: KIFKEQ_clean_linker_1, # of connection points: 2
#     Edge 72, Type (0, 1), BuildingBlock: KIFKEQ_clean_linker_1, # of connection points: 2
#     Edge 73, Type (0, 1), BuildingBlock: KIFKEQ_clean_linker_1, # of connection points: 2
#     Edge 74, Type (0, 1), BuildingBlock: KIFKEQ_clean_linker_1, # of connection points: 2
#     Edge 75, Type (0, 1), BuildingBlock: KIFKEQ_clean_linker_1, # of connection points: 2
#     Edge 76, Type (0, 1), BuildingBlock: KIFKEQ_clean_linker_1, # of connection points: 2
#     Edge 77, Type (0, 1), BuildingBlock: KIFKEQ_clean_linker_1, # of connection points: 2
#     Edge 78, Type (0, 1), BuildingBlock: KIFKEQ_clean_linker_1, # of connection points: 2
#     Edge 79, Type (0, 1), BuildingBlock: KIFKEQ_clean_linker_1, # of connection points: 2
#     Edge 80, Type (0, 1), BuildingBlock: KIFKEQ_clean_linker_1, # of connection points: 2
#     Edge 81, Type (0, 1), BuildingBlock: KIFKEQ_clean_linker_1, # of connection points: 2
#     Edge 82, Type (0, 1), BuildingBlock: KIFKEQ_clean_linker_1, # of connection points: 2
#     Edge 83, Type (0, 1), BuildingBlock: KIFKEQ_clean_linker_1, # of connection points: 2
#     Edge 84, Type (0, 1), BuildingBlock: KIFKEQ_clean_linker_1, # of connection points: 2
#     Edge 85, Type (0, 1), BuildingBlock: KIFKEQ_clean_linker_1, # of connection points: 2
#     Edge 86, Type (0, 1), BuildingBlock: KIFKEQ_clean_linker_1, # of connection points: 2
#     Edge 87, Type (0, 1), BuildingBlock: KIFKEQ_clean_linker_1, # of connection points: 2
#     Edge 88, Type (0, 1), BuildingBlock: KIFKEQ_clean_linker_1, # of connection points: 2
#     Edge 89, Type (0, 1), BuildingBlock: KIFKEQ_clean_linker_1, # of connection points: 2
#     Edge 90, Type (0, 1), BuildingBlock: KIFKEQ_clean_linker_1, # of connection points: 2
#     Edge 91, Type (0, 1), BuildingBlock: KIFKEQ_clean_linker_1, # of connection points: 2
#     Edge 92, Type (0, 1), BuildingBlock: KIFKEQ_clean_linker_1, # of connection points: 2
#     Edge 93, Type (0, 1), BuildingBlock: KIFKEQ_clean_linker_1, # of connection points: 2
#     Edge 94, Type (0, 1), BuildingBlock: KIFKEQ_clean_linker_1, # of connection points: 2
#     Edge 95, Type (0, 1), BuildingBlock: KIFKEQ_clean_linker_1, # of connection points: 2
#     Edge 96, Type (0, 1), BuildingBlock: KIFKEQ_clean_linker_1, # of connection points: 2
#     Edge 97, Type (0, 1), BuildingBlock: KIFKEQ_clean_linker_1, # of connection points: 2
#     Edge 98, Type (0, 1), BuildingBlock: KIFKEQ_clean_linker_1, # of connection points: 2
#     Edge 99, Type (0, 1), BuildingBlock: KIFKEQ_clean_linker_1, # of connection points: 2
#     Edge 100, Type (0, 1), BuildingBlock: KIFKEQ_clean_linker_1, # of connection points: 2
#     Edge 101, Type (0, 1), BuildingBlock: KIFKEQ_clean_linker_1, # of connection points: 2
#     Edge 102, Type (0, 1), BuildingBlock: KIFKEQ_clean_linker_1, # of connection points: 2
#     Edge 103, Type (0, 1), BuildingBlock: KIFKEQ_clean_linker_1, # of connection points: 2
#     Edge 104, Type (0, 1), BuildingBlock: KIFKEQ_clean_linker_1, # of connection points: 2
#     Edge 105, Type (0, 1), BuildingBlock: KIFKEQ_clean_linker_1, # of connection points: 2
#     Edge 106, Type (0, 1), BuildingBlock: KIFKEQ_clean_linker_1, # of connection points: 2
#     Edge 107, Type (0, 1), BuildingBlock: KIFKEQ_clean_linker_1, # of connection points: 2
#     Edge 108, Type (0, 1), BuildingBlock: KIFKEQ_clean_linker_1, # of connection points: 2
#     Edge 109, Type (0, 1), BuildingBlock: KIFKEQ_clean_linker_1, # of connection points: 2
#     Edge 110, Type (0, 1), BuildingBlock: KIFKEQ_clean_linker_1, # of connection points: 2
#     Edge 111, Type (0, 1), BuildingBlock: KIFKEQ_clean_linker_1, # of connection points: 2
#     Edge 112, Type (0, 1), BuildingBlock: KIFKEQ_clean_linker_1, # of connection points: 2
#     Edge 113, Type (0, 1), BuildingBlock: KIFKEQ_clean_linker_1, # of connection points: 2
#     Edge 114, Type (0, 1), BuildingBlock: KIFKEQ_clean_linker_1, # of connection points: 2
#     Edge 115, Type (0, 1), BuildingBlock: KIFKEQ_clean_linker_1, # of connection points: 2
#     Edge 116, Type (0, 1), BuildingBlock: KIFKEQ_clean_linker_1, # of connection points: 2
#     Edge 117, Type (0, 1), BuildingBlock: KIFKEQ_clean_linker_1, # of connection points: 2
#     Edge 118, Type (0, 1), BuildingBlock: KIFKEQ_clean_linker_1, # of connection points: 2
#     Edge 119, Type (0, 1), BuildingBlock: KIFKEQ_clean_linker_1, # of connection points: 2
#     Edge 120, Type (0, 1), BuildingBlock: KIFKEQ_clean_linker_1, # of connection points: 2
#     Edge 121, Type (0, 1), BuildingBlock: KIFKEQ_clean_linker_1, # of connection points: 2
#     Edge 122, Type (0, 1), BuildingBlock: KIFKEQ_clean_linker_1, # of connection points: 2
#     Edge 123, Type (0, 1), BuildingBlock: KIFKEQ_clean_linker_1, # of connection points: 2
#     Edge 124, Type (0, 1), BuildingBlock: KIFKEQ_clean_linker_1, # of connection points: 2
#     Edge 125, Type (0, 1), BuildingBlock: KIFKEQ_clean_linker_1, # of connection points: 2
#     Edge 126, Type (0, 1), BuildingBlock: KIFKEQ_clean_linker_1, # of connection points: 2
#     Edge 127, Type (0, 1), BuildingBlock: KIFKEQ_clean_linker_1, # of connection points: 2
#     Edge 128, Type (0, 1), BuildingBlock: KIFKEQ_clean_linker_1, # of connection points: 2
#     Edge 129, Type (0, 1), BuildingBlock: KIFKEQ_clean_linker_1, # of connection points: 2
#     Edge 130, Type (0, 1), BuildingBlock: KIFKEQ_clean_linker_1, # of connection points: 2
#     Edge 131, Type (0, 1), BuildingBlock: KIFKEQ_clean_linker_1, # of connection points: 2
#     Edge 132, Type (0, 1), BuildingBlock: KIFKEQ_clean_linker_1, # of connection points: 2
#     Edge 133, Type (0, 1), BuildingBlock: KIFKEQ_clean_linker_1, # of connection points: 2
#     Edge 134, Type (0, 1), BuildingBlock: KIFKEQ_clean_linker_1, # of connection points: 2
#     Edge 135, Type (0, 1), BuildingBlock: KIFKEQ_clean_linker_1, # of connection points: 2
# Relax obj value: 0.322
# Max RMSD: 0.273
# Mean RMSD: 0.129
data_MOF--net-iac--node1-QUQFOY_clean_sbu_3--node2-FUNLAD_clean_sbu_0--edge1-KIFKEQ_clean_linker_1
_symmetry_space_group_name_H-M    P1
_symmetry_Int_Tables_number       1
_symmetry_cell_setting            triclinic
loop_
_symmetry_equiv_pos_as_xyz
'x, y, z'
_cell_length_a     56.431565
_cell_length_b     55.390503
_cell_length_c     61.161414
_cell_angle_alpha  90.696464
_cell_angle_beta   92.039399
_cell_angle_gamma 90.557487
loop_
_atom_site_label
_atom_site_type_symbol
_atom_site_fract_x
_atom_site_fract_y
_atom_site_fract_z
_atom_type_partial_charge
C0 C 0.04694 0.21059 0.20616 0.0
O1 O 0.06147 0.19345 0.20895 0.0
Cd2 Cd 0.09873 0.19254 0.19131 0.0
O3 O 0.05143 0.22772 0.1932 0.0
Cd4 Cd 0.08284 0.23704 0.16805 0.0
C5 C 0.07585 0.18462 0.14089 0.0
O6 O 0.11472 0.23324 0.19487 0.0
O7 O 0.12531 0.23773 0.16157 0.0
O8 O 0.0709 0.27964 0.16811 0.0
C9 C 0.13076 0.23878 0.18181 0.0
O10 O 0.08984 0.175 0.15493 0.0
C11 C 0.07416 0.28163 0.14773 0.0
O12 O 0.06937 0.20624 0.14329 0.0
O13 O 0.08033 0.26289 0.1374 0.0
C14 C 0.98569 0.7559 0.35167 0.0
O15 O -0.00051 0.76924 0.34102 0.0
Cd16 Cd 0.03988 0.77813 0.35073 0.0
O17 O -0.00675 0.7448 0.3687 0.0
Cd18 Cd 0.03248 0.73969 0.38908 0.0
C19 C 0.03284 0.79968 0.40326 0.0
O20 O 0.05656 0.73957 0.35681 0.0
O21 O 0.07656 0.74233 0.38728 0.0
O22 O 0.0252 0.69607 0.39152 0.0
C23 C 0.07665 0.74017 0.36661 0.0
O24 O 0.03867 0.80343 0.38366 0.0
C25 C 0.02858 0.6947 0.41209 0.0
O26 O 0.02824 0.77833 0.40964 0.0
O27 O 0.03302 0.71445 0.42231 0.0
C28 C 0.5441 0.70803 0.71345 0.0
O29 O 0.55698 0.68952 0.71154 0.0
Cd30 Cd 0.5883 0.68721 0.68558 0.0
O31 O 0.54674 0.72597 0.70097 0.0
Cd32 Cd 0.56975 0.73503 0.66911 0.0
C33 C 0.55466 0.68558 0.63941 0.0
O34 O 0.60961 0.72495 0.68256 0.0
O35 O 0.60504 0.73279 0.64798 0.0
O36 O 0.57384 0.7789 0.67304 0.0
C37 C 0.61889 0.72983 0.66447 0.0
O38 O 0.57008 0.67421 0.6508 0.0
C39 C 0.55957 0.78315 0.65707 0.0
O40 O 0.54971 0.70729 0.644 0.0
O41 O 0.54922 0.76521 0.64774 0.0
C42 C 0.48494 0.24854 0.85034 0.0
O43 O 0.49856 0.26035 0.83823 0.0
Cd44 Cd 0.5378 0.27247 0.84841 0.0
O45 O 0.49266 0.24011 0.86859 0.0
Cd46 Cd 0.53258 0.23743 0.88899 0.0
C47 C 0.52793 0.29753 0.89965 0.0
O48 O 0.55767 0.23603 0.85721 0.0
O49 O 0.57605 0.24522 0.8876 0.0
O50 O 0.52743 0.19364 0.8928 0.0
C51 C 0.57723 0.24006 0.8674 0.0
O52 O 0.53261 0.29989 0.87955 0.0
C53 C 0.53084 0.19303 0.91341 0.0
O54 O 0.52626 0.27658 0.90796 0.0
O55 O 0.53455 0.21325 0.92306 0.0
C56 C 0.10984 0.0299 0.27921 0.0
O57 O 0.0988 0.04349 0.2658 0.0
Cd58 Cd 0.10538 0.0458 0.22737 0.0
O59 O 0.12594 0.01575 0.27273 0.0
Cd60 Cd 0.14546 0.00594 0.23793 0.0
C61 C 0.16307 0.06461 0.23191 0.0
O62 O 0.10914 0.0048 0.21523 0.0
O63 O 0.14166 0.00104 0.19809 0.0
O64 O 0.15087 0.96381 0.24821 0.0
C65 C 0.11919 0.00103 0.19735 0.0
O66 O 0.1418 0.06967 0.2262 0.0
C67 C 0.17321 0.96401 0.24619 0.0
O68 O 0.16858 0.04333 0.23766 0.0
O69 O 0.18266 0.98389 0.24089 0.0
C70 C 0.30739 0.92796 0.53906 0.0
O71 O 0.29183 0.94182 0.53067 0.0
Cd72 Cd 0.25095 0.93205 0.52438 0.0
O73 O 0.30153 0.9076 0.54694 0.0
Cd74 Cd 0.2642 0.88419 0.5525 0.0
C75 C 0.26139 0.87871 0.4972 0.0
O76 O 0.23806 0.91803 0.55851 0.0
O77 O 0.22037 0.88408 0.55202 0.0
O78 O 0.27935 0.87177 0.58866 0.0
C79 C 0.21872 0.90634 0.5567 0.0
O80 O 0.25311 0.90002 0.49652 0.0
C81 C 0.27346 0.84968 0.58599 0.0
O82 O 0.26771 0.86921 0.51531 0.0
O83 O 0.26378 0.84366 0.56764 0.0
C84 C 0.43735 0.99037 0.77206 0.0
O85 O 0.45277 0.98319 0.7589 0.0
Cd86 Cd 0.44403 0.9791 0.72067 0.0
O87 O 0.41766 -0.00116 0.76494 0.0
Cd88 Cd 0.39708 0.00907 0.72977 0.0
C89 C 0.39045 0.94895 0.72579 0.0
O90 O 0.43158 0.01805 0.70894 0.0
O91 O 0.39898 0.01239 0.68995 0.0
O92 O 0.38978 0.04915 0.74372 0.0
C93 C 0.42069 0.0186 0.69049 0.0
O94 O 0.41242 0.94858 0.72169 0.0
C95 C 0.36755 0.04863 0.73968 0.0
O96 O 0.37999 0.96879 0.72928 0.0
O97 O 0.35874 0.02919 0.73151 0.0
C98 C 0.33293 0.08192 0.06241 0.0
O99 O 0.31454 0.07589 0.07245 0.0
Cd100 Cd 0.27823 0.09668 0.06565 0.0
O101 O 0.33221 0.09797 0.04767 0.0
Cd102 Cd 0.30365 0.12421 0.02923 0.0
C103 C 0.29814 0.15412 0.07639 0.0
O104 O 0.27408 0.09331 0.02649 0.0
O105 O 0.2615 0.12894 0.01841 0.0
O106 O 0.32069 0.11771 -0.00635 0.0
C107 C 0.25836 0.10623 0.01739 0.0
O108 O 0.28524 0.13665 0.08248 0.0
C109 C 0.32118 0.14003 0.98916 0.0
O110 O 0.30754 0.15359 0.0579 0.0
O111 O 0.31577 0.15471 0.00422 0.0
C112 C 0.80473 0.43106 0.04172 0.0
O113 O 0.78908 0.44491 0.03346 0.0
Cd114 Cd 0.74857 0.43424 0.02628 0.0
O115 O 0.79905 0.41047 0.04923 0.0
Cd116 Cd 0.76215 0.38624 0.05467 0.0
C117 C 0.76103 0.38088 -0.00054 0.0
O118 O 0.73536 0.41954 0.05994 0.0
O119 O 0.71828 0.38535 0.05313 0.0
O120 O 0.7772 0.37488 0.09113 0.0
C121 C 0.7162 0.40762 0.05758 0.0
O122 O 0.75259 0.40213 -0.00127 0.0
C123 C 0.77162 0.35266 0.08889 0.0
O124 O 0.76687 0.37122 0.01763 0.0
O125 O 0.76211 0.34606 0.07062 0.0
C126 C 0.94237 0.48962 0.26578 0.0
O127 O 0.95718 0.48303 0.25181 0.0
Cd128 Cd 0.94564 0.47968 0.21419 0.0
O129 O 0.92225 0.49802 0.25972 0.0
Cd130 Cd 0.89942 0.50945 0.226 0.0
C131 C 0.89257 0.44939 0.22203 0.0
O132 O 0.93303 0.51931 0.20461 0.0
O133 O 0.90018 0.51463 0.18594 0.0
O134 O 0.89236 0.54868 0.24219 0.0
C135 C 0.92194 0.52069 0.18634 0.0
O136 O 0.9143 0.44905 0.21706 0.0
C137 C 0.87001 0.54813 0.23888 0.0
O138 O 0.88223 0.46924 0.22573 0.0
O139 O 0.8611 0.52918 0.22987 0.0
C140 C 0.82121 0.56968 0.55869 0.0
O141 O 0.80965 0.56324 0.5751 0.0
Cd142 Cd 0.78315 0.59078 0.59138 0.0
O143 O 0.81821 0.59041 0.55034 0.0
Cd144 Cd 0.79454 0.62696 0.55384 0.0
C145 C 0.82273 0.63758 0.60203 0.0
O146 O 0.75895 0.60482 0.56133 0.0
O147 O 0.75686 0.64361 0.56481 0.0
O148 O 0.79138 0.6235 0.51445 0.0
C149 C 0.74617 0.62344 0.5625 0.0
O150 O 0.81017 0.62011 0.60865 0.0
C151 C 0.79365 0.64585 0.51072 0.0
O152 O 0.82108 0.64426 0.58222 0.0
O153 O 0.79803 0.65963 0.52718 0.0
C154 C 0.60111 0.53109 0.76866 0.0
O155 O 0.58853 0.54347 0.7554 0.0
Cd156 Cd 0.59621 0.54781 0.71731 0.0
O157 O 0.61881 0.51927 0.76202 0.0
Cd158 Cd 0.63975 0.51202 0.72754 0.0
C159 C 0.65187 0.5722 0.7247 0.0
O160 O 0.60494 0.50864 0.70301 0.0
O161 O 0.63847 0.51046 0.6873 0.0
O162 O 0.64602 0.47002 0.7373 0.0
C163 C 0.61612 0.50805 0.68541 0.0
O164 O 0.63037 0.57499 0.7183 0.0
C165 C 0.66847 0.47085 0.73647 0.0
O166 O 0.65955 0.55144 0.73 0.0
O167 O 0.67772 0.49103 0.73171 0.0
C168 C 0.93437 0.80141 0.84991 0.0
O169 O 0.93791 0.81814 0.8364 0.0
Cd170 Cd 0.97804 0.83366 0.83417 0.0
O171 O 0.95177 0.792 0.86012 0.0
Cd172 Cd -0.00566 0.7941 0.86349 0.0
C173 C 0.98787 0.8467 0.88825 0.0
O174 O 0.00895 0.80452 0.82732 0.0
O175 O 0.03159 0.81242 0.85605 0.0
O176 O -0.00638 0.75065 0.85971 0.0
C177 C 0.02919 0.81097 0.83537 0.0
O178 O 0.98558 0.8549 0.86894 0.0
C179 C 0.00271 0.74692 0.87864 0.0
O180 O 0.98957 0.82418 0.8915 0.0
O181 O 0.00949 0.76533 0.8899 0.0
C182 C 0.97551 0.24174 0.6849 0.0
O183 O 0.98835 0.227 0.69563 0.0
Cd184 Cd 0.02761 0.2155 0.68614 0.0
O185 O 0.98321 0.25139 0.66761 0.0
Cd186 Cd 0.02097 0.25074 0.64643 0.0
C187 C 0.02005 0.19009 0.63472 0.0
O188 O 0.04811 0.25249 0.67897 0.0
O189 O 0.06482 0.24758 0.64822 0.0
O190 O 0.01341 0.29365 0.63971 0.0
C191 C 0.06715 0.25074 0.66874 0.0
O192 O 0.02565 0.18744 0.6549 0.0
C193 C 0.01582 0.29271 0.61917 0.0
O194 O 0.0156 0.21105 0.62728 0.0
O195 O 0.02058 0.27217 0.61108 0.0
C196 C 0.45016 0.30957 0.34185 0.0
O197 O 0.45852 0.31328 0.32324 0.0
Cd198 Cd 0.49955 0.32523 0.33281 0.0
O199 O 0.46229 0.31749 0.35815 0.0
Cd200 Cd 0.49039 0.29058 0.37463 0.0
C201 C 0.50256 0.34685 0.38779 0.0
O202 O 0.51545 0.28646 0.34357 0.0
O203 O 0.53257 0.28561 0.37594 0.0
O204 O 0.46941 0.25185 0.37331 0.0
C205 C 0.53446 0.2853 0.3553 0.0
O206 O 0.50361 0.34992 0.36714 0.0
C207 C 0.46908 0.25012 0.39402 0.0
O208 O 0.49769 0.32628 0.39565 0.0
O209 O 0.4787 0.26719 0.40537 0.0
C210 C 0.47679 0.73507 0.18414 0.0
O211 O 0.48943 0.71936 0.19388 0.0
Cd212 Cd 0.52912 0.70859 0.18519 0.0
O213 O 0.48478 0.7464 0.16781 0.0
Cd214 Cd 0.52284 0.74768 0.14701 0.0
C215 C 0.52314 0.68736 0.13216 0.0
O216 O 0.54837 0.74659 0.18049 0.0
O217 O 0.5669 0.7479 0.15044 0.0
O218 O 0.51486 0.79086 0.14149 0.0
C219 C 0.56799 0.74742 0.17117 0.0
O220 O 0.52802 0.68322 0.15225 0.0
C221 C 0.51744 0.79056 0.12095 0.0
O222 O 0.51899 0.70885 0.12587 0.0
O223 O 0.52237 0.7703 0.1124 0.0
C224 C 0.93553 0.01981 0.82014 0.0
O225 O 0.94903 0.00602 0.80963 0.0
Cd226 Cd 0.93552 0.98499 0.77712 0.0
O227 O 0.91491 0.02473 0.81253 0.0
Cd228 Cd 0.88869 0.0184 0.78005 0.0
C229 C 0.88304 0.96096 0.79573 0.0
O230 O 0.91839 0.01394 0.75295 0.0
O231 O 0.88282 0.00339 0.74249 0.0
O232 O 0.88435 0.06151 0.78077 0.0
C233 C 0.90444 0.00575 0.73787 0.0
O234 O 0.90429 0.9583 0.78978 0.0
C235 C 0.86187 0.06135 0.78099 0.0
O236 O 0.87293 0.98139 0.7947 0.0
O237 O 0.8515 0.04085 0.78034 0.0
C238 C 0.80378 0.07599 0.49985 0.0
O239 O 0.78829 0.06485 0.51056 0.0
Cd240 Cd 0.74792 0.07672 0.51481 0.0
O241 O 0.79883 0.09582 0.49042 0.0
Cd242 Cd 0.76403 0.12308 0.48651 0.0
C243 C 0.75724 0.13114 0.54114 0.0
O244 O 0.73403 0.09168 0.48039 0.0
O245 O 0.7208 0.12767 0.48418 0.0
O246 O 0.7766 0.13311 0.45001 0.0
C247 C 0.71626 0.10543 0.48112 0.0
O248 O 0.74887 0.10971 0.54144 0.0
C249 C 0.77634 0.15585 0.45299 0.0
O250 O 0.76575 0.13969 0.5238 0.0
O251 O 0.77054 0.16341 0.47172 0.0
C252 C 0.60857 0.00969 0.32582 0.0
O253 O 0.59848 0.02366 0.31212 0.0
Cd254 Cd 0.61105 0.03394 0.27648 0.0
O255 O 0.62825 -0.0003 0.32174 0.0
Cd256 Cd 0.65727 -0.00162 0.29188 0.0
C257 C 0.66621 0.05939 0.2894 0.0
O258 O 0.62692 -0.0024 0.2635 0.0
O259 O 0.66241 -0.00413 0.25196 0.0
O260 O 0.66264 0.95648 0.30163 0.0
C261 C 0.64042 -0.00269 0.24744 0.0
O262 O 0.64493 0.06061 0.28185 0.0
C263 C 0.68514 0.95708 0.30184 0.0
O264 O 0.67491 0.03937 0.29582 0.0
O265 O 0.69491 0.97735 0.29822 0.0
C266 C 0.75338 0.93089 0.03648 0.0
O267 O 0.73339 0.94027 0.03194 0.0
Cd268 Cd 0.6994 0.91401 0.02598 0.0
O269 O 0.75578 0.90808 0.03662 0.0
Cd270 Cd 0.73849 0.8677 0.03194 0.0
C271 C 0.71623 0.87987 0.98112 0.0
O272 O 0.70593 0.88168 0.05093 0.0
O273 O 0.70139 0.84537 0.03902 0.0
O274 O 0.7714 0.86211 0.05707 0.0
C275 C 0.69207 0.8639 0.04736 0.0
O276 O 0.70233 0.89509 0.98964 0.0
C277 C 0.77507 0.8402 0.05219 0.0
O278 O 0.73226 0.86926 -0.00742 0.0
O279 O 0.76149 0.83051 0.03746 0.0
C280 C 0.30304 0.5767 -0.00613 0.0
O281 O 0.28767 0.56457 0.00386 0.0
Cd282 Cd 0.24709 0.57535 0.00845 0.0
O283 O 0.29777 0.59698 0.98543 0.0
Cd284 Cd 0.26235 0.6235 0.98264 0.0
C285 C 0.25536 0.62843 0.03735 0.0
O286 O 0.23295 0.59178 0.97475 0.0
O287 O 0.21911 0.62718 0.98061 0.0
O288 O 0.27524 0.63512 0.94676 0.0
C289 C 0.21496 0.60512 0.97617 0.0
O290 O 0.24727 0.60688 0.03641 0.0
C291 C 0.27371 0.65772 0.95009 0.0
O292 O 0.264 0.63823 0.0206 0.0
O293 O 0.26719 0.66455 0.96881 0.0
C294 C 0.10261 0.5043 0.82193 0.0
O295 O 0.0919 0.51792 0.80832 0.0
Cd296 Cd 0.10529 0.53194 0.77413 0.0
O297 O 0.12327 0.49627 0.81835 0.0
Cd298 Cd 0.15236 0.49711 0.78838 0.0
C299 C 0.16017 0.55824 0.78764 0.0
O300 O 0.12161 0.49625 0.7605 0.0
O301 O 0.15665 0.49566 0.748 0.0
O302 O 0.1592 0.45526 0.79748 0.0
C303 C 0.1345 0.49666 0.74407 0.0
O304 O 0.13876 0.55942 0.78039 0.0
C305 C 0.18167 0.45669 0.79772 0.0
O306 O 0.1692 0.53811 0.79328 0.0
O307 O 0.19073 0.47731 0.7942 0.0
C308 C 0.25891 0.41445 0.51461 0.0
O309 O 0.23953 0.42549 0.51116 0.0
Cd310 Cd 0.20256 0.40639 0.51924 0.0
O311 O 0.25901 0.39334 0.52259 0.0
Cd312 Cd 0.23649 0.35966 0.53706 0.0
C313 C 0.20483 0.35315 0.48907 0.0
O314 O 0.21164 0.38744 0.55349 0.0
O315 O 0.20059 0.35078 0.55788 0.0
O316 O 0.2723 0.35791 0.5592 0.0
C317 C 0.19581 0.37305 0.55965 0.0
O318 O 0.19611 0.37414 0.49147 0.0
C319 C 0.27425 0.33514 0.55832 0.0
O320 O 0.22015 0.34474 0.50265 0.0
O321 O 0.25788 0.3233 0.54799 0.0
C322 C 0.42809 0.51397 0.31027 0.0
O323 O 0.44267 0.50303 0.29839 0.0
Cd324 Cd 0.42927 0.48149 0.26619 0.0
O325 O 0.40627 0.51524 0.30441 0.0
Cd326 Cd 0.37621 0.50619 0.27534 0.0
C327 C 0.38374 0.44804 0.28935 0.0
O328 O 0.40435 0.50944 0.24776 0.0
O329 O 0.37011 0.49655 0.23581 0.0
O330 O 0.37006 0.5477 0.28372 0.0
C331 C 0.39138 0.50202 0.23174 0.0
O332 O 0.40428 0.45009 0.28148 0.0
C333 C 0.3476 0.54707 0.28305 0.0
O334 O 0.36953 0.46582 0.28967 0.0
O335 O 0.33764 0.52678 0.27854 0.0
C336 C 0.98817 0.03858 0.97479 0.0
N337 N 0.95908 0.01907 0.03415 0.0
C338 C 0.9412 0.03418 0.02811 0.0
C339 C 0.91794 0.02894 0.03367 0.0
C340 C 0.91325 0.00811 0.04571 0.0
C341 C 0.93239 -0.00585 0.05335 0.0
C342 C 0.95522 -0.00021 0.04711 0.0
Zn343 Zn -0.00862 0.02241 0.02092 0.0
C344 C 0.00556 0.97688 -0.00086 0.0
N345 N 0.05834 0.02819 -0.00756 0.0
C346 C 0.06438 0.04947 0.98319 0.0
C347 C 0.07363 0.00939 -0.00663 0.0
C348 C 0.09653 0.0121 0.98597 0.0
C349 C 0.10398 0.03463 0.97825 0.0
C350 C 0.08728 0.05319 0.97614 0.0
Zn351 Zn 0.02645 0.02522 0.0062 0.0
O352 O 0.97509 0.03335 0.99057 0.0
C353 C 0.01311 0.07053 0.02816 0.0
O354 O 0.01045 0.03682 0.97723 0.0
H355 H 0.06841 0.99255 0.00064 0.0
H356 H 0.94474 0.04954 0.01794 0.0
H357 H 0.05178 0.06403 0.98222 0.0
O358 O -0.00577 0.0588 0.03189 0.0
O359 O 0.02922 0.06051 0.01749 0.0
H360 H 0.96964 0.98795 0.05166 0.0
O361 O 0.04291 0.01388 0.03544 0.0
O362 O 0.00853 0.01158 0.05092 0.0
O363 O 0.02346 0.98985 -0.00479 0.0
O364 O 0.98884 0.9858 0.0099 0.0
C365 C 0.03097 0.00964 0.05218 0.0
H366 H 0.90371 0.04016 0.02739 0.0
H367 H 0.92961 0.97823 0.06309 0.0
H368 H 0.10861 -0.00291 0.9874 0.0
H369 H 0.09214 0.07096 0.97053 0.0
C370 C 0.31699 0.76507 0.24878 0.0
N371 N 0.25147 0.74342 0.21988 0.0
C372 C 0.25954 0.75479 0.20197 0.0
C373 C 0.2559 0.74443 0.1812 0.0
C374 C 0.24387 0.72219 0.17893 0.0
C375 C 0.23421 0.71182 0.19752 0.0
C376 C 0.23828 0.72278 0.21796 0.0
Zn377 Zn 0.26368 0.75447 0.25009 0.0
C378 C 0.28224 0.71277 0.27545 0.0
N379 N 0.29223 0.77642 0.31252 0.0
C380 C 0.30302 0.79823 0.31637 0.0
C381 C 0.28419 0.76293 0.32922 0.0
C382 C 0.28487 0.77214 0.35049 0.0
C383 C 0.29405 0.79538 0.35464 0.0
C384 C 0.30424 0.8081 0.33757 0.0
Zn385 Zn 0.28083 0.76589 0.2818 0.0
O386 O 0.29847 0.75901 0.23746 0.0
C387 C 0.26088 0.80736 0.25655 0.0
O388 O 0.31517 0.76977 0.26908 0.0
H389 H 0.27543 0.74578 0.32586 0.0
H390 H 0.27006 0.77115 0.20391 0.0
H391 H 0.30908 0.80874 0.30283 0.0
O392 O 0.25516 0.79053 0.24301 0.0
O393 O 0.27253 0.8023 0.27405 0.0
H394 H 0.23207 0.71405 0.23243 0.0
O395 O 0.2465 0.76178 0.29423 0.0
O396 O 0.22938 0.7497 0.26328 0.0
O397 O 0.28845 0.7293 0.28912 0.0
O398 O 0.27182 0.71846 0.25757 0.0
C399 C 0.22799 0.75472 0.28354 0.0
H400 H 0.26377 0.75295 0.16732 0.0
H401 H 0.22449 0.69487 0.1964 0.0
H402 H 0.27699 0.76181 0.36334 0.0
H403 H 0.31137 0.82616 0.34025 0.0
C404 C 0.50222 0.02218 0.54892 0.0
N405 N 0.54015 0.96258 0.52936 0.0
C406 C 0.55168 0.9666 0.54898 0.0
C407 C 0.55791 0.94734 0.56232 0.0
C408 C 0.55285 0.92356 0.55519 0.0
C409 C 0.5431 0.91996 0.53385 0.0
C410 C 0.53651 0.93984 0.52129 0.0
Zn411 Zn 0.52407 0.99118 0.51485 0.0
C412 C 0.47234 0.98128 0.50558 0.0
N413 N 0.48876 0.05183 0.4875 0.0
C414 C 0.49114 0.07301 0.49886 0.0
C415 C 0.47723 0.05073 0.46758 0.0
C416 C 0.4686 0.07179 0.45788 0.0
C417 C 0.47162 0.09404 0.46899 0.0
C418 C 0.4823 0.09424 0.49009 0.0
Zn419 Zn 0.50485 0.02245 0.50086 0.0
O420 O 0.51486 0.00371 0.5461 0.0
C421 C 0.55651 0.03254 0.51015 0.0
O422 O 0.49538 0.03423 0.53243 0.0
H423 H 0.47543 0.03367 0.45886 0.0
H424 H 0.55465 0.98485 0.555 0.0
H425 H 0.50057 0.07366 0.51454 0.0
O426 O 0.5561 0.01095 0.51686 0.0
O427 O 0.53735 0.04212 0.5032 0.0
H428 H 0.52737 0.93709 0.5056 0.0
O429 O 0.51418 0.01008 0.46966 0.0
O430 O 0.53341 0.97906 0.48328 0.0
O431 O 0.47301 0.00272 0.49847 0.0
O432 O 0.49133 0.97161 0.51289 0.0
C433 C 0.52675 0.99146 0.46686 0.0
H434 H 0.56517 0.95132 0.57859 0.0
H435 H 0.53959 0.90203 0.52722 0.0
H436 H 0.46061 0.07076 0.44153 0.0
H437 H 0.48449 0.11081 0.49956 0.0
C438 C 0.28192 0.2042 0.75953 0.0
N439 N 0.25021 0.23232 0.81436 0.0
C440 C 0.24178 0.2093 0.81568 0.0
C441 C 0.24344 0.19722 0.83555 0.0
C442 C 0.25336 0.20929 0.85404 0.0
C443 C 0.25856 0.23402 0.8528 0.0
C444 C 0.25704 0.24522 0.83261 0.0
Zn445 Zn 0.26314 0.2441 0.78579 0.0
C446 C 0.31555 0.25423 0.7924 0.0
N447 N 0.29499 0.26855 0.72848 0.0
C448 C 0.28966 0.25566 0.70988 0.0
C449 C 0.31179 0.28637 0.72902 0.0
C450 C 0.32401 0.29179 0.71023 0.0
C451 C 0.31886 0.2787 0.69082 0.0
C452 C 0.30141 0.26045 0.69081 0.0
Zn453 Zn 0.27974 0.25801 0.75625 0.0
O454 O 0.27071 0.20809 0.77678 0.0
C455 C 0.22739 0.24769 0.74934 0.0
O456 O 0.28766 0.22193 0.74786 0.0
H457 H 0.31588 0.2962 0.74409 0.0
H458 H 0.23625 0.19944 0.80098 0.0
H459 H 0.27636 0.24147 0.70989 0.0
O460 O 0.22921 0.24146 0.76931 0.0
O461 O 0.2458 0.25499 0.73984 0.0
H462 H 0.26411 0.26331 0.83124 0.0
O463 O 0.27208 0.29407 0.76482 0.0
O464 O 0.25581 0.28044 0.79434 0.0
O465 O 0.31308 0.26097 0.77273 0.0
O466 O 0.29752 0.24645 0.80208 0.0
C467 C 0.26145 0.2981 0.78244 0.0
H468 H 0.23897 0.17818 0.83605 0.0
H469 H 0.26642 0.24392 0.86667 0.0
H470 H 0.33725 0.30609 0.71086 0.0
H471 H 0.29636 0.2504 0.67605 0.0
C472 C 0.06008 0.98324 0.52857 0.0
N473 N 0.03339 0.01956 0.47313 0.0
C474 C 0.05462 0.03135 0.47229 0.0
C475 C 0.06448 0.03603 0.45206 0.0
C476 C 0.0524 0.02818 0.43276 0.0
C477 C 0.02996 0.01739 0.43414 0.0
C478 C 0.02073 0.01327 0.45455 0.0
Zn479 Zn 0.02133 0.00569 0.50148 0.0
C480 C 0.01051 0.95175 0.49347 0.0
N481 N -0.00481 0.97138 0.55743 0.0
C482 C 0.00687 0.97705 0.57666 0.0
C483 C 0.97425 0.95897 0.55691 0.0
C484 C 0.96342 0.95327 0.57639 0.0
C485 C 0.97445 0.96025 0.59644 0.0
C486 C -0.00317 0.97151 0.59645 0.0
Zn487 Zn 0.00768 0.98581 0.5297 0.0
O488 O 0.05657 -0.00451 0.51131 0.0
C489 C 0.01862 0.03963 0.53806 0.0
O490 O 0.04252 0.97724 0.53977 0.0
H491 H 0.96533 0.9546 0.5414 0.0
H492 H 0.06445 0.036 0.48728 0.0
H493 H 0.02336 0.98716 0.57669 0.0
O494 O 0.02568 0.03941 0.51852 0.0
O495 O 0.01064 0.02016 0.54601 0.0
H496 H 0.00399 0.00378 0.45553 0.0
O497 O 0.97277 -0.00567 0.51926 0.0
O498 O 0.98593 0.01594 0.49237 0.0
O499 O 0.00501 0.9519 0.51342 0.0
O500 O 0.01689 0.97142 0.4848 0.0
C501 C 0.96869 0.00807 0.50314 0.0
H502 H 0.08188 0.04438 0.45156 0.0
H503 H 0.02003 0.01135 0.41956 0.0
H504 H 0.94618 0.94448 0.57577 0.0
H505 H 0.00575 0.97755 0.61154 0.0
C506 C 0.27979 0.75541 0.72333 0.0
N507 N 0.33228 0.72649 0.76597 0.0
C508 C 0.33942 0.71286 0.74879 0.0
C509 C 0.36313 0.70583 0.74771 0.0
C510 C 0.3795 0.71253 0.76469 0.0
C511 C 0.3711 0.72507 0.78286 0.0
C512 C 0.34765 0.7324 0.7829 0.0
Zn513 Zn 0.29946 0.74212 0.76641 0.0
C514 C 0.30607 0.79623 0.7679 0.0
N515 N 0.23426 0.77915 0.77162 0.0
C516 C 0.21546 0.77004 0.75954 0.0
C517 C 0.23179 0.79816 0.78559 0.0
C518 C 0.20951 0.80807 0.78856 0.0
C519 C 0.18954 0.79814 0.77724 0.0
C520 C 0.19281 0.77928 0.76213 0.0
Zn521 Zn 0.26622 0.76271 0.77025 0.0
O522 O 0.29753 0.74459 0.73189 0.0
C523 C 0.25955 0.70849 0.76859 0.0
O524 O 0.26386 0.76354 0.73554 0.0
H525 H 0.247 0.80515 0.79497 0.0
H526 H 0.32703 0.7084 0.73542 0.0
H527 H 0.21788 0.75497 0.74846 0.0
O528 O 0.28174 0.70802 0.76551 0.0
O529 O 0.24932 0.7287 0.77054 0.0
H530 H 0.34218 0.74381 0.79618 0.0
O531 O 0.26868 0.76175 0.80502 0.0
O532 O 0.30057 0.74031 0.80085 0.0
O533 O 0.28378 0.79649 0.76999 0.0
O534 O 0.31667 0.77614 0.76709 0.0
C535 C 0.28579 0.74988 0.81336 0.0
H536 H 0.36872 0.69636 0.73323 0.0
H537 H 0.38274 0.73014 0.79664 0.0
H538 H 0.20785 0.82288 0.80012 0.0
H539 H 0.17791 0.77091 0.75323 0.0
C540 C 0.51699 0.9451 0.03395 0.0
N541 N 0.55001 0.00927 0.056 0.0
C542 C 0.53913 0.00276 0.07453 0.0
C543 C 0.54963 0.00788 0.09492 0.0
C544 C 0.57151 0.02017 0.09648 0.0
C545 C 0.58209 0.0274 0.0771 0.0
C546 C 0.57097 0.02166 0.05686 0.0
Zn547 Zn 0.53411 -0.0026 0.02752 0.0
C548 C 0.56633 0.97055 0.00055 0.0
N549 N 0.4983 0.96876 0.97069 0.0
C550 C 0.47496 0.96221 0.9691 0.0
C551 C 0.51147 0.97068 0.95257 0.0
C552 C 0.50122 0.96646 0.93189 0.0
C553 C 0.47702 0.96086 0.9297 0.0
C554 C 0.46378 0.95845 0.94853 0.0
Zn555 Zn 0.51426 0.98048 -0.00063 0.0
O556 O 0.52858 0.96297 0.04226 0.0
C557 C 0.48222 0.00525 0.02852 0.0
O558 O 0.50756 0.94699 0.01486 0.0
H559 H 0.52971 0.97671 0.95397 0.0
H560 H 0.52253 0.99285 0.07355 0.0
H561 H 0.46475 0.96093 0.98368 0.0
O562 O 0.50185 0.00929 0.03861 0.0
O563 O 0.4818 -0.00617 0.01037 0.0
H564 H 0.57929 0.0266 0.04187 0.0
O565 O 0.52095 0.01462 0.98397 0.0
O566 O 0.53944 0.03128 0.01253 0.0
O567 O 0.54709 0.96606 0.98983 0.0
O568 O 0.5663 0.9851 0.01671 0.0
C569 C 0.53122 0.03295 -0.00701 0.0
H570 H 0.54102 0.00133 0.10926 0.0
H571 H 0.59887 0.03706 0.07754 0.0
H572 H 0.51182 0.96899 0.91765 0.0
H573 H 0.44497 0.95432 0.94731 0.0
C574 C 0.27499 0.1988 0.27783 0.0
N575 N 0.33806 0.22959 0.25614 0.0
C576 C 0.34165 0.20707 0.24791 0.0
C577 C 0.34954 0.20424 0.22666 0.0
C578 C 0.35367 0.22485 0.21411 0.0
C579 C 0.35341 0.24761 0.22428 0.0
C580 C 0.34529 0.24962 0.2454 0.0
Zn581 Zn 0.31374 0.23497 0.27946 0.0
C582 C 0.27524 0.26551 0.2612 0.0
N583 N 0.26175 0.25062 0.32575 0.0
C584 C 0.25384 0.233 0.33903 0.0
C585 C 0.25335 0.27351 0.32691 0.0
C586 C 0.23698 0.27968 0.34245 0.0
C587 C 0.22925 0.26215 0.35703 0.0
C588 C 0.23748 0.23841 0.35492 0.0
Zn589 Zn 0.2869 0.24356 0.30381 0.0
O590 O 0.29424 0.20389 0.26869 0.0
C591 C 0.32619 0.21362 0.32205 0.0
O592 O 0.26818 0.21212 0.2934 0.0
H593 H 0.25987 0.28724 0.31618 0.0
H594 H 0.33588 0.1914 0.25673 0.0
H595 H 0.26065 0.21488 0.33766 0.0
O596 O 0.33273 0.21457 0.30237 0.0
O597 O 0.30707 0.22388 0.32723 0.0
H598 H 0.34206 0.26743 0.25195 0.0
O599 O 0.30539 0.27531 0.31385 0.0
O600 O 0.33258 0.26623 0.29059 0.0
O601 O 0.26764 0.26333 0.28034 0.0
O602 O 0.2944 0.2554 0.25636 0.0
C603 C 0.32478 0.28041 0.30504 0.0
H604 H 0.34951 0.18634 0.21933 0.0
H605 H 0.35665 0.26386 0.2151 0.0
H606 H 0.23146 0.2983 0.34379 0.0
H607 H 0.23188 0.22439 0.36585 0.0
C608 C 0.55871 0.48396 0.02189 0.0
N609 N 0.53333 0.51974 0.96561 0.0
C610 C 0.55442 0.53169 0.96426 0.0
C611 C 0.5639 0.53602 0.94378 0.0
C612 C 0.5516 0.52759 0.92478 0.0
C613 C 0.52942 0.51642 0.92668 0.0
C614 C 0.52055 0.51274 0.9473 0.0
Zn615 Zn 0.52098 0.50698 -0.00568 0.0
C616 C 0.5091 0.45266 0.98687 0.0
N617 N 0.49305 0.47444 0.05033 0.0
C618 C 0.50529 0.4807 0.06913 0.0
C619 C 0.47092 0.46446 0.0507 0.0
C620 C 0.45938 0.46267 0.07047 0.0
C621 C 0.47088 0.47121 0.08981 0.0
C622 C 0.49455 0.47904 0.08915 0.0
Zn623 Zn 0.50608 0.4872 0.02209 0.0
O624 O 0.55599 0.4967 0.00482 0.0
C625 C 0.51832 0.54129 0.03007 0.0
O626 O 0.54064 0.47783 0.03237 0.0
H627 H 0.46152 0.45962 0.03554 0.0
H628 H 0.56437 0.53689 0.97905 0.0
H629 H 0.52274 0.48882 0.06852 0.0
O630 O 0.52554 0.54116 0.01058 0.0
O631 O 0.51001 0.52185 0.03777 0.0
H632 H 0.50391 0.50316 0.94866 0.0
O633 O 0.47167 0.49641 0.01141 0.0
O634 O 0.48564 0.51746 0.98455 0.0
O635 O 0.50231 0.45304 0.00645 0.0
O636 O 0.5166 0.47214 0.97858 0.0
C637 C 0.46808 0.50998 -0.00488 0.0
H638 H 0.58111 0.54469 0.94284 0.0
H639 H 0.51935 0.50993 0.91234 0.0
H640 H 0.44111 0.45649 0.07036 0.0
H641 H 0.50414 0.48536 0.10382 0.0
C642 C 0.78229 0.25954 0.22724 0.0
N643 N 0.83597 0.22832 0.26653 0.0
C644 C 0.84128 0.21412 0.24911 0.0
C645 C 0.86466 0.20692 0.24627 0.0
C646 C 0.88249 0.21424 0.26167 0.0
C647 C 0.87603 0.22726 0.28028 0.0
C648 C 0.85275 0.23454 0.28217 0.0
Zn649 Zn 0.80385 0.24409 0.26923 0.0
C650 C 0.81107 0.29821 0.27205 0.0
N651 N 0.7398 0.28102 0.2786 0.0
C652 C 0.72062 0.27303 0.26638 0.0
C653 C 0.73762 0.2971 0.29535 0.0
C654 C 0.71522 0.30411 0.30165 0.0
C655 C 0.69507 0.29458 0.29043 0.0
C656 C 0.69789 0.27977 0.27199 0.0
Zn657 Zn 0.77137 0.26487 0.27475 0.0
O658 O 0.80017 0.24819 0.23487 0.0
C659 C 0.76415 0.21067 0.2715 0.0
O660 O 0.76703 0.26746 0.24026 0.0
H661 H 0.75317 0.30325 0.30475 0.0
H662 H 0.82766 0.20941 0.23688 0.0
H663 H 0.72284 0.26015 0.2532 0.0
O664 O 0.78614 0.21023 0.26771 0.0
O665 O 0.75415 0.23084 0.27446 0.0
H666 H 0.84845 0.24622 0.29569 0.0
O667 O 0.77573 0.26208 0.30932 0.0
O668 O 0.80701 0.24032 0.30355 0.0
O669 O 0.78893 0.29868 0.27499 0.0
O670 O 0.82133 0.27799 0.27042 0.0
C671 C 0.79277 0.2495 0.3168 0.0
H672 H 0.86891 0.19702 0.23157 0.0
H673 H 0.88909 0.23289 0.29277 0.0
H674 H 0.7136 0.3157 0.31591 0.0
H675 H 0.68269 0.27192 0.26311 0.0
C676 C 0.01364 0.44593 0.53042 0.0
N677 N 0.03909 0.5127 0.5541 0.0
C678 C 0.02764 0.50539 0.57207 0.0
C679 C 0.03739 0.51011 0.59289 0.0
C680 C 0.05899 0.52289 0.59538 0.0
C681 C 0.06954 0.53173 0.57654 0.0
C682 C 0.05933 0.52622 0.55593 0.0
Zn683 Zn 0.02755 0.49887 0.52471 0.0
C684 C 0.06595 0.47358 0.50317 0.0
N685 N 0.00345 0.46622 0.46492 0.0
C686 C 0.98094 0.45751 0.46165 0.0
C687 C 0.01812 0.46917 0.44797 0.0
C688 C 0.00994 0.46451 0.42661 0.0
C689 C 0.98631 0.45725 0.42265 0.0
C690 C 0.97185 0.45312 0.44043 0.0
Zn691 Zn 0.01453 0.4801 0.49447 0.0
O692 O 0.02235 0.4648 0.53975 0.0
C693 C 0.97578 0.50318 0.51777 0.0
O694 O 0.00736 0.44676 0.51027 0.0
H695 H 0.03575 0.47659 0.45085 0.0
H696 H 0.01157 0.49467 0.57025 0.0
H697 H 0.9696 0.45525 0.47537 0.0
O698 O -0.00731 0.50852 0.53124 0.0
O699 O 0.98003 0.49187 0.50022 0.0
H700 H 0.06814 0.53181 0.54137 0.0
O701 O 0.02163 0.514 0.47882 0.0
O702 O 0.03278 0.53247 0.50943 0.0
O703 O 0.04913 0.46749 0.48986 0.0
O704 O 0.06214 0.48855 0.51846 0.0
C705 C 0.0285 0.5332 0.48892 0.0
H706 H 0.02868 0.5025 0.60674 0.0
H707 H 0.08594 0.54207 0.57763 0.0
H708 H 0.02147 0.46825 0.41323 0.0
H709 H 0.9535 0.44754 0.43787 0.0
C710 C 0.78215 0.70141 0.26516 0.0
N711 N 0.75222 0.73144 0.3206 0.0
C712 C 0.74244 0.7092 0.32344 0.0
C713 C 0.74128 0.69963 0.34443 0.0
C714 C 0.75004 0.71326 0.36254 0.0
C715 C 0.75816 0.73688 0.35924 0.0
C716 C 0.75928 0.74558 0.33804 0.0
Zn717 Zn 0.76321 0.74184 0.29065 0.0
C718 C 0.81555 0.75398 0.29452 0.0
N719 N 0.79112 0.76451 0.23065 0.0
C720 C 0.78462 0.75091 0.21273 0.0
C721 C 0.80665 0.78332 0.22934 0.0
C722 C 0.81606 0.78927 0.20928 0.0
C723 C 0.80931 0.77579 0.19042 0.0
C724 C 0.79348 0.75629 0.19239 0.0
Zn725 Zn 0.7782 0.7549 0.25989 0.0
O726 O 0.771 0.70541 0.28248 0.0
C727 C 0.72592 0.74265 0.2555 0.0
O728 O 0.78721 0.71896 0.25298 0.0
H729 H 0.81172 0.79375 0.24385 0.0
H730 H 0.737 0.69821 0.30937 0.0
H731 H 0.7724 0.73591 0.21418 0.0
O732 O 0.72829 0.73816 0.27586 0.0
O733 O 0.74392 0.74932 0.24511 0.0
H734 H 0.76752 0.76297 0.3355 0.0
O735 O 0.76936 0.79102 0.26715 0.0
O736 O 0.75576 0.77846 0.29823 0.0
O737 O 0.81206 0.76033 0.27483 0.0
O738 O 0.79832 0.74554 0.30494 0.0
C739 C 0.75993 0.79563 0.28528 0.0
H740 H 0.73472 0.68138 0.34638 0.0
H741 H 0.76536 0.74785 0.37272 0.0
H742 H 0.82832 0.80438 0.20852 0.0
H743 H 0.78735 0.74572 0.17825 0.0
C744 C 0.8159 0.27617 0.74798 0.0
N745 N 0.75106 0.25206 0.71993 0.0
C746 C 0.75777 0.26485 0.7023 0.0
C747 C 0.7546 0.25514 0.68126 0.0
C748 C 0.74458 0.23198 0.67836 0.0
C749 C 0.7363 0.21991 0.69672 0.0
C750 C 0.73974 0.23035 0.71749 0.0
Zn751 Zn 0.76311 0.26344 0.75011 0.0
C752 C 0.78445 0.22288 0.7751 0.0
N753 N 0.7922 0.2866 0.81195 0.0
C754 C 0.80367 0.30812 0.81522 0.0
C755 C 0.78517 0.27319 0.82907 0.0
C756 C 0.78788 0.2821 0.85038 0.0
C757 C 0.79818 0.30502 0.85426 0.0
C758 C 0.80701 0.31765 0.83639 0.0
Zn759 Zn 0.78026 0.27569 0.78155 0.0
O760 O 0.79754 0.2689 0.73703 0.0
C761 C 0.75815 0.31621 0.75644 0.0
O762 O 0.81405 0.28159 0.76812 0.0
H763 H 0.77598 0.25617 0.82613 0.0
H764 H 0.76682 0.28203 0.70463 0.0
H765 H 0.80911 0.31847 0.80135 0.0
O766 O 0.75344 0.29908 0.74295 0.0
O767 O 0.7697 0.31176 0.77416 0.0
H768 H 0.73465 0.22046 0.73175 0.0
O769 O 0.74647 0.26905 0.79475 0.0
O770 O 0.72911 0.25769 0.76365 0.0
O771 O 0.79037 0.23981 0.78844 0.0
O772 O 0.77267 0.2278 0.75769 0.0
C773 C 0.72802 0.26163 0.78412 0.0
H774 H 0.76086 0.26523 0.66751 0.0
H775 H 0.72863 0.20194 0.69525 0.0
H776 H 0.78047 0.27176 0.86344 0.0
H777 H 0.8155 0.33516 0.83861 0.0
C778 C 0.74636 0.72155 0.76663 0.0
N779 N 0.81509 0.74624 0.75437 0.0
C780 C 0.8213 0.7226 0.75442 0.0
C781 C 0.83873 0.71439 0.7406 0.0
C782 C 0.84996 0.73076 0.72679 0.0
C783 C 0.84496 0.75542 0.72895 0.0
C784 C 0.82712 0.76275 0.74261 0.0
Zn785 Zn 0.78541 0.75735 0.76941 0.0
C786 C 0.75278 0.78194 0.73784 0.0
N787 N 0.72431 0.7838 0.8003 0.0
C788 C 0.71284 0.76872 0.81385 0.0
C789 C 0.7202 0.80795 0.80053 0.0
C790 C 0.70717 0.81822 0.81714 0.0
C791 C 0.6979 0.80334 0.83331 0.0
C792 C 0.69899 0.77816 0.83026 0.0
Zn793 Zn 0.75335 0.77147 0.78493 0.0
O794 O 0.76764 0.72475 0.76114 0.0
C795 C 0.78639 0.74688 0.81628 0.0
O796 O 0.73607 0.7381 0.7772 0.0
H797 H 0.72908 0.81959 0.78929 0.0
H798 H 0.81167 0.70983 0.76407 0.0
H799 H 0.71622 0.74954 0.81334 0.0
O800 O 0.79752 0.74298 0.79892 0.0
O801 O 0.76688 0.75812 0.81518 0.0
H802 H 0.82193 0.78147 0.74269 0.0
O803 O 0.77113 0.8045 0.7925 0.0
O804 O 0.80291 0.7899 0.77805 0.0
O805 O 0.74061 0.78494 0.75475 0.0
O806 O 0.77274 0.77165 0.73962 0.0
C807 C 0.79273 0.80693 0.78789 0.0
H808 H 0.84177 0.69516 0.73941 0.0
H809 H 0.85344 0.7687 0.7189 0.0
H810 H 0.70675 0.8377 0.81852 0.0
H811 H 0.69132 0.76589 0.84177 0.0
C812 C 0.48711 0.55161 0.46081 0.0
N813 N 0.46043 0.52135 0.51688 0.0
C814 C 0.44071 0.53462 0.51249 0.0
C815 C 0.41827 0.5245 0.51488 0.0
C816 C 0.41627 0.50052 0.52171 0.0
C817 C 0.43689 0.48787 0.52765 0.0
C818 C 0.45896 0.49871 0.52511 0.0
Zn819 Zn 0.49199 0.53358 0.50674 0.0
C820 C 0.51691 0.49433 0.48257 0.0
N821 N 0.557 0.55765 0.48237 0.0
C822 C 0.55804 0.5804 0.47427 0.0
C823 C 0.57692 0.54479 0.48676 0.0
C824 C 0.59908 0.5557 0.48523 0.0
C825 C 0.60059 0.5801 0.47931 0.0
C826 C 0.57985 0.59208 0.47261 0.0
Zn827 Zn 0.52583 0.54499 0.49291 0.0
O828 O 0.47534 0.54344 0.47647 0.0
C829 C 0.50111 0.5842 0.5171 0.0
O830 O 0.50933 0.5545 0.46337 0.0
H831 H 0.5756 0.52675 0.4932 0.0
H832 H 0.44236 0.55254 0.50586 0.0
H833 H 0.54189 0.59019 0.47074 0.0
O834 O 0.48565 0.56793 0.5202 0.0
O835 O 0.51907 0.57916 0.50609 0.0
H836 H 0.47492 0.48856 0.52851 0.0
O837 O 0.5426 0.5353 0.52311 0.0
O838 O 0.50901 0.52356 0.53669 0.0
O839 O 0.53236 0.51068 0.47975 0.0
O840 O 0.49866 0.49921 0.49327 0.0
C841 C 0.53131 0.52668 0.53889 0.0
H842 H 0.40276 0.53476 0.51002 0.0
H843 H 0.43597 0.46941 0.53325 0.0
H844 H 0.61461 0.54586 0.49078 0.0
H845 H 0.58037 0.61083 0.46781 0.0
C846 C 0.00278 0.52457 0.04477 0.0
N847 N 0.03641 0.46222 0.02548 0.0
C848 C 0.05215 0.46642 0.04251 0.0
C849 C 0.05917 0.44763 0.0561 0.0
C850 C 0.04957 0.4245 0.05225 0.0
C851 C 0.03435 0.42036 0.03393 0.0
C852 C 0.02806 0.43962 0.02056 0.0
Zn853 Zn 0.02152 0.49098 0.01055 0.0
C854 C 0.96881 0.48382 0.00405 0.0
N855 N 0.98859 0.55211 0.98281 0.0
C856 C -0.00535 0.57404 0.99163 0.0
C857 C 0.97631 0.55003 0.96331 0.0
C858 C 0.9713 0.57057 0.95107 0.0
C859 C 0.97886 0.59329 0.95916 0.0
C860 C 0.98983 0.59498 0.98007 0.0
Zn861 Zn 0.00305 0.5227 -0.00293 0.0
O862 O 0.0148 0.50563 0.04185 0.0
C863 C 0.05561 0.53024 0.00367 0.0
O864 O -0.00463 0.53634 0.02828 0.0
H865 H 0.97166 0.53236 0.95665 0.0
H866 H 0.05826 0.4846 0.0463 0.0
H867 H 0.00467 0.57524 0.00701 0.0
O868 O 0.05477 0.50866 0.01033 0.0
O869 O 0.03647 0.54061 -0.00212 0.0
H870 H 0.01558 0.43675 0.00693 0.0
O871 O 0.01072 0.50872 0.96613 0.0
O872 O 0.02841 0.47654 0.97904 0.0
O873 O 0.97004 0.50488 -0.00383 0.0
O874 O 0.9877 0.4736 0.01083 0.0
C875 C 0.02186 0.4893 0.9628 0.0
H876 H 0.07086 0.45142 0.07019 0.0
H877 H 0.02685 0.4026 0.03042 0.0
H878 H 0.96262 0.56862 0.93505 0.0
H879 H -0.00375 0.61211 0.98677 0.0
H880 H 0.03599 0.19446 0.11667 0.0
H881 H 0.09345 0.14357 0.1226 0.0
H882 H 0.01878 0.17125 0.08577 0.0
H883 H 0.07627 0.1206 0.09137 0.0
H884 H 0.05204 0.09895 0.0234 0.0
H885 H 0.06677 0.13003 0.04898 0.0
H886 H 0.00167 0.12573 0.08374 0.0
H887 H 0.98686 0.09415 0.05838 0.0
C888 C 0.04507 0.17844 0.11123 0.0
C889 C 0.06608 0.17074 0.12198 0.0
C890 C 0.03516 0.16524 0.09362 0.0
C891 C 0.04637 0.14442 0.08625 0.0
C892 C 0.06755 0.13686 0.09672 0.0
C893 C 0.07725 0.14984 0.11461 0.0
C894 C 0.04056 0.10501 0.03614 0.0
C895 C 0.01851 0.09373 0.03924 0.0
C896 C 0.04907 0.12271 0.05077 0.0
C897 C 0.03549 0.1297 0.06842 0.0
C898 C 0.01243 0.1204 0.0702 0.0
C899 C 0.00397 0.10242 0.05569 0.0
H900 H 0.12242 0.7373 0.38268 0.0
H901 H 0.08085 0.74531 0.32261 0.0
H902 H 0.15871 0.73958 0.36227 0.0
H903 H 0.11701 0.74856 0.30229 0.0
H904 H 0.18651 0.73238 0.26907 0.0
H905 H 0.1501 0.72747 0.28914 0.0
H906 H 0.18206 0.76769 0.34377 0.0
H907 H 0.21846 0.77172 0.32416 0.0
C908 C 0.12104 0.73966 0.36513 0.0
C909 C 0.09877 0.74117 0.35429 0.0
C910 C 0.14185 0.74113 0.3534 0.0
C911 C 0.14089 0.74441 0.33056 0.0
C912 C 0.11853 0.74569 0.31976 0.0
C913 C 0.09775 0.74399 0.33146 0.0
C914 C 0.18568 0.74016 0.28536 0.0
C915 C 0.2054 0.75236 0.29501 0.0
C916 C 0.16479 0.73745 0.29686 0.0
C917 C 0.16309 0.74706 0.3182 0.0
C918 C 0.18279 0.75954 0.32763 0.0
C919 C 0.20366 0.76204 0.31626 0.0
H920 H 0.52011 0.80457 0.64017 0.0
H921 H 0.59547 0.81476 0.65106 0.0
H922 H 0.51864 0.84039 0.61751 0.0
H923 H 0.5947 0.84925 0.62687 0.0
H924 H 0.58541 0.91831 0.58959 0.0
H925 H 0.58549 0.88788 0.61765 0.0
H926 H 0.52776 0.8504 0.58282 0.0
H927 H 0.52566 0.88226 0.55648 0.0
C928 C 0.53631 0.81475 0.63784 0.0
C929 C 0.55786 0.80713 0.64732 0.0
C930 C 0.53562 0.83502 0.62454 0.0
C931 C 0.55666 0.84747 0.61971 0.0
C932 C 0.57806 0.84041 0.63023 0.0
C933 C 0.57857 0.82061 0.64414 0.0
C934 C 0.57241 0.90384 0.58808 0.0
C935 C 0.55537 0.9031 0.57069 0.0
C936 C 0.5727 0.88607 0.6041 0.0
C937 C 0.55643 0.86666 0.60284 0.0
C938 C 0.54012 0.86538 0.58491 0.0
C939 C 0.53936 0.88348 0.56929 0.0
H940 H 0.46708 0.24754 0.80866 0.0
H941 H 0.44584 0.24374 0.87564 0.0
H942 H 0.42583 0.24812 0.79615 0.0
H943 H 0.40411 0.24536 0.86315 0.0
H944 H 0.33043 0.22932 0.82884 0.0
H945 H 0.37104 0.22591 0.84383 0.0
H946 H 0.39491 0.27622 0.7956 0.0
H947 H 0.35479 0.27877 0.78022 0.0
C948 C 0.45351 0.24679 0.82074 0.0
C949 C 0.45971 0.24579 0.84314 0.0
C950 C 0.4298 0.24738 0.81358 0.0
C951 C 0.41154 0.24743 0.82864 0.0
C952 C 0.41767 0.24534 0.85108 0.0
C953 C 0.44157 0.2444 0.85826 0.0
C954 C 0.34439 0.23976 0.8216 0.0
C955 C 0.33946 0.25412 0.8032 0.0
C956 C 0.36766 0.23785 0.83021 0.0
C957 C 0.38642 0.25042 0.8207 0.0
C958 C 0.38113 0.26564 0.80295 0.0
C959 C 0.35803 0.26731 0.79422 0.0
H960 H 0.05246 0.84443 0.39937 0.0
H961 H 0.00728 0.80295 0.44066 0.0
H962 H 0.04629 0.88017 0.42168 0.0
H963 H 0.00018 0.83917 0.46264 0.0
H964 H 0.01037 0.90545 0.50889 0.0
H965 H 0.01608 0.86813 0.48818 0.0
H966 H 0.01736 0.90893 0.4284 0.0
H967 H 0.01273 0.94613 0.44922 0.0
C968 C 0.04112 0.84295 0.41323 0.0
C969 C 0.03029 0.82082 0.41816 0.0
C970 C 0.03736 0.86358 0.42595 0.0
C971 C 0.02235 0.86284 0.44382 0.0
C972 C 0.01197 0.8405 0.44912 0.0
C973 C 0.016 0.8197 0.43649 0.0
C974 C 0.01168 0.90638 0.4913 0.0
C975 C 0.01125 0.9288 0.48073 0.0
C976 C 0.0149 0.88494 0.47938 0.0
C977 C 0.01753 0.88539 0.45657 0.0
C978 C 0.0161 0.90781 0.44599 0.0
C979 C 0.0132 0.9292 0.45791 0.0
H980 H 0.51734 0.7462 0.72517 0.0
H981 H 0.52406 0.66917 0.73356 0.0
H982 H 0.47909 0.74502 0.74171 0.0
H983 H 0.48566 0.66807 0.7509 0.0
H984 H 0.41562 0.74254 0.77942 0.0
H985 H 0.45748 0.73902 0.77363 0.0
H986 H 0.44465 0.67238 0.73751 0.0
H987 H 0.40253 0.67476 0.74492 0.0
C988 C 0.51091 0.72907 0.73108 0.0
C989 C 0.52363 0.70775 0.72783 0.0
C990 C 0.48896 0.72839 0.74073 0.0
C991 C 0.4792 0.70639 0.74752 0.0
C992 C 0.49257 0.68524 0.74554 0.0
C993 C 0.51466 0.68592 0.73584 0.0
C994 C 0.4216 0.7266 0.77092 0.0
C995 C 0.40545 0.70893 0.76261 0.0
C996 C 0.44572 0.72481 0.76731 0.0
C997 C 0.4544 0.70565 0.75482 0.0
C998 C 0.43856 0.68734 0.74732 0.0
C999 C 0.41433 0.68892 0.75125 0.0
H1000 H 0.53009 0.14747 0.8959 0.0
H1001 H 0.5324 0.18579 0.95783 0.0
H1002 H 0.53147 0.10921 0.9149 0.0
H1003 H 0.53282 0.14735 0.97702 0.0
H1004 H 0.55526 0.07462 0.00531 0.0
H1005 H 0.55574 0.11311 0.98627 0.0
H1006 H 0.50891 0.08277 0.93541 0.0
H1007 H 0.50924 0.04424 0.95396 0.0
C1008 C 0.53065 0.14773 0.91362 0.0
C1009 C 0.53107 0.16975 0.92531 0.0
C1010 C 0.53131 0.1257 0.92458 0.0
C1011 C 0.53214 0.12496 0.9476 0.0
C1012 C 0.53253 0.14706 0.95931 0.0
C1013 C 0.5321 0.16916 0.9483 0.0
C1014 C 0.54522 0.07615 0.98998 0.0
C1015 C 0.53231 0.05625 0.98115 0.0
C1016 C 0.54531 0.09833 0.97912 0.0
C1017 C 0.53235 0.10126 0.95921 0.0
C1018 C 0.51949 0.08125 0.95044 0.0
C1019 C 0.51958 0.05908 0.96118 0.0
H1020 H 0.16797 0.25496 0.1581 0.0
H1021 H 0.1448 0.24572 0.22415 0.0
H1022 H 0.20529 0.27293 0.17259 0.0
H1023 H 0.18161 0.26324 0.2384 0.0
H1024 H 0.23995 0.29806 0.26573 0.0
H1025 H 0.2052 0.30075 0.24111 0.0
H1026 H 0.23969 0.25599 0.19368 0.0
H1027 H 0.27475 0.25427 0.2178 0.0
C1028 C 0.17084 0.2568 0.17565 0.0
C1029 C 0.15362 0.24878 0.19004 0.0
C1030 C 0.19203 0.26724 0.18388 0.0
C1031 C 0.19612 0.26999 0.20657 0.0
C1032 C 0.17871 0.26213 0.22081 0.0
C1033 C 0.15774 0.25165 0.21265 0.0
C1034 C 0.24049 0.28982 0.2496 0.0
C1035 C 0.25951 0.27521 0.24392 0.0
C1036 C 0.22063 0.2913 0.23554 0.0
C1037 C 0.21945 0.27768 0.21599 0.0
C1038 C 0.24001 0.26644 0.20878 0.0
C1039 C 0.26009 0.26536 0.22268 0.0
H1040 H 0.13429 0.98359 0.15846 0.0
H1041 H 0.07311 0.01336 0.1891 0.0
H1042 H 0.11222 0.98152 0.12353 0.0
H1043 H 0.05133 0.01246 0.15401 0.0
H1044 H 0.01182 -0.00525 0.09042 0.0
H1045 H 0.0326 0.98902 0.12566 0.0
H1046 H 0.09883 0.00834 0.09663 0.0
H1047 H 0.07835 0.01294 0.06151 0.0
C1048 C 0.11613 0.98975 0.15768 0.0
C1049 C 0.10547 -0.00121 0.17643 0.0
C1050 C 0.10348 0.98869 0.13764 0.0
C1051 C 0.08002 -0.00296 0.13583 0.0
C1052 C 0.06922 0.00555 0.15478 0.0
C1053 C 0.08176 0.00625 0.17489 0.0
C1054 C 0.03086 -0.00256 0.09158 0.0
C1055 C 0.04342 0.00432 0.0732 0.0
C1056 C 0.04277 -0.00567 0.1118 0.0
C1057 C 0.06743 -0.00171 0.11408 0.0
C1058 C 0.07995 0.00467 0.0955 0.0
C1059 C 0.06813 0.00748 0.07532 0.0
H1060 H 0.23991 0.88598 0.45715 0.0
H1061 H 0.29251 0.84222 0.49054 0.0
H1062 H 0.24844 0.86573 0.42258 0.0
H1063 H 0.30123 0.82235 0.45586 0.0
H1064 H 0.32648 0.81764 0.38278 0.0
H1065 H 0.3185 0.83759 0.4179 0.0
H1066 H 0.24401 0.82048 0.40849 0.0
H1067 H 0.25198 0.80033 0.37381 0.0
C1068 C 0.25322 0.87202 0.45711 0.0
C1069 C 0.26545 0.86559 0.47655 0.0
C1070 C 0.25808 0.86047 0.43737 0.0
C1071 C 0.27556 0.84265 0.43666 0.0
C1072 C 0.28782 0.8362 0.45603 0.0
C1073 C 0.28265 0.84741 0.47585 0.0
C1074 C 0.30848 0.81814 0.38836 0.0
C1075 C 0.28987 0.80734 0.37582 0.0
C1076 C 0.30393 0.82941 0.40836 0.0
C1077 C 0.28065 0.83049 0.41576 0.0
C1078 C 0.26207 0.81993 0.40305 0.0
C1079 C 0.26666 0.80831 0.38335 0.0
H1080 H 0.40219 0.02108 0.6487 0.0
H1081 H 0.46787 0.02811 0.6869 0.0
H1082 H 0.42376 0.02691 0.61527 0.0
H1083 H 0.48936 0.03418 0.65348 0.0
H1084 H 0.51741 0.00325 0.58776 0.0
H1085 H 0.49847 0.00667 0.62275 0.0
H1086 H 0.44783 0.05654 0.5947 0.0
H1087 H 0.46671 0.05301 0.55947 0.0
C1088 C 0.42118 0.02413 0.64997 0.0
C1089 C 0.43337 0.02387 0.67038 0.0
C1090 C 0.4335 0.02768 0.63085 0.0
C1091 C 0.45825 0.03096 0.63179 0.0
C1092 C 0.47032 0.03148 0.65227 0.0
C1093 C 0.458 0.02803 0.67138 0.0
C1094 C 0.50251 0.0153 0.58914 0.0
C1095 C 0.4934 0.02768 0.57082 0.0
C1096 C 0.49173 0.01735 0.60922 0.0
C1097 C 0.47156 0.03171 0.61138 0.0
C1098 C 0.4632 0.04511 0.59339 0.0
C1099 C 0.47411 0.04322 0.57329 0.0
H1100 H 0.32841 0.18579 0.97508 0.0
H1101 H 0.31351 0.11298 0.95205 0.0
H1102 H 0.3138 0.20136 0.94012 0.0
H1103 H 0.29825 0.12858 0.91735 0.0
H1104 H 0.27989 0.16866 0.85309 0.0
H1105 H 0.30267 0.15116 0.88354 0.0
H1106 H 0.27202 0.20258 0.92783 0.0
H1107 H 0.24951 0.2202 0.89735 0.0
C1108 C 0.32276 0.17309 0.96228 0.0
C1109 C 0.32159 0.14825 0.96641 0.0
C1110 C 0.31408 0.182 0.9424 0.0
C1111 C 0.30401 0.16621 0.92641 0.0
C1112 C 0.30567 0.14119 0.92948 0.0
C1113 C 0.31456 0.13224 0.94934 0.0
C1114 C 0.27757 0.17578 0.86945 0.0
C1115 C 0.26287 0.19572 0.87295 0.0
C1116 C 0.29082 0.16594 0.8868 0.0
C1117 C 0.28958 0.1759 0.90793 0.0
C1118 C 0.27393 0.19503 0.91158 0.0
C1119 C 0.26076 0.20489 0.89424 0.0
H1120 H 0.08285 0.06318 0.3 0.0
H1121 H 0.12364 -0.00143 0.3114 0.0
H1122 H 0.07187 0.0637 0.33821 0.0
H1123 H 0.11258 -0.0008 0.34965 0.0
H1124 H 0.05705 0.99133 0.40382 0.0
H1125 H 0.07348 0.99266 0.36754 0.0
H1126 H 0.08986 0.06848 0.37701 0.0
H1127 H 0.07327 0.0671 0.41359 0.0
C1128 C 0.08957 0.04915 0.31066 0.0
C1129 C 0.10395 0.03069 0.3026 0.0
C1130 C 0.08345 0.04961 0.33259 0.0
C1131 C 0.09137 0.03149 0.34685 0.0
C1132 C 0.10611 0.0133 0.33893 0.0
C1133 C 0.11245 0.01297 0.31705 0.0
C1134 C 0.06422 0.00827 0.39816 0.0
C1135 C 0.06371 0.02919 0.41134 0.0
C1136 C 0.07382 0.00897 0.3775 0.0
C1137 C 0.08293 0.03066 0.36948 0.0
C1138 C 0.08282 0.05155 0.3828 0.0
C1139 C 0.07346 0.05076 0.40369 0.0
H1140 H 0.2512 0.80605 0.58969 0.0
H1141 H 0.30252 0.85356 0.62256 0.0
H1142 H 0.25366 0.77849 0.62067 0.0
H1143 H 0.30528 0.82573 0.65328 0.0
H1144 H 0.31754 0.76082 0.69714 0.0
H1145 H 0.31761 0.78058 0.66156 0.0
H1146 H 0.24135 0.7856 0.66158 0.0
H1147 H 0.24124 0.76634 0.69733 0.0
C1148 C 0.26328 0.81041 0.60336 0.0
C1149 C 0.27659 0.83202 0.60377 0.0
C1150 C 0.26463 0.79467 0.62106 0.0
C1151 C 0.27971 0.79998 0.63926 0.0
C1152 C 0.2937 0.8211 0.63931 0.0
C1153 C 0.29201 0.83709 0.62182 0.0
C1154 C 0.30074 0.76553 0.68928 0.0
C1155 C 0.27937 0.7621 0.70001 0.0
C1156 C 0.30082 0.777 0.66903 0.0
C1157 C 0.27951 0.78471 0.65897 0.0
C1158 C 0.25801 0.77971 0.66896 0.0
C1159 C 0.25796 0.76872 0.6894 0.0
H1160 H 0.40479 0.99202 0.80412 0.0
H1161 H 0.47909 0.97999 0.7935 0.0
H1162 H 0.41091 0.98161 0.84254 0.0
H1163 H 0.48535 0.97041 0.8319 0.0
H1164 H 0.4409 0.98883 0.91468 0.0
H1165 H 0.42941 -0.00432 0.87639 0.0
H1166 H 0.47664 0.93898 0.85679 0.0
H1167 H 0.48869 0.93294 0.89502 0.0
C1168 C 0.42249 0.98751 0.81006 0.0
C1169 C 0.44146 0.98674 0.79577 0.0
C1170 C 0.42598 0.98151 0.83206 0.0
C1171 C 0.44852 0.97479 0.84022 0.0
C1172 C 0.4676 0.97481 0.82603 0.0
C1173 C 0.46408 0.98058 0.80405 0.0
C1174 C 0.44824 0.97741 0.90215 0.0
C1175 C 0.4657 0.96045 0.90763 0.0
C1176 C 0.44175 0.98136 0.88024 0.0
C1177 C 0.45252 0.96824 0.86351 0.0
C1178 C 0.46854 0.94988 0.86924 0.0
C1179 C 0.47522 0.94617 0.89109 0.0
H1180 H 0.27511 0.16935 0.11245 0.0
H1181 H 0.33886 0.1807 0.07659 0.0
H1182 H 0.29198 0.19414 0.1426 0.0
H1183 H 0.35587 0.20479 0.10708 0.0
H1184 H 0.32426 0.25054 0.18768 0.0
H1185 H 0.31161 0.24022 0.15024 0.0
H1186 H 0.36389 0.18398 0.14884 0.0
H1187 H 0.37648 0.194 0.18668 0.0
C1188 C 0.29242 0.17762 0.1108 0.0
C1189 C 0.30572 0.17301 0.0923 0.0
C1190 C 0.30202 0.19181 0.12796 0.0
C1191 C 0.32518 0.20114 0.12699 0.0
C1192 C 0.33796 0.19774 0.10803 0.0
C1193 C 0.32815 0.18405 0.09064 0.0
C1194 C 0.33381 0.23665 0.17912 0.0
C1195 C 0.3514 0.22301 0.19005 0.0
C1196 C 0.32642 0.23072 0.15777 0.0
C1197 C 0.33678 0.21137 0.14691 0.0
C1198 C 0.35584 0.19915 0.15699 0.0
C1199 C 0.36299 0.20479 0.17856 0.0
H1200 H 0.21789 0.12771 0.00142 0.0
H1201 H 0.25349 0.05909 0.00589 0.0
H1202 H 0.18305 0.10736 0.9845 0.0
H1203 H 0.2191 0.03903 0.98864 0.0
H1204 H 0.14079 0.01739 0.00327 0.0
H1205 H 0.18067 0.03312 0.00616 0.0
H1206 H 0.16545 0.08162 0.95283 0.0
H1207 H 0.12515 0.06504 0.94915 0.0
C1208 C 0.21838 0.10841 -0.00153 0.0
C1209 C 0.23804 0.09487 0.0055 0.0
C1210 C 0.19863 0.09682 0.98854 0.0
C1211 C 0.19843 0.07162 0.98543 0.0
C1212 C 0.21875 0.05843 0.9911 0.0
C1213 C 0.23832 0.06992 0.00113 0.0
C1214 C 0.14601 0.03057 0.99139 0.0
C1215 C 0.12954 0.04013 0.97613 0.0
C1216 C 0.16899 0.03972 -0.00684 0.0
C1217 C 0.176 0.05877 0.97987 0.0
C1218 C 0.16027 0.06713 0.96345 0.0
C1219 C 0.13724 0.05769 0.96144 0.0
H1220 H 0.67216 0.38684 0.05434 0.0
H1221 H 0.70819 0.45604 0.05449 0.0
H1222 H 0.63437 0.40682 0.04702 0.0
H1223 H 0.67036 0.47599 0.04714 0.0
H1224 H 0.60191 0.49444 0.00481 0.0
H1225 H 0.64029 0.47696 0.01525 0.0
H1226 H 0.6071 0.43565 0.06538 0.0
H1227 H 0.56891 0.45296 0.05508 0.0
C1228 C 0.67197 0.40632 0.05301 0.0
C1229 C 0.69313 0.41985 0.05497 0.0
C1230 C 0.65035 0.41777 0.04888 0.0
C1231 C 0.64947 0.44295 0.04644 0.0
C1232 C 0.67057 0.45653 0.04874 0.0
C1233 C 0.69217 0.44511 0.05311 0.0
C1234 C 0.60286 0.48179 0.01817 0.0
C1235 C 0.58234 0.47501 0.02902 0.0
C1236 C 0.62483 0.47187 0.02421 0.0
C1237 C 0.62661 0.45484 0.04104 0.0
C1238 C 0.60619 0.4485 0.05217 0.0
C1239 C 0.58434 0.45854 0.04631 0.0
H1240 H 0.84482 0.44064 0.22364 0.0
H1241 H 0.913 0.4067 0.23255 0.0
H1242 H 0.82537 0.40405 0.23617 0.0
H1243 H 0.89395 0.37092 0.2463 0.0
H1244 H 0.8526 0.30149 0.2513 0.0
H1245 H 0.87139 0.33733 0.23753 0.0
H1246 H 0.81837 0.38157 0.26747 0.0
H1247 H 0.79859 0.34516 0.2801 0.0
C1248 C 0.85562 0.4253 0.22817 0.0
C1249 C 0.8804 0.42647 0.22693 0.0
C1250 C 0.84452 0.40444 0.23566 0.0
C1251 C 0.85803 0.38447 0.24248 0.0
C1252 C 0.88283 0.38563 0.24085 0.0
C1253 C 0.89383 0.40624 0.23294 0.0
C1254 C 0.84509 0.31887 0.25523 0.0
C1255 C 0.82416 0.32051 0.26689 0.0
C1256 C 0.85594 0.33954 0.24733 0.0
C1257 C 0.84647 0.36251 0.25129 0.0
C1258 C 0.82592 0.36419 0.26365 0.0
C1259 C 0.81475 0.34337 0.27118 0.0
H1260 H 0.84231 0.57304 0.51955 0.0
H1261 H 0.8425 0.53158 0.57903 0.0
H1262 H 0.87801 0.55254 0.50854 0.0
H1263 H 0.87829 0.51101 0.56786 0.0
H1264 H 0.93656 0.50095 0.49035 0.0
H1265 H 0.89604 0.51192 0.49891 0.0
H1266 H 0.91943 0.53001 0.56516 0.0
H1267 H 0.9598 0.51913 0.55673 0.0
C1268 C 0.84971 0.5592 0.53005 0.0
C1269 C 0.83989 0.55415 0.5503 0.0
C1270 C 0.87003 0.54736 0.52366 0.0
C1271 C 0.88092 0.53044 0.5375 0.0
C1272 C 0.87025 0.52421 0.55706 0.0
C1273 C 0.84977 0.53589 0.56337 0.0
C1274 C 0.93299 0.50716 0.50676 0.0
C1275 C 0.95132 0.50942 0.52283 0.0
C1276 C 0.90986 0.51336 0.51163 0.0
C1277 C 0.9047 0.52158 0.5327 0.0
C1278 C 0.92293 0.52332 0.54888 0.0
C1279 C 0.94605 0.51738 0.54397 0.0
H1280 H 0.21072 0.06056 0.24112 0.0
H1281 H 0.15602 0.1131 0.22791 0.0
H1282 H 0.23893 0.09322 0.25011 0.0
H1283 H 0.18426 0.14557 0.2369 0.0
H1284 H 0.28601 0.16296 0.24869 0.0
H1285 H 0.25984 0.13048 0.2343 0.0
H1286 H 0.20355 0.15692 0.27387 0.0
H1287 H 0.22948 0.1891 0.28829 0.0
C1288 C 0.2048 0.07904 0.23978 0.0
C1289 C 0.18104 0.08421 0.23406 0.0
C1290 C 0.22099 0.09771 0.24484 0.0
C1291 C 0.21364 0.12184 0.24446 0.0
C1292 C 0.19025 0.12706 0.23762 0.0
C1293 C 0.17414 0.10845 0.23237 0.0
C1294 C 0.26807 0.16174 0.25434 0.0
C1295 C 0.25982 0.17853 0.26966 0.0
C1296 C 0.25315 0.14319 0.24612 0.0
C1297 C 0.22966 0.1414 0.25283 0.0
C1298 C 0.22148 0.15814 0.26816 0.0
C1299 C 0.23642 0.17642 0.27657 0.0
H1300 H 0.32591 0.9728 0.53322 0.0
H1301 H 0.34584 0.89811 0.54022 0.0
H1302 H 0.36639 0.98331 0.52466 0.0
H1303 H 0.38642 0.90852 0.5309 0.0
H1304 H 0.43028 0.99218 0.48511 0.0
H1305 H 0.39106 0.97765 0.49412 0.0
H1306 H 0.42253 0.92988 0.54211 0.0
H1307 H 0.46193 0.94387 0.5325 0.0
C1308 C 0.33901 0.95864 0.53306 0.0
C1309 C 0.33265 0.93461 0.53725 0.0
C1310 C 0.36218 0.9646 0.5279 0.0
C1311 C 0.37953 0.94666 0.52654 0.0
C1312 C 0.37348 0.92277 0.53179 0.0
C1313 C 0.35025 0.91682 0.53718 0.0
C1314 C 0.42885 0.97825 0.49729 0.0
C1315 C 0.44916 0.96929 0.50819 0.0
C1316 C 0.40636 0.97011 0.50265 0.0
C1317 C 0.40362 0.95305 0.51925 0.0
C1318 C 0.424 0.94303 0.52927 0.0
C1319 C 0.44659 0.95102 0.52372 0.0
H1320 H 0.88549 0.59352 0.24933 0.0
H1321 H 0.82156 0.5504 0.24022 0.0
H1322 H 0.86165 0.62929 0.25529 0.0
H1323 H 0.79766 0.58646 0.24661 0.0
H1324 H 0.77361 0.65877 0.28616 0.0
H1325 H 0.79317 0.61997 0.28012 0.0
H1326 H 0.83142 0.65093 0.22725 0.0
H1327 H 0.81186 0.68933 0.23286 0.0
C1328 C 0.86636 0.59162 0.24884 0.0
C1329 C 0.85538 0.56919 0.24419 0.0
C1330 C 0.85275 0.6121 0.25217 0.0
C1331 C 0.82791 0.61053 0.25123 0.0
C1332 C 0.81682 0.58801 0.24741 0.0
C1333 C 0.83048 0.56749 0.2437 0.0
C1334 C 0.7859 0.65714 0.27303 0.0
C1335 C 0.79133 0.67716 0.26011 0.0
C1336 C 0.79701 0.63499 0.26958 0.0
C1337 C 0.81392 0.63272 0.25341 0.0
C1338 C 0.81861 0.6524 0.23998 0.0
C1339 C 0.80732 0.67433 0.24318 0.0
H1340 H 0.65295 0.42431 0.73858 0.0
H1341 H 0.71674 0.46818 0.74256 0.0
H1342 H 0.6767 0.38804 0.74294 0.0
H1343 H 0.74054 0.43165 0.74718 0.0
H1344 H 0.76581 0.35796 0.7805 0.0
H1345 H 0.74541 0.39653 0.77572 0.0
H1346 H 0.70727 0.36742 0.71879 0.0
H1347 H 0.72759 0.32917 0.72329 0.0
C1348 C 0.67203 0.42622 0.74051 0.0
C1349 C 0.68298 0.44909 0.74013 0.0
C1350 C 0.68562 0.40545 0.74289 0.0
C1351 C 0.71043 0.40708 0.74523 0.0
C1352 C 0.72142 0.42995 0.74543 0.0
C1353 C 0.70782 0.45078 0.74272 0.0
C1354 C 0.75332 0.35993 0.76679 0.0
C1355 C 0.74822 0.34044 0.75237 0.0
C1356 C 0.7417 0.38199 0.76406 0.0
C1357 C 0.72459 0.38478 0.74705 0.0
C1358 C 0.72015 0.36561 0.73221 0.0
C1359 C 0.73192 0.34375 0.73476 0.0
H1360 H -0.00111 0.89447 0.88766 0.0
H1361 H 0.98016 0.83686 0.93115 0.0
H1362 H 0.00326 0.92214 0.91886 0.0
H1363 H 0.9842 0.86502 0.96244 0.0
H1364 H 0.96605 0.94771 -0.00508 0.0
H1365 H 0.96126 0.91236 0.97051 0.0
H1366 H 0.03534 0.91685 0.95577 0.0
H1367 H 0.04039 0.95169 0.98013 0.0
C1368 C -0.0045 0.88778 0.90383 0.0
C1369 C 0.9893 0.86353 0.90702 0.0
C1370 C -0.00191 0.90356 0.92162 0.0
C1371 C -0.00583 0.89545 0.94283 0.0
C1372 C 0.98731 0.87146 0.94612 0.0
C1373 C 0.98511 0.85548 0.9283 0.0
C1374 C 0.98144 0.94065 0.98701 0.0
C1375 C 0.00346 0.95271 0.98901 0.0
C1376 C 0.97869 0.92049 0.97314 0.0
C1377 C -0.00209 0.91237 0.96125 0.0
C1378 C 0.0203 0.92308 0.96475 0.0
C1379 C 0.02311 0.94301 0.97862 0.0
H1380 H 0.94077 0.26964 0.66529 0.0
H1381 H 0.95684 0.22909 0.72378 0.0
H1382 H 0.90256 0.281 0.68 0.0
H1383 H 0.9189 0.24033 0.73829 0.0
H1384 H 0.85977 0.28246 0.76808 0.0
H1385 H 0.89838 0.27617 0.75226 0.0
H1386 H 0.8641 0.26169 0.68917 0.0
H1387 H 0.82549 0.26812 0.70491 0.0
C1388 C 0.93619 0.26311 0.68123 0.0
C1389 C 0.95194 0.2484 0.69329 0.0
C1390 C 0.91426 0.26959 0.68964 0.0
C1391 C 0.90772 0.26173 0.71042 0.0
C1392 C 0.9235 0.24705 0.72242 0.0
C1393 C 0.94523 0.24041 0.71396 0.0
C1394 C 0.86046 0.27832 0.75076 0.0
C1395 C 0.83947 0.27569 0.73782 0.0
C1396 C 0.8826 0.27452 0.74172 0.0
C1397 C 0.88435 0.26816 0.71948 0.0
C1398 C 0.86344 0.26667 0.70631 0.0
C1399 C 0.84127 0.27029 0.71539 0.0
H1400 H 0.45573 0.20694 0.37476 0.0
H1401 H 0.46164 0.24421 0.43724 0.0
H1402 H 0.44988 0.16868 0.39358 0.0
H1403 H 0.45546 0.2062 0.45585 0.0
H1404 H 0.49662 0.13622 0.47229 0.0
H1405 H 0.48809 0.17417 0.45489 0.0
H1406 H 0.42601 0.1427 0.42211 0.0
H1407 H 0.43393 0.10426 0.44052 0.0
C1408 C 0.45509 0.20706 0.39244 0.0
C1409 C 0.45991 0.22836 0.40461 0.0
C1410 C 0.45157 0.18522 0.40317 0.0
C1411 C 0.45272 0.18455 0.42612 0.0
C1412 C 0.4549 0.20626 0.43812 0.0
C1413 C 0.45851 0.22798 0.42747 0.0
C1414 C 0.4807 0.13735 0.46195 0.0
C1415 C 0.46571 0.1172 0.4582 0.0
C1416 C 0.47589 0.15917 0.45189 0.0
C1417 C 0.45617 0.16144 0.4375 0.0
C1418 C 0.44124 0.14136 0.43332 0.0
C1419 C 0.44588 0.11941 0.44373 0.0
H1420 H 0.57585 0.73167 0.21288 0.0
H1421 H 0.61194 0.76081 0.15792 0.0
H1422 H 0.61347 0.7287 0.23335 0.0
H1423 H 0.64947 0.75935 0.17874 0.0
H1424 H 0.71703 0.73492 0.21198 0.0
H1425 H 0.67905 0.73485 0.19202 0.0
H1426 H 0.64376 0.74887 0.25247 0.0
H1427 H 0.68187 0.74737 0.27252 0.0
C1428 C 0.59183 0.73772 0.20529 0.0
C1429 C 0.59093 0.7464 0.18377 0.0
C1430 C 0.6135 0.73619 0.21708 0.0
C1431 C 0.63482 0.74372 0.20784 0.0
C1432 C 0.6337 0.75277 0.18636 0.0
C1433 C 0.61209 0.75383 0.17443 0.0
C1434 C 0.7011 0.73776 0.22102 0.0
C1435 C 0.70245 0.74114 0.24383 0.0
C1436 C 0.67924 0.738 0.20953 0.0
C1437 C 0.65807 0.7422 0.22043 0.0
C1438 C 0.65947 0.74524 0.24339 0.0
C1439 C 0.68137 0.74448 0.25496 0.0
H1440 H 0.00926 0.18766 0.59037 0.0
H1441 H 0.02986 0.14344 0.64544 0.0
H1442 H 0.00891 0.15185 0.56648 0.0
H1443 H 0.03004 0.10809 0.62166 0.0
H1444 H 0.0344 0.08507 0.52721 0.0
H1445 H 0.03459 0.12181 0.54994 0.0
H1446 H 0.00297 0.08188 0.60186 0.0
H1447 H 0.00329 0.04537 0.57956 0.0
C1448 C 0.01373 0.17036 0.5974 0.0
C1449 C 0.01943 0.1685 0.61991 0.0
C1450 C 0.0137 0.14985 0.58366 0.0
C1451 C 0.01934 0.12698 0.59211 0.0
C1452 C 0.02517 0.12525 0.61458 0.0
C1453 C 0.02518 0.14565 0.62826 0.0
C1454 C 0.02757 0.08417 0.54351 0.0
C1455 C 0.01899 0.06218 0.55156 0.0
C1456 C 0.02752 0.10527 0.55649 0.0
C1457 C 0.01891 0.10486 0.57783 0.0
C1458 C 0.01015 0.08287 0.58571 0.0
C1459 C 0.01023 0.06188 0.57281 0.0
H1460 H 0.5755 0.3006 0.37547 0.0
H1461 H 0.54588 0.27507 0.31322 0.0
H1462 H 0.61383 0.30601 0.35943 0.0
H1463 H 0.58476 0.27912 0.29729 0.0
H1464 H 0.65319 0.30756 0.2701 0.0
H1465 H 0.61383 0.30686 0.28569 0.0
H1466 H 0.64514 0.28308 0.34727 0.0
H1467 H 0.68413 0.28497 0.33199 0.0
C1468 C 0.57733 0.29576 0.3584 0.0
C1469 C 0.55783 0.28723 0.3456 0.0
C1470 C 0.59933 0.29881 0.3492 0.0
C1471 C 0.60247 0.29286 0.32708 0.0
C1472 C 0.5829 0.28425 0.31428 0.0
C1473 C 0.5607 0.28166 0.32342 0.0
C1474 C 0.6515 0.30262 0.28706 0.0
C1475 C 0.67158 0.29666 0.29998 0.0
C1476 C 0.62903 0.30196 0.29594 0.0
C1477 C 0.62629 0.2949 0.31775 0.0
C1478 C 0.64656 0.28917 0.3306 0.0
C1479 C 0.66894 0.29022 0.32186 0.0
H1480 H 0.50729 0.83614 0.13521 0.0
H1481 H 0.52297 0.79553 0.07686 0.0
H1482 H 0.50532 0.87307 0.11399 0.0
H1483 H 0.52143 0.83261 0.05564 0.0
H1484 H 0.49671 0.90166 0.02073 0.0
H1485 H 0.49517 0.86417 0.04145 0.0
H1486 H 0.53243 0.89958 0.09599 0.0
H1487 H 0.5336 0.9369 0.07559 0.0
C1488 C 0.5103 0.83507 0.11784 0.0
C1489 C 0.51539 0.81286 0.10777 0.0
C1490 C 0.5093 0.8563 0.10567 0.0
C1491 C 0.51336 0.85591 0.08309 0.0
C1492 C 0.51798 0.83359 0.07293 0.0
C1493 C 0.51901 0.81233 0.08513 0.0
C1494 C 0.50443 0.90145 0.03719 0.0
C1495 C 0.51524 0.92234 0.04647 0.0
C1496 C 0.50369 0.87991 0.04903 0.0
C1497 C 0.51363 0.87881 0.07045 0.0
C1498 C 0.52426 0.89979 0.0797 0.0
C1499 C 0.52506 0.92122 0.0679 0.0
H1500 H 0.89195 0.82071 0.83626 0.0
H1501 H 0.92234 0.76217 0.87372 0.0
H1502 H 0.85245 0.8041 0.84158 0.0
H1503 H 0.8828 0.74562 0.87892 0.0
H1504 H 0.82005 0.71433 0.82826 0.0
H1505 H 0.85615 0.72741 0.84788 0.0
H1506 H 0.82097 0.79174 0.86973 0.0
H1507 H 0.78464 0.77836 0.85047 0.0
C1508 C 0.89019 0.80453 0.84586 0.0
C1509 C 0.91026 0.79255 0.85421 0.0
C1510 C 0.86756 0.79523 0.84925 0.0
C1511 C 0.86463 0.77371 0.86092 0.0
C1512 C 0.88462 0.76232 0.87007 0.0
C1513 C 0.90721 0.77173 0.86687 0.0
C1514 C 0.81953 0.73037 0.83855 0.0
C1515 C 0.80001 0.74584 0.83713 0.0
C1516 C 0.84027 0.73798 0.84972 0.0
C1517 C 0.84148 0.76108 0.85946 0.0
C1518 C 0.82051 0.7741 0.86186 0.0
C1519 C 0.79963 0.76626 0.85098 0.0
H1520 H 0.97911 0.01573 0.84047 0.0
H1521 H 0.9091 0.04455 0.84942 0.0
H1522 H 0.99029 0.02679 0.87803 0.0
H1523 H 0.92049 0.05582 0.88706 0.0
H1524 H 0.01078 0.05966 0.94148 0.0
H1525 H -0.00283 0.06134 0.90335 0.0
H1526 H 0.92939 0.03144 0.92043 0.0
H1527 H 0.9429 0.03011 0.9588 0.0
C1528 C 0.96622 0.02476 0.85034 0.0
C1529 C 0.94317 0.02905 0.84203 0.0
C1530 C 0.97268 0.03127 0.87181 0.0
C1531 C 0.95622 0.04216 0.88545 0.0
C1532 C 0.93344 0.04729 0.87693 0.0
C1533 C 0.92699 0.0409 0.85537 0.0
C1534 C -0.00721 0.05393 0.93718 0.0
C1535 C 0.97802 0.04432 0.95299 0.0
C1536 C 0.98505 0.05484 0.91535 0.0
C1537 C 0.96243 0.04609 0.90891 0.0
C1538 C 0.94692 0.03837 0.92498 0.0
C1539 C 0.95465 0.03754 0.94692 0.0
H1540 H 0.77113 0.17847 0.5464 0.0
H1541 H 0.73977 0.11895 0.58064 0.0
H1542 H 0.76671 0.20438 0.57851 0.0
H1543 H 0.73576 0.14472 0.61273 0.0
H1544 H 0.78044 0.23211 0.64964 0.0
H1545 H 0.78314 0.20872 0.61594 0.0
H1546 H 0.7129 0.17954 0.62477 0.0
H1547 H 0.71014 0.20307 0.6586 0.0
C1548 C 0.76346 0.17086 0.5608 0.0
C1549 C 0.75582 0.14662 0.56093 0.0
C1550 C 0.76095 0.1857 0.57919 0.0
C1551 C 0.75074 0.17663 0.59809 0.0
C1552 C 0.7433 0.15236 0.59828 0.0
C1553 C 0.74582 0.13753 0.57993 0.0
C1554 C 0.76534 0.22113 0.64417 0.0
C1555 C 0.74504 0.21948 0.65679 0.0
C1556 C 0.76693 0.20766 0.62487 0.0
C1557 C 0.74829 0.19219 0.61776 0.0
C1558 C 0.72772 0.19102 0.63004 0.0
C1559 C 0.72611 0.20452 0.64937 0.0
H1560 H 0.61547 0.97128 0.35314 0.0
H1561 H 0.57455 0.03624 0.34488 0.0
H1562 H 0.59379 0.96183 0.38591 0.0
H1563 H 0.55376 0.02752 0.37788 0.0
H1564 H 0.506 0.00153 0.42733 0.0
H1565 H 0.52499 0.00219 0.39223 0.0
H1566 H 0.58902 0.97383 0.42275 0.0
H1567 H 0.56939 0.97191 0.45757 0.0
C1568 C 0.60203 0.98365 0.35846 0.0
C1569 C 0.59665 0.00446 0.3464 0.0
C1570 C 0.5896 0.97826 0.37724 0.0
C1571 C 0.57175 0.99372 0.38445 0.0
C1572 C 0.56682 0.01475 0.37253 0.0
C1573 C 0.57896 0.01994 0.35368 0.0
C1574 C 0.52391 -0.00518 0.42634 0.0
C1575 C 0.53629 0.98681 0.44512 0.0
C1576 C 0.53493 -0.00453 0.4063 0.0
C1577 C 0.55881 0.98873 0.40473 0.0
C1578 C 0.57062 0.97911 0.42327 0.0
C1579 C 0.55938 0.97798 0.44326 0.0
H1580 H 0.81536 0.8569 0.07284 0.0
H1581 H 0.77281 0.79242 0.06195 0.0
H1582 H 0.8357 0.83812 0.10395 0.0
H1583 H 0.79234 0.77395 0.09357 0.0
H1584 H 0.82149 0.74712 0.15566 0.0
H1585 H 0.82424 0.75953 0.11762 0.0
H1586 H 0.81599 0.83395 0.13783 0.0
H1587 H 0.81309 0.82166 0.17535 0.0
C1588 C 0.81091 0.8384 0.07671 0.0
C1589 C 0.79215 0.82627 0.06547 0.0
C1590 C 0.8225 0.82768 0.09455 0.0
C1591 C 0.81508 0.8049 0.10168 0.0
C1592 C 0.79848 0.79156 0.08858 0.0
C1593 C 0.78716 0.80216 0.07048 0.0
C1594 C 0.82073 0.76617 0.15194 0.0
C1595 C 0.81659 0.78337 0.16846 0.0
C1596 C 0.82243 0.77326 0.13019 0.0
C1597 C 0.8201 0.79767 0.12463 0.0
C1598 C 0.81821 0.815 0.14147 0.0
C1599 C 0.81645 0.80793 0.16312 0.0
H1600 H 0.8794 0.98242 0.70475 0.0
H1601 H 0.94994 0.00702 0.72456 0.0
H1602 H 0.89475 0.96553 0.67108 0.0
H1603 H 0.96513 0.9907 0.6908 0.0
H1604 H -0.00883 0.94585 0.63665 0.0
H1605 H 0.97275 0.95306 0.67164 0.0
H1606 H 0.91061 0.98087 0.63752 0.0
H1607 H 0.92887 0.97337 0.6027 0.0
C1608 C 0.89816 0.9843 0.70187 0.0
C1609 C 0.91347 -0.00387 0.71723 0.0
C1610 C 0.90693 0.97462 0.68262 0.0
C1611 C 0.93117 0.97662 0.67836 0.0
C1612 C 0.94645 0.98839 0.6938 0.0
C1613 C 0.9377 -0.00199 0.71303 0.0
C1614 C 0.97337 0.953 0.63669 0.0
C1615 C 0.96152 0.95925 0.61702 0.0
C1616 C 0.96288 0.95726 0.65667 0.0
C1617 C 0.94043 0.96796 0.65733 0.0
C1618 C 0.92787 0.97248 0.63758 0.0
C1619 C 0.93832 0.96812 0.6176 0.0
H1620 H 0.79512 0.14477 0.41381 0.0
H1621 H 0.76983 0.20477 0.45197 0.0
H1622 H 0.80205 0.17171 0.38353 0.0
H1623 H 0.77687 0.23189 0.42148 0.0
H1624 H 0.75991 0.25668 0.34812 0.0
H1625 H 0.75867 0.23686 0.38354 0.0
H1626 H 0.82753 0.20625 0.37326 0.0
H1627 H 0.82874 0.22578 0.33788 0.0
C1628 C 0.79125 0.16377 0.4158 0.0
C1629 C 0.78186 0.17263 0.43523 0.0
C1630 C 0.7954 0.17925 0.39851 0.0
C1631 C 0.79012 0.20394 0.40018 0.0
C1632 C 0.78104 0.21293 0.41973 0.0
C1633 C 0.77709 0.19743 0.43717 0.0
C1634 C 0.77505 0.24625 0.35368 0.0
C1635 C 0.79424 0.24247 0.34004 0.0
C1636 C 0.77435 0.23492 0.37398 0.0
C1637 C 0.79282 0.21965 0.38095 0.0
C1638 C 0.81283 0.21752 0.36809 0.0
C1639 C 0.81355 0.22881 0.34787 0.0
H1640 H 0.60568 0.02881 0.2364 0.0
H1641 H 0.65611 0.98013 0.20882 0.0
H1642 H 0.59214 0.04037 0.20003 0.0
H1643 H 0.64112 0.98978 0.17214 0.0
H1644 H 0.61912 0.01717 0.10707 0.0
H1645 H 0.63768 0.01605 0.1435 0.0
H1646 H 0.56914 0.02689 0.17152 0.0
H1647 H 0.55135 0.03071 0.13537 0.0
C1648 C 0.61356 0.02026 0.22246 0.0
C1649 C 0.6317 0.00338 0.22532 0.0
C1650 C 0.60573 0.02679 0.20152 0.0
C1651 C 0.61523 0.01586 0.18291 0.0
C1652 C 0.63359 -0.00099 0.18592 0.0
C1653 C 0.642 0.99314 0.20693 0.0
C1654 C 0.6082 0.02017 0.12102 0.0
C1655 C 0.58363 0.02354 0.11826 0.0
C1656 C 0.61877 0.01903 0.142 0.0
C1657 C 0.60493 0.02075 0.16065 0.0
C1658 C 0.5806 0.02561 0.15776 0.0
C1659 C 0.57021 0.02739 0.13688 0.0
H1660 H 0.74573 0.85386 0.95593 0.0
H1661 H 0.67718 0.88815 0.95435 0.0
H1662 H 0.73672 0.83588 0.92017 0.0
H1663 H 0.66806 0.86971 0.9184 0.0
H1664 H 0.67789 0.84747 0.84327 0.0
H1665 H 0.68078 0.86824 0.87882 0.0
H1666 H 0.7084 0.8035 0.90839 0.0
H1667 H 0.707 0.78331 0.87329 0.0
C1668 C 0.72881 0.85773 0.94787 0.0
C1669 C 0.71208 0.87221 0.95808 0.0
C1670 C 0.72357 0.84727 0.92746 0.0
C1671 C 0.70144 0.85091 0.9168 0.0
C1672 C 0.68518 0.86651 0.92635 0.0
C1673 C 0.69046 0.87708 0.94687 0.0
C1674 C 0.68432 0.83757 0.8574 0.0
C1675 C 0.69264 0.81379 0.85514 0.0
C1676 C 0.68582 0.84945 0.87776 0.0
C1677 C 0.69552 0.83766 0.89615 0.0
C1678 C 0.70149 0.81323 0.89432 0.0
C1679 C 0.7002 0.80148 0.87411 0.0
H1680 H 0.76371 0.97666 0.02257 0.0
H1681 H 0.79005 0.91914 0.06356 0.0
H1682 H 0.80172 -0.00174 0.02812 0.0
H1683 H 0.82733 0.94084 0.0696 0.0
H1684 H 0.8978 0.96184 0.04094 0.0
H1685 H 0.85774 0.94638 0.04221 0.0
H1686 H 0.83213 0.01825 0.05497 0.0
H1687 H 0.87292 0.03401 0.05399 0.0
C1688 C 0.7774 0.96896 0.03314 0.0
C1689 C 0.77428 0.94602 0.0422 0.0
C1690 C 0.79903 0.98134 0.03641 0.0
C1691 C 0.81756 0.97095 0.04895 0.0
C1692 C 0.81354 0.94897 0.05944 0.0
C1693 C 0.79222 0.93656 0.05595 0.0
C1694 C 0.88383 0.97438 0.0446 0.0
C1695 C 0.88865 -0.00089 0.0478 0.0
C1696 C 0.8608 0.96549 0.04524 0.0
C1697 C 0.84188 0.98107 0.04902 0.0
C1698 C 0.84646 0.00588 0.05206 0.0
C1699 C 0.86973 0.01485 0.05151 0.0
H1700 H 0.33646 0.58821 0.9641 0.0
H1701 H 0.32436 0.54334 0.01993 0.0
H1702 H 0.37588 0.57091 0.96091 0.0
H1703 H 0.36389 0.52706 0.0176 0.0
H1704 H 0.427 0.48554 0.00086 0.0
H1705 H 0.38688 0.501 -0.00225 0.0
H1706 H 0.41444 0.56973 0.97667 0.0
H1707 H 0.45454 0.55349 0.97851 0.0
C1708 C 0.34232 0.57481 0.9758 0.0
C1709 C 0.32726 0.56702 -0.00782 0.0
C1710 C 0.36495 0.56494 0.97404 0.0
C1711 C 0.37313 0.54732 0.98884 0.0
C1712 C 0.35809 0.53998 0.00545 0.0
C1713 C 0.33541 0.54951 0.00695 0.0
C1714 C 0.42438 0.5038 -0.00484 0.0
C1715 C 0.44382 0.51836 0.99002 0.0
C1716 C 0.4014 0.51281 -0.00639 0.0
C1717 C 0.39732 0.53688 0.98748 0.0
C1718 C 0.41677 0.55109 0.98133 0.0
C1719 C 0.43979 0.54183 0.9824 0.0
H1720 H 0.20745 0.56368 0.79973 0.0
H1721 H 0.14687 0.6029 0.77417 0.0
H1722 H 0.23229 0.59976 0.79591 0.0
H1723 H 0.17159 0.63821 0.76966 0.0
H1724 H 0.2148 0.7049 0.78306 0.0
H1725 H 0.19201 0.66877 0.78997 0.0
H1726 H 0.2496 0.6248 0.76801 0.0
H1727 H 0.27307 0.66139 0.76186 0.0
C1728 C 0.1994 0.57998 0.79345 0.0
C1729 C 0.17513 0.58038 0.78736 0.0
C1730 C 0.21368 0.60056 0.79104 0.0
C1731 C 0.20396 0.6219 0.78247 0.0
C1732 C 0.17964 0.62228 0.77668 0.0
C1733 C 0.16543 0.60189 0.7792 0.0
C1734 C 0.22267 0.68757 0.77958 0.0
C1735 C 0.24569 0.68605 0.77167 0.0
C1736 C 0.20952 0.66679 0.78352 0.0
C1737 C 0.21884 0.64383 0.77936 0.0
C1738 C 0.24197 0.6422 0.77158 0.0
C1739 C 0.25532 0.66314 0.76785 0.0
H1740 H 0.17434 0.40963 0.58049 0.0
H1741 H 0.16413 0.3561 0.52915 0.0
H1742 H 0.14194 0.43316 0.5646 0.0
H1743 H 0.13312 0.38028 0.51217 0.0
H1744 H 0.06799 0.42577 0.49415 0.0
H1745 H 0.09621 0.39796 0.51048 0.0
H1746 H 0.13922 0.45844 0.53447 0.0
H1747 H 0.1099 0.48619 0.5194 0.0
C1748 C 0.16448 0.40251 0.56626 0.0
C1749 C 0.17141 0.38104 0.55616 0.0
C1750 C 0.14642 0.41627 0.55675 0.0
C1751 C 0.13555 0.40913 0.53658 0.0
C1752 C 0.14104 0.38643 0.52765 0.0
C1753 C 0.15865 0.37236 0.53754 0.0
C1754 C 0.08389 0.43311 0.50229 0.0
C1755 C 0.08681 0.45812 0.50558 0.0
C1756 C 0.1 0.41712 0.51187 0.0
C1757 C 0.11963 0.4259 0.52445 0.0
C1758 C 0.12375 0.45101 0.52572 0.0
C1759 C 0.10732 0.46697 0.51662 0.0
H1760 H 0.83495 0.95524 0.79496 0.0
H1761 H 0.90033 0.91809 0.81026 0.0
H1762 H 0.81298 0.91749 0.79796 0.0
H1763 H 0.87826 0.88048 0.81417 0.0
H1764 H 0.83849 0.81754 0.7791 0.0
H1765 H 0.86003 0.85485 0.7868 0.0
H1766 H 0.79916 0.88388 0.8187 0.0
H1767 H 0.77718 0.84647 0.81035 0.0
C1768 C 0.84454 0.93914 0.7996 0.0
C1769 C 0.86938 0.93946 0.80192 0.0
C1770 C 0.83192 0.9175 0.80144 0.0
C1771 C 0.84394 0.89589 0.8059 0.0
C1772 C 0.86858 0.89671 0.81013 0.0
C1773 C 0.8812 0.91825 0.80798 0.0
C1774 C 0.8297 0.83179 0.78787 0.0
C1775 C 0.80603 0.8292 0.79385 0.0
C1776 C 0.84217 0.85314 0.79254 0.0
C1777 C 0.83134 0.87236 0.80343 0.0
C1778 C 0.80789 0.86948 0.81008 0.0
C1779 C 0.79533 0.84808 0.80532 0.0
H1780 H 0.6762 0.13043 0.49005 0.0
H1781 H 0.70176 0.05832 0.47827 0.0
H1782 H 0.6374 0.11393 0.49832 0.0
H1783 H 0.66277 0.04185 0.48594 0.0
H1784 H 0.60032 0.01803 0.52476 0.0
H1785 H 0.63849 0.03645 0.51728 0.0
H1786 H 0.6028 0.09371 0.48229 0.0
H1787 H 0.56459 0.07563 0.49025 0.0
C1788 C 0.67343 0.11107 0.48891 0.0
C1789 C 0.69207 0.09565 0.48361 0.0
C1790 C 0.65117 0.10162 0.49361 0.0
C1791 C 0.64705 0.07655 0.49304 0.0
C1792 C 0.6655 0.06121 0.48701 0.0
C1793 C 0.68778 0.07066 0.48239 0.0
C1794 C 0.6006 0.03472 0.51572 0.0
C1795 C 0.57942 0.04532 0.50805 0.0
C1796 C 0.62249 0.04514 0.51123 0.0
C1797 C 0.62371 0.06635 0.4989 0.0
C1798 C 0.6025 0.07744 0.49193 0.0
C1799 C 0.58058 0.06706 0.49649 0.0
H1800 H 0.22936 0.45231 0.792 0.0
H1801 H 0.16699 0.41173 0.80893 0.0
H1802 H 0.25224 0.41503 0.7918 0.0
H1803 H 0.18967 0.37466 0.80848 0.0
H1804 H 0.26826 0.33963 0.75962 0.0
H1805 H 0.25185 0.37929 0.76712 0.0
H1806 H 0.22209 0.35231 0.82628 0.0
H1807 H 0.23816 0.31254 0.81866 0.0
C1808 C 0.22063 0.43551 0.79599 0.0
C1809 C 0.19634 0.4349 0.80032 0.0
C1810 C 0.23369 0.41418 0.79575 0.0
C1811 C 0.22273 0.39191 0.80002 0.0
C1812 C 0.19872 0.39154 0.80536 0.0
C1813 C 0.18567 0.41278 0.80548 0.0
C1814 C 0.2585 0.34223 0.77439 0.0
C1815 C 0.25422 0.32285 0.78838 0.0
C1816 C 0.24923 0.36502 0.77876 0.0
C1817 C 0.23551 0.36886 0.7972 0.0
C1818 C 0.2323 0.34979 0.81177 0.0
C1819 C 0.24157 0.32703 0.80742 0.0
H1820 H 0.30055 0.55582 0.27324 0.0
H1821 H 0.36472 0.58905 0.30062 0.0
H1822 H 0.28065 0.59493 0.27499 0.0
H1823 H 0.34522 0.62775 0.30199 0.0
H1824 H 0.27296 0.67385 0.24866 0.0
H1825 H 0.28497 0.63229 0.25432 0.0
H1826 H 0.31485 0.65196 0.31817 0.0
H1827 H 0.30332 0.6938 0.3123 0.0
C1828 C 0.31026 0.57135 0.27992 0.0
C1829 C 0.33424 0.56947 0.28654 0.0
C1830 C 0.29894 0.59372 0.28082 0.0
C1831 C 0.31141 0.61445 0.28853 0.0
C1832 C 0.335 0.61215 0.29621 0.0
C1833 C 0.34626 0.58995 0.29522 0.0
C1834 C 0.28189 0.66929 0.26401 0.0
C1835 C 0.28756 0.6872 0.27989 0.0
C1836 C 0.28855 0.64539 0.26734 0.0
C1837 C 0.30097 0.63885 0.28664 0.0
C1838 C 0.30559 0.65653 0.30299 0.0
C1839 C 0.29898 0.68048 0.29963 0.0
H1840 H 0.51231 0.69714 0.61947 0.0
H1841 H 0.57129 0.64818 0.61556 0.0
H1842 H 0.49404 0.67854 0.58625 0.0
H1843 H 0.55328 0.6302 0.58228 0.0
H1844 H 0.53087 0.6226 0.51293 0.0
H1845 H 0.54056 0.65239 0.54152 0.0
H1846 H 0.48163 0.62734 0.57841 0.0
H1847 H 0.47193 0.59706 0.55 0.0
C1848 C 0.52136 0.6825 0.61148 0.0
C1849 C 0.54318 0.67401 0.62002 0.0
C1850 C 0.51094 0.672 0.59257 0.0
C1851 C 0.52255 0.65337 0.58178 0.0
C1852 C 0.54428 0.64487 0.59031 0.0
C1853 C 0.55443 0.65497 0.60939 0.0
C1854 C 0.51939 0.62397 0.52672 0.0
C1855 C 0.50109 0.60704 0.52961 0.0
C1856 C 0.52495 0.64105 0.543 0.0
C1857 C 0.51202 0.64165 0.56211 0.0
C1858 C 0.49177 0.62703 0.5637 0.0
C1859 C 0.48628 0.60974 0.54746 0.0
H1860 H 0.61871 0.26237 0.88116 0.0
H1861 H 0.58622 0.22259 0.82669 0.0
H1862 H 0.6546 0.26767 0.86072 0.0
H1863 H 0.6225 0.22665 0.80659 0.0
H1864 H 0.68232 0.25836 0.76721 0.0
H1865 H 0.64604 0.25316 0.78732 0.0
H1866 H 0.68784 0.24891 0.8478 0.0
H1867 H 0.72369 0.2554 0.82783 0.0
C1868 C 0.61938 0.25444 0.86491 0.0
C1869 C 0.59962 0.24209 0.85554 0.0
C1870 C 0.64005 0.25734 0.85317 0.0
C1871 C 0.64167 0.24758 0.83187 0.0
C1872 C 0.62191 0.23487 0.8227 0.0
C1873 C 0.60112 0.23234 0.83432 0.0
C1874 C 0.68366 0.25631 0.7848 0.0
C1875 C 0.70586 0.25745 0.79591 0.0
C1876 C 0.66287 0.25317 0.79638 0.0
C1877 C 0.6638 0.25068 0.81933 0.0
C1878 C 0.68617 0.25134 0.83028 0.0
C1879 C 0.70684 0.25489 0.81877 0.0
H1880 H 0.09538 0.29401 0.11063 0.0
H1881 H 0.04786 0.32095 0.15894 0.0
H1882 H 0.09056 0.33096 0.08995 0.0
H1883 H 0.04272 0.35813 0.13778 0.0
H1884 H 0.01678 0.39658 0.07151 0.0
H1885 H 0.02386 0.36425 0.09777 0.0
H1886 H 0.09931 0.37715 0.09536 0.0
H1887 H 0.09221 0.40965 0.06915 0.0
C1888 C 0.08395 0.30792 0.11685 0.0
C1889 C 0.07181 0.30464 0.13625 0.0
C1890 C 0.08139 0.3291 0.10511 0.0
C1891 C 0.06635 0.34726 0.11237 0.0
C1892 C 0.05442 0.34425 0.13195 0.0
C1893 C 0.05736 0.32312 0.144 0.0
C1894 C 0.03485 0.39246 0.07664 0.0
C1895 C 0.05401 0.40524 0.06819 0.0
C1896 C 0.03885 0.37427 0.09183 0.0
C1897 C 0.06208 0.36842 0.09854 0.0
C1898 C 0.08124 0.38146 0.09037 0.0
C1899 C 0.07721 0.39991 0.07542 0.0
H1900 H 0.96791 0.76078 0.31021 0.0
H1901 H 0.94677 0.74654 0.37598 0.0
H1902 H 0.92674 0.75994 0.29746 0.0
H1903 H 0.90512 0.74702 0.3635 0.0
H1904 H 0.83329 0.72816 0.32912 0.0
H1905 H 0.87419 0.72747 0.34343 0.0
H1906 H 0.89281 0.78297 0.29774 0.0
H1907 H 0.85236 0.78252 0.28274 0.0
C1908 C 0.95436 0.75762 0.32199 0.0
C1909 C 0.96055 0.75383 0.34411 0.0
C1910 C 0.93066 0.75737 0.31473 0.0
C1911 C 0.91238 0.75388 0.32947 0.0
C1912 C 0.91863 0.74959 0.3516 0.0
C1913 C 0.9425 0.74937 0.3588 0.0
C1914 C 0.84616 0.74028 0.32226 0.0
C1915 C 0.8397 0.75525 0.3047 0.0
C1916 C 0.86962 0.73997 0.33052 0.0
C1917 C 0.88705 0.75493 0.32161 0.0
C1918 C 0.88017 0.77063 0.30462 0.0
C1919 C 0.85689 0.77058 0.29612 0.0
H1920 H 0.5187 0.34272 0.88484 0.0
H1921 H 0.52737 0.30246 0.94457 0.0
H1922 H 0.5122 0.37926 0.90584 0.0
H1923 H 0.52183 0.33956 0.96586 0.0
H1924 H 0.49164 0.40788 -0.00247 0.0
H1925 H 0.49487 0.37004 0.97685 0.0
H1926 H 0.53322 0.40766 0.92745 0.0
H1927 H 0.52913 0.44528 0.94751 0.0
C1928 C 0.51945 0.34169 0.90252 0.0
C1929 C 0.52378 0.31963 0.91299 0.0
C1930 C 0.51583 0.36278 0.91463 0.0
C1931 C 0.51678 0.36261 0.93765 0.0
C1932 C 0.52075 0.34043 0.94818 0.0
C1933 C 0.52409 0.31916 0.93598 0.0
C1934 C 0.50055 0.40804 0.98214 0.0
C1935 C 0.50997 0.42968 0.97413 0.0
C1936 C 0.5026 0.38629 0.97035 0.0
C1937 C 0.51426 0.38565 0.95036 0.0
C1938 C 0.52366 0.40738 0.94248 0.0
C1939 C 0.52141 0.42905 0.9541 0.0
H1940 H 0.01438 0.24635 0.20694 0.0
H1941 H 0.0277 0.17395 0.22978 0.0
H1942 H 0.9756 0.24525 0.22273 0.0
H1943 H 0.98864 0.17307 0.24595 0.0
H1944 H 0.90441 0.17516 0.2432 0.0
H1945 H 0.94562 0.17312 0.23204 0.0
H1946 H 0.95893 0.24448 0.25928 0.0
H1947 H 0.91798 0.24709 0.26937 0.0
C1948 C 0.00913 0.23026 0.21551 0.0
C1949 C 0.02411 0.21024 0.21711 0.0
C1950 C 0.98694 0.2297 0.22467 0.0
C1951 C 0.97922 0.20911 0.23564 0.0
C1952 C -0.00581 0.1891 0.23746 0.0
C1953 C 0.01655 0.1897 0.22834 0.0
C1954 C 0.91622 0.19032 0.24686 0.0
C1955 C 0.90789 0.21127 0.25713 0.0
C1956 C 0.93981 0.18904 0.24071 0.0
C1957 C 0.95532 0.20874 0.24467 0.0
C1958 C 0.94725 0.22916 0.2558 0.0
C1959 C 0.92381 0.23048 0.26183 0.0
H1960 H 0.02949 0.64972 0.39349 0.0
H1961 H 0.02741 0.68619 0.45614 0.0
H1962 H 0.03093 0.61094 0.41163 0.0
H1963 H 0.02762 0.64729 0.47442 0.0
H1964 H 0.05006 0.57544 0.50298 0.0
H1965 H 0.05063 0.6141 0.48438 0.0
H1966 H 0.00921 0.58258 0.43025 0.0
H1967 H 0.00975 0.54378 0.44839 0.0
C1968 C 0.02902 0.64943 0.41117 0.0
C1969 C 0.0283 0.67108 0.42335 0.0
C1970 C 0.02971 0.6271 0.42164 0.0
C1971 C 0.02935 0.62572 0.44461 0.0
C1972 C 0.02838 0.64747 0.45676 0.0
C1973 C 0.02804 0.66985 0.44628 0.0
C1974 C 0.04127 0.57675 0.48701 0.0
C1975 C 0.02994 0.55647 0.47716 0.0
C1976 C 0.04138 0.59904 0.47639 0.0
C1977 C 0.02985 0.60175 0.45575 0.0
C1978 C 0.01866 0.5813 0.44589 0.0
C1979 C 0.01887 0.55896 0.45637 0.0
H1980 H 0.63668 0.76879 0.64394 0.0
H1981 H 0.65651 0.70886 0.68494 0.0
H1982 H 0.67569 0.78761 0.65151 0.0
H1983 H 0.69573 0.72704 0.69162 0.0
H1984 H 0.71451 0.80939 0.72639 0.0
H1985 H 0.68626 0.79902 0.69662 0.0
H1986 H 0.73552 0.74768 0.67114 0.0
H1987 H 0.76422 0.7586 0.70034 0.0
C1988 C 0.6498 0.75914 0.65369 0.0
C1989 C 0.64378 0.7375 0.66402 0.0
C1990 C 0.67202 0.76988 0.65794 0.0
C1991 C 0.68861 0.75861 0.67191 0.0
C1992 C 0.68331 0.73582 0.68045 0.0
C1993 C 0.6609 0.7255 0.6768 0.0
C1994 C 0.71987 0.79696 0.71372 0.0
C1995 C 0.74119 0.78427 0.71603 0.0
C1996 C 0.70375 0.79111 0.69661 0.0
C1997 C 0.70871 0.77226 0.68197 0.0
C1998 C 0.73142 0.76224 0.68233 0.0
C1999 C 0.74777 0.76852 0.69912 0.0
H2000 H 0.56879 0.51381 0.67662 0.0
H2001 H 0.63513 0.50167 0.64535 0.0
H2002 H 0.54853 0.51637 0.64094 0.0
H2003 H 0.61475 0.50324 0.60958 0.0
H2004 H 0.57687 0.53872 0.55112 0.0
H2005 H 0.59716 0.53219 0.58621 0.0
H2006 H 0.53512 0.49505 0.60895 0.0
H2007 H 0.51447 0.50249 0.57399 0.0
C2008 C 0.57898 0.51132 0.6621 0.0
C2009 C 0.60358 0.50771 0.66377 0.0
C2010 C 0.56733 0.51263 0.64161 0.0
C2011 C 0.57998 0.51011 0.6223 0.0
C2012 C 0.6045 0.50574 0.62406 0.0
C2013 C 0.61618 0.50469 0.64456 0.0
C2014 C 0.56758 0.52905 0.56356 0.0
C2015 C 0.544 0.52124 0.55981 0.0
C2016 C 0.57929 0.52513 0.58367 0.0
C2017 C 0.56782 0.51309 0.6005 0.0
C2018 C 0.54439 0.50476 0.59652 0.0
C2019 C 0.53258 0.50889 0.57644 0.0
H2020 H 0.79274 0.34475 -0.00661 0.0
H2021 H 0.74151 0.38897 0.95881 0.0
H2022 H 0.80456 0.32716 0.95884 0.0
H2023 H 0.7524 0.37056 0.92434 0.0
H2024 H 0.79035 0.35262 0.86402 0.0
H2025 H 0.78299 0.37051 0.89943 0.0
H2026 H 0.79336 0.30112 0.92976 0.0
H2027 H 0.80276 0.28365 0.89455 0.0
C2028 C 0.78367 0.35037 0.97842 0.0
C2029 C 0.76623 0.36828 0.97879 0.0
C2030 C 0.79044 0.34026 0.95858 0.0
C2031 C 0.77965 0.34758 0.93869 0.0
C2032 C 0.76161 0.36494 0.93922 0.0
C2033 C 0.75513 0.37532 0.95902 0.0
C2034 C 0.79183 0.34127 0.87828 0.0
C2035 C 0.797 0.31658 0.87629 0.0
C2036 C 0.78708 0.35147 0.89861 0.0
C2037 C 0.787 0.33718 0.91746 0.0
C2038 C 0.79326 0.31274 0.91566 0.0
C2039 C 0.79839 0.30262 0.89536 0.0
H2040 H 0.96907 0.53029 0.18288 0.0
H2041 H 0.90342 0.52385 0.14454 0.0
H2042 H 0.99065 0.53667 0.14959 0.0
H2043 H 0.92512 0.53003 0.11119 0.0
H2044 H 0.96817 0.55626 0.05568 0.0
H2045 H 0.94948 0.55984 0.09097 0.0
H2046 H -0.00028 0.50934 0.11867 0.0
H2047 H 0.01847 0.50584 0.08358 0.0
C2048 C 0.95921 0.53042 0.16735 0.0
C2049 C 0.93457 0.52631 0.16628 0.0
C2050 C 0.97159 0.53405 0.14831 0.0
C2051 C 0.95958 0.53378 0.12782 0.0
C2052 C 0.93481 0.5306 0.1268 0.0
C2053 C 0.92241 0.52686 0.14586 0.0
C2054 C 0.97558 0.54638 0.06945 0.0
C2055 C -0.00534 0.53059 0.06682 0.0
C2056 C 0.96475 0.5483 0.08958 0.0
C2057 C 0.97298 0.53467 0.10746 0.0
C2058 C -0.00694 0.52018 0.10521 0.0
C2059 C 0.00376 0.51811 0.08508 0.0
H2060 H 0.79749 0.69262 0.49706 0.0
H2061 H 0.77851 0.62058 0.47439 0.0
H2062 H 0.78609 0.70841 0.46113 0.0
H2063 H 0.76633 0.63635 0.43894 0.0
H2064 H 0.76941 0.66954 0.37122 0.0
H2065 H 0.78098 0.65331 0.40673 0.0
H2066 H 0.75134 0.71569 0.43851 0.0
H2067 H 0.74031 0.73221 0.40275 0.0
C2068 C 0.79101 0.68016 0.48438 0.0
C2069 C 0.789 0.65536 0.48853 0.0
C2070 C 0.78421 0.68922 0.46387 0.0
C2071 C 0.7751 0.67367 0.44716 0.0
C2072 C 0.77353 0.64882 0.45129 0.0
C2073 C 0.78049 0.63977 0.47167 0.0
C2074 C 0.76493 0.67954 0.3858 0.0
C2075 C 0.75384 0.70207 0.38424 0.0
C2076 C 0.77164 0.67029 0.40619 0.0
C2077 C 0.76725 0.68325 0.42552 0.0
C2078 C 0.75546 0.70547 0.42395 0.0
C2079 C 0.74892 0.71483 0.40351 0.0
H2080 H 0.6185 0.50103 0.80044 0.0
H2081 H 0.57162 0.56143 0.7901 0.0
H2082 H 0.60935 0.50116 0.83919 0.0
H2083 H 0.56262 0.56151 0.82884 0.0
H2084 H 0.56897 0.56723 0.90406 0.0
H2085 H 0.58314 0.56886 0.86655 0.0
H2086 H 0.572 0.49186 0.85947 0.0
H2087 H 0.55785 0.49033 0.89667 0.0
C2088 C 0.60631 0.51436 0.80642 0.0
C2089 C 0.59564 0.53109 0.79215 0.0
C2090 C 0.60109 0.51442 0.82859 0.0
C2091 C 0.58535 0.5314 0.83698 0.0
C2092 C 0.57502 0.54841 0.82283 0.0
C2093 C 0.58001 0.54817 0.80062 0.0
C2094 C 0.56987 0.5507 0.89449 0.0
C2095 C 0.56221 0.5287 0.90307 0.0
C2096 C 0.57781 0.55162 0.87308 0.0
C2097 C 0.57859 0.53048 0.86014 0.0
C2098 C 0.57175 0.50839 0.86911 0.0
C2099 C 0.56352 0.50754 0.89031 0.0
H2100 H 0.80135 0.35742 0.1249 0.0
H2101 H 0.74922 0.30932 0.09397 0.0
H2102 H 0.80486 0.33028 0.1561 0.0
H2103 H 0.75238 0.28249 0.12547 0.0
H2104 H 0.74281 0.27162 0.20294 0.0
H2105 H 0.74151 0.29087 0.16713 0.0
H2106 H 0.81748 0.28464 0.16405 0.0
H2107 H 0.81881 0.26485 0.19964 0.0
C2108 C 0.79079 0.34098 0.12471 0.0
C2109 C 0.77499 0.3355 0.10704 0.0
C2110 C 0.7929 0.32541 0.14247 0.0
C2111 C 0.77891 0.30432 0.1431 0.0
C2112 C 0.76335 0.29865 0.12532 0.0
C2113 C 0.76161 0.31396 0.10733 0.0
C2114 C 0.75915 0.27378 0.19435 0.0
C2115 C 0.7809 0.26675 0.20406 0.0
C2116 C 0.75839 0.28476 0.17388 0.0
C2117 C 0.77942 0.28935 0.16298 0.0
C2118 C 0.80105 0.28137 0.17222 0.0
C2119 C 0.80176 0.2699 0.19247 0.0
H2120 H 0.91096 0.48619 0.29848 0.0
H2121 H 0.98569 0.48284 0.28574 0.0
H2122 H 0.9193 0.47494 0.33632 0.0
H2123 H -0.00579 0.47271 0.32375 0.0
H2124 H 0.94786 0.48181 0.40781 0.0
H2125 H 0.93615 0.48935 0.36983 0.0
H2126 H 0.99064 0.44079 0.34866 0.0
H2127 H 0.00294 0.43425 0.38678 0.0
C2128 C 0.92922 0.48347 0.30388 0.0
C2129 C 0.94769 0.48539 0.28918 0.0
C2130 C 0.93401 0.477 0.32557 0.0
C2131 C 0.95741 0.47265 0.33306 0.0
C2132 C 0.97591 0.47526 0.31843 0.0
C2133 C 0.97108 0.48137 0.29669 0.0
C2134 C 0.95691 0.47233 0.39499 0.0
C2135 C 0.97629 0.4575 0.40008 0.0
C2136 C 0.95025 0.47666 0.37322 0.0
C2137 C 0.96269 0.46598 0.35615 0.0
C2138 C 0.98111 0.44985 0.36139 0.0
C2139 C 0.98799 0.44584 0.38316 0.0
H2140 H 0.84898 0.67886 0.59594 0.0
H2141 H 0.83336 0.62492 0.644 0.0
H2142 H 0.87047 0.70278 0.62417 0.0
H2143 H 0.85394 0.64885 0.672 0.0
H2144 H 0.84655 0.74823 0.68538 0.0
H2145 H 0.8528 0.72563 0.65242 0.0
H2146 H 0.88676 0.6693 0.69004 0.0
H2147 H 0.88027 0.69221 0.72362 0.0
C2148 C 0.85046 0.67192 0.61241 0.0
C2149 C 0.83884 0.6504 0.61791 0.0
C2150 C 0.86283 0.68557 0.62855 0.0
C2151 C 0.86368 0.67795 0.65044 0.0
C2152 C 0.85393 0.65529 0.65536 0.0
C2153 C 0.84167 0.6417 0.6393 0.0
C2154 C 0.85644 0.73163 0.68676 0.0
C2155 C 0.86213 0.72161 0.70728 0.0
C2156 C 0.8601 0.71856 0.66763 0.0
C2157 C 0.86948 0.6952 0.66864 0.0
C2158 C 0.87874 0.68694 0.68884 0.0
C2159 C 0.87499 0.70003 0.70807 0.0
H2160 H 0.71973 0.65974 0.54407 0.0
H2161 H 0.71809 0.58372 0.55929 0.0
H2162 H 0.68461 0.65404 0.51969 0.0
H2163 H 0.6834 0.57816 0.53497 0.0
H2164 H 0.64617 0.56726 0.47152 0.0
H2165 H 0.68127 0.58225 0.49209 0.0
H2166 H 0.63966 0.63836 0.5211 0.0
H2167 H 0.60449 0.62329 0.50085 0.0
C2168 C 0.7115 0.64202 0.54272 0.0
C2169 C 0.72176 0.62207 0.55333 0.0
C2170 C 0.69164 0.63875 0.52861 0.0
C2171 C 0.68204 0.61554 0.52496 0.0
C2172 C 0.69107 0.5961 0.53702 0.0
C2173 C 0.71068 0.59935 0.55115 0.0
C2174 C 0.6447 0.58326 0.48174 0.0
C2175 C 0.62257 0.5938 0.48493 0.0
C2176 C 0.66469 0.59176 0.49354 0.0
C2177 C 0.66281 0.61098 0.50854 0.0
C2178 C 0.6414 0.62342 0.5097 0.0
C2179 C 0.62134 0.61485 0.49796 0.0
H2180 H 0.17451 0.88593 0.55562 0.0
H2181 H 0.21091 0.95486 0.55435 0.0
H2182 H 0.13655 0.90625 0.55045 0.0
H2183 H 0.17289 0.97516 0.54914 0.0
H2184 H 0.10234 -0.00613 0.50984 0.0
H2185 H 0.14112 0.9764 0.51867 0.0
H2186 H 0.11056 0.93524 0.57032 0.0
H2187 H 0.07194 0.95257 0.56162 0.0
C2188 C 0.17438 0.90543 0.55443 0.0
C2189 C 0.19567 0.91878 0.55536 0.0
C2190 C 0.15266 0.91707 0.55156 0.0
C2191 C 0.1518 0.94228 0.54934 0.0
C2192 C 0.17307 0.95569 0.55061 0.0
C2193 C 0.19479 0.94407 0.55374 0.0
C2194 C 0.10397 0.98129 0.52322 0.0
C2195 C 0.08403 0.97452 0.53493 0.0
C2196 C 0.12617 0.97137 0.52832 0.0
C2197 C 0.12879 0.95434 0.54509 0.0
C2198 C 0.10899 0.94809 0.55715 0.0
C2199 C 0.0869 0.95814 0.55221 0.0
H2200 H 0.41009 0.90574 0.73586 0.0
H2201 H 0.34254 0.9405 0.72523 0.0
H2202 H 0.39007 0.86943 0.7473 0.0
H2203 H 0.3222 0.90347 0.73544 0.0
H2204 H 0.29319 0.84288 0.77644 0.0
H2205 H 0.3136 0.87968 0.76562 0.0
H2206 H 0.36761 0.83642 0.73606 0.0
H2207 H 0.34809 0.80008 0.74806 0.0
C2208 C 0.39088 0.90539 0.73541 0.0
C2209 C 0.37788 0.92596 0.72959 0.0
C2210 C 0.37933 0.88448 0.74196 0.0
C2211 C 0.35443 0.8834 0.7424 0.0
C2212 C 0.34139 0.90377 0.73581 0.0
C2213 C 0.35301 0.92491 0.72967 0.0
C2214 C 0.30964 0.84138 0.76795 0.0
C2215 C 0.31918 0.81865 0.76331 0.0
C2216 C 0.3212 0.86243 0.76147 0.0
C2217 C 0.34227 0.86113 0.74983 0.0
C2218 C 0.35175 0.83829 0.74537 0.0
C2219 C 0.3405 0.81736 0.75223 0.0
H2220 H 0.37698 0.10115 0.06313 0.0
H2221 H 0.33859 0.03388 0.06924 0.0
H2222 H 0.41394 0.07914 0.06055 0.0
H2223 H 0.37576 0.01165 0.06621 0.0
H2224 H 0.47843 0.03368 0.06471 0.0
H2225 H 0.4423 0.0492 0.08007 0.0
H2226 H 0.40043 0.01068 0.03027 0.0
H2227 H 0.43659 -0.00495 0.01472 0.0
C2228 C 0.37664 0.08166 0.06453 0.0
C2229 C 0.35514 0.06908 0.06619 0.0
C2230 C 0.39773 0.0691 0.06316 0.0
C2231 C 0.39749 0.04378 0.06303 0.0
C2232 C 0.3762 0.03121 0.06623 0.0
C2233 C 0.35509 0.04387 0.06807 0.0
C2234 C 0.46152 0.0283 0.05713 0.0
C2235 C 0.46028 0.0135 0.03827 0.0
C2236 C 0.44092 0.03707 0.06604 0.0
C2237 C 0.41877 0.03099 0.05637 0.0
C2238 C 0.41739 0.01529 0.03816 0.0
C2239 C 0.43804 0.00666 0.0291 0.0
H2240 H 0.64092 0.61914 0.7161 0.0
H2241 H 0.69786 0.57413 0.7407 0.0
H2242 H 0.66465 0.655 0.72519 0.0
H2243 H 0.72148 0.61018 0.75001 0.0
H2244 H 0.69965 0.71091 0.77211 0.0
H2245 H 0.67794 0.67462 0.76012 0.0
H2246 H 0.74186 0.64547 0.73386 0.0
H2247 H 0.76374 0.68172 0.74603 0.0
C2248 C 0.65856 0.61685 0.72327 0.0
C2249 C 0.6674 0.59373 0.72785 0.0
C2250 C 0.67209 0.63743 0.72861 0.0
C2251 C 0.69476 0.63538 0.73857 0.0
C2252 C 0.70407 0.61229 0.74227 0.0
C2253 C 0.6905 0.59165 0.73698 0.0
C2254 C 0.70912 0.69675 0.76385 0.0
C2255 C 0.73341 0.69918 0.76003 0.0
C2256 C 0.69663 0.67605 0.75682 0.0
C2257 C 0.70818 0.6573 0.74592 0.0
C2258 C 0.73254 0.65959 0.74233 0.0
C2259 C 0.74503 0.68037 0.74925 0.0
H2260 H 0.84322 0.40138 0.04145 0.0
H2261 H 0.82303 0.47626 0.03728 0.0
H2262 H 0.88346 0.41225 0.03158 0.0
H2263 H 0.86327 0.48724 0.02822 0.0
H2264 H 0.92587 0.49694 0.98646 0.0
H2265 H 0.88695 0.48298 -0.00304 0.0
H2266 H 0.91986 0.43289 0.04209 0.0
H2267 H 0.95887 0.44628 0.03095 0.0
C2268 C 0.84753 0.42023 0.03897 0.0
C2269 C 0.82993 0.43795 0.03994 0.0
C2270 C 0.87058 0.42646 0.03326 0.0
C2271 C 0.87647 0.45056 0.02862 0.0
C2272 C 0.85917 0.4684 0.03098 0.0
C2273 C 0.83615 0.46216 0.03642 0.0
C2274 C 0.9248 0.48269 -0.00163 0.0
C2275 C 0.94543 0.47281 0.00795 0.0
C2276 C 0.90249 0.47487 0.0046 0.0
C2277 C 0.90027 0.45719 0.02075 0.0
C2278 C 0.92091 0.4465 0.02959 0.0
C2279 C 0.94328 0.45417 0.02318 0.0
H2280 H 0.31907 0.05174 0.739 0.0
H2281 H 0.38334 0.09437 0.74793 0.0
H2282 H 0.29548 0.0885 0.74264 0.0
H2283 H 0.35986 0.13079 0.7512 0.0
H2284 H 0.31253 0.19164 0.72804 0.0
H2285 H 0.33137 0.15269 0.72294 0.0
H2286 H 0.28984 0.12248 0.77402 0.0
H2287 H 0.271 0.16166 0.77944 0.0
C2288 C 0.32812 0.06889 0.74182 0.0
C2289 C 0.35303 0.07023 0.74315 0.0
C2290 C 0.31465 0.08982 0.74391 0.0
C2291 C 0.32595 0.11237 0.74694 0.0
C2292 C 0.35079 0.11361 0.74858 0.0
C2293 C 0.36419 0.09275 0.74685 0.0
C2294 C 0.3071 0.17665 0.73798 0.0
C2295 C 0.29046 0.17978 0.75431 0.0
C2296 C 0.31796 0.15442 0.7351 0.0
C2297 C 0.31218 0.1348 0.74826 0.0
C2298 C 0.29453 0.13741 0.76368 0.0
C2299 C 0.28383 0.15981 0.76679 0.0
H2300 H 0.15691 0.91766 0.24826 0.0
H2301 H 0.2215 0.96029 0.24948 0.0
H2302 H 0.18022 0.88081 0.24981 0.0
H2303 H 0.24483 0.92325 0.25126 0.0
H2304 H 0.27143 0.84842 0.28059 0.0
H2305 H 0.25135 0.88734 0.27814 0.0
H2306 H 0.20849 0.86043 0.22312 0.0
H2307 H 0.22854 0.82174 0.22532 0.0
C2308 C 0.17607 0.91917 0.24905 0.0
C2309 C 0.18738 0.94185 0.2487 0.0
C2310 C 0.1894 0.89808 0.24977 0.0
C2311 C 0.2143 0.89923 0.25046 0.0
C2312 C 0.22565 0.9219 0.25076 0.0
C2313 C 0.2123 0.94304 0.2497 0.0
C2314 C 0.258 0.85096 0.26774 0.0
C2315 C 0.25149 0.83194 0.25323 0.0
C2316 C 0.24655 0.87322 0.26636 0.0
C2317 C 0.22819 0.8767 0.25064 0.0
C2318 C 0.22236 0.85805 0.23559 0.0
C2319 C 0.23399 0.83597 0.23678 0.0
H2320 H 0.50151 0.34687 0.43238 0.0
H2321 H 0.51483 0.3931 0.37753 0.0
H2322 H 0.50887 0.38082 0.45742 0.0
H2323 H 0.52181 0.42708 0.40265 0.0
H2324 H 0.55001 0.47976 0.4538 0.0
H2325 H 0.54954 0.44237 0.43223 0.0
H2326 H 0.48731 0.41823 0.46523 0.0
H2327 H 0.48793 0.45526 0.48696 0.0
C2328 C 0.50603 0.36425 0.42565 0.0
C2329 C 0.5074 0.36735 0.40294 0.0
C2330 C 0.51023 0.38366 0.44001 0.0
C2331 C 0.51592 0.40652 0.43196 0.0
C2332 C 0.51778 0.40954 0.40931 0.0
C2333 C 0.51354 0.39014 0.39493 0.0
C2334 C 0.5365 0.46627 0.45671 0.0
C2335 C 0.51885 0.47053 0.47188 0.0
C2336 C 0.53616 0.44498 0.44428 0.0
C2337 C 0.51825 0.42758 0.44692 0.0
C2338 C 0.50142 0.43127 0.46295 0.0
C2339 C 0.5017 0.45254 0.47531 0.0
H2340 H 0.4578 0.71905 0.22184 0.0
H2341 H 0.4421 0.76438 0.16626 0.0
H2342 H 0.41977 0.72894 0.23686 0.0
H2343 H 0.40374 0.77432 0.1815 0.0
H2344 H 0.32655 0.75933 0.20543 0.0
H2345 H 0.36515 0.75387 0.18934 0.0
H2346 H 0.39947 0.76394 0.25305 0.0
H2347 H 0.3609 0.76929 0.26921 0.0
C2348 C 0.44624 0.73113 0.21276 0.0
C2349 C 0.4531 0.74087 0.19276 0.0
C2350 C 0.42446 0.73696 0.22152 0.0
C2351 C 0.40876 0.75258 0.2105 0.0
C2352 C 0.41541 0.76217 0.19037 0.0
C2353 C 0.4374 0.7565 0.18166 0.0
C2354 C 0.34234 0.76068 0.21599 0.0
C2355 C 0.34057 0.76461 0.23867 0.0
C2356 C 0.36448 0.75764 0.20672 0.0
C2357 C 0.3854 0.75824 0.21992 0.0
C2358 C 0.38368 0.76302 0.24247 0.0
C2359 C 0.36156 0.76625 0.25171 0.0
H2360 H 0.98577 0.70511 0.85957 0.0
H2361 H 0.01777 0.7342 0.91967 0.0
H2362 H 0.978 0.66704 0.87777 0.0
H2363 H 0.01028 0.69606 0.9377 0.0
H2364 H 0.96651 0.63926 0.97009 0.0
H2365 H 0.97334 0.67566 0.94905 0.0
H2366 H -0.00207 0.63208 0.89553 0.0
H2367 H -0.00885 0.59568 0.91657 0.0
C2368 C -0.00842 0.70321 0.87652 0.0
C2369 C 0.00221 0.72269 0.88826 0.0
C2370 C 0.98709 0.68144 0.88693 0.0
C2371 C -0.0069 0.67883 0.90923 0.0
C2372 C 0.00493 0.69784 0.92061 0.0
C2373 C 0.00947 0.71956 0.91022 0.0
C2374 C 0.97307 0.63748 0.95372 0.0
C2375 C 0.97843 0.61471 0.94501 0.0
C2376 C 0.97714 0.65827 0.94176 0.0
C2377 C 0.98662 0.65665 0.92087 0.0
C2378 C 0.9906 0.63381 0.9116 0.0
C2379 C 0.98656 0.61299 0.92359 0.0
H2380 H 0.11041 0.24188 0.65156 0.0
H2381 H 0.0772 0.25867 0.71234 0.0
H2382 H 0.14889 0.24014 0.67088 0.0
H2383 H 0.11574 0.25769 0.7316 0.0
H2384 H 0.18473 0.23081 0.76344 0.0
H2385 H 0.14629 0.23106 0.74387 0.0
H2386 H 0.17855 0.26476 0.68879 0.0
H2387 H 0.21699 0.26381 0.70804 0.0
C2388 C 0.11135 0.24539 0.66903 0.0
C2389 C 0.0907 0.25041 0.68039 0.0
C2390 C 0.13346 0.24451 0.68013 0.0
C2391 C 0.13555 0.24876 0.70287 0.0
C2392 C 0.11485 0.25392 0.71418 0.0
C2393 C 0.09273 0.25468 0.70309 0.0
C2394 C 0.18363 0.23817 0.74711 0.0
C2395 C 0.204 0.24726 0.73734 0.0
C2396 C 0.16152 0.23848 0.73592 0.0
C2397 C 0.15918 0.248 0.7147 0.0
C2398 C 0.17963 0.25696 0.70493 0.0
C2399 C 0.20172 0.25654 0.71606 0.0
H2400 H 0.51273 0.68769 0.08765 0.0
H2401 H 0.53284 0.64012 0.14047 0.0
H2402 H 0.5117 0.65318 0.06214 0.0
H2403 H 0.53228 0.60613 0.11514 0.0
H2404 H 0.53527 0.58676 0.0203 0.0
H2405 H 0.53657 0.62276 0.04411 0.0
H2406 H 0.50357 0.58206 0.09478 0.0
H2407 H 0.50273 0.54636 0.07147 0.0
C2408 C 0.51699 0.66996 0.09383 0.0
C2409 C 0.52265 0.66675 0.11621 0.0
C2410 C 0.51655 0.65019 0.07917 0.0
C2411 C 0.52171 0.62677 0.08657 0.0
C2412 C 0.52773 0.62375 0.10887 0.0
C2413 C 0.52815 0.64338 0.12344 0.0
C2414 C 0.52834 0.58555 0.03654 0.0
C2415 C 0.51908 0.56356 0.04398 0.0
C2416 C 0.52895 0.60622 0.05014 0.0
C2417 C 0.52037 0.60532 0.07148 0.0
C2418 C 0.51079 0.58339 0.07866 0.0
C2419 C 0.5102 0.56286 0.06517 0.0
H2420 H 0.04001 0.78947 0.79654 0.0
H2421 H 0.06464 0.84303 0.84413 0.0
H2422 H 0.07851 0.79111 0.7793 0.0
H2423 H 0.10254 0.84551 0.82651 0.0
H2424 H 0.17362 0.80792 0.81776 0.0
H2425 H 0.13353 0.8162 0.82803 0.0
H2426 H 0.10982 0.81272 0.76008 0.0
H2427 H 0.15048 0.8044 0.74966 0.0
C2428 C 0.05339 0.80217 0.8028 0.0
C2429 C 0.04967 0.81578 0.82184 0.0
C2430 C 0.07539 0.80318 0.79293 0.0
C2431 C 0.09374 0.81806 0.80187 0.0
C2432 C 0.089 0.83338 0.81962 0.0
C2433 C 0.06728 0.83205 0.82965 0.0
C2434 C 0.16007 0.80956 0.80489 0.0
C2435 C 0.16532 0.80564 0.78287 0.0
C2436 C 0.13699 0.81432 0.81079 0.0
C2437 C 0.11847 0.81532 0.79485 0.0
C2438 C 0.1237 0.81193 0.77273 0.0
C2439 C 0.14694 0.80716 0.76679 0.0
H2440 H 0.02389 0.29725 0.57541 0.0
H2441 H 0.00255 0.33781 0.63202 0.0
H2442 H 0.02196 0.3339 0.55359 0.0
H2443 H -2e-05 0.37418 0.61019 0.0
H2444 H 0.02678 0.43912 0.57318 0.0
H2445 H 0.02621 0.40199 0.59376 0.0
H2446 H -0.00399 0.36388 0.53718 0.0
H2447 H -0.00283 0.40123 0.51623 0.0
C2448 C 0.01858 0.31393 0.58315 0.0
C2449 C 0.01355 0.31462 0.60551 0.0
C2450 C 0.01732 0.33494 0.5706 0.0
C2451 C 0.01095 0.35711 0.58011 0.0
C2452 C 0.00539 0.35758 0.60237 0.0
C2453 C 0.00674 0.33665 0.6149 0.0
C2454 C 0.01989 0.42289 0.56507 0.0
C2455 C 0.01197 0.42323 0.54301 0.0
C2456 C 0.01943 0.40154 0.57697 0.0
C2457 C 0.01095 0.37986 0.56723 0.0
C2458 C 0.00287 0.38017 0.54517 0.0
C2459 C 0.00337 0.40162 0.53319 0.0
H2460 H 0.43296 0.27721 0.31098 0.0
H2461 H 0.43117 0.29505 0.37989 0.0
H2462 H 0.40793 0.24224 0.31664 0.0
H2463 H 0.40662 0.25937 0.38577 0.0
H2464 H 0.32891 0.23141 0.36381 0.0
H2465 H 0.36614 0.24925 0.37641 0.0
H2466 H 0.40335 0.20246 0.33257 0.0
H2467 H 0.36566 0.18545 0.31906 0.0
C2468 C 0.42736 0.27355 0.32738 0.0
C2469 C 0.43395 0.28895 0.34494 0.0
C2470 C 0.41343 0.25314 0.33078 0.0
C2471 C 0.40572 0.2476 0.35183 0.0
C2472 C 0.41239 0.263 0.36942 0.0
C2473 C 0.42626 0.28354 0.36599 0.0
C2474 C 0.34507 0.22379 0.35776 0.0
C2475 C 0.34445 0.20864 0.33916 0.0
C2476 C 0.3666 0.23417 0.365 0.0
C2477 C 0.38743 0.22851 0.35416 0.0
C2478 C 0.38728 0.2081 0.34026 0.0
C2479 C 0.36568 0.19809 0.33274 0.0
H2480 H 0.40162 0.53871 0.33944 0.0
H2481 H 0.47293 0.51439 0.32865 0.0
H2482 H 0.41443 0.55452 0.37534 0.0
H2483 H 0.48555 0.52988 0.36461 0.0
H2484 H 0.50694 0.57031 0.42464 0.0
H2485 H 0.49153 0.56676 0.38703 0.0
H2486 H 0.42682 0.53495 0.40977 0.0
H2487 H 0.44199 0.53886 0.44741 0.0
C2488 C 0.42006 0.53687 0.34464 0.0
C2489 C 0.43624 0.52507 0.33129 0.0
C2490 C 0.42735 0.54592 0.3652 0.0
C2491 C 0.45095 0.54342 0.37275 0.0
C2492 C 0.4673 0.5324 0.35909 0.0
C2493 C 0.46003 0.52332 0.33856 0.0
C2494 C 0.48919 0.56308 0.42166 0.0
C2495 C 0.47582 0.55446 0.43892 0.0
C2496 C 0.48045 0.56095 0.40012 0.0
C2497 C 0.45819 0.55018 0.39548 0.0
C2498 C 0.44402 0.54341 0.41287 0.0
C2499 C 0.45275 0.54558 0.43443 0.0
H2500 H 0.27182 0.67437 0.04659 0.0
H2501 H 0.23462 0.61431 0.07475 0.0
H2502 H 0.26806 0.69738 0.08058 0.0
H2503 H 0.23037 0.63745 0.1083 0.0
H2504 H 0.23599 0.73949 0.13744 0.0
H2505 H 0.2385 0.71715 0.10286 0.0
H2506 H 0.25494 0.65222 0.13858 0.0
H2507 H 0.25227 0.67437 0.17288 0.0
C2508 C 0.26283 0.66609 0.05998 0.0
C2509 C 0.25367 0.64243 0.05798 0.0
C2510 C 0.26049 0.67935 0.07938 0.0
C2511 C 0.24893 0.66923 0.09714 0.0
C2512 C 0.2397 0.64564 0.09506 0.0
C2513 C 0.24209 0.63239 0.07576 0.0
C2514 C 0.24005 0.72042 0.13783 0.0
C2515 C 0.2437 0.70864 0.15787 0.0
C2516 C 0.24159 0.70767 0.11806 0.0
C2517 C 0.24688 0.68291 0.11798 0.0
C2518 C 0.25038 0.67116 0.13805 0.0
C2519 C 0.24878 0.68386 0.15774 0.0
H2520 H 0.12167 0.49144 0.86196 0.0
H2521 H 0.05516 0.49947 0.82581 0.0
H2522 H 0.10012 0.48215 0.89488 0.0
H2523 H 0.03369 0.48893 0.85808 0.0
H2524 H 0.00649 0.51015 0.92511 0.0
H2525 H 0.02543 0.50941 0.89036 0.0
H2526 H 0.07474 0.45596 0.91476 0.0
H2527 H 0.0561 0.45751 0.95028 0.0
C2528 C 0.10247 0.49082 0.861 0.0
C2529 C 0.09007 0.49673 0.84152 0.0
C2530 C 0.09009 0.48526 0.87977 0.0
C2531 C 0.0651 0.48508 0.87925 0.0
C2532 C 0.05288 0.48955 0.8593 0.0
C2533 C 0.06519 0.49559 0.84077 0.0
C2534 C 0.02107 0.49785 0.92301 0.0
C2535 C 0.02994 0.48408 0.94054 0.0
C2536 C 0.03191 0.4973 0.90293 0.0
C2537 C 0.05181 0.48276 0.89972 0.0
C2538 C 0.05972 0.46769 0.9168 0.0
C2539 C 0.04886 0.46833 0.93705 0.0
H2540 H 0.31594 0.35519 0.57348 0.0
H2541 H 0.2762 0.28813 0.57078 0.0
H2542 H 0.34239 0.33889 0.60186 0.0
H2543 H 0.30196 0.27213 0.59957 0.0
H2544 H 0.33465 0.24926 0.65816 0.0
H2545 H 0.3375 0.26055 0.61987 0.0
H2546 H 0.32859 0.33545 0.63829 0.0
H2547 H 0.32578 0.32422 0.67606 0.0
C2548 C 0.31324 0.33674 0.57859 0.0
C2549 C 0.29355 0.32317 0.57063 0.0
C2550 C 0.32845 0.32738 0.59475 0.0
C2551 C 0.32386 0.30454 0.60346 0.0
C2552 C 0.30606 0.28983 0.59331 0.0
C2553 C 0.29105 0.29908 0.57694 0.0
C2554 C 0.33413 0.26821 0.654 0.0
C2555 C 0.3291 0.28579 0.6699 0.0
C2556 C 0.33586 0.27466 0.63213 0.0
C2557 C 0.33248 0.29876 0.62594 0.0
C2558 C 0.33121 0.31667 0.64237 0.0
C2559 C 0.32949 0.31023 0.66418 0.0
H2560 H 0.36945 0.48224 0.19484 0.0
H2561 H 0.43656 0.51085 0.22036 0.0
H2562 H 0.38739 0.47412 0.15958 0.0
H2563 H 0.45434 0.50244 0.18561 0.0
H2564 H 0.4714 0.51152 0.1152 0.0
H2565 H 0.45056 0.51875 0.14862 0.0
H2566 H 0.41869 0.4476 0.14314 0.0
H2567 H 0.4397 0.44032 0.10923 0.0
C2568 C 0.38796 0.48679 0.19291 0.0
C2569 C 0.40157 0.49732 0.21028 0.0
C2570 C 0.39823 0.48199 0.17284 0.0
C2571 C 0.42219 0.48779 0.16986 0.0
C2572 C 0.43573 0.49815 0.18732 0.0
C2573 C 0.42554 0.50288 0.20726 0.0
C2574 C 0.46017 0.49727 0.12122 0.0
C2575 C 0.45761 0.47512 0.10993 0.0
C2576 C 0.44815 0.50147 0.14031 0.0
C2577 C 0.43329 0.48361 0.14863 0.0
C2578 C 0.43002 0.46169 0.13702 0.0
C2579 C 0.44208 0.45748 0.11774 0.0
H2580 H 0.26266 0.70575 0.94871 0.0
H2581 H 0.29532 0.64875 0.91189 0.0
H2582 H 0.26811 0.73343 0.91826 0.0
H2583 H 0.30074 0.67622 0.88174 0.0
H2584 H 0.251 0.7544 0.84329 0.0
H2585 H 0.25063 0.73572 0.87932 0.0
H2586 H 0.32314 0.7135 0.87238 0.0
H2587 H 0.3235 0.73187 0.83645 0.0
C2588 C 0.27125 0.69924 0.93425 0.0
C2589 C 0.27852 0.67508 0.93262 0.0
C2590 C 0.27427 0.71504 0.91684 0.0
C2591 C 0.28496 0.70702 0.89771 0.0
C2592 C 0.29279 0.68305 0.89641 0.0
C2593 C 0.28952 0.66724 0.91363 0.0
C2594 C 0.26706 0.74614 0.84975 0.0
C2595 C 0.28712 0.74419 0.8369 0.0
C2596 C 0.26686 0.73547 0.87038 0.0
C2597 C 0.28672 0.72276 0.87841 0.0
C2598 C 0.30743 0.72276 0.86637 0.0
C2599 C 0.30763 0.73336 0.84583 0.0
H2600 H 0.09686 0.52526 0.73489 0.0
H2601 H 0.15032 0.48258 0.70438 0.0
H2602 H 0.08094 0.53679 0.69935 0.0
H2603 H 0.13305 0.49213 0.66844 0.0
H2604 H 0.1069 0.52174 0.60514 0.0
H2605 H 0.12644 0.51932 0.64096 0.0
H2606 H 0.05815 0.52262 0.6709 0.0
H2607 H 0.03909 0.52794 0.63542 0.0
C2608 C 0.10498 0.51804 0.72049 0.0
C2609 C 0.12469 0.5029 0.72232 0.0
C2610 C 0.09574 0.52451 0.7 0.0
C2611 C 0.1054 0.51522 0.68079 0.0
C2612 C 0.1253 0.50008 0.68273 0.0
C2613 C 0.13507 0.4943 0.70331 0.0
C2614 C 0.09611 0.52284 0.6194 0.0
C2615 C 0.07129 0.52474 0.61726 0.0
C2616 C 0.10732 0.52089 0.64002 0.0
C2617 C 0.09397 0.52024 0.659 0.0
C2618 C 0.06925 0.52325 0.65685 0.0
C2619 C 0.05815 0.52587 0.63632 0.0
H2620 H 0.19732 0.30487 0.48823 0.0
H2621 H 0.19639 0.36766 0.44715 0.0
H2622 H 0.19287 0.27875 0.45599 0.0
H2623 H 0.19341 0.34164 0.41472 0.0
H2624 H 0.19122 0.2926 0.35794 0.0
H2625 H 0.17568 0.31219 0.39039 0.0
H2626 H 0.22219 0.26886 0.43132 0.0
H2627 H 0.23712 0.24926 0.39925 0.0
C2628 C 0.19586 0.31303 0.47223 0.0
C2629 C 0.19768 0.33814 0.46999 0.0
C2630 C 0.19337 0.29812 0.45378 0.0
C2631 C 0.19341 0.30802 0.43273 0.0
C2632 C 0.19319 0.33333 0.43064 0.0
C2633 C 0.19509 0.34829 0.44919 0.0
C2634 C 0.19758 0.28691 0.37397 0.0
C2635 C 0.21558 0.26964 0.37609 0.0
C2636 C 0.18876 0.29815 0.39252 0.0
C2637 C 0.19791 0.2924 0.41347 0.0
C2638 C 0.21442 0.27361 0.41554 0.0
C2639 C 0.22308 0.26231 0.39706 0.0
H2640 H 0.26689 0.46163 0.50349 0.0
H2641 H 0.30287 0.39548 0.52052 0.0
H2642 H 0.30507 0.48289 0.50395 0.0
H2643 H 0.34055 0.41675 0.52162 0.0
H2644 H 0.37362 0.51654 0.53574 0.0
H2645 H 0.33514 0.49595 0.53158 0.0
H2646 H 0.36844 0.43624 0.4989 0.0
H2647 H 0.4067 0.45654 0.50344 0.0
C2648 C 0.28291 0.45159 0.50709 0.0
C2649 C 0.28184 0.4269 0.51202 0.0
C2650 C 0.30471 0.46381 0.50758 0.0
C2651 C 0.32576 0.45152 0.51298 0.0
C2652 C 0.32469 0.42669 0.51716 0.0
C2653 C 0.30302 0.41451 0.51661 0.0
C2654 C 0.3726 0.49899 0.52773 0.0
C2655 C 0.3931 0.48794 0.5202 0.0
C2656 C 0.35062 0.4873 0.52519 0.0
C2657 C 0.34879 0.46448 0.51491 0.0
C2658 C 0.36933 0.45362 0.50721 0.0
C2659 C 0.39125 0.46519 0.5099 0.0
H2660 H 0.8248 0.04397 0.52755 0.0
H2661 H 0.83709 0.08487 0.46931 0.0
H2662 H 0.86419 0.02714 0.52604 0.0
H2663 H 0.8763 0.06695 0.46697 0.0
H2664 H 0.95474 0.05053 0.48474 0.0
H2665 H 0.91471 0.06674 0.48257 0.0
H2666 H 0.88747 -0.00018 0.50802 0.0
H2667 H 0.92762 0.98443 0.51141 0.0
C2668 C 0.83586 0.04912 0.51422 0.0
C2669 C 0.82783 0.06574 0.49855 0.0
C2670 C 0.85846 0.03927 0.5132 0.0
C2671 C 0.87352 0.04537 0.49621 0.0
C2672 C 0.8654 0.06199 0.48045 0.0
C2673 C 0.84287 0.07221 0.48171 0.0
C2674 C 0.94009 0.03924 0.48958 0.0
C2675 C 0.94426 0.01633 0.49843 0.0
C2676 C 0.91709 0.04848 0.4883 0.0
C2677 C 0.89773 0.0348 0.49546 0.0
C2678 C 0.90192 0.01126 0.50301 0.0
C2679 C 0.92492 0.00227 0.50475 0.0
H2680 H 0.71366 0.06488 0.30106 0.0
H2681 H 0.65266 0.10401 0.27624 0.0
H2682 H 0.7382 0.10126 0.29751 0.0
H2683 H 0.67704 0.13957 0.27206 0.0
H2684 H 0.71966 0.20643 0.28658 0.0
H2685 H 0.69732 0.16987 0.29317 0.0
H2686 H 0.75482 0.12699 0.26943 0.0
H2687 H 0.77779 0.16393 0.26354 0.0
C2688 C 0.70546 0.08119 0.29498 0.0
C2689 C 0.68116 0.0815 0.28902 0.0
C2690 C 0.71955 0.10195 0.29275 0.0
C2691 C 0.70958 0.12335 0.28453 0.0
C2692 C 0.68526 0.12359 0.27882 0.0
C2693 C 0.67126 0.10305 0.28113 0.0
C2694 C 0.72759 0.18925 0.28263 0.0
C2695 C 0.75043 0.18811 0.27429 0.0
C2696 C 0.71472 0.16824 0.2864 0.0
C2697 C 0.72418 0.14548 0.28167 0.0
C2698 C 0.74712 0.14424 0.27345 0.0
C2699 C 0.76017 0.16538 0.26985 0.0
H2700 H 0.66733 0.85186 0.00977 0.0
H2701 H 0.66268 0.89107 0.07088 0.0
H2702 H 0.63629 0.87703 -0.00655 0.0
H2703 H 0.63133 0.91583 0.05476 0.0
H2704 H 0.61178 0.97862 0.015 0.0
H2705 H 0.63951 0.94718 0.02575 0.0
H2706 H 0.59349 0.89323 -0.00528 0.0
H2707 H 0.56577 0.92476 0.98359 0.0
C2708 C 0.65871 0.8649 0.02008 0.0
C2709 C 0.66741 0.86973 0.04155 0.0
C2710 C 0.64121 0.87952 0.01062 0.0
C2711 C 0.63222 0.89887 0.02265 0.0
C2712 C 0.63864 0.90146 0.04497 0.0
C2713 C 0.65617 0.88701 0.05434 0.0
C2714 C 0.60801 0.96019 0.00973 0.0
C2715 C 0.58646 0.95408 -0.00115 0.0
C2716 C 0.62365 0.94217 0.01619 0.0
C2717 C 0.61799 0.91778 0.01186 0.0
C2718 C 0.59797 0.9119 -0.00144 0.0
C2719 C 0.58228 0.93001 -0.008 0.0
H2720 H 0.41214 0.41046 0.30082 0.0
H2721 H 0.33871 0.43191 0.29656 0.0
H2722 H 0.40007 0.36987 0.31069 0.0
H2723 H 0.32656 0.39102 0.30572 0.0
H2724 H 0.36651 0.29632 0.28911 0.0
H2725 H 0.38201 0.33731 0.2902 0.0
H2726 H 0.32565 0.35894 0.33208 0.0
H2727 H 0.30966 0.31783 0.33047 0.0
C2728 C 0.3934 0.40652 0.30209 0.0
C2729 C 0.37633 0.42428 0.29759 0.0
C2730 C 0.3865 0.38324 0.30771 0.0
C2731 C 0.36236 0.37709 0.30872 0.0
C2732 C 0.34533 0.39519 0.30531 0.0
C2733 C 0.35226 0.4186 0.2999 0.0
C2734 C 0.35764 0.30969 0.29888 0.0
C2735 C 0.33665 0.30392 0.30941 0.0
C2736 C 0.36662 0.33322 0.29963 0.0
C2737 C 0.35489 0.3515 0.31102 0.0
C2738 C 0.33482 0.34535 0.32282 0.0
C2739 C 0.32579 0.32177 0.32204 0.0
H2740 H 0.20114 0.55797 0.97074 0.0
H2741 H 0.17453 0.62885 0.98609 0.0
H2742 H 0.16228 0.54041 0.97734 0.0
H2743 H 0.13595 0.61125 -0.00668 0.0
H2744 H 0.09971 0.51406 0.01574 0.0
H2745 H 0.13783 0.53259 0.00812 0.0
H2746 H 0.10175 0.5918 0.97635 0.0
H2747 H 0.06367 0.57366 0.98452 0.0
C2748 C 0.18695 0.56981 0.9754 0.0
C2749 C 0.1909 0.59477 0.97795 0.0
C2750 C 0.16476 0.55973 0.9794 0.0
C2751 C 0.14608 0.57439 0.9861 0.0
C2752 C 0.14988 0.59946 0.98801 0.0
C2753 C 0.17203 0.60954 0.98392 0.0
C2754 C 0.09992 0.53115 0.00732 0.0
C2755 C 0.07867 0.5424 0.00076 0.0
C2756 C 0.12177 0.54165 0.00275 0.0
C2757 C 0.12284 0.56356 0.99143 0.0
C2758 C 0.10157 0.57503 0.98527 0.0
C2759 C 0.07973 0.5646 0.98993 0.0
H2760 H 0.6691 0.91279 0.31367 0.0
H2761 H 0.73234 0.95072 0.2949 0.0
H2762 H 0.6902 0.87475 0.31247 0.0
H2763 H 0.7536 0.91248 0.29389 0.0
H2764 H 0.76594 0.83656 0.2614 0.0
H2765 H 0.75061 0.8767 0.26899 0.0
H2766 H 0.72258 0.85119 0.32941 0.0
H2767 H 0.73764 0.81098 0.32176 0.0
C2768 C 0.68764 0.91305 0.30967 0.0
C2769 C 0.69901 0.93473 0.30423 0.0
C2770 C 0.69978 0.89125 0.3091 0.0
C2771 C 0.72353 0.89061 0.30297 0.0
C2772 C 0.73523 0.91241 0.29844 0.0
C2773 C 0.7231 0.9343 0.29916 0.0
C2774 C 0.75674 0.83957 0.27643 0.0
C2775 C 0.75277 0.82051 0.29085 0.0
C2776 C 0.74811 0.86262 0.28085 0.0
C2777 C 0.73528 0.86705 0.29975 0.0
C2778 C 0.73215 0.84823 0.31459 0.0
C2779 C 0.74083 0.82521 0.31021 0.0
H2780 H 0.8138 0.06773 0.77723 0.0
H2781 H 0.88022 0.10647 0.78752 0.0
H2782 H 0.79248 0.10599 0.77856 0.0
H2783 H 0.85902 0.14441 0.78871 0.0
H2784 H 0.81418 0.20692 0.80794 0.0
H2785 H 0.83081 0.16663 0.81173 0.0
H2786 H 0.78967 0.14239 0.75459 0.0
H2787 H 0.77284 0.18253 0.75086 0.0
C2788 C 0.82381 0.08436 0.77985 0.0
C2789 C 0.84866 0.08414 0.78217 0.0
C2790 C 0.81163 0.10621 0.78057 0.0
C2791 C 0.82411 0.12811 0.78386 0.0
C2792 C 0.84891 0.12778 0.78651 0.0
C2793 C 0.86105 0.10605 0.78562 0.0
C2794 C 0.80843 0.19292 0.79637 0.0
C2795 C 0.79242 0.19796 0.77895 0.0
C2796 C 0.81802 0.1699 0.7985 0.0
C2797 C 0.81167 0.15149 0.78334 0.0
C2798 C 0.79475 0.1562 0.76659 0.0
C2799 C 0.78525 0.17924 0.76439 0.0
loop_
_geom_bond_atom_site_label_1
_geom_bond_atom_site_label_2
_geom_bond_distance
_geom_bond_site_symmetry_2
_ccdc_geom_bond_type
C0 O1 1.306 . S
C0 O3 1.160 . S
O1 C0 1.306 . S
O1 Cd2 2.228 . S
Cd2 O1 2.228 . S
Cd2 O6 2.273 . S
Cd2 O10 2.277 . S
O3 C0 1.160 . S
O3 Cd4 2.203 . S
Cd4 O3 2.203 . S
Cd4 O6 2.411 . S
Cd4 O7 2.333 . S
Cd4 O8 2.352 . S
Cd4 O12 2.277 . S
Cd4 O13 2.356 . S
C5 O10 1.209 . S
C5 O12 1.226 . S
O6 Cd2 2.273 . S
O6 Cd4 2.411 . S
O6 C9 1.320 . S
O7 Cd4 2.333 . S
O7 C9 1.214 . S
O8 Cd4 2.352 . S
O8 C11 1.258 . S
C9 O6 1.320 . S
C9 O7 1.214 . S
O10 Cd2 2.277 . S
O10 C5 1.209 . S
C11 O8 1.258 . S
C11 O13 1.282 . S
O12 Cd4 2.277 . S
O12 C5 1.226 . S
O13 Cd4 2.356 . S
O13 C11 1.282 . S
C14 O15 1.287 1_655 S
C14 O17 1.160 . S
O15 C14 1.287 1_455 S
O15 Cd16 2.256 . S
Cd16 O15 2.256 . S
Cd16 O20 2.273 . S
Cd16 O24 2.277 . S
O17 C14 1.160 . S
O17 Cd18 2.203 1_655 S
Cd18 O17 2.203 1_455 S
Cd18 O20 2.411 . S
Cd18 O21 2.333 . S
Cd18 O22 2.352 . S
Cd18 O26 2.277 . S
Cd18 O27 2.356 . S
C19 O24 1.209 . S
C19 O26 1.226 . S
O20 Cd16 2.273 . S
O20 Cd18 2.411 . S
O20 C23 1.320 . S
O21 Cd18 2.333 . S
O21 C23 1.214 . S
O22 Cd18 2.352 . S
O22 C25 1.258 . S
C23 O20 1.320 . S
C23 O21 1.214 . S
O24 Cd16 2.277 . S
O24 C19 1.209 . S
C25 O22 1.258 . S
C25 O27 1.282 . S
O26 Cd18 2.277 . S
O26 C19 1.226 . S
O27 Cd18 2.356 . S
O27 C25 1.282 . S
C28 O29 1.306 . S
C28 O31 1.160 . S
O29 C28 1.306 . S
O29 Cd30 2.228 . S
Cd30 O29 2.228 . S
Cd30 O34 2.273 . S
Cd30 O38 2.277 . S
O31 C28 1.160 . S
O31 Cd32 2.203 . S
Cd32 O31 2.203 . S
Cd32 O34 2.411 . S
Cd32 O35 2.333 . S
Cd32 O36 2.352 . S
Cd32 O40 2.277 . S
Cd32 O41 2.356 . S
C33 O38 1.209 . S
C33 O40 1.226 . S
O34 Cd30 2.273 . S
O34 Cd32 2.411 . S
O34 C37 1.320 . S
O35 Cd32 2.333 . S
O35 C37 1.214 . S
O36 Cd32 2.352 . S
O36 C39 1.258 . S
C37 O34 1.320 . S
C37 O35 1.214 . S
O38 Cd30 2.277 . S
O38 C33 1.209 . S
C39 O36 1.258 . S
C39 O41 1.282 . S
O40 Cd32 2.277 . S
O40 C33 1.226 . S
O41 Cd32 2.356 . S
O41 C39 1.282 . S
C42 O43 1.306 . S
C42 O45 1.160 . S
O43 C42 1.306 . S
O43 Cd44 2.228 . S
Cd44 O43 2.228 . S
Cd44 O48 2.273 . S
Cd44 O52 2.277 . S
O45 C42 1.160 . S
O45 Cd46 2.203 . S
Cd46 O45 2.203 . S
Cd46 O48 2.411 . S
Cd46 O49 2.333 . S
Cd46 O50 2.352 . S
Cd46 O54 2.277 . S
Cd46 O55 2.356 . S
C47 O52 1.209 . S
C47 O54 1.226 . S
O48 Cd44 2.273 . S
O48 Cd46 2.411 . S
O48 C51 1.320 . S
O49 Cd46 2.333 . S
O49 C51 1.214 . S
O50 Cd46 2.352 . S
O50 C53 1.258 . S
C51 O48 1.320 . S
C51 O49 1.214 . S
O52 Cd44 2.277 . S
O52 C47 1.209 . S
C53 O50 1.258 . S
C53 O55 1.282 . S
O54 Cd46 2.277 . S
O54 C47 1.226 . S
O55 Cd46 2.356 . S
O55 C53 1.282 . S
C56 O57 1.306 . S
C56 O59 1.160 . S
O57 C56 1.306 . S
O57 Cd58 2.228 . S
Cd58 O57 2.228 . S
Cd58 O62 2.273 . S
Cd58 O66 2.277 . S
O59 C56 1.160 . S
O59 Cd60 2.203 . S
Cd60 O59 2.203 . S
Cd60 O62 2.411 . S
Cd60 O63 2.333 . S
Cd60 O64 2.352 1_545 S
Cd60 O68 2.277 . S
Cd60 O69 2.356 1_545 S
C61 O66 1.209 . S
C61 O68 1.226 . S
O62 Cd58 2.273 . S
O62 Cd60 2.411 . S
O62 C65 1.320 . S
O63 Cd60 2.333 . S
O63 C65 1.214 . S
O64 Cd60 2.352 1_565 S
O64 C67 1.258 . S
C65 O62 1.320 . S
C65 O63 1.214 . S
O66 Cd58 2.277 . S
O66 C61 1.209 . S
C67 O64 1.258 . S
C67 O69 1.282 . S
O68 Cd60 2.277 . S
O68 C61 1.226 . S
O69 Cd60 2.356 1_565 S
O69 C67 1.282 . S
C70 O71 1.306 . S
C70 O73 1.160 . S
O71 C70 1.306 . S
O71 Cd72 2.228 . S
Cd72 O71 2.228 . S
Cd72 O76 2.273 . S
Cd72 O80 2.277 . S
O73 C70 1.160 . S
O73 Cd74 2.203 . S
Cd74 O73 2.203 . S
Cd74 O76 2.411 . S
Cd74 O77 2.333 . S
Cd74 O78 2.352 . S
Cd74 O82 2.277 . S
Cd74 O83 2.356 . S
C75 O80 1.209 . S
C75 O82 1.226 . S
O76 Cd72 2.273 . S
O76 Cd74 2.411 . S
O76 C79 1.320 . S
O77 Cd74 2.333 . S
O77 C79 1.214 . S
O78 Cd74 2.352 . S
O78 C81 1.258 . S
C79 O76 1.320 . S
C79 O77 1.214 . S
O80 Cd72 2.277 . S
O80 C75 1.209 . S
C81 O78 1.258 . S
C81 O83 1.282 . S
O82 Cd74 2.277 . S
O82 C75 1.226 . S
O83 Cd74 2.356 . S
O83 C81 1.282 . S
C84 O85 1.306 1_545 S
C84 O87 1.160 . S
O85 C84 1.306 1_565 S
O85 Cd86 2.228 . S
Cd86 O85 2.228 . S
Cd86 O90 2.273 1_565 S
Cd86 O94 2.277 . S
O87 C84 1.160 . S
O87 Cd88 2.203 . S
Cd88 O87 2.203 . S
Cd88 O90 2.411 . S
Cd88 O91 2.333 . S
Cd88 O92 2.352 . S
Cd88 O96 2.277 1_545 S
Cd88 O97 2.356 . S
C89 O94 1.209 . S
C89 O96 1.226 . S
O90 Cd86 2.273 1_545 S
O90 Cd88 2.411 . S
O90 C93 1.320 . S
O91 Cd88 2.333 . S
O91 C93 1.214 . S
O92 Cd88 2.352 . S
O92 C95 1.258 . S
C93 O90 1.320 . S
C93 O91 1.214 . S
O94 Cd86 2.277 . S
O94 C89 1.209 . S
C95 O92 1.258 . S
C95 O97 1.282 . S
O96 Cd88 2.277 1_565 S
O96 C89 1.226 . S
O97 Cd88 2.356 . S
O97 C95 1.282 . S
C98 O99 1.306 . S
C98 O101 1.160 . S
O99 C98 1.306 . S
O99 Cd100 2.228 . S
Cd100 O99 2.228 . S
Cd100 O104 2.273 . S
Cd100 O108 2.277 . S
O101 C98 1.160 . S
O101 Cd102 2.203 . S
Cd102 O101 2.203 . S
Cd102 O104 2.411 . S
Cd102 O105 2.333 . S
Cd102 O106 2.352 1_554 S
Cd102 O110 2.277 . S
Cd102 O111 2.356 1_554 S
C103 O108 1.209 . S
C103 O110 1.226 . S
O104 Cd100 2.273 . S
O104 Cd102 2.411 . S
O104 C107 1.320 . S
O105 Cd102 2.333 . S
O105 C107 1.214 . S
O106 Cd102 2.352 1_556 S
O106 C109 1.258 . S
C107 O104 1.320 . S
C107 O105 1.214 . S
O108 Cd100 2.277 . S
O108 C103 1.209 . S
C109 O106 1.258 . S
C109 O111 1.282 . S
O110 Cd102 2.277 . S
O110 C103 1.226 . S
O111 Cd102 2.356 1_556 S
O111 C109 1.282 . S
C112 O113 1.306 . S
C112 O115 1.160 . S
O113 C112 1.306 . S
O113 Cd114 2.228 . S
Cd114 O113 2.228 . S
Cd114 O118 2.273 . S
Cd114 O122 2.277 . S
O115 C112 1.160 . S
O115 Cd116 2.203 . S
Cd116 O115 2.203 . S
Cd116 O118 2.411 . S
Cd116 O119 2.333 . S
Cd116 O120 2.352 . S
Cd116 O124 2.277 . S
Cd116 O125 2.356 . S
C117 O122 1.209 . S
C117 O124 1.226 . S
O118 Cd114 2.273 . S
O118 Cd116 2.411 . S
O118 C121 1.320 . S
O119 Cd116 2.333 . S
O119 C121 1.214 . S
O120 Cd116 2.352 . S
O120 C123 1.258 . S
C121 O118 1.320 . S
C121 O119 1.214 . S
O122 Cd114 2.277 . S
O122 C117 1.209 . S
C123 O120 1.258 . S
C123 O125 1.282 . S
O124 Cd116 2.277 . S
O124 C117 1.226 . S
O125 Cd116 2.356 . S
O125 C123 1.282 . S
C126 O127 1.306 . S
C126 O129 1.160 . S
O127 C126 1.306 . S
O127 Cd128 2.228 . S
Cd128 O127 2.228 . S
Cd128 O132 2.273 . S
Cd128 O136 2.277 . S
O129 C126 1.160 . S
O129 Cd130 2.203 . S
Cd130 O129 2.203 . S
Cd130 O132 2.411 . S
Cd130 O133 2.333 . S
Cd130 O134 2.352 . S
Cd130 O138 2.277 . S
Cd130 O139 2.356 . S
C131 O136 1.209 . S
C131 O138 1.226 . S
O132 Cd128 2.273 . S
O132 Cd130 2.411 . S
O132 C135 1.320 . S
O133 Cd130 2.333 . S
O133 C135 1.214 . S
O134 Cd130 2.352 . S
O134 C137 1.258 . S
C135 O132 1.320 . S
C135 O133 1.214 . S
O136 Cd128 2.277 . S
O136 C131 1.209 . S
C137 O134 1.258 . S
C137 O139 1.282 . S
O138 Cd130 2.277 . S
O138 C131 1.226 . S
O139 Cd130 2.356 . S
O139 C137 1.282 . S
C140 O141 1.306 . S
C140 O143 1.160 . S
O141 C140 1.306 . S
O141 Cd142 2.228 . S
Cd142 O141 2.228 . S
Cd142 O146 2.273 . S
Cd142 O150 2.277 . S
O143 C140 1.160 . S
O143 Cd144 2.203 . S
Cd144 O143 2.203 . S
Cd144 O146 2.411 . S
Cd144 O147 2.333 . S
Cd144 O148 2.352 . S
Cd144 O152 2.277 . S
Cd144 O153 2.356 . S
C145 O150 1.209 . S
C145 O152 1.226 . S
O146 Cd142 2.273 . S
O146 Cd144 2.411 . S
O146 C149 1.320 . S
O147 Cd144 2.333 . S
O147 C149 1.214 . S
O148 Cd144 2.352 . S
O148 C151 1.258 . S
C149 O146 1.320 . S
C149 O147 1.214 . S
O150 Cd142 2.277 . S
O150 C145 1.209 . S
C151 O148 1.258 . S
C151 O153 1.282 . S
O152 Cd144 2.277 . S
O152 C145 1.226 . S
O153 Cd144 2.356 . S
O153 C151 1.282 . S
C154 O155 1.306 . S
C154 O157 1.160 . S
O155 C154 1.306 . S
O155 Cd156 2.228 . S
Cd156 O155 2.228 . S
Cd156 O160 2.273 . S
Cd156 O164 2.277 . S
O157 C154 1.160 . S
O157 Cd158 2.203 . S
Cd158 O157 2.203 . S
Cd158 O160 2.411 . S
Cd158 O161 2.333 . S
Cd158 O162 2.352 . S
Cd158 O166 2.277 . S
Cd158 O167 2.356 . S
C159 O164 1.209 . S
C159 O166 1.226 . S
O160 Cd156 2.273 . S
O160 Cd158 2.411 . S
O160 C163 1.320 . S
O161 Cd158 2.333 . S
O161 C163 1.214 . S
O162 Cd158 2.352 . S
O162 C165 1.258 . S
C163 O160 1.320 . S
C163 O161 1.214 . S
O164 Cd156 2.277 . S
O164 C159 1.209 . S
C165 O162 1.258 . S
C165 O167 1.282 . S
O166 Cd158 2.277 . S
O166 C159 1.226 . S
O167 Cd158 2.356 . S
O167 C165 1.282 . S
C168 O169 1.306 . S
C168 O171 1.160 . S
O169 C168 1.306 . S
O169 Cd170 2.228 1_655 S
Cd170 O169 2.228 1_455 S
Cd170 O174 2.273 . S
Cd170 O178 2.277 . S
O171 C168 1.160 . S
O171 Cd172 2.203 1_655 S
Cd172 O171 2.203 1_455 S
Cd172 O174 2.411 . S
Cd172 O175 2.333 . S
Cd172 O176 2.350 1_455 S
Cd172 O180 2.277 1_455 S
Cd172 O181 2.356 . S
C173 O178 1.215 . S
C173 O180 1.224 1_455 S
O174 Cd170 2.273 . S
O174 Cd172 2.411 . S
O174 C177 1.320 . S
O175 Cd172 2.333 . S
O175 C177 1.214 . S
O176 Cd172 2.350 1_655 S
O176 C179 1.255 1_655 S
C177 O174 1.320 . S
C177 O175 1.214 . S
O178 Cd170 2.277 . S
O178 C173 1.215 . S
C179 O176 1.255 1_455 S
C179 O181 1.282 . S
O180 Cd172 2.277 1_655 S
O180 C173 1.224 1_655 S
O181 Cd172 2.356 . S
O181 C179 1.282 . S
C182 O183 1.306 1_655 S
C182 O185 1.160 . S
O183 C182 1.306 1_455 S
O183 Cd184 2.228 . S
Cd184 O183 2.228 . S
Cd184 O188 2.273 . S
Cd184 O192 2.277 . S
O185 C182 1.160 . S
O185 Cd186 2.203 1_655 S
Cd186 O185 2.203 1_455 S
Cd186 O188 2.411 . S
Cd186 O189 2.333 . S
Cd186 O190 2.352 . S
Cd186 O194 2.277 . S
Cd186 O195 2.356 . S
C187 O192 1.209 . S
C187 O194 1.226 . S
O188 Cd184 2.273 . S
O188 Cd186 2.411 . S
O188 C191 1.320 . S
O189 Cd186 2.333 . S
O189 C191 1.214 . S
O190 Cd186 2.352 . S
O190 C193 1.258 . S
C191 O188 1.320 . S
C191 O189 1.214 . S
O192 Cd184 2.277 . S
O192 C187 1.209 . S
C193 O190 1.258 . S
C193 O195 1.282 . S
O194 Cd186 2.277 . S
O194 C187 1.226 . S
O195 Cd186 2.356 . S
O195 C193 1.282 . S
C196 O197 1.306 . S
C196 O199 1.160 . S
O197 C196 1.306 . S
O197 Cd198 2.228 . S
Cd198 O197 2.228 . S
Cd198 O202 2.273 . S
Cd198 O206 2.277 . S
O199 C196 1.160 . S
O199 Cd200 2.203 . S
Cd200 O199 2.203 . S
Cd200 O202 2.411 . S
Cd200 O203 2.333 . S
Cd200 O204 2.352 . S
Cd200 O208 2.277 . S
Cd200 O209 2.356 . S
C201 O206 1.209 . S
C201 O208 1.226 . S
O202 Cd198 2.273 . S
O202 Cd200 2.411 . S
O202 C205 1.320 . S
O203 Cd200 2.333 . S
O203 C205 1.214 . S
O204 Cd200 2.352 . S
O204 C207 1.258 . S
C205 O202 1.320 . S
C205 O203 1.214 . S
O206 Cd198 2.277 . S
O206 C201 1.209 . S
C207 O204 1.258 . S
C207 O209 1.282 . S
O208 Cd200 2.277 . S
O208 C201 1.226 . S
O209 Cd200 2.356 . S
O209 C207 1.282 . S
C210 O211 1.306 . S
C210 O213 1.160 . S
O211 C210 1.306 . S
O211 Cd212 2.228 . S
Cd212 O211 2.228 . S
Cd212 O216 2.273 . S
Cd212 O220 2.277 . S
O213 C210 1.160 . S
O213 Cd214 2.203 . S
Cd214 O213 2.203 . S
Cd214 O216 2.411 . S
Cd214 O217 2.333 . S
Cd214 O218 2.352 . S
Cd214 O222 2.277 . S
Cd214 O223 2.356 . S
C215 O220 1.209 . S
C215 O222 1.226 . S
O216 Cd212 2.273 . S
O216 Cd214 2.411 . S
O216 C219 1.320 . S
O217 Cd214 2.333 . S
O217 C219 1.214 . S
O218 Cd214 2.352 . S
O218 C221 1.258 . S
C219 O216 1.320 . S
C219 O217 1.214 . S
O220 Cd212 2.277 . S
O220 C215 1.209 . S
C221 O218 1.258 . S
C221 O223 1.282 . S
O222 Cd214 2.277 . S
O222 C215 1.226 . S
O223 Cd214 2.356 . S
O223 C221 1.282 . S
C224 O225 1.306 1_545 S
C224 O227 1.160 . S
O225 C224 1.306 1_565 S
O225 Cd226 2.228 . S
Cd226 O225 2.228 . S
Cd226 O230 2.273 1_565 S
Cd226 O234 2.277 . S
O227 C224 1.160 . S
O227 Cd228 2.203 . S
Cd228 O227 2.203 . S
Cd228 O230 2.411 . S
Cd228 O231 2.333 . S
Cd228 O232 2.352 . S
Cd228 O236 2.277 1_545 S
Cd228 O237 2.356 . S
C229 O234 1.209 . S
C229 O236 1.226 . S
O230 Cd226 2.273 1_545 S
O230 Cd228 2.411 . S
O230 C233 1.320 . S
O231 Cd228 2.333 . S
O231 C233 1.214 . S
O232 Cd228 2.352 . S
O232 C235 1.258 . S
C233 O230 1.320 . S
C233 O231 1.214 . S
O234 Cd226 2.277 . S
O234 C229 1.209 . S
C235 O232 1.258 . S
C235 O237 1.282 . S
O236 Cd228 2.277 1_565 S
O236 C229 1.226 . S
O237 Cd228 2.356 . S
O237 C235 1.282 . S
C238 O239 1.306 . S
C238 O241 1.160 . S
O239 C238 1.306 . S
O239 Cd240 2.228 . S
Cd240 O239 2.228 . S
Cd240 O244 2.273 . S
Cd240 O248 2.277 . S
O241 C238 1.160 . S
O241 Cd242 2.203 . S
Cd242 O241 2.203 . S
Cd242 O244 2.411 . S
Cd242 O245 2.333 . S
Cd242 O246 2.352 . S
Cd242 O250 2.277 . S
Cd242 O251 2.356 . S
C243 O248 1.209 . S
C243 O250 1.226 . S
O244 Cd240 2.273 . S
O244 Cd242 2.411 . S
O244 C247 1.320 . S
O245 Cd242 2.333 . S
O245 C247 1.214 . S
O246 Cd242 2.352 . S
O246 C249 1.258 . S
C247 O244 1.320 . S
C247 O245 1.214 . S
O248 Cd240 2.277 . S
O248 C243 1.209 . S
C249 O246 1.258 . S
C249 O251 1.282 . S
O250 Cd242 2.277 . S
O250 C243 1.226 . S
O251 Cd242 2.356 . S
O251 C249 1.282 . S
C252 O253 1.306 . S
C252 O255 1.160 . S
O253 C252 1.306 . S
O253 Cd254 2.228 . S
Cd254 O253 2.228 . S
Cd254 O258 2.273 . S
Cd254 O262 2.277 . S
O255 C252 1.160 . S
O255 Cd256 2.203 . S
Cd256 O255 2.203 . S
Cd256 O258 2.411 . S
Cd256 O259 2.333 . S
Cd256 O260 2.352 1_545 S
Cd256 O264 2.277 . S
Cd256 O265 2.356 1_545 S
C257 O262 1.209 . S
C257 O264 1.226 . S
O258 Cd254 2.273 . S
O258 Cd256 2.411 . S
O258 C261 1.320 . S
O259 Cd256 2.333 . S
O259 C261 1.214 . S
O260 Cd256 2.352 1_565 S
O260 C263 1.258 . S
C261 O258 1.320 . S
C261 O259 1.214 . S
O262 Cd254 2.277 . S
O262 C257 1.209 . S
C263 O260 1.258 . S
C263 O265 1.282 . S
O264 Cd256 2.277 . S
O264 C257 1.226 . S
O265 Cd256 2.356 1_565 S
O265 C263 1.282 . S
C266 O267 1.306 . S
C266 O269 1.160 . S
O267 C266 1.306 . S
O267 Cd268 2.228 1_554 S
Cd268 O267 2.228 1_556 S
Cd268 O272 2.273 1_556 S
Cd268 O276 2.277 . S
O269 C266 1.160 . S
O269 Cd270 2.203 . S
Cd270 O269 2.203 . S
Cd270 O272 2.411 . S
Cd270 O273 2.333 . S
Cd270 O274 2.352 . S
Cd270 O278 2.253 1_554 S
Cd270 O279 2.356 . S
C271 O276 1.209 . S
C271 O278 1.250 . S
O272 Cd268 2.273 1_554 S
O272 Cd270 2.411 . S
O272 C275 1.320 . S
O273 Cd270 2.333 . S
O273 C275 1.214 . S
O274 Cd270 2.352 . S
O274 C277 1.258 . S
C275 O272 1.320 . S
C275 O273 1.214 . S
O276 Cd268 2.277 . S
O276 C271 1.209 . S
C277 O274 1.258 . S
C277 O279 1.282 . S
O278 Cd270 2.253 1_556 S
O278 C271 1.250 . S
O279 Cd270 2.356 . S
O279 C277 1.282 . S
C280 O281 1.306 . S
C280 O283 1.160 1_554 S
O281 C280 1.306 . S
O281 Cd282 2.228 . S
Cd282 O281 2.228 . S
Cd282 O286 2.273 . S
Cd282 O290 2.277 . S
O283 C280 1.160 1_556 S
O283 Cd284 2.203 . S
Cd284 O283 2.203 . S
Cd284 O286 2.411 1_556 S
Cd284 O287 2.333 . S
Cd284 O288 2.352 . S
Cd284 O292 2.277 1_556 S
Cd284 O293 2.356 . S
C285 O290 1.209 . S
C285 O292 1.226 . S
O286 Cd282 2.273 . S
O286 Cd284 2.411 1_554 S
O286 C289 1.320 1_554 S
O287 Cd284 2.333 . S
O287 C289 1.214 . S
O288 Cd284 2.352 . S
O288 C291 1.258 . S
C289 O286 1.320 1_556 S
C289 O287 1.214 . S
O290 Cd282 2.277 . S
O290 C285 1.209 . S
C291 O288 1.258 . S
C291 O293 1.282 . S
O292 Cd284 2.277 1_554 S
O292 C285 1.226 . S
O293 Cd284 2.356 . S
O293 C291 1.282 . S
C294 O295 1.306 . S
C294 O297 1.160 . S
O295 C294 1.306 . S
O295 Cd296 2.228 . S
Cd296 O295 2.228 . S
Cd296 O300 2.273 . S
Cd296 O304 2.277 . S
O297 C294 1.160 . S
O297 Cd298 2.203 . S
Cd298 O297 2.203 . S
Cd298 O300 2.411 . S
Cd298 O301 2.333 . S
Cd298 O302 2.352 . S
Cd298 O306 2.277 . S
Cd298 O307 2.356 . S
C299 O304 1.209 . S
C299 O306 1.226 . S
O300 Cd296 2.273 . S
O300 Cd298 2.411 . S
O300 C303 1.320 . S
O301 Cd298 2.333 . S
O301 C303 1.214 . S
O302 Cd298 2.352 . S
O302 C305 1.258 . S
C303 O300 1.320 . S
C303 O301 1.214 . S
O304 Cd296 2.277 . S
O304 C299 1.209 . S
C305 O302 1.258 . S
C305 O307 1.282 . S
O306 Cd298 2.277 . S
O306 C299 1.226 . S
O307 Cd298 2.356 . S
O307 C305 1.282 . S
C308 O309 1.306 . S
C308 O311 1.160 . S
O309 C308 1.306 . S
O309 Cd310 2.228 . S
Cd310 O309 2.228 . S
Cd310 O314 2.273 . S
Cd310 O318 2.277 . S
O311 C308 1.160 . S
O311 Cd312 2.203 . S
Cd312 O311 2.203 . S
Cd312 O314 2.411 . S
Cd312 O315 2.333 . S
Cd312 O316 2.352 . S
Cd312 O320 2.277 . S
Cd312 O321 2.356 . S
C313 O318 1.209 . S
C313 O320 1.226 . S
O314 Cd310 2.273 . S
O314 Cd312 2.411 . S
O314 C317 1.320 . S
O315 Cd312 2.333 . S
O315 C317 1.214 . S
O316 Cd312 2.352 . S
O316 C319 1.258 . S
C317 O314 1.320 . S
C317 O315 1.214 . S
O318 Cd310 2.277 . S
O318 C313 1.209 . S
C319 O316 1.258 . S
C319 O321 1.282 . S
O320 Cd312 2.277 . S
O320 C313 1.226 . S
O321 Cd312 2.356 . S
O321 C319 1.282 . S
C322 O323 1.306 . S
C322 O325 1.160 . S
O323 C322 1.306 . S
O323 Cd324 2.228 . S
Cd324 O323 2.228 . S
Cd324 O328 2.273 . S
Cd324 O332 2.277 . S
O325 C322 1.160 . S
O325 Cd326 2.203 . S
Cd326 O325 2.203 . S
Cd326 O328 2.411 . S
Cd326 O329 2.333 . S
Cd326 O330 2.352 . S
Cd326 O334 2.277 . S
Cd326 O335 2.356 . S
C327 O332 1.209 . S
C327 O334 1.226 . S
O328 Cd324 2.273 . S
O328 Cd326 2.411 . S
O328 C331 1.320 . S
O329 Cd326 2.333 . S
O329 C331 1.214 . S
O330 Cd326 2.352 . S
O330 C333 1.258 . S
C331 O328 1.320 . S
C331 O329 1.214 . S
O332 Cd324 2.277 . S
O332 C327 1.209 . S
C333 O330 1.258 . S
C333 O335 1.282 . S
O334 Cd326 2.277 . S
O334 C327 1.226 . S
O335 Cd326 2.356 . S
O335 C333 1.282 . S
C336 O352 1.267 1_556 S
C336 O354 1.254 . S
N337 C338 1.333 1_565 S
N337 C342 1.307 . S
N337 Zn343 2.020 1_665 S
C338 N337 1.333 1_545 S
C338 C339 1.381 . S
C338 H356 0.952 . S
C339 C338 1.381 . S
C339 C340 1.382 1_545 S
C339 H366 0.954 . S
C340 C339 1.382 1_565 S
C340 C341 1.357 . S
C341 C340 1.357 . S
C341 C342 1.370 . S
C341 H367 0.950 . S
C342 N337 1.307 . S
C342 C341 1.370 . S
C342 H360 0.948 . S
Zn343 N337 2.020 1_445 S
Zn343 O352 2.044 . S
Zn343 O358 2.034 . S
Zn343 O362 2.025 1_545 S
Zn343 O364 2.024 1_545 S
C344 O363 1.246 . S
C344 O364 1.249 . S
N345 C346 1.307 1_554 S
N345 C347 1.333 . S
N345 Zn351 2.020 . S
C346 N345 1.307 1_556 S
C346 C350 1.370 . S
C346 H357 0.948 . S
C347 N345 1.333 . S
C347 C348 1.379 . S
C347 H355 0.952 . S
C348 C347 1.379 . S
C348 C349 1.390 . S
C348 H368 0.949 . S
C349 C348 1.390 . S
C349 C350 1.357 1_554 S
C350 C346 1.370 . S
C350 C349 1.357 1_556 S
C350 H369 0.950 . S
Zn351 N345 2.020 . S
Zn351 O354 2.025 1_554 S
Zn351 O359 2.024 . S
Zn351 O361 2.039 . S
Zn351 O363 2.034 1_545 S
O352 C336 1.267 1_554 S
O352 Zn343 2.044 . S
C353 O358 1.246 . S
C353 O359 1.249 . S
O354 C336 1.254 . S
O354 Zn351 2.025 1_556 S
H355 C347 0.952 . S
H356 C338 0.952 . S
H357 C346 0.948 . S
O358 Zn343 2.034 . S
O358 C353 1.246 . S
O359 Zn351 2.024 . S
O359 C353 1.249 . S
H360 C342 0.948 . S
O361 Zn351 2.039 . S
O361 C365 1.236 1_545 S
O362 Zn343 2.025 1_565 S
O362 C365 1.261 . S
O363 C344 1.246 . S
O363 Zn351 2.034 1_565 S
O364 Zn343 2.024 1_565 S
O364 C344 1.249 . S
C365 O361 1.236 1_565 S
C365 O362 1.261 . S
H366 C339 0.954 . S
H367 C341 0.950 . S
H368 C348 0.949 . S
H369 C350 0.950 . S
C370 O386 1.251 . S
C370 O388 1.254 . S
N371 C372 1.333 . S
N371 C376 1.307 . S
N371 Zn377 2.020 . S
C372 N371 1.333 . S
C372 C373 1.379 . S
C372 H390 0.952 . S
C373 C372 1.379 . S
C373 C374 1.390 . S
C373 H400 0.949 . S
C374 C373 1.390 . S
C374 C375 1.357 . S
C375 C374 1.357 . S
C375 C376 1.370 . S
C375 H401 0.950 . S
C376 N371 1.307 . S
C376 C375 1.370 . S
C376 H394 0.948 . S
Zn377 N371 2.020 . S
Zn377 O386 2.039 . S
Zn377 O392 2.034 . S
Zn377 O396 2.025 . S
Zn377 O398 2.024 . S
C378 O397 1.246 . S
C378 O398 1.249 . S
N379 C380 1.307 . S
N379 C381 1.333 . S
N379 Zn385 2.020 . S
C380 N379 1.307 . S
C380 C384 1.370 . S
C380 H391 0.948 . S
C381 N379 1.333 . S
C381 C382 1.379 . S
C381 H389 0.952 . S
C382 C381 1.379 . S
C382 C383 1.390 . S
C382 H402 0.949 . S
C383 C382 1.390 . S
C383 C384 1.357 . S
C384 C380 1.370 . S
C384 C383 1.357 . S
C384 H403 0.950 . S
Zn385 N379 2.020 . S
Zn385 O388 2.025 . S
Zn385 O393 2.024 . S
Zn385 O395 2.039 . S
Zn385 O397 2.034 . S
O386 C370 1.251 . S
O386 Zn377 2.039 . S
C387 O392 1.246 . S
C387 O393 1.249 . S
O388 C370 1.254 . S
O388 Zn385 2.025 . S
H389 C381 0.952 . S
H390 C372 0.952 . S
H391 C380 0.948 . S
O392 Zn377 2.034 . S
O392 C387 1.246 . S
O393 Zn385 2.024 . S
O393 C387 1.249 . S
H394 C376 0.948 . S
O395 Zn385 2.039 . S
O395 C399 1.251 . S
O396 Zn377 2.025 . S
O396 C399 1.254 . S
O397 C378 1.246 . S
O397 Zn385 2.034 . S
O398 Zn377 2.024 . S
O398 C378 1.249 . S
C399 O395 1.251 . S
C399 O396 1.254 . S
H400 C373 0.949 . S
H401 C375 0.950 . S
H402 C382 0.949 . S
H403 C384 0.950 . S
C404 O420 1.251 . S
C404 O422 1.254 . S
N405 C406 1.333 . S
N405 C410 1.307 . S
N405 Zn411 2.020 . S
C406 N405 1.333 . S
C406 C407 1.379 . S
C406 H424 0.952 . S
C407 C406 1.379 . S
C407 C408 1.390 . S
C407 H434 0.949 . S
C408 C407 1.390 . S
C408 C409 1.357 . S
C409 C408 1.357 . S
C409 C410 1.370 . S
C409 H435 0.950 . S
C410 N405 1.307 . S
C410 C409 1.370 . S
C410 H428 0.948 . S
Zn411 N405 2.020 . S
Zn411 O420 2.039 1_565 S
Zn411 O426 2.034 1_565 S
Zn411 O430 2.025 . S
Zn411 O432 2.024 . S
C412 O431 1.246 1_565 S
C412 O432 1.249 . S
N413 C414 1.307 . S
N413 C415 1.333 . S
N413 Zn419 2.020 . S
C414 N413 1.307 . S
C414 C418 1.370 . S
C414 H425 0.948 . S
C415 N413 1.333 . S
C415 C416 1.379 . S
C415 H423 0.952 . S
C416 C415 1.379 . S
C416 C417 1.390 . S
C416 H436 0.949 . S
C417 C416 1.390 . S
C417 C418 1.357 . S
C418 C414 1.370 . S
C418 C417 1.357 . S
C418 H437 0.950 . S
Zn419 N413 2.020 . S
Zn419 O422 2.025 . S
Zn419 O427 2.024 . S
Zn419 O429 2.039 . S
Zn419 O431 2.034 . S
O420 C404 1.251 . S
O420 Zn411 2.039 1_545 S
C421 O426 1.246 . S
C421 O427 1.249 . S
O422 C404 1.254 . S
O422 Zn419 2.025 . S
H423 C415 0.952 . S
H424 C406 0.952 . S
H425 C414 0.948 . S
O426 Zn411 2.034 1_545 S
O426 C421 1.246 . S
O427 Zn419 2.024 . S
O427 C421 1.249 . S
H428 C410 0.948 . S
O429 Zn419 2.039 . S
O429 C433 1.251 . S
O430 Zn411 2.025 . S
O430 C433 1.254 1_565 S
O431 C412 1.246 1_545 S
O431 Zn419 2.034 . S
O432 Zn411 2.024 . S
O432 C412 1.249 . S
C433 O429 1.251 . S
C433 O430 1.254 1_545 S
H434 C407 0.949 . S
H435 C409 0.950 . S
H436 C416 0.949 . S
H437 C418 0.950 . S
C438 O454 1.251 . S
C438 O456 1.254 . S
N439 C440 1.333 . S
N439 C444 1.307 . S
N439 Zn445 2.020 . S
C440 N439 1.333 . S
C440 C441 1.379 . S
C440 H458 0.952 . S
C441 C440 1.379 . S
C441 C442 1.390 . S
C441 H468 0.949 . S
C442 C441 1.390 . S
C442 C443 1.357 . S
C443 C442 1.357 . S
C443 C444 1.370 . S
C443 H469 0.950 . S
C444 N439 1.307 . S
C444 C443 1.370 . S
C444 H462 0.948 . S
Zn445 N439 2.020 . S
Zn445 O454 2.039 . S
Zn445 O460 2.034 . S
Zn445 O464 2.025 . S
Zn445 O466 2.024 . S
C446 O465 1.246 . S
C446 O466 1.249 . S
N447 C448 1.307 . S
N447 C449 1.333 . S
N447 Zn453 2.020 . S
C448 N447 1.307 . S
C448 C452 1.370 . S
C448 H459 0.948 . S
C449 N447 1.333 . S
C449 C450 1.379 . S
C449 H457 0.952 . S
C450 C449 1.379 . S
C450 C451 1.390 . S
C450 H470 0.949 . S
C451 C450 1.390 . S
C451 C452 1.357 . S
C452 C448 1.370 . S
C452 C451 1.357 . S
C452 H471 0.950 . S
Zn453 N447 2.020 . S
Zn453 O456 2.025 . S
Zn453 O461 2.024 . S
Zn453 O463 2.039 . S
Zn453 O465 2.034 . S
O454 C438 1.251 . S
O454 Zn445 2.039 . S
C455 O460 1.246 . S
C455 O461 1.249 . S
O456 C438 1.254 . S
O456 Zn453 2.025 . S
H457 C449 0.952 . S
H458 C440 0.952 . S
H459 C448 0.948 . S
O460 Zn445 2.034 . S
O460 C455 1.246 . S
O461 Zn453 2.024 . S
O461 C455 1.249 . S
H462 C444 0.948 . S
O463 Zn453 2.039 . S
O463 C467 1.251 . S
O464 Zn445 2.025 . S
O464 C467 1.254 . S
O465 C446 1.246 . S
O465 Zn453 2.034 . S
O466 Zn445 2.024 . S
O466 C446 1.249 . S
C467 O463 1.251 . S
C467 O464 1.254 . S
H468 C441 0.949 . S
H469 C443 0.950 . S
H470 C450 0.949 . S
H471 C452 0.950 . S
C472 O488 1.251 1_565 S
C472 O490 1.254 . S
N473 C474 1.333 . S
N473 C478 1.307 . S
N473 Zn479 2.020 . S
C474 N473 1.333 . S
C474 C475 1.379 . S
C474 H492 0.952 . S
C475 C474 1.379 . S
C475 C476 1.390 . S
C475 H502 0.949 . S
C476 C475 1.390 . S
C476 C477 1.357 . S
C477 C476 1.357 . S
C477 C478 1.370 . S
C477 H503 0.950 . S
C478 N473 1.307 . S
C478 C477 1.370 . S
C478 H496 0.948 . S
Zn479 N473 2.020 . S
Zn479 O488 2.039 . S
Zn479 O494 2.034 . S
Zn479 O498 2.025 . S
Zn479 O500 2.024 1_545 S
C480 O499 1.246 . S
C480 O500 1.249 . S
N481 C482 1.307 . S
N481 C483 1.333 1_455 S
N481 Zn487 2.020 1_565 S
C482 N481 1.307 . S
C482 C486 1.370 . S
C482 H493 0.948 1_565 S
C483 N481 1.333 1_655 S
C483 C484 1.379 . S
C483 H491 0.952 . S
C484 C483 1.379 . S
C484 C485 1.390 . S
C484 H504 0.949 . S
C485 C484 1.390 . S
C485 C486 1.357 1_655 S
C486 C482 1.370 . S
C486 C485 1.357 1_455 S
C486 H505 0.950 . S
Zn487 N481 2.020 1_545 S
Zn487 O490 2.025 1_545 S
Zn487 O495 2.024 . S
Zn487 O497 2.039 1_455 S
Zn487 O499 2.034 1_545 S
O488 C472 1.251 1_545 S
O488 Zn479 2.039 . S
C489 O494 1.246 . S
C489 O495 1.249 . S
O490 C472 1.254 . S
O490 Zn487 2.025 1_565 S
H491 C483 0.952 . S
H492 C474 0.952 . S
H493 C482 0.948 1_545 S
O494 Zn479 2.034 . S
O494 C489 1.246 . S
O495 Zn487 2.024 . S
O495 C489 1.249 . S
H496 C478 0.948 . S
O497 Zn487 2.039 1_655 S
O497 C501 1.251 . S
O498 Zn479 2.025 . S
O498 C501 1.254 1_455 S
O499 C480 1.246 . S
O499 Zn487 2.034 1_565 S
O500 Zn479 2.024 1_565 S
O500 C480 1.249 . S
C501 O497 1.251 . S
C501 O498 1.254 1_655 S
H502 C475 0.949 . S
H503 C477 0.950 . S
H504 C484 0.949 . S
H505 C486 0.950 . S
C506 O522 1.251 . S
C506 O524 1.254 . S
N507 C508 1.333 . S
N507 C512 1.307 . S
N507 Zn513 2.020 . S
C508 N507 1.333 . S
C508 C509 1.379 . S
C508 H526 0.952 . S
C509 C508 1.379 . S
C509 C510 1.390 . S
C509 H536 0.949 . S
C510 C509 1.390 . S
C510 C511 1.357 . S
C511 C510 1.357 . S
C511 C512 1.370 . S
C511 H537 0.950 . S
C512 N507 1.307 . S
C512 C511 1.370 . S
C512 H530 0.948 . S
Zn513 N507 2.020 . S
Zn513 O522 2.039 . S
Zn513 O528 2.034 . S
Zn513 O532 2.025 . S
Zn513 O534 2.024 . S
C514 O533 1.246 . S
C514 O534 1.249 . S
N515 C516 1.307 . S
N515 C517 1.333 . S
N515 Zn521 2.020 . S
C516 N515 1.307 . S
C516 C520 1.370 . S
C516 H527 0.948 . S
C517 N515 1.333 . S
C517 C518 1.379 . S
C517 H525 0.952 . S
C518 C517 1.379 . S
C518 C519 1.390 . S
C518 H538 0.949 . S
C519 C518 1.390 . S
C519 C520 1.357 . S
C520 C516 1.370 . S
C520 C519 1.357 . S
C520 H539 0.950 . S
Zn521 N515 2.020 . S
Zn521 O524 2.025 . S
Zn521 O529 2.024 . S
Zn521 O531 2.039 . S
Zn521 O533 2.034 . S
O522 C506 1.251 . S
O522 Zn513 2.039 . S
C523 O528 1.246 . S
C523 O529 1.249 . S
O524 C506 1.254 . S
O524 Zn521 2.025 . S
H525 C517 0.952 . S
H526 C508 0.952 . S
H527 C516 0.948 . S
O528 Zn513 2.034 . S
O528 C523 1.246 . S
O529 Zn521 2.024 . S
O529 C523 1.249 . S
H530 C512 0.948 . S
O531 Zn521 2.039 . S
O531 C535 1.251 . S
O532 Zn513 2.025 . S
O532 C535 1.254 . S
O533 C514 1.246 . S
O533 Zn521 2.034 . S
O534 Zn513 2.024 . S
O534 C514 1.249 . S
C535 O531 1.251 . S
C535 O532 1.254 . S
H536 C509 0.949 . S
H537 C511 0.950 . S
H538 C518 0.949 . S
H539 C520 0.950 . S
C540 O556 1.251 . S
C540 O558 1.254 . S
N541 C542 1.333 . S
N541 C546 1.307 . S
N541 Zn547 2.020 . S
C542 N541 1.333 . S
C542 C543 1.379 . S
C542 H560 0.952 . S
C543 C542 1.379 . S
C543 C544 1.390 . S
C543 H570 0.949 . S
C544 C543 1.390 . S
C544 C545 1.357 . S
C545 C544 1.357 . S
C545 C546 1.370 . S
C545 H571 0.950 . S
C546 N541 1.307 . S
C546 C545 1.370 . S
C546 H564 0.948 . S
Zn547 N541 2.020 . S
Zn547 O556 2.039 1_545 S
Zn547 O562 2.034 . S
Zn547 O566 2.025 . S
Zn547 O568 2.024 . S
C548 O567 1.246 . S
C548 O568 1.249 1_565 S
N549 C550 1.307 . S
N549 C551 1.333 1_565 S
N549 Zn555 2.020 1_566 S
C550 N549 1.307 . S
C550 C554 1.370 . S
C550 H561 0.948 . S
C551 N549 1.333 1_545 S
C551 C552 1.373 1_545 S
C551 H559 0.952 . S
C552 C551 1.373 1_565 S
C552 C553 1.416 . S
C552 H572 0.931 1_565 S
C553 C552 1.416 . S
C553 C554 1.357 . S
C554 C550 1.370 . S
C554 C553 1.357 . S
C554 H573 0.950 . S
Zn555 N549 2.020 1_544 S
Zn555 O558 2.025 1_545 S
Zn555 O563 2.024 . S
Zn555 O565 2.039 1_554 S
Zn555 O567 2.034 1_545 S
O556 C540 1.251 . S
O556 Zn547 2.039 1_565 S
C557 O562 1.246 . S
C557 O563 1.249 . S
O558 C540 1.254 . S
O558 Zn555 2.025 1_565 S
H559 C551 0.952 . S
H560 C542 0.952 . S
H561 C550 0.948 . S
O562 Zn547 2.034 . S
O562 C557 1.246 . S
O563 Zn555 2.024 . S
O563 C557 1.249 . S
H564 C546 0.948 . S
O565 Zn555 2.039 1_556 S
O565 C569 1.251 1_556 S
O566 Zn547 2.025 . S
O566 C569 1.254 . S
O567 C548 1.246 . S
O567 Zn555 2.034 1_565 S
O568 Zn547 2.024 . S
O568 C548 1.249 1_545 S
C569 O565 1.251 1_554 S
C569 O566 1.254 . S
H570 C543 0.949 . S
H571 C545 0.950 . S
H572 C552 0.931 1_545 S
H573 C554 0.950 . S
C574 O590 1.251 . S
C574 O592 1.254 . S
N575 C576 1.333 . S
N575 C580 1.307 . S
N575 Zn581 2.020 . S
C576 N575 1.333 . S
C576 C577 1.379 . S
C576 H594 0.952 . S
C577 C576 1.379 . S
C577 C578 1.390 . S
C577 H604 0.949 . S
C578 C577 1.390 . S
C578 C579 1.357 . S
C579 C578 1.357 . S
C579 C580 1.370 . S
C579 H605 0.950 . S
C580 N575 1.307 . S
C580 C579 1.370 . S
C580 H598 0.948 . S
Zn581 N575 2.020 . S
Zn581 O590 2.039 . S
Zn581 O596 2.034 . S
Zn581 O600 2.025 . S
Zn581 O602 2.024 . S
C582 O601 1.246 . S
C582 O602 1.249 . S
N583 C584 1.307 . S
N583 C585 1.333 . S
N583 Zn589 2.020 . S
C584 N583 1.307 . S
C584 C588 1.370 . S
C584 H595 0.948 . S
C585 N583 1.333 . S
C585 C586 1.379 . S
C585 H593 0.952 . S
C586 C585 1.379 . S
C586 C587 1.390 . S
C586 H606 0.949 . S
C587 C586 1.390 . S
C587 C588 1.357 . S
C588 C584 1.370 . S
C588 C587 1.357 . S
C588 H607 0.950 . S
Zn589 N583 2.020 . S
Zn589 O592 2.025 . S
Zn589 O597 2.024 . S
Zn589 O599 2.039 . S
Zn589 O601 2.034 . S
O590 C574 1.251 . S
O590 Zn581 2.039 . S
C591 O596 1.246 . S
C591 O597 1.249 . S
O592 C574 1.254 . S
O592 Zn589 2.025 . S
H593 C585 0.952 . S
H594 C576 0.952 . S
H595 C584 0.948 . S
O596 Zn581 2.034 . S
O596 C591 1.246 . S
O597 Zn589 2.024 . S
O597 C591 1.249 . S
H598 C580 0.948 . S
O599 Zn589 2.039 . S
O599 C603 1.251 . S
O600 Zn581 2.025 . S
O600 C603 1.254 . S
O601 C582 1.246 . S
O601 Zn589 2.034 . S
O602 Zn581 2.024 . S
O602 C582 1.249 . S
C603 O599 1.251 . S
C603 O600 1.254 . S
H604 C577 0.949 . S
H605 C579 0.950 . S
H606 C586 0.949 . S
H607 C588 0.950 . S
C608 O624 1.251 . S
C608 O626 1.254 . S
N609 C610 1.333 . S
N609 C614 1.307 . S
N609 Zn615 2.020 1_556 S
C610 N609 1.333 . S
C610 C611 1.379 . S
C610 H628 0.952 . S
C611 C610 1.379 . S
C611 C612 1.390 . S
C611 H638 0.949 . S
C612 C611 1.390 . S
C612 C613 1.357 . S
C613 C612 1.357 . S
C613 C614 1.370 . S
C613 H639 0.950 . S
C614 N609 1.307 . S
C614 C613 1.370 . S
C614 H632 0.948 . S
Zn615 N609 2.020 1_554 S
Zn615 O624 2.039 . S
Zn615 O630 2.034 . S
Zn615 O634 2.025 . S
Zn615 O636 2.024 1_554 S
C616 O635 1.246 . S
C616 O636 1.249 1_554 S
N617 C618 1.307 . S
N617 C619 1.333 . S
N617 Zn623 2.020 . S
C618 N617 1.307 . S
C618 C622 1.370 . S
C618 H629 0.948 . S
C619 N617 1.333 . S
C619 C620 1.379 . S
C619 H627 0.952 . S
C620 C619 1.379 . S
C620 C621 1.390 . S
C620 H640 0.949 . S
C621 C620 1.390 . S
C621 C622 1.357 . S
C622 C618 1.370 . S
C622 C621 1.357 . S
C622 H641 0.950 . S
Zn623 N617 2.020 . S
Zn623 O626 2.025 . S
Zn623 O631 2.024 . S
Zn623 O633 2.039 . S
Zn623 O635 2.034 . S
O624 C608 1.251 . S
O624 Zn615 2.039 . S
C625 O630 1.246 . S
C625 O631 1.249 . S
O626 C608 1.254 . S
O626 Zn623 2.025 . S
H627 C619 0.952 . S
H628 C610 0.952 . S
H629 C618 0.948 . S
O630 Zn615 2.034 . S
O630 C625 1.246 . S
O631 Zn623 2.024 . S
O631 C625 1.249 . S
H632 C614 0.948 . S
O633 Zn623 2.039 . S
O633 C637 1.251 . S
O634 Zn615 2.025 . S
O634 C637 1.254 . S
O635 C616 1.246 . S
O635 Zn623 2.034 . S
O636 Zn615 2.024 1_556 S
O636 C616 1.249 1_556 S
C637 O633 1.251 . S
C637 O634 1.254 . S
H638 C611 0.949 . S
H639 C613 0.950 . S
H640 C620 0.949 . S
H641 C622 0.950 . S
C642 O658 1.251 . S
C642 O660 1.254 . S
N643 C644 1.333 . S
N643 C648 1.307 . S
N643 Zn649 2.020 . S
C644 N643 1.333 . S
C644 C645 1.379 . S
C644 H662 0.952 . S
C645 C644 1.379 . S
C645 C646 1.390 . S
C645 H672 0.949 . S
C646 C645 1.390 . S
C646 C647 1.357 . S
C647 C646 1.357 . S
C647 C648 1.370 . S
C647 H673 0.950 . S
C648 N643 1.307 . S
C648 C647 1.370 . S
C648 H666 0.948 . S
Zn649 N643 2.020 . S
Zn649 O658 2.039 . S
Zn649 O664 2.034 . S
Zn649 O668 2.025 . S
Zn649 O670 2.024 . S
C650 O669 1.246 . S
C650 O670 1.249 . S
N651 C652 1.307 . S
N651 C653 1.333 . S
N651 Zn657 2.020 . S
C652 N651 1.307 . S
C652 C656 1.370 . S
C652 H663 0.948 . S
C653 N651 1.333 . S
C653 C654 1.379 . S
C653 H661 0.952 . S
C654 C653 1.379 . S
C654 C655 1.390 . S
C654 H674 0.949 . S
C655 C654 1.390 . S
C655 C656 1.357 . S
C656 C652 1.370 . S
C656 C655 1.357 . S
C656 H675 0.950 . S
Zn657 N651 2.020 . S
Zn657 O660 2.025 . S
Zn657 O665 2.024 . S
Zn657 O667 2.039 . S
Zn657 O669 2.034 . S
O658 C642 1.251 . S
O658 Zn649 2.039 . S
C659 O664 1.246 . S
C659 O665 1.249 . S
O660 C642 1.254 . S
O660 Zn657 2.025 . S
H661 C653 0.952 . S
H662 C644 0.952 . S
H663 C652 0.948 . S
O664 Zn649 2.034 . S
O664 C659 1.246 . S
O665 Zn657 2.024 . S
O665 C659 1.249 . S
H666 C648 0.948 . S
O667 Zn657 2.039 . S
O667 C671 1.251 . S
O668 Zn649 2.025 . S
O668 C671 1.254 . S
O669 C650 1.246 . S
O669 Zn657 2.034 . S
O670 Zn649 2.024 . S
O670 C650 1.249 . S
C671 O667 1.251 . S
C671 O668 1.254 . S
H672 C645 0.949 . S
H673 C647 0.950 . S
H674 C654 0.949 . S
H675 C656 0.950 . S
C676 O692 1.251 . S
C676 O694 1.254 . S
N677 C678 1.333 . S
N677 C682 1.307 . S
N677 Zn683 2.020 . S
C678 N677 1.333 . S
C678 C679 1.379 . S
C678 H696 0.952 . S
C679 C678 1.379 . S
C679 C680 1.390 . S
C679 H706 0.949 . S
C680 C679 1.390 . S
C680 C681 1.357 . S
C681 C680 1.357 . S
C681 C682 1.370 . S
C681 H707 0.950 . S
C682 N677 1.307 . S
C682 C681 1.370 . S
C682 H700 0.948 . S
Zn683 N677 2.020 . S
Zn683 O692 2.039 . S
Zn683 O698 2.034 . S
Zn683 O702 2.025 . S
Zn683 O704 2.024 . S
C684 O703 1.246 . S
C684 O704 1.249 . S
N685 C686 1.307 1_455 S
N685 C687 1.333 . S
N685 Zn691 2.020 . S
C686 N685 1.307 1_655 S
C686 C690 1.370 . S
C686 H697 0.948 . S
C687 N685 1.333 . S
C687 C688 1.379 . S
C687 H695 0.952 . S
C688 C687 1.379 . S
C688 C689 1.390 1_455 S
C688 H708 0.949 . S
C689 C688 1.390 1_655 S
C689 C690 1.357 . S
C690 C686 1.370 . S
C690 C689 1.357 . S
C690 H709 0.950 . S
Zn691 N685 2.020 . S
Zn691 O694 2.025 . S
Zn691 O699 2.024 1_455 S
Zn691 O701 2.039 . S
Zn691 O703 2.034 . S
O692 C676 1.251 . S
O692 Zn683 2.039 . S
C693 O698 1.246 1_655 S
C693 O699 1.249 . S
O694 C676 1.254 . S
O694 Zn691 2.025 . S
H695 C687 0.952 . S
H696 C678 0.952 . S
H697 C686 0.948 . S
O698 Zn683 2.034 . S
O698 C693 1.246 1_455 S
O699 Zn691 2.024 1_655 S
O699 C693 1.249 . S
H700 C682 0.948 . S
O701 Zn691 2.039 . S
O701 C705 1.251 . S
O702 Zn683 2.025 . S
O702 C705 1.254 . S
O703 C684 1.246 . S
O703 Zn691 2.034 . S
O704 Zn683 2.024 . S
O704 C684 1.249 . S
C705 O701 1.251 . S
C705 O702 1.254 . S
H706 C679 0.949 . S
H707 C681 0.950 . S
H708 C688 0.949 . S
H709 C690 0.950 . S
C710 O726 1.251 . S
C710 O728 1.254 . S
N711 C712 1.333 . S
N711 C716 1.307 . S
N711 Zn717 2.020 . S
C712 N711 1.333 . S
C712 C713 1.379 . S
C712 H730 0.952 . S
C713 C712 1.379 . S
C713 C714 1.390 . S
C713 H740 0.949 . S
C714 C713 1.390 . S
C714 C715 1.357 . S
C715 C714 1.357 . S
C715 C716 1.370 . S
C715 H741 0.950 . S
C716 N711 1.307 . S
C716 C715 1.370 . S
C716 H734 0.948 . S
Zn717 N711 2.020 . S
Zn717 O726 2.039 . S
Zn717 O732 2.034 . S
Zn717 O736 2.025 . S
Zn717 O738 2.024 . S
C718 O737 1.246 . S
C718 O738 1.249 . S
N719 C720 1.307 . S
N719 C721 1.333 . S
N719 Zn725 2.020 . S
C720 N719 1.307 . S
C720 C724 1.370 . S
C720 H731 0.948 . S
C721 N719 1.333 . S
C721 C722 1.379 . S
C721 H729 0.952 . S
C722 C721 1.379 . S
C722 C723 1.390 . S
C722 H742 0.949 . S
C723 C722 1.390 . S
C723 C724 1.357 . S
C724 C720 1.370 . S
C724 C723 1.357 . S
C724 H743 0.950 . S
Zn725 N719 2.020 . S
Zn725 O728 2.025 . S
Zn725 O733 2.024 . S
Zn725 O735 2.039 . S
Zn725 O737 2.034 . S
O726 C710 1.251 . S
O726 Zn717 2.039 . S
C727 O732 1.246 . S
C727 O733 1.249 . S
O728 C710 1.254 . S
O728 Zn725 2.025 . S
H729 C721 0.952 . S
H730 C712 0.952 . S
H731 C720 0.948 . S
O732 Zn717 2.034 . S
O732 C727 1.246 . S
O733 Zn725 2.024 . S
O733 C727 1.249 . S
H734 C716 0.948 . S
O735 Zn725 2.039 . S
O735 C739 1.251 . S
O736 Zn717 2.025 . S
O736 C739 1.254 . S
O737 C718 1.246 . S
O737 Zn725 2.034 . S
O738 Zn717 2.024 . S
O738 C718 1.249 . S
C739 O735 1.251 . S
C739 O736 1.254 . S
H740 C713 0.949 . S
H741 C715 0.950 . S
H742 C722 0.949 . S
H743 C724 0.950 . S
C744 O760 1.251 . S
C744 O762 1.254 . S
N745 C746 1.333 . S
N745 C750 1.307 . S
N745 Zn751 2.020 . S
C746 N745 1.333 . S
C746 C747 1.379 . S
C746 H764 0.952 . S
C747 C746 1.379 . S
C747 C748 1.390 . S
C747 H774 0.949 . S
C748 C747 1.390 . S
C748 C749 1.357 . S
C749 C748 1.357 . S
C749 C750 1.370 . S
C749 H775 0.950 . S
C750 N745 1.307 . S
C750 C749 1.370 . S
C750 H768 0.948 . S
Zn751 N745 2.020 . S
Zn751 O760 2.039 . S
Zn751 O766 2.034 . S
Zn751 O770 2.025 . S
Zn751 O772 2.024 . S
C752 O771 1.246 . S
C752 O772 1.249 . S
N753 C754 1.307 . S
N753 C755 1.333 . S
N753 Zn759 2.020 . S
C754 N753 1.307 . S
C754 C758 1.370 . S
C754 H765 0.948 . S
C755 N753 1.333 . S
C755 C756 1.379 . S
C755 H763 0.952 . S
C756 C755 1.379 . S
C756 C757 1.390 . S
C756 H776 0.949 . S
C757 C756 1.390 . S
C757 C758 1.357 . S
C758 C754 1.370 . S
C758 C757 1.357 . S
C758 H777 0.950 . S
Zn759 N753 2.020 . S
Zn759 O762 2.025 . S
Zn759 O767 2.024 . S
Zn759 O769 2.039 . S
Zn759 O771 2.034 . S
O760 C744 1.251 . S
O760 Zn751 2.039 . S
C761 O766 1.246 . S
C761 O767 1.249 . S
O762 C744 1.254 . S
O762 Zn759 2.025 . S
H763 C755 0.952 . S
H764 C746 0.952 . S
H765 C754 0.948 . S
O766 Zn751 2.034 . S
O766 C761 1.246 . S
O767 Zn759 2.024 . S
O767 C761 1.249 . S
H768 C750 0.948 . S
O769 Zn759 2.039 . S
O769 C773 1.251 . S
O770 Zn751 2.025 . S
O770 C773 1.254 . S
O771 C752 1.246 . S
O771 Zn759 2.034 . S
O772 Zn751 2.024 . S
O772 C752 1.249 . S
C773 O769 1.251 . S
C773 O770 1.254 . S
H774 C747 0.949 . S
H775 C749 0.950 . S
H776 C756 0.949 . S
H777 C758 0.950 . S
C778 O794 1.251 . S
C778 O796 1.254 . S
N779 C780 1.333 . S
N779 C784 1.307 . S
N779 Zn785 2.020 . S
C780 N779 1.333 . S
C780 C781 1.379 . S
C780 H798 0.952 . S
C781 C780 1.379 . S
C781 C782 1.390 . S
C781 H808 0.949 . S
C782 C781 1.390 . S
C782 C783 1.357 . S
C783 C782 1.357 . S
C783 C784 1.370 . S
C783 H809 0.950 . S
C784 N779 1.307 . S
C784 C783 1.370 . S
C784 H802 0.948 . S
Zn785 N779 2.020 . S
Zn785 O794 2.039 . S
Zn785 O800 2.034 . S
Zn785 O804 2.025 . S
Zn785 O806 2.024 . S
C786 O805 1.246 . S
C786 O806 1.249 . S
N787 C788 1.307 . S
N787 C789 1.333 . S
N787 Zn793 2.020 . S
C788 N787 1.307 . S
C788 C792 1.370 . S
C788 H799 0.948 . S
C789 N787 1.333 . S
C789 C790 1.379 . S
C789 H797 0.952 . S
C790 C789 1.379 . S
C790 C791 1.390 . S
C790 H810 0.949 . S
C791 C790 1.390 . S
C791 C792 1.357 . S
C792 C788 1.370 . S
C792 C791 1.357 . S
C792 H811 0.950 . S
Zn793 N787 2.020 . S
Zn793 O796 2.025 . S
Zn793 O801 2.024 . S
Zn793 O803 2.039 . S
Zn793 O805 2.034 . S
O794 C778 1.251 . S
O794 Zn785 2.039 . S
C795 O800 1.246 . S
C795 O801 1.249 . S
O796 C778 1.254 . S
O796 Zn793 2.025 . S
H797 C789 0.952 . S
H798 C780 0.952 . S
H799 C788 0.948 . S
O800 Zn785 2.034 . S
O800 C795 1.246 . S
O801 Zn793 2.024 . S
O801 C795 1.249 . S
H802 C784 0.948 . S
O803 Zn793 2.039 . S
O803 C807 1.251 . S
O804 Zn785 2.025 . S
O804 C807 1.254 . S
O805 C786 1.246 . S
O805 Zn793 2.034 . S
O806 Zn785 2.024 . S
O806 C786 1.249 . S
C807 O803 1.251 . S
C807 O804 1.254 . S
H808 C781 0.949 . S
H809 C783 0.950 . S
H810 C790 0.949 . S
H811 C792 0.950 . S
C812 O828 1.251 . S
C812 O830 1.254 . S
N813 C814 1.333 . S
N813 C818 1.307 . S
N813 Zn819 2.020 . S
C814 N813 1.333 . S
C814 C815 1.379 . S
C814 H832 0.952 . S
C815 C814 1.379 . S
C815 C816 1.390 . S
C815 H842 0.949 . S
C816 C815 1.390 . S
C816 C817 1.357 . S
C817 C816 1.357 . S
C817 C818 1.370 . S
C817 H843 0.950 . S
C818 N813 1.307 . S
C818 C817 1.370 . S
C818 H836 0.948 . S
Zn819 N813 2.020 . S
Zn819 O828 2.039 . S
Zn819 O834 2.034 . S
Zn819 O838 2.025 . S
Zn819 O840 2.024 . S
C820 O839 1.246 . S
C820 O840 1.249 . S
N821 C822 1.307 . S
N821 C823 1.333 . S
N821 Zn827 2.020 . S
C822 N821 1.307 . S
C822 C826 1.370 . S
C822 H833 0.948 . S
C823 N821 1.333 . S
C823 C824 1.379 . S
C823 H831 0.952 . S
C824 C823 1.379 . S
C824 C825 1.390 . S
C824 H844 0.949 . S
C825 C824 1.390 . S
C825 C826 1.357 . S
C826 C822 1.370 . S
C826 C825 1.357 . S
C826 H845 0.950 . S
Zn827 N821 2.020 . S
Zn827 O830 2.025 . S
Zn827 O835 2.024 . S
Zn827 O837 2.039 . S
Zn827 O839 2.034 . S
O828 C812 1.251 . S
O828 Zn819 2.039 . S
C829 O834 1.246 . S
C829 O835 1.249 . S
O830 C812 1.254 . S
O830 Zn827 2.025 . S
H831 C823 0.952 . S
H832 C814 0.952 . S
H833 C822 0.948 . S
O834 Zn819 2.034 . S
O834 C829 1.246 . S
O835 Zn827 2.024 . S
O835 C829 1.249 . S
H836 C818 0.948 . S
O837 Zn827 2.039 . S
O837 C841 1.251 . S
O838 Zn819 2.025 . S
O838 C841 1.254 . S
O839 C820 1.246 . S
O839 Zn827 2.034 . S
O840 Zn819 2.024 . S
O840 C820 1.249 . S
C841 O837 1.251 . S
C841 O838 1.254 . S
H842 C815 0.949 . S
H843 C817 0.950 . S
H844 C824 0.949 . S
H845 C826 0.950 . S
C846 O862 1.251 . S
C846 O864 1.254 . S
N847 C848 1.333 . S
N847 C852 1.307 . S
N847 Zn853 2.020 . S
C848 N847 1.333 . S
C848 C849 1.379 . S
C848 H866 0.952 . S
C849 C848 1.379 . S
C849 C850 1.390 . S
C849 H876 0.949 . S
C850 C849 1.390 . S
C850 C851 1.357 . S
C851 C850 1.357 . S
C851 C852 1.370 . S
C851 H877 0.950 . S
C852 N847 1.307 . S
C852 C851 1.370 . S
C852 H870 0.948 . S
Zn853 N847 2.020 . S
Zn853 O862 2.039 . S
Zn853 O868 2.034 . S
Zn853 O872 2.068 . S
Zn853 O874 2.024 . S
C854 O873 1.246 . S
C854 O874 1.249 1_655 S
N855 C856 1.307 . S
N855 C857 1.333 1_554 S
N855 Zn861 2.020 . S
C856 N855 1.307 . S
C856 C860 1.370 . S
C856 H867 0.948 . S
C857 N855 1.333 1_556 S
C857 C858 1.394 . S
C857 H865 0.952 . S
C858 C857 1.394 . S
C858 C859 1.383 1_455 S
C858 H878 0.941 1_455 S
C859 C858 1.383 1_655 S
C859 C860 1.346 1_656 S
C860 C856 1.370 . S
C860 C859 1.346 1_454 S
C860 H879 0.950 . S
Zn861 N855 2.020 . S
Zn861 O864 2.025 . S
Zn861 O869 2.024 . S
Zn861 O871 2.039 1_554 S
Zn861 O873 2.034 1_455 S
O862 C846 1.251 . S
O862 Zn853 2.039 . S
C863 O868 1.246 . S
C863 O869 1.249 . S
O864 C846 1.254 . S
O864 Zn861 2.025 . S
H865 C857 0.952 . S
H866 C848 0.952 . S
H867 C856 0.948 . S
O868 Zn853 2.034 . S
O868 C863 1.246 . S
O869 Zn861 2.024 . S
O869 C863 1.249 . S
H870 C852 0.948 . S
O871 Zn861 2.039 1_556 S
O871 C875 1.251 . S
O872 Zn853 2.068 . S
O872 C875 1.224 1_554 S
O873 C854 1.246 . S
O873 Zn861 2.034 1_655 S
O874 Zn853 2.024 . S
O874 C854 1.249 1_455 S
C875 O871 1.251 . S
C875 O872 1.224 1_556 S
H876 C849 0.949 . S
H877 C851 0.950 . S
H878 C858 0.941 1_655 S
H879 C860 0.950 . S
H880 C888 0.950 . S
H881 C893 0.950 . S
H882 C890 0.950 . S
H883 C892 0.950 . S
H884 C894 0.950 . S
H885 C896 0.950 . S
H886 C898 0.950 . S
H887 C899 0.950 . S
C888 H880 0.950 . S
C888 C889 1.386 . S
C888 C890 1.391 . S
C889 C888 1.386 . S
C889 C893 1.393 . S
C890 H882 0.950 . S
C890 C888 1.391 . S
C890 C891 1.400 . S
C891 C890 1.400 . S
C891 C892 1.398 . S
C891 C897 1.491 . S
C892 H883 0.950 . S
C892 C891 1.398 . S
C892 C893 1.391 . S
C893 H881 0.950 . S
C893 C889 1.393 . S
C893 C892 1.391 . S
C894 H884 0.950 . S
C894 C895 1.386 . S
C894 C896 1.391 . S
C895 C894 1.386 . S
C895 C899 1.393 . S
C896 H885 0.950 . S
C896 C894 1.391 . S
C896 C897 1.400 . S
C897 C891 1.491 . S
C897 C896 1.400 . S
C897 C898 1.398 . S
C898 H886 0.950 . S
C898 C897 1.398 . S
C898 C899 1.391 . S
C899 H887 0.950 . S
C899 C895 1.393 . S
C899 C898 1.391 . S
H900 C908 0.950 . S
H901 C913 0.950 . S
H902 C910 0.950 . S
H903 C912 0.950 . S
H904 C914 0.950 . S
H905 C916 0.950 . S
H906 C918 0.950 . S
H907 C919 0.950 . S
C908 H900 0.950 . S
C908 C909 1.386 . S
C908 C910 1.391 . S
C909 C908 1.386 . S
C909 C913 1.393 . S
C910 H902 0.950 . S
C910 C908 1.391 . S
C910 C911 1.400 . S
C911 C910 1.400 . S
C911 C912 1.398 . S
C911 C917 1.491 . S
C912 H903 0.950 . S
C912 C911 1.398 . S
C912 C913 1.391 . S
C913 H901 0.950 . S
C913 C909 1.393 . S
C913 C912 1.391 . S
C914 H904 0.950 . S
C914 C915 1.386 . S
C914 C916 1.391 . S
C915 C914 1.386 . S
C915 C919 1.393 . S
C916 H905 0.950 . S
C916 C914 1.391 . S
C916 C917 1.400 . S
C917 C911 1.491 . S
C917 C916 1.400 . S
C917 C918 1.398 . S
C918 H906 0.950 . S
C918 C917 1.398 . S
C918 C919 1.391 . S
C919 H907 0.950 . S
C919 C915 1.393 . S
C919 C918 1.391 . S
H920 C928 0.950 . S
H921 C933 0.950 . S
H922 C930 0.950 . S
H923 C932 0.950 . S
H924 C934 0.950 . S
H925 C936 0.950 . S
H926 C938 0.950 . S
H927 C939 0.950 . S
C928 H920 0.950 . S
C928 C929 1.386 . S
C928 C930 1.391 . S
C929 C928 1.386 . S
C929 C933 1.393 . S
C930 H922 0.950 . S
C930 C928 1.391 . S
C930 C931 1.400 . S
C931 C930 1.400 . S
C931 C932 1.398 . S
C931 C937 1.491 . S
C932 H923 0.950 . S
C932 C931 1.398 . S
C932 C933 1.391 . S
C933 H921 0.950 . S
C933 C929 1.393 . S
C933 C932 1.391 . S
C934 H924 0.950 . S
C934 C935 1.386 . S
C934 C936 1.391 . S
C935 C934 1.386 . S
C935 C939 1.393 . S
C936 H925 0.950 . S
C936 C934 1.391 . S
C936 C937 1.400 . S
C937 C931 1.491 . S
C937 C936 1.400 . S
C937 C938 1.398 . S
C938 H926 0.950 . S
C938 C937 1.398 . S
C938 C939 1.391 . S
C939 H927 0.950 . S
C939 C935 1.393 . S
C939 C938 1.391 . S
H940 C948 0.950 . S
H941 C953 0.950 . S
H942 C950 0.950 . S
H943 C952 0.950 . S
H944 C954 0.950 . S
H945 C956 0.950 . S
H946 C958 0.950 . S
H947 C959 0.950 . S
C948 H940 0.950 . S
C948 C949 1.386 . S
C948 C950 1.391 . S
C949 C948 1.386 . S
C949 C953 1.393 . S
C950 H942 0.950 . S
C950 C948 1.391 . S
C950 C951 1.400 . S
C951 C950 1.400 . S
C951 C952 1.398 . S
C951 C957 1.491 . S
C952 H943 0.950 . S
C952 C951 1.398 . S
C952 C953 1.391 . S
C953 H941 0.950 . S
C953 C949 1.393 . S
C953 C952 1.391 . S
C954 H944 0.950 . S
C954 C955 1.386 . S
C954 C956 1.391 . S
C955 C954 1.386 . S
C955 C959 1.393 . S
C956 H945 0.950 . S
C956 C954 1.391 . S
C956 C957 1.400 . S
C957 C951 1.491 . S
C957 C956 1.400 . S
C957 C958 1.398 . S
C958 H946 0.950 . S
C958 C957 1.398 . S
C958 C959 1.391 . S
C959 H947 0.950 . S
C959 C955 1.393 . S
C959 C958 1.391 . S
H960 C968 0.950 . S
H961 C973 0.950 . S
H962 C970 0.950 . S
H963 C972 0.950 . S
H964 C974 0.950 . S
H965 C976 0.950 . S
H966 C978 0.950 . S
H967 C979 0.950 . S
C968 H960 0.950 . S
C968 C969 1.386 . S
C968 C970 1.391 . S
C969 C968 1.386 . S
C969 C973 1.393 . S
C970 H962 0.950 . S
C970 C968 1.391 . S
C970 C971 1.400 . S
C971 C970 1.400 . S
C971 C972 1.398 . S
C971 C977 1.491 . S
C972 H963 0.950 . S
C972 C971 1.398 . S
C972 C973 1.391 . S
C973 H961 0.950 . S
C973 C969 1.393 . S
C973 C972 1.391 . S
C974 H964 0.950 . S
C974 C975 1.386 . S
C974 C976 1.391 . S
C975 C974 1.386 . S
C975 C979 1.393 . S
C976 H965 0.950 . S
C976 C974 1.391 . S
C976 C977 1.400 . S
C977 C971 1.491 . S
C977 C976 1.400 . S
C977 C978 1.398 . S
C978 H966 0.950 . S
C978 C977 1.398 . S
C978 C979 1.391 . S
C979 H967 0.950 . S
C979 C975 1.393 . S
C979 C978 1.391 . S
H980 C988 0.950 . S
H981 C993 0.950 . S
H982 C990 0.950 . S
H983 C992 0.950 . S
H984 C994 0.950 . S
H985 C996 0.950 . S
H986 C998 0.950 . S
H987 C999 0.950 . S
C988 H980 0.950 . S
C988 C989 1.386 . S
C988 C990 1.391 . S
C989 C988 1.386 . S
C989 C993 1.393 . S
C990 H982 0.950 . S
C990 C988 1.391 . S
C990 C991 1.400 . S
C991 C990 1.400 . S
C991 C992 1.398 . S
C991 C997 1.491 . S
C992 H983 0.950 . S
C992 C991 1.398 . S
C992 C993 1.391 . S
C993 H981 0.950 . S
C993 C989 1.393 . S
C993 C992 1.391 . S
C994 H984 0.950 . S
C994 C995 1.386 . S
C994 C996 1.391 . S
C995 C994 1.386 . S
C995 C999 1.393 . S
C996 H985 0.950 . S
C996 C994 1.391 . S
C996 C997 1.400 . S
C997 C991 1.491 . S
C997 C996 1.400 . S
C997 C998 1.398 . S
C998 H986 0.950 . S
C998 C997 1.398 . S
C998 C999 1.391 . S
C999 H987 0.950 . S
C999 C995 1.393 . S
C999 C998 1.391 . S
H1000 C1008 0.950 . S
H1001 C1013 0.950 . S
H1002 C1010 0.950 . S
H1003 C1012 0.950 . S
H1004 C1014 0.948 . S
H1005 C1016 0.950 . S
H1006 C1018 0.950 . S
H1007 C1019 0.950 . S
C1008 H1000 0.950 . S
C1008 C1009 1.386 . S
C1008 C1010 1.391 . S
C1009 C1008 1.386 . S
C1009 C1013 1.393 . S
C1010 H1002 0.950 . S
C1010 C1008 1.391 . S
C1010 C1011 1.400 . S
C1011 C1010 1.400 . S
C1011 C1012 1.398 . S
C1011 C1017 1.491 . S
C1012 H1003 0.950 . S
C1012 C1011 1.398 . S
C1012 C1013 1.391 . S
C1013 H1001 0.950 . S
C1013 C1009 1.393 . S
C1013 C1012 1.391 . S
C1014 H1004 0.948 . S
C1014 C1015 1.386 1_554 S
C1014 C1016 1.393 1_554 S
C1015 C1014 1.386 1_556 S
C1015 C1019 1.393 . S
C1016 H1005 0.950 . S
C1016 C1014 1.393 1_556 S
C1016 C1017 1.400 . S
C1017 C1011 1.491 . S
C1017 C1016 1.400 . S
C1017 C1018 1.398 . S
C1018 H1006 0.950 . S
C1018 C1017 1.398 . S
C1018 C1019 1.391 . S
C1019 H1007 0.950 . S
C1019 C1015 1.393 . S
C1019 C1018 1.391 . S
H1020 C1028 0.950 . S
H1021 C1033 0.950 . S
H1022 C1030 0.950 . S
H1023 C1032 0.950 . S
H1024 C1034 0.950 . S
H1025 C1036 0.950 . S
H1026 C1038 0.950 . S
H1027 C1039 0.950 . S
C1028 H1020 0.950 . S
C1028 C1029 1.386 . S
C1028 C1030 1.391 . S
C1029 C1028 1.386 . S
C1029 C1033 1.393 . S
C1030 H1022 0.950 . S
C1030 C1028 1.391 . S
C1030 C1031 1.400 . S
C1031 C1030 1.400 . S
C1031 C1032 1.398 . S
C1031 C1037 1.491 . S
C1032 H1023 0.950 . S
C1032 C1031 1.398 . S
C1032 C1033 1.391 . S
C1033 H1021 0.950 . S
C1033 C1029 1.393 . S
C1033 C1032 1.391 . S
C1034 H1024 0.950 . S
C1034 C1035 1.386 . S
C1034 C1036 1.391 . S
C1035 C1034 1.386 . S
C1035 C1039 1.393 . S
C1036 H1025 0.950 . S
C1036 C1034 1.391 . S
C1036 C1037 1.400 . S
C1037 C1031 1.491 . S
C1037 C1036 1.400 . S
C1037 C1038 1.398 . S
C1038 H1026 0.950 . S
C1038 C1037 1.398 . S
C1038 C1039 1.391 . S
C1039 H1027 0.950 . S
C1039 C1035 1.393 . S
C1039 C1038 1.391 . S
H1040 C1048 0.950 . S
H1041 C1053 0.950 . S
H1042 C1050 0.950 . S
H1043 C1052 0.950 . S
H1044 C1054 0.950 . S
H1045 C1056 0.950 . S
H1046 C1058 0.950 . S
H1047 C1059 0.950 . S
C1048 H1040 0.950 . S
C1048 C1049 1.386 1_565 S
C1048 C1050 1.391 . S
C1049 C1048 1.386 1_545 S
C1049 C1053 1.393 . S
C1050 H1042 0.950 . S
C1050 C1048 1.391 . S
C1050 C1051 1.400 1_565 S
C1051 C1050 1.400 1_545 S
C1051 C1052 1.398 . S
C1051 C1057 1.491 . S
C1052 H1043 0.950 . S
C1052 C1051 1.398 . S
C1052 C1053 1.391 . S
C1053 H1041 0.950 . S
C1053 C1049 1.393 . S
C1053 C1052 1.391 . S
C1054 H1044 0.950 . S
C1054 C1055 1.386 1_545 S
C1054 C1056 1.391 . S
C1055 C1054 1.386 1_565 S
C1055 C1059 1.393 . S
C1056 H1045 0.950 . S
C1056 C1054 1.391 . S
C1056 C1057 1.400 . S
C1057 C1051 1.491 . S
C1057 C1056 1.400 . S
C1057 C1058 1.398 1_545 S
C1058 H1046 0.950 . S
C1058 C1057 1.398 1_565 S
C1058 C1059 1.391 . S
C1059 H1047 0.950 . S
C1059 C1055 1.393 . S
C1059 C1058 1.391 . S
H1060 C1068 0.950 . S
H1061 C1073 0.950 . S
H1062 C1070 0.950 . S
H1063 C1072 0.950 . S
H1064 C1074 0.950 . S
H1065 C1076 0.950 . S
H1066 C1078 0.950 . S
H1067 C1079 0.950 . S
C1068 H1060 0.950 . S
C1068 C1069 1.386 . S
C1068 C1070 1.391 . S
C1069 C1068 1.386 . S
C1069 C1073 1.393 . S
C1070 H1062 0.950 . S
C1070 C1068 1.391 . S
C1070 C1071 1.400 . S
C1071 C1070 1.400 . S
C1071 C1072 1.398 . S
C1071 C1077 1.491 . S
C1072 H1063 0.950 . S
C1072 C1071 1.398 . S
C1072 C1073 1.391 . S
C1073 H1061 0.950 . S
C1073 C1069 1.393 . S
C1073 C1072 1.391 . S
C1074 H1064 0.950 . S
C1074 C1075 1.386 . S
C1074 C1076 1.391 . S
C1075 C1074 1.386 . S
C1075 C1079 1.393 . S
C1076 H1065 0.950 . S
C1076 C1074 1.391 . S
C1076 C1077 1.400 . S
C1077 C1071 1.491 . S
C1077 C1076 1.400 . S
C1077 C1078 1.398 . S
C1078 H1066 0.950 . S
C1078 C1077 1.398 . S
C1078 C1079 1.391 . S
C1079 H1067 0.950 . S
C1079 C1075 1.393 . S
C1079 C1078 1.391 . S
H1080 C1088 0.950 . S
H1081 C1093 0.950 . S
H1082 C1090 0.950 . S
H1083 C1092 0.950 . S
H1084 C1094 0.950 . S
H1085 C1096 0.950 . S
H1086 C1098 0.950 . S
H1087 C1099 0.950 . S
C1088 H1080 0.950 . S
C1088 C1089 1.386 . S
C1088 C1090 1.391 . S
C1089 C1088 1.386 . S
C1089 C1093 1.393 . S
C1090 H1082 0.950 . S
C1090 C1088 1.391 . S
C1090 C1091 1.400 . S
C1091 C1090 1.400 . S
C1091 C1092 1.398 . S
C1091 C1097 1.491 . S
C1092 H1083 0.950 . S
C1092 C1091 1.398 . S
C1092 C1093 1.391 . S
C1093 H1081 0.950 . S
C1093 C1089 1.393 . S
C1093 C1092 1.391 . S
C1094 H1084 0.950 . S
C1094 C1095 1.386 . S
C1094 C1096 1.391 . S
C1095 C1094 1.386 . S
C1095 C1099 1.393 . S
C1096 H1085 0.950 . S
C1096 C1094 1.391 . S
C1096 C1097 1.400 . S
C1097 C1091 1.491 . S
C1097 C1096 1.400 . S
C1097 C1098 1.398 . S
C1098 H1086 0.950 . S
C1098 C1097 1.398 . S
C1098 C1099 1.391 . S
C1099 H1087 0.950 . S
C1099 C1095 1.393 . S
C1099 C1098 1.391 . S
H1100 C1108 0.950 . S
H1101 C1113 0.950 . S
H1102 C1110 0.950 . S
H1103 C1112 0.950 . S
H1104 C1114 0.950 . S
H1105 C1116 0.950 . S
H1106 C1118 0.950 . S
H1107 C1119 0.950 . S
C1108 H1100 0.950 . S
C1108 C1109 1.386 . S
C1108 C1110 1.391 . S
C1109 C1108 1.386 . S
C1109 C1113 1.393 . S
C1110 H1102 0.950 . S
C1110 C1108 1.391 . S
C1110 C1111 1.400 . S
C1111 C1110 1.400 . S
C1111 C1112 1.398 . S
C1111 C1117 1.491 . S
C1112 H1103 0.950 . S
C1112 C1111 1.398 . S
C1112 C1113 1.391 . S
C1113 H1101 0.950 . S
C1113 C1109 1.393 . S
C1113 C1112 1.391 . S
C1114 H1104 0.950 . S
C1114 C1115 1.386 . S
C1114 C1116 1.391 . S
C1115 C1114 1.386 . S
C1115 C1119 1.393 . S
C1116 H1105 0.950 . S
C1116 C1114 1.391 . S
C1116 C1117 1.400 . S
C1117 C1111 1.491 . S
C1117 C1116 1.400 . S
C1117 C1118 1.398 . S
C1118 H1106 0.950 . S
C1118 C1117 1.398 . S
C1118 C1119 1.391 . S
C1119 H1107 0.950 . S
C1119 C1115 1.393 . S
C1119 C1118 1.391 . S
H1120 C1128 0.950 . S
H1121 C1133 0.950 1_565 S
H1122 C1130 0.950 . S
H1123 C1132 0.950 1_565 S
H1124 C1134 0.950 . S
H1125 C1136 0.950 1_565 S
H1126 C1138 0.950 . S
H1127 C1139 0.950 . S
C1128 H1120 0.950 . S
C1128 C1129 1.386 . S
C1128 C1130 1.391 . S
C1129 C1128 1.386 . S
C1129 C1133 1.393 . S
C1130 H1122 0.950 . S
C1130 C1128 1.391 . S
C1130 C1131 1.400 . S
C1131 C1130 1.400 . S
C1131 C1132 1.398 . S
C1131 C1137 1.491 . S
C1132 H1123 0.950 1_545 S
C1132 C1131 1.398 . S
C1132 C1133 1.391 . S
C1133 H1121 0.950 1_545 S
C1133 C1129 1.393 . S
C1133 C1132 1.391 . S
C1134 H1124 0.950 . S
C1134 C1135 1.386 . S
C1134 C1136 1.391 . S
C1135 C1134 1.386 . S
C1135 C1139 1.393 . S
C1136 H1125 0.950 1_545 S
C1136 C1134 1.391 . S
C1136 C1137 1.400 . S
C1137 C1131 1.491 . S
C1137 C1136 1.400 . S
C1137 C1138 1.398 . S
C1138 H1126 0.950 . S
C1138 C1137 1.398 . S
C1138 C1139 1.391 . S
C1139 H1127 0.950 . S
C1139 C1135 1.393 . S
C1139 C1138 1.391 . S
H1140 C1148 0.950 . S
H1141 C1153 0.950 . S
H1142 C1150 0.950 . S
H1143 C1152 0.950 . S
H1144 C1154 0.950 . S
H1145 C1156 0.950 . S
H1146 C1158 0.950 . S
H1147 C1159 0.950 . S
C1148 H1140 0.950 . S
C1148 C1149 1.386 . S
C1148 C1150 1.391 . S
C1149 C1148 1.386 . S
C1149 C1153 1.393 . S
C1150 H1142 0.950 . S
C1150 C1148 1.391 . S
C1150 C1151 1.400 . S
C1151 C1150 1.400 . S
C1151 C1152 1.398 . S
C1151 C1157 1.491 . S
C1152 H1143 0.950 . S
C1152 C1151 1.398 . S
C1152 C1153 1.391 . S
C1153 H1141 0.950 . S
C1153 C1149 1.393 . S
C1153 C1152 1.391 . S
C1154 H1144 0.950 . S
C1154 C1155 1.386 . S
C1154 C1156 1.391 . S
C1155 C1154 1.386 . S
C1155 C1159 1.393 . S
C1156 H1145 0.950 . S
C1156 C1154 1.391 . S
C1156 C1157 1.400 . S
C1157 C1151 1.491 . S
C1157 C1156 1.400 . S
C1157 C1158 1.398 . S
C1158 H1146 0.950 . S
C1158 C1157 1.398 . S
C1158 C1159 1.391 . S
C1159 H1147 0.950 . S
C1159 C1155 1.393 . S
C1159 C1158 1.391 . S
H1160 C1168 0.950 . S
H1161 C1173 0.950 . S
H1162 C1170 0.950 . S
H1163 C1172 0.950 . S
H1164 C1174 0.950 . S
H1165 C1176 0.950 . S
H1166 C1178 0.950 . S
H1167 C1179 0.950 . S
C1168 H1160 0.950 . S
C1168 C1169 1.386 1_565 S
C1168 C1170 1.391 . S
C1169 C1168 1.386 1_545 S
C1169 C1173 1.393 . S
C1170 H1162 0.950 . S
C1170 C1168 1.391 . S
C1170 C1171 1.400 . S
C1171 C1170 1.400 . S
C1171 C1172 1.398 1_565 S
C1171 C1177 1.491 . S
C1172 H1163 0.950 . S
C1172 C1171 1.398 1_545 S
C1172 C1173 1.391 . S
C1173 H1161 0.950 . S
C1173 C1169 1.393 . S
C1173 C1172 1.391 . S
C1174 H1164 0.950 . S
C1174 C1175 1.386 1_545 S
C1174 C1176 1.391 . S
C1175 C1174 1.386 1_565 S
C1175 C1179 1.393 . S
C1176 H1165 0.950 . S
C1176 C1174 1.391 . S
C1176 C1177 1.400 1_545 S
C1177 C1171 1.491 . S
C1177 C1176 1.400 1_565 S
C1177 C1178 1.398 . S
C1178 H1166 0.950 . S
C1178 C1177 1.398 . S
C1178 C1179 1.391 . S
C1179 H1167 0.950 . S
C1179 C1175 1.393 . S
C1179 C1178 1.391 . S
H1180 C1188 0.950 . S
H1181 C1193 0.950 . S
H1182 C1190 0.950 . S
H1183 C1192 0.950 . S
H1184 C1194 0.950 . S
H1185 C1196 0.950 . S
H1186 C1198 0.950 . S
H1187 C1199 0.950 . S
C1188 H1180 0.950 . S
C1188 C1189 1.386 . S
C1188 C1190 1.391 . S
C1189 C1188 1.386 . S
C1189 C1193 1.393 . S
C1190 H1182 0.950 . S
C1190 C1188 1.391 . S
C1190 C1191 1.400 . S
C1191 C1190 1.400 . S
C1191 C1192 1.398 . S
C1191 C1197 1.491 . S
C1192 H1183 0.950 . S
C1192 C1191 1.398 . S
C1192 C1193 1.391 . S
C1193 H1181 0.950 . S
C1193 C1189 1.393 . S
C1193 C1192 1.391 . S
C1194 H1184 0.950 . S
C1194 C1195 1.386 . S
C1194 C1196 1.391 . S
C1195 C1194 1.386 . S
C1195 C1199 1.393 . S
C1196 H1185 0.950 . S
C1196 C1194 1.391 . S
C1196 C1197 1.400 . S
C1197 C1191 1.491 . S
C1197 C1196 1.400 . S
C1197 C1198 1.398 . S
C1198 H1186 0.950 . S
C1198 C1197 1.398 . S
C1198 C1199 1.391 . S
C1199 H1187 0.950 . S
C1199 C1195 1.393 . S
C1199 C1198 1.391 . S
H1200 C1208 0.950 1_556 S
H1201 C1213 0.950 . S
H1202 C1210 0.998 . S
H1203 C1212 0.950 . S
H1204 C1214 0.950 . S
H1205 C1216 0.950 . S
H1206 C1218 0.950 . S
H1207 C1219 0.950 . S
C1208 H1200 0.950 1_554 S
C1208 C1209 1.386 . S
C1208 C1210 1.383 1_554 S
C1209 C1208 1.386 . S
C1209 C1213 1.393 . S
C1210 H1202 0.998 . S
C1210 C1208 1.383 1_556 S
C1210 C1211 1.363 1_556 S
C1211 C1210 1.363 1_554 S
C1211 C1212 1.398 . S
C1211 C1217 1.491 . S
C1212 H1203 0.950 . S
C1212 C1211 1.398 . S
C1212 C1213 1.391 . S
C1213 H1201 0.950 . S
C1213 C1209 1.393 . S
C1213 C1212 1.391 . S
C1214 H1204 0.950 . S
C1214 C1215 1.351 1_554 S
C1214 C1216 1.391 . S
C1215 C1214 1.351 1_556 S
C1215 C1219 1.421 . S
C1216 H1205 0.950 . S
C1216 C1214 1.391 . S
C1216 C1217 1.400 . S
C1217 C1211 1.491 . S
C1217 C1216 1.400 . S
C1217 C1218 1.398 1_554 S
C1218 H1206 0.950 . S
C1218 C1217 1.398 1_556 S
C1218 C1219 1.391 . S
C1219 H1207 0.950 . S
C1219 C1215 1.421 . S
C1219 C1218 1.391 . S
H1220 C1228 0.950 . S
H1221 C1233 0.950 . S
H1222 C1230 0.950 . S
H1223 C1232 0.950 . S
H1224 C1234 0.950 . S
H1225 C1236 0.950 . S
H1226 C1238 0.950 . S
H1227 C1239 0.950 . S
C1228 H1220 0.950 . S
C1228 C1229 1.386 . S
C1228 C1230 1.391 . S
C1229 C1228 1.386 . S
C1229 C1233 1.393 . S
C1230 H1222 0.950 . S
C1230 C1228 1.391 . S
C1230 C1231 1.400 . S
C1231 C1230 1.400 . S
C1231 C1232 1.398 . S
C1231 C1237 1.491 . S
C1232 H1223 0.950 . S
C1232 C1231 1.398 . S
C1232 C1233 1.391 . S
C1233 H1221 0.950 . S
C1233 C1229 1.393 . S
C1233 C1232 1.391 . S
C1234 H1224 0.950 . S
C1234 C1235 1.386 . S
C1234 C1236 1.391 . S
C1235 C1234 1.386 . S
C1235 C1239 1.393 . S
C1236 H1225 0.950 . S
C1236 C1234 1.391 . S
C1236 C1237 1.400 . S
C1237 C1231 1.491 . S
C1237 C1236 1.400 . S
C1237 C1238 1.398 . S
C1238 H1226 0.950 . S
C1238 C1237 1.398 . S
C1238 C1239 1.391 . S
C1239 H1227 0.950 . S
C1239 C1235 1.393 . S
C1239 C1238 1.391 . S
H1240 C1248 0.950 . S
H1241 C1253 0.950 . S
H1242 C1250 0.950 . S
H1243 C1252 0.950 . S
H1244 C1254 0.950 . S
H1245 C1256 0.950 . S
H1246 C1258 0.950 . S
H1247 C1259 0.950 . S
C1248 H1240 0.950 . S
C1248 C1249 1.386 . S
C1248 C1250 1.391 . S
C1249 C1248 1.386 . S
C1249 C1253 1.393 . S
C1250 H1242 0.950 . S
C1250 C1248 1.391 . S
C1250 C1251 1.400 . S
C1251 C1250 1.400 . S
C1251 C1252 1.398 . S
C1251 C1257 1.491 . S
C1252 H1243 0.950 . S
C1252 C1251 1.398 . S
C1252 C1253 1.391 . S
C1253 H1241 0.950 . S
C1253 C1249 1.393 . S
C1253 C1252 1.391 . S
C1254 H1244 0.950 . S
C1254 C1255 1.386 . S
C1254 C1256 1.391 . S
C1255 C1254 1.386 . S
C1255 C1259 1.393 . S
C1256 H1245 0.950 . S
C1256 C1254 1.391 . S
C1256 C1257 1.400 . S
C1257 C1251 1.491 . S
C1257 C1256 1.400 . S
C1257 C1258 1.398 . S
C1258 H1246 0.950 . S
C1258 C1257 1.398 . S
C1258 C1259 1.391 . S
C1259 H1247 0.950 . S
C1259 C1255 1.393 . S
C1259 C1258 1.391 . S
H1260 C1268 0.950 . S
H1261 C1273 0.950 . S
H1262 C1270 0.950 . S
H1263 C1272 0.950 . S
H1264 C1274 0.950 . S
H1265 C1276 0.950 . S
H1266 C1278 0.950 . S
H1267 C1279 0.950 . S
C1268 H1260 0.950 . S
C1268 C1269 1.386 . S
C1268 C1270 1.391 . S
C1269 C1268 1.386 . S
C1269 C1273 1.393 . S
C1270 H1262 0.950 . S
C1270 C1268 1.391 . S
C1270 C1271 1.400 . S
C1271 C1270 1.400 . S
C1271 C1272 1.398 . S
C1271 C1277 1.491 . S
C1272 H1263 0.950 . S
C1272 C1271 1.398 . S
C1272 C1273 1.391 . S
C1273 H1261 0.950 . S
C1273 C1269 1.393 . S
C1273 C1272 1.391 . S
C1274 H1264 0.950 . S
C1274 C1275 1.386 . S
C1274 C1276 1.391 . S
C1275 C1274 1.386 . S
C1275 C1279 1.393 . S
C1276 H1265 0.950 . S
C1276 C1274 1.391 . S
C1276 C1277 1.400 . S
C1277 C1271 1.491 . S
C1277 C1276 1.400 . S
C1277 C1278 1.398 . S
C1278 H1266 0.950 . S
C1278 C1277 1.398 . S
C1278 C1279 1.391 . S
C1279 H1267 0.950 . S
C1279 C1275 1.393 . S
C1279 C1278 1.391 . S
H1280 C1288 0.950 . S
H1281 C1293 0.950 . S
H1282 C1290 0.950 . S
H1283 C1292 0.950 . S
H1284 C1294 0.950 . S
H1285 C1296 0.950 . S
H1286 C1298 0.950 . S
H1287 C1299 0.950 . S
C1288 H1280 0.950 . S
C1288 C1289 1.386 . S
C1288 C1290 1.391 . S
C1289 C1288 1.386 . S
C1289 C1293 1.393 . S
C1290 H1282 0.950 . S
C1290 C1288 1.391 . S
C1290 C1291 1.400 . S
C1291 C1290 1.400 . S
C1291 C1292 1.398 . S
C1291 C1297 1.491 . S
C1292 H1283 0.950 . S
C1292 C1291 1.398 . S
C1292 C1293 1.391 . S
C1293 H1281 0.950 . S
C1293 C1289 1.393 . S
C1293 C1292 1.391 . S
C1294 H1284 0.950 . S
C1294 C1295 1.386 . S
C1294 C1296 1.391 . S
C1295 C1294 1.386 . S
C1295 C1299 1.393 . S
C1296 H1285 0.950 . S
C1296 C1294 1.391 . S
C1296 C1297 1.400 . S
C1297 C1291 1.491 . S
C1297 C1296 1.400 . S
C1297 C1298 1.398 . S
C1298 H1286 0.950 . S
C1298 C1297 1.398 . S
C1298 C1299 1.391 . S
C1299 H1287 0.950 . S
C1299 C1295 1.393 . S
C1299 C1298 1.391 . S
H1300 C1308 0.950 . S
H1301 C1313 0.950 . S
H1302 C1310 0.950 . S
H1303 C1312 0.950 . S
H1304 C1314 0.950 . S
H1305 C1316 0.950 . S
H1306 C1318 0.950 . S
H1307 C1319 0.950 . S
C1308 H1300 0.950 . S
C1308 C1309 1.386 . S
C1308 C1310 1.391 . S
C1309 C1308 1.386 . S
C1309 C1313 1.393 . S
C1310 H1302 0.950 . S
C1310 C1308 1.391 . S
C1310 C1311 1.400 . S
C1311 C1310 1.400 . S
C1311 C1312 1.398 . S
C1311 C1317 1.491 . S
C1312 H1303 0.950 . S
C1312 C1311 1.398 . S
C1312 C1313 1.391 . S
C1313 H1301 0.950 . S
C1313 C1309 1.393 . S
C1313 C1312 1.391 . S
C1314 H1304 0.950 . S
C1314 C1315 1.386 . S
C1314 C1316 1.391 . S
C1315 C1314 1.386 . S
C1315 C1319 1.393 . S
C1316 H1305 0.950 . S
C1316 C1314 1.391 . S
C1316 C1317 1.400 . S
C1317 C1311 1.491 . S
C1317 C1316 1.400 . S
C1317 C1318 1.398 . S
C1318 H1306 0.950 . S
C1318 C1317 1.398 . S
C1318 C1319 1.391 . S
C1319 H1307 0.950 . S
C1319 C1315 1.393 . S
C1319 C1318 1.391 . S
H1320 C1328 0.950 . S
H1321 C1333 0.950 . S
H1322 C1330 0.950 . S
H1323 C1332 0.950 . S
H1324 C1334 0.950 . S
H1325 C1336 0.950 . S
H1326 C1338 0.950 . S
H1327 C1339 0.950 . S
C1328 H1320 0.950 . S
C1328 C1329 1.386 . S
C1328 C1330 1.391 . S
C1329 C1328 1.386 . S
C1329 C1333 1.393 . S
C1330 H1322 0.950 . S
C1330 C1328 1.391 . S
C1330 C1331 1.400 . S
C1331 C1330 1.400 . S
C1331 C1332 1.398 . S
C1331 C1337 1.491 . S
C1332 H1323 0.950 . S
C1332 C1331 1.398 . S
C1332 C1333 1.391 . S
C1333 H1321 0.950 . S
C1333 C1329 1.393 . S
C1333 C1332 1.391 . S
C1334 H1324 0.950 . S
C1334 C1335 1.386 . S
C1334 C1336 1.391 . S
C1335 C1334 1.386 . S
C1335 C1339 1.393 . S
C1336 H1325 0.950 . S
C1336 C1334 1.391 . S
C1336 C1337 1.400 . S
C1337 C1331 1.491 . S
C1337 C1336 1.400 . S
C1337 C1338 1.398 . S
C1338 H1326 0.950 . S
C1338 C1337 1.398 . S
C1338 C1339 1.391 . S
C1339 H1327 0.950 . S
C1339 C1335 1.393 . S
C1339 C1338 1.391 . S
H1340 C1348 0.950 . S
H1341 C1353 0.950 . S
H1342 C1350 0.950 . S
H1343 C1352 0.950 . S
H1344 C1354 0.950 . S
H1345 C1356 0.950 . S
H1346 C1358 0.950 . S
H1347 C1359 0.950 . S
C1348 H1340 0.950 . S
C1348 C1349 1.386 . S
C1348 C1350 1.391 . S
C1349 C1348 1.386 . S
C1349 C1353 1.393 . S
C1350 H1342 0.950 . S
C1350 C1348 1.391 . S
C1350 C1351 1.400 . S
C1351 C1350 1.400 . S
C1351 C1352 1.398 . S
C1351 C1357 1.491 . S
C1352 H1343 0.950 . S
C1352 C1351 1.398 . S
C1352 C1353 1.391 . S
C1353 H1341 0.950 . S
C1353 C1349 1.393 . S
C1353 C1352 1.391 . S
C1354 H1344 0.950 . S
C1354 C1355 1.386 . S
C1354 C1356 1.391 . S
C1355 C1354 1.386 . S
C1355 C1359 1.393 . S
C1356 H1345 0.950 . S
C1356 C1354 1.391 . S
C1356 C1357 1.400 . S
C1357 C1351 1.491 . S
C1357 C1356 1.400 . S
C1357 C1358 1.398 . S
C1358 H1346 0.950 . S
C1358 C1357 1.398 . S
C1358 C1359 1.391 . S
C1359 H1347 0.950 . S
C1359 C1355 1.393 . S
C1359 C1358 1.391 . S
H1360 C1368 0.950 . S
H1361 C1373 0.950 . S
H1362 C1370 0.950 . S
H1363 C1372 0.950 . S
H1364 C1374 0.950 . S
H1365 C1376 0.950 . S
H1366 C1378 0.950 . S
H1367 C1379 0.950 . S
C1368 H1360 0.950 . S
C1368 C1369 1.386 1_655 S
C1368 C1370 1.391 1_655 S
C1369 C1368 1.386 1_455 S
C1369 C1373 1.393 . S
C1370 H1362 0.950 . S
C1370 C1368 1.391 1_455 S
C1370 C1371 1.400 . S
C1371 C1370 1.400 . S
C1371 C1372 1.398 . S
C1371 C1377 1.491 . S
C1372 H1363 0.950 . S
C1372 C1371 1.398 . S
C1372 C1373 1.391 . S
C1373 H1361 0.950 . S
C1373 C1369 1.393 . S
C1373 C1372 1.391 . S
C1374 H1364 0.950 . S
C1374 C1375 1.386 1_554 S
C1374 C1376 1.391 1_554 S
C1375 C1374 1.386 1_556 S
C1375 C1379 1.393 . S
C1376 H1365 0.950 . S
C1376 C1374 1.391 1_556 S
C1376 C1377 1.400 . S
C1377 C1371 1.491 . S
C1377 C1376 1.400 . S
C1377 C1378 1.398 . S
C1378 H1366 0.950 . S
C1378 C1377 1.398 . S
C1378 C1379 1.391 . S
C1379 H1367 0.950 . S
C1379 C1375 1.393 . S
C1379 C1378 1.391 . S
H1380 C1388 0.950 . S
H1381 C1393 0.950 . S
H1382 C1390 0.950 . S
H1383 C1392 0.950 . S
H1384 C1394 0.950 . S
H1385 C1396 0.950 . S
H1386 C1398 0.950 . S
H1387 C1399 0.950 . S
C1388 H1380 0.950 . S
C1388 C1389 1.386 . S
C1388 C1390 1.391 . S
C1389 C1388 1.386 . S
C1389 C1393 1.393 . S
C1390 H1382 0.950 . S
C1390 C1388 1.391 . S
C1390 C1391 1.400 . S
C1391 C1390 1.400 . S
C1391 C1392 1.398 . S
C1391 C1397 1.491 . S
C1392 H1383 0.950 . S
C1392 C1391 1.398 . S
C1392 C1393 1.391 . S
C1393 H1381 0.950 . S
C1393 C1389 1.393 . S
C1393 C1392 1.391 . S
C1394 H1384 0.950 . S
C1394 C1395 1.386 . S
C1394 C1396 1.391 . S
C1395 C1394 1.386 . S
C1395 C1399 1.393 . S
C1396 H1385 0.950 . S
C1396 C1394 1.391 . S
C1396 C1397 1.400 . S
C1397 C1391 1.491 . S
C1397 C1396 1.400 . S
C1397 C1398 1.398 . S
C1398 H1386 0.950 . S
C1398 C1397 1.398 . S
C1398 C1399 1.391 . S
C1399 H1387 0.950 . S
C1399 C1395 1.393 . S
C1399 C1398 1.391 . S
H1400 C1408 0.950 . S
H1401 C1413 0.950 . S
H1402 C1410 0.950 . S
H1403 C1412 0.950 . S
H1404 C1414 0.950 . S
H1405 C1416 0.950 . S
H1406 C1418 0.950 . S
H1407 C1419 0.950 . S
C1408 H1400 0.950 . S
C1408 C1409 1.386 . S
C1408 C1410 1.391 . S
C1409 C1408 1.386 . S
C1409 C1413 1.393 . S
C1410 H1402 0.950 . S
C1410 C1408 1.391 . S
C1410 C1411 1.400 . S
C1411 C1410 1.400 . S
C1411 C1412 1.398 . S
C1411 C1417 1.491 . S
C1412 H1403 0.950 . S
C1412 C1411 1.398 . S
C1412 C1413 1.391 . S
C1413 H1401 0.950 . S
C1413 C1409 1.393 . S
C1413 C1412 1.391 . S
C1414 H1404 0.950 . S
C1414 C1415 1.386 . S
C1414 C1416 1.391 . S
C1415 C1414 1.386 . S
C1415 C1419 1.393 . S
C1416 H1405 0.950 . S
C1416 C1414 1.391 . S
C1416 C1417 1.400 . S
C1417 C1411 1.491 . S
C1417 C1416 1.400 . S
C1417 C1418 1.398 . S
C1418 H1406 0.950 . S
C1418 C1417 1.398 . S
C1418 C1419 1.391 . S
C1419 H1407 0.950 . S
C1419 C1415 1.393 . S
C1419 C1418 1.391 . S
H1420 C1428 0.950 . S
H1421 C1433 0.950 . S
H1422 C1430 0.950 . S
H1423 C1432 0.950 . S
H1424 C1434 0.950 . S
H1425 C1436 0.950 . S
H1426 C1438 0.950 . S
H1427 C1439 0.950 . S
C1428 H1420 0.950 . S
C1428 C1429 1.386 . S
C1428 C1430 1.391 . S
C1429 C1428 1.386 . S
C1429 C1433 1.393 . S
C1430 H1422 0.950 . S
C1430 C1428 1.391 . S
C1430 C1431 1.400 . S
C1431 C1430 1.400 . S
C1431 C1432 1.398 . S
C1431 C1437 1.491 . S
C1432 H1423 0.950 . S
C1432 C1431 1.398 . S
C1432 C1433 1.391 . S
C1433 H1421 0.950 . S
C1433 C1429 1.393 . S
C1433 C1432 1.391 . S
C1434 H1424 0.950 . S
C1434 C1435 1.386 . S
C1434 C1436 1.391 . S
C1435 C1434 1.386 . S
C1435 C1439 1.393 . S
C1436 H1425 0.950 . S
C1436 C1434 1.391 . S
C1436 C1437 1.400 . S
C1437 C1431 1.491 . S
C1437 C1436 1.400 . S
C1437 C1438 1.398 . S
C1438 H1426 0.950 . S
C1438 C1437 1.398 . S
C1438 C1439 1.391 . S
C1439 H1427 0.950 . S
C1439 C1435 1.393 . S
C1439 C1438 1.391 . S
H1440 C1448 0.950 1_655 S
H1441 C1453 0.950 . S
H1442 C1450 0.950 1_655 S
H1443 C1452 0.950 . S
H1444 C1454 0.950 . S
H1445 C1456 0.950 . S
H1446 C1458 0.963 . S
H1447 C1459 0.950 . S
C1448 H1440 0.950 1_455 S
C1448 C1449 1.386 . S
C1448 C1450 1.391 . S
C1449 C1448 1.386 . S
C1449 C1453 1.393 . S
C1450 H1442 0.950 1_455 S
C1450 C1448 1.391 . S
C1450 C1451 1.400 . S
C1451 C1450 1.400 . S
C1451 C1452 1.398 . S
C1451 C1457 1.491 . S
C1452 H1443 0.950 . S
C1452 C1451 1.398 . S
C1452 C1453 1.391 . S
C1453 H1441 0.950 . S
C1453 C1449 1.393 . S
C1453 C1452 1.391 . S
C1454 H1444 0.950 . S
C1454 C1455 1.386 . S
C1454 C1456 1.391 . S
C1455 C1454 1.386 . S
C1455 C1459 1.393 . S
C1456 H1445 0.950 . S
C1456 C1454 1.391 . S
C1456 C1457 1.400 . S
C1457 C1451 1.491 . S
C1457 C1456 1.400 . S
C1457 C1458 1.398 . S
C1458 H1446 0.963 . S
C1458 C1457 1.398 . S
C1458 C1459 1.391 . S
C1459 H1447 0.950 . S
C1459 C1455 1.393 . S
C1459 C1458 1.391 . S
H1460 C1468 0.950 . S
H1461 C1473 0.950 . S
H1462 C1470 0.950 . S
H1463 C1472 0.950 . S
H1464 C1474 0.950 . S
H1465 C1476 0.950 . S
H1466 C1478 0.950 . S
H1467 C1479 0.950 . S
C1468 H1460 0.950 . S
C1468 C1469 1.386 . S
C1468 C1470 1.391 . S
C1469 C1468 1.386 . S
C1469 C1473 1.393 . S
C1470 H1462 0.950 . S
C1470 C1468 1.391 . S
C1470 C1471 1.400 . S
C1471 C1470 1.400 . S
C1471 C1472 1.398 . S
C1471 C1477 1.491 . S
C1472 H1463 0.950 . S
C1472 C1471 1.398 . S
C1472 C1473 1.391 . S
C1473 H1461 0.950 . S
C1473 C1469 1.393 . S
C1473 C1472 1.391 . S
C1474 H1464 0.950 . S
C1474 C1475 1.386 . S
C1474 C1476 1.391 . S
C1475 C1474 1.386 . S
C1475 C1479 1.393 . S
C1476 H1465 0.950 . S
C1476 C1474 1.391 . S
C1476 C1477 1.400 . S
C1477 C1471 1.491 . S
C1477 C1476 1.400 . S
C1477 C1478 1.398 . S
C1478 H1466 0.950 . S
C1478 C1477 1.398 . S
C1478 C1479 1.391 . S
C1479 H1467 0.950 . S
C1479 C1475 1.393 . S
C1479 C1478 1.391 . S
H1480 C1488 0.950 . S
H1481 C1493 0.950 . S
H1482 C1490 0.950 . S
H1483 C1492 0.950 . S
H1484 C1494 0.950 . S
H1485 C1496 0.950 . S
H1486 C1498 0.950 . S
H1487 C1499 0.950 . S
C1488 H1480 0.950 . S
C1488 C1489 1.386 . S
C1488 C1490 1.391 . S
C1489 C1488 1.386 . S
C1489 C1493 1.393 . S
C1490 H1482 0.950 . S
C1490 C1488 1.391 . S
C1490 C1491 1.400 . S
C1491 C1490 1.400 . S
C1491 C1492 1.398 . S
C1491 C1497 1.491 . S
C1492 H1483 0.950 . S
C1492 C1491 1.398 . S
C1492 C1493 1.391 . S
C1493 H1481 0.950 . S
C1493 C1489 1.393 . S
C1493 C1492 1.391 . S
C1494 H1484 0.950 . S
C1494 C1495 1.386 . S
C1494 C1496 1.391 . S
C1495 C1494 1.386 . S
C1495 C1499 1.393 . S
C1496 H1485 0.950 . S
C1496 C1494 1.391 . S
C1496 C1497 1.400 . S
C1497 C1491 1.491 . S
C1497 C1496 1.400 . S
C1497 C1498 1.398 . S
C1498 H1486 0.950 . S
C1498 C1497 1.398 . S
C1498 C1499 1.391 . S
C1499 H1487 0.950 . S
C1499 C1495 1.393 . S
C1499 C1498 1.391 . S
H1500 C1508 0.950 . S
H1501 C1513 0.950 . S
H1502 C1510 0.950 . S
H1503 C1512 0.950 . S
H1504 C1514 0.950 . S
H1505 C1516 0.950 . S
H1506 C1518 0.950 . S
H1507 C1519 0.950 . S
C1508 H1500 0.950 . S
C1508 C1509 1.386 . S
C1508 C1510 1.391 . S
C1509 C1508 1.386 . S
C1509 C1513 1.393 . S
C1510 H1502 0.950 . S
C1510 C1508 1.391 . S
C1510 C1511 1.400 . S
C1511 C1510 1.400 . S
C1511 C1512 1.398 . S
C1511 C1517 1.491 . S
C1512 H1503 0.950 . S
C1512 C1511 1.398 . S
C1512 C1513 1.391 . S
C1513 H1501 0.950 . S
C1513 C1509 1.393 . S
C1513 C1512 1.391 . S
C1514 H1504 0.950 . S
C1514 C1515 1.386 . S
C1514 C1516 1.391 . S
C1515 C1514 1.386 . S
C1515 C1519 1.393 . S
C1516 H1505 0.950 . S
C1516 C1514 1.391 . S
C1516 C1517 1.400 . S
C1517 C1511 1.491 . S
C1517 C1516 1.400 . S
C1517 C1518 1.398 . S
C1518 H1506 0.950 . S
C1518 C1517 1.398 . S
C1518 C1519 1.391 . S
C1519 H1507 0.950 . S
C1519 C1515 1.393 . S
C1519 C1518 1.391 . S
H1520 C1528 0.950 . S
H1521 C1533 0.950 . S
H1522 C1530 0.950 . S
H1523 C1532 0.950 . S
H1524 C1534 0.970 . S
H1525 C1536 0.950 . S
H1526 C1538 0.987 . S
H1527 C1539 0.950 1_565 S
C1528 H1520 0.950 . S
C1528 C1529 1.386 1_565 S
C1528 C1530 1.391 . S
C1529 C1528 1.386 1_545 S
C1529 C1533 1.393 . S
C1530 H1522 0.950 . S
C1530 C1528 1.391 . S
C1530 C1531 1.400 1_565 S
C1531 C1530 1.400 1_545 S
C1531 C1532 1.398 . S
C1531 C1537 1.491 . S
C1532 H1523 0.950 . S
C1532 C1531 1.398 . S
C1532 C1533 1.391 . S
C1533 H1521 0.950 . S
C1533 C1529 1.393 . S
C1533 C1532 1.391 . S
C1534 H1524 0.970 . S
C1534 C1535 1.389 . S
C1534 C1536 1.371 1_455 S
C1535 C1534 1.389 . S
C1535 C1539 1.393 1_455 S
C1536 H1525 0.950 . S
C1536 C1534 1.371 1_655 S
C1536 C1537 1.400 . S
C1537 C1531 1.491 . S
C1537 C1536 1.400 . S
C1537 C1538 1.367 1_545 S
C1538 H1526 0.987 . S
C1538 C1537 1.367 1_565 S
C1538 C1539 1.387 1_565 S
C1539 H1527 0.950 1_545 S
C1539 C1535 1.393 1_655 S
C1539 C1538 1.387 1_545 S
H1540 C1548 0.950 . S
H1541 C1553 0.950 . S
H1542 C1550 0.950 . S
H1543 C1552 0.950 . S
H1544 C1554 0.950 . S
H1545 C1556 0.950 . S
H1546 C1558 0.950 . S
H1547 C1559 0.950 . S
C1548 H1540 0.950 . S
C1548 C1549 1.386 . S
C1548 C1550 1.391 . S
C1549 C1548 1.386 . S
C1549 C1553 1.393 . S
C1550 H1542 0.950 . S
C1550 C1548 1.391 . S
C1550 C1551 1.400 . S
C1551 C1550 1.400 . S
C1551 C1552 1.398 . S
C1551 C1557 1.491 . S
C1552 H1543 0.950 . S
C1552 C1551 1.398 . S
C1552 C1553 1.391 . S
C1553 H1541 0.950 . S
C1553 C1549 1.393 . S
C1553 C1552 1.391 . S
C1554 H1544 0.950 . S
C1554 C1555 1.386 . S
C1554 C1556 1.391 . S
C1555 C1554 1.386 . S
C1555 C1559 1.393 . S
C1556 H1545 0.950 . S
C1556 C1554 1.391 . S
C1556 C1557 1.400 . S
C1557 C1551 1.491 . S
C1557 C1556 1.400 . S
C1557 C1558 1.398 . S
C1558 H1546 0.950 . S
C1558 C1557 1.398 . S
C1558 C1559 1.391 . S
C1559 H1547 0.950 . S
C1559 C1555 1.393 . S
C1559 C1558 1.391 . S
H1560 C1568 0.950 . S
H1561 C1573 0.950 . S
H1562 C1570 0.950 . S
H1563 C1572 0.950 . S
H1564 C1574 0.950 . S
H1565 C1576 0.950 . S
H1566 C1578 0.950 . S
H1567 C1579 0.950 . S
C1568 H1560 0.950 . S
C1568 C1569 1.386 1_565 S
C1568 C1570 1.391 . S
C1569 C1568 1.386 1_545 S
C1569 C1573 1.393 . S
C1570 H1562 0.950 . S
C1570 C1568 1.391 . S
C1570 C1571 1.400 1_565 S
C1571 C1570 1.400 1_545 S
C1571 C1572 1.398 . S
C1571 C1577 1.491 . S
C1572 H1563 0.950 . S
C1572 C1571 1.398 . S
C1572 C1573 1.391 . S
C1573 H1561 0.950 . S
C1573 C1569 1.393 . S
C1573 C1572 1.391 . S
C1574 H1564 0.950 . S
C1574 C1575 1.418 . S
C1574 C1576 1.391 . S
C1575 C1574 1.418 . S
C1575 C1579 1.365 1_545 S
C1576 H1565 0.950 . S
C1576 C1574 1.391 . S
C1576 C1577 1.400 . S
C1577 C1571 1.491 . S
C1577 C1576 1.400 . S
C1577 C1578 1.398 1_545 S
C1578 H1566 0.950 . S
C1578 C1577 1.398 1_565 S
C1578 C1579 1.391 . S
C1579 H1567 0.950 . S
C1579 C1575 1.365 1_565 S
C1579 C1578 1.391 . S
H1580 C1588 0.950 . S
H1581 C1593 0.950 . S
H1582 C1590 0.950 . S
H1583 C1592 0.950 . S
H1584 C1594 0.950 . S
H1585 C1596 0.950 . S
H1586 C1598 0.950 . S
H1587 C1599 0.950 . S
C1588 H1580 0.950 . S
C1588 C1589 1.386 . S
C1588 C1590 1.391 . S
C1589 C1588 1.386 . S
C1589 C1593 1.393 . S
C1590 H1582 0.950 . S
C1590 C1588 1.391 . S
C1590 C1591 1.400 . S
C1591 C1590 1.400 . S
C1591 C1592 1.398 . S
C1591 C1597 1.491 . S
C1592 H1583 0.950 . S
C1592 C1591 1.398 . S
C1592 C1593 1.391 . S
C1593 H1581 0.950 . S
C1593 C1589 1.393 . S
C1593 C1592 1.391 . S
C1594 H1584 0.950 . S
C1594 C1595 1.386 . S
C1594 C1596 1.391 . S
C1595 C1594 1.386 . S
C1595 C1599 1.393 . S
C1596 H1585 0.950 . S
C1596 C1594 1.391 . S
C1596 C1597 1.400 . S
C1597 C1591 1.491 . S
C1597 C1596 1.400 . S
C1597 C1598 1.398 . S
C1598 H1586 0.950 . S
C1598 C1597 1.398 . S
C1598 C1599 1.391 . S
C1599 H1587 0.950 . S
C1599 C1595 1.393 . S
C1599 C1598 1.391 . S
H1600 C1608 0.950 . S
H1601 C1613 0.949 . S
H1602 C1610 0.950 1_545 S
H1603 C1612 0.950 . S
H1604 C1614 0.950 1_455 S
H1605 C1616 0.950 . S
H1606 C1618 0.950 . S
H1607 C1619 0.950 . S
C1608 H1600 0.950 . S
C1608 C1609 1.386 . S
C1608 C1610 1.392 1_545 S
C1609 C1608 1.386 . S
C1609 C1613 1.389 1_545 S
C1610 H1602 0.950 1_565 S
C1610 C1608 1.392 1_565 S
C1610 C1611 1.400 . S
C1611 C1610 1.400 . S
C1611 C1612 1.398 . S
C1611 C1617 1.491 . S
C1612 H1603 0.950 . S
C1612 C1611 1.398 . S
C1612 C1613 1.394 . S
C1613 H1601 0.949 . S
C1613 C1609 1.389 1_565 S
C1613 C1612 1.394 . S
C1614 H1604 0.950 1_655 S
C1614 C1615 1.386 . S
C1614 C1616 1.391 . S
C1615 C1614 1.386 . S
C1615 C1619 1.393 . S
C1616 H1605 0.950 . S
C1616 C1614 1.391 . S
C1616 C1617 1.400 . S
C1617 C1611 1.491 . S
C1617 C1616 1.400 . S
C1617 C1618 1.398 . S
C1618 H1606 0.950 . S
C1618 C1617 1.398 . S
C1618 C1619 1.391 . S
C1619 H1607 0.950 . S
C1619 C1615 1.393 . S
C1619 C1618 1.391 . S
H1620 C1628 0.950 . S
H1621 C1633 0.950 . S
H1622 C1630 0.950 . S
H1623 C1632 0.950 . S
H1624 C1634 0.950 . S
H1625 C1636 0.950 . S
H1626 C1638 0.950 . S
H1627 C1639 0.950 . S
C1628 H1620 0.950 . S
C1628 C1629 1.386 . S
C1628 C1630 1.391 . S
C1629 C1628 1.386 . S
C1629 C1633 1.393 . S
C1630 H1622 0.950 . S
C1630 C1628 1.391 . S
C1630 C1631 1.400 . S
C1631 C1630 1.400 . S
C1631 C1632 1.398 . S
C1631 C1637 1.491 . S
C1632 H1623 0.950 . S
C1632 C1631 1.398 . S
C1632 C1633 1.391 . S
C1633 H1621 0.950 . S
C1633 C1629 1.393 . S
C1633 C1632 1.391 . S
C1634 H1624 0.950 . S
C1634 C1635 1.386 . S
C1634 C1636 1.391 . S
C1635 C1634 1.386 . S
C1635 C1639 1.393 . S
C1636 H1625 0.950 . S
C1636 C1634 1.391 . S
C1636 C1637 1.400 . S
C1637 C1631 1.491 . S
C1637 C1636 1.400 . S
C1637 C1638 1.398 . S
C1638 H1626 0.950 . S
C1638 C1637 1.398 . S
C1638 C1639 1.391 . S
C1639 H1627 0.950 . S
C1639 C1635 1.393 . S
C1639 C1638 1.391 . S
H1640 C1648 0.950 . S
H1641 C1653 0.950 . S
H1642 C1650 0.950 . S
H1643 C1652 0.950 . S
H1644 C1654 0.950 . S
H1645 C1656 0.950 . S
H1646 C1658 0.950 . S
H1647 C1659 0.950 . S
C1648 H1640 0.950 . S
C1648 C1649 1.386 . S
C1648 C1650 1.391 . S
C1649 C1648 1.386 . S
C1649 C1653 1.393 . S
C1650 H1642 0.950 . S
C1650 C1648 1.391 . S
C1650 C1651 1.400 . S
C1651 C1650 1.400 . S
C1651 C1652 1.398 . S
C1651 C1657 1.491 . S
C1652 H1643 0.950 . S
C1652 C1651 1.398 . S
C1652 C1653 1.391 . S
C1653 H1641 0.950 . S
C1653 C1649 1.393 . S
C1653 C1652 1.391 . S
C1654 H1644 0.950 . S
C1654 C1655 1.386 . S
C1654 C1656 1.391 . S
C1655 C1654 1.386 . S
C1655 C1659 1.393 . S
C1656 H1645 0.950 . S
C1656 C1654 1.391 . S
C1656 C1657 1.400 . S
C1657 C1651 1.491 . S
C1657 C1656 1.400 . S
C1657 C1658 1.398 . S
C1658 H1646 0.950 . S
C1658 C1657 1.398 . S
C1658 C1659 1.391 . S
C1659 H1647 0.950 . S
C1659 C1655 1.393 . S
C1659 C1658 1.391 . S
H1660 C1668 0.950 . S
H1661 C1673 0.950 . S
H1662 C1670 0.950 . S
H1663 C1672 0.950 . S
H1664 C1674 0.950 . S
H1665 C1676 0.950 . S
H1666 C1678 0.950 . S
H1667 C1679 0.950 . S
C1668 H1660 0.950 . S
C1668 C1669 1.386 . S
C1668 C1670 1.391 . S
C1669 C1668 1.386 . S
C1669 C1673 1.393 . S
C1670 H1662 0.950 . S
C1670 C1668 1.391 . S
C1670 C1671 1.400 . S
C1671 C1670 1.400 . S
C1671 C1672 1.398 . S
C1671 C1677 1.491 . S
C1672 H1663 0.950 . S
C1672 C1671 1.398 . S
C1672 C1673 1.391 . S
C1673 H1661 0.950 . S
C1673 C1669 1.393 . S
C1673 C1672 1.391 . S
C1674 H1664 0.950 . S
C1674 C1675 1.386 . S
C1674 C1676 1.391 . S
C1675 C1674 1.386 . S
C1675 C1679 1.393 . S
C1676 H1665 0.950 . S
C1676 C1674 1.391 . S
C1676 C1677 1.400 . S
C1677 C1671 1.491 . S
C1677 C1676 1.400 . S
C1677 C1678 1.398 . S
C1678 H1666 0.950 . S
C1678 C1677 1.398 . S
C1678 C1679 1.391 . S
C1679 H1667 0.950 . S
C1679 C1675 1.393 . S
C1679 C1678 1.391 . S
H1680 C1688 0.950 . S
H1681 C1693 0.950 1_556 S
H1682 C1690 0.950 . S
H1683 C1692 0.950 . S
H1684 C1694 0.950 . S
H1685 C1696 0.950 . S
H1686 C1698 0.950 . S
H1687 C1699 0.950 . S
C1688 H1680 0.950 . S
C1688 C1689 1.386 . S
C1688 C1690 1.391 . S
C1689 C1688 1.386 . S
C1689 C1693 1.393 . S
C1690 H1682 0.950 . S
C1690 C1688 1.391 . S
C1690 C1691 1.400 . S
C1691 C1690 1.400 . S
C1691 C1692 1.398 . S
C1691 C1697 1.491 . S
C1692 H1683 0.950 . S
C1692 C1691 1.398 . S
C1692 C1693 1.391 . S
C1693 H1681 0.950 1_554 S
C1693 C1689 1.393 . S
C1693 C1692 1.391 . S
C1694 H1684 0.950 . S
C1694 C1695 1.386 . S
C1694 C1696 1.391 . S
C1695 C1694 1.386 . S
C1695 C1699 1.393 . S
C1696 H1685 0.950 . S
C1696 C1694 1.391 . S
C1696 C1697 1.400 . S
C1697 C1691 1.491 . S
C1697 C1696 1.400 . S
C1697 C1698 1.398 . S
C1698 H1686 0.950 . S
C1698 C1697 1.398 . S
C1698 C1699 1.391 . S
C1699 H1687 0.950 . S
C1699 C1695 1.393 . S
C1699 C1698 1.391 . S
H1700 C1708 0.950 . S
H1701 C1713 0.950 . S
H1702 C1710 0.950 . S
H1703 C1712 0.950 . S
H1704 C1714 0.950 . S
H1705 C1716 0.950 . S
H1706 C1718 0.950 . S
H1707 C1719 0.950 . S
C1708 H1700 0.950 . S
C1708 C1709 1.386 1_556 S
C1708 C1710 1.391 . S
C1709 C1708 1.386 1_554 S
C1709 C1713 1.393 . S
C1710 H1702 0.950 . S
C1710 C1708 1.391 . S
C1710 C1711 1.400 1_556 S
C1711 C1710 1.400 1_554 S
C1711 C1712 1.398 . S
C1711 C1717 1.491 . S
C1712 H1703 0.950 . S
C1712 C1711 1.398 . S
C1712 C1713 1.391 . S
C1713 H1701 0.950 . S
C1713 C1709 1.393 . S
C1713 C1712 1.391 . S
C1714 H1704 0.950 . S
C1714 C1715 1.386 . S
C1714 C1716 1.391 . S
C1715 C1714 1.386 . S
C1715 C1719 1.393 1_554 S
C1716 H1705 0.950 . S
C1716 C1714 1.391 . S
C1716 C1717 1.400 . S
C1717 C1711 1.491 . S
C1717 C1716 1.400 . S
C1717 C1718 1.398 1_554 S
C1718 H1706 0.950 . S
C1718 C1717 1.398 1_556 S
C1718 C1719 1.391 . S
C1719 H1707 0.950 . S
C1719 C1715 1.393 1_556 S
C1719 C1718 1.391 . S
H1720 C1728 0.950 . S
H1721 C1733 0.950 . S
H1722 C1730 0.950 . S
H1723 C1732 0.950 . S
H1724 C1734 0.950 . S
H1725 C1736 0.950 . S
H1726 C1738 0.950 . S
H1727 C1739 0.950 . S
C1728 H1720 0.950 . S
C1728 C1729 1.386 . S
C1728 C1730 1.391 . S
C1729 C1728 1.386 . S
C1729 C1733 1.393 . S
C1730 H1722 0.950 . S
C1730 C1728 1.391 . S
C1730 C1731 1.400 . S
C1731 C1730 1.400 . S
C1731 C1732 1.398 . S
C1731 C1737 1.491 . S
C1732 H1723 0.950 . S
C1732 C1731 1.398 . S
C1732 C1733 1.391 . S
C1733 H1721 0.950 . S
C1733 C1729 1.393 . S
C1733 C1732 1.391 . S
C1734 H1724 0.950 . S
C1734 C1735 1.386 . S
C1734 C1736 1.391 . S
C1735 C1734 1.386 . S
C1735 C1739 1.393 . S
C1736 H1725 0.950 . S
C1736 C1734 1.391 . S
C1736 C1737 1.400 . S
C1737 C1731 1.491 . S
C1737 C1736 1.400 . S
C1737 C1738 1.398 . S
C1738 H1726 0.950 . S
C1738 C1737 1.398 . S
C1738 C1739 1.391 . S
C1739 H1727 0.950 . S
C1739 C1735 1.393 . S
C1739 C1738 1.391 . S
H1740 C1748 0.950 . S
H1741 C1753 0.950 . S
H1742 C1750 0.950 . S
H1743 C1752 0.950 . S
H1744 C1754 0.950 . S
H1745 C1756 0.950 . S
H1746 C1758 0.950 . S
H1747 C1759 0.950 . S
C1748 H1740 0.950 . S
C1748 C1749 1.386 . S
C1748 C1750 1.391 . S
C1749 C1748 1.386 . S
C1749 C1753 1.393 . S
C1750 H1742 0.950 . S
C1750 C1748 1.391 . S
C1750 C1751 1.400 . S
C1751 C1750 1.400 . S
C1751 C1752 1.398 . S
C1751 C1757 1.491 . S
C1752 H1743 0.950 . S
C1752 C1751 1.398 . S
C1752 C1753 1.391 . S
C1753 H1741 0.950 . S
C1753 C1749 1.393 . S
C1753 C1752 1.391 . S
C1754 H1744 0.950 . S
C1754 C1755 1.386 . S
C1754 C1756 1.391 . S
C1755 C1754 1.386 . S
C1755 C1759 1.393 . S
C1756 H1745 0.950 . S
C1756 C1754 1.391 . S
C1756 C1757 1.400 . S
C1757 C1751 1.491 . S
C1757 C1756 1.400 . S
C1757 C1758 1.398 . S
C1758 H1746 0.950 . S
C1758 C1757 1.398 . S
C1758 C1759 1.391 . S
C1759 H1747 0.950 . S
C1759 C1755 1.393 . S
C1759 C1758 1.391 . S
H1760 C1768 0.950 . S
H1761 C1773 0.950 . S
H1762 C1770 0.950 . S
H1763 C1772 0.950 . S
H1764 C1774 0.950 . S
H1765 C1776 0.950 . S
H1766 C1778 0.950 . S
H1767 C1779 0.950 . S
C1768 H1760 0.950 . S
C1768 C1769 1.386 . S
C1768 C1770 1.391 . S
C1769 C1768 1.386 . S
C1769 C1773 1.393 . S
C1770 H1762 0.950 . S
C1770 C1768 1.391 . S
C1770 C1771 1.400 . S
C1771 C1770 1.400 . S
C1771 C1772 1.398 . S
C1771 C1777 1.491 . S
C1772 H1763 0.950 . S
C1772 C1771 1.398 . S
C1772 C1773 1.391 . S
C1773 H1761 0.950 . S
C1773 C1769 1.393 . S
C1773 C1772 1.391 . S
C1774 H1764 0.950 . S
C1774 C1775 1.386 . S
C1774 C1776 1.391 . S
C1775 C1774 1.386 . S
C1775 C1779 1.393 . S
C1776 H1765 0.950 . S
C1776 C1774 1.391 . S
C1776 C1777 1.400 . S
C1777 C1771 1.491 . S
C1777 C1776 1.400 . S
C1777 C1778 1.398 . S
C1778 H1766 0.950 . S
C1778 C1777 1.398 . S
C1778 C1779 1.391 . S
C1779 H1767 0.950 . S
C1779 C1775 1.393 . S
C1779 C1778 1.391 . S
H1780 C1788 0.950 . S
H1781 C1793 0.950 . S
H1782 C1790 0.950 . S
H1783 C1792 0.950 . S
H1784 C1794 0.950 . S
H1785 C1796 0.950 . S
H1786 C1798 0.950 . S
H1787 C1799 0.950 . S
C1788 H1780 0.950 . S
C1788 C1789 1.386 . S
C1788 C1790 1.391 . S
C1789 C1788 1.386 . S
C1789 C1793 1.393 . S
C1790 H1782 0.950 . S
C1790 C1788 1.391 . S
C1790 C1791 1.400 . S
C1791 C1790 1.400 . S
C1791 C1792 1.398 . S
C1791 C1797 1.491 . S
C1792 H1783 0.950 . S
C1792 C1791 1.398 . S
C1792 C1793 1.391 . S
C1793 H1781 0.950 . S
C1793 C1789 1.393 . S
C1793 C1792 1.391 . S
C1794 H1784 0.950 . S
C1794 C1795 1.386 . S
C1794 C1796 1.391 . S
C1795 C1794 1.386 . S
C1795 C1799 1.393 . S
C1796 H1785 0.950 . S
C1796 C1794 1.391 . S
C1796 C1797 1.400 . S
C1797 C1791 1.491 . S
C1797 C1796 1.400 . S
C1797 C1798 1.398 . S
C1798 H1786 0.950 . S
C1798 C1797 1.398 . S
C1798 C1799 1.391 . S
C1799 H1787 0.950 . S
C1799 C1795 1.393 . S
C1799 C1798 1.391 . S
H1800 C1808 0.950 . S
H1801 C1813 0.950 . S
H1802 C1810 0.950 . S
H1803 C1812 0.950 . S
H1804 C1814 0.950 . S
H1805 C1816 0.950 . S
H1806 C1818 0.950 . S
H1807 C1819 0.950 . S
C1808 H1800 0.950 . S
C1808 C1809 1.386 . S
C1808 C1810 1.391 . S
C1809 C1808 1.386 . S
C1809 C1813 1.393 . S
C1810 H1802 0.950 . S
C1810 C1808 1.391 . S
C1810 C1811 1.400 . S
C1811 C1810 1.400 . S
C1811 C1812 1.398 . S
C1811 C1817 1.491 . S
C1812 H1803 0.950 . S
C1812 C1811 1.398 . S
C1812 C1813 1.391 . S
C1813 H1801 0.950 . S
C1813 C1809 1.393 . S
C1813 C1812 1.391 . S
C1814 H1804 0.950 . S
C1814 C1815 1.386 . S
C1814 C1816 1.391 . S
C1815 C1814 1.386 . S
C1815 C1819 1.393 . S
C1816 H1805 0.950 . S
C1816 C1814 1.391 . S
C1816 C1817 1.400 . S
C1817 C1811 1.491 . S
C1817 C1816 1.400 . S
C1817 C1818 1.398 . S
C1818 H1806 0.950 . S
C1818 C1817 1.398 . S
C1818 C1819 1.391 . S
C1819 H1807 0.950 . S
C1819 C1815 1.393 . S
C1819 C1818 1.391 . S
H1820 C1828 0.950 . S
H1821 C1833 0.950 . S
H1822 C1830 0.950 . S
H1823 C1832 0.950 . S
H1824 C1834 0.950 . S
H1825 C1836 0.950 . S
H1826 C1838 0.950 . S
H1827 C1839 0.950 . S
C1828 H1820 0.950 . S
C1828 C1829 1.386 . S
C1828 C1830 1.391 . S
C1829 C1828 1.386 . S
C1829 C1833 1.393 . S
C1830 H1822 0.950 . S
C1830 C1828 1.391 . S
C1830 C1831 1.400 . S
C1831 C1830 1.400 . S
C1831 C1832 1.398 . S
C1831 C1837 1.491 . S
C1832 H1823 0.950 . S
C1832 C1831 1.398 . S
C1832 C1833 1.391 . S
C1833 H1821 0.950 . S
C1833 C1829 1.393 . S
C1833 C1832 1.391 . S
C1834 H1824 0.950 . S
C1834 C1835 1.386 . S
C1834 C1836 1.391 . S
C1835 C1834 1.386 . S
C1835 C1839 1.393 . S
C1836 H1825 0.950 . S
C1836 C1834 1.391 . S
C1836 C1837 1.400 . S
C1837 C1831 1.491 . S
C1837 C1836 1.400 . S
C1837 C1838 1.398 . S
C1838 H1826 0.950 . S
C1838 C1837 1.398 . S
C1838 C1839 1.391 . S
C1839 H1827 0.950 . S
C1839 C1835 1.393 . S
C1839 C1838 1.391 . S
H1840 C1848 0.950 . S
H1841 C1853 0.950 . S
H1842 C1850 0.950 . S
H1843 C1852 0.950 . S
H1844 C1854 0.950 . S
H1845 C1856 0.950 . S
H1846 C1858 0.950 . S
H1847 C1859 0.950 . S
C1848 H1840 0.950 . S
C1848 C1849 1.386 . S
C1848 C1850 1.391 . S
C1849 C1848 1.386 . S
C1849 C1853 1.393 . S
C1850 H1842 0.950 . S
C1850 C1848 1.391 . S
C1850 C1851 1.400 . S
C1851 C1850 1.400 . S
C1851 C1852 1.398 . S
C1851 C1857 1.491 . S
C1852 H1843 0.950 . S
C1852 C1851 1.398 . S
C1852 C1853 1.391 . S
C1853 H1841 0.950 . S
C1853 C1849 1.393 . S
C1853 C1852 1.391 . S
C1854 H1844 0.950 . S
C1854 C1855 1.386 . S
C1854 C1856 1.391 . S
C1855 C1854 1.386 . S
C1855 C1859 1.393 . S
C1856 H1845 0.950 . S
C1856 C1854 1.391 . S
C1856 C1857 1.400 . S
C1857 C1851 1.491 . S
C1857 C1856 1.400 . S
C1857 C1858 1.398 . S
C1858 H1846 0.950 . S
C1858 C1857 1.398 . S
C1858 C1859 1.391 . S
C1859 H1847 0.950 . S
C1859 C1855 1.393 . S
C1859 C1858 1.391 . S
H1860 C1868 0.950 . S
H1861 C1873 0.950 . S
H1862 C1870 0.950 . S
H1863 C1872 0.950 . S
H1864 C1874 0.950 . S
H1865 C1876 0.950 . S
H1866 C1878 0.950 . S
H1867 C1879 0.950 . S
C1868 H1860 0.950 . S
C1868 C1869 1.386 . S
C1868 C1870 1.391 . S
C1869 C1868 1.386 . S
C1869 C1873 1.393 . S
C1870 H1862 0.950 . S
C1870 C1868 1.391 . S
C1870 C1871 1.400 . S
C1871 C1870 1.400 . S
C1871 C1872 1.398 . S
C1871 C1877 1.491 . S
C1872 H1863 0.950 . S
C1872 C1871 1.398 . S
C1872 C1873 1.391 . S
C1873 H1861 0.950 . S
C1873 C1869 1.393 . S
C1873 C1872 1.391 . S
C1874 H1864 0.950 . S
C1874 C1875 1.386 . S
C1874 C1876 1.391 . S
C1875 C1874 1.386 . S
C1875 C1879 1.393 . S
C1876 H1865 0.950 . S
C1876 C1874 1.391 . S
C1876 C1877 1.400 . S
C1877 C1871 1.491 . S
C1877 C1876 1.400 . S
C1877 C1878 1.398 . S
C1878 H1866 0.950 . S
C1878 C1877 1.398 . S
C1878 C1879 1.391 . S
C1879 H1867 0.950 . S
C1879 C1875 1.393 . S
C1879 C1878 1.391 . S
H1880 C1888 0.950 . S
H1881 C1893 0.950 . S
H1882 C1890 0.950 . S
H1883 C1892 0.950 . S
H1884 C1894 0.950 . S
H1885 C1896 0.950 . S
H1886 C1898 0.950 . S
H1887 C1899 0.950 . S
C1888 H1880 0.950 . S
C1888 C1889 1.386 . S
C1888 C1890 1.391 . S
C1889 C1888 1.386 . S
C1889 C1893 1.393 . S
C1890 H1882 0.950 . S
C1890 C1888 1.391 . S
C1890 C1891 1.400 . S
C1891 C1890 1.400 . S
C1891 C1892 1.398 . S
C1891 C1897 1.491 . S
C1892 H1883 0.950 . S
C1892 C1891 1.398 . S
C1892 C1893 1.391 . S
C1893 H1881 0.950 . S
C1893 C1889 1.393 . S
C1893 C1892 1.391 . S
C1894 H1884 0.950 . S
C1894 C1895 1.386 . S
C1894 C1896 1.391 . S
C1895 C1894 1.386 . S
C1895 C1899 1.393 . S
C1896 H1885 0.950 . S
C1896 C1894 1.391 . S
C1896 C1897 1.400 . S
C1897 C1891 1.491 . S
C1897 C1896 1.400 . S
C1897 C1898 1.398 . S
C1898 H1886 0.950 . S
C1898 C1897 1.398 . S
C1898 C1899 1.391 . S
C1899 H1887 0.950 . S
C1899 C1895 1.393 . S
C1899 C1898 1.391 . S
H1900 C1908 0.950 . S
H1901 C1913 0.950 . S
H1902 C1910 0.950 . S
H1903 C1912 0.950 . S
H1904 C1914 0.950 . S
H1905 C1916 0.950 . S
H1906 C1918 0.950 . S
H1907 C1919 0.950 . S
C1908 H1900 0.950 . S
C1908 C1909 1.386 . S
C1908 C1910 1.391 . S
C1909 C1908 1.386 . S
C1909 C1913 1.393 . S
C1910 H1902 0.950 . S
C1910 C1908 1.391 . S
C1910 C1911 1.400 . S
C1911 C1910 1.400 . S
C1911 C1912 1.398 . S
C1911 C1917 1.491 . S
C1912 H1903 0.950 . S
C1912 C1911 1.398 . S
C1912 C1913 1.391 . S
C1913 H1901 0.950 . S
C1913 C1909 1.393 . S
C1913 C1912 1.391 . S
C1914 H1904 0.950 . S
C1914 C1915 1.386 . S
C1914 C1916 1.391 . S
C1915 C1914 1.386 . S
C1915 C1919 1.393 . S
C1916 H1905 0.950 . S
C1916 C1914 1.391 . S
C1916 C1917 1.400 . S
C1917 C1911 1.491 . S
C1917 C1916 1.400 . S
C1917 C1918 1.398 . S
C1918 H1906 0.950 . S
C1918 C1917 1.398 . S
C1918 C1919 1.391 . S
C1919 H1907 0.950 . S
C1919 C1915 1.393 . S
C1919 C1918 1.391 . S
H1920 C1928 0.950 . S
H1921 C1933 0.950 . S
H1922 C1930 0.950 . S
H1923 C1932 0.950 . S
H1924 C1934 0.950 . S
H1925 C1936 0.950 . S
H1926 C1938 0.950 . S
H1927 C1939 0.950 . S
C1928 H1920 0.950 . S
C1928 C1929 1.386 . S
C1928 C1930 1.391 . S
C1929 C1928 1.386 . S
C1929 C1933 1.393 . S
C1930 H1922 0.950 . S
C1930 C1928 1.391 . S
C1930 C1931 1.400 . S
C1931 C1930 1.400 . S
C1931 C1932 1.398 . S
C1931 C1937 1.491 . S
C1932 H1923 0.950 . S
C1932 C1931 1.398 . S
C1932 C1933 1.391 . S
C1933 H1921 0.950 . S
C1933 C1929 1.393 . S
C1933 C1932 1.391 . S
C1934 H1924 0.950 . S
C1934 C1935 1.380 1_554 S
C1934 C1936 1.391 1_554 S
C1935 C1934 1.380 1_556 S
C1935 C1939 1.410 . S
C1936 H1925 0.950 . S
C1936 C1934 1.391 1_556 S
C1936 C1937 1.400 . S
C1937 C1931 1.491 . S
C1937 C1936 1.400 . S
C1937 C1938 1.398 . S
C1938 H1926 0.950 . S
C1938 C1937 1.398 . S
C1938 C1939 1.391 . S
C1939 H1927 0.950 . S
C1939 C1935 1.410 . S
C1939 C1938 1.391 . S
H1940 C1948 0.950 . S
H1941 C1953 0.950 . S
H1942 C1950 0.950 . S
H1943 C1952 0.950 . S
H1944 C1954 0.950 . S
H1945 C1956 0.950 . S
H1946 C1958 0.950 . S
H1947 C1959 0.950 . S
C1948 H1940 0.950 . S
C1948 C1949 1.386 . S
C1948 C1950 1.391 1_455 S
C1949 C1948 1.386 . S
C1949 C1953 1.393 1_455 S
C1950 H1942 0.950 . S
C1950 C1948 1.391 1_655 S
C1950 C1951 1.400 . S
C1951 C1950 1.400 . S
C1951 C1952 1.398 . S
C1951 C1957 1.491 . S
C1952 H1943 0.950 . S
C1952 C1951 1.398 . S
C1952 C1953 1.391 . S
C1953 H1941 0.950 . S
C1953 C1949 1.393 1_655 S
C1953 C1952 1.391 . S
C1954 H1944 0.950 . S
C1954 C1955 1.386 . S
C1954 C1956 1.391 . S
C1955 C1954 1.386 . S
C1955 C1959 1.393 . S
C1956 H1945 0.950 . S
C1956 C1954 1.391 . S
C1956 C1957 1.400 . S
C1957 C1951 1.491 . S
C1957 C1956 1.400 . S
C1957 C1958 1.398 . S
C1958 H1946 0.950 . S
C1958 C1957 1.398 . S
C1958 C1959 1.391 . S
C1959 H1947 0.950 . S
C1959 C1955 1.393 . S
C1959 C1958 1.391 . S
H1960 C1968 0.950 . S
H1961 C1973 0.950 . S
H1962 C1970 0.950 . S
H1963 C1972 0.950 . S
H1964 C1974 0.950 . S
H1965 C1976 0.950 . S
H1966 C1978 0.950 . S
H1967 C1979 0.950 . S
C1968 H1960 0.950 . S
C1968 C1969 1.386 . S
C1968 C1970 1.391 . S
C1969 C1968 1.386 . S
C1969 C1973 1.393 . S
C1970 H1962 0.950 . S
C1970 C1968 1.391 . S
C1970 C1971 1.400 . S
C1971 C1970 1.400 . S
C1971 C1972 1.398 . S
C1971 C1977 1.491 . S
C1972 H1963 0.950 . S
C1972 C1971 1.398 . S
C1972 C1973 1.391 . S
C1973 H1961 0.950 . S
C1973 C1969 1.393 . S
C1973 C1972 1.391 . S
C1974 H1964 0.950 . S
C1974 C1975 1.386 . S
C1974 C1976 1.391 . S
C1975 C1974 1.386 . S
C1975 C1979 1.393 . S
C1976 H1965 0.950 . S
C1976 C1974 1.391 . S
C1976 C1977 1.400 . S
C1977 C1971 1.491 . S
C1977 C1976 1.400 . S
C1977 C1978 1.398 . S
C1978 H1966 0.950 . S
C1978 C1977 1.398 . S
C1978 C1979 1.391 . S
C1979 H1967 0.950 . S
C1979 C1975 1.393 . S
C1979 C1978 1.391 . S
H1980 C1988 0.950 . S
H1981 C1993 0.950 . S
H1982 C1990 0.950 . S
H1983 C1992 0.950 . S
H1984 C1994 0.950 . S
H1985 C1996 0.950 . S
H1986 C1998 0.950 . S
H1987 C1999 0.950 . S
C1988 H1980 0.950 . S
C1988 C1989 1.386 . S
C1988 C1990 1.391 . S
C1989 C1988 1.386 . S
C1989 C1993 1.393 . S
C1990 H1982 0.950 . S
C1990 C1988 1.391 . S
C1990 C1991 1.400 . S
C1991 C1990 1.400 . S
C1991 C1992 1.398 . S
C1991 C1997 1.491 . S
C1992 H1983 0.950 . S
C1992 C1991 1.398 . S
C1992 C1993 1.391 . S
C1993 H1981 0.950 . S
C1993 C1989 1.393 . S
C1993 C1992 1.391 . S
C1994 H1984 0.950 . S
C1994 C1995 1.386 . S
C1994 C1996 1.391 . S
C1995 C1994 1.386 . S
C1995 C1999 1.393 . S
C1996 H1985 0.950 . S
C1996 C1994 1.391 . S
C1996 C1997 1.400 . S
C1997 C1991 1.491 . S
C1997 C1996 1.400 . S
C1997 C1998 1.398 . S
C1998 H1986 0.950 . S
C1998 C1997 1.398 . S
C1998 C1999 1.391 . S
C1999 H1987 0.950 . S
C1999 C1995 1.393 . S
C1999 C1998 1.391 . S
H2000 C2008 0.950 . S
H2001 C2013 0.950 . S
H2002 C2010 0.950 . S
H2003 C2012 0.950 . S
H2004 C2014 0.950 . S
H2005 C2016 0.950 . S
H2006 C2018 0.950 . S
H2007 C2019 0.950 . S
C2008 H2000 0.950 . S
C2008 C2009 1.386 . S
C2008 C2010 1.391 . S
C2009 C2008 1.386 . S
C2009 C2013 1.393 . S
C2010 H2002 0.950 . S
C2010 C2008 1.391 . S
C2010 C2011 1.400 . S
C2011 C2010 1.400 . S
C2011 C2012 1.398 . S
C2011 C2017 1.491 . S
C2012 H2003 0.950 . S
C2012 C2011 1.398 . S
C2012 C2013 1.391 . S
C2013 H2001 0.950 . S
C2013 C2009 1.393 . S
C2013 C2012 1.391 . S
C2014 H2004 0.950 . S
C2014 C2015 1.386 . S
C2014 C2016 1.391 . S
C2015 C2014 1.386 . S
C2015 C2019 1.393 . S
C2016 H2005 0.950 . S
C2016 C2014 1.391 . S
C2016 C2017 1.400 . S
C2017 C2011 1.491 . S
C2017 C2016 1.400 . S
C2017 C2018 1.398 . S
C2018 H2006 0.950 . S
C2018 C2017 1.398 . S
C2018 C2019 1.391 . S
C2019 H2007 0.950 . S
C2019 C2015 1.393 . S
C2019 C2018 1.391 . S
H2020 C2028 0.950 1_554 S
H2021 C2033 0.950 . S
H2022 C2030 0.950 . S
H2023 C2032 0.950 . S
H2024 C2034 0.950 . S
H2025 C2036 0.950 . S
H2026 C2038 0.950 . S
H2027 C2039 0.950 . S
C2028 H2020 0.950 1_556 S
C2028 C2029 1.386 . S
C2028 C2030 1.391 . S
C2029 C2028 1.386 . S
C2029 C2033 1.393 . S
C2030 H2022 0.950 . S
C2030 C2028 1.391 . S
C2030 C2031 1.400 . S
C2031 C2030 1.400 . S
C2031 C2032 1.398 . S
C2031 C2037 1.491 . S
C2032 H2023 0.950 . S
C2032 C2031 1.398 . S
C2032 C2033 1.391 . S
C2033 H2021 0.950 . S
C2033 C2029 1.393 . S
C2033 C2032 1.391 . S
C2034 H2024 0.950 . S
C2034 C2035 1.386 . S
C2034 C2036 1.391 . S
C2035 C2034 1.386 . S
C2035 C2039 1.393 . S
C2036 H2025 0.950 . S
C2036 C2034 1.391 . S
C2036 C2037 1.400 . S
C2037 C2031 1.491 . S
C2037 C2036 1.400 . S
C2037 C2038 1.398 . S
C2038 H2026 0.950 . S
C2038 C2037 1.398 . S
C2038 C2039 1.391 . S
C2039 H2027 0.950 . S
C2039 C2035 1.393 . S
C2039 C2038 1.391 . S
H2040 C2048 0.950 . S
H2041 C2053 0.950 . S
H2042 C2050 0.950 . S
H2043 C2052 0.950 . S
H2044 C2054 0.950 . S
H2045 C2056 0.950 . S
H2046 C2058 0.950 1_455 S
H2047 C2059 0.950 . S
C2048 H2040 0.950 . S
C2048 C2049 1.386 . S
C2048 C2050 1.391 . S
C2049 C2048 1.386 . S
C2049 C2053 1.393 . S
C2050 H2042 0.950 . S
C2050 C2048 1.391 . S
C2050 C2051 1.400 . S
C2051 C2050 1.400 . S
C2051 C2052 1.398 . S
C2051 C2057 1.491 . S
C2052 H2043 0.950 . S
C2052 C2051 1.398 . S
C2052 C2053 1.391 . S
C2053 H2041 0.950 . S
C2053 C2049 1.393 . S
C2053 C2052 1.391 . S
C2054 H2044 0.950 . S
C2054 C2055 1.386 1_655 S
C2054 C2056 1.391 . S
C2055 C2054 1.386 1_455 S
C2055 C2059 1.393 . S
C2056 H2045 0.950 . S
C2056 C2054 1.391 . S
C2056 C2057 1.400 . S
C2057 C2051 1.491 . S
C2057 C2056 1.400 . S
C2057 C2058 1.398 . S
C2058 H2046 0.950 1_655 S
C2058 C2057 1.398 . S
C2058 C2059 1.391 1_655 S
C2059 H2047 0.950 . S
C2059 C2055 1.393 . S
C2059 C2058 1.391 1_455 S
H2060 C2068 0.950 . S
H2061 C2073 0.950 . S
H2062 C2070 0.950 . S
H2063 C2072 0.950 . S
H2064 C2074 0.950 . S
H2065 C2076 0.950 . S
H2066 C2078 0.950 . S
H2067 C2079 0.950 . S
C2068 H2060 0.950 . S
C2068 C2069 1.386 . S
C2068 C2070 1.391 . S
C2069 C2068 1.386 . S
C2069 C2073 1.393 . S
C2070 H2062 0.950 . S
C2070 C2068 1.391 . S
C2070 C2071 1.400 . S
C2071 C2070 1.400 . S
C2071 C2072 1.398 . S
C2071 C2077 1.491 . S
C2072 H2063 0.950 . S
C2072 C2071 1.398 . S
C2072 C2073 1.391 . S
C2073 H2061 0.950 . S
C2073 C2069 1.393 . S
C2073 C2072 1.391 . S
C2074 H2064 0.950 . S
C2074 C2075 1.386 . S
C2074 C2076 1.391 . S
C2075 C2074 1.386 . S
C2075 C2079 1.393 . S
C2076 H2065 0.950 . S
C2076 C2074 1.391 . S
C2076 C2077 1.400 . S
C2077 C2071 1.491 . S
C2077 C2076 1.400 . S
C2077 C2078 1.398 . S
C2078 H2066 0.950 . S
C2078 C2077 1.398 . S
C2078 C2079 1.391 . S
C2079 H2067 0.950 . S
C2079 C2075 1.393 . S
C2079 C2078 1.391 . S
H2080 C2088 0.950 . S
H2081 C2093 0.950 . S
H2082 C2090 0.950 . S
H2083 C2092 0.950 . S
H2084 C2094 0.950 . S
H2085 C2096 0.950 . S
H2086 C2098 0.950 . S
H2087 C2099 0.950 . S
C2088 H2080 0.950 . S
C2088 C2089 1.386 . S
C2088 C2090 1.391 . S
C2089 C2088 1.386 . S
C2089 C2093 1.393 . S
C2090 H2082 0.950 . S
C2090 C2088 1.391 . S
C2090 C2091 1.400 . S
C2091 C2090 1.400 . S
C2091 C2092 1.398 . S
C2091 C2097 1.491 . S
C2092 H2083 0.950 . S
C2092 C2091 1.398 . S
C2092 C2093 1.391 . S
C2093 H2081 0.950 . S
C2093 C2089 1.393 . S
C2093 C2092 1.391 . S
C2094 H2084 0.950 . S
C2094 C2095 1.386 . S
C2094 C2096 1.391 . S
C2095 C2094 1.386 . S
C2095 C2099 1.393 . S
C2096 H2085 0.950 . S
C2096 C2094 1.391 . S
C2096 C2097 1.400 . S
C2097 C2091 1.491 . S
C2097 C2096 1.400 . S
C2097 C2098 1.398 . S
C2098 H2086 0.950 . S
C2098 C2097 1.398 . S
C2098 C2099 1.391 . S
C2099 H2087 0.950 . S
C2099 C2095 1.393 . S
C2099 C2098 1.391 . S
H2100 C2108 0.950 . S
H2101 C2113 0.950 . S
H2102 C2110 0.950 . S
H2103 C2112 0.950 . S
H2104 C2114 0.950 . S
H2105 C2116 0.950 . S
H2106 C2118 0.950 . S
H2107 C2119 0.950 . S
C2108 H2100 0.950 . S
C2108 C2109 1.386 . S
C2108 C2110 1.391 . S
C2109 C2108 1.386 . S
C2109 C2113 1.393 . S
C2110 H2102 0.950 . S
C2110 C2108 1.391 . S
C2110 C2111 1.400 . S
C2111 C2110 1.400 . S
C2111 C2112 1.398 . S
C2111 C2117 1.491 . S
C2112 H2103 0.950 . S
C2112 C2111 1.398 . S
C2112 C2113 1.391 . S
C2113 H2101 0.950 . S
C2113 C2109 1.393 . S
C2113 C2112 1.391 . S
C2114 H2104 0.950 . S
C2114 C2115 1.386 . S
C2114 C2116 1.391 . S
C2115 C2114 1.386 . S
C2115 C2119 1.393 . S
C2116 H2105 0.950 . S
C2116 C2114 1.391 . S
C2116 C2117 1.400 . S
C2117 C2111 1.491 . S
C2117 C2116 1.400 . S
C2117 C2118 1.398 . S
C2118 H2106 0.950 . S
C2118 C2117 1.398 . S
C2118 C2119 1.391 . S
C2119 H2107 0.950 . S
C2119 C2115 1.393 . S
C2119 C2118 1.391 . S
H2120 C2128 0.950 . S
H2121 C2133 0.950 . S
H2122 C2130 0.950 . S
H2123 C2132 0.950 . S
H2124 C2134 0.950 . S
H2125 C2136 0.950 . S
H2126 C2138 0.950 . S
H2127 C2139 0.950 . S
C2128 H2120 0.950 . S
C2128 C2129 1.386 . S
C2128 C2130 1.391 . S
C2129 C2128 1.386 . S
C2129 C2133 1.393 . S
C2130 H2122 0.950 . S
C2130 C2128 1.391 . S
C2130 C2131 1.400 . S
C2131 C2130 1.400 . S
C2131 C2132 1.398 . S
C2131 C2137 1.491 . S
C2132 H2123 0.950 . S
C2132 C2131 1.398 . S
C2132 C2133 1.391 . S
C2133 H2121 0.950 . S
C2133 C2129 1.393 . S
C2133 C2132 1.391 . S
C2134 H2124 0.950 . S
C2134 C2135 1.386 . S
C2134 C2136 1.391 . S
C2135 C2134 1.386 . S
C2135 C2139 1.393 . S
C2136 H2125 0.950 . S
C2136 C2134 1.391 . S
C2136 C2137 1.400 . S
C2137 C2131 1.491 . S
C2137 C2136 1.400 . S
C2137 C2138 1.398 . S
C2138 H2126 0.950 . S
C2138 C2137 1.398 . S
C2138 C2139 1.391 . S
C2139 H2127 0.950 . S
C2139 C2135 1.393 . S
C2139 C2138 1.391 . S
H2140 C2148 0.950 . S
H2141 C2153 0.950 . S
H2142 C2150 0.950 . S
H2143 C2152 0.950 . S
H2144 C2154 0.950 . S
H2145 C2156 0.950 . S
H2146 C2158 0.950 . S
H2147 C2159 0.950 . S
C2148 H2140 0.950 . S
C2148 C2149 1.386 . S
C2148 C2150 1.391 . S
C2149 C2148 1.386 . S
C2149 C2153 1.393 . S
C2150 H2142 0.950 . S
C2150 C2148 1.391 . S
C2150 C2151 1.400 . S
C2151 C2150 1.400 . S
C2151 C2152 1.398 . S
C2151 C2157 1.491 . S
C2152 H2143 0.950 . S
C2152 C2151 1.398 . S
C2152 C2153 1.391 . S
C2153 H2141 0.950 . S
C2153 C2149 1.393 . S
C2153 C2152 1.391 . S
C2154 H2144 0.950 . S
C2154 C2155 1.386 . S
C2154 C2156 1.391 . S
C2155 C2154 1.386 . S
C2155 C2159 1.393 . S
C2156 H2145 0.950 . S
C2156 C2154 1.391 . S
C2156 C2157 1.400 . S
C2157 C2151 1.491 . S
C2157 C2156 1.400 . S
C2157 C2158 1.398 . S
C2158 H2146 0.950 . S
C2158 C2157 1.398 . S
C2158 C2159 1.391 . S
C2159 H2147 0.950 . S
C2159 C2155 1.393 . S
C2159 C2158 1.391 . S
H2160 C2168 0.950 . S
H2161 C2173 0.950 . S
H2162 C2170 0.950 . S
H2163 C2172 0.950 . S
H2164 C2174 0.950 . S
H2165 C2176 0.950 . S
H2166 C2178 0.950 . S
H2167 C2179 0.950 . S
C2168 H2160 0.950 . S
C2168 C2169 1.386 . S
C2168 C2170 1.391 . S
C2169 C2168 1.386 . S
C2169 C2173 1.393 . S
C2170 H2162 0.950 . S
C2170 C2168 1.391 . S
C2170 C2171 1.400 . S
C2171 C2170 1.400 . S
C2171 C2172 1.398 . S
C2171 C2177 1.491 . S
C2172 H2163 0.950 . S
C2172 C2171 1.398 . S
C2172 C2173 1.391 . S
C2173 H2161 0.950 . S
C2173 C2169 1.393 . S
C2173 C2172 1.391 . S
C2174 H2164 0.950 . S
C2174 C2175 1.386 . S
C2174 C2176 1.391 . S
C2175 C2174 1.386 . S
C2175 C2179 1.393 . S
C2176 H2165 0.950 . S
C2176 C2174 1.391 . S
C2176 C2177 1.400 . S
C2177 C2171 1.491 . S
C2177 C2176 1.400 . S
C2177 C2178 1.398 . S
C2178 H2166 0.950 . S
C2178 C2177 1.398 . S
C2178 C2179 1.391 . S
C2179 H2167 0.950 . S
C2179 C2175 1.393 . S
C2179 C2178 1.391 . S
H2180 C2188 0.950 . S
H2181 C2193 0.950 . S
H2182 C2190 0.950 . S
H2183 C2192 0.950 . S
H2184 C2194 0.922 1_545 S
H2185 C2196 0.975 . S
H2186 C2198 0.950 . S
H2187 C2199 0.950 . S
C2188 H2180 0.950 . S
C2188 C2189 1.386 . S
C2188 C2190 1.391 . S
C2189 C2188 1.386 . S
C2189 C2193 1.393 . S
C2190 H2182 0.950 . S
C2190 C2188 1.391 . S
C2190 C2191 1.400 . S
C2191 C2190 1.400 . S
C2191 C2192 1.398 . S
C2191 C2197 1.491 . S
C2192 H2183 0.950 . S
C2192 C2191 1.398 . S
C2192 C2193 1.391 . S
C2193 H2181 0.950 . S
C2193 C2189 1.393 . S
C2193 C2192 1.391 . S
C2194 H2184 0.922 1_565 S
C2194 C2195 1.402 . S
C2194 C2196 1.403 . S
C2195 C2194 1.402 . S
C2195 C2199 1.393 . S
C2196 H2185 0.975 . S
C2196 C2194 1.403 . S
C2196 C2197 1.400 . S
C2197 C2191 1.491 . S
C2197 C2196 1.400 . S
C2197 C2198 1.398 . S
C2198 H2186 0.950 . S
C2198 C2197 1.398 . S
C2198 C2199 1.391 . S
C2199 H2187 0.950 . S
C2199 C2195 1.393 . S
C2199 C2198 1.391 . S
H2200 C2208 0.950 . S
H2201 C2213 0.950 . S
H2202 C2210 0.950 . S
H2203 C2212 0.950 . S
H2204 C2214 0.950 . S
H2205 C2216 0.950 . S
H2206 C2218 0.950 . S
H2207 C2219 0.950 . S
C2208 H2200 0.950 . S
C2208 C2209 1.386 . S
C2208 C2210 1.391 . S
C2209 C2208 1.386 . S
C2209 C2213 1.393 . S
C2210 H2202 0.950 . S
C2210 C2208 1.391 . S
C2210 C2211 1.400 . S
C2211 C2210 1.400 . S
C2211 C2212 1.398 . S
C2211 C2217 1.491 . S
C2212 H2203 0.950 . S
C2212 C2211 1.398 . S
C2212 C2213 1.391 . S
C2213 H2201 0.950 . S
C2213 C2209 1.393 . S
C2213 C2212 1.391 . S
C2214 H2204 0.950 . S
C2214 C2215 1.386 . S
C2214 C2216 1.391 . S
C2215 C2214 1.386 . S
C2215 C2219 1.393 . S
C2216 H2205 0.950 . S
C2216 C2214 1.391 . S
C2216 C2217 1.400 . S
C2217 C2211 1.491 . S
C2217 C2216 1.400 . S
C2217 C2218 1.398 . S
C2218 H2206 0.950 . S
C2218 C2217 1.398 . S
C2218 C2219 1.391 . S
C2219 H2207 0.950 . S
C2219 C2215 1.393 . S
C2219 C2218 1.391 . S
H2220 C2228 0.950 1_556 S
H2221 C2233 0.950 . S
H2222 C2230 0.982 . S
H2223 C2232 0.950 . S
H2224 C2234 0.950 . S
H2225 C2236 0.950 . S
H2226 C2238 0.950 . S
H2227 C2239 0.950 . S
C2228 H2220 0.950 1_554 S
C2228 C2229 1.386 . S
C2228 C2230 1.391 . S
C2229 C2228 1.386 . S
C2229 C2233 1.393 . S
C2230 H2222 0.982 . S
C2230 C2228 1.391 . S
C2230 C2231 1.400 . S
C2231 C2230 1.400 . S
C2231 C2232 1.398 . S
C2231 C2237 1.491 . S
C2232 H2223 0.950 . S
C2232 C2231 1.398 . S
C2232 C2233 1.391 . S
C2233 H2221 0.950 . S
C2233 C2229 1.393 . S
C2233 C2232 1.391 . S
C2234 H2224 0.950 . S
C2234 C2235 1.386 . S
C2234 C2236 1.391 . S
C2235 C2234 1.386 . S
C2235 C2239 1.393 . S
C2236 H2225 0.950 . S
C2236 C2234 1.391 . S
C2236 C2237 1.400 . S
C2237 C2231 1.491 . S
C2237 C2236 1.400 . S
C2237 C2238 1.398 . S
C2238 H2226 0.950 . S
C2238 C2237 1.398 . S
C2238 C2239 1.391 . S
C2239 H2227 0.950 . S
C2239 C2235 1.393 . S
C2239 C2238 1.391 . S
H2240 C2248 0.950 . S
H2241 C2253 0.950 . S
H2242 C2250 0.950 . S
H2243 C2252 0.950 . S
H2244 C2254 0.950 . S
H2245 C2256 0.950 . S
H2246 C2258 0.950 . S
H2247 C2259 0.950 . S
C2248 H2240 0.950 . S
C2248 C2249 1.386 . S
C2248 C2250 1.391 . S
C2249 C2248 1.386 . S
C2249 C2253 1.393 . S
C2250 H2242 0.950 . S
C2250 C2248 1.391 . S
C2250 C2251 1.400 . S
C2251 C2250 1.400 . S
C2251 C2252 1.398 . S
C2251 C2257 1.491 . S
C2252 H2243 0.950 . S
C2252 C2251 1.398 . S
C2252 C2253 1.391 . S
C2253 H2241 0.950 . S
C2253 C2249 1.393 . S
C2253 C2252 1.391 . S
C2254 H2244 0.950 . S
C2254 C2255 1.386 . S
C2254 C2256 1.391 . S
C2255 C2254 1.386 . S
C2255 C2259 1.393 . S
C2256 H2245 0.950 . S
C2256 C2254 1.391 . S
C2256 C2257 1.400 . S
C2257 C2251 1.491 . S
C2257 C2256 1.400 . S
C2257 C2258 1.398 . S
C2258 H2246 0.950 . S
C2258 C2257 1.398 . S
C2258 C2259 1.391 . S
C2259 H2247 0.950 . S
C2259 C2255 1.393 . S
C2259 C2258 1.391 . S
H2260 C2268 0.950 . S
H2261 C2273 0.950 . S
H2262 C2270 0.950 . S
H2263 C2272 0.950 . S
H2264 C2274 0.950 . S
H2265 C2276 0.950 . S
H2266 C2278 0.950 . S
H2267 C2279 0.950 . S
C2268 H2260 0.950 . S
C2268 C2269 1.386 . S
C2268 C2270 1.391 . S
C2269 C2268 1.386 . S
C2269 C2273 1.393 . S
C2270 H2262 0.950 . S
C2270 C2268 1.391 . S
C2270 C2271 1.400 . S
C2271 C2270 1.400 . S
C2271 C2272 1.398 . S
C2271 C2277 1.491 . S
C2272 H2263 0.950 . S
C2272 C2271 1.398 . S
C2272 C2273 1.391 . S
C2273 H2261 0.950 . S
C2273 C2269 1.393 . S
C2273 C2272 1.391 . S
C2274 H2264 0.950 . S
C2274 C2275 1.386 . S
C2274 C2276 1.391 . S
C2275 C2274 1.386 . S
C2275 C2279 1.393 . S
C2276 H2265 0.950 . S
C2276 C2274 1.391 . S
C2276 C2277 1.400 . S
C2277 C2271 1.491 . S
C2277 C2276 1.400 . S
C2277 C2278 1.398 . S
C2278 H2266 0.950 . S
C2278 C2277 1.398 . S
C2278 C2279 1.391 . S
C2279 H2267 0.950 . S
C2279 C2275 1.393 . S
C2279 C2278 1.391 . S
H2280 C2288 0.950 . S
H2281 C2293 0.950 . S
H2282 C2290 0.950 . S
H2283 C2292 0.950 . S
H2284 C2294 0.950 . S
H2285 C2296 0.950 . S
H2286 C2298 0.950 . S
H2287 C2299 0.950 . S
C2288 H2280 0.950 . S
C2288 C2289 1.386 . S
C2288 C2290 1.391 . S
C2289 C2288 1.386 . S
C2289 C2293 1.393 . S
C2290 H2282 0.950 . S
C2290 C2288 1.391 . S
C2290 C2291 1.400 . S
C2291 C2290 1.400 . S
C2291 C2292 1.398 . S
C2291 C2297 1.491 . S
C2292 H2283 0.950 . S
C2292 C2291 1.398 . S
C2292 C2293 1.391 . S
C2293 H2281 0.950 . S
C2293 C2289 1.393 . S
C2293 C2292 1.391 . S
C2294 H2284 0.950 . S
C2294 C2295 1.386 . S
C2294 C2296 1.391 . S
C2295 C2294 1.386 . S
C2295 C2299 1.393 . S
C2296 H2285 0.950 . S
C2296 C2294 1.391 . S
C2296 C2297 1.400 . S
C2297 C2291 1.491 . S
C2297 C2296 1.400 . S
C2297 C2298 1.398 . S
C2298 H2286 0.950 . S
C2298 C2297 1.398 . S
C2298 C2299 1.391 . S
C2299 H2287 0.950 . S
C2299 C2295 1.393 . S
C2299 C2298 1.391 . S
H2300 C2308 0.950 . S
H2301 C2313 0.950 . S
H2302 C2310 0.950 . S
H2303 C2312 0.950 . S
H2304 C2314 0.950 . S
H2305 C2316 0.950 . S
H2306 C2318 0.950 . S
H2307 C2319 0.950 . S
C2308 H2300 0.950 . S
C2308 C2309 1.386 . S
C2308 C2310 1.391 . S
C2309 C2308 1.386 . S
C2309 C2313 1.393 . S
C2310 H2302 0.950 . S
C2310 C2308 1.391 . S
C2310 C2311 1.400 . S
C2311 C2310 1.400 . S
C2311 C2312 1.398 . S
C2311 C2317 1.491 . S
C2312 H2303 0.950 . S
C2312 C2311 1.398 . S
C2312 C2313 1.391 . S
C2313 H2301 0.950 . S
C2313 C2309 1.393 . S
C2313 C2312 1.391 . S
C2314 H2304 0.950 . S
C2314 C2315 1.386 . S
C2314 C2316 1.391 . S
C2315 C2314 1.386 . S
C2315 C2319 1.393 . S
C2316 H2305 0.950 . S
C2316 C2314 1.391 . S
C2316 C2317 1.400 . S
C2317 C2311 1.491 . S
C2317 C2316 1.400 . S
C2317 C2318 1.398 . S
C2318 H2306 0.950 . S
C2318 C2317 1.398 . S
C2318 C2319 1.391 . S
C2319 H2307 0.950 . S
C2319 C2315 1.393 . S
C2319 C2318 1.391 . S
H2320 C2328 0.950 . S
H2321 C2333 0.950 . S
H2322 C2330 0.950 . S
H2323 C2332 0.950 . S
H2324 C2334 0.950 . S
H2325 C2336 0.950 . S
H2326 C2338 0.950 . S
H2327 C2339 0.950 . S
C2328 H2320 0.950 . S
C2328 C2329 1.386 . S
C2328 C2330 1.391 . S
C2329 C2328 1.386 . S
C2329 C2333 1.393 . S
C2330 H2322 0.950 . S
C2330 C2328 1.391 . S
C2330 C2331 1.400 . S
C2331 C2330 1.400 . S
C2331 C2332 1.398 . S
C2331 C2337 1.491 . S
C2332 H2323 0.950 . S
C2332 C2331 1.398 . S
C2332 C2333 1.391 . S
C2333 H2321 0.950 . S
C2333 C2329 1.393 . S
C2333 C2332 1.391 . S
C2334 H2324 0.950 . S
C2334 C2335 1.386 . S
C2334 C2336 1.391 . S
C2335 C2334 1.386 . S
C2335 C2339 1.393 . S
C2336 H2325 0.950 . S
C2336 C2334 1.391 . S
C2336 C2337 1.400 . S
C2337 C2331 1.491 . S
C2337 C2336 1.400 . S
C2337 C2338 1.398 . S
C2338 H2326 0.950 . S
C2338 C2337 1.398 . S
C2338 C2339 1.391 . S
C2339 H2327 0.950 . S
C2339 C2335 1.393 . S
C2339 C2338 1.391 . S
H2340 C2348 0.950 . S
H2341 C2353 0.950 . S
H2342 C2350 0.950 . S
H2343 C2352 0.950 . S
H2344 C2354 0.950 . S
H2345 C2356 0.950 . S
H2346 C2358 0.950 . S
H2347 C2359 0.950 . S
C2348 H2340 0.950 . S
C2348 C2349 1.386 . S
C2348 C2350 1.391 . S
C2349 C2348 1.386 . S
C2349 C2353 1.393 . S
C2350 H2342 0.950 . S
C2350 C2348 1.391 . S
C2350 C2351 1.400 . S
C2351 C2350 1.400 . S
C2351 C2352 1.398 . S
C2351 C2357 1.491 . S
C2352 H2343 0.950 . S
C2352 C2351 1.398 . S
C2352 C2353 1.391 . S
C2353 H2341 0.950 . S
C2353 C2349 1.393 . S
C2353 C2352 1.391 . S
C2354 H2344 0.950 . S
C2354 C2355 1.386 . S
C2354 C2356 1.391 . S
C2355 C2354 1.386 . S
C2355 C2359 1.393 . S
C2356 H2345 0.950 . S
C2356 C2354 1.391 . S
C2356 C2357 1.400 . S
C2357 C2351 1.491 . S
C2357 C2356 1.400 . S
C2357 C2358 1.398 . S
C2358 H2346 0.950 . S
C2358 C2357 1.398 . S
C2358 C2359 1.391 . S
C2359 H2347 0.950 . S
C2359 C2355 1.393 . S
C2359 C2358 1.391 . S
H2360 C2368 0.950 . S
H2361 C2373 0.950 . S
H2362 C2370 0.950 1_655 S
H2363 C2372 0.950 . S
H2364 C2374 0.950 1_554 S
H2365 C2376 0.950 . S
H2366 C2378 0.950 . S
H2367 C2379 0.950 . S
C2368 H2360 0.950 . S
C2368 C2369 1.386 . S
C2368 C2370 1.392 . S
C2369 C2368 1.386 . S
C2369 C2373 1.393 . S
C2370 H2362 0.950 1_455 S
C2370 C2368 1.392 . S
C2370 C2371 1.399 1_455 S
C2371 C2370 1.399 1_655 S
C2371 C2372 1.398 1_655 S
C2371 C2377 1.492 . S
C2372 H2363 0.950 . S
C2372 C2371 1.398 1_455 S
C2372 C2373 1.391 . S
C2373 H2361 0.950 . S
C2373 C2369 1.393 . S
C2373 C2372 1.391 . S
C2374 H2364 0.950 1_556 S
C2374 C2375 1.386 . S
C2374 C2376 1.391 . S
C2375 C2374 1.386 . S
C2375 C2379 1.393 . S
C2376 H2365 0.950 . S
C2376 C2374 1.391 . S
C2376 C2377 1.400 . S
C2377 C2371 1.492 . S
C2377 C2376 1.400 . S
C2377 C2378 1.398 . S
C2378 H2366 0.950 . S
C2378 C2377 1.398 . S
C2378 C2379 1.391 . S
C2379 H2367 0.950 . S
C2379 C2375 1.393 . S
C2379 C2378 1.391 . S
H2380 C2388 0.950 . S
H2381 C2393 0.950 . S
H2382 C2390 0.950 . S
H2383 C2392 0.950 . S
H2384 C2394 0.950 . S
H2385 C2396 0.950 . S
H2386 C2398 0.950 . S
H2387 C2399 0.950 . S
C2388 H2380 0.950 . S
C2388 C2389 1.386 . S
C2388 C2390 1.391 . S
C2389 C2388 1.386 . S
C2389 C2393 1.393 . S
C2390 H2382 0.950 . S
C2390 C2388 1.391 . S
C2390 C2391 1.400 . S
C2391 C2390 1.400 . S
C2391 C2392 1.398 . S
C2391 C2397 1.491 . S
C2392 H2383 0.950 . S
C2392 C2391 1.398 . S
C2392 C2393 1.391 . S
C2393 H2381 0.950 . S
C2393 C2389 1.393 . S
C2393 C2392 1.391 . S
C2394 H2384 0.950 . S
C2394 C2395 1.386 . S
C2394 C2396 1.391 . S
C2395 C2394 1.386 . S
C2395 C2399 1.393 . S
C2396 H2385 0.950 . S
C2396 C2394 1.391 . S
C2396 C2397 1.400 . S
C2397 C2391 1.491 . S
C2397 C2396 1.400 . S
C2397 C2398 1.398 . S
C2398 H2386 0.950 . S
C2398 C2397 1.398 . S
C2398 C2399 1.391 . S
C2399 H2387 0.950 . S
C2399 C2395 1.393 . S
C2399 C2398 1.391 . S
H2400 C2408 0.950 . S
H2401 C2413 0.950 . S
H2402 C2410 0.950 . S
H2403 C2412 0.950 . S
H2404 C2414 0.950 . S
H2405 C2416 0.950 . S
H2406 C2418 0.950 . S
H2407 C2419 0.950 . S
C2408 H2400 0.950 . S
C2408 C2409 1.386 . S
C2408 C2410 1.391 . S
C2409 C2408 1.386 . S
C2409 C2413 1.393 . S
C2410 H2402 0.950 . S
C2410 C2408 1.391 . S
C2410 C2411 1.400 . S
C2411 C2410 1.400 . S
C2411 C2412 1.398 . S
C2411 C2417 1.491 . S
C2412 H2403 0.950 . S
C2412 C2411 1.398 . S
C2412 C2413 1.391 . S
C2413 H2401 0.950 . S
C2413 C2409 1.393 . S
C2413 C2412 1.391 . S
C2414 H2404 0.950 . S
C2414 C2415 1.386 . S
C2414 C2416 1.391 . S
C2415 C2414 1.386 . S
C2415 C2419 1.393 . S
C2416 H2405 0.950 . S
C2416 C2414 1.391 . S
C2416 C2417 1.400 . S
C2417 C2411 1.491 . S
C2417 C2416 1.400 . S
C2417 C2418 1.398 . S
C2418 H2406 0.950 . S
C2418 C2417 1.398 . S
C2418 C2419 1.391 . S
C2419 H2407 0.950 . S
C2419 C2415 1.393 . S
C2419 C2418 1.391 . S
H2420 C2428 0.950 . S
H2421 C2433 0.950 . S
H2422 C2430 0.950 . S
H2423 C2432 0.950 . S
H2424 C2434 0.950 . S
H2425 C2436 0.950 . S
H2426 C2438 0.950 . S
H2427 C2439 0.950 . S
C2428 H2420 0.950 . S
C2428 C2429 1.386 . S
C2428 C2430 1.391 . S
C2429 C2428 1.386 . S
C2429 C2433 1.393 . S
C2430 H2422 0.950 . S
C2430 C2428 1.391 . S
C2430 C2431 1.400 . S
C2431 C2430 1.400 . S
C2431 C2432 1.398 . S
C2431 C2437 1.491 . S
C2432 H2423 0.950 . S
C2432 C2431 1.398 . S
C2432 C2433 1.391 . S
C2433 H2421 0.950 . S
C2433 C2429 1.393 . S
C2433 C2432 1.391 . S
C2434 H2424 0.950 . S
C2434 C2435 1.386 . S
C2434 C2436 1.391 . S
C2435 C2434 1.386 . S
C2435 C2439 1.393 . S
C2436 H2425 0.950 . S
C2436 C2434 1.391 . S
C2436 C2437 1.400 . S
C2437 C2431 1.491 . S
C2437 C2436 1.400 . S
C2437 C2438 1.398 . S
C2438 H2426 0.950 . S
C2438 C2437 1.398 . S
C2438 C2439 1.391 . S
C2439 H2427 0.950 . S
C2439 C2435 1.393 . S
C2439 C2438 1.391 . S
H2440 C2448 0.950 1_655 S
H2441 C2453 0.950 . S
H2442 C2450 0.950 1_655 S
H2443 C2452 0.950 . S
H2444 C2454 0.950 . S
H2445 C2456 0.950 . S
H2446 C2458 0.950 1_655 S
H2447 C2459 0.950 1_655 S
C2448 H2440 0.950 1_455 S
C2448 C2449 1.386 . S
C2448 C2450 1.391 . S
C2449 C2448 1.386 . S
C2449 C2453 1.393 . S
C2450 H2442 0.950 1_455 S
C2450 C2448 1.391 . S
C2450 C2451 1.400 . S
C2451 C2450 1.400 . S
C2451 C2452 1.398 . S
C2451 C2457 1.491 . S
C2452 H2443 0.950 . S
C2452 C2451 1.398 . S
C2452 C2453 1.391 . S
C2453 H2441 0.950 . S
C2453 C2449 1.393 . S
C2453 C2452 1.391 . S
C2454 H2444 0.950 . S
C2454 C2455 1.386 . S
C2454 C2456 1.391 . S
C2455 C2454 1.386 . S
C2455 C2459 1.393 . S
C2456 H2445 0.950 . S
C2456 C2454 1.391 . S
C2456 C2457 1.400 . S
C2457 C2451 1.491 . S
C2457 C2456 1.400 . S
C2457 C2458 1.398 . S
C2458 H2446 0.950 1_455 S
C2458 C2457 1.398 . S
C2458 C2459 1.391 . S
C2459 H2447 0.950 1_455 S
C2459 C2455 1.393 . S
C2459 C2458 1.391 . S
H2460 C2468 0.950 . S
H2461 C2473 0.950 . S
H2462 C2470 0.950 . S
H2463 C2472 0.950 . S
H2464 C2474 0.950 . S
H2465 C2476 0.950 . S
H2466 C2478 0.950 . S
H2467 C2479 0.950 . S
C2468 H2460 0.950 . S
C2468 C2469 1.386 . S
C2468 C2470 1.391 . S
C2469 C2468 1.386 . S
C2469 C2473 1.393 . S
C2470 H2462 0.950 . S
C2470 C2468 1.391 . S
C2470 C2471 1.400 . S
C2471 C2470 1.400 . S
C2471 C2472 1.398 . S
C2471 C2477 1.491 . S
C2472 H2463 0.950 . S
C2472 C2471 1.398 . S
C2472 C2473 1.391 . S
C2473 H2461 0.950 . S
C2473 C2469 1.393 . S
C2473 C2472 1.391 . S
C2474 H2464 0.950 . S
C2474 C2475 1.386 . S
C2474 C2476 1.391 . S
C2475 C2474 1.386 . S
C2475 C2479 1.393 . S
C2476 H2465 0.950 . S
C2476 C2474 1.391 . S
C2476 C2477 1.400 . S
C2477 C2471 1.491 . S
C2477 C2476 1.400 . S
C2477 C2478 1.398 . S
C2478 H2466 0.950 . S
C2478 C2477 1.398 . S
C2478 C2479 1.391 . S
C2479 H2467 0.950 . S
C2479 C2475 1.393 . S
C2479 C2478 1.391 . S
H2480 C2488 0.950 . S
H2481 C2493 0.950 . S
H2482 C2490 0.950 . S
H2483 C2492 0.950 . S
H2484 C2494 0.950 . S
H2485 C2496 0.950 . S
H2486 C2498 0.950 . S
H2487 C2499 0.950 . S
C2488 H2480 0.950 . S
C2488 C2489 1.386 . S
C2488 C2490 1.391 . S
C2489 C2488 1.386 . S
C2489 C2493 1.393 . S
C2490 H2482 0.950 . S
C2490 C2488 1.391 . S
C2490 C2491 1.400 . S
C2491 C2490 1.400 . S
C2491 C2492 1.398 . S
C2491 C2497 1.491 . S
C2492 H2483 0.950 . S
C2492 C2491 1.398 . S
C2492 C2493 1.391 . S
C2493 H2481 0.950 . S
C2493 C2489 1.393 . S
C2493 C2492 1.391 . S
C2494 H2484 0.950 . S
C2494 C2495 1.386 . S
C2494 C2496 1.391 . S
C2495 C2494 1.386 . S
C2495 C2499 1.393 . S
C2496 H2485 0.950 . S
C2496 C2494 1.391 . S
C2496 C2497 1.400 . S
C2497 C2491 1.491 . S
C2497 C2496 1.400 . S
C2497 C2498 1.398 . S
C2498 H2486 0.950 . S
C2498 C2497 1.398 . S
C2498 C2499 1.391 . S
C2499 H2487 0.950 . S
C2499 C2495 1.393 . S
C2499 C2498 1.391 . S
H2500 C2508 0.950 . S
H2501 C2513 0.950 . S
H2502 C2510 0.950 . S
H2503 C2512 0.950 . S
H2504 C2514 0.950 . S
H2505 C2516 0.950 . S
H2506 C2518 0.950 . S
H2507 C2519 0.950 . S
C2508 H2500 0.950 . S
C2508 C2509 1.386 . S
C2508 C2510 1.391 . S
C2509 C2508 1.386 . S
C2509 C2513 1.393 . S
C2510 H2502 0.950 . S
C2510 C2508 1.391 . S
C2510 C2511 1.400 . S
C2511 C2510 1.400 . S
C2511 C2512 1.398 . S
C2511 C2517 1.491 . S
C2512 H2503 0.950 . S
C2512 C2511 1.398 . S
C2512 C2513 1.391 . S
C2513 H2501 0.950 . S
C2513 C2509 1.393 . S
C2513 C2512 1.391 . S
C2514 H2504 0.950 . S
C2514 C2515 1.386 . S
C2514 C2516 1.391 . S
C2515 C2514 1.386 . S
C2515 C2519 1.393 . S
C2516 H2505 0.950 . S
C2516 C2514 1.391 . S
C2516 C2517 1.400 . S
C2517 C2511 1.491 . S
C2517 C2516 1.400 . S
C2517 C2518 1.398 . S
C2518 H2506 0.950 . S
C2518 C2517 1.398 . S
C2518 C2519 1.391 . S
C2519 H2507 0.950 . S
C2519 C2515 1.393 . S
C2519 C2518 1.391 . S
H2520 C2528 0.950 . S
H2521 C2533 0.950 . S
H2522 C2530 0.950 . S
H2523 C2532 0.950 . S
H2524 C2534 0.950 . S
H2525 C2536 0.950 . S
H2526 C2538 0.950 . S
H2527 C2539 0.950 . S
C2528 H2520 0.950 . S
C2528 C2529 1.386 . S
C2528 C2530 1.391 . S
C2529 C2528 1.386 . S
C2529 C2533 1.393 . S
C2530 H2522 0.950 . S
C2530 C2528 1.391 . S
C2530 C2531 1.400 . S
C2531 C2530 1.400 . S
C2531 C2532 1.398 . S
C2531 C2537 1.491 . S
C2532 H2523 0.950 . S
C2532 C2531 1.398 . S
C2532 C2533 1.391 . S
C2533 H2521 0.950 . S
C2533 C2529 1.393 . S
C2533 C2532 1.391 . S
C2534 H2524 0.950 . S
C2534 C2535 1.386 . S
C2534 C2536 1.391 . S
C2535 C2534 1.386 . S
C2535 C2539 1.393 . S
C2536 H2525 0.950 . S
C2536 C2534 1.391 . S
C2536 C2537 1.400 . S
C2537 C2531 1.491 . S
C2537 C2536 1.400 . S
C2537 C2538 1.398 . S
C2538 H2526 0.950 . S
C2538 C2537 1.398 . S
C2538 C2539 1.391 . S
C2539 H2527 0.950 . S
C2539 C2535 1.393 . S
C2539 C2538 1.391 . S
H2540 C2548 0.950 . S
H2541 C2553 0.950 . S
H2542 C2550 0.950 . S
H2543 C2552 0.950 . S
H2544 C2554 0.950 . S
H2545 C2556 0.950 . S
H2546 C2558 0.950 . S
H2547 C2559 0.950 . S
C2548 H2540 0.950 . S
C2548 C2549 1.386 . S
C2548 C2550 1.391 . S
C2549 C2548 1.386 . S
C2549 C2553 1.393 . S
C2550 H2542 0.950 . S
C2550 C2548 1.391 . S
C2550 C2551 1.400 . S
C2551 C2550 1.400 . S
C2551 C2552 1.398 . S
C2551 C2557 1.491 . S
C2552 H2543 0.950 . S
C2552 C2551 1.398 . S
C2552 C2553 1.391 . S
C2553 H2541 0.950 . S
C2553 C2549 1.393 . S
C2553 C2552 1.391 . S
C2554 H2544 0.950 . S
C2554 C2555 1.386 . S
C2554 C2556 1.391 . S
C2555 C2554 1.386 . S
C2555 C2559 1.393 . S
C2556 H2545 0.950 . S
C2556 C2554 1.391 . S
C2556 C2557 1.400 . S
C2557 C2551 1.491 . S
C2557 C2556 1.400 . S
C2557 C2558 1.398 . S
C2558 H2546 0.950 . S
C2558 C2557 1.398 . S
C2558 C2559 1.391 . S
C2559 H2547 0.950 . S
C2559 C2555 1.393 . S
C2559 C2558 1.391 . S
H2560 C2568 0.950 . S
H2561 C2573 0.950 . S
H2562 C2570 0.950 . S
H2563 C2572 0.950 . S
H2564 C2574 0.950 . S
H2565 C2576 0.950 . S
H2566 C2578 0.950 . S
H2567 C2579 0.950 . S
C2568 H2560 0.950 . S
C2568 C2569 1.386 . S
C2568 C2570 1.391 . S
C2569 C2568 1.386 . S
C2569 C2573 1.393 . S
C2570 H2562 0.950 . S
C2570 C2568 1.391 . S
C2570 C2571 1.400 . S
C2571 C2570 1.400 . S
C2571 C2572 1.398 . S
C2571 C2577 1.491 . S
C2572 H2563 0.950 . S
C2572 C2571 1.398 . S
C2572 C2573 1.391 . S
C2573 H2561 0.950 . S
C2573 C2569 1.393 . S
C2573 C2572 1.391 . S
C2574 H2564 0.950 . S
C2574 C2575 1.386 . S
C2574 C2576 1.391 . S
C2575 C2574 1.386 . S
C2575 C2579 1.393 . S
C2576 H2565 0.950 . S
C2576 C2574 1.391 . S
C2576 C2577 1.400 . S
C2577 C2571 1.491 . S
C2577 C2576 1.400 . S
C2577 C2578 1.398 . S
C2578 H2566 0.950 . S
C2578 C2577 1.398 . S
C2578 C2579 1.391 . S
C2579 H2567 0.950 . S
C2579 C2575 1.393 . S
C2579 C2578 1.391 . S
H2580 C2588 0.950 . S
H2581 C2593 0.950 . S
H2582 C2590 0.950 . S
H2583 C2592 0.950 . S
H2584 C2594 0.950 . S
H2585 C2596 0.950 . S
H2586 C2598 0.950 . S
H2587 C2599 0.950 . S
C2588 H2580 0.950 . S
C2588 C2589 1.386 . S
C2588 C2590 1.391 . S
C2589 C2588 1.386 . S
C2589 C2593 1.393 . S
C2590 H2582 0.950 . S
C2590 C2588 1.391 . S
C2590 C2591 1.400 . S
C2591 C2590 1.400 . S
C2591 C2592 1.398 . S
C2591 C2597 1.491 . S
C2592 H2583 0.950 . S
C2592 C2591 1.398 . S
C2592 C2593 1.391 . S
C2593 H2581 0.950 . S
C2593 C2589 1.393 . S
C2593 C2592 1.391 . S
C2594 H2584 0.950 . S
C2594 C2595 1.386 . S
C2594 C2596 1.391 . S
C2595 C2594 1.386 . S
C2595 C2599 1.393 . S
C2596 H2585 0.950 . S
C2596 C2594 1.391 . S
C2596 C2597 1.400 . S
C2597 C2591 1.491 . S
C2597 C2596 1.400 . S
C2597 C2598 1.398 . S
C2598 H2586 0.950 . S
C2598 C2597 1.398 . S
C2598 C2599 1.391 . S
C2599 H2587 0.950 . S
C2599 C2595 1.393 . S
C2599 C2598 1.391 . S
H2600 C2608 0.950 . S
H2601 C2613 0.950 . S
H2602 C2610 0.950 . S
H2603 C2612 0.950 . S
H2604 C2614 0.950 . S
H2605 C2616 0.950 . S
H2606 C2618 0.950 . S
H2607 C2619 0.950 . S
C2608 H2600 0.950 . S
C2608 C2609 1.386 . S
C2608 C2610 1.391 . S
C2609 C2608 1.386 . S
C2609 C2613 1.393 . S
C2610 H2602 0.950 . S
C2610 C2608 1.391 . S
C2610 C2611 1.400 . S
C2611 C2610 1.400 . S
C2611 C2612 1.398 . S
C2611 C2617 1.491 . S
C2612 H2603 0.950 . S
C2612 C2611 1.398 . S
C2612 C2613 1.391 . S
C2613 H2601 0.950 . S
C2613 C2609 1.393 . S
C2613 C2612 1.391 . S
C2614 H2604 0.950 . S
C2614 C2615 1.386 . S
C2614 C2616 1.391 . S
C2615 C2614 1.386 . S
C2615 C2619 1.393 . S
C2616 H2605 0.950 . S
C2616 C2614 1.391 . S
C2616 C2617 1.400 . S
C2617 C2611 1.491 . S
C2617 C2616 1.400 . S
C2617 C2618 1.398 . S
C2618 H2606 0.950 . S
C2618 C2617 1.398 . S
C2618 C2619 1.391 . S
C2619 H2607 0.950 . S
C2619 C2615 1.393 . S
C2619 C2618 1.391 . S
H2620 C2628 0.950 . S
H2621 C2633 0.950 . S
H2622 C2630 0.950 . S
H2623 C2632 0.950 . S
H2624 C2634 0.950 . S
H2625 C2636 0.950 . S
H2626 C2638 0.950 . S
H2627 C2639 0.950 . S
C2628 H2620 0.950 . S
C2628 C2629 1.386 . S
C2628 C2630 1.391 . S
C2629 C2628 1.386 . S
C2629 C2633 1.393 . S
C2630 H2622 0.950 . S
C2630 C2628 1.391 . S
C2630 C2631 1.400 . S
C2631 C2630 1.400 . S
C2631 C2632 1.398 . S
C2631 C2637 1.491 . S
C2632 H2623 0.950 . S
C2632 C2631 1.398 . S
C2632 C2633 1.391 . S
C2633 H2621 0.950 . S
C2633 C2629 1.393 . S
C2633 C2632 1.391 . S
C2634 H2624 0.950 . S
C2634 C2635 1.386 . S
C2634 C2636 1.391 . S
C2635 C2634 1.386 . S
C2635 C2639 1.393 . S
C2636 H2625 0.950 . S
C2636 C2634 1.391 . S
C2636 C2637 1.400 . S
C2637 C2631 1.491 . S
C2637 C2636 1.400 . S
C2637 C2638 1.398 . S
C2638 H2626 0.950 . S
C2638 C2637 1.398 . S
C2638 C2639 1.391 . S
C2639 H2627 0.950 . S
C2639 C2635 1.393 . S
C2639 C2638 1.391 . S
H2640 C2648 0.950 . S
H2641 C2653 0.950 . S
H2642 C2650 0.950 . S
H2643 C2652 0.950 . S
H2644 C2654 0.950 . S
H2645 C2656 0.950 . S
H2646 C2658 0.950 . S
H2647 C2659 0.950 . S
C2648 H2640 0.950 . S
C2648 C2649 1.386 . S
C2648 C2650 1.391 . S
C2649 C2648 1.386 . S
C2649 C2653 1.393 . S
C2650 H2642 0.950 . S
C2650 C2648 1.391 . S
C2650 C2651 1.400 . S
C2651 C2650 1.400 . S
C2651 C2652 1.398 . S
C2651 C2657 1.491 . S
C2652 H2643 0.950 . S
C2652 C2651 1.398 . S
C2652 C2653 1.391 . S
C2653 H2641 0.950 . S
C2653 C2649 1.393 . S
C2653 C2652 1.391 . S
C2654 H2644 0.950 . S
C2654 C2655 1.386 . S
C2654 C2656 1.391 . S
C2655 C2654 1.386 . S
C2655 C2659 1.393 . S
C2656 H2645 0.950 . S
C2656 C2654 1.391 . S
C2656 C2657 1.400 . S
C2657 C2651 1.491 . S
C2657 C2656 1.400 . S
C2657 C2658 1.398 . S
C2658 H2646 0.950 . S
C2658 C2657 1.398 . S
C2658 C2659 1.391 . S
C2659 H2647 0.950 . S
C2659 C2655 1.393 . S
C2659 C2658 1.391 . S
H2660 C2668 0.950 . S
H2661 C2673 0.950 . S
H2662 C2670 0.950 . S
H2663 C2672 0.950 . S
H2664 C2674 0.950 . S
H2665 C2676 0.950 . S
H2666 C2678 0.950 . S
H2667 C2679 0.950 . S
C2668 H2660 0.950 . S
C2668 C2669 1.386 . S
C2668 C2670 1.391 . S
C2669 C2668 1.386 . S
C2669 C2673 1.393 . S
C2670 H2662 0.950 . S
C2670 C2668 1.391 . S
C2670 C2671 1.400 . S
C2671 C2670 1.400 . S
C2671 C2672 1.398 . S
C2671 C2677 1.491 . S
C2672 H2663 0.950 . S
C2672 C2671 1.398 . S
C2672 C2673 1.391 . S
C2673 H2661 0.950 . S
C2673 C2669 1.393 . S
C2673 C2672 1.391 . S
C2674 H2664 0.950 . S
C2674 C2675 1.386 . S
C2674 C2676 1.391 . S
C2675 C2674 1.386 . S
C2675 C2679 1.393 . S
C2676 H2665 0.950 . S
C2676 C2674 1.391 . S
C2676 C2677 1.400 . S
C2677 C2671 1.491 . S
C2677 C2676 1.400 . S
C2677 C2678 1.398 . S
C2678 H2666 0.950 . S
C2678 C2677 1.398 . S
C2678 C2679 1.391 . S
C2679 H2667 0.950 . S
C2679 C2675 1.393 . S
C2679 C2678 1.391 . S
H2680 C2688 0.950 . S
H2681 C2693 0.950 . S
H2682 C2690 0.950 . S
H2683 C2692 0.950 . S
H2684 C2694 0.950 . S
H2685 C2696 0.950 . S
H2686 C2698 0.950 . S
H2687 C2699 0.950 . S
C2688 H2680 0.950 . S
C2688 C2689 1.386 . S
C2688 C2690 1.391 . S
C2689 C2688 1.386 . S
C2689 C2693 1.393 . S
C2690 H2682 0.950 . S
C2690 C2688 1.391 . S
C2690 C2691 1.400 . S
C2691 C2690 1.400 . S
C2691 C2692 1.398 . S
C2691 C2697 1.491 . S
C2692 H2683 0.950 . S
C2692 C2691 1.398 . S
C2692 C2693 1.391 . S
C2693 H2681 0.950 . S
C2693 C2689 1.393 . S
C2693 C2692 1.391 . S
C2694 H2684 0.950 . S
C2694 C2695 1.386 . S
C2694 C2696 1.391 . S
C2695 C2694 1.386 . S
C2695 C2699 1.393 . S
C2696 H2685 0.950 . S
C2696 C2694 1.391 . S
C2696 C2697 1.400 . S
C2697 C2691 1.491 . S
C2697 C2696 1.400 . S
C2697 C2698 1.398 . S
C2698 H2686 0.950 . S
C2698 C2697 1.398 . S
C2698 C2699 1.391 . S
C2699 H2687 0.950 . S
C2699 C2695 1.393 . S
C2699 C2698 1.391 . S
H2700 C2708 0.950 1_556 S
H2701 C2713 0.950 . S
H2702 C2710 0.950 1_556 S
H2703 C2712 0.950 . S
H2704 C2714 0.950 1_545 S
H2705 C2716 0.950 . S
H2706 C2718 0.954 . S
H2707 C2719 0.950 . S
C2708 H2700 0.950 1_554 S
C2708 C2709 1.386 . S
C2708 C2710 1.391 . S
C2709 C2708 1.386 . S
C2709 C2713 1.393 . S
C2710 H2702 0.950 1_554 S
C2710 C2708 1.391 . S
C2710 C2711 1.400 . S
C2711 C2710 1.400 . S
C2711 C2712 1.398 . S
C2711 C2717 1.491 . S
C2712 H2703 0.950 . S
C2712 C2711 1.398 . S
C2712 C2713 1.391 . S
C2713 H2701 0.950 . S
C2713 C2709 1.393 . S
C2713 C2712 1.391 . S
C2714 H2704 0.950 1_565 S
C2714 C2715 1.386 . S
C2714 C2716 1.391 . S
C2715 C2714 1.386 . S
C2715 C2719 1.393 1_554 S
C2716 H2705 0.950 . S
C2716 C2714 1.391 . S
C2716 C2717 1.400 . S
C2717 C2711 1.491 . S
C2717 C2716 1.400 . S
C2717 C2718 1.394 1_554 S
C2718 H2706 0.954 . S
C2718 C2717 1.394 1_556 S
C2718 C2719 1.391 . S
C2719 H2707 0.950 . S
C2719 C2715 1.393 1_556 S
C2719 C2718 1.391 . S
H2720 C2728 0.950 . S
H2721 C2733 0.950 . S
H2722 C2730 0.950 . S
H2723 C2732 0.950 . S
H2724 C2734 0.950 . S
H2725 C2736 0.950 . S
H2726 C2738 0.950 . S
H2727 C2739 0.950 . S
C2728 H2720 0.950 . S
C2728 C2729 1.386 . S
C2728 C2730 1.391 . S
C2729 C2728 1.386 . S
C2729 C2733 1.393 . S
C2730 H2722 0.950 . S
C2730 C2728 1.391 . S
C2730 C2731 1.400 . S
C2731 C2730 1.400 . S
C2731 C2732 1.398 . S
C2731 C2737 1.491 . S
C2732 H2723 0.950 . S
C2732 C2731 1.398 . S
C2732 C2733 1.391 . S
C2733 H2721 0.950 . S
C2733 C2729 1.393 . S
C2733 C2732 1.391 . S
C2734 H2724 0.950 . S
C2734 C2735 1.386 . S
C2734 C2736 1.391 . S
C2735 C2734 1.386 . S
C2735 C2739 1.393 . S
C2736 H2725 0.950 . S
C2736 C2734 1.391 . S
C2736 C2737 1.400 . S
C2737 C2731 1.491 . S
C2737 C2736 1.400 . S
C2737 C2738 1.398 . S
C2738 H2726 0.950 . S
C2738 C2737 1.398 . S
C2738 C2739 1.391 . S
C2739 H2727 0.950 . S
C2739 C2735 1.393 . S
C2739 C2738 1.391 . S
H2740 C2748 0.950 . S
H2741 C2753 0.950 . S
H2742 C2750 0.950 . S
H2743 C2752 0.950 . S
H2744 C2754 0.950 . S
H2745 C2756 0.950 . S
H2746 C2758 0.950 1_556 S
H2747 C2759 0.950 . S
C2748 H2740 0.950 . S
C2748 C2749 1.386 1_556 S
C2748 C2750 1.391 . S
C2749 C2748 1.386 1_554 S
C2749 C2753 1.393 . S
C2750 H2742 0.950 . S
C2750 C2748 1.391 . S
C2750 C2751 1.400 1_556 S
C2751 C2750 1.400 1_554 S
C2751 C2752 1.398 . S
C2751 C2757 1.491 . S
C2752 H2743 0.950 . S
C2752 C2751 1.398 . S
C2752 C2753 1.391 . S
C2753 H2741 0.950 . S
C2753 C2749 1.393 . S
C2753 C2752 1.391 . S
C2754 H2744 0.950 . S
C2754 C2755 1.386 . S
C2754 C2756 1.391 . S
C2755 C2754 1.386 . S
C2755 C2759 1.393 . S
C2756 H2745 0.950 . S
C2756 C2754 1.391 . S
C2756 C2757 1.400 . S
C2757 C2751 1.491 . S
C2757 C2756 1.400 . S
C2757 C2758 1.398 . S
C2758 H2746 0.950 1_554 S
C2758 C2757 1.398 . S
C2758 C2759 1.391 . S
C2759 H2747 0.950 . S
C2759 C2755 1.393 . S
C2759 C2758 1.391 . S
H2760 C2768 0.950 . S
H2761 C2773 0.950 . S
H2762 C2770 0.950 . S
H2763 C2772 0.950 . S
H2764 C2774 0.950 . S
H2765 C2776 0.950 . S
H2766 C2778 0.950 . S
H2767 C2779 0.950 . S
C2768 H2760 0.950 . S
C2768 C2769 1.386 . S
C2768 C2770 1.391 . S
C2769 C2768 1.386 . S
C2769 C2773 1.393 . S
C2770 H2762 0.950 . S
C2770 C2768 1.391 . S
C2770 C2771 1.400 . S
C2771 C2770 1.400 . S
C2771 C2772 1.398 . S
C2771 C2777 1.491 . S
C2772 H2763 0.950 . S
C2772 C2771 1.398 . S
C2772 C2773 1.391 . S
C2773 H2761 0.950 . S
C2773 C2769 1.393 . S
C2773 C2772 1.391 . S
C2774 H2764 0.950 . S
C2774 C2775 1.386 . S
C2774 C2776 1.391 . S
C2775 C2774 1.386 . S
C2775 C2779 1.393 . S
C2776 H2765 0.950 . S
C2776 C2774 1.391 . S
C2776 C2777 1.400 . S
C2777 C2771 1.491 . S
C2777 C2776 1.400 . S
C2777 C2778 1.398 . S
C2778 H2766 0.950 . S
C2778 C2777 1.398 . S
C2778 C2779 1.391 . S
C2779 H2767 0.950 . S
C2779 C2775 1.393 . S
C2779 C2778 1.391 . S
H2780 C2788 0.950 . S
H2781 C2793 0.950 . S
H2782 C2790 0.950 . S
H2783 C2792 0.950 . S
H2784 C2794 0.950 . S
H2785 C2796 0.950 . S
H2786 C2798 0.950 . S
H2787 C2799 0.950 . S
C2788 H2780 0.950 . S
C2788 C2789 1.386 . S
C2788 C2790 1.391 . S
C2789 C2788 1.386 . S
C2789 C2793 1.393 . S
C2790 H2782 0.950 . S
C2790 C2788 1.391 . S
C2790 C2791 1.400 . S
C2791 C2790 1.400 . S
C2791 C2792 1.398 . S
C2791 C2797 1.491 . S
C2792 H2783 0.950 . S
C2792 C2791 1.398 . S
C2792 C2793 1.391 . S
C2793 H2781 0.950 . S
C2793 C2789 1.393 . S
C2793 C2792 1.391 . S
C2794 H2784 0.950 . S
C2794 C2795 1.386 . S
C2794 C2796 1.391 . S
C2795 C2794 1.386 . S
C2795 C2799 1.393 . S
C2796 H2785 0.950 . S
C2796 C2794 1.391 . S
C2796 C2797 1.400 . S
C2797 C2791 1.491 . S
C2797 C2796 1.400 . S
C2797 C2798 1.398 . S
C2798 H2786 0.950 . S
C2798 C2797 1.398 . S
C2798 C2799 1.391 . S
C2799 H2787 0.950 . S
C2799 C2795 1.393 . S
C2799 C2798 1.391 . S
C895 C353 1.032 . S
C889 C5 1.038 . S
C909 C23 1.896 . S
C915 C399 1.883 . S
C929 C39 0.875 . S
C935 C408 0.874 . S
C955 C446 1.660 . S
C949 C42 1.678 . S
C969 C19 1.668 . S
C975 C480 1.640 . S
C995 C510 0.827 . S
C989 C28 0.827 . S
C1015 C569 1.610 1_556 S
C1009 C53 1.617 . S
C1029 C9 0.959 . S
C1035 C582 0.952 . S
C1049 C65 1.449 . S
C1055 C365 1.431 . S
C1069 C75 1.198 . S
C1075 C383 1.185 . S
C1095 C404 1.732 . S
C1089 C93 1.755 . S
C1115 C442 0.808 . S
C1109 C109 0.802 . S
C1129 C56 1.277 . S
C1135 C476 1.269 . S
C1155 C506 1.551 . S
C1149 C81 1.558 . S
C1175 C553 1.250 . S
C1169 C84 1.257 . S
C1195 C578 0.663 . S
C1189 C103 0.675 . S
C1215 C349 0.639 1_556 S
C1209 C107 0.664 . S
C1235 C608 1.611 . S
C1229 C121 1.612 . S
C1249 C131 1.477 . S
C1255 C650 1.466 . S
C1275 C693 0.547 . S
C1269 C140 0.556 . S
C1289 C61 1.413 . S
C1295 C574 1.392 . S
C1315 C412 1.446 . S
C1309 C70 1.441 . S
C1329 C137 1.339 . S
C1335 C710 1.334 . S
C1355 C761 1.530 . S
C1349 C165 1.530 . S
C1369 C173 1.029 . S
C1375 C344 1.030 1_556 S
C1395 C744 1.840 . S
C1389 C182 1.844 . S
C1409 C207 0.868 . S
C1415 C417 0.861 . S
C1429 C219 1.655 . S
C1435 C727 1.616 . S
C1455 C489 1.599 . S
C1449 C187 1.627 . S
C1475 C655 0.834 . S
C1469 C205 0.825 . S
C1495 C540 1.578 . S
C1489 C221 1.579 . S
C1515 C795 0.928 . S
C1509 C168 0.942 . S
C1535 C336 1.391 . S
C1529 C224 1.409 . S
C1549 C243 1.169 . S
C1555 C748 1.160 . S
C1575 C433 1.686 . S
C1569 C252 1.700 . S
C1589 C277 0.772 . S
C1595 C723 0.781 . S
C1609 C233 1.294 . S
C1615 C485 1.281 . S
C1629 C249 1.546 . S
C1635 C671 1.538 . S
C1655 C544 1.236 . S
C1649 C261 1.258 . S
C1669 C271 0.653 . S
C1675 C791 0.656 . S
C1689 C266 0.628 . S
C1695 C340 0.645 . S
C1709 C280 1.562 . S
C1715 C637 1.571 . S
C1729 C299 1.418 . S
C1735 C523 1.408 . S
C1749 C317 0.519 . S
C1755 C684 0.518 . S
C1775 C807 1.358 . S
C1769 C229 1.378 . S
C1795 C421 1.432 . S
C1789 C247 1.441 . S
C1815 C467 1.314 . S
C1809 C305 1.320 . S
C1835 C378 1.516 . S
C1829 C333 1.521 . S
C1849 C33 1.043 . S
C1855 C829 1.044 . S
C1875 C773 1.882 . S
C1869 C51 1.897 . S
C1895 C850 0.866 . S
C1889 C11 0.858 . S
C1909 C14 1.680 . S
C1915 C718 1.664 . S
C1929 C47 1.671 . S
C1935 C616 1.638 1_556 S
C1955 C646 0.843 . S
C1949 C0 0.842 . S
C1975 C705 1.603 . S
C1969 C25 1.608 . S
C1995 C786 0.961 . S
C1989 C37 0.955 . S
C2015 C841 1.435 . S
C2009 C163 1.454 . S
C2029 C117 1.205 1_556 S
C2035 C757 1.194 . S
C2049 C135 1.763 . S
C2055 C846 1.746 . S
C2075 C714 0.808 . S
C2069 C151 0.808 . S
C2095 C612 1.274 . S
C2089 C154 1.285 . S
C2109 C123 1.569 . S
C2115 C642 1.561 . S
C2135 C689 1.252 . S
C2129 C126 1.259 . S
C2149 C145 0.669 . S
C2155 C782 0.676 . S
C2175 C825 0.638 . S
C2169 C149 0.647 . S
C2195 C472 1.611 . S
C2189 C79 1.611 . S
C2215 C514 1.449 . S
C2209 C89 1.468 . S
C2229 C98 0.570 . S
C2235 C557 0.566 . S
C2255 C778 1.402 . S
C2249 C159 1.418 . S
C2269 C112 1.429 . S
C2275 C854 1.432 . S
C2295 C438 1.342 . S
C2289 C95 1.338 . S
C2315 C387 1.526 . S
C2309 C67 1.533 . S
C2329 C201 1.014 . S
C2335 C820 1.005 . S
C2355 C370 1.829 . S
C2349 C210 1.841 . S
C2375 C859 0.879 . S
C2369 C179 0.857 . S
C2389 C191 1.654 . S
C2395 C455 1.615 . S
C2409 C215 1.628 . S
C2415 C625 1.601 . S
C2429 C177 0.827 . S
C2435 C519 0.814 . S
C2449 C193 1.587 . S
C2455 C676 1.579 . S
C2469 C196 0.945 . S
C2475 C591 0.932 . S
C2495 C812 1.402 . S
C2489 C322 1.415 . S
C2509 C285 1.171 . S
C2515 C374 1.156 . S
C2535 C875 1.684 . S
C2529 C294 1.694 . S
C2549 C319 0.775 . S
C2555 C451 0.777 . S
C2569 C331 1.292 . S
C2575 C621 1.281 . S
C2595 C535 1.537 . S
C2589 C291 1.549 . S
C2609 C303 1.258 . S
C2615 C680 1.235 . S
C2635 C587 0.648 . S
C2629 C313 0.659 . S
C2655 C816 0.626 . S
C2649 C308 0.624 . S
C2675 C501 1.565 . S
C2669 C238 1.566 . S
C2689 C257 1.423 . S
C2695 C659 1.416 . S
C2715 C548 0.538 . S
C2709 C275 0.508 . S
C2735 C603 1.357 . S
C2729 C327 1.378 . S
C2749 C289 1.441 1_554 S
C2755 C863 1.415 . S
C2775 C739 1.319 . S
C2769 C263 1.316 . S
C2795 C752 1.512 . S
C2789 C235 1.520 . S
