# Generated by pormake.
# Topology gar, (4,6)-cn, num edge types: 1
# Building blocks:
#     Node 0, Type 0, BuildingBlock: CEKHIL_clean_sbu_0, # of connection points: 4
#     Node 1, Type 0, BuildingBlock: CEKHIL_clean_sbu_0, # of connection points: 4
#     Node 2, Type 0, BuildingBlock: CEKHIL_clean_sbu_0, # of connection points: 4
#     Node 3, Type 0, BuildingBlock: CEKHIL_clean_sbu_0, # of connection points: 4
#     Node 4, Type 0, BuildingBlock: CEKHIL_clean_sbu_0, # of connection points: 4
#     Node 5, Type 0, BuildingBlock: CEKHIL_clean_sbu_0, # of connection points: 4
#     Node 6, Type 0, BuildingBlock: CEKHIL_clean_sbu_0, # of connection points: 4
#     Node 7, Type 0, BuildingBlock: CEKHIL_clean_sbu_0, # of connection points: 4
#     Node 8, Type 0, BuildingBlock: CEKHIL_clean_sbu_0, # of connection points: 4
#     Node 9, Type 0, BuildingBlock: CEKHIL_clean_sbu_0, # of connection points: 4
#     Node 10, Type 0, BuildingBlock: CEKHIL_clean_sbu_0, # of connection points: 4
#     Node 11, Type 0, BuildingBlock: CEKHIL_clean_sbu_0, # of connection points: 4
#     Node 12, Type 0, BuildingBlock: CEKHIL_clean_sbu_0, # of connection points: 4
#     Node 13, Type 0, BuildingBlock: CEKHIL_clean_sbu_0, # of connection points: 4
#     Node 14, Type 0, BuildingBlock: CEKHIL_clean_sbu_0, # of connection points: 4
#     Node 15, Type 0, BuildingBlock: CEKHIL_clean_sbu_0, # of connection points: 4
#     Node 16, Type 0, BuildingBlock: CEKHIL_clean_sbu_0, # of connection points: 4
#     Node 17, Type 0, BuildingBlock: CEKHIL_clean_sbu_0, # of connection points: 4
#     Node 18, Type 0, BuildingBlock: CEKHIL_clean_sbu_0, # of connection points: 4
#     Node 19, Type 0, BuildingBlock: CEKHIL_clean_sbu_0, # of connection points: 4
#     Node 20, Type 0, BuildingBlock: CEKHIL_clean_sbu_0, # of connection points: 4
#     Node 21, Type 0, BuildingBlock: CEKHIL_clean_sbu_0, # of connection points: 4
#     Node 22, Type 0, BuildingBlock: CEKHIL_clean_sbu_0, # of connection points: 4
#     Node 23, Type 0, BuildingBlock: CEKHIL_clean_sbu_0, # of connection points: 4
#     Node 24, Type 1, BuildingBlock: MIFKUJ_clean_sbu_0, # of connection points: 6
#     Node 25, Type 1, BuildingBlock: MIFKUJ_clean_sbu_0, # of connection points: 6
#     Node 26, Type 1, BuildingBlock: MIFKUJ_clean_sbu_0, # of connection points: 6
#     Node 27, Type 1, BuildingBlock: MIFKUJ_clean_sbu_0, # of connection points: 6
#     Node 28, Type 1, BuildingBlock: MIFKUJ_clean_sbu_0, # of connection points: 6
#     Node 29, Type 1, BuildingBlock: MIFKUJ_clean_sbu_0, # of connection points: 6
#     Node 30, Type 1, BuildingBlock: MIFKUJ_clean_sbu_0, # of connection points: 6
#     Node 31, Type 1, BuildingBlock: MIFKUJ_clean_sbu_0, # of connection points: 6
#     Node 32, Type 1, BuildingBlock: MIFKUJ_clean_sbu_0, # of connection points: 6
#     Node 33, Type 1, BuildingBlock: MIFKUJ_clean_sbu_0, # of connection points: 6
#     Node 34, Type 1, BuildingBlock: MIFKUJ_clean_sbu_0, # of connection points: 6
#     Node 35, Type 1, BuildingBlock: MIFKUJ_clean_sbu_0, # of connection points: 6
#     Node 36, Type 1, BuildingBlock: MIFKUJ_clean_sbu_0, # of connection points: 6
#     Node 37, Type 1, BuildingBlock: MIFKUJ_clean_sbu_0, # of connection points: 6
#     Node 38, Type 1, BuildingBlock: MIFKUJ_clean_sbu_0, # of connection points: 6
#     Node 39, Type 1, BuildingBlock: MIFKUJ_clean_sbu_0, # of connection points: 6
#     Edge 40, Type (0, 1), BuildingBlock: MIFKUJ_clean_linker_0, # of connection points: 2
#     Edge 41, Type (0, 1), BuildingBlock: MIFKUJ_clean_linker_0, # of connection points: 2
#     Edge 42, Type (0, 1), BuildingBlock: MIFKUJ_clean_linker_0, # of connection points: 2
#     Edge 43, Type (0, 1), BuildingBlock: MIFKUJ_clean_linker_0, # of connection points: 2
#     Edge 44, Type (0, 1), BuildingBlock: MIFKUJ_clean_linker_0, # of connection points: 2
#     Edge 45, Type (0, 1), BuildingBlock: MIFKUJ_clean_linker_0, # of connection points: 2
#     Edge 46, Type (0, 1), BuildingBlock: MIFKUJ_clean_linker_0, # of connection points: 2
#     Edge 47, Type (0, 1), BuildingBlock: MIFKUJ_clean_linker_0, # of connection points: 2
#     Edge 48, Type (0, 1), BuildingBlock: MIFKUJ_clean_linker_0, # of connection points: 2
#     Edge 49, Type (0, 1), BuildingBlock: MIFKUJ_clean_linker_0, # of connection points: 2
#     Edge 50, Type (0, 1), BuildingBlock: MIFKUJ_clean_linker_0, # of connection points: 2
#     Edge 51, Type (0, 1), BuildingBlock: MIFKUJ_clean_linker_0, # of connection points: 2
#     Edge 52, Type (0, 1), BuildingBlock: MIFKUJ_clean_linker_0, # of connection points: 2
#     Edge 53, Type (0, 1), BuildingBlock: MIFKUJ_clean_linker_0, # of connection points: 2
#     Edge 54, Type (0, 1), BuildingBlock: MIFKUJ_clean_linker_0, # of connection points: 2
#     Edge 55, Type (0, 1), BuildingBlock: MIFKUJ_clean_linker_0, # of connection points: 2
#     Edge 56, Type (0, 1), BuildingBlock: MIFKUJ_clean_linker_0, # of connection points: 2
#     Edge 57, Type (0, 1), BuildingBlock: MIFKUJ_clean_linker_0, # of connection points: 2
#     Edge 58, Type (0, 1), BuildingBlock: MIFKUJ_clean_linker_0, # of connection points: 2
#     Edge 59, Type (0, 1), BuildingBlock: MIFKUJ_clean_linker_0, # of connection points: 2
#     Edge 60, Type (0, 1), BuildingBlock: MIFKUJ_clean_linker_0, # of connection points: 2
#     Edge 61, Type (0, 1), BuildingBlock: MIFKUJ_clean_linker_0, # of connection points: 2
#     Edge 62, Type (0, 1), BuildingBlock: MIFKUJ_clean_linker_0, # of connection points: 2
#     Edge 63, Type (0, 1), BuildingBlock: MIFKUJ_clean_linker_0, # of connection points: 2
#     Edge 64, Type (0, 1), BuildingBlock: MIFKUJ_clean_linker_0, # of connection points: 2
#     Edge 65, Type (0, 1), BuildingBlock: MIFKUJ_clean_linker_0, # of connection points: 2
#     Edge 66, Type (0, 1), BuildingBlock: MIFKUJ_clean_linker_0, # of connection points: 2
#     Edge 67, Type (0, 1), BuildingBlock: MIFKUJ_clean_linker_0, # of connection points: 2
#     Edge 68, Type (0, 1), BuildingBlock: MIFKUJ_clean_linker_0, # of connection points: 2
#     Edge 69, Type (0, 1), BuildingBlock: MIFKUJ_clean_linker_0, # of connection points: 2
#     Edge 70, Type (0, 1), BuildingBlock: MIFKUJ_clean_linker_0, # of connection points: 2
#     Edge 71, Type (0, 1), BuildingBlock: MIFKUJ_clean_linker_0, # of connection points: 2
#     Edge 72, Type (0, 1), BuildingBlock: MIFKUJ_clean_linker_0, # of connection points: 2
#     Edge 73, Type (0, 1), BuildingBlock: MIFKUJ_clean_linker_0, # of connection points: 2
#     Edge 74, Type (0, 1), BuildingBlock: MIFKUJ_clean_linker_0, # of connection points: 2
#     Edge 75, Type (0, 1), BuildingBlock: MIFKUJ_clean_linker_0, # of connection points: 2
#     Edge 76, Type (0, 1), BuildingBlock: MIFKUJ_clean_linker_0, # of connection points: 2
#     Edge 77, Type (0, 1), BuildingBlock: MIFKUJ_clean_linker_0, # of connection points: 2
#     Edge 78, Type (0, 1), BuildingBlock: MIFKUJ_clean_linker_0, # of connection points: 2
#     Edge 79, Type (0, 1), BuildingBlock: MIFKUJ_clean_linker_0, # of connection points: 2
#     Edge 80, Type (0, 1), BuildingBlock: MIFKUJ_clean_linker_0, # of connection points: 2
#     Edge 81, Type (0, 1), BuildingBlock: MIFKUJ_clean_linker_0, # of connection points: 2
#     Edge 82, Type (0, 1), BuildingBlock: MIFKUJ_clean_linker_0, # of connection points: 2
#     Edge 83, Type (0, 1), BuildingBlock: MIFKUJ_clean_linker_0, # of connection points: 2
#     Edge 84, Type (0, 1), BuildingBlock: MIFKUJ_clean_linker_0, # of connection points: 2
#     Edge 85, Type (0, 1), BuildingBlock: MIFKUJ_clean_linker_0, # of connection points: 2
#     Edge 86, Type (0, 1), BuildingBlock: MIFKUJ_clean_linker_0, # of connection points: 2
#     Edge 87, Type (0, 1), BuildingBlock: MIFKUJ_clean_linker_0, # of connection points: 2
#     Edge 88, Type (0, 1), BuildingBlock: MIFKUJ_clean_linker_0, # of connection points: 2
#     Edge 89, Type (0, 1), BuildingBlock: MIFKUJ_clean_linker_0, # of connection points: 2
#     Edge 90, Type (0, 1), BuildingBlock: MIFKUJ_clean_linker_0, # of connection points: 2
#     Edge 91, Type (0, 1), BuildingBlock: MIFKUJ_clean_linker_0, # of connection points: 2
#     Edge 92, Type (0, 1), BuildingBlock: MIFKUJ_clean_linker_0, # of connection points: 2
#     Edge 93, Type (0, 1), BuildingBlock: MIFKUJ_clean_linker_0, # of connection points: 2
#     Edge 94, Type (0, 1), BuildingBlock: MIFKUJ_clean_linker_0, # of connection points: 2
#     Edge 95, Type (0, 1), BuildingBlock: MIFKUJ_clean_linker_0, # of connection points: 2
#     Edge 96, Type (0, 1), BuildingBlock: MIFKUJ_clean_linker_0, # of connection points: 2
#     Edge 97, Type (0, 1), BuildingBlock: MIFKUJ_clean_linker_0, # of connection points: 2
#     Edge 98, Type (0, 1), BuildingBlock: MIFKUJ_clean_linker_0, # of connection points: 2
#     Edge 99, Type (0, 1), BuildingBlock: MIFKUJ_clean_linker_0, # of connection points: 2
#     Edge 100, Type (0, 1), BuildingBlock: MIFKUJ_clean_linker_0, # of connection points: 2
#     Edge 101, Type (0, 1), BuildingBlock: MIFKUJ_clean_linker_0, # of connection points: 2
#     Edge 102, Type (0, 1), BuildingBlock: MIFKUJ_clean_linker_0, # of connection points: 2
#     Edge 103, Type (0, 1), BuildingBlock: MIFKUJ_clean_linker_0, # of connection points: 2
#     Edge 104, Type (0, 1), BuildingBlock: MIFKUJ_clean_linker_0, # of connection points: 2
#     Edge 105, Type (0, 1), BuildingBlock: MIFKUJ_clean_linker_0, # of connection points: 2
#     Edge 106, Type (0, 1), BuildingBlock: MIFKUJ_clean_linker_0, # of connection points: 2
#     Edge 107, Type (0, 1), BuildingBlock: MIFKUJ_clean_linker_0, # of connection points: 2
#     Edge 108, Type (0, 1), BuildingBlock: MIFKUJ_clean_linker_0, # of connection points: 2
#     Edge 109, Type (0, 1), BuildingBlock: MIFKUJ_clean_linker_0, # of connection points: 2
#     Edge 110, Type (0, 1), BuildingBlock: MIFKUJ_clean_linker_0, # of connection points: 2
#     Edge 111, Type (0, 1), BuildingBlock: MIFKUJ_clean_linker_0, # of connection points: 2
#     Edge 112, Type (0, 1), BuildingBlock: MIFKUJ_clean_linker_0, # of connection points: 2
#     Edge 113, Type (0, 1), BuildingBlock: MIFKUJ_clean_linker_0, # of connection points: 2
#     Edge 114, Type (0, 1), BuildingBlock: MIFKUJ_clean_linker_0, # of connection points: 2
#     Edge 115, Type (0, 1), BuildingBlock: MIFKUJ_clean_linker_0, # of connection points: 2
#     Edge 116, Type (0, 1), BuildingBlock: MIFKUJ_clean_linker_0, # of connection points: 2
#     Edge 117, Type (0, 1), BuildingBlock: MIFKUJ_clean_linker_0, # of connection points: 2
#     Edge 118, Type (0, 1), BuildingBlock: MIFKUJ_clean_linker_0, # of connection points: 2
#     Edge 119, Type (0, 1), BuildingBlock: MIFKUJ_clean_linker_0, # of connection points: 2
#     Edge 120, Type (0, 1), BuildingBlock: MIFKUJ_clean_linker_0, # of connection points: 2
#     Edge 121, Type (0, 1), BuildingBlock: MIFKUJ_clean_linker_0, # of connection points: 2
#     Edge 122, Type (0, 1), BuildingBlock: MIFKUJ_clean_linker_0, # of connection points: 2
#     Edge 123, Type (0, 1), BuildingBlock: MIFKUJ_clean_linker_0, # of connection points: 2
#     Edge 124, Type (0, 1), BuildingBlock: MIFKUJ_clean_linker_0, # of connection points: 2
#     Edge 125, Type (0, 1), BuildingBlock: MIFKUJ_clean_linker_0, # of connection points: 2
#     Edge 126, Type (0, 1), BuildingBlock: MIFKUJ_clean_linker_0, # of connection points: 2
#     Edge 127, Type (0, 1), BuildingBlock: MIFKUJ_clean_linker_0, # of connection points: 2
#     Edge 128, Type (0, 1), BuildingBlock: MIFKUJ_clean_linker_0, # of connection points: 2
#     Edge 129, Type (0, 1), BuildingBlock: MIFKUJ_clean_linker_0, # of connection points: 2
#     Edge 130, Type (0, 1), BuildingBlock: MIFKUJ_clean_linker_0, # of connection points: 2
#     Edge 131, Type (0, 1), BuildingBlock: MIFKUJ_clean_linker_0, # of connection points: 2
#     Edge 132, Type (0, 1), BuildingBlock: MIFKUJ_clean_linker_0, # of connection points: 2
#     Edge 133, Type (0, 1), BuildingBlock: MIFKUJ_clean_linker_0, # of connection points: 2
#     Edge 134, Type (0, 1), BuildingBlock: MIFKUJ_clean_linker_0, # of connection points: 2
#     Edge 135, Type (0, 1), BuildingBlock: MIFKUJ_clean_linker_0, # of connection points: 2
# Relax obj value: 0.094
# Max RMSD: 0.263
# Mean RMSD: 0.126
data_MOF--net-gar--node1-CEKHIL_clean_sbu_0--node2-MIFKUJ_clean_sbu_0--edge1-MIFKUJ_clean_linker_0
_symmetry_space_group_name_H-M    P1
_symmetry_Int_Tables_number       1
_symmetry_cell_setting            triclinic
loop_
_symmetry_equiv_pos_as_xyz
'x, y, z'
_cell_length_a     72.755174
_cell_length_b     72.014395
_cell_length_c     68.921016
_cell_angle_alpha  94.201862
_cell_angle_beta   94.378347
_cell_angle_gamma 98.480435
loop_
_atom_site_label
_atom_site_type_symbol
_atom_site_fract_x
_atom_site_fract_y
_atom_site_fract_z
_atom_type_partial_charge
Co0 Co 0.02497 0.27286 0.39463 0.0
O1 O 0.05117 0.27111 0.39696 0.0
O2 O 0.03187 0.26084 0.37072 0.0
C3 C 0.02848 0.30313 0.40697 0.0
O4 O 0.9974 0.27291 0.38631 0.0
Co5 Co 0.00379 0.28152 0.43083 0.0
O6 O 0.98295 0.28394 0.41141 0.0
C7 C 0.01434 0.24371 0.42313 0.0
C8 C 0.04876 0.26331 0.37919 0.0
C9 C 0.98298 0.27825 0.39347 0.0
O10 O 0.01929 0.24781 0.40618 0.0
O11 O 0.00933 0.25572 0.43549 0.0
O12 O 0.0304 0.29918 0.3886 0.0
O13 O 0.02567 0.28896 0.41732 0.0
Co14 Co 0.9978 0.75947 0.64138 0.0
O15 O 0.97108 0.75785 0.63856 0.0
O16 O 0.98734 0.75181 0.66517 0.0
C17 C 0.00311 0.78766 0.62879 0.0
O18 O 0.02544 0.76027 0.6502 0.0
Co19 Co 0.02171 0.76261 0.60587 0.0
O20 O 0.04325 0.76769 0.62582 0.0
C21 C 0.00121 0.7255 0.61398 0.0
C22 C 0.9712 0.75335 0.65644 0.0
C23 C 0.04149 0.76426 0.64351 0.0
O24 O 0.99582 0.7324 0.63001 0.0
O25 O 0.01035 0.73546 0.60222 0.0
O26 O 1.00043 0.78692 0.64715 0.0
O27 O 0.00175 0.7717 0.61868 0.0
Co28 Co 0.52695 0.77504 0.89886 0.0
O29 O 0.55305 0.77292 0.90181 0.0
O30 O 0.53411 0.76266 0.87532 0.0
C31 C 0.53048 0.80549 0.91082 0.0
O32 O 0.49961 0.77558 0.88986 0.0
Co33 Co 0.50511 0.78445 0.93447 0.0
O34 O 0.48573 0.78875 0.91423 0.0
C35 C 0.51447 0.74606 0.92707 0.0
C36 C 0.5509 0.76511 0.88403 0.0
C37 C 0.48567 0.7824 0.89647 0.0
O38 O 0.52046 0.75014 0.91051 0.0
O39 O 0.50914 0.75817 0.93909 0.0
O40 O 0.53312 0.80124 0.89269 0.0
O41 O 0.52723 0.79141 0.92124 0.0
Co42 Co 0.4971 0.26098 0.14192 0.0
O43 O 0.47077 0.26171 0.14153 0.0
O44 O 0.48828 0.25512 0.167 0.0
C45 C 0.50379 0.28819 0.12773 0.0
O46 O 0.52479 0.25966 0.14806 0.0
Co47 Co 0.51663 0.25928 0.10329 0.0
O48 O 0.53993 0.26328 0.12101 0.0
C49 C 0.49213 0.2259 0.11413 0.0
C50 C 0.47194 0.25765 0.15956 0.0
C51 C 0.53991 0.26156 0.13929 0.0
O52 O 0.49205 0.23353 0.13163 0.0
O53 O 0.49932 0.23468 0.10037 0.0
O54 O 0.50233 0.28859 0.14644 0.0
O55 O 0.50008 0.27178 0.11836 0.0
Co56 Co 0.01375 0.77397 0.15246 0.0
O57 O 0.98703 0.76782 0.14843 0.0
O58 O 0.00386 0.76428 0.17565 0.0
C59 C 0.01507 0.8023 0.14019 0.0
O60 O 0.04125 0.77945 0.16261 0.0
Co61 Co 0.0385 0.78082 0.11828 0.0
O62 O 0.05905 0.78923 0.139 0.0
C63 C 0.02304 0.74183 0.1257 0.0
C64 C 0.98748 0.76315 0.16627 0.0
C65 C 0.05712 0.7859 0.15668 0.0
O66 O 0.01663 0.74786 0.1415 0.0
O67 O 0.03087 0.75282 0.11392 0.0
O68 O 0.0116 0.80048 0.15823 0.0
O69 O 0.01657 0.78695 0.12995 0.0
Co70 Co 0.51023 0.7541 0.38488 0.0
O71 O 0.53711 0.75841 0.38612 0.0
O72 O 0.51857 0.74366 0.36101 0.0
C73 C 0.50718 0.78361 0.39619 0.0
O74 O 0.48217 0.74806 0.3774 0.0
Co75 Co 0.48872 0.75789 0.42175 0.0
O76 O 0.46671 0.75698 0.40261 0.0
C77 C 0.50872 0.72557 0.41512 0.0
C78 C 0.53543 0.75013 0.36855 0.0
C79 C 0.46703 0.75121 0.38472 0.0
O80 O 0.51066 0.72954 0.39738 0.0
O81 O 0.50202 0.73617 0.42761 0.0
O82 O 0.50958 0.77987 0.3779 0.0
O83 O 0.50814 0.76994 0.40714 0.0
Co84 Co 0.51504 0.27063 0.64932 0.0
O85 O 0.48834 0.26374 0.64477 0.0
O86 O 0.50497 0.26109 0.67242 0.0
C87 C 0.51612 0.29878 0.6366 0.0
O88 O 0.5423 0.27677 0.66028 0.0
Co89 Co 0.54089 0.27742 0.61622 0.0
O90 O 0.56086 0.28654 0.63732 0.0
C91 C 0.52677 0.23842 0.62446 0.0
C92 C 0.48868 0.25926 0.6627 0.0
C93 C 0.55837 0.28336 0.65493 0.0
O94 O 0.51861 0.24453 0.63902 0.0
O95 O 0.53569 0.24915 0.6132 0.0
O96 O 0.51218 0.29696 0.6545 0.0
O97 O 0.51823 0.28345 0.62661 0.0
Co98 Co 0.00839 0.25464 0.89231 0.0
O99 O 0.03526 0.25882 0.89466 0.0
O100 O 0.01757 0.24435 0.86883 0.0
C101 C 0.00518 0.28411 0.90342 0.0
O102 O 0.98044 0.24873 0.8839 0.0
Co103 Co 0.98569 0.25854 0.92837 0.0
O104 O 0.96472 0.25891 0.90835 0.0
C105 C 0.00469 0.22533 0.92194 0.0
C106 C 0.03421 0.25069 0.87708 0.0
C107 C 0.96532 0.25273 0.89064 0.0
O108 O 0.00826 0.23002 0.90476 0.0
O109 O 0.99713 0.23563 0.93399 0.0
O110 O 0.00821 0.28043 0.8853 0.0
O111 O 0.00567 0.2704 0.91439 0.0
Co112 Co 0.39216 0.02672 0.27886 0.0
O113 O 0.39499 0.05161 0.26986 0.0
O114 O 0.36887 0.03108 0.266 0.0
C115 C 0.40674 0.03564 0.30882 0.0
O116 O 0.38317 0.0005 0.28682 0.0
Co117 Co 0.42543 0.00668 0.29184 0.0
O118 O 0.40638 0.98787 0.30157 0.0
C119 C 0.41472 0.00852 0.24968 0.0
C120 C 0.37741 0.04783 0.26369 0.0
C121 C 0.38917 0.98749 0.29622 0.0
O122 O 0.40021 0.01596 0.25354 0.0
O123 O 0.42685 0.00508 0.26287 0.0
O124 O 0.38927 0.03726 0.30524 0.0
O125 O 0.41498 0.02987 0.29412 0.0
Co126 Co 0.26904 0.12661 0.4922 0.0
O127 O 0.29592 0.1304 0.4972 0.0
O128 O 0.2772 0.1043 0.50181 0.0
C129 C 0.26877 0.13855 0.46262 0.0
O130 O 0.24105 0.11669 0.48817 0.0
Co131 Co 0.24643 0.1595 0.48636 0.0
O132 O 0.22467 0.13944 0.47982 0.0
C133 C 0.26176 0.1533 0.52606 0.0
C134 C 0.29413 0.11324 0.50226 0.0
C135 C 0.22555 0.12239 0.48303 0.0
O136 O 0.26645 0.13749 0.51971 0.0
O137 O 0.25522 0.16456 0.51476 0.0
O138 O 0.27144 0.12124 0.46417 0.0
O139 O 0.26758 0.1482 0.47884 0.0
Co140 Co 0.14051 0.00155 0.7889 0.0
O141 O 0.13688 0.97436 0.78483 0.0
O142 O 0.16255 0.99317 0.77952 0.0
C143 C 0.12897 0.00265 0.81853 0.0
O144 O 0.1503 0.02979 0.79203 0.0
Co145 Co 0.10799 0.02446 0.79367 0.0
O146 O 0.12774 0.04675 0.799 0.0
C147 C 0.1136 0.00716 0.75474 0.0
C148 C 0.15381 0.9761 0.77966 0.0
C149 C 0.14467 0.04562 0.79625 0.0
O150 O 0.12958 0.00333 0.76128 0.0
O151 O 0.10232 0.01385 0.76577 0.0
O152 O 0.14611 0.99999 0.81698 0.0
O153 O 0.11919 0.00338 0.80227 0.0
Co154 Co 0.24428 0.89399 0.00303 0.0
O155 O 0.21893 0.8939 0.00956 0.0
O156 O 0.24091 0.91898 0.01264 0.0
C157 C 0.23696 0.8769 0.97397 0.0
O158 O 0.27147 0.90031 0.99732 0.0
Co159 Co 0.26212 0.8576 0.99612 0.0
O160 O 0.28296 0.87448 0.98678 0.0
C161 C 0.25835 0.87315 0.03643 0.0
C162 C 0.22369 0.91186 0.01437 0.0
C163 C 0.28452 0.89227 0.99037 0.0
O164 O 0.25187 0.88757 0.03026 0.0
O165 O 0.26228 0.85959 0.02523 0.0
O166 O 0.23645 0.89492 0.97531 0.0
O167 O 0.24062 0.86976 0.99016 0.0
Co168 Co 0.26151 0.39055 0.02975 0.0
O169 O 0.2346 0.38611 0.02542 0.0
O170 O 0.25119 0.41203 0.0405 0.0
C171 C 0.26691 0.38054 -0.00089 0.0
O172 O 0.28926 0.40107 0.03585 0.0
Co173 Co 0.28526 0.35815 0.02563 0.0
O174 O 0.30686 0.3787 0.02871 0.0
C175 C 0.26195 0.36089 0.05856 0.0
C176 C 0.23489 0.40288 0.03391 0.0
C177 C 0.30521 0.39567 0.03395 0.0
O178 O 0.26012 0.37797 0.05521 0.0
O179 O 0.26971 0.35018 0.04716 0.0
O180 O 0.26325 0.39752 0.00284 0.0
O181 O 0.26572 0.36999 0.01341 0.0
Co182 Co 0.78204 0.12801 0.01408 0.0
O183 O 0.80761 0.12656 0.01022 0.0
O184 O 0.78818 0.10389 0.02121 0.0
C185 C 0.77556 0.13914 0.9851 0.0
O186 O 0.75452 0.12441 0.01916 0.0
Co187 Co 0.76774 0.16672 0.01459 0.0
O188 O 0.74285 0.15111 0.01428 0.0
C189 C 0.79216 0.15787 0.04775 0.0
C190 C 0.80474 0.10974 0.016 0.0
C191 C 0.74077 0.13381 0.01777 0.0
O192 O 0.78961 0.14029 0.04146 0.0
O193 O 0.78644 0.17067 0.03796 0.0
O194 O 0.77478 0.12111 0.98613 0.0
O195 O 0.78129 0.1496 0.00096 0.0
Co196 Co 0.13923 0.49556 0.26563 0.0
O197 O 0.13798 0.46954 0.27078 0.0
O198 O 0.16209 0.48667 0.25952 0.0
C199 C 0.12848 0.50516 0.29387 0.0
O200 O 0.14611 0.52276 0.25941 0.0
Co201 Co 0.10372 0.51482 0.26249 0.0
O202 O 0.12168 0.53832 0.26193 0.0
C203 C 0.1103 0.48704 0.23114 0.0
C204 C 0.15478 0.47067 0.26535 0.0
C205 C 0.13881 0.53799 0.25941 0.0
O206 O 0.12732 0.48782 0.23822 0.0
O207 O 0.0983 0.49514 0.23983 0.0
O208 O 0.14597 0.50342 0.29334 0.0
O209 O 0.11801 0.49971 0.27793 0.0
Co210 Co 0.75774 0.89166 0.52971 0.0
O211 O 0.73085 0.88821 0.52767 0.0
O212 O 0.74909 0.91362 0.54182 0.0
C213 C 0.76007 0.88198 0.49817 0.0
O214 O 0.78597 0.90093 0.53362 0.0
Co215 Co 0.7794 0.8581 0.52192 0.0
O216 O 0.80093 0.87825 0.52113 0.0
C217 C 0.76008 0.86159 0.55796 0.0
C218 C 0.73228 0.90506 0.53629 0.0
C219 C 0.80089 0.89511 0.52819 0.0
O220 O 0.75785 0.87865 0.55493 0.0
O221 O 0.76681 0.85082 0.54566 0.0
O222 O 0.7576 0.89917 0.50293 0.0
O223 O 0.75968 0.87106 0.51219 0.0
Co224 Co 0.88282 0.0174 0.25392 0.0
O225 O 0.88573 0.04455 0.2578 0.0
O226 O 0.86082 0.02644 0.24274 0.0
C227 C 0.89302 0.01313 0.28487 0.0
O228 O 0.87408 0.98896 0.24827 0.0
Co229 Co 0.91662 0.99581 0.25931 0.0
O230 O 0.89698 0.97357 0.25928 0.0
C231 C 0.91209 0.01741 0.22487 0.0
C232 C 0.86902 0.04328 0.24924 0.0
C233 C 0.88015 0.97369 0.25265 0.0
O234 O 0.89524 0.0191 0.22853 0.0
O235 O 0.92323 0.01023 0.23639 0.0
O236 O 0.87584 0.01555 0.28074 0.0
O237 O 0.90355 0.01477 0.2707 0.0
Co238 Co 0.27556 0.62781 0.51695 0.0
O239 O 0.30183 0.62989 0.51421 0.0
O240 O 0.28473 0.60532 0.52489 0.0
C241 C 0.26801 0.63746 0.48748 0.0
O242 O 0.24795 0.62045 0.5209 0.0
Co243 Co 0.2559 0.66347 0.51621 0.0
O244 O 0.23286 0.64471 0.51433 0.0
C245 C 0.28107 0.6582 0.55034 0.0
C246 C 0.30087 0.61313 0.52013 0.0
C247 C 0.23284 0.62766 0.51823 0.0
O248 O 0.28091 0.64082 0.54422 0.0
O249 O 0.27365 0.66985 0.54025 0.0
O250 O 0.27019 0.62003 0.48901 0.0
O251 O 0.27194 0.64853 0.50325 0.0
Co252 Co 0.38568 0.51287 0.75701 0.0
O253 O 0.38978 0.54008 0.76067 0.0
O254 O 0.36398 0.52276 0.74652 0.0
C255 C 0.39644 0.50849 0.78772 0.0
O256 O 0.37538 0.48475 0.75183 0.0
Co257 Co 0.41781 0.48911 0.76117 0.0
O258 O 0.39752 0.46735 0.76014 0.0
C259 C 0.4139 0.51122 0.72705 0.0
C260 C 0.37288 0.53938 0.75275 0.0
C261 C 0.38068 0.46879 0.75477 0.0
O262 O 0.39734 0.51372 0.73111 0.0
O263 O 0.42476 0.50345 0.7383 0.0
O264 O 0.37947 0.51177 0.7841 0.0
O265 O 0.40656 0.50928 0.77316 0.0
Co266 Co 0.63788 0.99381 0.77062 0.0
O267 O 0.63798 0.96754 0.77362 0.0
O268 O 0.66142 0.98684 0.76382 0.0
C269 C 0.62663 0.00048 0.79937 0.0
O270 O 0.64323 0.02181 0.76678 0.0
Co271 Co 0.6009 0.01086 0.76963 0.0
O272 O 0.61802 0.03526 0.77284 0.0
C273 C 0.60898 0.98641 0.73603 0.0
C274 C 0.65488 0.97009 0.76843 0.0
C275 C 0.63516 0.03642 0.76958 0.0
O276 O 0.62614 0.98759 0.7429 0.0
O277 O 0.59654 0.99299 0.74548 0.0
O278 O 0.64434 0.99992 0.7987 0.0
O279 O 0.61638 0.99555 0.78322 0.0
Co280 Co 0.77049 0.63158 0.99727 0.0
O281 O 0.79736 0.63491 0.0021 0.0
O282 O 0.77829 0.60908 0.00679 0.0
C283 C 0.77044 0.64373 0.96776 0.0
O284 O 0.74249 0.62199 0.99343 0.0
Co285 Co 0.74787 0.66426 0.99135 0.0
O286 O 0.72663 0.64408 0.98231 0.0
C287 C 0.76388 0.65851 0.03101 0.0
C288 C 0.79531 0.61776 0.00724 0.0
C289 C 0.72733 0.62727 0.98655 0.0
O290 O 0.76823 0.64253 0.02476 0.0
O291 O 0.75717 0.66968 0.01969 0.0
O292 O 0.77251 0.62623 0.96916 0.0
O293 O 0.76934 0.65332 0.98406 0.0
Co294 Co 0.88901 0.53014 0.78483 0.0
O295 O 0.88791 0.55591 0.78 0.0
O296 O 0.86517 0.53198 0.77144 0.0
C297 C 0.90105 0.53627 0.81596 0.0
O298 O 0.88428 0.50211 0.78803 0.0
Co299 Co 0.92606 0.51545 0.79609 0.0
O300 O 0.90978 0.49196 0.80119 0.0
C301 C 0.9169 0.52412 0.75555 0.0
C302 C 0.87109 0.54996 0.77206 0.0
C303 C 0.89249 0.48924 0.7953 0.0
O304 O 0.90012 0.52582 0.75929 0.0
O305 O 0.92961 0.52174 0.76863 0.0
O306 O 0.88316 0.53504 0.81179 0.0
O307 O 0.91099 0.53497 0.80137 0.0
Co308 Co 0.73997 0.38128 0.5026 0.0
O309 O 0.71471 0.38009 0.50963 0.0
O310 O 0.73659 0.40515 0.51542 0.0
C311 C 0.73244 0.36752 0.472 0.0
O312 O 0.76704 0.38856 0.49693 0.0
Co313 Co 0.75753 0.34573 0.49056 0.0
O314 O 0.77795 0.36402 0.48231 0.0
C315 C 0.75288 0.35578 0.53225 0.0
C316 C 0.71938 0.39758 0.51649 0.0
C317 C 0.77971 0.38144 0.48815 0.0
O318 O 0.7478 0.37162 0.52831 0.0
O319 O 0.75589 0.34333 0.51912 0.0
O320 O 0.73194 0.38541 0.47562 0.0
O321 O 0.73618 0.35855 0.48693 0.0
Co322 Co 0.64292 0.50519 0.29152 0.0
O323 O 0.64022 0.47808 0.28707 0.0
O324 O 0.66581 0.4977 0.28323 0.0
C325 C 0.62985 0.5055 0.32038 0.0
O326 O 0.65158 0.53363 0.2952 0.0
Co327 Co 0.60881 0.52629 0.29445 0.0
O328 O 0.62762 0.54933 0.3002 0.0
C329 C 0.61693 0.5096 0.25625 0.0
C330 C 0.65738 0.48041 0.28259 0.0
C331 C 0.64492 0.54903 0.29867 0.0
O332 O 0.63312 0.50696 0.26351 0.0
O333 O 0.60462 0.5152 0.26663 0.0
O334 O 0.6473 0.50355 0.31979 0.0
O335 O 0.62079 0.50594 0.30365 0.0
Zn336 Zn 0.0365 0.00922 0.03649 0.0
Zn337 Zn 0.00132 0.0144 0.00858 0.0
C338 C 0.02393 0.98049 0.05891 0.0
O339 O 0.0301 0.99484 0.0718 0.0
C340 C 0.01634 0.04444 0.98816 0.0
O341 O 0.011 0.03093 0.97413 0.0
O342 O 0.0622 0.00968 0.04977 0.0
O343 O 0.0411 0.01138 0.00816 0.0
O344 O 0.01477 0.9967 0.99268 0.0
C345 C 0.07688 0.01823 0.04359 0.0
O346 O 0.0753 0.03024 0.03033 0.0
O347 O 0.0243 0.98298 0.04084 0.0
C348 C 0.9691 0.02944 0.00511 0.0
O349 O 0.98034 0.04079 0.01813 0.0
O350 O 0.97491 0.01509 0.99721 0.0
O351 O 0.9971 0.00991 0.03648 0.0
O352 O 0.02238 0.02744 0.05081 0.0
O353 O 0.01457 0.04078 0.00578 0.0
C354 C 0.03229 0.00207 0.99303 0.0
C355 C 0.0051 0.02114 0.0507 0.0
Zn356 Zn 0.25509 0.75588 0.28483 0.0
Zn357 Zn 0.26865 0.77045 0.24759 0.0
C358 C 0.23233 0.72363 0.26768 0.0
O359 O 0.22111 0.73246 0.27773 0.0
C360 C 0.28965 0.80614 0.25662 0.0
O361 O 0.29951 0.7981 0.2442 0.0
O362 O 0.25057 0.74673 0.31119 0.0
O363 O 0.2823 0.76663 0.28744 0.0
O364 O 0.28782 0.75514 0.25851 0.0
C365 C 0.2602 0.73371 0.31442 0.0
O366 O 0.27148 0.72922 0.30144 0.0
O367 O 0.2492 0.73135 0.26739 0.0
C368 C 0.26002 0.78404 0.21221 0.0
O369 O 0.24747 0.78931 0.22326 0.0
O370 O 0.27208 0.77474 0.2194 0.0
O371 O 0.24097 0.76113 0.24712 0.0
O372 O 0.2367 0.77276 0.27643 0.0
O373 O 0.27483 0.79664 0.26153 0.0
C374 C 0.29322 0.75966 0.27645 0.0
C375 C 0.23078 0.7687 0.25857 0.0
Zn376 Zn 0.49253 0.01246 0.5324 0.0
Zn377 Zn 0.52975 0.99915 0.51256 0.0
C378 C 0.50914 0.04267 0.55954 0.0
O379 O 0.50218 0.03042 0.57129 0.0
C380 C 0.51396 0.97001 0.4844 0.0
O381 O 0.52153 0.98299 0.47374 0.0
O382 O 0.4659 0.01711 0.53599 0.0
O383 O 0.4921 0.00655 0.50341 0.0
O384 O 0.52015 0.01829 0.49601 0.0
C385 C 0.4627 0.03176 0.52776 0.0
O386 O 0.4761 0.04098 0.51887 0.0
O387 O 0.50801 0.03779 0.54132 0.0
C388 C 0.56035 0.98022 0.51595 0.0
O389 O 0.54694 0.96924 0.52313 0.0
O390 O 0.55676 0.99554 0.50942 0.0
O391 O 0.52953 0.0052 0.5413 0.0
O392 O 0.50185 0.99306 0.54903 0.0
O393 O 0.51463 0.97376 0.5028 0.0
C394 C 0.50248 0.01605 0.4925 0.0
C395 C 0.51955 0.99486 0.55184 0.0
Zn396 Zn 0.28002 0.24756 0.76036 0.0
Zn397 Zn 0.24156 0.26418 0.77517 0.0
C398 C 0.26937 0.21929 0.72942 0.0
O399 O 0.27706 0.21001 0.74276 0.0
C400 C 0.25215 0.29016 0.8069 0.0
O401 O 0.24367 0.29927 0.79397 0.0
O402 O 0.3068 0.24318 0.75855 0.0
O403 O 0.28184 0.27598 0.76246 0.0
O404 O 0.25323 0.28283 0.75739 0.0
C405 C 0.31282 0.2479 0.74248 0.0
O406 O 0.30203 0.25553 0.73023 0.0
O407 O 0.26744 0.23633 0.7339 0.0
C408 C 0.20627 0.25428 0.78788 0.0
O409 O 0.21609 0.24239 0.79571 0.0
O410 O 0.21426 0.2665 0.77756 0.0
O411 O 0.24088 0.23632 0.76787 0.0
O412 O 0.26829 0.23195 0.78072 0.0
O413 O 0.25383 0.27306 0.80233 0.0
C414 C 0.27086 0.28753 0.75801 0.0
C415 C 0.25099 0.22606 0.77667 0.0
Zn416 Zn 0.02324 0.98927 0.52005 0.0
Zn417 Zn 0.0072 0.02555 0.50654 0.0
C418 C 0.04931 0.00254 0.55186 0.0
O419 O 0.05988 0.99648 0.5389 0.0
C420 C 0.97994 0.01157 0.4768 0.0
O421 O 0.97099 0.01969 0.49007 0.0
O422 O 0.0293 0.96348 0.52414 0.0
O423 O 0.99507 0.98622 0.5155 0.0
O424 O 0.99074 0.01453 0.52665 0.0
C425 C 0.01854 0.94812 0.51883 0.0
O426 O 0.00313 0.9484 0.50768 0.0
O427 O 0.0321 0.00246 0.54676 0.0
C428 C 0.011 0.05743 0.48687 0.0
O429 O 0.02007 0.04574 0.47731 0.0
O430 O 0.00314 0.05208 0.50184 0.0
O431 O 0.03526 0.02865 0.51142 0.0
O432 O 0.03975 0.0005 0.50025 0.0
O433 O 0.99728 0.01116 0.48051 0.0
C434 C 0.98476 0.99697 0.52326 0.0
C435 C 0.04546 0.01808 0.50329 0.0
Zn436 Zn 0.25456 0.77606 0.7564 0.0
Zn437 Zn 0.27116 0.73922 0.77541 0.0
C438 C 0.22202 0.76019 0.73331 0.0
O439 O 0.23299 0.76703 0.72041 0.0
C440 C 0.30276 0.75651 0.79887 0.0
O441 O 0.29146 0.74972 0.8115 0.0
O442 O 0.24978 0.80279 0.75217 0.0
O443 O 0.26412 0.77745 0.78465 0.0
O444 O 0.25462 0.74955 0.7946 0.0
C445 C 0.23623 0.80675 0.76158 0.0
O446 O 0.22822 0.79408 0.7723 0.0
O447 O 0.22864 0.76084 0.75102 0.0
C448 C 0.28786 0.70808 0.76695 0.0
O449 O 0.29487 0.7209 0.75582 0.0
O450 O 0.27615 0.71237 0.77875 0.0
O451 O 0.26077 0.73813 0.7474 0.0
O452 O 0.27122 0.76568 0.73746 0.0
O453 O 0.29695 0.75471 0.78084 0.0
C454 C 0.25632 0.76745 0.79704 0.0
C455 C 0.269 0.74778 0.73504 0.0
Zn456 Zn 0.51795 0.02886 0.99821 0.0
Zn457 Zn 0.50222 0.0064 0.03109 0.0
C458 C 0.54985 0.05222 0.02027 0.0
O459 O 0.53931 0.06545 0.01879 0.0
C460 C 0.4724 0.98326 0.01071 0.0
O461 O 0.48256 0.97166 0.0186 0.0
O462 O 0.5226 0.03945 0.97251 0.0
O463 O 0.51282 0.0008 0.99116 0.0
O464 O 0.52093 0.99167 0.01996 0.0
C465 C 0.53795 0.03597 0.9666 0.0
O466 O 0.54817 0.02598 0.97686 0.0
O467 O 0.54313 0.03534 0.01405 0.0
C468 C 0.47901 0.00291 0.06058 0.0
O469 O 0.47217 0.01473 0.04942 0.0
O470 O 0.49358 0.99639 0.05594 0.0
O471 O 0.50976 0.03392 0.03881 0.0
O472 O 0.49889 0.04238 0.01089 0.0
O473 O 0.47862 0.00082 0.01274 0.0
C474 C 0.51917 0.98881 0.00144 0.0
C475 C 0.50161 0.04525 0.02935 0.0
Zn476 Zn 0.26438 0.23656 0.25269 0.0
Zn477 Zn 0.25119 0.27231 0.27666 0.0
C478 C 0.29649 0.2525 0.23674 0.0
O479 O 0.28492 0.24635 0.22127 0.0
C480 C 0.22185 0.25757 0.29793 0.0
O481 O 0.2348 0.26519 0.31172 0.0
O482 O 0.26909 0.20998 0.24496 0.0
O483 O 0.25501 0.2343 0.27937 0.0
O484 O 0.27034 0.26108 0.29314 0.0
C485 C 0.28186 0.20594 0.25693 0.0
O486 O 0.2888 0.21839 0.27152 0.0
O487 O 0.29056 0.25127 0.25358 0.0
C488 C 0.23408 0.30375 0.28011 0.0
O489 O 0.22278 0.29179 0.26769 0.0
O490 O 0.24915 0.29886 0.2872 0.0
O491 O 0.25436 0.27557 0.24834 0.0
O492 O 0.24858 0.24742 0.23209 0.0
O493 O 0.22565 0.25771 0.28022 0.0
C494 C 0.26438 0.24372 0.29408 0.0
C495 C 0.24993 0.26528 0.23241 0.0
Zn496 Zn 0.52531 0.49182 0.02213 0.0
Zn497 Zn 0.51086 0.52884 0.01249 0.0
C498 C 0.55129 0.50439 0.05445 0.0
O499 O 0.56215 0.49921 0.04135 0.0
C500 C 0.48459 0.5178 0.98137 0.0
O501 O 0.47598 0.52651 0.99453 0.0
O502 O 0.5311 0.46574 0.0253 0.0
O503 O 0.49714 0.48917 0.01739 0.0
O504 O 0.49341 0.51676 0.03117 0.0
C505 C 0.5203 0.45052 0.01952 0.0
O506 O 0.50514 0.45109 0.00808 0.0
O507 O 0.53399 0.50383 0.04942 0.0
C508 C 0.51612 0.56186 0.99476 0.0
O509 O 0.52592 0.55067 0.98551 0.0
O510 O 0.50738 0.5558 0.00893 0.0
O511 O 0.53875 0.53107 0.01853 0.0
O512 O 0.54194 0.50433 0.00289 0.0
O513 O 0.5015 0.5158 0.98564 0.0
C514 C 0.48697 0.49955 0.02596 0.0
C515 C 0.54836 0.52144 0.00833 0.0
Zn516 Zn 0.75761 0.28102 0.24849 0.0
Zn517 Zn 0.77048 0.24342 0.2661 0.0
C518 C 0.72567 0.26639 0.2238 0.0
O519 O 0.73687 0.27479 0.21193 0.0
C520 C 0.80158 0.25764 0.29137 0.0
O521 O 0.78941 0.24996 0.30273 0.0
O522 O 0.7531 0.30793 0.24441 0.0
O523 O 0.76533 0.28218 0.27706 0.0
O524 O 0.75334 0.25399 0.28446 0.0
C525 C 0.7387 0.3116 0.25251 0.0
O526 O 0.72959 0.29859 0.26208 0.0
O527 O 0.73187 0.26566 0.24146 0.0
C528 C 0.76965 0.20259 0.25855 0.0
O529 O 0.75834 0.2043 0.24322 0.0
O530 O 0.77485 0.21675 0.27095 0.0
O531 O 0.7627 0.24268 0.23737 0.0
O532 O 0.77532 0.27092 0.23051 0.0
O533 O 0.79652 0.25782 0.27329 0.0
C534 C 0.75651 0.27178 0.28844 0.0
C535 C 0.77149 0.25323 0.22608 0.0
Zn536 Zn 0.01169 0.51998 0.49538 0.0
Zn537 Zn 0.99652 0.50378 0.53134 0.0
C538 C 0.04385 0.5436 0.51088 0.0
O539 O 0.03441 0.55451 0.5009 0.0
C540 C 0.96526 0.47912 0.51462 0.0
O541 O 0.97504 0.46808 0.52399 0.0
O542 O 0.01977 0.52526 0.46862 0.0
O543 O 0.00276 0.49219 0.49256 0.0
O544 O 0.01379 0.48633 0.52165 0.0
C545 C 0.03406 0.5176 0.46532 0.0
O546 O 0.04059 0.5072 0.4783 0.0
O547 O 0.03625 0.52674 0.51238 0.0
C548 C 0.97532 0.5063 0.56251 0.0
O549 O 0.96676 0.51476 0.54906 0.0
O550 O 0.98985 0.49934 0.55861 0.0
O551 O 0.00537 0.53152 0.53374 0.0
O552 O 0.99405 0.53736 0.50483 0.0
O553 O 0.97181 0.49652 0.51477 0.0
C554 C 0.00949 0.4811 0.50366 0.0
C555 C 0.99766 0.54223 0.52299 0.0
Zn556 Zn 0.77873 0.75356 0.26405 0.0
Zn557 Zn 0.7409 0.7689 0.27209 0.0
C558 C 0.76735 0.72703 0.23238 0.0
O559 O 0.77405 0.7171 0.24574 0.0
C560 C 0.74966 0.79662 0.30278 0.0
O561 O 0.74201 0.80521 0.2888 0.0
O562 O 0.80557 0.75006 0.26125 0.0
O563 O 0.78051 0.78162 0.26993 0.0
O564 O 0.75457 0.78541 0.25332 0.0
C565 C 0.81187 0.75863 0.24704 0.0
O566 O 0.80097 0.76837 0.23725 0.0
O567 O 0.7665 0.74433 0.23696 0.0
C568 C 0.70016 0.7613 0.2652 0.0
O569 O 0.70309 0.74676 0.25385 0.0
O570 O 0.71404 0.77317 0.27269 0.0
O571 O 0.73923 0.74047 0.26933 0.0
O572 O 0.76659 0.73633 0.28284 0.0
O573 O 0.75173 0.77949 0.29922 0.0
C574 C 0.77144 0.79164 0.25953 0.0
C575 C 0.74931 0.7304 0.27853 0.0
Zn576 Zn 0.75287 0.2601 0.79417 0.0
Zn577 Zn 0.76744 0.2701 0.75533 0.0
C578 C 0.7279 0.22705 0.78545 0.0
O579 O 0.71797 0.23847 0.79416 0.0
C580 C 0.79297 0.30151 0.76845 0.0
O581 O 0.8025 0.29051 0.75857 0.0
O582 O 0.74692 0.25738 0.82196 0.0
O583 O 0.7809 0.26645 0.79465 0.0
O584 O 0.78462 0.25281 0.7659 0.0
C585 C 0.75937 0.25944 0.83623 0.0
O586 O 0.77652 0.26675 0.83358 0.0
O587 O 0.74458 0.23341 0.78234 0.0
C588 C 0.76302 0.28943 0.72317 0.0
O589 O 0.75329 0.2968 0.7362 0.0
O590 O 0.77149 0.27584 0.72761 0.0
O591 O 0.73978 0.26165 0.75391 0.0
O592 O 0.73578 0.27654 0.78174 0.0
O593 O 0.77583 0.29571 0.77022 0.0
C594 C 0.79079 0.258 0.78354 0.0
C595 C 0.72973 0.27055 0.7643 0.0
Zn596 Zn 0.76341 0.73809 0.75071 0.0
Zn597 Zn 0.75216 0.77309 0.77722 0.0
C598 C 0.7942 0.75314 0.7324 0.0
O599 O 0.78164 0.74649 0.71788 0.0
C600 C 0.72365 0.76138 0.79974 0.0
O601 O 0.73767 0.76922 0.81226 0.0
O602 O 0.76702 0.71188 0.7407 0.0
O603 O 0.75635 0.73387 0.77798 0.0
O604 O 0.77038 0.76048 0.79351 0.0
C605 C 0.7806 0.70742 0.7512 0.0
O606 O 0.78894 0.71957 0.76547 0.0
O607 O 0.7894 0.7528 0.74978 0.0
C608 C 0.73689 0.80527 0.78007 0.0
O609 O 0.72593 0.79362 0.76705 0.0
O610 O 0.75135 0.79987 0.78802 0.0
O611 O 0.7552 0.77698 0.7488 0.0
O612 O 0.74594 0.74932 0.73239 0.0
O613 O 0.72636 0.75977 0.78169 0.0
C614 C 0.7652 0.74279 0.79325 0.0
C615 C 0.74855 0.76721 0.73305 0.0
Zn616 Zn 0.53307 0.50507 0.53556 0.0
Zn617 Zn 0.49961 0.51926 0.50735 0.0
C618 C 0.51605 0.47641 0.55678 0.0
O619 O 0.52201 0.48994 0.57065 0.0
C620 C 0.51909 0.54861 0.48874 0.0
O621 O 0.514 0.53561 0.47418 0.0
O622 O 0.5587 0.50288 0.54834 0.0
O623 O 0.53809 0.50709 0.50722 0.0
O624 O 0.5105 0.50022 0.49045 0.0
C625 C 0.56341 0.48698 0.5434 0.0
O626 O 0.55204 0.4749 0.53117 0.0
O627 O 0.51781 0.47981 0.5391 0.0
C628 C 0.46944 0.53827 0.50367 0.0
O629 O 0.48136 0.54899 0.5166 0.0
O630 O 0.474 0.52313 0.49606 0.0
O631 O 0.49433 0.51374 0.53474 0.0
O632 O 0.52142 0.52491 0.55079 0.0
O633 O 0.51551 0.54472 0.50591 0.0
C634 C 0.52817 0.50131 0.49132 0.0
C635 C 0.5037 0.52171 0.55017 0.0
Zn636 Zn 0.99301 0.51541 0.03502 0.0
Zn637 Zn 0.03246 0.49965 0.01614 0.0
C638 C 0.00373 0.54491 0.06426 0.0
O639 O 0.99287 0.53274 0.07326 0.0
C640 C 0.01548 0.47011 0.98935 0.0
O641 O 0.02489 0.48163 0.97843 0.0
O642 O 0.96568 0.51883 0.03727 0.0
O643 O 0.99537 0.513 0.00573 0.0
O644 O 0.02452 0.51715 0.997 0.0
C645 C 0.96251 0.53397 0.02999 0.0
O646 O 0.97617 0.544 0.02216 0.0
O647 O 0.00725 0.54028 0.04693 0.0
C648 C 0.06246 0.47791 0.0173 0.0
O649 O 0.04838 0.46493 0.01982 0.0
O650 O 0.0595 0.49472 0.01525 0.0
O651 O 0.02882 0.50905 0.04305 0.0
O652 O 0.00205 0.49513 0.05081 0.0
O653 O 0.01589 0.47478 0.00757 0.0
C654 C 0.007 0.51604 0.99295 0.0
C655 C 0.01977 0.4971 0.0527 0.0
H656 H 0.99967 0.21131 0.95725 0.0
H657 H 0.00656 0.18149 0.96793 0.0
H658 H 0.02711 0.16812 0.91235 0.0
H659 H 0.02006 0.19811 0.90129 0.0
H660 H 0.00307 0.13883 0.92389 0.0
H661 H 0.05742 0.18055 0.95285 0.0
H662 H 0.07432 0.20895 0.9722 0.0
H663 H 0.04785 0.19191 0.023 0.0
H664 H 0.03059 0.16353 0.0039 0.0
H665 H 0.03026 0.05567 0.95474 0.0
H666 H 0.0334 0.08729 0.94352 0.0
H667 H 0.01594 0.10873 0.99813 0.0
H668 H 0.01335 0.07715 0.00968 0.0
H669 H 0.04148 0.13418 0.98552 0.0
H670 H 0.9843 0.09634 0.95756 0.0
H671 H 0.96483 0.06858 0.93948 0.0
H672 H 0.99393 0.07889 0.88848 0.0
H673 H 0.01368 0.10665 0.90634 0.0
C674 C 0.00573 0.20215 0.94722 0.0
C675 C 0.0093 0.20719 0.92835 0.0
C676 C 0.00978 0.1851 0.95346 0.0
C677 C 0.01761 0.1727 0.94107 0.0
C678 C 0.02117 0.17757 0.92219 0.0
C679 C 0.01713 0.19471 0.9159 0.0
C680 C 0.02118 0.15431 0.94768 0.0
C681 C 0.01182 0.1378 0.93712 0.0
C682 C 0.03209 0.153 0.96531 0.0
C683 C 0.04263 0.16996 0.9769 0.0
C684 C 0.05512 0.18291 0.96812 0.0
C685 C 0.06477 0.199 0.97905 0.0
C686 C 0.06214 0.20224 0.99881 0.0
C687 C 0.04988 0.18938 0.00769 0.0
C688 C 0.04018 0.17327 0.99683 0.0
C689 C 0.02744 0.0672 0.96449 0.0
C690 C 0.02139 0.06395 0.983 0.0
C691 C 0.02915 0.08524 0.95803 0.0
C692 C 0.02443 0.10029 0.96978 0.0
C693 C 0.01955 0.09731 0.98877 0.0
C694 C 0.0181 0.07928 0.99537 0.0
C695 C 0.0233 0.11873 0.96178 0.0
C696 C 0.03301 0.13522 0.97211 0.0
C697 C 0.01244 0.12008 0.94411 0.0
C698 C 1.00058 0.10343 0.93333 0.0
C699 C 0.98662 0.09261 0.94253 0.0
C700 C 0.97552 0.0769 0.93232 0.0
C701 C 0.97818 0.07194 0.91286 0.0
C702 C 0.99191 0.08273 0.90356 0.0
C703 C 0.00304 0.09846 0.91371 0.0
H704 H 0.96958 0.05977 0.90498 0.0
H705 H 0.06962 0.21472 0.00724 0.0
H706 H 0.09336 0.7899 0.14783 0.0
H707 H 0.12107 0.78904 0.16982 0.0
H708 H 0.08753 0.78557 0.21869 0.0
H709 H 0.05944 0.78601 0.1967 0.0
H710 H 0.12981 0.81343 0.21869 0.0
H711 H 0.09351 0.74945 0.21337 0.0
H712 H 0.07465 0.7222 0.19381 0.0
H713 H 0.11951 0.71805 0.15748 0.0
H714 H 0.13851 0.7455 0.17665 0.0
H715 H 0.20421 0.78383 0.27839 0.0
H716 H 0.17307 0.78844 0.26509 0.0
H717 H 0.18384 0.76488 0.20845 0.0
H718 H 0.21453 0.75997 0.22155 0.0
H719 H 0.15026 0.75058 0.21661 0.0
H720 H 0.18626 0.8123 0.21846 0.0
H721 H 0.20658 0.84088 0.23375 0.0
H722 H 0.16484 0.85088 0.27242 0.0
H723 H 0.14433 0.82221 0.25747 0.0
C724 C 0.09182 0.78927 0.16328 0.0
C725 C 0.07411 0.78789 0.17047 0.0
C726 C 0.1077 0.7888 0.17581 0.0
C727 C 0.10626 0.78722 0.19579 0.0
C728 C 0.08884 0.78684 0.20328 0.0
C729 C 0.07284 0.78702 0.19068 0.0
C730 C 0.1228 0.78415 0.20824 0.0
C731 C 0.13413 0.79964 0.21872 0.0
C732 C 0.12861 0.76628 0.20762 0.0
C733 C 0.11733 0.74962 0.19631 0.0
C734 C 0.09927 0.74283 0.2011 0.0
C735 C 0.08858 0.72733 0.19011 0.0
C736 C 0.09586 0.71843 0.17438 0.0
C737 C 0.11388 0.72498 0.16965 0.0
C738 C 0.12462 0.74049 0.18058 0.0
C739 C 0.19989 0.77961 0.26313 0.0
C740 C 0.21187 0.77154 0.25105 0.0
C741 C 0.18213 0.78231 0.25553 0.0
C742 C 0.17615 0.77706 0.23575 0.0
C743 C 0.18809 0.76894 0.22377 0.0
C744 C 0.2057 0.76622 0.23131 0.0
C745 C 0.1575 0.77988 0.22723 0.0
C746 C 0.14581 0.76433 0.21721 0.0
C747 C 0.15158 0.79779 0.22801 0.0
C748 C 0.16387 0.81499 0.23703 0.0
C749 C 0.18148 0.82051 0.23034 0.0
C750 C 0.19302 0.83674 0.23892 0.0
C751 C 0.18704 0.84765 0.2541 0.0
C752 C 0.16947 0.84239 0.26069 0.0
C753 C 0.15788 0.82616 0.25217 0.0
H754 H 0.19599 0.86022 0.26072 0.0
H755 H 0.08755 0.70644 0.16588 0.0
H756 H 0.50178 0.8142 0.37629 0.0
H757 H 0.49814 0.84561 0.39017 0.0
H758 H 0.50197 0.82669 0.44812 0.0
H759 H 0.50505 0.79522 0.43432 0.0
H760 H 0.47652 0.8493 0.4454 0.0
H761 H 0.54001 0.85133 0.42889 0.0
H762 H 0.56461 0.84725 0.40693 0.0
H763 H 0.5445 0.8866 0.36978 0.0
H764 H 0.51962 0.89072 0.39141 0.0
H765 H 0.50847 0.93702 0.50216 0.0
H766 H 0.50261 0.90499 0.48608 0.0
H767 H 0.49878 0.92748 0.42983 0.0
H768 H 0.50502 0.95944 0.44576 0.0
H769 H 0.52233 0.90325 0.43027 0.0
H770 H 0.4602 0.9032 0.44901 0.0
H771 H 0.43618 0.90723 0.47168 0.0
H772 H 0.45423 0.86443 0.50549 0.0
H773 H 0.47854 0.86031 0.48317 0.0
C774 C 0.50169 0.81672 0.39197 0.0
C775 C 0.50387 0.80231 0.40423 0.0
C776 C 0.49966 0.83468 0.3999 0.0
C777 C 0.50009 0.83861 0.42023 0.0
C778 C 0.50162 0.82403 0.4324 0.0
C779 C 0.50347 0.80606 0.42449 0.0
C780 C 0.49984 0.85806 0.42897 0.0
C781 C 0.48661 0.8611 0.44221 0.0
C782 C 0.5128 0.87351 0.42456 0.0
C783 C 0.52785 0.87118 0.41165 0.0
C784 C 0.54077 0.85901 0.41597 0.0
C785 C 0.55477 0.85671 0.40359 0.0
C786 C 0.55609 0.86661 0.38694 0.0
C787 C 0.54344 0.8789 0.38266 0.0
C788 C 0.5294 0.88124 0.39498 0.0
C789 C 0.50597 0.93511 0.48639 0.0
C790 C 0.50732 0.95074 0.47521 0.0
C791 C 0.50259 0.91679 0.47721 0.0
C792 C 0.50022 0.9138 0.45671 0.0
C793 C 0.50065 0.92942 0.44563 0.0
C794 C 0.50418 0.94769 0.45477 0.0
C795 C 0.49899 0.89458 0.44674 0.0
C796 C 0.51206 0.89155 0.43332 0.0
C797 C 0.48595 0.87917 0.4511 0.0
C798 C 0.4713 0.88156 0.4645 0.0
C799 C 0.45914 0.89474 0.46136 0.0
C800 C 0.44546 0.89702 0.47414 0.0
C801 C 0.44371 0.88612 0.49004 0.0
C802 C 0.45561 0.87287 0.49318 0.0
C803 C 0.46933 0.87055 0.48045 0.0
H804 H 0.4331 0.88791 0.49992 0.0
H805 H 0.56693 0.8648 0.37736 0.0
H806 H 0.48454 0.25572 0.70146 0.0
H807 H 0.45531 0.25051 0.71703 0.0
H808 H 0.42423 0.24521 0.6605 0.0
H809 H 0.45334 0.25091 0.64494 0.0
H810 H 0.41104 0.26877 0.6842 0.0
H811 H 0.4275 0.20698 0.68833 0.0
H812 H 0.4478 0.18374 0.69698 0.0
H813 H 0.44917 0.20275 0.75768 0.0
H814 H 0.42909 0.22631 0.74935 0.0
H815 H 0.32126 0.23805 0.70626 0.0
H816 H 0.35208 0.23619 0.69515 0.0
H817 H 0.37677 0.24829 0.75447 0.0
H818 H 0.3456 0.24962 0.76577 0.0
H819 H 0.39404 0.22212 0.7319 0.0
H820 H 0.37682 0.28388 0.72674 0.0
H821 H 0.35534 0.30577 0.71719 0.0
H822 H 0.35474 0.28528 0.65701 0.0
H823 H 0.37603 0.26309 0.66624 0.0
C824 C 0.47147 0.25317 0.69234 0.0
C825 C 0.47123 0.25381 0.67197 0.0
C826 C 0.45476 0.25013 0.70126 0.0
C827 C 0.43753 0.2474 0.68995 0.0
C828 C 0.43733 0.24737 0.66955 0.0
C829 C 0.454 0.25057 0.66066 0.0
C830 C 0.41967 0.24589 0.69931 0.0
C831 C 0.4073 0.25839 0.69445 0.0
C832 C 0.41494 0.23275 0.71315 0.0
C833 C 0.42696 0.21855 0.71819 0.0
C834 C 0.43226 0.20632 0.70351 0.0
C835 C 0.4437 0.19306 0.70836 0.0
C836 C 0.44982 0.19181 0.72786 0.0
C837 C 0.44445 0.20376 0.74257 0.0
C838 C 0.43303 0.21706 0.7378 0.0
C839 C 0.33325 0.24011 0.71694 0.0
C840 C 0.33118 0.24434 0.73678 0.0
C841 C 0.3508 0.23901 0.71061 0.0
C842 C 0.36673 0.24257 0.72391 0.0
C843 C 0.36464 0.24562 0.74396 0.0
C844 C 0.34689 0.24641 0.75038 0.0
C845 C 0.38545 0.24472 0.71643 0.0
C846 C 0.39795 0.23249 0.72171 0.0
C847 C 0.39033 0.25803 0.70284 0.0
C848 C 0.37796 0.27177 0.6972 0.0
C849 C 0.37207 0.28401 0.71148 0.0
C850 C 0.35992 0.29647 0.70612 0.0
C851 C 0.35366 0.2969 0.6865 0.0
C852 C 0.3596 0.28493 0.6722 0.0
C853 C 0.37174 0.27244 0.67748 0.0
H854 H 0.34423 0.30653 0.68239 0.0
H855 H 0.45867 0.18153 0.73159 0.0
H856 H 0.02368 0.82157 0.64352 0.0
H857 H 0.03093 0.84976 0.6257 0.0
H858 H 0.99638 0.82148 0.57525 0.0
H859 H 0.9903 0.79325 0.59247 0.0
H860 H 0.0255 0.83732 0.56314 0.0
H861 H 0.98439 0.85795 0.60962 0.0
H862 H 0.97413 0.86586 0.64209 0.0
H863 H 0.02365 0.90659 0.65595 0.0
H864 H 0.03438 0.89865 0.62371 0.0
H865 H 0.99844 0.91271 0.51166 0.0
H866 H 1.00067 0.88574 0.53087 0.0
H867 H 0.0474 0.91771 0.56687 0.0
H868 H 0.04534 0.94475 0.54784 0.0
H869 H 0.01774 0.90184 0.58783 0.0
H870 H 0.05599 0.88301 0.53866 0.0
H871 H 0.06379 0.87608 0.50496 0.0
H872 H 0.0162 0.83248 0.49502 0.0
H873 H 0.00795 0.83932 0.52858 0.0
C874 C 0.01763 0.82156 0.62866 0.0
C875 C 0.00652 0.80532 0.61929 0.0
C876 C 0.0217 0.83764 0.6185 0.0
C877 C 0.01414 0.83786 0.59908 0.0
C878 C 0.0026 0.8217 0.59008 0.0
C879 C 0.99903 0.80557 0.59997 0.0
C880 C 0.01838 0.85449 0.58765 0.0
C881 C 0.0236 0.85138 0.56857 0.0
C882 C 0.01661 0.87304 0.59482 0.0
C883 C 0.01034 0.87747 0.61437 0.0
C884 C 0.99321 0.86841 0.61969 0.0
C885 C 0.98729 0.87293 0.63804 0.0
C886 C 0.99828 0.88664 0.65111 0.0
C887 C 0.0152 0.89589 0.64585 0.0
C888 C 0.02122 0.89137 0.62756 0.0
C889 C 0.00941 0.91391 0.52344 0.0
C890 C 0.02163 0.93091 0.52827 0.0
C891 C 0.01067 0.89849 0.53439 0.0
C892 C 0.02414 0.89985 0.55034 0.0
C893 C 0.03684 0.9165 0.5547 0.0
C894 C 0.03568 0.93187 0.5437 0.0
C895 C 0.02401 0.88436 0.5633 0.0
C896 C 0.01975 0.88776 0.58262 0.0
C897 C 0.02628 0.86602 0.55626 0.0
C898 C 0.03128 0.86178 0.53611 0.0
C899 C 0.04711 0.87204 0.52925 0.0
C900 C 0.05162 0.86811 0.51018 0.0
C901 C 0.04048 0.85387 0.49785 0.0
C902 C 0.02481 0.84351 0.50458 0.0
C903 C 0.02023 0.84739 0.52364 0.0
H904 H 0.044 0.85085 0.48309 0.0
H905 H 0.99364 0.89015 0.66529 0.0
H906 H 0.45268 0.7927 0.90619 0.0
H907 H 0.42353 0.78992 0.88567 0.0
H908 H 0.44982 0.7686 0.83653 0.0
H909 H 0.47935 0.77124 0.85709 0.0
H910 H 0.42426 0.79602 0.82804 0.0
H911 H 0.42575 0.73756 0.85677 0.0
H912 H 0.43068 0.71754 0.88364 0.0
H913 H 0.38788 0.73961 0.91358 0.0
H914 H 0.3829 0.75999 0.88701 0.0
H915 H 0.33339 0.7585 0.77769 0.0
H916 H 0.36624 0.76502 0.7908 0.0
H917 H 0.34925 0.77708 0.84844 0.0
H918 H 0.31662 0.77016 0.83556 0.0
H919 H 0.37195 0.752 0.84918 0.0
H920 H 0.37143 0.81166 0.82158 0.0
H921 H 0.36673 0.83232 0.79523 0.0
H922 H 0.40734 0.80848 0.76334 0.0
H923 H 0.4121 0.78749 0.78941 0.0
C924 C 0.45244 0.78755 0.891 0.0
C925 C 0.46839 0.782 0.88338 0.0
C926 C 0.43571 0.786 0.87927 0.0
C927 C 0.4345 0.77892 0.85965 0.0
C928 C 0.45051 0.7741 0.85167 0.0
C929 C 0.46732 0.77554 0.86347 0.0
C930 C 0.41609 0.77545 0.84814 0.0
C931 C 0.41285 0.78617 0.83238 0.0
C932 C 0.40122 0.76278 0.85403 0.0
C933 C 0.40406 0.75041 0.86996 0.0
C934 C 0.41749 0.73825 0.86915 0.0
C935 C 0.42028 0.72683 0.88432 0.0
C936 C 0.40963 0.72734 0.90033 0.0
C937 C 0.39613 0.73925 0.90118 0.0
C938 C 0.3933 0.75072 0.88606 0.0
C939 C 0.33673 0.76296 0.79306 0.0
C940 C 0.32246 0.7637 0.80564 0.0
C941 C 0.3555 0.76668 0.80055 0.0
C942 C 0.36024 0.77146 0.82064 0.0
C943 C 0.34596 0.77325 0.83293 0.0
C944 C 0.3273 0.76935 0.82554 0.0
C945 C 0.37979 0.77303 0.82938 0.0
C946 C 0.38331 0.76178 0.84463 0.0
C947 C 0.39481 0.78524 0.82299 0.0
C948 C 0.39196 0.79785 0.80734 0.0
C949 C 0.37924 0.8107 0.80887 0.0
C950 C 0.37659 0.8225 0.794 0.0
C951 C 0.38669 0.82167 0.77759 0.0
C952 C 0.3995 0.80908 0.77604 0.0
C953 C 0.40219 0.79724 0.79087 0.0
H954 H 0.38462 0.83082 0.7661 0.0
H955 H 0.41181 0.71848 0.91206 0.0
H956 H 0.47567 0.20862 0.07961 0.0
H957 H 0.47114 0.175 0.06949 0.0
H958 H 0.48947 0.1636 0.12784 0.0
H959 H 0.49397 0.19747 0.13813 0.0
H960 H 0.51029 0.15032 0.0996 0.0
H961 H 0.44586 0.14623 0.10976 0.0
H962 H 0.41454 0.15551 0.10741 0.0
H963 H 0.41107 0.14596 0.04492 0.0
H964 H 0.4425 0.13689 0.04686 0.0
H965 H 0.50483 0.05419 0.06866 0.0
H966 H 0.49783 0.08258 0.0862 0.0
H967 H 0.47937 0.10272 0.03173 0.0
H968 H 0.48628 0.07417 0.01393 0.0
H969 H 0.45661 0.1095 0.06176 0.0
H970 H 0.52152 0.11938 0.05063 0.0
H971 H 0.55331 0.11133 0.05109 0.0
H972 H 0.55616 0.11139 0.11356 0.0
H973 H 0.52427 0.11933 0.11344 0.0
C974 C 0.47822 0.1989 0.09043 0.0
C975 C 0.48529 0.20561 0.10961 0.0
C976 C 0.47553 0.17968 0.08465 0.0
C977 C 0.47996 0.16681 0.09791 0.0
C978 C 0.48592 0.17334 0.11742 0.0
C979 C 0.48838 0.19264 0.1233 0.0
C980 C 0.4809 0.14717 0.09052 0.0
C981 C 0.49842 0.14117 0.0918 0.0
C982 C 0.46557 0.13558 0.07972 0.0
C983 C 0.44661 0.14098 0.07846 0.0
C984 C 0.43849 0.14624 0.0955 0.0
C985 C 0.4207 0.15144 0.09424 0.0
C986 C 0.41083 0.15135 0.07602 0.0
C987 C 0.41873 0.14603 0.05902 0.0
C988 C 0.43652 0.14082 0.0602 0.0
C989 C 0.4992 0.06459 0.06035 0.0
C990 C 0.49633 0.06204 0.03985 0.0
C991 C 0.49517 0.08078 0.07044 0.0
C992 C 0.48826 0.09479 0.06024 0.0
C993 C 0.48469 0.09202 0.03985 0.0
C994 C 0.48874 0.07578 0.0297 0.0
C995 C 0.48597 0.11283 0.0708 0.0
C996 C 0.46832 0.11852 0.06996 0.0
C997 C 0.50121 0.12432 0.08181 0.0
C998 C 0.52044 0.11972 0.082 0.0
C999 C 0.52888 0.11754 0.06445 0.0
C1000 C 0.54692 0.11302 0.06465 0.0
C1001 C 0.55672 0.11074 0.08234 0.0
C1002 C 0.54853 0.1131 0.09987 0.0
C1003 C 0.53048 0.11765 0.09975 0.0
H1004 H 0.57068 0.10721 0.08246 0.0
H1005 H 0.39705 0.15538 0.07508 0.0
H1006 H 0.05023 0.25424 0.33999 0.0
H1007 H 0.07796 0.24976 0.32313 0.0
H1008 H 0.11119 0.25706 0.37854 0.0
H1009 H 0.08378 0.26201 0.39529 0.0
H1010 H 0.12784 0.27818 0.35403 0.0
H1011 H 0.0985 0.21334 0.35126 0.0
H1012 H 0.073 0.18665 0.34309 0.0
H1013 H 0.07353 0.19583 0.28226 0.0
H1014 H 0.09889 0.22274 0.2901 0.0
H1015 H 0.2111 0.24941 0.33357 0.0
H1016 H 0.17956 0.24618 0.34395 0.0
H1017 H 0.15741 0.25004 0.2848 0.0
H1018 H 0.18912 0.25319 0.27418 0.0
H1019 H 0.13412 0.22395 0.30754 0.0
H1020 H 0.16432 0.28877 0.31105 0.0
H1021 H 0.19148 0.31362 0.31986 0.0
H1022 H 0.18983 0.30313 0.38026 0.0
H1023 H 0.16274 0.27812 0.37181 0.0
C1024 C 0.06342 0.25465 0.34856 0.0
C1025 C 0.06484 0.25856 0.36895 0.0
C1026 C 0.07926 0.25204 0.33892 0.0
C1027 C 0.09671 0.25304 0.34956 0.0
C1028 C 0.09794 0.25635 0.36998 0.0
C1029 C 0.08222 0.25912 0.37956 0.0
C1030 C 0.11396 0.25167 0.33958 0.0
C1031 C 0.12916 0.26622 0.34399 0.0
C1032 C 0.11566 0.23636 0.32602 0.0
C1033 C 0.10044 0.22018 0.32129 0.0
C1034 C 0.09307 0.20977 0.33616 0.0
C1035 C 0.07867 0.19458 0.33159 0.0
C1036 C 0.07161 0.18958 0.31218 0.0
C1037 C 0.07899 0.19974 0.29729 0.0
C1038 C 0.09338 0.21495 0.30179 0.0
C1039 C 0.19951 0.24918 0.32266 0.0
C1040 C 0.2026 0.25182 0.30311 0.0
C1041 C 0.18149 0.24729 0.32862 0.0
C1042 C 0.16621 0.24817 0.31519 0.0
C1043 C 0.16904 0.24935 0.29537 0.0
C1044 C 0.18715 0.25116 0.28934 0.0
C1045 C 0.14788 0.25018 0.32246 0.0
C1046 C 0.13257 0.23592 0.31746 0.0
C1047 C 0.14601 0.26572 0.33555 0.0
C1048 C 0.16161 0.28148 0.34078 0.0
C1049 C 0.16977 0.29175 0.32621 0.0
C1050 C 0.18516 0.30584 0.33112 0.0
C1051 C 0.19247 0.30981 0.35057 0.0
C1052 C 0.1842 0.29996 0.36519 0.0
C1053 C 0.16879 0.28587 0.36036 0.0
H1054 H 0.20452 0.32056 0.35433 0.0
H1055 H 0.06047 0.17782 0.30866 0.0
H1056 H 0.89255 0.01787 0.18909 0.0
H1057 H 0.90585 0.02302 0.15779 0.0
H1058 H 0.96108 0.03502 0.18773 0.0
H1059 H 0.94801 0.02987 0.21875 0.0
H1060 H 0.95662 0.05839 0.15818 0.0
H1061 H 0.94518 0.99169 0.16799 0.0
H1062 H 0.92545 0.96201 0.17363 0.0
H1063 H 0.89086 0.96534 0.12104 0.0
H1064 H 0.91027 0.99521 0.11524 0.0
H1065 H 0.01857 0.03508 0.08816 0.0
H1066 H 1.00046 0.03868 0.11641 0.0
H1067 H 0.94946 0.01984 0.07959 0.0
H1068 H 0.96741 0.01581 0.05156 0.0
H1069 H 0.94873 0.0019 0.11084 0.0
H1070 H 0.96227 0.06654 0.09857 0.0
H1071 H 0.98193 0.09617 0.09266 0.0
H1072 H 0.01195 0.09732 0.14896 0.0
H1073 H 0.99264 0.06754 0.1551 0.0
C1074 C 0.90747 0.02198 0.18899 0.0
C1075 C 0.91925 0.02326 0.20633 0.0
C1076 C 0.91506 0.02484 0.17112 0.0
C1077 C 0.93449 0.02922 0.17042 0.0
C1078 C 0.94608 0.03165 0.18789 0.0
C1079 C 0.93857 0.02858 0.20562 0.0
C1080 C 0.94311 0.02971 0.15156 0.0
C1081 C 0.95494 0.04605 0.14781 0.0
C1082 C 0.94065 0.01374 0.13787 0.0
C1083 C 0.92902 0.99578 0.14132 0.0
C1084 C 0.93327 0.98617 0.15772 0.0
C1085 C 0.92217 0.9693 0.16093 0.0
C1086 C 0.90687 0.96183 0.14773 0.0
C1087 C 0.90268 0.97118 0.13127 0.0
C1088 C 0.91373 0.98807 0.12802 0.0
C1089 C 0.00349 0.03193 0.08607 0.0
C1090 C 0.99445 0.02506 0.06765 0.0
C1091 C 0.99313 0.03405 0.10221 0.0
C1092 C 0.97353 0.02964 0.10015 0.0
C1093 C 0.96452 0.02326 0.08162 0.0
C1094 C 0.97484 0.02098 0.06558 0.0
C1095 C 0.96245 0.03057 0.11741 0.0
C1096 C 0.95021 0.01442 0.12094 0.0
C1097 C 0.96449 0.04677 0.13081 0.0
C1098 C 0.9761 0.06472 0.12722 0.0
C1099 C 0.97316 0.07303 0.10963 0.0
C1100 C 0.98422 0.08987 0.10625 0.0
C1101 C 0.9982 0.0986 0.12041 0.0
C1102 C 1.00112 0.09053 0.138 0.0
C1103 C 0.99011 0.07368 0.14144 0.0
H1104 H 0.00676 0.11163 0.11776 0.0
H1105 H 0.89829 0.94876 0.15024 0.0
H1106 H 0.27261 0.62312 0.45078 0.0
H1107 H 0.26801 0.63825 0.42036 0.0
H1108 H 0.24642 0.68306 0.45192 0.0
H1109 H 0.25141 0.66833 0.48235 0.0
H1110 H 0.22684 0.66844 0.41256 0.0
H1111 H 0.28761 0.69248 0.44666 0.0
H1112 H 0.31842 0.68946 0.46257 0.0
H1113 H 0.33254 0.66194 0.40957 0.0
H1114 H 0.30163 0.66443 0.39346 0.0
H1115 H 0.23996 0.73985 0.34575 0.0
H1116 H 0.23822 0.72212 0.37479 0.0
H1117 H 0.27475 0.68584 0.35117 0.0
H1118 H 0.27678 0.70348 0.32251 0.0
H1119 H 0.28588 0.69597 0.38703 0.0
H1120 H 0.22685 0.67005 0.35265 0.0
H1121 H 0.19623 0.67121 0.33506 0.0
H1122 H 0.17895 0.69951 0.38601 0.0
H1123 H 0.20958 0.69872 0.40377 0.0
C1124 C 0.26654 0.63599 0.45111 0.0
C1125 C 0.26251 0.64468 0.46885 0.0
C1126 C 0.26395 0.6446 0.4338 0.0
C1127 C 0.25698 0.66177 0.43404 0.0
C1128 C 0.25178 0.66979 0.45152 0.0
C1129 C 0.25473 0.66141 0.46886 0.0
C1130 C 0.25684 0.67233 0.41653 0.0
C1131 C 0.2397 0.67462 0.407 0.0
C1132 C 0.27367 0.68002 0.40921 0.0
C1133 C 0.2922 0.67839 0.41895 0.0
C1134 C 0.29718 0.68555 0.43848 0.0
C1135 C 0.31469 0.68398 0.44752 0.0
C1136 C 0.3274 0.67544 0.43712 0.0
C1137 C 0.32265 0.66849 0.41764 0.0
C1138 C 0.30514 0.66996 0.40855 0.0
C1139 C 0.24755 0.72805 0.34677 0.0
C1140 C 0.25857 0.72313 0.33191 0.0
C1141 C 0.24645 0.71785 0.36328 0.0
C1142 C 0.2562 0.70251 0.36503 0.0
C1143 C 0.26709 0.69759 0.35013 0.0
C1144 C 0.26825 0.70775 0.33374 0.0
C1145 C 0.25583 0.69194 0.38268 0.0
C1146 C 0.27294 0.68975 0.39241 0.0
C1147 C 0.23898 0.68407 0.38993 0.0
C1148 C 0.22055 0.68455 0.3794 0.0
C1149 C 0.21656 0.67668 0.35999 0.0
C1150 C 0.19921 0.67724 0.35003 0.0
C1151 C 0.18568 0.6855 0.35939 0.0
C1152 C 0.18946 0.69316 0.37877 0.0
C1153 C 0.20681 0.69264 0.38879 0.0
H1154 H 0.17225 0.68592 0.35166 0.0
H1155 H 0.34096 0.67427 0.44413 0.0
H1156 H 0.57497 0.96782 0.72185 0.0
H1157 H 0.56277 0.96186 0.68772 0.0
H1158 H 0.61721 0.98213 0.66995 0.0
H1159 H 0.62957 0.98819 0.70437 0.0
H1160 H 0.59108 0.00146 0.6557 0.0
H1161 H 0.59711 0.93712 0.65657 0.0
H1162 H 0.59473 0.90562 0.66879 0.0
H1163 H 0.53499 0.9007 0.66402 0.0
H1164 H 0.537 0.93232 0.65204 0.0
H1165 H 0.55644 0.9932 0.55808 0.0
H1166 H 0.57322 0.98475 0.5871 0.0
H1167 H 0.52147 0.9719 0.61345 0.0
H1168 H 0.50425 0.98017 0.58397 0.0
H1169 H 0.54891 0.94656 0.62114 0.0
H1170 H 0.54415 0.01319 0.62535 0.0
H1171 H 0.54686 0.04451 0.61263 0.0
H1172 H 0.60527 0.0443 0.60742 0.0
H1173 H 0.60285 0.01286 0.61997 0.0
C1174 C 0.58448 0.97051 0.71067 0.0
C1175 C 0.60316 0.97865 0.71572 0.0
C1176 C 0.57751 0.96697 0.69114 0.0
C1177 C 0.58907 0.97156 0.67627 0.0
C1178 C 0.60808 0.97846 0.68123 0.0
C1179 C 0.61514 0.98183 0.70086 0.0
C1180 C 0.58052 0.97191 0.65611 0.0
C1181 C 0.58225 0.9893 0.64796 0.0
C1182 C 0.56856 0.95619 0.64624 0.0
C1183 C 0.56722 0.93718 0.65353 0.0
C1184 C 0.58346 0.92941 0.65829 0.0
C1185 C 0.58218 0.91151 0.66514 0.0
C1186 C 0.56472 0.90118 0.66721 0.0
C1187 C 0.54851 0.90873 0.66241 0.0
C1188 C 0.54971 0.92663 0.65556 0.0
C1189 C 0.54848 0.98831 0.56987 0.0
C1190 C 0.52898 0.9876 0.56882 0.0
C1191 C 0.55815 0.98344 0.58644 0.0
C1192 C 0.54861 0.97794 0.60245 0.0
C1193 C 0.52904 0.97613 0.60116 0.0
C1194 C 0.51925 0.98094 0.5844 0.0
C1195 C 0.55939 0.97609 0.6211 0.0
C1196 C 0.558 0.95854 0.62888 0.0
C1197 C 0.57173 0.99162 0.63069 0.0
C1198 C 0.57329 0.01064 0.62345 0.0
C1199 C 0.55755 0.01979 0.62139 0.0
C1200 C 0.55903 0.03756 0.61423 0.0
C1201 C 0.57621 0.04637 0.60917 0.0
C1202 C 0.59197 0.03745 0.61134 0.0
C1203 C 0.59056 0.01968 0.61851 0.0
H1204 H 0.57732 0.06013 0.6036 0.0
H1205 H 0.56375 0.88732 0.67251 0.0
H1206 H 0.28027 0.34796 0.99022 0.0
H1207 H 0.28406 0.33357 0.95795 0.0
H1208 H 0.26676 0.3815 0.93169 0.0
H1209 H 0.26336 0.39624 0.96417 0.0
H1210 H 0.25692 0.3223 0.93103 0.0
H1211 H 0.28306 0.38497 0.8867 0.0
H1212 H 0.30451 0.41515 0.89128 0.0
H1213 H 0.3358 0.39466 0.9383 0.0
H1214 H 0.3146 0.36434 0.93398 0.0
H1215 H 0.25066 0.32652 0.81961 0.0
H1216 H 0.25801 0.34169 0.85256 0.0
H1217 H 0.27554 0.29094 0.87197 0.0
H1218 H 0.26759 0.27531 0.83891 0.0
H1219 H 0.28878 0.35044 0.87665 0.0
H1220 H 0.26425 0.28635 0.91817 0.0
H1221 H 0.24167 0.25688 0.91421 0.0
H1222 H 0.20649 0.28142 0.87365 0.0
H1223 H 0.22888 0.31093 0.87733 0.0
C1224 C 0.27758 0.35562 0.97762 0.0
C1225 C 0.27136 0.37318 0.97971 0.0
C1226 C 0.27976 0.34735 0.95915 0.0
C1227 C 0.27571 0.3564 0.94235 0.0
C1228 C 0.27024 0.37434 0.94444 0.0
C1229 C 0.2682 0.38272 0.963 0.0
C1230 C 0.27528 0.34616 0.92273 0.0
C1231 C 0.26427 0.32832 0.91928 0.0
C1232 C 0.28442 0.35416 0.90721 0.0
C1233 C 0.29712 0.37244 0.91012 0.0
C1234 C 0.29451 0.3869 0.89802 0.0
C1235 C 0.30661 0.40405 0.90059 0.0
C1236 C 0.32145 0.40686 0.91514 0.0
C1237 C 0.32422 0.39253 0.92715 0.0
C1238 C 0.31213 0.37537 0.92468 0.0
C1239 C 0.25614 0.31852 0.83082 0.0
C1240 C 0.25835 0.2996 0.82665 0.0
C1241 C 0.26048 0.32731 0.84966 0.0
C1242 C 0.26721 0.31747 0.86479 0.0
C1243 C 0.27011 0.29876 0.86057 0.0
C1244 C 0.26565 0.28986 0.84166 0.0
C1245 C 0.27036 0.3267 0.88503 0.0
C1246 C 0.28177 0.34434 0.88855 0.0
C1247 C 0.26154 0.31861 0.90067 0.0
C1248 C 0.24832 0.30072 0.89785 0.0
C1249 C 0.25173 0.28538 0.90834 0.0
C1250 C 0.23898 0.26867 0.90614 0.0
C1251 C 0.2227 0.26722 0.89362 0.0
C1252 C 0.21916 0.28246 0.88322 0.0
C1253 C 0.23191 0.29917 0.88531 0.0
H1254 H 0.2128 0.25431 0.89208 0.0
H1255 H 0.33085 0.42011 0.91704 0.0
H1256 H 0.87435 0.00913 0.31779 0.0
H1257 H 0.88746 0.00413 0.3505 0.0
H1258 H 0.94134 0.00292 0.32869 0.0
H1259 H 0.92831 0.00754 0.29605 0.0
H1260 H 0.93501 0.97688 0.35404 0.0
H1261 H 0.93083 0.04286 0.35229 0.0
H1262 H 0.915 0.07035 0.34717 0.0
H1263 H 0.87833 0.05447 0.39112 0.0
H1264 H 0.8938 0.02673 0.39631 0.0
H1265 H 0.99524 0.00496 0.44217 0.0
H1266 H 0.97873 0.00028 0.40938 0.0
H1267 H 0.92623 1.00011 0.43463 0.0
H1268 H 0.94263 0.00488 0.46725 0.0
H1269 H 0.93037 0.02509 0.40791 0.0
H1270 H 0.93705 0.96022 0.4115 0.0
H1271 H 0.954 0.93352 0.41668 0.0
H1272 H 0.98718 0.94802 0.36952 0.0
H1273 H 0.9706 0.97499 0.36422 0.0
C1274 C 0.88894 0.00762 0.31996 0.0
C1275 C 0.90033 0.00889 0.3044 0.0
C1276 C 0.89643 0.00481 0.33865 0.0
C1277 C 0.91546 0.00339 0.3421 0.0
C1278 C 0.92665 0.00397 0.3264 0.0
C1279 C 0.91917 0.00671 0.30776 0.0
C1280 C 0.92403 0.00227 0.36217 0.0
C1281 C 0.9341 0.98748 0.3658 0.0
C1282 C 0.92263 0.01594 0.3776 0.0
C1283 C 0.91333 0.03261 0.37452 0.0
C1284 C 0.91929 0.04515 0.36074 0.0
C1285 C 0.9104 0.06079 0.35785 0.0
C1286 C 0.89563 0.06412 0.36877 0.0
C1287 C 0.88975 0.05185 0.38264 0.0
C1288 C 0.89858 0.03618 0.38557 0.0
C1289 C 0.98015 0.00348 0.44071 0.0
C1290 C 0.97021 0.00547 0.45725 0.0
C1291 C 0.97072 0.00081 0.42198 0.0
C1292 C 0.95123 0.99991 0.41955 0.0
C1293 C 0.94127 0.00089 0.43613 0.0
C1294 C 0.95066 0.0036 0.45477 0.0
C1295 C 0.94135 0.99969 0.39984 0.0
C1296 C 0.9311 0.01433 0.39624 0.0
C1297 C 0.94273 0.98597 0.38447 0.0
C1298 C 0.95269 0.96973 0.38758 0.0
C1299 C 0.94807 0.95781 0.40233 0.0
C1300 C 0.95759 0.94261 0.40527 0.0
C1301 C 0.97169 0.9391 0.39347 0.0
C1302 C 0.97627 0.95077 0.37866 0.0
C1303 C 0.9668 0.966 0.37567 0.0
H1304 H 0.97904 0.92733 0.39576 0.0
H1305 H 0.88877 0.07624 0.36652 0.0
H1306 H 0.28417 0.63774 0.58217 0.0
H1307 H 0.28939 0.65054 0.61645 0.0
H1308 H 0.29943 0.70692 0.59823 0.0
H1309 H 0.29447 0.69431 0.56416 0.0
H1310 H 0.32039 0.70334 0.63298 0.0
H1311 H 0.25573 0.68733 0.60367 0.0
H1312 H 0.22937 0.66473 0.58719 0.0
H1313 H 0.23198 0.62952 0.63467 0.0
H1314 H 0.25851 0.65181 0.6513 0.0
H1315 H 0.28467 0.76281 0.70336 0.0
H1316 H 0.29269 0.74539 0.67404 0.0
H1317 H 0.27415 0.69282 0.69799 0.0
H1318 H 0.26547 0.7099 0.72665 0.0
H1319 H 0.26011 0.6913 0.6625 0.0
H1320 H 0.32089 0.70898 0.69483 0.0
H1321 H 0.34779 0.73039 0.71184 0.0
H1322 H 0.35374 0.76074 0.66076 0.0
H1323 H 0.32668 0.73969 0.64352 0.0
C1324 C 0.2881 0.6528 0.58549 0.0
C1325 C 0.28851 0.66506 0.57053 0.0
C1326 C 0.29104 0.6601 0.60506 0.0
C1327 C 0.29444 0.67969 0.60982 0.0
C1328 C 0.29675 0.69177 0.59487 0.0
C1329 C 0.29375 0.68454 0.5754 0.0
C1330 C 0.29251 0.68786 0.62975 0.0
C1331 C 0.30726 0.70074 0.63953 0.0
C1332 C 0.27546 0.68418 0.63837 0.0
C1333 C 0.2592 0.6711 0.6286 0.0
C1334 C 0.25071 0.67473 0.61054 0.0
C1335 C 0.23575 0.66198 0.60118 0.0
C1336 C 0.22906 0.64566 0.60984 0.0
C1337 C 0.23722 0.64213 0.62796 0.0
C1338 C 0.2522 0.65482 0.63736 0.0
C1339 C 0.28235 0.74755 0.70234 0.0
C1340 C 0.27441 0.73778 0.71734 0.0
C1341 C 0.28708 0.73761 0.68568 0.0
C1342 C 0.28419 0.71778 0.68391 0.0
C1343 C 0.2765 0.70809 0.699 0.0
C1344 C 0.27157 0.71794 0.71543 0.0
C1345 C 0.28798 0.707 0.66587 0.0
C1346 C 0.27345 0.69371 0.65631 0.0
C1347 C 0.30531 0.71017 0.65767 0.0
C1348 C 0.32164 0.72284 0.66793 0.0
C1349 C 0.32784 0.72031 0.68726 0.0
C1350 C 0.34313 0.73237 0.69694 0.0
C1351 C 0.35244 0.74694 0.6874 0.0
C1352 C 0.3465 0.74946 0.66814 0.0
C1353 C 0.33119 0.73745 0.6584 0.0
H1354 H 0.36428 0.75626 0.69492 0.0
H1355 H 0.21757 0.63574 0.60254 0.0
H1356 H 0.59027 0.99556 0.80632 0.0
H1357 H 0.57627 0.0085 0.83421 0.0
H1358 H 0.63061 0.03589 0.85917 0.0
H1359 H 0.64487 0.02224 0.83138 0.0
H1360 H 0.61187 0.0208 0.88626 0.0
H1361 H 0.59836 0.06106 0.83758 0.0
H1362 H 0.58779 0.06938 0.80496 0.0
H1363 H 0.53233 0.04182 0.81125 0.0
H1364 H 0.54264 0.03303 0.84378 0.0
H1365 H 0.56936 0.05931 0.96191 0.0
H1366 H 0.58471 0.06181 0.93156 0.0
H1367 H 0.53723 0.02661 0.9 0.0
H1368 H 0.52139 0.0249 0.93017 0.0
H1369 H 0.55558 0.05174 0.87665 0.0
H1370 H 0.57245 0.00684 0.9229 0.0
H1371 H 0.58318 1.00013 0.95614 0.0
H1372 H 0.63353 0.03925 0.9544 0.0
H1373 H 0.62299 0.0463 0.92121 0.0
C1374 C 0.59926 0.00434 0.81775 0.0
C1375 C 0.61863 0.00797 0.81671 0.0
C1376 C 0.59122 0.01187 0.8336 0.0
C1377 C 0.60232 0.02359 0.84852 0.0
C1378 C 0.62177 0.02702 0.8477 0.0
C1379 C 0.62989 0.0192 0.8319 0.0
C1380 C 0.5935 0.03152 0.86527 0.0
C1381 C 0.59984 0.02795 0.88415 0.0
C1382 C 0.57769 0.04076 0.86256 0.0
C1383 C 0.57131 0.04631 0.84312 0.0
C1384 C 0.58393 0.05669 0.83198 0.0
C1385 C 0.57798 0.06149 0.81349 0.0
C1386 C 0.5594 0.05612 0.80603 0.0
C1387 C 0.54672 0.04597 0.81706 0.0
C1388 C 0.5526 0.0411 0.83554 0.0
C1389 C 0.56189 0.05291 0.94827 0.0
C1390 C 0.54428 0.04199 0.94814 0.0
C1391 C 0.57068 0.05427 0.93106 0.0
C1392 C 0.56231 0.04405 0.91375 0.0
C1393 C 0.54394 0.03457 0.91325 0.0
C1394 C 0.53491 0.03361 0.93042 0.0
C1395 C 0.57373 0.04058 0.89738 0.0
C1396 C 0.56785 0.04493 0.87866 0.0
C1397 C 0.59011 0.03225 0.90021 0.0
C1398 C 0.59691 0.02714 0.91964 0.0
C1399 C 0.58583 0.01395 0.9296 0.0
C1400 C 0.59186 0.01012 0.94844 0.0
C1401 C 0.60902 0.01928 0.95739 0.0
C1402 C 0.62025 0.03217 0.94745 0.0
C1403 C 0.61428 0.03605 0.92861 0.0
H1404 H 0.61361 0.01638 0.97201 0.0
H1405 H 0.55483 0.05984 0.79171 0.0
H1406 H 0.25029 0.32411 0.06305 0.0
H1407 H 0.24397 0.30958 0.09308 0.0
H1408 H 0.25294 0.36442 0.12499 0.0
H1409 H 0.25942 0.37922 0.09462 0.0
H1410 H 0.27335 0.33998 0.14189 0.0
H1411 H 0.20983 0.33883 0.11938 0.0
H1412 H 0.18183 0.33322 0.09597 0.0
H1413 H 0.18479 0.27398 0.09069 0.0
H1414 H 0.21299 0.27925 0.11386 0.0
H1415 H 0.24914 0.30264 0.22958 0.0
H1416 H 0.24766 0.31938 0.20029 0.0
H1417 H 0.2435 0.267 0.16452 0.0
H1418 H 0.24506 0.24987 0.19407 0.0
H1419 H 0.21907 0.29178 0.15068 0.0
H1420 H 0.28415 0.2937 0.17104 0.0
H1421 H 0.31219 0.29949 0.19443 0.0
H1422 H 0.30586 0.35771 0.20382 0.0
H1423 H 0.27767 0.35225 0.1806 0.0
C1424 C 0.25066 0.33317 0.07639 0.0
C1425 C 0.25548 0.35284 0.07649 0.0
C1426 C 0.24692 0.32481 0.09355 0.0
C1427 C 0.24788 0.33588 0.1113 0.0
C1428 C 0.25207 0.35561 0.11142 0.0
C1429 C 0.25566 0.36406 0.09409 0.0
C1430 C 0.24608 0.32651 0.12974 0.0
C1431 C 0.26129 0.32975 0.14399 0.0
C1432 C 0.23059 0.31273 0.13224 0.0
C1433 C 0.21363 0.30947 0.11826 0.0
C1434 C 0.20462 0.32462 0.11311 0.0
C1435 C 0.18868 0.3215 0.0999 0.0
C1436 C 0.18156 0.30326 0.09182 0.0
C1437 C 0.19033 0.2881 0.09696 0.0
C1438 C 0.20628 0.29115 0.11015 0.0
C1439 C 0.24784 0.29454 0.21554 0.0
C1440 C 0.24742 0.27485 0.21422 0.0
C1441 C 0.24699 0.3042 0.19878 0.0
C1442 C 0.24572 0.29449 0.18025 0.0
C1443 C 0.24453 0.27476 0.17873 0.0
C1444 C 0.24545 0.265 0.19561 0.0
C1445 C 0.24638 0.3052 0.16264 0.0
C1446 C 0.23101 0.30215 0.14859 0.0
C1447 C 0.26172 0.31919 0.1603 0.0
C1448 C 0.27869 0.32252 0.17423 0.0
C1449 C 0.28865 0.3077 0.17822 0.0
C1450 C 0.30458 0.31093 0.19142 0.0
C1451 C 0.31075 0.32893 0.20067 0.0
C1452 C 0.30104 0.34376 0.19667 0.0
C1453 C 0.2851 0.34062 0.18347 0.0
H1454 H 0.32309 0.33139 0.21089 0.0
H1455 H 0.16922 0.30087 0.0816 0.0
H1456 H 0.22817 0.95028 0.01953 0.0
H1457 H 0.2049 0.96994 0.02822 0.0
H1458 H 0.1651 0.92006 0.03282 0.0
H1459 H 0.18816 0.90033 0.02353 0.0
H1460 H 0.14906 0.94353 0.01313 0.0
H1461 H 0.1872 0.94921 0.07378 0.0
H1462 H 0.21639 0.95576 0.09546 0.0
H1463 H 0.22516 0.01288 0.08001 0.0
H1464 H 0.19614 0.00661 0.05802 0.0
H1465 H 0.0824 0.98632 0.06088 0.0
H1466 H 0.10975 0.97047 0.05993 0.0
H1467 H 0.13912 0.01722 0.03355 0.0
H1468 H 0.11156 0.03313 0.03397 0.0
H1469 H 0.1606 0.99634 0.06524 0.0
H1470 H 0.12401 0.9891 0.00218 0.0
H1471 H 0.09382 0.98306 0.98222 0.0
H1472 H 0.0818 0.92858 0.00384 0.0
H1473 H 0.1119 0.93443 0.02422 0.0
C1474 C 0.21451 0.9435 0.02255 0.0
C1475 C 0.20999 0.92375 0.02084 0.0
C1476 C 0.20122 0.95477 0.02761 0.0
C1477 C 0.18327 0.94652 0.03141 0.0
C1478 C 0.17884 0.92678 0.02996 0.0
C1479 C 0.19205 0.9155 0.02469 0.0
C1480 C 0.16884 0.95842 0.03603 0.0
C1481 C 0.1516 0.95489 0.02471 0.0
C1482 C 0.17215 0.97356 0.05087 0.0
C1483 C 0.18959 0.97738 0.06411 0.0
C1484 C 0.19543 0.96313 0.07488 0.0
C1485 C 0.21193 0.9668 0.08725 0.0
C1486 C 0.22264 0.98471 0.08907 0.0
C1487 C 0.21685 0.99901 0.07856 0.0
C1488 C 0.20038 0.99541 0.06616 0.0
C1489 C 0.09481 0.99354 0.05535 0.0
C1490 C 0.09472 0.01094 0.04729 0.0
C1491 C 0.11043 0.98443 0.05484 0.0
C1492 C 0.12634 0.99267 0.04659 0.0
C1493 C 0.12694 0.01071 0.04004 0.0
C1494 C 0.11117 0.01974 0.04025 0.0
C1495 C 0.14113 0.9813 0.04237 0.0
C1496 C 0.15827 0.98493 0.05372 0.0
C1497 C 0.13779 0.96621 0.02763 0.0
C1498 C 0.12007 0.96229 0.01487 0.0
C1499 C 0.11487 0.97588 0.00278 0.0
C1500 C 0.09779 0.9725 0.9914 0.0
C1501 C 0.08583 0.95552 0.9919 0.0
C1502 C 0.09105 0.94177 0.00358 0.0
C1503 C 0.10813 0.9451 0.01503 0.0
H1504 H 0.07253 0.95303 0.98324 0.0
H1505 H 0.23541 0.98752 0.09866 0.0
H1506 H 0.71797 0.59866 0.00947 0.0
H1507 H 0.68788 0.57854 0.00924 0.0
H1508 H 0.66696 0.60468 0.9594 0.0
H1509 H 0.69673 0.62572 0.96051 0.0
H1510 H 0.64197 0.60208 0.98128 0.0
H1511 H 0.67735 0.55651 0.958 0.0
H1512 H 0.70354 0.5384 0.95675 0.0
H1513 H 0.69172 0.51744 0.01193 0.0
H1514 H 0.66561 0.53563 0.01365 0.0
H1515 H 0.57099 0.5082 0.98193 0.0
H1516 H 0.60143 0.52394 0.97389 0.0
H1517 H 0.59881 0.56966 0.01719 0.0
H1518 H 0.56842 0.55445 0.02478 0.0
H1519 H 0.63443 0.53416 0.99224 0.0
H1520 H 0.61674 0.61057 0.00429 0.0
H1521 H 0.58958 0.62706 0.99889 0.0
H1522 H 0.56481 0.58362 0.95466 0.0
H1523 H 0.59178 0.56692 0.95973 0.0
C1524 C 0.70702 0.59995 0.99832 0.0
C1525 C 0.70972 0.61376 0.98499 0.0
C1526 C 0.68979 0.58831 0.99809 0.0
C1527 C 0.67505 0.58975 0.9841 0.0
C1528 C 0.67798 0.60323 0.97042 0.0
C1529 C 0.69504 0.61523 0.97099 0.0
C1530 C 0.65628 0.57815 0.98459 0.0
C1531 C 0.64042 0.58721 0.98355 0.0
C1532 C 0.65391 0.55854 0.98695 0.0
C1533 C 0.6696 0.54755 0.98601 0.0
C1534 C 0.68041 0.54814 0.96993 0.0
C1535 C 0.69523 0.53784 0.96913 0.0
C1536 C 0.69931 0.5268 0.98427 0.0
C1537 C 0.68855 0.52601 0.00022 0.0
C1538 C 0.67372 0.53629 0.0011 0.0
C1539 C 0.57694 0.52161 0.98971 0.0
C1540 C 0.56718 0.53015 0.00384 0.0
C1541 C 0.59435 0.53058 0.98513 0.0
C1542 C 0.6023 0.5482 0.99465 0.0
C1543 C 0.59281 0.55635 0.00923 0.0
C1544 C 0.57541 0.54755 0.01364 0.0
C1545 C 0.62045 0.5583 0.98951 0.0
C1546 C 0.6361 0.54899 0.98974 0.0
C1547 C 0.62256 0.57746 0.98548 0.0
C1548 C 0.60624 0.58744 0.98249 0.0
C1549 C 0.60551 0.60456 0.99339 0.0
C1550 C 0.59013 0.61392 0.99042 0.0
C1551 C 0.57547 0.60636 0.97648 0.0
C1552 C 0.57612 0.5894 0.96553 0.0
C1553 C 0.59143 0.57996 0.96848 0.0
H1554 H 0.56367 0.61367 0.97406 0.0
H1555 H 0.71079 0.51884 0.98362 0.0
H1556 H 0.69388 0.48066 0.27483 0.0
H1557 H 0.70973 0.45342 0.2681 0.0
H1558 H 0.65829 0.41607 0.27208 0.0
H1559 H 0.64251 0.44314 0.27912 0.0
H1560 H 0.68589 0.40444 0.29235 0.0
H1561 H 0.67644 0.42463 0.22776 0.0
H1562 H 0.67896 0.44718 0.20248 0.0
H1563 H 0.73873 0.45391 0.21112 0.0
H1564 H 0.73655 0.43157 0.23665 0.0
H1565 H 0.70306 0.31768 0.25374 0.0
H1566 H 0.69145 0.34769 0.25673 0.0
H1567 H 0.74704 0.37722 0.2534 0.0
H1568 H 0.75874 0.34683 0.2497 0.0
H1569 H 0.72075 0.39453 0.23428 0.0
H1570 H 0.72918 0.37117 0.2973 0.0
H1571 H 0.72529 0.34715 0.32097 0.0
H1572 H 0.66595 0.34591 0.31482 0.0
H1573 H 0.66941 0.36955 0.2907 0.0
C1574 C 0.68593 0.46664 0.27416 0.0
C1575 C 0.66693 0.46408 0.27754 0.0
C1576 C 0.695 0.45107 0.27023 0.0
C1577 C 0.6852 0.43264 0.26945 0.0
C1578 C 0.66618 0.43012 0.27264 0.0
C1579 C 0.65715 0.44563 0.27662 0.0
C1580 C 0.69473 0.41587 0.26599 0.0
C1581 C 0.69336 0.40222 0.27955 0.0
C1582 C 0.705 0.41318 0.2496 0.0
C1583 C 0.70633 0.4266 0.23427 0.0
C1584 C 0.69012 0.43104 0.22439 0.0
C1585 C 0.69148 0.44376 0.20999 0.0
C1586 C 0.70899 0.45202 0.20524 0.0
C1587 C 0.72517 0.44753 0.21484 0.0
C1588 C 0.72388 0.43484 0.22927 0.0
C1589 C 0.71283 0.33054 0.25342 0.0
C1590 C 0.73186 0.32993 0.25173 0.0
C1591 C 0.70616 0.34771 0.2552 0.0
C1592 C 0.71843 0.36477 0.25586 0.0
C1593 C 0.73733 0.36424 0.25311 0.0
C1594 C 0.744 0.34691 0.25098 0.0
C1595 C 0.71146 0.38291 0.26039 0.0
C1596 C 0.71341 0.39685 0.24716 0.0
C1597 C 0.70159 0.38586 0.27705 0.0
C1598 C 0.69956 0.37204 0.29204 0.0
C1599 C 0.71529 0.3657 0.3009 0.0
C1600 C 0.71315 0.3521 0.31436 0.0
C1601 C 0.69537 0.34493 0.31931 0.0
C1602 C 0.6797 0.35143 0.31091 0.0
C1603 C 0.68174 0.36492 0.29733 0.0
H1604 H 0.6937 0.33441 0.32973 0.0
H1605 H 0.71002 0.46186 0.19409 0.0
H1606 H 0.81161 0.37072 0.47547 0.0
H1607 H 0.84215 0.39003 0.47593 0.0
H1608 H 0.81935 0.43902 0.4966 0.0
H1609 H 0.78858 0.41979 0.49631 0.0
H1610 H 0.84682 0.44546 0.46755 0.0
H1611 H 0.83903 0.41953 0.52933 0.0
H1612 H 0.83079 0.3941 0.55067 0.0
H1613 H 0.87301 0.36462 0.52853 0.0
H1614 H 0.8813 0.38975 0.50682 0.0
H1615 H 0.93522 0.49772 0.50955 0.0
H1616 H 0.90266 0.48332 0.50079 0.0
H1617 H 0.92011 0.42885 0.49145 0.0
H1618 H 0.95242 0.44305 0.50077 0.0
H1619 H 0.89404 0.427 0.51521 0.0
H1620 H 0.90234 0.45296 0.45351 0.0
H1621 H 0.91046 0.47814 0.43185 0.0
H1622 H 0.86787 0.50752 0.4533 0.0
H1623 H 0.85966 0.48263 0.4753 0.0
C1624 C 0.81293 0.38564 0.47985 0.0
C1625 C 0.79764 0.39363 0.48611 0.0
C1626 C 0.83042 0.39666 0.48007 0.0
C1627 C 0.83298 0.41588 0.48645 0.0
C1628 C 0.8176 0.42419 0.49161 0.0
C1629 C 0.80007 0.41314 0.49155 0.0
C1630 C 0.85206 0.42668 0.48952 0.0
C1631 C 0.85716 0.44164 0.4781 0.0
C1632 C 0.86549 0.42148 0.50315 0.0
C1633 C 0.86065 0.40642 0.51631 0.0
C1634 C 0.84644 0.40754 0.52889 0.0
C1635 C 0.84178 0.3932 0.54108 0.0
C1636 C 0.85134 0.37773 0.54092 0.0
C1637 C 0.86561 0.3766 0.52862 0.0
C1638 C 0.8703 0.39089 0.51638 0.0
C1639 C 0.93209 0.48275 0.50519 0.0
C1640 C 0.94626 0.47144 0.50598 0.0
C1641 C 0.9135 0.47454 0.50016 0.0
C1642 C 0.90891 0.45497 0.4955 0.0
C1643 C 0.92327 0.44393 0.49516 0.0
C1644 C 0.94173 0.45206 0.50044 0.0
C1645 C 0.88918 0.44559 0.49283 0.0
C1646 C 0.88384 0.43091 0.50455 0.0
C1647 C 0.87564 0.45109 0.47945 0.0
C1648 C 0.88051 0.46602 0.46619 0.0
C1649 C 0.8948 0.46487 0.45372 0.0
C1650 C 0.89941 0.47907 0.44136 0.0
C1651 C 0.88972 0.49444 0.44124 0.0
C1652 C 0.87538 0.49561 0.45344 0.0
C1653 C 0.87073 0.48145 0.46584 0.0
H1654 H 0.89331 0.50542 0.43166 0.0
H1655 H 0.84771 0.36664 0.55037 0.0
H1656 H 0.34127 0.04381 0.24756 0.0
H1657 H 0.32299 0.06916 0.24136 0.0
H1658 H 0.3718 0.11047 0.25838 0.0
H1659 H 0.39021 0.08537 0.26426 0.0
H1660 H 0.33797 0.11062 0.28102 0.0
H1661 H 0.35817 0.10946 0.21547 0.0
H1662 H 0.36125 0.09419 0.18292 0.0
H1663 H 0.30163 0.08097 0.17259 0.0
H1664 H 0.29821 0.09592 0.20523 0.0
H1665 H 0.31532 0.19958 0.27245 0.0
H1666 H 0.32849 0.17059 0.2705 0.0
H1667 H 0.27949 0.1426 0.23489 0.0
H1668 H 0.26624 0.1722 0.23639 0.0
H1669 H 0.30948 0.13249 0.22079 0.0
H1670 H 0.28821 0.12548 0.28592 0.0
H1671 H 0.28298 0.13488 0.32002 0.0
H1672 H 0.34045 0.16004 0.33121 0.0
H1673 H 0.34622 0.14986 0.29748 0.0
C1674 C 0.34821 0.05828 0.2495 0.0
C1675 C 0.36714 0.06261 0.25657 0.0
C1676 C 0.33776 0.07271 0.24589 0.0
C1677 C 0.34609 0.09162 0.24945 0.0
C1678 C 0.36518 0.09593 0.25549 0.0
C1679 C 0.37567 0.08156 0.25885 0.0
C1680 C 0.33454 0.10687 0.24963 0.0
C1681 C 0.33188 0.11551 0.26783 0.0
C1682 C 0.32587 0.11257 0.23248 0.0
C1683 C 0.32795 0.10359 0.21289 0.0
C1684 C 0.34572 0.1031 0.20635 0.0
C1685 C 0.34753 0.09456 0.18786 0.0
C1686 C 0.33165 0.08656 0.17572 0.0
C1687 C 0.31392 0.08714 0.18203 0.0
C1688 C 0.31204 0.09566 0.20051 0.0
C1689 C 0.30721 0.18727 0.26426 0.0
C1690 C 0.28963 0.18813 0.25471 0.0
C1691 C 0.31472 0.17058 0.26334 0.0
C1692 C 0.30477 0.15418 0.25308 0.0
C1693 C 0.28734 0.15503 0.24309 0.0
C1694 C 0.27981 0.17192 0.24389 0.0
C1695 C 0.31328 0.13662 0.25225 0.0
C1696 C 0.31537 0.12747 0.23399 0.0
C1697 C 0.32111 0.13002 0.26938 0.0
C1698 C 0.31755 0.13721 0.28918 0.0
C1699 C 0.29968 0.13313 0.29565 0.0
C1700 C 0.29668 0.13839 0.31494 0.0
C1701 C 0.31131 0.14825 0.3277 0.0
C1702 C 0.32909 0.15251 0.32129 0.0
C1703 C 0.33229 0.1468 0.30217 0.0
H1704 H 0.30887 0.15252 0.34255 0.0
H1705 H 0.33308 0.07995 0.16141 0.0
H1706 H 0.33095 0.12844 0.50341 0.0
H1707 H 0.35813 0.11263 0.50903 0.0
H1708 H 0.32206 0.06122 0.51739 0.0
H1709 H 0.29473 0.07706 0.51198 0.0
H1710 H 0.35262 0.06712 0.54374 0.0
H1711 H 0.3407 0.06725 0.47448 0.0
H1712 H 0.33538 0.08089 0.44313 0.0
H1713 H 0.38942 0.11498 0.45261 0.0
H1714 H 0.39494 0.10181 0.48419 0.0
H1715 H 0.4284 0.0129 0.53532 0.0
H1716 H 0.39825 0.0245 0.53217 0.0
H1717 H 0.42608 0.07799 0.51705 0.0
H1718 H 0.45576 0.06637 0.51948 0.0
H1719 H 0.39737 0.06753 0.49296 0.0
H1720 H 0.40828 0.07009 0.56334 0.0
H1721 H 0.41405 0.05678 0.59482 0.0
H1722 H 0.36286 0.01806 0.58325 0.0
H1723 H 0.3569 0.031 0.55159 0.0
C1724 C 0.32877 0.11381 0.50659 0.0
C1725 C 0.31064 0.10399 0.50713 0.0
C1726 C 0.34434 0.10475 0.50971 0.0
C1727 C 0.34216 0.08563 0.51332 0.0
C1728 C 0.32411 0.07595 0.51455 0.0
C1729 C 0.30849 0.08502 0.51142 0.0
C1730 C 0.35871 0.07572 0.51535 0.0
C1731 C 0.3623 0.067 0.53253 0.0
C1732 C 0.37147 0.07568 0.50082 0.0
C1733 C 0.36813 0.08369 0.48184 0.0
C1734 C 0.35137 0.0778 0.46999 0.0
C1735 C 0.34834 0.08543 0.45215 0.0
C1736 C 0.36203 0.09884 0.44591 0.0
C1737 C 0.3788 0.10463 0.45748 0.0
C1738 C 0.38189 0.09709 0.47535 0.0
C1739 C 0.42803 0.02717 0.53149 0.0
C1740 C 0.44447 0.03868 0.52761 0.0
C1741 C 0.41081 0.03383 0.52975 0.0
C1742 C 0.40982 0.05221 0.52445 0.0
C1743 C 0.42635 0.06374 0.52102 0.0
C1744 C 0.44339 0.05706 0.52249 0.0
C1745 C 0.39172 0.05952 0.52166 0.0
C1746 C 0.38772 0.06762 0.50419 0.0
C1747 C 0.37871 0.05908 0.53597 0.0
C1748 C 0.38225 0.05137 0.55502 0.0
C1749 C 0.39833 0.05864 0.56746 0.0
C1750 C 0.40162 0.05119 0.58534 0.0
C1751 C 0.38886 0.03655 0.591 0.0
C1752 C 0.37275 0.02938 0.57883 0.0
C1753 C 0.3694 0.03677 0.56092 0.0
H1754 H 0.39143 0.03079 0.60485 0.0
H1755 H 0.35965 0.10471 0.43209 0.0
H1756 H 0.68307 0.55601 0.30641 0.0
H1757 H 0.70378 0.58605 0.30514 0.0
H1758 H 0.65613 0.61301 0.29028 0.0
H1759 H 0.63537 0.58337 0.29201 0.0
H1760 H 0.6877 0.61714 0.26432 0.0
H1761 H 0.67299 0.62393 0.33181 0.0
H1762 H 0.6715 0.61401 0.36522 0.0
H1763 H 0.73084 0.61505 0.37068 0.0
H1764 H 0.73263 0.6247 0.33715 0.0
H1765 H 0.71289 0.71436 0.27126 0.0
H1766 H 0.69876 0.68256 0.27636 0.0
H1767 H 0.75191 0.67072 0.30025 0.0
H1768 H 0.76637 0.70288 0.29517 0.0
H1769 H 0.72194 0.65675 0.32154 0.0
H1770 H 0.73792 0.65262 0.25612 0.0
H1771 H 0.74049 0.662 0.22263 0.0
H1772 H 0.6808 0.65492 0.21273 0.0
H1773 H 0.67785 0.64562 0.24624 0.0
C1774 C 0.677 0.56839 0.30308 0.0
C1775 C 0.65756 0.56729 0.29936 0.0
C1776 C 0.68884 0.58551 0.30237 0.0
C1777 C 0.68144 0.60169 0.29757 0.0
C1778 C 0.66208 0.60066 0.294 0.0
C1779 C 0.65024 0.58372 0.2951 0.0
C1780 C 0.69379 0.61961 0.29554 0.0
C1781 C 0.69512 0.62586 0.27682 0.0
C1782 C 0.70398 0.6306 0.31179 0.0
C1783 C 0.70291 0.62476 0.33189 0.0
C1784 C 0.68569 0.62182 0.34005 0.0
C1785 C 0.68479 0.6163 0.35903 0.0
C1786 C 0.70105 0.61383 0.37004 0.0
C1787 C 0.71825 0.61692 0.36211 0.0
C1788 C 0.71921 0.62242 0.34313 0.0
C1789 C 0.72168 0.70509 0.27762 0.0
C1790 C 0.74085 0.71118 0.28264 0.0
C1791 C 0.71354 0.68685 0.2805 0.0
C1792 C 0.72432 0.67417 0.28841 0.0
C1793 C 0.74336 0.68027 0.29403 0.0
C1794 C 0.75159 0.69863 0.29109 0.0
C1795 C 0.71548 0.65452 0.29034 0.0
C1796 C 0.71478 0.64792 0.30898 0.0
C1797 C 0.70604 0.64303 0.27398 0.0
C1798 C 0.70767 0.64855 0.25376 0.0
C1799 C 0.72534 0.6532 0.24686 0.0
C1800 C 0.72687 0.65848 0.22786 0.0
C1801 C 0.71083 0.65914 0.21559 0.0
C1802 C 0.69322 0.65442 0.22226 0.0
C1803 C 0.69161 0.6491 0.24125 0.0
H1804 H 0.71205 0.66325 0.20089 0.0
H1805 H 0.70034 0.60957 0.38474 0.0
H1806 H 0.90545 0.45584 0.79969 0.0
H1807 H 0.88705 0.42436 0.79797 0.0
H1808 H 0.8363 0.44834 0.79082 0.0
H1809 H 0.85453 0.47988 0.79237 0.0
H1810 H 0.83493 0.41887 0.81689 0.0
H1811 H 0.85031 0.43125 0.75204 0.0
H1812 H 0.87138 0.44089 0.72699 0.0
H1813 H 0.902 0.39566 0.73839 0.0
H1814 H 0.88127 0.38593 0.76375 0.0
H1815 H 0.7764 0.33255 0.77743 0.0
H1816 H 0.79215 0.36513 0.78499 0.0
H1817 H 0.8456 0.3461 0.7835 0.0
H1818 H 0.83003 0.3138 0.77556 0.0
H1819 H 0.84409 0.37416 0.76147 0.0
H1820 H 0.82892 0.36178 0.8266 0.0
H1821 H 0.80801 0.35228 0.85184 0.0
H1822 H 0.77707 0.3972 0.84012 0.0
H1823 H 0.79765 0.40682 0.81461 0.0
C1824 C 0.89037 0.45446 0.79797 0.0
C1825 C 0.88146 0.47035 0.79598 0.0
C1826 C 0.8799 0.43647 0.79697 0.0
C1827 C 0.86035 0.43408 0.79413 0.0
C1828 C 0.85137 0.44994 0.79301 0.0
C1829 C 0.86183 0.46791 0.79378 0.0
C1830 C 0.8494 0.41493 0.79115 0.0
C1831 C 0.83674 0.40911 0.80468 0.0
C1832 C 0.85195 0.40224 0.7753 0.0
C1833 C 0.86436 0.40798 0.75995 0.0
C1834 C 0.86163 0.42346 0.74933 0.0
C1835 C 0.8735 0.42893 0.73505 0.0
C1836 C 0.88805 0.41893 0.73114 0.0
C1837 C 0.89073 0.40341 0.74146 0.0
C1838 C 0.87893 0.3979 0.75578 0.0
C1839 C 0.7915 0.33533 0.77907 0.0
C1840 C 0.802 0.3207 0.77579 0.0
C1841 C 0.80049 0.35393 0.78339 0.0
C1842 C 0.82007 0.35806 0.78478 0.0
C1843 C 0.8305 0.34328 0.78234 0.0
C1844 C 0.82157 0.32482 0.77785 0.0
C1845 C 0.82987 0.37778 0.7875 0.0
C1846 C 0.84225 0.38382 0.77376 0.0
C1847 C 0.82704 0.39061 0.80317 0.0
C1848 C 0.81471 0.3849 0.81856 0.0
C1849 C 0.81756 0.36954 0.8293 0.0
C1850 C 0.80579 0.36415 0.84367 0.0
C1851 C 0.79119 0.37409 0.84754 0.0
C1852 C 0.78837 0.38949 0.83708 0.0
C1853 C 0.80009 0.39493 0.82268 0.0
H1854 H 0.78208 0.3699 0.85868 0.0
H1855 H 0.89723 0.42318 0.72009 0.0
H1856 H 0.01625 0.83741 0.15875 0.0
H1857 H 0.01582 0.86709 0.14364 0.0
H1858 H 0.01422 0.83754 0.08659 0.0
H1859 H 0.01537 0.80804 0.10164 0.0
H1860 H 0.03696 0.86905 0.08809 0.0
H1861 H 0.97445 0.85168 0.10566 0.0
H1862 H 0.95057 0.84239 0.12814 0.0
H1863 H 0.96799 0.89437 0.16379 0.0
H1864 H 0.99215 0.90386 0.14169 0.0
H1865 H 0.01607 0.94637 0.03698 0.0
H1866 H 0.01156 0.91504 0.04921 0.0
H1867 H 0.01622 0.94062 0.10833 0.0
H1868 H 0.02033 0.97178 0.09629 0.0
H1869 H 0.99009 0.91008 0.10391 0.0
H1870 H 0.05378 0.92626 0.08795 0.0
H1871 H 0.07853 0.93533 0.06635 0.0
H1872 H 0.05903 0.8854 0.02806 0.0
H1873 H 0.03398 0.87618 0.04928 0.0
C1874 C 0.01592 0.8373 0.143 0.0
C1875 C 0.01579 0.82043 0.13137 0.0
C1876 C 0.01553 0.85423 0.13436 0.0
C1877 C 0.01459 0.8545 0.11393 0.0
C1878 C 0.01486 0.83769 0.10236 0.0
C1879 C 0.01552 0.82083 0.11099 0.0
C1880 C 0.01344 0.87227 0.10456 0.0
C1881 C 0.0265 0.87785 0.09131 0.0
C1882 C 0.99999 0.88394 0.10899 0.0
C1883 C 0.98521 0.87842 0.12209 0.0
C1884 C 0.97325 0.86109 0.11835 0.0
C1885 C 0.95966 0.85579 0.13102 0.0
C1886 C 0.95779 0.86776 0.14741 0.0
C1887 C 0.96946 0.8851 0.15111 0.0
C1888 C 0.98309 0.89046 0.1385 0.0
C1889 C 0.01582 0.94529 0.05255 0.0
C1890 C 0.01878 0.96155 0.06568 0.0
C1891 C 0.01333 0.9274 0.05953 0.0
C1892 C 0.01388 0.92551 0.07972 0.0
C1893 C 0.01581 0.94172 0.09272 0.0
C1894 C 0.01825 0.95955 0.08578 0.0
C1895 C 0.01366 0.90684 0.08755 0.0
C1896 C 1.00038 0.90113 0.10053 0.0
C1897 C 0.0269 0.89503 0.08289 0.0
C1898 C 0.0419 0.90063 0.07009 0.0
C1899 C 0.05467 0.9173 0.07483 0.0
C1900 C 0.06876 0.92245 0.06268 0.0
C1901 C 0.07033 0.91095 0.04584 0.0
C1902 C 0.05778 0.8943 0.0411 0.0
C1903 C 0.04364 0.8891 0.05318 0.0
H1904 H 0.08132 0.9149 0.03654 0.0
H1905 H 0.94728 0.86362 0.15721 0.0
H1906 H 0.95858 0.23558 0.85317 0.0
H1907 H 0.92963 0.23217 0.83168 0.0
H1908 H 0.90389 0.26138 0.87662 0.0
H1909 H 0.93237 0.26439 0.89821 0.0
H1910 H 0.88032 0.2327 0.86092 0.0
H1911 H 0.92143 0.28291 0.83643 0.0
H1912 H 0.9501 0.29718 0.82291 0.0
H1913 H 0.939 0.2563 0.77323 0.0
H1914 H 0.91036 0.24163 0.78661 0.0
H1915 H 0.80994 0.27445 0.81729 0.0
H1916 H 0.84016 0.26932 0.8315 0.0
H1917 H 0.84557 0.23139 0.78161 0.0
H1918 H 0.81489 0.23643 0.76706 0.0
H1919 H 0.87918 0.25802 0.79585 0.0
H1920 H 0.83385 0.21182 0.82018 0.0
H1921 H 0.80434 0.2016 0.8345 0.0
H1922 H 0.82309 0.23898 0.88588 0.0
H1923 H 0.85261 0.24962 0.87178 0.0
C1924 C 0.94673 0.24121 0.85848 0.0
C1925 C 0.94785 0.25025 0.87745 0.0
C1926 C 0.93019 0.23931 0.84615 0.0
C1927 C 0.91458 0.24664 0.85246 0.0
C1928 C 0.91568 0.25551 0.87142 0.0
C1929 C 0.93206 0.25727 0.88376 0.0
C1930 C 0.89704 0.24542 0.83948 0.0
C1931 C 0.88013 0.23823 0.8467 0.0
C1932 C 0.89671 0.25223 0.82069 0.0
C1933 C 0.9139 0.26102 0.81264 0.0
C1934 C 0.92519 0.27687 0.82271 0.0
C1935 C 0.94142 0.28505 0.81505 0.0
C1936 C 0.94641 0.27761 0.79725 0.0
C1937 C 0.93514 0.26201 0.78704 0.0
C1938 C 0.91891 0.25376 0.79465 0.0
C1939 C 0.81743 0.26495 0.80926 0.0
C1940 C 0.80981 0.25556 0.79117 0.0
C1941 C 0.83478 0.26209 0.81741 0.0
C1942 C 0.84494 0.24974 0.80777 0.0
C1943 C 0.83784 0.2409 0.78932 0.0
C1944 C 0.82034 0.24376 0.78107 0.0
C1945 C 0.86262 0.24584 0.81763 0.0
C1946 C 0.87949 0.25203 0.80985 0.0
C1947 C 0.86294 0.23844 0.83609 0.0
C1948 C 0.84545 0.23154 0.84489 0.0
C1949 C 0.83167 0.21789 0.83452 0.0
C1950 C 0.81493 0.21203 0.84259 0.0
C1951 C 0.81186 0.21964 0.86108 0.0
C1952 C 0.82552 0.23308 0.87157 0.0
C1953 C 0.84227 0.239 0.86356 0.0
H1954 H 0.79893 0.21512 0.86733 0.0
H1955 H 0.95897 0.28397 0.79135 0.0
H1956 H 0.49614 0.21144 0.6175 0.0
H1957 H 0.49545 0.17789 0.60793 0.0
H1958 H 0.55573 0.18599 0.61418 0.0
H1959 H 0.55627 0.21975 0.62214 0.0
H1960 H 0.54622 0.16492 0.58435 0.0
H1961 H 0.52542 0.16286 0.64827 0.0
H1962 H 0.50608 0.16972 0.675 0.0
H1963 H 0.45709 0.14107 0.64049 0.0
H1964 H 0.47609 0.13424 0.61346 0.0
H1965 H 0.51848 0.05645 0.59745 0.0
H1966 H 0.52489 0.08945 0.61051 0.0
H1967 H 0.51855 0.10677 0.55203 0.0
H1968 H 0.51293 0.07382 0.53888 0.0
H1969 H 0.50368 0.11449 0.61071 0.0
H1970 H 0.54223 0.14963 0.5484 0.0
H1971 H 0.56499 0.14242 0.52527 0.0
H1972 H 0.58503 0.10395 0.56355 0.0
H1973 H 0.5626 0.11112 0.58702 0.0
C1974 C 0.50917 0.20592 0.61693 0.0
C1975 C 0.52624 0.218 0.62056 0.0
C1976 C 0.50882 0.18674 0.6116 0.0
C1977 C 0.52555 0.17918 0.61062 0.0
C1978 C 0.54262 0.19135 0.61472 0.0
C1979 C 0.54295 0.21061 0.61938 0.0
C1980 C 0.52535 0.15882 0.60457 0.0
C1981 C 0.53697 0.15393 0.59024 0.0
C1982 C 0.51362 0.14429 0.61246 0.0
C1983 C 0.50217 0.14817 0.62878 0.0
C1984 C 0.5105 0.15811 0.64635 0.0
C1985 C 0.4996 0.16198 0.66155 0.0
C1986 C 0.48036 0.15587 0.65943 0.0
C1987 C 0.47199 0.14581 0.64212 0.0
C1988 C 0.48282 0.14191 0.62685 0.0
C1989 C 0.51886 0.06731 0.58735 0.0
C1990 C 0.51531 0.06254 0.56713 0.0
C1991 C 0.52239 0.08618 0.59485 0.0
C1992 C 0.52227 0.10068 0.58229 0.0
C1993 C 0.51909 0.09591 0.56203 0.0
C1994 C 0.51585 0.07704 0.55451 0.0
C1995 C 0.52442 0.12069 0.59042 0.0
C1996 C 0.51308 0.12551 0.60503 0.0
C1997 C 0.53695 0.13507 0.58338 0.0
C1998 C 0.5506 0.1308 0.56938 0.0
C1999 C 0.55155 0.13969 0.55192 0.0
C2000 C 0.56438 0.1356 0.53874 0.0
C2001 C 0.57641 0.12269 0.54291 0.0
C2002 C 0.57566 0.11389 0.5603 0.0
C2003 C 0.56287 0.11795 0.57353 0.0
H2004 H 0.58632 0.11954 0.53268 0.0
H2005 H 0.47194 0.15891 0.67121 0.0
H2006 H 0.57093 0.7682 0.37828 0.0
H2007 H 0.59748 0.76944 0.35846 0.0
H2008 H 0.5639 0.73189 0.31341 0.0
H2009 H 0.53708 0.73072 0.33311 0.0
H2010 H 0.60156 0.72367 0.32239 0.0
H2011 H 0.56968 0.77534 0.30598 0.0
H2012 H 0.55521 0.80359 0.31361 0.0
H2013 H 0.60741 0.83238 0.34169 0.0
H2014 H 0.62213 0.80419 0.33448 0.0
H2015 H 0.6672 0.7386 0.25239 0.0
H2016 H 0.63768 0.73656 0.26746 0.0
H2017 H 0.66167 0.78245 0.30989 0.0
H2018 H 0.69095 0.78497 0.29455 0.0
H2019 H 0.6271 0.78562 0.30036 0.0
H2020 H 0.65901 0.73527 0.31949 0.0
H2021 H 0.67473 0.70748 0.31405 0.0
H2022 H 0.6244 0.67656 0.28392 0.0
H2023 H 0.60846 0.70429 0.28889 0.0
C2024 C 0.5692 0.76004 0.36424 0.0
C2025 C 0.55187 0.74941 0.35723 0.0
C2026 C 0.58438 0.76082 0.35291 0.0
C2027 C 0.58259 0.75089 0.33441 0.0
C2028 C 0.56554 0.73968 0.32765 0.0
C2029 C 0.55024 0.73906 0.3389 0.0
C2030 C 0.59839 0.75287 0.32191 0.0
C2031 C 0.60698 0.73712 0.31727 0.0
C2032 C 0.60572 0.77055 0.3157 0.0
C2033 C 0.59696 0.7876 0.31983 0.0
C2034 C 0.57804 0.78765 0.31391 0.0
C2035 C 0.5698 0.80366 0.31814 0.0
C2036 C 0.58037 0.81975 0.32817 0.0
C2037 C 0.59923 0.81989 0.33394 0.0
C2038 C 0.60753 0.80391 0.32977 0.0
C2039 C 0.66609 0.74847 0.26472 0.0
C2040 C 0.6815 0.76185 0.27234 0.0
C2041 C 0.64923 0.7472 0.27343 0.0
C2042 C 0.64755 0.75905 0.29012 0.0
C2043 C 0.66261 0.77306 0.2971 0.0
C2044 C 0.67939 0.77449 0.28828 0.0
C2045 C 0.63048 0.75642 0.30088 0.0
C2046 C 0.62164 0.77209 0.30527 0.0
C2047 C 0.62313 0.73871 0.30714 0.0
C2048 C 0.6326 0.72193 0.30437 0.0
C2049 C 0.65133 0.72258 0.31159 0.0
C2050 C 0.66027 0.70684 0.3086 0.0
C2051 C 0.65058 0.69028 0.2986 0.0
C2052 C 0.6319 0.68941 0.29163 0.0
C2053 C 0.6229 0.70514 0.29453 0.0
H2054 H 0.65754 0.67811 0.29628 0.0
H2055 H 0.57397 0.83213 0.33144 0.0
H2056 H 0.02583 0.21352 0.40307 0.0
H2057 H 0.02527 0.18155 0.41331 0.0
H2058 H 0.00154 0.19789 0.46625 0.0
H2059 H 0.00229 0.22967 0.45642 0.0
H2060 H 0.02866 0.17808 0.47414 0.0
H2061 H 0.97476 0.17195 0.42758 0.0
H2062 H 0.95802 0.17443 0.39561 0.0
H2063 H 0.99117 0.1373 0.36802 0.0
H2064 H 0.00828 0.1348 0.39981 0.0
H2065 H 0.99733 0.08725 0.50487 0.0
H2066 H 0.9976 0.11881 0.49351 0.0
H2067 H 0.02359 0.10176 0.4423 0.0
H2068 H 0.02329 0.07039 0.45339 0.0
H2069 H 0.99577 0.1217 0.43317 0.0
H2070 H 0.04942 0.12758 0.47964 0.0
H2071 H 0.06616 0.12496 0.51157 0.0
H2072 H 0.03351 0.16254 0.53925 0.0
H2073 H 0.01638 0.16517 0.50751 0.0
C2074 C 0.02049 0.21029 0.41688 0.0
C2075 C 0.0141 0.22421 0.42888 0.0
C2076 C 0.02012 0.19201 0.42269 0.0
C2077 C 0.01323 0.18731 0.4405 0.0
C2078 C 0.00696 0.20119 0.45248 0.0
C2079 C 0.00737 0.21939 0.44676 0.0
C2080 C 0.01252 0.168 0.44688 0.0
C2081 C 0.02128 0.16578 0.46526 0.0
C2082 C 0.00323 0.1519 0.43515 0.0
C2083 C 0.99293 0.15335 0.41604 0.0
C2084 C 0.97858 0.16443 0.41467 0.0
C2085 C 0.96901 0.16582 0.39659 0.0
C2086 C 0.97356 0.15607 0.37979 0.0
C2087 C 0.98767 0.14487 0.38104 0.0
C2088 C 0.9973 0.14345 0.39909 0.0
C2089 C 0.00302 0.09023 0.49116 0.0
C2090 C 0.01037 0.07636 0.48009 0.0
C2091 C 0.00322 0.10826 0.48472 0.0
C2092 C 0.01076 0.11264 0.46713 0.0
C2093 C 0.01771 0.09868 0.4559 0.0
C2094 C 0.01759 0.08076 0.46234 0.0
C2095 C 0.01176 0.13184 0.46046 0.0
C2096 C 0.00312 0.13402 0.44203 0.0
C2097 C 0.02115 0.14791 0.47214 0.0
C2098 C 0.03148 0.14641 0.49123 0.0
C2099 C 0.0457 0.13516 0.49256 0.0
C2100 C 0.05528 0.1337 0.51062 0.0
C2101 C 0.05087 0.14354 0.52744 0.0
C2102 C 0.0369 0.1549 0.52622 0.0
C2103 C 0.02725 0.1564 0.5082 0.0
H2104 H 0.0583 0.14239 0.54141 0.0
H2105 H 0.96614 0.15716 0.3658 0.0
H2106 H 0.5466 0.25666 0.17837 0.0
H2107 H 0.57651 0.25395 0.19604 0.0
H2108 H 0.60406 0.26205 0.1434 0.0
H2109 H 0.57445 0.26464 0.12567 0.0
H2110 H 0.61446 0.23264 0.16138 0.0
H2111 H 0.60717 0.29733 0.18001 0.0
H2112 H 0.59108 0.32214 0.19442 0.0
H2113 H 0.59335 0.29782 0.24945 0.0
H2114 H 0.60925 0.27271 0.23528 0.0
H2115 H 0.70951 0.26322 0.1866 0.0
H2116 H 0.67639 0.25835 0.17586 0.0
H2117 H 0.66301 0.25213 0.23518 0.0
H2118 H 0.69642 0.25737 0.24617 0.0
H2119 H 0.64309 0.27615 0.21837 0.0
H2120 H 0.65452 0.21417 0.20112 0.0
H2121 H 0.67102 0.1896 0.18696 0.0
H2122 H 0.6609 0.20814 0.12985 0.0
H2123 H 0.64457 0.23301 0.14369 0.0
C2124 C 0.55904 0.25796 0.17057 0.0
C2125 C 0.55804 0.26085 0.15054 0.0
C2126 C 0.57613 0.25642 0.18072 0.0
C2127 C 0.59254 0.2578 0.17105 0.0
C2128 C 0.59158 0.26083 0.15115 0.0
C2129 C 0.57459 0.2624 0.14104 0.0
C2130 C 0.61081 0.25596 0.18137 0.0
C2131 C 0.62077 0.2422 0.17379 0.0
C2132 C 0.61874 0.26794 0.19803 0.0
C2133 C 0.60917 0.28302 0.20652 0.0
C2134 C 0.60408 0.29718 0.19514 0.0
C2135 C 0.59503 0.31131 0.20327 0.0
C2136 C 0.59114 0.31152 0.22282 0.0
C2137 C 0.59634 0.29762 0.23429 0.0
C2138 C 0.60538 0.28344 0.22622 0.0
C2139 C 0.69957 0.26054 0.19737 0.0
C2140 C 0.70562 0.26068 0.21725 0.0
C2141 C 0.68059 0.25766 0.19118 0.0
C2142 C 0.66715 0.25469 0.20466 0.0
C2143 C 0.67312 0.25433 0.2245 0.0
C2144 C 0.69221 0.2572 0.23074 0.0
C2145 C 0.64702 0.25323 0.19796 0.0
C2146 C 0.63668 0.26632 0.2062 0.0
C2147 C 0.63869 0.24058 0.18194 0.0
C2148 C 0.64839 0.22554 0.17348 0.0
C2149 C 0.65591 0.21309 0.18556 0.0
C2150 C 0.66522 0.1991 0.17758 0.0
C2151 C 0.66703 0.19733 0.15752 0.0
C2152 C 0.65949 0.20953 0.14538 0.0
C2153 C 0.65017 0.22356 0.15329 0.0
H2154 H 0.67425 0.18649 0.15137 0.0
H2155 H 0.58413 0.32248 0.22909 0.0
H2156 H 0.53467 0.83798 0.89205 0.0
H2157 H 0.53372 0.87008 0.90621 0.0
H2158 H 0.52493 0.84881 0.96224 0.0
H2159 H 0.52558 0.8169 0.94822 0.0
H2160 H 0.50139 0.87255 0.9538 0.0
H2161 H 0.56747 0.87188 0.95232 0.0
H2162 H 0.59614 0.86774 0.9367 0.0
H2163 H 0.58722 0.91122 0.89918 0.0
H2164 H 0.55833 0.91544 0.91442 0.0
H2165 H 0.5211 0.95559 0.01785 0.0
H2166 H 0.5238 0.9251 0.00101 0.0
H2167 H 0.52712 0.95061 0.94644 0.0
H2168 H 0.5243 0.98112 0.96312 0.0
H2169 H 0.55294 0.92568 0.95218 0.0
H2170 H 0.48731 0.92654 0.95348 0.0
H2171 H 0.45789 0.93005 0.9679 0.0
H2172 H 0.46585 0.88617 0.00521 0.0
H2173 H 0.49539 0.88246 0.99106 0.0
C2174 C 0.53257 0.8402 0.90738 0.0
C2175 C 0.53018 0.82495 0.91902 0.0
C2176 C 0.5321 0.85853 0.91547 0.0
C2177 C 0.52939 0.86184 0.93533 0.0
C2178 C 0.52701 0.84658 0.94689 0.0
C2179 C 0.52742 0.82834 0.93884 0.0
C2180 C 0.52861 0.88107 0.94417 0.0
C2181 C 0.51277 0.8841 0.95364 0.0
C2182 C 0.54322 0.89628 0.94346 0.0
C2183 C 0.56063 0.89382 0.93436 0.0
C2184 C 0.57154 0.88045 0.94063 0.0
C2185 C 0.58785 0.87811 0.93187 0.0
C2186 C 0.59347 0.88917 0.91691 0.0
C2187 C 0.58283 0.90264 0.91074 0.0
C2188 C 0.56649 0.90502 0.91944 0.0
C2189 C 0.52259 0.95475 0.00231 0.0
C2190 C 0.52238 0.97071 0.99178 0.0
C2191 C 0.52404 0.93732 0.9927 0.0
C2192 C 0.52547 0.93561 0.97246 0.0
C2193 C 0.52597 0.95166 0.96205 0.0
C2194 C 0.5243 0.96903 0.97159 0.0
C2195 C 0.5259 0.91696 0.9621 0.0
C2196 C 0.54159 0.9141 0.9523 0.0
C2197 C 0.51116 0.90186 0.96247 0.0
C2198 C 0.49365 0.90436 0.97135 0.0
C2199 C 0.48288 0.91778 0.9649 0.0
C2200 C 0.46615 0.91975 0.97297 0.0
C2201 C 0.46003 0.90836 0.98749 0.0
C2202 C 0.47062 0.89498 0.99397 0.0
C2203 C 0.48734 0.89291 0.9859 0.0
H2204 H 0.44705 0.90988 0.99369 0.0
H2205 H 0.6061 0.88734 0.91014 0.0
H2206 H 0.93594 0.75399 0.64054 0.0
H2207 H 0.9079 0.7553 0.65748 0.0
H2208 H 0.93896 0.75094 0.71238 0.0
H2209 H 0.96727 0.74945 0.69538 0.0
H2210 H 0.90319 0.72961 0.70884 0.0
H2211 H 0.93059 0.79313 0.7014 0.0
H2212 H 0.94445 0.81923 0.68331 0.0
H2213 H 0.89374 0.81411 0.64579 0.0
H2214 H 0.87966 0.78778 0.66347 0.0
H2215 H 0.82564 0.75435 0.75758 0.0
H2216 H 0.85793 0.75634 0.7488 0.0
H2217 H 0.83941 0.76311 0.68912 0.0
H2218 H 0.80739 0.76135 0.69778 0.0
H2219 H 0.87175 0.78546 0.70001 0.0
H2220 H 0.84555 0.7204 0.70425 0.0
H2221 H 0.83132 0.69322 0.7206 0.0
H2222 H 0.87913 0.7002 0.76252 0.0
H2223 H 0.89346 0.72775 0.74669 0.0
C2224 C 0.93683 0.7531 0.65619 0.0
C2225 C 0.95389 0.75178 0.66664 0.0
C2226 C 0.92078 0.75393 0.66587 0.0
C2227 C 0.92141 0.7536 0.68625 0.0
C2228 C 0.93819 0.75134 0.69666 0.0
C2229 C 0.95434 0.75048 0.68694 0.0
C2230 C 0.90464 0.75634 0.69649 0.0
C2231 C 0.8965 0.74199 0.70728 0.0
C2232 C 0.89577 0.77238 0.6942 0.0
C2233 C 0.90411 0.7884 0.6837 0.0
C2234 C 0.92243 0.7975 0.68922 0.0
C2235 C 0.93032 0.81234 0.67904 0.0
C2236 C 0.92 0.8183 0.66339 0.0
C2237 C 0.90173 0.80947 0.65792 0.0
C2238 C 0.89378 0.7946 0.66803 0.0
C2239 C 0.82856 0.7567 0.7427 0.0
C2240 C 0.81397 0.75761 0.72834 0.0
C2241 C 0.84697 0.75767 0.73767 0.0
C2242 C 0.85105 0.75958 0.71823 0.0
C2243 C 0.83663 0.76157 0.70419 0.0
C2244 C 0.8183 0.76053 0.70916 0.0
C2245 C 0.87003 0.75854 0.712 0.0
C2246 C 0.8786 0.77323 0.70193 0.0
C2247 C 0.87917 0.74275 0.71482 0.0
C2248 C 0.87048 0.72628 0.72443 0.0
C2249 C 0.85295 0.71627 0.71708 0.0
C2250 C 0.84488 0.70077 0.72623 0.0
C2251 C 0.85433 0.69498 0.74258 0.0
C2252 C 0.87183 0.70473 0.74987 0.0
C2253 C 0.87991 0.7203 0.74083 0.0
H2254 H 0.84816 0.68289 0.74955 0.0
H2255 H 0.92614 0.82979 0.65553 0.0
H2256 H 0.0979 0.01755 0.82678 0.0
H2257 H 0.08245 0.0168 0.85712 0.0
H2258 H 0.12485 0.98793 0.88287 0.0
H2259 H 0.14071 0.98907 0.85264 0.0
H2260 H 0.085 0.97124 0.88598 0.0
H2261 H 0.12838 0.02918 0.89868 0.0
H2262 H 0.14344 0.06047 0.89116 0.0
H2263 H 0.09055 0.08031 0.88925 0.0
H2264 H 0.07512 0.04902 0.89646 0.0
H2265 H 0.06935 0.01256 0.98975 0.0
H2266 H 0.08598 0.01148 0.96051 0.0
H2267 H 0.03525 0.98554 0.92656 0.0
H2268 H 0.01826 0.98667 0.956 0.0
H2269 H 0.08007 0.02909 0.92776 0.0
H2270 H 0.04817 0.95731 0.88858 0.0
H2271 H 0.03378 0.92573 0.8961 0.0
H2272 H 0.06542 0.9332 0.95202 0.0
H2273 H 0.08002 0.96486 0.94486 0.0
C2274 C 0.10404 0.0112 0.83896 0.0
C2275 C 0.12054 0.00342 0.83738 0.0
C2276 C 0.09517 0.01075 0.85625 0.0
C2277 C 0.10246 0.00223 0.87217 0.0
C2278 C 0.11898 0.99451 0.8707 0.0
C2279 C 0.12809 0.9953 0.85351 0.0
C2280 C 0.09271 0.00138 0.89028 0.0
C2281 C 0.08393 0.98387 0.89516 0.0
C2282 C 0.09132 0.01786 0.90218 0.0
C2283 C 0.10056 0.03669 0.89789 0.0
C2284 C 0.11993 0.04016 0.89646 0.0
C2285 C 0.12854 0.05791 0.89229 0.0
C2286 C 0.11795 0.07236 0.88967 0.0
C2287 C 0.09873 0.0691 0.89125 0.0
C2288 C 0.09005 0.05136 0.89539 0.0
C2289 C 0.06163 0.00652 0.97613 0.0
C2290 C 0.04238 0.99979 0.97525 0.0
C2291 C 0.07121 0.00596 0.95938 0.0
C2292 C 0.0619 0.99845 0.94134 0.0
C2293 C 0.04277 0.99126 0.94038 0.0
C2294 C 0.03307 0.99193 0.95721 0.0
C2295 C 0.07227 0.99891 0.92356 0.0
C2296 C 0.0811 0.01642 0.91863 0.0
C2297 C 0.07373 0.98242 0.91166 0.0
C2298 C 0.06504 0.96349 0.91624 0.0
C2299 C 0.05205 0.95221 0.90249 0.0
C2300 C 0.04384 0.93432 0.9067 0.0
C2301 C 0.04862 0.92752 0.92458 0.0
C2302 C 0.06164 0.93858 0.93827 0.0
C2303 C 0.06984 0.95651 0.93416 0.0
H2304 H 0.04228 0.91366 0.9278 0.0
H2305 H 0.12464 0.08609 0.88645 0.0
H2306 H 0.76874 0.32677 0.5458 0.0
H2307 H 0.7714 0.31765 0.57895 0.0
H2308 H 0.74578 0.36504 0.59892 0.0
H2309 H 0.74308 0.37453 0.56539 0.0
H2310 H 0.77638 0.35882 0.62415 0.0
H2311 H 0.71967 0.32386 0.59283 0.0
H2312 H 0.69969 0.30378 0.56656 0.0
H2313 H 0.73245 0.25945 0.57407 0.0
H2314 H 0.75281 0.27938 0.60021 0.0
H2315 H 0.75126 0.32166 0.7128 0.0
H2316 H 0.75139 0.33437 0.68104 0.0
H2317 H 0.77668 0.28781 0.65816 0.0
H2318 H 0.77662 0.27486 0.69016 0.0
H2319 H 0.74577 0.2945 0.63479 0.0
H2320 H 0.80239 0.32989 0.66665 0.0
H2321 H 0.8218 0.35014 0.69321 0.0
H2322 H 0.78842 0.39389 0.6852 0.0
H2323 H 0.76862 0.37379 0.65877 0.0
C2324 C 0.76366 0.33537 0.55715 0.0
C2325 C 0.75543 0.35128 0.55283 0.0
C2326 C 0.76522 0.3301 0.57613 0.0
C2327 C 0.75851 0.34047 0.59129 0.0
C2328 C 0.75096 0.3568 0.58733 0.0
C2329 C 0.74939 0.36217 0.5682 0.0
C2330 C 0.75889 0.33362 0.61101 0.0
C2331 C 0.76945 0.34489 0.6266 0.0
C2332 C 0.75015 0.31528 0.61401 0.0
C2333 C 0.73787 0.30319 0.59837 0.0
C2334 C 0.7227 0.30988 0.58878 0.0
C2335 C 0.71129 0.29852 0.57393 0.0
C2336 C 0.71482 0.28037 0.56862 0.0
C2337 C 0.72974 0.27353 0.57819 0.0
C2338 C 0.74122 0.28484 0.59304 0.0
C2339 C 0.75695 0.31411 0.70108 0.0
C2340 C 0.76391 0.29721 0.70397 0.0
C2341 C 0.75709 0.32148 0.68295 0.0
C2342 C 0.76418 0.31212 0.66734 0.0
C2343 C 0.77121 0.29526 0.67011 0.0
C2344 C 0.77121 0.28791 0.68836 0.0
C2345 C 0.76343 0.3196 0.64792 0.0
C2346 C 0.75271 0.30844 0.63238 0.0
C2347 C 0.77193 0.33807 0.64504 0.0
C2348 C 0.7839 0.35025 0.66084 0.0
C2349 C 0.79908 0.34377 0.67065 0.0
C2350 C 0.81018 0.35523 0.68567 0.0
C2351 C 0.80632 0.37327 0.69092 0.0
C2352 C 0.79138 0.37991 0.68113 0.0
C2353 C 0.78023 0.36849 0.66611 0.0
H2354 H 0.81492 0.38213 0.70255 0.0
H2355 H 0.70597 0.27159 0.55711 0.0
H2356 H 0.44398 0.04291 0.31821 0.0
H2357 H 0.46064 0.04416 0.35044 0.0
H2358 H 0.40821 0.0349 0.37629 0.0
H2359 H 0.39139 0.03438 0.3439 0.0
H2360 H 0.43329 0.05838 0.40007 0.0
H2361 H 0.43136 0.99848 0.36563 0.0
H2362 H 0.4349 0.97605 0.33789 0.0
H2363 H 0.49389 0.99554 0.3425 0.0
H2364 H 0.49065 0.01836 0.37007 0.0
H2365 H 0.4655 0.01589 0.48331 0.0
H2366 H 0.4502 0.02366 0.45307 0.0
H2367 H 0.50371 0.03782 0.43046 0.0
H2368 H 0.51932 0.02981 0.46091 0.0
H2369 H 0.47854 0.01333 0.40539 0.0
H2370 H 0.478 0.07161 0.44466 0.0
H2371 H 0.47126 0.09058 0.47378 0.0
H2372 H 0.41277 0.06985 0.46177 0.0
H2373 H 0.41918 0.05038 0.43289 0.0
C2374 C 0.436 0.04138 0.33079 0.0
C2375 C 0.41642 0.03831 0.3286 0.0
C2376 C 0.44553 0.04206 0.34919 0.0
C2377 C 0.43567 0.03918 0.36571 0.0
C2378 C 0.41609 0.03707 0.36371 0.0
C2379 C 0.4065 0.03672 0.34524 0.0
C2380 C 0.44588 0.03709 0.38468 0.0
C2381 C 0.44308 0.04844 0.4013 0.0
C2382 C 0.45867 0.02411 0.38625 0.0
C2383 C 0.46074 0.01028 0.36979 0.0
C2384 C 0.44507 0.99809 0.36064 0.0
C2385 C 0.44702 0.98529 0.34495 0.0
C2386 C 0.4646 0.9844 0.33841 0.0
C2387 C 0.48028 0.99627 0.34757 0.0
C2388 C 0.47839 0.00914 0.36323 0.0
C2389 C 0.47412 0.02081 0.47202 0.0
C2390 C 0.49367 0.02216 0.47449 0.0
C2391 C 0.4653 0.02538 0.45477 0.0
C2392 C 0.47581 0.03153 0.43962 0.0
C2393 C 0.49537 0.0332 0.44208 0.0
C2394 C 0.50426 0.02865 0.45945 0.0
C2395 C 0.4662 0.0348 0.42075 0.0
C2396 C 0.46898 0.02349 0.40413 0.0
C2397 C 0.45297 0.04737 0.41941 0.0
C2398 C 0.44911 0.05939 0.43665 0.0
C2399 C 0.46371 0.07097 0.4483 0.0
C2400 C 0.45995 0.0818 0.46479 0.0
C2401 C 0.4416 0.08136 0.46968 0.0
C2402 C 0.42698 0.07013 0.45804 0.0
C2403 C 0.43067 0.05919 0.4416 0.0
H2404 H 0.43872 0.08975 0.48245 0.0
H2405 H 0.46609 0.97449 0.32626 0.0
H2406 H 0.76805 0.63669 0.06184 0.0
H2407 H 0.76906 0.64671 0.09681 0.0
H2408 H 0.76554 0.7036 0.08303 0.0
H2409 H 0.7646 0.69385 0.04837 0.0
H2410 H 0.79099 0.7028 0.11399 0.0
H2411 H 0.72723 0.6749 0.09285 0.0
H2412 H 0.70254 0.64936 0.07844 0.0
H2413 H 0.71788 0.61372 0.1223 0.0
H2414 H 0.74286 0.63898 0.13682 0.0
H2415 H 0.76226 0.74531 0.19929 0.0
H2416 H 0.76128 0.73201 0.16541 0.0
H2417 H 0.76395 0.67698 0.18532 0.0
H2418 H 0.76487 0.69013 0.21912 0.0
H2419 H 0.74035 0.67493 0.15224 0.0
H2420 H 0.80264 0.70309 0.17485 0.0
H2421 H 0.82699 0.7286 0.18996 0.0
H2422 H 0.81516 0.76317 0.1438 0.0
H2423 H 0.7904 0.73803 0.12865 0.0
C2424 C 0.76769 0.65136 0.06629 0.0
C2425 C 0.76609 0.66442 0.05227 0.0
C2426 C 0.76818 0.65705 0.08626 0.0
C2427 C 0.76718 0.67588 0.09251 0.0
C2428 C 0.7663 0.68901 0.07857 0.0
C2429 C 0.76567 0.68335 0.05871 0.0
C2430 C 0.76637 0.68202 0.11345 0.0
C2431 C 0.77985 0.69679 0.12231 0.0
C2432 C 0.75208 0.6739 0.12445 0.0
C2433 C 0.73705 0.65874 0.11577 0.0
C2434 C 0.72544 0.66156 0.09932 0.0
C2435 C 0.71138 0.64714 0.09115 0.0
C2436 C 0.70869 0.6299 0.09941 0.0
C2437 C 0.72002 0.62706 0.11589 0.0
C2438 C 0.73412 0.64142 0.1241 0.0
C2439 C 0.76228 0.73033 0.19643 0.0
C2440 C 0.76379 0.7188 0.21189 0.0
C2441 C 0.76184 0.72276 0.17708 0.0
C2442 C 0.76289 0.70356 0.17288 0.0
C2443 C 0.76323 0.69183 0.18822 0.0
C2444 C 0.76378 0.6994 0.20754 0.0
C2445 C 0.76476 0.69593 0.15264 0.0
C2446 C 0.75155 0.68086 0.14395 0.0
C2447 C 0.77938 0.7037 0.14182 0.0
C2448 C 0.79453 0.71872 0.1507 0.0
C2449 C 0.80513 0.71618 0.16799 0.0
C2450 C 0.81902 0.73057 0.17656 0.0
C2451 C 0.82262 0.7475 0.16785 0.0
C2452 C 0.81235 0.75005 0.15054 0.0
C2453 C 0.79837 0.73574 0.14195 0.0
H2454 H 0.83338 0.75862 0.17448 0.0
H2455 H 0.69779 0.61876 0.09307 0.0
H2456 H 0.13572 0.00375 0.72437 0.0
H2457 H 0.12612 0.00252 0.68929 0.0
H2458 H 0.0692 0.00381 0.70209 0.0
H2459 H 0.07855 0.00497 0.73688 0.0
H2460 H 0.07144 0.97835 0.67132 0.0
H2461 H 0.09615 0.04336 0.69255 0.0
H2462 H 0.1203 0.06922 0.70737 0.0
H2463 H 0.15716 0.05567 0.66448 0.0
H2464 H 0.1333 0.02954 0.64957 0.0
H2465 H 0.02973 0.00534 0.58415 0.0
H2466 H 0.04188 0.006 0.61836 0.0
H2467 H 0.09768 0.00757 0.60073 0.0
H2468 H 0.0857 0.00711 0.56658 0.0
H2469 H 0.09768 0.03033 0.63329 0.0
H2470 H 0.07278 0.96665 0.61071 0.0
H2471 H 0.04936 0.94007 0.59612 0.0
H2472 H 0.0137 0.94992 0.64138 0.0
H2473 H 0.03675 0.97683 0.65608 0.0
C2474 C 0.12114 0.00354 0.71968 0.0
C2475 C 0.10794 0.0046 0.73345 0.0
C2476 C 0.11569 0.00295 0.69965 0.0
C2477 C 0.09697 0.00328 0.69311 0.0
C2478 C 0.08371 0.00358 0.7068 0.0
C2479 C 0.08913 0.00432 0.72672 0.0
C2480 C 0.09106 0.00394 0.6721 0.0
C2481 C 0.07705 0.98979 0.66303 0.0
C2482 C 0.09871 0.01863 0.66117 0.0
C2483 C 0.11303 0.03436 0.67009 0.0
C2484 C 0.10947 0.04579 0.68638 0.0
C2485 C 0.12309 0.06052 0.69478 0.0
C2486 C 0.14028 0.06405 0.68691 0.0
C2487 C 0.14385 0.0529 0.67059 0.0
C2488 C 0.13029 0.03813 0.66215 0.0
C2489 C 0.04462 0.00617 0.58758 0.0
C2490 C 0.05673 0.00601 0.57263 0.0
C2491 C 0.05153 0.00637 0.60712 0.0
C2492 C 0.07064 0.00642 0.61206 0.0
C2493 C 0.08287 0.00737 0.59726 0.0
C2494 C 0.07598 0.00709 0.57773 0.0
C2495 C 0.07783 0.00488 0.63255 0.0
C2496 C 0.0921 0.01882 0.64151 0.0
C2497 C 0.07047 0.98993 0.64336 0.0
C2498 C 0.05642 0.97393 0.63437 0.0
C2499 C 0.05985 0.9633 0.61744 0.0
C2500 C 0.04665 0.94815 0.60916 0.0
C2501 C 0.03002 0.94335 0.61777 0.0
C2502 C 0.02656 0.95369 0.63469 0.0
C2503 C 0.03969 0.9689 0.643 0.0
H2504 H 0.01983 0.9316 0.61135 0.0
H2505 H 0.1508 0.07546 0.69343 0.0
H2506 H 0.73684 0.38361 0.43738 0.0
H2507 H 0.73843 0.36704 0.40526 0.0
H2508 H 0.72689 0.31364 0.43002 0.0
H2509 H 0.72583 0.33003 0.462 0.0
H2510 H 0.75574 0.31398 0.40946 0.0
H2511 H 0.69339 0.33008 0.39796 0.0
H2512 H 0.67005 0.35169 0.39646 0.0
H2513 H 0.70124 0.38357 0.35628 0.0
H2514 H 0.72491 0.36233 0.35784 0.0
H2515 H 0.74412 0.25489 0.32063 0.0
H2516 H 0.73719 0.27078 0.35139 0.0
H2517 H 0.75041 0.32473 0.3282 0.0
H2518 H 0.75704 0.30914 0.29763 0.0
H2519 H 0.72016 0.32379 0.34778 0.0
H2520 H 0.78193 0.3087 0.35826 0.0
H2521 H 0.80586 0.28776 0.35863 0.0
H2522 H 0.77746 0.25558 0.40049 0.0
H2523 H 0.75318 0.27618 0.40013 0.0
C2524 C 0.73439 0.36835 0.43584 0.0
C2525 C 0.73129 0.35809 0.45214 0.0
C2526 C 0.73525 0.35889 0.41751 0.0
C2527 C 0.73271 0.33907 0.41522 0.0
C2528 C 0.729 0.32891 0.43143 0.0
C2529 C 0.72835 0.33831 0.44969 0.0
C2530 C 0.73493 0.32877 0.39632 0.0
C2531 C 0.74772 0.31592 0.39603 0.0
C2532 C 0.72495 0.33171 0.37868 0.0
C2533 C 0.71091 0.34465 0.37803 0.0
C2534 C 0.69532 0.34178 0.38892 0.0
C2535 C 0.68204 0.35395 0.38806 0.0
C2536 C 0.68417 0.369 0.3763 0.0
C2537 C 0.69961 0.37193 0.36541 0.0
C2538 C 0.71296 0.35983 0.36627 0.0
C2539 C 0.74539 0.27011 0.32208 0.0
C2540 C 0.75131 0.28074 0.30679 0.0
C2541 C 0.7415 0.27917 0.33964 0.0
C2542 C 0.74348 0.29895 0.34211 0.0
C2543 C 0.74879 0.30948 0.32662 0.0
C2544 C 0.7527 0.3005 0.30918 0.0
C2545 C 0.74074 0.3089 0.361 0.0
C2546 C 0.728 0.32176 0.36126 0.0
C2547 C 0.75093 0.30614 0.37858 0.0
C2548 C 0.76562 0.29385 0.379 0.0
C2549 C 0.7807 0.29707 0.36743 0.0
C2550 C 0.79434 0.28527 0.36765 0.0
C2551 C 0.79315 0.27031 0.37953 0.0
C2552 C 0.77834 0.26715 0.39126 0.0
C2553 C 0.76464 0.27889 0.39106 0.0
H2554 H 0.80371 0.26119 0.37967 0.0
H2555 H 0.67384 0.37838 0.37561 0.0
H2556 H 0.4392 0.98642 0.23637 0.0
H2557 H 0.447 0.98074 0.203 0.0
H2558 H 0.40577 0.01383 0.18269 0.0
H2559 H 0.39762 0.01955 0.21631 0.0
H2560 H 0.4078 0.98116 0.15717 0.0
H2561 H 0.44853 0.03478 0.19026 0.0
H2562 H 0.47019 0.05173 0.21722 0.0
H2563 H 0.50814 0.01212 0.20864 0.0
H2564 H 0.48656 0.99475 0.18179 0.0
H2565 H 0.44605 0.01184 0.07139 0.0
H2566 H 0.43259 0.00715 0.10223 0.0
H2567 H 0.47804 0.97861 0.12128 0.0
H2568 H 0.49183 0.98348 0.09031 0.0
H2569 H 0.47336 0.00653 0.14739 0.0
H2570 H 0.43384 0.95464 0.11169 0.0
H2571 H 0.41224 0.93812 0.08446 0.0
H2572 H 0.37208 0.9744 0.09712 0.0
H2573 H 0.39355 0.99135 0.12426 0.0
C2574 C 0.43162 0.99243 0.22486 0.0
C2575 C 0.41799 0.00375 0.22908 0.0
C2576 C 0.43608 0.98907 0.20576 0.0
C2577 C 0.42715 0.99708 0.19046 0.0
C2578 C 0.41282 0.00755 0.19436 0.0
C2579 C 0.40826 0.01087 0.21356 0.0
C2580 C 0.43404 0.99583 0.17084 0.0
C2581 C 0.42206 0.98685 0.1549 0.0
C2582 C 0.45278 0.00287 0.1681 0.0
C2583 C 0.46584 0.01336 0.18415 0.0
C2584 C 0.46142 0.0296 0.19422 0.0
C2585 C 0.47369 0.03929 0.20947 0.0
C2586 C 0.4905 0.03298 0.21468 0.0
C2587 C 0.4951 0.01697 0.20461 0.0
C2588 C 0.48286 0.00721 0.18937 0.0
C2589 C 0.45312 0.00436 0.08202 0.0
C2590 C 0.47012 0.99819 0.07851 0.0
C2591 C 0.44528 0.00153 0.09959 0.0
C2592 C 0.45422 0.99239 0.11398 0.0
C2593 C 0.47089 0.98564 0.11029 0.0
C2594 C 0.47875 0.98842 0.09263 0.0
C2595 C 0.44717 0.9918 0.13355 0.0
C2596 C 0.45914 0.00059 0.14956 0.0
C2597 C 0.42842 0.98461 0.13624 0.0
C2598 C 0.4154 0.97438 0.11996 0.0
C2599 C 0.42047 0.95921 0.10859 0.0
C2600 C 0.40823 0.94974 0.09318 0.0
C2601 C 0.39082 0.95523 0.08903 0.0
C2602 C 0.38558 0.97017 0.10034 0.0
C2603 C 0.39777 0.9797 0.11576 0.0
H2604 H 0.38137 0.94788 0.07709 0.0
H2605 H 0.49999 0.0405 0.22648 0.0
H2606 H 0.76756 0.62687 0.93018 0.0
H2607 H 0.76679 0.6425 0.89967 0.0
H2608 H 0.77197 0.69647 0.93292 0.0
H2609 H 0.772 0.68097 0.96309 0.0
H2610 H 0.74728 0.69563 0.90425 0.0
H2611 H 0.80935 0.67844 0.90992 0.0
H2612 H 0.83239 0.6566 0.91235 0.0
H2613 H 0.80851 0.6268 0.85788 0.0
H2614 H 0.78519 0.64833 0.85525 0.0
H2615 H 0.77317 0.7574 0.83158 0.0
H2616 H 0.77438 0.7397 0.86068 0.0
H2617 H 0.7634 0.68743 0.82403 0.0
H2618 H 0.76221 0.70489 0.79507 0.0
H2619 H 0.79017 0.68615 0.85311 0.0
H2620 H 0.72869 0.70263 0.84692 0.0
H2621 H 0.70476 0.72347 0.84402 0.0
H2622 H 0.72696 0.75374 0.8988 0.0
H2623 H 0.75113 0.73318 0.90194 0.0
C2624 C 0.76849 0.64205 0.93091 0.0
C2625 C 0.76982 0.65266 0.94905 0.0
C2626 C 0.76818 0.65101 0.91347 0.0
C2627 C 0.76956 0.67076 0.91391 0.0
C2628 C 0.77084 0.68126 0.93208 0.0
C2629 C 0.77089 0.67234 0.94938 0.0
C2630 C 0.76938 0.68073 0.89565 0.0
C2631 C 0.75687 0.6937 0.89324 0.0
C2632 C 0.78142 0.67786 0.88084 0.0
C2633 C 0.79539 0.66487 0.88251 0.0
C2634 C 0.80892 0.66713 0.89855 0.0
C2635 C 0.82205 0.65483 0.89994 0.0
C2636 C 0.82189 0.64029 0.8853 0.0
C2637 C 0.80861 0.63805 0.86922 0.0
C2638 C 0.79544 0.6503 0.86777 0.0
C2639 C 0.77119 0.74215 0.82974 0.0
C2640 C 0.76747 0.73258 0.81102 0.0
C2641 C 0.77177 0.73204 0.84637 0.0
C2642 C 0.76877 0.71221 0.84455 0.0
C2643 C 0.76571 0.70269 0.82583 0.0
C2644 C 0.76496 0.71274 0.80928 0.0
C2645 C 0.76842 0.70129 0.86208 0.0
C2646 C 0.78068 0.68809 0.86424 0.0
C2647 C 0.75612 0.70386 0.87663 0.0
C2648 C 0.74183 0.71648 0.87457 0.0
C2649 C 0.72858 0.71385 0.85825 0.0
C2650 C 0.71495 0.72558 0.85659 0.0
C2651 C 0.71437 0.73993 0.87122 0.0
C2652 C 0.72744 0.74262 0.88749 0.0
C2653 C 0.74109 0.73092 0.88923 0.0
H2654 H 0.70376 0.74894 0.87 0.0
H2655 H 0.83208 0.63079 0.8864 0.0
H2656 H 0.80136 0.07114 0.01587 0.0
H2657 H 0.82588 0.0517 0.01033 0.0
H2658 H 0.86588 0.10211 0.00899 0.0
H2659 H 0.84159 0.12136 0.01403 0.0
H2660 H 0.86849 0.07848 0.97893 0.0
H2661 H 0.86425 0.07441 0.04848 0.0
H2662 H 0.84834 0.0665 0.07782 0.0
H2663 H 0.83517 0.00858 0.05487 0.0
H2664 H 0.85082 0.01621 0.02527 0.0
H2665 H 0.95842 0.0637 0.00657 0.0
H2666 H 0.92682 0.07114 0.00398 0.0
H2667 H 0.90477 0.01209 0.99211 0.0
H2668 H 0.93681 0.00447 0.99457 0.0
H2669 H 0.88833 0.03227 0.02297 0.0
H2670 H 0.90005 0.03733 0.95625 0.0
H2671 H 0.91917 0.04702 0.92963 0.0
H2672 H 0.92059 0.10519 0.94942 0.0
H2673 H 0.90173 0.09586 0.97635 0.0
C2674 C 0.81546 0.07801 0.01466 0.0
C2675 C 0.81955 0.09776 0.01529 0.0
C2676 C 0.82944 0.0669 0.01145 0.0
C2677 C 0.84772 0.07544 0.0091 0.0
C2678 C 0.85185 0.09517 0.01049 0.0
C2679 C 0.83795 0.10618 0.01348 0.0
C2680 C 0.86271 0.06419 0.00471 0.0
C2681 C 0.87278 0.06835 0.98855 0.0
C2682 C 0.86797 0.05048 0.01685 0.0
C2683 C 0.85845 0.04593 0.03455 0.0
C2684 C 0.8578 0.06003 0.04961 0.0
C2685 C 0.84887 0.05559 0.0663 0.0
C2686 C 0.84069 0.03707 0.06817 0.0
C2687 C 0.84147 0.02293 0.05337 0.0
C2688 C 0.85037 0.0273 0.03664 0.0
C2689 C 0.94688 0.05228 0.00312 0.0
C2690 C 0.95002 0.03351 0.00074 0.0
C2691 C 0.92883 0.05656 0.00162 0.0
C2692 C 0.91348 0.04218 0.9978 0.0
C2693 C 0.91649 0.02337 0.99501 0.0
C2694 C 0.93472 0.01906 0.99626 0.0
C2695 C 0.89447 0.04724 0.99774 0.0
C2696 C 0.88364 0.04194 0.01301 0.0
C2697 C 0.88865 0.06014 0.98497 0.0
C2698 C 0.89947 0.06587 0.96836 0.0
C2699 C 0.90447 0.05219 0.95496 0.0
C2700 C 0.91528 0.05762 0.93982 0.0
C2701 C 0.9211 0.07671 0.93784 0.0
C2702 C 0.91605 0.09041 0.95095 0.0
C2703 C 0.90527 0.08505 0.96614 0.0
H2704 H 0.92952 0.08088 0.92614 0.0
H2705 H 0.83379 0.03366 0.08111 0.0
H2706 H 0.30944 0.43345 0.02885 0.0
H2707 H 0.33889 0.45536 0.0301 0.0
H2708 H 0.36932 0.41142 0.0476 0.0
H2709 H 0.34013 0.38944 0.04601 0.0
H2710 H 0.3827 0.44817 0.06791 0.0
H2711 H 0.3657 0.41704 0.00257 0.0
H2712 H 0.34404 0.40837 0.97295 0.0
H2713 H 0.34471 0.46687 0.96413 0.0
H2714 H 0.36606 0.47589 0.99402 0.0
H2715 H 0.46739 0.46635 0.00918 0.0
H2716 H 0.43509 0.45314 0.01244 0.0
H2717 H 0.42906 0.50172 0.05048 0.0
H2718 H 0.46162 0.51524 0.0472 0.0
H2719 H 0.40182 0.46642 0.00349 0.0
H2720 H 0.39914 0.48279 0.08592 0.0
H2721 H 0.42068 0.49067 0.1158 0.0
H2722 H 0.46046 0.46034 0.08986 0.0
H2723 H 0.43895 0.45169 0.0602 0.0
C2724 C 0.32239 0.42858 0.03331 0.0
C2725 C 0.32249 0.40969 0.03721 0.0
C2726 C 0.33918 0.44109 0.03399 0.0
C2727 C 0.35628 0.43499 0.03891 0.0
C2728 C 0.35629 0.41644 0.04385 0.0
C2729 C 0.3396 0.40387 0.04282 0.0
C2730 C 0.37432 0.44718 0.03717 0.0
C2731 C 0.3868 0.45241 0.05389 0.0
C2732 C 0.37972 0.45255 0.01885 0.0
C2733 C 0.36727 0.44714 0.00065 0.0
C2734 C 0.36111 0.42805 0.9944 0.0
C2735 C 0.3489 0.42307 0.97755 0.0
C2736 C 0.34296 0.43706 0.96668 0.0
C2737 C 0.34929 0.45605 0.97259 0.0
C2738 C 0.36143 0.46111 0.98949 0.0
C2739 C 0.45926 0.47431 0.01825 0.0
C2740 C 0.46719 0.49183 0.02805 0.0
C2741 C 0.44071 0.46676 0.01997 0.0
C2742 C 0.42964 0.4764 0.03171 0.0
C2743 C 0.43738 0.494 0.04139 0.0
C2744 C 0.45598 0.5017 0.03951 0.0
C2745 C 0.4103 0.46742 0.03425 0.0
C2746 C 0.39758 0.46267 0.01763 0.0
C2747 C 0.40473 0.46243 0.05266 0.0
C2748 C 0.41754 0.46686 0.07073 0.0
C2749 C 0.41244 0.47769 0.08667 0.0
C2750 C 0.42463 0.48223 0.1036 0.0
C2751 C 0.44195 0.476 0.10474 0.0
C2752 C 0.44704 0.46509 0.08902 0.0
C2753 C 0.43484 0.46035 0.07214 0.0
H2754 H 0.45142 0.47962 0.11781 0.0
H2755 H 0.33347 0.43319 0.95367 0.0
H2756 H 0.33823 0.54268 0.73594 0.0
H2757 H 0.32258 0.57058 0.73745 0.0
H2758 H 0.37076 0.60229 0.77151 0.0
H2759 H 0.38662 0.57471 0.76956 0.0
H2760 H 0.31139 0.59051 0.76629 0.0
H2761 H 0.37582 0.64797 0.7632 0.0
H2762 H 0.40592 0.65186 0.74856 0.0
H2763 H 0.38388 0.60822 0.70345 0.0
H2764 H 0.35359 0.60424 0.71766 0.0
H2765 H 0.28854 0.68205 0.79438 0.0
H2766 H 0.30165 0.65248 0.79149 0.0
H2767 H 0.3131 0.66206 0.73219 0.0
H2768 H 0.3008 0.69166 0.73529 0.0
H2769 H 0.34191 0.65258 0.749 0.0
H2770 H 0.27688 0.6274 0.74477 0.0
H2771 H 0.24502 0.62278 0.75536 0.0
H2772 H 0.265 0.60058 0.80776 0.0
H2773 H 0.29703 0.60529 0.79759 0.0
C2774 C 0.34557 0.55567 0.74354 0.0
C2775 C 0.36374 0.5565 0.75247 0.0
C2776 C 0.33655 0.57158 0.74452 0.0
C2777 C 0.3455 0.58865 0.75447 0.0
C2778 C 0.36364 0.58945 0.76343 0.0
C2779 C 0.37271 0.57362 0.76232 0.0
C2780 C 0.33588 0.60559 0.7556 0.0
C2781 C 0.31806 0.60408 0.76248 0.0
C2782 C 0.34438 0.6233 0.75038 0.0
C2783 C 0.36251 0.62568 0.74163 0.0
C2784 C 0.37739 0.63925 0.75012 0.0
C2785 C 0.39448 0.64146 0.7419 0.0
C2786 C 0.39683 0.63025 0.72513 0.0
C2787 C 0.38207 0.61684 0.71649 0.0
C2788 C 0.36494 0.61458 0.72463 0.0
C2789 C 0.29368 0.67768 0.7807 0.0
C2790 C 0.29375 0.68922 0.76512 0.0
C2791 C 0.30114 0.66076 0.77902 0.0
C2792 C 0.3084 0.65493 0.76158 0.0
C2793 C 0.30782 0.66624 0.74587 0.0
C2794 C 0.3007 0.68318 0.74765 0.0
C2795 C 0.31739 0.63758 0.75973 0.0
C2796 C 0.33519 0.63903 0.75281 0.0
C2797 C 0.30861 0.61975 0.76437 0.0
C2798 C 0.28938 0.61688 0.77051 0.0
C2799 C 0.2745 0.62167 0.75862 0.0
C2800 C 0.25641 0.61901 0.76454 0.0
C2801 C 0.253 0.61144 0.78225 0.0
C2802 C 0.26767 0.60647 0.79406 0.0
C2803 C 0.28579 0.60911 0.78822 0.0
H2804 H 0.23898 0.60939 0.7868 0.0
H2805 H 0.41007 0.63197 0.71879 0.0
H2806 H 0.19833 0.63635 0.50836 0.0
H2807 H 0.16816 0.61858 0.51295 0.0
H2808 H 0.1951 0.57504 0.53741 0.0
H2809 H 0.22572 0.59277 0.53258 0.0
H2810 H 0.16449 0.56029 0.51243 0.0
H2811 H 0.17703 0.60509 0.56774 0.0
H2812 H 0.18678 0.63633 0.58567 0.0
H2813 H 0.14199 0.65768 0.55477 0.0
H2814 H 0.13207 0.62665 0.53646 0.0
H2815 H 0.06946 0.5239 0.52828 0.0
H2816 H 0.10307 0.53461 0.53582 0.0
H2817 H 0.09665 0.58853 0.5149 0.0
H2818 H 0.06336 0.57828 0.50807 0.0
H2819 H 0.11951 0.59365 0.54636 0.0
H2820 H 0.11239 0.55017 0.48613 0.0
H2821 H 0.10314 0.51875 0.46824 0.0
H2822 H 0.13772 0.49473 0.50973 0.0
H2823 H 0.14725 0.52597 0.52782 0.0
C2824 C 0.19797 0.62301 0.51473 0.0
C2825 C 0.21454 0.61611 0.52028 0.0
C2826 C 0.18065 0.61288 0.51742 0.0
C2827 C 0.17937 0.59568 0.52593 0.0
C2828 C 0.19579 0.58837 0.53097 0.0
C2829 C 0.21326 0.59852 0.5282 0.0
C2830 C 0.16072 0.5856 0.52934 0.0
C2831 C 0.15475 0.56742 0.52019 0.0
C2832 C 0.14802 0.59484 0.53955 0.0
C2833 C 0.15384 0.61352 0.55067 0.0
C2834 C 0.16931 0.61647 0.56468 0.0
C2835 C 0.17488 0.63414 0.57493 0.0
C2836 C 0.16505 0.64898 0.57134 0.0
C2837 C 0.14959 0.64617 0.55754 0.0
C2838 C 0.14397 0.62852 0.54725 0.0
C2839 C 0.07523 0.53813 0.52559 0.0
C2840 C 0.06374 0.55021 0.5175 0.0
C2841 C 0.09445 0.54418 0.52975 0.0
C2842 C 0.10248 0.5623 0.52566 0.0
C2843 C 0.09085 0.5745 0.51821 0.0
C2844 C 0.07175 0.56857 0.51424 0.0
C2845 C 0.12295 0.56883 0.52845 0.0
C2846 C 0.12933 0.58635 0.53892 0.0
C2847 C 0.13598 0.55896 0.5195 0.0
C2848 C 0.13035 0.54032 0.50843 0.0
C2849 C 0.11795 0.53816 0.49147 0.0
C2850 C 0.11266 0.52041 0.48129 0.0
C2851 C 0.1197 0.50476 0.48794 0.0
C2852 C 0.13222 0.50685 0.50464 0.0
C2853 C 0.13761 0.52457 0.51483 0.0
H2854 H 0.1155 0.49102 0.48014 0.0
H2855 H 0.16939 0.66265 0.57929 0.0
H2856 H 0.69301 0.97322 0.7705 0.0
H2857 H 0.71179 0.94827 0.77664 0.0
H2858 H 0.66142 0.90786 0.77465 0.0
H2859 H 0.64273 0.93272 0.76921 0.0
H2860 H 0.68319 0.90395 0.80522 0.0
H2861 H 0.69161 0.91074 0.73686 0.0
H2862 H 0.70108 0.92785 0.70863 0.0
H2863 H 0.75717 0.94141 0.73549 0.0
H2864 H 0.74796 0.92455 0.764 0.0
H2865 H 0.70236 0.8146 0.77799 0.0
H2866 H 0.69365 0.84593 0.78123 0.0
H2867 H 0.75142 0.87019 0.79524 0.0
H2868 H 0.76032 0.83842 0.79207 0.0
H2869 H 0.7326 0.88665 0.76475 0.0
H2870 H 0.72349 0.87272 0.8302 0.0
H2871 H 0.71255 0.85303 0.85609 0.0
H2872 H 0.65583 0.85064 0.8325 0.0
H2873 H 0.66642 0.87009 0.8063 0.0
C2874 C 0.686 0.95894 0.77111 0.0
C2875 C 0.66641 0.95489 0.76942 0.0
C2876 C 0.69674 0.94471 0.77464 0.0
C2877 C 0.68803 0.92617 0.77617 0.0
C2878 C 0.66847 0.92207 0.77376 0.0
C2879 C 0.65779 0.93628 0.77052 0.0
C2880 C 0.69897 0.91094 0.78082 0.0
C2881 C 0.69397 0.90016 0.79632 0.0
C2882 C 0.71354 0.90639 0.76972 0.0
C2883 C 0.71904 0.91663 0.75267 0.0
C2884 C 0.70592 0.91753 0.73682 0.0
C2885 C 0.71125 0.92714 0.72076 0.0
C2886 C 0.7297 0.93578 0.7203 0.0
C2887 C 0.74288 0.93476 0.73589 0.0
C2888 C 0.73761 0.92518 0.752 0.0
C2889 C 0.71322 0.82656 0.78205 0.0
C2890 C 0.73201 0.82413 0.78473 0.0
C2891 C 0.70821 0.84445 0.78399 0.0
C2892 C 0.72187 0.86036 0.7886 0.0
C2893 C 0.74068 0.85803 0.79178 0.0
C2894 C 0.74572 0.83995 0.79007 0.0
C2895 C 0.71618 0.87926 0.78853 0.0
C2896 C 0.72218 0.89077 0.77395 0.0
C2897 C 0.70228 0.88431 0.80026 0.0
C2898 C 0.69579 0.87286 0.81623 0.0
C2899 C 0.70869 0.86793 0.83047 0.0
C2900 C 0.70255 0.85682 0.84521 0.0
C2901 C 0.68351 0.85058 0.84593 0.0
C2902 C 0.67057 0.8555 0.83194 0.0
C2903 C 0.67664 0.86661 0.81716 0.0
H2904 H 0.67878 0.84195 0.85733 0.0
H2905 H 0.73381 0.9432 0.70785 0.0
H2906 H 0.69591 0.88858 0.53346 0.0
H2907 H 0.66823 0.90401 0.5308 0.0
H2908 H 0.70305 0.95841 0.53832 0.0
H2909 H 0.73089 0.94295 0.54171 0.0
H2910 H 0.67176 0.96009 0.55586 0.0
H2911 H 0.68567 0.93782 0.49239 0.0
H2912 H 0.69289 0.91459 0.46709 0.0
H2913 H 0.64027 0.88002 0.47163 0.0
H2914 H 0.63285 0.90291 0.49716 0.0
H2915 H 0.5945 0.00265 0.51537 0.0
H2916 H 0.62547 0.99267 0.51898 0.0
H2917 H 0.59933 0.93516 0.5211 0.0
H2918 H 0.56868 0.94495 0.51773 0.0
H2919 H 0.6283 0.93863 0.49678 0.0
H2920 H 0.61593 0.95997 0.56224 0.0
H2921 H 0.60861 0.98353 0.58714 0.0
H2922 H 0.65834 0.02071 0.57772 0.0
H2923 H 0.66586 0.99742 0.55261 0.0
C2924 C 0.69769 0.90384 0.53487 0.0
C2925 C 0.7156 0.91454 0.53764 0.0
C2926 C 0.68184 0.91266 0.53321 0.0
C2927 C 0.68352 0.9324 0.53379 0.0
C2928 C 0.70136 0.94317 0.53766 0.0
C2929 C 0.71727 0.93432 0.53962 0.0
C2930 C 0.66674 0.94155 0.52936 0.0
C2931 C 0.66244 0.9556 0.54278 0.0
C2932 C 0.65444 0.93573 0.51232 0.0
C2933 C 0.65876 0.92203 0.49679 0.0
C2934 C 0.67568 0.92521 0.48807 0.0
C2935 C 0.67981 0.91211 0.47369 0.0
C2936 C 0.66706 0.89583 0.46779 0.0
C2937 C 0.65013 0.89264 0.47623 0.0
C2938 C 0.64595 0.90568 0.49064 0.0
C2939 C 0.59542 0.98787 0.5164 0.0
C2940 C 0.57916 0.9746 0.51631 0.0
C2941 C 0.61309 0.98221 0.51858 0.0
C2942 C 0.6147 0.96317 0.52043 0.0
C2943 C 0.59845 0.9499 0.51971 0.0
C2944 C 0.58091 0.95556 0.51783 0.0
C2945 C 0.63316 0.95678 0.52346 0.0
C2946 C 0.63778 0.94326 0.50973 0.0
C2947 C 0.64573 0.96318 0.54012 0.0
C2948 C 0.64135 0.97705 0.55539 0.0
C2949 C 0.62523 0.97323 0.56538 0.0
C2950 C 0.62106 0.98652 0.57954 0.0
C2951 C 0.63296 0.00364 0.58394 0.0
C2952 C 0.64911 0.00746 0.57426 0.0
C2953 C 0.65335 0.99421 0.56008 0.0
H2954 H 0.62969 0.01393 0.59489 0.0
H2955 H 0.67027 0.88571 0.45665 0.0
H2956 H 0.38733 0.43254 0.74917 0.0
H2957 H 0.36485 0.40359 0.74662 0.0
H2958 H 0.32 0.43608 0.7523 0.0
H2959 H 0.34252 0.46534 0.7547 0.0
H2960 H 0.3191 0.40605 0.77701 0.0
H2961 H 0.32293 0.41544 0.70965 0.0
H2962 H 0.33855 0.42208 0.67986 0.0
H2963 H 0.36425 0.37235 0.68371 0.0
H2964 H 0.34903 0.36556 0.71373 0.0
H2965 H 0.25437 0.31961 0.75903 0.0
H2966 H 0.26938 0.35195 0.75573 0.0
H2967 H 0.32101 0.33157 0.74578 0.0
H2968 H 0.30622 0.29944 0.74902 0.0
H2969 H 0.31413 0.35772 0.72095 0.0
H2970 H 0.31358 0.35036 0.78992 0.0
H2971 H 0.29935 0.34401 0.82059 0.0
H2972 H 0.26849 0.38996 0.81434 0.0
H2973 H 0.28224 0.39636 0.78341 0.0
C2974 C 0.37268 0.4336 0.74976 0.0
C2975 C 0.36674 0.4513 0.75212 0.0
C2976 C 0.35983 0.417 0.74824 0.0
C2977 C 0.34074 0.41766 0.74917 0.0
C2978 C 0.33468 0.43526 0.7515 0.0
C2979 C 0.34755 0.45195 0.75276 0.0
C2980 C 0.32736 0.39981 0.74822 0.0
C2981 C 0.31764 0.39563 0.76458 0.0
C2982 C 0.32577 0.38609 0.73214 0.0
C2983 C 0.33494 0.39007 0.71405 0.0
C2984 C 0.33204 0.406 0.70425 0.0
C2985 C 0.3408 0.40978 0.6873 0.0
C2986 C 0.35242 0.39767 0.67992 0.0
C2987 C 0.35526 0.38173 0.68946 0.0
C2988 C 0.34655 0.3779 0.70643 0.0
C2989 C 0.26885 0.32202 0.75592 0.0
C2990 C 0.27911 0.30695 0.7544 0.0
C2991 C 0.27744 0.34051 0.75414 0.0
C2992 C 0.29638 0.34421 0.75067 0.0
C2993 C 0.3064 0.32909 0.74847 0.0
C2994 C 0.29792 0.31071 0.75041 0.0
C2995 C 0.30613 0.36378 0.74991 0.0
C2996 C 0.31524 0.36827 0.73324 0.0
C2997 C 0.30723 0.37772 0.76575 0.0
C2998 C 0.29875 0.37368 0.7842 0.0
C2999 C 0.30358 0.35897 0.79495 0.0
C3000 C 0.29564 0.35538 0.81241 0.0
C3001 C 0.28301 0.36656 0.81938 0.0
C3002 C 0.27825 0.3813 0.80889 0.0
C3003 C 0.2861 0.3849 0.79139 0.0
H3004 H 0.277 0.36389 0.83297 0.0
H3005 H 0.35919 0.40062 0.6668 0.0
H3006 H 0.12797 0.5722 0.25412 0.0
H3007 H 0.14764 0.60174 0.24958 0.0
H3008 H 0.19636 0.57411 0.25297 0.0
H3009 H 0.17677 0.54437 0.25766 0.0
H3010 H 0.20158 0.60742 0.27576 0.0
H3011 H 0.18107 0.58657 0.20963 0.0
H3012 H 0.15835 0.57361 0.18183 0.0
H3013 H 0.12966 0.62128 0.18955 0.0
H3014 H 0.15213 0.63445 0.21754 0.0
H3015 H 0.25296 0.69563 0.25899 0.0
H3016 H 0.24084 0.66206 0.25079 0.0
H3017 H 0.18455 0.6745 0.24923 0.0
H3018 H 0.1965 0.70782 0.25728 0.0
H3019 H 0.1881 0.6462 0.22129 0.0
H3020 H 0.20649 0.66442 0.29017 0.0
H3021 H 0.22936 0.67735 0.31785 0.0
H3022 H 0.26184 0.63346 0.3053 0.0
H3023 H 0.23959 0.62076 0.27696 0.0
C3024 C 0.14285 0.57232 0.25384 0.0
C3025 C 0.15076 0.55586 0.25626 0.0
C3026 C 0.15407 0.58922 0.25111 0.0
C3027 C 0.17343 0.59006 0.25069 0.0
C3028 C 0.18143 0.57373 0.25315 0.0
C3029 C 0.17019 0.55674 0.25579 0.0
C3030 C 0.18524 0.60828 0.24852 0.0
C3031 C 0.19896 0.61572 0.26361 0.0
C3032 C 0.18168 0.61916 0.23275 0.0
C3033 C 0.16824 0.61144 0.21577 0.0
C3034 C 0.16986 0.59424 0.20547 0.0
C3035 C 0.15703 0.58686 0.18967 0.0
C3036 C 0.14253 0.59658 0.18396 0.0
C3037 C 0.1409 0.61375 0.194 0.0
C3038 C 0.15371 0.62121 0.2098 0.0
C3039 C 0.23803 0.69122 0.25635 0.0
C3040 C 0.22564 0.70425 0.25901 0.0
C3041 C 0.23114 0.67207 0.25174 0.0
C3042 C 0.2118 0.66579 0.24968 0.0
C3043 C 0.19951 0.67903 0.25079 0.0
C3044 C 0.20636 0.69806 0.25552 0.0
C3045 C 0.20411 0.64548 0.24875 0.0
C3046 C 0.19107 0.63768 0.23315 0.0
C3047 C 0.2083 0.63426 0.26406 0.0
C3048 C 0.22152 0.6418 0.28126 0.0
C3049 C 0.21862 0.65764 0.29317 0.0
C3050 C 0.23146 0.66493 0.30899 0.0
C3051 C 0.247 0.65618 0.31337 0.0
C3052 C 0.2498 0.64022 0.30187 0.0
C3053 C 0.23713 0.63303 0.28586 0.0
H3054 H 0.25686 0.66172 0.3257 0.0
H3055 H 0.13259 0.59082 0.17174 0.0
H3056 H 0.52211 0.71933 0.45155 0.0
H3057 H 0.52844 0.6895 0.4634 0.0
H3058 H 0.51278 0.66162 0.40576 0.0
H3059 H 0.5069 0.69167 0.39358 0.0
H3060 H 0.49397 0.64533 0.44041 0.0
H3061 H 0.55382 0.66491 0.41641 0.0
H3062 H 0.58236 0.68728 0.41338 0.0
H3063 H 0.59652 0.68952 0.47523 0.0
H3064 H 0.5679 0.66737 0.47867 0.0
H3065 H 0.53782 0.56016 0.45809 0.0
H3066 H 0.54119 0.59162 0.44625 0.0
H3067 H 0.51613 0.61241 0.49653 0.0
H3068 H 0.51306 0.58104 0.50869 0.0
H3069 H 0.55642 0.63149 0.46374 0.0
H3070 H 0.48015 0.63155 0.47546 0.0
H3071 H 0.45238 0.60862 0.48016 0.0
H3072 H 0.47166 0.56688 0.44241 0.0
H3073 H 0.49942 0.58958 0.43737 0.0
C3074 C 0.5202 0.70689 0.44133 0.0
C3075 C 0.51397 0.70779 0.42164 0.0
C3076 C 0.52385 0.6899 0.44813 0.0
C3077 C 0.52103 0.67342 0.43546 0.0
C3078 C 0.51504 0.67425 0.41572 0.0
C3079 C 0.51178 0.69139 0.40878 0.0
C3080 C 0.52356 0.65525 0.4432 0.0
C3081 C 0.50763 0.64228 0.44539 0.0
C3082 C 0.54137 0.65137 0.44986 0.0
C3083 C 0.55862 0.66463 0.44782 0.0
C3084 C 0.56292 0.67031 0.42939 0.0
C3085 C 0.57914 0.68292 0.42759 0.0
C3086 C 0.59122 0.68986 0.4441 0.0
C3087 C 0.58714 0.68416 0.46245 0.0
C3088 C 0.57093 0.67156 0.46433 0.0
C3089 C 0.5336 0.57159 0.46694 0.0
C3090 C 0.52512 0.56818 0.48426 0.0
C3091 C 0.53559 0.58954 0.46019 0.0
C3092 C 0.52879 0.60424 0.47046 0.0
C3093 C 0.52149 0.6012 0.48844 0.0
C3094 C 0.5198 0.58331 0.49539 0.0
C3095 C 0.52685 0.62174 0.46104 0.0
C3096 C 0.54281 0.63457 0.45866 0.0
C3097 C 0.50908 0.62555 0.45419 0.0
C3098 C 0.49188 0.61221 0.45616 0.0
C3099 C 0.47836 0.61753 0.46804 0.0
C3100 C 0.46266 0.60456 0.47081 0.0
C3101 C 0.46031 0.58631 0.46164 0.0
C3102 C 0.47354 0.58101 0.44955 0.0
C3103 C 0.48926 0.5939 0.44675 0.0
H3104 H 0.44823 0.57626 0.46386 0.0
H3105 H 0.60377 0.69962 0.44268 0.0
H3106 H 0.59494 0.28678 0.64739 0.0
H3107 H 0.62196 0.28616 0.67045 0.0
H3108 H 0.5868 0.28425 0.71805 0.0
H3109 H 0.5594 0.28445 0.69496 0.0
H3110 H 0.62686 0.31111 0.72166 0.0
H3111 H 0.59409 0.24701 0.70991 0.0
H3112 H 0.57764 0.21965 0.68862 0.0
H3113 H 0.62634 0.21782 0.65748 0.0
H3114 H 0.64297 0.24541 0.67837 0.0
H3115 H 0.70134 0.28331 0.78315 0.0
H3116 H 0.67028 0.2868 0.76858 0.0
H3117 H 0.68529 0.26776 0.71194 0.0
H3118 H 0.71593 0.26397 0.7263 0.0
H3119 H 0.65203 0.25066 0.71743 0.0
H3120 H 0.68411 0.3147 0.72563 0.0
H3121 H 0.70153 0.34327 0.74424 0.0
H3122 H 0.65583 0.34644 0.77965 0.0
H3123 H 0.63824 0.31771 0.7614 0.0
C3124 C 0.5929 0.28654 0.66278 0.0
C3125 C 0.57495 0.28555 0.66931 0.0
C3126 C 0.60838 0.28617 0.67593 0.0
C3127 C 0.6063 0.2851 0.69587 0.0
C3128 C 0.58863 0.28512 0.70267 0.0
C3129 C 0.57301 0.28517 0.68946 0.0
C3130 C 0.62248 0.28239 0.70911 0.0
C3131 C 0.6322 0.29781 0.72115 0.0
C3132 C 0.62956 0.26515 0.70799 0.0
C3133 C 0.61969 0.2484 0.69557 0.0
C3134 C 0.60122 0.24089 0.6984 0.0
C3135 C 0.59188 0.22532 0.68643 0.0
C3136 C 0.60092 0.21703 0.67167 0.0
C3137 C 0.61935 0.22427 0.6689 0.0
C3138 C 0.62874 0.23987 0.68081 0.0
C3139 C 0.69799 0.27993 0.76759 0.0
C3140 C 0.71108 0.27331 0.7559 0.0
C3141 C 0.68027 0.28196 0.75928 0.0
C3142 C 0.67546 0.27758 0.73914 0.0
C3143 C 0.6886 0.2711 0.72752 0.0
C3144 C 0.70616 0.26897 0.73578 0.0
C3145 C 0.65679 0.27951 0.72987 0.0
C3146 C 0.64657 0.2639 0.71842 0.0
C3147 C 0.64943 0.29666 0.73138 0.0
C3148 C 0.65996 0.31393 0.74232 0.0
C3149 C 0.67784 0.3214 0.7375 0.0
C3150 C 0.68774 0.33764 0.74796 0.0
C3151 C 0.67982 0.34663 0.76316 0.0
C3152 C 0.66197 0.33943 0.7679 0.0
C3153 C 0.65202 0.32318 0.7575 0.0
H3154 H 0.68749 0.3592 0.77124 0.0
H3155 H 0.59366 0.20498 0.66241 0.0
H3156 H 0.99848 0.29468 0.94064 0.0
H3157 H 0.99476 0.32601 0.95424 0.0
H3158 H 0.9997 0.34696 0.8975 0.0
H3159 H 0.00372 0.3156 0.88381 0.0
H3160 H 0.02246 0.36878 0.92498 0.0
H3161 H 0.95792 0.34166 0.91804 0.0
H3162 H 0.93071 0.31787 0.92197 0.0
H3163 H 0.9405 0.32802 0.98434 0.0
H3164 H 0.96796 0.35167 0.98079 0.0
H3165 H 0.00574 0.45914 0.95103 0.0
H3166 H 0.99814 0.42692 0.93593 0.0
H3167 H 0.99919 0.40576 0.99288 0.0
H3168 H 0.00668 0.43814 0.0082 0.0
H3169 H 0.97179 0.3842 0.96477 0.0
H3170 H 0.03739 0.40881 0.97192 0.0
H3171 H 0.06501 0.43233 0.96863 0.0
H3172 H 0.05344 0.42624 0.90626 0.0
H3173 H 0.02557 0.40286 0.90921 0.0
C3174 C 0.99858 0.3059 0.931 0.0
C3175 C 0.00148 0.30272 0.91117 0.0
C3176 C 0.99633 0.32379 0.93878 0.0
C3177 C 0.99678 0.3388 0.92686 0.0
C3178 C 0.99927 0.33556 0.90695 0.0
C3179 C 0.00155 0.31765 0.89915 0.0
C3180 C 0.99614 0.35814 0.9355 0.0
C3181 C 0.01118 0.3722 0.93334 0.0
C3182 C 0.98171 0.36246 0.94696 0.0
C3183 C 0.96511 0.34834 0.94914 0.0
C3184 C 0.95437 0.33873 0.9326 0.0
C3185 C 0.93888 0.32528 0.93476 0.0
C3186 C 0.9339 0.32141 0.95339 0.0
C3187 C 0.94438 0.33102 0.96991 0.0
C3188 C 0.9599 0.34446 0.96783 0.0
C3189 C 0.00397 0.44766 0.96038 0.0
C3190 C 0.00712 0.4511 0.98078 0.0
C3191 C 0.99959 0.42928 0.95172 0.0
C3192 C 0.99847 0.414 0.96329 0.0
C3193 C 1.00006 0.4174 0.98372 0.0
C3194 C 0.00435 0.43588 0.99244 0.0
C3195 C 0.998 0.39472 0.95402 0.0
C3196 C 0.98291 0.38072 0.9562 0.0
C3197 C 0.01242 0.39034 0.94263 0.0
C3198 C 0.02929 0.40423 0.9408 0.0
C3199 C 0.04066 0.41259 0.95752 0.0
C3200 C 0.05636 0.42588 0.95572 0.0
C3201 C 0.06094 0.43082 0.93725 0.0
C3202 C 0.04985 0.42242 0.92056 0.0
C3203 C 0.03411 0.40914 0.92228 0.0
H3204 H 0.07311 0.44111 0.93589 0.0
H3205 H 0.92191 0.31099 0.95503 0.0
H3206 H 0.9521 0.76428 0.15103 0.0
H3207 H 0.92374 0.76132 0.168 0.0
H3208 H 0.95467 0.74918 0.2202 0.0
H3209 H 0.9834 0.75236 0.20332 0.0
H3210 H 0.91632 0.72605 0.20915 0.0
H3211 H 0.94824 0.79021 0.221 0.0
H3212 H 0.96443 0.81996 0.21074 0.0
H3213 H 0.91557 0.82624 0.17427 0.0
H3214 H 0.89918 0.79636 0.18407 0.0
H3215 H 0.84023 0.74322 0.26554 0.0
H3216 H 0.87156 0.74221 0.2549 0.0
H3217 H 0.85711 0.77014 0.20387 0.0
H3218 H 0.82629 0.77165 0.21455 0.0
H3219 H 0.88988 0.78543 0.21874 0.0
H3220 H 0.85909 0.72188 0.20201 0.0
H3221 H 0.84156 0.69127 0.20842 0.0
H3222 H 0.88615 0.68287 0.24982 0.0
H3223 H 0.90382 0.7136 0.24382 0.0
C3224 C 0.95289 0.76069 0.16603 0.0
C3225 C 0.97004 0.75869 0.17588 0.0
C3226 C 0.93665 0.75903 0.1757 0.0
C3227 C 0.93718 0.7552 0.19536 0.0
C3228 C 0.95403 0.75215 0.205 0.0
C3229 C 0.9704 0.75401 0.19536 0.0
C3230 C 0.92034 0.75585 0.20601 0.0
C3231 C 0.91068 0.73906 0.21165 0.0
C3232 C 0.91283 0.77278 0.20876 0.0
C3233 C 0.92254 0.79095 0.20315 0.0
C3234 C 0.94099 0.79786 0.21068 0.0
C3235 C 0.9502 0.81476 0.20496 0.0
C3236 C 0.94105 0.82496 0.19182 0.0
C3237 C 0.92264 0.81832 0.18444 0.0
C3238 C 0.91338 0.80141 0.19009 0.0
C3239 C 0.84379 0.74913 0.25206 0.0
C3240 C 0.83078 0.75754 0.24093 0.0
C3241 C 0.86165 0.74848 0.24595 0.0
C3242 C 0.86668 0.75601 0.2285 0.0
C3243 C 0.85364 0.76433 0.21742 0.0
C3244 C 0.83595 0.76513 0.22356 0.0
C3245 C 0.88549 0.75552 0.22159 0.0
C3246 C 0.89558 0.77241 0.21661 0.0
C3247 C 0.89316 0.73861 0.21909 0.0
C3248 C 0.88265 0.72012 0.22267 0.0
C3249 C 0.86507 0.71357 0.21261 0.0
C3250 C 0.85512 0.69619 0.21614 0.0
C3251 C 0.86271 0.68516 0.22957 0.0
C3252 C 0.88028 0.69146 0.23945 0.0
C3253 C 0.89026 0.70885 0.23599 0.0
H3254 H 0.85499 0.6717 0.23229 0.0
H3255 H 0.94821 0.83803 0.18739 0.0
H3256 H 0.49936 0.29068 0.08874 0.0
H3257 H 0.50574 0.31849 0.07098 0.0
H3258 H 0.52602 0.35195 0.12499 0.0
H3259 H 0.51874 0.32402 0.1431 0.0
H3260 H 0.50516 0.37028 0.10454 0.0
H3261 H 0.55589 0.33881 0.08967 0.0
H3262 H 0.57171 0.31223 0.07923 0.0
H3263 H 0.54199 0.30771 0.0224 0.0
H3264 H 0.52578 0.33408 0.03258 0.0
H3265 H 0.54264 0.44751 0.05244 0.0
H3266 H 0.54307 0.4199 0.07092 0.0
H3267 H 0.50416 0.38669 0.02692 0.0
H3268 H 0.50328 0.4144 0.00836 0.0
H3269 H 0.53739 0.36961 0.04364 0.0
H3270 H 0.48676 0.40281 0.06105 0.0
H3271 H 0.47315 0.43028 0.07329 0.0
H3272 H 0.50568 0.43242 0.12825 0.0
H3273 H 0.51993 0.40527 0.11616 0.0
C3274 C 0.50531 0.30392 0.09688 0.0
C3275 C 0.50863 0.30518 0.11732 0.0
C3276 C 0.50909 0.31982 0.08665 0.0
C3277 C 0.51678 0.33729 0.09654 0.0
C3278 C 0.52019 0.3386 0.11701 0.0
C3279 C 0.51607 0.32267 0.12734 0.0
C3280 C 0.52025 0.35423 0.08546 0.0
C3281 C 0.51255 0.37024 0.09146 0.0
C3282 C 0.52969 0.35415 0.0682 0.0
C3283 C 0.53952 0.33836 0.06194 0.0
C3284 C 0.55263 0.33207 0.07498 0.0
C3285 C 0.56168 0.31705 0.06911 0.0
C3286 C 0.55783 0.30827 0.05018 0.0
C3287 C 0.54496 0.31452 0.03706 0.0
C3288 C 0.53585 0.32952 0.04287 0.0
C3289 C 0.53439 0.43427 0.04647 0.0
C3290 C 0.52281 0.43315 0.02895 0.0
C3291 C 0.53461 0.41856 0.05714 0.0
C3292 C 0.52348 0.40141 0.05039 0.0
C3293 C 0.51279 0.39989 0.03236 0.0
C3294 C 0.51229 0.4157 0.0218 0.0
C3295 C 0.52216 0.3854 0.0627 0.0
C3296 C 0.53023 0.36962 0.05688 0.0
C3297 C 0.51342 0.38587 0.08035 0.0
C3298 C 0.50483 0.40228 0.08748 0.0
C3299 C 0.49134 0.40936 0.07559 0.0
C3300 C 0.48344 0.42484 0.08254 0.0
C3301 C 0.48871 0.4332 0.10148 0.0
C3302 C 0.50178 0.42603 0.11353 0.0
C3303 C 0.50978 0.41062 0.10662 0.0
H3304 H 0.48259 0.44513 0.10693 0.0
H3305 H 0.56485 0.29663 0.04566 0.0
H3306 H 0.97826 0.2755 0.35332 0.0
H3307 H 0.94884 0.27303 0.33259 0.0
H3308 H 0.91868 0.27543 0.38395 0.0
H3309 H 0.94782 0.27815 0.40468 0.0
H3310 H 0.90356 0.24553 0.35501 0.0
H3311 H 0.92566 0.31288 0.36103 0.0
H3312 H 0.94853 0.3411 0.3577 0.0
H3313 H 0.94631 0.32665 0.29591 0.0
H3314 H 0.92361 0.29817 0.29893 0.0
H3315 H 0.81471 0.26355 0.32958 0.0
H3316 H 0.84708 0.26815 0.34325 0.0
H3317 H 0.86555 0.26909 0.28529 0.0
H3318 H 0.83291 0.26459 0.27136 0.0
H3319 H 0.88836 0.29518 0.31285 0.0
H3320 H 0.86449 0.22976 0.30553 0.0
H3321 H 0.84161 0.20131 0.30797 0.0
H3322 H 0.84783 0.21085 0.37051 0.0
H3323 H 0.87053 0.23953 0.36845 0.0
C3324 C 0.96536 0.27554 0.36018 0.0
C3325 C 0.96541 0.27705 0.38067 0.0
C3326 C 0.94859 0.27417 0.34832 0.0
C3327 C 0.93161 0.27405 0.35676 0.0
C3328 C 0.93164 0.27547 0.37715 0.0
C3329 C 0.94834 0.27711 0.38898 0.0
C3330 C 0.91365 0.27226 0.34453 0.0
C3331 C 0.9002 0.25642 0.34586 0.0
C3332 C 0.90954 0.28615 0.33206 0.0
C3333 C 0.92313 0.30328 0.33024 0.0
C3334 C 0.93019 0.31562 0.34676 0.0
C3335 C 0.94309 0.33168 0.34492 0.0
C3336 C 0.94892 0.33563 0.32661 0.0
C3337 C 0.94181 0.32355 0.31009 0.0
C3338 C 0.92892 0.30745 0.31186 0.0
C3339 C 0.82562 0.26499 0.31969 0.0
C3340 C 0.82123 0.26347 0.29936 0.0
C3341 C 0.84413 0.26758 0.32754 0.0
C3342 C 0.8587 0.26856 0.31527 0.0
C3343 C 0.85449 0.26825 0.295 0.0
C3344 C 0.83585 0.2657 0.28708 0.0
C3345 C 0.87809 0.26871 0.32382 0.0
C3346 C 0.89181 0.28416 0.32176 0.0
C3347 C 0.88258 0.25432 0.33546 0.0
C3348 C 0.86913 0.2369 0.33682 0.0
C3349 C 0.86089 0.22587 0.3198 0.0
C3350 C 0.84797 0.20969 0.32112 0.0
C3351 C 0.84324 0.20431 0.33938 0.0
C3352 C 0.8515 0.21505 0.35637 0.0
C3353 C 0.86441 0.23126 0.35514 0.0
H3354 H 0.8332 0.19182 0.34038 0.0
H3355 H 0.9589 0.34807 0.32522 0.0
H3356 H 0.96985 0.69982 0.61818 0.0
H3357 H 0.96319 0.6669 0.60359 0.0
H3358 H 0.01819 0.67265 0.58316 0.0
H3359 H 0.02468 0.70508 0.59725 0.0
H3360 H 0.99232 0.66029 0.55399 0.0
H3361 H 0.00688 0.64722 0.6207 0.0
H3362 H 0.00329 0.646 0.65587 0.0
H3363 H 0.94846 0.61412 0.64288 0.0
H3364 H 0.9516 0.61546 0.6076 0.0
H3365 H 0.01163 0.55918 0.55849 0.0
H3366 H 0.00584 0.58879 0.57402 0.0
H3367 H 0.96871 0.59592 0.52411 0.0
H3368 H 0.97502 0.5662 0.50801 0.0
H3369 H 0.97757 0.60153 0.5866 0.0
H3370 H 0.97103 0.64313 0.51922 0.0
H3371 H 0.98045 0.64321 0.48555 0.0
H3372 H 0.02818 0.61758 0.50269 0.0
H3373 H 0.01915 0.61756 0.53647 0.0
C3374 C 0.98055 0.69384 0.61087 0.0
C3375 C 0.99766 0.70501 0.60856 0.0
C3376 C 0.97673 0.67512 0.6025 0.0
C3377 C 0.9901 0.66747 0.59199 0.0
C3378 C 0.00754 0.67836 0.59086 0.0
C3379 C 0.01126 0.69688 0.59897 0.0
C3380 C 0.98609 0.64859 0.58109 0.0
C3381 C 0.98882 0.64743 0.56109 0.0
C3382 C 0.98154 0.63182 0.5903 0.0
C3383 C 0.97931 0.63182 0.61151 0.0
C3384 C 0.99392 0.64027 0.62533 0.0
C3385 C 0.992 0.63947 0.6453 0.0
C3386 C 0.97561 0.63009 0.65161 0.0
C3387 C 0.9611 0.62149 0.63798 0.0
C3388 C 0.96293 0.6223 0.618 0.0
C3389 C 0.00222 0.56699 0.55072 0.0
C3390 C 0.9939 0.56042 0.53191 0.0
C3391 C 0.9988 0.5839 0.55974 0.0
C3392 C 0.98686 0.59465 0.55027 0.0
C3393 C 0.97815 0.58797 0.53161 0.0
C3394 C 0.98179 0.57104 0.52241 0.0
C3395 C 0.98466 0.61327 0.5598 0.0
C3396 C 0.98051 0.61439 0.5794 0.0
C3397 C 0.98862 0.63005 0.55046 0.0
C3398 C 0.99425 0.6301 0.53026 0.0
C3399 C 0.98354 0.63753 0.51577 0.0
C3400 C 0.98881 0.63757 0.49669 0.0
C3401 C 0.00486 0.63033 0.49196 0.0
C3402 C 0.01571 0.62311 0.50634 0.0
C3403 C 0.01051 0.62307 0.52545 0.0
H3404 H 0.00891 0.63036 0.47718 0.0
H3405 H 0.97419 0.62941 0.66707 0.0
H3406 H 0.58723 0.77029 0.89883 0.0
H3407 H 0.61457 0.76677 0.88135 0.0
H3408 H 0.57912 0.74699 0.82866 0.0
H3409 H 0.55148 0.75048 0.84615 0.0
H3410 H 0.60943 0.72689 0.83449 0.0
H3411 H 0.59877 0.79061 0.83328 0.0
H3412 H 0.59314 0.82187 0.84633 0.0
H3413 H 0.64549 0.82986 0.88143 0.0
H3414 H 0.65126 0.79847 0.86894 0.0
H3415 H 0.69038 0.74714 0.77817 0.0
H3416 H 0.65896 0.74449 0.78963 0.0
H3417 H 0.683 0.76466 0.84783 0.0
H3418 H 0.71412 0.7671 0.83675 0.0
H3419 H 0.65597 0.78463 0.83427 0.0
H3420 H 0.66508 0.71987 0.8382 0.0
H3421 H 0.67142 0.68899 0.82482 0.0
H3422 H 0.62279 0.68356 0.78415 0.0
H3423 H 0.61632 0.71458 0.79711 0.0
C3424 C 0.58517 0.76498 0.88358 0.0
C3425 C 0.56717 0.76081 0.87384 0.0
C3426 C 0.60084 0.76303 0.87359 0.0
C3427 C 0.59889 0.7569 0.85364 0.0
C3428 C 0.58092 0.75182 0.84405 0.0
C3429 C 0.56516 0.75384 0.85405 0.0
C3430 C 0.61575 0.75672 0.84283 0.0
C3431 C 0.61947 0.73956 0.83414 0.0
C3432 C 0.62891 0.77325 0.8425 0.0
C3433 C 0.62535 0.79206 0.85031 0.0
C3434 C 0.60898 0.79892 0.84396 0.0
C3435 C 0.60578 0.81669 0.85124 0.0
C3436 C 0.61892 0.82782 0.86475 0.0
C3437 C 0.6353 0.8212 0.87101 0.0
C3438 C 0.63853 0.80342 0.86384 0.0
C3439 C 0.68894 0.75069 0.79347 0.0
C3440 C 0.70476 0.7574 0.80652 0.0
C3441 C 0.67101 0.74917 0.79998 0.0
C3442 C 0.6687 0.75444 0.81958 0.0
C3443 C 0.68449 0.76057 0.83265 0.0
C3444 C 0.7023 0.76192 0.82625 0.0
C3445 C 0.64996 0.75473 0.82656 0.0
C3446 C 0.64584 0.77198 0.83445 0.0
C3447 C 0.63654 0.73833 0.82616 0.0
C3448 C 0.64034 0.71964 0.81846 0.0
C3449 C 0.65584 0.71217 0.82628 0.0
C3450 C 0.65944 0.69463 0.8188 0.0
C3451 C 0.64755 0.68434 0.8036 0.0
C3452 C 0.63201 0.69156 0.79589 0.0
C3453 C 0.62836 0.70912 0.80331 0.0
H3454 H 0.65036 0.67076 0.79782 0.0
H3455 H 0.61643 0.84159 0.87033 0.0
H3456 H 0.39422 0.51449 0.69189 0.0
H3457 H 0.4073 0.52039 0.6606 0.0
H3458 H 0.46294 0.52675 0.68926 0.0
H3459 H 0.45012 0.52093 0.72023 0.0
H3460 H 0.46027 0.55268 0.66269 0.0
H3461 H 0.44334 0.48532 0.66574 0.0
H3462 H 0.42166 0.45613 0.66874 0.0
H3463 H 0.3878 0.46668 0.61813 0.0
H3464 H 0.40917 0.49608 0.615 0.0
H3465 H 0.51848 0.53035 0.58836 0.0
H3466 H 0.50127 0.53258 0.61746 0.0
H3467 H 0.44927 0.52245 0.58106 0.0
H3468 H 0.46626 0.51997 0.55208 0.0
H3469 H 0.44727 0.50059 0.60998 0.0
H3470 H 0.46612 0.56615 0.60455 0.0
H3471 H 0.48799 0.59511 0.60126 0.0
H3472 H 0.51802 0.58837 0.65575 0.0
H3473 H 0.49648 0.5592 0.65923 0.0
C3474 C 0.40922 0.51745 0.69152 0.0
C3475 C 0.42113 0.51704 0.70849 0.0
C3476 C 0.41668 0.52073 0.67365 0.0
C3477 C 0.43613 0.52382 0.67256 0.0
C3478 C 0.44793 0.52438 0.6897 0.0
C3479 C 0.44054 0.52094 0.7074 0.0
C3480 C 0.44447 0.52532 0.65358 0.0
C3481 C 0.45747 0.54128 0.65116 0.0
C3482 C 0.44058 0.51062 0.63837 0.0
C3483 C 0.4277 0.49301 0.64029 0.0
C3484 C 0.43118 0.4815 0.65536 0.0
C3485 C 0.41897 0.4649 0.65706 0.0
C3486 C 0.40332 0.45958 0.64367 0.0
C3487 C 0.39989 0.47084 0.62852 0.0
C3488 C 0.41205 0.48746 0.62678 0.0
C3489 C 0.5034 0.52883 0.58655 0.0
C3490 C 0.49377 0.52487 0.56789 0.0
C3491 C 0.49356 0.53015 0.6032 0.0
C3492 C 0.47393 0.52775 0.60148 0.0
C3493 C 0.46437 0.52427 0.58281 0.0
C3494 C 0.47415 0.52288 0.56623 0.0
C3495 C 0.46328 0.52788 0.61911 0.0
C3496 C 0.44989 0.51217 0.62131 0.0
C3497 C 0.46679 0.54284 0.63407 0.0
C3498 C 0.47977 0.56039 0.63206 0.0
C3499 C 0.47747 0.57075 0.61576 0.0
C3500 C 0.4898 0.58722 0.61387 0.0
C3501 C 0.50441 0.59355 0.62827 0.0
C3502 C 0.50671 0.58344 0.6446 0.0
C3503 C 0.49443 0.56695 0.64655 0.0
H3504 H 0.51394 0.60631 0.62678 0.0
H3505 H 0.39389 0.44672 0.64501 0.0
H3506 H 0.79649 0.16754 0.97046 0.0
H3507 H 0.78719 0.18619 0.94435 0.0
H3508 H 0.73396 0.14996 0.93423 0.0
H3509 H 0.74374 0.13057 0.9601 0.0
H3510 H 0.74686 0.16267 0.89983 0.0
H3511 H 0.73599 0.18988 0.96162 0.0
H3512 H 0.74322 0.20022 0.99662 0.0
H3513 H 0.78889 0.24078 0.98318 0.0
H3514 H 0.78217 0.23045 0.94812 0.0
H3515 H 0.72665 0.23847 0.8442 0.0
H3516 H 0.72243 0.21722 0.87016 0.0
H3517 H 0.77935 0.23615 0.8936 0.0
H3518 H 0.78369 0.25748 0.86789 0.0
H3519 H 0.75486 0.23073 0.92232 0.0
H3520 H 0.76783 0.19756 0.86086 0.0
H3521 H 0.75965 0.18717 0.82597 0.0
H3522 H 0.70697 0.15788 0.83938 0.0
H3523 H 0.71478 0.16837 0.87437 0.0
C3524 C 0.78298 0.1633 0.96233 0.0
C3525 C 0.77077 0.14777 0.96718 0.0
C3526 C 0.77763 0.17399 0.94753 0.0
C3527 C 0.75969 0.16977 0.93776 0.0
C3528 C 0.74781 0.15351 0.94172 0.0
C3529 C 0.75338 0.14246 0.95639 0.0
C3530 C 0.75333 0.18333 0.92458 0.0
C3531 C 0.74815 0.17749 0.9048 0.0
C3532 C 0.75478 0.20265 0.93114 0.0
C3533 C 0.75858 0.20935 0.9522 0.0
C3534 C 0.74762 0.20097 0.96612 0.0
C3535 C 0.75164 0.20681 0.98598 0.0
C3536 C 0.76651 0.22115 0.99212 0.0
C3537 C 0.77736 0.2297 0.9784 0.0
C3538 C 0.77343 0.22387 0.95852 0.0
C3539 C 0.73815 0.23844 0.85515 0.0
C3540 C 0.75557 0.24957 0.85389 0.0
C3541 C 0.73571 0.22622 0.8699 0.0
C3542 C 0.75066 0.22493 0.88357 0.0
C3543 C 0.76764 0.23693 0.88314 0.0
C3544 C 0.7701 0.24913 0.86842 0.0
C3545 C 0.74938 0.2102 0.89748 0.0
C3546 C 0.75304 0.21585 0.91745 0.0
C3547 C 0.74619 0.19073 0.8911 0.0
C3548 C 0.74182 0.18392 0.87018 0.0
C3549 C 0.75449 0.18897 0.85636 0.0
C3550 C 0.74991 0.18307 0.83657 0.0
C3551 C 0.73277 0.17193 0.83045 0.0
C3552 C 0.72022 0.16656 0.84414 0.0
C3553 C 0.72472 0.17247 0.86395 0.0
H3554 H 0.72922 0.16745 0.81513 0.0
H3555 H 0.76961 0.22563 0.0075 0.0
H3556 H 0.13165 0.48306 0.20044 0.0
H3557 H 0.11999 0.47516 0.16603 0.0
H3558 H 0.0638 0.4632 0.18276 0.0
H3559 H 0.07529 0.47099 0.21696 0.0
H3560 H 0.06904 0.44069 0.14974 0.0
H3561 H 0.08022 0.50666 0.17495 0.0
H3562 H 0.09968 0.53568 0.19046 0.0
H3563 H 0.13668 0.53433 0.1449 0.0
H3564 H 0.11757 0.50513 0.12928 0.0
H3565 H 0.00668 0.47768 0.0831 0.0
H3566 H 0.02567 0.46669 0.10962 0.0
H3567 H 0.07538 0.48355 0.0809 0.0
H3568 H 0.05675 0.49506 0.05499 0.0
H3569 H 0.07832 0.49979 0.11658 0.0
H3570 H 0.06101 0.43737 0.08714 0.0
H3571 H 0.03985 0.40929 0.07206 0.0
H3572 H 0.01277 0.40446 0.12507 0.0
H3573 H 0.03361 0.43269 0.14042 0.0
C3574 C 0.11691 0.47812 0.19681 0.0
C3575 C 0.10432 0.47799 0.21129 0.0
C3576 C 0.11027 0.47363 0.17717 0.0
C3577 C 0.091 0.46888 0.17187 0.0
C3578 C 0.0787 0.46685 0.18652 0.0
C3579 C 0.08528 0.47147 0.20605 0.0
C3580 C 0.08322 0.46928 0.15145 0.0
C3581 C 0.0711 0.45353 0.14235 0.0
C3582 C 0.08613 0.486 0.1418 0.0
C3583 C 0.09765 0.50355 0.15114 0.0
C3584 C 0.09261 0.51245 0.16835 0.0
C3585 C 0.10355 0.52895 0.17714 0.0
C3586 C 0.11945 0.5368 0.16871 0.0
C3587 C 0.1244 0.52819 0.15145 0.0
C3588 C 0.11353 0.51165 0.14263 0.0
C3589 C 0.02159 0.47863 0.08226 0.0
C3590 C 0.03021 0.48738 0.06703 0.0
C3591 C 0.03243 0.47226 0.09734 0.0
C3592 C 0.05196 0.47431 0.09722 0.0
C3593 C 0.06036 0.48186 0.08133 0.0
C3594 C 0.04964 0.48841 0.06648 0.0
C3595 C 0.06383 0.47126 0.1148 0.0
C3596 C 0.07664 0.48666 0.12351 0.0
C3597 C 0.06139 0.45428 0.12405 0.0
C3598 C 0.04884 0.43724 0.11491 0.0
C3599 C 0.05047 0.43041 0.09556 0.0
C3600 C 0.03854 0.41444 0.08696 0.0
C3601 C 0.02496 0.40511 0.09759 0.0
C3602 C 0.02331 0.4117 0.11686 0.0
C3603 C 0.0352 0.42767 0.12553 0.0
H3604 H 0.01573 0.39275 0.09091 0.0
H3605 H 0.12787 0.54959 0.17552 0.0
H3606 H 0.75376 0.89883 0.46453 0.0
H3607 H 0.75497 0.88545 0.43097 0.0
H3608 H 0.77322 0.83599 0.45287 0.0
H3609 H 0.77189 0.84916 0.48636 0.0
H3610 H 0.79218 0.84868 0.42092 0.0
H3611 H 0.72969 0.83313 0.43907 0.0
H3612 H 0.7002 0.83968 0.45151 0.0
H3613 H 0.69201 0.87509 0.40511 0.0
H3614 H 0.72162 0.86896 0.39255 0.0
H3615 H 0.7651 0.78345 0.33576 0.0
H3616 H 0.77001 0.79936 0.36888 0.0
H3617 H 0.74908 0.84776 0.34755 0.0
H3618 H 0.74417 0.8321 0.31462 0.0
H3619 H 0.73219 0.83585 0.37933 0.0
H3620 H 0.79436 0.85029 0.36035 0.0
H3621 H 0.82368 0.84324 0.34792 0.0
H3622 H 0.83242 0.80951 0.39566 0.0
H3623 H 0.80298 0.81613 0.40823 0.0
C3624 C 0.75826 0.88523 0.46218 0.0
C3625 C 0.7626 0.87498 0.47803 0.0
C3626 C 0.75891 0.87759 0.44303 0.0
C3627 C 0.76406 0.85968 0.43949 0.0
C3628 C 0.76923 0.84983 0.45531 0.0
C3629 C 0.76838 0.85735 0.47442 0.0
C3630 C 0.76286 0.85065 0.41932 0.0
C3631 C 0.77906 0.84571 0.41185 0.0
C3632 C 0.74576 0.847 0.40748 0.0
C3633 C 0.72798 0.85076 0.41501 0.0
C3634 C 0.72169 0.84246 0.43163 0.0
C3635 C 0.70494 0.84607 0.43868 0.0
C3636 C 0.69427 0.85783 0.42913 0.0
C3637 C 0.70031 0.866 0.41251 0.0
C3638 C 0.71708 0.86246 0.40541 0.0
C3639 C 0.76174 0.79755 0.33811 0.0
C3640 C 0.75417 0.80647 0.32257 0.0
C3641 C 0.76459 0.80664 0.35701 0.0
C3642 C 0.7599 0.82474 0.36064 0.0
C3643 C 0.75273 0.83377 0.34508 0.0
C3644 C 0.74998 0.82479 0.32623 0.0
C3645 C 0.76155 0.834 0.38077 0.0
C3646 C 0.74537 0.83891 0.38831 0.0
C3647 C 0.77865 0.83755 0.39263 0.0
C3648 C 0.79636 0.83354 0.38511 0.0
C3649 C 0.80244 0.84122 0.3681 0.0
C3650 C 0.8191 0.83734 0.36105 0.0
C3651 C 0.82988 0.82589 0.37096 0.0
C3652 C 0.82404 0.81835 0.38798 0.0
C3653 C 0.80737 0.82217 0.39508 0.0
H3654 H 0.84278 0.8229 0.36548 0.0
H3655 H 0.68127 0.86054 0.43457 0.0
H3656 H 0.38112 0.5133 0.8224 0.0
H3657 H 0.39586 0.51131 0.85522 0.0
H3658 H 0.44409 0.49452 0.83026 0.0
H3659 H 0.42951 0.49656 0.79746 0.0
H3660 H 0.43392 0.47456 0.86242 0.0
H3661 H 0.44661 0.53825 0.84547 0.0
H3662 H 0.43889 0.56805 0.83403 0.0
H3663 H 0.40529 0.57435 0.88197 0.0
H3664 H 0.41258 0.5444 0.89353 0.0
H3665 H 0.49877 0.50317 0.94859 0.0
H3666 H 0.48325 0.49774 0.91527 0.0
H3667 H 0.43355 0.51505 0.9363 0.0
H3668 H 0.44872 0.52036 0.96934 0.0
H3669 H 0.4456 0.53419 0.90543 0.0
H3670 H 0.43345 0.4703 0.92259 0.0
H3671 H 0.44176 0.44068 0.93393 0.0
H3672 H 0.47523 0.43506 0.88576 0.0
H3673 H 0.46733 0.46482 0.87429 0.0
C3674 C 0.39474 0.50893 0.82391 0.0
C3675 C 0.40423 0.50524 0.80739 0.0
C3676 C 0.40316 0.50784 0.84264 0.0
C3677 C 0.42114 0.50294 0.84514 0.0
C3678 C 0.43022 0.49833 0.82864 0.0
C3679 C 0.4219 0.49958 0.80993 0.0
C3680 C 0.43096 0.50395 0.86493 0.0
C3681 C 0.43666 0.48762 0.87178 0.0
C3682 C 0.43441 0.52097 0.87714 0.0
C3683 C 0.42997 0.53897 0.87023 0.0
C3684 C 0.43743 0.54589 0.85347 0.0
C3685 C 0.43316 0.56283 0.84698 0.0
C3686 C 0.42156 0.57306 0.85723 0.0
C3687 C 0.41424 0.56639 0.87402 0.0
C3688 C 0.41845 0.54944 0.88055 0.0
C3689 C 0.48445 0.50554 0.94613 0.0
C3690 C 0.47505 0.51235 0.96159 0.0
C3691 C 0.4756 0.50241 0.92711 0.0
C3692 C 0.45727 0.50608 0.92334 0.0
C3693 C 0.44772 0.51224 0.93888 0.0
C3694 C 0.45645 0.51525 0.95779 0.0
C3695 C 0.44829 0.50474 0.90314 0.0
C3696 C 0.44284 0.52109 0.89613 0.0
C3697 C 0.44518 0.48777 0.89083 0.0
C3698 C 0.44998 0.4699 0.89771 0.0
C3699 C 0.44273 0.46285 0.91452 0.0
C3700 C 0.44734 0.44601 0.92095 0.0
C3701 C 0.45906 0.43603 0.91061 0.0
C3702 C 0.46617 0.44283 0.89378 0.0
C3703 C 0.46163 0.45968 0.8873 0.0
H3704 H 0.4626 0.42299 0.9156 0.0
H3705 H 0.41829 0.58618 0.8522 0.0
H3706 H 0.78676 0.13892 0.08035 0.0
H3707 H 0.78959 0.15383 0.11385 0.0
H3708 H 0.81669 0.20557 0.09421 0.0
H3709 H 0.81385 0.19087 0.06089 0.0
H3710 H 0.8174 0.17972 0.14349 0.0
H3711 H 0.78604 0.23572 0.10297 0.0
H3712 H 0.76941 0.23881 0.07104 0.0
H3713 H 0.74497 0.18049 0.06763 0.0
H3714 H 0.76115 0.1772 0.09969 0.0
H3715 H 0.80361 0.26073 0.20797 0.0
H3716 H 0.81219 0.2427 0.1791 0.0
H3717 H 0.75805 0.20815 0.17379 0.0
H3718 H 0.74968 0.22561 0.20275 0.0
H3719 H 0.77168 0.2244 0.13797 0.0
H3720 H 0.78667 0.18772 0.19101 0.0
H3721 H 0.80191 0.18241 0.22286 0.0
H3722 H 0.85572 0.19864 0.20238 0.0
H3723 H 0.84078 0.20436 0.17044 0.0
C3724 C 0.79416 0.15316 0.08338 0.0
C3725 C 0.79978 0.16388 0.06804 0.0
C3726 C 0.79578 0.16165 0.10251 0.0
C3727 C 0.80307 0.18086 0.10635 0.0
C3728 C 0.81094 0.19076 0.09148 0.0
C3729 C 0.80924 0.18236 0.07244 0.0
C3730 C 0.79859 0.19159 0.12402 0.0
C3731 C 0.80751 0.18956 0.14234 0.0
C3732 C 0.78539 0.20413 0.12247 0.0
C3733 C 0.77498 0.20618 0.10359 0.0
C3734 C 0.77702 0.22361 0.09544 0.0
C3735 C 0.76768 0.22539 0.07733 0.0
C3736 C 0.7562 0.20984 0.06728 0.0
C3737 C 0.75391 0.19251 0.07539 0.0
C3738 C 0.76317 0.19068 0.09353 0.0
C3739 C 0.79352 0.24945 0.20041 0.0
C3740 C 0.776 0.24455 0.20743 0.0
C3741 C 0.79847 0.23909 0.18413 0.0
C3742 C 0.78577 0.22404 0.17454 0.0
C3743 C 0.76803 0.21966 0.18111 0.0
C3744 C 0.76327 0.22966 0.19757 0.0
C3745 C 0.79072 0.21284 0.15746 0.0
C3746 C 0.78177 0.21475 0.13917 0.0
C3747 C 0.80358 0.19997 0.15919 0.0
C3748 C 0.8126 0.19673 0.17842 0.0
C3749 C 0.80174 0.1904 0.19336 0.0
C3750 C 0.81033 0.18724 0.21142 0.0
C3751 C 0.82976 0.19024 0.21467 0.0
C3752 C 0.84066 0.19637 0.19985 0.0
C3753 C 0.83214 0.19956 0.18176 0.0
H3754 H 0.83637 0.18775 0.22866 0.0
H3755 H 0.74904 0.21123 0.05323 0.0
H3756 H 0.09208 0.5071 0.29863 0.0
H3757 H 0.07853 0.5155 0.32863 0.0
H3758 H 0.13353 0.52795 0.35922 0.0
H3759 H 0.1472 0.51894 0.32916 0.0
H3760 H 0.11186 0.50589 0.37852 0.0
H3761 H 0.10611 0.56314 0.35061 0.0
H3762 H 0.09821 0.58376 0.32524 0.0
H3763 H 0.04033 0.56021 0.32397 0.0
H3764 H 0.0479 0.53922 0.34914 0.0
H3765 H 0.07117 0.52727 0.46538 0.0
H3766 H 0.08945 0.53093 0.43722 0.0
H3767 H 0.03874 0.51883 0.39866 0.0
H3768 H 0.02036 0.51628 0.4271 0.0
H3769 H 0.06163 0.545 0.38518 0.0
H3770 H 0.07096 0.48162 0.40524 0.0
H3771 H 0.08042 0.45931 0.42833 0.0
H3772 H 0.13242 0.49577 0.44413 0.0
H3773 H 0.12349 0.51797 0.42075 0.0
C3774 C 0.10135 0.51188 0.31167 0.0
C3775 C 0.1207 0.51224 0.31161 0.0
C3776 C 0.09357 0.51686 0.3288 0.0
C3777 C 0.10501 0.5226 0.34616 0.0
C3778 C 0.12444 0.52361 0.34597 0.0
C3779 C 0.13223 0.51847 0.32882 0.0
C3780 C 0.09646 0.52549 0.3648 0.0
C3781 C 0.10118 0.51481 0.3801 0.0
C3782 C 0.08227 0.53683 0.36679 0.0
C3783 C 0.0776 0.54951 0.35171 0.0
C3784 C 0.09171 0.56225 0.34484 0.0
C3785 C 0.08728 0.57403 0.3305 0.0
C3786 C 0.06878 0.57328 0.32298 0.0
C3787 C 0.05465 0.56078 0.32981 0.0
C3788 C 0.059 0.54896 0.34414 0.0
C3789 C 0.06399 0.52553 0.45085 0.0
C3790 C 0.04446 0.52138 0.44825 0.0
C3791 C 0.07442 0.52743 0.43478 0.0
C3792 C 0.06555 0.52454 0.41576 0.0
C3793 C 0.04592 0.521 0.41319 0.0
C3794 C 0.03542 0.51958 0.42937 0.0
C3795 C 0.07672 0.52499 0.39858 0.0
C3796 C 0.07249 0.53632 0.38361 0.0
C3797 C 0.09148 0.51434 0.39686 0.0
C3798 C 0.09644 0.50153 0.41155 0.0
C3799 C 0.0843 0.48493 0.41384 0.0
C3800 C 0.08959 0.47229 0.42688 0.0
C3801 C 0.10688 0.47624 0.43786 0.0
C3802 C 0.119 0.49275 0.43567 0.0
C3803 C 0.11389 0.50531 0.42246 0.0
H3804 H 0.11092 0.46645 0.44797 0.0
H3805 H 0.06539 0.58241 0.31187 0.0
H3806 H 0.7543 0.8802 0.59303 0.0
H3807 H 0.74819 0.86606 0.6238 0.0
H3808 H 0.74832 0.81079 0.59514 0.0
H3809 H 0.75417 0.82458 0.56469 0.0
H3810 H 0.72078 0.8101 0.61907 0.0
H3811 H 0.78692 0.83452 0.62215 0.0
H3812 H 0.814 0.85947 0.62173 0.0
H3813 H 0.79596 0.89025 0.67065 0.0
H3814 H 0.76862 0.86556 0.67119 0.0
H3815 H 0.74378 0.7527 0.69457 0.0
H3816 H 0.7418 0.77036 0.66557 0.0
H3817 H 0.74442 0.82191 0.70246 0.0
H3818 H 0.74674 0.80452 0.73132 0.0
H3819 H 0.76793 0.82717 0.67584 0.0
H3820 H 0.70369 0.80096 0.67531 0.0
H3821 H 0.67672 0.77595 0.67592 0.0
H3822 H 0.69065 0.74873 0.62268 0.0
H3823 H 0.71787 0.77346 0.62188 0.0
C3824 C 0.75282 0.86503 0.59329 0.0
C3825 C 0.75496 0.85358 0.57643 0.0
C3826 C 0.7494 0.85697 0.61087 0.0
C3827 C 0.74797 0.83735 0.61181 0.0
C3828 C 0.74936 0.82593 0.59481 0.0
C3829 C 0.75286 0.83391 0.5774 0.0
C3830 C 0.74595 0.82847 0.63051 0.0
C3831 C 0.73111 0.81379 0.63149 0.0
C3832 C 0.75919 0.83353 0.64686 0.0
C3833 C 0.77562 0.84833 0.64656 0.0
C3834 C 0.78865 0.84669 0.63271 0.0
C3835 C 0.80406 0.86076 0.63247 0.0
C3836 C 0.80667 0.87647 0.64611 0.0
C3837 C 0.7939 0.8781 0.66006 0.0
C3838 C 0.77845 0.86407 0.66035 0.0
C3839 C 0.74369 0.76775 0.69647 0.0
C3840 C 0.7455 0.77719 0.71526 0.0
C3841 C 0.74251 0.77784 0.67989 0.0
C3842 C 0.74287 0.7975 0.6818 0.0
C3843 C 0.7442 0.8068 0.70057 0.0
C3844 C 0.74549 0.79679 0.71708 0.0
C3845 C 0.74288 0.80856 0.66436 0.0
C3846 C 0.75739 0.82363 0.6636 0.0
C3847 C 0.7293 0.80387 0.64824 0.0
C3848 C 0.71292 0.78899 0.64863 0.0
C3849 C 0.70109 0.78957 0.66381 0.0
C3850 C 0.68574 0.77545 0.66417 0.0
C3851 C 0.682 0.76074 0.64937 0.0
C3852 C 0.69358 0.76013 0.63414 0.0
C3853 C 0.70896 0.77421 0.63371 0.0
H3854 H 0.67011 0.74982 0.64968 0.0
H3855 H 0.8186 0.88735 0.64591 0.0
H3856 H 0.72422 0.43517 0.52892 0.0
H3857 H 0.70023 0.45372 0.53852 0.0
H3858 H 0.65908 0.40349 0.53068 0.0
H3859 H 0.68285 0.38497 0.52084 0.0
H3860 H 0.64699 0.43128 0.51235 0.0
H3861 H 0.67606 0.42451 0.57626 0.0
H3862 H 0.70223 0.4273 0.60177 0.0
H3863 H 0.71194 0.48732 0.59931 0.0
H3864 H 0.68597 0.48486 0.57358 0.0
H3865 H 0.57014 0.45287 0.55277 0.0
H3866 H 0.60026 0.44179 0.55489 0.0
H3867 H 0.62802 0.49812 0.54953 0.0
H3868 H 0.59765 0.50946 0.54781 0.0
H3869 H 0.64882 0.47135 0.57449 0.0
H3870 H 0.62024 0.47774 0.50966 0.0
H3871 H 0.59147 0.47516 0.48762 0.0
H3872 H 0.58029 0.41569 0.49333 0.0
H3873 H 0.60893 0.41796 0.51562 0.0
C3874 C 0.7101 0.42805 0.52946 0.0
C3875 C 0.70541 0.4086 0.52405 0.0
C3876 C 0.69641 0.43867 0.535 0.0
C3877 C 0.67785 0.43 0.53536 0.0
C3878 C 0.67329 0.4105 0.53043 0.0
C3879 C 0.68692 0.39991 0.52487 0.0
C3880 C 0.66289 0.44122 0.53983 0.0
C3881 C 0.64747 0.43997 0.52597 0.0
C3882 C 0.66361 0.453 0.55738 0.0
C3883 C 0.67922 0.45448 0.57284 0.0
C3884 C 0.68388 0.43829 0.58103 0.0
C3885 C 0.69866 0.43981 0.59556 0.0
C3886 C 0.70878 0.45747 0.60211 0.0
C3887 C 0.70411 0.47365 0.59419 0.0
C3888 C 0.68936 0.4722 0.57965 0.0
C3889 C 0.58271 0.46303 0.55277 0.0
C3890 C 0.58164 0.48195 0.54992 0.0
C3891 C 0.5999 0.4567 0.55408 0.0
C3892 C 0.6163 0.4691 0.55215 0.0
C3893 C 0.6155 0.48839 0.55116 0.0
C3894 C 0.59818 0.49483 0.55013 0.0
C3895 C 0.63309 0.46106 0.54715 0.0
C3896 C 0.64869 0.46289 0.56078 0.0
C3897 C 0.6327 0.44986 0.52935 0.0
C3898 C 0.61664 0.44804 0.51437 0.0
C3899 C 0.61168 0.4641 0.50613 0.0
C3900 C 0.59537 0.46271 0.49367 0.0
C3901 C 0.58396 0.44532 0.48927 0.0
C3902 C 0.58909 0.42917 0.49688 0.0
C3903 C 0.6054 0.43049 0.50937 0.0
H3904 H 0.57114 0.44436 0.47995 0.0
H3905 H 0.72021 0.45862 0.61336 0.0
H3906 H 0.22043 0.08373 0.48367 0.0
H3907 H 0.19093 0.06267 0.48568 0.0
H3908 H 0.16113 0.11007 0.48391 0.0
H3909 H 0.19021 0.13106 0.48158 0.0
H3910 H 0.15409 0.08684 0.51577 0.0
H3911 H 0.15707 0.0818 0.44535 0.0
H3912 H 0.17173 0.07441 0.41521 0.0
H3913 H 0.17162 0.01745 0.42984 0.0
H3914 H 0.15719 0.02459 0.46024 0.0
H3915 H 0.05907 0.05517 0.50205 0.0
H3916 H 0.09076 0.06931 0.4974 0.0
H3917 H 0.10696 0.01411 0.49051 0.0
H3918 H 0.07491 0.9997 0.49483 0.0
H3919 H 0.12328 0.03721 0.46503 0.0
H3920 H 0.11818 0.04009 0.53321 0.0
H3921 H 0.1039 0.04614 0.56389 0.0
H3922 H 0.10948 0.10511 0.55534 0.0
H3923 H 0.12352 0.09937 0.52441 0.0
C3924 C 0.20757 0.08963 0.48348 0.0
C3925 C 0.20775 0.10912 0.48248 0.0
C3926 C 0.19074 0.07757 0.48462 0.0
C3927 C 0.17388 0.08485 0.48501 0.0
C3928 C 0.174 0.10419 0.48368 0.0
C3929 C 0.19068 0.11616 0.48226 0.0
C3930 C 0.15609 0.07263 0.48761 0.0
C3931 C 0.14729 0.07606 0.50464 0.0
C3932 C 0.14762 0.05806 0.47344 0.0
C3933 C 0.15628 0.0538 0.45518 0.0
C3934 C 0.16035 0.06776 0.44224 0.0
C3935 C 0.16857 0.0636 0.42509 0.0
C3936 C 0.17266 0.04549 0.42064 0.0
C3937 C 0.16848 0.03149 0.43332 0.0
C3938 C 0.16028 0.03558 0.45051 0.0
C3939 C 0.06931 0.04597 0.49947 0.0
C3940 C 0.06449 0.02629 0.49904 0.0
C3941 C 0.08747 0.0541 0.49686 0.0
C3942 C 0.10136 0.04281 0.49401 0.0
C3943 C 0.09649 0.02311 0.4928 0.0
C3944 C 0.07819 0.0149 0.49529 0.0
C3945 C 0.12097 0.05185 0.49294 0.0
C3946 C 0.13016 0.04781 0.4763 0.0
C3947 C 0.13001 0.06567 0.50765 0.0
C3948 C 0.12181 0.06927 0.52641 0.0
C3949 C 0.11627 0.05434 0.5378 0.0
C3950 C 0.10822 0.05771 0.55525 0.0
C3951 C 0.10577 0.07599 0.56155 0.0
C3952 C 0.11139 0.09095 0.55044 0.0
C3953 C 0.11942 0.08765 0.53295 0.0
H3954 H 0.09953 0.07858 0.57506 0.0
H3955 H 0.17902 0.0423 0.40735 0.0
H3956 H 0.13998 0.9391 0.78245 0.0
H3957 H 0.15608 0.91183 0.77788 0.0
H3958 H 0.20474 0.9479 0.76287 0.0
H3959 H 0.18868 0.97534 0.76739 0.0
H3960 H 0.19682 0.91458 0.73878 0.0
H3961 H 0.20439 0.93339 0.8074 0.0
H3962 H 0.19453 0.94184 0.83991 0.0
H3963 H 0.16115 0.88733 0.83891 0.0
H3964 H 0.17057 0.87865 0.80625 0.0
H3965 H 0.25328 0.84031 0.74947 0.0
H3966 H 0.24144 0.87064 0.75092 0.0
H3967 H 0.19104 0.84416 0.77305 0.0
H3968 H 0.20288 0.81434 0.77214 0.0
H3969 H 0.20353 0.87523 0.79425 0.0
H3970 H 0.19332 0.85719 0.72486 0.0
H3971 H 0.20273 0.84822 0.69227 0.0
H3972 H 0.24034 0.90039 0.69459 0.0
H3973 H 0.23131 0.90957 0.72731 0.0
C3974 C 0.15406 0.94125 0.77802 0.0
C3975 C 0.16308 0.95942 0.77538 0.0
C3976 C 0.16328 0.92564 0.7755 0.0
C3977 C 0.18172 0.92785 0.77029 0.0
C3978 C 0.19055 0.94587 0.76696 0.0
C3979 C 0.18135 0.96154 0.76958 0.0
C3980 C 0.19183 0.91135 0.76884 0.0
C3981 C 0.19854 0.9061 0.75098 0.0
C3982 C 0.19389 0.90017 0.78469 0.0
C3983 C 0.18805 0.90544 0.80427 0.0
C3984 C 0.1948 0.92327 0.81402 0.0
C3985 C 0.18931 0.92809 0.8325 0.0
C3986 C 0.17718 0.91515 0.84144 0.0
C3987 C 0.1705 0.89736 0.83193 0.0
C3988 C 0.17593 0.89247 0.81345 0.0
C3989 C 0.23964 0.84101 0.7545 0.0
C3990 C 0.2291 0.82496 0.76082 0.0
C3991 C 0.23285 0.85832 0.75528 0.0
C3992 C 0.2153 0.85973 0.7621 0.0
C3993 C 0.20467 0.84355 0.76791 0.0
C3994 C 0.21148 0.82644 0.76734 0.0
C3995 C 0.20798 0.878 0.76398 0.0
C3996 C 0.2019 0.88371 0.78203 0.0
C3997 C 0.20639 0.88946 0.74827 0.0
C3998 C 0.21181 0.88396 0.72862 0.0
C3999 C 0.20371 0.86668 0.71848 0.0
C4000 C 0.20895 0.86157 0.69997 0.0
C4001 C 0.22217 0.87369 0.69139 0.0
C4002 C 0.23013 0.89099 0.70127 0.0
C4003 C 0.22495 0.89616 0.71979 0.0
H4004 H 0.2262 0.86972 0.67706 0.0
H4005 H 0.17299 0.91889 0.85577 0.0
H4006 H 0.31783 0.8801 0.98572 0.0
H4007 H 0.34846 0.89923 0.98621 0.0
H4008 H 0.32346 0.94986 0.99065 0.0
H4009 H 0.29254 0.93079 0.9905 0.0
H4010 H 0.35408 0.94839 0.96315 0.0
H4011 H 0.34056 0.94223 0.02948 0.0
H4012 H 0.33024 0.92575 0.05778 0.0
H4013 H 0.37359 0.89157 0.05321 0.0
H4014 H 0.38397 0.90763 0.02464 0.0
H4015 H 0.44447 0.00344 -5e-05 0.0
H4016 H 0.41118 0.99093 0.9926 0.0
H4017 H 0.42333 0.93446 0.9969 0.0
H4018 H 0.45627 0.94675 0.00443 0.0
H4019 H 0.39732 0.94331 0.02111 0.0
H4020 H 0.40985 0.94856 0.95368 0.0
H4021 H 0.42045 0.96545 0.92572 0.0
H4022 H 0.37949 0.00209 0.93287 0.0
H4023 H 0.36881 0.98557 0.96107 0.0
C4024 C 0.31872 0.89528 0.98651 0.0
C4025 C 0.30271 0.90391 0.98821 0.0
C4026 C 0.33626 0.90618 0.98682 0.0
C4027 C 0.33817 0.9259 0.98859 0.0
C4028 C 0.3222 0.93463 0.98927 0.0
C4029 C 0.3046 0.92371 0.98925 0.0
C4030 C 0.35704 0.93712 0.99111 0.0
C4031 C 0.3635 0.94761 0.97594 0.0
C4032 C 0.36926 0.9359 0.00776 0.0
C4033 C 0.36289 0.92599 0.02476 0.0
C4034 C 0.34774 0.93104 0.03435 0.0
C4035 C 0.34192 0.92181 0.05047 0.0
C4036 C 0.35122 0.90758 0.05725 0.0
C4037 C 0.36638 0.90257 0.04792 0.0
C4038 C 0.37224 0.91173 0.03176 0.0
C4039 C 0.44006 0.98833 0.99889 0.0
C4040 C 0.45298 0.97606 0.00286 0.0
C4041 C 0.42106 0.98122 0.99469 0.0
C4042 C 0.41481 0.96178 0.99434 0.0
C4043 C 0.42785 0.94951 0.99722 0.0
C4044 C 0.44671 0.95657 0.00143 0.0
C4045 C 0.39467 0.95411 0.99285 0.0
C4046 C 0.38792 0.94432 0.00835 0.0
C4047 C 0.38227 0.95606 0.97656 0.0
C4048 C 0.38869 0.96599 0.95963 0.0
C4049 C 0.40323 0.96034 0.94942 0.0
C4050 C 0.40922 0.96982 0.9335 0.0
C4051 C 0.40069 0.98487 0.92757 0.0
C4052 C 0.38611 0.99045 0.93751 0.0
C4053 C 0.38007 0.98103 0.95345 0.0
H4054 H 0.40535 0.99218 0.91523 0.0
H4055 H 0.3467 0.90047 0.06976 0.0
H4056 H 0.8784 0.58819 0.77666 0.0
H4057 H 0.8573 0.61038 0.76856 0.0
H4058 H 0.81524 0.56444 0.74394 0.0
H4059 H 0.8363 0.5419 0.75227 0.0
H4060 H 0.82252 0.60075 0.7218 0.0
H4061 H 0.80612 0.57774 0.78306 0.0
H4062 H 0.81243 0.56887 0.81653 0.0
H4063 H 0.83893 0.62542 0.83465 0.0
H4064 H 0.83311 0.63455 0.8012 0.0
H4065 H 0.7634 0.67535 0.72862 0.0
H4066 H 0.77342 0.64407 0.7275 0.0
H4067 H 0.82184 0.66691 0.76673 0.0
H4068 H 0.81223 0.69772 0.76778 0.0
H4069 H 0.80264 0.63569 0.77931 0.0
H4070 H 0.82605 0.65695 0.71899 0.0
H4071 H 0.82222 0.66776 0.68597 0.0
H4072 H 0.78483 0.61673 0.6667 0.0
H4073 H 0.78828 0.60577 0.69973 0.0
C4074 C 0.86476 0.58276 0.76931 0.0
C4075 C 0.85895 0.56329 0.76523 0.0
C4076 C 0.85274 0.59546 0.76471 0.0
C4077 C 0.83474 0.58897 0.75579 0.0
C4078 C 0.82912 0.56963 0.75082 0.0
C4079 C 0.84112 0.55683 0.75565 0.0
C4080 C 0.82169 0.60259 0.75305 0.0
C4081 C 0.8177 0.60811 0.73427 0.0
C4082 C 0.81567 0.61225 0.76941 0.0
C4083 C 0.81928 0.60678 0.78956 0.0
C4084 C 0.81346 0.58823 0.79412 0.0
C4085 C 0.81693 0.58317 0.81311 0.0
C4086 C 0.8261 0.59657 0.8277 0.0
C4087 C 0.83184 0.61506 0.82333 0.0
C4088 C 0.82845 0.62018 0.80436 0.0
C4089 C 0.77628 0.67366 0.73677 0.0
C4090 C 0.78689 0.68891 0.74848 0.0
C4091 C 0.78196 0.65583 0.73614 0.0
C4092 C 0.79829 0.6532 0.74718 0.0
C4093 C 0.80911 0.66861 0.75825 0.0
C4094 C 0.80355 0.68624 0.75883 0.0
C4095 C 0.80421 0.63449 0.74817 0.0
C4096 C 0.80685 0.62797 0.76671 0.0
C4097 C 0.80922 0.62417 0.73166 0.0
C4098 C 0.80721 0.63069 0.71184 0.0
C4099 C 0.81688 0.64814 0.70774 0.0
C4100 C 0.81481 0.65427 0.68903 0.0
C4101 C 0.80323 0.64297 0.67427 0.0
C4102 C 0.79376 0.62549 0.67817 0.0
C4103 C 0.79577 0.61931 0.69688 0.0
H4104 H 0.80165 0.64773 0.65978 0.0
H4105 H 0.82874 0.59263 0.8424 0.0
H4106 H 0.79536 0.58188 0.01818 0.0
H4107 H 0.82236 0.56564 0.02392 0.0
H4108 H 0.85908 0.61589 0.01334 0.0
H4109 H 0.83223 0.63212 0.00746 0.0
H4110 H 0.86671 0.58547 0.99235 0.0
H4111 H 0.85593 0.60113 0.05935 0.0
H4112 H 0.83737 0.60147 0.08781 0.0
H4113 H 0.82899 0.54099 0.0842 0.0
H4114 H 0.8473 0.54028 0.05553 0.0
H4115 H 0.95551 0.56901 0.0236 0.0
H4116 H 0.92571 0.58031 0.02063 0.0
H4117 H 0.89769 0.52597 0.03295 0.0
H4118 H 0.92797 0.51447 0.03633 0.0
H4119 H 0.88356 0.5547 0.05189 0.0
H4120 H 0.88576 0.53938 0.98041 0.0
H4121 H 0.90056 0.53862 0.94933 0.0
H4122 H 0.92435 0.59687 0.96153 0.0
H4123 H 0.90879 0.59822 0.99214 0.0
C4124 C 0.8092 0.58953 0.01728 0.0
C4125 C 0.81163 0.6083 0.0123 0.0
C4126 C 0.82464 0.58024 0.02064 0.0
C4127 C 0.84279 0.58954 0.01914 0.0
C4128 C 0.84522 0.60839 0.01456 0.0
C4129 C 0.82984 0.61768 0.01125 0.0
C4130 C 0.85923 0.57946 0.02113 0.0
C4131 C 0.87044 0.57892 0.00549 0.0
C4132 C 0.86379 0.57024 0.03792 0.0
C4133 C 0.85281 0.57065 0.05516 0.0
C4134 C 0.84999 0.5879 0.06451 0.0
C4135 C 0.83954 0.58816 0.08071 0.0
C4136 C 0.83195 0.57127 0.08777 0.0
C4137 C 0.83484 0.55407 0.07869 0.0
C4138 C 0.84527 0.55373 0.06248 0.0
C4139 C 0.94306 0.55935 0.0257 0.0
C4140 C 0.94414 0.5407 0.0299 0.0
C4141 C 0.92594 0.56583 0.02377 0.0
C4142 C 0.90932 0.55385 0.02586 0.0
C4143 C 0.91031 0.53541 0.03096 0.0
C4144 C 0.92761 0.52887 0.03298 0.0
C4145 C 0.89119 0.56111 0.02326 0.0
C4146 C 0.87967 0.5611 0.03873 0.0
C4147 C 0.88615 0.56977 0.00627 0.0
C4148 C 0.89644 0.5688 0.98864 0.0
C4149 C 0.89426 0.55197 0.9765 0.0
C4150 C 0.90262 0.55148 0.95889 0.0
C4151 C 0.91361 0.5676 0.95359 0.0
C4152 C 0.91594 0.58436 0.9657 0.0
C4153 C 0.9072 0.58505 0.98306 0.0
H4154 H 0.92022 0.56711 0.94006 0.0
H4155 H 0.82387 0.5715 0.10032 0.0
H4156 H 0.18304 0.05033 0.79918 0.0
H4157 H 0.20465 0.0796 0.79705 0.0
H4158 H 0.1581 0.11006 0.79085 0.0
H4159 H 0.13651 0.08117 0.79334 0.0
H4160 H 0.18522 0.11464 0.76126 0.0
H4161 H 0.18147 0.11634 0.83175 0.0
H4162 H 0.18497 0.10337 0.86374 0.0
H4163 H 0.24306 0.10225 0.85741 0.0
H4164 H 0.23984 0.11496 0.82523 0.0
H4165 H 0.21433 0.21064 0.77132 0.0
H4166 H 0.20024 0.17874 0.7758 0.0
H4167 H 0.25433 0.16486 0.79368 0.0
H4168 H 0.26867 0.19734 0.78981 0.0
H4169 H 0.22825 0.14896 0.81588 0.0
H4170 H 0.23431 0.15038 0.74831 0.0
H4171 H 0.23244 0.16279 0.71594 0.0
H4172 H 0.17275 0.15613 0.715 0.0
H4173 H 0.17426 0.14403 0.74755 0.0
C4174 C 0.17742 0.0633 0.79756 0.0
C4175 C 0.15802 0.06338 0.79645 0.0
C4176 C 0.18979 0.07999 0.79635 0.0
C4177 C 0.18294 0.09695 0.79373 0.0
C4178 C 0.16364 0.0971 0.79283 0.0
C4179 C 0.15133 0.08056 0.79436 0.0
C4180 C 0.19566 0.11455 0.7913 0.0
C4181 C 0.19457 0.12222 0.7732 0.0
C4182 C 0.20844 0.12394 0.80665 0.0
C4183 C 0.21036 0.11636 0.82599 0.0
C4184 C 0.19495 0.11314 0.83709 0.0
C4185 C 0.19689 0.10588 0.85527 0.0
C4186 C 0.21421 0.10193 0.86257 0.0
C4187 C 0.22964 0.10528 0.85172 0.0
C4188 C 0.22777 0.11252 0.83352 0.0
C4189 C 0.22333 0.20094 0.77635 0.0
C4190 C 0.24269 0.20661 0.78015 0.0
C4191 C 0.21521 0.18259 0.77879 0.0
C4192 C 0.22624 0.16925 0.78469 0.0
C4193 C 0.24555 0.17489 0.789 0.0
C4194 C 0.25373 0.19344 0.78674 0.0
C4195 C 0.21732 0.14946 0.78599 0.0
C4196 C 0.21915 0.1413 0.8038 0.0
C4197 C 0.20547 0.13937 0.77022 0.0
C4198 C 0.20441 0.14638 0.75046 0.0
C4199 C 0.22078 0.15166 0.74127 0.0
C4200 C 0.21979 0.15864 0.72288 0.0
C4201 C 0.20249 0.16026 0.71343 0.0
C4202 C 0.18614 0.15487 0.72234 0.0
C4203 C 0.18706 0.14793 0.74076 0.0
H4204 H 0.20175 0.16567 0.6992 0.0
H4205 H 0.21569 0.09631 0.87665 0.0
H4206 H 0.35116 0.98418 0.29447 0.0
H4207 H 0.32886 0.95539 0.29502 0.0
H4208 H 0.37435 0.92391 0.30461 0.0
H4209 H 0.39667 0.95272 0.30479 0.0
H4210 H 0.32454 0.92769 0.2695 0.0
H4211 H 0.36138 0.8834 0.32401 0.0
H4212 H 0.37949 0.88847 0.35617 0.0
H4213 H 0.35469 0.93777 0.37008 0.0
H4214 H 0.33622 0.93285 0.33813 0.0
H4215 H 0.31395 0.83196 0.24105 0.0
H4216 H 0.32465 0.86471 0.25305 0.0
H4217 H 0.28982 0.85849 0.3008 0.0
H4218 H 0.27877 0.82542 0.28863 0.0
H4219 H 0.32667 0.8756 0.31249 0.0
H4220 H 0.27687 0.88576 0.2681 0.0
H4221 H 0.25618 0.88387 0.23775 0.0
H4222 H 0.30279 0.90514 0.20684 0.0
H4223 H 0.32378 0.90715 0.23701 0.0
C4224 C 0.35641 0.97119 0.29711 0.0
C4225 C 0.3757 0.9707 0.29939 0.0
C4226 C 0.34363 0.95473 0.29743 0.0
C4227 C 0.34987 0.93744 0.29989 0.0
C4228 C 0.36912 0.93709 0.30308 0.0
C4229 C 0.38191 0.9536 0.30303 0.0
C4230 C 0.33656 0.91952 0.29654 0.0
C4231 C 0.32488 0.91641 0.27907 0.0
C4232 C 0.33658 0.90489 0.3092 0.0
C4233 C 0.34748 0.9078 0.32859 0.0
C4234 C 0.35969 0.89525 0.33397 0.0
C4235 C 0.37005 0.89812 0.35216 0.0
C4236 C 0.36828 0.91346 0.36515 0.0
C4237 C 0.3561 0.92593 0.35999 0.0
C4238 C 0.3457 0.92312 0.34182 0.0
C4239 C 0.30847 0.83752 0.25407 0.0
C4240 C 0.29556 0.8261 0.26395 0.0
C4241 C 0.31452 0.85629 0.26083 0.0
C4242 C 0.30791 0.86406 0.27771 0.0
C4243 C 0.29501 0.85275 0.28768 0.0
C4244 C 0.2887 0.83392 0.28072 0.0
C4245 C 0.31542 0.88374 0.28514 0.0
C4246 C 0.32607 0.8871 0.30325 0.0
C4247 C 0.31421 0.89879 0.27328 0.0
C4248 C 0.3019 0.89654 0.25482 0.0
C4249 C 0.28274 0.88984 0.25479 0.0
C4250 C 0.27094 0.88886 0.23764 0.0
C4251 C 0.27816 0.89446 0.2204 0.0
C4252 C 0.29721 0.90088 0.22022 0.0
C4253 C 0.30906 0.902 0.23736 0.0
H4254 H 0.26899 0.89383 0.20716 0.0
H4255 H 0.37632 0.91566 0.37922 0.0
H4256 H 0.52313 0.30599 0.59928 0.0
H4257 H 0.52128 0.33524 0.58381 0.0
H4258 H 0.50778 0.3616 0.63804 0.0
H4259 H 0.50938 0.33231 0.65355 0.0
H4260 H 0.48476 0.36851 0.60788 0.0
H4261 H 0.55081 0.37198 0.62209 0.0
H4262 H 0.58133 0.361 0.62171 0.0
H4263 H 0.57685 0.35821 0.55905 0.0
H4264 H 0.54615 0.3689 0.55904 0.0
H4265 H 0.50534 0.46534 0.59163 0.0
H4266 H 0.50268 0.43365 0.60258 0.0
H4267 H 0.51359 0.41169 0.54538 0.0
H4268 H 0.51631 0.44348 0.53429 0.0
H4269 H 0.5367 0.40132 0.57459 0.0
H4270 H 0.47119 0.40019 0.56093 0.0
H4271 H 0.44124 0.41221 0.56204 0.0
H4272 H 0.4452 0.41162 0.62447 0.0
H4273 H 0.47532 0.39983 0.62376 0.0
C4274 C 0.51991 0.31806 0.60796 0.0
C4275 C 0.51642 0.31686 0.62765 0.0
C4276 C 0.51889 0.33478 0.5991 0.0
C4277 C 0.51446 0.35064 0.60978 0.0
C4278 C 0.51116 0.34952 0.6295 0.0
C4279 C 0.51219 0.33281 0.63837 0.0
C4280 C 0.51294 0.36831 0.60034 0.0
C4281 C 0.49619 0.37579 0.60078 0.0
C4282 C 0.52765 0.37753 0.5906 0.0
C4283 C 0.54607 0.37101 0.59056 0.0
C4284 C 0.55625 0.36884 0.60822 0.0
C4285 C 0.5736 0.36271 0.60808 0.0
C4286 C 0.581 0.35885 0.59037 0.0
C4287 C 0.57108 0.36116 0.57276 0.0
C4288 C 0.55371 0.36726 0.57282 0.0
C4289 C 0.50679 0.45371 0.58125 0.0
C4290 C 0.51106 0.4569 0.56211 0.0
C4291 C 0.50522 0.43559 0.58752 0.0
C4292 C 0.50792 0.4203 0.57479 0.0
C4293 C 0.51144 0.42331 0.55542 0.0
C4294 C 0.51286 0.44145 0.54907 0.0
C4295 C 0.50858 0.40159 0.58227 0.0
C4296 C 0.5252 0.39392 0.58151 0.0
C4297 C 0.49378 0.39227 0.5918 0.0
C4298 C 0.4756 0.39926 0.59229 0.0
C4299 C 0.46575 0.40276 0.57491 0.0
C4300 C 0.44872 0.4095 0.57547 0.0
C4301 C 0.44134 0.41271 0.59332 0.0
C4302 C 0.45094 0.40913 0.61065 0.0
C4303 C 0.46798 0.40239 0.61018 0.0
H4304 H 0.42816 0.41795 0.59372 0.0
H4305 H 0.59444 0.35412 0.59029 0.0
H4306 H 0.43225 0.75602 0.39477 0.0
H4307 H 0.40356 0.75332 0.37344 0.0
H4308 H 0.43265 0.73756 0.32404 0.0
H4309 H 0.46165 0.7405 0.3453 0.0
H4310 H 0.41145 0.76367 0.31532 0.0
H4311 H 0.40171 0.70498 0.34349 0.0
H4312 H 0.4001 0.68326 0.36955 0.0
H4313 H 0.35712 0.71004 0.39394 0.0
H4314 H 0.35868 0.73216 0.36823 0.0
H4315 H 0.32217 0.74757 0.25787 0.0
H4316 H 0.3524 0.7422 0.27315 0.0
H4317 H 0.33587 0.75901 0.32979 0.0
H4318 H 0.30594 0.76422 0.31486 0.0
H4319 H 0.35164 0.72754 0.33073 0.0
H4320 H 0.36499 0.78891 0.3058 0.0
H4321 H 0.36632 0.81088 0.27994 0.0
H4322 H 0.40225 0.77878 0.24964 0.0
H4323 H 0.40091 0.75646 0.27522 0.0
C4324 C 0.4326 0.75183 0.37941 0.0
C4325 C 0.44934 0.74845 0.37181 0.0
C4326 C 0.4161 0.75019 0.36721 0.0
C4327 C 0.41585 0.745 0.34715 0.0
C4328 C 0.43248 0.74152 0.33948 0.0
C4329 C 0.44904 0.74316 0.3517 0.0
C4330 C 0.39837 0.74408 0.33418 0.0
C4331 C 0.39844 0.75544 0.31844 0.0
C4332 C 0.38132 0.73355 0.33837 0.0
C4333 C 0.38042 0.72033 0.35397 0.0
C4334 C 0.39203 0.70636 0.3545 0.0
C4335 C 0.39111 0.69396 0.36921 0.0
C4336 C 0.37854 0.69529 0.38341 0.0
C4337 C 0.36686 0.70904 0.38294 0.0
C4338 C 0.36775 0.7215 0.36829 0.0
C4339 C 0.32502 0.75011 0.27357 0.0
C4340 C 0.31166 0.75641 0.2851 0.0
C4341 C 0.34229 0.74707 0.28227 0.0
C4342 C 0.34641 0.75026 0.30263 0.0
C4343 C 0.333 0.75638 0.31409 0.0
C4344 C 0.31589 0.75947 0.30546 0.0
C4345 C 0.36467 0.74754 0.31232 0.0
C4346 C 0.36473 0.73549 0.32742 0.0
C4347 C 0.3818 0.75746 0.30759 0.0
C4348 C 0.38266 0.77089 0.29227 0.0
C4349 C 0.37305 0.78645 0.29353 0.0
C4350 C 0.37382 0.79898 0.27895 0.0
C4351 C 0.38431 0.79619 0.26312 0.0
C4352 C 0.39409 0.7809 0.26189 0.0
C4353 C 0.39333 0.76831 0.27642 0.0
H4354 H 0.3849 0.80591 0.25185 0.0
H4355 H 0.37783 0.68566 0.39477 0.0
H4356 H 0.03914 0.72414 0.09658 0.0
H4357 H 0.03724 0.6905 0.08823 0.0
H4358 H 0.00236 0.67891 0.13511 0.0
H4359 H 0.00443 0.71282 0.14392 0.0
H4360 H 0.02875 0.6556 0.1332 0.0
H4361 H 0.98316 0.67542 0.08843 0.0
H4362 H 0.97162 0.69519 0.06389 0.0
H4363 H 0.011 0.67902 0.02502 0.0
H4364 H 0.02295 0.65934 0.04945 0.0
H4365 H 0.9937 0.56038 0.09843 0.0
H4366 H 0.999 0.59353 0.11062 0.0
H4367 H 0.03135 0.60708 0.06221 0.0
H4368 H 0.02567 0.57391 0.0496 0.0
H4369 H 0.00609 0.62941 0.06558 0.0
H4370 H 0.05155 0.60922 0.11009 0.0
H4371 H 0.06316 0.58945 0.13458 0.0
H4372 H 0.02428 0.60604 0.17383 0.0
H4373 H 0.01226 0.62573 0.14946 0.0
C4374 C 0.031 0.71452 0.10516 0.0
C4375 C 0.02178 0.72125 0.12084 0.0
C4376 C 0.02993 0.69525 0.10032 0.0
C4377 C 0.01943 0.68221 0.11084 0.0
C4378 C 0.01049 0.68877 0.12676 0.0
C4379 C 0.01163 0.70814 0.13172 0.0
C4380 C 0.01768 0.66177 0.10493 0.0
C4381 C 0.02355 0.64978 0.11851 0.0
C4382 C 0.01131 0.65431 0.08561 0.0
C4383 C 0.00405 0.66603 0.07084 0.0
C4384 C 0.98945 0.67618 0.0747 0.0
C4385 C 0.98282 0.68736 0.06081 0.0
C4386 C 0.99061 0.6884 0.04293 0.0
C4387 C 0.005 0.67822 0.03889 0.0
C4388 C 0.01169 0.66704 0.05274 0.0
C4389 C 0.0022 0.57035 0.09052 0.0
C4390 C 0.0092 0.56451 0.07299 0.0
C4391 C 0.00529 0.58932 0.09757 0.0
C4392 C 0.01567 0.6028 0.08741 0.0
C4393 C 0.02327 0.59692 0.07028 0.0
C4394 C 0.02007 0.57795 0.06313 0.0
C4395 C 0.01735 0.62317 0.09378 0.0
C4396 C 0.01136 0.63516 0.08028 0.0
C4397 C 0.02362 0.63059 0.11315 0.0
C4398 C 0.03089 0.61882 0.12787 0.0
C4399 C 0.04538 0.60855 0.12388 0.0
C4400 C 0.05205 0.59737 0.13776 0.0
C4401 C 0.04443 0.59645 0.15573 0.0
C4402 C 0.03015 0.60675 0.15989 0.0
C4403 C 0.02342 0.61794 0.14606 0.0
H4404 H 0.04962 0.58779 0.16645 0.0
H4405 H 0.98546 0.69706 0.03219 0.0
H4406 H 0.07017 0.26438 0.89066 0.0
H4407 H 0.09805 0.26499 0.87305 0.0
H4408 H 0.06483 0.23565 0.82241 0.0
H4409 H 0.03669 0.23532 0.8399 0.0
H4410 H 0.11504 0.23837 0.85827 0.0
H4411 H 0.08439 0.25009 0.78112 0.0
H4412 H 0.05876 0.26439 0.76569 0.0
H4413 H 0.0598 0.30196 0.81724 0.0
H4414 H 0.08559 0.28806 0.83286 0.0
H4415 H 0.18229 0.22344 0.79457 0.0
H4416 H 0.15133 0.22233 0.80622 0.0
H4417 H 0.1551 0.28241 0.80338 0.0
H4418 H 0.18594 0.28344 0.79085 0.0
H4419 H 0.11972 0.26536 0.79428 0.0
H4420 H 0.16849 0.26267 0.84451 0.0
H4421 H 0.19494 0.24933 0.85932 0.0
H4422 H 0.15897 0.19748 0.86479 0.0
H4423 H 0.13246 0.21007 0.8489 0.0
C4424 C 0.06876 0.25799 0.8758 0.0
C4425 C 0.05119 0.24983 0.86667 0.0
C4426 C 0.08475 0.25834 0.86574 0.0
C4427 C 0.08355 0.25057 0.84632 0.0
C4428 C 0.06607 0.24203 0.83727 0.0
C4429 C 0.05002 0.24173 0.84733 0.0
C4430 C 0.10069 0.25138 0.83573 0.0
C4431 C 0.11603 0.24423 0.84425 0.0
C4432 C 0.10211 0.25925 0.81755 0.0
C4433 C 0.08678 0.26789 0.80822 0.0
C4434 C 0.07919 0.26145 0.78912 0.0
C4435 C 0.06463 0.26948 0.78035 0.0
C4436 C 0.05762 0.28403 0.7905 0.0
C4437 C 0.0652 0.29064 0.80942 0.0
C4438 C 0.07977 0.28267 0.81825 0.0
C4439 C 0.17638 0.23637 0.7961 0.0
C4440 C 0.18658 0.25357 0.79207 0.0
C4441 C 0.15869 0.23572 0.80278 0.0
C4442 C 0.15108 0.25235 0.80618 0.0
C4443 C 0.16074 0.26941 0.80098 0.0
C4444 C 0.17835 0.27 0.79387 0.0
C4445 C 0.13395 0.25212 0.81672 0.0
C4446 C 0.11867 0.25941 0.80824 0.0
C4447 C 0.13266 0.24462 0.83513 0.0
C4448 C 0.14849 0.23728 0.84532 0.0
C4449 C 0.16621 0.24838 0.84873 0.0
C4450 C 0.18124 0.24095 0.85732 0.0
C4451 C 0.17863 0.22265 0.86315 0.0
C4452 C 0.16098 0.21167 0.86028 0.0
C4453 C 0.14596 0.21891 0.85137 0.0
H4454 H 0.19029 0.21696 0.86986 0.0
H4455 H 0.04634 0.29021 0.78369 0.0
H4456 H 0.52936 0.71658 0.90984 0.0
H4457 H 0.52864 0.68488 0.92085 0.0
H4458 H 0.49656 0.69971 0.96817 0.0
H4459 H 0.49744 0.73124 0.95759 0.0
H4460 H 0.52401 0.68264 0.98126 0.0
H4461 H 0.47654 0.67107 0.92755 0.0
H4462 H 0.46344 0.67146 0.89353 0.0
H4463 H 0.50338 0.63777 0.87349 0.0
H4464 H 0.51689 0.6374 0.90738 0.0
H4465 H 0.49869 0.58997 0.01088 0.0
H4466 H 0.49732 0.6211 -0.00095 0.0
H4467 H 0.52995 0.60743 0.95179 0.0
H4468 H 0.53113 0.57644 0.96325 0.0
H4469 H 0.50162 0.62382 0.93874 0.0
H4470 H 0.54993 0.63678 0.99211 0.0
H4471 H 0.56309 0.63616 0.02606 0.0
H4472 H 0.52141 0.66732 0.04665 0.0
H4473 H 0.50786 0.66785 0.01278 0.0
C4474 C 0.52206 0.71304 0.92251 0.0
C4475 C 0.51353 0.72652 0.93285 0.0
C4476 C 0.52162 0.6949 0.92876 0.0
C4477 C 0.51246 0.68989 0.9453 0.0
C4478 C 0.50378 0.70326 0.95544 0.0
C4479 C 0.50429 0.72133 0.94931 0.0
C4480 C 0.51228 0.67094 0.95251 0.0
C4481 C 0.51888 0.66979 0.97201 0.0
C4482 C 0.50593 0.65416 0.94038 0.0
C4483 C 0.49785 0.65438 0.91999 0.0
C4484 C 0.48263 0.66388 0.91587 0.0
C4485 C 0.47511 0.66407 0.89662 0.0
C4486 C 0.48261 0.65469 0.88136 0.0
C4487 C 0.49761 0.64506 0.88533 0.0
C4488 C 0.50519 0.64484 0.90456 0.0
C4489 C 0.50557 0.59364 0.99799 0.0
C4490 C 0.51512 0.58078 0.98809 0.0
C4491 C 0.50484 0.61144 0.99128 0.0
C4492 C 0.5137 0.61666 0.97463 0.0
C4493 C 0.52301 0.60373 0.96465 0.0
C4494 C 0.52376 0.58603 0.97132 0.0
C4495 C 0.51336 0.63556 0.96746 0.0
C4496 C 0.50669 0.6367 0.94798 0.0
C4497 C 0.51963 0.65234 0.9796 0.0
C4498 C 0.52777 0.65213 -5e-05 0.0
C4499 C 0.54348 0.64332 0.0039 0.0
C4500 C 0.55103 0.64303 0.02312 0.0
C4501 C 0.54305 0.65164 0.03852 0.0
C4502 C 0.52755 0.66062 0.03471 0.0
C4503 C 0.51994 0.66093 0.0155 0.0
H4504 H 0.54891 0.65141 0.0534 0.0
H4505 H 0.47677 0.65484 0.86646 0.0
H4506 H 0.04553 0.76252 0.68343 0.0
H4507 H 0.07394 0.7588 0.70353 0.0
H4508 H 0.10445 0.75946 0.65231 0.0
H4509 H 0.07651 0.76341 0.63228 0.0
H4510 H 0.10875 0.72892 0.67543 0.0
H4511 H 0.11071 0.79695 0.6821 0.0
H4512 H 0.09838 0.82616 0.69133 0.0
H4513 H 0.09673 0.8113 0.75046 0.0
H4514 H 0.10882 0.78185 0.74149 0.0
H4515 H 0.205 0.75171 0.69664 0.0
H4516 H 0.17181 0.74844 0.68651 0.0
H4517 H 0.15979 0.75435 0.74679 0.0
H4518 H 0.19328 0.75784 0.7571 0.0
H4519 H 0.14262 0.7777 0.72529 0.0
H4520 H 0.14592 0.71252 0.72011 0.0
H4521 H 0.15849 0.68338 0.71128 0.0
H4522 H 0.14982 0.69187 0.65045 0.0
H4523 H 0.13744 0.72122 0.65891 0.0
C4524 C 0.05833 0.76202 0.67649 0.0
C4525 C 0.0587 0.76329 0.65622 0.0
C4526 C 0.07452 0.75988 0.68799 0.0
C4527 C 0.09124 0.75875 0.67936 0.0
C4528 C 0.09166 0.76019 0.65923 0.0
C4529 C 0.07565 0.76258 0.64782 0.0
C4530 C 0.10845 0.75588 0.69098 0.0
C4531 C 0.11619 0.73956 0.68634 0.0
C4532 C 0.11774 0.76945 0.70572 0.0
C4533 C 0.1104 0.78708 0.71107 0.0
C4534 C 0.10752 0.79981 0.69702 0.0
C4535 C 0.10062 0.81643 0.70221 0.0
C4536 C 0.0967 0.82055 0.72145 0.0
C4537 C 0.09972 0.80807 0.73555 0.0
C4538 C 0.1066 0.79142 0.73042 0.0
C4539 C 0.1953 0.75196 0.70779 0.0
C4540 C 0.20177 0.75503 0.72767 0.0
C4541 C 0.17628 0.75001 0.70198 0.0
C4542 C 0.16325 0.75102 0.71588 0.0
C4543 C 0.16959 0.75346 0.73581 0.0
C4544 C 0.1887 0.75531 0.74168 0.0
C4545 C 0.14332 0.751 0.70924 0.0
C4546 C 0.13502 0.76677 0.71478 0.0
C4547 C 0.13343 0.73685 0.6954 0.0
C4548 C 0.14082 0.71915 0.69017 0.0
C4549 C 0.14681 0.70825 0.70485 0.0
C4550 C 0.15388 0.69168 0.69991 0.0
C4551 C 0.15497 0.68579 0.68032 0.0
C4552 C 0.14896 0.69645 0.66562 0.0
C4553 C 0.14188 0.71304 0.67048 0.0
H4554 H 0.16046 0.67295 0.67652 0.0
H4555 H 0.09137 0.83343 0.72545 0.0
H4556 H 0.04342 0.31695 0.44302 0.0
H4557 H 0.04223 0.34787 0.45944 0.0
H4558 H 0.01251 0.36324 0.40785 0.0
H4559 H 0.01485 0.33253 0.39091 0.0
H4560 H 0.03404 0.3929 0.42411 0.0
H4561 H 0.98988 0.34615 0.44804 0.0
H4562 H 0.97889 0.31637 0.462 0.0
H4563 H 0.01537 0.33426 0.51407 0.0
H4564 H 0.02679 0.36406 0.50029 0.0
H4565 H 0.99125 0.46285 0.47033 0.0
H4566 H 0.99504 0.43229 0.455 0.0
H4567 H 0.03428 0.42507 0.50299 0.0
H4568 H 0.0303 0.4558 0.51876 0.0
H4569 H 0.0087 0.39196 0.489 0.0
H4570 H 0.04931 0.44195 0.4635 0.0
H4571 H 0.0536 0.47262 0.4494 0.0
H4572 H 0.01851 0.44853 0.39816 0.0
H4573 H 0.0132 0.41794 0.41235 0.0
C4574 C 0.03686 0.32705 0.43512 0.0
C4575 C 0.02906 0.32241 0.41582 0.0
C4576 C 0.03608 0.34467 0.44454 0.0
C4577 C 0.02676 0.3577 0.43512 0.0
C4578 C 0.01966 0.35338 0.41548 0.0
C4579 C 0.02096 0.33587 0.40582 0.0
C4580 C 0.02366 0.37533 0.44615 0.0
C4581 C 0.02837 0.39264 0.43821 0.0
C4582 C 0.01629 0.37508 0.46463 0.0
C4583 C 0.00932 0.35726 0.47305 0.0
C4584 C 0.99564 0.34369 0.46242 0.0
C4585 C 0.98933 0.32681 0.4703 0.0
C4586 C 0.99646 0.32341 0.48889 0.0
C4587 C 0.00988 0.33691 0.49966 0.0
C4588 C 0.01627 0.3538 0.49183 0.0
C4589 C 1.00062 0.45475 0.47774 0.0
C4590 C 0.01076 0.46184 0.49559 0.0
C4591 C 0.00272 0.43727 0.46896 0.0
C4592 C 0.01521 0.42666 0.47768 0.0
C4593 C 0.02466 0.43318 0.49601 0.0
C4594 C 0.02242 0.4507 0.50495 0.0
C4595 C 0.01916 0.40934 0.467 0.0
C4596 C 0.01456 0.39213 0.47499 0.0
C4597 C 0.02615 0.40969 0.44837 0.0
C4598 C 0.03071 0.42764 0.4391 0.0
C4599 C 0.04242 0.44319 0.44926 0.0
C4600 C 0.04492 0.46061 0.44132 0.0
C4601 C 0.03629 0.46253 0.42293 0.0
C4602 C 0.02517 0.44702 0.41242 0.0
C4603 C 0.02233 0.42965 0.42045 0.0
H4604 H 0.03825 0.47602 0.4168 0.0
H4605 H 0.99156 0.31033 0.49497 0.0
H4606 H 0.43752 0.26503 0.14754 0.0
H4607 H 0.41073 0.26591 0.16652 0.0
H4608 H 0.44186 0.2497 0.21661 0.0
H4609 H 0.46905 0.24883 0.19757 0.0
H4610 H 0.40437 0.23038 0.20989 0.0
H4611 H 0.43642 0.29346 0.21744 0.0
H4612 H 0.45283 0.32284 0.20664 0.0
H4613 H 0.40358 0.3298 0.17118 0.0
H4614 H 0.38695 0.3003 0.18153 0.0
H4615 H 0.32648 0.2492 0.26222 0.0
H4616 H 0.35928 0.25208 0.25491 0.0
H4617 H 0.34422 0.26946 0.19801 0.0
H4618 H 0.31161 0.26639 0.20512 0.0
H4619 H 0.37732 0.28974 0.21512 0.0
H4620 H 0.34729 0.22477 0.20334 0.0
H4621 H 0.33078 0.19465 0.21242 0.0
H4622 H 0.37607 0.19092 0.25496 0.0
H4623 H 0.39272 0.22123 0.24638 0.0
C4624 C 0.43873 0.26156 0.16257 0.0
C4625 C 0.45548 0.25695 0.17107 0.0
C4626 C 0.42339 0.26213 0.17342 0.0
C4627 C 0.42438 0.25813 0.19305 0.0
C4628 C 0.44086 0.25293 0.2015 0.0
C4629 C 0.45636 0.25246 0.19062 0.0
C4630 C 0.40811 0.25971 0.2045 0.0
C4631 C 0.39869 0.24346 0.21151 0.0
C4632 C 0.40058 0.27673 0.20636 0.0
C4633 C 0.41047 0.29459 0.20019 0.0
C4634 C 0.42912 0.30118 0.20723 0.0
C4635 C 0.43846 0.31787 0.2012 0.0
C4636 C 0.42926 0.32817 0.18821 0.0
C4637 C 0.41069 0.32181 0.18125 0.0
C4638 C 0.40129 0.30512 0.18722 0.0
C4639 C 0.33029 0.25409 0.24836 0.0
C4640 C 0.31653 0.2576 0.23422 0.0
C4641 C 0.34898 0.25559 0.24415 0.0
C4642 C 0.35415 0.2608 0.22583 0.0
C4643 C 0.34056 0.26541 0.21222 0.0
C4644 C 0.32193 0.26366 0.2163 0.0
C4645 C 0.37333 0.26031 0.22005 0.0
C4646 C 0.38326 0.27678 0.21402 0.0
C4647 C 0.38126 0.24347 0.21906 0.0
C4648 C 0.37114 0.22539 0.2244 0.0
C4649 C 0.35363 0.21765 0.2148 0.0
C4650 C 0.34427 0.20052 0.21982 0.0
C4651 C 0.35237 0.1909 0.23427 0.0
C4652 C 0.36981 0.19842 0.24379 0.0
C4653 C 0.37921 0.21557 0.23886 0.0
H4654 H 0.34519 0.17755 0.23799 0.0
H4655 H 0.43652 0.34108 0.18356 0.0
H4656 H 0.5939 0.51031 0.32436 0.0
H4657 H 0.57735 0.50914 0.35378 0.0
H4658 H 0.62757 0.50087 0.38734 0.0
H4659 H 0.64426 0.50175 0.35768 0.0
H4660 H 0.59816 0.47657 0.39574 0.0
H4661 H 0.61107 0.54297 0.3916 0.0
H4662 H 0.61207 0.5728 0.37603 0.0
H4663 H 0.55231 0.56352 0.36624 0.0
H4664 H 0.55096 0.53347 0.38149 0.0
H4665 H 0.56432 0.49602 0.48894 0.0
H4666 H 0.58141 0.49504 0.45981 0.0
H4667 H 0.53122 0.49915 0.4239 0.0
H4668 H 0.5139 0.49993 0.45303 0.0
H4669 H 0.56123 0.52575 0.41727 0.0
H4670 H 0.54856 0.45901 0.42081 0.0
H4671 H 0.54781 0.4284 0.43483 0.0
H4672 H 0.60747 0.43854 0.44588 0.0
H4673 H 0.60857 0.46932 0.43212 0.0
C4674 C 0.60152 0.50841 0.33801 0.0
C4675 C 0.62043 0.50616 0.33869 0.0
C4676 C 0.59202 0.50782 0.35487 0.0
C4677 C 0.60123 0.50511 0.37286 0.0
C4678 C 0.62018 0.50301 0.37364 0.0
C4679 C 0.62972 0.5036 0.35671 0.0
C4680 C 0.59078 0.50378 0.39059 0.0
C4681 C 0.59036 0.48749 0.40067 0.0
C4682 C 0.58018 0.51778 0.39672 0.0
C4683 C 0.58093 0.53586 0.38753 0.0
C4684 C 0.59815 0.5472 0.38598 0.0
C4685 C 0.59878 0.56417 0.37724 0.0
C4686 C 0.58227 0.57003 0.37011 0.0
C4687 C 0.56509 0.55895 0.37175 0.0
C4688 C 0.56438 0.54196 0.38046 0.0
C4689 C 0.55681 0.49644 0.47482 0.0
C4690 C 0.53775 0.49822 0.47335 0.0
C4691 C 0.56661 0.4958 0.45817 0.0
C4692 C 0.55761 0.49703 0.43968 0.0
C4693 C 0.53845 0.4982 0.43805 0.0
C4694 C 0.52855 0.49858 0.4547 0.0
C4695 C 0.56852 0.49849 0.42232 0.0
C4696 C 0.56908 0.51486 0.41236 0.0
C4697 C 0.57932 0.48461 0.41638 0.0
C4698 C 0.57863 0.46655 0.42556 0.0
C4699 C 0.5615 0.45482 0.42644 0.0
C4700 C 0.56102 0.43739 0.43424 0.0
C4701 C 0.57759 0.43148 0.4411 0.0
C4702 C 0.59466 0.44308 0.44041 0.0
C4703 C 0.59522 0.46053 0.43263 0.0
H4704 H 0.57719 0.41797 0.44712 0.0
H4705 H 0.58279 0.58318 0.36335 0.0
H4706 H 0.29036 0.86917 0.05698 0.0
H4707 H 0.29323 0.85722 0.08921 0.0
H4708 H 0.23476 0.85896 0.09451 0.0
H4709 H 0.23214 0.87182 0.06256 0.0
H4710 H 0.25378 0.86492 0.12976 0.0
H4711 H 0.24966 0.81948 0.07403 0.0
H4712 H 0.25918 0.80638 0.04295 0.0
H4713 H 0.31312 0.80253 0.07093 0.0
H4714 H 0.30399 0.81587 0.10213 0.0
H4715 H 0.23128 0.79238 0.18896 0.0
H4716 H 0.23302 0.80855 0.15912 0.0
H4717 H 0.29233 0.80769 0.16167 0.0
H4718 H 0.29057 0.79093 0.19142 0.0
H4719 H 0.27521 0.80253 0.12374 0.0
H4720 H 0.27596 0.84422 0.18143 0.0
H4721 H 0.26295 0.85295 0.21213 0.0
H4722 H 0.21283 0.86264 0.18 0.0
H4723 H 0.2251 0.85287 0.1491 0.0
C4724 C 0.27834 0.86768 0.06542 0.0
C4725 C 0.26103 0.87131 0.05745 0.0
C4726 C 0.27993 0.86072 0.08372 0.0
C4727 C 0.26408 0.85665 0.09397 0.0
C4728 C 0.24714 0.86188 0.08678 0.0
C4729 C 0.24565 0.86927 0.0686 0.0
C4730 C 0.2646 0.84487 0.11072 0.0
C4731 C 0.25839 0.85127 0.12843 0.0
C4732 C 0.27077 0.82708 0.10904 0.0
C4733 C 0.27621 0.81885 0.09035 0.0
C4734 C 0.26358 0.81594 0.07352 0.0
C4735 C 0.26891 0.80847 0.05589 0.0
C4736 C 0.28676 0.80367 0.05495 0.0
C4737 C 0.29931 0.80628 0.07167 0.0
C4738 C 0.29407 0.8138 0.08933 0.0
C4739 C 0.24464 0.79531 0.18295 0.0
C4740 C 0.26084 0.79067 0.19257 0.0
C4741 C 0.24561 0.80456 0.16594 0.0
C4742 C 0.26287 0.80974 0.15853 0.0
C4743 C 0.2789 0.80393 0.16729 0.0
C4744 C 0.27788 0.79437 0.18424 0.0
C4745 C 0.26431 0.82252 0.14267 0.0
C4746 C 0.27086 0.8163 0.12515 0.0
C4747 C 0.25823 0.84035 0.14448 0.0
C4748 C 0.25141 0.84765 0.16291 0.0
C4749 C 0.26213 0.84813 0.18088 0.0
C4750 C 0.25483 0.85315 0.19834 0.0
C4751 C 0.23709 0.85841 0.19802 0.0
C4752 C 0.22658 0.85858 0.18022 0.0
C4753 C 0.23366 0.85318 0.16272 0.0
H4754 H 0.23148 0.86236 0.21157 0.0
H4755 H 0.29086 0.79789 0.04129 0.0
H4756 H 0.93207 0.55916 0.83138 0.0
H4757 H 0.95026 0.55659 0.86209 0.0
H4758 H 0.90887 0.51078 0.87501 0.0
H4759 H 0.89006 0.51422 0.84471 0.0
H4760 H 0.92261 0.52999 0.90738 0.0
H4761 H 0.94916 0.50342 0.85273 0.0
H4762 H 0.96153 0.50276 0.82041 0.0
H4763 H 0.00576 0.54758 0.84163 0.0
H4764 H 0.99347 0.54873 0.87402 0.0
H4765 H 0.97948 0.4911 0.9735 0.0
H4766 H 0.96287 0.49394 0.94198 0.0
H4767 H 0.99995 0.54532 0.93573 0.0
H4768 H 0.01721 0.54203 0.96715 0.0
H4769 H 0.98871 0.52294 0.90007 0.0
H4770 H 0.95929 0.54842 0.9555 0.0
H4771 H 0.94752 0.54478 0.98773 0.0
H4772 H 0.9084 0.49642 0.96395 0.0
H4773 H 0.9201 0.49974 0.93148 0.0
C4774 C 0.92666 0.54891 0.84109 0.0
C4775 C 0.90977 0.53688 0.83587 0.0
C4776 C 0.93713 0.54731 0.85849 0.0
C4777 C 0.93124 0.53308 0.87053 0.0
C4778 C 0.91375 0.52177 0.86587 0.0
C4779 C 0.90299 0.52375 0.84865 0.0
C4780 C 0.94385 0.52935 0.88726 0.0
C4781 C 0.93698 0.52828 0.90567 0.0
C4782 C 0.96268 0.52712 0.88513 0.0
C4783 C 0.9703 0.52627 0.86576 0.0
C4784 C 0.96147 0.51321 0.85048 0.0
C4785 C 0.96846 0.51274 0.83214 0.0
C4786 C 0.9844 0.52514 0.82896 0.0
C4787 C 0.9934 0.538 0.84412 0.0
C4788 C 0.98643 0.53856 0.86247 0.0
C4789 C 0.98429 0.50279 0.96519 0.0
C4790 C 0.99936 0.51653 0.97272 0.0
C4791 C 0.97482 0.5044 0.94723 0.0
C4792 C 0.97989 0.5201 0.93683 0.0
C4793 C 0.99578 0.53318 0.94366 0.0
C4794 C 0.00558 0.53133 0.96154 0.0
C4795 C 0.96745 0.52375 0.92 0.0
C4796 C 0.97434 0.52477 0.90164 0.0
C4797 C 0.94854 0.52547 0.92203 0.0
C4798 C 0.94059 0.5243 0.94113 0.0
C4799 C 0.94816 0.53704 0.95715 0.0
C4800 C 0.94155 0.53497 0.97549 0.0
C4801 C 0.92729 0.52029 0.97796 0.0
C4802 C 0.9195 0.50773 0.96203 0.0
C4803 C 0.92605 0.50975 0.94364 0.0
H4804 H 0.92213 0.51871 0.99213 0.0
H4805 H 0.98979 0.52477 0.81475 0.0
H4806 H 0.27303 0.13362 0.5567 0.0
H4807 H 0.27441 0.14332 0.59178 0.0
H4808 H 0.25494 0.19511 0.57855 0.0
H4809 H 0.25384 0.18586 0.54392 0.0
H4810 H 0.28285 0.20214 0.6058 0.0
H4811 H 0.22593 0.15776 0.59396 0.0
H4812 H 0.20683 0.12699 0.58322 0.0
H4813 H 0.2385 0.10046 0.62525 0.0
H4814 H 0.25796 0.13105 0.63606 0.0
H4815 H 0.25726 0.2357 0.69706 0.0
H4816 H 0.25574 0.22321 0.6629 0.0
H4817 H 0.27364 0.17216 0.68106 0.0
H4818 H 0.27463 0.18428 0.71517 0.0
H4819 H 0.24798 0.16369 0.6518 0.0
H4820 H 0.30574 0.20823 0.6625 0.0
H4821 H 0.32551 0.239 0.6718 0.0
H4822 H 0.29151 0.26537 0.6319 0.0
H4823 H 0.2718 0.23471 0.62199 0.0
C4824 C 0.26912 0.14709 0.56129 0.0
C4825 C 0.2633 0.1589 0.5474 0.0
C4826 C 0.26981 0.15258 0.58134 0.0
C4827 C 0.26462 0.1699 0.58781 0.0
C4828 C 0.25904 0.18171 0.57396 0.0
C4829 C 0.25838 0.17631 0.55407 0.0
C4830 C 0.26502 0.17606 0.60894 0.0
C4831 C 0.27509 0.19377 0.6158 0.0
C4832 C 0.25522 0.16503 0.62213 0.0
C4833 C 0.24354 0.14665 0.61565 0.0
C4834 C 0.22892 0.14533 0.60079 0.0
C4835 C 0.21801 0.12793 0.59472 0.0
C4836 C 0.22149 0.11177 0.60351 0.0
C4837 C 0.23585 0.11298 0.61843 0.0
C4838 C 0.24682 0.13035 0.62454 0.0
C4839 C 0.26064 0.22172 0.69379 0.0
C4840 C 0.26621 0.21106 0.70886 0.0
C4841 C 0.25996 0.21466 0.67423 0.0
C4842 C 0.26505 0.19692 0.66935 0.0
C4843 C 0.2698 0.18594 0.68441 0.0
C4844 C 0.27036 0.19292 0.70394 0.0
C4845 C 0.26566 0.18987 0.64859 0.0
C4846 C 0.25582 0.172 0.64181 0.0
C4847 C 0.27562 0.20077 0.6354 0.0
C4848 C 0.2872 0.21924 0.64167 0.0
C4849 C 0.30242 0.22063 0.65582 0.0
C4850 C 0.31363 0.23802 0.66117 0.0
C4851 C 0.30965 0.25415 0.65264 0.0
C4852 C 0.29455 0.25288 0.63856 0.0
C4853 C 0.28342 0.23549 0.63298 0.0
H4854 H 0.31832 0.2676 0.65686 0.0
H4855 H 0.21302 0.09831 0.59879 0.0
H4856 H 0.64056 0.51443 0.22719 0.0
H4857 H 0.63166 0.5137 0.19194 0.0
H4858 H 0.57386 0.49823 0.20209 0.0
H4859 H 0.58255 0.49921 0.2371 0.0
H4860 H 0.58536 0.47728 0.16994 0.0
H4861 H 0.5884 0.54191 0.19689 0.0
H4862 H 0.60419 0.57165 0.21465 0.0
H4863 H 0.64547 0.57627 0.17321 0.0
H4864 H 0.63005 0.54638 0.15537 0.0
H4865 H 0.53224 0.49937 0.08685 0.0
H4866 H 0.54567 0.50013 0.12069 0.0
H4867 H 0.60059 0.51748 0.1026 0.0
H4868 H 0.58731 0.51641 0.06871 0.0
H4869 H 0.59386 0.53697 0.13769 0.0
H4870 H 0.58898 0.47467 0.1083 0.0
H4871 H 0.57526 0.44388 0.09139 0.0
H4872 H 0.53991 0.43329 0.13772 0.0
H4873 H 0.55265 0.46442 0.1544 0.0
C4874 C 0.62601 0.51061 0.22182 0.0
C4875 C 0.61224 0.50696 0.23488 0.0
C4876 C 0.62094 0.51032 0.20175 0.0
C4877 C 0.60209 0.50607 0.19448 0.0
C4878 C 0.58847 0.50158 0.20742 0.0
C4879 C 0.59346 0.50219 0.22741 0.0
C4880 C 0.59623 0.50685 0.17353 0.0
C4881 C 0.58703 0.49033 0.16288 0.0
C4882 C 0.59899 0.52381 0.16428 0.0
C4883 C 0.60821 0.54179 0.17495 0.0
C4884 C 0.60094 0.54917 0.19168 0.0
C4885 C 0.6098 0.56607 0.20173 0.0
C4886 C 0.62586 0.57581 0.1951 0.0
C4887 C 0.63306 0.56869 0.17836 0.0
C4888 C 0.62426 0.55177 0.16827 0.0
C4889 C 0.54713 0.50369 0.09015 0.0
C4890 C 0.55875 0.5078 0.07516 0.0
C4891 C 0.55479 0.50398 0.10944 0.0
C4892 C 0.57415 0.50864 0.11407 0.0
C4893 C 0.58564 0.51378 0.0993 0.0
C4894 C 0.57803 0.51316 0.07998 0.0
C4895 C 0.58246 0.50744 0.13418 0.0
C4896 C 0.59219 0.52386 0.14466 0.0
C4897 C 0.58027 0.49032 0.14325 0.0
C4898 C 0.57162 0.47209 0.1325 0.0
C4899 C 0.57793 0.46602 0.11466 0.0
C4900 C 0.57033 0.44847 0.1051 0.0
C4901 C 0.55663 0.43668 0.1134 0.0
C4902 C 0.55036 0.44251 0.13117 0.0
C4903 C 0.55771 0.46015 0.14064 0.0
H4904 H 0.55103 0.42295 0.10619 0.0
H4905 H 0.6327 0.5889 0.2029 0.0
H4906 H 0.2386 0.88871 0.93705 0.0
H4907 H 0.23865 0.86889 0.90654 0.0
H4908 H 0.23162 0.81917 0.93823 0.0
H4909 H 0.2321 0.83882 0.96863 0.0
H4910 H 0.25854 0.81776 0.9155 0.0
H4911 H 0.1957 0.83197 0.90722 0.0
H4912 H 0.17151 0.85258 0.90507 0.0
H4913 H 0.19636 0.87794 0.85693 0.0
H4914 H 0.2208 0.85764 0.85894 0.0
H4915 H 0.24578 0.75223 0.83085 0.0
H4916 H 0.23904 0.76949 0.86093 0.0
H4917 H 0.24891 0.82177 0.83385 0.0
H4918 H 0.25559 0.80488 0.80407 0.0
H4919 H 0.21873 0.82038 0.85436 0.0
H4920 H 0.2824 0.80983 0.86386 0.0
H4921 H 0.30782 0.79066 0.86509 0.0
H4922 H 0.2828 0.76023 0.91015 0.0
H4923 H 0.25711 0.77912 0.90903 0.0
C4924 C 0.23687 0.87354 0.93741 0.0
C4925 C 0.23543 0.8653 0.95519 0.0
C4926 C 0.23682 0.86222 0.91999 0.0
C4927 C 0.23501 0.8425 0.92007 0.0
C4928 C 0.23309 0.83432 0.9378 0.0
C4929 C 0.23334 0.84559 0.95516 0.0
C4930 C 0.2362 0.83035 0.90201 0.0
C4931 C 0.24957 0.8181 0.90225 0.0
C4932 C 0.22489 0.83116 0.88453 0.0
C4933 C 0.21018 0.84339 0.88335 0.0
C4934 C 0.19608 0.84204 0.89627 0.0
C4935 C 0.1823 0.85365 0.89505 0.0
C4936 C 0.18241 0.86659 0.88089 0.0
C4937 C 0.19628 0.86792 0.86789 0.0
C4938 C 0.21009 0.85635 0.86905 0.0
C4939 C 0.24637 0.76737 0.83131 0.0
C4940 C 0.25132 0.77716 0.81511 0.0
C4941 C 0.24256 0.77721 0.84847 0.0
C4942 C 0.24357 0.79692 0.84961 0.0
C4943 C 0.24797 0.80657 0.83327 0.0
C4944 C 0.25189 0.79684 0.81627 0.0
C4945 C 0.24095 0.80782 0.86799 0.0
C4946 C 0.22745 0.81988 0.86775 0.0
C4947 C 0.25227 0.80705 0.88542 0.0
C4948 C 0.26772 0.79572 0.88619 0.0
C4949 C 0.28224 0.79894 0.87392 0.0
C4950 C 0.29671 0.78815 0.87461 0.0
C4951 C 0.29688 0.77417 0.88762 0.0
C4952 C 0.28262 0.77102 0.90003 0.0
C4953 C 0.26811 0.78178 0.89939 0.0
H4954 H 0.3081 0.76583 0.88814 0.0
H4955 H 0.17173 0.87556 0.87996 0.0
H4956 H 0.8933 0.5199 0.72196 0.0
H4957 H 0.90192 0.51753 0.68827 0.0
H4958 H 0.96014 0.52605 0.70943 0.0
H4959 H 0.95176 0.52849 0.74296 0.0
H4960 H 0.95293 0.54637 0.67776 0.0
H4961 H 0.93828 0.48273 0.6969 0.0
H4962 H 0.91791 0.45643 0.7091 0.0
H4963 H 0.87703 0.45714 0.66092 0.0
H4964 H 0.89704 0.48365 0.6486 0.0
H4965 H 0.99568 0.50738 0.59769 0.0
H4966 H 0.98428 0.5112 0.6302 0.0
H4967 H 0.92825 0.50874 0.60363 0.0
H4968 H 0.93959 0.50547 0.5712 0.0
H4969 H 0.93261 0.48604 0.63696 0.0
H4970 H 0.94571 0.54832 0.61729 0.0
H4971 H 0.9638 0.57592 0.60494 0.0
H4972 H 0.00539 0.57905 0.65323 0.0
H4973 H 0.98762 0.5512 0.66574 0.0
C4974 C 0.90793 0.52146 0.71942 0.0
C4975 C 0.92183 0.5242 0.73514 0.0
C4976 C 0.91282 0.52004 0.7002 0.0
C4977 C 0.93165 0.52143 0.69645 0.0
C4978 C 0.94553 0.52491 0.71206 0.0
C4979 C 0.94069 0.5262 0.73122 0.0
C4980 C 0.93703 0.51852 0.67634 0.0
C4981 C 0.94866 0.53313 0.6689 0.0
C4982 C 0.93099 0.50139 0.66466 0.0
C4983 C 0.91907 0.48531 0.67195 0.0
C4984 C 0.92488 0.47738 0.68899 0.0
C4985 C 0.91341 0.46242 0.69591 0.0
C4986 C 0.89616 0.45516 0.68582 0.0
C4987 C 0.89038 0.4628 0.66874 0.0
C4988 C 0.90178 0.47778 0.66178 0.0
C4989 C 0.98092 0.5074 0.59885 0.0
C4990 C 0.96849 0.50616 0.58204 0.0
C4991 C 0.97446 0.50969 0.61734 0.0
C4992 C 0.95548 0.51037 0.61917 0.0
C4993 C 0.94295 0.50828 0.60243 0.0
C4994 C 0.94944 0.50643 0.58398 0.0
C4995 C 0.94875 0.51378 0.63857 0.0
C4996 C 0.93687 0.49928 0.64583 0.0
C4997 C 0.95439 0.53107 0.65001 0.0
C4998 C 0.96547 0.54747 0.64228 0.0
C4999 C 0.95886 0.55469 0.62512 0.0
C5000 C 0.96902 0.57045 0.61813 0.0
C5001 C 0.9858 0.57921 0.62823 0.0
C5002 C 0.99242 0.57222 0.64538 0.0
C5003 C 0.9823 0.55644 0.65243 0.0
H5004 H 0.99361 0.59146 0.62283 0.0
H5005 H 0.88729 0.44358 0.69119 0.0
H5006 H 0.28409 0.12858 0.4289 0.0
H5007 H 0.28632 0.14626 0.39975 0.0
H5008 H 0.25345 0.18552 0.42493 0.0
H5009 H 0.25198 0.16852 0.45417 0.0
H5010 H 0.26452 0.1558 0.37201 0.0
H5011 H 0.26697 0.22917 0.41553 0.0
H5012 H 0.2788 0.2447 0.44809 0.0
H5013 H 0.31831 0.20623 0.45393 0.0
H5014 H 0.30691 0.19064 0.42129 0.0
H5015 H 0.23824 0.21859 0.30786 0.0
H5016 H 0.24144 0.20126 0.33671 0.0
H5017 H 0.29756 0.23072 0.35055 0.0
H5018 H 0.29398 0.2489 0.32199 0.0
H5019 H 0.28199 0.2253 0.38285 0.0
H5020 H 0.28834 0.18717 0.3264 0.0
H5021 H 0.27958 0.17317 0.29271 0.0
H5022 H 0.2307 0.1406 0.31111 0.0
H5023 H 0.23869 0.15502 0.34482 0.0
C5024 C 0.27722 0.14089 0.42806 0.0
C5025 C 0.26805 0.14731 0.44388 0.0
C5026 C 0.27852 0.15101 0.41143 0.0
C5027 C 0.2705 0.16757 0.41032 0.0
C5028 C 0.26032 0.17319 0.42564 0.0
C5029 C 0.25935 0.16336 0.44233 0.0
C5030 C 0.27298 0.17937 0.39352 0.0
C5031 C 0.26841 0.17096 0.37438 0.0
C5032 C 0.27885 0.19914 0.39645 0.0
C5033 C 0.28598 0.20865 0.416 0.0
C5034 C 0.27825 0.22409 0.4237 0.0
C5035 C 0.28487 0.23289 0.44219 0.0
C5036 C 0.29926 0.22643 0.45309 0.0
C5037 C 0.30712 0.21119 0.4455 0.0
C5038 C 0.30058 0.20235 0.42701 0.0
C5039 C 0.2512 0.22152 0.31718 0.0
C5040 C 0.26597 0.23489 0.31264 0.0
C5041 C 0.25304 0.21155 0.33362 0.0
C5042 C 0.26994 0.21425 0.3455 0.0
C5043 C 0.28444 0.22828 0.34151 0.0
C5044 C 0.28242 0.23863 0.32523 0.0
C5045 C 0.2725 0.20184 0.36152 0.0
C5046 C 0.27822 0.21012 0.38047 0.0
C5047 C 0.26842 0.18191 0.35827 0.0
C5048 C 0.26405 0.17235 0.3382 0.0
C5049 C 0.2756 0.17717 0.32327 0.0
C5050 C 0.2707 0.16926 0.30411 0.0
C5051 C 0.25454 0.15608 0.29974 0.0
C5052 C 0.24322 0.15083 0.31452 0.0
C5053 C 0.24789 0.15892 0.33366 0.0
H5054 H 0.25087 0.14985 0.28492 0.0
H5055 H 0.30435 0.23325 0.46741 0.0
H5056 H 0.30126 0.57504 0.5189 0.0
H5057 H 0.32784 0.55864 0.51307 0.0
H5058 H 0.36366 0.61222 0.51443 0.0
H5059 H 0.33714 0.62854 0.51955 0.0
H5060 H 0.36908 0.59108 0.48399 0.0
H5061 H 0.36452 0.58165 0.55234 0.0
H5062 H 0.34887 0.57082 0.58089 0.0
H5063 H 0.33903 0.51404 0.55425 0.0
H5064 H 0.35444 0.52459 0.52541 0.0
H5065 H 0.46027 0.57332 0.5068 0.0
H5066 H 0.42914 0.58211 0.50513 0.0
H5067 H 0.40493 0.52388 0.49089 0.0
H5068 H 0.43637 0.51495 0.49222 0.0
H5069 H 0.39058 0.54218 0.52338 0.0
H5070 H 0.39916 0.55191 0.45674 0.0
H5071 H 0.41531 0.56344 0.42876 0.0
H5072 H 0.41873 0.62051 0.45334 0.0
H5073 H 0.40269 0.60932 0.48153 0.0
C5074 C 0.31489 0.58327 0.51828 0.0
C5075 C 0.31714 0.60305 0.51964 0.0
C5076 C 0.33007 0.57389 0.51493 0.0
C5077 C 0.3478 0.58418 0.51328 0.0
C5078 C 0.35012 0.60395 0.51545 0.0
C5079 C 0.33496 0.61327 0.5185 0.0
C5080 C 0.36389 0.57464 0.50848 0.0
C5081 C 0.37383 0.58048 0.49272 0.0
C5082 C 0.36973 0.56027 0.51934 0.0
C5083 C 0.36041 0.55395 0.53662 0.0
C5084 C 0.35887 0.56689 0.5525 0.0
C5085 C 0.35008 0.56079 0.56874 0.0
C5086 C 0.3429 0.54177 0.56935 0.0
C5087 C 0.34456 0.52878 0.55373 0.0
C5088 C 0.35333 0.53481 0.53744 0.0
C5089 C 0.44835 0.56239 0.50298 0.0
C5090 C 0.45071 0.54344 0.49967 0.0
C5091 C 0.43056 0.56745 0.50196 0.0
C5092 C 0.41474 0.55365 0.49786 0.0
C5093 C 0.41701 0.53473 0.494 0.0
C5094 C 0.43493 0.52967 0.49466 0.0
C5095 C 0.39601 0.55913 0.49937 0.0
C5096 C 0.38559 0.55254 0.51447 0.0
C5097 C 0.38981 0.57295 0.48805 0.0
C5098 C 0.39977 0.57975 0.47129 0.0
C5099 C 0.40345 0.56691 0.45624 0.0
C5100 C 0.41251 0.5734 0.4403 0.0
C5101 C 0.41798 0.5927 0.43924 0.0
C5102 C 0.41441 0.60556 0.45414 0.0
C5103 C 0.4053 0.59916 0.47008 0.0
H5104 H 0.42507 0.59768 0.42694 0.0
H5105 H 0.33611 0.53707 0.58195 0.0
H5106 H 0.83424 0.88792 0.51626 0.0
H5107 H 0.86399 0.90861 0.51952 0.0
H5108 H 0.83899 0.95276 0.54792 0.0
H5109 H 0.80867 0.93201 0.54447 0.0
H5110 H 0.86265 0.96626 0.52104 0.0
H5111 H 0.86659 0.92907 0.57503 0.0
H5112 H 0.86362 0.89995 0.59201 0.0
H5113 H 0.9036 0.87878 0.55703 0.0
H5114 H 0.90661 0.90766 0.53962 0.0
H5115 H 0.95771 0.01509 0.53903 0.0
H5116 H 0.92556 0.00136 0.54375 0.0
H5117 H 0.93559 0.94742 0.51887 0.0
H5118 H 0.96751 0.96079 0.51456 0.0
H5119 H 0.91832 0.94292 0.55054 0.0
H5120 H 0.90914 0.97724 0.49259 0.0
H5121 H 0.91083 0.00566 0.47441 0.0
H5122 H 0.88114 0.03221 0.51729 0.0
H5123 H 0.87906 0.00387 0.53559 0.0
C5124 C 0.83491 0.90199 0.52328 0.0
C5125 C 0.81896 0.90817 0.53026 0.0
C5126 C 0.85205 0.91382 0.52518 0.0
C5127 C 0.85386 0.93214 0.53429 0.0
C5128 C 0.83795 0.93862 0.54096 0.0
C5129 C 0.82065 0.92672 0.53901 0.0
C5130 C 0.87248 0.94425 0.53659 0.0
C5131 C 0.87479 0.96137 0.52786 0.0
C5132 C 0.88837 0.93785 0.54538 0.0
C5133 C 0.88676 0.92052 0.55595 0.0
C5134 C 0.87467 0.91816 0.57087 0.0
C5135 C 0.87299 0.9017 0.58058 0.0
C5136 C 0.8834 0.88752 0.57559 0.0
C5137 C 0.89555 0.88979 0.56089 0.0
C5138 C 0.89727 0.90621 0.55112 0.0
C5139 C 0.95305 0.0003 0.53462 0.0
C5140 C 0.96527 0.98906 0.52647 0.0
C5141 C 0.93462 0.99249 0.53721 0.0
C5142 C 0.92805 0.97334 0.53155 0.0
C5143 C 0.94028 0.96219 0.52344 0.0
C5144 C 0.9586 0.96991 0.52095 0.0
C5145 C 0.90863 0.96451 0.5342 0.0
C5146 C 0.90617 0.94801 0.544 0.0
C5147 C 0.89266 0.97149 0.52641 0.0
C5148 C 0.89414 0.98856 0.51556 0.0
C5149 C 0.9031 0.9892 0.4982 0.0
C5150 C 0.9041 0.00527 0.48786 0.0
C5151 C 0.89626 0.02078 0.49478 0.0
C5152 C 0.88726 0.02021 0.51198 0.0
C5153 C 0.8861 0.00413 0.5223 0.0
H5154 H 0.89707 0.03321 0.48676 0.0
H5155 H 0.88207 0.87478 0.58312 0.0
H5156 H 0.83465 0.04573 0.23095 0.0
H5157 H 0.81803 0.073 0.23215 0.0
H5158 H 0.86478 0.10588 0.26737 0.0
H5159 H 0.88146 0.0788 0.26618 0.0
H5160 H 0.83201 0.1091 0.28291 0.0
H5161 H 0.85642 0.11419 0.22077 0.0
H5162 H 0.86244 0.10358 0.18734 0.0
H5163 H 0.80357 0.09333 0.1703 0.0
H5164 H 0.79718 0.10362 0.20373 0.0
H5165 H 0.80214 0.19879 0.27965 0.0
H5166 H 0.81912 0.17198 0.2778 0.0
H5167 H 0.77493 0.14085 0.23766 0.0
H5168 H 0.75823 0.16795 0.23886 0.0
H5169 H 0.80686 0.13688 0.22467 0.0
H5170 H 0.78263 0.13144 0.28764 0.0
H5171 H 0.77728 0.143 0.321 0.0
H5172 H 0.83639 0.15451 0.33646 0.0
H5173 H 0.8421 0.14323 0.30311 0.0
C5174 C 0.84147 0.05883 0.23877 0.0
C5175 C 0.8594 0.06007 0.24845 0.0
C5176 C 0.83196 0.07442 0.23942 0.0
C5177 C 0.84016 0.09154 0.24984 0.0
C5178 C 0.85814 0.09285 0.25929 0.0
C5179 C 0.8677 0.07735 0.2585 0.0
C5180 C 0.82979 0.10788 0.25149 0.0
C5181 C 0.82667 0.1153 0.27017 0.0
C5182 C 0.82253 0.1158 0.2349 0.0
C5183 C 0.82631 0.10946 0.21482 0.0
C5184 C 0.84474 0.10949 0.20995 0.0
C5185 C 0.84823 0.10357 0.19099 0.0
C5186 C 0.83339 0.09773 0.17672 0.0
C5187 C 0.81505 0.09783 0.18138 0.0
C5188 C 0.81149 0.10371 0.20033 0.0
C5189 C 0.79587 0.18613 0.27067 0.0
C5190 C 0.77873 0.18547 0.25951 0.0
C5191 C 0.80562 0.17076 0.26963 0.0
C5192 C 0.79826 0.1542 0.25776 0.0
C5193 C 0.78095 0.15341 0.24692 0.0
C5194 C 0.77133 0.16888 0.24773 0.0
C5195 C 0.80882 0.13796 0.2561 0.0
C5196 C 0.81206 0.1306 0.23742 0.0
C5197 C 0.81621 0.1301 0.2727 0.0
C5198 C 0.81279 0.13662 0.29284 0.0
C5199 C 0.79448 0.13652 0.29813 0.0
C5200 C 0.79139 0.14302 0.31704 0.0
C5201 C 0.80648 0.14953 0.33083 0.0
C5202 C 0.82471 0.14948 0.32576 0.0
C5203 C 0.82788 0.14302 0.30687 0.0
H5204 H 0.80406 0.15458 0.34545 0.0
H5205 H 0.83612 0.09317 0.16204 0.0
H5206 H 0.70827 0.14854 0.01428 0.0
H5207 H 0.67685 0.13315 0.01823 0.0
H5208 H 0.69816 0.08223 0.03123 0.0
H5209 H 0.7299 0.09761 0.02743 0.0
H5210 H 0.65732 0.10313 0.9972 0.0
H5211 H 0.66822 0.05957 0.06302 0.0
H5212 H 0.68965 0.06065 0.09276 0.0
H5213 H 0.70153 0.12095 0.094 0.0
H5214 H 0.67998 0.12025 0.06445 0.0
H5215 H 0.57753 0.03508 0.00581 0.0
H5216 H 0.61088 0.04751 0.00842 0.0
H5217 H 0.60163 0.0939 0.04777 0.0
H5218 H 0.56804 0.08192 0.04461 0.0
H5219 H 0.63645 0.07467 0.05677 0.0
H5220 H 0.60281 0.10554 0.00878 0.0
H5221 H 0.58217 0.1085 0.9795 0.0
H5222 H 0.61622 0.07883 0.9439 0.0
H5223 H 0.63665 0.07506 0.9731 0.0
C5224 C 0.7064 0.13409 0.01806 0.0
C5225 C 0.72169 0.12432 0.02047 0.0
C5226 C 0.68837 0.1253 0.02029 0.0
C5227 C 0.68516 0.10658 0.0251 0.0
C5228 C 0.70035 0.09677 0.02772 0.0
C5229 C 0.71847 0.10556 0.02543 0.0
C5230 C 0.66574 0.09727 0.02647 0.0
C5231 C 0.65282 0.09682 0.01021 0.0
C5232 C 0.65981 0.08919 0.04351 0.0
C5233 C 0.67265 0.08982 0.06139 0.0
C5234 C 0.67537 0.07306 0.06968 0.0
C5235 C 0.68753 0.07361 0.0865 0.0
C5236 C 0.697 0.09085 0.09522 0.0
C5237 C 0.69425 0.10759 0.08718 0.0
C5238 C 0.68209 0.10713 0.07038 0.0
C5239 C 0.58262 0.0477 0.01536 0.0
C5240 C 0.57019 0.05762 0.02495 0.0
C5241 C 0.60167 0.05479 0.01679 0.0
C5242 C 0.60864 0.07162 0.02824 0.0
C5243 C 0.59647 0.08085 0.03892 0.0
C5244 C 0.57733 0.07404 0.03706 0.0
C5245 C 0.62821 0.08053 0.02746 0.0
C5246 C 0.64109 0.08081 0.04374 0.0
C5247 C 0.63414 0.08871 0.01053 0.0
C5248 C 0.62107 0.08973 0.99319 0.0
C5249 C 0.60563 0.09923 0.99479 0.0
C5250 C 0.59401 0.10114 0.97819 0.0
C5251 C 0.59787 0.09386 0.95985 0.0
C5252 C 0.6132 0.08442 0.95812 0.0
C5253 C 0.62475 0.08231 0.9747 0.0
H5254 H 0.58898 0.09558 0.94699 0.0
H5255 H 0.70642 0.09124 0.10823 0.0
H5256 H 0.19249 0.47134 0.26506 0.0
H5257 H 0.21003 0.44551 0.27122 0.0
H5258 H 0.15843 0.40839 0.27537 0.0
H5259 H 0.14098 0.43424 0.26992 0.0
H5260 H 0.18205 0.40434 0.3042 0.0
H5261 H 0.18509 0.40696 0.23461 0.0
H5262 H 0.19259 0.42199 0.20456 0.0
H5263 H 0.25043 0.43415 0.22605 0.0
H5264 H 0.24323 0.41938 0.25634 0.0
H5265 H 0.19942 0.31262 0.28106 0.0
H5266 H 0.19044 0.34392 0.28353 0.0
H5267 H 0.24844 0.36899 0.29109 0.0
H5268 H 0.25758 0.33734 0.28884 0.0
H5269 H 0.22731 0.3827 0.2607 0.0
H5270 H 0.22351 0.37492 0.32855 0.0
H5271 H 0.21475 0.35879 0.3576 0.0
H5272 H 0.15678 0.35448 0.33774 0.0
H5273 H 0.16517 0.3705 0.30851 0.0
C5274 C 0.18491 0.4576 0.26708 0.0
C5275 C 0.16537 0.45479 0.26703 0.0
C5276 C 0.19495 0.44285 0.27059 0.0
C5277 C 0.18556 0.42496 0.27371 0.0
C5278 C 0.16601 0.42209 0.27316 0.0
C5279 C 0.15603 0.43685 0.26994 0.0
C5280 C 0.19592 0.40922 0.27808 0.0
C5281 C 0.19187 0.39957 0.2946 0.0
C5282 C 0.20926 0.40337 0.266 0.0
C5283 C 0.21358 0.41229 0.24784 0.0
C5284 C 0.19938 0.41299 0.23299 0.0
C5285 C 0.20358 0.42143 0.21591 0.0
C5286 C 0.22197 0.42908 0.21343 0.0
C5287 C 0.23619 0.42826 0.22801 0.0
C5288 C 0.23206 0.41985 0.24513 0.0
C5289 C 0.21028 0.32478 0.28361 0.0
C5290 C 0.22919 0.32262 0.2847 0.0
C5291 C 0.20513 0.34266 0.28512 0.0
C5292 C 0.21877 0.35877 0.28756 0.0
C5293 C 0.23772 0.35669 0.28929 0.0
C5294 C 0.24291 0.33867 0.28811 0.0
C5295 C 0.2129 0.37752 0.28639 0.0
C5296 C 0.21779 0.38775 0.2705 0.0
C5297 C 0.20011 0.38376 0.29887 0.0
C5298 C 0.19499 0.3739 0.31631 0.0
C5299 C 0.20889 0.37044 0.33031 0.0
C5300 C 0.20399 0.36137 0.34685 0.0
C5301 C 0.18522 0.35568 0.34954 0.0
C5302 C 0.17131 0.35897 0.33567 0.0
C5303 C 0.17613 0.3681 0.31915 0.0
H5304 H 0.18145 0.34867 0.36235 0.0
H5305 H 0.22519 0.4356 0.20019 0.0
H5306 H 0.19951 0.38723 0.01972 0.0
H5307 H 0.17156 0.40232 0.01796 0.0
H5308 H 0.20298 0.45331 0.04759 0.0
H5309 H 0.23112 0.43821 0.0495 0.0
H5310 H 0.1672 0.44504 0.06035 0.0
H5311 H 0.19466 0.45093 -0.00042 0.0
H5312 H 0.20814 0.43964 0.96999 0.0
H5313 H 0.15674 0.403 0.95149 0.0
H5314 H 0.14304 0.41387 0.98113 0.0
H5315 H 0.09603 0.49987 0.03002 0.0
H5316 H 0.12677 0.48941 0.03371 0.0
H5317 H 0.10205 0.4337 0.00924 0.0
H5318 H 0.07147 0.44387 0.00599 0.0
H5319 H 0.13622 0.44766 0.9941 0.0
H5320 H 0.10951 0.43942 0.05511 0.0
H5321 H 0.09521 0.44983 0.08451 0.0
H5322 H 0.14427 0.49009 0.10241 0.0
H5323 H 0.15878 0.48015 0.07289 0.0
C5324 C 0.20048 0.40159 0.02605 0.0
C5325 C 0.21761 0.41155 0.03463 0.0
C5326 C 0.18448 0.41023 0.02498 0.0
C5327 C 0.18521 0.42905 0.03239 0.0
C5328 C 0.20208 0.4388 0.04172 0.0
C5329 C 0.21817 0.43016 0.04276 0.0
C5330 C 0.16852 0.43866 0.02949 0.0
C5331 C 0.16063 0.44593 0.04585 0.0
C5332 C 0.15973 0.43958 0.01059 0.0
C5333 C 0.16788 0.43311 0.99267 0.0
C5334 C 0.18628 0.44037 0.98928 0.0
C5335 C 0.19395 0.43406 0.97248 0.0
C5336 C 0.18332 0.42058 0.95889 0.0
C5337 C 0.16497 0.41343 0.96204 0.0
C5338 C 0.15724 0.41967 0.97883 0.0
C5339 C 0.09726 0.48548 0.02522 0.0
C5340 C 0.0814 0.47268 0.01771 0.0
C5341 C 0.11476 0.4795 0.02743 0.0
C5342 C 0.11665 0.46075 0.02182 0.0
C5343 C 0.10092 0.44821 0.01365 0.0
C5344 C 0.08345 0.45405 0.01183 0.0
C5345 C 0.13482 0.45382 0.02492 0.0
C5346 C 0.14297 0.44702 0.00858 0.0
C5347 C 0.14374 0.45327 0.04382 0.0
C5348 C 0.13515 0.45921 0.06165 0.0
C5349 C 0.11719 0.45063 0.0652 0.0
C5350 C 0.10905 0.45641 0.0819 0.0
C5351 C 0.11881 0.47063 0.09528 0.0
C5352 C 0.13673 0.47909 0.092 0.0
C5353 C 0.14492 0.47339 0.07529 0.0
H5354 H 0.11249 0.475 0.10823 0.0
H5355 H 0.18928 0.41572 0.9459 0.0
H5356 H 0.84443 0.96568 0.23429 0.0
H5357 H 0.82364 0.93531 0.23075 0.0
H5358 H 0.8658 0.91019 0.26233 0.0
H5359 H 0.88666 0.94007 0.26544 0.0
H5360 H 0.85107 0.88709 0.23269 0.0
H5361 H 0.82647 0.9243 0.28331 0.0
H5362 H 0.81319 0.95161 0.29671 0.0
H5363 H 0.76706 0.93929 0.25265 0.0
H5364 H 0.7802 0.91202 0.23886 0.0
H5365 H 0.80652 0.80857 0.27274 0.0
H5366 H 0.8221 0.83965 0.26715 0.0
H5367 H 0.77325 0.8495 0.23228 0.0
H5368 H 0.75719 0.81815 0.23819 0.0
H5369 H 0.78826 0.88038 0.25716 0.0
H5370 H 0.81129 0.83924 0.21053 0.0
H5371 H 0.82475 0.81128 0.19928 0.0
H5372 H 0.87446 0.83061 0.23732 0.0
H5373 H 0.86119 0.85851 0.24911 0.0
C5374 C 0.84927 0.95367 0.24043 0.0
C5375 C 0.86727 0.9554 0.25014 0.0
C5376 C 0.83734 0.9363 0.23846 0.0
C5377 C 0.84305 0.9204 0.24641 0.0
C5378 C 0.86104 0.92215 0.25596 0.0
C5379 C 0.87297 0.93935 0.25778 0.0
C5380 C 0.8305 0.90189 0.24512 0.0
C5381 C 0.83737 0.88565 0.23812 0.0
C5382 C 0.81234 0.89994 0.25161 0.0
C5383 C 0.80443 0.91628 0.25992 0.0
C5384 C 0.81357 0.92751 0.2764 0.0
C5385 C 0.80606 0.94296 0.28408 0.0
C5386 C 0.78933 0.94722 0.27549 0.0
C5387 C 0.78004 0.936 0.25925 0.0
C5388 C 0.78751 0.92054 0.25151 0.0
C5389 C 0.79898 0.81725 0.26385 0.0
C5390 C 0.78057 0.81075 0.25582 0.0
C5391 C 0.808 0.83506 0.26058 0.0
C5392 C 0.79902 0.84682 0.24898 0.0
C5393 C 0.78052 0.8406 0.24117 0.0
C5394 C 0.77137 0.82268 0.24451 0.0
C5395 C 0.80914 0.86562 0.24539 0.0
C5396 C 0.80182 0.88187 0.2514 0.0
C5397 C 0.82698 0.86758 0.23814 0.0
C5398 C 0.83518 0.85097 0.23077 0.0
C5399 C 0.82506 0.83749 0.21658 0.0
C5400 C 0.83265 0.82164 0.21011 0.0
C5401 C 0.85044 0.81917 0.21758 0.0
C5402 C 0.86068 0.83255 0.23153 0.0
C5403 C 0.85314 0.8484 0.2381 0.0
H5404 H 0.85631 0.80692 0.21253 0.0
H5405 H 0.78353 0.95919 0.28146 0.0
H5406 H 0.67139 0.04541 0.76058 0.0
H5407 H 0.68937 0.07687 0.76013 0.0
H5408 H 0.64205 0.1018 0.77728 0.0
H5409 H 0.62391 0.07057 0.77747 0.0
H5410 H 0.65751 0.11957 0.74873 0.0
H5411 H 0.67942 0.09835 0.81004 0.0
H5412 H 0.69335 0.07687 0.83104 0.0
H5413 H 0.74336 0.0848 0.80138 0.0
H5414 H 0.72961 0.10615 0.78002 0.0
H5415 H 0.69268 0.21036 0.78994 0.0
H5416 H 0.67963 0.17717 0.78403 0.0
H5417 H 0.73185 0.16471 0.76476 0.0
H5418 H 0.74527 0.19819 0.77097 0.0
H5419 H 0.71705 0.13961 0.79002 0.0
H5420 H 0.69581 0.16443 0.73148 0.0
H5421 H 0.68168 0.18696 0.71205 0.0
H5422 H 0.62998 0.17291 0.73764 0.0
H5423 H 0.64388 0.1505 0.75745 0.0
C5424 C 0.66478 0.05758 0.76423 0.0
C5425 C 0.64617 0.05542 0.76905 0.0
C5426 C 0.67512 0.07556 0.76403 0.0
C5427 C 0.6671 0.09169 0.76882 0.0
C5428 C 0.64851 0.08956 0.77348 0.0
C5429 C 0.63817 0.07165 0.77362 0.0
C5430 C 0.67792 0.11088 0.76904 0.0
C5431 C 0.67047 0.12397 0.75785 0.0
C5432 C 0.69514 0.11649 0.78046 0.0
C5433 C 0.70339 0.10364 0.79327 0.0
C5434 C 0.69332 0.09537 0.80788 0.0
C5435 C 0.70119 0.08325 0.81987 0.0
C5436 C 0.7192 0.07942 0.8175 0.0
C5437 C 0.7294 0.08774 0.80317 0.0
C5438 C 0.72157 0.09986 0.79112 0.0
C5439 C 0.70142 0.20065 0.78432 0.0
C5440 C 0.71998 0.20695 0.78078 0.0
C5441 C 0.6939 0.18165 0.7809 0.0
C5442 C 0.70467 0.16852 0.77367 0.0
C5443 C 0.72327 0.17467 0.77022 0.0
C5444 C 0.73087 0.19378 0.77367 0.0
C5445 C 0.69634 0.14838 0.77015 0.0
C5446 C 0.70425 0.13512 0.78067 0.0
C5447 C 0.67947 0.14262 0.75819 0.0
C5448 C 0.67093 0.15584 0.74603 0.0
C5449 C 0.68146 0.16621 0.73304 0.0
C5450 C 0.67348 0.17896 0.72196 0.0
C5451 C 0.65495 0.18138 0.72363 0.0
C5452 C 0.64433 0.17102 0.73636 0.0
C5453 C 0.65224 0.15826 0.74749 0.0
H5454 H 0.64881 0.19128 0.71505 0.0
H5455 H 0.72528 0.07003 0.8268 0.0
loop_
_geom_bond_atom_site_label_1
_geom_bond_atom_site_label_2
_geom_bond_distance
_geom_bond_site_symmetry_2
_ccdc_geom_bond_type
Co0 O1 2.216 . S
Co0 O2 2.091 . S
Co0 O4 2.004 1_455 S
Co0 O10 2.021 . S
Co0 O12 2.137 . S
Co0 O13 2.244 . S
O1 Co0 2.216 . S
O1 C8 1.247 . S
O2 Co0 2.091 . S
O2 C8 1.261 . S
C3 O12 1.247 . S
C3 O13 1.272 . S
O4 Co0 2.004 1_655 S
O4 C9 1.259 . S
Co5 O6 2.061 . S
Co5 O11 2.052 1_655 S
Co5 O13 2.135 1_655 S
O6 Co5 2.061 . S
O6 C9 1.235 . S
C7 O10 1.238 . S
C7 O11 1.241 . S
C8 O1 1.247 . S
C8 O2 1.261 . S
C9 O4 1.259 . S
C9 O6 1.235 . S
O10 Co0 2.021 . S
O10 C7 1.238 . S
O11 Co5 2.052 1_455 S
O11 C7 1.241 . S
O12 Co0 2.137 . S
O12 C3 1.247 . S
O13 Co0 2.244 . S
O13 C3 1.272 . S
O13 Co5 2.135 1_455 S
Co14 O15 2.216 1_455 S
Co14 O16 2.091 1_455 S
Co14 O18 2.004 . S
Co14 O24 2.021 . S
Co14 O26 2.137 . S
Co14 O27 2.244 . S
O15 Co14 2.216 1_655 S
O15 C22 1.247 . S
O16 Co14 2.091 1_655 S
O16 C22 1.261 . S
C17 O26 1.247 . S
C17 O27 1.272 . S
O18 Co14 2.004 . S
O18 C23 1.259 . S
Co19 O20 2.061 . S
Co19 O25 2.052 . S
Co19 O27 2.135 . S
O20 Co19 2.061 . S
O20 C23 1.235 . S
C21 O24 1.238 . S
C21 O25 1.241 . S
C22 O15 1.247 . S
C22 O16 1.261 . S
C23 O18 1.259 . S
C23 O20 1.235 . S
O24 Co14 2.021 . S
O24 C21 1.238 . S
O25 Co19 2.052 . S
O25 C21 1.241 . S
O26 Co14 2.137 . S
O26 C17 1.247 . S
O27 Co14 2.244 . S
O27 C17 1.272 . S
O27 Co19 2.135 . S
Co28 O29 2.216 . S
Co28 O30 2.091 . S
Co28 O32 2.004 . S
Co28 O38 2.021 . S
Co28 O40 2.137 . S
Co28 O41 2.244 . S
O29 Co28 2.216 . S
O29 C36 1.247 . S
O30 Co28 2.091 . S
O30 C36 1.261 . S
C31 O40 1.247 . S
C31 O41 1.272 . S
O32 Co28 2.004 . S
O32 C37 1.259 . S
Co33 O34 2.061 . S
Co33 O39 2.052 . S
Co33 O41 2.135 . S
O34 Co33 2.061 . S
O34 C37 1.235 . S
C35 O38 1.238 . S
C35 O39 1.241 . S
C36 O29 1.247 . S
C36 O30 1.261 . S
C37 O32 1.259 . S
C37 O34 1.235 . S
O38 Co28 2.021 . S
O38 C35 1.238 . S
O39 Co33 2.052 . S
O39 C35 1.241 . S
O40 Co28 2.137 . S
O40 C31 1.247 . S
O41 Co28 2.244 . S
O41 C31 1.272 . S
O41 Co33 2.135 . S
Co42 O43 2.216 . S
Co42 O44 2.091 . S
Co42 O46 2.004 . S
Co42 O52 2.021 . S
Co42 O54 2.137 . S
Co42 O55 2.244 . S
O43 Co42 2.216 . S
O43 C50 1.247 . S
O44 Co42 2.091 . S
O44 C50 1.261 . S
C45 O54 1.247 . S
C45 O55 1.272 . S
O46 Co42 2.004 . S
O46 C51 1.259 . S
Co47 O48 2.061 . S
Co47 O53 2.052 . S
Co47 O55 2.135 . S
O48 Co47 2.061 . S
O48 C51 1.235 . S
C49 O52 1.238 . S
C49 O53 1.241 . S
C50 O43 1.247 . S
C50 O44 1.261 . S
C51 O46 1.259 . S
C51 O48 1.235 . S
O52 Co42 2.021 . S
O52 C49 1.238 . S
O53 Co47 2.052 . S
O53 C49 1.241 . S
O54 Co42 2.137 . S
O54 C45 1.247 . S
O55 Co42 2.244 . S
O55 C45 1.272 . S
O55 Co47 2.135 . S
Co56 O57 2.216 1_455 S
Co56 O58 2.123 . S
Co56 O60 2.004 . S
Co56 O66 2.021 . S
Co56 O68 2.137 . S
Co56 O69 2.244 . S
O57 Co56 2.216 1_655 S
O57 C64 1.247 . S
O58 Co56 2.123 . S
O58 C64 1.226 1_455 S
C59 O68 1.247 . S
C59 O69 1.272 . S
O60 Co56 2.004 . S
O60 C65 1.259 . S
Co61 O62 2.061 . S
Co61 O67 2.052 . S
Co61 O69 2.135 . S
O62 Co61 2.061 . S
O62 C65 1.235 . S
C63 O66 1.238 . S
C63 O67 1.241 . S
C64 O57 1.247 . S
C64 O58 1.226 1_655 S
C65 O60 1.259 . S
C65 O62 1.235 . S
O66 Co56 2.021 . S
O66 C63 1.238 . S
O67 Co61 2.052 . S
O67 C63 1.241 . S
O68 Co56 2.137 . S
O68 C59 1.247 . S
O69 Co56 2.244 . S
O69 C59 1.272 . S
O69 Co61 2.135 . S
Co70 O71 2.216 . S
Co70 O72 2.091 . S
Co70 O74 2.004 . S
Co70 O80 2.021 . S
Co70 O82 2.137 . S
Co70 O83 2.244 . S
O71 Co70 2.216 . S
O71 C78 1.247 . S
O72 Co70 2.091 . S
O72 C78 1.261 . S
C73 O82 1.247 . S
C73 O83 1.272 . S
O74 Co70 2.004 . S
O74 C79 1.259 . S
Co75 O76 2.061 . S
Co75 O81 2.052 . S
Co75 O83 2.135 . S
O76 Co75 2.061 . S
O76 C79 1.235 . S
C77 O80 1.238 . S
C77 O81 1.241 . S
C78 O71 1.247 . S
C78 O72 1.261 . S
C79 O74 1.259 . S
C79 O76 1.235 . S
O80 Co70 2.021 . S
O80 C77 1.238 . S
O81 Co75 2.052 . S
O81 C77 1.241 . S
O82 Co70 2.137 . S
O82 C73 1.247 . S
O83 Co70 2.244 . S
O83 C73 1.272 . S
O83 Co75 2.135 . S
Co84 O85 2.216 . S
Co84 O86 2.091 . S
Co84 O88 2.004 . S
Co84 O94 2.021 . S
Co84 O96 2.137 . S
Co84 O97 2.244 . S
O85 Co84 2.216 . S
O85 C92 1.247 . S
O86 Co84 2.091 . S
O86 C92 1.261 . S
C87 O96 1.247 . S
C87 O97 1.272 . S
O88 Co84 2.004 . S
O88 C93 1.259 . S
Co89 O90 2.061 . S
Co89 O95 2.052 . S
Co89 O97 2.135 . S
O90 Co89 2.061 . S
O90 C93 1.235 . S
C91 O94 1.238 . S
C91 O95 1.241 . S
C92 O85 1.247 . S
C92 O86 1.261 . S
C93 O88 1.259 . S
C93 O90 1.235 . S
O94 Co84 2.021 . S
O94 C91 1.238 . S
O95 Co89 2.052 . S
O95 C91 1.241 . S
O96 Co84 2.137 . S
O96 C87 1.247 . S
O97 Co84 2.244 . S
O97 C87 1.272 . S
O97 Co89 2.135 . S
Co98 O99 2.216 . S
Co98 O100 2.091 . S
Co98 O102 2.004 1_455 S
Co98 O108 2.021 . S
Co98 O110 2.137 . S
Co98 O111 2.244 1_455 S
O99 Co98 2.216 . S
O99 C106 1.247 . S
O100 Co98 2.091 . S
O100 C106 1.261 . S
C101 O110 1.247 . S
C101 O111 1.272 1_455 S
O102 Co98 2.004 1_655 S
O102 C107 1.259 . S
Co103 O104 2.061 . S
Co103 O109 2.052 . S
Co103 O111 2.135 . S
O104 Co103 2.061 . S
O104 C107 1.235 . S
C105 O108 1.238 1_655 S
C105 O109 1.241 . S
C106 O99 1.247 . S
C106 O100 1.261 . S
C107 O102 1.259 . S
C107 O104 1.235 . S
O108 Co98 2.021 . S
O108 C105 1.238 1_455 S
O109 Co103 2.052 . S
O109 C105 1.241 . S
O110 Co98 2.137 . S
O110 C101 1.247 . S
O111 Co98 2.244 1_655 S
O111 C101 1.272 1_655 S
O111 Co103 2.135 . S
Co112 O113 2.216 . S
Co112 O114 2.091 . S
Co112 O116 2.004 1_545 S
Co112 O122 2.021 . S
Co112 O124 2.137 . S
Co112 O125 2.244 . S
O113 Co112 2.216 . S
O113 C120 1.247 . S
O114 Co112 2.091 . S
O114 C120 1.261 . S
C115 O124 1.247 . S
C115 O125 1.272 . S
O116 Co112 2.004 1_565 S
O116 C121 1.259 . S
Co117 O118 2.061 . S
Co117 O123 2.052 1_565 S
Co117 O125 2.135 1_565 S
O118 Co117 2.061 . S
O118 C121 1.235 . S
C119 O122 1.238 . S
C119 O123 1.241 . S
C120 O113 1.247 . S
C120 O114 1.261 . S
C121 O116 1.259 . S
C121 O118 1.235 . S
O122 Co112 2.021 . S
O122 C119 1.238 . S
O123 Co117 2.052 1_545 S
O123 C119 1.241 . S
O124 Co112 2.137 . S
O124 C115 1.247 . S
O125 Co112 2.244 . S
O125 C115 1.272 . S
O125 Co117 2.135 1_545 S
Co126 O127 2.216 . S
Co126 O128 2.091 . S
Co126 O130 2.004 . S
Co126 O136 2.021 . S
Co126 O138 2.137 . S
Co126 O139 2.244 . S
O127 Co126 2.216 . S
O127 C134 1.247 . S
O128 Co126 2.091 . S
O128 C134 1.261 . S
C129 O138 1.247 . S
C129 O139 1.272 . S
O130 Co126 2.004 . S
O130 C135 1.259 . S
Co131 O132 2.061 . S
Co131 O137 2.052 . S
Co131 O139 2.135 . S
O132 Co131 2.061 . S
O132 C135 1.235 . S
C133 O136 1.238 . S
C133 O137 1.241 . S
C134 O127 1.247 . S
C134 O128 1.261 . S
C135 O130 1.259 . S
C135 O132 1.235 . S
O136 Co126 2.021 . S
O136 C133 1.238 . S
O137 Co131 2.052 . S
O137 C133 1.241 . S
O138 Co126 2.137 . S
O138 C129 1.247 . S
O139 Co126 2.244 . S
O139 C129 1.272 . S
O139 Co131 2.135 . S
Co140 O141 2.216 1_545 S
Co140 O142 2.091 1_545 S
Co140 O144 2.004 . S
Co140 O150 2.021 . S
Co140 O152 2.137 . S
Co140 O153 2.244 . S
O141 Co140 2.216 1_565 S
O141 C148 1.247 . S
O142 Co140 2.091 1_565 S
O142 C148 1.261 . S
C143 O152 1.247 . S
C143 O153 1.272 . S
O144 Co140 2.004 . S
O144 C149 1.259 . S
Co145 O146 2.061 . S
Co145 O151 2.052 . S
Co145 O153 2.135 . S
O146 Co145 2.061 . S
O146 C149 1.235 . S
C147 O150 1.238 . S
C147 O151 1.241 . S
C148 O141 1.247 . S
C148 O142 1.261 . S
C149 O144 1.259 . S
C149 O146 1.235 . S
O150 Co140 2.021 . S
O150 C147 1.238 . S
O151 Co145 2.052 . S
O151 C147 1.241 . S
O152 Co140 2.137 . S
O152 C143 1.247 . S
O153 Co140 2.244 . S
O153 C143 1.272 . S
O153 Co145 2.135 . S
Co154 O155 2.216 . S
Co154 O156 2.091 . S
Co154 O158 2.004 . S
Co154 O164 2.021 . S
Co154 O166 2.137 1_554 S
Co154 O167 2.244 1_554 S
O155 Co154 2.216 . S
O155 C162 1.247 . S
O156 Co154 2.091 . S
O156 C162 1.261 . S
C157 O166 1.247 . S
C157 O167 1.272 . S
O158 Co154 2.004 . S
O158 C163 1.259 . S
Co159 O160 2.061 . S
Co159 O165 2.052 . S
Co159 O167 2.135 1_554 S
O160 Co159 2.061 . S
O160 C163 1.235 . S
C161 O164 1.238 . S
C161 O165 1.241 . S
C162 O155 1.247 . S
C162 O156 1.261 . S
C163 O158 1.259 . S
C163 O160 1.235 . S
O164 Co154 2.021 . S
O164 C161 1.238 . S
O165 Co159 2.052 . S
O165 C161 1.241 . S
O166 Co154 2.137 1_556 S
O166 C157 1.247 . S
O167 Co154 2.244 1_556 S
O167 C157 1.272 . S
O167 Co159 2.135 1_556 S
Co168 O169 2.216 . S
Co168 O170 2.091 . S
Co168 O172 2.004 . S
Co168 O178 2.021 . S
Co168 O180 2.137 . S
Co168 O181 2.244 . S
O169 Co168 2.216 . S
O169 C176 1.247 . S
O170 Co168 2.091 . S
O170 C176 1.261 . S
C171 O180 1.247 . S
C171 O181 1.272 . S
O172 Co168 2.004 . S
O172 C177 1.259 . S
Co173 O174 2.061 . S
Co173 O179 2.052 . S
Co173 O181 2.135 . S
O174 Co173 2.061 . S
O174 C177 1.235 . S
C175 O178 1.238 . S
C175 O179 1.241 . S
C176 O169 1.247 . S
C176 O170 1.261 . S
C177 O172 1.259 . S
C177 O174 1.235 . S
O178 Co168 2.021 . S
O178 C175 1.238 . S
O179 Co173 2.052 . S
O179 C175 1.241 . S
O180 Co168 2.137 . S
O180 C171 1.247 . S
O181 Co168 2.244 . S
O181 C171 1.272 . S
O181 Co173 2.135 . S
Co182 O183 2.216 . S
Co182 O184 2.091 . S
Co182 O186 2.004 . S
Co182 O192 2.021 . S
Co182 O194 2.137 1_554 S
Co182 O195 2.244 . S
O183 Co182 2.216 . S
O183 C190 1.247 . S
O184 Co182 2.091 . S
O184 C190 1.261 . S
C185 O194 1.247 . S
C185 O195 1.272 1_556 S
O186 Co182 2.004 . S
O186 C191 1.259 . S
Co187 O188 2.061 . S
Co187 O193 2.052 . S
Co187 O195 2.135 . S
O188 Co187 2.061 . S
O188 C191 1.235 . S
C189 O192 1.238 . S
C189 O193 1.241 . S
C190 O183 1.247 . S
C190 O184 1.261 . S
C191 O186 1.259 . S
C191 O188 1.235 . S
O192 Co182 2.021 . S
O192 C189 1.238 . S
O193 Co187 2.052 . S
O193 C189 1.241 . S
O194 Co182 2.137 1_556 S
O194 C185 1.247 . S
O195 Co182 2.244 . S
O195 C185 1.272 1_554 S
O195 Co187 2.135 . S
Co196 O197 2.216 . S
Co196 O198 2.091 . S
Co196 O200 2.004 . S
Co196 O206 2.021 . S
Co196 O208 2.137 . S
Co196 O209 2.244 . S
O197 Co196 2.216 . S
O197 C204 1.247 . S
O198 Co196 2.091 . S
O198 C204 1.261 . S
C199 O208 1.247 . S
C199 O209 1.272 . S
O200 Co196 2.004 . S
O200 C205 1.259 . S
Co201 O202 2.061 . S
Co201 O207 2.052 . S
Co201 O209 2.135 . S
O202 Co201 2.061 . S
O202 C205 1.235 . S
C203 O206 1.238 . S
C203 O207 1.241 . S
C204 O197 1.247 . S
C204 O198 1.261 . S
C205 O200 1.259 . S
C205 O202 1.235 . S
O206 Co196 2.021 . S
O206 C203 1.238 . S
O207 Co201 2.052 . S
O207 C203 1.241 . S
O208 Co196 2.137 . S
O208 C199 1.247 . S
O209 Co196 2.244 . S
O209 C199 1.272 . S
O209 Co201 2.135 . S
Co210 O211 2.216 . S
Co210 O212 2.091 . S
Co210 O214 2.004 . S
Co210 O220 2.021 . S
Co210 O222 2.137 . S
Co210 O223 2.244 . S
O211 Co210 2.216 . S
O211 C218 1.247 . S
O212 Co210 2.091 . S
O212 C218 1.261 . S
C213 O222 1.247 . S
C213 O223 1.272 . S
O214 Co210 2.004 . S
O214 C219 1.259 . S
Co215 O216 2.061 . S
Co215 O221 2.052 . S
Co215 O223 2.135 . S
O216 Co215 2.061 . S
O216 C219 1.235 . S
C217 O220 1.238 . S
C217 O221 1.241 . S
C218 O211 1.247 . S
C218 O212 1.261 . S
C219 O214 1.259 . S
C219 O216 1.235 . S
O220 Co210 2.021 . S
O220 C217 1.238 . S
O221 Co215 2.052 . S
O221 C217 1.241 . S
O222 Co210 2.137 . S
O222 C213 1.247 . S
O223 Co210 2.244 . S
O223 C213 1.272 . S
O223 Co215 2.135 . S
Co224 O225 2.216 . S
Co224 O226 2.091 . S
Co224 O228 2.004 1_545 S
Co224 O234 2.021 . S
Co224 O236 2.137 . S
Co224 O237 2.244 . S
O225 Co224 2.216 . S
O225 C232 1.247 . S
O226 Co224 2.091 . S
O226 C232 1.261 . S
C227 O236 1.247 . S
C227 O237 1.272 . S
O228 Co224 2.004 1_565 S
O228 C233 1.259 . S
Co229 O230 2.061 . S
Co229 O235 2.052 1_565 S
Co229 O237 2.135 1_565 S
O230 Co229 2.061 . S
O230 C233 1.235 . S
C231 O234 1.238 . S
C231 O235 1.241 . S
C232 O225 1.247 . S
C232 O226 1.261 . S
C233 O228 1.259 . S
C233 O230 1.235 . S
O234 Co224 2.021 . S
O234 C231 1.238 . S
O235 Co229 2.052 1_545 S
O235 C231 1.241 . S
O236 Co224 2.137 . S
O236 C227 1.247 . S
O237 Co224 2.244 . S
O237 C227 1.272 . S
O237 Co229 2.135 1_545 S
Co238 O239 2.216 . S
Co238 O240 2.091 . S
Co238 O242 2.004 . S
Co238 O248 2.021 . S
Co238 O250 2.137 . S
Co238 O251 2.244 . S
O239 Co238 2.216 . S
O239 C246 1.247 . S
O240 Co238 2.091 . S
O240 C246 1.261 . S
C241 O250 1.247 . S
C241 O251 1.272 . S
O242 Co238 2.004 . S
O242 C247 1.259 . S
Co243 O244 2.061 . S
Co243 O249 2.052 . S
Co243 O251 2.135 . S
O244 Co243 2.061 . S
O244 C247 1.235 . S
C245 O248 1.238 . S
C245 O249 1.241 . S
C246 O239 1.247 . S
C246 O240 1.261 . S
C247 O242 1.259 . S
C247 O244 1.235 . S
O248 Co238 2.021 . S
O248 C245 1.238 . S
O249 Co243 2.052 . S
O249 C245 1.241 . S
O250 Co238 2.137 . S
O250 C241 1.247 . S
O251 Co238 2.244 . S
O251 C241 1.272 . S
O251 Co243 2.135 . S
Co252 O253 2.216 . S
Co252 O254 2.091 . S
Co252 O256 2.004 . S
Co252 O262 2.021 . S
Co252 O264 2.137 . S
Co252 O265 2.244 . S
O253 Co252 2.216 . S
O253 C260 1.247 . S
O254 Co252 2.091 . S
O254 C260 1.261 . S
C255 O264 1.247 . S
C255 O265 1.272 . S
O256 Co252 2.004 . S
O256 C261 1.259 . S
Co257 O258 2.061 . S
Co257 O263 2.052 . S
Co257 O265 2.135 . S
O258 Co257 2.061 . S
O258 C261 1.235 . S
C259 O262 1.238 . S
C259 O263 1.241 . S
C260 O253 1.247 . S
C260 O254 1.261 . S
C261 O256 1.259 . S
C261 O258 1.235 . S
O262 Co252 2.021 . S
O262 C259 1.238 . S
O263 Co257 2.052 . S
O263 C259 1.241 . S
O264 Co252 2.137 . S
O264 C255 1.247 . S
O265 Co252 2.244 . S
O265 C255 1.272 . S
O265 Co257 2.135 . S
Co266 O267 2.216 . S
Co266 O268 2.091 . S
Co266 O270 2.004 1_565 S
Co266 O276 2.021 . S
Co266 O278 2.137 . S
Co266 O279 2.244 1_565 S
O267 Co266 2.216 . S
O267 C274 1.247 . S
O268 Co266 2.091 . S
O268 C274 1.261 . S
C269 O278 1.235 1_545 S
C269 O279 1.282 . S
O270 Co266 2.004 1_545 S
O270 C275 1.259 . S
Co271 O272 2.061 . S
Co271 O277 2.052 . S
Co271 O279 2.135 . S
O272 Co271 2.061 . S
O272 C275 1.235 . S
C273 O276 1.235 1_545 S
C273 O277 1.245 . S
C274 O267 1.247 . S
C274 O268 1.261 . S
C275 O270 1.259 . S
C275 O272 1.235 . S
O276 Co266 2.021 . S
O276 C273 1.235 1_565 S
O277 Co271 2.052 . S
O277 C273 1.245 . S
O278 Co266 2.137 . S
O278 C269 1.235 1_565 S
O279 Co266 2.244 1_545 S
O279 C269 1.282 . S
O279 Co271 2.135 . S
Co280 O281 2.216 . S
Co280 O282 2.093 . S
Co280 O284 2.004 . S
Co280 O290 2.021 1_556 S
Co280 O292 2.137 . S
Co280 O293 2.244 . S
O281 Co280 2.216 . S
O281 C288 1.242 1_556 S
O282 Co280 2.093 . S
O282 C288 1.266 1_556 S
C283 O292 1.247 . S
C283 O293 1.272 . S
O284 Co280 2.004 . S
O284 C289 1.259 . S
Co285 O286 2.063 1_554 S
Co285 O291 2.058 . S
Co285 O293 2.131 1_554 S
O286 Co285 2.063 1_556 S
O286 C289 1.236 . S
C287 O290 1.238 . S
C287 O291 1.241 . S
C288 O281 1.242 1_554 S
C288 O282 1.266 1_554 S
C289 O284 1.259 . S
C289 O286 1.236 . S
O290 Co280 2.021 1_554 S
O290 C287 1.238 . S
O291 Co285 2.058 . S
O291 C287 1.241 . S
O292 Co280 2.137 . S
O292 C283 1.247 . S
O293 Co280 2.244 . S
O293 C283 1.272 . S
O293 Co285 2.131 1_556 S
Co294 O295 2.216 . S
Co294 O296 2.091 . S
Co294 O298 2.004 . S
Co294 O304 2.021 . S
Co294 O306 2.137 . S
Co294 O307 2.244 . S
O295 Co294 2.216 . S
O295 C302 1.247 . S
O296 Co294 2.091 . S
O296 C302 1.261 . S
C297 O306 1.247 . S
C297 O307 1.272 . S
O298 Co294 2.004 . S
O298 C303 1.259 . S
Co299 O300 2.061 . S
Co299 O305 2.052 . S
Co299 O307 2.135 . S
O300 Co299 2.061 . S
O300 C303 1.235 . S
C301 O304 1.238 . S
C301 O305 1.241 . S
C302 O295 1.247 . S
C302 O296 1.261 . S
C303 O298 1.259 . S
C303 O300 1.235 . S
O304 Co294 2.021 . S
O304 C301 1.238 . S
O305 Co299 2.052 . S
O305 C301 1.241 . S
O306 Co294 2.137 . S
O306 C297 1.247 . S
O307 Co294 2.244 . S
O307 C297 1.272 . S
O307 Co299 2.135 . S
Co308 O309 2.216 . S
Co308 O310 2.091 . S
Co308 O312 2.004 . S
Co308 O318 2.021 . S
Co308 O320 2.137 . S
Co308 O321 2.244 . S
O309 Co308 2.216 . S
O309 C316 1.247 . S
O310 Co308 2.091 . S
O310 C316 1.261 . S
C311 O320 1.247 . S
C311 O321 1.272 . S
O312 Co308 2.004 . S
O312 C317 1.259 . S
Co313 O314 2.061 . S
Co313 O319 2.052 . S
Co313 O321 2.135 . S
O314 Co313 2.061 . S
O314 C317 1.235 . S
C315 O318 1.238 . S
C315 O319 1.241 . S
C316 O309 1.247 . S
C316 O310 1.261 . S
C317 O312 1.259 . S
C317 O314 1.235 . S
O318 Co308 2.021 . S
O318 C315 1.238 . S
O319 Co313 2.052 . S
O319 C315 1.241 . S
O320 Co308 2.137 . S
O320 C311 1.247 . S
O321 Co308 2.244 . S
O321 C311 1.272 . S
O321 Co313 2.135 . S
Co322 O323 2.216 . S
Co322 O324 2.091 . S
Co322 O326 2.004 . S
Co322 O332 2.021 . S
Co322 O334 2.137 . S
Co322 O335 2.244 . S
O323 Co322 2.216 . S
O323 C330 1.247 . S
O324 Co322 2.091 . S
O324 C330 1.261 . S
C325 O334 1.247 . S
C325 O335 1.272 . S
O326 Co322 2.004 . S
O326 C331 1.259 . S
Co327 O328 2.061 . S
Co327 O333 2.052 . S
Co327 O335 2.135 . S
O328 Co327 2.061 . S
O328 C331 1.235 . S
C329 O332 1.238 . S
C329 O333 1.241 . S
C330 O323 1.247 . S
C330 O324 1.261 . S
C331 O326 1.259 . S
C331 O328 1.235 . S
O332 Co322 2.021 . S
O332 C329 1.238 . S
O333 Co327 2.052 . S
O333 C329 1.241 . S
O334 Co322 2.137 . S
O334 C325 1.247 . S
O335 Co322 2.244 . S
O335 C325 1.272 . S
O335 Co327 2.135 . S
Zn336 O342 1.969 . S
Zn336 O343 1.965 1_565 S
Zn336 O347 2.024 . S
Zn336 O352 1.969 1_565 S
Zn337 O344 1.969 1_654 S
Zn337 O350 1.950 1_554 S
Zn337 O351 1.965 . S
Zn337 O353 2.024 1_655 S
C338 O339 1.229 . S
C338 O347 1.058 . S
O339 C338 1.229 . S
C340 O341 1.229 1_454 S
C340 O353 1.058 . S
O341 C340 1.229 1_656 S
O342 Zn336 1.969 . S
O342 C345 1.267 . S
O343 Zn336 1.965 1_545 S
O343 C354 1.260 1_554 S
O344 Zn337 1.969 1_456 S
O344 C354 1.258 . S
C345 O342 1.267 . S
C345 O346 1.228 . S
O346 C345 1.228 . S
O347 Zn336 2.024 . S
O347 C338 1.058 . S
C348 O349 1.228 . S
C348 O350 1.239 1_554 S
O349 C348 1.228 . S
O350 Zn337 1.950 1_556 S
O350 C348 1.239 1_556 S
O351 Zn337 1.965 . S
O351 C355 1.260 1_655 S
O352 Zn336 1.969 1_545 S
O352 C355 1.258 . S
O353 Zn337 2.024 1_455 S
O353 C340 1.058 . S
C354 O343 1.260 1_556 S
C354 O344 1.258 . S
C355 O351 1.260 1_455 S
C355 O352 1.258 . S
Zn356 O362 1.969 . S
Zn356 O363 1.965 . S
Zn356 O367 2.024 . S
Zn356 O372 1.969 . S
Zn357 O364 1.969 . S
Zn357 O370 1.969 . S
Zn357 O371 1.965 . S
Zn357 O373 2.024 . S
C358 O359 1.229 . S
C358 O367 1.058 . S
O359 C358 1.229 . S
C360 O361 1.229 . S
C360 O373 1.058 . S
O361 C360 1.229 . S
O362 Zn356 1.969 . S
O362 C365 1.267 . S
O363 Zn356 1.965 . S
O363 C374 1.260 . S
O364 Zn357 1.969 . S
O364 C374 1.258 . S
C365 O362 1.267 . S
C365 O366 1.228 . S
O366 C365 1.228 . S
O367 Zn356 2.024 . S
O367 C358 1.058 . S
C368 O369 1.228 . S
C368 O370 1.267 . S
O369 C368 1.228 . S
O370 Zn357 1.969 . S
O370 C368 1.267 . S
O371 Zn357 1.965 . S
O371 C375 1.260 . S
O372 Zn356 1.969 . S
O372 C375 1.258 . S
O373 Zn357 2.024 . S
O373 C360 1.058 . S
C374 O363 1.260 . S
C374 O364 1.258 . S
C375 O371 1.260 . S
C375 O372 1.258 . S
Zn376 O382 1.969 . S
Zn376 O383 1.965 . S
Zn376 O387 2.024 . S
Zn376 O392 1.969 . S
Zn377 O384 1.969 . S
Zn377 O390 1.969 . S
Zn377 O391 1.965 1_565 S
Zn377 O393 2.024 . S
C378 O379 1.229 . S
C378 O387 1.058 . S
O379 C378 1.229 . S
C380 O381 1.229 . S
C380 O393 1.058 . S
O381 C380 1.229 . S
O382 Zn376 1.969 . S
O382 C385 1.267 . S
O383 Zn376 1.965 . S
O383 C394 1.260 . S
O384 Zn377 1.969 . S
O384 C394 1.258 1_565 S
C385 O382 1.267 . S
C385 O386 1.228 . S
O386 C385 1.228 . S
O387 Zn376 2.024 . S
O387 C378 1.058 . S
C388 O389 1.228 . S
C388 O390 1.267 . S
O389 C388 1.228 . S
O390 Zn377 1.969 . S
O390 C388 1.267 . S
O391 Zn377 1.965 1_545 S
O391 C395 1.260 . S
O392 Zn376 1.969 . S
O392 C395 1.258 . S
O393 Zn377 2.024 . S
O393 C380 1.058 . S
C394 O383 1.260 . S
C394 O384 1.258 1_545 S
C395 O391 1.260 . S
C395 O392 1.258 . S
Zn396 O402 1.969 . S
Zn396 O403 1.965 . S
Zn396 O407 2.024 . S
Zn396 O412 1.969 . S
Zn397 O404 1.969 . S
Zn397 O410 1.969 . S
Zn397 O411 1.965 . S
Zn397 O413 2.024 . S
C398 O399 1.229 . S
C398 O407 1.058 . S
O399 C398 1.229 . S
C400 O401 1.229 . S
C400 O413 1.058 . S
O401 C400 1.229 . S
O402 Zn396 1.969 . S
O402 C405 1.267 . S
O403 Zn396 1.965 . S
O403 C414 1.260 . S
O404 Zn397 1.969 . S
O404 C414 1.258 . S
C405 O402 1.267 . S
C405 O406 1.228 . S
O406 C405 1.228 . S
O407 Zn396 2.024 . S
O407 C398 1.058 . S
C408 O409 1.228 . S
C408 O410 1.267 . S
O409 C408 1.228 . S
O410 Zn397 1.969 . S
O410 C408 1.267 . S
O411 Zn397 1.965 . S
O411 C415 1.260 . S
O412 Zn396 1.969 . S
O412 C415 1.258 . S
O413 Zn397 2.024 . S
O413 C400 1.058 . S
C414 O403 1.260 . S
C414 O404 1.258 . S
C415 O411 1.260 . S
C415 O412 1.258 . S
Zn416 O422 1.969 . S
Zn416 O423 1.965 1_455 S
Zn416 O427 2.024 1_565 S
Zn416 O432 1.969 1_565 S
Zn417 O424 1.969 1_455 S
Zn417 O430 1.969 1_455 S
Zn417 O431 1.965 . S
Zn417 O433 2.024 . S
C418 O419 1.229 1_545 S
C418 O427 1.058 . S
O419 C418 1.229 1_565 S
C420 O421 1.229 . S
C420 O433 1.058 1_655 S
O421 C420 1.229 . S
O422 Zn416 1.969 . S
O422 C425 1.267 . S
O423 Zn416 1.965 1_655 S
O423 C434 1.260 . S
O424 Zn417 1.969 1_655 S
O424 C434 1.258 1_545 S
C425 O422 1.267 . S
C425 O426 1.228 . S
O426 C425 1.228 . S
O427 Zn416 2.024 1_545 S
O427 C418 1.058 . S
C428 O429 1.228 . S
C428 O430 1.267 1_455 S
O429 C428 1.228 . S
O430 Zn417 1.969 1_655 S
O430 C428 1.267 1_655 S
O431 Zn417 1.965 . S
O431 C435 1.260 . S
O432 Zn416 1.969 1_545 S
O432 C435 1.258 . S
O433 Zn417 2.024 . S
O433 C420 1.058 1_455 S
C434 O423 1.260 . S
C434 O424 1.258 1_565 S
C435 O431 1.260 . S
C435 O432 1.258 . S
Zn436 O442 1.969 . S
Zn436 O443 1.965 . S
Zn436 O447 2.024 . S
Zn436 O452 1.969 . S
Zn437 O444 1.969 . S
Zn437 O450 1.969 . S
Zn437 O451 1.965 . S
Zn437 O453 2.024 . S
C438 O439 1.229 . S
C438 O447 1.058 . S
O439 C438 1.229 . S
C440 O441 1.229 . S
C440 O453 1.058 . S
O441 C440 1.229 . S
O442 Zn436 1.969 . S
O442 C445 1.267 . S
O443 Zn436 1.965 . S
O443 C454 1.260 . S
O444 Zn437 1.969 . S
O444 C454 1.258 . S
C445 O442 1.267 . S
C445 O446 1.228 . S
O446 C445 1.228 . S
O447 Zn436 2.024 . S
O447 C438 1.058 . S
C448 O449 1.228 . S
C448 O450 1.267 . S
O449 C448 1.228 . S
O450 Zn437 1.969 . S
O450 C448 1.267 . S
O451 Zn437 1.965 . S
O451 C455 1.260 . S
O452 Zn436 1.969 . S
O452 C455 1.258 . S
O453 Zn437 2.024 . S
O453 C440 1.058 . S
C454 O443 1.260 . S
C454 O444 1.258 . S
C455 O451 1.260 . S
C455 O452 1.258 . S
Zn456 O462 2.005 . S
Zn456 O463 1.965 1_545 S
Zn456 O467 2.005 1_556 S
Zn456 O472 1.952 1_556 S
Zn457 O464 1.969 1_545 S
Zn457 O470 1.969 1_545 S
Zn457 O471 1.965 . S
Zn457 O473 2.024 . S
C458 O459 1.229 . S
C458 O467 1.058 . S
O459 C458 1.229 . S
C460 O461 1.229 . S
C460 O473 1.058 1_565 S
O461 C460 1.229 . S
O462 Zn456 2.005 . S
O462 C465 1.267 . S
O463 Zn456 1.965 1_565 S
O463 C474 1.239 1_556 S
O464 Zn457 1.969 1_565 S
O464 C474 1.258 . S
C465 O462 1.267 . S
C465 O466 1.228 . S
O466 C465 1.228 . S
O467 Zn456 2.005 1_554 S
O467 C458 1.058 . S
C468 O469 1.228 . S
C468 O470 1.267 1_545 S
O469 C468 1.228 . S
O470 Zn457 1.969 1_565 S
O470 C468 1.267 1_565 S
O471 Zn457 1.965 . S
O471 C475 1.260 . S
O472 Zn456 1.952 1_554 S
O472 C475 1.258 . S
O473 Zn457 2.024 . S
O473 C460 1.058 1_545 S
C474 O463 1.239 1_554 S
C474 O464 1.258 . S
C475 O471 1.260 . S
C475 O472 1.258 . S
Zn476 O482 1.969 . S
Zn476 O483 1.965 . S
Zn476 O487 2.024 . S
Zn476 O492 1.969 . S
Zn477 O484 1.969 . S
Zn477 O490 1.969 . S
Zn477 O491 1.965 . S
Zn477 O493 2.024 . S
C478 O479 1.229 . S
C478 O487 1.058 . S
O479 C478 1.229 . S
C480 O481 1.229 . S
C480 O493 1.058 . S
O481 C480 1.229 . S
O482 Zn476 1.969 . S
O482 C485 1.267 . S
O483 Zn476 1.965 . S
O483 C494 1.260 . S
O484 Zn477 1.969 . S
O484 C494 1.258 . S
C485 O482 1.267 . S
C485 O486 1.228 . S
O486 C485 1.228 . S
O487 Zn476 2.024 . S
O487 C478 1.058 . S
C488 O489 1.228 . S
C488 O490 1.267 . S
O489 C488 1.228 . S
O490 Zn477 1.969 . S
O490 C488 1.267 . S
O491 Zn477 1.965 . S
O491 C495 1.260 . S
O492 Zn476 1.969 . S
O492 C495 1.258 . S
O493 Zn477 2.024 . S
O493 C480 1.058 . S
C494 O483 1.260 . S
C494 O484 1.258 . S
C495 O491 1.260 . S
C495 O492 1.258 . S
Zn496 O502 1.969 . S
Zn496 O503 1.965 . S
Zn496 O507 2.024 . S
Zn496 O512 1.969 . S
Zn497 O504 1.969 1_556 S
Zn497 O510 1.969 1_556 S
Zn497 O511 1.965 1_556 S
Zn497 O513 2.024 . S
C498 O499 1.229 . S
C498 O507 1.058 . S
O499 C498 1.229 . S
C500 O501 1.229 . S
C500 O513 1.058 . S
O501 C500 1.229 . S
O502 Zn496 1.969 . S
O502 C505 1.267 . S
O503 Zn496 1.965 . S
O503 C514 1.260 . S
O504 Zn497 1.969 1_554 S
O504 C514 1.258 . S
C505 O502 1.267 . S
C505 O506 1.228 . S
O506 C505 1.228 . S
O507 Zn496 2.024 . S
O507 C498 1.058 . S
C508 O509 1.228 . S
C508 O510 1.267 1_556 S
O509 C508 1.228 . S
O510 Zn497 1.969 1_554 S
O510 C508 1.267 1_554 S
O511 Zn497 1.965 1_554 S
O511 C515 1.260 . S
O512 Zn496 1.969 . S
O512 C515 1.258 . S
O513 Zn497 2.024 . S
O513 C500 1.058 . S
C514 O503 1.260 . S
C514 O504 1.258 . S
C515 O511 1.260 . S
C515 O512 1.258 . S
Zn516 O522 1.969 . S
Zn516 O523 1.965 . S
Zn516 O527 2.024 . S
Zn516 O532 1.969 . S
Zn517 O524 1.969 . S
Zn517 O530 1.969 . S
Zn517 O531 1.965 . S
Zn517 O533 2.024 . S
C518 O519 1.229 . S
C518 O527 1.058 . S
O519 C518 1.229 . S
C520 O521 1.229 . S
C520 O533 1.058 . S
O521 C520 1.229 . S
O522 Zn516 1.969 . S
O522 C525 1.267 . S
O523 Zn516 1.965 . S
O523 C534 1.260 . S
O524 Zn517 1.969 . S
O524 C534 1.258 . S
C525 O522 1.267 . S
C525 O526 1.228 . S
O526 C525 1.228 . S
O527 Zn516 2.024 . S
O527 C518 1.058 . S
C528 O529 1.228 . S
C528 O530 1.267 . S
O529 C528 1.228 . S
O530 Zn517 1.969 . S
O530 C528 1.267 . S
O531 Zn517 1.965 . S
O531 C535 1.260 . S
O532 Zn516 1.969 . S
O532 C535 1.258 . S
O533 Zn517 2.024 . S
O533 C520 1.058 . S
C534 O523 1.260 . S
C534 O524 1.258 . S
C535 O531 1.260 . S
C535 O532 1.258 . S
Zn536 O542 1.969 . S
Zn536 O543 1.965 . S
Zn536 O547 2.024 . S
Zn536 O552 1.969 . S
Zn537 O544 2.006 . S
Zn537 O550 1.969 . S
Zn537 O551 1.965 1_655 S
Zn537 O553 2.024 . S
C538 O539 1.229 . S
C538 O547 1.058 . S
O539 C538 1.229 . S
C540 O541 1.229 . S
C540 O553 1.058 . S
O541 C540 1.229 . S
O542 Zn536 1.969 . S
O542 C545 1.267 . S
O543 Zn536 1.965 . S
O543 C554 1.260 . S
O544 Zn537 2.006 . S
O544 C554 1.213 1_655 S
C545 O542 1.267 . S
C545 O546 1.228 . S
O546 C545 1.228 . S
O547 Zn536 2.024 . S
O547 C538 1.058 . S
C548 O549 1.228 . S
C548 O550 1.267 . S
O549 C548 1.228 . S
O550 Zn537 1.969 . S
O550 C548 1.267 . S
O551 Zn537 1.965 1_455 S
O551 C555 1.260 . S
O552 Zn536 1.969 . S
O552 C555 1.258 . S
O553 Zn537 2.024 . S
O553 C540 1.058 . S
C554 O543 1.260 . S
C554 O544 1.213 1_455 S
C555 O551 1.260 . S
C555 O552 1.258 . S
Zn556 O562 1.969 . S
Zn556 O563 1.965 . S
Zn556 O567 2.024 . S
Zn556 O572 1.969 . S
Zn557 O564 1.969 . S
Zn557 O570 1.969 . S
Zn557 O571 1.965 . S
Zn557 O573 2.024 . S
C558 O559 1.229 . S
C558 O567 1.058 . S
O559 C558 1.229 . S
C560 O561 1.229 . S
C560 O573 1.058 . S
O561 C560 1.229 . S
O562 Zn556 1.969 . S
O562 C565 1.267 . S
O563 Zn556 1.965 . S
O563 C574 1.260 . S
O564 Zn557 1.969 . S
O564 C574 1.258 . S
C565 O562 1.267 . S
C565 O566 1.228 . S
O566 C565 1.228 . S
O567 Zn556 2.024 . S
O567 C558 1.058 . S
C568 O569 1.228 . S
C568 O570 1.267 . S
O569 C568 1.228 . S
O570 Zn557 1.969 . S
O570 C568 1.267 . S
O571 Zn557 1.965 . S
O571 C575 1.260 . S
O572 Zn556 1.969 . S
O572 C575 1.258 . S
O573 Zn557 2.024 . S
O573 C560 1.058 . S
C574 O563 1.260 . S
C574 O564 1.258 . S
C575 O571 1.260 . S
C575 O572 1.258 . S
Zn576 O582 1.969 . S
Zn576 O583 1.965 . S
Zn576 O587 2.024 . S
Zn576 O592 1.969 . S
Zn577 O584 1.969 . S
Zn577 O590 1.969 . S
Zn577 O591 1.965 . S
Zn577 O593 2.024 . S
C578 O579 1.229 . S
C578 O587 1.058 . S
O579 C578 1.229 . S
C580 O581 1.229 . S
C580 O593 1.058 . S
O581 C580 1.229 . S
O582 Zn576 1.969 . S
O582 C585 1.267 . S
O583 Zn576 1.965 . S
O583 C594 1.260 . S
O584 Zn577 1.969 . S
O584 C594 1.258 . S
C585 O582 1.267 . S
C585 O586 1.228 . S
O586 C585 1.228 . S
O587 Zn576 2.024 . S
O587 C578 1.058 . S
C588 O589 1.228 . S
C588 O590 1.267 . S
O589 C588 1.228 . S
O590 Zn577 1.969 . S
O590 C588 1.267 . S
O591 Zn577 1.965 . S
O591 C595 1.260 . S
O592 Zn576 1.969 . S
O592 C595 1.258 . S
O593 Zn577 2.024 . S
O593 C580 1.058 . S
C594 O583 1.260 . S
C594 O584 1.258 . S
C595 O591 1.260 . S
C595 O592 1.258 . S
Zn596 O602 1.969 . S
Zn596 O603 1.965 . S
Zn596 O607 2.024 . S
Zn596 O612 1.969 . S
Zn597 O604 1.969 . S
Zn597 O610 1.969 . S
Zn597 O611 1.965 . S
Zn597 O613 2.024 . S
C598 O599 1.229 . S
C598 O607 1.058 . S
O599 C598 1.229 . S
C600 O601 1.229 . S
C600 O613 1.058 . S
O601 C600 1.229 . S
O602 Zn596 1.969 . S
O602 C605 1.267 . S
O603 Zn596 1.965 . S
O603 C614 1.260 . S
O604 Zn597 1.969 . S
O604 C614 1.258 . S
C605 O602 1.267 . S
C605 O606 1.228 . S
O606 C605 1.228 . S
O607 Zn596 2.024 . S
O607 C598 1.058 . S
C608 O609 1.228 . S
C608 O610 1.267 . S
O609 C608 1.228 . S
O610 Zn597 1.969 . S
O610 C608 1.267 . S
O611 Zn597 1.965 . S
O611 C615 1.260 . S
O612 Zn596 1.969 . S
O612 C615 1.258 . S
O613 Zn597 2.024 . S
O613 C600 1.058 . S
C614 O603 1.260 . S
C614 O604 1.258 . S
C615 O611 1.260 . S
C615 O612 1.258 . S
Zn616 O622 1.969 . S
Zn616 O623 1.965 . S
Zn616 O627 2.024 . S
Zn616 O632 1.969 . S
Zn617 O624 1.969 . S
Zn617 O630 1.969 . S
Zn617 O631 1.965 . S
Zn617 O633 2.024 . S
C618 O619 1.229 . S
C618 O627 1.058 . S
O619 C618 1.229 . S
C620 O621 1.229 . S
C620 O633 1.058 . S
O621 C620 1.229 . S
O622 Zn616 1.969 . S
O622 C625 1.267 . S
O623 Zn616 1.965 . S
O623 C634 1.260 . S
O624 Zn617 1.969 . S
O624 C634 1.258 . S
C625 O622 1.267 . S
C625 O626 1.228 . S
O626 C625 1.228 . S
O627 Zn616 2.024 . S
O627 C618 1.058 . S
C628 O629 1.228 . S
C628 O630 1.267 . S
O629 C628 1.228 . S
O630 Zn617 1.969 . S
O630 C628 1.267 . S
O631 Zn617 1.965 . S
O631 C635 1.260 . S
O632 Zn616 1.969 . S
O632 C635 1.258 . S
O633 Zn617 2.024 . S
O633 C620 1.058 . S
C634 O623 1.260 . S
C634 O624 1.258 . S
C635 O631 1.260 . S
C635 O632 1.258 . S
Zn636 O642 1.969 . S
Zn636 O643 1.965 . S
Zn636 O647 2.024 1_655 S
Zn636 O652 1.969 1_655 S
Zn637 O644 1.969 1_554 S
Zn637 O650 1.969 . S
Zn637 O651 1.965 . S
Zn637 O653 2.024 . S
C638 O639 1.229 1_455 S
C638 O647 1.058 . S
O639 C638 1.229 1_655 S
C640 O641 1.229 1_554 S
C640 O653 1.058 . S
O641 C640 1.229 1_556 S
O642 Zn636 1.969 . S
O642 C645 1.267 . S
O643 Zn636 1.965 . S
O643 C654 1.260 1_654 S
O644 Zn637 1.969 1_556 S
O644 C654 1.258 . S
C645 O642 1.267 . S
C645 O646 1.228 . S
O646 C645 1.228 . S
O647 Zn636 2.024 1_455 S
O647 C638 1.058 . S
C648 O649 1.228 . S
C648 O650 1.267 . S
O649 C648 1.228 . S
O650 Zn637 1.969 . S
O650 C648 1.267 . S
O651 Zn637 1.965 . S
O651 C655 1.260 . S
O652 Zn636 1.969 1_455 S
O652 C655 1.258 . S
O653 Zn637 2.024 . S
O653 C640 1.058 . S
C654 O643 1.260 1_456 S
C654 O644 1.258 . S
C655 O651 1.260 . S
C655 O652 1.258 . S
H656 C674 0.951 . S
H657 C676 0.951 . S
H658 C678 0.950 . S
H659 C679 0.950 . S
H660 C681 0.950 . S
H661 C684 0.950 . S
H662 C685 0.950 . S
H663 C687 0.950 . S
H664 C688 0.950 . S
H665 C689 0.951 . S
H666 C691 0.951 . S
H667 C693 0.950 . S
H668 C694 0.958 . S
H669 C696 0.950 . S
H670 C699 0.950 . S
H671 C700 0.950 . S
H672 C702 0.950 . S
H673 C703 0.950 . S
C674 H656 0.951 . S
C674 C675 1.368 1_655 S
C674 C676 1.388 . S
C675 C674 1.368 1_455 S
C675 C679 1.381 . S
C676 H657 0.951 . S
C676 C674 1.388 . S
C676 C677 1.366 1_655 S
C677 C676 1.366 1_455 S
C677 C678 1.414 . S
C677 C680 1.499 . S
C678 H658 0.950 . S
C678 C677 1.414 . S
C678 C679 1.374 . S
C679 H659 0.950 . S
C679 C675 1.381 . S
C679 C678 1.374 . S
C680 C677 1.499 . S
C680 C681 1.373 . S
C680 C682 1.389 . S
C681 H660 0.950 . S
C681 C680 1.373 . S
C681 C697 1.377 . S
C682 C680 1.389 . S
C682 C683 1.524 . S
C682 C696 1.377 . S
C683 C682 1.524 . S
C683 C684 1.397 . S
C683 C688 1.363 1_455 S
C684 H661 0.950 . S
C684 C683 1.397 . S
C684 C685 1.334 . S
C685 H662 0.950 . S
C685 C684 1.334 . S
C685 C686 1.287 1_556 S
C686 C685 1.287 1_554 S
C686 C687 1.524 1_455 S
C686 H705 0.913 . S
C687 H663 0.950 . S
C687 C686 1.524 1_655 S
C687 C688 1.415 1_554 S
C688 H664 0.950 . S
C688 C683 1.363 1_655 S
C688 C687 1.415 1_556 S
C689 H665 0.951 . S
C689 C690 1.366 1_556 S
C689 C691 1.388 . S
C690 C689 1.366 1_554 S
C690 C694 1.375 1_455 S
C691 H666 0.951 . S
C691 C689 1.388 . S
C691 C692 1.366 . S
C692 C691 1.366 . S
C692 C693 1.414 1_455 S
C692 C695 1.499 . S
C693 H667 0.950 . S
C693 C692 1.414 1_655 S
C693 C694 1.376 1_556 S
C694 H668 0.958 . S
C694 C690 1.375 1_655 S
C694 C693 1.376 1_554 S
C695 C692 1.499 . S
C695 C696 1.373 . S
C695 C697 1.389 . S
C696 H669 0.950 . S
C696 C682 1.377 . S
C696 C695 1.373 . S
C697 C681 1.377 . S
C697 C695 1.389 . S
C697 C698 1.524 . S
C698 C697 1.524 . S
C698 C699 1.397 1_455 S
C698 C703 1.363 . S
C699 H670 0.950 . S
C699 C698 1.397 1_655 S
C699 C700 1.334 . S
C700 H671 0.950 . S
C700 C699 1.334 . S
C700 C701 1.287 1_655 S
C701 C700 1.287 1_455 S
C701 C702 1.524 . S
C701 H704 0.999 . S
C702 H672 0.950 . S
C702 C701 1.524 . S
C702 C703 1.415 . S
C703 H673 0.950 . S
C703 C698 1.363 . S
C703 C702 1.415 . S
H704 C701 0.999 . S
H705 C686 0.913 . S
H706 C724 0.951 . S
H707 C726 0.951 . S
H708 C728 0.950 . S
H709 C729 0.950 . S
H710 C731 0.950 . S
H711 C734 0.950 . S
H712 C735 0.950 . S
H713 C737 0.950 . S
H714 C738 0.950 . S
H715 C739 0.951 . S
H716 C741 0.951 . S
H717 C743 0.950 . S
H718 C744 0.950 . S
H719 C746 0.950 . S
H720 C749 0.950 . S
H721 C750 0.950 . S
H722 C752 0.950 . S
H723 C753 0.950 . S
C724 H706 0.951 . S
C724 C725 1.366 . S
C724 C726 1.388 . S
C725 C724 1.366 . S
C725 C729 1.385 . S
C726 H707 0.951 . S
C726 C724 1.388 . S
C726 C727 1.366 . S
C727 C726 1.366 . S
C727 C728 1.414 . S
C727 C730 1.499 . S
C728 H708 0.950 . S
C728 C727 1.414 . S
C728 C729 1.374 . S
C729 H709 0.950 . S
C729 C725 1.385 . S
C729 C728 1.374 . S
C730 C727 1.499 . S
C730 C731 1.373 . S
C730 C732 1.389 . S
C731 H710 0.950 . S
C731 C730 1.373 . S
C731 C747 1.377 . S
C732 C730 1.389 . S
C732 C733 1.524 . S
C732 C746 1.377 . S
C733 C732 1.524 . S
C733 C734 1.397 . S
C733 C738 1.363 . S
C734 H711 0.950 . S
C734 C733 1.397 . S
C734 C735 1.334 . S
C735 H712 0.950 . S
C735 C734 1.334 . S
C735 C736 1.287 . S
C736 C735 1.287 . S
C736 C737 1.524 . S
C736 H755 0.913 . S
C737 H713 0.950 . S
C737 C736 1.524 . S
C737 C738 1.415 . S
C738 H714 0.950 . S
C738 C733 1.363 . S
C738 C737 1.415 . S
C739 H715 0.951 . S
C739 C740 1.366 . S
C739 C741 1.388 . S
C740 C739 1.366 . S
C740 C744 1.385 . S
C741 H716 0.951 . S
C741 C739 1.388 . S
C741 C742 1.366 . S
C742 C741 1.366 . S
C742 C743 1.414 . S
C742 C745 1.499 . S
C743 H717 0.950 . S
C743 C742 1.414 . S
C743 C744 1.374 . S
C744 H718 0.950 . S
C744 C740 1.385 . S
C744 C743 1.374 . S
C745 C742 1.499 . S
C745 C746 1.373 . S
C745 C747 1.389 . S
C746 H719 0.950 . S
C746 C732 1.377 . S
C746 C745 1.373 . S
C747 C731 1.377 . S
C747 C745 1.389 . S
C747 C748 1.524 . S
C748 C747 1.524 . S
C748 C749 1.397 . S
C748 C753 1.363 . S
C749 H720 0.950 . S
C749 C748 1.397 . S
C749 C750 1.334 . S
C750 H721 0.950 . S
C750 C749 1.334 . S
C750 C751 1.287 . S
C751 C750 1.287 . S
C751 C752 1.524 . S
C751 H754 0.999 . S
C752 H722 0.950 . S
C752 C751 1.524 . S
C752 C753 1.415 . S
C753 H723 0.950 . S
C753 C748 1.363 . S
C753 C752 1.415 . S
H754 C751 0.999 . S
H755 C736 0.913 . S
H756 C774 0.951 . S
H757 C776 0.951 . S
H758 C778 0.950 . S
H759 C779 0.950 . S
H760 C781 0.950 . S
H761 C784 0.950 . S
H762 C785 0.950 . S
H763 C787 0.950 . S
H764 C788 0.950 . S
H765 C789 0.951 . S
H766 C791 0.951 . S
H767 C793 0.950 . S
H768 C794 0.950 . S
H769 C796 0.950 . S
H770 C799 0.950 . S
H771 C800 0.950 . S
H772 C802 0.950 . S
H773 C803 0.950 . S
C774 H756 0.951 . S
C774 C775 1.366 . S
C774 C776 1.388 . S
C775 C774 1.366 . S
C775 C779 1.385 . S
C776 H757 0.951 . S
C776 C774 1.388 . S
C776 C777 1.366 . S
C777 C776 1.366 . S
C777 C778 1.414 . S
C777 C780 1.499 . S
C778 H758 0.950 . S
C778 C777 1.414 . S
C778 C779 1.374 . S
C779 H759 0.950 . S
C779 C775 1.385 . S
C779 C778 1.374 . S
C780 C777 1.499 . S
C780 C781 1.373 . S
C780 C782 1.389 . S
C781 H760 0.950 . S
C781 C780 1.373 . S
C781 C797 1.377 . S
C782 C780 1.389 . S
C782 C783 1.524 . S
C782 C796 1.377 . S
C783 C782 1.524 . S
C783 C784 1.397 . S
C783 C788 1.363 . S
C784 H761 0.950 . S
C784 C783 1.397 . S
C784 C785 1.334 . S
C785 H762 0.950 . S
C785 C784 1.334 . S
C785 C786 1.287 . S
C786 C785 1.287 . S
C786 C787 1.524 . S
C786 H805 0.913 . S
C787 H763 0.950 . S
C787 C786 1.524 . S
C787 C788 1.415 . S
C788 H764 0.950 . S
C788 C783 1.363 . S
C788 C787 1.415 . S
C789 H765 0.951 . S
C789 C790 1.366 . S
C789 C791 1.388 . S
C790 C789 1.366 . S
C790 C794 1.385 . S
C791 H766 0.951 . S
C791 C789 1.388 . S
C791 C792 1.366 . S
C792 C791 1.366 . S
C792 C793 1.414 . S
C792 C795 1.499 . S
C793 H767 0.950 . S
C793 C792 1.414 . S
C793 C794 1.374 . S
C794 H768 0.950 . S
C794 C790 1.385 . S
C794 C793 1.374 . S
C795 C792 1.499 . S
C795 C796 1.373 . S
C795 C797 1.389 . S
C796 H769 0.950 . S
C796 C782 1.377 . S
C796 C795 1.373 . S
C797 C781 1.377 . S
C797 C795 1.389 . S
C797 C798 1.524 . S
C798 C797 1.524 . S
C798 C799 1.397 . S
C798 C803 1.363 . S
C799 H770 0.950 . S
C799 C798 1.397 . S
C799 C800 1.334 . S
C800 H771 0.950 . S
C800 C799 1.334 . S
C800 C801 1.287 . S
C801 C800 1.287 . S
C801 C802 1.524 . S
C801 H804 0.999 . S
C802 H772 0.950 . S
C802 C801 1.524 . S
C802 C803 1.415 . S
C803 H773 0.950 . S
C803 C798 1.363 . S
C803 C802 1.415 . S
H804 C801 0.999 . S
H805 C786 0.913 . S
H806 C824 0.951 . S
H807 C826 0.951 . S
H808 C828 0.950 . S
H809 C829 0.950 . S
H810 C831 0.950 . S
H811 C834 0.950 . S
H812 C835 0.950 . S
H813 C837 0.950 . S
H814 C838 0.950 . S
H815 C839 0.951 . S
H816 C841 0.951 . S
H817 C843 0.950 . S
H818 C844 0.950 . S
H819 C846 0.950 . S
H820 C849 0.950 . S
H821 C850 0.950 . S
H822 C852 0.950 . S
H823 C853 0.950 . S
C824 H806 0.951 . S
C824 C825 1.366 . S
C824 C826 1.388 . S
C825 C824 1.366 . S
C825 C829 1.385 . S
C826 H807 0.951 . S
C826 C824 1.388 . S
C826 C827 1.366 . S
C827 C826 1.366 . S
C827 C828 1.414 . S
C827 C830 1.499 . S
C828 H808 0.950 . S
C828 C827 1.414 . S
C828 C829 1.374 . S
C829 H809 0.950 . S
C829 C825 1.385 . S
C829 C828 1.374 . S
C830 C827 1.499 . S
C830 C831 1.373 . S
C830 C832 1.389 . S
C831 H810 0.950 . S
C831 C830 1.373 . S
C831 C847 1.377 . S
C832 C830 1.389 . S
C832 C833 1.524 . S
C832 C846 1.377 . S
C833 C832 1.524 . S
C833 C834 1.397 . S
C833 C838 1.363 . S
C834 H811 0.950 . S
C834 C833 1.397 . S
C834 C835 1.334 . S
C835 H812 0.950 . S
C835 C834 1.334 . S
C835 C836 1.287 . S
C836 C835 1.287 . S
C836 C837 1.524 . S
C836 H855 0.913 . S
C837 H813 0.950 . S
C837 C836 1.524 . S
C837 C838 1.415 . S
C838 H814 0.950 . S
C838 C833 1.363 . S
C838 C837 1.415 . S
C839 H815 0.951 . S
C839 C840 1.366 . S
C839 C841 1.388 . S
C840 C839 1.366 . S
C840 C844 1.385 . S
C841 H816 0.951 . S
C841 C839 1.388 . S
C841 C842 1.366 . S
C842 C841 1.366 . S
C842 C843 1.414 . S
C842 C845 1.499 . S
C843 H817 0.950 . S
C843 C842 1.414 . S
C843 C844 1.374 . S
C844 H818 0.950 . S
C844 C840 1.385 . S
C844 C843 1.374 . S
C845 C842 1.499 . S
C845 C846 1.373 . S
C845 C847 1.389 . S
C846 H819 0.950 . S
C846 C832 1.377 . S
C846 C845 1.373 . S
C847 C831 1.377 . S
C847 C845 1.389 . S
C847 C848 1.524 . S
C848 C847 1.524 . S
C848 C849 1.397 . S
C848 C853 1.363 . S
C849 H820 0.950 . S
C849 C848 1.397 . S
C849 C850 1.334 . S
C850 H821 0.950 . S
C850 C849 1.334 . S
C850 C851 1.287 . S
C851 C850 1.287 . S
C851 C852 1.524 . S
C851 H854 0.999 . S
C852 H822 0.950 . S
C852 C851 1.524 . S
C852 C853 1.415 . S
C853 H823 0.950 . S
C853 C848 1.363 . S
C853 C852 1.415 . S
H854 C851 0.999 . S
H855 C836 0.913 . S
H856 C874 0.951 . S
H857 C876 0.951 . S
H858 C878 0.950 . S
H859 C879 0.950 . S
H860 C881 0.950 . S
H861 C884 0.950 1_655 S
H862 C885 0.910 1_655 S
H863 C887 0.950 . S
H864 C888 0.950 . S
H865 C889 0.951 1_655 S
H866 C891 0.951 1_655 S
H867 C893 0.950 . S
H868 C894 0.950 . S
H869 C896 0.950 . S
H870 C899 0.950 . S
H871 C900 0.950 . S
H872 C902 0.950 . S
H873 C903 0.950 . S
C874 H856 0.951 . S
C874 C875 1.366 . S
C874 C876 1.388 . S
C875 C874 1.366 . S
C875 C879 1.385 1_455 S
C876 H857 0.951 . S
C876 C874 1.388 . S
C876 C877 1.366 . S
C877 C876 1.366 . S
C877 C878 1.414 1_455 S
C877 C880 1.499 . S
C878 H858 0.950 . S
C878 C877 1.414 1_655 S
C878 C879 1.374 . S
C879 H859 0.950 . S
C879 C875 1.385 1_655 S
C879 C878 1.374 . S
C880 C877 1.499 . S
C880 C881 1.373 . S
C880 C882 1.389 . S
C881 H860 0.950 . S
C881 C880 1.373 . S
C881 C897 1.377 . S
C882 C880 1.389 . S
C882 C883 1.524 . S
C882 C896 1.377 . S
C883 C882 1.524 . S
C883 C884 1.397 . S
C883 C888 1.363 . S
C884 H861 0.950 1_455 S
C884 C883 1.397 . S
C884 C885 1.334 . S
C885 H862 0.910 1_455 S
C885 C884 1.334 . S
C885 C886 1.287 . S
C886 C885 1.287 . S
C886 C887 1.524 . S
C886 H905 0.913 . S
C887 H863 0.950 . S
C887 C886 1.524 . S
C887 C888 1.415 . S
C888 H864 0.950 . S
C888 C883 1.363 . S
C888 C887 1.415 . S
C889 H865 0.951 1_455 S
C889 C890 1.366 . S
C889 C891 1.388 . S
C890 C889 1.366 . S
C890 C894 1.385 . S
C891 H866 0.951 1_455 S
C891 C889 1.388 . S
C891 C892 1.366 . S
C892 C891 1.366 . S
C892 C893 1.414 . S
C892 C895 1.499 . S
C893 H867 0.950 . S
C893 C892 1.414 . S
C893 C894 1.374 . S
C894 H868 0.950 . S
C894 C890 1.385 . S
C894 C893 1.374 . S
C895 C892 1.499 . S
C895 C896 1.373 . S
C895 C897 1.389 . S
C896 H869 0.950 . S
C896 C882 1.377 . S
C896 C895 1.373 . S
C897 C881 1.377 . S
C897 C895 1.389 . S
C897 C898 1.524 . S
C898 C897 1.524 . S
C898 C899 1.397 . S
C898 C903 1.363 1_455 S
C899 H870 0.950 . S
C899 C898 1.397 . S
C899 C900 1.334 . S
C900 H871 0.950 . S
C900 C899 1.334 . S
C900 C901 1.287 . S
C901 C900 1.287 . S
C901 C902 1.524 1_455 S
C901 H904 0.999 . S
C902 H872 0.950 . S
C902 C901 1.524 1_655 S
C902 C903 1.415 . S
C903 H873 0.950 . S
C903 C898 1.363 1_655 S
C903 C902 1.415 . S
H904 C901 0.999 . S
H905 C886 0.913 . S
H906 C924 0.951 . S
H907 C926 0.951 . S
H908 C928 0.950 . S
H909 C929 0.950 . S
H910 C931 0.950 . S
H911 C934 0.950 . S
H912 C935 0.950 . S
H913 C937 0.950 . S
H914 C938 0.950 . S
H915 C939 0.951 . S
H916 C941 0.951 . S
H917 C943 0.950 . S
H918 C944 0.950 . S
H919 C946 0.950 . S
H920 C949 0.950 . S
H921 C950 0.950 . S
H922 C952 0.950 . S
H923 C953 0.950 . S
C924 H906 0.951 . S
C924 C925 1.366 . S
C924 C926 1.388 . S
C925 C924 1.366 . S
C925 C929 1.385 . S
C926 H907 0.951 . S
C926 C924 1.388 . S
C926 C927 1.366 . S
C927 C926 1.366 . S
C927 C928 1.414 . S
C927 C930 1.499 . S
C928 H908 0.950 . S
C928 C927 1.414 . S
C928 C929 1.374 . S
C929 H909 0.950 . S
C929 C925 1.385 . S
C929 C928 1.374 . S
C930 C927 1.499 . S
C930 C931 1.373 . S
C930 C932 1.389 . S
C931 H910 0.950 . S
C931 C930 1.373 . S
C931 C947 1.377 . S
C932 C930 1.389 . S
C932 C933 1.524 . S
C932 C946 1.377 . S
C933 C932 1.524 . S
C933 C934 1.397 . S
C933 C938 1.363 . S
C934 H911 0.950 . S
C934 C933 1.397 . S
C934 C935 1.334 . S
C935 H912 0.950 . S
C935 C934 1.334 . S
C935 C936 1.287 . S
C936 C935 1.287 . S
C936 C937 1.524 . S
C936 H955 0.913 . S
C937 H913 0.950 . S
C937 C936 1.524 . S
C937 C938 1.415 . S
C938 H914 0.950 . S
C938 C933 1.363 . S
C938 C937 1.415 . S
C939 H915 0.951 . S
C939 C940 1.366 . S
C939 C941 1.388 . S
C940 C939 1.366 . S
C940 C944 1.385 . S
C941 H916 0.951 . S
C941 C939 1.388 . S
C941 C942 1.366 . S
C942 C941 1.366 . S
C942 C943 1.414 . S
C942 C945 1.499 . S
C943 H917 0.950 . S
C943 C942 1.414 . S
C943 C944 1.374 . S
C944 H918 0.950 . S
C944 C940 1.385 . S
C944 C943 1.374 . S
C945 C942 1.499 . S
C945 C946 1.373 . S
C945 C947 1.389 . S
C946 H919 0.950 . S
C946 C932 1.377 . S
C946 C945 1.373 . S
C947 C931 1.377 . S
C947 C945 1.389 . S
C947 C948 1.524 . S
C948 C947 1.524 . S
C948 C949 1.397 . S
C948 C953 1.363 . S
C949 H920 0.950 . S
C949 C948 1.397 . S
C949 C950 1.334 . S
C950 H921 0.950 . S
C950 C949 1.334 . S
C950 C951 1.287 . S
C951 C950 1.287 . S
C951 C952 1.524 . S
C951 H954 0.999 . S
C952 H922 0.950 . S
C952 C951 1.524 . S
C952 C953 1.415 . S
C953 H923 0.950 . S
C953 C948 1.363 . S
C953 C952 1.415 . S
H954 C951 0.999 . S
H955 C936 0.913 . S
H956 C974 0.951 . S
H957 C976 0.951 . S
H958 C978 0.950 . S
H959 C979 0.950 . S
H960 C981 0.950 . S
H961 C984 0.950 . S
H962 C985 0.950 . S
H963 C987 0.950 . S
H964 C988 0.950 . S
H965 C989 0.951 . S
H966 C991 0.951 . S
H967 C993 0.950 . S
H968 C994 0.950 . S
H969 C996 0.950 . S
H970 C999 0.950 . S
H971 C1000 0.950 . S
H972 C1002 0.950 . S
H973 C1003 0.950 . S
C974 H956 0.951 . S
C974 C975 1.366 . S
C974 C976 1.388 . S
C975 C974 1.366 . S
C975 C979 1.385 . S
C976 H957 0.951 . S
C976 C974 1.388 . S
C976 C977 1.366 . S
C977 C976 1.366 . S
C977 C978 1.414 . S
C977 C980 1.499 . S
C978 H958 0.950 . S
C978 C977 1.414 . S
C978 C979 1.374 . S
C979 H959 0.950 . S
C979 C975 1.385 . S
C979 C978 1.374 . S
C980 C977 1.499 . S
C980 C981 1.373 . S
C980 C982 1.389 . S
C981 H960 0.950 . S
C981 C980 1.373 . S
C981 C997 1.377 . S
C982 C980 1.389 . S
C982 C983 1.524 . S
C982 C996 1.377 . S
C983 C982 1.524 . S
C983 C984 1.397 . S
C983 C988 1.363 . S
C984 H961 0.950 . S
C984 C983 1.397 . S
C984 C985 1.334 . S
C985 H962 0.950 . S
C985 C984 1.334 . S
C985 C986 1.287 . S
C986 C985 1.287 . S
C986 C987 1.524 . S
C986 H1005 0.913 . S
C987 H963 0.950 . S
C987 C986 1.524 . S
C987 C988 1.415 . S
C988 H964 0.950 . S
C988 C983 1.363 . S
C988 C987 1.415 . S
C989 H965 0.951 . S
C989 C990 1.366 . S
C989 C991 1.388 . S
C990 C989 1.366 . S
C990 C994 1.385 . S
C991 H966 0.951 . S
C991 C989 1.388 . S
C991 C992 1.366 . S
C992 C991 1.366 . S
C992 C993 1.414 . S
C992 C995 1.499 . S
C993 H967 0.950 . S
C993 C992 1.414 . S
C993 C994 1.374 . S
C994 H968 0.950 . S
C994 C990 1.385 . S
C994 C993 1.374 . S
C995 C992 1.499 . S
C995 C996 1.373 . S
C995 C997 1.389 . S
C996 H969 0.950 . S
C996 C982 1.377 . S
C996 C995 1.373 . S
C997 C981 1.377 . S
C997 C995 1.389 . S
C997 C998 1.524 . S
C998 C997 1.524 . S
C998 C999 1.397 . S
C998 C1003 1.363 . S
C999 H970 0.950 . S
C999 C998 1.397 . S
C999 C1000 1.334 . S
C1000 H971 0.950 . S
C1000 C999 1.334 . S
C1000 C1001 1.287 . S
C1001 C1000 1.287 . S
C1001 C1002 1.524 . S
C1001 H1004 0.999 . S
C1002 H972 0.950 . S
C1002 C1001 1.524 . S
C1002 C1003 1.415 . S
C1003 H973 0.950 . S
C1003 C998 1.363 . S
C1003 C1002 1.415 . S
H1004 C1001 0.999 . S
H1005 C986 0.913 . S
H1006 C1024 0.951 . S
H1007 C1026 0.951 . S
H1008 C1028 0.950 . S
H1009 C1029 0.950 . S
H1010 C1031 0.950 . S
H1011 C1034 0.950 . S
H1012 C1035 0.950 . S
H1013 C1037 0.950 . S
H1014 C1038 0.950 . S
H1015 C1039 0.951 . S
H1016 C1041 0.951 . S
H1017 C1043 0.950 . S
H1018 C1044 0.950 . S
H1019 C1046 0.950 . S
H1020 C1049 0.950 . S
H1021 C1050 0.950 . S
H1022 C1052 0.950 . S
H1023 C1053 0.950 . S
C1024 H1006 0.951 . S
C1024 C1025 1.366 . S
C1024 C1026 1.388 . S
C1025 C1024 1.366 . S
C1025 C1029 1.385 . S
C1026 H1007 0.951 . S
C1026 C1024 1.388 . S
C1026 C1027 1.366 . S
C1027 C1026 1.366 . S
C1027 C1028 1.414 . S
C1027 C1030 1.499 . S
C1028 H1008 0.950 . S
C1028 C1027 1.414 . S
C1028 C1029 1.374 . S
C1029 H1009 0.950 . S
C1029 C1025 1.385 . S
C1029 C1028 1.374 . S
C1030 C1027 1.499 . S
C1030 C1031 1.373 . S
C1030 C1032 1.389 . S
C1031 H1010 0.950 . S
C1031 C1030 1.373 . S
C1031 C1047 1.377 . S
C1032 C1030 1.389 . S
C1032 C1033 1.524 . S
C1032 C1046 1.377 . S
C1033 C1032 1.524 . S
C1033 C1034 1.397 . S
C1033 C1038 1.363 . S
C1034 H1011 0.950 . S
C1034 C1033 1.397 . S
C1034 C1035 1.334 . S
C1035 H1012 0.950 . S
C1035 C1034 1.334 . S
C1035 C1036 1.287 . S
C1036 C1035 1.287 . S
C1036 C1037 1.524 . S
C1036 H1055 0.913 . S
C1037 H1013 0.950 . S
C1037 C1036 1.524 . S
C1037 C1038 1.415 . S
C1038 H1014 0.950 . S
C1038 C1033 1.363 . S
C1038 C1037 1.415 . S
C1039 H1015 0.951 . S
C1039 C1040 1.366 . S
C1039 C1041 1.388 . S
C1040 C1039 1.366 . S
C1040 C1044 1.385 . S
C1041 H1016 0.951 . S
C1041 C1039 1.388 . S
C1041 C1042 1.366 . S
C1042 C1041 1.366 . S
C1042 C1043 1.414 . S
C1042 C1045 1.499 . S
C1043 H1017 0.950 . S
C1043 C1042 1.414 . S
C1043 C1044 1.374 . S
C1044 H1018 0.950 . S
C1044 C1040 1.385 . S
C1044 C1043 1.374 . S
C1045 C1042 1.499 . S
C1045 C1046 1.373 . S
C1045 C1047 1.389 . S
C1046 H1019 0.950 . S
C1046 C1032 1.377 . S
C1046 C1045 1.373 . S
C1047 C1031 1.377 . S
C1047 C1045 1.389 . S
C1047 C1048 1.524 . S
C1048 C1047 1.524 . S
C1048 C1049 1.397 . S
C1048 C1053 1.363 . S
C1049 H1020 0.950 . S
C1049 C1048 1.397 . S
C1049 C1050 1.334 . S
C1050 H1021 0.950 . S
C1050 C1049 1.334 . S
C1050 C1051 1.287 . S
C1051 C1050 1.287 . S
C1051 C1052 1.524 . S
C1051 H1054 0.999 . S
C1052 H1022 0.950 . S
C1052 C1051 1.524 . S
C1052 C1053 1.415 . S
C1053 H1023 0.950 . S
C1053 C1048 1.363 . S
C1053 C1052 1.415 . S
H1054 C1051 0.999 . S
H1055 C1036 0.913 . S
H1056 C1074 0.951 . S
H1057 C1076 0.951 . S
H1058 C1078 0.950 . S
H1059 C1079 0.950 . S
H1060 C1081 0.950 . S
H1061 C1084 0.950 . S
H1062 C1085 0.950 . S
H1063 C1087 0.950 . S
H1064 C1088 0.950 . S
H1065 C1089 0.951 . S
H1066 C1091 0.951 1_455 S
H1067 C1093 0.950 . S
H1068 C1094 0.950 . S
H1069 C1096 0.950 1_565 S
H1070 C1099 0.950 . S
H1071 C1100 0.950 . S
H1072 C1102 0.950 1_455 S
H1073 C1103 0.950 . S
C1074 H1056 0.951 . S
C1074 C1075 1.366 . S
C1074 C1076 1.388 . S
C1075 C1074 1.366 . S
C1075 C1079 1.385 . S
C1076 H1057 0.951 . S
C1076 C1074 1.388 . S
C1076 C1077 1.366 . S
C1077 C1076 1.366 . S
C1077 C1078 1.414 . S
C1077 C1080 1.499 . S
C1078 H1058 0.950 . S
C1078 C1077 1.414 . S
C1078 C1079 1.374 . S
C1079 H1059 0.950 . S
C1079 C1075 1.385 . S
C1079 C1078 1.374 . S
C1080 C1077 1.499 . S
C1080 C1081 1.373 . S
C1080 C1082 1.394 . S
C1081 H1060 0.950 . S
C1081 C1080 1.373 . S
C1081 C1097 1.377 . S
C1082 C1080 1.394 . S
C1082 C1083 1.519 1_545 S
C1082 C1096 1.377 . S
C1083 C1082 1.519 1_565 S
C1083 C1084 1.397 . S
C1083 C1088 1.363 . S
C1084 H1061 0.950 . S
C1084 C1083 1.397 . S
C1084 C1085 1.334 . S
C1085 H1062 0.950 . S
C1085 C1084 1.334 . S
C1085 C1086 1.287 . S
C1086 C1085 1.287 . S
C1086 C1087 1.524 . S
C1086 H1105 0.913 . S
C1087 H1063 0.950 . S
C1087 C1086 1.524 . S
C1087 C1088 1.415 . S
C1088 H1064 0.950 . S
C1088 C1083 1.363 . S
C1088 C1087 1.415 . S
C1089 H1065 0.951 . S
C1089 C1090 1.366 1_455 S
C1089 C1091 1.388 1_455 S
C1090 C1089 1.366 1_655 S
C1090 C1094 1.385 . S
C1091 H1066 0.951 1_655 S
C1091 C1089 1.388 1_655 S
C1091 C1092 1.366 . S
C1092 C1091 1.366 . S
C1092 C1093 1.414 . S
C1092 C1095 1.499 . S
C1093 H1067 0.950 . S
C1093 C1092 1.414 . S
C1093 C1094 1.374 . S
C1094 H1068 0.950 . S
C1094 C1090 1.385 . S
C1094 C1093 1.374 . S
C1095 C1092 1.499 . S
C1095 C1096 1.373 . S
C1095 C1097 1.389 . S
C1096 H1069 0.950 1_545 S
C1096 C1082 1.377 . S
C1096 C1095 1.373 . S
C1097 C1081 1.377 . S
C1097 C1095 1.389 . S
C1097 C1098 1.524 . S
C1098 C1097 1.524 . S
C1098 C1099 1.397 . S
C1098 C1103 1.363 . S
C1099 H1070 0.950 . S
C1099 C1098 1.397 . S
C1099 C1100 1.334 . S
C1100 H1071 0.950 . S
C1100 C1099 1.334 . S
C1100 C1101 1.287 . S
C1101 C1100 1.287 . S
C1101 C1102 1.524 . S
C1101 H1104 0.999 . S
C1102 H1072 0.950 1_655 S
C1102 C1101 1.524 . S
C1102 C1103 1.415 . S
C1103 H1073 0.950 . S
C1103 C1098 1.363 . S
C1103 C1102 1.415 . S
H1104 C1101 0.999 . S
H1105 C1086 0.913 . S
H1106 C1124 0.951 . S
H1107 C1126 0.951 . S
H1108 C1128 0.950 . S
H1109 C1129 0.950 . S
H1110 C1131 0.950 . S
H1111 C1134 0.950 . S
H1112 C1135 0.950 . S
H1113 C1137 0.950 . S
H1114 C1138 0.950 . S
H1115 C1139 0.951 . S
H1116 C1141 0.951 . S
H1117 C1143 0.950 . S
H1118 C1144 0.950 . S
H1119 C1146 0.950 . S
H1120 C1149 0.950 . S
H1121 C1150 0.950 . S
H1122 C1152 0.950 . S
H1123 C1153 0.950 . S
C1124 H1106 0.951 . S
C1124 C1125 1.366 . S
C1124 C1126 1.388 . S
C1125 C1124 1.366 . S
C1125 C1129 1.385 . S
C1126 H1107 0.951 . S
C1126 C1124 1.388 . S
C1126 C1127 1.366 . S
C1127 C1126 1.366 . S
C1127 C1128 1.414 . S
C1127 C1130 1.499 . S
C1128 H1108 0.950 . S
C1128 C1127 1.414 . S
C1128 C1129 1.374 . S
C1129 H1109 0.950 . S
C1129 C1125 1.385 . S
C1129 C1128 1.374 . S
C1130 C1127 1.499 . S
C1130 C1131 1.373 . S
C1130 C1132 1.389 . S
C1131 H1110 0.950 . S
C1131 C1130 1.373 . S
C1131 C1147 1.377 . S
C1132 C1130 1.389 . S
C1132 C1133 1.524 . S
C1132 C1146 1.377 . S
C1133 C1132 1.524 . S
C1133 C1134 1.397 . S
C1133 C1138 1.363 . S
C1134 H1111 0.950 . S
C1134 C1133 1.397 . S
C1134 C1135 1.334 . S
C1135 H1112 0.950 . S
C1135 C1134 1.334 . S
C1135 C1136 1.287 . S
C1136 C1135 1.287 . S
C1136 C1137 1.524 . S
C1136 H1155 0.913 . S
C1137 H1113 0.950 . S
C1137 C1136 1.524 . S
C1137 C1138 1.415 . S
C1138 H1114 0.950 . S
C1138 C1133 1.363 . S
C1138 C1137 1.415 . S
C1139 H1115 0.951 . S
C1139 C1140 1.366 . S
C1139 C1141 1.388 . S
C1140 C1139 1.366 . S
C1140 C1144 1.385 . S
C1141 H1116 0.951 . S
C1141 C1139 1.388 . S
C1141 C1142 1.366 . S
C1142 C1141 1.366 . S
C1142 C1143 1.414 . S
C1142 C1145 1.499 . S
C1143 H1117 0.950 . S
C1143 C1142 1.414 . S
C1143 C1144 1.374 . S
C1144 H1118 0.950 . S
C1144 C1140 1.385 . S
C1144 C1143 1.374 . S
C1145 C1142 1.499 . S
C1145 C1146 1.373 . S
C1145 C1147 1.389 . S
C1146 H1119 0.950 . S
C1146 C1132 1.377 . S
C1146 C1145 1.373 . S
C1147 C1131 1.377 . S
C1147 C1145 1.389 . S
C1147 C1148 1.524 . S
C1148 C1147 1.524 . S
C1148 C1149 1.397 . S
C1148 C1153 1.363 . S
C1149 H1120 0.950 . S
C1149 C1148 1.397 . S
C1149 C1150 1.334 . S
C1150 H1121 0.950 . S
C1150 C1149 1.334 . S
C1150 C1151 1.287 . S
C1151 C1150 1.287 . S
C1151 C1152 1.524 . S
C1151 H1154 0.999 . S
C1152 H1122 0.950 . S
C1152 C1151 1.524 . S
C1152 C1153 1.415 . S
C1153 H1123 0.950 . S
C1153 C1148 1.363 . S
C1153 C1152 1.415 . S
H1154 C1151 0.999 . S
H1155 C1136 0.913 . S
H1156 C1174 0.951 . S
H1157 C1176 0.951 . S
H1158 C1178 0.950 . S
H1159 C1179 0.950 . S
H1160 C1181 0.950 . S
H1161 C1184 0.950 . S
H1162 C1185 0.950 . S
H1163 C1187 0.950 . S
H1164 C1188 0.950 . S
H1165 C1189 0.951 . S
H1166 C1191 0.951 . S
H1167 C1193 0.950 . S
H1168 C1194 0.950 . S
H1169 C1196 0.950 . S
H1170 C1199 0.950 . S
H1171 C1200 0.950 . S
H1172 C1202 0.950 . S
H1173 C1203 0.950 . S
C1174 H1156 0.951 . S
C1174 C1175 1.366 . S
C1174 C1176 1.388 . S
C1175 C1174 1.366 . S
C1175 C1179 1.385 1_565 S
C1176 H1157 0.951 . S
C1176 C1174 1.388 . S
C1176 C1177 1.366 . S
C1177 C1176 1.366 . S
C1177 C1178 1.414 1_565 S
C1177 C1180 1.499 . S
C1178 H1158 0.950 . S
C1178 C1177 1.414 1_545 S
C1178 C1179 1.374 . S
C1179 H1159 0.950 . S
C1179 C1175 1.385 1_545 S
C1179 C1178 1.374 . S
C1180 C1177 1.499 . S
C1180 C1181 1.373 1_565 S
C1180 C1182 1.389 . S
C1181 H1160 0.950 . S
C1181 C1180 1.373 1_545 S
C1181 C1197 1.377 . S
C1182 C1180 1.389 . S
C1182 C1183 1.524 . S
C1182 C1196 1.377 . S
C1183 C1182 1.524 . S
C1183 C1184 1.397 . S
C1183 C1188 1.363 . S
C1184 H1161 0.950 . S
C1184 C1183 1.397 . S
C1184 C1185 1.334 . S
C1185 H1162 0.950 . S
C1185 C1184 1.334 . S
C1185 C1186 1.287 . S
C1186 C1185 1.287 . S
C1186 C1187 1.524 . S
C1186 H1205 0.913 . S
C1187 H1163 0.950 . S
C1187 C1186 1.524 . S
C1187 C1188 1.415 . S
C1188 H1164 0.950 . S
C1188 C1183 1.363 . S
C1188 C1187 1.415 . S
C1189 H1165 0.951 . S
C1189 C1190 1.366 . S
C1189 C1191 1.388 . S
C1190 C1189 1.366 . S
C1190 C1194 1.385 1_545 S
C1191 H1166 0.951 . S
C1191 C1189 1.388 . S
C1191 C1192 1.366 . S
C1192 C1191 1.366 . S
C1192 C1193 1.414 1_545 S
C1192 C1195 1.498 . S
C1193 H1167 0.950 . S
C1193 C1192 1.414 1_565 S
C1193 C1194 1.374 . S
C1194 H1168 0.950 . S
C1194 C1190 1.385 1_565 S
C1194 C1193 1.374 . S
C1195 C1192 1.498 . S
C1195 C1196 1.376 1_545 S
C1195 C1197 1.387 . S
C1196 H1169 0.950 . S
C1196 C1182 1.377 . S
C1196 C1195 1.376 1_565 S
C1197 C1181 1.377 . S
C1197 C1195 1.387 . S
C1197 C1198 1.524 . S
C1198 C1197 1.524 . S
C1198 C1199 1.397 . S
C1198 C1203 1.363 . S
C1199 H1170 0.950 . S
C1199 C1198 1.397 . S
C1199 C1200 1.334 . S
C1200 H1171 0.950 . S
C1200 C1199 1.334 . S
C1200 C1201 1.287 . S
C1201 C1200 1.287 . S
C1201 C1202 1.524 . S
C1201 H1204 0.999 . S
C1202 H1172 0.950 . S
C1202 C1201 1.524 . S
C1202 C1203 1.415 . S
C1203 H1173 0.950 . S
C1203 C1198 1.363 . S
C1203 C1202 1.415 . S
H1204 C1201 0.999 . S
H1205 C1186 0.913 . S
H1206 C1224 0.951 . S
H1207 C1226 0.951 . S
H1208 C1228 0.950 . S
H1209 C1229 0.950 . S
H1210 C1231 0.950 . S
H1211 C1234 0.950 . S
H1212 C1235 0.950 . S
H1213 C1237 0.950 . S
H1214 C1238 0.950 . S
H1215 C1239 0.951 . S
H1216 C1241 0.951 . S
H1217 C1243 0.950 . S
H1218 C1244 0.950 . S
H1219 C1246 0.950 . S
H1220 C1249 0.950 . S
H1221 C1250 0.950 . S
H1222 C1252 0.950 . S
H1223 C1253 0.950 . S
C1224 H1206 0.951 . S
C1224 C1225 1.366 . S
C1224 C1226 1.388 . S
C1225 C1224 1.366 . S
C1225 C1229 1.385 . S
C1226 H1207 0.951 . S
C1226 C1224 1.388 . S
C1226 C1227 1.366 . S
C1227 C1226 1.366 . S
C1227 C1228 1.414 . S
C1227 C1230 1.499 . S
C1228 H1208 0.950 . S
C1228 C1227 1.414 . S
C1228 C1229 1.374 . S
C1229 H1209 0.950 . S
C1229 C1225 1.385 . S
C1229 C1228 1.374 . S
C1230 C1227 1.499 . S
C1230 C1231 1.373 . S
C1230 C1232 1.389 . S
C1231 H1210 0.950 . S
C1231 C1230 1.373 . S
C1231 C1247 1.377 . S
C1232 C1230 1.389 . S
C1232 C1233 1.524 . S
C1232 C1246 1.377 . S
C1233 C1232 1.524 . S
C1233 C1234 1.397 . S
C1233 C1238 1.363 . S
C1234 H1211 0.950 . S
C1234 C1233 1.397 . S
C1234 C1235 1.334 . S
C1235 H1212 0.950 . S
C1235 C1234 1.334 . S
C1235 C1236 1.287 . S
C1236 C1235 1.287 . S
C1236 C1237 1.524 . S
C1236 H1255 0.913 . S
C1237 H1213 0.950 . S
C1237 C1236 1.524 . S
C1237 C1238 1.415 . S
C1238 H1214 0.950 . S
C1238 C1233 1.363 . S
C1238 C1237 1.415 . S
C1239 H1215 0.951 . S
C1239 C1240 1.366 . S
C1239 C1241 1.388 . S
C1240 C1239 1.366 . S
C1240 C1244 1.385 . S
C1241 H1216 0.951 . S
C1241 C1239 1.388 . S
C1241 C1242 1.366 . S
C1242 C1241 1.366 . S
C1242 C1243 1.414 . S
C1242 C1245 1.499 . S
C1243 H1217 0.950 . S
C1243 C1242 1.414 . S
C1243 C1244 1.374 . S
C1244 H1218 0.950 . S
C1244 C1240 1.385 . S
C1244 C1243 1.374 . S
C1245 C1242 1.499 . S
C1245 C1246 1.373 . S
C1245 C1247 1.389 . S
C1246 H1219 0.950 . S
C1246 C1232 1.377 . S
C1246 C1245 1.373 . S
C1247 C1231 1.377 . S
C1247 C1245 1.389 . S
C1247 C1248 1.524 . S
C1248 C1247 1.524 . S
C1248 C1249 1.397 . S
C1248 C1253 1.363 . S
C1249 H1220 0.950 . S
C1249 C1248 1.397 . S
C1249 C1250 1.334 . S
C1250 H1221 0.950 . S
C1250 C1249 1.334 . S
C1250 C1251 1.287 . S
C1251 C1250 1.287 . S
C1251 C1252 1.524 . S
C1251 H1254 0.999 . S
C1252 H1222 0.950 . S
C1252 C1251 1.524 . S
C1252 C1253 1.415 . S
C1253 H1223 0.950 . S
C1253 C1248 1.363 . S
C1253 C1252 1.415 . S
H1254 C1251 0.999 . S
H1255 C1236 0.913 . S
H1256 C1274 0.951 . S
H1257 C1276 0.951 . S
H1258 C1278 0.950 . S
H1259 C1279 0.950 . S
H1260 C1281 0.923 1_565 S
H1261 C1284 0.950 . S
H1262 C1285 0.950 . S
H1263 C1287 0.950 . S
H1264 C1288 0.950 . S
H1265 C1289 0.989 . S
H1266 C1291 0.951 . S
H1267 C1293 0.950 . S
H1268 C1294 0.950 . S
H1269 C1296 0.950 . S
H1270 C1299 0.950 . S
H1271 C1300 0.950 . S
H1272 C1302 0.898 1_455 S
H1273 C1303 0.950 . S
C1274 H1256 0.951 . S
C1274 C1275 1.366 . S
C1274 C1276 1.388 . S
C1275 C1274 1.366 . S
C1275 C1279 1.385 . S
C1276 H1257 0.951 . S
C1276 C1274 1.388 . S
C1276 C1277 1.366 . S
C1277 C1276 1.366 . S
C1277 C1278 1.414 . S
C1277 C1280 1.499 . S
C1278 H1258 0.950 . S
C1278 C1277 1.414 . S
C1278 C1279 1.374 . S
C1279 H1259 0.950 . S
C1279 C1275 1.385 . S
C1279 C1278 1.374 . S
C1280 C1277 1.499 . S
C1280 C1281 1.415 . S
C1280 C1282 1.389 . S
C1281 H1260 0.923 1_545 S
C1281 C1280 1.415 . S
C1281 C1297 1.365 1_545 S
C1282 C1280 1.389 . S
C1282 C1283 1.524 . S
C1282 C1296 1.377 . S
C1283 C1282 1.524 . S
C1283 C1284 1.397 . S
C1283 C1288 1.363 . S
C1284 H1261 0.950 . S
C1284 C1283 1.397 . S
C1284 C1285 1.334 . S
C1285 H1262 0.950 . S
C1285 C1284 1.334 . S
C1285 C1286 1.287 . S
C1286 C1285 1.287 . S
C1286 C1287 1.524 . S
C1286 H1305 0.913 . S
C1287 H1263 0.950 . S
C1287 C1286 1.524 . S
C1287 C1288 1.415 . S
C1288 H1264 0.950 . S
C1288 C1283 1.363 . S
C1288 C1287 1.415 . S
C1289 H1265 0.989 . S
C1289 C1290 1.345 1_455 S
C1289 C1291 1.372 1_455 S
C1290 C1289 1.345 1_655 S
C1290 C1294 1.385 . S
C1291 H1266 0.951 . S
C1291 C1289 1.372 1_655 S
C1291 C1292 1.366 . S
C1292 C1291 1.366 . S
C1292 C1293 1.414 . S
C1292 C1295 1.499 . S
C1293 H1267 0.950 . S
C1293 C1292 1.414 . S
C1293 C1294 1.374 . S
C1294 H1268 0.950 . S
C1294 C1290 1.385 . S
C1294 C1293 1.374 . S
C1295 C1292 1.499 . S
C1295 C1296 1.373 . S
C1295 C1297 1.389 1_545 S
C1296 H1269 0.950 . S
C1296 C1282 1.377 . S
C1296 C1295 1.373 . S
C1297 C1281 1.365 1_565 S
C1297 C1295 1.389 1_565 S
C1297 C1298 1.524 . S
C1298 C1297 1.524 . S
C1298 C1299 1.397 . S
C1298 C1303 1.363 . S
C1299 H1270 0.950 . S
C1299 C1298 1.397 . S
C1299 C1300 1.334 . S
C1300 H1271 0.950 . S
C1300 C1299 1.334 . S
C1300 C1301 1.287 . S
C1301 C1300 1.287 . S
C1301 C1302 1.544 . S
C1301 H1304 1.025 . S
C1302 H1272 0.898 1_655 S
C1302 C1301 1.544 . S
C1302 C1303 1.456 . S
C1303 H1273 0.950 . S
C1303 C1298 1.363 . S
C1303 C1302 1.456 . S
H1304 C1301 1.025 . S
H1305 C1286 0.913 . S
H1306 C1324 0.951 . S
H1307 C1326 0.951 . S
H1308 C1328 0.950 . S
H1309 C1329 0.950 . S
H1310 C1331 0.950 . S
H1311 C1334 0.950 . S
H1312 C1335 0.950 . S
H1313 C1337 0.950 . S
H1314 C1338 0.950 . S
H1315 C1339 0.951 . S
H1316 C1341 0.951 . S
H1317 C1343 0.950 . S
H1318 C1344 0.950 . S
H1319 C1346 0.950 . S
H1320 C1349 0.950 . S
H1321 C1350 0.950 . S
H1322 C1352 0.950 . S
H1323 C1353 0.950 . S
C1324 H1306 0.951 . S
C1324 C1325 1.366 . S
C1324 C1326 1.388 . S
C1325 C1324 1.366 . S
C1325 C1329 1.385 . S
C1326 H1307 0.951 . S
C1326 C1324 1.388 . S
C1326 C1327 1.366 . S
C1327 C1326 1.366 . S
C1327 C1328 1.414 . S
C1327 C1330 1.499 . S
C1328 H1308 0.950 . S
C1328 C1327 1.414 . S
C1328 C1329 1.374 . S
C1329 H1309 0.950 . S
C1329 C1325 1.385 . S
C1329 C1328 1.374 . S
C1330 C1327 1.499 . S
C1330 C1331 1.373 . S
C1330 C1332 1.389 . S
C1331 H1310 0.950 . S
C1331 C1330 1.373 . S
C1331 C1347 1.377 . S
C1332 C1330 1.389 . S
C1332 C1333 1.524 . S
C1332 C1346 1.377 . S
C1333 C1332 1.524 . S
C1333 C1334 1.397 . S
C1333 C1338 1.363 . S
C1334 H1311 0.950 . S
C1334 C1333 1.397 . S
C1334 C1335 1.334 . S
C1335 H1312 0.950 . S
C1335 C1334 1.334 . S
C1335 C1336 1.287 . S
C1336 C1335 1.287 . S
C1336 C1337 1.524 . S
C1336 H1355 0.913 . S
C1337 H1313 0.950 . S
C1337 C1336 1.524 . S
C1337 C1338 1.415 . S
C1338 H1314 0.950 . S
C1338 C1333 1.363 . S
C1338 C1337 1.415 . S
C1339 H1315 0.951 . S
C1339 C1340 1.366 . S
C1339 C1341 1.388 . S
C1340 C1339 1.366 . S
C1340 C1344 1.385 . S
C1341 H1316 0.951 . S
C1341 C1339 1.388 . S
C1341 C1342 1.366 . S
C1342 C1341 1.366 . S
C1342 C1343 1.414 . S
C1342 C1345 1.499 . S
C1343 H1317 0.950 . S
C1343 C1342 1.414 . S
C1343 C1344 1.374 . S
C1344 H1318 0.950 . S
C1344 C1340 1.385 . S
C1344 C1343 1.374 . S
C1345 C1342 1.499 . S
C1345 C1346 1.373 . S
C1345 C1347 1.389 . S
C1346 H1319 0.950 . S
C1346 C1332 1.377 . S
C1346 C1345 1.373 . S
C1347 C1331 1.377 . S
C1347 C1345 1.389 . S
C1347 C1348 1.524 . S
C1348 C1347 1.524 . S
C1348 C1349 1.397 . S
C1348 C1353 1.363 . S
C1349 H1320 0.950 . S
C1349 C1348 1.397 . S
C1349 C1350 1.334 . S
C1350 H1321 0.950 . S
C1350 C1349 1.334 . S
C1350 C1351 1.287 . S
C1351 C1350 1.287 . S
C1351 C1352 1.524 . S
C1351 H1354 0.999 . S
C1352 H1322 0.950 . S
C1352 C1351 1.524 . S
C1352 C1353 1.415 . S
C1353 H1323 0.950 . S
C1353 C1348 1.363 . S
C1353 C1352 1.415 . S
H1354 C1351 0.999 . S
H1355 C1336 0.913 . S
H1356 C1374 0.951 . S
H1357 C1376 0.951 . S
H1358 C1378 0.950 . S
H1359 C1379 0.950 . S
H1360 C1381 0.950 . S
H1361 C1384 0.950 1_545 S
H1362 C1385 0.950 . S
H1363 C1387 0.950 . S
H1364 C1388 0.950 . S
H1365 C1389 0.951 . S
H1366 C1391 0.951 . S
H1367 C1393 0.934 1_565 S
H1368 C1394 0.950 1_565 S
H1369 C1396 0.950 1_565 S
H1370 C1399 0.950 . S
H1371 C1400 0.950 . S
H1372 C1402 0.950 . S
H1373 C1403 0.950 . S
C1374 H1356 0.951 . S
C1374 C1375 1.366 1_565 S
C1374 C1376 1.388 . S
C1375 C1374 1.366 1_545 S
C1375 C1379 1.385 . S
C1376 H1357 0.951 . S
C1376 C1374 1.388 . S
C1376 C1377 1.366 1_565 S
C1377 C1376 1.366 1_545 S
C1377 C1378 1.414 . S
C1377 C1380 1.499 . S
C1378 H1358 0.950 . S
C1378 C1377 1.414 . S
C1378 C1379 1.374 . S
C1379 H1359 0.950 . S
C1379 C1375 1.385 . S
C1379 C1378 1.374 . S
C1380 C1377 1.499 . S
C1380 C1381 1.373 . S
C1380 C1382 1.383 1_545 S
C1381 H1360 0.950 . S
C1381 C1380 1.373 . S
C1381 C1397 1.377 . S
C1382 C1380 1.383 1_565 S
C1382 C1383 1.532 . S
C1382 C1396 1.375 1_565 S
C1383 C1382 1.532 . S
C1383 C1384 1.397 . S
C1383 C1388 1.363 . S
C1384 H1361 0.950 1_565 S
C1384 C1383 1.397 . S
C1384 C1385 1.334 . S
C1385 H1362 0.950 . S
C1385 C1384 1.334 . S
C1385 C1386 1.287 . S
C1386 C1385 1.287 . S
C1386 C1387 1.524 . S
C1386 H1405 0.913 . S
C1387 H1363 0.950 . S
C1387 C1386 1.524 . S
C1387 C1388 1.415 . S
C1388 H1364 0.950 . S
C1388 C1383 1.363 . S
C1388 C1387 1.415 . S
C1389 H1365 0.951 . S
C1389 C1390 1.366 . S
C1389 C1391 1.388 . S
C1390 C1389 1.366 . S
C1390 C1394 1.385 . S
C1391 H1366 0.951 . S
C1391 C1389 1.388 . S
C1391 C1392 1.366 . S
C1392 C1391 1.366 . S
C1392 C1393 1.428 . S
C1392 C1395 1.499 . S
C1393 H1367 0.934 1_545 S
C1393 C1392 1.428 . S
C1393 C1394 1.377 . S
C1394 H1368 0.950 1_545 S
C1394 C1390 1.385 . S
C1394 C1393 1.377 . S
C1395 C1392 1.499 . S
C1395 C1396 1.373 . S
C1395 C1397 1.389 . S
C1396 H1369 0.950 1_545 S
C1396 C1382 1.375 1_545 S
C1396 C1395 1.373 . S
C1397 C1381 1.377 . S
C1397 C1395 1.389 . S
C1397 C1398 1.524 . S
C1398 C1397 1.524 . S
C1398 C1399 1.397 . S
C1398 C1403 1.363 . S
C1399 H1370 0.950 . S
C1399 C1398 1.397 . S
C1399 C1400 1.334 . S
C1400 H1371 0.950 . S
C1400 C1399 1.334 . S
C1400 C1401 1.287 . S
C1401 C1400 1.287 . S
C1401 C1402 1.524 . S
C1401 H1404 0.999 . S
C1402 H1372 0.950 . S
C1402 C1401 1.524 . S
C1402 C1403 1.415 . S
C1403 H1373 0.950 . S
C1403 C1398 1.363 . S
C1403 C1402 1.415 . S
H1404 C1401 0.999 . S
H1405 C1386 0.913 . S
H1406 C1424 0.951 . S
H1407 C1426 0.951 . S
H1408 C1428 0.950 . S
H1409 C1429 0.950 . S
H1410 C1431 0.950 . S
H1411 C1434 0.950 . S
H1412 C1435 0.950 . S
H1413 C1437 0.950 . S
H1414 C1438 0.950 . S
H1415 C1439 0.951 . S
H1416 C1441 0.951 . S
H1417 C1443 0.950 . S
H1418 C1444 0.950 . S
H1419 C1446 0.950 . S
H1420 C1449 0.950 . S
H1421 C1450 0.950 . S
H1422 C1452 0.950 . S
H1423 C1453 0.950 . S
C1424 H1406 0.951 . S
C1424 C1425 1.366 . S
C1424 C1426 1.388 . S
C1425 C1424 1.366 . S
C1425 C1429 1.385 . S
C1426 H1407 0.951 . S
C1426 C1424 1.388 . S
C1426 C1427 1.366 . S
C1427 C1426 1.366 . S
C1427 C1428 1.414 . S
C1427 C1430 1.499 . S
C1428 H1408 0.950 . S
C1428 C1427 1.414 . S
C1428 C1429 1.374 . S
C1429 H1409 0.950 . S
C1429 C1425 1.385 . S
C1429 C1428 1.374 . S
C1430 C1427 1.499 . S
C1430 C1431 1.373 . S
C1430 C1432 1.389 . S
C1431 H1410 0.950 . S
C1431 C1430 1.373 . S
C1431 C1447 1.377 . S
C1432 C1430 1.389 . S
C1432 C1433 1.524 . S
C1432 C1446 1.377 . S
C1433 C1432 1.524 . S
C1433 C1434 1.397 . S
C1433 C1438 1.363 . S
C1434 H1411 0.950 . S
C1434 C1433 1.397 . S
C1434 C1435 1.334 . S
C1435 H1412 0.950 . S
C1435 C1434 1.334 . S
C1435 C1436 1.287 . S
C1436 C1435 1.287 . S
C1436 C1437 1.524 . S
C1436 H1455 0.913 . S
C1437 H1413 0.950 . S
C1437 C1436 1.524 . S
C1437 C1438 1.415 . S
C1438 H1414 0.950 . S
C1438 C1433 1.363 . S
C1438 C1437 1.415 . S
C1439 H1415 0.951 . S
C1439 C1440 1.366 . S
C1439 C1441 1.388 . S
C1440 C1439 1.366 . S
C1440 C1444 1.385 . S
C1441 H1416 0.951 . S
C1441 C1439 1.388 . S
C1441 C1442 1.366 . S
C1442 C1441 1.366 . S
C1442 C1443 1.414 . S
C1442 C1445 1.499 . S
C1443 H1417 0.950 . S
C1443 C1442 1.414 . S
C1443 C1444 1.374 . S
C1444 H1418 0.950 . S
C1444 C1440 1.385 . S
C1444 C1443 1.374 . S
C1445 C1442 1.499 . S
C1445 C1446 1.373 . S
C1445 C1447 1.389 . S
C1446 H1419 0.950 . S
C1446 C1432 1.377 . S
C1446 C1445 1.373 . S
C1447 C1431 1.377 . S
C1447 C1445 1.389 . S
C1447 C1448 1.524 . S
C1448 C1447 1.524 . S
C1448 C1449 1.397 . S
C1448 C1453 1.363 . S
C1449 H1420 0.950 . S
C1449 C1448 1.397 . S
C1449 C1450 1.334 . S
C1450 H1421 0.950 . S
C1450 C1449 1.334 . S
C1450 C1451 1.287 . S
C1451 C1450 1.287 . S
C1451 C1452 1.524 . S
C1451 H1454 0.999 . S
C1452 H1422 0.950 . S
C1452 C1451 1.524 . S
C1452 C1453 1.415 . S
C1453 H1423 0.950 . S
C1453 C1448 1.363 . S
C1453 C1452 1.415 . S
H1454 C1451 0.999 . S
H1455 C1436 0.913 . S
H1456 C1474 0.913 1_556 S
H1457 C1476 0.951 . S
H1458 C1478 0.950 . S
H1459 C1479 0.950 . S
H1460 C1481 0.950 . S
H1461 C1484 0.950 . S
H1462 C1485 0.950 . S
H1463 C1487 0.950 1_545 S
H1464 C1488 0.950 . S
H1465 C1489 0.951 . S
H1466 C1491 0.951 . S
H1467 C1493 0.950 . S
H1468 C1494 0.950 1_545 S
H1469 C1496 0.950 . S
H1470 C1499 0.950 1_556 S
H1471 C1500 0.912 1_556 S
H1472 C1502 0.950 . S
H1473 C1503 0.950 . S
C1474 H1456 0.913 1_554 S
C1474 C1475 1.366 . S
C1474 C1476 1.388 . S
C1475 C1474 1.366 . S
C1475 C1479 1.385 . S
C1476 H1457 0.951 . S
C1476 C1474 1.388 . S
C1476 C1477 1.366 . S
C1477 C1476 1.366 . S
C1477 C1478 1.414 . S
C1477 C1480 1.499 . S
C1478 H1458 0.950 . S
C1478 C1477 1.414 . S
C1478 C1479 1.374 . S
C1479 H1459 0.950 . S
C1479 C1475 1.385 . S
C1479 C1478 1.374 . S
C1480 C1477 1.499 . S
C1480 C1481 1.373 . S
C1480 C1482 1.389 . S
C1481 H1460 0.950 . S
C1481 C1480 1.373 . S
C1481 C1497 1.377 . S
C1482 C1480 1.389 . S
C1482 C1483 1.524 . S
C1482 C1496 1.377 . S
C1483 C1482 1.524 . S
C1483 C1484 1.397 . S
C1483 C1488 1.363 . S
C1484 H1461 0.950 . S
C1484 C1483 1.397 . S
C1484 C1485 1.334 . S
C1485 H1462 0.950 . S
C1485 C1484 1.334 . S
C1485 C1486 1.287 . S
C1486 C1485 1.287 . S
C1486 C1487 1.524 . S
C1486 H1505 0.913 . S
C1487 H1463 0.950 1_565 S
C1487 C1486 1.524 . S
C1487 C1488 1.415 . S
C1488 H1464 0.950 . S
C1488 C1483 1.363 . S
C1488 C1487 1.415 . S
C1489 H1465 0.951 . S
C1489 C1490 1.366 . S
C1489 C1491 1.388 . S
C1490 C1489 1.366 . S
C1490 C1494 1.385 . S
C1491 H1466 0.951 . S
C1491 C1489 1.388 . S
C1491 C1492 1.366 . S
C1492 C1491 1.366 . S
C1492 C1493 1.414 . S
C1492 C1495 1.499 . S
C1493 H1467 0.950 . S
C1493 C1492 1.414 . S
C1493 C1494 1.374 . S
C1494 H1468 0.950 1_565 S
C1494 C1490 1.385 . S
C1494 C1493 1.374 . S
C1495 C1492 1.499 . S
C1495 C1496 1.373 . S
C1495 C1497 1.389 . S
C1496 H1469 0.950 . S
C1496 C1482 1.377 . S
C1496 C1495 1.373 . S
C1497 C1481 1.377 . S
C1497 C1495 1.389 . S
C1497 C1498 1.524 . S
C1498 C1497 1.524 . S
C1498 C1499 1.397 . S
C1498 C1503 1.363 . S
C1499 H1470 0.950 1_554 S
C1499 C1498 1.397 . S
C1499 C1500 1.344 . S
C1500 H1471 0.912 1_554 S
C1500 C1499 1.344 . S
C1500 C1501 1.320 . S
C1501 C1500 1.320 . S
C1501 C1502 1.524 . S
C1501 H1504 0.999 . S
C1502 H1472 0.950 . S
C1502 C1501 1.524 . S
C1502 C1503 1.415 . S
C1503 H1473 0.950 . S
C1503 C1498 1.363 . S
C1503 C1502 1.415 . S
H1504 C1501 0.999 . S
H1505 C1486 0.913 . S
H1506 C1524 0.951 . S
H1507 C1526 0.951 . S
H1508 C1528 0.950 . S
H1509 C1529 0.950 . S
H1510 C1531 0.950 . S
H1511 C1534 0.950 . S
H1512 C1535 0.950 . S
H1513 C1537 0.950 . S
H1514 C1538 0.950 . S
H1515 C1539 0.951 . S
H1516 C1541 0.951 . S
H1517 C1543 0.950 . S
H1518 C1544 0.950 . S
H1519 C1546 0.950 . S
H1520 C1549 0.950 . S
H1521 C1550 0.950 . S
H1522 C1552 0.950 . S
H1523 C1553 0.950 . S
C1524 H1506 0.951 . S
C1524 C1525 1.366 1_554 S
C1524 C1526 1.388 . S
C1525 C1524 1.366 1_556 S
C1525 C1529 1.385 . S
C1526 H1507 0.951 . S
C1526 C1524 1.388 . S
C1526 C1527 1.361 . S
C1527 C1526 1.361 . S
C1527 C1528 1.420 1_554 S
C1527 C1530 1.490 . S
C1528 H1508 0.950 . S
C1528 C1527 1.420 1_556 S
C1528 C1529 1.374 . S
C1529 H1509 0.950 . S
C1529 C1525 1.385 . S
C1529 C1528 1.374 . S
C1530 C1527 1.490 . S
C1530 C1531 1.366 1_554 S
C1530 C1532 1.413 . S
C1531 H1510 0.950 . S
C1531 C1530 1.366 1_556 S
C1531 C1547 1.378 1_556 S
C1532 C1530 1.413 . S
C1532 C1533 1.524 . S
C1532 C1546 1.377 . S
C1533 C1532 1.524 . S
C1533 C1534 1.397 1_554 S
C1533 C1538 1.363 . S
C1534 H1511 0.950 . S
C1534 C1533 1.397 1_556 S
C1534 C1535 1.334 . S
C1535 H1512 0.950 . S
C1535 C1534 1.334 . S
C1535 C1536 1.287 1_556 S
C1536 C1535 1.287 1_554 S
C1536 C1537 1.524 . S
C1536 H1555 0.913 . S
C1537 H1513 0.950 . S
C1537 C1536 1.524 . S
C1537 C1538 1.415 . S
C1538 H1514 0.950 . S
C1538 C1533 1.363 . S
C1538 C1537 1.415 . S
C1539 H1515 0.951 . S
C1539 C1540 1.366 1_556 S
C1539 C1541 1.388 . S
C1540 C1539 1.366 1_554 S
C1540 C1544 1.385 . S
C1541 H1516 0.951 . S
C1541 C1539 1.388 . S
C1541 C1542 1.366 1_556 S
C1542 C1541 1.366 1_554 S
C1542 C1543 1.414 . S
C1542 C1545 1.499 . S
C1543 H1517 0.950 . S
C1543 C1542 1.414 . S
C1543 C1544 1.374 . S
C1544 H1518 0.950 . S
C1544 C1540 1.385 . S
C1544 C1543 1.374 . S
C1545 C1542 1.499 . S
C1545 C1546 1.373 . S
C1545 C1547 1.387 . S
C1546 H1519 0.950 . S
C1546 C1532 1.377 . S
C1546 C1545 1.373 . S
C1547 C1531 1.378 1_554 S
C1547 C1545 1.387 . S
C1547 C1548 1.525 1_554 S
C1548 C1547 1.525 1_556 S
C1548 C1549 1.397 1_556 S
C1548 C1553 1.363 . S
C1549 H1520 0.950 . S
C1549 C1548 1.397 1_554 S
C1549 C1550 1.334 . S
C1550 H1521 0.950 . S
C1550 C1549 1.334 . S
C1550 C1551 1.287 1_554 S
C1551 C1550 1.287 1_556 S
C1551 C1552 1.524 . S
C1551 H1554 0.999 . S
C1552 H1522 0.950 . S
C1552 C1551 1.524 . S
C1552 C1553 1.415 . S
C1553 H1523 0.950 . S
C1553 C1548 1.363 . S
C1553 C1552 1.415 . S
H1554 C1551 0.999 . S
H1555 C1536 0.913 . S
H1556 C1574 0.951 . S
H1557 C1576 0.951 . S
H1558 C1578 0.950 . S
H1559 C1579 0.950 . S
H1560 C1581 0.950 . S
H1561 C1584 0.950 . S
H1562 C1585 0.950 . S
H1563 C1587 0.950 . S
H1564 C1588 0.950 . S
H1565 C1589 0.951 . S
H1566 C1591 0.951 . S
H1567 C1593 0.950 . S
H1568 C1594 0.950 . S
H1569 C1596 0.950 . S
H1570 C1599 0.950 . S
H1571 C1600 0.950 . S
H1572 C1602 0.950 . S
H1573 C1603 0.950 . S
C1574 H1556 0.951 . S
C1574 C1575 1.366 . S
C1574 C1576 1.388 . S
C1575 C1574 1.366 . S
C1575 C1579 1.385 . S
C1576 H1557 0.951 . S
C1576 C1574 1.388 . S
C1576 C1577 1.366 . S
C1577 C1576 1.366 . S
C1577 C1578 1.414 . S
C1577 C1580 1.499 . S
C1578 H1558 0.950 . S
C1578 C1577 1.414 . S
C1578 C1579 1.374 . S
C1579 H1559 0.950 . S
C1579 C1575 1.385 . S
C1579 C1578 1.374 . S
C1580 C1577 1.499 . S
C1580 C1581 1.373 . S
C1580 C1582 1.389 . S
C1581 H1560 0.950 . S
C1581 C1580 1.373 . S
C1581 C1597 1.377 . S
C1582 C1580 1.389 . S
C1582 C1583 1.524 . S
C1582 C1596 1.377 . S
C1583 C1582 1.524 . S
C1583 C1584 1.397 . S
C1583 C1588 1.363 . S
C1584 H1561 0.950 . S
C1584 C1583 1.397 . S
C1584 C1585 1.334 . S
C1585 H1562 0.950 . S
C1585 C1584 1.334 . S
C1585 C1586 1.287 . S
C1586 C1585 1.287 . S
C1586 C1587 1.524 . S
C1586 H1605 0.913 . S
C1587 H1563 0.950 . S
C1587 C1586 1.524 . S
C1587 C1588 1.415 . S
C1588 H1564 0.950 . S
C1588 C1583 1.363 . S
C1588 C1587 1.415 . S
C1589 H1565 0.951 . S
C1589 C1590 1.366 . S
C1589 C1591 1.388 . S
C1590 C1589 1.366 . S
C1590 C1594 1.385 . S
C1591 H1566 0.951 . S
C1591 C1589 1.388 . S
C1591 C1592 1.366 . S
C1592 C1591 1.366 . S
C1592 C1593 1.414 . S
C1592 C1595 1.499 . S
C1593 H1567 0.950 . S
C1593 C1592 1.414 . S
C1593 C1594 1.374 . S
C1594 H1568 0.950 . S
C1594 C1590 1.385 . S
C1594 C1593 1.374 . S
C1595 C1592 1.499 . S
C1595 C1596 1.373 . S
C1595 C1597 1.389 . S
C1596 H1569 0.950 . S
C1596 C1582 1.377 . S
C1596 C1595 1.373 . S
C1597 C1581 1.377 . S
C1597 C1595 1.389 . S
C1597 C1598 1.524 . S
C1598 C1597 1.524 . S
C1598 C1599 1.397 . S
C1598 C1603 1.363 . S
C1599 H1570 0.950 . S
C1599 C1598 1.397 . S
C1599 C1600 1.334 . S
C1600 H1571 0.950 . S
C1600 C1599 1.334 . S
C1600 C1601 1.287 . S
C1601 C1600 1.287 . S
C1601 C1602 1.524 . S
C1601 H1604 0.999 . S
C1602 H1572 0.950 . S
C1602 C1601 1.524 . S
C1602 C1603 1.415 . S
C1603 H1573 0.950 . S
C1603 C1598 1.363 . S
C1603 C1602 1.415 . S
H1604 C1601 0.999 . S
H1605 C1586 0.913 . S
H1606 C1624 0.951 . S
H1607 C1626 0.951 . S
H1608 C1628 0.950 . S
H1609 C1629 0.950 . S
H1610 C1631 0.950 . S
H1611 C1634 0.950 . S
H1612 C1635 0.950 . S
H1613 C1637 0.950 . S
H1614 C1638 0.950 . S
H1615 C1639 0.951 . S
H1616 C1641 0.951 . S
H1617 C1643 0.950 . S
H1618 C1644 0.950 . S
H1619 C1646 0.950 . S
H1620 C1649 0.950 . S
H1621 C1650 0.950 . S
H1622 C1652 0.950 . S
H1623 C1653 0.950 . S
C1624 H1606 0.951 . S
C1624 C1625 1.366 . S
C1624 C1626 1.388 . S
C1625 C1624 1.366 . S
C1625 C1629 1.385 . S
C1626 H1607 0.951 . S
C1626 C1624 1.388 . S
C1626 C1627 1.366 . S
C1627 C1626 1.366 . S
C1627 C1628 1.414 . S
C1627 C1630 1.499 . S
C1628 H1608 0.950 . S
C1628 C1627 1.414 . S
C1628 C1629 1.374 . S
C1629 H1609 0.950 . S
C1629 C1625 1.385 . S
C1629 C1628 1.374 . S
C1630 C1627 1.499 . S
C1630 C1631 1.373 . S
C1630 C1632 1.389 . S
C1631 H1610 0.950 . S
C1631 C1630 1.373 . S
C1631 C1647 1.377 . S
C1632 C1630 1.389 . S
C1632 C1633 1.524 . S
C1632 C1646 1.377 . S
C1633 C1632 1.524 . S
C1633 C1634 1.397 . S
C1633 C1638 1.363 . S
C1634 H1611 0.950 . S
C1634 C1633 1.397 . S
C1634 C1635 1.334 . S
C1635 H1612 0.950 . S
C1635 C1634 1.334 . S
C1635 C1636 1.287 . S
C1636 C1635 1.287 . S
C1636 C1637 1.524 . S
C1636 H1655 0.913 . S
C1637 H1613 0.950 . S
C1637 C1636 1.524 . S
C1637 C1638 1.415 . S
C1638 H1614 0.950 . S
C1638 C1633 1.363 . S
C1638 C1637 1.415 . S
C1639 H1615 0.951 . S
C1639 C1640 1.366 . S
C1639 C1641 1.388 . S
C1640 C1639 1.366 . S
C1640 C1644 1.385 . S
C1641 H1616 0.951 . S
C1641 C1639 1.388 . S
C1641 C1642 1.366 . S
C1642 C1641 1.366 . S
C1642 C1643 1.414 . S
C1642 C1645 1.499 . S
C1643 H1617 0.950 . S
C1643 C1642 1.414 . S
C1643 C1644 1.374 . S
C1644 H1618 0.950 . S
C1644 C1640 1.385 . S
C1644 C1643 1.374 . S
C1645 C1642 1.499 . S
C1645 C1646 1.373 . S
C1645 C1647 1.389 . S
C1646 H1619 0.950 . S
C1646 C1632 1.377 . S
C1646 C1645 1.373 . S
C1647 C1631 1.377 . S
C1647 C1645 1.389 . S
C1647 C1648 1.524 . S
C1648 C1647 1.524 . S
C1648 C1649 1.397 . S
C1648 C1653 1.363 . S
C1649 H1620 0.950 . S
C1649 C1648 1.397 . S
C1649 C1650 1.334 . S
C1650 H1621 0.950 . S
C1650 C1649 1.334 . S
C1650 C1651 1.287 . S
C1651 C1650 1.287 . S
C1651 C1652 1.524 . S
C1651 H1654 0.999 . S
C1652 H1622 0.950 . S
C1652 C1651 1.524 . S
C1652 C1653 1.415 . S
C1653 H1623 0.950 . S
C1653 C1648 1.363 . S
C1653 C1652 1.415 . S
H1654 C1651 0.999 . S
H1655 C1636 0.913 . S
H1656 C1674 0.951 . S
H1657 C1676 0.951 . S
H1658 C1678 0.950 . S
H1659 C1679 0.950 . S
H1660 C1681 0.950 . S
H1661 C1684 0.950 . S
H1662 C1685 0.950 . S
H1663 C1687 0.950 . S
H1664 C1688 0.950 . S
H1665 C1689 0.951 . S
H1666 C1691 0.951 . S
H1667 C1693 0.950 . S
H1668 C1694 0.950 . S
H1669 C1696 0.950 . S
H1670 C1699 0.950 . S
H1671 C1700 0.950 . S
H1672 C1702 0.950 . S
H1673 C1703 0.950 . S
C1674 H1656 0.951 . S
C1674 C1675 1.366 . S
C1674 C1676 1.388 . S
C1675 C1674 1.366 . S
C1675 C1679 1.385 . S
C1676 H1657 0.951 . S
C1676 C1674 1.388 . S
C1676 C1677 1.366 . S
C1677 C1676 1.366 . S
C1677 C1678 1.414 . S
C1677 C1680 1.499 . S
C1678 H1658 0.950 . S
C1678 C1677 1.414 . S
C1678 C1679 1.374 . S
C1679 H1659 0.950 . S
C1679 C1675 1.385 . S
C1679 C1678 1.374 . S
C1680 C1677 1.499 . S
C1680 C1681 1.373 . S
C1680 C1682 1.389 . S
C1681 H1660 0.950 . S
C1681 C1680 1.373 . S
C1681 C1697 1.377 . S
C1682 C1680 1.389 . S
C1682 C1683 1.524 . S
C1682 C1696 1.377 . S
C1683 C1682 1.524 . S
C1683 C1684 1.397 . S
C1683 C1688 1.363 . S
C1684 H1661 0.950 . S
C1684 C1683 1.397 . S
C1684 C1685 1.334 . S
C1685 H1662 0.950 . S
C1685 C1684 1.334 . S
C1685 C1686 1.287 . S
C1686 C1685 1.287 . S
C1686 C1687 1.524 . S
C1686 H1705 0.913 . S
C1687 H1663 0.950 . S
C1687 C1686 1.524 . S
C1687 C1688 1.415 . S
C1688 H1664 0.950 . S
C1688 C1683 1.363 . S
C1688 C1687 1.415 . S
C1689 H1665 0.951 . S
C1689 C1690 1.366 . S
C1689 C1691 1.388 . S
C1690 C1689 1.366 . S
C1690 C1694 1.385 . S
C1691 H1666 0.951 . S
C1691 C1689 1.388 . S
C1691 C1692 1.366 . S
C1692 C1691 1.366 . S
C1692 C1693 1.414 . S
C1692 C1695 1.499 . S
C1693 H1667 0.950 . S
C1693 C1692 1.414 . S
C1693 C1694 1.374 . S
C1694 H1668 0.950 . S
C1694 C1690 1.385 . S
C1694 C1693 1.374 . S
C1695 C1692 1.499 . S
C1695 C1696 1.373 . S
C1695 C1697 1.389 . S
C1696 H1669 0.950 . S
C1696 C1682 1.377 . S
C1696 C1695 1.373 . S
C1697 C1681 1.377 . S
C1697 C1695 1.389 . S
C1697 C1698 1.524 . S
C1698 C1697 1.524 . S
C1698 C1699 1.397 . S
C1698 C1703 1.363 . S
C1699 H1670 0.950 . S
C1699 C1698 1.397 . S
C1699 C1700 1.334 . S
C1700 H1671 0.950 . S
C1700 C1699 1.334 . S
C1700 C1701 1.287 . S
C1701 C1700 1.287 . S
C1701 C1702 1.524 . S
C1701 H1704 0.999 . S
C1702 H1672 0.950 . S
C1702 C1701 1.524 . S
C1702 C1703 1.415 . S
C1703 H1673 0.950 . S
C1703 C1698 1.363 . S
C1703 C1702 1.415 . S
H1704 C1701 0.999 . S
H1705 C1686 0.913 . S
H1706 C1724 0.951 . S
H1707 C1726 0.951 . S
H1708 C1728 0.950 . S
H1709 C1729 0.950 . S
H1710 C1731 0.950 . S
H1711 C1734 0.950 . S
H1712 C1735 0.950 . S
H1713 C1737 0.950 . S
H1714 C1738 0.950 . S
H1715 C1739 0.951 . S
H1716 C1741 0.951 . S
H1717 C1743 0.950 . S
H1718 C1744 0.950 . S
H1719 C1746 0.950 . S
H1720 C1749 0.950 . S
H1721 C1750 0.950 . S
H1722 C1752 0.950 1_565 S
H1723 C1753 0.950 . S
C1724 H1706 0.951 . S
C1724 C1725 1.366 . S
C1724 C1726 1.388 . S
C1725 C1724 1.366 . S
C1725 C1729 1.385 . S
C1726 H1707 0.951 . S
C1726 C1724 1.388 . S
C1726 C1727 1.366 . S
C1727 C1726 1.366 . S
C1727 C1728 1.414 . S
C1727 C1730 1.499 . S
C1728 H1708 0.950 . S
C1728 C1727 1.414 . S
C1728 C1729 1.374 . S
C1729 H1709 0.950 . S
C1729 C1725 1.385 . S
C1729 C1728 1.374 . S
C1730 C1727 1.499 . S
C1730 C1731 1.373 . S
C1730 C1732 1.389 . S
C1731 H1710 0.950 . S
C1731 C1730 1.373 . S
C1731 C1747 1.377 . S
C1732 C1730 1.389 . S
C1732 C1733 1.524 . S
C1732 C1746 1.377 . S
C1733 C1732 1.524 . S
C1733 C1734 1.397 . S
C1733 C1738 1.363 . S
C1734 H1711 0.950 . S
C1734 C1733 1.397 . S
C1734 C1735 1.334 . S
C1735 H1712 0.950 . S
C1735 C1734 1.334 . S
C1735 C1736 1.287 . S
C1736 C1735 1.287 . S
C1736 C1737 1.524 . S
C1736 H1755 0.913 . S
C1737 H1713 0.950 . S
C1737 C1736 1.524 . S
C1737 C1738 1.415 . S
C1738 H1714 0.950 . S
C1738 C1733 1.363 . S
C1738 C1737 1.415 . S
C1739 H1715 0.951 . S
C1739 C1740 1.366 . S
C1739 C1741 1.388 . S
C1740 C1739 1.366 . S
C1740 C1744 1.385 . S
C1741 H1716 0.951 . S
C1741 C1739 1.388 . S
C1741 C1742 1.366 . S
C1742 C1741 1.366 . S
C1742 C1743 1.414 . S
C1742 C1745 1.499 . S
C1743 H1717 0.950 . S
C1743 C1742 1.414 . S
C1743 C1744 1.374 . S
C1744 H1718 0.950 . S
C1744 C1740 1.385 . S
C1744 C1743 1.374 . S
C1745 C1742 1.499 . S
C1745 C1746 1.373 . S
C1745 C1747 1.389 . S
C1746 H1719 0.950 . S
C1746 C1732 1.377 . S
C1746 C1745 1.373 . S
C1747 C1731 1.377 . S
C1747 C1745 1.389 . S
C1747 C1748 1.524 . S
C1748 C1747 1.524 . S
C1748 C1749 1.397 . S
C1748 C1753 1.363 . S
C1749 H1720 0.950 . S
C1749 C1748 1.397 . S
C1749 C1750 1.334 . S
C1750 H1721 0.950 . S
C1750 C1749 1.334 . S
C1750 C1751 1.287 . S
C1751 C1750 1.287 . S
C1751 C1752 1.524 . S
C1751 H1754 0.999 1_545 S
C1752 H1722 0.950 1_545 S
C1752 C1751 1.524 . S
C1752 C1753 1.415 . S
C1753 H1723 0.950 . S
C1753 C1748 1.363 . S
C1753 C1752 1.415 . S
H1754 C1751 0.999 1_565 S
H1755 C1736 0.913 . S
H1756 C1774 0.951 . S
H1757 C1776 0.951 . S
H1758 C1778 0.950 . S
H1759 C1779 0.950 . S
H1760 C1781 0.950 . S
H1761 C1784 0.950 . S
H1762 C1785 0.950 . S
H1763 C1787 0.950 . S
H1764 C1788 0.950 . S
H1765 C1789 0.951 . S
H1766 C1791 0.951 . S
H1767 C1793 0.950 . S
H1768 C1794 0.950 . S
H1769 C1796 0.950 . S
H1770 C1799 0.950 . S
H1771 C1800 0.950 . S
H1772 C1802 0.950 . S
H1773 C1803 0.950 . S
C1774 H1756 0.951 . S
C1774 C1775 1.366 . S
C1774 C1776 1.388 . S
C1775 C1774 1.366 . S
C1775 C1779 1.385 . S
C1776 H1757 0.951 . S
C1776 C1774 1.388 . S
C1776 C1777 1.366 . S
C1777 C1776 1.366 . S
C1777 C1778 1.414 . S
C1777 C1780 1.499 . S
C1778 H1758 0.950 . S
C1778 C1777 1.414 . S
C1778 C1779 1.374 . S
C1779 H1759 0.950 . S
C1779 C1775 1.385 . S
C1779 C1778 1.374 . S
C1780 C1777 1.499 . S
C1780 C1781 1.373 . S
C1780 C1782 1.389 . S
C1781 H1760 0.950 . S
C1781 C1780 1.373 . S
C1781 C1797 1.377 . S
C1782 C1780 1.389 . S
C1782 C1783 1.524 . S
C1782 C1796 1.377 . S
C1783 C1782 1.524 . S
C1783 C1784 1.397 . S
C1783 C1788 1.363 . S
C1784 H1761 0.950 . S
C1784 C1783 1.397 . S
C1784 C1785 1.334 . S
C1785 H1762 0.950 . S
C1785 C1784 1.334 . S
C1785 C1786 1.287 . S
C1786 C1785 1.287 . S
C1786 C1787 1.524 . S
C1786 H1805 0.913 . S
C1787 H1763 0.950 . S
C1787 C1786 1.524 . S
C1787 C1788 1.415 . S
C1788 H1764 0.950 . S
C1788 C1783 1.363 . S
C1788 C1787 1.415 . S
C1789 H1765 0.951 . S
C1789 C1790 1.366 . S
C1789 C1791 1.388 . S
C1790 C1789 1.366 . S
C1790 C1794 1.385 . S
C1791 H1766 0.951 . S
C1791 C1789 1.388 . S
C1791 C1792 1.366 . S
C1792 C1791 1.366 . S
C1792 C1793 1.414 . S
C1792 C1795 1.499 . S
C1793 H1767 0.950 . S
C1793 C1792 1.414 . S
C1793 C1794 1.374 . S
C1794 H1768 0.950 . S
C1794 C1790 1.385 . S
C1794 C1793 1.374 . S
C1795 C1792 1.499 . S
C1795 C1796 1.373 . S
C1795 C1797 1.389 . S
C1796 H1769 0.950 . S
C1796 C1782 1.377 . S
C1796 C1795 1.373 . S
C1797 C1781 1.377 . S
C1797 C1795 1.389 . S
C1797 C1798 1.524 . S
C1798 C1797 1.524 . S
C1798 C1799 1.397 . S
C1798 C1803 1.363 . S
C1799 H1770 0.950 . S
C1799 C1798 1.397 . S
C1799 C1800 1.334 . S
C1800 H1771 0.950 . S
C1800 C1799 1.334 . S
C1800 C1801 1.287 . S
C1801 C1800 1.287 . S
C1801 C1802 1.524 . S
C1801 H1804 0.999 . S
C1802 H1772 0.950 . S
C1802 C1801 1.524 . S
C1802 C1803 1.415 . S
C1803 H1773 0.950 . S
C1803 C1798 1.363 . S
C1803 C1802 1.415 . S
H1804 C1801 0.999 . S
H1805 C1786 0.913 . S
H1806 C1824 0.951 . S
H1807 C1826 0.951 . S
H1808 C1828 0.950 . S
H1809 C1829 0.950 . S
H1810 C1831 0.950 . S
H1811 C1834 0.950 . S
H1812 C1835 0.950 . S
H1813 C1837 0.950 . S
H1814 C1838 0.950 . S
H1815 C1839 0.951 . S
H1816 C1841 0.951 . S
H1817 C1843 0.950 . S
H1818 C1844 0.950 . S
H1819 C1846 0.950 . S
H1820 C1849 0.950 . S
H1821 C1850 0.950 . S
H1822 C1852 0.950 . S
H1823 C1853 0.950 . S
C1824 H1806 0.951 . S
C1824 C1825 1.366 . S
C1824 C1826 1.388 . S
C1825 C1824 1.366 . S
C1825 C1829 1.385 . S
C1826 H1807 0.951 . S
C1826 C1824 1.388 . S
C1826 C1827 1.366 . S
C1827 C1826 1.366 . S
C1827 C1828 1.414 . S
C1827 C1830 1.499 . S
C1828 H1808 0.950 . S
C1828 C1827 1.414 . S
C1828 C1829 1.374 . S
C1829 H1809 0.950 . S
C1829 C1825 1.385 . S
C1829 C1828 1.374 . S
C1830 C1827 1.499 . S
C1830 C1831 1.373 . S
C1830 C1832 1.389 . S
C1831 H1810 0.950 . S
C1831 C1830 1.373 . S
C1831 C1847 1.377 . S
C1832 C1830 1.389 . S
C1832 C1833 1.524 . S
C1832 C1846 1.377 . S
C1833 C1832 1.524 . S
C1833 C1834 1.397 . S
C1833 C1838 1.363 . S
C1834 H1811 0.950 . S
C1834 C1833 1.397 . S
C1834 C1835 1.334 . S
C1835 H1812 0.950 . S
C1835 C1834 1.334 . S
C1835 C1836 1.287 . S
C1836 C1835 1.287 . S
C1836 C1837 1.524 . S
C1836 H1855 0.913 . S
C1837 H1813 0.950 . S
C1837 C1836 1.524 . S
C1837 C1838 1.415 . S
C1838 H1814 0.950 . S
C1838 C1833 1.363 . S
C1838 C1837 1.415 . S
C1839 H1815 0.951 . S
C1839 C1840 1.366 . S
C1839 C1841 1.388 . S
C1840 C1839 1.366 . S
C1840 C1844 1.385 . S
C1841 H1816 0.951 . S
C1841 C1839 1.388 . S
C1841 C1842 1.366 . S
C1842 C1841 1.366 . S
C1842 C1843 1.414 . S
C1842 C1845 1.499 . S
C1843 H1817 0.950 . S
C1843 C1842 1.414 . S
C1843 C1844 1.374 . S
C1844 H1818 0.950 . S
C1844 C1840 1.385 . S
C1844 C1843 1.374 . S
C1845 C1842 1.499 . S
C1845 C1846 1.373 . S
C1845 C1847 1.389 . S
C1846 H1819 0.950 . S
C1846 C1832 1.377 . S
C1846 C1845 1.373 . S
C1847 C1831 1.377 . S
C1847 C1845 1.389 . S
C1847 C1848 1.524 . S
C1848 C1847 1.524 . S
C1848 C1849 1.397 . S
C1848 C1853 1.363 . S
C1849 H1820 0.950 . S
C1849 C1848 1.397 . S
C1849 C1850 1.334 . S
C1850 H1821 0.950 . S
C1850 C1849 1.334 . S
C1850 C1851 1.287 . S
C1851 C1850 1.287 . S
C1851 C1852 1.524 . S
C1851 H1854 0.999 . S
C1852 H1822 0.950 . S
C1852 C1851 1.524 . S
C1852 C1853 1.415 . S
C1853 H1823 0.950 . S
C1853 C1848 1.363 . S
C1853 C1852 1.415 . S
H1854 C1851 0.999 . S
H1855 C1836 0.913 . S
H1856 C1874 0.951 . S
H1857 C1876 0.951 . S
H1858 C1878 0.950 . S
H1859 C1879 0.950 . S
H1860 C1881 0.950 . S
H1861 C1884 0.950 . S
H1862 C1885 0.950 . S
H1863 C1887 0.950 . S
H1864 C1888 0.950 . S
H1865 C1889 0.951 1_655 S
H1866 C1891 0.967 . S
H1867 C1893 0.950 . S
H1868 C1894 0.950 . S
H1869 C1896 0.950 . S
H1870 C1899 0.950 . S
H1871 C1900 0.950 . S
H1872 C1902 0.950 1_556 S
H1873 C1903 0.950 . S
C1874 H1856 0.951 . S
C1874 C1875 1.366 . S
C1874 C1876 1.388 . S
C1875 C1874 1.366 . S
C1875 C1879 1.385 . S
C1876 H1857 0.951 . S
C1876 C1874 1.388 . S
C1876 C1877 1.366 . S
C1877 C1876 1.366 . S
C1877 C1878 1.414 . S
C1877 C1880 1.499 . S
C1878 H1858 0.950 . S
C1878 C1877 1.414 . S
C1878 C1879 1.374 . S
C1879 H1859 0.950 . S
C1879 C1875 1.385 . S
C1879 C1878 1.374 . S
C1880 C1877 1.499 . S
C1880 C1881 1.373 . S
C1880 C1882 1.389 . S
C1881 H1860 0.950 . S
C1881 C1880 1.373 . S
C1881 C1897 1.377 . S
C1882 C1880 1.389 . S
C1882 C1883 1.524 . S
C1882 C1896 1.377 . S
C1883 C1882 1.524 . S
C1883 C1884 1.397 1_455 S
C1883 C1888 1.363 . S
C1884 H1861 0.950 . S
C1884 C1883 1.397 1_655 S
C1884 C1885 1.334 . S
C1885 H1862 0.950 . S
C1885 C1884 1.334 . S
C1885 C1886 1.287 . S
C1886 C1885 1.287 . S
C1886 C1887 1.524 1_655 S
C1886 H1905 0.913 . S
C1887 H1863 0.950 . S
C1887 C1886 1.524 1_455 S
C1887 C1888 1.415 . S
C1888 H1864 0.950 . S
C1888 C1883 1.363 . S
C1888 C1887 1.415 . S
C1889 H1865 0.951 1_455 S
C1889 C1890 1.366 . S
C1889 C1891 1.388 . S
C1890 C1889 1.366 . S
C1890 C1894 1.385 . S
C1891 H1866 0.967 . S
C1891 C1889 1.388 . S
C1891 C1892 1.366 . S
C1892 C1891 1.366 . S
C1892 C1893 1.414 . S
C1892 C1895 1.499 . S
C1893 H1867 0.950 . S
C1893 C1892 1.414 . S
C1893 C1894 1.374 . S
C1894 H1868 0.950 . S
C1894 C1890 1.385 . S
C1894 C1893 1.374 . S
C1895 C1892 1.499 . S
C1895 C1896 1.373 . S
C1895 C1897 1.389 . S
C1896 H1869 0.950 . S
C1896 C1882 1.377 . S
C1896 C1895 1.373 . S
C1897 C1881 1.377 . S
C1897 C1895 1.389 . S
C1897 C1898 1.524 . S
C1898 C1897 1.524 . S
C1898 C1899 1.397 . S
C1898 C1903 1.363 . S
C1899 H1870 0.950 . S
C1899 C1898 1.397 . S
C1899 C1900 1.334 . S
C1900 H1871 0.950 . S
C1900 C1899 1.334 . S
C1900 C1901 1.287 . S
C1901 C1900 1.287 . S
C1901 C1902 1.524 . S
C1901 H1904 0.999 1_554 S
C1902 H1872 0.950 1_554 S
C1902 C1901 1.524 . S
C1902 C1903 1.415 . S
C1903 H1873 0.950 . S
C1903 C1898 1.363 . S
C1903 C1902 1.415 . S
H1904 C1901 0.999 1_556 S
H1905 C1886 0.913 . S
H1906 C1924 0.951 . S
H1907 C1926 0.951 . S
H1908 C1928 0.950 . S
H1909 C1929 0.950 . S
H1910 C1931 0.950 . S
H1911 C1934 0.950 . S
H1912 C1935 0.950 . S
H1913 C1937 0.950 . S
H1914 C1938 0.950 . S
H1915 C1939 0.951 . S
H1916 C1941 0.951 . S
H1917 C1943 0.950 . S
H1918 C1944 0.950 . S
H1919 C1946 0.950 . S
H1920 C1949 0.950 . S
H1921 C1950 0.950 . S
H1922 C1952 0.950 . S
H1923 C1953 0.950 . S
C1924 H1906 0.951 . S
C1924 C1925 1.366 . S
C1924 C1926 1.388 . S
C1925 C1924 1.366 . S
C1925 C1929 1.385 . S
C1926 H1907 0.951 . S
C1926 C1924 1.388 . S
C1926 C1927 1.366 . S
C1927 C1926 1.366 . S
C1927 C1928 1.414 . S
C1927 C1930 1.499 . S
C1928 H1908 0.950 . S
C1928 C1927 1.414 . S
C1928 C1929 1.374 . S
C1929 H1909 0.950 . S
C1929 C1925 1.385 . S
C1929 C1928 1.374 . S
C1930 C1927 1.499 . S
C1930 C1931 1.373 . S
C1930 C1932 1.389 . S
C1931 H1910 0.950 . S
C1931 C1930 1.373 . S
C1931 C1947 1.377 . S
C1932 C1930 1.389 . S
C1932 C1933 1.524 . S
C1932 C1946 1.377 . S
C1933 C1932 1.524 . S
C1933 C1934 1.397 . S
C1933 C1938 1.363 . S
C1934 H1911 0.950 . S
C1934 C1933 1.397 . S
C1934 C1935 1.334 . S
C1935 H1912 0.950 . S
C1935 C1934 1.334 . S
C1935 C1936 1.287 . S
C1936 C1935 1.287 . S
C1936 C1937 1.524 . S
C1936 H1955 0.913 . S
C1937 H1913 0.950 . S
C1937 C1936 1.524 . S
C1937 C1938 1.415 . S
C1938 H1914 0.950 . S
C1938 C1933 1.363 . S
C1938 C1937 1.415 . S
C1939 H1915 0.951 . S
C1939 C1940 1.366 . S
C1939 C1941 1.388 . S
C1940 C1939 1.366 . S
C1940 C1944 1.385 . S
C1941 H1916 0.951 . S
C1941 C1939 1.388 . S
C1941 C1942 1.366 . S
C1942 C1941 1.366 . S
C1942 C1943 1.414 . S
C1942 C1945 1.499 . S
C1943 H1917 0.950 . S
C1943 C1942 1.414 . S
C1943 C1944 1.374 . S
C1944 H1918 0.950 . S
C1944 C1940 1.385 . S
C1944 C1943 1.374 . S
C1945 C1942 1.499 . S
C1945 C1946 1.373 . S
C1945 C1947 1.389 . S
C1946 H1919 0.950 . S
C1946 C1932 1.377 . S
C1946 C1945 1.373 . S
C1947 C1931 1.377 . S
C1947 C1945 1.389 . S
C1947 C1948 1.524 . S
C1948 C1947 1.524 . S
C1948 C1949 1.397 . S
C1948 C1953 1.363 . S
C1949 H1920 0.950 . S
C1949 C1948 1.397 . S
C1949 C1950 1.334 . S
C1950 H1921 0.950 . S
C1950 C1949 1.334 . S
C1950 C1951 1.287 . S
C1951 C1950 1.287 . S
C1951 C1952 1.524 . S
C1951 H1954 0.999 . S
C1952 H1922 0.950 . S
C1952 C1951 1.524 . S
C1952 C1953 1.415 . S
C1953 H1923 0.950 . S
C1953 C1948 1.363 . S
C1953 C1952 1.415 . S
H1954 C1951 0.999 . S
H1955 C1936 0.913 . S
H1956 C1974 0.951 . S
H1957 C1976 0.951 . S
H1958 C1978 0.950 . S
H1959 C1979 0.950 . S
H1960 C1981 0.950 . S
H1961 C1984 0.950 . S
H1962 C1985 0.950 . S
H1963 C1987 0.950 . S
H1964 C1988 0.950 . S
H1965 C1989 0.951 . S
H1966 C1991 0.951 . S
H1967 C1993 0.950 . S
H1968 C1994 0.950 . S
H1969 C1996 0.950 . S
H1970 C1999 0.950 . S
H1971 C2000 0.950 . S
H1972 C2002 0.950 . S
H1973 C2003 0.950 . S
C1974 H1956 0.951 . S
C1974 C1975 1.366 . S
C1974 C1976 1.388 . S
C1975 C1974 1.366 . S
C1975 C1979 1.385 . S
C1976 H1957 0.951 . S
C1976 C1974 1.388 . S
C1976 C1977 1.366 . S
C1977 C1976 1.366 . S
C1977 C1978 1.414 . S
C1977 C1980 1.499 . S
C1978 H1958 0.950 . S
C1978 C1977 1.414 . S
C1978 C1979 1.374 . S
C1979 H1959 0.950 . S
C1979 C1975 1.385 . S
C1979 C1978 1.374 . S
C1980 C1977 1.499 . S
C1980 C1981 1.373 . S
C1980 C1982 1.389 . S
C1981 H1960 0.950 . S
C1981 C1980 1.373 . S
C1981 C1997 1.377 . S
C1982 C1980 1.389 . S
C1982 C1983 1.524 . S
C1982 C1996 1.377 . S
C1983 C1982 1.524 . S
C1983 C1984 1.397 . S
C1983 C1988 1.363 . S
C1984 H1961 0.950 . S
C1984 C1983 1.397 . S
C1984 C1985 1.334 . S
C1985 H1962 0.950 . S
C1985 C1984 1.334 . S
C1985 C1986 1.287 . S
C1986 C1985 1.287 . S
C1986 C1987 1.524 . S
C1986 H2005 0.913 . S
C1987 H1963 0.950 . S
C1987 C1986 1.524 . S
C1987 C1988 1.415 . S
C1988 H1964 0.950 . S
C1988 C1983 1.363 . S
C1988 C1987 1.415 . S
C1989 H1965 0.951 . S
C1989 C1990 1.366 . S
C1989 C1991 1.388 . S
C1990 C1989 1.366 . S
C1990 C1994 1.385 . S
C1991 H1966 0.951 . S
C1991 C1989 1.388 . S
C1991 C1992 1.366 . S
C1992 C1991 1.366 . S
C1992 C1993 1.414 . S
C1992 C1995 1.499 . S
C1993 H1967 0.950 . S
C1993 C1992 1.414 . S
C1993 C1994 1.374 . S
C1994 H1968 0.950 . S
C1994 C1990 1.385 . S
C1994 C1993 1.374 . S
C1995 C1992 1.499 . S
C1995 C1996 1.373 . S
C1995 C1997 1.389 . S
C1996 H1969 0.950 . S
C1996 C1982 1.377 . S
C1996 C1995 1.373 . S
C1997 C1981 1.377 . S
C1997 C1995 1.389 . S
C1997 C1998 1.524 . S
C1998 C1997 1.524 . S
C1998 C1999 1.397 . S
C1998 C2003 1.363 . S
C1999 H1970 0.950 . S
C1999 C1998 1.397 . S
C1999 C2000 1.334 . S
C2000 H1971 0.950 . S
C2000 C1999 1.334 . S
C2000 C2001 1.287 . S
C2001 C2000 1.287 . S
C2001 C2002 1.524 . S
C2001 H2004 0.999 . S
C2002 H1972 0.950 . S
C2002 C2001 1.524 . S
C2002 C2003 1.415 . S
C2003 H1973 0.950 . S
C2003 C1998 1.363 . S
C2003 C2002 1.415 . S
H2004 C2001 0.999 . S
H2005 C1986 0.913 . S
H2006 C2024 0.951 . S
H2007 C2026 0.951 . S
H2008 C2028 0.950 . S
H2009 C2029 0.950 . S
H2010 C2031 0.950 . S
H2011 C2034 0.950 . S
H2012 C2035 0.950 . S
H2013 C2037 0.950 . S
H2014 C2038 0.950 . S
H2015 C2039 0.951 . S
H2016 C2041 0.951 . S
H2017 C2043 0.950 . S
H2018 C2044 0.950 . S
H2019 C2046 0.950 . S
H2020 C2049 0.950 . S
H2021 C2050 0.950 . S
H2022 C2052 0.950 . S
H2023 C2053 0.950 . S
C2024 H2006 0.951 . S
C2024 C2025 1.366 . S
C2024 C2026 1.388 . S
C2025 C2024 1.366 . S
C2025 C2029 1.385 . S
C2026 H2007 0.951 . S
C2026 C2024 1.388 . S
C2026 C2027 1.366 . S
C2027 C2026 1.366 . S
C2027 C2028 1.414 . S
C2027 C2030 1.499 . S
C2028 H2008 0.950 . S
C2028 C2027 1.414 . S
C2028 C2029 1.374 . S
C2029 H2009 0.950 . S
C2029 C2025 1.385 . S
C2029 C2028 1.374 . S
C2030 C2027 1.499 . S
C2030 C2031 1.373 . S
C2030 C2032 1.389 . S
C2031 H2010 0.950 . S
C2031 C2030 1.373 . S
C2031 C2047 1.377 . S
C2032 C2030 1.389 . S
C2032 C2033 1.524 . S
C2032 C2046 1.377 . S
C2033 C2032 1.524 . S
C2033 C2034 1.397 . S
C2033 C2038 1.363 . S
C2034 H2011 0.950 . S
C2034 C2033 1.397 . S
C2034 C2035 1.334 . S
C2035 H2012 0.950 . S
C2035 C2034 1.334 . S
C2035 C2036 1.287 . S
C2036 C2035 1.287 . S
C2036 C2037 1.524 . S
C2036 H2055 0.913 . S
C2037 H2013 0.950 . S
C2037 C2036 1.524 . S
C2037 C2038 1.415 . S
C2038 H2014 0.950 . S
C2038 C2033 1.363 . S
C2038 C2037 1.415 . S
C2039 H2015 0.951 . S
C2039 C2040 1.366 . S
C2039 C2041 1.388 . S
C2040 C2039 1.366 . S
C2040 C2044 1.385 . S
C2041 H2016 0.951 . S
C2041 C2039 1.388 . S
C2041 C2042 1.366 . S
C2042 C2041 1.366 . S
C2042 C2043 1.414 . S
C2042 C2045 1.499 . S
C2043 H2017 0.950 . S
C2043 C2042 1.414 . S
C2043 C2044 1.374 . S
C2044 H2018 0.950 . S
C2044 C2040 1.385 . S
C2044 C2043 1.374 . S
C2045 C2042 1.499 . S
C2045 C2046 1.373 . S
C2045 C2047 1.389 . S
C2046 H2019 0.950 . S
C2046 C2032 1.377 . S
C2046 C2045 1.373 . S
C2047 C2031 1.377 . S
C2047 C2045 1.389 . S
C2047 C2048 1.524 . S
C2048 C2047 1.524 . S
C2048 C2049 1.397 . S
C2048 C2053 1.363 . S
C2049 H2020 0.950 . S
C2049 C2048 1.397 . S
C2049 C2050 1.334 . S
C2050 H2021 0.950 . S
C2050 C2049 1.334 . S
C2050 C2051 1.287 . S
C2051 C2050 1.287 . S
C2051 C2052 1.524 . S
C2051 H2054 0.999 . S
C2052 H2022 0.950 . S
C2052 C2051 1.524 . S
C2052 C2053 1.415 . S
C2053 H2023 0.950 . S
C2053 C2048 1.363 . S
C2053 C2052 1.415 . S
H2054 C2051 0.999 . S
H2055 C2036 0.913 . S
H2056 C2074 0.951 . S
H2057 C2076 0.951 . S
H2058 C2078 0.950 . S
H2059 C2079 0.950 . S
H2060 C2081 0.950 . S
H2061 C2084 0.950 . S
H2062 C2085 0.950 . S
H2063 C2087 0.950 . S
H2064 C2088 0.950 1_455 S
H2065 C2089 0.953 1_655 S
H2066 C2091 0.951 1_655 S
H2067 C2093 0.950 . S
H2068 C2094 0.950 . S
H2069 C2096 0.950 1_655 S
H2070 C2099 0.950 . S
H2071 C2100 0.950 . S
H2072 C2102 0.950 . S
H2073 C2103 0.950 . S
C2074 H2056 0.951 . S
C2074 C2075 1.366 . S
C2074 C2076 1.388 . S
C2075 C2074 1.366 . S
C2075 C2079 1.385 . S
C2076 H2057 0.951 . S
C2076 C2074 1.388 . S
C2076 C2077 1.366 . S
C2077 C2076 1.366 . S
C2077 C2078 1.414 . S
C2077 C2080 1.499 . S
C2078 H2058 0.950 . S
C2078 C2077 1.414 . S
C2078 C2079 1.374 . S
C2079 H2059 0.950 . S
C2079 C2075 1.385 . S
C2079 C2078 1.374 . S
C2080 C2077 1.499 . S
C2080 C2081 1.373 . S
C2080 C2082 1.389 . S
C2081 H2060 0.950 . S
C2081 C2080 1.373 . S
C2081 C2097 1.377 . S
C2082 C2080 1.389 . S
C2082 C2083 1.524 1_455 S
C2082 C2096 1.377 . S
C2083 C2082 1.524 1_655 S
C2083 C2084 1.397 . S
C2083 C2088 1.363 . S
C2084 H2061 0.950 . S
C2084 C2083 1.397 . S
C2084 C2085 1.334 . S
C2085 H2062 0.950 . S
C2085 C2084 1.334 . S
C2085 C2086 1.287 . S
C2086 C2085 1.287 . S
C2086 C2087 1.524 . S
C2086 H2105 0.913 . S
C2087 H2063 0.950 . S
C2087 C2086 1.524 . S
C2087 C2088 1.415 . S
C2088 H2064 0.950 1_655 S
C2088 C2083 1.363 . S
C2088 C2087 1.415 . S
C2089 H2065 0.953 1_455 S
C2089 C2090 1.364 . S
C2089 C2091 1.388 . S
C2090 C2089 1.364 . S
C2090 C2094 1.385 . S
C2091 H2066 0.951 1_455 S
C2091 C2089 1.388 . S
C2091 C2092 1.366 . S
C2092 C2091 1.366 . S
C2092 C2093 1.414 . S
C2092 C2095 1.499 . S
C2093 H2067 0.950 . S
C2093 C2092 1.414 . S
C2093 C2094 1.374 . S
C2094 H2068 0.950 . S
C2094 C2090 1.385 . S
C2094 C2093 1.374 . S
C2095 C2092 1.499 . S
C2095 C2096 1.373 . S
C2095 C2097 1.389 . S
C2096 H2069 0.950 1_455 S
C2096 C2082 1.377 . S
C2096 C2095 1.373 . S
C2097 C2081 1.377 . S
C2097 C2095 1.389 . S
C2097 C2098 1.524 . S
C2098 C2097 1.524 . S
C2098 C2099 1.397 . S
C2098 C2103 1.363 . S
C2099 H2070 0.950 . S
C2099 C2098 1.397 . S
C2099 C2100 1.334 . S
C2100 H2071 0.950 . S
C2100 C2099 1.334 . S
C2100 C2101 1.287 . S
C2101 C2100 1.287 . S
C2101 C2102 1.524 . S
C2101 H2104 0.999 . S
C2102 H2072 0.950 . S
C2102 C2101 1.524 . S
C2102 C2103 1.415 . S
C2103 H2073 0.950 . S
C2103 C2098 1.363 . S
C2103 C2102 1.415 . S
H2104 C2101 0.999 . S
H2105 C2086 0.913 . S
H2106 C2124 0.951 . S
H2107 C2126 0.951 . S
H2108 C2128 0.950 . S
H2109 C2129 0.950 . S
H2110 C2131 0.950 . S
H2111 C2134 0.950 . S
H2112 C2135 0.950 . S
H2113 C2137 0.950 . S
H2114 C2138 0.950 . S
H2115 C2139 0.951 . S
H2116 C2141 0.951 . S
H2117 C2143 0.950 . S
H2118 C2144 0.950 . S
H2119 C2146 0.950 . S
H2120 C2149 0.950 . S
H2121 C2150 0.950 . S
H2122 C2152 0.950 . S
H2123 C2153 0.950 . S
C2124 H2106 0.951 . S
C2124 C2125 1.366 . S
C2124 C2126 1.388 . S
C2125 C2124 1.366 . S
C2125 C2129 1.385 . S
C2126 H2107 0.951 . S
C2126 C2124 1.388 . S
C2126 C2127 1.366 . S
C2127 C2126 1.366 . S
C2127 C2128 1.414 . S
C2127 C2130 1.499 . S
C2128 H2108 0.950 . S
C2128 C2127 1.414 . S
C2128 C2129 1.374 . S
C2129 H2109 0.950 . S
C2129 C2125 1.385 . S
C2129 C2128 1.374 . S
C2130 C2127 1.499 . S
C2130 C2131 1.373 . S
C2130 C2132 1.389 . S
C2131 H2110 0.950 . S
C2131 C2130 1.373 . S
C2131 C2147 1.377 . S
C2132 C2130 1.389 . S
C2132 C2133 1.524 . S
C2132 C2146 1.377 . S
C2133 C2132 1.524 . S
C2133 C2134 1.397 . S
C2133 C2138 1.363 . S
C2134 H2111 0.950 . S
C2134 C2133 1.397 . S
C2134 C2135 1.334 . S
C2135 H2112 0.950 . S
C2135 C2134 1.334 . S
C2135 C2136 1.287 . S
C2136 C2135 1.287 . S
C2136 C2137 1.524 . S
C2136 H2155 0.913 . S
C2137 H2113 0.950 . S
C2137 C2136 1.524 . S
C2137 C2138 1.415 . S
C2138 H2114 0.950 . S
C2138 C2133 1.363 . S
C2138 C2137 1.415 . S
C2139 H2115 0.951 . S
C2139 C2140 1.366 . S
C2139 C2141 1.388 . S
C2140 C2139 1.366 . S
C2140 C2144 1.385 . S
C2141 H2116 0.951 . S
C2141 C2139 1.388 . S
C2141 C2142 1.366 . S
C2142 C2141 1.366 . S
C2142 C2143 1.414 . S
C2142 C2145 1.499 . S
C2143 H2117 0.950 . S
C2143 C2142 1.414 . S
C2143 C2144 1.374 . S
C2144 H2118 0.950 . S
C2144 C2140 1.385 . S
C2144 C2143 1.374 . S
C2145 C2142 1.499 . S
C2145 C2146 1.373 . S
C2145 C2147 1.389 . S
C2146 H2119 0.950 . S
C2146 C2132 1.377 . S
C2146 C2145 1.373 . S
C2147 C2131 1.377 . S
C2147 C2145 1.389 . S
C2147 C2148 1.524 . S
C2148 C2147 1.524 . S
C2148 C2149 1.397 . S
C2148 C2153 1.363 . S
C2149 H2120 0.950 . S
C2149 C2148 1.397 . S
C2149 C2150 1.334 . S
C2150 H2121 0.950 . S
C2150 C2149 1.334 . S
C2150 C2151 1.287 . S
C2151 C2150 1.287 . S
C2151 C2152 1.524 . S
C2151 H2154 0.999 . S
C2152 H2122 0.950 . S
C2152 C2151 1.524 . S
C2152 C2153 1.415 . S
C2153 H2123 0.950 . S
C2153 C2148 1.363 . S
C2153 C2152 1.415 . S
H2154 C2151 0.999 . S
H2155 C2136 0.913 . S
H2156 C2174 0.951 . S
H2157 C2176 0.951 . S
H2158 C2178 0.950 . S
H2159 C2179 0.950 . S
H2160 C2181 0.950 . S
H2161 C2184 0.950 . S
H2162 C2185 0.950 . S
H2163 C2187 0.950 . S
H2164 C2188 0.950 . S
H2165 C2189 0.951 . S
H2166 C2191 0.951 1_554 S
H2167 C2193 0.950 . S
H2168 C2194 0.950 . S
H2169 C2196 0.950 . S
H2170 C2199 0.950 . S
H2171 C2200 0.950 . S
H2172 C2202 0.987 . S
H2173 C2203 0.950 . S
C2174 H2156 0.951 . S
C2174 C2175 1.366 . S
C2174 C2176 1.388 . S
C2175 C2174 1.366 . S
C2175 C2179 1.385 . S
C2176 H2157 0.951 . S
C2176 C2174 1.388 . S
C2176 C2177 1.366 . S
C2177 C2176 1.366 . S
C2177 C2178 1.414 . S
C2177 C2180 1.499 . S
C2178 H2158 0.950 . S
C2178 C2177 1.414 . S
C2178 C2179 1.374 . S
C2179 H2159 0.950 . S
C2179 C2175 1.385 . S
C2179 C2178 1.374 . S
C2180 C2177 1.499 . S
C2180 C2181 1.373 . S
C2180 C2182 1.389 . S
C2181 H2160 0.950 . S
C2181 C2180 1.373 . S
C2181 C2197 1.377 . S
C2182 C2180 1.389 . S
C2182 C2183 1.524 . S
C2182 C2196 1.377 . S
C2183 C2182 1.524 . S
C2183 C2184 1.397 . S
C2183 C2188 1.363 . S
C2184 H2161 0.950 . S
C2184 C2183 1.397 . S
C2184 C2185 1.334 . S
C2185 H2162 0.950 . S
C2185 C2184 1.334 . S
C2185 C2186 1.287 . S
C2186 C2185 1.287 . S
C2186 C2187 1.524 . S
C2186 H2205 0.913 . S
C2187 H2163 0.950 . S
C2187 C2186 1.524 . S
C2187 C2188 1.415 . S
C2188 H2164 0.950 . S
C2188 C2183 1.363 . S
C2188 C2187 1.415 . S
C2189 H2165 0.951 . S
C2189 C2190 1.364 1_554 S
C2189 C2191 1.388 1_554 S
C2190 C2189 1.364 1_556 S
C2190 C2194 1.387 . S
C2191 H2166 0.951 1_556 S
C2191 C2189 1.388 1_556 S
C2191 C2192 1.366 . S
C2192 C2191 1.366 . S
C2192 C2193 1.414 . S
C2192 C2195 1.499 . S
C2193 H2167 0.950 . S
C2193 C2192 1.414 . S
C2193 C2194 1.374 . S
C2194 H2168 0.950 . S
C2194 C2190 1.387 . S
C2194 C2193 1.374 . S
C2195 C2192 1.499 . S
C2195 C2196 1.373 . S
C2195 C2197 1.389 . S
C2196 H2169 0.950 . S
C2196 C2182 1.377 . S
C2196 C2195 1.373 . S
C2197 C2181 1.377 . S
C2197 C2195 1.389 . S
C2197 C2198 1.524 . S
C2198 C2197 1.524 . S
C2198 C2199 1.397 . S
C2198 C2203 1.363 . S
C2199 H2170 0.950 . S
C2199 C2198 1.397 . S
C2199 C2200 1.334 . S
C2200 H2171 0.950 . S
C2200 C2199 1.334 . S
C2200 C2201 1.287 . S
C2201 C2200 1.287 . S
C2201 C2202 1.524 . S
C2201 H2204 0.999 . S
C2202 H2172 0.987 . S
C2202 C2201 1.524 . S
C2202 C2203 1.415 . S
C2203 H2173 0.950 . S
C2203 C2198 1.363 . S
C2203 C2202 1.415 . S
H2204 C2201 0.999 . S
H2205 C2186 0.913 . S
H2206 C2224 0.951 . S
H2207 C2226 0.951 . S
H2208 C2228 0.950 . S
H2209 C2229 0.950 . S
H2210 C2231 0.950 . S
H2211 C2234 0.950 . S
H2212 C2235 0.950 . S
H2213 C2237 0.950 . S
H2214 C2238 0.950 . S
H2215 C2239 0.951 . S
H2216 C2241 0.951 . S
H2217 C2243 0.950 . S
H2218 C2244 0.950 . S
H2219 C2246 0.950 . S
H2220 C2249 0.950 . S
H2221 C2250 0.950 . S
H2222 C2252 0.950 . S
H2223 C2253 0.950 . S
C2224 H2206 0.951 . S
C2224 C2225 1.366 . S
C2224 C2226 1.388 . S
C2225 C2224 1.366 . S
C2225 C2229 1.385 . S
C2226 H2207 0.951 . S
C2226 C2224 1.388 . S
C2226 C2227 1.366 . S
C2227 C2226 1.366 . S
C2227 C2228 1.414 . S
C2227 C2230 1.499 . S
C2228 H2208 0.950 . S
C2228 C2227 1.414 . S
C2228 C2229 1.374 . S
C2229 H2209 0.950 . S
C2229 C2225 1.385 . S
C2229 C2228 1.374 . S
C2230 C2227 1.499 . S
C2230 C2231 1.373 . S
C2230 C2232 1.389 . S
C2231 H2210 0.950 . S
C2231 C2230 1.373 . S
C2231 C2247 1.377 . S
C2232 C2230 1.389 . S
C2232 C2233 1.524 . S
C2232 C2246 1.377 . S
C2233 C2232 1.524 . S
C2233 C2234 1.397 . S
C2233 C2238 1.363 . S
C2234 H2211 0.950 . S
C2234 C2233 1.397 . S
C2234 C2235 1.334 . S
C2235 H2212 0.950 . S
C2235 C2234 1.334 . S
C2235 C2236 1.287 . S
C2236 C2235 1.287 . S
C2236 C2237 1.524 . S
C2236 H2255 0.913 . S
C2237 H2213 0.950 . S
C2237 C2236 1.524 . S
C2237 C2238 1.415 . S
C2238 H2214 0.950 . S
C2238 C2233 1.363 . S
C2238 C2237 1.415 . S
C2239 H2215 0.951 . S
C2239 C2240 1.366 . S
C2239 C2241 1.388 . S
C2240 C2239 1.366 . S
C2240 C2244 1.385 . S
C2241 H2216 0.951 . S
C2241 C2239 1.388 . S
C2241 C2242 1.366 . S
C2242 C2241 1.366 . S
C2242 C2243 1.414 . S
C2242 C2245 1.499 . S
C2243 H2217 0.950 . S
C2243 C2242 1.414 . S
C2243 C2244 1.374 . S
C2244 H2218 0.950 . S
C2244 C2240 1.385 . S
C2244 C2243 1.374 . S
C2245 C2242 1.499 . S
C2245 C2246 1.373 . S
C2245 C2247 1.389 . S
C2246 H2219 0.950 . S
C2246 C2232 1.377 . S
C2246 C2245 1.373 . S
C2247 C2231 1.377 . S
C2247 C2245 1.389 . S
C2247 C2248 1.524 . S
C2248 C2247 1.524 . S
C2248 C2249 1.397 . S
C2248 C2253 1.363 . S
C2249 H2220 0.950 . S
C2249 C2248 1.397 . S
C2249 C2250 1.334 . S
C2250 H2221 0.950 . S
C2250 C2249 1.334 . S
C2250 C2251 1.287 . S
C2251 C2250 1.287 . S
C2251 C2252 1.524 . S
C2251 H2254 0.999 . S
C2252 H2222 0.950 . S
C2252 C2251 1.524 . S
C2252 C2253 1.415 . S
C2253 H2223 0.950 . S
C2253 C2248 1.363 . S
C2253 C2252 1.415 . S
H2254 C2251 0.999 . S
H2255 C2236 0.913 . S
H2256 C2274 0.951 . S
H2257 C2276 0.951 . S
H2258 C2278 0.950 . S
H2259 C2279 0.950 . S
H2260 C2281 0.950 . S
H2261 C2284 0.950 . S
H2262 C2285 0.950 . S
H2263 C2287 0.950 . S
H2264 C2288 0.950 . S
H2265 C2289 0.951 . S
H2266 C2291 0.951 . S
H2267 C2293 0.950 . S
H2268 C2294 0.950 . S
H2269 C2296 0.950 . S
H2270 C2299 0.950 . S
H2271 C2300 0.950 1_655 S
H2272 C2302 0.950 . S
H2273 C2303 0.950 . S
C2274 H2256 0.951 . S
C2274 C2275 1.366 . S
C2274 C2276 1.388 . S
C2275 C2274 1.366 . S
C2275 C2279 1.385 1_545 S
C2276 H2257 0.951 . S
C2276 C2274 1.388 . S
C2276 C2277 1.366 . S
C2277 C2276 1.366 . S
C2277 C2278 1.414 1_545 S
C2277 C2280 1.499 . S
C2278 H2258 0.950 . S
C2278 C2277 1.414 1_565 S
C2278 C2279 1.374 . S
C2279 H2259 0.950 . S
C2279 C2275 1.385 1_565 S
C2279 C2278 1.374 . S
C2280 C2277 1.499 . S
C2280 C2281 1.373 1_545 S
C2280 C2282 1.389 . S
C2281 H2260 0.950 . S
C2281 C2280 1.373 1_565 S
C2281 C2297 1.377 . S
C2282 C2280 1.389 . S
C2282 C2283 1.524 . S
C2282 C2296 1.377 . S
C2283 C2282 1.524 . S
C2283 C2284 1.397 . S
C2283 C2288 1.363 . S
C2284 H2261 0.950 . S
C2284 C2283 1.397 . S
C2284 C2285 1.334 . S
C2285 H2262 0.950 . S
C2285 C2284 1.334 . S
C2285 C2286 1.287 . S
C2286 C2285 1.287 . S
C2286 C2287 1.524 . S
C2286 H2305 0.913 . S
C2287 H2263 0.950 . S
C2287 C2286 1.524 . S
C2287 C2288 1.415 . S
C2288 H2264 0.950 . S
C2288 C2283 1.363 . S
C2288 C2287 1.415 . S
C2289 H2265 0.951 . S
C2289 C2290 1.366 1_565 S
C2289 C2291 1.388 . S
C2290 C2289 1.366 1_545 S
C2290 C2294 1.385 . S
C2291 H2266 0.951 . S
C2291 C2289 1.388 . S
C2291 C2292 1.366 1_565 S
C2292 C2291 1.366 1_545 S
C2292 C2293 1.414 . S
C2292 C2295 1.499 . S
C2293 H2267 0.950 . S
C2293 C2292 1.414 . S
C2293 C2294 1.374 . S
C2294 H2268 0.950 . S
C2294 C2290 1.385 . S
C2294 C2293 1.374 . S
C2295 C2292 1.499 . S
C2295 C2296 1.373 . S
C2295 C2297 1.389 1_545 S
C2296 H2269 0.950 . S
C2296 C2282 1.377 . S
C2296 C2295 1.373 . S
C2297 C2281 1.377 . S
C2297 C2295 1.389 1_565 S
C2297 C2298 1.524 . S
C2298 C2297 1.524 . S
C2298 C2299 1.397 . S
C2298 C2303 1.363 . S
C2299 H2270 0.950 . S
C2299 C2298 1.397 . S
C2299 C2300 1.334 . S
C2300 H2271 0.950 1_455 S
C2300 C2299 1.334 . S
C2300 C2301 1.287 . S
C2301 C2300 1.287 . S
C2301 C2302 1.524 . S
C2301 H2304 0.999 1_455 S
C2302 H2272 0.950 . S
C2302 C2301 1.524 . S
C2302 C2303 1.415 . S
C2303 H2273 0.950 . S
C2303 C2298 1.363 . S
C2303 C2302 1.415 . S
H2304 C2301 0.999 1_655 S
H2305 C2286 0.913 . S
H2306 C2324 0.951 . S
H2307 C2326 0.951 . S
H2308 C2328 0.950 . S
H2309 C2329 0.950 . S
H2310 C2331 0.950 . S
H2311 C2334 0.950 . S
H2312 C2335 0.950 . S
H2313 C2337 0.950 . S
H2314 C2338 0.950 . S
H2315 C2339 0.951 . S
H2316 C2341 0.951 . S
H2317 C2343 0.950 . S
H2318 C2344 0.950 . S
H2319 C2346 0.950 . S
H2320 C2349 0.950 . S
H2321 C2350 0.950 . S
H2322 C2352 0.950 . S
H2323 C2353 0.950 . S
C2324 H2306 0.951 . S
C2324 C2325 1.366 . S
C2324 C2326 1.388 . S
C2325 C2324 1.366 . S
C2325 C2329 1.385 . S
C2326 H2307 0.951 . S
C2326 C2324 1.388 . S
C2326 C2327 1.366 . S
C2327 C2326 1.366 . S
C2327 C2328 1.414 . S
C2327 C2330 1.499 . S
C2328 H2308 0.950 . S
C2328 C2327 1.414 . S
C2328 C2329 1.374 . S
C2329 H2309 0.950 . S
C2329 C2325 1.385 . S
C2329 C2328 1.374 . S
C2330 C2327 1.499 . S
C2330 C2331 1.373 . S
C2330 C2332 1.389 . S
C2331 H2310 0.950 . S
C2331 C2330 1.373 . S
C2331 C2347 1.377 . S
C2332 C2330 1.389 . S
C2332 C2333 1.524 . S
C2332 C2346 1.377 . S
C2333 C2332 1.524 . S
C2333 C2334 1.397 . S
C2333 C2338 1.363 . S
C2334 H2311 0.950 . S
C2334 C2333 1.397 . S
C2334 C2335 1.334 . S
C2335 H2312 0.950 . S
C2335 C2334 1.334 . S
C2335 C2336 1.287 . S
C2336 C2335 1.287 . S
C2336 C2337 1.524 . S
C2336 H2355 0.913 . S
C2337 H2313 0.950 . S
C2337 C2336 1.524 . S
C2337 C2338 1.415 . S
C2338 H2314 0.950 . S
C2338 C2333 1.363 . S
C2338 C2337 1.415 . S
C2339 H2315 0.951 . S
C2339 C2340 1.366 . S
C2339 C2341 1.388 . S
C2340 C2339 1.366 . S
C2340 C2344 1.385 . S
C2341 H2316 0.951 . S
C2341 C2339 1.388 . S
C2341 C2342 1.366 . S
C2342 C2341 1.366 . S
C2342 C2343 1.414 . S
C2342 C2345 1.499 . S
C2343 H2317 0.950 . S
C2343 C2342 1.414 . S
C2343 C2344 1.374 . S
C2344 H2318 0.950 . S
C2344 C2340 1.385 . S
C2344 C2343 1.374 . S
C2345 C2342 1.499 . S
C2345 C2346 1.373 . S
C2345 C2347 1.389 . S
C2346 H2319 0.950 . S
C2346 C2332 1.377 . S
C2346 C2345 1.373 . S
C2347 C2331 1.377 . S
C2347 C2345 1.389 . S
C2347 C2348 1.524 . S
C2348 C2347 1.524 . S
C2348 C2349 1.397 . S
C2348 C2353 1.363 . S
C2349 H2320 0.950 . S
C2349 C2348 1.397 . S
C2349 C2350 1.334 . S
C2350 H2321 0.950 . S
C2350 C2349 1.334 . S
C2350 C2351 1.287 . S
C2351 C2350 1.287 . S
C2351 C2352 1.524 . S
C2351 H2354 0.999 . S
C2352 H2322 0.950 . S
C2352 C2351 1.524 . S
C2352 C2353 1.415 . S
C2353 H2323 0.950 . S
C2353 C2348 1.363 . S
C2353 C2352 1.415 . S
H2354 C2351 0.999 . S
H2355 C2336 0.913 . S
H2356 C2374 0.951 . S
H2357 C2376 0.951 . S
H2358 C2378 0.950 . S
H2359 C2379 0.950 . S
H2360 C2381 0.950 . S
H2361 C2384 0.950 . S
H2362 C2385 0.950 . S
H2363 C2387 0.950 . S
H2364 C2388 0.950 . S
H2365 C2389 0.951 . S
H2366 C2391 0.951 . S
H2367 C2393 0.950 . S
H2368 C2394 0.950 . S
H2369 C2396 0.950 1_565 S
H2370 C2399 0.950 . S
H2371 C2400 0.950 . S
H2372 C2402 0.950 . S
H2373 C2403 0.950 . S
C2374 H2356 0.951 . S
C2374 C2375 1.366 . S
C2374 C2376 1.388 . S
C2375 C2374 1.366 . S
C2375 C2379 1.385 . S
C2376 H2357 0.951 . S
C2376 C2374 1.388 . S
C2376 C2377 1.366 . S
C2377 C2376 1.366 . S
C2377 C2378 1.414 . S
C2377 C2380 1.499 . S
C2378 H2358 0.950 . S
C2378 C2377 1.414 . S
C2378 C2379 1.374 . S
C2379 H2359 0.950 . S
C2379 C2375 1.385 . S
C2379 C2378 1.374 . S
C2380 C2377 1.499 . S
C2380 C2381 1.373 . S
C2380 C2382 1.389 . S
C2381 H2360 0.950 . S
C2381 C2380 1.373 . S
C2381 C2397 1.377 . S
C2382 C2380 1.389 . S
C2382 C2383 1.524 1_545 S
C2382 C2396 1.377 . S
C2383 C2382 1.524 1_565 S
C2383 C2384 1.397 . S
C2383 C2388 1.363 . S
C2384 H2361 0.950 . S
C2384 C2383 1.397 . S
C2384 C2385 1.334 . S
C2385 H2362 0.950 . S
C2385 C2384 1.334 . S
C2385 C2386 1.287 . S
C2386 C2385 1.287 . S
C2386 C2387 1.524 . S
C2386 H2405 0.913 . S
C2387 H2363 0.950 . S
C2387 C2386 1.524 . S
C2387 C2388 1.415 . S
C2388 H2364 0.950 . S
C2388 C2383 1.363 . S
C2388 C2387 1.415 . S
C2389 H2365 0.951 . S
C2389 C2390 1.366 . S
C2389 C2391 1.388 . S
C2390 C2389 1.366 . S
C2390 C2394 1.385 . S
C2391 H2366 0.951 . S
C2391 C2389 1.388 . S
C2391 C2392 1.366 . S
C2392 C2391 1.366 . S
C2392 C2393 1.414 . S
C2392 C2395 1.499 . S
C2393 H2367 0.950 . S
C2393 C2392 1.414 . S
C2393 C2394 1.374 . S
C2394 H2368 0.950 . S
C2394 C2390 1.385 . S
C2394 C2393 1.374 . S
C2395 C2392 1.499 . S
C2395 C2396 1.373 . S
C2395 C2397 1.389 . S
C2396 H2369 0.950 1_545 S
C2396 C2382 1.377 . S
C2396 C2395 1.373 . S
C2397 C2381 1.377 . S
C2397 C2395 1.389 . S
C2397 C2398 1.524 . S
C2398 C2397 1.524 . S
C2398 C2399 1.397 . S
C2398 C2403 1.363 . S
C2399 H2370 0.950 . S
C2399 C2398 1.397 . S
C2399 C2400 1.334 . S
C2400 H2371 0.950 . S
C2400 C2399 1.334 . S
C2400 C2401 1.287 . S
C2401 C2400 1.287 . S
C2401 C2402 1.524 . S
C2401 H2404 0.999 . S
C2402 H2372 0.950 . S
C2402 C2401 1.524 . S
C2402 C2403 1.415 . S
C2403 H2373 0.950 . S
C2403 C2398 1.363 . S
C2403 C2402 1.415 . S
H2404 C2401 0.999 . S
H2405 C2386 0.913 . S
H2406 C2424 0.951 . S
H2407 C2426 0.951 . S
H2408 C2428 0.950 . S
H2409 C2429 0.950 . S
H2410 C2431 0.950 . S
H2411 C2434 0.950 . S
H2412 C2435 0.950 . S
H2413 C2437 0.950 . S
H2414 C2438 0.950 . S
H2415 C2439 0.951 . S
H2416 C2441 0.951 . S
H2417 C2443 0.950 . S
H2418 C2444 0.950 . S
H2419 C2446 0.950 . S
H2420 C2449 0.950 . S
H2421 C2450 0.950 . S
H2422 C2452 0.950 . S
H2423 C2453 0.950 . S
C2424 H2406 0.951 . S
C2424 C2425 1.366 . S
C2424 C2426 1.388 . S
C2425 C2424 1.366 . S
C2425 C2429 1.385 . S
C2426 H2407 0.951 . S
C2426 C2424 1.388 . S
C2426 C2427 1.366 . S
C2427 C2426 1.366 . S
C2427 C2428 1.414 . S
C2427 C2430 1.499 . S
C2428 H2408 0.950 . S
C2428 C2427 1.414 . S
C2428 C2429 1.374 . S
C2429 H2409 0.950 . S
C2429 C2425 1.385 . S
C2429 C2428 1.374 . S
C2430 C2427 1.499 . S
C2430 C2431 1.373 . S
C2430 C2432 1.389 . S
C2431 H2410 0.950 . S
C2431 C2430 1.373 . S
C2431 C2447 1.377 . S
C2432 C2430 1.389 . S
C2432 C2433 1.524 . S
C2432 C2446 1.377 . S
C2433 C2432 1.524 . S
C2433 C2434 1.397 . S
C2433 C2438 1.363 . S
C2434 H2411 0.950 . S
C2434 C2433 1.397 . S
C2434 C2435 1.334 . S
C2435 H2412 0.950 . S
C2435 C2434 1.334 . S
C2435 C2436 1.287 . S
C2436 C2435 1.287 . S
C2436 C2437 1.524 . S
C2436 H2455 0.913 . S
C2437 H2413 0.950 . S
C2437 C2436 1.524 . S
C2437 C2438 1.415 . S
C2438 H2414 0.950 . S
C2438 C2433 1.363 . S
C2438 C2437 1.415 . S
C2439 H2415 0.951 . S
C2439 C2440 1.366 . S
C2439 C2441 1.388 . S
C2440 C2439 1.366 . S
C2440 C2444 1.385 . S
C2441 H2416 0.951 . S
C2441 C2439 1.388 . S
C2441 C2442 1.366 . S
C2442 C2441 1.366 . S
C2442 C2443 1.414 . S
C2442 C2445 1.499 . S
C2443 H2417 0.950 . S
C2443 C2442 1.414 . S
C2443 C2444 1.374 . S
C2444 H2418 0.950 . S
C2444 C2440 1.385 . S
C2444 C2443 1.374 . S
C2445 C2442 1.499 . S
C2445 C2446 1.373 . S
C2445 C2447 1.389 . S
C2446 H2419 0.950 . S
C2446 C2432 1.377 . S
C2446 C2445 1.373 . S
C2447 C2431 1.377 . S
C2447 C2445 1.389 . S
C2447 C2448 1.524 . S
C2448 C2447 1.524 . S
C2448 C2449 1.397 . S
C2448 C2453 1.363 . S
C2449 H2420 0.950 . S
C2449 C2448 1.397 . S
C2449 C2450 1.334 . S
C2450 H2421 0.950 . S
C2450 C2449 1.334 . S
C2450 C2451 1.287 . S
C2451 C2450 1.287 . S
C2451 C2452 1.524 . S
C2451 H2454 0.999 . S
C2452 H2422 0.950 . S
C2452 C2451 1.524 . S
C2452 C2453 1.415 . S
C2453 H2423 0.950 . S
C2453 C2448 1.363 . S
C2453 C2452 1.415 . S
H2454 C2451 0.999 . S
H2455 C2436 0.913 . S
H2456 C2474 0.937 1_565 S
H2457 C2476 0.951 . S
H2458 C2478 0.950 . S
H2459 C2479 0.950 . S
H2460 C2481 0.950 . S
H2461 C2484 0.950 . S
H2462 C2485 0.950 . S
H2463 C2487 0.950 . S
H2464 C2488 0.950 . S
H2465 C2489 0.951 . S
H2466 C2491 0.951 . S
H2467 C2493 0.950 . S
H2468 C2494 0.950 . S
H2469 C2496 0.950 . S
H2470 C2499 0.950 . S
H2471 C2500 0.950 . S
H2472 C2502 0.950 1_655 S
H2473 C2503 0.950 . S
C2474 H2456 0.937 1_545 S
C2474 C2475 1.366 . S
C2474 C2476 1.388 . S
C2475 C2474 1.366 . S
C2475 C2479 1.385 . S
C2476 H2457 0.951 . S
C2476 C2474 1.388 . S
C2476 C2477 1.366 . S
C2477 C2476 1.366 . S
C2477 C2478 1.414 . S
C2477 C2480 1.499 . S
C2478 H2458 0.950 . S
C2478 C2477 1.414 . S
C2478 C2479 1.374 . S
C2479 H2459 0.950 . S
C2479 C2475 1.385 . S
C2479 C2478 1.374 . S
C2480 C2477 1.499 . S
C2480 C2481 1.373 1_545 S
C2480 C2482 1.389 . S
C2481 H2460 0.950 . S
C2481 C2480 1.373 1_565 S
C2481 C2497 1.377 . S
C2482 C2480 1.389 . S
C2482 C2483 1.524 . S
C2482 C2496 1.377 . S
C2483 C2482 1.524 . S
C2483 C2484 1.397 . S
C2483 C2488 1.363 . S
C2484 H2461 0.950 . S
C2484 C2483 1.397 . S
C2484 C2485 1.334 . S
C2485 H2462 0.950 . S
C2485 C2484 1.334 . S
C2485 C2486 1.287 . S
C2486 C2485 1.287 . S
C2486 C2487 1.524 . S
C2486 H2505 0.913 . S
C2487 H2463 0.950 . S
C2487 C2486 1.524 . S
C2487 C2488 1.415 . S
C2488 H2464 0.950 . S
C2488 C2483 1.363 . S
C2488 C2487 1.415 . S
C2489 H2465 0.951 . S
C2489 C2490 1.366 . S
C2489 C2491 1.388 . S
C2490 C2489 1.366 . S
C2490 C2494 1.385 . S
C2491 H2466 0.951 . S
C2491 C2489 1.388 . S
C2491 C2492 1.366 . S
C2492 C2491 1.366 . S
C2492 C2493 1.414 . S
C2492 C2495 1.499 . S
C2493 H2467 0.950 . S
C2493 C2492 1.414 . S
C2493 C2494 1.374 . S
C2494 H2468 0.950 . S
C2494 C2490 1.385 . S
C2494 C2493 1.374 . S
C2495 C2492 1.499 . S
C2495 C2496 1.373 . S
C2495 C2497 1.389 1_545 S
C2496 H2469 0.950 . S
C2496 C2482 1.377 . S
C2496 C2495 1.373 . S
C2497 C2481 1.377 . S
C2497 C2495 1.389 1_565 S
C2497 C2498 1.524 . S
C2498 C2497 1.524 . S
C2498 C2499 1.397 . S
C2498 C2503 1.363 . S
C2499 H2470 0.950 . S
C2499 C2498 1.397 . S
C2499 C2500 1.334 . S
C2500 H2471 0.950 . S
C2500 C2499 1.334 . S
C2500 C2501 1.287 . S
C2501 C2500 1.287 . S
C2501 C2502 1.524 . S
C2501 H2504 0.999 1_455 S
C2502 H2472 0.950 1_455 S
C2502 C2501 1.524 . S
C2502 C2503 1.415 . S
C2503 H2473 0.950 . S
C2503 C2498 1.363 . S
C2503 C2502 1.415 . S
H2504 C2501 0.999 1_655 S
H2505 C2486 0.913 . S
H2506 C2524 0.951 . S
H2507 C2526 0.951 . S
H2508 C2528 0.950 . S
H2509 C2529 0.950 . S
H2510 C2531 0.950 . S
H2511 C2534 0.950 . S
H2512 C2535 0.950 . S
H2513 C2537 0.950 . S
H2514 C2538 0.950 . S
H2515 C2539 0.951 . S
H2516 C2541 0.951 . S
H2517 C2543 0.950 . S
H2518 C2544 0.950 . S
H2519 C2546 0.950 . S
H2520 C2549 0.950 . S
H2521 C2550 0.950 . S
H2522 C2552 0.950 . S
H2523 C2553 0.950 . S
C2524 H2506 0.951 . S
C2524 C2525 1.366 . S
C2524 C2526 1.388 . S
C2525 C2524 1.366 . S
C2525 C2529 1.385 . S
C2526 H2507 0.951 . S
C2526 C2524 1.388 . S
C2526 C2527 1.366 . S
C2527 C2526 1.366 . S
C2527 C2528 1.414 . S
C2527 C2530 1.499 . S
C2528 H2508 0.950 . S
C2528 C2527 1.414 . S
C2528 C2529 1.374 . S
C2529 H2509 0.950 . S
C2529 C2525 1.385 . S
C2529 C2528 1.374 . S
C2530 C2527 1.499 . S
C2530 C2531 1.373 . S
C2530 C2532 1.389 . S
C2531 H2510 0.950 . S
C2531 C2530 1.373 . S
C2531 C2547 1.377 . S
C2532 C2530 1.389 . S
C2532 C2533 1.524 . S
C2532 C2546 1.377 . S
C2533 C2532 1.524 . S
C2533 C2534 1.397 . S
C2533 C2538 1.363 . S
C2534 H2511 0.950 . S
C2534 C2533 1.397 . S
C2534 C2535 1.334 . S
C2535 H2512 0.950 . S
C2535 C2534 1.334 . S
C2535 C2536 1.287 . S
C2536 C2535 1.287 . S
C2536 C2537 1.524 . S
C2536 H2555 0.913 . S
C2537 H2513 0.950 . S
C2537 C2536 1.524 . S
C2537 C2538 1.415 . S
C2538 H2514 0.950 . S
C2538 C2533 1.363 . S
C2538 C2537 1.415 . S
C2539 H2515 0.951 . S
C2539 C2540 1.366 . S
C2539 C2541 1.388 . S
C2540 C2539 1.366 . S
C2540 C2544 1.385 . S
C2541 H2516 0.951 . S
C2541 C2539 1.388 . S
C2541 C2542 1.366 . S
C2542 C2541 1.366 . S
C2542 C2543 1.414 . S
C2542 C2545 1.499 . S
C2543 H2517 0.950 . S
C2543 C2542 1.414 . S
C2543 C2544 1.374 . S
C2544 H2518 0.950 . S
C2544 C2540 1.385 . S
C2544 C2543 1.374 . S
C2545 C2542 1.499 . S
C2545 C2546 1.373 . S
C2545 C2547 1.389 . S
C2546 H2519 0.950 . S
C2546 C2532 1.377 . S
C2546 C2545 1.373 . S
C2547 C2531 1.377 . S
C2547 C2545 1.389 . S
C2547 C2548 1.524 . S
C2548 C2547 1.524 . S
C2548 C2549 1.397 . S
C2548 C2553 1.363 . S
C2549 H2520 0.950 . S
C2549 C2548 1.397 . S
C2549 C2550 1.334 . S
C2550 H2521 0.950 . S
C2550 C2549 1.334 . S
C2550 C2551 1.287 . S
C2551 C2550 1.287 . S
C2551 C2552 1.524 . S
C2551 H2554 0.999 . S
C2552 H2522 0.950 . S
C2552 C2551 1.524 . S
C2552 C2553 1.415 . S
C2553 H2523 0.950 . S
C2553 C2548 1.363 . S
C2553 C2552 1.415 . S
H2554 C2551 0.999 . S
H2555 C2536 0.913 . S
H2556 C2574 0.951 . S
H2557 C2576 0.951 . S
H2558 C2578 0.950 . S
H2559 C2579 0.950 . S
H2560 C2581 0.950 . S
H2561 C2584 0.950 . S
H2562 C2585 0.950 . S
H2563 C2587 0.950 . S
H2564 C2588 0.950 . S
H2565 C2589 0.951 . S
H2566 C2591 0.951 . S
H2567 C2593 0.950 . S
H2568 C2594 0.950 . S
H2569 C2596 0.950 . S
H2570 C2599 0.950 . S
H2571 C2600 0.950 . S
H2572 C2602 0.950 . S
H2573 C2603 0.950 1_545 S
C2574 H2556 0.951 . S
C2574 C2575 1.366 . S
C2574 C2576 1.388 . S
C2575 C2574 1.366 . S
C2575 C2579 1.385 . S
C2576 H2557 0.951 . S
C2576 C2574 1.388 . S
C2576 C2577 1.366 . S
C2577 C2576 1.366 . S
C2577 C2578 1.414 . S
C2577 C2580 1.499 . S
C2578 H2558 0.950 . S
C2578 C2577 1.414 . S
C2578 C2579 1.374 . S
C2579 H2559 0.950 . S
C2579 C2575 1.385 . S
C2579 C2578 1.374 . S
C2580 C2577 1.499 . S
C2580 C2581 1.373 . S
C2580 C2582 1.389 . S
C2581 H2560 0.950 . S
C2581 C2580 1.373 . S
C2581 C2597 1.377 . S
C2582 C2580 1.389 . S
C2582 C2583 1.524 . S
C2582 C2596 1.377 . S
C2583 C2582 1.524 . S
C2583 C2584 1.397 . S
C2583 C2588 1.363 . S
C2584 H2561 0.950 . S
C2584 C2583 1.397 . S
C2584 C2585 1.334 . S
C2585 H2562 0.950 . S
C2585 C2584 1.334 . S
C2585 C2586 1.287 . S
C2586 C2585 1.287 . S
C2586 C2587 1.524 . S
C2586 H2605 0.913 . S
C2587 H2563 0.950 . S
C2587 C2586 1.524 . S
C2587 C2588 1.415 . S
C2588 H2564 0.950 . S
C2588 C2583 1.363 . S
C2588 C2587 1.415 . S
C2589 H2565 0.951 . S
C2589 C2590 1.366 . S
C2589 C2591 1.388 . S
C2590 C2589 1.366 . S
C2590 C2594 1.385 1_545 S
C2591 H2566 0.951 . S
C2591 C2589 1.388 . S
C2591 C2592 1.366 . S
C2592 C2591 1.366 . S
C2592 C2593 1.414 1_545 S
C2592 C2595 1.499 . S
C2593 H2567 0.950 . S
C2593 C2592 1.414 1_565 S
C2593 C2594 1.374 . S
C2594 H2568 0.950 . S
C2594 C2590 1.385 1_565 S
C2594 C2593 1.374 . S
C2595 C2592 1.499 . S
C2595 C2596 1.373 . S
C2595 C2597 1.389 . S
C2596 H2569 0.950 . S
C2596 C2582 1.377 . S
C2596 C2595 1.373 . S
C2597 C2581 1.377 . S
C2597 C2595 1.389 . S
C2597 C2598 1.524 1_545 S
C2598 C2597 1.524 1_565 S
C2598 C2599 1.397 . S
C2598 C2603 1.363 . S
C2599 H2570 0.950 . S
C2599 C2598 1.397 . S
C2599 C2600 1.334 . S
C2600 H2571 0.950 . S
C2600 C2599 1.334 . S
C2600 C2601 1.287 . S
C2601 C2600 1.287 . S
C2601 C2602 1.524 . S
C2601 H2604 0.999 . S
C2602 H2572 0.950 . S
C2602 C2601 1.524 . S
C2602 C2603 1.415 . S
C2603 H2573 0.950 1_565 S
C2603 C2598 1.363 . S
C2603 C2602 1.415 . S
H2604 C2601 0.999 . S
H2605 C2586 0.913 . S
H2606 C2624 0.951 . S
H2607 C2626 0.951 . S
H2608 C2628 0.950 . S
H2609 C2629 0.950 . S
H2610 C2631 0.950 . S
H2611 C2634 0.950 . S
H2612 C2635 0.950 . S
H2613 C2637 0.950 . S
H2614 C2638 0.950 . S
H2615 C2639 0.951 . S
H2616 C2641 0.951 . S
H2617 C2643 0.950 . S
H2618 C2644 0.950 . S
H2619 C2646 0.950 . S
H2620 C2649 0.950 . S
H2621 C2650 0.950 . S
H2622 C2652 0.950 . S
H2623 C2653 0.950 . S
C2624 H2606 0.951 . S
C2624 C2625 1.366 . S
C2624 C2626 1.388 . S
C2625 C2624 1.366 . S
C2625 C2629 1.385 . S
C2626 H2607 0.951 . S
C2626 C2624 1.388 . S
C2626 C2627 1.366 . S
C2627 C2626 1.366 . S
C2627 C2628 1.414 . S
C2627 C2630 1.499 . S
C2628 H2608 0.950 . S
C2628 C2627 1.414 . S
C2628 C2629 1.374 . S
C2629 H2609 0.950 . S
C2629 C2625 1.385 . S
C2629 C2628 1.374 . S
C2630 C2627 1.499 . S
C2630 C2631 1.373 . S
C2630 C2632 1.389 . S
C2631 H2610 0.950 . S
C2631 C2630 1.373 . S
C2631 C2647 1.377 . S
C2632 C2630 1.389 . S
C2632 C2633 1.524 . S
C2632 C2646 1.377 . S
C2633 C2632 1.524 . S
C2633 C2634 1.397 . S
C2633 C2638 1.363 . S
C2634 H2611 0.950 . S
C2634 C2633 1.397 . S
C2634 C2635 1.334 . S
C2635 H2612 0.950 . S
C2635 C2634 1.334 . S
C2635 C2636 1.287 . S
C2636 C2635 1.287 . S
C2636 C2637 1.524 . S
C2636 H2655 0.913 . S
C2637 H2613 0.950 . S
C2637 C2636 1.524 . S
C2637 C2638 1.415 . S
C2638 H2614 0.950 . S
C2638 C2633 1.363 . S
C2638 C2637 1.415 . S
C2639 H2615 0.951 . S
C2639 C2640 1.366 . S
C2639 C2641 1.388 . S
C2640 C2639 1.366 . S
C2640 C2644 1.385 . S
C2641 H2616 0.951 . S
C2641 C2639 1.388 . S
C2641 C2642 1.366 . S
C2642 C2641 1.366 . S
C2642 C2643 1.414 . S
C2642 C2645 1.499 . S
C2643 H2617 0.950 . S
C2643 C2642 1.414 . S
C2643 C2644 1.374 . S
C2644 H2618 0.950 . S
C2644 C2640 1.385 . S
C2644 C2643 1.374 . S
C2645 C2642 1.499 . S
C2645 C2646 1.373 . S
C2645 C2647 1.389 . S
C2646 H2619 0.950 . S
C2646 C2632 1.377 . S
C2646 C2645 1.373 . S
C2647 C2631 1.377 . S
C2647 C2645 1.389 . S
C2647 C2648 1.524 . S
C2648 C2647 1.524 . S
C2648 C2649 1.397 . S
C2648 C2653 1.363 . S
C2649 H2620 0.950 . S
C2649 C2648 1.397 . S
C2649 C2650 1.334 . S
C2650 H2621 0.950 . S
C2650 C2649 1.334 . S
C2650 C2651 1.287 . S
C2651 C2650 1.287 . S
C2651 C2652 1.524 . S
C2651 H2654 0.999 . S
C2652 H2622 0.950 . S
C2652 C2651 1.524 . S
C2652 C2653 1.415 . S
C2653 H2623 0.950 . S
C2653 C2648 1.363 . S
C2653 C2652 1.415 . S
H2654 C2651 0.999 . S
H2655 C2636 0.913 . S
H2656 C2674 0.951 . S
H2657 C2676 0.951 . S
H2658 C2678 0.950 . S
H2659 C2679 0.950 . S
H2660 C2681 0.912 1_556 S
H2661 C2684 0.950 . S
H2662 C2685 0.950 . S
H2663 C2687 0.950 . S
H2664 C2688 0.950 . S
H2665 C2689 0.951 . S
H2666 C2691 0.951 . S
H2667 C2693 0.950 . S
H2668 C2694 0.950 . S
H2669 C2696 0.950 . S
H2670 C2699 0.950 . S
H2671 C2700 0.950 . S
H2672 C2702 0.950 . S
H2673 C2703 0.950 . S
C2674 H2656 0.951 . S
C2674 C2675 1.366 . S
C2674 C2676 1.388 . S
C2675 C2674 1.366 . S
C2675 C2679 1.385 . S
C2676 H2657 0.951 . S
C2676 C2674 1.388 . S
C2676 C2677 1.366 . S
C2677 C2676 1.366 . S
C2677 C2678 1.414 . S
C2677 C2680 1.499 . S
C2678 H2658 0.950 . S
C2678 C2677 1.414 . S
C2678 C2679 1.374 . S
C2679 H2659 0.950 . S
C2679 C2675 1.385 . S
C2679 C2678 1.374 . S
C2680 C2677 1.499 . S
C2680 C2681 1.423 . S
C2680 C2682 1.389 . S
C2681 H2660 0.912 1_554 S
C2681 C2680 1.423 . S
C2681 C2697 1.368 1_554 S
C2682 C2680 1.389 . S
C2682 C2683 1.524 . S
C2682 C2696 1.377 . S
C2683 C2682 1.524 . S
C2683 C2684 1.397 . S
C2683 C2688 1.363 . S
C2684 H2661 0.950 . S
C2684 C2683 1.397 . S
C2684 C2685 1.334 . S
C2685 H2662 0.950 . S
C2685 C2684 1.334 . S
C2685 C2686 1.287 . S
C2686 C2685 1.287 . S
C2686 C2687 1.524 . S
C2686 H2705 0.913 . S
C2687 H2663 0.950 . S
C2687 C2686 1.524 . S
C2687 C2688 1.415 . S
C2688 H2664 0.950 . S
C2688 C2683 1.363 . S
C2688 C2687 1.415 . S
C2689 H2665 0.951 . S
C2689 C2690 1.366 . S
C2689 C2691 1.388 . S
C2690 C2689 1.366 . S
C2690 C2694 1.385 . S
C2691 H2666 0.951 . S
C2691 C2689 1.388 . S
C2691 C2692 1.366 . S
C2692 C2691 1.366 . S
C2692 C2693 1.414 . S
C2692 C2695 1.499 . S
C2693 H2667 0.950 . S
C2693 C2692 1.414 . S
C2693 C2694 1.374 . S
C2694 H2668 0.950 . S
C2694 C2690 1.385 . S
C2694 C2693 1.374 . S
C2695 C2692 1.499 . S
C2695 C2696 1.373 . S
C2695 C2697 1.389 1_554 S
C2696 H2669 0.950 . S
C2696 C2682 1.377 . S
C2696 C2695 1.373 . S
C2697 C2681 1.368 1_556 S
C2697 C2695 1.389 1_556 S
C2697 C2698 1.524 . S
C2698 C2697 1.524 . S
C2698 C2699 1.397 . S
C2698 C2703 1.363 . S
C2699 H2670 0.950 . S
C2699 C2698 1.397 . S
C2699 C2700 1.334 . S
C2700 H2671 0.950 . S
C2700 C2699 1.334 . S
C2700 C2701 1.287 . S
C2701 C2700 1.287 . S
C2701 C2702 1.524 . S
C2701 H2704 0.999 . S
C2702 H2672 0.950 . S
C2702 C2701 1.524 . S
C2702 C2703 1.415 . S
C2703 H2673 0.950 . S
C2703 C2698 1.363 . S
C2703 C2702 1.415 . S
H2704 C2701 0.999 . S
H2705 C2686 0.913 . S
H2706 C2724 0.951 . S
H2707 C2726 0.951 . S
H2708 C2728 0.950 . S
H2709 C2729 0.950 . S
H2710 C2731 0.950 . S
H2711 C2734 0.950 1_554 S
H2712 C2735 0.950 . S
H2713 C2737 0.950 . S
H2714 C2738 0.950 . S
H2715 C2739 0.951 . S
H2716 C2741 0.951 . S
H2717 C2743 0.950 . S
H2718 C2744 0.950 . S
H2719 C2746 0.950 . S
H2720 C2749 0.950 . S
H2721 C2750 0.950 . S
H2722 C2752 0.950 . S
H2723 C2753 0.950 . S
C2724 H2706 0.951 . S
C2724 C2725 1.366 . S
C2724 C2726 1.388 . S
C2725 C2724 1.366 . S
C2725 C2729 1.385 . S
C2726 H2707 0.951 . S
C2726 C2724 1.388 . S
C2726 C2727 1.366 . S
C2727 C2726 1.366 . S
C2727 C2728 1.414 . S
C2727 C2730 1.499 . S
C2728 H2708 0.950 . S
C2728 C2727 1.414 . S
C2728 C2729 1.374 . S
C2729 H2709 0.950 . S
C2729 C2725 1.385 . S
C2729 C2728 1.374 . S
C2730 C2727 1.499 . S
C2730 C2731 1.373 . S
C2730 C2732 1.389 . S
C2731 H2710 0.950 . S
C2731 C2730 1.373 . S
C2731 C2747 1.377 . S
C2732 C2730 1.389 . S
C2732 C2733 1.524 1_554 S
C2732 C2746 1.377 . S
C2733 C2732 1.524 1_556 S
C2733 C2734 1.397 . S
C2733 C2738 1.363 . S
C2734 H2711 0.950 1_556 S
C2734 C2733 1.397 . S
C2734 C2735 1.334 . S
C2735 H2712 0.950 . S
C2735 C2734 1.334 . S
C2735 C2736 1.287 . S
C2736 C2735 1.287 . S
C2736 C2737 1.524 . S
C2736 H2755 0.913 . S
C2737 H2713 0.950 . S
C2737 C2736 1.524 . S
C2737 C2738 1.415 . S
C2738 H2714 0.950 . S
C2738 C2733 1.363 . S
C2738 C2737 1.415 . S
C2739 H2715 0.951 . S
C2739 C2740 1.366 . S
C2739 C2741 1.388 . S
C2740 C2739 1.366 . S
C2740 C2744 1.385 . S
C2741 H2716 0.951 . S
C2741 C2739 1.388 . S
C2741 C2742 1.366 . S
C2742 C2741 1.366 . S
C2742 C2743 1.414 . S
C2742 C2745 1.499 . S
C2743 H2717 0.950 . S
C2743 C2742 1.414 . S
C2743 C2744 1.374 . S
C2744 H2718 0.950 . S
C2744 C2740 1.385 . S
C2744 C2743 1.374 . S
C2745 C2742 1.499 . S
C2745 C2746 1.373 . S
C2745 C2747 1.389 . S
C2746 H2719 0.950 . S
C2746 C2732 1.377 . S
C2746 C2745 1.373 . S
C2747 C2731 1.377 . S
C2747 C2745 1.389 . S
C2747 C2748 1.524 . S
C2748 C2747 1.524 . S
C2748 C2749 1.397 . S
C2748 C2753 1.363 . S
C2749 H2720 0.950 . S
C2749 C2748 1.397 . S
C2749 C2750 1.334 . S
C2750 H2721 0.950 . S
C2750 C2749 1.334 . S
C2750 C2751 1.287 . S
C2751 C2750 1.287 . S
C2751 C2752 1.524 . S
C2751 H2754 0.999 . S
C2752 H2722 0.950 . S
C2752 C2751 1.524 . S
C2752 C2753 1.415 . S
C2753 H2723 0.950 . S
C2753 C2748 1.363 . S
C2753 C2752 1.415 . S
H2754 C2751 0.999 . S
H2755 C2736 0.913 . S
H2756 C2774 0.951 . S
H2757 C2776 0.951 . S
H2758 C2778 0.950 . S
H2759 C2779 0.950 . S
H2760 C2781 0.950 . S
H2761 C2784 0.950 . S
H2762 C2785 0.950 . S
H2763 C2787 0.950 . S
H2764 C2788 0.950 . S
H2765 C2789 0.951 . S
H2766 C2791 0.951 . S
H2767 C2793 0.950 . S
H2768 C2794 0.950 . S
H2769 C2796 0.950 . S
H2770 C2799 0.950 . S
H2771 C2800 0.950 . S
H2772 C2802 0.950 . S
H2773 C2803 0.950 . S
C2774 H2756 0.951 . S
C2774 C2775 1.366 . S
C2774 C2776 1.388 . S
C2775 C2774 1.366 . S
C2775 C2779 1.385 . S
C2776 H2757 0.951 . S
C2776 C2774 1.388 . S
C2776 C2777 1.366 . S
C2777 C2776 1.366 . S
C2777 C2778 1.414 . S
C2777 C2780 1.499 . S
C2778 H2758 0.950 . S
C2778 C2777 1.414 . S
C2778 C2779 1.374 . S
C2779 H2759 0.950 . S
C2779 C2775 1.385 . S
C2779 C2778 1.374 . S
C2780 C2777 1.499 . S
C2780 C2781 1.373 . S
C2780 C2782 1.389 . S
C2781 H2760 0.950 . S
C2781 C2780 1.373 . S
C2781 C2797 1.377 . S
C2782 C2780 1.389 . S
C2782 C2783 1.524 . S
C2782 C2796 1.377 . S
C2783 C2782 1.524 . S
C2783 C2784 1.397 . S
C2783 C2788 1.363 . S
C2784 H2761 0.950 . S
C2784 C2783 1.397 . S
C2784 C2785 1.334 . S
C2785 H2762 0.950 . S
C2785 C2784 1.334 . S
C2785 C2786 1.287 . S
C2786 C2785 1.287 . S
C2786 C2787 1.524 . S
C2786 H2805 0.913 . S
C2787 H2763 0.950 . S
C2787 C2786 1.524 . S
C2787 C2788 1.415 . S
C2788 H2764 0.950 . S
C2788 C2783 1.363 . S
C2788 C2787 1.415 . S
C2789 H2765 0.951 . S
C2789 C2790 1.366 . S
C2789 C2791 1.388 . S
C2790 C2789 1.366 . S
C2790 C2794 1.385 . S
C2791 H2766 0.951 . S
C2791 C2789 1.388 . S
C2791 C2792 1.366 . S
C2792 C2791 1.366 . S
C2792 C2793 1.414 . S
C2792 C2795 1.499 . S
C2793 H2767 0.950 . S
C2793 C2792 1.414 . S
C2793 C2794 1.374 . S
C2794 H2768 0.950 . S
C2794 C2790 1.385 . S
C2794 C2793 1.374 . S
C2795 C2792 1.499 . S
C2795 C2796 1.373 . S
C2795 C2797 1.389 . S
C2796 H2769 0.950 . S
C2796 C2782 1.377 . S
C2796 C2795 1.373 . S
C2797 C2781 1.377 . S
C2797 C2795 1.389 . S
C2797 C2798 1.524 . S
C2798 C2797 1.524 . S
C2798 C2799 1.397 . S
C2798 C2803 1.363 . S
C2799 H2770 0.950 . S
C2799 C2798 1.397 . S
C2799 C2800 1.334 . S
C2800 H2771 0.950 . S
C2800 C2799 1.334 . S
C2800 C2801 1.287 . S
C2801 C2800 1.287 . S
C2801 C2802 1.524 . S
C2801 H2804 0.999 . S
C2802 H2772 0.950 . S
C2802 C2801 1.524 . S
C2802 C2803 1.415 . S
C2803 H2773 0.950 . S
C2803 C2798 1.363 . S
C2803 C2802 1.415 . S
H2804 C2801 0.999 . S
H2805 C2786 0.913 . S
H2806 C2824 0.951 . S
H2807 C2826 0.951 . S
H2808 C2828 0.950 . S
H2809 C2829 0.950 . S
H2810 C2831 0.950 . S
H2811 C2834 0.950 . S
H2812 C2835 0.950 . S
H2813 C2837 0.950 . S
H2814 C2838 0.950 . S
H2815 C2839 0.951 . S
H2816 C2841 0.951 . S
H2817 C2843 0.950 . S
H2818 C2844 0.950 . S
H2819 C2846 0.950 . S
H2820 C2849 0.950 . S
H2821 C2850 0.950 . S
H2822 C2852 0.950 . S
H2823 C2853 0.950 . S
C2824 H2806 0.951 . S
C2824 C2825 1.366 . S
C2824 C2826 1.388 . S
C2825 C2824 1.366 . S
C2825 C2829 1.385 . S
C2826 H2807 0.951 . S
C2826 C2824 1.388 . S
C2826 C2827 1.366 . S
C2827 C2826 1.366 . S
C2827 C2828 1.414 . S
C2827 C2830 1.499 . S
C2828 H2808 0.950 . S
C2828 C2827 1.414 . S
C2828 C2829 1.374 . S
C2829 H2809 0.950 . S
C2829 C2825 1.385 . S
C2829 C2828 1.374 . S
C2830 C2827 1.499 . S
C2830 C2831 1.373 . S
C2830 C2832 1.389 . S
C2831 H2810 0.950 . S
C2831 C2830 1.373 . S
C2831 C2847 1.377 . S
C2832 C2830 1.389 . S
C2832 C2833 1.524 . S
C2832 C2846 1.377 . S
C2833 C2832 1.524 . S
C2833 C2834 1.397 . S
C2833 C2838 1.363 . S
C2834 H2811 0.950 . S
C2834 C2833 1.397 . S
C2834 C2835 1.334 . S
C2835 H2812 0.950 . S
C2835 C2834 1.334 . S
C2835 C2836 1.287 . S
C2836 C2835 1.287 . S
C2836 C2837 1.524 . S
C2836 H2855 0.913 . S
C2837 H2813 0.950 . S
C2837 C2836 1.524 . S
C2837 C2838 1.415 . S
C2838 H2814 0.950 . S
C2838 C2833 1.363 . S
C2838 C2837 1.415 . S
C2839 H2815 0.951 . S
C2839 C2840 1.366 . S
C2839 C2841 1.388 . S
C2840 C2839 1.366 . S
C2840 C2844 1.385 . S
C2841 H2816 0.951 . S
C2841 C2839 1.388 . S
C2841 C2842 1.366 . S
C2842 C2841 1.366 . S
C2842 C2843 1.414 . S
C2842 C2845 1.499 . S
C2843 H2817 0.950 . S
C2843 C2842 1.414 . S
C2843 C2844 1.374 . S
C2844 H2818 0.950 . S
C2844 C2840 1.385 . S
C2844 C2843 1.374 . S
C2845 C2842 1.499 . S
C2845 C2846 1.373 . S
C2845 C2847 1.389 . S
C2846 H2819 0.950 . S
C2846 C2832 1.377 . S
C2846 C2845 1.373 . S
C2847 C2831 1.377 . S
C2847 C2845 1.389 . S
C2847 C2848 1.524 . S
C2848 C2847 1.524 . S
C2848 C2849 1.397 . S
C2848 C2853 1.363 . S
C2849 H2820 0.950 . S
C2849 C2848 1.397 . S
C2849 C2850 1.334 . S
C2850 H2821 0.950 . S
C2850 C2849 1.334 . S
C2850 C2851 1.287 . S
C2851 C2850 1.287 . S
C2851 C2852 1.524 . S
C2851 H2854 0.999 . S
C2852 H2822 0.950 . S
C2852 C2851 1.524 . S
C2852 C2853 1.415 . S
C2853 H2823 0.950 . S
C2853 C2848 1.363 . S
C2853 C2852 1.415 . S
H2854 C2851 0.999 . S
H2855 C2836 0.913 . S
H2856 C2874 0.951 . S
H2857 C2876 0.951 . S
H2858 C2878 0.950 . S
H2859 C2879 0.950 . S
H2860 C2881 0.950 . S
H2861 C2884 0.950 . S
H2862 C2885 0.950 . S
H2863 C2887 0.950 . S
H2864 C2888 0.950 . S
H2865 C2889 0.951 . S
H2866 C2891 0.951 . S
H2867 C2893 0.950 . S
H2868 C2894 0.950 . S
H2869 C2896 0.950 . S
H2870 C2899 0.950 . S
H2871 C2900 0.950 . S
H2872 C2902 0.950 . S
H2873 C2903 0.950 . S
C2874 H2856 0.951 . S
C2874 C2875 1.366 . S
C2874 C2876 1.388 . S
C2875 C2874 1.366 . S
C2875 C2879 1.385 . S
C2876 H2857 0.951 . S
C2876 C2874 1.388 . S
C2876 C2877 1.366 . S
C2877 C2876 1.366 . S
C2877 C2878 1.414 . S
C2877 C2880 1.499 . S
C2878 H2858 0.950 . S
C2878 C2877 1.414 . S
C2878 C2879 1.374 . S
C2879 H2859 0.950 . S
C2879 C2875 1.385 . S
C2879 C2878 1.374 . S
C2880 C2877 1.499 . S
C2880 C2881 1.373 . S
C2880 C2882 1.389 . S
C2881 H2860 0.950 . S
C2881 C2880 1.373 . S
C2881 C2897 1.377 . S
C2882 C2880 1.389 . S
C2882 C2883 1.524 . S
C2882 C2896 1.377 . S
C2883 C2882 1.524 . S
C2883 C2884 1.397 . S
C2883 C2888 1.363 . S
C2884 H2861 0.950 . S
C2884 C2883 1.397 . S
C2884 C2885 1.334 . S
C2885 H2862 0.950 . S
C2885 C2884 1.334 . S
C2885 C2886 1.287 . S
C2886 C2885 1.287 . S
C2886 C2887 1.524 . S
C2886 H2905 0.913 . S
C2887 H2863 0.950 . S
C2887 C2886 1.524 . S
C2887 C2888 1.415 . S
C2888 H2864 0.950 . S
C2888 C2883 1.363 . S
C2888 C2887 1.415 . S
C2889 H2865 0.951 . S
C2889 C2890 1.366 . S
C2889 C2891 1.388 . S
C2890 C2889 1.366 . S
C2890 C2894 1.385 . S
C2891 H2866 0.951 . S
C2891 C2889 1.388 . S
C2891 C2892 1.366 . S
C2892 C2891 1.366 . S
C2892 C2893 1.414 . S
C2892 C2895 1.499 . S
C2893 H2867 0.950 . S
C2893 C2892 1.414 . S
C2893 C2894 1.374 . S
C2894 H2868 0.950 . S
C2894 C2890 1.385 . S
C2894 C2893 1.374 . S
C2895 C2892 1.499 . S
C2895 C2896 1.373 . S
C2895 C2897 1.389 . S
C2896 H2869 0.950 . S
C2896 C2882 1.377 . S
C2896 C2895 1.373 . S
C2897 C2881 1.377 . S
C2897 C2895 1.389 . S
C2897 C2898 1.524 . S
C2898 C2897 1.524 . S
C2898 C2899 1.397 . S
C2898 C2903 1.363 . S
C2899 H2870 0.950 . S
C2899 C2898 1.397 . S
C2899 C2900 1.334 . S
C2900 H2871 0.950 . S
C2900 C2899 1.334 . S
C2900 C2901 1.287 . S
C2901 C2900 1.287 . S
C2901 C2902 1.524 . S
C2901 H2904 0.999 . S
C2902 H2872 0.950 . S
C2902 C2901 1.524 . S
C2902 C2903 1.415 . S
C2903 H2873 0.950 . S
C2903 C2898 1.363 . S
C2903 C2902 1.415 . S
H2904 C2901 0.999 . S
H2905 C2886 0.913 . S
H2906 C2924 0.951 . S
H2907 C2926 0.951 . S
H2908 C2928 0.950 . S
H2909 C2929 0.950 . S
H2910 C2931 0.950 . S
H2911 C2934 0.950 . S
H2912 C2935 0.950 . S
H2913 C2937 0.950 . S
H2914 C2938 0.950 . S
H2915 C2939 0.951 . S
H2916 C2941 0.951 . S
H2917 C2943 0.950 . S
H2918 C2944 0.950 . S
H2919 C2946 0.950 . S
H2920 C2949 0.950 . S
H2921 C2950 0.950 . S
H2922 C2952 0.950 . S
H2923 C2953 0.950 . S
C2924 H2906 0.951 . S
C2924 C2925 1.366 . S
C2924 C2926 1.388 . S
C2925 C2924 1.366 . S
C2925 C2929 1.385 . S
C2926 H2907 0.951 . S
C2926 C2924 1.388 . S
C2926 C2927 1.366 . S
C2927 C2926 1.366 . S
C2927 C2928 1.414 . S
C2927 C2930 1.499 . S
C2928 H2908 0.950 . S
C2928 C2927 1.414 . S
C2928 C2929 1.374 . S
C2929 H2909 0.950 . S
C2929 C2925 1.385 . S
C2929 C2928 1.374 . S
C2930 C2927 1.499 . S
C2930 C2931 1.373 . S
C2930 C2932 1.389 . S
C2931 H2910 0.950 . S
C2931 C2930 1.373 . S
C2931 C2947 1.377 . S
C2932 C2930 1.389 . S
C2932 C2933 1.524 . S
C2932 C2946 1.377 . S
C2933 C2932 1.524 . S
C2933 C2934 1.397 . S
C2933 C2938 1.363 . S
C2934 H2911 0.950 . S
C2934 C2933 1.397 . S
C2934 C2935 1.334 . S
C2935 H2912 0.950 . S
C2935 C2934 1.334 . S
C2935 C2936 1.287 . S
C2936 C2935 1.287 . S
C2936 C2937 1.524 . S
C2936 H2955 0.913 . S
C2937 H2913 0.950 . S
C2937 C2936 1.524 . S
C2937 C2938 1.415 . S
C2938 H2914 0.950 . S
C2938 C2933 1.363 . S
C2938 C2937 1.415 . S
C2939 H2915 0.951 . S
C2939 C2940 1.366 . S
C2939 C2941 1.388 . S
C2940 C2939 1.366 . S
C2940 C2944 1.385 . S
C2941 H2916 0.951 . S
C2941 C2939 1.388 . S
C2941 C2942 1.366 . S
C2942 C2941 1.366 . S
C2942 C2943 1.414 . S
C2942 C2945 1.499 . S
C2943 H2917 0.950 . S
C2943 C2942 1.414 . S
C2943 C2944 1.374 . S
C2944 H2918 0.950 . S
C2944 C2940 1.385 . S
C2944 C2943 1.374 . S
C2945 C2942 1.499 . S
C2945 C2946 1.373 . S
C2945 C2947 1.389 . S
C2946 H2919 0.950 . S
C2946 C2932 1.377 . S
C2946 C2945 1.373 . S
C2947 C2931 1.377 . S
C2947 C2945 1.389 . S
C2947 C2948 1.524 . S
C2948 C2947 1.524 . S
C2948 C2949 1.397 . S
C2948 C2953 1.363 . S
C2949 H2920 0.950 . S
C2949 C2948 1.397 . S
C2949 C2950 1.334 1_565 S
C2950 H2921 0.950 . S
C2950 C2949 1.334 1_545 S
C2950 C2951 1.287 . S
C2951 C2950 1.287 . S
C2951 C2952 1.524 . S
C2951 H2954 0.999 . S
C2952 H2922 0.950 . S
C2952 C2951 1.524 . S
C2952 C2953 1.415 1_545 S
C2953 H2923 0.950 . S
C2953 C2948 1.363 . S
C2953 C2952 1.415 1_565 S
H2954 C2951 0.999 . S
H2955 C2936 0.913 . S
H2956 C2974 0.951 . S
H2957 C2976 0.951 . S
H2958 C2978 0.950 . S
H2959 C2979 0.950 . S
H2960 C2981 0.950 . S
H2961 C2984 0.950 . S
H2962 C2985 0.950 . S
H2963 C2987 0.950 . S
H2964 C2988 0.950 . S
H2965 C2989 0.951 . S
H2966 C2991 0.951 . S
H2967 C2993 0.950 . S
H2968 C2994 0.950 . S
H2969 C2996 0.950 . S
H2970 C2999 0.950 . S
H2971 C3000 0.950 . S
H2972 C3002 0.950 . S
H2973 C3003 0.950 . S
C2974 H2956 0.951 . S
C2974 C2975 1.366 . S
C2974 C2976 1.388 . S
C2975 C2974 1.366 . S
C2975 C2979 1.385 . S
C2976 H2957 0.951 . S
C2976 C2974 1.388 . S
C2976 C2977 1.366 . S
C2977 C2976 1.366 . S
C2977 C2978 1.414 . S
C2977 C2980 1.499 . S
C2978 H2958 0.950 . S
C2978 C2977 1.414 . S
C2978 C2979 1.374 . S
C2979 H2959 0.950 . S
C2979 C2975 1.385 . S
C2979 C2978 1.374 . S
C2980 C2977 1.499 . S
C2980 C2981 1.373 . S
C2980 C2982 1.389 . S
C2981 H2960 0.950 . S
C2981 C2980 1.373 . S
C2981 C2997 1.377 . S
C2982 C2980 1.389 . S
C2982 C2983 1.524 . S
C2982 C2996 1.377 . S
C2983 C2982 1.524 . S
C2983 C2984 1.397 . S
C2983 C2988 1.363 . S
C2984 H2961 0.950 . S
C2984 C2983 1.397 . S
C2984 C2985 1.334 . S
C2985 H2962 0.950 . S
C2985 C2984 1.334 . S
C2985 C2986 1.287 . S
C2986 C2985 1.287 . S
C2986 C2987 1.524 . S
C2986 H3005 0.913 . S
C2987 H2963 0.950 . S
C2987 C2986 1.524 . S
C2987 C2988 1.415 . S
C2988 H2964 0.950 . S
C2988 C2983 1.363 . S
C2988 C2987 1.415 . S
C2989 H2965 0.951 . S
C2989 C2990 1.366 . S
C2989 C2991 1.388 . S
C2990 C2989 1.366 . S
C2990 C2994 1.385 . S
C2991 H2966 0.951 . S
C2991 C2989 1.388 . S
C2991 C2992 1.366 . S
C2992 C2991 1.366 . S
C2992 C2993 1.414 . S
C2992 C2995 1.499 . S
C2993 H2967 0.950 . S
C2993 C2992 1.414 . S
C2993 C2994 1.374 . S
C2994 H2968 0.950 . S
C2994 C2990 1.385 . S
C2994 C2993 1.374 . S
C2995 C2992 1.499 . S
C2995 C2996 1.373 . S
C2995 C2997 1.389 . S
C2996 H2969 0.950 . S
C2996 C2982 1.377 . S
C2996 C2995 1.373 . S
C2997 C2981 1.377 . S
C2997 C2995 1.389 . S
C2997 C2998 1.524 . S
C2998 C2997 1.524 . S
C2998 C2999 1.397 . S
C2998 C3003 1.363 . S
C2999 H2970 0.950 . S
C2999 C2998 1.397 . S
C2999 C3000 1.334 . S
C3000 H2971 0.950 . S
C3000 C2999 1.334 . S
C3000 C3001 1.287 . S
C3001 C3000 1.287 . S
C3001 C3002 1.524 . S
C3001 H3004 0.999 . S
C3002 H2972 0.950 . S
C3002 C3001 1.524 . S
C3002 C3003 1.415 . S
C3003 H2973 0.950 . S
C3003 C2998 1.363 . S
C3003 C3002 1.415 . S
H3004 C3001 0.999 . S
H3005 C2986 0.913 . S
H3006 C3024 0.951 . S
H3007 C3026 0.951 . S
H3008 C3028 0.950 . S
H3009 C3029 0.950 . S
H3010 C3031 0.950 . S
H3011 C3034 0.950 . S
H3012 C3035 0.950 . S
H3013 C3037 0.950 . S
H3014 C3038 0.950 . S
H3015 C3039 0.951 . S
H3016 C3041 0.951 . S
H3017 C3043 0.950 . S
H3018 C3044 0.950 . S
H3019 C3046 0.950 . S
H3020 C3049 0.950 . S
H3021 C3050 0.950 . S
H3022 C3052 0.950 . S
H3023 C3053 0.950 . S
C3024 H3006 0.951 . S
C3024 C3025 1.366 . S
C3024 C3026 1.388 . S
C3025 C3024 1.366 . S
C3025 C3029 1.385 . S
C3026 H3007 0.951 . S
C3026 C3024 1.388 . S
C3026 C3027 1.366 . S
C3027 C3026 1.366 . S
C3027 C3028 1.414 . S
C3027 C3030 1.499 . S
C3028 H3008 0.950 . S
C3028 C3027 1.414 . S
C3028 C3029 1.374 . S
C3029 H3009 0.950 . S
C3029 C3025 1.385 . S
C3029 C3028 1.374 . S
C3030 C3027 1.499 . S
C3030 C3031 1.373 . S
C3030 C3032 1.389 . S
C3031 H3010 0.950 . S
C3031 C3030 1.373 . S
C3031 C3047 1.377 . S
C3032 C3030 1.389 . S
C3032 C3033 1.524 . S
C3032 C3046 1.377 . S
C3033 C3032 1.524 . S
C3033 C3034 1.397 . S
C3033 C3038 1.363 . S
C3034 H3011 0.950 . S
C3034 C3033 1.397 . S
C3034 C3035 1.334 . S
C3035 H3012 0.950 . S
C3035 C3034 1.334 . S
C3035 C3036 1.287 . S
C3036 C3035 1.287 . S
C3036 C3037 1.524 . S
C3036 H3055 0.913 . S
C3037 H3013 0.950 . S
C3037 C3036 1.524 . S
C3037 C3038 1.415 . S
C3038 H3014 0.950 . S
C3038 C3033 1.363 . S
C3038 C3037 1.415 . S
C3039 H3015 0.951 . S
C3039 C3040 1.366 . S
C3039 C3041 1.388 . S
C3040 C3039 1.366 . S
C3040 C3044 1.385 . S
C3041 H3016 0.951 . S
C3041 C3039 1.388 . S
C3041 C3042 1.366 . S
C3042 C3041 1.366 . S
C3042 C3043 1.414 . S
C3042 C3045 1.499 . S
C3043 H3017 0.950 . S
C3043 C3042 1.414 . S
C3043 C3044 1.374 . S
C3044 H3018 0.950 . S
C3044 C3040 1.385 . S
C3044 C3043 1.374 . S
C3045 C3042 1.499 . S
C3045 C3046 1.373 . S
C3045 C3047 1.389 . S
C3046 H3019 0.950 . S
C3046 C3032 1.377 . S
C3046 C3045 1.373 . S
C3047 C3031 1.377 . S
C3047 C3045 1.389 . S
C3047 C3048 1.524 . S
C3048 C3047 1.524 . S
C3048 C3049 1.397 . S
C3048 C3053 1.363 . S
C3049 H3020 0.950 . S
C3049 C3048 1.397 . S
C3049 C3050 1.334 . S
C3050 H3021 0.950 . S
C3050 C3049 1.334 . S
C3050 C3051 1.287 . S
C3051 C3050 1.287 . S
C3051 C3052 1.524 . S
C3051 H3054 0.999 . S
C3052 H3022 0.950 . S
C3052 C3051 1.524 . S
C3052 C3053 1.415 . S
C3053 H3023 0.950 . S
C3053 C3048 1.363 . S
C3053 C3052 1.415 . S
H3054 C3051 0.999 . S
H3055 C3036 0.913 . S
H3056 C3074 0.951 . S
H3057 C3076 0.951 . S
H3058 C3078 0.950 . S
H3059 C3079 0.950 . S
H3060 C3081 0.950 . S
H3061 C3084 0.950 . S
H3062 C3085 0.950 . S
H3063 C3087 0.950 . S
H3064 C3088 0.950 . S
H3065 C3089 0.951 . S
H3066 C3091 0.951 . S
H3067 C3093 0.950 . S
H3068 C3094 0.950 . S
H3069 C3096 0.950 . S
H3070 C3099 0.950 . S
H3071 C3100 0.950 . S
H3072 C3102 0.950 . S
H3073 C3103 0.950 . S
C3074 H3056 0.951 . S
C3074 C3075 1.366 . S
C3074 C3076 1.388 . S
C3075 C3074 1.366 . S
C3075 C3079 1.385 . S
C3076 H3057 0.951 . S
C3076 C3074 1.388 . S
C3076 C3077 1.366 . S
C3077 C3076 1.366 . S
C3077 C3078 1.414 . S
C3077 C3080 1.499 . S
C3078 H3058 0.950 . S
C3078 C3077 1.414 . S
C3078 C3079 1.374 . S
C3079 H3059 0.950 . S
C3079 C3075 1.385 . S
C3079 C3078 1.374 . S
C3080 C3077 1.499 . S
C3080 C3081 1.373 . S
C3080 C3082 1.389 . S
C3081 H3060 0.950 . S
C3081 C3080 1.373 . S
C3081 C3097 1.377 . S
C3082 C3080 1.389 . S
C3082 C3083 1.524 . S
C3082 C3096 1.377 . S
C3083 C3082 1.524 . S
C3083 C3084 1.397 . S
C3083 C3088 1.363 . S
C3084 H3061 0.950 . S
C3084 C3083 1.397 . S
C3084 C3085 1.334 . S
C3085 H3062 0.950 . S
C3085 C3084 1.334 . S
C3085 C3086 1.287 . S
C3086 C3085 1.287 . S
C3086 C3087 1.524 . S
C3086 H3105 0.913 . S
C3087 H3063 0.950 . S
C3087 C3086 1.524 . S
C3087 C3088 1.415 . S
C3088 H3064 0.950 . S
C3088 C3083 1.363 . S
C3088 C3087 1.415 . S
C3089 H3065 0.951 . S
C3089 C3090 1.366 . S
C3089 C3091 1.388 . S
C3090 C3089 1.366 . S
C3090 C3094 1.385 . S
C3091 H3066 0.951 . S
C3091 C3089 1.388 . S
C3091 C3092 1.366 . S
C3092 C3091 1.366 . S
C3092 C3093 1.414 . S
C3092 C3095 1.499 . S
C3093 H3067 0.950 . S
C3093 C3092 1.414 . S
C3093 C3094 1.374 . S
C3094 H3068 0.950 . S
C3094 C3090 1.385 . S
C3094 C3093 1.374 . S
C3095 C3092 1.499 . S
C3095 C3096 1.373 . S
C3095 C3097 1.389 . S
C3096 H3069 0.950 . S
C3096 C3082 1.377 . S
C3096 C3095 1.373 . S
C3097 C3081 1.377 . S
C3097 C3095 1.389 . S
C3097 C3098 1.524 . S
C3098 C3097 1.524 . S
C3098 C3099 1.397 . S
C3098 C3103 1.363 . S
C3099 H3070 0.950 . S
C3099 C3098 1.397 . S
C3099 C3100 1.334 . S
C3100 H3071 0.950 . S
C3100 C3099 1.334 . S
C3100 C3101 1.287 . S
C3101 C3100 1.287 . S
C3101 C3102 1.524 . S
C3101 H3104 0.999 . S
C3102 H3072 0.950 . S
C3102 C3101 1.524 . S
C3102 C3103 1.415 . S
C3103 H3073 0.950 . S
C3103 C3098 1.363 . S
C3103 C3102 1.415 . S
H3104 C3101 0.999 . S
H3105 C3086 0.913 . S
H3106 C3124 0.951 . S
H3107 C3126 0.951 . S
H3108 C3128 0.950 . S
H3109 C3129 0.950 . S
H3110 C3131 0.950 . S
H3111 C3134 0.950 . S
H3112 C3135 0.950 . S
H3113 C3137 0.950 . S
H3114 C3138 0.950 . S
H3115 C3139 0.951 . S
H3116 C3141 0.951 . S
H3117 C3143 0.950 . S
H3118 C3144 0.950 . S
H3119 C3146 0.950 . S
H3120 C3149 0.950 . S
H3121 C3150 0.950 . S
H3122 C3152 0.950 . S
H3123 C3153 0.950 . S
C3124 H3106 0.951 . S
C3124 C3125 1.366 . S
C3124 C3126 1.388 . S
C3125 C3124 1.366 . S
C3125 C3129 1.385 . S
C3126 H3107 0.951 . S
C3126 C3124 1.388 . S
C3126 C3127 1.366 . S
C3127 C3126 1.366 . S
C3127 C3128 1.414 . S
C3127 C3130 1.499 . S
C3128 H3108 0.950 . S
C3128 C3127 1.414 . S
C3128 C3129 1.374 . S
C3129 H3109 0.950 . S
C3129 C3125 1.385 . S
C3129 C3128 1.374 . S
C3130 C3127 1.499 . S
C3130 C3131 1.373 . S
C3130 C3132 1.389 . S
C3131 H3110 0.950 . S
C3131 C3130 1.373 . S
C3131 C3147 1.377 . S
C3132 C3130 1.389 . S
C3132 C3133 1.524 . S
C3132 C3146 1.377 . S
C3133 C3132 1.524 . S
C3133 C3134 1.397 . S
C3133 C3138 1.363 . S
C3134 H3111 0.950 . S
C3134 C3133 1.397 . S
C3134 C3135 1.334 . S
C3135 H3112 0.950 . S
C3135 C3134 1.334 . S
C3135 C3136 1.287 . S
C3136 C3135 1.287 . S
C3136 C3137 1.524 . S
C3136 H3155 0.913 . S
C3137 H3113 0.950 . S
C3137 C3136 1.524 . S
C3137 C3138 1.415 . S
C3138 H3114 0.950 . S
C3138 C3133 1.363 . S
C3138 C3137 1.415 . S
C3139 H3115 0.951 . S
C3139 C3140 1.366 . S
C3139 C3141 1.388 . S
C3140 C3139 1.366 . S
C3140 C3144 1.385 . S
C3141 H3116 0.951 . S
C3141 C3139 1.388 . S
C3141 C3142 1.366 . S
C3142 C3141 1.366 . S
C3142 C3143 1.414 . S
C3142 C3145 1.499 . S
C3143 H3117 0.950 . S
C3143 C3142 1.414 . S
C3143 C3144 1.374 . S
C3144 H3118 0.950 . S
C3144 C3140 1.385 . S
C3144 C3143 1.374 . S
C3145 C3142 1.499 . S
C3145 C3146 1.373 . S
C3145 C3147 1.389 . S
C3146 H3119 0.950 . S
C3146 C3132 1.377 . S
C3146 C3145 1.373 . S
C3147 C3131 1.377 . S
C3147 C3145 1.389 . S
C3147 C3148 1.524 . S
C3148 C3147 1.524 . S
C3148 C3149 1.397 . S
C3148 C3153 1.363 . S
C3149 H3120 0.950 . S
C3149 C3148 1.397 . S
C3149 C3150 1.334 . S
C3150 H3121 0.950 . S
C3150 C3149 1.334 . S
C3150 C3151 1.287 . S
C3151 C3150 1.287 . S
C3151 C3152 1.524 . S
C3151 H3154 0.999 . S
C3152 H3122 0.950 . S
C3152 C3151 1.524 . S
C3152 C3153 1.415 . S
C3153 H3123 0.950 . S
C3153 C3148 1.363 . S
C3153 C3152 1.415 . S
H3154 C3151 0.999 . S
H3155 C3136 0.913 . S
H3156 C3174 0.951 . S
H3157 C3176 0.951 . S
H3158 C3178 0.950 . S
H3159 C3179 0.950 . S
H3160 C3181 0.950 . S
H3161 C3184 0.950 . S
H3162 C3185 0.950 . S
H3163 C3187 0.950 . S
H3164 C3188 0.950 1_454 S
H3165 C3189 0.951 . S
H3166 C3191 0.951 . S
H3167 C3193 0.930 1_554 S
H3168 C3194 0.950 . S
H3169 C3196 0.942 1_655 S
H3170 C3199 0.950 . S
H3171 C3200 0.950 . S
H3172 C3202 0.950 . S
H3173 C3203 0.941 1_655 S
C3174 H3156 0.951 . S
C3174 C3175 1.366 . S
C3174 C3176 1.388 . S
C3175 C3174 1.366 . S
C3175 C3179 1.385 1_455 S
C3176 H3157 0.951 . S
C3176 C3174 1.388 . S
C3176 C3177 1.366 . S
C3177 C3176 1.366 . S
C3177 C3178 1.414 1_455 S
C3177 C3180 1.499 . S
C3178 H3158 0.950 . S
C3178 C3177 1.414 1_655 S
C3178 C3179 1.374 . S
C3179 H3159 0.950 . S
C3179 C3175 1.385 1_655 S
C3179 C3178 1.374 . S
C3180 C3177 1.499 . S
C3180 C3181 1.373 . S
C3180 C3182 1.373 1_455 S
C3181 H3160 0.950 . S
C3181 C3180 1.373 . S
C3181 C3197 1.377 . S
C3182 C3180 1.373 1_655 S
C3182 C3183 1.542 . S
C3182 C3196 1.388 1_655 S
C3183 C3182 1.542 . S
C3183 C3184 1.397 . S
C3183 C3188 1.363 . S
C3184 H3161 0.950 . S
C3184 C3183 1.397 . S
C3184 C3185 1.334 . S
C3185 H3162 0.950 . S
C3185 C3184 1.334 . S
C3185 C3186 1.287 . S
C3186 C3185 1.287 . S
C3186 C3187 1.524 1_556 S
C3186 H3205 0.913 1_556 S
C3187 H3163 0.950 . S
C3187 C3186 1.524 1_554 S
C3187 C3188 1.415 1_554 S
C3188 H3164 0.950 1_656 S
C3188 C3183 1.363 . S
C3188 C3187 1.415 1_556 S
C3189 H3165 0.951 . S
C3189 C3190 1.338 1_656 S
C3189 C3191 1.388 . S
C3190 C3189 1.338 1_454 S
C3190 C3194 1.399 . S
C3191 H3166 0.951 . S
C3191 C3189 1.388 . S
C3191 C3192 1.366 1_655 S
C3192 C3191 1.366 1_455 S
C3192 C3193 1.456 . S
C3192 C3195 1.499 . S
C3193 H3167 0.930 1_556 S
C3193 C3192 1.456 . S
C3193 C3194 1.354 1_556 S
C3194 H3168 0.950 . S
C3194 C3190 1.399 . S
C3194 C3193 1.354 1_554 S
C3195 C3192 1.499 . S
C3195 C3196 1.379 . S
C3195 C3197 1.389 . S
C3196 H3169 0.942 1_455 S
C3196 C3182 1.388 1_455 S
C3196 C3195 1.379 . S
C3197 C3181 1.377 . S
C3197 C3195 1.389 . S
C3197 C3198 1.524 . S
C3198 C3197 1.524 . S
C3198 C3199 1.397 . S
C3198 C3203 1.363 . S
C3199 H3170 0.950 . S
C3199 C3198 1.397 . S
C3199 C3200 1.334 . S
C3200 H3171 0.950 . S
C3200 C3199 1.334 . S
C3200 C3201 1.287 . S
C3201 C3200 1.287 . S
C3201 C3202 1.524 . S
C3201 H3204 0.999 . S
C3202 H3172 0.950 . S
C3202 C3201 1.524 . S
C3202 C3203 1.415 . S
C3203 H3173 0.941 1_455 S
C3203 C3198 1.363 . S
C3203 C3202 1.415 . S
H3204 C3201 0.999 . S
H3205 C3186 0.913 1_554 S
H3206 C3224 0.951 . S
H3207 C3226 0.951 . S
H3208 C3228 0.950 . S
H3209 C3229 0.950 . S
H3210 C3231 0.950 . S
H3211 C3234 0.950 . S
H3212 C3235 0.950 . S
H3213 C3237 0.950 . S
H3214 C3238 0.950 . S
H3215 C3239 0.951 . S
H3216 C3241 0.951 . S
H3217 C3243 0.950 . S
H3218 C3244 0.950 . S
H3219 C3246 0.950 . S
H3220 C3249 0.950 . S
H3221 C3250 0.950 . S
H3222 C3252 0.950 . S
H3223 C3253 0.950 . S
C3224 H3206 0.951 . S
C3224 C3225 1.366 . S
C3224 C3226 1.388 . S
C3225 C3224 1.366 . S
C3225 C3229 1.385 . S
C3226 H3207 0.951 . S
C3226 C3224 1.388 . S
C3226 C3227 1.366 . S
C3227 C3226 1.366 . S
C3227 C3228 1.414 . S
C3227 C3230 1.499 . S
C3228 H3208 0.950 . S
C3228 C3227 1.414 . S
C3228 C3229 1.374 . S
C3229 H3209 0.950 . S
C3229 C3225 1.385 . S
C3229 C3228 1.374 . S
C3230 C3227 1.499 . S
C3230 C3231 1.373 . S
C3230 C3232 1.389 . S
C3231 H3210 0.950 . S
C3231 C3230 1.373 . S
C3231 C3247 1.377 . S
C3232 C3230 1.389 . S
C3232 C3233 1.524 . S
C3232 C3246 1.377 . S
C3233 C3232 1.524 . S
C3233 C3234 1.397 . S
C3233 C3238 1.363 . S
C3234 H3211 0.950 . S
C3234 C3233 1.397 . S
C3234 C3235 1.334 . S
C3235 H3212 0.950 . S
C3235 C3234 1.334 . S
C3235 C3236 1.287 . S
C3236 C3235 1.287 . S
C3236 C3237 1.524 . S
C3236 H3255 0.913 . S
C3237 H3213 0.950 . S
C3237 C3236 1.524 . S
C3237 C3238 1.415 . S
C3238 H3214 0.950 . S
C3238 C3233 1.363 . S
C3238 C3237 1.415 . S
C3239 H3215 0.951 . S
C3239 C3240 1.366 . S
C3239 C3241 1.388 . S
C3240 C3239 1.366 . S
C3240 C3244 1.385 . S
C3241 H3216 0.951 . S
C3241 C3239 1.388 . S
C3241 C3242 1.366 . S
C3242 C3241 1.366 . S
C3242 C3243 1.414 . S
C3242 C3245 1.499 . S
C3243 H3217 0.950 . S
C3243 C3242 1.414 . S
C3243 C3244 1.374 . S
C3244 H3218 0.950 . S
C3244 C3240 1.385 . S
C3244 C3243 1.374 . S
C3245 C3242 1.499 . S
C3245 C3246 1.373 . S
C3245 C3247 1.389 . S
C3246 H3219 0.950 . S
C3246 C3232 1.377 . S
C3246 C3245 1.373 . S
C3247 C3231 1.377 . S
C3247 C3245 1.389 . S
C3247 C3248 1.524 . S
C3248 C3247 1.524 . S
C3248 C3249 1.397 . S
C3248 C3253 1.363 . S
C3249 H3220 0.950 . S
C3249 C3248 1.397 . S
C3249 C3250 1.334 . S
C3250 H3221 0.950 . S
C3250 C3249 1.334 . S
C3250 C3251 1.287 . S
C3251 C3250 1.287 . S
C3251 C3252 1.524 . S
C3251 H3254 0.999 . S
C3252 H3222 0.950 . S
C3252 C3251 1.524 . S
C3252 C3253 1.415 . S
C3253 H3223 0.950 . S
C3253 C3248 1.363 . S
C3253 C3252 1.415 . S
H3254 C3251 0.999 . S
H3255 C3236 0.913 . S
H3256 C3274 0.951 . S
H3257 C3276 0.951 . S
H3258 C3278 0.950 . S
H3259 C3279 0.950 . S
H3260 C3281 0.950 . S
H3261 C3284 0.950 . S
H3262 C3285 0.950 . S
H3263 C3287 0.950 . S
H3264 C3288 0.950 . S
H3265 C3289 0.951 . S
H3266 C3291 0.951 . S
H3267 C3293 0.950 . S
H3268 C3294 0.950 . S
H3269 C3296 0.950 . S
H3270 C3299 0.950 . S
H3271 C3300 0.950 . S
H3272 C3302 0.950 . S
H3273 C3303 0.950 . S
C3274 H3256 0.951 . S
C3274 C3275 1.366 . S
C3274 C3276 1.388 . S
C3275 C3274 1.366 . S
C3275 C3279 1.385 . S
C3276 H3257 0.951 . S
C3276 C3274 1.388 . S
C3276 C3277 1.366 . S
C3277 C3276 1.366 . S
C3277 C3278 1.414 . S
C3277 C3280 1.499 . S
C3278 H3258 0.950 . S
C3278 C3277 1.414 . S
C3278 C3279 1.374 . S
C3279 H3259 0.950 . S
C3279 C3275 1.385 . S
C3279 C3278 1.374 . S
C3280 C3277 1.499 . S
C3280 C3281 1.373 . S
C3280 C3282 1.389 . S
C3281 H3260 0.950 . S
C3281 C3280 1.373 . S
C3281 C3297 1.377 . S
C3282 C3280 1.389 . S
C3282 C3283 1.524 . S
C3282 C3296 1.377 . S
C3283 C3282 1.524 . S
C3283 C3284 1.397 . S
C3283 C3288 1.363 . S
C3284 H3261 0.950 . S
C3284 C3283 1.397 . S
C3284 C3285 1.334 . S
C3285 H3262 0.950 . S
C3285 C3284 1.334 . S
C3285 C3286 1.287 . S
C3286 C3285 1.287 . S
C3286 C3287 1.524 . S
C3286 H3305 0.913 . S
C3287 H3263 0.950 . S
C3287 C3286 1.524 . S
C3287 C3288 1.415 . S
C3288 H3264 0.950 . S
C3288 C3283 1.363 . S
C3288 C3287 1.415 . S
C3289 H3265 0.951 . S
C3289 C3290 1.366 . S
C3289 C3291 1.388 . S
C3290 C3289 1.366 . S
C3290 C3294 1.385 . S
C3291 H3266 0.951 . S
C3291 C3289 1.388 . S
C3291 C3292 1.366 . S
C3292 C3291 1.366 . S
C3292 C3293 1.414 . S
C3292 C3295 1.499 . S
C3293 H3267 0.950 . S
C3293 C3292 1.414 . S
C3293 C3294 1.374 . S
C3294 H3268 0.950 . S
C3294 C3290 1.385 . S
C3294 C3293 1.374 . S
C3295 C3292 1.499 . S
C3295 C3296 1.373 . S
C3295 C3297 1.389 . S
C3296 H3269 0.950 . S
C3296 C3282 1.377 . S
C3296 C3295 1.373 . S
C3297 C3281 1.377 . S
C3297 C3295 1.389 . S
C3297 C3298 1.524 . S
C3298 C3297 1.524 . S
C3298 C3299 1.397 . S
C3298 C3303 1.363 . S
C3299 H3270 0.950 . S
C3299 C3298 1.397 . S
C3299 C3300 1.334 . S
C3300 H3271 0.950 . S
C3300 C3299 1.334 . S
C3300 C3301 1.287 . S
C3301 C3300 1.287 . S
C3301 C3302 1.524 . S
C3301 H3304 0.999 . S
C3302 H3272 0.950 . S
C3302 C3301 1.524 . S
C3302 C3303 1.415 . S
C3303 H3273 0.950 . S
C3303 C3298 1.363 . S
C3303 C3302 1.415 . S
H3304 C3301 0.999 . S
H3305 C3286 0.913 . S
H3306 C3324 0.951 . S
H3307 C3326 0.951 . S
H3308 C3328 0.950 . S
H3309 C3329 0.950 . S
H3310 C3331 0.950 . S
H3311 C3334 0.950 . S
H3312 C3335 0.950 . S
H3313 C3337 0.950 . S
H3314 C3338 0.950 . S
H3315 C3339 0.951 . S
H3316 C3341 0.951 . S
H3317 C3343 0.950 . S
H3318 C3344 0.950 . S
H3319 C3346 0.950 . S
H3320 C3349 0.950 . S
H3321 C3350 0.950 . S
H3322 C3352 0.950 . S
H3323 C3353 0.950 . S
C3324 H3306 0.951 . S
C3324 C3325 1.366 . S
C3324 C3326 1.388 . S
C3325 C3324 1.366 . S
C3325 C3329 1.385 . S
C3326 H3307 0.951 . S
C3326 C3324 1.388 . S
C3326 C3327 1.366 . S
C3327 C3326 1.366 . S
C3327 C3328 1.414 . S
C3327 C3330 1.499 . S
C3328 H3308 0.950 . S
C3328 C3327 1.414 . S
C3328 C3329 1.374 . S
C3329 H3309 0.950 . S
C3329 C3325 1.385 . S
C3329 C3328 1.374 . S
C3330 C3327 1.499 . S
C3330 C3331 1.373 . S
C3330 C3332 1.389 . S
C3331 H3310 0.950 . S
C3331 C3330 1.373 . S
C3331 C3347 1.377 . S
C3332 C3330 1.389 . S
C3332 C3333 1.524 . S
C3332 C3346 1.377 . S
C3333 C3332 1.524 . S
C3333 C3334 1.397 . S
C3333 C3338 1.363 . S
C3334 H3311 0.950 . S
C3334 C3333 1.397 . S
C3334 C3335 1.334 . S
C3335 H3312 0.950 . S
C3335 C3334 1.334 . S
C3335 C3336 1.287 . S
C3336 C3335 1.287 . S
C3336 C3337 1.524 . S
C3336 H3355 0.913 . S
C3337 H3313 0.950 . S
C3337 C3336 1.524 . S
C3337 C3338 1.415 . S
C3338 H3314 0.950 . S
C3338 C3333 1.363 . S
C3338 C3337 1.415 . S
C3339 H3315 0.951 . S
C3339 C3340 1.366 . S
C3339 C3341 1.388 . S
C3340 C3339 1.366 . S
C3340 C3344 1.385 . S
C3341 H3316 0.951 . S
C3341 C3339 1.388 . S
C3341 C3342 1.366 . S
C3342 C3341 1.366 . S
C3342 C3343 1.414 . S
C3342 C3345 1.499 . S
C3343 H3317 0.950 . S
C3343 C3342 1.414 . S
C3343 C3344 1.374 . S
C3344 H3318 0.950 . S
C3344 C3340 1.385 . S
C3344 C3343 1.374 . S
C3345 C3342 1.499 . S
C3345 C3346 1.373 . S
C3345 C3347 1.389 . S
C3346 H3319 0.950 . S
C3346 C3332 1.377 . S
C3346 C3345 1.373 . S
C3347 C3331 1.377 . S
C3347 C3345 1.389 . S
C3347 C3348 1.524 . S
C3348 C3347 1.524 . S
C3348 C3349 1.397 . S
C3348 C3353 1.363 . S
C3349 H3320 0.950 . S
C3349 C3348 1.397 . S
C3349 C3350 1.334 . S
C3350 H3321 0.950 . S
C3350 C3349 1.334 . S
C3350 C3351 1.287 . S
C3351 C3350 1.287 . S
C3351 C3352 1.524 . S
C3351 H3354 0.999 . S
C3352 H3322 0.950 . S
C3352 C3351 1.524 . S
C3352 C3353 1.415 . S
C3353 H3323 0.950 . S
C3353 C3348 1.363 . S
C3353 C3352 1.415 . S
H3354 C3351 0.999 . S
H3355 C3336 0.913 . S
H3356 C3374 0.951 . S
H3357 C3376 0.951 . S
H3358 C3378 0.950 . S
H3359 C3379 0.950 . S
H3360 C3381 0.950 . S
H3361 C3384 0.950 . S
H3362 C3385 0.950 . S
H3363 C3387 0.950 . S
H3364 C3388 0.950 . S
H3365 C3389 0.951 . S
H3366 C3391 0.951 . S
H3367 C3393 0.950 . S
H3368 C3394 0.950 . S
H3369 C3396 0.950 . S
H3370 C3399 0.953 . S
H3371 C3400 0.950 1_655 S
H3372 C3402 0.950 . S
H3373 C3403 0.950 . S
C3374 H3356 0.951 . S
C3374 C3375 1.366 1_655 S
C3374 C3376 1.388 . S
C3375 C3374 1.366 1_455 S
C3375 C3379 1.385 . S
C3376 H3357 0.951 . S
C3376 C3374 1.388 . S
C3376 C3377 1.366 1_655 S
C3377 C3376 1.366 1_455 S
C3377 C3378 1.414 . S
C3377 C3380 1.499 . S
C3378 H3358 0.950 . S
C3378 C3377 1.414 . S
C3378 C3379 1.374 . S
C3379 H3359 0.950 . S
C3379 C3375 1.385 . S
C3379 C3378 1.374 . S
C3380 C3377 1.499 . S
C3380 C3381 1.373 . S
C3380 C3382 1.389 1_455 S
C3381 H3360 0.950 . S
C3381 C3380 1.373 . S
C3381 C3397 1.377 . S
C3382 C3380 1.389 1_655 S
C3382 C3383 1.524 . S
C3382 C3396 1.377 . S
C3383 C3382 1.524 . S
C3383 C3384 1.397 1_655 S
C3383 C3388 1.363 . S
C3384 H3361 0.950 . S
C3384 C3383 1.397 1_455 S
C3384 C3385 1.334 . S
C3385 H3362 0.950 . S
C3385 C3384 1.334 . S
C3385 C3386 1.287 1_455 S
C3386 C3385 1.287 1_655 S
C3386 C3387 1.524 . S
C3386 H3405 0.913 . S
C3387 H3363 0.950 . S
C3387 C3386 1.524 . S
C3387 C3388 1.415 . S
C3388 H3364 0.950 . S
C3388 C3383 1.363 . S
C3388 C3387 1.415 . S
C3389 H3365 0.951 . S
C3389 C3390 1.366 . S
C3389 C3391 1.388 . S
C3390 C3389 1.366 . S
C3390 C3394 1.385 1_455 S
C3391 H3366 0.951 . S
C3391 C3389 1.388 . S
C3391 C3392 1.366 . S
C3392 C3391 1.366 . S
C3392 C3393 1.414 1_455 S
C3392 C3395 1.499 . S
C3393 H3367 0.950 . S
C3393 C3392 1.414 1_655 S
C3393 C3394 1.374 . S
C3394 H3368 0.950 . S
C3394 C3390 1.385 1_655 S
C3394 C3393 1.374 . S
C3395 C3392 1.499 . S
C3395 C3396 1.373 1_455 S
C3395 C3397 1.389 . S
C3396 H3369 0.950 . S
C3396 C3382 1.377 . S
C3396 C3395 1.373 1_655 S
C3397 C3381 1.377 . S
C3397 C3395 1.389 . S
C3397 C3398 1.524 . S
C3398 C3397 1.524 . S
C3398 C3399 1.394 1_455 S
C3398 C3403 1.363 . S
C3399 H3370 0.953 . S
C3399 C3398 1.394 1_655 S
C3399 C3400 1.333 1_655 S
C3400 H3371 0.950 1_455 S
C3400 C3399 1.333 1_455 S
C3400 C3401 1.287 . S
C3401 C3400 1.287 . S
C3401 C3402 1.524 . S
C3401 H3404 0.999 . S
C3402 H3372 0.950 . S
C3402 C3401 1.524 . S
C3402 C3403 1.415 . S
C3403 H3373 0.950 . S
C3403 C3398 1.363 . S
C3403 C3402 1.415 . S
H3404 C3401 0.999 . S
H3405 C3386 0.913 . S
H3406 C3424 0.951 . S
H3407 C3426 0.951 . S
H3408 C3428 0.950 . S
H3409 C3429 0.950 . S
H3410 C3431 0.950 . S
H3411 C3434 0.950 . S
H3412 C3435 0.950 . S
H3413 C3437 0.950 . S
H3414 C3438 0.950 . S
H3415 C3439 0.951 . S
H3416 C3441 0.951 . S
H3417 C3443 0.950 . S
H3418 C3444 0.950 . S
H3419 C3446 0.950 . S
H3420 C3449 0.950 . S
H3421 C3450 0.950 . S
H3422 C3452 0.950 . S
H3423 C3453 0.950 . S
C3424 H3406 0.951 . S
C3424 C3425 1.366 . S
C3424 C3426 1.388 . S
C3425 C3424 1.366 . S
C3425 C3429 1.385 . S
C3426 H3407 0.951 . S
C3426 C3424 1.388 . S
C3426 C3427 1.366 . S
C3427 C3426 1.366 . S
C3427 C3428 1.414 . S
C3427 C3430 1.499 . S
C3428 H3408 0.950 . S
C3428 C3427 1.414 . S
C3428 C3429 1.374 . S
C3429 H3409 0.950 . S
C3429 C3425 1.385 . S
C3429 C3428 1.374 . S
C3430 C3427 1.499 . S
C3430 C3431 1.373 . S
C3430 C3432 1.389 . S
C3431 H3410 0.950 . S
C3431 C3430 1.373 . S
C3431 C3447 1.377 . S
C3432 C3430 1.389 . S
C3432 C3433 1.524 . S
C3432 C3446 1.377 . S
C3433 C3432 1.524 . S
C3433 C3434 1.397 . S
C3433 C3438 1.363 . S
C3434 H3411 0.950 . S
C3434 C3433 1.397 . S
C3434 C3435 1.334 . S
C3435 H3412 0.950 . S
C3435 C3434 1.334 . S
C3435 C3436 1.287 . S
C3436 C3435 1.287 . S
C3436 C3437 1.524 . S
C3436 H3455 0.913 . S
C3437 H3413 0.950 . S
C3437 C3436 1.524 . S
C3437 C3438 1.415 . S
C3438 H3414 0.950 . S
C3438 C3433 1.363 . S
C3438 C3437 1.415 . S
C3439 H3415 0.951 . S
C3439 C3440 1.366 . S
C3439 C3441 1.388 . S
C3440 C3439 1.366 . S
C3440 C3444 1.385 . S
C3441 H3416 0.951 . S
C3441 C3439 1.388 . S
C3441 C3442 1.366 . S
C3442 C3441 1.366 . S
C3442 C3443 1.414 . S
C3442 C3445 1.499 . S
C3443 H3417 0.950 . S
C3443 C3442 1.414 . S
C3443 C3444 1.374 . S
C3444 H3418 0.950 . S
C3444 C3440 1.385 . S
C3444 C3443 1.374 . S
C3445 C3442 1.499 . S
C3445 C3446 1.373 . S
C3445 C3447 1.389 . S
C3446 H3419 0.950 . S
C3446 C3432 1.377 . S
C3446 C3445 1.373 . S
C3447 C3431 1.377 . S
C3447 C3445 1.389 . S
C3447 C3448 1.524 . S
C3448 C3447 1.524 . S
C3448 C3449 1.397 . S
C3448 C3453 1.363 . S
C3449 H3420 0.950 . S
C3449 C3448 1.397 . S
C3449 C3450 1.334 . S
C3450 H3421 0.950 . S
C3450 C3449 1.334 . S
C3450 C3451 1.287 . S
C3451 C3450 1.287 . S
C3451 C3452 1.524 . S
C3451 H3454 0.999 . S
C3452 H3422 0.950 . S
C3452 C3451 1.524 . S
C3452 C3453 1.415 . S
C3453 H3423 0.950 . S
C3453 C3448 1.363 . S
C3453 C3452 1.415 . S
H3454 C3451 0.999 . S
H3455 C3436 0.913 . S
H3456 C3474 0.951 . S
H3457 C3476 0.951 . S
H3458 C3478 0.950 . S
H3459 C3479 0.950 . S
H3460 C3481 0.950 . S
H3461 C3484 0.950 . S
H3462 C3485 0.950 . S
H3463 C3487 0.950 . S
H3464 C3488 0.950 . S
H3465 C3489 0.951 . S
H3466 C3491 0.951 . S
H3467 C3493 0.950 . S
H3468 C3494 0.950 . S
H3469 C3496 0.950 . S
H3470 C3499 0.950 . S
H3471 C3500 0.950 . S
H3472 C3502 0.950 . S
H3473 C3503 0.950 . S
C3474 H3456 0.951 . S
C3474 C3475 1.366 . S
C3474 C3476 1.388 . S
C3475 C3474 1.366 . S
C3475 C3479 1.385 . S
C3476 H3457 0.951 . S
C3476 C3474 1.388 . S
C3476 C3477 1.366 . S
C3477 C3476 1.366 . S
C3477 C3478 1.414 . S
C3477 C3480 1.499 . S
C3478 H3458 0.950 . S
C3478 C3477 1.414 . S
C3478 C3479 1.374 . S
C3479 H3459 0.950 . S
C3479 C3475 1.385 . S
C3479 C3478 1.374 . S
C3480 C3477 1.499 . S
C3480 C3481 1.373 . S
C3480 C3482 1.389 . S
C3481 H3460 0.950 . S
C3481 C3480 1.373 . S
C3481 C3497 1.377 . S
C3482 C3480 1.389 . S
C3482 C3483 1.524 . S
C3482 C3496 1.377 . S
C3483 C3482 1.524 . S
C3483 C3484 1.397 . S
C3483 C3488 1.363 . S
C3484 H3461 0.950 . S
C3484 C3483 1.397 . S
C3484 C3485 1.334 . S
C3485 H3462 0.950 . S
C3485 C3484 1.334 . S
C3485 C3486 1.287 . S
C3486 C3485 1.287 . S
C3486 C3487 1.524 . S
C3486 H3505 0.913 . S
C3487 H3463 0.950 . S
C3487 C3486 1.524 . S
C3487 C3488 1.415 . S
C3488 H3464 0.950 . S
C3488 C3483 1.363 . S
C3488 C3487 1.415 . S
C3489 H3465 0.951 . S
C3489 C3490 1.366 . S
C3489 C3491 1.388 . S
C3490 C3489 1.366 . S
C3490 C3494 1.385 . S
C3491 H3466 0.951 . S
C3491 C3489 1.388 . S
C3491 C3492 1.366 . S
C3492 C3491 1.366 . S
C3492 C3493 1.414 . S
C3492 C3495 1.499 . S
C3493 H3467 0.950 . S
C3493 C3492 1.414 . S
C3493 C3494 1.374 . S
C3494 H3468 0.950 . S
C3494 C3490 1.385 . S
C3494 C3493 1.374 . S
C3495 C3492 1.499 . S
C3495 C3496 1.373 . S
C3495 C3497 1.389 . S
C3496 H3469 0.950 . S
C3496 C3482 1.377 . S
C3496 C3495 1.373 . S
C3497 C3481 1.377 . S
C3497 C3495 1.389 . S
C3497 C3498 1.524 . S
C3498 C3497 1.524 . S
C3498 C3499 1.397 . S
C3498 C3503 1.363 . S
C3499 H3470 0.950 . S
C3499 C3498 1.397 . S
C3499 C3500 1.334 . S
C3500 H3471 0.950 . S
C3500 C3499 1.334 . S
C3500 C3501 1.287 . S
C3501 C3500 1.287 . S
C3501 C3502 1.524 . S
C3501 H3504 0.999 . S
C3502 H3472 0.950 . S
C3502 C3501 1.524 . S
C3502 C3503 1.415 . S
C3503 H3473 0.950 . S
C3503 C3498 1.363 . S
C3503 C3502 1.415 . S
H3504 C3501 0.999 . S
H3505 C3486 0.913 . S
H3506 C3524 0.951 . S
H3507 C3526 0.951 . S
H3508 C3528 0.950 . S
H3509 C3529 0.950 . S
H3510 C3531 0.950 . S
H3511 C3534 0.950 . S
H3512 C3535 0.950 . S
H3513 C3537 0.950 . S
H3514 C3538 0.950 . S
H3515 C3539 0.951 . S
H3516 C3541 0.951 . S
H3517 C3543 0.950 . S
H3518 C3544 0.950 . S
H3519 C3546 0.950 . S
H3520 C3549 0.950 . S
H3521 C3550 0.950 . S
H3522 C3552 0.950 . S
H3523 C3553 0.950 . S
C3524 H3506 0.951 . S
C3524 C3525 1.366 . S
C3524 C3526 1.388 . S
C3525 C3524 1.366 . S
C3525 C3529 1.385 . S
C3526 H3507 0.951 . S
C3526 C3524 1.388 . S
C3526 C3527 1.366 . S
C3527 C3526 1.366 . S
C3527 C3528 1.414 . S
C3527 C3530 1.499 . S
C3528 H3508 0.950 . S
C3528 C3527 1.414 . S
C3528 C3529 1.374 . S
C3529 H3509 0.950 . S
C3529 C3525 1.385 . S
C3529 C3528 1.374 . S
C3530 C3527 1.499 . S
C3530 C3531 1.373 . S
C3530 C3532 1.389 . S
C3531 H3510 0.950 . S
C3531 C3530 1.373 . S
C3531 C3547 1.377 . S
C3532 C3530 1.389 . S
C3532 C3533 1.524 . S
C3532 C3546 1.377 . S
C3533 C3532 1.524 . S
C3533 C3534 1.397 . S
C3533 C3538 1.363 . S
C3534 H3511 0.950 . S
C3534 C3533 1.397 . S
C3534 C3535 1.334 . S
C3535 H3512 0.950 . S
C3535 C3534 1.334 . S
C3535 C3536 1.287 . S
C3536 C3535 1.287 . S
C3536 C3537 1.524 . S
C3536 H3555 0.913 . S
C3537 H3513 0.950 . S
C3537 C3536 1.524 . S
C3537 C3538 1.415 . S
C3538 H3514 0.950 . S
C3538 C3533 1.363 . S
C3538 C3537 1.415 . S
C3539 H3515 0.951 . S
C3539 C3540 1.366 . S
C3539 C3541 1.388 . S
C3540 C3539 1.366 . S
C3540 C3544 1.385 . S
C3541 H3516 0.951 . S
C3541 C3539 1.388 . S
C3541 C3542 1.366 . S
C3542 C3541 1.366 . S
C3542 C3543 1.414 . S
C3542 C3545 1.499 . S
C3543 H3517 0.950 . S
C3543 C3542 1.414 . S
C3543 C3544 1.374 . S
C3544 H3518 0.950 . S
C3544 C3540 1.385 . S
C3544 C3543 1.374 . S
C3545 C3542 1.499 . S
C3545 C3546 1.373 . S
C3545 C3547 1.389 . S
C3546 H3519 0.950 . S
C3546 C3532 1.377 . S
C3546 C3545 1.373 . S
C3547 C3531 1.377 . S
C3547 C3545 1.389 . S
C3547 C3548 1.524 . S
C3548 C3547 1.524 . S
C3548 C3549 1.397 . S
C3548 C3553 1.363 . S
C3549 H3520 0.950 . S
C3549 C3548 1.397 . S
C3549 C3550 1.334 . S
C3550 H3521 0.950 . S
C3550 C3549 1.334 . S
C3550 C3551 1.287 . S
C3551 C3550 1.287 . S
C3551 C3552 1.524 . S
C3551 H3554 0.999 . S
C3552 H3522 0.950 . S
C3552 C3551 1.524 . S
C3552 C3553 1.415 . S
C3553 H3523 0.950 . S
C3553 C3548 1.363 . S
C3553 C3552 1.415 . S
H3554 C3551 0.999 . S
H3555 C3536 0.913 . S
H3556 C3574 0.951 . S
H3557 C3576 0.951 . S
H3558 C3578 0.950 . S
H3559 C3579 0.950 . S
H3560 C3581 0.950 . S
H3561 C3584 0.950 . S
H3562 C3585 0.950 . S
H3563 C3587 0.950 . S
H3564 C3588 0.950 . S
H3565 C3589 0.951 . S
H3566 C3591 0.951 . S
H3567 C3593 0.950 . S
H3568 C3594 0.950 . S
H3569 C3596 0.950 . S
H3570 C3599 0.950 . S
H3571 C3600 0.950 . S
H3572 C3602 0.950 . S
H3573 C3603 0.950 . S
C3574 H3556 0.951 . S
C3574 C3575 1.366 . S
C3574 C3576 1.388 . S
C3575 C3574 1.366 . S
C3575 C3579 1.385 . S
C3576 H3557 0.951 . S
C3576 C3574 1.388 . S
C3576 C3577 1.366 . S
C3577 C3576 1.366 . S
C3577 C3578 1.414 . S
C3577 C3580 1.499 . S
C3578 H3558 0.950 . S
C3578 C3577 1.414 . S
C3578 C3579 1.374 . S
C3579 H3559 0.950 . S
C3579 C3575 1.385 . S
C3579 C3578 1.374 . S
C3580 C3577 1.499 . S
C3580 C3581 1.373 . S
C3580 C3582 1.389 . S
C3581 H3560 0.950 . S
C3581 C3580 1.373 . S
C3581 C3597 1.377 . S
C3582 C3580 1.389 . S
C3582 C3583 1.524 . S
C3582 C3596 1.377 . S
C3583 C3582 1.524 . S
C3583 C3584 1.397 . S
C3583 C3588 1.363 . S
C3584 H3561 0.950 . S
C3584 C3583 1.397 . S
C3584 C3585 1.334 . S
C3585 H3562 0.950 . S
C3585 C3584 1.334 . S
C3585 C3586 1.287 . S
C3586 C3585 1.287 . S
C3586 C3587 1.524 . S
C3586 H3605 0.913 . S
C3587 H3563 0.950 . S
C3587 C3586 1.524 . S
C3587 C3588 1.415 . S
C3588 H3564 0.950 . S
C3588 C3583 1.363 . S
C3588 C3587 1.415 . S
C3589 H3565 0.951 . S
C3589 C3590 1.366 . S
C3589 C3591 1.388 . S
C3590 C3589 1.366 . S
C3590 C3594 1.385 . S
C3591 H3566 0.951 . S
C3591 C3589 1.388 . S
C3591 C3592 1.366 . S
C3592 C3591 1.366 . S
C3592 C3593 1.414 . S
C3592 C3595 1.499 . S
C3593 H3567 0.950 . S
C3593 C3592 1.414 . S
C3593 C3594 1.374 . S
C3594 H3568 0.950 . S
C3594 C3590 1.385 . S
C3594 C3593 1.374 . S
C3595 C3592 1.499 . S
C3595 C3596 1.373 . S
C3595 C3597 1.389 . S
C3596 H3569 0.950 . S
C3596 C3582 1.377 . S
C3596 C3595 1.373 . S
C3597 C3581 1.377 . S
C3597 C3595 1.389 . S
C3597 C3598 1.524 . S
C3598 C3597 1.524 . S
C3598 C3599 1.397 . S
C3598 C3603 1.363 . S
C3599 H3570 0.950 . S
C3599 C3598 1.397 . S
C3599 C3600 1.334 . S
C3600 H3571 0.950 . S
C3600 C3599 1.334 . S
C3600 C3601 1.287 . S
C3601 C3600 1.287 . S
C3601 C3602 1.524 . S
C3601 H3604 0.999 . S
C3602 H3572 0.950 . S
C3602 C3601 1.524 . S
C3602 C3603 1.415 . S
C3603 H3573 0.950 . S
C3603 C3598 1.363 . S
C3603 C3602 1.415 . S
H3604 C3601 0.999 . S
H3605 C3586 0.913 . S
H3606 C3624 0.951 . S
H3607 C3626 0.951 . S
H3608 C3628 0.950 . S
H3609 C3629 0.950 . S
H3610 C3631 0.950 . S
H3611 C3634 0.950 . S
H3612 C3635 0.950 . S
H3613 C3637 0.950 . S
H3614 C3638 0.950 . S
H3615 C3639 0.951 . S
H3616 C3641 0.951 . S
H3617 C3643 0.950 . S
H3618 C3644 0.950 . S
H3619 C3646 0.950 . S
H3620 C3649 0.950 . S
H3621 C3650 0.950 . S
H3622 C3652 0.950 . S
H3623 C3653 0.950 . S
C3624 H3606 0.951 . S
C3624 C3625 1.366 . S
C3624 C3626 1.388 . S
C3625 C3624 1.366 . S
C3625 C3629 1.385 . S
C3626 H3607 0.951 . S
C3626 C3624 1.388 . S
C3626 C3627 1.366 . S
C3627 C3626 1.366 . S
C3627 C3628 1.414 . S
C3627 C3630 1.499 . S
C3628 H3608 0.950 . S
C3628 C3627 1.414 . S
C3628 C3629 1.374 . S
C3629 H3609 0.950 . S
C3629 C3625 1.385 . S
C3629 C3628 1.374 . S
C3630 C3627 1.499 . S
C3630 C3631 1.373 . S
C3630 C3632 1.389 . S
C3631 H3610 0.950 . S
C3631 C3630 1.373 . S
C3631 C3647 1.377 . S
C3632 C3630 1.389 . S
C3632 C3633 1.524 . S
C3632 C3646 1.377 . S
C3633 C3632 1.524 . S
C3633 C3634 1.397 . S
C3633 C3638 1.363 . S
C3634 H3611 0.950 . S
C3634 C3633 1.397 . S
C3634 C3635 1.334 . S
C3635 H3612 0.950 . S
C3635 C3634 1.334 . S
C3635 C3636 1.287 . S
C3636 C3635 1.287 . S
C3636 C3637 1.524 . S
C3636 H3655 0.913 . S
C3637 H3613 0.950 . S
C3637 C3636 1.524 . S
C3637 C3638 1.415 . S
C3638 H3614 0.950 . S
C3638 C3633 1.363 . S
C3638 C3637 1.415 . S
C3639 H3615 0.951 . S
C3639 C3640 1.366 . S
C3639 C3641 1.388 . S
C3640 C3639 1.366 . S
C3640 C3644 1.385 . S
C3641 H3616 0.951 . S
C3641 C3639 1.388 . S
C3641 C3642 1.366 . S
C3642 C3641 1.366 . S
C3642 C3643 1.414 . S
C3642 C3645 1.499 . S
C3643 H3617 0.950 . S
C3643 C3642 1.414 . S
C3643 C3644 1.374 . S
C3644 H3618 0.950 . S
C3644 C3640 1.385 . S
C3644 C3643 1.374 . S
C3645 C3642 1.499 . S
C3645 C3646 1.373 . S
C3645 C3647 1.389 . S
C3646 H3619 0.950 . S
C3646 C3632 1.377 . S
C3646 C3645 1.373 . S
C3647 C3631 1.377 . S
C3647 C3645 1.389 . S
C3647 C3648 1.524 . S
C3648 C3647 1.524 . S
C3648 C3649 1.397 . S
C3648 C3653 1.363 . S
C3649 H3620 0.950 . S
C3649 C3648 1.397 . S
C3649 C3650 1.334 . S
C3650 H3621 0.950 . S
C3650 C3649 1.334 . S
C3650 C3651 1.287 . S
C3651 C3650 1.287 . S
C3651 C3652 1.524 . S
C3651 H3654 0.999 . S
C3652 H3622 0.950 . S
C3652 C3651 1.524 . S
C3652 C3653 1.415 . S
C3653 H3623 0.950 . S
C3653 C3648 1.363 . S
C3653 C3652 1.415 . S
H3654 C3651 0.999 . S
H3655 C3636 0.913 . S
H3656 C3674 0.951 . S
H3657 C3676 0.951 . S
H3658 C3678 0.950 . S
H3659 C3679 0.950 . S
H3660 C3681 0.950 . S
H3661 C3684 0.950 . S
H3662 C3685 0.950 . S
H3663 C3687 0.950 . S
H3664 C3688 0.950 . S
H3665 C3689 0.951 . S
H3666 C3691 0.951 . S
H3667 C3693 0.950 . S
H3668 C3694 0.950 . S
H3669 C3696 0.950 . S
H3670 C3699 0.950 . S
H3671 C3700 0.950 . S
H3672 C3702 0.950 . S
H3673 C3703 0.950 . S
C3674 H3656 0.951 . S
C3674 C3675 1.366 . S
C3674 C3676 1.388 . S
C3675 C3674 1.366 . S
C3675 C3679 1.385 . S
C3676 H3657 0.951 . S
C3676 C3674 1.388 . S
C3676 C3677 1.366 . S
C3677 C3676 1.366 . S
C3677 C3678 1.414 . S
C3677 C3680 1.499 . S
C3678 H3658 0.950 . S
C3678 C3677 1.414 . S
C3678 C3679 1.374 . S
C3679 H3659 0.950 . S
C3679 C3675 1.385 . S
C3679 C3678 1.374 . S
C3680 C3677 1.499 . S
C3680 C3681 1.373 . S
C3680 C3682 1.389 . S
C3681 H3660 0.950 . S
C3681 C3680 1.373 . S
C3681 C3697 1.377 . S
C3682 C3680 1.389 . S
C3682 C3683 1.524 . S
C3682 C3696 1.377 . S
C3683 C3682 1.524 . S
C3683 C3684 1.397 . S
C3683 C3688 1.363 . S
C3684 H3661 0.950 . S
C3684 C3683 1.397 . S
C3684 C3685 1.334 . S
C3685 H3662 0.950 . S
C3685 C3684 1.334 . S
C3685 C3686 1.287 . S
C3686 C3685 1.287 . S
C3686 C3687 1.524 . S
C3686 H3705 0.913 . S
C3687 H3663 0.950 . S
C3687 C3686 1.524 . S
C3687 C3688 1.415 . S
C3688 H3664 0.950 . S
C3688 C3683 1.363 . S
C3688 C3687 1.415 . S
C3689 H3665 0.951 . S
C3689 C3690 1.366 . S
C3689 C3691 1.388 . S
C3690 C3689 1.366 . S
C3690 C3694 1.385 . S
C3691 H3666 0.951 . S
C3691 C3689 1.388 . S
C3691 C3692 1.366 . S
C3692 C3691 1.366 . S
C3692 C3693 1.414 . S
C3692 C3695 1.499 . S
C3693 H3667 0.950 . S
C3693 C3692 1.414 . S
C3693 C3694 1.374 . S
C3694 H3668 0.950 . S
C3694 C3690 1.385 . S
C3694 C3693 1.374 . S
C3695 C3692 1.499 . S
C3695 C3696 1.373 . S
C3695 C3697 1.389 . S
C3696 H3669 0.950 . S
C3696 C3682 1.377 . S
C3696 C3695 1.373 . S
C3697 C3681 1.377 . S
C3697 C3695 1.389 . S
C3697 C3698 1.524 . S
C3698 C3697 1.524 . S
C3698 C3699 1.397 . S
C3698 C3703 1.363 . S
C3699 H3670 0.950 . S
C3699 C3698 1.397 . S
C3699 C3700 1.334 . S
C3700 H3671 0.950 . S
C3700 C3699 1.334 . S
C3700 C3701 1.287 . S
C3701 C3700 1.287 . S
C3701 C3702 1.524 . S
C3701 H3704 0.999 . S
C3702 H3672 0.950 . S
C3702 C3701 1.524 . S
C3702 C3703 1.415 . S
C3703 H3673 0.950 . S
C3703 C3698 1.363 . S
C3703 C3702 1.415 . S
H3704 C3701 0.999 . S
H3705 C3686 0.913 . S
H3706 C3724 0.951 . S
H3707 C3726 0.951 . S
H3708 C3728 0.950 . S
H3709 C3729 0.950 . S
H3710 C3731 0.950 . S
H3711 C3734 0.950 . S
H3712 C3735 0.950 . S
H3713 C3737 0.950 . S
H3714 C3738 0.950 . S
H3715 C3739 0.951 . S
H3716 C3741 0.951 . S
H3717 C3743 0.950 . S
H3718 C3744 0.950 . S
H3719 C3746 0.950 . S
H3720 C3749 0.950 . S
H3721 C3750 0.950 . S
H3722 C3752 0.950 . S
H3723 C3753 0.950 . S
C3724 H3706 0.951 . S
C3724 C3725 1.366 . S
C3724 C3726 1.388 . S
C3725 C3724 1.366 . S
C3725 C3729 1.385 . S
C3726 H3707 0.951 . S
C3726 C3724 1.388 . S
C3726 C3727 1.366 . S
C3727 C3726 1.366 . S
C3727 C3728 1.414 . S
C3727 C3730 1.499 . S
C3728 H3708 0.950 . S
C3728 C3727 1.414 . S
C3728 C3729 1.374 . S
C3729 H3709 0.950 . S
C3729 C3725 1.385 . S
C3729 C3728 1.374 . S
C3730 C3727 1.499 . S
C3730 C3731 1.373 . S
C3730 C3732 1.389 . S
C3731 H3710 0.950 . S
C3731 C3730 1.373 . S
C3731 C3747 1.377 . S
C3732 C3730 1.389 . S
C3732 C3733 1.524 . S
C3732 C3746 1.377 . S
C3733 C3732 1.524 . S
C3733 C3734 1.397 . S
C3733 C3738 1.363 . S
C3734 H3711 0.950 . S
C3734 C3733 1.397 . S
C3734 C3735 1.334 . S
C3735 H3712 0.950 . S
C3735 C3734 1.334 . S
C3735 C3736 1.287 . S
C3736 C3735 1.287 . S
C3736 C3737 1.524 . S
C3736 H3755 0.913 . S
C3737 H3713 0.950 . S
C3737 C3736 1.524 . S
C3737 C3738 1.415 . S
C3738 H3714 0.950 . S
C3738 C3733 1.363 . S
C3738 C3737 1.415 . S
C3739 H3715 0.951 . S
C3739 C3740 1.366 . S
C3739 C3741 1.388 . S
C3740 C3739 1.366 . S
C3740 C3744 1.385 . S
C3741 H3716 0.951 . S
C3741 C3739 1.388 . S
C3741 C3742 1.366 . S
C3742 C3741 1.366 . S
C3742 C3743 1.414 . S
C3742 C3745 1.499 . S
C3743 H3717 0.950 . S
C3743 C3742 1.414 . S
C3743 C3744 1.374 . S
C3744 H3718 0.950 . S
C3744 C3740 1.385 . S
C3744 C3743 1.374 . S
C3745 C3742 1.499 . S
C3745 C3746 1.373 . S
C3745 C3747 1.389 . S
C3746 H3719 0.950 . S
C3746 C3732 1.377 . S
C3746 C3745 1.373 . S
C3747 C3731 1.377 . S
C3747 C3745 1.389 . S
C3747 C3748 1.524 . S
C3748 C3747 1.524 . S
C3748 C3749 1.397 . S
C3748 C3753 1.363 . S
C3749 H3720 0.950 . S
C3749 C3748 1.397 . S
C3749 C3750 1.334 . S
C3750 H3721 0.950 . S
C3750 C3749 1.334 . S
C3750 C3751 1.287 . S
C3751 C3750 1.287 . S
C3751 C3752 1.524 . S
C3751 H3754 0.999 . S
C3752 H3722 0.950 . S
C3752 C3751 1.524 . S
C3752 C3753 1.415 . S
C3753 H3723 0.950 . S
C3753 C3748 1.363 . S
C3753 C3752 1.415 . S
H3754 C3751 0.999 . S
H3755 C3736 0.913 . S
H3756 C3774 0.951 . S
H3757 C3776 0.951 . S
H3758 C3778 0.950 . S
H3759 C3779 0.950 . S
H3760 C3781 0.950 . S
H3761 C3784 0.950 . S
H3762 C3785 0.950 . S
H3763 C3787 0.950 . S
H3764 C3788 0.950 . S
H3765 C3789 0.951 . S
H3766 C3791 0.951 . S
H3767 C3793 0.950 . S
H3768 C3794 0.950 . S
H3769 C3796 0.950 . S
H3770 C3799 0.950 . S
H3771 C3800 0.950 . S
H3772 C3802 0.950 . S
H3773 C3803 0.950 . S
C3774 H3756 0.951 . S
C3774 C3775 1.366 . S
C3774 C3776 1.388 . S
C3775 C3774 1.366 . S
C3775 C3779 1.385 . S
C3776 H3757 0.951 . S
C3776 C3774 1.388 . S
C3776 C3777 1.366 . S
C3777 C3776 1.366 . S
C3777 C3778 1.414 . S
C3777 C3780 1.499 . S
C3778 H3758 0.950 . S
C3778 C3777 1.414 . S
C3778 C3779 1.374 . S
C3779 H3759 0.950 . S
C3779 C3775 1.385 . S
C3779 C3778 1.374 . S
C3780 C3777 1.499 . S
C3780 C3781 1.373 . S
C3780 C3782 1.389 . S
C3781 H3760 0.950 . S
C3781 C3780 1.373 . S
C3781 C3797 1.377 . S
C3782 C3780 1.389 . S
C3782 C3783 1.524 . S
C3782 C3796 1.377 . S
C3783 C3782 1.524 . S
C3783 C3784 1.397 . S
C3783 C3788 1.363 . S
C3784 H3761 0.950 . S
C3784 C3783 1.397 . S
C3784 C3785 1.334 . S
C3785 H3762 0.950 . S
C3785 C3784 1.334 . S
C3785 C3786 1.287 . S
C3786 C3785 1.287 . S
C3786 C3787 1.524 . S
C3786 H3805 0.913 . S
C3787 H3763 0.950 . S
C3787 C3786 1.524 . S
C3787 C3788 1.415 . S
C3788 H3764 0.950 . S
C3788 C3783 1.363 . S
C3788 C3787 1.415 . S
C3789 H3765 0.951 . S
C3789 C3790 1.366 . S
C3789 C3791 1.388 . S
C3790 C3789 1.366 . S
C3790 C3794 1.385 . S
C3791 H3766 0.951 . S
C3791 C3789 1.388 . S
C3791 C3792 1.366 . S
C3792 C3791 1.366 . S
C3792 C3793 1.414 . S
C3792 C3795 1.499 . S
C3793 H3767 0.950 . S
C3793 C3792 1.414 . S
C3793 C3794 1.374 . S
C3794 H3768 0.950 . S
C3794 C3790 1.385 . S
C3794 C3793 1.374 . S
C3795 C3792 1.499 . S
C3795 C3796 1.373 . S
C3795 C3797 1.389 . S
C3796 H3769 0.950 . S
C3796 C3782 1.377 . S
C3796 C3795 1.373 . S
C3797 C3781 1.377 . S
C3797 C3795 1.389 . S
C3797 C3798 1.524 . S
C3798 C3797 1.524 . S
C3798 C3799 1.397 . S
C3798 C3803 1.363 . S
C3799 H3770 0.950 . S
C3799 C3798 1.397 . S
C3799 C3800 1.334 . S
C3800 H3771 0.950 . S
C3800 C3799 1.334 . S
C3800 C3801 1.287 . S
C3801 C3800 1.287 . S
C3801 C3802 1.524 . S
C3801 H3804 0.999 . S
C3802 H3772 0.950 . S
C3802 C3801 1.524 . S
C3802 C3803 1.415 . S
C3803 H3773 0.950 . S
C3803 C3798 1.363 . S
C3803 C3802 1.415 . S
H3804 C3801 0.999 . S
H3805 C3786 0.913 . S
H3806 C3824 0.951 . S
H3807 C3826 0.951 . S
H3808 C3828 0.950 . S
H3809 C3829 0.950 . S
H3810 C3831 0.950 . S
H3811 C3834 0.950 . S
H3812 C3835 0.950 . S
H3813 C3837 0.950 . S
H3814 C3838 0.950 . S
H3815 C3839 0.951 . S
H3816 C3841 0.951 . S
H3817 C3843 0.950 . S
H3818 C3844 0.950 . S
H3819 C3846 0.950 . S
H3820 C3849 0.950 . S
H3821 C3850 0.950 . S
H3822 C3852 0.950 . S
H3823 C3853 0.950 . S
C3824 H3806 0.951 . S
C3824 C3825 1.366 . S
C3824 C3826 1.388 . S
C3825 C3824 1.366 . S
C3825 C3829 1.385 . S
C3826 H3807 0.951 . S
C3826 C3824 1.388 . S
C3826 C3827 1.366 . S
C3827 C3826 1.366 . S
C3827 C3828 1.414 . S
C3827 C3830 1.499 . S
C3828 H3808 0.950 . S
C3828 C3827 1.414 . S
C3828 C3829 1.374 . S
C3829 H3809 0.950 . S
C3829 C3825 1.385 . S
C3829 C3828 1.374 . S
C3830 C3827 1.499 . S
C3830 C3831 1.373 . S
C3830 C3832 1.389 . S
C3831 H3810 0.950 . S
C3831 C3830 1.373 . S
C3831 C3847 1.377 . S
C3832 C3830 1.389 . S
C3832 C3833 1.524 . S
C3832 C3846 1.377 . S
C3833 C3832 1.524 . S
C3833 C3834 1.397 . S
C3833 C3838 1.363 . S
C3834 H3811 0.950 . S
C3834 C3833 1.397 . S
C3834 C3835 1.334 . S
C3835 H3812 0.950 . S
C3835 C3834 1.334 . S
C3835 C3836 1.287 . S
C3836 C3835 1.287 . S
C3836 C3837 1.524 . S
C3836 H3855 0.913 . S
C3837 H3813 0.950 . S
C3837 C3836 1.524 . S
C3837 C3838 1.415 . S
C3838 H3814 0.950 . S
C3838 C3833 1.363 . S
C3838 C3837 1.415 . S
C3839 H3815 0.951 . S
C3839 C3840 1.366 . S
C3839 C3841 1.388 . S
C3840 C3839 1.366 . S
C3840 C3844 1.385 . S
C3841 H3816 0.951 . S
C3841 C3839 1.388 . S
C3841 C3842 1.366 . S
C3842 C3841 1.366 . S
C3842 C3843 1.414 . S
C3842 C3845 1.499 . S
C3843 H3817 0.950 . S
C3843 C3842 1.414 . S
C3843 C3844 1.374 . S
C3844 H3818 0.950 . S
C3844 C3840 1.385 . S
C3844 C3843 1.374 . S
C3845 C3842 1.499 . S
C3845 C3846 1.373 . S
C3845 C3847 1.389 . S
C3846 H3819 0.950 . S
C3846 C3832 1.377 . S
C3846 C3845 1.373 . S
C3847 C3831 1.377 . S
C3847 C3845 1.389 . S
C3847 C3848 1.524 . S
C3848 C3847 1.524 . S
C3848 C3849 1.397 . S
C3848 C3853 1.363 . S
C3849 H3820 0.950 . S
C3849 C3848 1.397 . S
C3849 C3850 1.334 . S
C3850 H3821 0.950 . S
C3850 C3849 1.334 . S
C3850 C3851 1.287 . S
C3851 C3850 1.287 . S
C3851 C3852 1.524 . S
C3851 H3854 0.999 . S
C3852 H3822 0.950 . S
C3852 C3851 1.524 . S
C3852 C3853 1.415 . S
C3853 H3823 0.950 . S
C3853 C3848 1.363 . S
C3853 C3852 1.415 . S
H3854 C3851 0.999 . S
H3855 C3836 0.913 . S
H3856 C3874 0.951 . S
H3857 C3876 0.951 . S
H3858 C3878 0.950 . S
H3859 C3879 0.950 . S
H3860 C3881 0.950 . S
H3861 C3884 0.950 . S
H3862 C3885 0.950 . S
H3863 C3887 0.950 . S
H3864 C3888 0.950 . S
H3865 C3889 0.951 . S
H3866 C3891 0.951 . S
H3867 C3893 0.950 . S
H3868 C3894 0.950 . S
H3869 C3896 0.950 . S
H3870 C3899 0.950 . S
H3871 C3900 0.950 . S
H3872 C3902 0.950 . S
H3873 C3903 0.950 . S
C3874 H3856 0.951 . S
C3874 C3875 1.366 . S
C3874 C3876 1.388 . S
C3875 C3874 1.366 . S
C3875 C3879 1.385 . S
C3876 H3857 0.951 . S
C3876 C3874 1.388 . S
C3876 C3877 1.366 . S
C3877 C3876 1.366 . S
C3877 C3878 1.414 . S
C3877 C3880 1.499 . S
C3878 H3858 0.950 . S
C3878 C3877 1.414 . S
C3878 C3879 1.374 . S
C3879 H3859 0.950 . S
C3879 C3875 1.385 . S
C3879 C3878 1.374 . S
C3880 C3877 1.499 . S
C3880 C3881 1.373 . S
C3880 C3882 1.389 . S
C3881 H3860 0.950 . S
C3881 C3880 1.373 . S
C3881 C3897 1.377 . S
C3882 C3880 1.389 . S
C3882 C3883 1.524 . S
C3882 C3896 1.377 . S
C3883 C3882 1.524 . S
C3883 C3884 1.397 . S
C3883 C3888 1.363 . S
C3884 H3861 0.950 . S
C3884 C3883 1.397 . S
C3884 C3885 1.334 . S
C3885 H3862 0.950 . S
C3885 C3884 1.334 . S
C3885 C3886 1.287 . S
C3886 C3885 1.287 . S
C3886 C3887 1.524 . S
C3886 H3905 0.913 . S
C3887 H3863 0.950 . S
C3887 C3886 1.524 . S
C3887 C3888 1.415 . S
C3888 H3864 0.950 . S
C3888 C3883 1.363 . S
C3888 C3887 1.415 . S
C3889 H3865 0.951 . S
C3889 C3890 1.366 . S
C3889 C3891 1.388 . S
C3890 C3889 1.366 . S
C3890 C3894 1.385 . S
C3891 H3866 0.951 . S
C3891 C3889 1.388 . S
C3891 C3892 1.366 . S
C3892 C3891 1.366 . S
C3892 C3893 1.414 . S
C3892 C3895 1.499 . S
C3893 H3867 0.950 . S
C3893 C3892 1.414 . S
C3893 C3894 1.374 . S
C3894 H3868 0.950 . S
C3894 C3890 1.385 . S
C3894 C3893 1.374 . S
C3895 C3892 1.499 . S
C3895 C3896 1.373 . S
C3895 C3897 1.389 . S
C3896 H3869 0.950 . S
C3896 C3882 1.377 . S
C3896 C3895 1.373 . S
C3897 C3881 1.377 . S
C3897 C3895 1.389 . S
C3897 C3898 1.524 . S
C3898 C3897 1.524 . S
C3898 C3899 1.397 . S
C3898 C3903 1.363 . S
C3899 H3870 0.950 . S
C3899 C3898 1.397 . S
C3899 C3900 1.334 . S
C3900 H3871 0.950 . S
C3900 C3899 1.334 . S
C3900 C3901 1.287 . S
C3901 C3900 1.287 . S
C3901 C3902 1.524 . S
C3901 H3904 0.999 . S
C3902 H3872 0.950 . S
C3902 C3901 1.524 . S
C3902 C3903 1.415 . S
C3903 H3873 0.950 . S
C3903 C3898 1.363 . S
C3903 C3902 1.415 . S
H3904 C3901 0.999 . S
H3905 C3886 0.913 . S
H3906 C3924 0.951 . S
H3907 C3926 0.951 . S
H3908 C3928 0.950 . S
H3909 C3929 0.950 . S
H3910 C3931 0.950 . S
H3911 C3934 0.950 . S
H3912 C3935 0.950 . S
H3913 C3937 0.950 . S
H3914 C3938 0.950 . S
H3915 C3939 0.951 . S
H3916 C3941 0.951 . S
H3917 C3943 0.950 . S
H3918 C3944 0.950 . S
H3919 C3946 0.950 . S
H3920 C3949 0.950 . S
H3921 C3950 0.950 . S
H3922 C3952 0.950 . S
H3923 C3953 0.950 . S
C3924 H3906 0.951 . S
C3924 C3925 1.366 . S
C3924 C3926 1.388 . S
C3925 C3924 1.366 . S
C3925 C3929 1.385 . S
C3926 H3907 0.951 . S
C3926 C3924 1.388 . S
C3926 C3927 1.366 . S
C3927 C3926 1.366 . S
C3927 C3928 1.414 . S
C3927 C3930 1.499 . S
C3928 H3908 0.950 . S
C3928 C3927 1.414 . S
C3928 C3929 1.374 . S
C3929 H3909 0.950 . S
C3929 C3925 1.385 . S
C3929 C3928 1.374 . S
C3930 C3927 1.499 . S
C3930 C3931 1.373 . S
C3930 C3932 1.389 . S
C3931 H3910 0.950 . S
C3931 C3930 1.373 . S
C3931 C3947 1.377 . S
C3932 C3930 1.389 . S
C3932 C3933 1.524 . S
C3932 C3946 1.377 . S
C3933 C3932 1.524 . S
C3933 C3934 1.397 . S
C3933 C3938 1.363 . S
C3934 H3911 0.950 . S
C3934 C3933 1.397 . S
C3934 C3935 1.334 . S
C3935 H3912 0.950 . S
C3935 C3934 1.334 . S
C3935 C3936 1.287 . S
C3936 C3935 1.287 . S
C3936 C3937 1.524 . S
C3936 H3955 0.913 . S
C3937 H3913 0.950 . S
C3937 C3936 1.524 . S
C3937 C3938 1.415 . S
C3938 H3914 0.950 . S
C3938 C3933 1.363 . S
C3938 C3937 1.415 . S
C3939 H3915 0.951 . S
C3939 C3940 1.366 . S
C3939 C3941 1.388 . S
C3940 C3939 1.366 . S
C3940 C3944 1.385 . S
C3941 H3916 0.951 . S
C3941 C3939 1.388 . S
C3941 C3942 1.366 . S
C3942 C3941 1.366 . S
C3942 C3943 1.414 . S
C3942 C3945 1.499 . S
C3943 H3917 0.950 . S
C3943 C3942 1.414 . S
C3943 C3944 1.374 . S
C3944 H3918 0.950 . S
C3944 C3940 1.385 . S
C3944 C3943 1.374 . S
C3945 C3942 1.499 . S
C3945 C3946 1.373 . S
C3945 C3947 1.389 . S
C3946 H3919 0.950 . S
C3946 C3932 1.377 . S
C3946 C3945 1.373 . S
C3947 C3931 1.377 . S
C3947 C3945 1.389 . S
C3947 C3948 1.524 . S
C3948 C3947 1.524 . S
C3948 C3949 1.397 . S
C3948 C3953 1.363 . S
C3949 H3920 0.950 . S
C3949 C3948 1.397 . S
C3949 C3950 1.334 . S
C3950 H3921 0.950 . S
C3950 C3949 1.334 . S
C3950 C3951 1.287 . S
C3951 C3950 1.287 . S
C3951 C3952 1.524 . S
C3951 H3954 0.999 . S
C3952 H3922 0.950 . S
C3952 C3951 1.524 . S
C3952 C3953 1.415 . S
C3953 H3923 0.950 . S
C3953 C3948 1.363 . S
C3953 C3952 1.415 . S
H3954 C3951 0.999 . S
H3955 C3936 0.913 . S
H3956 C3974 0.951 . S
H3957 C3976 0.951 . S
H3958 C3978 0.950 . S
H3959 C3979 0.950 . S
H3960 C3981 0.950 . S
H3961 C3984 0.950 . S
H3962 C3985 0.950 . S
H3963 C3987 0.950 . S
H3964 C3988 0.950 . S
H3965 C3989 0.951 . S
H3966 C3991 0.951 . S
H3967 C3993 0.950 . S
H3968 C3994 0.950 . S
H3969 C3996 0.950 . S
H3970 C3999 0.950 . S
H3971 C4000 0.950 . S
H3972 C4002 0.950 . S
H3973 C4003 0.950 . S
C3974 H3956 0.951 . S
C3974 C3975 1.366 . S
C3974 C3976 1.388 . S
C3975 C3974 1.366 . S
C3975 C3979 1.385 . S
C3976 H3957 0.951 . S
C3976 C3974 1.388 . S
C3976 C3977 1.366 . S
C3977 C3976 1.366 . S
C3977 C3978 1.414 . S
C3977 C3980 1.499 . S
C3978 H3958 0.950 . S
C3978 C3977 1.414 . S
C3978 C3979 1.374 . S
C3979 H3959 0.950 . S
C3979 C3975 1.385 . S
C3979 C3978 1.374 . S
C3980 C3977 1.499 . S
C3980 C3981 1.373 . S
C3980 C3982 1.389 . S
C3981 H3960 0.950 . S
C3981 C3980 1.373 . S
C3981 C3997 1.377 . S
C3982 C3980 1.389 . S
C3982 C3983 1.524 . S
C3982 C3996 1.377 . S
C3983 C3982 1.524 . S
C3983 C3984 1.397 . S
C3983 C3988 1.363 . S
C3984 H3961 0.950 . S
C3984 C3983 1.397 . S
C3984 C3985 1.334 . S
C3985 H3962 0.950 . S
C3985 C3984 1.334 . S
C3985 C3986 1.287 . S
C3986 C3985 1.287 . S
C3986 C3987 1.524 . S
C3986 H4005 0.913 . S
C3987 H3963 0.950 . S
C3987 C3986 1.524 . S
C3987 C3988 1.415 . S
C3988 H3964 0.950 . S
C3988 C3983 1.363 . S
C3988 C3987 1.415 . S
C3989 H3965 0.951 . S
C3989 C3990 1.366 . S
C3989 C3991 1.388 . S
C3990 C3989 1.366 . S
C3990 C3994 1.385 . S
C3991 H3966 0.951 . S
C3991 C3989 1.388 . S
C3991 C3992 1.366 . S
C3992 C3991 1.366 . S
C3992 C3993 1.414 . S
C3992 C3995 1.499 . S
C3993 H3967 0.950 . S
C3993 C3992 1.414 . S
C3993 C3994 1.374 . S
C3994 H3968 0.950 . S
C3994 C3990 1.385 . S
C3994 C3993 1.374 . S
C3995 C3992 1.499 . S
C3995 C3996 1.373 . S
C3995 C3997 1.389 . S
C3996 H3969 0.950 . S
C3996 C3982 1.377 . S
C3996 C3995 1.373 . S
C3997 C3981 1.377 . S
C3997 C3995 1.389 . S
C3997 C3998 1.524 . S
C3998 C3997 1.524 . S
C3998 C3999 1.397 . S
C3998 C4003 1.363 . S
C3999 H3970 0.950 . S
C3999 C3998 1.397 . S
C3999 C4000 1.334 . S
C4000 H3971 0.950 . S
C4000 C3999 1.334 . S
C4000 C4001 1.287 . S
C4001 C4000 1.287 . S
C4001 C4002 1.524 . S
C4001 H4004 0.999 . S
C4002 H3972 0.950 . S
C4002 C4001 1.524 . S
C4002 C4003 1.415 . S
C4003 H3973 0.950 . S
C4003 C3998 1.363 . S
C4003 C4002 1.415 . S
H4004 C4001 0.999 . S
H4005 C3986 0.913 . S
H4006 C4024 0.951 . S
H4007 C4026 0.951 . S
H4008 C4028 0.950 . S
H4009 C4029 0.950 . S
H4010 C4031 0.950 1_556 S
H4011 C4034 0.950 . S
H4012 C4035 0.950 . S
H4013 C4037 0.950 . S
H4014 C4038 0.950 . S
H4015 C4039 0.951 1_545 S
H4016 C4041 0.951 . S
H4017 C4043 0.950 . S
H4018 C4044 0.950 . S
H4019 C4046 0.950 . S
H4020 C4049 0.950 . S
H4021 C4050 0.950 . S
H4022 C4052 0.950 . S
H4023 C4053 0.950 . S
C4024 H4006 0.951 . S
C4024 C4025 1.366 . S
C4024 C4026 1.388 . S
C4025 C4024 1.366 . S
C4025 C4029 1.385 . S
C4026 H4007 0.951 . S
C4026 C4024 1.388 . S
C4026 C4027 1.366 . S
C4027 C4026 1.366 . S
C4027 C4028 1.414 . S
C4027 C4030 1.499 . S
C4028 H4008 0.950 . S
C4028 C4027 1.414 . S
C4028 C4029 1.374 . S
C4029 H4009 0.950 . S
C4029 C4025 1.385 . S
C4029 C4028 1.374 . S
C4030 C4027 1.499 . S
C4030 C4031 1.373 . S
C4030 C4032 1.389 . S
C4031 H4010 0.950 1_554 S
C4031 C4030 1.373 . S
C4031 C4047 1.377 . S
C4032 C4030 1.389 . S
C4032 C4033 1.524 . S
C4032 C4046 1.377 . S
C4033 C4032 1.524 . S
C4033 C4034 1.397 . S
C4033 C4038 1.363 . S
C4034 H4011 0.950 . S
C4034 C4033 1.397 . S
C4034 C4035 1.334 . S
C4035 H4012 0.950 . S
C4035 C4034 1.334 . S
C4035 C4036 1.287 . S
C4036 C4035 1.287 . S
C4036 C4037 1.524 . S
C4036 H4055 0.913 . S
C4037 H4013 0.950 . S
C4037 C4036 1.524 . S
C4037 C4038 1.415 . S
C4038 H4014 0.950 . S
C4038 C4033 1.363 . S
C4038 C4037 1.415 . S
C4039 H4015 0.951 1_565 S
C4039 C4040 1.366 . S
C4039 C4041 1.388 . S
C4040 C4039 1.366 . S
C4040 C4044 1.385 . S
C4041 H4016 0.951 . S
C4041 C4039 1.388 . S
C4041 C4042 1.366 . S
C4042 C4041 1.366 . S
C4042 C4043 1.414 . S
C4042 C4045 1.499 . S
C4043 H4017 0.950 . S
C4043 C4042 1.414 . S
C4043 C4044 1.374 . S
C4044 H4018 0.950 . S
C4044 C4040 1.385 . S
C4044 C4043 1.374 . S
C4045 C4042 1.499 . S
C4045 C4046 1.373 . S
C4045 C4047 1.389 . S
C4046 H4019 0.950 . S
C4046 C4032 1.377 . S
C4046 C4045 1.373 . S
C4047 C4031 1.377 . S
C4047 C4045 1.389 . S
C4047 C4048 1.524 1_554 S
C4048 C4047 1.524 1_556 S
C4048 C4049 1.397 . S
C4048 C4053 1.363 . S
C4049 H4020 0.950 . S
C4049 C4048 1.397 . S
C4049 C4050 1.334 . S
C4050 H4021 0.950 . S
C4050 C4049 1.334 . S
C4050 C4051 1.287 . S
C4051 C4050 1.287 . S
C4051 C4052 1.524 . S
C4051 H4054 0.999 . S
C4052 H4022 0.950 . S
C4052 C4051 1.524 . S
C4052 C4053 1.415 . S
C4053 H4023 0.950 . S
C4053 C4048 1.363 . S
C4053 C4052 1.415 . S
H4054 C4051 0.999 . S
H4055 C4036 0.913 . S
H4056 C4074 0.951 . S
H4057 C4076 0.951 . S
H4058 C4078 0.950 . S
H4059 C4079 0.950 . S
H4060 C4081 0.950 . S
H4061 C4084 0.950 . S
H4062 C4085 0.950 . S
H4063 C4087 0.950 . S
H4064 C4088 0.950 . S
H4065 C4089 0.951 . S
H4066 C4091 0.951 . S
H4067 C4093 0.950 . S
H4068 C4094 0.950 . S
H4069 C4096 0.950 . S
H4070 C4099 0.950 . S
H4071 C4100 0.950 . S
H4072 C4102 0.950 . S
H4073 C4103 0.950 . S
C4074 H4056 0.951 . S
C4074 C4075 1.366 . S
C4074 C4076 1.388 . S
C4075 C4074 1.366 . S
C4075 C4079 1.385 . S
C4076 H4057 0.951 . S
C4076 C4074 1.388 . S
C4076 C4077 1.366 . S
C4077 C4076 1.366 . S
C4077 C4078 1.414 . S
C4077 C4080 1.499 . S
C4078 H4058 0.950 . S
C4078 C4077 1.414 . S
C4078 C4079 1.374 . S
C4079 H4059 0.950 . S
C4079 C4075 1.385 . S
C4079 C4078 1.374 . S
C4080 C4077 1.499 . S
C4080 C4081 1.373 . S
C4080 C4082 1.389 . S
C4081 H4060 0.950 . S
C4081 C4080 1.373 . S
C4081 C4097 1.377 . S
C4082 C4080 1.389 . S
C4082 C4083 1.524 . S
C4082 C4096 1.377 . S
C4083 C4082 1.524 . S
C4083 C4084 1.397 . S
C4083 C4088 1.363 . S
C4084 H4061 0.950 . S
C4084 C4083 1.397 . S
C4084 C4085 1.334 . S
C4085 H4062 0.950 . S
C4085 C4084 1.334 . S
C4085 C4086 1.287 . S
C4086 C4085 1.287 . S
C4086 C4087 1.524 . S
C4086 H4105 0.913 . S
C4087 H4063 0.950 . S
C4087 C4086 1.524 . S
C4087 C4088 1.415 . S
C4088 H4064 0.950 . S
C4088 C4083 1.363 . S
C4088 C4087 1.415 . S
C4089 H4065 0.951 . S
C4089 C4090 1.366 . S
C4089 C4091 1.388 . S
C4090 C4089 1.366 . S
C4090 C4094 1.385 . S
C4091 H4066 0.951 . S
C4091 C4089 1.388 . S
C4091 C4092 1.366 . S
C4092 C4091 1.366 . S
C4092 C4093 1.414 . S
C4092 C4095 1.499 . S
C4093 H4067 0.950 . S
C4093 C4092 1.414 . S
C4093 C4094 1.374 . S
C4094 H4068 0.950 . S
C4094 C4090 1.385 . S
C4094 C4093 1.374 . S
C4095 C4092 1.499 . S
C4095 C4096 1.373 . S
C4095 C4097 1.389 . S
C4096 H4069 0.950 . S
C4096 C4082 1.377 . S
C4096 C4095 1.373 . S
C4097 C4081 1.377 . S
C4097 C4095 1.389 . S
C4097 C4098 1.524 . S
C4098 C4097 1.524 . S
C4098 C4099 1.397 . S
C4098 C4103 1.363 . S
C4099 H4070 0.950 . S
C4099 C4098 1.397 . S
C4099 C4100 1.334 . S
C4100 H4071 0.950 . S
C4100 C4099 1.334 . S
C4100 C4101 1.287 . S
C4101 C4100 1.287 . S
C4101 C4102 1.524 . S
C4101 H4104 0.999 . S
C4102 H4072 0.950 . S
C4102 C4101 1.524 . S
C4102 C4103 1.415 . S
C4103 H4073 0.950 . S
C4103 C4098 1.363 . S
C4103 C4102 1.415 . S
H4104 C4101 0.999 . S
H4105 C4086 0.913 . S
H4106 C4124 0.951 . S
H4107 C4126 0.951 . S
H4108 C4128 0.950 . S
H4109 C4129 0.950 . S
H4110 C4131 0.904 1_556 S
H4111 C4134 0.950 . S
H4112 C4135 0.950 . S
H4113 C4137 0.950 . S
H4114 C4138 0.950 . S
H4115 C4139 0.951 . S
H4116 C4141 0.951 . S
H4117 C4143 0.950 . S
H4118 C4144 0.950 . S
H4119 C4146 0.950 . S
H4120 C4149 0.950 . S
H4121 C4150 0.950 . S
H4122 C4152 0.950 . S
H4123 C4153 0.950 . S
C4124 H4106 0.951 . S
C4124 C4125 1.366 . S
C4124 C4126 1.388 . S
C4125 C4124 1.366 . S
C4125 C4129 1.385 . S
C4126 H4107 0.951 . S
C4126 C4124 1.388 . S
C4126 C4127 1.366 . S
C4127 C4126 1.366 . S
C4127 C4128 1.414 . S
C4127 C4130 1.499 . S
C4128 H4108 0.950 . S
C4128 C4127 1.414 . S
C4128 C4129 1.374 . S
C4129 H4109 0.950 . S
C4129 C4125 1.385 . S
C4129 C4128 1.374 . S
C4130 C4127 1.499 . S
C4130 C4131 1.417 . S
C4130 C4132 1.389 . S
C4131 H4110 0.904 1_554 S
C4131 C4130 1.417 . S
C4131 C4147 1.382 . S
C4132 C4130 1.389 . S
C4132 C4133 1.524 . S
C4132 C4146 1.377 . S
C4133 C4132 1.524 . S
C4133 C4134 1.397 . S
C4133 C4138 1.363 . S
C4134 H4111 0.950 . S
C4134 C4133 1.397 . S
C4134 C4135 1.334 . S
C4135 H4112 0.950 . S
C4135 C4134 1.334 . S
C4135 C4136 1.287 . S
C4136 C4135 1.287 . S
C4136 C4137 1.524 . S
C4136 H4155 0.913 . S
C4137 H4113 0.950 . S
C4137 C4136 1.524 . S
C4137 C4138 1.415 . S
C4138 H4114 0.950 . S
C4138 C4133 1.363 . S
C4138 C4137 1.415 . S
C4139 H4115 0.951 . S
C4139 C4140 1.366 . S
C4139 C4141 1.388 . S
C4140 C4139 1.366 . S
C4140 C4144 1.385 . S
C4141 H4116 0.951 . S
C4141 C4139 1.388 . S
C4141 C4142 1.366 . S
C4142 C4141 1.366 . S
C4142 C4143 1.414 . S
C4142 C4145 1.499 . S
C4143 H4117 0.950 . S
C4143 C4142 1.414 . S
C4143 C4144 1.374 . S
C4144 H4118 0.950 . S
C4144 C4140 1.385 . S
C4144 C4143 1.374 . S
C4145 C4142 1.499 . S
C4145 C4146 1.373 . S
C4145 C4147 1.389 . S
C4146 H4119 0.950 . S
C4146 C4132 1.377 . S
C4146 C4145 1.373 . S
C4147 C4131 1.382 . S
C4147 C4145 1.389 . S
C4147 C4148 1.524 1_554 S
C4148 C4147 1.524 1_556 S
C4148 C4149 1.397 . S
C4148 C4153 1.363 . S
C4149 H4120 0.950 . S
C4149 C4148 1.397 . S
C4149 C4150 1.334 . S
C4150 H4121 0.950 . S
C4150 C4149 1.334 . S
C4150 C4151 1.287 . S
C4151 C4150 1.287 . S
C4151 C4152 1.524 . S
C4151 H4154 0.999 . S
C4152 H4122 0.950 . S
C4152 C4151 1.524 . S
C4152 C4153 1.415 . S
C4153 H4123 0.950 . S
C4153 C4148 1.363 . S
C4153 C4152 1.415 . S
H4154 C4151 0.999 . S
H4155 C4136 0.913 . S
H4156 C4174 0.951 . S
H4157 C4176 0.951 . S
H4158 C4178 0.950 . S
H4159 C4179 0.950 . S
H4160 C4181 0.950 . S
H4161 C4184 0.950 . S
H4162 C4185 0.950 . S
H4163 C4187 0.950 . S
H4164 C4188 0.950 . S
H4165 C4189 0.951 . S
H4166 C4191 0.951 . S
H4167 C4193 0.950 . S
H4168 C4194 0.950 . S
H4169 C4196 0.950 . S
H4170 C4199 0.950 . S
H4171 C4200 0.950 . S
H4172 C4202 0.950 . S
H4173 C4203 0.950 . S
C4174 H4156 0.951 . S
C4174 C4175 1.366 . S
C4174 C4176 1.388 . S
C4175 C4174 1.366 . S
C4175 C4179 1.385 . S
C4176 H4157 0.951 . S
C4176 C4174 1.388 . S
C4176 C4177 1.366 . S
C4177 C4176 1.366 . S
C4177 C4178 1.414 . S
C4177 C4180 1.499 . S
C4178 H4158 0.950 . S
C4178 C4177 1.414 . S
C4178 C4179 1.374 . S
C4179 H4159 0.950 . S
C4179 C4175 1.385 . S
C4179 C4178 1.374 . S
C4180 C4177 1.499 . S
C4180 C4181 1.373 . S
C4180 C4182 1.389 . S
C4181 H4160 0.950 . S
C4181 C4180 1.373 . S
C4181 C4197 1.377 . S
C4182 C4180 1.389 . S
C4182 C4183 1.524 . S
C4182 C4196 1.377 . S
C4183 C4182 1.524 . S
C4183 C4184 1.397 . S
C4183 C4188 1.363 . S
C4184 H4161 0.950 . S
C4184 C4183 1.397 . S
C4184 C4185 1.334 . S
C4185 H4162 0.950 . S
C4185 C4184 1.334 . S
C4185 C4186 1.287 . S
C4186 C4185 1.287 . S
C4186 C4187 1.524 . S
C4186 H4205 0.913 . S
C4187 H4163 0.950 . S
C4187 C4186 1.524 . S
C4187 C4188 1.415 . S
C4188 H4164 0.950 . S
C4188 C4183 1.363 . S
C4188 C4187 1.415 . S
C4189 H4165 0.951 . S
C4189 C4190 1.366 . S
C4189 C4191 1.388 . S
C4190 C4189 1.366 . S
C4190 C4194 1.385 . S
C4191 H4166 0.951 . S
C4191 C4189 1.388 . S
C4191 C4192 1.366 . S
C4192 C4191 1.366 . S
C4192 C4193 1.414 . S
C4192 C4195 1.499 . S
C4193 H4167 0.950 . S
C4193 C4192 1.414 . S
C4193 C4194 1.374 . S
C4194 H4168 0.950 . S
C4194 C4190 1.385 . S
C4194 C4193 1.374 . S
C4195 C4192 1.499 . S
C4195 C4196 1.373 . S
C4195 C4197 1.389 . S
C4196 H4169 0.950 . S
C4196 C4182 1.377 . S
C4196 C4195 1.373 . S
C4197 C4181 1.377 . S
C4197 C4195 1.389 . S
C4197 C4198 1.524 . S
C4198 C4197 1.524 . S
C4198 C4199 1.397 . S
C4198 C4203 1.363 . S
C4199 H4170 0.950 . S
C4199 C4198 1.397 . S
C4199 C4200 1.334 . S
C4200 H4171 0.950 . S
C4200 C4199 1.334 . S
C4200 C4201 1.287 . S
C4201 C4200 1.287 . S
C4201 C4202 1.524 . S
C4201 H4204 0.999 . S
C4202 H4172 0.950 . S
C4202 C4201 1.524 . S
C4202 C4203 1.415 . S
C4203 H4173 0.950 . S
C4203 C4198 1.363 . S
C4203 C4202 1.415 . S
H4204 C4201 0.999 . S
H4205 C4186 0.913 . S
H4206 C4224 0.951 . S
H4207 C4226 0.951 . S
H4208 C4228 0.950 . S
H4209 C4229 0.950 . S
H4210 C4231 0.950 . S
H4211 C4234 0.950 . S
H4212 C4235 0.950 . S
H4213 C4237 0.950 . S
H4214 C4238 0.950 . S
H4215 C4239 0.951 . S
H4216 C4241 0.951 . S
H4217 C4243 0.950 . S
H4218 C4244 0.950 . S
H4219 C4246 0.950 . S
H4220 C4249 0.950 . S
H4221 C4250 0.950 . S
H4222 C4252 0.950 . S
H4223 C4253 0.950 . S
C4224 H4206 0.951 . S
C4224 C4225 1.366 . S
C4224 C4226 1.388 . S
C4225 C4224 1.366 . S
C4225 C4229 1.385 . S
C4226 H4207 0.951 . S
C4226 C4224 1.388 . S
C4226 C4227 1.366 . S
C4227 C4226 1.366 . S
C4227 C4228 1.414 . S
C4227 C4230 1.499 . S
C4228 H4208 0.950 . S
C4228 C4227 1.414 . S
C4228 C4229 1.374 . S
C4229 H4209 0.950 . S
C4229 C4225 1.385 . S
C4229 C4228 1.374 . S
C4230 C4227 1.499 . S
C4230 C4231 1.373 . S
C4230 C4232 1.389 . S
C4231 H4210 0.950 . S
C4231 C4230 1.373 . S
C4231 C4247 1.377 . S
C4232 C4230 1.389 . S
C4232 C4233 1.524 . S
C4232 C4246 1.377 . S
C4233 C4232 1.524 . S
C4233 C4234 1.397 . S
C4233 C4238 1.363 . S
C4234 H4211 0.950 . S
C4234 C4233 1.397 . S
C4234 C4235 1.334 . S
C4235 H4212 0.950 . S
C4235 C4234 1.334 . S
C4235 C4236 1.287 . S
C4236 C4235 1.287 . S
C4236 C4237 1.524 . S
C4236 H4255 0.913 . S
C4237 H4213 0.950 . S
C4237 C4236 1.524 . S
C4237 C4238 1.415 . S
C4238 H4214 0.950 . S
C4238 C4233 1.363 . S
C4238 C4237 1.415 . S
C4239 H4215 0.951 . S
C4239 C4240 1.366 . S
C4239 C4241 1.388 . S
C4240 C4239 1.366 . S
C4240 C4244 1.385 . S
C4241 H4216 0.951 . S
C4241 C4239 1.388 . S
C4241 C4242 1.366 . S
C4242 C4241 1.366 . S
C4242 C4243 1.414 . S
C4242 C4245 1.499 . S
C4243 H4217 0.950 . S
C4243 C4242 1.414 . S
C4243 C4244 1.374 . S
C4244 H4218 0.950 . S
C4244 C4240 1.385 . S
C4244 C4243 1.374 . S
C4245 C4242 1.499 . S
C4245 C4246 1.373 . S
C4245 C4247 1.389 . S
C4246 H4219 0.950 . S
C4246 C4232 1.377 . S
C4246 C4245 1.373 . S
C4247 C4231 1.377 . S
C4247 C4245 1.389 . S
C4247 C4248 1.524 . S
C4248 C4247 1.524 . S
C4248 C4249 1.397 . S
C4248 C4253 1.363 . S
C4249 H4220 0.950 . S
C4249 C4248 1.397 . S
C4249 C4250 1.334 . S
C4250 H4221 0.950 . S
C4250 C4249 1.334 . S
C4250 C4251 1.287 . S
C4251 C4250 1.287 . S
C4251 C4252 1.524 . S
C4251 H4254 0.999 . S
C4252 H4222 0.950 . S
C4252 C4251 1.524 . S
C4252 C4253 1.415 . S
C4253 H4223 0.950 . S
C4253 C4248 1.363 . S
C4253 C4252 1.415 . S
H4254 C4251 0.999 . S
H4255 C4236 0.913 . S
H4256 C4274 0.951 . S
H4257 C4276 0.951 . S
H4258 C4278 0.950 . S
H4259 C4279 0.950 . S
H4260 C4281 0.950 . S
H4261 C4284 0.950 . S
H4262 C4285 0.950 . S
H4263 C4287 0.950 . S
H4264 C4288 0.950 . S
H4265 C4289 0.951 . S
H4266 C4291 0.951 . S
H4267 C4293 0.950 . S
H4268 C4294 0.950 . S
H4269 C4296 0.950 . S
H4270 C4299 0.950 . S
H4271 C4300 0.950 . S
H4272 C4302 0.950 . S
H4273 C4303 0.950 . S
C4274 H4256 0.951 . S
C4274 C4275 1.366 . S
C4274 C4276 1.388 . S
C4275 C4274 1.366 . S
C4275 C4279 1.385 . S
C4276 H4257 0.951 . S
C4276 C4274 1.388 . S
C4276 C4277 1.366 . S
C4277 C4276 1.366 . S
C4277 C4278 1.414 . S
C4277 C4280 1.499 . S
C4278 H4258 0.950 . S
C4278 C4277 1.414 . S
C4278 C4279 1.374 . S
C4279 H4259 0.950 . S
C4279 C4275 1.385 . S
C4279 C4278 1.374 . S
C4280 C4277 1.499 . S
C4280 C4281 1.373 . S
C4280 C4282 1.389 . S
C4281 H4260 0.950 . S
C4281 C4280 1.373 . S
C4281 C4297 1.377 . S
C4282 C4280 1.389 . S
C4282 C4283 1.524 . S
C4282 C4296 1.377 . S
C4283 C4282 1.524 . S
C4283 C4284 1.397 . S
C4283 C4288 1.363 . S
C4284 H4261 0.950 . S
C4284 C4283 1.397 . S
C4284 C4285 1.334 . S
C4285 H4262 0.950 . S
C4285 C4284 1.334 . S
C4285 C4286 1.287 . S
C4286 C4285 1.287 . S
C4286 C4287 1.524 . S
C4286 H4305 0.913 . S
C4287 H4263 0.950 . S
C4287 C4286 1.524 . S
C4287 C4288 1.415 . S
C4288 H4264 0.950 . S
C4288 C4283 1.363 . S
C4288 C4287 1.415 . S
C4289 H4265 0.951 . S
C4289 C4290 1.366 . S
C4289 C4291 1.388 . S
C4290 C4289 1.366 . S
C4290 C4294 1.385 . S
C4291 H4266 0.951 . S
C4291 C4289 1.388 . S
C4291 C4292 1.366 . S
C4292 C4291 1.366 . S
C4292 C4293 1.414 . S
C4292 C4295 1.499 . S
C4293 H4267 0.950 . S
C4293 C4292 1.414 . S
C4293 C4294 1.374 . S
C4294 H4268 0.950 . S
C4294 C4290 1.385 . S
C4294 C4293 1.374 . S
C4295 C4292 1.499 . S
C4295 C4296 1.373 . S
C4295 C4297 1.389 . S
C4296 H4269 0.950 . S
C4296 C4282 1.377 . S
C4296 C4295 1.373 . S
C4297 C4281 1.377 . S
C4297 C4295 1.389 . S
C4297 C4298 1.524 . S
C4298 C4297 1.524 . S
C4298 C4299 1.397 . S
C4298 C4303 1.363 . S
C4299 H4270 0.950 . S
C4299 C4298 1.397 . S
C4299 C4300 1.334 . S
C4300 H4271 0.950 . S
C4300 C4299 1.334 . S
C4300 C4301 1.287 . S
C4301 C4300 1.287 . S
C4301 C4302 1.524 . S
C4301 H4304 0.999 . S
C4302 H4272 0.950 . S
C4302 C4301 1.524 . S
C4302 C4303 1.415 . S
C4303 H4273 0.950 . S
C4303 C4298 1.363 . S
C4303 C4302 1.415 . S
H4304 C4301 0.999 . S
H4305 C4286 0.913 . S
H4306 C4324 0.951 . S
H4307 C4326 0.951 . S
H4308 C4328 0.950 . S
H4309 C4329 0.950 . S
H4310 C4331 0.950 . S
H4311 C4334 0.950 . S
H4312 C4335 0.950 . S
H4313 C4337 0.950 . S
H4314 C4338 0.950 . S
H4315 C4339 0.951 . S
H4316 C4341 0.951 . S
H4317 C4343 0.950 . S
H4318 C4344 0.950 . S
H4319 C4346 0.950 . S
H4320 C4349 0.950 . S
H4321 C4350 0.950 . S
H4322 C4352 0.950 . S
H4323 C4353 0.950 . S
C4324 H4306 0.951 . S
C4324 C4325 1.366 . S
C4324 C4326 1.388 . S
C4325 C4324 1.366 . S
C4325 C4329 1.385 . S
C4326 H4307 0.951 . S
C4326 C4324 1.388 . S
C4326 C4327 1.366 . S
C4327 C4326 1.366 . S
C4327 C4328 1.414 . S
C4327 C4330 1.499 . S
C4328 H4308 0.950 . S
C4328 C4327 1.414 . S
C4328 C4329 1.374 . S
C4329 H4309 0.950 . S
C4329 C4325 1.385 . S
C4329 C4328 1.374 . S
C4330 C4327 1.499 . S
C4330 C4331 1.373 . S
C4330 C4332 1.389 . S
C4331 H4310 0.950 . S
C4331 C4330 1.373 . S
C4331 C4347 1.377 . S
C4332 C4330 1.389 . S
C4332 C4333 1.524 . S
C4332 C4346 1.377 . S
C4333 C4332 1.524 . S
C4333 C4334 1.397 . S
C4333 C4338 1.363 . S
C4334 H4311 0.950 . S
C4334 C4333 1.397 . S
C4334 C4335 1.334 . S
C4335 H4312 0.950 . S
C4335 C4334 1.334 . S
C4335 C4336 1.287 . S
C4336 C4335 1.287 . S
C4336 C4337 1.524 . S
C4336 H4355 0.913 . S
C4337 H4313 0.950 . S
C4337 C4336 1.524 . S
C4337 C4338 1.415 . S
C4338 H4314 0.950 . S
C4338 C4333 1.363 . S
C4338 C4337 1.415 . S
C4339 H4315 0.951 . S
C4339 C4340 1.366 . S
C4339 C4341 1.388 . S
C4340 C4339 1.366 . S
C4340 C4344 1.385 . S
C4341 H4316 0.951 . S
C4341 C4339 1.388 . S
C4341 C4342 1.366 . S
C4342 C4341 1.366 . S
C4342 C4343 1.414 . S
C4342 C4345 1.499 . S
C4343 H4317 0.950 . S
C4343 C4342 1.414 . S
C4343 C4344 1.374 . S
C4344 H4318 0.950 . S
C4344 C4340 1.385 . S
C4344 C4343 1.374 . S
C4345 C4342 1.499 . S
C4345 C4346 1.373 . S
C4345 C4347 1.389 . S
C4346 H4319 0.950 . S
C4346 C4332 1.377 . S
C4346 C4345 1.373 . S
C4347 C4331 1.377 . S
C4347 C4345 1.389 . S
C4347 C4348 1.524 . S
C4348 C4347 1.524 . S
C4348 C4349 1.397 . S
C4348 C4353 1.363 . S
C4349 H4320 0.950 . S
C4349 C4348 1.397 . S
C4349 C4350 1.334 . S
C4350 H4321 0.950 . S
C4350 C4349 1.334 . S
C4350 C4351 1.287 . S
C4351 C4350 1.287 . S
C4351 C4352 1.524 . S
C4351 H4354 0.999 . S
C4352 H4322 0.950 . S
C4352 C4351 1.524 . S
C4352 C4353 1.415 . S
C4353 H4323 0.950 . S
C4353 C4348 1.363 . S
C4353 C4352 1.415 . S
H4354 C4351 0.999 . S
H4355 C4336 0.913 . S
H4356 C4374 0.951 . S
H4357 C4376 0.951 . S
H4358 C4378 0.916 1_655 S
H4359 C4379 0.950 1_655 S
H4360 C4381 0.950 . S
H4361 C4384 0.958 . S
H4362 C4385 0.950 . S
H4363 C4387 0.950 . S
H4364 C4388 0.950 . S
H4365 C4389 0.950 . S
H4366 C4391 0.932 1_655 S
H4367 C4393 0.950 . S
H4368 C4394 0.950 . S
H4369 C4396 0.950 . S
H4370 C4399 0.950 . S
H4371 C4400 0.950 . S
H4372 C4402 0.950 . S
H4373 C4403 0.950 . S
C4374 H4356 0.951 . S
C4374 C4375 1.366 . S
C4374 C4376 1.388 . S
C4375 C4374 1.366 . S
C4375 C4379 1.385 . S
C4376 H4357 0.951 . S
C4376 C4374 1.388 . S
C4376 C4377 1.366 . S
C4377 C4376 1.366 . S
C4377 C4378 1.456 . S
C4377 C4380 1.499 . S
C4378 H4358 0.916 1_455 S
C4378 C4377 1.456 . S
C4378 C4379 1.368 . S
C4379 H4359 0.950 1_455 S
C4379 C4375 1.385 . S
C4379 C4378 1.368 . S
C4380 C4377 1.499 . S
C4380 C4381 1.373 . S
C4380 C4382 1.389 . S
C4381 H4360 0.950 . S
C4381 C4380 1.373 . S
C4381 C4397 1.377 . S
C4382 C4380 1.389 . S
C4382 C4383 1.524 . S
C4382 C4396 1.377 . S
C4383 C4382 1.524 . S
C4383 C4384 1.397 . S
C4383 C4388 1.363 . S
C4384 H4361 0.958 . S
C4384 C4383 1.397 . S
C4384 C4385 1.334 . S
C4385 H4362 0.950 . S
C4385 C4384 1.334 . S
C4385 C4386 1.287 . S
C4386 C4385 1.287 . S
C4386 C4387 1.524 . S
C4386 H4405 0.913 . S
C4387 H4363 0.950 . S
C4387 C4386 1.524 . S
C4387 C4388 1.415 . S
C4388 H4364 0.950 . S
C4388 C4383 1.363 . S
C4388 C4387 1.415 . S
C4389 H4365 0.950 . S
C4389 C4390 1.367 1_655 S
C4389 C4391 1.391 1_655 S
C4390 C4389 1.367 1_455 S
C4390 C4394 1.385 . S
C4391 H4366 0.932 1_455 S
C4391 C4389 1.391 1_455 S
C4391 C4392 1.381 . S
C4392 C4391 1.381 . S
C4392 C4393 1.414 . S
C4392 C4395 1.499 . S
C4393 H4367 0.950 . S
C4393 C4392 1.414 . S
C4393 C4394 1.374 . S
C4394 H4368 0.950 . S
C4394 C4390 1.385 . S
C4394 C4393 1.374 . S
C4395 C4392 1.499 . S
C4395 C4396 1.373 . S
C4395 C4397 1.389 . S
C4396 H4369 0.950 . S
C4396 C4382 1.377 . S
C4396 C4395 1.373 . S
C4397 C4381 1.377 . S
C4397 C4395 1.389 . S
C4397 C4398 1.524 . S
C4398 C4397 1.524 . S
C4398 C4399 1.397 . S
C4398 C4403 1.363 1_455 S
C4399 H4370 0.950 . S
C4399 C4398 1.397 . S
C4399 C4400 1.334 . S
C4400 H4371 0.950 . S
C4400 C4399 1.334 . S
C4400 C4401 1.287 . S
C4401 C4400 1.287 . S
C4401 C4402 1.524 1_455 S
C4401 H4404 0.999 . S
C4402 H4372 0.950 . S
C4402 C4401 1.524 1_655 S
C4402 C4403 1.415 . S
C4403 H4373 0.950 . S
C4403 C4398 1.363 1_655 S
C4403 C4402 1.415 . S
H4404 C4401 0.999 . S
H4405 C4386 0.913 . S
H4406 C4424 0.951 . S
H4407 C4426 0.951 . S
H4408 C4428 0.950 . S
H4409 C4429 0.950 . S
H4410 C4431 0.950 . S
H4411 C4434 0.950 . S
H4412 C4435 0.950 . S
H4413 C4437 0.950 . S
H4414 C4438 0.950 . S
H4415 C4439 0.951 . S
H4416 C4441 0.951 . S
H4417 C4443 0.950 . S
H4418 C4444 0.950 . S
H4419 C4446 0.950 . S
H4420 C4449 0.950 . S
H4421 C4450 0.950 . S
H4422 C4452 0.950 . S
H4423 C4453 0.950 . S
C4424 H4406 0.951 . S
C4424 C4425 1.366 . S
C4424 C4426 1.388 . S
C4425 C4424 1.366 . S
C4425 C4429 1.385 . S
C4426 H4407 0.951 . S
C4426 C4424 1.388 . S
C4426 C4427 1.366 . S
C4427 C4426 1.366 . S
C4427 C4428 1.414 . S
C4427 C4430 1.499 . S
C4428 H4408 0.950 . S
C4428 C4427 1.414 . S
C4428 C4429 1.374 . S
C4429 H4409 0.950 . S
C4429 C4425 1.385 . S
C4429 C4428 1.374 . S
C4430 C4427 1.499 . S
C4430 C4431 1.373 . S
C4430 C4432 1.389 . S
C4431 H4410 0.950 . S
C4431 C4430 1.373 . S
C4431 C4447 1.377 . S
C4432 C4430 1.389 . S
C4432 C4433 1.524 . S
C4432 C4446 1.377 . S
C4433 C4432 1.524 . S
C4433 C4434 1.397 . S
C4433 C4438 1.363 . S
C4434 H4411 0.950 . S
C4434 C4433 1.397 . S
C4434 C4435 1.334 . S
C4435 H4412 0.950 . S
C4435 C4434 1.334 . S
C4435 C4436 1.287 . S
C4436 C4435 1.287 . S
C4436 C4437 1.524 . S
C4436 H4455 0.913 . S
C4437 H4413 0.950 . S
C4437 C4436 1.524 . S
C4437 C4438 1.415 . S
C4438 H4414 0.950 . S
C4438 C4433 1.363 . S
C4438 C4437 1.415 . S
C4439 H4415 0.951 . S
C4439 C4440 1.366 . S
C4439 C4441 1.388 . S
C4440 C4439 1.366 . S
C4440 C4444 1.385 . S
C4441 H4416 0.951 . S
C4441 C4439 1.388 . S
C4441 C4442 1.366 . S
C4442 C4441 1.366 . S
C4442 C4443 1.414 . S
C4442 C4445 1.499 . S
C4443 H4417 0.950 . S
C4443 C4442 1.414 . S
C4443 C4444 1.374 . S
C4444 H4418 0.950 . S
C4444 C4440 1.385 . S
C4444 C4443 1.374 . S
C4445 C4442 1.499 . S
C4445 C4446 1.373 . S
C4445 C4447 1.389 . S
C4446 H4419 0.950 . S
C4446 C4432 1.377 . S
C4446 C4445 1.373 . S
C4447 C4431 1.377 . S
C4447 C4445 1.389 . S
C4447 C4448 1.524 . S
C4448 C4447 1.524 . S
C4448 C4449 1.397 . S
C4448 C4453 1.363 . S
C4449 H4420 0.950 . S
C4449 C4448 1.397 . S
C4449 C4450 1.334 . S
C4450 H4421 0.950 . S
C4450 C4449 1.334 . S
C4450 C4451 1.287 . S
C4451 C4450 1.287 . S
C4451 C4452 1.524 . S
C4451 H4454 0.999 . S
C4452 H4422 0.950 . S
C4452 C4451 1.524 . S
C4452 C4453 1.415 . S
C4453 H4423 0.950 . S
C4453 C4448 1.363 . S
C4453 C4452 1.415 . S
H4454 C4451 0.999 . S
H4455 C4436 0.913 . S
H4456 C4474 0.951 . S
H4457 C4476 0.951 . S
H4458 C4478 0.950 . S
H4459 C4479 0.950 . S
H4460 C4481 0.950 . S
H4461 C4484 0.950 . S
H4462 C4485 0.950 . S
H4463 C4487 0.950 . S
H4464 C4488 0.950 . S
H4465 C4489 0.951 1_554 S
H4466 C4491 0.951 . S
H4467 C4493 0.950 . S
H4468 C4494 0.950 . S
H4469 C4496 0.950 . S
H4470 C4499 0.950 . S
H4471 C4500 0.950 . S
H4472 C4502 0.950 . S
H4473 C4503 0.950 . S
C4474 H4456 0.951 . S
C4474 C4475 1.366 . S
C4474 C4476 1.388 . S
C4475 C4474 1.366 . S
C4475 C4479 1.385 . S
C4476 H4457 0.951 . S
C4476 C4474 1.388 . S
C4476 C4477 1.366 . S
C4477 C4476 1.366 . S
C4477 C4478 1.414 . S
C4477 C4480 1.499 . S
C4478 H4458 0.950 . S
C4478 C4477 1.414 . S
C4478 C4479 1.374 . S
C4479 H4459 0.950 . S
C4479 C4475 1.385 . S
C4479 C4478 1.374 . S
C4480 C4477 1.499 . S
C4480 C4481 1.373 . S
C4480 C4482 1.389 . S
C4481 H4460 0.950 . S
C4481 C4480 1.373 . S
C4481 C4497 1.377 . S
C4482 C4480 1.389 . S
C4482 C4483 1.524 . S
C4482 C4496 1.377 . S
C4483 C4482 1.524 . S
C4483 C4484 1.397 . S
C4483 C4488 1.363 . S
C4484 H4461 0.950 . S
C4484 C4483 1.397 . S
C4484 C4485 1.334 . S
C4485 H4462 0.950 . S
C4485 C4484 1.334 . S
C4485 C4486 1.287 . S
C4486 C4485 1.287 . S
C4486 C4487 1.524 . S
C4486 H4505 0.913 . S
C4487 H4463 0.950 . S
C4487 C4486 1.524 . S
C4487 C4488 1.415 . S
C4488 H4464 0.950 . S
C4488 C4483 1.363 . S
C4488 C4487 1.415 . S
C4489 H4465 0.951 1_556 S
C4489 C4490 1.366 . S
C4489 C4491 1.388 . S
C4490 C4489 1.366 . S
C4490 C4494 1.385 . S
C4491 H4466 0.951 . S
C4491 C4489 1.388 . S
C4491 C4492 1.366 . S
C4492 C4491 1.366 . S
C4492 C4493 1.414 . S
C4492 C4495 1.499 . S
C4493 H4467 0.950 . S
C4493 C4492 1.414 . S
C4493 C4494 1.374 . S
C4494 H4468 0.950 . S
C4494 C4490 1.385 . S
C4494 C4493 1.374 . S
C4495 C4492 1.499 . S
C4495 C4496 1.373 . S
C4495 C4497 1.389 . S
C4496 H4469 0.950 . S
C4496 C4482 1.377 . S
C4496 C4495 1.373 . S
C4497 C4481 1.377 . S
C4497 C4495 1.389 . S
C4497 C4498 1.524 . S
C4498 C4497 1.524 . S
C4498 C4499 1.397 . S
C4498 C4503 1.363 1_556 S
C4499 H4470 0.950 . S
C4499 C4498 1.397 . S
C4499 C4500 1.334 1_556 S
C4500 H4471 0.950 . S
C4500 C4499 1.334 1_554 S
C4500 C4501 1.287 . S
C4501 C4500 1.287 . S
C4501 C4502 1.524 . S
C4501 H4504 0.999 . S
C4502 H4472 0.950 . S
C4502 C4501 1.524 . S
C4502 C4503 1.415 . S
C4503 H4473 0.950 . S
C4503 C4498 1.363 1_554 S
C4503 C4502 1.415 . S
H4504 C4501 0.999 . S
H4505 C4486 0.913 . S
H4506 C4524 0.951 . S
H4507 C4526 0.951 . S
H4508 C4528 0.950 . S
H4509 C4529 0.950 . S
H4510 C4531 0.950 . S
H4511 C4534 0.950 . S
H4512 C4535 0.950 . S
H4513 C4537 0.950 . S
H4514 C4538 0.950 . S
H4515 C4539 0.951 . S
H4516 C4541 0.951 . S
H4517 C4543 0.950 . S
H4518 C4544 0.950 . S
H4519 C4546 0.950 . S
H4520 C4549 0.950 . S
H4521 C4550 0.950 . S
H4522 C4552 0.950 . S
H4523 C4553 0.950 . S
C4524 H4506 0.951 . S
C4524 C4525 1.366 . S
C4524 C4526 1.388 . S
C4525 C4524 1.366 . S
C4525 C4529 1.385 . S
C4526 H4507 0.951 . S
C4526 C4524 1.388 . S
C4526 C4527 1.366 . S
C4527 C4526 1.366 . S
C4527 C4528 1.414 . S
C4527 C4530 1.499 . S
C4528 H4508 0.950 . S
C4528 C4527 1.414 . S
C4528 C4529 1.374 . S
C4529 H4509 0.950 . S
C4529 C4525 1.385 . S
C4529 C4528 1.374 . S
C4530 C4527 1.499 . S
C4530 C4531 1.373 . S
C4530 C4532 1.389 . S
C4531 H4510 0.950 . S
C4531 C4530 1.373 . S
C4531 C4547 1.377 . S
C4532 C4530 1.389 . S
C4532 C4533 1.524 . S
C4532 C4546 1.377 . S
C4533 C4532 1.524 . S
C4533 C4534 1.397 . S
C4533 C4538 1.363 . S
C4534 H4511 0.950 . S
C4534 C4533 1.397 . S
C4534 C4535 1.334 . S
C4535 H4512 0.950 . S
C4535 C4534 1.334 . S
C4535 C4536 1.287 . S
C4536 C4535 1.287 . S
C4536 C4537 1.524 . S
C4536 H4555 0.913 . S
C4537 H4513 0.950 . S
C4537 C4536 1.524 . S
C4537 C4538 1.415 . S
C4538 H4514 0.950 . S
C4538 C4533 1.363 . S
C4538 C4537 1.415 . S
C4539 H4515 0.951 . S
C4539 C4540 1.366 . S
C4539 C4541 1.388 . S
C4540 C4539 1.366 . S
C4540 C4544 1.385 . S
C4541 H4516 0.951 . S
C4541 C4539 1.388 . S
C4541 C4542 1.366 . S
C4542 C4541 1.366 . S
C4542 C4543 1.414 . S
C4542 C4545 1.499 . S
C4543 H4517 0.950 . S
C4543 C4542 1.414 . S
C4543 C4544 1.374 . S
C4544 H4518 0.950 . S
C4544 C4540 1.385 . S
C4544 C4543 1.374 . S
C4545 C4542 1.499 . S
C4545 C4546 1.373 . S
C4545 C4547 1.389 . S
C4546 H4519 0.950 . S
C4546 C4532 1.377 . S
C4546 C4545 1.373 . S
C4547 C4531 1.377 . S
C4547 C4545 1.389 . S
C4547 C4548 1.524 . S
C4548 C4547 1.524 . S
C4548 C4549 1.397 . S
C4548 C4553 1.363 . S
C4549 H4520 0.950 . S
C4549 C4548 1.397 . S
C4549 C4550 1.334 . S
C4550 H4521 0.950 . S
C4550 C4549 1.334 . S
C4550 C4551 1.287 . S
C4551 C4550 1.287 . S
C4551 C4552 1.524 . S
C4551 H4554 0.999 . S
C4552 H4522 0.950 . S
C4552 C4551 1.524 . S
C4552 C4553 1.415 . S
C4553 H4523 0.950 . S
C4553 C4548 1.363 . S
C4553 C4552 1.415 . S
H4554 C4551 0.999 . S
H4555 C4536 0.913 . S
H4556 C4574 0.951 . S
H4557 C4576 0.951 . S
H4558 C4578 0.950 1_655 S
H4559 C4579 0.950 1_655 S
H4560 C4581 0.950 . S
H4561 C4584 0.923 1_655 S
H4562 C4585 0.950 . S
H4563 C4587 0.950 . S
H4564 C4588 0.950 . S
H4565 C4589 0.951 1_655 S
H4566 C4591 0.951 1_655 S
H4567 C4593 0.950 . S
H4568 C4594 0.950 . S
H4569 C4596 0.950 . S
H4570 C4599 0.950 . S
H4571 C4600 0.950 . S
H4572 C4602 0.950 . S
H4573 C4603 0.950 . S
C4574 H4556 0.951 . S
C4574 C4575 1.366 . S
C4574 C4576 1.388 . S
C4575 C4574 1.366 . S
C4575 C4579 1.385 . S
C4576 H4557 0.951 . S
C4576 C4574 1.388 . S
C4576 C4577 1.366 . S
C4577 C4576 1.366 . S
C4577 C4578 1.414 . S
C4577 C4580 1.499 . S
C4578 H4558 0.950 1_455 S
C4578 C4577 1.414 . S
C4578 C4579 1.374 . S
C4579 H4559 0.950 1_455 S
C4579 C4575 1.385 . S
C4579 C4578 1.374 . S
C4580 C4577 1.499 . S
C4580 C4581 1.373 . S
C4580 C4582 1.389 . S
C4581 H4560 0.950 . S
C4581 C4580 1.373 . S
C4581 C4597 1.377 . S
C4582 C4580 1.389 . S
C4582 C4583 1.524 . S
C4582 C4596 1.377 . S
C4583 C4582 1.524 . S
C4583 C4584 1.397 . S
C4583 C4588 1.363 . S
C4584 H4561 0.923 1_455 S
C4584 C4583 1.397 . S
C4584 C4585 1.334 . S
C4585 H4562 0.950 . S
C4585 C4584 1.334 . S
C4585 C4586 1.287 . S
C4586 C4585 1.287 . S
C4586 C4587 1.524 . S
C4586 H4605 0.913 . S
C4587 H4563 0.950 . S
C4587 C4586 1.524 . S
C4587 C4588 1.415 . S
C4588 H4564 0.950 . S
C4588 C4583 1.363 . S
C4588 C4587 1.415 . S
C4589 H4565 0.951 1_455 S
C4589 C4590 1.366 . S
C4589 C4591 1.388 . S
C4590 C4589 1.366 . S
C4590 C4594 1.385 . S
C4591 H4566 0.951 1_455 S
C4591 C4589 1.388 . S
C4591 C4592 1.366 . S
C4592 C4591 1.366 . S
C4592 C4593 1.414 . S
C4592 C4595 1.499 . S
C4593 H4567 0.950 . S
C4593 C4592 1.414 . S
C4593 C4594 1.374 . S
C4594 H4568 0.950 . S
C4594 C4590 1.385 . S
C4594 C4593 1.374 . S
C4595 C4592 1.499 . S
C4595 C4596 1.373 . S
C4595 C4597 1.389 . S
C4596 H4569 0.950 . S
C4596 C4582 1.377 . S
C4596 C4595 1.373 . S
C4597 C4581 1.377 . S
C4597 C4595 1.389 . S
C4597 C4598 1.524 . S
C4598 C4597 1.524 . S
C4598 C4599 1.397 . S
C4598 C4603 1.363 1_455 S
C4599 H4570 0.950 . S
C4599 C4598 1.397 . S
C4599 C4600 1.334 . S
C4600 H4571 0.950 . S
C4600 C4599 1.334 . S
C4600 C4601 1.287 . S
C4601 C4600 1.287 . S
C4601 C4602 1.524 1_455 S
C4601 H4604 0.999 . S
C4602 H4572 0.950 . S
C4602 C4601 1.524 1_655 S
C4602 C4603 1.415 . S
C4603 H4573 0.950 . S
C4603 C4598 1.363 1_655 S
C4603 C4602 1.415 . S
H4604 C4601 0.999 . S
H4605 C4586 0.913 . S
H4606 C4624 0.951 . S
H4607 C4626 0.951 . S
H4608 C4628 0.950 . S
H4609 C4629 0.950 . S
H4610 C4631 0.950 . S
H4611 C4634 0.950 . S
H4612 C4635 0.950 . S
H4613 C4637 0.950 . S
H4614 C4638 0.950 . S
H4615 C4639 0.951 . S
H4616 C4641 0.951 . S
H4617 C4643 0.950 . S
H4618 C4644 0.950 . S
H4619 C4646 0.950 . S
H4620 C4649 0.950 . S
H4621 C4650 0.950 . S
H4622 C4652 0.950 . S
H4623 C4653 0.950 . S
C4624 H4606 0.951 . S
C4624 C4625 1.366 . S
C4624 C4626 1.388 . S
C4625 C4624 1.366 . S
C4625 C4629 1.385 . S
C4626 H4607 0.951 . S
C4626 C4624 1.388 . S
C4626 C4627 1.366 . S
C4627 C4626 1.366 . S
C4627 C4628 1.414 . S
C4627 C4630 1.499 . S
C4628 H4608 0.950 . S
C4628 C4627 1.414 . S
C4628 C4629 1.374 . S
C4629 H4609 0.950 . S
C4629 C4625 1.385 . S
C4629 C4628 1.374 . S
C4630 C4627 1.499 . S
C4630 C4631 1.373 . S
C4630 C4632 1.389 . S
C4631 H4610 0.950 . S
C4631 C4630 1.373 . S
C4631 C4647 1.377 . S
C4632 C4630 1.389 . S
C4632 C4633 1.524 . S
C4632 C4646 1.377 . S
C4633 C4632 1.524 . S
C4633 C4634 1.397 . S
C4633 C4638 1.363 . S
C4634 H4611 0.950 . S
C4634 C4633 1.397 . S
C4634 C4635 1.334 . S
C4635 H4612 0.950 . S
C4635 C4634 1.334 . S
C4635 C4636 1.287 . S
C4636 C4635 1.287 . S
C4636 C4637 1.524 . S
C4636 H4655 0.913 . S
C4637 H4613 0.950 . S
C4637 C4636 1.524 . S
C4637 C4638 1.415 . S
C4638 H4614 0.950 . S
C4638 C4633 1.363 . S
C4638 C4637 1.415 . S
C4639 H4615 0.951 . S
C4639 C4640 1.366 . S
C4639 C4641 1.388 . S
C4640 C4639 1.366 . S
C4640 C4644 1.385 . S
C4641 H4616 0.951 . S
C4641 C4639 1.388 . S
C4641 C4642 1.366 . S
C4642 C4641 1.366 . S
C4642 C4643 1.414 . S
C4642 C4645 1.499 . S
C4643 H4617 0.950 . S
C4643 C4642 1.414 . S
C4643 C4644 1.374 . S
C4644 H4618 0.950 . S
C4644 C4640 1.385 . S
C4644 C4643 1.374 . S
C4645 C4642 1.499 . S
C4645 C4646 1.373 . S
C4645 C4647 1.389 . S
C4646 H4619 0.950 . S
C4646 C4632 1.377 . S
C4646 C4645 1.373 . S
C4647 C4631 1.377 . S
C4647 C4645 1.389 . S
C4647 C4648 1.524 . S
C4648 C4647 1.524 . S
C4648 C4649 1.397 . S
C4648 C4653 1.363 . S
C4649 H4620 0.950 . S
C4649 C4648 1.397 . S
C4649 C4650 1.334 . S
C4650 H4621 0.950 . S
C4650 C4649 1.334 . S
C4650 C4651 1.287 . S
C4651 C4650 1.287 . S
C4651 C4652 1.524 . S
C4651 H4654 0.999 . S
C4652 H4622 0.950 . S
C4652 C4651 1.524 . S
C4652 C4653 1.415 . S
C4653 H4623 0.950 . S
C4653 C4648 1.363 . S
C4653 C4652 1.415 . S
H4654 C4651 0.999 . S
H4655 C4636 0.913 . S
H4656 C4674 0.951 . S
H4657 C4676 0.951 . S
H4658 C4678 0.950 . S
H4659 C4679 0.950 . S
H4660 C4681 0.950 . S
H4661 C4684 0.950 . S
H4662 C4685 0.950 . S
H4663 C4687 0.950 . S
H4664 C4688 0.950 . S
H4665 C4689 0.951 . S
H4666 C4691 0.951 . S
H4667 C4693 0.950 . S
H4668 C4694 0.950 . S
H4669 C4696 0.950 . S
H4670 C4699 0.950 . S
H4671 C4700 0.950 . S
H4672 C4702 0.950 . S
H4673 C4703 0.950 . S
C4674 H4656 0.951 . S
C4674 C4675 1.366 . S
C4674 C4676 1.388 . S
C4675 C4674 1.366 . S
C4675 C4679 1.385 . S
C4676 H4657 0.951 . S
C4676 C4674 1.388 . S
C4676 C4677 1.366 . S
C4677 C4676 1.366 . S
C4677 C4678 1.414 . S
C4677 C4680 1.499 . S
C4678 H4658 0.950 . S
C4678 C4677 1.414 . S
C4678 C4679 1.374 . S
C4679 H4659 0.950 . S
C4679 C4675 1.385 . S
C4679 C4678 1.374 . S
C4680 C4677 1.499 . S
C4680 C4681 1.373 . S
C4680 C4682 1.389 . S
C4681 H4660 0.950 . S
C4681 C4680 1.373 . S
C4681 C4697 1.377 . S
C4682 C4680 1.389 . S
C4682 C4683 1.524 . S
C4682 C4696 1.377 . S
C4683 C4682 1.524 . S
C4683 C4684 1.397 . S
C4683 C4688 1.363 . S
C4684 H4661 0.950 . S
C4684 C4683 1.397 . S
C4684 C4685 1.334 . S
C4685 H4662 0.950 . S
C4685 C4684 1.334 . S
C4685 C4686 1.287 . S
C4686 C4685 1.287 . S
C4686 C4687 1.524 . S
C4686 H4705 0.913 . S
C4687 H4663 0.950 . S
C4687 C4686 1.524 . S
C4687 C4688 1.415 . S
C4688 H4664 0.950 . S
C4688 C4683 1.363 . S
C4688 C4687 1.415 . S
C4689 H4665 0.951 . S
C4689 C4690 1.366 . S
C4689 C4691 1.388 . S
C4690 C4689 1.366 . S
C4690 C4694 1.385 . S
C4691 H4666 0.951 . S
C4691 C4689 1.388 . S
C4691 C4692 1.366 . S
C4692 C4691 1.366 . S
C4692 C4693 1.414 . S
C4692 C4695 1.499 . S
C4693 H4667 0.950 . S
C4693 C4692 1.414 . S
C4693 C4694 1.374 . S
C4694 H4668 0.950 . S
C4694 C4690 1.385 . S
C4694 C4693 1.374 . S
C4695 C4692 1.499 . S
C4695 C4696 1.373 . S
C4695 C4697 1.389 . S
C4696 H4669 0.950 . S
C4696 C4682 1.377 . S
C4696 C4695 1.373 . S
C4697 C4681 1.377 . S
C4697 C4695 1.389 . S
C4697 C4698 1.524 . S
C4698 C4697 1.524 . S
C4698 C4699 1.397 . S
C4698 C4703 1.363 . S
C4699 H4670 0.950 . S
C4699 C4698 1.397 . S
C4699 C4700 1.334 . S
C4700 H4671 0.950 . S
C4700 C4699 1.334 . S
C4700 C4701 1.287 . S
C4701 C4700 1.287 . S
C4701 C4702 1.524 . S
C4701 H4704 0.999 . S
C4702 H4672 0.950 . S
C4702 C4701 1.524 . S
C4702 C4703 1.415 . S
C4703 H4673 0.950 . S
C4703 C4698 1.363 . S
C4703 C4702 1.415 . S
H4704 C4701 0.999 . S
H4705 C4686 0.913 . S
H4706 C4724 0.951 . S
H4707 C4726 0.951 . S
H4708 C4728 0.950 . S
H4709 C4729 0.950 . S
H4710 C4731 0.950 . S
H4711 C4734 0.950 . S
H4712 C4735 0.950 . S
H4713 C4737 0.950 . S
H4714 C4738 0.950 . S
H4715 C4739 0.951 . S
H4716 C4741 0.951 . S
H4717 C4743 0.950 . S
H4718 C4744 0.950 . S
H4719 C4746 0.950 . S
H4720 C4749 0.950 . S
H4721 C4750 0.950 . S
H4722 C4752 0.950 . S
H4723 C4753 0.950 . S
C4724 H4706 0.951 . S
C4724 C4725 1.366 . S
C4724 C4726 1.388 . S
C4725 C4724 1.366 . S
C4725 C4729 1.385 . S
C4726 H4707 0.951 . S
C4726 C4724 1.388 . S
C4726 C4727 1.366 . S
C4727 C4726 1.366 . S
C4727 C4728 1.414 . S
C4727 C4730 1.499 . S
C4728 H4708 0.950 . S
C4728 C4727 1.414 . S
C4728 C4729 1.374 . S
C4729 H4709 0.950 . S
C4729 C4725 1.385 . S
C4729 C4728 1.374 . S
C4730 C4727 1.499 . S
C4730 C4731 1.373 . S
C4730 C4732 1.389 . S
C4731 H4710 0.950 . S
C4731 C4730 1.373 . S
C4731 C4747 1.377 . S
C4732 C4730 1.389 . S
C4732 C4733 1.524 . S
C4732 C4746 1.377 . S
C4733 C4732 1.524 . S
C4733 C4734 1.397 . S
C4733 C4738 1.363 . S
C4734 H4711 0.950 . S
C4734 C4733 1.397 . S
C4734 C4735 1.334 . S
C4735 H4712 0.950 . S
C4735 C4734 1.334 . S
C4735 C4736 1.287 . S
C4736 C4735 1.287 . S
C4736 C4737 1.524 . S
C4736 H4755 0.913 . S
C4737 H4713 0.950 . S
C4737 C4736 1.524 . S
C4737 C4738 1.415 . S
C4738 H4714 0.950 . S
C4738 C4733 1.363 . S
C4738 C4737 1.415 . S
C4739 H4715 0.951 . S
C4739 C4740 1.366 . S
C4739 C4741 1.388 . S
C4740 C4739 1.366 . S
C4740 C4744 1.385 . S
C4741 H4716 0.951 . S
C4741 C4739 1.388 . S
C4741 C4742 1.366 . S
C4742 C4741 1.366 . S
C4742 C4743 1.414 . S
C4742 C4745 1.499 . S
C4743 H4717 0.950 . S
C4743 C4742 1.414 . S
C4743 C4744 1.374 . S
C4744 H4718 0.950 . S
C4744 C4740 1.385 . S
C4744 C4743 1.374 . S
C4745 C4742 1.499 . S
C4745 C4746 1.373 . S
C4745 C4747 1.389 . S
C4746 H4719 0.950 . S
C4746 C4732 1.377 . S
C4746 C4745 1.373 . S
C4747 C4731 1.377 . S
C4747 C4745 1.389 . S
C4747 C4748 1.524 . S
C4748 C4747 1.524 . S
C4748 C4749 1.397 . S
C4748 C4753 1.363 . S
C4749 H4720 0.950 . S
C4749 C4748 1.397 . S
C4749 C4750 1.334 . S
C4750 H4721 0.950 . S
C4750 C4749 1.334 . S
C4750 C4751 1.287 . S
C4751 C4750 1.287 . S
C4751 C4752 1.524 . S
C4751 H4754 0.999 . S
C4752 H4722 0.950 . S
C4752 C4751 1.524 . S
C4752 C4753 1.415 . S
C4753 H4723 0.950 . S
C4753 C4748 1.363 . S
C4753 C4752 1.415 . S
H4754 C4751 0.999 . S
H4755 C4736 0.913 . S
H4756 C4774 0.951 . S
H4757 C4776 0.951 . S
H4758 C4778 0.950 . S
H4759 C4779 0.950 . S
H4760 C4781 0.950 . S
H4761 C4784 0.950 . S
H4762 C4785 0.950 . S
H4763 C4787 0.931 1_455 S
H4764 C4788 0.950 . S
H4765 C4789 0.951 . S
H4766 C4791 0.951 . S
H4767 C4793 0.950 . S
H4768 C4794 0.935 1_455 S
H4769 C4796 0.950 . S
H4770 C4799 0.950 . S
H4771 C4800 0.950 . S
H4772 C4802 0.950 . S
H4773 C4803 0.950 . S
C4774 H4756 0.951 . S
C4774 C4775 1.366 . S
C4774 C4776 1.388 . S
C4775 C4774 1.366 . S
C4775 C4779 1.385 . S
C4776 H4757 0.951 . S
C4776 C4774 1.388 . S
C4776 C4777 1.366 . S
C4777 C4776 1.366 . S
C4777 C4778 1.414 . S
C4777 C4780 1.499 . S
C4778 H4758 0.950 . S
C4778 C4777 1.414 . S
C4778 C4779 1.374 . S
C4779 H4759 0.950 . S
C4779 C4775 1.385 . S
C4779 C4778 1.374 . S
C4780 C4777 1.499 . S
C4780 C4781 1.373 . S
C4780 C4782 1.389 . S
C4781 H4760 0.950 . S
C4781 C4780 1.373 . S
C4781 C4797 1.377 . S
C4782 C4780 1.389 . S
C4782 C4783 1.524 . S
C4782 C4796 1.377 . S
C4783 C4782 1.524 . S
C4783 C4784 1.397 . S
C4783 C4788 1.363 . S
C4784 H4761 0.950 . S
C4784 C4783 1.397 . S
C4784 C4785 1.334 . S
C4785 H4762 0.950 . S
C4785 C4784 1.334 . S
C4785 C4786 1.299 . S
C4786 C4785 1.299 . S
C4786 C4787 1.520 . S
C4786 H4805 0.897 1_655 S
C4787 H4763 0.931 1_655 S
C4787 C4786 1.520 . S
C4787 C4788 1.448 . S
C4788 H4764 0.950 . S
C4788 C4783 1.363 . S
C4788 C4787 1.448 . S
C4789 H4765 0.951 . S
C4789 C4790 1.366 . S
C4789 C4791 1.388 . S
C4790 C4789 1.366 . S
C4790 C4794 1.385 . S
C4791 H4766 0.951 . S
C4791 C4789 1.388 . S
C4791 C4792 1.366 . S
C4792 C4791 1.366 . S
C4792 C4793 1.414 . S
C4792 C4795 1.499 . S
C4793 H4767 0.950 . S
C4793 C4792 1.414 . S
C4793 C4794 1.374 . S
C4794 H4768 0.935 1_655 S
C4794 C4790 1.385 . S
C4794 C4793 1.374 . S
C4795 C4792 1.499 . S
C4795 C4796 1.373 . S
C4795 C4797 1.389 . S
C4796 H4769 0.950 . S
C4796 C4782 1.377 . S
C4796 C4795 1.373 . S
C4797 C4781 1.377 . S
C4797 C4795 1.389 . S
C4797 C4798 1.524 . S
C4798 C4797 1.524 . S
C4798 C4799 1.397 . S
C4798 C4803 1.363 . S
C4799 H4770 0.950 . S
C4799 C4798 1.397 . S
C4799 C4800 1.334 . S
C4800 H4771 0.950 . S
C4800 C4799 1.334 . S
C4800 C4801 1.287 . S
C4801 C4800 1.287 . S
C4801 C4802 1.524 . S
C4801 H4804 0.999 . S
C4802 H4772 0.950 . S
C4802 C4801 1.524 . S
C4802 C4803 1.415 . S
C4803 H4773 0.950 . S
C4803 C4798 1.363 . S
C4803 C4802 1.415 . S
H4804 C4801 0.999 . S
H4805 C4786 0.897 1_455 S
H4806 C4824 0.951 . S
H4807 C4826 0.951 . S
H4808 C4828 0.950 . S
H4809 C4829 0.950 . S
H4810 C4831 0.950 . S
H4811 C4834 0.950 . S
H4812 C4835 0.950 . S
H4813 C4837 0.950 . S
H4814 C4838 0.950 . S
H4815 C4839 0.951 . S
H4816 C4841 0.951 . S
H4817 C4843 0.950 . S
H4818 C4844 0.950 . S
H4819 C4846 0.950 . S
H4820 C4849 0.950 . S
H4821 C4850 0.950 . S
H4822 C4852 0.950 . S
H4823 C4853 0.950 . S
C4824 H4806 0.951 . S
C4824 C4825 1.366 . S
C4824 C4826 1.388 . S
C4825 C4824 1.366 . S
C4825 C4829 1.385 . S
C4826 H4807 0.951 . S
C4826 C4824 1.388 . S
C4826 C4827 1.366 . S
C4827 C4826 1.366 . S
C4827 C4828 1.414 . S
C4827 C4830 1.499 . S
C4828 H4808 0.950 . S
C4828 C4827 1.414 . S
C4828 C4829 1.374 . S
C4829 H4809 0.950 . S
C4829 C4825 1.385 . S
C4829 C4828 1.374 . S
C4830 C4827 1.499 . S
C4830 C4831 1.373 . S
C4830 C4832 1.389 . S
C4831 H4810 0.950 . S
C4831 C4830 1.373 . S
C4831 C4847 1.377 . S
C4832 C4830 1.389 . S
C4832 C4833 1.524 . S
C4832 C4846 1.377 . S
C4833 C4832 1.524 . S
C4833 C4834 1.397 . S
C4833 C4838 1.363 . S
C4834 H4811 0.950 . S
C4834 C4833 1.397 . S
C4834 C4835 1.334 . S
C4835 H4812 0.950 . S
C4835 C4834 1.334 . S
C4835 C4836 1.287 . S
C4836 C4835 1.287 . S
C4836 C4837 1.524 . S
C4836 H4855 0.913 . S
C4837 H4813 0.950 . S
C4837 C4836 1.524 . S
C4837 C4838 1.415 . S
C4838 H4814 0.950 . S
C4838 C4833 1.363 . S
C4838 C4837 1.415 . S
C4839 H4815 0.951 . S
C4839 C4840 1.366 . S
C4839 C4841 1.388 . S
C4840 C4839 1.366 . S
C4840 C4844 1.385 . S
C4841 H4816 0.951 . S
C4841 C4839 1.388 . S
C4841 C4842 1.366 . S
C4842 C4841 1.366 . S
C4842 C4843 1.414 . S
C4842 C4845 1.499 . S
C4843 H4817 0.950 . S
C4843 C4842 1.414 . S
C4843 C4844 1.374 . S
C4844 H4818 0.950 . S
C4844 C4840 1.385 . S
C4844 C4843 1.374 . S
C4845 C4842 1.499 . S
C4845 C4846 1.373 . S
C4845 C4847 1.389 . S
C4846 H4819 0.950 . S
C4846 C4832 1.377 . S
C4846 C4845 1.373 . S
C4847 C4831 1.377 . S
C4847 C4845 1.389 . S
C4847 C4848 1.524 . S
C4848 C4847 1.524 . S
C4848 C4849 1.397 . S
C4848 C4853 1.363 . S
C4849 H4820 0.950 . S
C4849 C4848 1.397 . S
C4849 C4850 1.334 . S
C4850 H4821 0.950 . S
C4850 C4849 1.334 . S
C4850 C4851 1.287 . S
C4851 C4850 1.287 . S
C4851 C4852 1.524 . S
C4851 H4854 0.999 . S
C4852 H4822 0.950 . S
C4852 C4851 1.524 . S
C4852 C4853 1.415 . S
C4853 H4823 0.950 . S
C4853 C4848 1.363 . S
C4853 C4852 1.415 . S
H4854 C4851 0.999 . S
H4855 C4836 0.913 . S
H4856 C4874 0.951 . S
H4857 C4876 0.951 . S
H4858 C4878 0.950 . S
H4859 C4879 0.950 . S
H4860 C4881 0.950 . S
H4861 C4884 0.950 . S
H4862 C4885 0.950 . S
H4863 C4887 0.950 . S
H4864 C4888 0.950 . S
H4865 C4889 0.951 . S
H4866 C4891 0.951 . S
H4867 C4893 0.950 . S
H4868 C4894 0.950 . S
H4869 C4896 0.950 . S
H4870 C4899 0.950 . S
H4871 C4900 0.950 . S
H4872 C4902 0.950 . S
H4873 C4903 0.950 . S
C4874 H4856 0.951 . S
C4874 C4875 1.366 . S
C4874 C4876 1.388 . S
C4875 C4874 1.366 . S
C4875 C4879 1.385 . S
C4876 H4857 0.951 . S
C4876 C4874 1.388 . S
C4876 C4877 1.366 . S
C4877 C4876 1.366 . S
C4877 C4878 1.414 . S
C4877 C4880 1.499 . S
C4878 H4858 0.950 . S
C4878 C4877 1.414 . S
C4878 C4879 1.374 . S
C4879 H4859 0.950 . S
C4879 C4875 1.385 . S
C4879 C4878 1.374 . S
C4880 C4877 1.499 . S
C4880 C4881 1.373 . S
C4880 C4882 1.389 . S
C4881 H4860 0.950 . S
C4881 C4880 1.373 . S
C4881 C4897 1.377 . S
C4882 C4880 1.389 . S
C4882 C4883 1.524 . S
C4882 C4896 1.377 . S
C4883 C4882 1.524 . S
C4883 C4884 1.397 . S
C4883 C4888 1.363 . S
C4884 H4861 0.950 . S
C4884 C4883 1.397 . S
C4884 C4885 1.334 . S
C4885 H4862 0.950 . S
C4885 C4884 1.334 . S
C4885 C4886 1.287 . S
C4886 C4885 1.287 . S
C4886 C4887 1.524 . S
C4886 H4905 0.913 . S
C4887 H4863 0.950 . S
C4887 C4886 1.524 . S
C4887 C4888 1.415 . S
C4888 H4864 0.950 . S
C4888 C4883 1.363 . S
C4888 C4887 1.415 . S
C4889 H4865 0.951 . S
C4889 C4890 1.366 . S
C4889 C4891 1.388 . S
C4890 C4889 1.366 . S
C4890 C4894 1.385 . S
C4891 H4866 0.951 . S
C4891 C4889 1.388 . S
C4891 C4892 1.366 . S
C4892 C4891 1.366 . S
C4892 C4893 1.414 . S
C4892 C4895 1.499 . S
C4893 H4867 0.950 . S
C4893 C4892 1.414 . S
C4893 C4894 1.374 . S
C4894 H4868 0.950 . S
C4894 C4890 1.385 . S
C4894 C4893 1.374 . S
C4895 C4892 1.499 . S
C4895 C4896 1.373 . S
C4895 C4897 1.389 . S
C4896 H4869 0.950 . S
C4896 C4882 1.377 . S
C4896 C4895 1.373 . S
C4897 C4881 1.377 . S
C4897 C4895 1.389 . S
C4897 C4898 1.524 . S
C4898 C4897 1.524 . S
C4898 C4899 1.397 . S
C4898 C4903 1.363 . S
C4899 H4870 0.950 . S
C4899 C4898 1.397 . S
C4899 C4900 1.334 . S
C4900 H4871 0.950 . S
C4900 C4899 1.334 . S
C4900 C4901 1.287 . S
C4901 C4900 1.287 . S
C4901 C4902 1.524 . S
C4901 H4904 0.999 . S
C4902 H4872 0.950 . S
C4902 C4901 1.524 . S
C4902 C4903 1.415 . S
C4903 H4873 0.950 . S
C4903 C4898 1.363 . S
C4903 C4902 1.415 . S
H4904 C4901 0.999 . S
H4905 C4886 0.913 . S
H4906 C4924 0.951 . S
H4907 C4926 0.951 . S
H4908 C4928 0.950 . S
H4909 C4929 0.950 . S
H4910 C4931 0.950 . S
H4911 C4934 0.950 . S
H4912 C4935 0.950 . S
H4913 C4937 0.950 . S
H4914 C4938 0.950 . S
H4915 C4939 0.951 . S
H4916 C4941 0.951 . S
H4917 C4943 0.950 . S
H4918 C4944 0.950 . S
H4919 C4946 0.950 . S
H4920 C4949 0.950 . S
H4921 C4950 0.950 . S
H4922 C4952 0.950 . S
H4923 C4953 0.950 . S
C4924 H4906 0.951 . S
C4924 C4925 1.366 . S
C4924 C4926 1.388 . S
C4925 C4924 1.366 . S
C4925 C4929 1.385 . S
C4926 H4907 0.951 . S
C4926 C4924 1.388 . S
C4926 C4927 1.366 . S
C4927 C4926 1.366 . S
C4927 C4928 1.414 . S
C4927 C4930 1.499 . S
C4928 H4908 0.950 . S
C4928 C4927 1.414 . S
C4928 C4929 1.374 . S
C4929 H4909 0.950 . S
C4929 C4925 1.385 . S
C4929 C4928 1.374 . S
C4930 C4927 1.499 . S
C4930 C4931 1.373 . S
C4930 C4932 1.389 . S
C4931 H4910 0.950 . S
C4931 C4930 1.373 . S
C4931 C4947 1.377 . S
C4932 C4930 1.389 . S
C4932 C4933 1.524 . S
C4932 C4946 1.377 . S
C4933 C4932 1.524 . S
C4933 C4934 1.397 . S
C4933 C4938 1.363 . S
C4934 H4911 0.950 . S
C4934 C4933 1.397 . S
C4934 C4935 1.334 . S
C4935 H4912 0.950 . S
C4935 C4934 1.334 . S
C4935 C4936 1.287 . S
C4936 C4935 1.287 . S
C4936 C4937 1.524 . S
C4936 H4955 0.913 . S
C4937 H4913 0.950 . S
C4937 C4936 1.524 . S
C4937 C4938 1.415 . S
C4938 H4914 0.950 . S
C4938 C4933 1.363 . S
C4938 C4937 1.415 . S
C4939 H4915 0.951 . S
C4939 C4940 1.366 . S
C4939 C4941 1.388 . S
C4940 C4939 1.366 . S
C4940 C4944 1.385 . S
C4941 H4916 0.951 . S
C4941 C4939 1.388 . S
C4941 C4942 1.366 . S
C4942 C4941 1.366 . S
C4942 C4943 1.414 . S
C4942 C4945 1.499 . S
C4943 H4917 0.950 . S
C4943 C4942 1.414 . S
C4943 C4944 1.374 . S
C4944 H4918 0.950 . S
C4944 C4940 1.385 . S
C4944 C4943 1.374 . S
C4945 C4942 1.499 . S
C4945 C4946 1.373 . S
C4945 C4947 1.389 . S
C4946 H4919 0.950 . S
C4946 C4932 1.377 . S
C4946 C4945 1.373 . S
C4947 C4931 1.377 . S
C4947 C4945 1.389 . S
C4947 C4948 1.524 . S
C4948 C4947 1.524 . S
C4948 C4949 1.397 . S
C4948 C4953 1.363 . S
C4949 H4920 0.950 . S
C4949 C4948 1.397 . S
C4949 C4950 1.334 . S
C4950 H4921 0.950 . S
C4950 C4949 1.334 . S
C4950 C4951 1.287 . S
C4951 C4950 1.287 . S
C4951 C4952 1.524 . S
C4951 H4954 0.999 . S
C4952 H4922 0.950 . S
C4952 C4951 1.524 . S
C4952 C4953 1.415 . S
C4953 H4923 0.950 . S
C4953 C4948 1.363 . S
C4953 C4952 1.415 . S
H4954 C4951 0.999 . S
H4955 C4936 0.913 . S
H4956 C4974 0.951 . S
H4957 C4976 0.951 . S
H4958 C4978 0.950 . S
H4959 C4979 0.950 . S
H4960 C4981 0.950 . S
H4961 C4984 0.950 . S
H4962 C4985 0.950 . S
H4963 C4987 0.950 . S
H4964 C4988 0.950 . S
H4965 C4989 0.951 1_455 S
H4966 C4991 0.951 . S
H4967 C4993 0.950 . S
H4968 C4994 0.950 . S
H4969 C4996 0.950 . S
H4970 C4999 0.950 . S
H4971 C5000 0.950 . S
H4972 C5002 0.950 . S
H4973 C5003 0.950 . S
C4974 H4956 0.951 . S
C4974 C4975 1.366 . S
C4974 C4976 1.388 . S
C4975 C4974 1.366 . S
C4975 C4979 1.385 . S
C4976 H4957 0.951 . S
C4976 C4974 1.388 . S
C4976 C4977 1.366 . S
C4977 C4976 1.366 . S
C4977 C4978 1.414 . S
C4977 C4980 1.499 . S
C4978 H4958 0.950 . S
C4978 C4977 1.414 . S
C4978 C4979 1.374 . S
C4979 H4959 0.950 . S
C4979 C4975 1.385 . S
C4979 C4978 1.374 . S
C4980 C4977 1.499 . S
C4980 C4981 1.373 . S
C4980 C4982 1.389 . S
C4981 H4960 0.950 . S
C4981 C4980 1.373 . S
C4981 C4997 1.377 . S
C4982 C4980 1.389 . S
C4982 C4983 1.524 . S
C4982 C4996 1.377 . S
C4983 C4982 1.524 . S
C4983 C4984 1.397 . S
C4983 C4988 1.363 . S
C4984 H4961 0.950 . S
C4984 C4983 1.397 . S
C4984 C4985 1.334 . S
C4985 H4962 0.950 . S
C4985 C4984 1.334 . S
C4985 C4986 1.287 . S
C4986 C4985 1.287 . S
C4986 C4987 1.524 . S
C4986 H5005 0.913 . S
C4987 H4963 0.950 . S
C4987 C4986 1.524 . S
C4987 C4988 1.415 . S
C4988 H4964 0.950 . S
C4988 C4983 1.363 . S
C4988 C4987 1.415 . S
C4989 H4965 0.951 1_655 S
C4989 C4990 1.366 . S
C4989 C4991 1.388 . S
C4990 C4989 1.366 . S
C4990 C4994 1.385 . S
C4991 H4966 0.951 . S
C4991 C4989 1.388 . S
C4991 C4992 1.366 . S
C4992 C4991 1.366 . S
C4992 C4993 1.414 . S
C4992 C4995 1.499 . S
C4993 H4967 0.950 . S
C4993 C4992 1.414 . S
C4993 C4994 1.374 . S
C4994 H4968 0.950 . S
C4994 C4990 1.385 . S
C4994 C4993 1.374 . S
C4995 C4992 1.499 . S
C4995 C4996 1.373 . S
C4995 C4997 1.389 . S
C4996 H4969 0.950 . S
C4996 C4982 1.377 . S
C4996 C4995 1.373 . S
C4997 C4981 1.377 . S
C4997 C4995 1.389 . S
C4997 C4998 1.524 . S
C4998 C4997 1.524 . S
C4998 C4999 1.397 . S
C4998 C5003 1.363 . S
C4999 H4970 0.950 . S
C4999 C4998 1.397 . S
C4999 C5000 1.334 . S
C5000 H4971 0.950 . S
C5000 C4999 1.334 . S
C5000 C5001 1.287 1_655 S
C5001 C5000 1.287 1_455 S
C5001 C5002 1.524 . S
C5001 H5004 0.999 . S
C5002 H4972 0.950 . S
C5002 C5001 1.524 . S
C5002 C5003 1.415 1_455 S
C5003 H4973 0.950 . S
C5003 C4998 1.363 . S
C5003 C5002 1.415 1_655 S
H5004 C5001 0.999 . S
H5005 C4986 0.913 . S
H5006 C5024 0.951 . S
H5007 C5026 0.951 . S
H5008 C5028 0.950 . S
H5009 C5029 0.950 . S
H5010 C5031 0.950 . S
H5011 C5034 0.950 . S
H5012 C5035 0.950 . S
H5013 C5037 0.950 . S
H5014 C5038 0.950 . S
H5015 C5039 0.951 . S
H5016 C5041 0.951 . S
H5017 C5043 0.950 . S
H5018 C5044 0.950 . S
H5019 C5046 0.950 . S
H5020 C5049 0.950 . S
H5021 C5050 0.950 . S
H5022 C5052 0.950 . S
H5023 C5053 0.950 . S
C5024 H5006 0.951 . S
C5024 C5025 1.366 . S
C5024 C5026 1.388 . S
C5025 C5024 1.366 . S
C5025 C5029 1.385 . S
C5026 H5007 0.951 . S
C5026 C5024 1.388 . S
C5026 C5027 1.366 . S
C5027 C5026 1.366 . S
C5027 C5028 1.414 . S
C5027 C5030 1.499 . S
C5028 H5008 0.950 . S
C5028 C5027 1.414 . S
C5028 C5029 1.374 . S
C5029 H5009 0.950 . S
C5029 C5025 1.385 . S
C5029 C5028 1.374 . S
C5030 C5027 1.499 . S
C5030 C5031 1.373 . S
C5030 C5032 1.389 . S
C5031 H5010 0.950 . S
C5031 C5030 1.373 . S
C5031 C5047 1.377 . S
C5032 C5030 1.389 . S
C5032 C5033 1.524 . S
C5032 C5046 1.377 . S
C5033 C5032 1.524 . S
C5033 C5034 1.397 . S
C5033 C5038 1.363 . S
C5034 H5011 0.950 . S
C5034 C5033 1.397 . S
C5034 C5035 1.334 . S
C5035 H5012 0.950 . S
C5035 C5034 1.334 . S
C5035 C5036 1.287 . S
C5036 C5035 1.287 . S
C5036 C5037 1.524 . S
C5036 H5055 0.913 . S
C5037 H5013 0.950 . S
C5037 C5036 1.524 . S
C5037 C5038 1.415 . S
C5038 H5014 0.950 . S
C5038 C5033 1.363 . S
C5038 C5037 1.415 . S
C5039 H5015 0.951 . S
C5039 C5040 1.366 . S
C5039 C5041 1.388 . S
C5040 C5039 1.366 . S
C5040 C5044 1.385 . S
C5041 H5016 0.951 . S
C5041 C5039 1.388 . S
C5041 C5042 1.366 . S
C5042 C5041 1.366 . S
C5042 C5043 1.414 . S
C5042 C5045 1.499 . S
C5043 H5017 0.950 . S
C5043 C5042 1.414 . S
C5043 C5044 1.374 . S
C5044 H5018 0.950 . S
C5044 C5040 1.385 . S
C5044 C5043 1.374 . S
C5045 C5042 1.499 . S
C5045 C5046 1.373 . S
C5045 C5047 1.389 . S
C5046 H5019 0.950 . S
C5046 C5032 1.377 . S
C5046 C5045 1.373 . S
C5047 C5031 1.377 . S
C5047 C5045 1.389 . S
C5047 C5048 1.524 . S
C5048 C5047 1.524 . S
C5048 C5049 1.397 . S
C5048 C5053 1.363 . S
C5049 H5020 0.950 . S
C5049 C5048 1.397 . S
C5049 C5050 1.334 . S
C5050 H5021 0.950 . S
C5050 C5049 1.334 . S
C5050 C5051 1.287 . S
C5051 C5050 1.287 . S
C5051 C5052 1.524 . S
C5051 H5054 0.999 . S
C5052 H5022 0.950 . S
C5052 C5051 1.524 . S
C5052 C5053 1.415 . S
C5053 H5023 0.950 . S
C5053 C5048 1.363 . S
C5053 C5052 1.415 . S
H5054 C5051 0.999 . S
H5055 C5036 0.913 . S
H5056 C5074 0.951 . S
H5057 C5076 0.951 . S
H5058 C5078 0.950 . S
H5059 C5079 0.950 . S
H5060 C5081 0.950 . S
H5061 C5084 0.950 . S
H5062 C5085 0.950 . S
H5063 C5087 0.950 . S
H5064 C5088 0.950 . S
H5065 C5089 0.951 . S
H5066 C5091 0.951 . S
H5067 C5093 0.950 . S
H5068 C5094 0.950 . S
H5069 C5096 0.950 . S
H5070 C5099 0.950 . S
H5071 C5100 0.950 . S
H5072 C5102 0.950 . S
H5073 C5103 0.950 . S
C5074 H5056 0.951 . S
C5074 C5075 1.366 . S
C5074 C5076 1.388 . S
C5075 C5074 1.366 . S
C5075 C5079 1.385 . S
C5076 H5057 0.951 . S
C5076 C5074 1.388 . S
C5076 C5077 1.366 . S
C5077 C5076 1.366 . S
C5077 C5078 1.414 . S
C5077 C5080 1.499 . S
C5078 H5058 0.950 . S
C5078 C5077 1.414 . S
C5078 C5079 1.374 . S
C5079 H5059 0.950 . S
C5079 C5075 1.385 . S
C5079 C5078 1.374 . S
C5080 C5077 1.499 . S
C5080 C5081 1.373 . S
C5080 C5082 1.389 . S
C5081 H5060 0.950 . S
C5081 C5080 1.373 . S
C5081 C5097 1.377 . S
C5082 C5080 1.389 . S
C5082 C5083 1.524 . S
C5082 C5096 1.377 . S
C5083 C5082 1.524 . S
C5083 C5084 1.397 . S
C5083 C5088 1.363 . S
C5084 H5061 0.950 . S
C5084 C5083 1.397 . S
C5084 C5085 1.334 . S
C5085 H5062 0.950 . S
C5085 C5084 1.334 . S
C5085 C5086 1.287 . S
C5086 C5085 1.287 . S
C5086 C5087 1.524 . S
C5086 H5105 0.913 . S
C5087 H5063 0.950 . S
C5087 C5086 1.524 . S
C5087 C5088 1.415 . S
C5088 H5064 0.950 . S
C5088 C5083 1.363 . S
C5088 C5087 1.415 . S
C5089 H5065 0.951 . S
C5089 C5090 1.366 . S
C5089 C5091 1.388 . S
C5090 C5089 1.366 . S
C5090 C5094 1.385 . S
C5091 H5066 0.951 . S
C5091 C5089 1.388 . S
C5091 C5092 1.366 . S
C5092 C5091 1.366 . S
C5092 C5093 1.414 . S
C5092 C5095 1.499 . S
C5093 H5067 0.950 . S
C5093 C5092 1.414 . S
C5093 C5094 1.374 . S
C5094 H5068 0.950 . S
C5094 C5090 1.385 . S
C5094 C5093 1.374 . S
C5095 C5092 1.499 . S
C5095 C5096 1.373 . S
C5095 C5097 1.389 . S
C5096 H5069 0.950 . S
C5096 C5082 1.377 . S
C5096 C5095 1.373 . S
C5097 C5081 1.377 . S
C5097 C5095 1.389 . S
C5097 C5098 1.524 . S
C5098 C5097 1.524 . S
C5098 C5099 1.397 . S
C5098 C5103 1.363 . S
C5099 H5070 0.950 . S
C5099 C5098 1.397 . S
C5099 C5100 1.334 . S
C5100 H5071 0.950 . S
C5100 C5099 1.334 . S
C5100 C5101 1.287 . S
C5101 C5100 1.287 . S
C5101 C5102 1.524 . S
C5101 H5104 0.999 . S
C5102 H5072 0.950 . S
C5102 C5101 1.524 . S
C5102 C5103 1.415 . S
C5103 H5073 0.950 . S
C5103 C5098 1.363 . S
C5103 C5102 1.415 . S
H5104 C5101 0.999 . S
H5105 C5086 0.913 . S
H5106 C5124 0.951 . S
H5107 C5126 0.951 . S
H5108 C5128 0.950 . S
H5109 C5129 0.950 . S
H5110 C5131 0.950 . S
H5111 C5134 0.950 . S
H5112 C5135 0.950 . S
H5113 C5137 0.950 . S
H5114 C5138 0.950 . S
H5115 C5139 0.976 . S
H5116 C5141 0.951 . S
H5117 C5143 0.950 . S
H5118 C5144 0.950 . S
H5119 C5146 0.950 . S
H5120 C5149 0.954 . S
H5121 C5150 0.950 . S
H5122 C5152 0.950 . S
H5123 C5153 0.950 . S
C5124 H5106 0.951 . S
C5124 C5125 1.366 . S
C5124 C5126 1.388 . S
C5125 C5124 1.366 . S
C5125 C5129 1.385 . S
C5126 H5107 0.951 . S
C5126 C5124 1.388 . S
C5126 C5127 1.366 . S
C5127 C5126 1.366 . S
C5127 C5128 1.414 . S
C5127 C5130 1.499 . S
C5128 H5108 0.950 . S
C5128 C5127 1.414 . S
C5128 C5129 1.374 . S
C5129 H5109 0.950 . S
C5129 C5125 1.385 . S
C5129 C5128 1.374 . S
C5130 C5127 1.499 . S
C5130 C5131 1.373 . S
C5130 C5132 1.389 . S
C5131 H5110 0.950 . S
C5131 C5130 1.373 . S
C5131 C5147 1.377 . S
C5132 C5130 1.389 . S
C5132 C5133 1.524 . S
C5132 C5146 1.377 . S
C5133 C5132 1.524 . S
C5133 C5134 1.397 . S
C5133 C5138 1.363 . S
C5134 H5111 0.950 . S
C5134 C5133 1.397 . S
C5134 C5135 1.334 . S
C5135 H5112 0.950 . S
C5135 C5134 1.334 . S
C5135 C5136 1.287 . S
C5136 C5135 1.287 . S
C5136 C5137 1.524 . S
C5136 H5155 0.913 . S
C5137 H5113 0.950 . S
C5137 C5136 1.524 . S
C5137 C5138 1.415 . S
C5138 H5114 0.950 . S
C5138 C5133 1.363 . S
C5138 C5137 1.415 . S
C5139 H5115 0.976 . S
C5139 C5140 1.366 . S
C5139 C5141 1.388 . S
C5140 C5139 1.366 . S
C5140 C5144 1.385 . S
C5141 H5116 0.951 . S
C5141 C5139 1.388 . S
C5141 C5142 1.366 . S
C5142 C5141 1.366 . S
C5142 C5143 1.414 . S
C5142 C5145 1.499 . S
C5143 H5117 0.950 . S
C5143 C5142 1.414 . S
C5143 C5144 1.374 . S
C5144 H5118 0.950 . S
C5144 C5140 1.385 . S
C5144 C5143 1.374 . S
C5145 C5142 1.499 . S
C5145 C5146 1.373 . S
C5145 C5147 1.389 . S
C5146 H5119 0.950 . S
C5146 C5132 1.377 . S
C5146 C5145 1.373 . S
C5147 C5131 1.377 . S
C5147 C5145 1.389 . S
C5147 C5148 1.524 . S
C5148 C5147 1.524 . S
C5148 C5149 1.402 . S
C5148 C5153 1.363 . S
C5149 H5120 0.954 . S
C5149 C5148 1.402 . S
C5149 C5150 1.324 1_565 S
C5150 H5121 0.950 . S
C5150 C5149 1.324 1_545 S
C5150 C5151 1.287 . S
C5151 C5150 1.287 . S
C5151 C5152 1.524 . S
C5151 H5154 0.999 . S
C5152 H5122 0.950 . S
C5152 C5151 1.524 . S
C5152 C5153 1.415 1_545 S
C5153 H5123 0.950 . S
C5153 C5148 1.363 . S
C5153 C5152 1.415 1_565 S
H5154 C5151 0.999 . S
H5155 C5136 0.913 . S
H5156 C5174 0.951 . S
H5157 C5176 0.951 . S
H5158 C5178 0.950 . S
H5159 C5179 0.950 . S
H5160 C5181 0.950 . S
H5161 C5184 0.950 . S
H5162 C5185 0.950 . S
H5163 C5187 0.950 . S
H5164 C5188 0.950 . S
H5165 C5189 0.951 . S
H5166 C5191 0.951 . S
H5167 C5193 0.950 . S
H5168 C5194 0.950 . S
H5169 C5196 0.950 . S
H5170 C5199 0.950 . S
H5171 C5200 0.950 . S
H5172 C5202 0.950 . S
H5173 C5203 0.950 . S
C5174 H5156 0.951 . S
C5174 C5175 1.366 . S
C5174 C5176 1.388 . S
C5175 C5174 1.366 . S
C5175 C5179 1.385 . S
C5176 H5157 0.951 . S
C5176 C5174 1.388 . S
C5176 C5177 1.366 . S
C5177 C5176 1.366 . S
C5177 C5178 1.414 . S
C5177 C5180 1.499 . S
C5178 H5158 0.950 . S
C5178 C5177 1.414 . S
C5178 C5179 1.374 . S
C5179 H5159 0.950 . S
C5179 C5175 1.385 . S
C5179 C5178 1.374 . S
C5180 C5177 1.499 . S
C5180 C5181 1.373 . S
C5180 C5182 1.389 . S
C5181 H5160 0.950 . S
C5181 C5180 1.373 . S
C5181 C5197 1.377 . S
C5182 C5180 1.389 . S
C5182 C5183 1.524 . S
C5182 C5196 1.377 . S
C5183 C5182 1.524 . S
C5183 C5184 1.397 . S
C5183 C5188 1.363 . S
C5184 H5161 0.950 . S
C5184 C5183 1.397 . S
C5184 C5185 1.334 . S
C5185 H5162 0.950 . S
C5185 C5184 1.334 . S
C5185 C5186 1.287 . S
C5186 C5185 1.287 . S
C5186 C5187 1.524 . S
C5186 H5205 0.913 . S
C5187 H5163 0.950 . S
C5187 C5186 1.524 . S
C5187 C5188 1.415 . S
C5188 H5164 0.950 . S
C5188 C5183 1.363 . S
C5188 C5187 1.415 . S
C5189 H5165 0.951 . S
C5189 C5190 1.366 . S
C5189 C5191 1.388 . S
C5190 C5189 1.366 . S
C5190 C5194 1.385 . S
C5191 H5166 0.951 . S
C5191 C5189 1.388 . S
C5191 C5192 1.366 . S
C5192 C5191 1.366 . S
C5192 C5193 1.414 . S
C5192 C5195 1.499 . S
C5193 H5167 0.950 . S
C5193 C5192 1.414 . S
C5193 C5194 1.374 . S
C5194 H5168 0.950 . S
C5194 C5190 1.385 . S
C5194 C5193 1.374 . S
C5195 C5192 1.499 . S
C5195 C5196 1.373 . S
C5195 C5197 1.389 . S
C5196 H5169 0.950 . S
C5196 C5182 1.377 . S
C5196 C5195 1.373 . S
C5197 C5181 1.377 . S
C5197 C5195 1.389 . S
C5197 C5198 1.524 . S
C5198 C5197 1.524 . S
C5198 C5199 1.397 . S
C5198 C5203 1.363 . S
C5199 H5170 0.950 . S
C5199 C5198 1.397 . S
C5199 C5200 1.334 . S
C5200 H5171 0.950 . S
C5200 C5199 1.334 . S
C5200 C5201 1.287 . S
C5201 C5200 1.287 . S
C5201 C5202 1.524 . S
C5201 H5204 0.999 . S
C5202 H5172 0.950 . S
C5202 C5201 1.524 . S
C5202 C5203 1.415 . S
C5203 H5173 0.950 . S
C5203 C5198 1.363 . S
C5203 C5202 1.415 . S
H5204 C5201 0.999 . S
H5205 C5186 0.913 . S
H5206 C5224 0.951 . S
H5207 C5226 0.951 . S
H5208 C5228 0.950 1_556 S
H5209 C5229 0.950 1_556 S
H5210 C5231 0.919 1_556 S
H5211 C5234 0.950 . S
H5212 C5235 0.950 . S
H5213 C5237 0.950 . S
H5214 C5238 0.950 . S
H5215 C5239 0.951 1_556 S
H5216 C5241 0.951 1_556 S
H5217 C5243 0.950 . S
H5218 C5244 0.950 . S
H5219 C5246 0.950 . S
H5220 C5249 0.950 . S
H5221 C5250 0.950 . S
H5222 C5252 0.950 . S
H5223 C5253 0.950 . S
C5224 H5206 0.951 . S
C5224 C5225 1.366 . S
C5224 C5226 1.388 . S
C5225 C5224 1.366 . S
C5225 C5229 1.385 . S
C5226 H5207 0.951 . S
C5226 C5224 1.388 . S
C5226 C5227 1.366 . S
C5227 C5226 1.366 . S
C5227 C5228 1.414 . S
C5227 C5230 1.499 . S
C5228 H5208 0.950 1_554 S
C5228 C5227 1.414 . S
C5228 C5229 1.374 . S
C5229 H5209 0.950 1_554 S
C5229 C5225 1.385 . S
C5229 C5228 1.374 . S
C5230 C5227 1.499 . S
C5230 C5231 1.401 . S
C5230 C5232 1.389 . S
C5231 H5210 0.919 1_554 S
C5231 C5230 1.401 . S
C5231 C5247 1.375 . S
C5232 C5230 1.389 . S
C5232 C5233 1.524 . S
C5232 C5246 1.377 . S
C5233 C5232 1.524 . S
C5233 C5234 1.397 . S
C5233 C5238 1.363 . S
C5234 H5211 0.950 . S
C5234 C5233 1.397 . S
C5234 C5235 1.334 . S
C5235 H5212 0.950 . S
C5235 C5234 1.334 . S
C5235 C5236 1.287 . S
C5236 C5235 1.287 . S
C5236 C5237 1.524 . S
C5236 H5255 0.913 . S
C5237 H5213 0.950 . S
C5237 C5236 1.524 . S
C5237 C5238 1.415 . S
C5238 H5214 0.950 . S
C5238 C5233 1.363 . S
C5238 C5237 1.415 . S
C5239 H5215 0.951 1_554 S
C5239 C5240 1.366 . S
C5239 C5241 1.388 . S
C5240 C5239 1.366 . S
C5240 C5244 1.385 . S
C5241 H5216 0.951 1_554 S
C5241 C5239 1.388 . S
C5241 C5242 1.366 . S
C5242 C5241 1.366 . S
C5242 C5243 1.414 . S
C5242 C5245 1.499 . S
C5243 H5217 0.950 . S
C5243 C5242 1.414 . S
C5243 C5244 1.374 . S
C5244 H5218 0.950 . S
C5244 C5240 1.385 . S
C5244 C5243 1.374 . S
C5245 C5242 1.499 . S
C5245 C5246 1.373 . S
C5245 C5247 1.433 . S
C5246 H5219 0.950 . S
C5246 C5232 1.377 . S
C5246 C5245 1.373 . S
C5247 C5231 1.375 . S
C5247 C5245 1.433 . S
C5247 C5248 1.485 1_554 S
C5248 C5247 1.485 1_556 S
C5248 C5249 1.397 . S
C5248 C5253 1.363 . S
C5249 H5220 0.950 . S
C5249 C5248 1.397 . S
C5249 C5250 1.334 . S
C5250 H5221 0.950 . S
C5250 C5249 1.334 . S
C5250 C5251 1.287 . S
C5251 C5250 1.287 . S
C5251 C5252 1.524 . S
C5251 H5254 0.999 . S
C5252 H5222 0.950 . S
C5252 C5251 1.524 . S
C5252 C5253 1.415 . S
C5253 H5223 0.950 . S
C5253 C5248 1.363 . S
C5253 C5252 1.415 . S
H5254 C5251 0.999 . S
H5255 C5236 0.913 . S
H5256 C5274 0.951 . S
H5257 C5276 0.951 . S
H5258 C5278 0.950 . S
H5259 C5279 0.950 . S
H5260 C5281 0.950 . S
H5261 C5284 0.950 . S
H5262 C5285 0.950 . S
H5263 C5287 0.950 . S
H5264 C5288 0.950 . S
H5265 C5289 0.951 . S
H5266 C5291 0.951 . S
H5267 C5293 0.950 . S
H5268 C5294 0.950 . S
H5269 C5296 0.950 . S
H5270 C5299 0.950 . S
H5271 C5300 0.950 . S
H5272 C5302 0.950 . S
H5273 C5303 0.950 . S
C5274 H5256 0.951 . S
C5274 C5275 1.366 . S
C5274 C5276 1.388 . S
C5275 C5274 1.366 . S
C5275 C5279 1.385 . S
C5276 H5257 0.951 . S
C5276 C5274 1.388 . S
C5276 C5277 1.366 . S
C5277 C5276 1.366 . S
C5277 C5278 1.414 . S
C5277 C5280 1.499 . S
C5278 H5258 0.950 . S
C5278 C5277 1.414 . S
C5278 C5279 1.374 . S
C5279 H5259 0.950 . S
C5279 C5275 1.385 . S
C5279 C5278 1.374 . S
C5280 C5277 1.499 . S
C5280 C5281 1.373 . S
C5280 C5282 1.389 . S
C5281 H5260 0.950 . S
C5281 C5280 1.373 . S
C5281 C5297 1.377 . S
C5282 C5280 1.389 . S
C5282 C5283 1.524 . S
C5282 C5296 1.377 . S
C5283 C5282 1.524 . S
C5283 C5284 1.397 . S
C5283 C5288 1.363 . S
C5284 H5261 0.950 . S
C5284 C5283 1.397 . S
C5284 C5285 1.334 . S
C5285 H5262 0.950 . S
C5285 C5284 1.334 . S
C5285 C5286 1.287 . S
C5286 C5285 1.287 . S
C5286 C5287 1.524 . S
C5286 H5305 0.913 . S
C5287 H5263 0.950 . S
C5287 C5286 1.524 . S
C5287 C5288 1.415 . S
C5288 H5264 0.950 . S
C5288 C5283 1.363 . S
C5288 C5287 1.415 . S
C5289 H5265 0.951 . S
C5289 C5290 1.366 . S
C5289 C5291 1.388 . S
C5290 C5289 1.366 . S
C5290 C5294 1.385 . S
C5291 H5266 0.951 . S
C5291 C5289 1.388 . S
C5291 C5292 1.366 . S
C5292 C5291 1.366 . S
C5292 C5293 1.414 . S
C5292 C5295 1.499 . S
C5293 H5267 0.950 . S
C5293 C5292 1.414 . S
C5293 C5294 1.374 . S
C5294 H5268 0.950 . S
C5294 C5290 1.385 . S
C5294 C5293 1.374 . S
C5295 C5292 1.499 . S
C5295 C5296 1.373 . S
C5295 C5297 1.389 . S
C5296 H5269 0.950 . S
C5296 C5282 1.377 . S
C5296 C5295 1.373 . S
C5297 C5281 1.377 . S
C5297 C5295 1.389 . S
C5297 C5298 1.524 . S
C5298 C5297 1.524 . S
C5298 C5299 1.397 . S
C5298 C5303 1.363 . S
C5299 H5270 0.950 . S
C5299 C5298 1.397 . S
C5299 C5300 1.334 . S
C5300 H5271 0.950 . S
C5300 C5299 1.334 . S
C5300 C5301 1.287 . S
C5301 C5300 1.287 . S
C5301 C5302 1.524 . S
C5301 H5304 0.999 . S
C5302 H5272 0.950 . S
C5302 C5301 1.524 . S
C5302 C5303 1.415 . S
C5303 H5273 0.950 . S
C5303 C5298 1.363 . S
C5303 C5302 1.415 . S
H5304 C5301 0.999 . S
H5305 C5286 0.913 . S
H5306 C5324 0.951 . S
H5307 C5326 0.951 . S
H5308 C5328 0.950 . S
H5309 C5329 0.950 . S
H5310 C5331 0.950 . S
H5311 C5334 0.950 . S
H5312 C5335 0.950 . S
H5313 C5337 0.950 . S
H5314 C5338 0.950 . S
H5315 C5339 0.951 . S
H5316 C5341 0.951 . S
H5317 C5343 0.950 1_556 S
H5318 C5344 0.950 1_556 S
H5319 C5346 0.950 1_556 S
H5320 C5349 0.950 . S
H5321 C5350 0.950 . S
H5322 C5352 0.950 . S
H5323 C5353 0.950 . S
C5324 H5306 0.951 . S
C5324 C5325 1.366 . S
C5324 C5326 1.388 . S
C5325 C5324 1.366 . S
C5325 C5329 1.385 . S
C5326 H5307 0.951 . S
C5326 C5324 1.388 . S
C5326 C5327 1.366 . S
C5327 C5326 1.366 . S
C5327 C5328 1.414 . S
C5327 C5330 1.499 . S
C5328 H5308 0.950 . S
C5328 C5327 1.414 . S
C5328 C5329 1.374 . S
C5329 H5309 0.950 . S
C5329 C5325 1.385 . S
C5329 C5328 1.374 . S
C5330 C5327 1.499 . S
C5330 C5331 1.373 . S
C5330 C5332 1.389 . S
C5331 H5310 0.950 . S
C5331 C5330 1.373 . S
C5331 C5347 1.377 . S
C5332 C5330 1.389 . S
C5332 C5333 1.524 1_554 S
C5332 C5346 1.377 . S
C5333 C5332 1.524 1_556 S
C5333 C5334 1.397 . S
C5333 C5338 1.363 . S
C5334 H5311 0.950 . S
C5334 C5333 1.397 . S
C5334 C5335 1.334 . S
C5335 H5312 0.950 . S
C5335 C5334 1.334 . S
C5335 C5336 1.287 . S
C5336 C5335 1.287 . S
C5336 C5337 1.524 . S
C5336 H5355 0.913 . S
C5337 H5313 0.950 . S
C5337 C5336 1.524 . S
C5337 C5338 1.415 . S
C5338 H5314 0.950 . S
C5338 C5333 1.363 . S
C5338 C5337 1.415 . S
C5339 H5315 0.951 . S
C5339 C5340 1.366 . S
C5339 C5341 1.388 . S
C5340 C5339 1.366 . S
C5340 C5344 1.385 . S
C5341 H5316 0.951 . S
C5341 C5339 1.388 . S
C5341 C5342 1.366 . S
C5342 C5341 1.366 . S
C5342 C5343 1.414 . S
C5342 C5345 1.499 . S
C5343 H5317 0.950 1_554 S
C5343 C5342 1.414 . S
C5343 C5344 1.374 . S
C5344 H5318 0.950 1_554 S
C5344 C5340 1.385 . S
C5344 C5343 1.374 . S
C5345 C5342 1.499 . S
C5345 C5346 1.373 . S
C5345 C5347 1.389 . S
C5346 H5319 0.950 1_554 S
C5346 C5332 1.377 . S
C5346 C5345 1.373 . S
C5347 C5331 1.377 . S
C5347 C5345 1.389 . S
C5347 C5348 1.524 . S
C5348 C5347 1.524 . S
C5348 C5349 1.397 . S
C5348 C5353 1.363 . S
C5349 H5320 0.950 . S
C5349 C5348 1.397 . S
C5349 C5350 1.334 . S
C5350 H5321 0.950 . S
C5350 C5349 1.334 . S
C5350 C5351 1.287 . S
C5351 C5350 1.287 . S
C5351 C5352 1.524 . S
C5351 H5354 0.999 . S
C5352 H5322 0.950 . S
C5352 C5351 1.524 . S
C5352 C5353 1.415 . S
C5353 H5323 0.950 . S
C5353 C5348 1.363 . S
C5353 C5352 1.415 . S
H5354 C5351 0.999 . S
H5355 C5336 0.913 . S
H5356 C5374 0.951 . S
H5357 C5376 0.951 . S
H5358 C5378 0.950 . S
H5359 C5379 0.950 . S
H5360 C5381 0.950 . S
H5361 C5384 0.950 . S
H5362 C5385 0.950 . S
H5363 C5387 0.950 . S
H5364 C5388 0.950 . S
H5365 C5389 0.951 . S
H5366 C5391 0.951 . S
H5367 C5393 0.950 . S
H5368 C5394 0.950 . S
H5369 C5396 0.950 . S
H5370 C5399 0.950 . S
H5371 C5400 0.950 . S
H5372 C5402 0.950 . S
H5373 C5403 0.950 . S
C5374 H5356 0.951 . S
C5374 C5375 1.366 . S
C5374 C5376 1.388 . S
C5375 C5374 1.366 . S
C5375 C5379 1.385 . S
C5376 H5357 0.951 . S
C5376 C5374 1.388 . S
C5376 C5377 1.366 . S
C5377 C5376 1.366 . S
C5377 C5378 1.414 . S
C5377 C5380 1.499 . S
C5378 H5358 0.950 . S
C5378 C5377 1.414 . S
C5378 C5379 1.374 . S
C5379 H5359 0.950 . S
C5379 C5375 1.385 . S
C5379 C5378 1.374 . S
C5380 C5377 1.499 . S
C5380 C5381 1.373 . S
C5380 C5382 1.389 . S
C5381 H5360 0.950 . S
C5381 C5380 1.373 . S
C5381 C5397 1.377 . S
C5382 C5380 1.389 . S
C5382 C5383 1.524 . S
C5382 C5396 1.377 . S
C5383 C5382 1.524 . S
C5383 C5384 1.397 . S
C5383 C5388 1.363 . S
C5384 H5361 0.950 . S
C5384 C5383 1.397 . S
C5384 C5385 1.334 . S
C5385 H5362 0.950 . S
C5385 C5384 1.334 . S
C5385 C5386 1.287 . S
C5386 C5385 1.287 . S
C5386 C5387 1.524 . S
C5386 H5405 0.913 . S
C5387 H5363 0.950 . S
C5387 C5386 1.524 . S
C5387 C5388 1.415 . S
C5388 H5364 0.950 . S
C5388 C5383 1.363 . S
C5388 C5387 1.415 . S
C5389 H5365 0.951 . S
C5389 C5390 1.366 . S
C5389 C5391 1.388 . S
C5390 C5389 1.366 . S
C5390 C5394 1.385 . S
C5391 H5366 0.951 . S
C5391 C5389 1.388 . S
C5391 C5392 1.366 . S
C5392 C5391 1.366 . S
C5392 C5393 1.414 . S
C5392 C5395 1.499 . S
C5393 H5367 0.950 . S
C5393 C5392 1.414 . S
C5393 C5394 1.374 . S
C5394 H5368 0.950 . S
C5394 C5390 1.385 . S
C5394 C5393 1.374 . S
C5395 C5392 1.499 . S
C5395 C5396 1.373 . S
C5395 C5397 1.389 . S
C5396 H5369 0.950 . S
C5396 C5382 1.377 . S
C5396 C5395 1.373 . S
C5397 C5381 1.377 . S
C5397 C5395 1.389 . S
C5397 C5398 1.524 . S
C5398 C5397 1.524 . S
C5398 C5399 1.397 . S
C5398 C5403 1.363 . S
C5399 H5370 0.950 . S
C5399 C5398 1.397 . S
C5399 C5400 1.334 . S
C5400 H5371 0.950 . S
C5400 C5399 1.334 . S
C5400 C5401 1.287 . S
C5401 C5400 1.287 . S
C5401 C5402 1.524 . S
C5401 H5404 0.999 . S
C5402 H5372 0.950 . S
C5402 C5401 1.524 . S
C5402 C5403 1.415 . S
C5403 H5373 0.950 . S
C5403 C5398 1.363 . S
C5403 C5402 1.415 . S
H5404 C5401 0.999 . S
H5405 C5386 0.913 . S
H5406 C5424 0.951 . S
H5407 C5426 0.951 . S
H5408 C5428 0.950 . S
H5409 C5429 0.950 . S
H5410 C5431 0.950 . S
H5411 C5434 0.950 . S
H5412 C5435 0.950 . S
H5413 C5437 0.950 . S
H5414 C5438 0.950 . S
H5415 C5439 0.951 . S
H5416 C5441 0.951 . S
H5417 C5443 0.950 . S
H5418 C5444 0.950 . S
H5419 C5446 0.950 . S
H5420 C5449 0.950 . S
H5421 C5450 0.950 . S
H5422 C5452 0.950 . S
H5423 C5453 0.950 . S
C5424 H5406 0.951 . S
C5424 C5425 1.366 . S
C5424 C5426 1.388 . S
C5425 C5424 1.366 . S
C5425 C5429 1.385 . S
C5426 H5407 0.951 . S
C5426 C5424 1.388 . S
C5426 C5427 1.366 . S
C5427 C5426 1.366 . S
C5427 C5428 1.414 . S
C5427 C5430 1.499 . S
C5428 H5408 0.950 . S
C5428 C5427 1.414 . S
C5428 C5429 1.374 . S
C5429 H5409 0.950 . S
C5429 C5425 1.385 . S
C5429 C5428 1.374 . S
C5430 C5427 1.499 . S
C5430 C5431 1.373 . S
C5430 C5432 1.389 . S
C5431 H5410 0.950 . S
C5431 C5430 1.373 . S
C5431 C5447 1.377 . S
C5432 C5430 1.389 . S
C5432 C5433 1.524 . S
C5432 C5446 1.377 . S
C5433 C5432 1.524 . S
C5433 C5434 1.397 . S
C5433 C5438 1.363 . S
C5434 H5411 0.950 . S
C5434 C5433 1.397 . S
C5434 C5435 1.334 . S
C5435 H5412 0.950 . S
C5435 C5434 1.334 . S
C5435 C5436 1.287 . S
C5436 C5435 1.287 . S
C5436 C5437 1.524 . S
C5436 H5455 0.913 . S
C5437 H5413 0.950 . S
C5437 C5436 1.524 . S
C5437 C5438 1.415 . S
C5438 H5414 0.950 . S
C5438 C5433 1.363 . S
C5438 C5437 1.415 . S
C5439 H5415 0.951 . S
C5439 C5440 1.366 . S
C5439 C5441 1.388 . S
C5440 C5439 1.366 . S
C5440 C5444 1.385 . S
C5441 H5416 0.951 . S
C5441 C5439 1.388 . S
C5441 C5442 1.366 . S
C5442 C5441 1.366 . S
C5442 C5443 1.414 . S
C5442 C5445 1.499 . S
C5443 H5417 0.950 . S
C5443 C5442 1.414 . S
C5443 C5444 1.374 . S
C5444 H5418 0.950 . S
C5444 C5440 1.385 . S
C5444 C5443 1.374 . S
C5445 C5442 1.499 . S
C5445 C5446 1.373 . S
C5445 C5447 1.389 . S
C5446 H5419 0.950 . S
C5446 C5432 1.377 . S
C5446 C5445 1.373 . S
C5447 C5431 1.377 . S
C5447 C5445 1.389 . S
C5447 C5448 1.524 . S
C5448 C5447 1.524 . S
C5448 C5449 1.397 . S
C5448 C5453 1.363 . S
C5449 H5420 0.950 . S
C5449 C5448 1.397 . S
C5449 C5450 1.334 . S
C5450 H5421 0.950 . S
C5450 C5449 1.334 . S
C5450 C5451 1.287 . S
C5451 C5450 1.287 . S
C5451 C5452 1.524 . S
C5451 H5454 0.999 . S
C5452 H5422 0.950 . S
C5452 C5451 1.524 . S
C5452 C5453 1.415 . S
C5453 H5423 0.950 . S
C5453 C5448 1.363 . S
C5453 C5452 1.415 . S
H5454 C5451 0.999 . S
H5455 C5436 0.913 . S
C675 C105 1.344 1_455 S
C690 C340 1.215 . S
C725 C65 1.477 . S
C740 C375 1.439 . S
C775 C73 0.991 . S
C790 C380 0.923 . S
C840 C405 1.382 . S
C825 C92 1.463 . S
C875 C17 1.525 . S
C890 C425 1.440 . S
C940 C440 0.911 . S
C925 C37 0.974 . S
C990 C475 1.457 . S
C975 C49 1.451 . S
C1025 C8 1.302 . S
C1040 C480 1.160 . S
C1090 C355 1.428 1_655 S
C1075 C231 1.454 . S
C1125 C241 0.916 . S
C1140 C365 0.881 . S
C1190 C395 1.413 . S
C1175 C273 1.407 1_565 S
C1240 C400 1.030 . S
C1225 C171 1.116 1_556 S
C1275 C227 1.100 . S
C1290 C420 1.016 . S
C1340 C455 1.411 . S
C1325 C245 1.407 . S
C1390 C465 0.893 . S
C1375 C269 0.931 . S
C1440 C495 1.423 . S
C1425 C175 1.448 . S
C1490 C345 1.270 . S
C1475 C162 1.376 . S
C1525 C289 1.758 . S
C1540 C515 1.721 . S
C1590 C525 1.386 . S
C1575 C330 1.484 . S
C1640 C540 0.911 . S
C1625 C317 0.971 . S
C1675 C120 1.326 . S
C1690 C485 1.223 . S
C1725 C134 1.511 . S
C1740 C385 1.412 . S
C1775 C331 1.714 . S
C1790 C575 1.678 . S
C1840 C580 0.878 . S
C1825 C303 0.930 . S
C1890 C338 1.237 . S
C1875 C59 1.380 . S
C1940 C594 1.486 . S
C1925 C107 1.517 . S
C1975 C91 1.014 . S
C1990 C378 0.964 . S
C2025 C78 1.503 . S
C2040 C568 1.424 . S
C2090 C428 1.490 . S
C2075 C7 1.540 . S
C2125 C51 1.012 . S
C2140 C518 0.945 . S
C2190 C474 1.500 1_556 S
C2175 C31 1.540 . S
C2240 C598 1.186 . S
C2225 C22 1.319 . S
C2290 C354 1.464 . S
C2275 C143 1.526 . S
C2340 C588 0.926 . S
C2325 C315 0.944 . S
C2375 C115 1.491 . S
C2390 C394 1.451 . S
C2425 C287 1.130 . S
C2440 C558 1.067 . S
C2475 C147 1.120 . S
C2490 C418 1.064 . S
C2540 C534 1.451 . S
C2525 C311 1.491 . S
C2575 C119 0.952 . S
C2590 C468 0.934 . S
C2625 C283 1.520 . S
C2640 C614 1.464 . S
C2675 C190 1.392 . S
C2690 C348 1.295 . S
C2725 C177 1.796 . S
C2740 C514 1.768 . S
C2775 C260 1.507 . S
C2790 C448 1.419 . S
C2825 C247 1.014 . S
C2840 C538 0.950 . S
C2890 C608 1.251 . S
C2875 C274 1.352 . S
C2925 C218 1.538 . S
C2940 C388 1.450 . S
C2990 C414 1.725 . S
C2975 C261 1.753 . S
C3040 C358 0.916 . S
C3025 C205 0.973 . S
C3075 C77 1.342 . S
C3090 C620 1.215 . S
C3140 C595 1.439 . S
C3125 C93 1.477 . S
C3175 C101 0.991 . S
C3190 C640 0.928 . S
C3225 C64 1.462 . S
C3240 C565 1.380 . S
C3275 C45 1.525 . S
C3290 C505 1.442 . S
C3340 C520 0.914 . S
C3325 C9 0.975 . S
C3390 C555 1.457 . S
C3375 C21 1.451 . S
C3440 C600 1.158 . S
C3425 C36 1.301 . S
C3490 C635 1.428 . S
C3475 C259 1.454 . S
C3525 C185 0.916 . S
C3540 C585 0.882 . S
C3590 C655 1.412 . S
C3575 C203 1.409 . S
C3640 C560 1.030 . S
C3625 C213 1.116 . S
C3690 C500 1.017 . S
C3675 C255 1.100 . S
C3725 C189 1.407 . S
C3740 C535 1.412 . S
C3790 C545 0.893 . S
C3775 C199 0.930 . S
C3825 C217 1.448 . S
C3840 C615 1.422 . S
C3890 C625 1.270 . S
C3875 C316 1.376 . S
C3925 C135 1.758 . S
C3940 C435 1.724 . S
C3990 C445 1.386 . S
C3975 C148 1.484 . S
C4040 C460 0.911 . S
C4025 C163 0.970 . S
C4090 C605 1.222 . S
C4075 C302 1.326 . S
C4125 C288 1.515 . S
C4140 C645 1.414 . S
C4190 C415 1.678 . S
C4175 C149 1.713 . S
C4240 C360 0.880 . S
C4225 C121 0.930 . S
C4275 C87 1.380 . S
C4290 C618 1.236 . S
C4340 C374 1.487 . S
C4325 C79 1.517 . S
C4375 C63 1.015 . S
C4390 C638 0.965 . S
C4425 C106 1.503 . S
C4440 C408 1.424 . S
C4475 C35 1.540 . S
C4490 C508 1.490 . S
C4540 C438 0.945 . S
C4525 C23 1.013 . S
C4575 C3 1.540 . S
C4590 C554 1.500 . S
C4625 C50 1.319 . S
C4640 C478 1.187 . S
C4690 C634 1.464 . S
C4675 C325 1.526 . S
C4725 C161 0.945 . S
C4740 C368 0.927 . S
C4790 C654 1.452 1_655 S
C4775 C297 1.491 . S
C4825 C133 1.131 . S
C4840 C398 1.073 . S
C4875 C329 1.121 . S
C4890 C498 1.064 . S
C4940 C454 1.451 . S
C4925 C157 1.491 . S
C4975 C301 0.952 . S
C4990 C548 0.934 . S
C5040 C494 1.458 . S
C5025 C129 1.519 . S
C5090 C628 1.296 . S
C5075 C246 1.392 . S
C5140 C434 1.768 . S
C5125 C219 1.795 . S
C5175 C232 1.507 . S
C5190 C528 1.419 . S
C5240 C458 0.951 . S
C5225 C191 1.014 . S
C5275 C204 1.345 . S
C5290 C488 1.251 . S
C5325 C176 1.538 . S
C5340 C648 1.451 . S
C5390 C574 1.725 . S
C5375 C233 1.753 . S
C5440 C578 0.915 . S
C5425 C275 0.967 . S
