# Generated by pormake.
# Topology gar, (4,6)-cn, num edge types: 1
# Building blocks:
#     Node 0, Type 0, BuildingBlock: CEKHIL_clean_sbu_0, # of connection points: 4
#     Node 1, Type 0, BuildingBlock: CEKHIL_clean_sbu_0, # of connection points: 4
#     Node 2, Type 0, BuildingBlock: CEKHIL_clean_sbu_0, # of connection points: 4
#     Node 3, Type 0, BuildingBlock: CEKHIL_clean_sbu_0, # of connection points: 4
#     Node 4, Type 0, BuildingBlock: CEKHIL_clean_sbu_0, # of connection points: 4
#     Node 5, Type 0, BuildingBlock: CEKHIL_clean_sbu_0, # of connection points: 4
#     Node 6, Type 0, BuildingBlock: CEKHIL_clean_sbu_0, # of connection points: 4
#     Node 7, Type 0, BuildingBlock: CEKHIL_clean_sbu_0, # of connection points: 4
#     Node 8, Type 0, BuildingBlock: CEKHIL_clean_sbu_0, # of connection points: 4
#     Node 9, Type 0, BuildingBlock: CEKHIL_clean_sbu_0, # of connection points: 4
#     Node 10, Type 0, BuildingBlock: CEKHIL_clean_sbu_0, # of connection points: 4
#     Node 11, Type 0, BuildingBlock: CEKHIL_clean_sbu_0, # of connection points: 4
#     Node 12, Type 0, BuildingBlock: CEKHIL_clean_sbu_0, # of connection points: 4
#     Node 13, Type 0, BuildingBlock: CEKHIL_clean_sbu_0, # of connection points: 4
#     Node 14, Type 0, BuildingBlock: CEKHIL_clean_sbu_0, # of connection points: 4
#     Node 15, Type 0, BuildingBlock: CEKHIL_clean_sbu_0, # of connection points: 4
#     Node 16, Type 0, BuildingBlock: CEKHIL_clean_sbu_0, # of connection points: 4
#     Node 17, Type 0, BuildingBlock: CEKHIL_clean_sbu_0, # of connection points: 4
#     Node 18, Type 0, BuildingBlock: CEKHIL_clean_sbu_0, # of connection points: 4
#     Node 19, Type 0, BuildingBlock: CEKHIL_clean_sbu_0, # of connection points: 4
#     Node 20, Type 0, BuildingBlock: CEKHIL_clean_sbu_0, # of connection points: 4
#     Node 21, Type 0, BuildingBlock: CEKHIL_clean_sbu_0, # of connection points: 4
#     Node 22, Type 0, BuildingBlock: CEKHIL_clean_sbu_0, # of connection points: 4
#     Node 23, Type 0, BuildingBlock: CEKHIL_clean_sbu_0, # of connection points: 4
#     Node 24, Type 1, BuildingBlock: BETDIP_clean_sbu_0, # of connection points: 6
#     Node 25, Type 1, BuildingBlock: BETDIP_clean_sbu_0, # of connection points: 6
#     Node 26, Type 1, BuildingBlock: BETDIP_clean_sbu_0, # of connection points: 6
#     Node 27, Type 1, BuildingBlock: BETDIP_clean_sbu_0, # of connection points: 6
#     Node 28, Type 1, BuildingBlock: BETDIP_clean_sbu_0, # of connection points: 6
#     Node 29, Type 1, BuildingBlock: BETDIP_clean_sbu_0, # of connection points: 6
#     Node 30, Type 1, BuildingBlock: BETDIP_clean_sbu_0, # of connection points: 6
#     Node 31, Type 1, BuildingBlock: BETDIP_clean_sbu_0, # of connection points: 6
#     Node 32, Type 1, BuildingBlock: BETDIP_clean_sbu_0, # of connection points: 6
#     Node 33, Type 1, BuildingBlock: BETDIP_clean_sbu_0, # of connection points: 6
#     Node 34, Type 1, BuildingBlock: BETDIP_clean_sbu_0, # of connection points: 6
#     Node 35, Type 1, BuildingBlock: BETDIP_clean_sbu_0, # of connection points: 6
#     Node 36, Type 1, BuildingBlock: BETDIP_clean_sbu_0, # of connection points: 6
#     Node 37, Type 1, BuildingBlock: BETDIP_clean_sbu_0, # of connection points: 6
#     Node 38, Type 1, BuildingBlock: BETDIP_clean_sbu_0, # of connection points: 6
#     Node 39, Type 1, BuildingBlock: BETDIP_clean_sbu_0, # of connection points: 6
#     Edge 40, Type (0, 1), BuildingBlock: EZIPEK_clean_linker_0, # of connection points: 2
#     Edge 41, Type (0, 1), BuildingBlock: EZIPEK_clean_linker_0, # of connection points: 2
#     Edge 42, Type (0, 1), BuildingBlock: EZIPEK_clean_linker_0, # of connection points: 2
#     Edge 43, Type (0, 1), BuildingBlock: EZIPEK_clean_linker_0, # of connection points: 2
#     Edge 44, Type (0, 1), BuildingBlock: EZIPEK_clean_linker_0, # of connection points: 2
#     Edge 45, Type (0, 1), BuildingBlock: EZIPEK_clean_linker_0, # of connection points: 2
#     Edge 46, Type (0, 1), BuildingBlock: EZIPEK_clean_linker_0, # of connection points: 2
#     Edge 47, Type (0, 1), BuildingBlock: EZIPEK_clean_linker_0, # of connection points: 2
#     Edge 48, Type (0, 1), BuildingBlock: EZIPEK_clean_linker_0, # of connection points: 2
#     Edge 49, Type (0, 1), BuildingBlock: EZIPEK_clean_linker_0, # of connection points: 2
#     Edge 50, Type (0, 1), BuildingBlock: EZIPEK_clean_linker_0, # of connection points: 2
#     Edge 51, Type (0, 1), BuildingBlock: EZIPEK_clean_linker_0, # of connection points: 2
#     Edge 52, Type (0, 1), BuildingBlock: EZIPEK_clean_linker_0, # of connection points: 2
#     Edge 53, Type (0, 1), BuildingBlock: EZIPEK_clean_linker_0, # of connection points: 2
#     Edge 54, Type (0, 1), BuildingBlock: EZIPEK_clean_linker_0, # of connection points: 2
#     Edge 55, Type (0, 1), BuildingBlock: EZIPEK_clean_linker_0, # of connection points: 2
#     Edge 56, Type (0, 1), BuildingBlock: EZIPEK_clean_linker_0, # of connection points: 2
#     Edge 57, Type (0, 1), BuildingBlock: EZIPEK_clean_linker_0, # of connection points: 2
#     Edge 58, Type (0, 1), BuildingBlock: EZIPEK_clean_linker_0, # of connection points: 2
#     Edge 59, Type (0, 1), BuildingBlock: EZIPEK_clean_linker_0, # of connection points: 2
#     Edge 60, Type (0, 1), BuildingBlock: EZIPEK_clean_linker_0, # of connection points: 2
#     Edge 61, Type (0, 1), BuildingBlock: EZIPEK_clean_linker_0, # of connection points: 2
#     Edge 62, Type (0, 1), BuildingBlock: EZIPEK_clean_linker_0, # of connection points: 2
#     Edge 63, Type (0, 1), BuildingBlock: EZIPEK_clean_linker_0, # of connection points: 2
#     Edge 64, Type (0, 1), BuildingBlock: EZIPEK_clean_linker_0, # of connection points: 2
#     Edge 65, Type (0, 1), BuildingBlock: EZIPEK_clean_linker_0, # of connection points: 2
#     Edge 66, Type (0, 1), BuildingBlock: EZIPEK_clean_linker_0, # of connection points: 2
#     Edge 67, Type (0, 1), BuildingBlock: EZIPEK_clean_linker_0, # of connection points: 2
#     Edge 68, Type (0, 1), BuildingBlock: EZIPEK_clean_linker_0, # of connection points: 2
#     Edge 69, Type (0, 1), BuildingBlock: EZIPEK_clean_linker_0, # of connection points: 2
#     Edge 70, Type (0, 1), BuildingBlock: EZIPEK_clean_linker_0, # of connection points: 2
#     Edge 71, Type (0, 1), BuildingBlock: EZIPEK_clean_linker_0, # of connection points: 2
#     Edge 72, Type (0, 1), BuildingBlock: EZIPEK_clean_linker_0, # of connection points: 2
#     Edge 73, Type (0, 1), BuildingBlock: EZIPEK_clean_linker_0, # of connection points: 2
#     Edge 74, Type (0, 1), BuildingBlock: EZIPEK_clean_linker_0, # of connection points: 2
#     Edge 75, Type (0, 1), BuildingBlock: EZIPEK_clean_linker_0, # of connection points: 2
#     Edge 76, Type (0, 1), BuildingBlock: EZIPEK_clean_linker_0, # of connection points: 2
#     Edge 77, Type (0, 1), BuildingBlock: EZIPEK_clean_linker_0, # of connection points: 2
#     Edge 78, Type (0, 1), BuildingBlock: EZIPEK_clean_linker_0, # of connection points: 2
#     Edge 79, Type (0, 1), BuildingBlock: EZIPEK_clean_linker_0, # of connection points: 2
#     Edge 80, Type (0, 1), BuildingBlock: EZIPEK_clean_linker_0, # of connection points: 2
#     Edge 81, Type (0, 1), BuildingBlock: EZIPEK_clean_linker_0, # of connection points: 2
#     Edge 82, Type (0, 1), BuildingBlock: EZIPEK_clean_linker_0, # of connection points: 2
#     Edge 83, Type (0, 1), BuildingBlock: EZIPEK_clean_linker_0, # of connection points: 2
#     Edge 84, Type (0, 1), BuildingBlock: EZIPEK_clean_linker_0, # of connection points: 2
#     Edge 85, Type (0, 1), BuildingBlock: EZIPEK_clean_linker_0, # of connection points: 2
#     Edge 86, Type (0, 1), BuildingBlock: EZIPEK_clean_linker_0, # of connection points: 2
#     Edge 87, Type (0, 1), BuildingBlock: EZIPEK_clean_linker_0, # of connection points: 2
#     Edge 88, Type (0, 1), BuildingBlock: EZIPEK_clean_linker_0, # of connection points: 2
#     Edge 89, Type (0, 1), BuildingBlock: EZIPEK_clean_linker_0, # of connection points: 2
#     Edge 90, Type (0, 1), BuildingBlock: EZIPEK_clean_linker_0, # of connection points: 2
#     Edge 91, Type (0, 1), BuildingBlock: EZIPEK_clean_linker_0, # of connection points: 2
#     Edge 92, Type (0, 1), BuildingBlock: EZIPEK_clean_linker_0, # of connection points: 2
#     Edge 93, Type (0, 1), BuildingBlock: EZIPEK_clean_linker_0, # of connection points: 2
#     Edge 94, Type (0, 1), BuildingBlock: EZIPEK_clean_linker_0, # of connection points: 2
#     Edge 95, Type (0, 1), BuildingBlock: EZIPEK_clean_linker_0, # of connection points: 2
#     Edge 96, Type (0, 1), BuildingBlock: EZIPEK_clean_linker_0, # of connection points: 2
#     Edge 97, Type (0, 1), BuildingBlock: EZIPEK_clean_linker_0, # of connection points: 2
#     Edge 98, Type (0, 1), BuildingBlock: EZIPEK_clean_linker_0, # of connection points: 2
#     Edge 99, Type (0, 1), BuildingBlock: EZIPEK_clean_linker_0, # of connection points: 2
#     Edge 100, Type (0, 1), BuildingBlock: EZIPEK_clean_linker_0, # of connection points: 2
#     Edge 101, Type (0, 1), BuildingBlock: EZIPEK_clean_linker_0, # of connection points: 2
#     Edge 102, Type (0, 1), BuildingBlock: EZIPEK_clean_linker_0, # of connection points: 2
#     Edge 103, Type (0, 1), BuildingBlock: EZIPEK_clean_linker_0, # of connection points: 2
#     Edge 104, Type (0, 1), BuildingBlock: EZIPEK_clean_linker_0, # of connection points: 2
#     Edge 105, Type (0, 1), BuildingBlock: EZIPEK_clean_linker_0, # of connection points: 2
#     Edge 106, Type (0, 1), BuildingBlock: EZIPEK_clean_linker_0, # of connection points: 2
#     Edge 107, Type (0, 1), BuildingBlock: EZIPEK_clean_linker_0, # of connection points: 2
#     Edge 108, Type (0, 1), BuildingBlock: EZIPEK_clean_linker_0, # of connection points: 2
#     Edge 109, Type (0, 1), BuildingBlock: EZIPEK_clean_linker_0, # of connection points: 2
#     Edge 110, Type (0, 1), BuildingBlock: EZIPEK_clean_linker_0, # of connection points: 2
#     Edge 111, Type (0, 1), BuildingBlock: EZIPEK_clean_linker_0, # of connection points: 2
#     Edge 112, Type (0, 1), BuildingBlock: EZIPEK_clean_linker_0, # of connection points: 2
#     Edge 113, Type (0, 1), BuildingBlock: EZIPEK_clean_linker_0, # of connection points: 2
#     Edge 114, Type (0, 1), BuildingBlock: EZIPEK_clean_linker_0, # of connection points: 2
#     Edge 115, Type (0, 1), BuildingBlock: EZIPEK_clean_linker_0, # of connection points: 2
#     Edge 116, Type (0, 1), BuildingBlock: EZIPEK_clean_linker_0, # of connection points: 2
#     Edge 117, Type (0, 1), BuildingBlock: EZIPEK_clean_linker_0, # of connection points: 2
#     Edge 118, Type (0, 1), BuildingBlock: EZIPEK_clean_linker_0, # of connection points: 2
#     Edge 119, Type (0, 1), BuildingBlock: EZIPEK_clean_linker_0, # of connection points: 2
#     Edge 120, Type (0, 1), BuildingBlock: EZIPEK_clean_linker_0, # of connection points: 2
#     Edge 121, Type (0, 1), BuildingBlock: EZIPEK_clean_linker_0, # of connection points: 2
#     Edge 122, Type (0, 1), BuildingBlock: EZIPEK_clean_linker_0, # of connection points: 2
#     Edge 123, Type (0, 1), BuildingBlock: EZIPEK_clean_linker_0, # of connection points: 2
#     Edge 124, Type (0, 1), BuildingBlock: EZIPEK_clean_linker_0, # of connection points: 2
#     Edge 125, Type (0, 1), BuildingBlock: EZIPEK_clean_linker_0, # of connection points: 2
#     Edge 126, Type (0, 1), BuildingBlock: EZIPEK_clean_linker_0, # of connection points: 2
#     Edge 127, Type (0, 1), BuildingBlock: EZIPEK_clean_linker_0, # of connection points: 2
#     Edge 128, Type (0, 1), BuildingBlock: EZIPEK_clean_linker_0, # of connection points: 2
#     Edge 129, Type (0, 1), BuildingBlock: EZIPEK_clean_linker_0, # of connection points: 2
#     Edge 130, Type (0, 1), BuildingBlock: EZIPEK_clean_linker_0, # of connection points: 2
#     Edge 131, Type (0, 1), BuildingBlock: EZIPEK_clean_linker_0, # of connection points: 2
#     Edge 132, Type (0, 1), BuildingBlock: EZIPEK_clean_linker_0, # of connection points: 2
#     Edge 133, Type (0, 1), BuildingBlock: EZIPEK_clean_linker_0, # of connection points: 2
#     Edge 134, Type (0, 1), BuildingBlock: EZIPEK_clean_linker_0, # of connection points: 2
#     Edge 135, Type (0, 1), BuildingBlock: EZIPEK_clean_linker_0, # of connection points: 2
# Relax obj value: 0.241
# Max RMSD: 0.365
# Mean RMSD: 0.170
data_MOF--net-gar--node1-CEKHIL_clean_sbu_0--node2-BETDIP_clean_sbu_0--edge1-EZIPEK_clean_linker_0
_symmetry_space_group_name_H-M    P1
_symmetry_Int_Tables_number       1
_symmetry_cell_setting            triclinic
loop_
_symmetry_equiv_pos_as_xyz
'x, y, z'
_cell_length_a     49.507553
_cell_length_b     42.259821
_cell_length_c     39.253319
_cell_angle_alpha  98.149737
_cell_angle_beta   100.45849
_cell_angle_gamma 101.47212
loop_
_atom_site_label
_atom_site_type_symbol
_atom_site_fract_x
_atom_site_fract_y
_atom_site_fract_z
_atom_type_partial_charge
Co0 Co 0.07822 0.37947 0.44872 0.0
O1 O 0.1166 0.38225 0.4438 0.0
O2 O 0.07962 0.37339 0.39942 0.0
C3 C 0.0854 0.42264 0.49286 0.0
O4 O 0.03584 0.37418 0.44319 0.0
Co5 Co 0.06171 0.36406 0.51876 0.0
O6 O 1.02269 0.35641 0.49047 0.0
C7 C 0.07548 0.31361 0.47034 0.0
C8 C 0.10626 0.37421 0.41001 0.0
C9 C 1.01682 0.36287 0.45959 0.0
O10 O 0.07357 0.33094 0.44621 0.0
O11 O 0.0747 0.32384 0.50229 0.0
O12 O 0.0838 0.42743 0.46057 0.0
O13 O 0.08609 0.39331 0.49759 0.0
Co14 Co 0.09031 0.80576 0.74651 0.0
O15 O 0.05717 0.82355 0.74279 0.0
O16 O 0.06567 0.78678 0.77549 0.0
C17 C 0.12206 0.85424 0.75693 0.0
O18 O 0.12289 0.78348 0.75736 0.0
Co19 Co 0.12709 0.81674 0.6905 0.0
O20 O 0.15284 0.79777 0.7221 0.0
C21 C 0.07562 0.7637 0.67178 0.0
C22 C 0.04994 0.80677 0.76619 0.0
C23 C 0.14638 0.78419 0.74742 0.0
O24 O 0.072 0.76976 0.70369 0.0
O25 O 0.09491 0.78182 0.66079 0.0
O26 O 0.11172 0.84396 0.78244 0.0
O27 O 0.11042 0.8372 0.72586 0.0
Co28 Co 0.55083 0.86914 0.92906 0.0
O29 O 0.5906 0.86937 0.93557 0.0
O30 O 0.5617 0.86384 0.88393 0.0
C31 C 0.55508 0.91169 0.97336 0.0
O32 O 0.50893 0.86737 0.91085 0.0
Co33 Co 0.51702 0.85587 0.98735 0.0
O34 O 0.48434 0.86167 0.95348 0.0
C35 C 0.53847 0.80353 0.95032 0.0
C36 C 0.58657 0.86346 0.90139 0.0
C37 C 0.48579 0.86475 0.92203 0.0
O38 O 0.54247 0.82019 0.92607 0.0
O39 O 0.53092 0.81463 0.97829 0.0
O40 O 0.55937 0.91736 0.94276 0.0
O41 O 0.55044 0.88143 0.97674 0.0
Co42 Co 0.60565 0.30153 0.27649 0.0
O43 O 0.56754 0.30866 0.26794 0.0
O44 O 0.58489 0.28586 0.31131 0.0
C45 C 0.62749 0.35335 0.27316 0.0
O46 O 0.64453 0.29286 0.29474 0.0
Co47 Co 0.64033 0.30934 0.2175 0.0
O48 O 0.67007 0.29998 0.25299 0.0
C49 C 0.59638 0.24999 0.20948 0.0
C50 C 0.56441 0.29799 0.29666 0.0
C51 C 0.66748 0.29391 0.28326 0.0
O52 O 0.59375 0.25736 0.24182 0.0
O53 O 0.61006 0.27012 0.19386 0.0
O54 O 0.62026 0.34708 0.30202 0.0
O55 O 0.61886 0.32923 0.24685 0.0
Co56 Co 0.10809 0.84105 0.2077 0.0
O57 O 0.06677 0.83566 0.1974 0.0
O58 O 0.09162 0.83181 0.24813 0.0
C59 C 0.1148 0.88963 0.18291 0.0
O60 O 0.15034 0.84509 0.23339 0.0
Co61 Co 0.14458 0.83865 0.15835 0.0
O62 O 0.17884 0.84318 0.19581 0.0
C63 C 0.11078 0.77529 0.16391 0.0
C64 C 0.06696 0.83087 0.22938 0.0
C65 C 0.17513 0.84441 0.22708 0.0
O66 O 0.10296 0.79133 0.18959 0.0
O67 O 0.12657 0.7901 0.14594 0.0
O68 O 0.1131 0.88947 0.21553 0.0
O69 O 0.11377 0.86051 0.16564 0.0
Co70 Co 0.53704 0.79798 0.49818 0.0
O71 O 0.57834 0.80607 0.50835 0.0
O72 O 0.55187 0.78408 0.45649 0.0
C73 C 0.53632 0.85123 0.52361 0.0
O74 O 0.49383 0.7884 0.47499 0.0
Co75 Co 0.50435 0.79706 0.55289 0.0
O76 O 0.47126 0.80063 0.51768 0.0
C77 C 0.52932 0.74067 0.54105 0.0
C78 C 0.57737 0.7951 0.47554 0.0
C79 C 0.4714 0.79421 0.4851 0.0
O80 O 0.53564 0.75244 0.51385 0.0
O81 O 0.51754 0.75618 0.5622 0.0
O82 O 0.53841 0.84306 0.49134 0.0
O83 O 0.53585 0.82713 0.54115 0.0
Co84 Co 0.60537 0.33973 0.70913 0.0
O85 O 0.56417 0.33467 0.69902 0.0
O86 O 0.58879 0.32963 0.74926 0.0
C87 C 0.61217 0.38928 0.6861 0.0
O88 O 0.64752 0.34293 0.73387 0.0
Co89 Co 0.64118 0.33878 0.65882 0.0
O90 O 0.67575 0.34357 0.69576 0.0
C91 C 0.60824 0.27469 0.66416 0.0
C92 C 0.56414 0.32919 0.73072 0.0
C93 C 0.67226 0.34341 0.72698 0.0
O94 O 0.59988 0.29028 0.68964 0.0
O95 O 0.62409 0.28998 0.64656 0.0
O96 O 0.61117 0.38813 0.7187 0.0
O97 O 0.61064 0.36041 0.66788 0.0
Co98 Co 0.03593 0.29865 0.99748 0.0
O99 O 0.07728 0.30869 1.00782 0.0
O100 O 0.05091 0.28452 0.956 0.0
C101 C 0.03394 0.35118 0.02327 0.0
O102 O 0.99277 0.2876 0.97287 0.0
Co103 Co 1.00087 0.29619 0.04985 0.0
O104 O 0.96789 0.29833 0.01339 0.0
C105 C 1.02948 0.24211 0.04153 0.0
C106 C 0.07616 0.29667 0.97519 0.0
C107 C 0.96939 0.29215 0.98126 0.0
O108 O 0.03576 0.25344 0.01402 0.0
O109 O 1.0163 0.25709 0.06129 0.0
O110 O 0.03677 0.34386 0.99112 0.0
O111 O 0.03317 0.32673 0.04026 0.0
Co112 Co 0.4409 0.09106 0.34534 0.0
O113 O 0.44354 0.14232 0.35138 0.0
O114 O 0.40481 0.1091 0.33084 0.0
C115 C 0.46952 0.08847 0.40371 0.0
O116 O 0.41981 0.03916 0.33888 0.0
Co117 Co 0.48142 0.04573 0.34638 0.0
O118 O 0.45121 1.00932 0.35328 0.0
C119 C 0.47494 0.0744 0.28156 0.0
C120 C 0.41647 0.1402 0.34076 0.0
C121 C 0.42548 1.01113 0.34585 0.0
O122 O 0.45452 0.08692 0.29348 0.0
O123 O 0.48883 0.0583 0.30058 0.0
O124 O 0.44423 0.09409 0.3992 0.0
O125 O 0.47715 0.08635 0.37385 0.0
Co126 Co 0.28368 0.19103 0.56153 0.0
O127 O 0.32502 0.20058 0.5678 0.0
O128 O 0.29922 0.15348 0.57217 0.0
C129 C 0.279 0.21455 0.51048 0.0
O130 O 0.24114 0.16783 0.55777 0.0
Co131 Co 0.24654 0.2379 0.56077 0.0
O132 O 0.21259 0.20253 0.55782 0.0
C133 C 0.28128 0.23459 0.62882 0.0
C134 C 0.32424 0.17087 0.57338 0.0
C135 C 0.21638 0.17373 0.5582 0.0
O136 O 0.28782 0.20886 0.6137 0.0
O137 O 0.26676 0.25137 0.6117 0.0
O138 O 0.27985 0.18392 0.50983 0.0
O139 O 0.279 0.22986 0.54158 0.0
Co140 Co 0.17333 0.09734 0.88312 0.0
O141 O 0.15873 0.04999 0.87397 0.0
O142 O 0.2017 0.07565 0.87122 0.0
C143 C 0.15556 0.10424 0.9336 0.0
O144 O 0.19958 0.14324 0.89032 0.0
Co145 Co 0.14246 0.14933 0.88401 0.0
O146 O 0.17734 0.18384 0.88783 0.0
C147 C 0.13894 0.10926 0.81572 0.0
C148 C 0.18343 0.04832 0.86801 0.0
C149 C 0.19991 0.17366 0.88973 0.0
O150 O 0.1589 0.0976 0.8313 0.0
O151 O 0.12738 0.12896 0.83262 0.0
O152 O 0.18011 0.09757 0.93389 0.0
O153 O 0.14256 0.10851 0.90319 0.0
Co154 Co 0.26286 0.9158 0.01926 0.0
O155 O 0.2316 0.92551 0.0386 0.0
O156 O 0.27077 0.96168 0.03802 0.0
C157 C 0.24102 0.8829 0.96746 0.0
O158 O 0.29861 0.9174 1.00161 0.0
Co159 Co 0.27473 0.8465 1.0059 0.0
O160 O 0.31346 0.87123 1.00554 0.0
C161 C 0.28512 0.88175 0.0777 0.0
C162 C 0.24682 0.95559 0.04751 0.0
C163 C 0.31792 0.90131 1.00248 0.0
O164 O 0.28154 0.90803 0.06647 0.0
O165 O 0.28014 0.85367 0.05794 0.0
O166 O 0.24342 0.91455 0.97104 0.0
O167 O 0.2468 0.87246 0.99662 0.0
Co168 Co 0.35472 0.43408 0.12396 0.0
O169 O 0.31334 0.42408 0.11699 0.0
O170 O 0.34032 0.47326 0.13743 0.0
C171 C 0.35465 0.40488 0.06958 0.0
O172 O 0.39771 0.45776 0.13125 0.0
Co173 Co 0.39189 0.38544 0.12578 0.0
O174 O 0.42408 0.42107 0.12351 0.0
C175 C 0.36129 0.39373 0.18284 0.0
C176 C 0.31484 0.45509 0.12708 0.0
C177 C 0.42155 0.45062 0.12749 0.0
O178 O 0.35761 0.42131 0.17362 0.0
O179 O 0.37249 0.37441 0.16476 0.0
O180 O 0.35076 0.43459 0.07322 0.0
O181 O 0.3575 0.39315 0.09837 0.0
Co182 Co 0.89285 0.20044 0.16991 0.0
O183 O 0.93136 0.19669 0.17769 0.0
O184 O 0.89375 0.15742 0.17718 0.0
C185 C 0.894 0.21589 0.11232 0.0
O186 O 0.85098 0.19448 0.15982 0.0
Co187 Co 0.86982 0.267 0.13821 0.0
O188 O 0.83338 0.23475 0.1378 0.0
C189 C 0.90315 0.2778 0.19479 0.0
C190 C 0.92085 0.16597 0.17919 0.0
C191 C 0.83038 0.207 0.14817 0.0
O192 O 0.89919 0.25005 0.17335 0.0
O193 O 0.89475 0.29957 0.17951 0.0
O194 O 0.89101 0.1868 0.11739 0.0
O195 O 0.89569 0.23549 0.14049 0.0
Co196 Co 0.19999 0.53662 0.37775 0.0
O197 O 0.19803 0.48545 0.37519 0.0
O198 O 0.23498 0.51675 0.37132 0.0
C199 C 0.1762 0.54773 0.42956 0.0
O200 O 0.22047 0.58829 0.38067 0.0
Co201 Co 0.15934 0.58208 0.37383 0.0
O202 O 0.19069 0.62171 0.3801 0.0
C203 C 0.16019 0.54399 0.30495 0.0
C204 C 0.22413 0.48636 0.3722 0.0
C205 C 0.21569 0.61807 0.38096 0.0
O206 O 0.18121 0.53223 0.32143 0.0
O207 O 0.14809 0.56259 0.32241 0.0
O208 O 0.20186 0.54321 0.43244 0.0
O209 O 0.1657 0.54491 0.39639 0.0
Co210 Co 0.85519 0.93089 0.62476 0.0
O211 O 0.81372 0.92024 0.61574 0.0
O212 O 0.83951 0.96904 0.63909 0.0
C213 C 0.85641 0.90632 0.56891 0.0
O214 O 0.89862 0.95435 0.63464 0.0
Co215 Co 0.89086 0.88202 0.62478 0.0
O216 O 0.9229 0.91669 0.62112 0.0
C217 C 0.8604 0.88742 0.68186 0.0
C218 C 0.81416 0.95072 0.62688 0.0
C219 C 0.92152 0.94652 0.62761 0.0
O220 O 0.85533 0.91445 0.67254 0.0
O221 O 0.87382 0.8701 0.66497 0.0
O222 O 0.85409 0.93643 0.57609 0.0
O223 O 0.85771 0.89132 0.59566 0.0
Co224 Co 0.96834 1.02085 0.32014 0.0
O225 O 0.98623 0.06706 0.33077 0.0
O226 O 0.94076 0.0456 0.30739 0.0
C227 C 0.98896 1.0119 0.37336 0.0
O228 O 0.94031 0.97545 0.30914 0.0
Co229 Co 0.99867 0.96776 0.31181 0.0
O230 O 0.9639 0.93604 0.31485 0.0
C231 C 0.99901 1.01144 0.26049 0.0
C232 C 0.96123 0.07146 0.31939 0.0
C233 C 0.94094 0.94558 0.31224 0.0
O234 O 0.97776 1.01917 0.27146 0.0
O235 O 1.01223 0.99188 0.2747 0.0
O236 O 0.96591 1.02237 0.36874 0.0
O237 O 0.9997 1.0075 0.34555 0.0
Co238 Co 0.38002 0.67886 0.64266 0.0
O239 O 0.41102 0.65785 0.64716 0.0
O240 O 0.36632 0.63243 0.64019 0.0
C241 C 0.39303 0.71006 0.60295 0.0
O242 O 0.34287 0.6928 0.63669 0.0
Co243 Co 0.39044 0.7578 0.66257 0.0
O244 O 0.34886 0.74789 0.6432 0.0
C245 C 0.39582 0.71628 0.71153 0.0
C246 C 0.39253 0.63045 0.64398 0.0
C247 C 0.33311 0.71892 0.63669 0.0
O248 O 0.38308 0.68763 0.69472 0.0
O249 O 0.41115 0.73363 0.69519 0.0
O250 O 0.3802 0.67921 0.59296 0.0
O251 O 0.39972 0.7198 0.63668 0.0
Co252 Co 0.46803 0.52529 0.82347 0.0
O253 O 0.48429 0.57195 0.83261 0.0
O254 O 0.43928 0.54829 0.8094 0.0
C255 C 0.48909 0.51944 0.87812 0.0
O256 O 0.44099 0.47922 0.81379 0.0
Co257 Co 0.49955 0.47405 0.81818 0.0
O258 O 0.46559 0.44119 0.82181 0.0
C259 C 0.49914 0.51444 0.76379 0.0
C260 C 0.45881 0.57504 0.82147 0.0
C261 C 0.44219 0.44977 0.81815 0.0
O262 O 0.47791 0.52262 0.77461 0.0
O263 O 0.51284 0.49611 0.77954 0.0
O264 O 0.46523 0.52804 0.87214 0.0
O265 O 0.50037 0.51457 0.85079 0.0
Co266 Co 0.7005 0.03708 0.87778 0.0
O267 O 0.69754 0.98592 0.8753 0.0
O268 O 0.73479 1.01643 0.87065 0.0
C269 C 0.6777 0.04822 0.93051 0.0
O270 O 0.72157 0.08853 0.87991 0.0
Co271 Co 0.66099 0.08323 0.87485 0.0
O272 O 0.69232 0.12252 0.87938 0.0
C273 C 0.66059 0.045 0.80553 0.0
C274 C 0.72344 0.98628 0.87184 0.0
C275 C 0.71712 0.11842 0.87965 0.0
O276 O 0.68133 0.0327 0.82169 0.0
O277 O 0.64905 0.06407 0.82329 0.0
O278 O 0.70326 0.04356 0.93257 0.0
O279 O 0.66677 0.04583 0.89747 0.0
Co280 Co 0.78357 0.68978 0.061 0.0
O281 O 0.82477 0.69814 0.06733 0.0
O282 O 0.79802 0.65124 0.07078 0.0
C283 C 0.77938 0.71435 1.01097 0.0
O284 O 0.7406 0.66859 0.0573 0.0
Co285 Co 0.74844 0.73973 0.06174 0.0
O286 O 0.71359 0.70514 0.05625 0.0
C287 C 0.78216 0.73252 0.12918 0.0
C288 C 0.82328 0.66818 0.07224 0.0
C289 C 0.7163 0.67598 0.05716 0.0
O290 O 0.78813 0.70681 0.11323 0.0
O291 O 0.76836 0.7505 0.11294 0.0
O292 O 0.77984 0.68347 1.0092 0.0
O293 O 0.78 0.72932 0.04238 0.0
Co294 Co 0.94008 0.5934 0.84659 0.0
O295 O 0.94205 0.6446 0.85156 0.0
O296 O 0.90354 0.61084 0.83195 0.0
C297 C 0.96882 0.59209 0.90554 0.0
O298 O 0.91954 0.54136 0.84133 0.0
Co299 Co 0.98186 0.54908 0.84991 0.0
O300 O 0.95137 0.51137 0.85354 0.0
C301 C 0.97601 0.57704 0.78464 0.0
C302 C 0.91487 0.64207 0.84129 0.0
C303 C 0.92559 0.51318 0.84722 0.0
O304 O 0.95419 0.58811 0.79471 0.0
O305 O 0.99092 0.56365 0.80589 0.0
O306 O 0.94346 0.59746 0.90066 0.0
O307 O 0.97636 0.58959 0.87569 0.0
Co308 Co 0.76507 0.41766 0.54748 0.0
O309 O 0.7303 0.4316 0.53741 0.0
O310 O 0.77204 0.46249 0.56897 0.0
C311 C 0.76566 0.39949 0.48539 0.0
O312 O 0.80458 0.4118 0.56122 0.0
Co313 Co 0.77315 0.34067 0.50749 0.0
O314 O 0.8129 0.36842 0.52727 0.0
C315 C 0.74168 0.34391 0.54803 0.0
C316 C 0.74521 0.45967 0.55668 0.0
C317 C 0.82133 0.39468 0.55093 0.0
O318 O 0.74913 0.36874 0.53296 0.0
O319 O 0.74501 0.31743 0.5317 0.0
O320 O 0.77325 0.42891 0.50138 0.0
O321 O 0.75706 0.38083 0.50575 0.0
Co322 Co 0.68057 0.5937 0.3901 0.0
O323 O 0.66897 0.54589 0.3838 0.0
O324 O 0.71039 0.57396 0.37914 0.0
C325 C 0.66317 0.59963 0.44144 0.0
O326 O 0.70532 0.64004 0.39492 0.0
Co327 Co 0.64933 0.64422 0.39232 0.0
O328 O 0.68306 0.68046 0.39585 0.0
C329 C 0.64438 0.60437 0.32306 0.0
C330 C 0.69432 0.54589 0.37911 0.0
C331 C 0.70558 0.67055 0.39561 0.0
O332 O 0.66434 0.59197 0.3378 0.0
O333 O 0.63377 0.62446 0.34095 0.0
O334 O 0.6886 0.59605 0.44141 0.0
O335 O 0.64937 0.60312 0.41112 0.0
Tb336 Tb 0.05359 0.04342 0.07345 0.0
Tb337 Tb 0.09874 0.08244 0.12714 0.0
C338 C 1.00374 1.02165 0.03901 0.0
C339 C 0.97962 0.03074 0.05243 0.0
C340 C 0.97195 1.0184 0.08165 0.0
C341 C 0.96126 0.03731 0.10575 0.0
C342 C 0.95593 0.06759 0.09947 0.0
C343 C 0.95877 0.07699 0.06714 0.0
C344 C 0.97074 0.05882 0.04387 0.0
C345 C 0.09922 0.06124 0.04617 0.0
C346 C 0.06006 0.12221 0.08901 0.0
C347 C 0.14835 0.10396 0.16229 0.0
C348 C 0.17115 0.09094 0.15049 0.0
C349 C 0.1648 0.07298 0.11605 0.0
C350 C 0.18286 0.05518 0.10428 0.0
C351 C 0.20786 0.05451 0.12684 0.0
C352 C 0.21523 0.07322 0.16124 0.0
C353 C 0.19669 0.09133 0.17319 0.0
C354 C 0.05092 0.06668 0.15155 0.0
C355 C 0.09191 1.00406 0.11501 0.0
O356 O 1.01761 1.00397 0.05684 0.0
O357 O 1.02113 0.04593 0.0318 0.0
O358 O 0.09096 0.07803 0.06995 0.0
O359 O 0.08233 0.03227 0.0392 0.0
O360 O 0.04242 0.09266 0.07965 0.0
O361 O 0.08575 0.12458 0.10749 0.0
O362 O 0.13592 0.12013 0.14082 0.0
O363 O 0.12986 0.08217 0.17149 0.0
O364 O 0.06044 0.04948 0.12968 0.0
O365 O 0.0701 0.09403 0.16172 0.0
O366 O 0.10979 0.03324 0.12324 0.0
O367 O 0.06631 1.00194 0.09627 0.0
H368 H 0.97691 0.99582 0.08787 0.0
H369 H 0.9587 0.02923 0.1302 0.0
H370 H 0.95427 0.10001 0.06151 0.0
H371 H 0.97584 0.06872 0.02122 0.0
H372 H 0.14485 0.07095 0.09861 0.0
H373 H 0.17668 0.04067 0.07783 0.0
H374 H 0.23458 0.07275 0.17899 0.0
H375 H 0.20171 0.10443 0.20016 0.0
Tb376 Tb 0.32552 0.79968 0.33381 0.0
Tb377 Tb 0.31204 0.8303 0.3903 0.0
C378 C 0.33602 0.78174 0.27466 0.0
C379 C 0.34048 0.80015 0.2466 0.0
C380 C 0.35468 0.83346 0.25506 0.0
C381 C 0.35036 0.85411 0.23103 0.0
C382 C 0.33277 0.84116 0.19785 0.0
C383 C 0.32129 0.80722 0.1879 0.0
C384 C 0.32496 0.78678 0.21233 0.0
C385 C 0.3621 0.79578 0.39204 0.0
C386 C 0.34944 0.87985 0.35538 0.0
C387 C 0.30487 0.84497 0.45195 0.0
C388 C 0.31608 0.83158 0.48304 0.0
C389 C 0.34318 0.8467 0.50352 0.0
C390 C 0.35828 0.82914 0.52426 0.0
C391 C 0.34586 0.79693 0.52676 0.0
C392 C 0.31744 0.78342 0.5101 0.0
C393 C 0.30273 0.80046 0.48808 0.0
C394 C 0.27625 0.83581 0.3318 0.0
C395 C 0.28943 0.75013 0.36989 0.0
O396 O 0.31061 0.77805 0.28056 0.0
O397 O 0.35519 0.79062 0.30384 0.0
O398 O 0.35279 0.82068 0.38521 0.0
O399 O 0.34816 0.77152 0.36726 0.0
O400 O 0.34202 0.85322 0.32978 0.0
O401 O 0.34145 0.87594 0.38521 0.0
O402 O 0.32383 0.86262 0.43906 0.0
O403 O 0.28596 0.82442 0.42688 0.0
O404 O 0.28525 0.81056 0.3379 0.0
O405 O 0.28648 0.85808 0.35974 0.0
O406 O 0.2982 0.77661 0.39569 0.0
O407 O 0.29595 0.75439 0.33937 0.0
H408 H 0.36739 0.84403 0.28101 0.0
H409 H 0.35948 0.88026 0.23886 0.0
H410 H 0.30774 0.79702 0.16212 0.0
H411 H 0.31382 0.76116 0.20539 0.0
H412 H 0.35378 0.87098 0.50093 0.0
H413 H 0.38012 0.84015 0.53704 0.0
H414 H 0.30733 0.75876 0.51215 0.0
H415 H 0.28167 0.78831 0.4732 0.0
Tb416 Tb 0.59619 0.06349 0.58682 0.0
Tb417 Tb 0.54176 0.05968 0.61734 0.0
C418 C 0.64605 0.06021 0.58103 0.0
C419 C 0.66934 0.04286 0.59083 0.0
C420 C 0.67494 0.03182 0.62311 0.0
C421 C 0.69777 1.01661 0.6314 0.0
C422 C 0.71572 1.01226 0.60777 0.0
C423 C 0.70996 0.02337 0.57564 0.0
C424 C 0.68722 0.03836 0.56736 0.0
C425 C 0.55209 0.0726 0.53589 0.0
C426 C 0.55429 0.9934 0.58199 0.0
C427 C 0.49231 0.06348 0.62387 0.0
C428 C 0.46995 0.08217 0.61439 0.0
C429 C 0.45084 0.07378 0.58136 0.0
C430 C 0.42804 0.08903 0.57441 0.0
C431 C 0.42359 0.11304 0.60028 0.0
C432 C 0.44294 0.12188 0.63298 0.0
C433 C 0.46565 0.10661 0.63996 0.0
C434 C 0.58575 0.04971 0.66759 0.0
C435 C 0.58276 0.13009 0.62118 0.0
O436 O 0.64023 0.08041 0.60575 0.0
O437 O 0.62315 0.04354 0.55828 0.0
O438 O 0.5528 0.06728 0.56762 0.0
O439 O 0.57809 0.07327 0.53335 0.0
O440 O 0.58026 1.01036 0.58339 0.0
O441 O 0.53461 1.00805 0.5912 0.0
O442 O 0.49765 0.04308 0.59888 0.0
O443 O 0.51539 0.07915 0.64692 0.0
O444 O 0.58498 0.05562 0.63614 0.0
O445 O 0.55971 0.04843 0.67016 0.0
O446 O 0.55734 0.11301 0.62182 0.0
O447 O 0.60231 0.11568 0.61099 0.0
H448 H 0.66171 0.03491 0.64191 0.0
H449 H 0.70137 1.00813 0.65624 0.0
H450 H 0.72312 1.02031 0.55674 0.0
H451 H 0.68366 0.04666 0.54239 0.0
H452 H 0.4531 0.05489 0.56105 0.0
H453 H 0.41353 0.08167 0.54897 0.0
H454 H 0.44014 0.14024 0.65344 0.0
H455 H 0.47954 0.11345 0.66585 0.0
Tb456 Tb 0.29201 0.32322 0.84662 0.0
Tb457 Tb 0.34798 0.29922 0.85814 0.0
C458 C 0.24195 0.3266 0.8502 0.0
C459 C 0.22123 0.32235 0.87386 0.0
C460 C 0.21168 0.29217 0.88397 0.0
C461 C 0.19025 0.28801 0.9034 0.0
C462 C 0.17825 0.31434 0.9154 0.0
C463 C 0.18628 0.34339 0.90169 0.0
C464 C 0.20771 0.34759 0.88243 0.0
C465 C 0.33713 0.36309 0.83443 0.0
C466 C 0.33033 0.33213 0.9252 0.0
C467 C 0.39826 0.2962 0.8552 0.0
C468 C 0.41957 0.30076 0.83231 0.0
C469 C 0.44026 0.33045 0.83884 0.0
C470 C 0.46237 0.33416 0.82065 0.0
C471 C 0.4647 0.30822 0.79544 0.0
C472 C 0.44381 0.27869 0.7883 0.0
C473 C 0.42163 0.27495 0.80657 0.0
C474 C 0.30366 0.26061 0.87274 0.0
C475 C 0.30828 0.28808 0.77984 0.0
O476 O 0.24893 0.30023 0.836 0.0
O477 O 0.26354 0.3521 0.85923 0.0
O478 O 0.33611 0.34445 0.8568 0.0
O479 O 0.31101 0.36287 0.82052 0.0
O480 O 0.30606 0.33172 0.90412 0.0
O481 O 0.35146 0.32401 0.91211 0.0
O482 O 0.39096 0.32255 0.86874 0.0
O483 O 0.37679 0.27055 0.84628 0.0
O484 O 0.30382 0.27764 0.84871 0.0
O485 O 0.3299 0.26151 0.8868 0.0
O486 O 0.33264 0.2874 0.80033 0.0
O487 O 0.28859 0.30032 0.79232 0.0
H488 H 0.22005 0.27122 0.8758 0.0
H489 H 0.1826 0.26335 0.90721 0.0
H490 H 0.17547 0.36308 0.90426 0.0
H491 H 0.21299 0.37046 0.87303 0.0
H492 H 0.43983 0.3507 0.85881 0.0
H493 H 0.47803 0.35721 0.82676 0.0
H494 H 0.44496 0.25828 0.76896 0.0
H495 H 0.40644 0.25157 0.80103 0.0
Tb496 Tb 0.05966 0.08838 0.59382 0.0
Tb497 Tb 0.0818 1.02283 0.58991 0.0
C498 C 0.05897 0.14613 0.58765 0.0
C499 C 0.06436 0.16406 0.55948 0.0
C500 C 0.06309 0.14703 0.52554 0.0
C501 C 0.06807 0.16407 0.4986 0.0
C502 C 0.0735 0.19832 0.50519 0.0
C503 C 0.07529 0.21543 0.53926 0.0
C504 C 0.07089 0.19836 0.56636 0.0
C505 C 1.02168 0.03961 0.60826 0.0
C506 C 0.04653 0.03718 0.52103 0.0
C507 C 0.08641 0.96603 0.59549 0.0
C508 C 0.1058 0.95497 0.62122 0.0
C509 C 0.09842 0.92301 0.62751 0.0
C510 C 0.11297 0.91449 0.65733 0.0
C511 C 0.13487 0.93793 0.68107 0.0
C512 C 0.14367 0.96924 0.6735 0.0
C513 C 0.12904 0.9778 0.64362 0.0
C514 C 0.12054 0.07355 0.57893 0.0
C515 C 0.09443 0.07267 0.66364 0.0
O516 O 0.08098 0.13794 0.60506 0.0
O517 O 0.03626 0.12212 0.57915 0.0
O518 O 0.04519 0.03912 0.59954 0.0
O519 O 1.01953 0.06991 0.60976 0.0
O520 O 0.04848 0.06753 0.53727 0.0
O521 O 0.0558 1.0147 0.53705 0.0
O522 O 0.06855 0.98015 0.60916 0.0
O523 O 0.09782 0.9823 0.57361 0.0
O524 O 0.09553 0.07193 0.58325 0.0
O525 O 0.12444 0.04437 0.58123 0.0
O526 O 0.09667 0.04427 0.64614 0.0
O527 O 0.08159 0.09362 0.64867 0.0
H528 H 0.05784 0.1206 0.51958 0.0
H529 H 0.06671 0.15061 0.47248 0.0
H530 H 0.07946 0.24203 0.54461 0.0
H531 H 0.07206 0.21185 0.59241 0.0
H532 H 0.08037 0.90533 0.61064 0.0
H533 H 0.10606 0.89019 0.66304 0.0
H534 H 0.16051 0.98748 0.69175 0.0
H535 H 0.13474 1.00275 0.63916 0.0
Tb536 Tb 0.31387 0.76888 0.83756 0.0
Tb537 Tb 0.30842 0.83365 0.81625 0.0
C538 C 0.3271 0.7154 0.84418 0.0
C539 C 0.35159 0.70136 0.84146 0.0
C540 C 0.34692 0.66793 0.82735 0.0
C541 C 0.36965 0.65372 0.8243 0.0
C542 C 0.39737 0.67278 0.83526 0.0
C543 C 0.40218 0.70647 0.84863 0.0
C544 C 0.37934 0.72068 0.85193 0.0
C545 C 0.29561 0.80718 0.88314 0.0
C546 C 0.36876 0.8281 0.8514 0.0
C547 C 0.29581 0.88669 0.80512 0.0
C548 C 0.2762 0.90716 0.81318 0.0
C549 C 0.24939 0.89376 0.81887 0.0
C550 C 0.23182 0.91448 0.82759 0.0
C551 C 0.24099 0.94866 0.83076 0.0
C552 C 0.26757 0.96184 0.82459 0.0
C553 C 0.28505 0.94124 0.81598 0.0
C554 C 0.32709 0.7948 0.77113 0.0
C555 C 0.25389 0.77558 0.80625 0.0
O556 O 0.31356 0.72097 0.81467 0.0
O557 O 0.33022 0.73931 0.87075 0.0
O558 O 0.31351 0.81647 0.86522 0.0
O559 O 0.28842 0.77536 0.87638 0.0
O560 O 0.35783 0.79644 0.84931 0.0
O561 O 0.35286 0.84841 0.84193 0.0
O562 O 0.31489 0.88454 0.8319 0.0
O563 O 0.28528 0.85856 0.78343 0.0
O564 O 0.30913 0.78634 0.78908 0.0
O565 O 0.33334 0.82643 0.77666 0.0
O566 O 0.26475 0.80768 0.81283 0.0
O567 O 0.26975 0.75422 0.81072 0.0
H568 H 0.32565 0.65276 0.81885 0.0
H569 H 0.36565 0.62769 0.81378 0.0
H570 H 0.4235 0.72143 0.85715 0.0
H571 H 0.38334 0.74654 0.86298 0.0
H572 H 0.24222 0.8675 0.81699 0.0
H573 H 0.21125 0.90397 0.8321 0.0
H574 H 0.27483 0.98813 0.82676 0.0
H575 H 0.30566 0.95196 0.81169 0.0
Tb576 Tb 0.54908 0.07159 0.07442 0.0
Tb577 Tb 0.59635 0.06784 0.13193 0.0
C578 C 0.50555 0.05249 0.02588 0.0
C579 C 0.47797 0.0304 0.02086 0.0
C580 C 0.46875 1.01944 0.04973 0.0
C581 C 0.44401 0.99529 0.04433 0.0
C582 C 0.42824 0.98201 1.01002 0.0
C583 C 0.43762 0.99263 0.98107 0.0
C584 C 0.46255 1.01668 0.98651 0.0
C585 C 0.57779 0.12887 0.11157 0.0
C586 C 0.5366 0.06718 0.15615 0.0
C587 C 0.64262 0.08691 0.17495 0.0
C588 C 0.67105 0.09961 0.17017 0.0
C589 C 0.68732 0.12838 0.19277 0.0
C590 C 0.71217 0.14482 0.18529 0.0
C591 C 0.72101 0.13265 0.15512 0.0
C592 C 0.70508 0.10358 0.13269 0.0
C593 C 0.68009 0.08712 0.14015 0.0
C594 C 0.56702 1.01111 0.0945 0.0
C595 C 0.60905 0.07002 0.05002 0.0
O596 O 0.52618 0.0375 0.03002 0.0
O597 O 0.51094 0.08028 0.04823 0.0
O598 O 0.57156 0.10215 0.12197 0.0
O599 O 0.56609 0.12436 0.07813 0.0
O600 O 0.52616 0.06417 0.12088 0.0
O601 O 0.56439 0.06914 0.16646 0.0
O602 O 0.6256 0.10602 0.16702 0.0
O603 O 0.63094 0.05571 0.1626 0.0
O604 O 0.57381 0.03794 0.08477 0.0
O605 O 0.57856 1.01505 0.12798 0.0
O606 O 0.61896 0.07063 0.08482 0.0
O607 O 0.58199 0.07198 0.04055 0.0
H608 H 0.48081 0.02921 0.0763 0.0
H609 H 0.43677 0.98747 0.06691 0.0
H610 H 0.4254 0.98279 0.95451 0.0
H611 H 0.4699 0.02442 0.96397 0.0
H612 H 0.68031 0.1387 0.21559 0.0
H613 H 0.72458 0.16704 0.20305 0.0
H614 H 0.71202 0.09373 0.10963 0.0
H615 H 0.66759 0.06515 0.1221 0.0
Tb616 Tb 0.29547 0.29112 0.33162 0.0
Tb617 Tb 0.34609 0.33425 0.37338 0.0
C618 C 0.24433 0.26191 0.31777 0.0
C619 C 0.21934 0.27514 0.32248 0.0
C620 C 0.20662 0.26846 0.35076 0.0
C621 C 0.18673 0.28538 0.36011 0.0
C622 C 0.17903 0.30918 0.34127 0.0
C623 C 0.19035 0.31462 0.31178 0.0
C624 C 0.21036 0.29772 0.3024 0.0
C625 C 0.3259 0.32321 0.29267 0.0
C626 C 0.29173 0.3695 0.36343 0.0
C627 C 0.39783 0.36219 0.38493 0.0
C628 C 0.42283 0.3505 0.3756 0.0
C629 C 0.42954 0.35341 0.34263 0.0
C630 C 0.45198 0.34162 0.3325 0.0
C631 C 0.46941 0.32772 0.35552 0.0
C632 C 0.4635 0.32577 0.38911 0.0
C633 C 0.44022 0.33651 0.3988 0.0
C634 C 0.31514 0.30102 0.41149 0.0
C635 C 0.34937 0.25599 0.34279 0.0
O636 O 0.26189 0.26264 0.34723 0.0
O637 O 0.25761 0.27125 0.29359 0.0
O638 O 0.32171 0.33435 0.32258 0.0
O639 O 0.3114 0.2929 0.28295 0.0
O640 O 0.27883 0.33804 0.3476 0.0
O641 O 0.31996 0.37424 0.37611 0.0
O642 O 0.37885 0.36481 0.35827 0.0
O643 O 0.38599 0.34988 0.40891 0.0
O644 O 0.31997 0.29074 0.38176 0.0
O645 O 0.32963 0.33142 0.42198 0.0
O646 O 0.36257 0.28739 0.35794 0.0
O647 O 0.32122 0.25108 0.33043 0.0
H648 H 0.21302 0.25118 0.36669 0.0
H649 H 0.17798 0.28064 0.38276 0.0
H650 H 0.18423 0.33254 0.29663 0.0
H651 H 0.21958 0.30333 0.28035 0.0
H652 H 0.41755 0.36521 0.32456 0.0
H653 H 0.45636 0.34441 0.30689 0.0
H654 H 0.47704 0.31617 0.40793 0.0
H655 H 0.4361 0.33428 0.42462 0.0
Tb656 Tb 0.56088 0.59699 0.10228 0.0
Tb657 Tb 0.58085 0.53043 0.09417 0.0
C658 C 0.56184 0.65592 0.10063 0.0
C659 C 0.56438 0.67424 0.07211 0.0
C660 C 0.57205 0.6603 0.0416 0.0
C661 C 0.56976 0.67513 1.01194 0.0
C662 C 0.56018 0.7042 0.01291 0.0
C663 C 0.55355 0.71868 0.04384 0.0
C664 C 0.55553 0.70369 0.07328 0.0
C665 C 0.52149 0.54732 0.11303 0.0
C666 C 0.54673 0.54992 0.02684 0.0
C667 C 0.58154 0.47247 0.09954 0.0
C668 C 0.59784 0.45982 0.12698 0.0
C669 C 0.58797 0.42787 0.1321 0.0
C670 C 0.60026 0.41768 0.16217 0.0
C671 C 0.62227 0.4395 0.18737 0.0
C672 C 0.63275 0.47118 0.18184 0.0
C673 C 0.62063 0.48127 0.15158 0.0
C674 C 0.6198 0.57892 0.08115 0.0
C675 C 0.59554 0.57831 0.17037 0.0
O676 O 0.58424 0.64575 0.11371 0.0
O677 O 0.53843 0.63312 0.09433 0.0
O678 O 0.54515 0.54733 0.10474 0.0
O679 O 0.5197 0.57781 0.11585 0.0
O680 O 0.54946 0.57984 0.04492 0.0
O681 O 0.55519 0.526 0.04127 0.0
O682 O 0.56338 0.48771 0.11076 0.0
O683 O 0.59594 0.48859 0.07995 0.0
O684 O 0.59627 0.57992 0.08967 0.0
O685 O 0.62207 0.54877 0.08077 0.0
O686 O 0.59891 0.55164 0.15047 0.0
O687 O 0.58055 0.59836 0.15732 0.0
H688 H 0.57893 0.63748 0.04037 0.0
H689 H 0.57494 0.66377 0.9882 0.0
H690 H 0.54614 0.74119 0.04482 0.0
H691 H 0.54925 0.71446 0.09648 0.0
H692 H 0.57011 0.41134 0.11361 0.0
H693 H 0.59211 0.39309 0.16635 0.0
H694 H 0.64979 0.48812 0.20119 0.0
H695 H 0.62831 0.50616 0.14802 0.0
Tb696 Tb 0.83873 0.28508 0.35736 0.0
Tb697 Tb 0.84558 0.35884 0.35903 0.0
C698 C 0.84318 0.22664 0.34844 0.0
C699 C 0.8651 0.21038 0.33932 0.0
C700 C 0.85715 0.17844 0.31956 0.0
C701 C 0.87771 0.16136 0.31354 0.0
C702 C 0.90635 0.17616 0.32717 0.0
C703 C 0.91446 0.20892 0.34477 0.0
C704 C 0.89388 0.22596 0.35087 0.0
C705 C 0.82101 0.31744 0.40936 0.0
C706 C 0.89858 0.33404 0.38974 0.0
C707 C 0.83768 0.41598 0.36307 0.0
C708 C 0.81333 0.43031 0.36619 0.0
C709 C 0.78977 0.41282 0.3763 0.0
C710 C 0.7664 0.42634 0.37824 0.0
C711 C 0.76606 0.45716 0.36912 0.0
C712 C 0.78936 0.47437 0.35833 0.0
C713 C 0.81288 0.46103 0.35693 0.0
C714 C 0.86639 0.32891 0.30951 0.0
C715 C 0.78526 0.30822 0.33105 0.0
O716 O 0.8306 0.2396 0.32361 0.0
O717 O 0.84938 0.24579 0.37945 0.0
O718 O 0.84166 0.32725 0.39594 0.0
O719 O 0.81095 0.28686 0.39494 0.0
O720 O 0.88423 0.3041 0.37413 0.0
O721 O 0.88669 0.35969 0.39164 0.0
O722 O 0.84887 0.4046 0.39036 0.0
O723 O 0.83471 0.39601 0.33325 0.0
O724 O 0.84471 0.31709 0.32057 0.0
O725 O 0.87392 0.35988 0.32277 0.0
O726 O 0.79998 0.33772 0.34778 0.0
O727 O 0.79787 0.28394 0.32521 0.0
H728 H 0.83505 0.16628 0.31 0.0
H729 H 0.87124 0.136 0.29997 0.0
H730 H 0.93653 0.22051 0.35557 0.0
H731 H 0.90052 0.2507 0.36592 0.0
H732 H 0.78942 0.38873 0.38263 0.0
H733 H 0.74884 0.41307 0.38732 0.0
H734 H 0.78953 0.49842 0.35169 0.0
H735 H 0.8307 0.47469 0.34862 0.0
Tb736 Tb 0.04661 0.57014 0.57461 0.0
Tb737 Tb 0.098 0.58373 0.63189 0.0
C738 C 0.99976 0.53914 0.53663 0.0
C739 C 0.97354 0.52219 0.5451 0.0
C740 C 0.97461 0.50913 0.57621 0.0
C741 C 0.95065 0.48904 0.58213 0.0
C742 C 0.92517 0.48192 0.55719 0.0
C743 C 0.9236 0.49617 0.52686 0.0
C744 C 0.94776 0.51617 0.52079 0.0
C745 C 0.06718 0.63297 0.60183 0.0
C746 C 0.03891 0.57294 0.65934 0.0
C747 C 0.14414 0.61934 0.66741 0.0
C748 C 0.17024 0.63566 0.65792 0.0
C749 C 0.16883 0.65336 0.63004 0.0
C750 C 0.19339 0.66981 0.6217 0.0
C751 C 0.21977 0.6692 0.64133 0.0
C752 C 0.22139 0.6518 0.6693 0.0
C753 C 0.19673 0.63507 0.67753 0.0
C754 C 0.07846 0.5215 0.60436 0.0
C755 C 0.10576 0.57395 0.54644 0.0
O756 O 1.02121 0.526 0.54509 0.0
O757 O 1.00675 0.57125 0.54514 0.0
O758 O 0.06574 0.60877 0.61741 0.0
O759 O 0.05552 0.6216 0.56854 0.0
O760 O 1.02739 0.56746 0.62431 0.0
O761 O 0.06728 0.57856 0.66881 0.0
O762 O 0.12203 0.63038 0.65588 0.0
O763 O 0.13829 0.58719 0.66354 0.0
O764 O 0.07879 0.54594 0.58949 0.0
O765 O 0.09104 0.53196 0.63757 0.0
O766 O 0.11743 0.58168 0.58165 0.0
O767 O 0.07739 0.56931 0.5375 0.0
H768 H 0.99425 0.51311 0.59522 0.0
H769 H 0.95222 0.47802 0.6055 0.0
H770 H 0.90403 0.49061 0.50725 0.0
H771 H 0.94656 0.52587 0.49659 0.0
H772 H 0.1487 0.65471 0.61473 0.0
H773 H 0.19186 0.68323 0.60013 0.0
H774 H 0.24173 0.65126 0.68473 0.0
H775 H 0.19833 0.62195 0.69933 0.0
Tb776 Tb 0.7935 0.81908 0.34658 0.0
Tb777 Tb 0.85089 0.79713 0.35749 0.0
C778 C 0.74305 0.82096 0.34978 0.0
C779 C 0.72156 0.81653 0.37237 0.0
C780 C 0.71427 0.78747 0.38581 0.0
C781 C 0.69184 0.78251 0.40358 0.0
C782 C 0.67573 0.80624 0.40794 0.0
C783 C 0.68324 0.83536 0.39484 0.0
C784 C 0.70577 0.84041 0.37737 0.0
C785 C 0.83713 0.85925 0.3314 0.0
C786 C 0.83554 0.8354 0.42308 0.0
C787 C 0.90096 0.79423 0.35294 0.0
C788 C 0.92142 0.79751 0.32884 0.0
C789 C 0.92603 0.82446 0.31138 0.0
C790 C 0.94827 0.8296 0.29328 0.0
C791 C 0.96653 0.80795 0.29205 0.0
C792 C 0.96134 0.7805 0.3085 0.0
C793 C 0.9392 0.77542 0.32666 0.0
C794 C 0.80756 0.75898 0.37512 0.0
C795 C 0.81018 0.78406 0.27995 0.0
O796 O 0.75079 0.79476 0.33658 0.0
O797 O 0.7642 0.84695 0.35885 0.0
O798 O 0.8372 0.84113 0.35425 0.0
O799 O 0.81065 0.8584 0.31873 0.0
O800 O 0.80931 0.83005 0.40421 0.0
O801 O 0.85627 0.82677 0.40954 0.0
O802 O 0.89353 0.82089 0.36524 0.0
O803 O 0.87984 0.76829 0.346 0.0
O804 O 0.80694 0.77468 0.35003 0.0
O805 O 0.83407 0.76103 0.38897 0.0
O806 O 0.83503 0.7847 0.30005 0.0
O807 O 0.7899 0.79483 0.29261 0.0
H808 H 0.72556 0.76827 0.38199 0.0
H809 H 0.68681 0.75991 0.41354 0.0
H810 H 0.67144 0.8542 0.39788 0.0
H811 H 0.71045 0.86282 0.36699 0.0
H812 H 0.91293 0.8421 0.31246 0.0
H813 H 0.95163 0.85097 0.2809 0.0
H814 H 0.97497 0.76338 0.3081 0.0
H815 H 0.93654 0.75466 0.34005 0.0
Tb816 Tb 0.82482 0.30089 0.82808 0.0
Tb817 Tb 0.81327 0.32914 0.88701 0.0
C818 C 0.82914 0.28826 0.76488 0.0
C819 C 0.81489 0.30061 0.73524 0.0
C820 C 0.80058 0.32558 0.74206 0.0
C821 C 0.78427 0.33534 0.7145 0.0
C822 C 0.7829 0.32111 0.67961 0.0
C823 C 0.7976 0.29653 0.67264 0.0
C824 C 0.81343 0.28616 0.7004 0.0
C825 C 0.86293 0.29379 0.88337 0.0
C826 C 0.84985 0.38029 0.85334 0.0
C827 C 0.80949 0.34235 0.94991 0.0
C828 C 0.82628 0.33053 0.97808 0.0
C829 C 0.85367 0.32757 0.97546 0.0
C830 C 0.86734 0.30857 0.99557 0.0
C831 C 0.85406 0.29236 0.01886 0.0
C832 C 0.8274 0.29686 0.02321 0.0
C833 C 0.81346 0.31569 1.00268 0.0
C834 C 0.77405 0.33403 0.83064 0.0
C835 C 0.79068 0.24963 0.86511 0.0
O836 O 0.81233 0.26894 0.77894 0.0
O837 O 0.84751 0.31044 0.78885 0.0
O838 O 0.85318 0.319 0.87967 0.0
O839 O 0.85219 0.27251 0.85471 0.0
O840 O 0.84005 0.35529 0.82603 0.0
O841 O 0.84398 0.37417 0.88362 0.0
O842 O 0.82382 0.36321 0.93464 0.0
O843 O 0.79133 0.31913 0.92685 0.0
O844 O 0.78454 0.30967 0.83591 0.0
O845 O 0.78624 0.35667 0.85781 0.0
O846 O 0.80049 0.27538 0.89154 0.0
O847 O 0.79562 0.255 0.83405 0.0
H848 H 0.80111 0.33669 0.76881 0.0
H849 H 0.77275 0.354 0.72032 0.0
H850 H 0.79653 0.28518 0.64574 0.0
H851 H 0.82413 0.26666 0.69474 0.0
H852 H 0.86396 0.33832 0.95633 0.0
H853 H 0.88804 0.30578 0.99232 0.0
H854 H 0.8169 0.28453 0.04125 0.0
H855 H 0.79215 0.3171 1.00455 0.0
Tb856 Tb 0.78867 0.78841 0.83326 0.0
Tb857 Tb 0.8463 0.83661 0.87517 0.0
C858 C 0.73843 0.75947 0.82779 0.0
C859 C 0.71428 0.77408 0.83343 0.0
C860 C 0.70024 0.76613 0.86023 0.0
C861 C 0.67967 0.78249 0.86871 0.0
C862 C 0.67281 0.80723 0.85067 0.0
C863 C 0.68643 0.81492 0.82351 0.0
C864 C 0.70699 0.79853 0.81498 0.0
C865 C 0.81586 0.82051 0.79009 0.0
C866 C 0.78916 0.86879 0.86376 0.0
C867 C 0.89566 0.86913 0.88119 0.0
C868 C 0.9185 0.86012 0.86484 0.0
C869 C 0.91236 0.84239 0.83009 0.0
C870 C 0.9337 0.83243 0.81529 0.0
C871 C 0.96153 0.83976 0.83498 0.0
C872 C 0.96771 0.85734 0.86974 0.0
C873 C 0.94635 0.86738 0.88456 0.0
C874 C 0.81838 0.80359 0.91715 0.0
C875 C 0.84574 0.75635 0.84514 0.0
O876 O 0.75807 0.76256 0.85613 0.0
O877 O 0.74911 0.7652 0.80041 0.0
O878 O 0.82251 0.82208 0.82313 0.0
O879 O 0.79257 0.79774 0.77977 0.0
O880 O 0.77529 0.83766 0.84731 0.0
O881 O 0.81744 0.87373 0.87737 0.0
O882 O 0.8738 0.87371 0.8597 0.0
O883 O 0.88817 0.85177 0.90445 0.0
O884 O 0.81216 0.80406 0.88468 0.0
O885 O 0.84219 0.82548 0.92846 0.0
O886 O 0.86 0.7881 0.85828 0.0
O887 O 0.81706 0.75068 0.83444 0.0
H888 H 0.70563 0.74774 0.87516 0.0
H889 H 0.66923 0.77605 0.88959 0.0
H890 H 0.68124 0.83371 0.80909 0.0
H891 H 0.71754 0.80551 0.7944 0.0
H892 H 0.891 0.83604 0.81437 0.0
H893 H 0.92854 0.81917 0.78837 0.0
H894 H 0.98912 0.86346 0.88526 0.0
H895 H 0.95155 0.88069 0.91146 0.0
Tb896 Tb 0.55346 0.54136 0.57367 0.0
Tb897 Tb 0.59794 0.58202 0.6274 0.0
C898 C 0.50539 0.5138 0.53559 0.0
C899 C 0.47748 0.51585 0.54314 0.0
C900 C 0.4657 0.49646 0.56554 0.0
C901 C 0.44562 0.50618 0.58296 0.0
C902 C 0.4367 0.53484 0.57736 0.0
C903 C 0.44533 0.55136 0.55126 0.0
C904 C 0.4655 0.54184 0.53409 0.0
C905 C 0.60094 0.55652 0.54934 0.0
C906 C 0.55846 0.61968 0.58632 0.0
C907 C 0.64714 0.60992 0.66075 0.0
C908 C 0.67307 0.60495 0.64955 0.0
C909 C 0.67514 0.60573 0.61432 0.0
C910 C 0.69251 0.58853 0.59907 0.0
C911 C 0.70784 0.57028 0.61876 0.0
C912 C 0.70922 0.5737 0.65521 0.0
C913 C 0.69179 0.59094 0.67056 0.0
C914 C 0.55013 0.56683 0.65214 0.0
C915 C 0.5916 0.50427 0.61827 0.0
O916 O 0.52044 0.49893 0.55585 0.0
O917 O 0.52077 0.54112 0.5312 0.0
O918 O 0.59175 0.57476 0.57068 0.0
O919 O 0.58282 0.52853 0.54102 0.0
O920 O 0.54134 0.58989 0.57583 0.0
O921 O 0.58345 0.62264 0.6067 0.0
O922 O 0.63127 0.62411 0.64063 0.0
O923 O 0.63221 0.58404 0.66879 0.0
O924 O 0.55936 0.54904 0.63033 0.0
O925 O 0.56965 0.5938 0.66213 0.0
O926 O 0.60965 0.53342 0.626 0.0
O927 O 0.5659 0.50185 0.59983 0.0
H928 H 0.47391 0.47571 0.57224 0.0
H929 H 0.43905 0.49317 0.60303 0.0
H930 H 0.43851 0.57351 0.54664 0.0
H931 H 0.47365 0.55683 0.51637 0.0
H932 H 0.66117 0.61652 0.59737 0.0
H933 H 0.69167 0.58663 0.57107 0.0
H934 H 0.72117 0.55986 0.6708 0.0
H935 H 0.69061 0.59007 0.69772 0.0
Tb936 Tb 0.09574 0.56369 0.08636 0.0
Tb937 Tb 0.04172 0.56002 0.11735 0.0
C938 C 0.14539 0.56079 0.07938 0.0
C939 C 0.16933 0.54473 0.08992 0.0
C940 C 0.16862 0.52182 0.11278 0.0
C941 C 0.19153 0.50672 0.12095 0.0
C942 C 0.2157 0.51424 0.10654 0.0
C943 C 0.21631 0.53738 0.08402 0.0
C944 C 0.19354 0.55233 0.07588 0.0
C945 C 0.05157 0.57358 0.03602 0.0
C946 C 0.05419 0.49368 0.08154 0.0
C947 C 0.99232 0.56318 0.1249 0.0
C948 C 0.96927 0.58079 0.11577 0.0
C949 C 0.9628 0.59078 0.08305 0.0
C950 C 0.93989 0.60579 0.07512 0.0
C951 C 0.92288 0.6111 0.09964 0.0
C952 C 0.92965 0.60141 0.13237 0.0
C953 C 0.95247 0.58653 0.14028 0.0
C954 C 0.08573 0.54948 0.16722 0.0
C955 C 0.083 0.63042 0.12142 0.0
O956 O 0.13985 0.58201 0.10335 0.0
O957 O 0.12225 0.54254 0.05827 0.0
O958 O 0.0524 0.56798 0.06763 0.0
O959 O 0.07737 0.57363 0.03306 0.0
O960 O 0.08034 0.51067 0.08417 0.0
O961 O 0.03438 0.50855 0.09001 0.0
O962 O 0.99762 0.54297 0.09973 0.0
O963 O 1.0155 0.57984 0.14711 0.0
O964 O 0.08492 0.5556 0.13585 0.0
O965 O 0.05973 0.54832 0.1699 0.0
O966 O 0.0575 0.61345 0.12208 0.0
O967 O 0.10234 0.6157 0.11115 0.0
H968 H 0.15031 0.5154 0.12405 0.0
H969 H 0.19027 0.48891 0.13823 0.0
H970 H 0.23442 0.54367 0.07235 0.0
H971 H 0.19478 0.56979 0.05819 0.0
H972 H 0.97527 0.58678 0.06355 0.0
H973 H 0.93528 0.61302 0.0497 0.0
H974 H 0.91705 0.60512 0.1518 0.0
H975 H 0.9568 0.57906 0.16562 0.0
C976 C 1.031 0.18031 0.02914 0.0
C977 C 0.03846 0.21134 0.05244 0.0
C978 C 0.05684 0.18304 0.10047 0.0
C979 C 0.05171 0.15269 0.07654 0.0
N980 N 0.03986 0.1258 0.0155 0.0
N981 N 0.06481 0.24258 0.10907 0.0
C982 C 0.04032 0.15228 0.04017 0.0
C983 C 0.05312 0.21266 0.08776 0.0
N984 N 1.01405 0.17703 0.99667 0.0
N985 N 0.06435 0.18358 0.13584 0.0
H986 H 0.06374 0.26471 0.10066 0.0
H987 H 0.07821 0.24558 0.13363 0.0
H988 H 0.06656 0.16265 0.14628 0.0
H989 H 0.06534 0.20387 0.15489 0.0
H990 H 1.0052 0.1544 0.98002 0.0
H991 H 1.00675 0.1965 0.98768 0.0
H992 H 0.03463 0.12531 0.98847 0.0
H993 H 0.0477 0.10576 0.02182 0.0
C994 C 0.22647 0.86663 0.26173 0.0
C995 C 0.20019 0.84331 0.25619 0.0
C996 C 0.22316 0.81561 0.30176 0.0
C997 C 0.25005 0.83699 0.30464 0.0
N998 N 0.27748 0.8811 0.28403 0.0
N999 N 0.17507 0.7925 0.26822 0.0
C1000 C 0.25162 0.86204 0.2837 0.0
C1001 C 0.199 0.81706 0.27562 0.0
N1002 N 0.2272 0.89413 0.24698 0.0
N1003 N 0.22014 0.79485 0.32523 0.0
H1004 H 0.1568 0.79281 0.2504 0.0
H1005 H 0.17398 0.77058 0.2777 0.0
H1006 H 0.23679 0.7932 0.34485 0.0
H1007 H 0.20067 0.78145 0.32741 0.0
H1008 H 0.24463 0.9139 0.25259 0.0
H1009 H 0.20936 0.8987 0.23162 0.0
H1010 H 0.28087 0.89738 0.26685 0.0
H1011 H 0.29617 0.87865 0.2995 0.0
C1012 C 0.52712 0.8981 0.56751 0.0
C1013 C 0.54074 0.88752 0.54023 0.0
C1014 C 0.55678 0.94603 0.53624 0.0
C1015 C 0.54729 0.95678 0.56691 0.0
N1016 N 0.5263 0.94158 0.61487 0.0
N1017 N 0.57627 0.90491 0.50712 0.0
C1018 C 0.53319 0.93239 0.58341 0.0
C1019 C 0.55769 0.91248 0.52697 0.0
N1020 N 0.5074 0.87589 0.57739 0.0
N1021 N 0.56419 0.96766 0.51488 0.0
H1022 H 0.58021 0.88167 0.50231 0.0
H1023 H 0.5907 0.92276 0.4997 0.0
H1024 H 0.56223 0.99195 0.51929 0.0
H1025 H 0.56882 0.9603 0.49052 0.0
H1026 H 0.4947 0.88266 0.59427 0.0
H1027 H 0.50169 0.85111 0.56605 0.0
H1028 H 0.51901 0.92481 0.63009 0.0
H1029 H 0.53009 0.96601 0.62722 0.0
C1030 C 0.53288 0.29706 0.76522 0.0
C1031 C 0.53745 0.32246 0.74513 0.0
C1032 C 0.49157 0.33417 0.75301 0.0
C1033 C 0.48925 0.31213 0.77707 0.0
N1034 N 0.51054 0.27624 0.8103 0.0
N1035 N 0.52194 0.3685 0.72423 0.0
C1036 C 0.5107 0.29456 0.78429 0.0
C1037 C 0.51689 0.34176 0.73999 0.0
N1038 N 0.54876 0.27406 0.7647 0.0
N1039 N 0.46919 0.34733 0.74176 0.0
H1040 H 0.53983 0.37523 0.71425 0.0
H1041 H 0.50956 0.38575 0.72381 0.0
H1042 H 0.45037 0.34231 0.75048 0.0
H1043 H 0.46824 0.36061 0.72132 0.0
H1044 H 0.54459 0.25321 0.77596 0.0
H1045 H 0.56396 0.27364 0.74952 0.0
H1046 H 0.52727 0.26592 0.81948 0.0
H1047 H 0.49491 0.27384 0.82496 0.0
C1048 C 0.16311 0.88733 0.74206 0.0
C1049 C 0.14176 0.8863 0.7613 0.0
C1050 C 0.1309 0.93539 0.74279 0.0
C1051 C 0.14562 0.92987 0.71544 0.0
N1052 N 0.1812 0.90695 0.69347 0.0
N1053 N 0.11847 0.9185 0.79586 0.0
C1054 C 0.16425 0.90845 0.71715 0.0
C1055 C 0.13049 0.914 0.7675 0.0
N1056 N 0.18132 0.86738 0.74745 0.0
N1057 N 0.11545 0.95879 0.74297 0.0
H1058 H 0.11881 0.90257 0.81391 0.0
H1059 H 0.11077 0.93907 0.80312 0.0
H1060 H 0.11606 0.97526 0.72553 0.0
H1061 H 0.10183 0.9616 0.7599 0.0
H1062 H 0.18022 0.8528 0.76677 0.0
H1063 H 0.19841 0.86741 0.73541 0.0
H1064 H 0.19352 0.88979 0.69122 0.0
H1065 H 0.18255 0.92317 0.67576 0.0
C1066 C 0.44678 0.8272 0.87582 0.0
C1067 C 0.45857 0.85892 0.89635 0.0
C1068 C 0.41221 0.87223 0.88604 0.0
C1069 C 0.40012 0.84048 0.86457 0.0
N1070 N 0.40916 0.79292 0.82993 0.0
N1071 N 0.45503 0.91484 0.90988 0.0
C1072 C 0.41842 0.81957 0.85662 0.0
C1073 C 0.44206 0.88253 0.89772 0.0
N1074 N 0.46229 0.8038 0.87558 0.0
N1075 N 0.39558 0.89184 0.89747 0.0
H1076 H 0.47695 0.92276 0.91588 0.0
H1077 H 0.44443 0.9338 0.90925 0.0
H1078 H 0.37378 0.88457 0.89323 0.0
H1079 H 0.4036 0.91419 0.9148 0.0
H1080 H 0.45353 0.77903 0.86513 0.0
H1081 H 0.4836 0.80869 0.88776 0.0
H1082 H 0.42233 0.77864 0.82123 0.0
H1083 H 0.38907 0.78699 0.81395 0.0
C1084 C 0.56203 0.20004 0.17094 0.0
C1085 C 0.58958 0.21538 0.19058 0.0
C1086 C 0.60922 0.17663 0.15509 0.0
C1087 C 0.58165 0.16023 0.1364 0.0
N1088 N 0.53118 0.15219 0.13094 0.0
N1089 N 0.63837 0.21339 0.20759 0.0
C1090 C 0.55781 0.1707 0.14562 0.0
C1091 C 0.6128 0.20189 0.18465 0.0
N1092 N 0.54013 0.21416 0.17562 0.0
N1093 N 0.63205 0.16888 0.14379 0.0
H1094 H 0.64145 0.23168 0.22968 0.0
H1095 H 0.6555 0.20265 0.20677 0.0
H1096 H 0.6301 0.15081 0.12182 0.0
H1097 H 0.65274 0.1821 0.15428 0.0
H1098 H 0.52007 0.20654 0.15926 0.0
H1099 H 0.54255 0.23471 0.19509 0.0
H1100 H 0.51332 0.15641 0.1396 0.0
H1101 H 0.52706 0.13115 0.11167 0.0
C1102 C 0.11247 0.32871 0.36443 0.0
C1103 C 0.12309 0.36057 0.38609 0.0
C1104 C 0.17051 0.35974 0.37611 0.0
C1105 C 0.15957 0.32876 0.35342 0.0
N1106 N 0.11932 0.28803 0.31861 0.0
N1107 N 0.16044 0.40964 0.40437 0.0
C1108 C 0.13023 0.31483 0.345 0.0
C1109 C 0.15158 0.37714 0.38924 0.0
N1110 N 0.08644 0.31022 0.36444 0.0
N1111 N 0.19903 0.37184 0.38651 0.0
H1112 H 0.14685 0.4232 0.41343 0.0
H1113 H 0.18027 0.42381 0.40454 0.0
H1114 H 0.21353 0.3598 0.37742 0.0
H1115 H 0.20831 0.39254 0.40602 0.0
H1116 H 0.07958 0.28548 0.35274 0.0
H1117 H 0.07245 0.31806 0.37861 0.0
H1118 H 0.09771 0.27888 0.30874 0.0
H1119 H 0.13185 0.27696 0.30426 0.0
C1120 C 1.00655 1.00534 0.19778 0.0
C1121 C 1.00877 0.02584 0.23047 0.0
C1122 C 1.02869 0.07364 0.20555 0.0
C1123 C 0.03198 0.05266 0.17553 0.0
N1124 N 1.01985 0.99729 0.14166 0.0
N1125 N 1.02533 0.07973 0.26685 0.0
C1126 C 1.01949 1.01819 0.17119 0.0
C1127 C 1.02053 0.06009 0.23459 0.0
N1128 N 0.99095 0.9737 0.19151 0.0
N1129 N 0.03208 0.10655 0.20591 0.0
H1130 H 1.02052 0.07077 0.28895 0.0
H1131 H 0.03656 0.10415 0.27241 0.0
H1132 H 0.03586 0.11714 0.18435 0.0
H1133 H 1.0273 0.12249 0.22555 0.0
H1134 H 0.98549 0.95827 0.16698 0.0
H1135 H 0.98121 0.96362 0.21022 0.0
H1136 H 1.01652 0.97192 0.13962 0.0
H1137 H 1.0232 1.00549 0.11892 0.0
C1138 C 0.37825 0.72423 0.54251 0.0
C1139 C 0.39109 0.73431 0.57884 0.0
C1140 C 0.37843 0.787 0.57947 0.0
C1141 C 0.36326 0.77636 0.54404 0.0
N1142 N 0.35856 0.74076 0.48829 0.0
N1143 N 0.41835 0.78154 0.62182 0.0
C1144 C 0.36614 0.74666 0.52429 0.0
C1145 C 0.3962 0.76786 0.59408 0.0
N1146 N 0.37812 0.69374 0.52543 0.0
N1147 N 0.37485 0.81414 0.59994 0.0
H1148 H 0.43301 0.76835 0.63101 0.0
H1149 H 0.42383 0.80661 0.6324 0.0
H1150 H 0.36059 0.82787 0.59112 0.0
H1151 H 0.384 0.8208 0.62681 0.0
H1152 H 0.36574 0.68313 0.50048 0.0
H1153 H 0.39086 0.67926 0.53644 0.0
H1154 H 0.36223 0.7209 0.47232 0.0
H1155 H 0.35119 0.75758 0.47415 0.0
C1156 C 0.65588 0.06115 0.74283 0.0
C1157 C 0.64693 0.03839 0.76477 0.0
C1158 C 0.60227 1.01764 0.71718 0.0
C1159 C 0.60934 0.04331 0.69766 0.0
N1160 N 0.6449 0.08908 0.69286 0.0
N1161 N 0.60956 0.99582 0.77185 0.0
C1162 C 0.637 0.06453 0.7106 0.0
C1163 C 0.61965 1.01677 0.75121 0.0
N1164 N 0.68281 0.07991 0.75316 0.0
N1165 N 0.5791 0.99279 0.70232 0.0
H1166 H 0.62197 0.99293 0.7952 0.0
H1167 H 0.58867 0.98267 0.76686 0.0
H1168 H 0.56684 0.99172 0.67744 0.0
H1169 H 0.57388 0.97154 0.71257 0.0
H1170 H 0.69238 0.0954 0.73825 0.0
H1171 H 0.69648 0.07788 0.77595 0.0
H1172 H 0.66297 0.10792 0.70176 0.0
H1173 H 0.63242 0.09117 0.6693 0.0
C1174 C 0.36782 0.36772 0.02126 0.0
C1175 C 0.3474 0.38258 0.03409 0.0
C1176 C 0.31252 0.35541 0.97921 0.0
C1177 C 0.33409 0.34384 0.96474 0.0
N1178 N 0.37594 0.32348 0.98098 0.0
N1179 N 0.29801 0.38038 0.03041 0.0
C1180 C 0.36006 0.34555 0.98825 0.0
C1181 C 0.31908 0.37376 0.01436 0.0
N1182 N 0.39475 0.37451 0.04062 0.0
N1183 N 0.28526 0.34724 0.96046 0.0
H1184 H 0.30177 0.391 0.05686 0.0
H1185 H 0.27657 0.37254 0.01901 0.0
H1186 H 0.27704 0.32561 0.94196 0.0
H1187 H 0.27032 0.36062 0.96502 0.0
H1188 H 0.41146 0.36814 0.03067 0.0
H1189 H 0.40053 0.38809 0.06605 0.0
H1190 H 0.39409 0.32201 0.99827 0.0
H1191 H 0.36848 0.30311 0.96065 0.0
C1192 C 0.03443 0.03016 0.42135 0.0
C1193 C 1.00508 1.01458 0.4104 0.0
C1194 C 1.00291 1.01537 0.47279 0.0
C1195 C 0.03252 0.02776 0.48298 0.0
N1196 N 0.07735 0.03921 0.46617 0.0
N1197 N 0.96301 0.9861 0.42625 0.0
C1198 C 0.04856 0.03242 0.45695 0.0
C1199 C 0.98987 1.0052 0.43634 0.0
N1200 N 0.04851 0.0455 0.39913 0.0
N1201 N 0.98702 1.01434 0.49785 0.0
H1202 H 0.95258 0.97799 0.39998 0.0
H1203 H 0.95212 0.97566 0.44379 0.0
H1204 H 0.99579 1.02189 0.52473 0.0
H1205 H 0.96503 1.00883 0.49184 0.0
H1206 H 0.06906 0.05983 0.40733 0.0
H1207 H 0.03898 0.04768 0.37397 0.0
H1208 H 0.09006 0.0398 0.4477 0.0
H1209 H 0.08832 0.04088 0.49195 0.0
C1210 C 0.38964 0.76891 0.74325 0.0
C1211 C 0.38051 0.7343 0.73463 0.0
C1212 C 0.33424 0.73876 0.7468 0.0
C1213 C 0.34328 0.77354 0.75338 0.0
N1214 N 0.3751 0.81935 0.73982 0.0
N1215 N 0.34773 0.68652 0.74199 0.0
C1216 C 0.36965 0.78809 0.74639 0.0
C1217 C 0.35377 0.71914 0.74033 0.0
N1218 N 0.41772 0.78355 0.74973 0.0
N1219 N 0.30631 0.72447 0.74283 0.0
H1220 H 0.36261 0.67228 0.74111 0.0
H1221 H 0.32956 0.67479 0.74908 0.0
H1222 H 0.29108 0.73821 0.74379 0.0
H1223 H 0.29782 0.69938 0.73418 0.0
H1224 H 0.42555 0.80873 0.7588 0.0
H1225 H 0.43316 0.76989 0.75091 0.0
H1226 H 0.3937 0.82986 0.73276 0.0
H1227 H 0.35948 0.83238 0.73498 0.0
C1228 C 0.63344 0.0331 0.96136 0.0
C1229 C 0.66089 0.05346 0.96239 0.0
C1230 C 0.65537 0.08384 0.02167 0.0
C1231 C 0.62762 0.06399 0.0202 0.0
N1232 N 0.59065 1.01936 0.98506 0.0
N1233 N 0.69881 0.09612 0.99864 0.0
C1234 C 0.61703 0.0387 0.98887 0.0
C1235 C 0.67188 0.07806 0.99418 0.0
N1236 N 0.62365 1.00614 0.935 0.0
N1237 N 0.66553 0.11019 0.0486 0.0
H1238 H 0.71049 0.09429 0.97917 0.0
H1239 H 0.71028 0.11133 0.02211 0.0
H1240 H 0.65479 0.11516 0.06853 0.0
H1241 H 0.68325 0.12859 0.04984 0.0
H1242 H 0.60608 0.98751 0.93379 0.0
H1243 H 0.63466 1.00058 0.91555 0.0
H1244 H 0.57908 1.00409 0.96168 0.0
H1245 H 0.57958 1.01935 1.00522 0.0
C1246 C 0.37235 0.36849 0.23717 0.0
C1247 C 0.35311 0.38235 0.2156 0.0
C1248 C 0.31702 0.36179 0.24879 0.0
C1249 C 0.33531 0.3444 0.26673 0.0
N1250 N 0.37875 0.3265 0.27208 0.0
N1251 N 0.30544 0.38896 0.19916 0.0
C1252 C 0.36251 0.34653 0.25924 0.0
C1253 C 0.32507 0.37857 0.22134 0.0
N1254 N 0.40048 0.37712 0.23733 0.0
N1255 N 0.29154 0.3617 0.25745 0.0
H1256 H 0.31022 0.40135 0.17916 0.0
H1257 H 0.28396 0.38344 0.19899 0.0
H1258 H 0.28408 0.34744 0.27481 0.0
H1259 H 0.27861 0.37698 0.24902 0.0
H1260 H 0.41588 0.37026 0.2547 0.0
H1261 H 0.40862 0.39423 0.22288 0.0
H1262 H 0.39724 0.32385 0.26402 0.0
H1263 H 0.37255 0.31066 0.28875 0.0
C1264 C 0.23175 0.97636 0.10262 0.0
C1265 C 0.23879 0.98174 0.07006 0.0
C1266 C 0.23661 0.03926 0.08456 0.0
C1267 C 0.22448 0.0321 0.11336 0.0
N1268 N 0.20747 0.99261 0.14795 0.0
N1269 N 0.24426 1.01753 0.02765 0.0
C1270 C 0.22141 1.00038 0.12214 0.0
C1271 C 0.24057 1.01313 0.06049 0.0
N1272 N 0.23609 0.94911 0.11572 0.0
N1273 N 0.24373 0.07107 0.07999 0.0
H1274 H 0.2457 0.99856 1.00844 0.0
H1275 H 0.24294 0.03911 0.01817 0.0
H1276 H 0.24096 0.09059 0.09751 0.0
H1277 H 0.25483 0.07825 0.06116 0.0
H1278 H 0.23373 0.94556 0.14085 0.0
H1279 H 0.24514 0.9319 0.10314 0.0
H1280 H 0.2017 0.96871 0.15239 0.0
H1281 H 0.20004 1.00964 0.16346 0.0
C1282 C 0.67686 0.62315 0.03629 0.0
C1283 C 0.69118 0.6511 0.06269 0.0
C1284 C 0.65695 0.63363 0.09973 0.0
C1285 C 0.64238 0.60577 0.07333 0.0
N1286 N 0.64085 0.5719 0.01777 0.0
N1287 N 0.69236 0.68516 0.11806 0.0
C1288 C 0.65303 0.60011 0.04193 0.0
C1289 C 0.68032 0.65696 0.09381 0.0
N1290 N 0.68518 0.61958 1.00487 0.0
N1291 N 0.6502 0.63618 0.13205 0.0
H1292 H 0.71089 0.70136 0.11698 0.0
H1293 H 0.68322 0.69357 0.1384 0.0
H1294 H 0.63407 0.61918 0.13759 0.0
H1295 H 0.66201 0.65308 0.15423 0.0
H1296 H 0.67409 0.60233 0.98263 0.0
H1297 H 0.70247 0.63555 1.0001 0.0
H1298 H 0.64936 0.56363 0.99678 0.0
H1299 H 0.62257 0.55557 0.01943 0.0
C1300 C 0.72738 0.51626 0.40944 0.0
C1301 C 0.70671 0.51676 0.37933 0.0
C1302 C 0.71968 0.47059 0.34591 0.0
C1303 C 0.74284 0.47347 0.37436 0.0
N1304 N 0.76818 0.4965 0.43395 0.0
N1305 N 0.68074 0.49329 0.32024 0.0
C1306 C 0.74611 0.49507 0.40666 0.0
C1307 C 0.70174 0.49309 0.34809 0.0
N1308 N 0.72917 0.53637 0.44067 0.0
N1309 N 0.71534 0.44669 0.31682 0.0
H1310 H 0.66692 0.50889 0.32183 0.0
H1311 H 0.67698 0.47863 0.29548 0.0
H1312 H 0.72837 0.43023 0.31468 0.0
H1313 H 0.69831 0.44191 0.29553 0.0
H1314 H 0.74135 0.53491 0.46468 0.0
H1315 H 0.71699 0.55358 0.44318 0.0
H1316 H 0.77421 0.51432 0.45677 0.0
H1317 H 0.78149 0.48024 0.43341 0.0
C1318 C 0.87197 0.40041 0.54418 0.0
C1319 C 0.85231 0.41031 0.5629 0.0
C1320 C 0.88448 0.46435 0.58559 0.0
C1321 C 0.90112 0.45667 0.5612 0.0
N1322 N 0.91238 0.41711 0.51876 0.0
N1323 N 0.84835 0.44331 0.61607 0.0
C1324 C 0.89559 0.42444 0.5413 0.0
C1325 C 0.86122 0.43983 0.5883 0.0
N1326 N 0.86936 0.36783 0.5319 0.0
N1327 N 0.88996 0.49543 0.60473 0.0
H1328 H 0.83321 0.424 0.62003 0.0
H1329 H 0.85507 0.46308 0.6371 0.0
H1330 H 0.90693 0.51401 0.60349 0.0
H1331 H 0.87657 0.50342 0.61992 0.0
H1332 H 0.88417 0.35875 0.52016 0.0
H1333 H 0.85445 0.34959 0.53803 0.0
H1334 H 0.9066 0.39609 0.49945 0.0
H1335 H 0.93103 0.43308 0.51755 0.0
C1336 C 0.37326 0.16883 0.35373 0.0
C1337 C 0.39945 0.1704 0.34147 0.0
C1338 C 0.39271 0.22751 0.32927 0.0
C1339 C 0.36648 0.2259 0.34143 0.0
N1340 N 0.33525 0.19383 0.3703 0.0
N1341 N 0.42978 0.20166 0.31107 0.0
C1342 C 0.35777 0.19584 0.35445 0.0
C1343 C 0.4079 0.20021 0.32795 0.0
N1344 N 0.36257 0.14074 0.36491 0.0
N1345 N 0.40371 0.25589 0.31888 0.0
H1346 H 0.44108 0.18335 0.30959 0.0
H1347 H 0.43536 0.21927 0.29602 0.0
H1348 H 0.39333 0.27494 0.31769 0.0
H1349 H 0.42356 0.26153 0.31302 0.0
H1350 H 0.34214 0.13429 0.36884 0.0
H1351 H 0.37387 0.12278 0.36886 0.0
H1352 H 0.32895 0.17569 0.38441 0.0
H1353 H 0.32386 0.21202 0.37181 0.0
C1354 C 0.3543 0.13914 0.60872 0.0
C1355 C 0.35044 0.15729 0.58097 0.0
C1356 C 0.39647 0.14987 0.56893 0.0
C1357 C 0.39838 0.12836 0.59357 0.0
N1358 N 0.37597 0.09793 0.63241 0.0
N1359 N 0.36636 0.17485 0.53052 0.0
C1360 C 0.37637 0.12172 0.61217 0.0
C1361 C 0.37122 0.16141 0.56005 0.0
N1362 N 0.33782 0.13985 0.63311 0.0
N1363 N 0.41914 0.16015 0.55463 0.0
H1364 H 0.34812 0.18287 0.52245 0.0
H1365 H 0.37914 0.1751 0.51215 0.0
H1366 H 0.43791 0.15241 0.56047 0.0
H1367 H 0.42029 0.17863 0.53963 0.0
H1368 H 0.34148 0.12984 0.65582 0.0
H1369 H 0.32254 0.15365 0.63287 0.0
H1370 H 0.35892 0.08946 0.64347 0.0
H1371 H 0.39144 0.08439 0.63536 0.0
C1372 C 0.74186 0.68755 0.35927 0.0
C1373 C 0.73207 0.69327 0.39115 0.0
C1374 C 0.77303 0.74076 0.41386 0.0
C1375 C 0.78232 0.73551 0.3816 0.0
N1376 N 0.7792 0.6995 0.3271 0.0
N1377 N 0.73679 0.72709 0.44753 0.0
C1378 C 0.76756 0.7078 0.35519 0.0
C1379 C 0.74731 0.72039 0.4181 0.0
N1380 N 0.72581 0.66354 0.33197 0.0
N1381 N 0.78948 0.76448 0.44105 0.0
H1382 H 0.71904 0.71191 0.45226 0.0
H1383 H 0.74449 0.74848 0.46639 0.0
H1384 H 0.80846 0.77906 0.43905 0.0
H1385 H 0.78579 0.76816 0.46639 0.0
H1386 H 0.72927 0.66098 0.30646 0.0
H1387 H 0.70755 0.64739 0.33391 0.0
H1388 H 0.77164 0.67765 0.30889 0.0
H1389 H 0.79815 0.71314 0.32352 0.0
C1390 C 0.90836 0.46439 0.87834 0.0
C1391 C 0.90331 0.48105 0.84913 0.0
C1392 C 0.86122 0.43305 0.82341 0.0
C1393 C 0.8683 0.41498 0.85096 0.0
N1394 N 0.90397 0.41326 0.90099 0.0
N1395 N 0.87561 0.477 0.79106 0.0
C1396 C 0.89325 0.43086 0.87738 0.0
C1397 C 0.87978 0.46413 0.82102 0.0
N1398 N 0.92733 0.48113 0.9083 0.0
N1399 N 0.83598 0.42128 0.79994 0.0
H1400 H 0.88807 0.4992 0.78859 0.0
H1401 H 0.86132 0.46459 0.76792 0.0
H1402 H 0.82193 0.3997 0.80101 0.0
H1403 H 0.82782 0.43434 0.78156 0.0
H1404 H 0.92973 0.47247 0.93197 0.0
H1405 H 0.93849 0.50524 0.91064 0.0
H1406 H 0.92372 0.42157 0.918 0.0
H1407 H 0.89476 0.38887 0.901 0.0
C1408 C 0.1239 0.92919 0.13816 0.0
C1409 C 0.10927 0.91878 0.16451 0.0
C1410 C 0.08788 0.96733 0.16179 0.0
C1411 C 0.09908 0.97509 0.13226 0.0
N1412 N 0.12736 0.96149 0.09122 0.0
N1413 N 0.07044 0.92472 0.19271 0.0
C1414 C 0.11699 0.95536 0.12015 0.0
C1415 C 0.0894 0.93703 0.17387 0.0
N1416 N 0.14532 0.91509 0.13127 0.0
N1417 N 0.07689 0.98981 0.17992 0.0
H1418 H 0.06856 0.90154 0.1994 0.0
H1419 H 0.05403 0.93565 0.19744 0.0
H1420 H 0.07725 1.01299 0.17363 0.0
H1421 H 0.07077 0.98695 0.20356 0.0
H1422 H 0.1587 0.92332 0.11515 0.0
H1423 H 0.15131 0.89681 0.14413 0.0
H1424 H 0.13813 0.94637 0.07849 0.0
H1425 H 0.12351 0.98078 0.07857 0.0
C1426 C 0.94186 0.3161 0.93307 0.0
C1427 C 0.94301 0.29072 0.95333 0.0
C1428 C 0.89146 0.26851 0.92905 0.0
C1429 C 0.89065 0.29312 0.90768 0.0
N1430 N 0.91724 0.33509 0.88328 0.0
N1431 N 0.91937 0.24002 0.96668 0.0
C1432 C 0.91646 0.31547 0.90809 0.0
C1433 C 0.91786 0.26615 0.95008 0.0
N1434 N 0.96476 0.34182 0.9387 0.0
N1435 N 0.86667 0.24809 0.9304 0.0
H1436 H 0.93813 0.23752 0.98199 0.0
H1437 H 0.90284 0.21952 0.96311 0.0
H1438 H 0.84718 0.24886 0.91547 0.0
H1439 H 0.86493 0.23213 0.94818 0.0
H1440 H 0.96424 0.36309 0.9283 0.0
H1441 H 0.98371 0.34306 0.95606 0.0
H1442 H 0.93585 0.34931 0.8796 0.0
H1443 H 0.89962 0.33481 0.86403 0.0
C1444 C 0.58212 0.22171 0.62116 0.0
C1445 C 0.59987 0.23742 0.65455 0.0
C1446 C 0.6074 0.18301 0.66546 0.0
C1447 C 0.58912 0.16723 0.63243 0.0
N1448 N 0.55574 0.17108 0.58116 0.0
N1449 N 0.62706 0.23268 0.71022 0.0
C1450 C 0.57551 0.18652 0.61103 0.0
C1451 C 0.61176 0.21787 0.6772 0.0
N1452 N 0.57179 0.2406 0.59877 0.0
N1453 N 0.6207 0.1645 0.6857 0.0
H1454 H 0.63144 0.25795 0.71926 0.0
H1455 H 0.63414 0.22007 0.72965 0.0
H1456 H 0.61629 0.13898 0.67938 0.0
H1457 H 0.63686 0.17416 0.70788 0.0
H1458 H 0.56192 0.23169 0.57243 0.0
H1459 H 0.57427 0.2659 0.60607 0.0
H1460 H 0.54253 0.1828 0.56639 0.0
H1461 H 0.55117 0.14579 0.57209 0.0
C1462 C 0.60432 0.77164 0.43177 0.0
C1463 C 0.60385 0.79639 0.46035 0.0
C1464 C 0.65319 0.82254 0.45899 0.0
C1465 C 0.65146 0.80135 0.42684 0.0
N1466 N 0.62306 0.75791 0.37995 0.0
N1467 N 0.62848 0.84916 0.49758 0.0
C1468 C 0.62638 0.77646 0.41253 0.0
C1469 C 0.62853 0.82273 0.47317 0.0
N1470 N 0.58463 0.74253 0.42405 0.0
N1471 N 0.67873 0.84212 0.47674 0.0
H1472 H 0.61175 0.85148 0.50939 0.0
H1473 H 0.64444 0.87059 0.50392 0.0
H1474 H 0.69728 0.84238 0.4676 0.0
H1475 H 0.68206 0.85535 0.50224 0.0
H1476 H 0.58547 0.72258 0.40567 0.0
H1477 H 0.56964 0.73676 0.43908 0.0
H1478 H 0.60405 0.74188 0.36658 0.0
H1479 H 0.63843 0.76072 0.36494 0.0
C1480 C 0.0495 0.25543 0.45331 0.0
C1481 C 0.07551 0.27891 0.46059 0.0
C1482 C 0.10138 0.23839 0.47748 0.0
C1483 C 0.0752 0.21723 0.47665 0.0
N1484 N 1.02577 0.19864 0.45004 0.0
N1485 N 0.12577 0.29079 0.46666 0.0
C1486 C 0.04972 0.22322 0.45907 0.0
C1487 C 0.10144 0.26944 0.46773 0.0
N1488 N 1.02474 0.26483 0.44406 0.0
N1489 N 0.12575 0.22951 0.49032 0.0
H1490 H 0.1256 0.3136 0.45939 0.0
H1491 H 0.14548 0.28511 0.47027 0.0
H1492 H 0.12547 0.20627 0.49667 0.0
H1493 H 0.14579 0.24482 0.49493 0.0
H1494 H 1.00489 0.24989 0.44217 0.0
H1495 H 1.02425 0.28844 0.43961 0.0
H1496 H 1.00676 0.20082 0.43523 0.0
H1497 H 1.0258 0.17493 0.45456 0.0
C1498 C 0.70566 0.26711 0.30829 0.0
C1499 C 0.69435 0.29521 0.30759 0.0
C1500 C 0.74133 0.32984 0.31831 0.0
C1501 C 0.75368 0.30252 0.32222 0.0
N1502 N 0.74538 0.24627 0.33307 0.0
N1503 N 0.70207 0.35318 0.32798 0.0
C1504 C 0.73531 0.27127 0.32083 0.0
C1505 C 0.71256 0.3265 0.31886 0.0
N1506 N 0.68824 0.23664 0.29685 0.0
N1507 N 0.7559 0.35788 0.31047 0.0
H1508 H 0.68078 0.35089 0.32859 0.0
H1509 H 0.71503 0.37659 0.33766 0.0
H1510 H 0.77559 0.35986 0.30399 0.0
H1511 H 0.74653 0.37724 0.30534 0.0
H1512 H 0.69574 0.21531 0.29301 0.0
H1513 H 0.66634 0.23325 0.2899 0.0
H1514 H 0.73216 0.22419 0.33446 0.0
H1515 H 0.76612 0.24882 0.34621 0.0
C1516 C 0.53441 0.94649 0.01419 0.0
C1517 C 0.55857 0.93781 1.00444 0.0
C1518 C 0.5886 0.97365 0.05818 0.0
C1519 C 0.56411 0.98087 0.06873 0.0
N1520 N 0.51369 0.96971 0.06055 0.0
N1521 N 0.60823 0.93899 0.01936 0.0
C1522 C 0.53698 0.96567 0.04792 0.0
C1523 C 0.58555 0.95012 0.02717 0.0
N1524 N 0.50923 0.93761 0.99045 0.0
N1525 N 0.61485 0.99053 0.07678 0.0
H1526 H 0.60717 0.92309 0.99601 0.0
H1527 H 0.62768 0.9439 0.03692 0.0
H1528 H 0.61824 1.00662 0.10064 0.0
H1529 H 0.63325 0.99002 0.06761 0.0
H1530 H 0.4913 0.94572 0.99431 0.0
H1531 H 0.50738 0.92477 0.96523 0.0
H1532 H 0.49321 0.95697 0.04815 0.0
H1533 H 0.5152 0.98369 0.08529 0.0
C1534 C 1.00711 0.78927 0.79254 0.0
C1535 C 1.02764 0.81449 0.78507 0.0
C1536 C 1.00334 0.85564 0.80792 0.0
C1537 C 0.98452 0.8309 0.81837 0.0
N1538 N 0.97257 0.77523 0.82789 0.0
N1539 N 0.04973 0.87269 0.79654 0.0
C1540 C 0.9876 0.79797 0.81284 0.0
C1541 C 1.02699 0.84799 0.79575 0.0
N1542 N 1.0053 0.75711 0.77905 0.0
N1543 N 0.99849 0.88647 0.80904 0.0
H1544 H 0.06855 0.86847 0.79083 0.0
H1545 H 0.05126 0.89716 0.80725 0.0
H1546 H 0.98149 0.89325 0.81797 0.0
H1547 H 1.00986 0.90435 0.79802 0.0
H1548 H 0.98897 0.73803 0.78082 0.0
H1549 H 1.01851 0.74978 0.76316 0.0
H1550 H 0.97616 0.75177 0.82795 0.0
H1551 H 0.95848 0.78093 0.8433 0.0
C1552 C 0.11501 0.06987 0.95446 0.0
C1553 C 0.13986 0.09568 0.96225 0.0
C1554 C 0.13676 0.10243 0.02532 0.0
C1555 C 0.11204 0.07613 0.01736 0.0
N1556 N 0.07157 0.04775 0.97131 0.0
N1557 N 0.17161 0.14028 1.00452 0.0
C1558 C 0.09947 0.06347 0.98107 0.0
C1559 C 0.15 0.11289 0.99764 0.0
N1560 N 0.10642 0.05029 0.92187 0.0
N1561 N 0.14738 0.11805 0.05933 0.0
H1562 H 0.18149 0.14858 0.98506 0.0
H1563 H 0.17862 0.15622 0.02871 0.0
H1564 H 0.13567 0.11577 0.07855 0.0
H1565 H 0.16745 0.13329 0.06848 0.0
H1566 H 0.09054 0.02881 0.9163 0.0
H1567 H 0.11671 0.05351 0.90134 0.0
H1568 H 0.06069 0.0406 0.94509 0.0
H1569 H 0.05822 0.04663 0.98899 0.0
C1570 C 0.72864 0.31567 0.59633 0.0
C1571 C 0.74037 0.34528 0.58596 0.0
C1572 C 0.77406 0.36315 0.64222 0.0
C1573 C 0.76565 0.33143 0.65017 0.0
N1574 N 0.72889 0.28242 0.64216 0.0
N1575 N 0.75963 0.40239 0.60789 0.0
C1576 C 0.74074 0.30924 0.62964 0.0
C1577 C 0.75866 0.37087 0.61171 0.0
N1578 N 0.70677 0.29348 0.57342 0.0
N1579 N 0.79711 0.38541 0.66289 0.0
H1580 H 0.74455 0.40706 0.58846 0.0
H1581 H 0.7713 0.42277 0.62665 0.0
H1582 H 0.80972 0.38039 0.68482 0.0
H1583 H 0.80466 0.40838 0.65714 0.0
H1584 H 0.69885 0.26981 0.57716 0.0
H1585 H 0.69674 0.29921 0.55006 0.0
H1586 H 0.70976 0.2663 0.62964 0.0
H1587 H 0.73727 0.27771 0.66681 0.0
C1588 C 0.51765 0.10551 0.45176 0.0
C1589 C 0.48922 0.08594 0.44002 0.0
C1590 C 0.50047 0.05847 0.49323 0.0
C1591 C 0.52857 0.07887 0.50539 0.0
N1592 N 0.56007 0.12763 0.49854 0.0
N1593 N 0.45317 0.04617 0.45459 0.0
C1594 C 0.5359 0.10377 0.48499 0.0
C1595 C 0.4806 0.06343 0.46258 0.0
N1596 N 0.52769 0.12642 0.43104 0.0
N1597 N 0.49307 0.03282 0.50979 0.0
H1598 H 0.43888 0.04737 0.43204 0.0
H1599 H 0.44406 0.03239 0.47129 0.0
H1600 H 0.50653 0.02866 0.53153 0.0
H1601 H 0.47466 1.01446 0.50074 0.0
H1602 H 0.54899 0.13743 0.43431 0.0
H1603 H 0.51495 0.13156 0.4093 0.0
H1604 H 0.56547 0.14872 0.48809 0.0
H1605 H 0.57329 0.12838 0.52269 0.0
C1606 C 0.77632 0.72703 0.19062 0.0
C1607 C 0.79185 0.74265 0.16819 0.0
C1608 C 0.82234 0.782 0.21966 0.0
C1609 C 0.80452 0.76912 0.2416 0.0
N1610 N 0.76445 0.72899 0.24811 0.0
N1611 N 0.82888 0.7856 0.16033 0.0
C1612 C 0.78148 0.74149 0.22706 0.0
C1613 C 0.81477 0.77016 0.18251 0.0
N1614 N 0.75698 0.69795 0.17709 0.0
N1615 N 0.84669 0.80536 0.23419 0.0
H1616 H 0.82521 0.77646 0.13337 0.0
H1617 H 0.84313 0.80834 0.16815 0.0
H1618 H 0.85248 0.81634 0.26069 0.0
H1619 H 0.86227 0.81258 0.22045 0.0
H1620 H 0.74673 0.68337 0.19227 0.0
H1621 H 0.75276 0.68682 0.15063 0.0
H1622 H 0.74528 0.71194 0.23859 0.0
H1623 H 0.7688 0.7366 0.27534 0.0
C1624 C 0.11034 0.06796 0.76205 0.0
C1625 C 0.12863 0.09929 0.77663 0.0
C1626 C 0.12728 0.11127 0.71677 0.0
C1627 C 0.10674 0.08141 0.70249 0.0
N1628 N 0.07536 0.03361 0.71223 0.0
N1629 N 0.15206 0.15251 0.76845 0.0
C1630 C 0.09753 0.0602 0.72529 0.0
C1631 C 0.13635 0.12146 0.75412 0.0
N1632 N 0.10505 0.0456 0.7834 0.0
N1633 N 0.13907 0.12926 0.69461 0.0
H1634 H 0.15985 0.16054 0.79549 0.0
H1635 H 0.15567 0.17107 0.75385 0.0
H1636 H 0.13332 0.12247 0.66724 0.0
H1637 H 0.15633 0.14922 0.70322 0.0
H1638 H 0.09471 1.0211 0.77391 0.0
H1639 H 0.11283 0.05086 0.81061 0.0
H1640 H 0.06563 1.0192 0.72798 0.0
H1641 H 0.06484 0.02753 0.68582 0.0
C1642 C 0.76162 0.35505 0.43575 0.0
C1643 C 0.77721 0.38566 0.45574 0.0
C1644 C 0.82102 0.37191 0.44551 0.0
C1645 C 0.80581 0.3396 0.42807 0.0
N1646 N 0.7613 0.29854 0.41548 0.0
N1647 N 0.81925 0.42836 0.46595 0.0
C1648 C 0.77591 0.33061 0.42505 0.0
C1649 C 0.8062 0.3958 0.45633 0.0
N1650 N 0.73288 0.34958 0.42735 0.0
N1651 N 0.84979 0.37909 0.45441 0.0
H1652 H 0.8081 0.44639 0.47072 0.0
H1653 H 0.8399 0.43798 0.46421 0.0
H1654 H 0.8614 0.3613 0.45166 0.0
H1655 H 0.86203 0.40175 0.46816 0.0
H1656 H 0.71994 0.32927 0.4095 0.0
H1657 H 0.72243 0.3676 0.43525 0.0
H1658 H 0.73986 0.2909 0.41487 0.0
H1659 H 0.77071 0.27871 0.41362 0.0
C1660 C 0.47568 0.05241 0.21412 0.0
C1661 C 0.48583 0.07765 0.2454 0.0
C1662 C 0.52632 0.09821 0.21553 0.0
C1663 C 0.51777 0.07118 0.18586 0.0
N1664 N 0.48328 1.0211 0.1599 0.0
N1665 N 0.52432 0.12269 0.27542 0.0
C1666 C 0.49188 0.04826 0.18601 0.0
C1667 C 0.51206 0.09991 0.2455 0.0
N1668 N 0.44996 0.03198 0.21115 0.0
N1669 N 0.54783 0.12372 0.21465 0.0
H1670 H 0.51424 0.12624 0.29635 0.0
H1671 H 0.54494 0.13666 0.28037 0.0
H1672 H 0.55849 0.12397 0.19408 0.0
H1673 H 0.55327 0.14598 0.2323 0.0
H1674 H 0.43918 1.01488 0.18866 0.0
H1675 H 0.43826 0.0342 0.23062 0.0
H1676 H 0.46675 1.00135 0.1592 0.0
H1677 H 0.49414 1.01727 0.13985 0.0
C1678 C 0.76956 0.75293 0.96747 0.0
C1679 C 0.78756 0.73384 0.98288 0.0
C1680 C 0.823 0.75622 0.94961 0.0
C1681 C 0.80631 0.77777 0.93722 0.0
N1682 N 0.76396 0.79765 0.93545 0.0
N1683 N 0.833 0.71971 0.99014 0.0
C1684 C 0.7795 0.77611 0.94619 0.0
C1685 C 0.81454 0.7359 0.97398 0.0
N1686 N 0.74257 0.74824 0.97256 0.0
N1687 N 0.84685 0.75439 0.93722 0.0
H1688 H 0.82765 0.703 1.00615 0.0
H1689 H 0.85432 0.72422 0.98945 0.0
H1690 H 0.85413 0.76903 0.92007 0.0
H1691 H 0.85807 0.73637 0.94119 0.0
H1692 H 0.7272 0.75858 0.95965 0.0
H1693 H 0.73481 0.73171 0.98781 0.0
H1694 H 0.74568 0.80057 0.94378 0.0
H1695 H 0.77026 0.81408 0.91935 0.0
C1696 C 0.92164 0.10662 0.16878 0.0
C1697 C 0.93676 0.13966 0.17406 0.0
C1698 C 0.97061 0.12182 0.14172 0.0
C1699 C 0.95069 0.09118 0.12814 0.0
N1700 N 0.90662 0.05445 0.12885 0.0
N1701 N 0.98166 0.17608 0.17915 0.0
C1702 C 0.92632 0.08321 0.14227 0.0
C1703 C 0.96334 0.14654 0.16478 0.0
N1704 N 0.90321 0.09773 0.18958 0.0
N1705 N 0.99627 0.12692 0.13256 0.0
H1706 H 0.97805 0.19192 0.1999 0.0
H1707 H 1.00094 0.1842 0.17258 0.0
H1708 H 1.00307 0.10837 0.11837 0.0
H1709 H 1.01148 0.14885 0.14002 0.0
H1710 H 0.89312 0.07342 0.18872 0.0
H1711 H 0.9011 0.11438 0.21074 0.0
H1712 H 0.88718 0.04926 0.13602 0.0
H1713 H 0.90852 0.03706 0.10831 0.0
C1714 C 0.46205 0.50208 0.15351 0.0
C1715 C 0.44691 0.47666 0.12467 0.0
C1716 C 0.48568 0.4916 0.09345 0.0
C1717 C 0.49896 0.51981 0.11985 0.0
N1718 N 0.49938 0.55178 0.17602 0.0
N1719 N 0.44179 0.45307 0.06366 0.0
C1720 C 0.48686 0.525 0.1501 0.0
C1721 C 0.45818 0.47301 0.09378 0.0
N1722 N 0.4534 0.50359 0.1847 0.0
N1723 N 0.49933 0.48197 0.06807 0.0
H1724 H 0.42087 0.44135 0.06202 0.0
H1725 H 0.44764 0.45163 0.03938 0.0
H1726 H 0.51945 0.49444 0.06738 0.0
H1727 H 0.49194 0.45986 0.05016 0.0
H1728 H 0.46499 0.51898 0.20805 0.0
H1729 H 0.43537 0.48769 0.18783 0.0
H1730 H 0.48999 0.55976 0.19629 0.0
H1731 H 0.51909 0.56665 0.17672 0.0
C1732 C 0.43903 0.61835 0.79557 0.0
C1733 C 0.45127 0.60721 0.82576 0.0
C1734 C 0.43441 0.64647 0.86394 0.0
C1735 C 0.42095 0.65632 0.83347 0.0
N1736 N 0.41775 0.66014 0.77252 0.0
N1737 N 0.46745 0.6163 0.88908 0.0
C1738 C 0.4258 0.64506 0.79995 0.0
C1739 C 0.45156 0.62349 0.86013 0.0
N1740 N 0.43913 0.60257 0.76275 0.0
N1741 N 0.42919 0.65727 0.89609 0.0
H1742 H 0.47964 0.59894 0.88764 0.0
H1743 H 0.47049 0.62943 0.91451 0.0
H1744 H 0.41735 0.67475 0.90006 0.0
H1745 H 0.43521 0.6477 0.91854 0.0
H1746 H 0.42679 0.60614 0.73981 0.0
H1747 H 0.45047 0.58452 0.7587 0.0
H1748 H 0.42228 0.65465 0.74779 0.0
H1749 H 0.409 0.6806 0.77585 0.0
C1750 C 0.28787 0.73198 0.65139 0.0
C1751 C 0.3018 0.71389 0.62948 0.0
C1752 C 0.2588 0.67019 0.6085 0.0
C1753 C 0.24593 0.68668 0.63266 0.0
N1754 N 0.24317 0.73793 0.66567 0.0
N1755 N 0.29663 0.67447 0.5767 0.0
C1756 C 0.25884 0.71922 0.65034 0.0
C1757 C 0.28583 0.68582 0.60443 0.0
N1758 N 0.30221 0.7602 0.67439 0.0
N1759 N 0.2457 0.63923 0.59046 0.0
H1760 H 0.31601 0.68654 0.57258 0.0
H1761 H 0.28521 0.6556 0.55602 0.0
H1762 H 0.22546 0.62747 0.59204 0.0
H1763 H 0.25551 0.62458 0.57548 0.0
H1764 H 0.29381 0.77157 0.69394 0.0
H1765 H 0.32281 0.77221 0.67527 0.0
H1766 H 0.25051 0.76284 0.67634 0.0
H1767 H 0.22165 0.72934 0.66412 0.0
C1768 C 0.76619 0.95628 0.89413 0.0
C1769 C 0.73973 0.95546 0.87047 0.0
C1770 C 0.74709 0.90001 0.84046 0.0
C1771 C 0.77203 0.89907 0.86627 0.0
N1772 N 0.79964 0.92741 0.92338 0.0
N1773 N 0.70367 0.91968 0.82401 0.0
C1774 C 0.77989 0.92778 0.89437 0.0
C1775 C 0.72991 0.92506 0.84496 0.0
N1776 N 0.77878 0.98477 0.91747 0.0
N1777 N 0.74047 0.8782 0.8094 0.0
H1778 H 0.69136 0.93701 0.82498 0.0
H1779 H 0.69328 0.89708 0.80811 0.0
H1780 H 0.75295 0.86206 0.80313 0.0
H1781 H 0.72482 0.87898 0.78808 0.0
H1782 H 0.79939 0.9895 0.93211 0.0
H1783 H 0.76929 1.00463 0.92031 0.0
H1784 H 0.80444 0.94493 0.94641 0.0
H1785 H 0.80876 0.9075 0.92616 0.0
C1786 C 0.76316 0.95119 0.59553 0.0
C1787 C 0.78738 0.96428 0.62402 0.0
C1788 C 0.76429 1.00917 0.64234 0.0
C1789 C 0.73974 0.99488 0.61533 0.0
N1790 N 0.71326 0.94698 0.57298 0.0
N1791 N 0.80529 1.00026 0.68074 0.0
C1792 C 0.73847 0.96428 0.59411 0.0
C1793 C 0.78628 0.99174 0.64918 0.0
N1794 N 0.76369 0.92737 0.56839 0.0
N1795 N 0.76716 0.03991 0.661 0.0
H1796 H 0.82007 0.98671 0.68819 0.0
H1797 H 0.80399 1.01808 0.70125 0.0
H1798 H 0.75172 0.05337 0.65695 0.0
H1799 H 0.78585 0.0531 0.67826 0.0
H1800 H 0.7483 0.9207 0.54506 0.0
H1801 H 0.78023 0.91598 0.56714 0.0
H1802 H 0.71006 0.92283 0.55997 0.0
H1803 H 0.69473 0.95542 0.57147 0.0
C1804 C 0.41393 0.4139 0.85279 0.0
C1805 C 0.41566 0.42579 0.82084 0.0
C1806 C 0.36637 0.39395 0.79602 0.0
C1807 C 0.36372 0.38565 0.82952 0.0
N1808 N 0.38359 0.39802 0.89219 0.0
N1809 N 0.39194 0.42905 0.76259 0.0
C1810 C 0.38716 0.39833 0.85851 0.0
C1811 C 0.39128 0.41658 0.79276 0.0
N1812 N 0.43771 0.41737 0.87818 0.0
N1813 N 0.34579 0.3791 0.76677 0.0
H1814 H 0.41024 0.44316 0.75788 0.0
H1815 H 0.374 0.4269 0.74307 0.0
H1816 H 0.32774 0.36189 0.76742 0.0
H1817 H 0.34787 0.38124 0.74122 0.0
H1818 H 0.43778 0.40591 0.90002 0.0
H1819 H 0.4578 0.42894 0.87615 0.0
H1820 H 0.39934 0.40964 0.91435 0.0
H1821 H 0.36397 0.39046 0.89825 0.0
C1822 C 0.23831 0.68089 0.40314 0.0
C1823 C 0.2386 0.65045 0.38173 0.0
C1824 C 0.2764 0.68466 0.35791 0.0
C1825 C 0.2726 0.71551 0.37506 0.0
N1826 N 0.24344 0.74003 0.40894 0.0
N1827 N 0.25661 0.62619 0.33392 0.0
C1828 C 0.2519 0.71263 0.39646 0.0
C1829 C 0.25743 0.65325 0.35794 0.0
N1830 N 0.22553 0.6797 0.43111 0.0
N1831 N 0.29911 0.6848 0.34273 0.0
H1832 H 0.24358 0.60331 0.33294 0.0
H1833 H 0.26706 0.62718 0.31318 0.0
H1834 H 0.31425 0.70613 0.34382 0.0
H1835 H 0.30475 0.6634 0.33288 0.0
H1836 H 0.22686 0.70038 0.44985 0.0
H1837 H 0.21663 0.6576 0.43796 0.0
H1838 H 0.22658 0.73918 0.42155 0.0
H1839 H 0.25078 0.76298 0.40299 0.0
C1840 C 0.51526 0.68302 0.55625 0.0
C1841 C 0.53634 0.70835 0.54944 0.0
C1842 C 0.57075 0.67364 0.56227 0.0
C1843 C 0.55052 0.65016 0.57337 0.0
N1844 N 0.50427 0.6372 0.58655 0.0
N1845 N 0.5859 0.72955 0.55304 0.0
C1846 C 0.52293 0.6561 0.57167 0.0
C1847 C 0.5645 0.70401 0.55427 0.0
N1848 N 0.48754 0.68406 0.54699 0.0
N1849 N 0.59581 0.66667 0.55775 0.0
H1850 H 0.58263 0.75212 0.54773 0.0
H1851 H 0.60716 0.72947 0.56065 0.0
H1852 H 0.60161 0.64506 0.5623 0.0
H1853 H 0.60967 0.68079 0.5457 0.0
H1854 H 0.47093 0.66486 0.54775 0.0
H1855 H 0.48104 0.7026 0.53501 0.0
H1856 H 0.48498 0.64226 0.58945 0.0
H1857 H 0.50925 0.61856 0.59949 0.0
C1858 C 0.70937 0.31226 0.74919 0.0
C1859 C 0.69686 0.33964 0.75484 0.0
C1860 C 0.72943 0.35699 0.81359 0.0
C1861 C 0.74573 0.33346 0.80543 0.0
N1862 N 0.74901 0.28735 0.76307 0.0
N1863 N 0.69806 0.39067 0.79163 0.0
C1864 C 0.73495 0.31066 0.77263 0.0
C1865 C 0.70784 0.36272 0.78679 0.0
N1866 N 0.696 0.28662 0.72215 0.0
N1867 N 0.73247 0.37196 0.8477 0.0
H1868 H 0.68227 0.39561 0.77304 0.0
H1869 H 0.70745 0.41015 0.81258 0.0
H1870 H 0.74404 0.36485 0.86899 0.0
H1871 H 0.71979 0.38738 0.85539 0.0
H1872 H 0.70169 0.26413 0.71896 0.0
H1873 H 0.67732 0.2864 0.70477 0.0
H1874 H 0.74496 0.27382 0.73762 0.0
H1875 H 0.76598 0.2827 0.77957 0.0
C1876 C 1.02349 0.3986 0.06505 0.0
C1877 C 0.03947 0.38715 0.0411 0.0
C1878 C 0.06027 0.44499 0.03969 0.0
C1879 C 0.04742 0.45678 0.06704 0.0
N1880 N 1.02081 0.44246 0.11081 0.0
N1881 N 0.08114 0.40161 0.01762 0.0
C1882 C 1.03005 0.43292 0.08113 0.0
C1883 C 0.06019 0.411 0.03192 0.0
N1884 N 1.00153 0.37711 0.07187 0.0
N1885 N 0.07163 0.46583 0.01971 0.0
H1886 H 0.08406 0.37773 0.01577 0.0
H1887 H 0.09784 0.41843 0.01273 0.0
H1888 H 0.06986 0.49018 0.02189 0.0
H1889 H 0.07936 0.45762 0.99789 0.0
H1890 H 0.98729 0.38457 0.08601 0.0
H1891 H 0.99616 0.3522 0.06085 0.0
H1892 H 1.01054 0.42582 0.12413 0.0
H1893 H 1.02593 0.46667 0.12423 0.0
C1894 C 0.03918 0.84734 0.27489 0.0
C1895 C 0.04059 0.82565 0.24434 0.0
C1896 C 0.99193 0.79502 0.24238 0.0
C1897 C 0.99178 0.8146 0.27499 0.0
N1898 N 1.01731 0.85655 0.32494 0.0
N1899 N 1.01945 0.77592 0.20166 0.0
C1900 C 1.01598 0.84002 0.2919 0.0
C1901 C 1.01717 0.79879 0.22868 0.0
N1902 N 0.05946 0.87585 0.28693 0.0
N1903 N 0.96765 0.77331 0.22395 0.0
H1904 H 0.03746 0.77757 0.19115 0.0
H1905 H 1.00452 0.7539 0.19162 0.0
H1906 H 0.94898 0.76984 0.23314 0.0
H1907 H 0.96528 0.76083 0.19835 0.0
H1908 H 0.05809 0.89443 0.30657 0.0
H1909 H 0.07637 0.88248 0.27494 0.0
H1910 H 0.03554 0.8726 0.34041 0.0
H1911 H 1.0009 0.85217 0.33823 0.0
C1912 C 0.62478 0.4114 0.27427 0.0
C1913 C 0.63955 0.38675 0.2677 0.0
C1914 C 0.65484 0.4107 0.21942 0.0
C1915 C 0.63363 0.42865 0.21982 0.0
N1916 N 0.59993 0.4492 0.24876 0.0
N1917 N 0.67857 0.37256 0.24643 0.0
C1918 C 0.61962 0.43077 0.24825 0.0
C1919 C 0.65804 0.38975 0.24425 0.0
N1920 N 0.61583 0.41605 0.30507 0.0
N1921 N 0.67033 0.41221 0.19394 0.0
H1922 H 0.68169 0.35932 0.26654 0.0
H1923 H 0.69372 0.37368 0.23116 0.0
H1924 H 0.66872 0.42828 0.17618 0.0
H1925 H 0.68455 0.39768 0.19005 0.0
H1926 H 0.60628 0.43505 0.31232 0.0
H1927 H 0.62121 0.4032 0.32511 0.0
H1928 H 0.58668 0.44872 0.26657 0.0
H1929 H 0.59597 0.46388 0.23005 0.0
C1930 C 0.97779 0.33589 0.40633 0.0
C1931 C 0.98659 0.35497 0.44113 0.0
C1932 C 0.93701 0.34996 0.44404 0.0
C1933 C 0.92867 0.33816 0.40745 0.0
N1934 N 0.94054 0.31383 0.3543 0.0
N1935 N 0.97356 0.38265 0.49208 0.0
C1936 C 0.94888 0.32926 0.3887 0.0
C1937 C 0.96592 0.36266 0.45971 0.0
N1938 N 0.99646 0.32208 0.39098 0.0
N1939 N 0.9176 0.34576 0.46453 0.0
H1940 H 0.9944 0.39355 0.50465 0.0
H1941 H 0.95887 0.3907 0.505 0.0
H1942 H 0.89648 0.33407 0.45403 0.0
H1943 H 0.92347 0.34918 0.49193 0.0
H1944 H 0.99059 0.30461 0.36785 0.0
H1945 H 1.01765 0.32534 0.40266 0.0
H1946 H 0.95439 0.31124 0.33761 0.0
H1947 H 0.91953 0.30449 0.34179 0.0
C1948 C 0.06612 0.72449 0.61406 0.0
C1949 C 0.06221 0.73056 0.64908 0.0
C1950 C 0.06296 0.67417 0.65426 0.0
C1951 C 0.0683 0.66754 0.61959 0.0
N1952 N 0.08091 0.68978 0.56972 0.0
N1953 N 0.04085 0.70615 0.69216 0.0
C1954 C 0.07098 0.69354 0.59999 0.0
C1955 C 0.05516 0.70367 0.66566 0.0
N1956 N 0.06419 0.74825 0.59413 0.0
N1957 N 0.06821 0.65453 0.67814 0.0
H1958 H 0.03234 0.7264 0.69829 0.0
H1959 H 0.03407 0.68651 0.70425 0.0
H1960 H 0.07949 0.63677 0.67435 0.0
H1961 H 0.06613 0.65986 0.70417 0.0
H1962 H 0.06437 0.74495 0.5674 0.0
H1963 H 0.05915 0.77016 0.60386 0.0
H1964 H 0.08561 0.70859 0.55576 0.0
H1965 H 0.08778 0.66899 0.56073 0.0
C1966 C 0.6362 0.87031 0.89144 0.0
C1967 C 0.60792 0.85146 0.88369 0.0
C1968 C 0.6218 0.80742 0.8475 0.0
C1969 C 0.65051 0.82407 0.8596 0.0
N1970 N 0.68577 0.871 0.89389 0.0
N1971 N 0.57444 0.79974 0.85743 0.0
C1972 C 0.65793 0.8556 0.88157 0.0
C1973 C 0.60077 0.81957 0.86212 0.0
N1974 N 0.64208 0.90254 0.90746 0.0
N1975 N 0.61454 0.78004 0.82159 0.0
H1976 H 0.55807 0.80693 0.86734 0.0
H1977 H 0.56939 0.77488 0.84617 0.0
H1978 H 0.6294 0.77023 0.81049 0.0
H1979 H 0.59377 0.76893 0.80875 0.0
H1980 H 0.66163 0.91867 0.91087 0.0
H1981 H 0.62657 0.91404 0.91448 0.0
H1982 H 0.69283 0.89232 0.91297 0.0
H1983 H 0.70212 0.86135 0.88651 0.0
C1984 C 0.5096 0.50635 0.70189 0.0
C1985 C 0.50894 0.52788 0.73296 0.0
C1986 C 0.52815 0.57514 0.7064 0.0
C1987 C 0.53183 0.55358 0.67708 0.0
N1988 N 0.51445 0.49975 0.64101 0.0
N1989 N 0.52198 0.58301 0.76669 0.0
C1990 C 0.51942 0.51938 0.67324 0.0
C1991 C 0.51906 0.56235 0.73546 0.0
N1992 N 0.50112 0.47318 0.69981 0.0
N1993 N 0.53147 0.60788 0.70553 0.0
H1994 H 0.51673 0.57481 0.78893 0.0
H1995 H 0.53235 0.60772 0.77175 0.0
H1996 H 0.53529 0.61772 0.68351 0.0
H1997 H 0.52636 0.62443 0.72423 0.0
H1998 H 0.50491 0.45587 0.68068 0.0
H1999 H 0.49162 0.46279 0.7185 0.0
H2000 H 0.50381 0.47515 0.63518 0.0
H2001 H 0.51717 0.50941 0.61868 0.0
C2002 C 0.86254 0.2149 0.05391 0.0
C2003 C 0.88877 0.2269 0.07825 0.0
C2004 C 0.89425 0.28019 0.06021 0.0
C2005 C 0.86735 0.26906 0.03701 0.0
N2006 N 0.83104 0.22294 1.00251 0.0
N2007 N 0.93408 0.26465 0.09369 0.0
C2008 C 0.85313 0.23537 0.03077 0.0
C2009 C 0.90626 0.25732 0.0771 0.0
N2010 N 0.84599 0.18497 0.05404 0.0
N2011 N 0.90734 0.31283 0.06836 0.0
H2012 H 0.943 0.24786 0.1064 0.0
H2013 H 0.94854 0.28547 0.09156 0.0
H2014 H 0.89853 0.33093 0.05836 0.0
H2015 H 0.92573 0.32235 0.08775 0.0
H2016 H 0.82506 0.17704 0.0403 0.0
H2017 H 0.85297 0.16828 0.06859 0.0
H2018 H 0.82148 0.198 0.99493 0.0
H2019 H 0.82417 0.2371 0.98448 0.0
C2020 C 0.15591 0.5599 0.24212 0.0
C2021 C 0.14673 0.5373 0.26411 0.0
C2022 C 0.10193 0.51705 0.21658 0.0
C2023 C 0.10925 0.54264 0.19708 0.0
N2024 N 0.14549 0.58726 0.19148 0.0
N2025 N 0.10906 0.49507 0.27116 0.0
C2026 C 0.13716 0.56333 0.20976 0.0
C2027 C 0.1193 0.51596 0.25055 0.0
N2028 N 0.18289 0.57851 0.2526 0.0
N2029 N 0.07856 0.49244 0.20172 0.0
H2030 H 0.12145 0.49198 0.29443 0.0
H2031 H 0.0881 0.48215 0.26623 0.0
H2032 H 0.06634 0.49143 0.1768 0.0
H2033 H 0.07311 0.47125 0.21199 0.0
H2034 H 0.19258 0.59417 0.23795 0.0
H2035 H 0.19644 0.57636 0.27542 0.0
H2036 H 0.16392 0.60563 0.19985 0.0
H2037 H 0.13313 0.58911 0.16773 0.0
C2038 C 0.86575 0.86284 0.52274 0.0
C2039 C 0.85178 0.88842 0.53128 0.0
C2040 C 0.83178 0.88254 0.4678 0.0
C2041 C 0.84192 0.85376 0.46027 0.0
N2042 N 0.86464 0.81312 0.48283 0.0
N2043 N 0.81475 0.91568 0.5102 0.0
C2044 C 0.85779 0.84291 0.48837 0.0
C2045 C 0.83296 0.89642 0.50336 0.0
N2046 N 0.88772 0.85845 0.54664 0.0
N2047 N 0.8218 0.89762 0.44116 0.0
H2048 H 0.81287 0.92492 0.53534 0.0
H2049 H 0.79884 0.91906 0.49064 0.0
H2050 H 0.82149 0.88938 0.41476 0.0
H2051 H 0.81694 0.92053 0.4458 0.0
H2052 H 0.90035 0.84238 0.54055 0.0
H2053 H 0.89557 0.87374 0.57099 0.0
H2054 H 0.87347 0.80258 0.5033 0.0
H2055 H 0.85901 0.79743 0.45842 0.0
C2056 C 0.53218 0.54835 0.92698 0.0
C2057 C 0.50539 0.52556 0.91564 0.0
C2058 C 0.50428 0.52348 0.97792 0.0
C2059 C 0.53241 0.54247 0.98864 0.0
N2060 N 0.57404 0.57192 0.97349 0.0
N2061 N 0.46709 0.48911 0.93083 0.0
C2062 C 0.54665 0.55443 0.96313 0.0
C2063 C 0.49189 0.51239 0.94134 0.0
N2064 N 0.54287 0.56633 0.90411 0.0
N2065 N 0.48867 0.51792 1.00272 0.0
H2066 H 0.45662 0.48134 0.90454 0.0
H2067 H 0.45802 0.47571 0.94787 0.0
H2068 H 0.49648 0.52783 0.02941 0.0
H2069 H 0.46718 0.50693 0.99665 0.0
H2070 H 0.56058 0.58581 0.91187 0.0
H2071 H 0.53264 0.56437 0.87804 0.0
H2072 H 0.58687 0.57766 0.9559 0.0
H2073 H 0.58445 0.5791 0.99989 0.0
C2074 C 0.88715 0.26336 0.24763 0.0
C2075 C 0.90692 0.28304 0.23364 0.0
C2076 C 0.9087 0.32853 0.28079 0.0
C2077 C 0.88174 0.31177 0.28559 0.0
N2078 N 0.84348 0.26282 0.26556 0.0
N2079 N 0.94073 0.33384 0.24065 0.0
C2080 C 0.8706 0.27873 0.26747 0.0
C2081 C 0.91942 0.31536 0.25201 0.0
N2082 N 0.88436 0.23036 0.24228 0.0
N2083 N 0.92475 0.35585 0.30404 0.0
H2084 H 0.94973 0.32363 0.22091 0.0
H2085 H 0.94831 0.35905 0.24947 0.0
H2086 H 0.92051 0.36391 0.32835 0.0
H2087 H 0.94496 0.36733 0.3022 0.0
H2088 H 0.8727 0.21573 0.25634 0.0
H2089 H 0.89695 0.21923 0.22807 0.0
H2090 H 0.8351 0.23896 0.25164 0.0
H2091 H 0.82846 0.2744 0.27362 0.0
C2092 C 0.13342 0.53176 0.46248 0.0
C2093 C 0.15908 0.5542 0.46081 0.0
C2094 C 0.15088 0.58906 0.51579 0.0
C2095 C 0.12444 0.56731 0.51663 0.0
N2096 N 0.09115 0.51704 0.48681 0.0
N2097 N 0.19019 0.60651 0.48654 0.0
C2098 C 0.11609 0.53862 0.48862 0.0
C2099 C 0.16719 0.58321 0.48808 0.0
N2100 N 0.12616 0.50224 0.43984 0.0
N2101 N 0.16051 0.61631 0.54162 0.0
H2102 H 0.2023 0.60308 0.46777 0.0
H2103 H 0.19651 0.62983 0.50213 0.0
H2104 H 0.14821 0.62341 0.55883 0.0
H2105 H 0.18067 0.63139 0.54673 0.0
H2106 H 0.1102 0.4826 0.44104 0.0
H2107 H 0.13776 0.49624 0.42119 0.0
H2108 H 0.08086 0.49879 0.46509 0.0
H2109 H 0.07995 0.51796 0.50679 0.0
C2110 C 0.83548 0.83821 0.70369 0.0
C2111 C 0.84829 0.87251 0.7107 0.0
C2112 C 0.83962 0.87415 0.77123 0.0
C2113 C 0.83049 0.83912 0.76528 0.0
N2114 N 0.82774 0.78804 0.7272 0.0
N2115 N 0.86668 0.922 0.75442 0.0
C2116 C 0.83093 0.82133 0.73193 0.0
C2117 C 0.85157 0.8902 0.74546 0.0
N2118 N 0.82617 0.8217 0.66966 0.0
N2119 N 0.83542 0.89245 0.80041 0.0
H2120 H 0.87571 0.93435 0.73659 0.0
H2121 H 0.87225 0.93504 0.78024 0.0
H2122 H 0.82601 0.88176 0.81883 0.0
H2123 H 0.83883 0.91797 0.80447 0.0
H2124 H 0.8145 0.79744 0.66308 0.0
H2125 H 0.8269 0.83332 0.64799 0.0
H2126 H 0.83039 0.77422 0.70435 0.0
H2127 H 0.82594 0.7749 0.74759 0.0
C2128 C 0.71081 0.48246 0.58682 0.0
C2129 C 0.73225 0.48708 0.56722 0.0
C2130 C 0.73828 0.54684 0.5816 0.0
C2131 C 0.71616 0.542 0.60003 0.0
N2132 N 0.67587 0.50523 0.61099 0.0
N2133 N 0.76156 0.52261 0.53876 0.0
C2134 C 0.70073 0.50981 0.59981 0.0
C2135 C 0.74449 0.51903 0.56235 0.0
N2136 N 0.70103 0.45244 0.59489 0.0
N2137 N 0.75395 0.57781 0.58354 0.0
H2138 H 0.76584 0.50257 0.52362 0.0
H2139 H 0.76916 0.54499 0.53167 0.0
H2140 H 0.74991 0.59865 0.59749 0.0
H2141 H 0.77221 0.58263 0.57368 0.0
H2142 H 0.68879 0.44918 0.61364 0.0
H2143 H 0.70676 0.43114 0.5852 0.0
H2144 H 0.66268 0.48218 0.60843 0.0
H2145 H 0.66684 0.5244 0.61939 0.0
C2146 C 0.16549 0.13855 0.53812 0.0
C2147 C 0.19188 0.14734 0.56301 0.0
C2148 C 0.17029 0.11051 0.60003 0.0
C2149 C 0.14363 0.10244 0.57572 0.0
N2150 N 0.11539 0.11105 0.52284 0.0
N2151 N 0.21768 0.14539 0.62071 0.0
C2152 C 0.14114 0.11745 0.54529 0.0
C2153 C 0.19378 0.13411 0.59466 0.0
N2154 N 0.16408 0.14945 0.50679 0.0
N2155 N 0.17335 0.09524 0.62851 0.0
H2156 H 0.23553 0.1617 0.61785 0.0
H2157 H 0.21929 0.14057 0.64618 0.0
H2158 H 0.15638 0.08077 0.63564 0.0
H2159 H 0.19277 0.09578 0.64438 0.0
H2160 H 0.14661 0.14248 0.48591 0.0
H2161 H 0.18143 0.16403 0.50049 0.0
H2162 H 0.11089 0.1223 0.50129 0.0
H2163 H 0.0977 0.09552 0.52708 0.0
C2164 C 0.1887 1.00382 0.82249 0.0
C2165 C 0.19146 1.01707 0.85851 0.0
C2166 C 0.22567 0.98501 0.87624 0.0
C2167 C 0.22281 0.97104 0.8403 0.0
N2168 N 0.20365 0.96822 0.77875 0.0
N2169 N 0.20641 1.01491 0.91969 0.0
C2170 C 0.20446 0.98034 0.81321 0.0
C2171 C 0.20781 1.00564 0.88537 0.0
N2172 N 0.171 1.01396 0.79749 0.0
N2173 N 0.24721 0.98112 0.90128 0.0
H2174 H 0.19343 0.03017 0.92698 0.0
H2175 H 0.21578 1.00497 0.94032 0.0
H2176 H 0.26242 0.96885 0.89508 0.0
H2177 H 0.25202 0.99319 0.92741 0.0
H2178 H 0.16731 1.00552 0.77052 0.0
H2179 H 0.15886 0.03049 0.80406 0.0
H2180 H 0.19331 0.97632 0.75739 0.0
H2181 H 0.21445 0.9505 0.7712 0.0
C2182 C 0.3666 0.90701 0.98772 0.0
C2183 C 0.34689 0.92051 1.00403 0.0
C2184 C 0.37901 0.97471 0.01697 0.0
C2185 C 0.39996 0.96062 1.00527 0.0
N2186 N 0.41591 0.91246 0.985 0.0
N2187 N 0.34046 0.96547 0.04592 0.0
C2188 C 0.39448 0.92642 0.99225 0.0
C2189 C 0.35475 0.95389 0.02197 0.0
N2190 N 0.3587 0.87648 0.96698 0.0
N2191 N 0.38224 1.00806 0.02356 0.0
H2192 H 0.3473 0.98889 0.06146 0.0
H2193 H 0.32432 0.95073 0.05408 0.0
H2194 H 0.39978 0.02441 0.01984 0.0
H2195 H 0.36609 1.01912 0.0291 0.0
H2196 H 0.37177 0.86677 0.95248 0.0
H2197 H 0.33826 0.86199 0.96133 0.0
H2198 H 0.4138 0.88715 0.97895 0.0
H2199 H 0.4364 0.92617 0.98747 0.0
C2200 C 0.87362 0.6718 0.85922 0.0
C2201 C 0.89729 0.67183 0.84208 0.0
C2202 C 0.88735 0.72698 0.82678 0.0
C2203 C 0.86309 0.72636 0.84304 0.0
N2204 N 0.83213 0.69224 0.87066 0.0
N2205 N 0.92335 0.70061 0.80566 0.0
C2206 C 0.85615 0.69689 0.8578 0.0
C2207 C 0.90314 0.7001 0.82519 0.0
N2208 N 0.86848 0.6483 0.87925 0.0
N2209 N 0.89517 0.75347 0.81157 0.0
H2210 H 0.93496 0.68258 0.80424 0.0
H2211 H 0.92749 0.71718 0.78904 0.0
H2212 H 0.88337 0.7712 0.80925 0.0
H2213 H 0.91332 0.75846 0.80168 0.0
H2214 H 0.8547 0.64826 0.89636 0.0
H2215 H 0.88009 0.63035 0.88136 0.0
H2216 H 0.82294 0.67022 0.87726 0.0
H2217 H 0.82014 0.7098 0.87251 0.0
C2218 C 0.84988 0.624 0.05745 0.0
C2219 C 0.84909 0.65393 0.0787 0.0
C2220 C 0.89823 0.6581 0.10977 0.0
C2221 C 0.89778 0.6264 0.09132 0.0
N2222 N 0.87095 0.57683 0.05143 0.0
N2223 N 0.87129 0.69657 0.12945 0.0
C2224 C 0.87297 0.60874 0.06617 0.0
C2225 C 0.87302 0.67027 0.10595 0.0
N2226 N 0.8292 0.61077 0.02784 0.0
N2227 N 0.92304 0.67707 0.13032 0.0
H2228 H 0.85314 0.7057 0.12833 0.0
H2229 H 0.88683 0.70732 0.15205 0.0
H2230 H 0.94187 0.66919 0.13354 0.0
H2231 H 0.92558 0.70165 0.14145 0.0
H2232 H 0.83016 0.59104 1.00928 0.0
H2233 H 0.81246 0.62152 0.01988 0.0
H2234 H 0.85231 0.56148 0.03608 0.0
H2235 H 0.88719 0.56474 0.05703 0.0
C2236 C 0.24226 0.22228 0.9133 0.0
C2237 C 0.22665 0.19597 0.88574 0.0
C2238 C 0.26207 0.21122 0.84989 0.0
C2239 C 0.27801 0.23703 0.87794 0.0
N2240 N 0.28692 0.26117 0.93945 0.0
N2241 N 0.22238 0.1638 0.82828 0.0
C2242 C 0.26912 0.24083 0.91053 0.0
C2243 C 0.23685 0.19 0.85419 0.0
N2244 N 0.23126 0.22987 0.9421 0.0
N2245 N 0.27144 0.20662 0.81926 0.0
H2246 H 0.20304 0.14916 0.82917 0.0
H2247 H 0.22965 0.15548 0.80624 0.0
H2248 H 0.29102 0.21925 0.81645 0.0
H2249 H 0.25986 0.19096 0.79615 0.0
H2250 H 0.23966 0.25119 0.96101 0.0
H2251 H 0.21238 0.21611 0.94575 0.0
H2252 H 0.28299 0.26299 0.96474 0.0
H2253 H 0.30712 0.27368 0.9389 0.0
C2254 C 0.40694 0.94708 0.32922 0.0
C2255 C 0.4027 0.97831 0.34429 0.0
C2256 C 0.3605 0.945 0.36167 0.0
C2257 C 0.3674 0.91406 0.35096 0.0
N2258 N 0.40334 0.88928 0.33235 0.0
N2259 N 0.37596 1.00485 0.37997 0.0
C2260 C 0.39222 0.91627 0.33671 0.0
C2261 C 0.37946 0.97653 0.36173 0.0
N2262 N 0.42457 0.94642 0.30626 0.0
N2263 N 0.33513 0.94456 0.37074 0.0
H2264 H 0.38882 0.02777 0.38066 0.0
H2265 H 0.36185 1.00526 0.39666 0.0
H2266 H 0.32067 0.9228 0.37021 0.0
H2267 H 0.32726 0.96551 0.37524 0.0
H2268 H 0.42656 0.92466 0.29178 0.0
H2269 H 0.43437 0.96755 0.2984 0.0
H2270 H 0.42282 0.88997 0.32556 0.0
H2271 H 0.39474 0.86723 0.33947 0.0
C2272 C 0.59448 0.44391 0.68419 0.0
C2273 C 0.60781 0.41964 0.66902 0.0
C2274 C 0.60803 0.44963 0.6182 0.0
C2275 C 0.59839 0.47563 0.63581 0.0
N2276 N 0.58817 0.4999 0.68984 0.0
N2277 N 0.63317 0.40608 0.62382 0.0
C2278 C 0.59368 0.47352 0.67017 0.0
C2279 C 0.61612 0.42438 0.63653 0.0
N2280 N 0.58037 0.43819 0.71036 0.0
N2281 N 0.60945 0.44881 0.5837 0.0
H2282 H 0.64176 0.38977 0.6375 0.0
H2283 H 0.64158 0.41 0.6019 0.0
H2284 H 0.60477 0.46725 0.57011 0.0
H2285 H 0.61332 0.42882 0.5681 0.0
H2286 H 0.56781 0.45328 0.71917 0.0
H2287 H 0.57767 0.41659 0.72018 0.0
H2288 H 0.58769 0.50136 0.71645 0.0
H2289 H 0.58679 0.5216 0.68063 0.0
C2290 C 0.43099 0.76927 0.43053 0.0
C2291 C 0.44494 0.79551 0.45892 0.0
C2292 C 0.40454 0.82165 0.44477 0.0
C2293 C 0.39147 0.7967 0.41438 0.0
N2294 N 0.40088 0.75427 0.37234 0.0
N2295 N 0.44814 0.85152 0.4856 0.0
C2296 C 0.40705 0.77251 0.40555 0.0
C2297 C 0.43261 0.82312 0.46374 0.0
N2298 N 0.44008 0.74076 0.42745 0.0
N2299 N 0.39009 0.84367 0.45661 0.0
H2300 H 0.46899 0.85418 0.49873 0.0
H2301 H 0.4416 0.87354 0.48741 0.0
H2302 H 0.36941 0.84309 0.44494 0.0
H2303 H 0.39765 0.86043 0.48025 0.0
H2304 H 0.42883 0.71965 0.40941 0.0
H2305 H 0.45723 0.73726 0.44506 0.0
H2306 H 0.41287 0.73812 0.36429 0.0
H2307 H 0.38724 0.75906 0.35126 0.0
C2308 C 0.12217 0.71941 0.1674 0.0
C2309 C 0.10262 0.73804 0.15525 0.0
C2310 C 0.07154 0.68673 0.11822 0.0
C2311 C 0.0899 0.66766 0.13288 0.0
N2312 N 0.1295 0.6663 0.17814 0.0
N2313 N 0.05648 0.73839 0.12309 0.0
C2314 C 0.11439 0.68419 0.15926 0.0
C2315 C 0.07657 0.72128 0.13203 0.0
N2316 N 0.14854 0.73534 0.18636 0.0
N2317 N 0.05016 0.6723 0.08965 0.0
H2318 H 0.05969 0.76359 0.13201 0.0
H2319 H 0.03593 0.7272 0.10944 0.0
H2320 H 0.04651 0.64771 0.07777 0.0
H2321 H 0.03785 0.68538 0.0755 0.0
H2322 H 0.16479 0.72341 0.19256 0.0
H2323 H 0.15489 0.76085 0.19344 0.0
H2324 H 0.14582 0.67677 0.20004 0.0
H2325 H 0.12366 0.64081 0.17439 0.0
C2326 C 0.11704 0.2747 0.9572 0.0
C2327 C 0.10246 0.30038 0.96029 0.0
C2328 C 0.14344 0.3376 0.94872 0.0
C2329 C 0.15531 0.31077 0.93791 0.0
N2330 N 0.16282 0.26207 0.95992 0.0
N2331 N 0.10096 0.35593 0.9539 0.0
C2332 C 0.1447 0.28101 0.94945 0.0
C2333 C 0.11545 0.33167 0.95454 0.0
N2334 N 0.10462 0.24421 0.96181 0.0
N2335 N 0.16039 0.36839 0.9598 0.0
H2336 H 0.07998 0.35216 0.95632 0.0
H2337 H 0.10896 0.37843 0.94721 0.0
H2338 H 0.18229 0.37254 0.96304 0.0
H2339 H 0.15335 0.38832 0.97087 0.0
H2340 H 0.1129 0.2237 0.95632 0.0
H2341 H 0.08489 0.23904 0.96836 0.0
H2342 H 0.1571 0.24143 0.97104 0.0
H2343 H 0.18461 0.27046 0.96334 0.0
C2344 C 0.57235 0.7677 0.95662 0.0
C2345 C 0.544 0.77038 0.9476 0.0
C2346 C 0.52782 0.71736 0.9638 0.0
C2347 C 0.55589 0.71977 0.98166 0.0
N2348 N 0.60565 0.74357 0.99162 0.0
N2349 N 0.49451 0.74536 0.93438 0.0
C2350 C 0.57855 0.74324 0.97604 0.0
C2351 C 0.52159 0.74386 0.94776 0.0
N2352 N 0.59314 0.78918 0.94765 0.0
N2353 N 0.50734 0.69044 0.96386 0.0
H2354 H 0.49011 0.76434 0.92153 0.0
H2355 H 0.47664 0.72838 0.93598 0.0
H2356 H 0.512 0.67086 0.97548 0.0
H2357 H 0.48641 0.6864 0.95067 0.0
H2358 H 0.61409 0.78735 0.95133 0.0
H2359 H 0.5887 0.80696 0.93312 0.0
H2360 H 0.62297 0.76236 0.99224 0.0
H2361 H 0.6107 0.72522 1.00507 0.0
C2362 C 0.18124 0.78542 0.80274 0.0
C2363 C 0.16841 0.77077 0.76721 0.0
C2364 C 0.20886 0.74633 0.762 0.0
C2365 C 0.22269 0.76447 0.79596 0.0
N2366 N 0.21677 0.78469 0.85339 0.0
N2367 N 0.16511 0.72922 0.71697 0.0
C2368 C 0.20704 0.77861 0.81789 0.0
C2369 C 0.18057 0.74811 0.74825 0.0
N2370 N 0.1703 0.80778 0.82127 0.0
N2371 N 0.22295 0.72846 0.74284 0.0
H2372 H 0.14424 0.73008 0.70722 0.0
H2373 H 0.17187 0.7112 0.70204 0.0
H2374 H 0.24333 0.72629 0.75283 0.0
H2375 H 0.21451 0.71528 0.71745 0.0
H2376 H 0.18119 0.82209 0.84558 0.0
H2377 H 0.15131 0.8137 0.81166 0.0
H2378 H 0.20516 0.79261 0.87118 0.0
H2379 H 0.23447 0.77678 0.8643 0.0
C2380 C 0.05807 0.45345 0.52769 0.0
C2381 C 0.08445 0.44804 0.52245 0.0
C2382 C 0.10811 0.48784 0.57651 0.0
C2383 C 0.08128 0.49089 0.58313 0.0
N2384 N 0.03127 0.46885 0.57054 0.0
N2385 N 0.13446 0.45589 0.54481 0.0
C2386 C 0.05645 0.47097 0.56052 0.0
C2387 C 0.10943 0.46371 0.54798 0.0
N2388 N 0.03482 0.4436 0.50076 0.0
N2389 N 0.13225 0.50915 0.59592 0.0
H2390 H 0.13653 0.43977 0.52321 0.0
H2391 H 0.1527 0.46379 0.56466 0.0
H2392 H 0.13267 0.52648 0.61777 0.0
H2393 H 0.15177 0.51093 0.58902 0.0
H2394 H 1.01583 0.45022 0.50232 0.0
H2395 H 0.03557 0.43228 0.4757 0.0
H2396 H 1.0126 0.45279 0.55608 0.0
H2397 H 1.02996 0.48098 0.59508 0.0
C2398 C 0.52134 0.27924 0.32255 0.0
C2399 C 0.54122 0.30509 0.31484 0.0
C2400 C 0.51683 0.34538 0.34045 0.0
C2401 C 0.49558 0.31951 0.34524 0.0
N2402 N 0.48096 0.26244 0.34875 0.0
N2403 N 0.5566 0.36316 0.31458 0.0
C2404 C 0.49887 0.28658 0.33869 0.0
C2405 C 0.5386 0.33822 0.3234 0.0
N2406 N 0.52279 0.24745 0.31217 0.0
N2407 N 0.51721 0.37711 0.35438 0.0
H2408 H 0.57446 0.36026 0.30538 0.0
H2409 H 0.55305 0.38663 0.31453 0.0
H2410 H 0.50229 0.38331 0.36815 0.0
H2411 H 0.5338 0.39704 0.35578 0.0
H2412 H 0.50739 0.22705 0.31303 0.0
H2413 H 0.53872 0.24126 0.30033 0.0
H2414 H 0.48403 0.23883 0.34907 0.0
H2415 H 0.46391 0.26657 0.3594 0.0
C2416 C 0.65196 0.56139 0.48567 0.0
C2417 C 0.64788 0.58934 0.47021 0.0
C2418 C 0.61005 0.59289 0.50324 0.0
C2419 C 0.61759 0.56884 0.52292 0.0
N2420 N 0.64862 0.5327 0.53478 0.0
N2421 N 0.62547 0.63509 0.47042 0.0
C2422 C 0.63961 0.55414 0.51487 0.0
C2423 C 0.62768 0.6061 0.48093 0.0
N2424 N 0.6653 0.53966 0.47057 0.0
N2425 N 0.5849 0.60144 0.50343 0.0
H2426 H 0.63827 0.646 0.45492 0.0
H2427 H 0.61298 0.64982 0.48015 0.0
H2428 H 0.57043 0.59094 0.5172 0.0
H2429 H 0.57713 0.61634 0.48691 0.0
H2430 H 0.66683 0.5176 0.47883 0.0
H2431 H 0.67105 0.54106 0.44663 0.0
H2432 H 0.66658 0.52387 0.53266 0.0
H2433 H 0.63975 0.5262 0.55569 0.0
C2434 C 0.28204 0.87442 0.13841 0.0
C2435 C 0.29885 0.88385 0.11445 0.0
C2436 C 0.34073 0.87604 0.15301 0.0
C2437 C 0.32322 0.8629 0.17463 0.0
N2438 N 0.27827 0.85642 0.19253 0.0
N2439 N 0.34548 0.89826 0.10158 0.0
C2440 C 0.29455 0.86497 0.16931 0.0
C2441 C 0.3285 0.88695 0.12296 0.0
N2442 N 0.25367 0.87253 0.13083 0.0
N2443 N 0.36888 0.8765 0.15984 0.0
H2444 H 0.3383 0.90649 0.07856 0.0
H2445 H 0.3383 0.90649 0.07856 0.0
H2446 H 0.37886 0.86832 0.18152 0.0
H2447 H 0.38222 0.88549 0.14389 0.0
H2448 H 0.24064 0.86521 0.14779 0.0
H2449 H 0.24334 0.87797 0.10753 0.0
H2450 H 0.28588 0.84938 0.21621 0.0
H2451 H 0.28588 0.84938 0.21621 0.0
C2452 C 1.01786 0.6067 0.95187 0.0
C2453 C 0.98858 0.58959 0.94188 0.0
C2454 C 0.99925 0.56295 0.99576 0.0
C2455 C 1.0282 0.58092 1.00617 0.0
N2456 N 0.06108 0.62767 0.99756 0.0
N2457 N 0.95107 0.55697 0.96219 0.0
C2458 C 0.03621 0.60476 0.98491 0.0
C2459 C 0.97928 0.56963 0.96642 0.0
N2460 N 1.0286 0.62583 0.93001 0.0
N2461 N 0.99084 0.53789 1.01265 0.0
H2462 H 0.93615 0.56004 0.94128 0.0
H2463 H 0.94233 0.54564 0.98085 0.0
H2464 H 1.00442 0.53226 0.03329 0.0
H2465 H 0.97138 0.52115 1.00436 0.0
H2466 H 0.05017 0.63461 0.93221 0.0
H2467 H 1.01609 0.63192 0.90873 0.0
H2468 H 0.06722 0.64795 0.98611 0.0
H2469 H 0.07401 0.62885 0.02205 0.0
C2470 C 0.26801 0.24054 0.68799 0.0
C2471 C 0.28923 0.24487 0.66802 0.0
C2472 C 0.32292 0.2788 0.7207 0.0
C2473 C 0.30215 0.2727 0.74137 0.0
N2474 N 0.25727 0.23976 0.74553 0.0
N2475 N 0.33823 0.26282 0.66664 0.0
C2476 C 0.27534 0.25134 0.72524 0.0
C2477 C 0.31717 0.26211 0.6849 0.0
N2478 N 0.24059 0.22645 0.67137 0.0
N2479 N 0.3475 0.302 0.73434 0.0
H2480 H 0.33463 0.25186 0.64019 0.0
H2481 H 0.35954 0.27177 0.67845 0.0
H2482 H 0.35244 0.31569 0.75977 0.0
H2483 H 0.36192 0.31009 0.71937 0.0
H2484 H 0.22371 0.22643 0.68384 0.0
H2485 H 0.23437 0.21684 0.64445 0.0
H2486 H 0.23896 0.22133 0.73554 0.0
H2487 H 0.26188 0.24572 0.7729 0.0
C2488 C 0.63779 0.62268 0.26405 0.0
C2489 C 0.63372 0.59693 0.28362 0.0
C2490 C 0.60397 0.55971 0.22971 0.0
C2491 C 0.60852 0.58523 0.20964 0.0
N2492 N 0.62617 0.64314 0.20998 0.0
N2493 N 0.61614 0.53985 0.28449 0.0
C2494 C 0.6245 0.61726 0.22744 0.0
C2495 C 0.6179 0.5651 0.26616 0.0
N2496 N 0.6557 0.65217 0.28023 0.0
N2497 N 0.58411 0.53127 0.21491 0.0
H2498 H 0.6246 0.54303 0.31141 0.0
H2499 H 0.60803 0.51533 0.27272 0.0
H2500 H 0.57199 0.52696 0.18935 0.0
H2501 H 0.57712 0.51338 0.229 0.0
H2502 H 0.6633 0.67048 0.26694 0.0
H2503 H 0.66498 0.65766 0.30704 0.0
H2504 H 0.63349 0.66761 0.2224 0.0
H2505 H 0.61852 0.64099 0.18319 0.0
C2506 C 0.24298 0.82921 0.93582 0.0
C2507 C 0.24647 0.86317 0.93592 0.0
C2508 C 0.28559 0.86225 0.90594 0.0
C2509 C 0.28231 0.82816 0.90605 0.0
N2510 N 0.26622 0.7843 0.93621 0.0
N2511 N 0.26331 0.90816 0.90852 0.0
C2512 C 0.26324 0.81288 0.92514 0.0
C2513 C 0.26534 0.8785 0.91699 0.0
N2514 N 0.2204 0.81289 0.94677 0.0
N2515 N 0.3097 0.88005 0.89965 0.0
H2516 H 0.24633 0.91831 0.91245 0.0
H2517 H 0.27579 0.91972 0.89314 0.0
H2518 H 0.32676 0.86991 0.89652 0.0
H2519 H 0.31446 0.9056 0.90301 0.0
H2520 H 0.21523 0.78744 0.94462 0.0
H2521 H 0.20526 0.82481 0.95432 0.0
H2522 H 0.25403 0.77337 0.95228 0.0
H2523 H 0.28363 0.77436 0.93411 0.0
C2524 C 0.992 0.60216 0.72854 0.0
C2525 C 0.98624 0.57549 0.74731 0.0
C2526 C 1.01484 0.54757 0.7086 0.0
C2527 C 1.01961 0.57344 0.6888 0.0
N2528 N 1.00435 0.62188 0.67596 0.0
N2529 N 0.9856 0.51788 0.74318 0.0
C2530 C 1.00557 0.59954 0.6977 0.0
C2531 C 0.99595 0.54699 0.73366 0.0
N2532 N 0.98544 0.63087 0.74071 0.0
N2533 N 1.0284 0.52273 0.70359 0.0
H2534 H 0.97047 0.51541 0.75858 0.0
H2535 H 0.98908 0.49552 0.73215 0.0
H2536 H 0.04084 0.52115 0.6849 0.0
H2537 H 1.029 0.50522 0.71974 0.0
H2538 H 0.99164 0.65254 0.73151 0.0
H2539 H 0.97534 0.63326 0.76176 0.0
H2540 H 0.99223 0.63931 0.67792 0.0
H2541 H 1.01328 0.62072 0.65385 0.0
C2542 C 0.27147 0.25877 0.47278 0.0
C2543 C 0.28583 0.23365 0.48113 0.0
C2544 C 0.32038 0.25477 0.44603 0.0
C2545 C 0.30522 0.27848 0.43617 0.0
N2546 N 0.26349 0.29938 0.43577 0.0
N2547 N 0.3194 0.20258 0.46468 0.0
C2548 C 0.27999 0.27946 0.44844 0.0
C2549 C 0.30881 0.23003 0.46441 0.0
N2550 N 0.24924 0.26267 0.48778 0.0
N2551 N 0.3467 0.25657 0.43918 0.0
H2552 H 0.3112 0.1826 0.47522 0.0
H2553 H 0.33422 0.19756 0.4502 0.0
H2554 H 0.35621 0.27445 0.42656 0.0
H2555 H 0.3603 0.24263 0.4493 0.0
H2556 H 0.24026 0.28291 0.48706 0.0
H2557 H 0.24014 0.24588 0.50187 0.0
H2558 H 0.24326 0.29878 0.44001 0.0
H2559 H 0.26924 0.31498 0.41863 0.0
C2560 C 0.38282 0.56977 0.61862 0.0
C2561 C 0.40135 0.59861 0.63988 0.0
C2562 C 0.44208 0.57666 0.63102 0.0
C2563 C 0.42394 0.55199 0.60351 0.0
N2564 N 0.37721 0.52252 0.57254 0.0
N2565 N 0.44631 0.62109 0.67956 0.0
C2566 C 0.39425 0.54732 0.59821 0.0
C2567 C 0.43035 0.59923 0.65046 0.0
N2568 N 0.35483 0.56319 0.6193 0.0
N2569 N 0.47066 0.58 0.63664 0.0
H2570 H 0.43757 0.63699 0.69471 0.0
H2571 H 0.46705 0.62114 0.6908 0.0
H2572 H 0.4801 0.56303 0.62421 0.0
H2573 H 0.48511 0.60054 0.65215 0.0
H2574 H 0.34047 0.54166 0.6058 0.0
H2575 H 0.34678 0.57708 0.6374 0.0
H2576 H 0.35557 0.52011 0.56437 0.0
H2577 H 0.38512 0.50507 0.55825 0.0
C2578 C 0.95759 0.96689 0.59226 0.0
C2579 C 0.94705 0.97178 0.62371 0.0
C2580 C 0.98816 1.01919 0.64739 0.0
C2581 C 0.99941 1.01284 0.61662 0.0
N2582 N 0.99796 0.97422 0.56474 0.0
N2583 N 0.95545 0.99974 0.68371 0.0
C2584 C 0.98513 0.98462 0.59074 0.0
C2585 C 0.9632 0.99728 0.65195 0.0
N2586 N 0.94059 0.94633 0.56283 0.0
N2587 N 1.0016 0.0462 0.67263 0.0
H2588 H 0.93746 0.98447 0.68778 0.0
H2589 H 0.96778 1.01519 0.70661 0.0
H2590 H 1.02131 0.06048 0.67232 0.0
H2591 H 0.99291 0.055 0.69327 0.0
H2592 H 0.9458 0.94426 0.53818 0.0
H2593 H 0.91989 0.93422 0.56203 0.0
H2594 H 0.98985 0.95214 0.54692 0.0
H2595 H 1.01826 0.98583 0.56364 0.0
C2596 C 0.95107 0.12046 0.29518 0.0
C2597 C 0.95519 0.10424 0.32421 0.0
C2598 C 0.93298 0.14048 0.35796 0.0
C2599 C 0.92705 0.15539 0.32811 0.0
N2600 N 0.93632 0.16642 0.27239 0.0
N2601 N 0.95912 0.10519 0.38643 0.0
C2602 C 0.93821 0.1477 0.298 0.0
C2603 C 0.94927 0.11655 0.35677 0.0
N2604 N 0.95879 0.10912 0.26487 0.0
N2605 N 0.92158 0.14769 0.38655 0.0
H2606 H 0.97123 0.08763 0.38635 0.0
H2607 H 0.95782 0.11544 0.41164 0.0
H2608 H 0.90998 0.16564 0.38897 0.0
H2609 H 0.92206 0.13449 0.40704 0.0
H2610 H 0.9548 0.11826 0.24172 0.0
H2611 H 0.96901 0.0898 0.2628 0.0
H2612 H 0.94625 0.16417 0.2513 0.0
H2613 H 0.92664 0.18624 0.27392 0.0
C2614 C 0.77803 0.18522 0.12056 0.0
C2615 C 0.80168 0.18785 0.14844 0.0
C2616 C 0.7729 0.14678 0.17329 0.0
C2617 C 0.74863 0.14894 0.14963 0.0
N2618 N 0.727 0.17398 0.10368 0.0
N2619 N 0.81819 0.17674 0.20679 0.0
C2620 C 0.7508 0.16923 0.12399 0.0
C2621 C 0.79822 0.17 0.17624 0.0
N2622 N 0.78149 0.19626 0.09022 0.0
N2623 N 0.77175 0.1228 0.19336 0.0
H2624 H 0.83577 0.19594 0.21178 0.0
H2625 H 0.81533 0.1664 0.22884 0.0
H2626 H 0.75333 0.1051 0.19176 0.0
H2627 H 0.78972 0.11852 0.2087 0.0
H2628 H 0.76505 0.19214 0.06818 0.0
H2629 H 0.80116 0.2061 0.08543 0.0
H2630 H 0.72747 0.19105 0.08693 0.0
H2631 H 0.70676 0.16289 0.10592 0.0
C2632 C 0.23124 0.42521 0.34544 0.0
C2633 C 0.24101 0.45582 0.3706 0.0
C2634 C 0.28206 0.42876 0.39376 0.0
C2635 C 0.27401 0.39957 0.36612 0.0
N2636 N 0.24092 0.37748 0.31052 0.0
N2637 N 0.28052 0.48574 0.41664 0.0
C2638 C 0.24847 0.40012 0.34095 0.0
C2639 C 0.2679 0.45703 0.39369 0.0
N2640 N 0.20473 0.41939 0.32502 0.0
N2641 N 0.30258 0.4291 0.42225 0.0
H2642 H 0.27081 0.50539 0.41961 0.0
H2643 H 0.30132 0.49088 0.43078 0.0
H2644 H 0.31221 0.40955 0.4248 0.0
H2645 H 0.30766 0.44683 0.44514 0.0
H2646 H 0.19424 0.39657 0.30968 0.0
H2647 H 0.19232 0.43661 0.32591 0.0
H2648 H 0.22551 0.37853 0.28905 0.0
H2649 H 0.252 0.35968 0.30515 0.0
C2650 C 0.28238 0.48834 0.15198 0.0
C2651 C 0.28889 0.46947 0.1228 0.0
C2652 C 0.24482 0.47528 0.08528 0.0
C2653 C 0.23998 0.49722 0.1133 0.0
N2654 N 0.25653 0.52791 0.17262 0.0
N2655 N 0.27906 0.45188 0.0597 0.0
C2656 C 0.25939 0.50454 0.14654 0.0
C2657 C 0.27073 0.46465 0.08896 0.0
N2658 N 0.29765 0.49001 0.18514 0.0
N2659 N 0.22435 0.46398 0.05514 0.0
H2660 H 0.29866 0.44612 0.06085 0.0
H2661 H 0.26811 0.45068 0.03408 0.0
H2662 H 0.20508 0.47089 0.05153 0.0
H2663 H 0.22532 0.44531 0.0353 0.0
H2664 H 0.29226 0.50037 0.20792 0.0
H2665 H 0.31436 0.47848 0.19003 0.0
H2666 H 0.27159 0.53712 0.19599 0.0
H2667 H 0.24006 0.54001 0.16978 0.0
C2668 C 0.88952 0.91376 0.28832 0.0
C2669 C 0.91441 0.92229 0.31562 0.0
C2670 C 0.88684 0.89516 0.35414 0.0
C2671 C 0.86298 0.88254 0.32573 0.0
N2672 N 0.8432 0.87761 0.26364 0.0
N2673 N 0.93744 0.91376 0.37249 0.0
C2674 C 0.86468 0.89143 0.29224 0.0
C2675 C 0.91333 0.91041 0.34765 0.0
N2676 N 0.88964 0.92667 0.25833 0.0
N2677 N 0.88388 0.89539 0.38809 0.0
H2678 H 0.95733 0.926 0.37044 0.0
H2679 H 0.93786 0.90197 0.39412 0.0
H2680 H 0.86434 0.88878 0.39458 0.0
H2681 H 0.90003 0.90686 0.4099 0.0
H2682 H 0.87145 0.92502 0.23943 0.0
H2683 H 0.90781 0.9407 0.25324 0.0
H2684 H 0.8445 0.88015 0.23795 0.0
H2685 H 0.82501 0.86091 0.26479 0.0
C2686 C 0.75779 0.15271 0.85396 0.0
C2687 C 0.74013 0.15041 0.8792 0.0
C2688 C 0.75407 0.2126 0.89327 0.0
C2689 C 0.7737 0.21504 0.87038 0.0
N2690 N 0.798 0.18375 0.83521 0.0
N2691 N 0.72918 0.18039 0.92977 0.0
C2692 C 0.7765 0.18396 0.85254 0.0
C2693 C 0.74079 0.1811 0.90082 0.0
N2694 N 0.75603 0.12529 0.82994 0.0
N2695 N 0.74618 0.24023 0.9063 0.0
H2696 H 0.72045 0.15846 0.93709 0.0
H2697 H 0.73131 0.20123 0.94866 0.0
H2698 H 0.75296 0.26291 0.89941 0.0
H2699 H 0.73008 0.23976 0.92015 0.0
H2700 H 0.76543 0.12577 0.80827 0.0
H2701 H 0.74327 0.10253 0.83013 0.0
H2702 H 0.80314 0.16223 0.82471 0.0
H2703 H 0.81269 0.20503 0.83482 0.0
loop_
_geom_bond_atom_site_label_1
_geom_bond_atom_site_label_2
_geom_bond_distance
_geom_bond_site_symmetry_2
_ccdc_geom_bond_type
Co0 O1 2.216 . S
Co0 O2 2.091 . S
Co0 O4 2.004 1_455 S
Co0 O10 2.021 . S
Co0 O12 2.137 . S
Co0 O13 2.244 . S
O1 Co0 2.216 . S
O1 C8 1.247 . S
O2 Co0 2.091 . S
O2 C8 1.261 . S
C3 O12 1.247 . S
C3 O13 1.272 . S
O4 Co0 2.004 1_655 S
O4 C9 1.259 . S
Co5 O6 2.061 . S
Co5 O11 2.052 . S
Co5 O13 2.135 1_655 S
O6 Co5 2.061 . S
O6 C9 1.235 . S
C7 O10 1.239 . S
C7 O11 1.239 1_455 S
C8 O1 1.247 . S
C8 O2 1.261 . S
C9 O4 1.259 . S
C9 O6 1.235 . S
O10 Co0 2.021 . S
O10 C7 1.239 . S
O11 Co5 2.052 . S
O11 C7 1.239 1_655 S
O12 Co0 2.137 . S
O12 C3 1.247 . S
O13 Co0 2.244 . S
O13 C3 1.272 . S
O13 Co5 2.135 1_455 S
Co14 O15 2.216 . S
Co14 O16 2.091 . S
Co14 O18 2.004 . S
Co14 O24 2.021 . S
Co14 O26 2.137 . S
Co14 O27 2.244 . S
O15 Co14 2.216 . S
O15 C22 1.247 . S
O16 Co14 2.091 . S
O16 C22 1.261 . S
C17 O26 1.247 . S
C17 O27 1.272 . S
O18 Co14 2.004 . S
O18 C23 1.259 . S
Co19 O20 2.061 . S
Co19 O25 2.052 . S
Co19 O27 2.135 . S
O20 Co19 2.061 . S
O20 C23 1.235 . S
C21 O24 1.238 . S
C21 O25 1.241 . S
C22 O15 1.247 . S
C22 O16 1.261 . S
C23 O18 1.259 . S
C23 O20 1.235 . S
O24 Co14 2.021 . S
O24 C21 1.238 . S
O25 Co19 2.052 . S
O25 C21 1.241 . S
O26 Co14 2.137 . S
O26 C17 1.247 . S
O27 Co14 2.244 . S
O27 C17 1.272 . S
O27 Co19 2.135 . S
Co28 O29 2.216 . S
Co28 O30 2.091 . S
Co28 O32 2.004 . S
Co28 O38 2.021 . S
Co28 O40 2.137 . S
Co28 O41 2.244 . S
O29 Co28 2.216 . S
O29 C36 1.247 . S
O30 Co28 2.091 . S
O30 C36 1.261 . S
C31 O40 1.247 . S
C31 O41 1.272 . S
O32 Co28 2.004 . S
O32 C37 1.259 . S
Co33 O34 2.061 . S
Co33 O39 2.052 . S
Co33 O41 2.135 . S
O34 Co33 2.061 . S
O34 C37 1.235 . S
C35 O38 1.238 . S
C35 O39 1.241 . S
C36 O29 1.247 . S
C36 O30 1.261 . S
C37 O32 1.259 . S
C37 O34 1.235 . S
O38 Co28 2.021 . S
O38 C35 1.238 . S
O39 Co33 2.052 . S
O39 C35 1.241 . S
O40 Co28 2.137 . S
O40 C31 1.247 . S
O41 Co28 2.244 . S
O41 C31 1.272 . S
O41 Co33 2.135 . S
Co42 O43 2.216 . S
Co42 O44 2.091 . S
Co42 O46 2.004 . S
Co42 O52 2.021 . S
Co42 O54 2.137 . S
Co42 O55 2.244 . S
O43 Co42 2.216 . S
O43 C50 1.247 . S
O44 Co42 2.091 . S
O44 C50 1.261 . S
C45 O54 1.247 . S
C45 O55 1.272 . S
O46 Co42 2.004 . S
O46 C51 1.259 . S
Co47 O48 2.061 . S
Co47 O53 2.052 . S
Co47 O55 2.135 . S
O48 Co47 2.061 . S
O48 C51 1.235 . S
C49 O52 1.238 . S
C49 O53 1.241 . S
C50 O43 1.247 . S
C50 O44 1.261 . S
C51 O46 1.259 . S
C51 O48 1.235 . S
O52 Co42 2.021 . S
O52 C49 1.238 . S
O53 Co47 2.052 . S
O53 C49 1.241 . S
O54 Co42 2.137 . S
O54 C45 1.247 . S
O55 Co42 2.244 . S
O55 C45 1.272 . S
O55 Co47 2.135 . S
Co56 O57 2.216 . S
Co56 O58 2.091 . S
Co56 O60 2.004 . S
Co56 O66 2.021 . S
Co56 O68 2.137 . S
Co56 O69 2.244 . S
O57 Co56 2.216 . S
O57 C64 1.247 . S
O58 Co56 2.091 . S
O58 C64 1.261 . S
C59 O68 1.247 . S
C59 O69 1.272 . S
O60 Co56 2.004 . S
O60 C65 1.259 . S
Co61 O62 2.061 . S
Co61 O67 2.052 . S
Co61 O69 2.135 . S
O62 Co61 2.061 . S
O62 C65 1.235 . S
C63 O66 1.238 . S
C63 O67 1.241 . S
C64 O57 1.247 . S
C64 O58 1.261 . S
C65 O60 1.259 . S
C65 O62 1.235 . S
O66 Co56 2.021 . S
O66 C63 1.238 . S
O67 Co61 2.052 . S
O67 C63 1.241 . S
O68 Co56 2.137 . S
O68 C59 1.247 . S
O69 Co56 2.244 . S
O69 C59 1.272 . S
O69 Co61 2.135 . S
Co70 O71 2.216 . S
Co70 O72 2.091 . S
Co70 O74 2.004 . S
Co70 O80 2.021 . S
Co70 O82 2.137 . S
Co70 O83 2.244 . S
O71 Co70 2.216 . S
O71 C78 1.247 . S
O72 Co70 2.091 . S
O72 C78 1.261 . S
C73 O82 1.247 . S
C73 O83 1.272 . S
O74 Co70 2.004 . S
O74 C79 1.259 . S
Co75 O76 2.061 . S
Co75 O81 2.052 . S
Co75 O83 2.135 . S
O76 Co75 2.061 . S
O76 C79 1.235 . S
C77 O80 1.238 . S
C77 O81 1.241 . S
C78 O71 1.247 . S
C78 O72 1.261 . S
C79 O74 1.259 . S
C79 O76 1.235 . S
O80 Co70 2.021 . S
O80 C77 1.238 . S
O81 Co75 2.052 . S
O81 C77 1.241 . S
O82 Co70 2.137 . S
O82 C73 1.247 . S
O83 Co70 2.244 . S
O83 C73 1.272 . S
O83 Co75 2.135 . S
Co84 O85 2.216 . S
Co84 O86 2.091 . S
Co84 O88 2.004 . S
Co84 O94 2.021 . S
Co84 O96 2.137 . S
Co84 O97 2.244 . S
O85 Co84 2.216 . S
O85 C92 1.247 . S
O86 Co84 2.091 . S
O86 C92 1.261 . S
C87 O96 1.247 . S
C87 O97 1.272 . S
O88 Co84 2.004 . S
O88 C93 1.259 . S
Co89 O90 2.061 . S
Co89 O95 2.052 . S
Co89 O97 2.135 . S
O90 Co89 2.061 . S
O90 C93 1.235 . S
C91 O94 1.238 . S
C91 O95 1.241 . S
C92 O85 1.247 . S
C92 O86 1.261 . S
C93 O88 1.259 . S
C93 O90 1.235 . S
O94 Co84 2.021 . S
O94 C91 1.238 . S
O95 Co89 2.052 . S
O95 C91 1.241 . S
O96 Co84 2.137 . S
O96 C87 1.247 . S
O97 Co84 2.244 . S
O97 C87 1.272 . S
O97 Co89 2.135 . S
Co98 O99 2.216 . S
Co98 O100 2.091 . S
Co98 O102 2.004 1_455 S
Co98 O108 2.021 . S
Co98 O110 2.137 . S
Co98 O111 2.244 1_556 S
O99 Co98 2.216 . S
O99 C106 1.247 . S
O100 Co98 2.091 . S
O100 C106 1.261 . S
C101 O110 1.247 1_554 S
C101 O111 1.272 . S
O102 Co98 2.004 1_655 S
O102 C107 1.259 . S
Co103 O104 2.061 1_554 S
Co103 O109 2.036 1_655 S
Co103 O111 2.135 1_655 S
O104 Co103 2.061 1_556 S
O104 C107 1.235 . S
C105 O108 1.238 1_554 S
C105 O109 1.255 . S
C106 O99 1.247 . S
C106 O100 1.261 . S
C107 O102 1.259 . S
C107 O104 1.235 . S
O108 Co98 2.021 . S
O108 C105 1.238 1_556 S
O109 Co103 2.036 1_455 S
O109 C105 1.255 . S
O110 Co98 2.137 . S
O110 C101 1.247 1_556 S
O111 Co98 2.244 1_554 S
O111 C101 1.272 . S
O111 Co103 2.135 1_455 S
Co112 O113 2.216 . S
Co112 O114 2.091 . S
Co112 O116 2.004 . S
Co112 O122 2.021 . S
Co112 O124 2.137 . S
Co112 O125 2.244 . S
O113 Co112 2.216 . S
O113 C120 1.247 . S
O114 Co112 2.091 . S
O114 C120 1.261 . S
C115 O124 1.247 . S
C115 O125 1.272 . S
O116 Co112 2.004 . S
O116 C121 1.259 1_545 S
Co117 O118 2.061 1_545 S
Co117 O123 2.052 . S
Co117 O125 2.135 . S
O118 Co117 2.061 1_565 S
O118 C121 1.235 . S
C119 O122 1.238 . S
C119 O123 1.241 . S
C120 O113 1.247 . S
C120 O114 1.261 . S
C121 O116 1.259 1_565 S
C121 O118 1.235 . S
O122 Co112 2.021 . S
O122 C119 1.238 . S
O123 Co117 2.052 . S
O123 C119 1.241 . S
O124 Co112 2.137 . S
O124 C115 1.247 . S
O125 Co112 2.244 . S
O125 C115 1.272 . S
O125 Co117 2.135 . S
Co126 O127 2.216 . S
Co126 O128 2.091 . S
Co126 O130 2.004 . S
Co126 O136 2.021 . S
Co126 O138 2.137 . S
Co126 O139 2.244 . S
O127 Co126 2.216 . S
O127 C134 1.247 . S
O128 Co126 2.091 . S
O128 C134 1.261 . S
C129 O138 1.247 . S
C129 O139 1.272 . S
O130 Co126 2.004 . S
O130 C135 1.259 . S
Co131 O132 2.061 . S
Co131 O137 2.052 . S
Co131 O139 2.135 . S
O132 Co131 2.061 . S
O132 C135 1.235 . S
C133 O136 1.238 . S
C133 O137 1.241 . S
C134 O127 1.247 . S
C134 O128 1.261 . S
C135 O130 1.259 . S
C135 O132 1.235 . S
O136 Co126 2.021 . S
O136 C133 1.238 . S
O137 Co131 2.052 . S
O137 C133 1.241 . S
O138 Co126 2.137 . S
O138 C129 1.247 . S
O139 Co126 2.244 . S
O139 C129 1.272 . S
O139 Co131 2.135 . S
Co140 O141 2.216 . S
Co140 O142 2.091 . S
Co140 O144 2.004 . S
Co140 O150 2.021 . S
Co140 O152 2.137 . S
Co140 O153 2.244 . S
O141 Co140 2.216 . S
O141 C148 1.247 . S
O142 Co140 2.091 . S
O142 C148 1.261 . S
C143 O152 1.247 . S
C143 O153 1.272 . S
O144 Co140 2.004 . S
O144 C149 1.259 . S
Co145 O146 2.061 . S
Co145 O151 2.052 . S
Co145 O153 2.135 . S
O146 Co145 2.061 . S
O146 C149 1.235 . S
C147 O150 1.238 . S
C147 O151 1.241 . S
C148 O141 1.247 . S
C148 O142 1.261 . S
C149 O144 1.259 . S
C149 O146 1.235 . S
O150 Co140 2.021 . S
O150 C147 1.238 . S
O151 Co145 2.052 . S
O151 C147 1.241 . S
O152 Co140 2.137 . S
O152 C143 1.247 . S
O153 Co140 2.244 . S
O153 C143 1.272 . S
O153 Co145 2.135 . S
Co154 O155 2.216 . S
Co154 O156 2.091 1_556 S
Co154 O158 2.004 1_556 S
Co154 O164 2.021 1_556 S
Co154 O166 2.137 . S
Co154 O167 2.244 . S
O155 Co154 2.216 . S
O155 C162 1.247 . S
O156 Co154 2.091 1_554 S
O156 C162 1.261 1_554 S
C157 O166 1.247 . S
C157 O167 1.272 . S
O158 Co154 2.004 1_554 S
O158 C163 1.259 . S
Co159 O160 2.061 1_556 S
Co159 O165 2.052 1_556 S
Co159 O167 2.135 . S
O160 Co159 2.061 1_554 S
O160 C163 1.235 . S
C161 O164 1.238 . S
C161 O165 1.241 . S
C162 O155 1.247 . S
C162 O156 1.261 1_556 S
C163 O158 1.259 . S
C163 O160 1.235 . S
O164 Co154 2.021 1_554 S
O164 C161 1.238 . S
O165 Co159 2.052 1_554 S
O165 C161 1.241 . S
O166 Co154 2.137 . S
O166 C157 1.247 . S
O167 Co154 2.244 . S
O167 C157 1.272 . S
O167 Co159 2.135 . S
Co168 O169 2.216 . S
Co168 O170 2.091 . S
Co168 O172 2.004 . S
Co168 O178 2.021 . S
Co168 O180 2.137 . S
Co168 O181 2.244 . S
O169 Co168 2.216 . S
O169 C176 1.247 . S
O170 Co168 2.091 . S
O170 C176 1.261 . S
C171 O180 1.247 . S
C171 O181 1.272 . S
O172 Co168 2.004 . S
O172 C177 1.259 . S
Co173 O174 2.061 . S
Co173 O179 2.052 . S
Co173 O181 2.135 . S
O174 Co173 2.061 . S
O174 C177 1.235 . S
C175 O178 1.238 . S
C175 O179 1.241 . S
C176 O169 1.247 . S
C176 O170 1.261 . S
C177 O172 1.259 . S
C177 O174 1.235 . S
O178 Co168 2.021 . S
O178 C175 1.238 . S
O179 Co173 2.052 . S
O179 C175 1.241 . S
O180 Co168 2.137 . S
O180 C171 1.247 . S
O181 Co168 2.244 . S
O181 C171 1.272 . S
O181 Co173 2.135 . S
Co182 O183 2.216 . S
Co182 O184 2.091 . S
Co182 O186 2.004 . S
Co182 O192 2.021 . S
Co182 O194 2.137 . S
Co182 O195 2.244 . S
O183 Co182 2.216 . S
O183 C190 1.247 . S
O184 Co182 2.091 . S
O184 C190 1.261 . S
C185 O194 1.247 . S
C185 O195 1.272 . S
O186 Co182 2.004 . S
O186 C191 1.259 . S
Co187 O188 2.061 . S
Co187 O193 2.052 . S
Co187 O195 2.135 . S
O188 Co187 2.061 . S
O188 C191 1.235 . S
C189 O192 1.238 . S
C189 O193 1.241 . S
C190 O183 1.247 . S
C190 O184 1.261 . S
C191 O186 1.259 . S
C191 O188 1.235 . S
O192 Co182 2.021 . S
O192 C189 1.238 . S
O193 Co187 2.052 . S
O193 C189 1.241 . S
O194 Co182 2.137 . S
O194 C185 1.247 . S
O195 Co182 2.244 . S
O195 C185 1.272 . S
O195 Co187 2.135 . S
Co196 O197 2.216 . S
Co196 O198 2.091 . S
Co196 O200 2.004 . S
Co196 O206 2.021 . S
Co196 O208 2.137 . S
Co196 O209 2.244 . S
O197 Co196 2.216 . S
O197 C204 1.247 . S
O198 Co196 2.091 . S
O198 C204 1.261 . S
C199 O208 1.247 . S
C199 O209 1.272 . S
O200 Co196 2.004 . S
O200 C205 1.259 . S
Co201 O202 2.061 . S
Co201 O207 2.052 . S
Co201 O209 2.135 . S
O202 Co201 2.061 . S
O202 C205 1.235 . S
C203 O206 1.238 . S
C203 O207 1.241 . S
C204 O197 1.247 . S
C204 O198 1.261 . S
C205 O200 1.259 . S
C205 O202 1.235 . S
O206 Co196 2.021 . S
O206 C203 1.238 . S
O207 Co201 2.052 . S
O207 C203 1.241 . S
O208 Co196 2.137 . S
O208 C199 1.247 . S
O209 Co196 2.244 . S
O209 C199 1.272 . S
O209 Co201 2.135 . S
Co210 O211 2.216 . S
Co210 O212 2.091 . S
Co210 O214 2.004 . S
Co210 O220 2.021 . S
Co210 O222 2.137 . S
Co210 O223 2.244 . S
O211 Co210 2.216 . S
O211 C218 1.247 . S
O212 Co210 2.091 . S
O212 C218 1.261 . S
C213 O222 1.247 . S
C213 O223 1.272 . S
O214 Co210 2.004 . S
O214 C219 1.259 . S
Co215 O216 2.061 . S
Co215 O221 2.052 . S
Co215 O223 2.135 . S
O216 Co215 2.061 . S
O216 C219 1.235 . S
C217 O220 1.238 . S
C217 O221 1.241 . S
C218 O211 1.247 . S
C218 O212 1.261 . S
C219 O214 1.259 . S
C219 O216 1.235 . S
O220 Co210 2.021 . S
O220 C217 1.238 . S
O221 Co215 2.052 . S
O221 C217 1.241 . S
O222 Co210 2.137 . S
O222 C213 1.247 . S
O223 Co210 2.244 . S
O223 C213 1.272 . S
O223 Co215 2.135 . S
Co224 O225 2.216 . S
Co224 O226 2.091 . S
Co224 O228 2.004 1_545 S
Co224 O234 2.021 . S
Co224 O236 2.137 . S
Co224 O237 2.244 . S
O225 Co224 2.216 . S
O225 C232 1.247 . S
O226 Co224 2.091 . S
O226 C232 1.261 . S
C227 O236 1.247 . S
C227 O237 1.272 . S
O228 Co224 2.004 1_565 S
O228 C233 1.259 . S
Co229 O230 2.061 . S
Co229 O235 2.052 . S
Co229 O237 2.135 1_565 S
O230 Co229 2.061 . S
O230 C233 1.235 . S
C231 O234 1.228 1_565 S
C231 O235 1.241 . S
C232 O225 1.247 . S
C232 O226 1.261 . S
C233 O228 1.259 . S
C233 O230 1.235 . S
O234 Co224 2.021 . S
O234 C231 1.228 1_545 S
O235 Co229 2.052 . S
O235 C231 1.241 . S
O236 Co224 2.137 . S
O236 C227 1.247 . S
O237 Co224 2.244 . S
O237 C227 1.272 . S
O237 Co229 2.135 1_545 S
Co238 O239 2.216 . S
Co238 O240 2.091 . S
Co238 O242 2.004 . S
Co238 O248 2.021 . S
Co238 O250 2.137 . S
Co238 O251 2.244 . S
O239 Co238 2.216 . S
O239 C246 1.247 . S
O240 Co238 2.091 . S
O240 C246 1.261 . S
C241 O250 1.247 . S
C241 O251 1.272 . S
O242 Co238 2.004 . S
O242 C247 1.259 . S
Co243 O244 2.061 . S
Co243 O249 2.052 . S
Co243 O251 2.135 . S
O244 Co243 2.061 . S
O244 C247 1.235 . S
C245 O248 1.238 . S
C245 O249 1.241 . S
C246 O239 1.247 . S
C246 O240 1.261 . S
C247 O242 1.259 . S
C247 O244 1.235 . S
O248 Co238 2.021 . S
O248 C245 1.238 . S
O249 Co243 2.052 . S
O249 C245 1.241 . S
O250 Co238 2.137 . S
O250 C241 1.247 . S
O251 Co238 2.244 . S
O251 C241 1.272 . S
O251 Co243 2.135 . S
Co252 O253 2.216 . S
Co252 O254 2.091 . S
Co252 O256 2.004 . S
Co252 O262 2.021 . S
Co252 O264 2.137 . S
Co252 O265 2.244 . S
O253 Co252 2.216 . S
O253 C260 1.247 . S
O254 Co252 2.091 . S
O254 C260 1.261 . S
C255 O264 1.247 . S
C255 O265 1.272 . S
O256 Co252 2.004 . S
O256 C261 1.259 . S
Co257 O258 2.061 . S
Co257 O263 2.052 . S
Co257 O265 2.135 . S
O258 Co257 2.061 . S
O258 C261 1.235 . S
C259 O262 1.238 . S
C259 O263 1.241 . S
C260 O253 1.247 . S
C260 O254 1.261 . S
C261 O256 1.259 . S
C261 O258 1.235 . S
O262 Co252 2.021 . S
O262 C259 1.238 . S
O263 Co257 2.052 . S
O263 C259 1.241 . S
O264 Co252 2.137 . S
O264 C255 1.247 . S
O265 Co252 2.244 . S
O265 C255 1.272 . S
O265 Co257 2.135 . S
Co266 O267 2.216 1_545 S
Co266 O268 2.091 . S
Co266 O270 2.004 . S
Co266 O276 2.021 . S
Co266 O278 2.137 . S
Co266 O279 2.244 . S
O267 Co266 2.216 1_565 S
O267 C274 1.247 . S
O268 Co266 2.091 . S
O268 C274 1.261 1_545 S
C269 O278 1.247 . S
C269 O279 1.272 . S
O270 Co266 2.004 . S
O270 C275 1.259 . S
Co271 O272 2.061 . S
Co271 O277 2.052 . S
Co271 O279 2.135 . S
O272 Co271 2.061 . S
O272 C275 1.235 . S
C273 O276 1.238 . S
C273 O277 1.241 . S
C274 O267 1.247 . S
C274 O268 1.261 1_565 S
C275 O270 1.259 . S
C275 O272 1.235 . S
O276 Co266 2.021 . S
O276 C273 1.238 . S
O277 Co271 2.052 . S
O277 C273 1.241 . S
O278 Co266 2.137 . S
O278 C269 1.247 . S
O279 Co266 2.244 . S
O279 C269 1.272 . S
O279 Co271 2.135 . S
Co280 O281 2.216 . S
Co280 O282 2.091 . S
Co280 O284 2.004 . S
Co280 O290 2.021 . S
Co280 O292 2.137 . S
Co280 O293 2.244 . S
O281 Co280 2.216 . S
O281 C288 1.247 . S
O282 Co280 2.091 . S
O282 C288 1.261 . S
C283 O292 1.247 . S
C283 O293 1.272 . S
O284 Co280 2.004 . S
O284 C289 1.259 . S
Co285 O286 2.061 . S
Co285 O291 2.052 . S
Co285 O293 2.135 . S
O286 Co285 2.061 . S
O286 C289 1.235 . S
C287 O290 1.238 . S
C287 O291 1.241 . S
C288 O281 1.247 . S
C288 O282 1.261 . S
C289 O284 1.259 . S
C289 O286 1.235 . S
O290 Co280 2.021 . S
O290 C287 1.238 . S
O291 Co285 2.052 . S
O291 C287 1.241 . S
O292 Co280 2.137 . S
O292 C283 1.247 . S
O293 Co280 2.244 . S
O293 C283 1.272 . S
O293 Co285 2.135 . S
Co294 O295 2.216 . S
Co294 O296 2.091 . S
Co294 O298 2.004 . S
Co294 O304 2.021 . S
Co294 O306 2.137 . S
Co294 O307 2.244 . S
O295 Co294 2.216 . S
O295 C302 1.247 . S
O296 Co294 2.091 . S
O296 C302 1.261 . S
C297 O306 1.247 . S
C297 O307 1.272 . S
O298 Co294 2.004 . S
O298 C303 1.259 . S
Co299 O300 2.061 . S
Co299 O305 2.052 . S
Co299 O307 2.135 . S
O300 Co299 2.061 . S
O300 C303 1.235 . S
C301 O304 1.238 . S
C301 O305 1.241 . S
C302 O295 1.247 . S
C302 O296 1.261 . S
C303 O298 1.259 . S
C303 O300 1.235 . S
O304 Co294 2.021 . S
O304 C301 1.238 . S
O305 Co299 2.052 . S
O305 C301 1.241 . S
O306 Co294 2.137 . S
O306 C297 1.247 . S
O307 Co294 2.244 . S
O307 C297 1.272 . S
O307 Co299 2.135 . S
Co308 O309 2.216 . S
Co308 O310 2.091 . S
Co308 O312 2.004 . S
Co308 O318 2.021 . S
Co308 O320 2.137 . S
Co308 O321 2.244 . S
O309 Co308 2.216 . S
O309 C316 1.247 . S
O310 Co308 2.091 . S
O310 C316 1.261 . S
C311 O320 1.247 . S
C311 O321 1.272 . S
O312 Co308 2.004 . S
O312 C317 1.259 . S
Co313 O314 2.061 . S
Co313 O319 2.052 . S
Co313 O321 2.135 . S
O314 Co313 2.061 . S
O314 C317 1.235 . S
C315 O318 1.238 . S
C315 O319 1.241 . S
C316 O309 1.247 . S
C316 O310 1.261 . S
C317 O312 1.259 . S
C317 O314 1.235 . S
O318 Co308 2.021 . S
O318 C315 1.238 . S
O319 Co313 2.052 . S
O319 C315 1.241 . S
O320 Co308 2.137 . S
O320 C311 1.247 . S
O321 Co308 2.244 . S
O321 C311 1.272 . S
O321 Co313 2.135 . S
Co322 O323 2.216 . S
Co322 O324 2.091 . S
Co322 O326 2.004 . S
Co322 O332 2.021 . S
Co322 O334 2.137 . S
Co322 O335 2.244 . S
O323 Co322 2.216 . S
O323 C330 1.247 . S
O324 Co322 2.091 . S
O324 C330 1.261 . S
C325 O334 1.247 . S
C325 O335 1.272 . S
O326 Co322 2.004 . S
O326 C331 1.259 . S
Co327 O328 2.061 . S
Co327 O333 2.052 . S
Co327 O335 2.135 . S
O328 Co327 2.061 . S
O328 C331 1.235 . S
C329 O332 1.238 . S
C329 O333 1.241 . S
C330 O323 1.247 . S
C330 O324 1.261 . S
C331 O326 1.259 . S
C331 O328 1.235 . S
O332 Co322 2.021 . S
O332 C329 1.238 . S
O333 Co327 2.052 . S
O333 C329 1.241 . S
O334 Co322 2.137 . S
O334 C325 1.247 . S
O335 Co322 2.244 . S
O335 C325 1.272 . S
O335 Co327 2.135 . S
Tb336 C338 2.809 1_455 S
Tb336 O356 2.484 1_455 S
Tb336 O357 2.440 1_455 S
Tb336 O358 2.658 . S
Tb336 O359 2.409 . S
Tb336 O360 2.378 . S
Tb336 O364 2.325 . S
Tb336 O367 2.341 1_545 S
Tb337 C347 2.809 . S
Tb337 O358 2.325 . S
Tb337 O361 2.341 . S
Tb337 O362 2.484 . S
Tb337 O363 2.440 . S
Tb337 O364 2.658 . S
Tb337 O365 2.409 . S
Tb337 O366 2.392 . S
C338 Tb336 2.809 1_655 S
C338 C339 1.514 . S
C338 O356 1.248 . S
C338 O357 1.266 . S
C339 C338 1.514 . S
C339 C340 1.359 . S
C339 C344 1.348 . S
C340 C339 1.359 . S
C340 C341 1.380 . S
C340 H368 0.929 . S
C341 C340 1.380 . S
C341 C342 1.347 . S
C341 H369 0.931 . S
C342 C341 1.347 . S
C342 C343 1.369 . S
C343 C342 1.369 . S
C343 C344 1.408 . S
C343 H370 0.930 . S
C344 C339 1.348 . S
C344 C343 1.408 . S
C344 H371 0.930 . S
C345 O358 1.281 . S
C345 O359 1.254 . S
C346 O360 1.236 . S
C346 O361 1.266 . S
C347 Tb337 2.809 . S
C347 C348 1.513 . S
C347 O362 1.248 . S
C347 O363 1.266 . S
C348 C347 1.513 . S
C348 C349 1.359 1_545 S
C348 C353 1.349 1_545 S
C349 C348 1.359 1_565 S
C349 C350 1.380 . S
C349 H372 0.929 . S
C350 C349 1.380 . S
C350 C351 1.347 . S
C350 H373 0.931 . S
C351 C350 1.347 . S
C351 C352 1.369 . S
C352 C351 1.369 . S
C352 C353 1.408 . S
C352 H374 0.930 . S
C353 C348 1.349 1_565 S
C353 C352 1.408 . S
C353 H375 0.930 1_565 S
C354 O364 1.281 . S
C354 O365 1.254 . S
C355 O366 1.230 1_565 S
C355 O367 1.266 . S
O356 Tb336 2.484 1_655 S
O356 C338 1.248 . S
O357 Tb336 2.440 1_655 S
O357 C338 1.266 . S
O358 Tb336 2.658 . S
O358 Tb337 2.325 . S
O358 C345 1.281 . S
O359 Tb336 2.409 . S
O359 C345 1.254 . S
O360 Tb336 2.378 . S
O360 C346 1.236 . S
O361 Tb337 2.341 . S
O361 C346 1.266 . S
O362 Tb337 2.484 . S
O362 C347 1.248 . S
O363 Tb337 2.440 . S
O363 C347 1.266 . S
O364 Tb336 2.325 . S
O364 Tb337 2.658 . S
O364 C354 1.281 . S
O365 Tb337 2.409 . S
O365 C354 1.254 . S
O366 Tb337 2.392 . S
O366 C355 1.230 1_545 S
O367 Tb336 2.341 1_565 S
O367 C355 1.266 . S
H368 C340 0.929 . S
H369 C341 0.931 . S
H370 C343 0.930 . S
H371 C344 0.930 . S
H372 C349 0.929 . S
H373 C350 0.931 . S
H374 C352 0.930 . S
H375 C353 0.930 1_545 S
Tb376 C378 2.809 . S
Tb376 O396 2.484 . S
Tb376 O397 2.440 . S
Tb376 O398 2.658 . S
Tb376 O399 2.409 . S
Tb376 O400 2.378 . S
Tb376 O404 2.325 . S
Tb376 O407 2.341 . S
Tb377 C387 2.809 . S
Tb377 O398 2.325 . S
Tb377 O401 2.341 . S
Tb377 O402 2.484 . S
Tb377 O403 2.440 . S
Tb377 O404 2.658 . S
Tb377 O405 2.409 . S
Tb377 O406 2.378 . S
C378 Tb376 2.809 . S
C378 C379 1.514 . S
C378 O396 1.248 . S
C378 O397 1.266 . S
C379 C378 1.514 . S
C379 C380 1.359 . S
C379 C384 1.348 . S
C380 C379 1.359 . S
C380 C381 1.380 . S
C380 H408 0.929 . S
C381 C380 1.380 . S
C381 C382 1.347 . S
C381 H409 0.931 . S
C382 C381 1.347 . S
C382 C383 1.369 . S
C383 C382 1.369 . S
C383 C384 1.408 . S
C383 H410 0.930 . S
C384 C379 1.348 . S
C384 C383 1.408 . S
C384 H411 0.930 . S
C385 O398 1.281 . S
C385 O399 1.254 . S
C386 O400 1.236 . S
C386 O401 1.266 . S
C387 Tb377 2.809 . S
C387 C388 1.514 . S
C387 O402 1.248 . S
C387 O403 1.266 . S
C388 C387 1.514 . S
C388 C389 1.359 . S
C388 C393 1.348 . S
C389 C388 1.359 . S
C389 C390 1.380 . S
C389 H412 0.929 . S
C390 C389 1.380 . S
C390 C391 1.347 . S
C390 H413 0.931 . S
C391 C390 1.347 . S
C391 C392 1.369 . S
C392 C391 1.369 . S
C392 C393 1.408 . S
C392 H414 0.930 . S
C393 C388 1.348 . S
C393 C392 1.408 . S
C393 H415 0.930 . S
C394 O404 1.281 . S
C394 O405 1.254 . S
C395 O406 1.236 . S
C395 O407 1.266 . S
O396 Tb376 2.484 . S
O396 C378 1.248 . S
O397 Tb376 2.440 . S
O397 C378 1.266 . S
O398 Tb376 2.658 . S
O398 Tb377 2.325 . S
O398 C385 1.281 . S
O399 Tb376 2.409 . S
O399 C385 1.254 . S
O400 Tb376 2.378 . S
O400 C386 1.236 . S
O401 Tb377 2.341 . S
O401 C386 1.266 . S
O402 Tb377 2.484 . S
O402 C387 1.248 . S
O403 Tb377 2.440 . S
O403 C387 1.266 . S
O404 Tb376 2.325 . S
O404 Tb377 2.658 . S
O404 C394 1.281 . S
O405 Tb377 2.409 . S
O405 C394 1.254 . S
O406 Tb377 2.378 . S
O406 C395 1.236 . S
O407 Tb376 2.341 . S
O407 C395 1.266 . S
H408 C380 0.929 . S
H409 C381 0.931 . S
H410 C383 0.930 . S
H411 C384 0.930 . S
H412 C389 0.929 . S
H413 C390 0.931 . S
H414 C392 0.930 . S
H415 C393 0.930 . S
Tb416 C418 2.809 . S
Tb416 O436 2.484 . S
Tb416 O437 2.440 . S
Tb416 O438 2.658 . S
Tb416 O439 2.409 . S
Tb416 O440 2.378 1_545 S
Tb416 O444 2.325 . S
Tb416 O447 2.341 . S
Tb417 C427 2.809 . S
Tb417 O438 2.325 . S
Tb417 O441 2.341 1_545 S
Tb417 O442 2.484 . S
Tb417 O443 2.440 . S
Tb417 O444 2.658 . S
Tb417 O445 2.409 . S
Tb417 O446 2.378 . S
C418 Tb416 2.809 . S
C418 C419 1.514 1_545 S
C418 O436 1.248 . S
C418 O437 1.266 . S
C419 C418 1.514 1_565 S
C419 C420 1.359 . S
C419 C424 1.348 . S
C420 C419 1.359 . S
C420 C421 1.380 . S
C420 H448 0.929 . S
C421 C420 1.380 . S
C421 C422 1.347 . S
C421 H449 0.931 . S
C422 C421 1.347 . S
C422 C423 1.369 . S
C423 C422 1.369 . S
C423 C424 1.408 . S
C423 H450 0.930 . S
C424 C419 1.348 . S
C424 C423 1.408 . S
C424 H451 0.930 . S
C425 O438 1.281 . S
C425 O439 1.254 . S
C426 O440 1.236 . S
C426 O441 1.266 . S
C427 Tb417 2.809 . S
C427 C428 1.514 . S
C427 O442 1.248 . S
C427 O443 1.266 . S
C428 C427 1.514 . S
C428 C429 1.359 . S
C428 C433 1.348 . S
C429 C428 1.359 . S
C429 C430 1.380 . S
C429 H452 0.929 . S
C430 C429 1.380 . S
C430 C431 1.347 . S
C430 H453 0.931 . S
C431 C430 1.347 . S
C431 C432 1.369 . S
C432 C431 1.369 . S
C432 C433 1.408 . S
C432 H454 0.930 . S
C433 C428 1.348 . S
C433 C432 1.408 . S
C433 H455 0.930 . S
C434 O444 1.281 . S
C434 O445 1.254 . S
C435 O446 1.236 . S
C435 O447 1.266 . S
O436 Tb416 2.484 . S
O436 C418 1.248 . S
O437 Tb416 2.440 . S
O437 C418 1.266 . S
O438 Tb416 2.658 . S
O438 Tb417 2.325 . S
O438 C425 1.281 . S
O439 Tb416 2.409 . S
O439 C425 1.254 . S
O440 Tb416 2.378 1_565 S
O440 C426 1.236 . S
O441 Tb417 2.341 1_565 S
O441 C426 1.266 . S
O442 Tb417 2.484 . S
O442 C427 1.248 . S
O443 Tb417 2.440 . S
O443 C427 1.266 . S
O444 Tb416 2.325 . S
O444 Tb417 2.658 . S
O444 C434 1.281 . S
O445 Tb417 2.409 . S
O445 C434 1.254 . S
O446 Tb417 2.378 . S
O446 C435 1.236 . S
O447 Tb416 2.341 . S
O447 C435 1.266 . S
H448 C420 0.929 . S
H449 C421 0.931 . S
H450 C423 0.930 . S
H451 C424 0.930 . S
H452 C429 0.929 . S
H453 C430 0.931 . S
H454 C432 0.930 . S
H455 C433 0.930 . S
Tb456 C458 2.809 . S
Tb456 O476 2.484 . S
Tb456 O477 2.440 . S
Tb456 O478 2.658 . S
Tb456 O479 2.409 . S
Tb456 O480 2.378 . S
Tb456 O484 2.325 . S
Tb456 O487 2.341 . S
Tb457 C467 2.809 . S
Tb457 O478 2.325 . S
Tb457 O481 2.341 . S
Tb457 O482 2.484 . S
Tb457 O483 2.440 . S
Tb457 O484 2.658 . S
Tb457 O485 2.409 . S
Tb457 O486 2.378 . S
C458 Tb456 2.809 . S
C458 C459 1.514 . S
C458 O476 1.248 . S
C458 O477 1.266 . S
C459 C458 1.514 . S
C459 C460 1.359 . S
C459 C464 1.348 . S
C460 C459 1.359 . S
C460 C461 1.380 . S
C460 H488 0.929 . S
C461 C460 1.380 . S
C461 C462 1.347 . S
C461 H489 0.931 . S
C462 C461 1.347 . S
C462 C463 1.369 . S
C463 C462 1.369 . S
C463 C464 1.408 . S
C463 H490 0.930 . S
C464 C459 1.348 . S
C464 C463 1.408 . S
C464 H491 0.930 . S
C465 O478 1.281 . S
C465 O479 1.254 . S
C466 O480 1.236 . S
C466 O481 1.266 . S
C467 Tb457 2.809 . S
C467 C468 1.514 . S
C467 O482 1.248 . S
C467 O483 1.266 . S
C468 C467 1.514 . S
C468 C469 1.359 . S
C468 C473 1.348 . S
C469 C468 1.359 . S
C469 C470 1.380 . S
C469 H492 0.929 . S
C470 C469 1.380 . S
C470 C471 1.347 . S
C470 H493 0.931 . S
C471 C470 1.347 . S
C471 C472 1.369 . S
C472 C471 1.369 . S
C472 C473 1.408 . S
C472 H494 0.930 . S
C473 C468 1.348 . S
C473 C472 1.408 . S
C473 H495 0.930 . S
C474 O484 1.281 . S
C474 O485 1.254 . S
C475 O486 1.236 . S
C475 O487 1.266 . S
O476 Tb456 2.484 . S
O476 C458 1.248 . S
O477 Tb456 2.440 . S
O477 C458 1.266 . S
O478 Tb456 2.658 . S
O478 Tb457 2.325 . S
O478 C465 1.281 . S
O479 Tb456 2.409 . S
O479 C465 1.254 . S
O480 Tb456 2.378 . S
O480 C466 1.236 . S
O481 Tb457 2.341 . S
O481 C466 1.266 . S
O482 Tb457 2.484 . S
O482 C467 1.248 . S
O483 Tb457 2.440 . S
O483 C467 1.266 . S
O484 Tb456 2.325 . S
O484 Tb457 2.658 . S
O484 C474 1.281 . S
O485 Tb457 2.409 . S
O485 C474 1.254 . S
O486 Tb457 2.378 . S
O486 C475 1.236 . S
O487 Tb456 2.341 . S
O487 C475 1.266 . S
H488 C460 0.929 . S
H489 C461 0.931 . S
H490 C463 0.930 . S
H491 C464 0.930 . S
H492 C469 0.929 . S
H493 C470 0.931 . S
H494 C472 0.930 . S
H495 C473 0.930 . S
Tb496 C498 2.809 . S
Tb496 O516 2.484 . S
Tb496 O517 2.440 . S
Tb496 O518 2.658 . S
Tb496 O519 2.409 1_455 S
Tb496 O520 2.378 . S
Tb496 O524 2.325 . S
Tb496 O527 2.341 . S
Tb497 C507 2.809 . S
Tb497 O518 2.325 1_565 S
Tb497 O521 2.341 1_565 S
Tb497 O522 2.484 . S
Tb497 O523 2.440 . S
Tb497 O524 2.658 1_565 S
Tb497 O525 2.409 1_565 S
Tb497 O526 2.378 1_565 S
C498 Tb496 2.809 . S
C498 C499 1.514 . S
C498 O516 1.248 . S
C498 O517 1.266 . S
C499 C498 1.514 . S
C499 C500 1.359 . S
C499 C504 1.348 1_455 S
C500 C499 1.359 . S
C500 C501 1.380 . S
C500 H528 0.929 . S
C501 C500 1.380 . S
C501 C502 1.347 . S
C501 H529 0.931 . S
C502 C501 1.347 . S
C502 C503 1.369 1_455 S
C503 C502 1.369 1_655 S
C503 C504 1.408 . S
C503 H530 0.930 . S
C504 C499 1.348 1_655 S
C504 C503 1.408 . S
C504 H531 0.930 . S
C505 O518 1.281 1_655 S
C505 O519 1.254 . S
C506 O520 1.236 . S
C506 O521 1.266 . S
C507 Tb497 2.809 . S
C507 C508 1.514 . S
C507 O522 1.248 . S
C507 O523 1.266 . S
C508 C507 1.514 . S
C508 C509 1.359 . S
C508 C513 1.348 . S
C509 C508 1.359 . S
C509 C510 1.380 . S
C509 H532 0.929 . S
C510 C509 1.380 . S
C510 C511 1.347 . S
C510 H533 0.931 . S
C511 C510 1.347 . S
C511 C512 1.369 . S
C512 C511 1.369 . S
C512 C513 1.408 . S
C512 H534 0.930 . S
C513 C508 1.348 . S
C513 C512 1.408 . S
C513 H535 0.930 . S
C514 O524 1.281 . S
C514 O525 1.254 . S
C515 O526 1.236 . S
C515 O527 1.266 . S
O516 Tb496 2.484 . S
O516 C498 1.248 . S
O517 Tb496 2.440 . S
O517 C498 1.266 . S
O518 Tb496 2.658 . S
O518 Tb497 2.325 1_545 S
O518 C505 1.281 1_455 S
O519 Tb496 2.409 1_655 S
O519 C505 1.254 . S
O520 Tb496 2.378 . S
O520 C506 1.236 . S
O521 Tb497 2.341 1_545 S
O521 C506 1.266 . S
O522 Tb497 2.484 . S
O522 C507 1.248 . S
O523 Tb497 2.440 . S
O523 C507 1.266 . S
O524 Tb496 2.325 . S
O524 Tb497 2.658 1_545 S
O524 C514 1.281 . S
O525 Tb497 2.409 1_545 S
O525 C514 1.254 . S
O526 Tb497 2.378 1_545 S
O526 C515 1.236 . S
O527 Tb496 2.341 . S
O527 C515 1.266 . S
H528 C500 0.929 . S
H529 C501 0.931 . S
H530 C503 0.930 . S
H531 C504 0.930 . S
H532 C509 0.929 . S
H533 C510 0.931 . S
H534 C512 0.930 . S
H535 C513 0.930 . S
Tb536 C538 2.809 . S
Tb536 O556 2.484 . S
Tb536 O557 2.440 . S
Tb536 O558 2.658 . S
Tb536 O559 2.409 . S
Tb536 O560 2.378 . S
Tb536 O564 2.325 . S
Tb536 O567 2.341 . S
Tb537 C547 2.809 . S
Tb537 O558 2.325 . S
Tb537 O561 2.341 . S
Tb537 O562 2.484 . S
Tb537 O563 2.440 . S
Tb537 O564 2.658 . S
Tb537 O565 2.409 . S
Tb537 O566 2.378 . S
C538 Tb536 2.809 . S
C538 C539 1.514 . S
C538 O556 1.248 . S
C538 O557 1.266 . S
C539 C538 1.514 . S
C539 C540 1.359 . S
C539 C544 1.348 . S
C540 C539 1.359 . S
C540 C541 1.380 . S
C540 H568 0.929 . S
C541 C540 1.380 . S
C541 C542 1.347 . S
C541 H569 0.931 . S
C542 C541 1.347 . S
C542 C543 1.369 . S
C543 C542 1.369 . S
C543 C544 1.408 . S
C543 H570 0.930 . S
C544 C539 1.348 . S
C544 C543 1.408 . S
C544 H571 0.930 . S
C545 O558 1.281 . S
C545 O559 1.254 . S
C546 O560 1.236 . S
C546 O561 1.266 . S
C547 Tb537 2.809 . S
C547 C548 1.514 . S
C547 O562 1.248 . S
C547 O563 1.266 . S
C548 C547 1.514 . S
C548 C549 1.359 . S
C548 C553 1.348 . S
C549 C548 1.359 . S
C549 C550 1.380 . S
C549 H572 0.929 . S
C550 C549 1.380 . S
C550 C551 1.347 . S
C550 H573 0.931 . S
C551 C550 1.347 . S
C551 C552 1.369 . S
C552 C551 1.369 . S
C552 C553 1.408 . S
C552 H574 0.930 . S
C553 C548 1.348 . S
C553 C552 1.408 . S
C553 H575 0.930 . S
C554 O564 1.281 . S
C554 O565 1.254 . S
C555 O566 1.236 . S
C555 O567 1.266 . S
O556 Tb536 2.484 . S
O556 C538 1.248 . S
O557 Tb536 2.440 . S
O557 C538 1.266 . S
O558 Tb536 2.658 . S
O558 Tb537 2.325 . S
O558 C545 1.281 . S
O559 Tb536 2.409 . S
O559 C545 1.254 . S
O560 Tb536 2.378 . S
O560 C546 1.236 . S
O561 Tb537 2.341 . S
O561 C546 1.266 . S
O562 Tb537 2.484 . S
O562 C547 1.248 . S
O563 Tb537 2.440 . S
O563 C547 1.266 . S
O564 Tb536 2.325 . S
O564 Tb537 2.658 . S
O564 C554 1.281 . S
O565 Tb537 2.409 . S
O565 C554 1.254 . S
O566 Tb537 2.378 . S
O566 C555 1.236 . S
O567 Tb536 2.341 . S
O567 C555 1.266 . S
H568 C540 0.929 . S
H569 C541 0.931 . S
H570 C543 0.930 . S
H571 C544 0.930 . S
H572 C549 0.929 . S
H573 C550 0.931 . S
H574 C552 0.930 . S
H575 C553 0.930 . S
Tb576 C578 2.809 . S
Tb576 O596 2.484 1_545 S
Tb576 O597 2.440 . S
Tb576 O598 2.658 . S
Tb576 O599 2.409 . S
Tb576 O600 2.378 . S
Tb576 O604 2.325 . S
Tb576 O607 2.341 . S
Tb577 C587 2.809 . S
Tb577 O598 2.325 . S
Tb577 O601 2.341 . S
Tb577 O602 2.484 . S
Tb577 O603 2.440 . S
Tb577 O604 2.658 . S
Tb577 O605 2.409 1_545 S
Tb577 O606 2.378 . S
C578 Tb576 2.809 . S
C578 C579 1.514 . S
C578 O596 1.248 1_545 S
C578 O597 1.266 . S
C579 C578 1.514 . S
C579 C580 1.359 1_545 S
C579 C584 1.348 . S
C580 C579 1.359 1_565 S
C580 C581 1.380 . S
C580 H608 0.929 . S
C581 C580 1.380 . S
C581 C582 1.347 . S
C581 H609 0.931 . S
C582 C581 1.347 . S
C582 C583 1.369 1_565 S
C583 C582 1.369 1_545 S
C583 C584 1.408 . S
C583 H610 0.930 . S
C584 C579 1.348 . S
C584 C583 1.408 . S
C584 H611 0.930 . S
C585 O598 1.281 . S
C585 O599 1.254 . S
C586 O600 1.236 . S
C586 O601 1.266 . S
C587 Tb577 2.809 . S
C587 C588 1.514 . S
C587 O602 1.248 . S
C587 O603 1.266 . S
C588 C587 1.514 . S
C588 C589 1.359 . S
C588 C593 1.348 . S
C589 C588 1.359 . S
C589 C590 1.380 . S
C589 H612 0.929 . S
C590 C589 1.380 . S
C590 C591 1.347 . S
C590 H613 0.931 . S
C591 C590 1.347 . S
C591 C592 1.369 . S
C592 C591 1.369 . S
C592 C593 1.408 . S
C592 H614 0.930 . S
C593 C588 1.348 . S
C593 C592 1.408 . S
C593 H615 0.930 . S
C594 O604 1.281 1_565 S
C594 O605 1.254 . S
C595 O606 1.236 . S
C595 O607 1.266 . S
O596 Tb576 2.484 1_565 S
O596 C578 1.248 1_565 S
O597 Tb576 2.440 . S
O597 C578 1.266 . S
O598 Tb576 2.658 . S
O598 Tb577 2.325 . S
O598 C585 1.281 . S
O599 Tb576 2.409 . S
O599 C585 1.254 . S
O600 Tb576 2.378 . S
O600 C586 1.236 . S
O601 Tb577 2.341 . S
O601 C586 1.266 . S
O602 Tb577 2.484 . S
O602 C587 1.248 . S
O603 Tb577 2.440 . S
O603 C587 1.266 . S
O604 Tb576 2.325 . S
O604 Tb577 2.658 . S
O604 C594 1.281 1_545 S
O605 Tb577 2.409 1_565 S
O605 C594 1.254 . S
O606 Tb577 2.378 . S
O606 C595 1.236 . S
O607 Tb576 2.341 . S
O607 C595 1.266 . S
H608 C580 0.929 . S
H609 C581 0.931 . S
H610 C583 0.930 . S
H611 C584 0.930 . S
H612 C589 0.929 . S
H613 C590 0.931 . S
H614 C592 0.930 . S
H615 C593 0.930 . S
Tb616 C618 2.809 . S
Tb616 O636 2.484 . S
Tb616 O637 2.440 . S
Tb616 O638 2.658 . S
Tb616 O639 2.409 . S
Tb616 O640 2.378 . S
Tb616 O644 2.325 . S
Tb616 O647 2.341 . S
Tb617 C627 2.809 . S
Tb617 O638 2.325 . S
Tb617 O641 2.341 . S
Tb617 O642 2.484 . S
Tb617 O643 2.440 . S
Tb617 O644 2.658 . S
Tb617 O645 2.409 . S
Tb617 O646 2.378 . S
C618 Tb616 2.809 . S
C618 C619 1.514 . S
C618 O636 1.248 . S
C618 O637 1.266 . S
C619 C618 1.514 . S
C619 C620 1.359 . S
C619 C624 1.348 . S
C620 C619 1.359 . S
C620 C621 1.380 . S
C620 H648 0.929 . S
C621 C620 1.380 . S
C621 C622 1.347 . S
C621 H649 0.931 . S
C622 C621 1.347 . S
C622 C623 1.369 . S
C623 C622 1.369 . S
C623 C624 1.408 . S
C623 H650 0.930 . S
C624 C619 1.348 . S
C624 C623 1.408 . S
C624 H651 0.930 . S
C625 O638 1.281 . S
C625 O639 1.254 . S
C626 O640 1.236 . S
C626 O641 1.266 . S
C627 Tb617 2.809 . S
C627 C628 1.514 . S
C627 O642 1.248 . S
C627 O643 1.266 . S
C628 C627 1.514 . S
C628 C629 1.359 . S
C628 C633 1.348 . S
C629 C628 1.359 . S
C629 C630 1.380 . S
C629 H652 0.929 . S
C630 C629 1.380 . S
C630 C631 1.347 . S
C630 H653 0.931 . S
C631 C630 1.347 . S
C631 C632 1.369 . S
C632 C631 1.369 . S
C632 C633 1.408 . S
C632 H654 0.930 . S
C633 C628 1.348 . S
C633 C632 1.408 . S
C633 H655 0.930 . S
C634 O644 1.281 . S
C634 O645 1.254 . S
C635 O646 1.236 . S
C635 O647 1.266 . S
O636 Tb616 2.484 . S
O636 C618 1.248 . S
O637 Tb616 2.440 . S
O637 C618 1.266 . S
O638 Tb616 2.658 . S
O638 Tb617 2.325 . S
O638 C625 1.281 . S
O639 Tb616 2.409 . S
O639 C625 1.254 . S
O640 Tb616 2.378 . S
O640 C626 1.236 . S
O641 Tb617 2.341 . S
O641 C626 1.266 . S
O642 Tb617 2.484 . S
O642 C627 1.248 . S
O643 Tb617 2.440 . S
O643 C627 1.266 . S
O644 Tb616 2.325 . S
O644 Tb617 2.658 . S
O644 C634 1.281 . S
O645 Tb617 2.409 . S
O645 C634 1.254 . S
O646 Tb617 2.378 . S
O646 C635 1.236 . S
O647 Tb616 2.341 . S
O647 C635 1.266 . S
H648 C620 0.929 . S
H649 C621 0.931 . S
H650 C623 0.930 . S
H651 C624 0.930 . S
H652 C629 0.929 . S
H653 C630 0.931 . S
H654 C632 0.930 . S
H655 C633 0.930 . S
Tb656 C658 2.809 . S
Tb656 O676 2.484 . S
Tb656 O677 2.440 . S
Tb656 O678 2.658 . S
Tb656 O679 2.409 . S
Tb656 O680 2.378 . S
Tb656 O684 2.325 . S
Tb656 O687 2.341 . S
Tb657 C667 2.809 . S
Tb657 O678 2.325 . S
Tb657 O681 2.341 . S
Tb657 O682 2.484 . S
Tb657 O683 2.440 . S
Tb657 O684 2.658 . S
Tb657 O685 2.409 . S
Tb657 O686 2.378 . S
C658 Tb656 2.809 . S
C658 C659 1.514 . S
C658 O676 1.248 . S
C658 O677 1.266 . S
C659 C658 1.514 . S
C659 C660 1.359 . S
C659 C664 1.348 . S
C660 C659 1.359 . S
C660 C661 1.380 1_554 S
C660 H688 0.929 . S
C661 C660 1.380 1_556 S
C661 C662 1.347 . S
C661 H689 0.931 . S
C662 C661 1.347 . S
C662 C663 1.369 1_556 S
C663 C662 1.369 1_554 S
C663 C664 1.408 . S
C663 H690 0.930 . S
C664 C659 1.348 . S
C664 C663 1.408 . S
C664 H691 0.930 . S
C665 O678 1.281 . S
C665 O679 1.254 . S
C666 O680 1.236 . S
C666 O681 1.266 . S
C667 Tb657 2.809 . S
C667 C668 1.514 . S
C667 O682 1.248 . S
C667 O683 1.266 . S
C668 C667 1.514 . S
C668 C669 1.359 . S
C668 C673 1.348 . S
C669 C668 1.359 . S
C669 C670 1.380 . S
C669 H692 0.929 . S
C670 C669 1.380 . S
C670 C671 1.347 . S
C670 H693 0.931 . S
C671 C670 1.347 . S
C671 C672 1.369 . S
C672 C671 1.369 . S
C672 C673 1.408 . S
C672 H694 0.930 . S
C673 C668 1.348 . S
C673 C672 1.408 . S
C673 H695 0.930 . S
C674 O684 1.281 . S
C674 O685 1.254 . S
C675 O686 1.236 . S
C675 O687 1.266 . S
O676 Tb656 2.484 . S
O676 C658 1.248 . S
O677 Tb656 2.440 . S
O677 C658 1.266 . S
O678 Tb656 2.658 . S
O678 Tb657 2.325 . S
O678 C665 1.281 . S
O679 Tb656 2.409 . S
O679 C665 1.254 . S
O680 Tb656 2.378 . S
O680 C666 1.236 . S
O681 Tb657 2.341 . S
O681 C666 1.266 . S
O682 Tb657 2.484 . S
O682 C667 1.248 . S
O683 Tb657 2.440 . S
O683 C667 1.266 . S
O684 Tb656 2.325 . S
O684 Tb657 2.658 . S
O684 C674 1.281 . S
O685 Tb657 2.409 . S
O685 C674 1.254 . S
O686 Tb657 2.378 . S
O686 C675 1.236 . S
O687 Tb656 2.341 . S
O687 C675 1.266 . S
H688 C660 0.929 . S
H689 C661 0.931 . S
H690 C663 0.930 . S
H691 C664 0.930 . S
H692 C669 0.929 . S
H693 C670 0.931 . S
H694 C672 0.930 . S
H695 C673 0.930 . S
Tb696 C698 2.809 . S
Tb696 O716 2.484 . S
Tb696 O717 2.440 . S
Tb696 O718 2.658 . S
Tb696 O719 2.409 . S
Tb696 O720 2.378 . S
Tb696 O724 2.325 . S
Tb696 O727 2.341 . S
Tb697 C707 2.809 . S
Tb697 O718 2.325 . S
Tb697 O721 2.341 . S
Tb697 O722 2.484 . S
Tb697 O723 2.440 . S
Tb697 O724 2.658 . S
Tb697 O725 2.409 . S
Tb697 O726 2.378 . S
C698 Tb696 2.809 . S
C698 C699 1.514 . S
C698 O716 1.248 . S
C698 O717 1.266 . S
C699 C698 1.514 . S
C699 C700 1.359 . S
C699 C704 1.348 . S
C700 C699 1.359 . S
C700 C701 1.380 . S
C700 H728 0.929 . S
C701 C700 1.380 . S
C701 C702 1.347 . S
C701 H729 0.931 . S
C702 C701 1.347 . S
C702 C703 1.369 . S
C703 C702 1.369 . S
C703 C704 1.408 . S
C703 H730 0.930 . S
C704 C699 1.348 . S
C704 C703 1.408 . S
C704 H731 0.930 . S
C705 O718 1.281 . S
C705 O719 1.254 . S
C706 O720 1.236 . S
C706 O721 1.266 . S
C707 Tb697 2.809 . S
C707 C708 1.514 . S
C707 O722 1.248 . S
C707 O723 1.266 . S
C708 C707 1.514 . S
C708 C709 1.359 . S
C708 C713 1.348 . S
C709 C708 1.359 . S
C709 C710 1.380 . S
C709 H732 0.929 . S
C710 C709 1.380 . S
C710 C711 1.347 . S
C710 H733 0.931 . S
C711 C710 1.347 . S
C711 C712 1.369 . S
C712 C711 1.369 . S
C712 C713 1.408 . S
C712 H734 0.930 . S
C713 C708 1.348 . S
C713 C712 1.408 . S
C713 H735 0.930 . S
C714 O724 1.281 . S
C714 O725 1.254 . S
C715 O726 1.236 . S
C715 O727 1.266 . S
O716 Tb696 2.484 . S
O716 C698 1.248 . S
O717 Tb696 2.440 . S
O717 C698 1.266 . S
O718 Tb696 2.658 . S
O718 Tb697 2.325 . S
O718 C705 1.281 . S
O719 Tb696 2.409 . S
O719 C705 1.254 . S
O720 Tb696 2.378 . S
O720 C706 1.236 . S
O721 Tb697 2.341 . S
O721 C706 1.266 . S
O722 Tb697 2.484 . S
O722 C707 1.248 . S
O723 Tb697 2.440 . S
O723 C707 1.266 . S
O724 Tb696 2.325 . S
O724 Tb697 2.658 . S
O724 C714 1.281 . S
O725 Tb697 2.409 . S
O725 C714 1.254 . S
O726 Tb697 2.378 . S
O726 C715 1.236 . S
O727 Tb696 2.341 . S
O727 C715 1.266 . S
H728 C700 0.929 . S
H729 C701 0.931 . S
H730 C703 0.930 . S
H731 C704 0.930 . S
H732 C709 0.929 . S
H733 C710 0.931 . S
H734 C712 0.930 . S
H735 C713 0.930 . S
Tb736 C738 2.809 1_455 S
Tb736 O756 2.484 1_455 S
Tb736 O757 2.440 1_455 S
Tb736 O758 2.658 . S
Tb736 O759 2.409 . S
Tb736 O760 2.378 . S
Tb736 O764 2.325 . S
Tb736 O767 2.341 . S
Tb737 C747 2.809 . S
Tb737 O758 2.325 . S
Tb737 O761 2.341 . S
Tb737 O762 2.484 . S
Tb737 O763 2.440 . S
Tb737 O764 2.658 . S
Tb737 O765 2.409 . S
Tb737 O766 2.378 . S
C738 Tb736 2.809 1_655 S
C738 C739 1.514 . S
C738 O756 1.248 . S
C738 O757 1.266 . S
C739 C738 1.514 . S
C739 C740 1.359 . S
C739 C744 1.348 . S
C740 C739 1.359 . S
C740 C741 1.380 . S
C740 H768 0.929 . S
C741 C740 1.380 . S
C741 C742 1.347 . S
C741 H769 0.931 . S
C742 C741 1.347 . S
C742 C743 1.369 . S
C743 C742 1.369 . S
C743 C744 1.408 . S
C743 H770 0.930 . S
C744 C739 1.348 . S
C744 C743 1.408 . S
C744 H771 0.930 . S
C745 O758 1.281 . S
C745 O759 1.254 . S
C746 O760 1.236 . S
C746 O761 1.266 . S
C747 Tb737 2.809 . S
C747 C748 1.514 . S
C747 O762 1.248 . S
C747 O763 1.266 . S
C748 C747 1.514 . S
C748 C749 1.359 . S
C748 C753 1.348 . S
C749 C748 1.359 . S
C749 C750 1.380 . S
C749 H772 0.929 . S
C750 C749 1.380 . S
C750 C751 1.347 . S
C750 H773 0.931 . S
C751 C750 1.347 . S
C751 C752 1.369 . S
C752 C751 1.369 . S
C752 C753 1.408 . S
C752 H774 0.930 . S
C753 C748 1.348 . S
C753 C752 1.408 . S
C753 H775 0.930 . S
C754 O764 1.281 . S
C754 O765 1.254 . S
C755 O766 1.236 . S
C755 O767 1.266 . S
O756 Tb736 2.484 1_655 S
O756 C738 1.248 . S
O757 Tb736 2.440 1_655 S
O757 C738 1.266 . S
O758 Tb736 2.658 . S
O758 Tb737 2.325 . S
O758 C745 1.281 . S
O759 Tb736 2.409 . S
O759 C745 1.254 . S
O760 Tb736 2.378 . S
O760 C746 1.236 . S
O761 Tb737 2.341 . S
O761 C746 1.266 . S
O762 Tb737 2.484 . S
O762 C747 1.248 . S
O763 Tb737 2.440 . S
O763 C747 1.266 . S
O764 Tb736 2.325 . S
O764 Tb737 2.658 . S
O764 C754 1.281 . S
O765 Tb737 2.409 . S
O765 C754 1.254 . S
O766 Tb737 2.378 . S
O766 C755 1.236 . S
O767 Tb736 2.341 . S
O767 C755 1.266 . S
H768 C740 0.929 . S
H769 C741 0.931 . S
H770 C743 0.930 . S
H771 C744 0.930 . S
H772 C749 0.929 . S
H773 C750 0.931 . S
H774 C752 0.930 . S
H775 C753 0.930 . S
Tb776 C778 2.809 . S
Tb776 O796 2.484 . S
Tb776 O797 2.440 . S
Tb776 O798 2.658 . S
Tb776 O799 2.409 . S
Tb776 O800 2.378 . S
Tb776 O804 2.325 . S
Tb776 O807 2.341 . S
Tb777 C787 2.809 . S
Tb777 O798 2.325 . S
Tb777 O801 2.341 . S
Tb777 O802 2.484 . S
Tb777 O803 2.440 . S
Tb777 O804 2.658 . S
Tb777 O805 2.409 . S
Tb777 O806 2.378 . S
C778 Tb776 2.809 . S
C778 C779 1.514 . S
C778 O796 1.248 . S
C778 O797 1.266 . S
C779 C778 1.514 . S
C779 C780 1.359 . S
C779 C784 1.348 . S
C780 C779 1.359 . S
C780 C781 1.380 . S
C780 H808 0.929 . S
C781 C780 1.380 . S
C781 C782 1.347 . S
C781 H809 0.931 . S
C782 C781 1.347 . S
C782 C783 1.369 . S
C783 C782 1.369 . S
C783 C784 1.408 . S
C783 H810 0.930 . S
C784 C779 1.348 . S
C784 C783 1.408 . S
C784 H811 0.930 . S
C785 O798 1.281 . S
C785 O799 1.254 . S
C786 O800 1.236 . S
C786 O801 1.266 . S
C787 Tb777 2.809 . S
C787 C788 1.514 . S
C787 O802 1.248 . S
C787 O803 1.266 . S
C788 C787 1.514 . S
C788 C789 1.359 . S
C788 C793 1.348 . S
C789 C788 1.359 . S
C789 C790 1.380 . S
C789 H812 0.929 . S
C790 C789 1.380 . S
C790 C791 1.347 . S
C790 H813 0.931 . S
C791 C790 1.347 . S
C791 C792 1.369 . S
C792 C791 1.369 . S
C792 C793 1.408 . S
C792 H814 0.930 . S
C793 C788 1.348 . S
C793 C792 1.408 . S
C793 H815 0.930 . S
C794 O804 1.281 . S
C794 O805 1.254 . S
C795 O806 1.236 . S
C795 O807 1.266 . S
O796 Tb776 2.484 . S
O796 C778 1.248 . S
O797 Tb776 2.440 . S
O797 C778 1.266 . S
O798 Tb776 2.658 . S
O798 Tb777 2.325 . S
O798 C785 1.281 . S
O799 Tb776 2.409 . S
O799 C785 1.254 . S
O800 Tb776 2.378 . S
O800 C786 1.236 . S
O801 Tb777 2.341 . S
O801 C786 1.266 . S
O802 Tb777 2.484 . S
O802 C787 1.248 . S
O803 Tb777 2.440 . S
O803 C787 1.266 . S
O804 Tb776 2.325 . S
O804 Tb777 2.658 . S
O804 C794 1.281 . S
O805 Tb777 2.409 . S
O805 C794 1.254 . S
O806 Tb777 2.378 . S
O806 C795 1.236 . S
O807 Tb776 2.341 . S
O807 C795 1.266 . S
H808 C780 0.929 . S
H809 C781 0.931 . S
H810 C783 0.930 . S
H811 C784 0.930 . S
H812 C789 0.929 . S
H813 C790 0.931 . S
H814 C792 0.930 . S
H815 C793 0.930 . S
Tb816 C818 2.809 . S
Tb816 O836 2.484 . S
Tb816 O837 2.440 . S
Tb816 O838 2.658 . S
Tb816 O839 2.409 . S
Tb816 O840 2.378 . S
Tb816 O844 2.325 . S
Tb816 O847 2.341 . S
Tb817 C827 2.809 . S
Tb817 O838 2.325 . S
Tb817 O841 2.341 . S
Tb817 O842 2.484 . S
Tb817 O843 2.440 . S
Tb817 O844 2.658 . S
Tb817 O845 2.409 . S
Tb817 O846 2.378 . S
C818 Tb816 2.809 . S
C818 C819 1.514 . S
C818 O836 1.248 . S
C818 O837 1.266 . S
C819 C818 1.514 . S
C819 C820 1.359 . S
C819 C824 1.348 . S
C820 C819 1.359 . S
C820 C821 1.380 . S
C820 H848 0.929 . S
C821 C820 1.380 . S
C821 C822 1.347 . S
C821 H849 0.931 . S
C822 C821 1.347 . S
C822 C823 1.369 . S
C823 C822 1.369 . S
C823 C824 1.408 . S
C823 H850 0.930 . S
C824 C819 1.348 . S
C824 C823 1.408 . S
C824 H851 0.930 . S
C825 O838 1.281 . S
C825 O839 1.254 . S
C826 O840 1.236 . S
C826 O841 1.266 . S
C827 Tb817 2.809 . S
C827 C828 1.514 . S
C827 O842 1.248 . S
C827 O843 1.266 . S
C828 C827 1.514 . S
C828 C829 1.359 . S
C828 C833 1.348 . S
C829 C828 1.359 . S
C829 C830 1.380 1_556 S
C829 H852 0.929 . S
C830 C829 1.380 1_554 S
C830 C831 1.347 . S
C830 H853 0.931 . S
C831 C830 1.347 . S
C831 C832 1.369 . S
C832 C831 1.369 . S
C832 C833 1.408 1_554 S
C832 H854 0.930 . S
C833 C828 1.348 . S
C833 C832 1.408 1_556 S
C833 H855 0.930 . S
C834 O844 1.281 . S
C834 O845 1.254 . S
C835 O846 1.236 . S
C835 O847 1.266 . S
O836 Tb816 2.484 . S
O836 C818 1.248 . S
O837 Tb816 2.440 . S
O837 C818 1.266 . S
O838 Tb816 2.658 . S
O838 Tb817 2.325 . S
O838 C825 1.281 . S
O839 Tb816 2.409 . S
O839 C825 1.254 . S
O840 Tb816 2.378 . S
O840 C826 1.236 . S
O841 Tb817 2.341 . S
O841 C826 1.266 . S
O842 Tb817 2.484 . S
O842 C827 1.248 . S
O843 Tb817 2.440 . S
O843 C827 1.266 . S
O844 Tb816 2.325 . S
O844 Tb817 2.658 . S
O844 C834 1.281 . S
O845 Tb817 2.409 . S
O845 C834 1.254 . S
O846 Tb817 2.378 . S
O846 C835 1.236 . S
O847 Tb816 2.341 . S
O847 C835 1.266 . S
H848 C820 0.929 . S
H849 C821 0.931 . S
H850 C823 0.930 . S
H851 C824 0.930 . S
H852 C829 0.929 . S
H853 C830 0.931 . S
H854 C832 0.930 . S
H855 C833 0.930 . S
Tb856 C858 2.809 . S
Tb856 O876 2.484 . S
Tb856 O877 2.440 . S
Tb856 O878 2.658 . S
Tb856 O879 2.409 . S
Tb856 O880 2.378 . S
Tb856 O884 2.325 . S
Tb856 O887 2.341 . S
Tb857 C867 2.809 . S
Tb857 O878 2.325 . S
Tb857 O881 2.341 . S
Tb857 O882 2.484 . S
Tb857 O883 2.440 . S
Tb857 O884 2.658 . S
Tb857 O885 2.409 . S
Tb857 O886 2.378 . S
C858 Tb856 2.809 . S
C858 C859 1.514 . S
C858 O876 1.248 . S
C858 O877 1.266 . S
C859 C858 1.514 . S
C859 C860 1.359 . S
C859 C864 1.348 . S
C860 C859 1.359 . S
C860 C861 1.380 . S
C860 H888 0.929 . S
C861 C860 1.380 . S
C861 C862 1.347 . S
C861 H889 0.931 . S
C862 C861 1.347 . S
C862 C863 1.369 . S
C863 C862 1.369 . S
C863 C864 1.408 . S
C863 H890 0.930 . S
C864 C859 1.348 . S
C864 C863 1.408 . S
C864 H891 0.930 . S
C865 O878 1.281 . S
C865 O879 1.254 . S
C866 O880 1.236 . S
C866 O881 1.266 . S
C867 Tb857 2.809 . S
C867 C868 1.514 . S
C867 O882 1.248 . S
C867 O883 1.266 . S
C868 C867 1.514 . S
C868 C869 1.359 . S
C868 C873 1.348 . S
C869 C868 1.359 . S
C869 C870 1.380 . S
C869 H892 0.929 . S
C870 C869 1.380 . S
C870 C871 1.347 . S
C870 H893 0.931 . S
C871 C870 1.347 . S
C871 C872 1.369 . S
C872 C871 1.369 . S
C872 C873 1.408 . S
C872 H894 0.930 . S
C873 C868 1.348 . S
C873 C872 1.408 . S
C873 H895 0.930 . S
C874 O884 1.281 . S
C874 O885 1.254 . S
C875 O886 1.236 . S
C875 O887 1.266 . S
O876 Tb856 2.484 . S
O876 C858 1.248 . S
O877 Tb856 2.440 . S
O877 C858 1.266 . S
O878 Tb856 2.658 . S
O878 Tb857 2.325 . S
O878 C865 1.281 . S
O879 Tb856 2.409 . S
O879 C865 1.254 . S
O880 Tb856 2.378 . S
O880 C866 1.236 . S
O881 Tb857 2.341 . S
O881 C866 1.266 . S
O882 Tb857 2.484 . S
O882 C867 1.248 . S
O883 Tb857 2.440 . S
O883 C867 1.266 . S
O884 Tb856 2.325 . S
O884 Tb857 2.658 . S
O884 C874 1.281 . S
O885 Tb857 2.409 . S
O885 C874 1.254 . S
O886 Tb857 2.378 . S
O886 C875 1.236 . S
O887 Tb856 2.341 . S
O887 C875 1.266 . S
H888 C860 0.929 . S
H889 C861 0.931 . S
H890 C863 0.930 . S
H891 C864 0.930 . S
H892 C869 0.929 . S
H893 C870 0.931 . S
H894 C872 0.930 . S
H895 C873 0.930 . S
Tb896 C898 2.809 . S
Tb896 O916 2.484 . S
Tb896 O917 2.440 . S
Tb896 O918 2.658 . S
Tb896 O919 2.409 . S
Tb896 O920 2.378 . S
Tb896 O924 2.325 . S
Tb896 O927 2.341 . S
Tb897 C907 2.809 . S
Tb897 O918 2.325 . S
Tb897 O921 2.341 . S
Tb897 O922 2.484 . S
Tb897 O923 2.440 . S
Tb897 O924 2.658 . S
Tb897 O925 2.409 . S
Tb897 O926 2.378 . S
C898 Tb896 2.809 . S
C898 C899 1.514 . S
C898 O916 1.248 . S
C898 O917 1.266 . S
C899 C898 1.514 . S
C899 C900 1.359 . S
C899 C904 1.348 . S
C900 C899 1.359 . S
C900 C901 1.380 . S
C900 H928 0.929 . S
C901 C900 1.380 . S
C901 C902 1.347 . S
C901 H929 0.931 . S
C902 C901 1.347 . S
C902 C903 1.369 . S
C903 C902 1.369 . S
C903 C904 1.408 . S
C903 H930 0.930 . S
C904 C899 1.348 . S
C904 C903 1.408 . S
C904 H931 0.930 . S
C905 O918 1.281 . S
C905 O919 1.254 . S
C906 O920 1.236 . S
C906 O921 1.266 . S
C907 Tb897 2.809 . S
C907 C908 1.514 . S
C907 O922 1.248 . S
C907 O923 1.266 . S
C908 C907 1.514 . S
C908 C909 1.359 . S
C908 C913 1.348 . S
C909 C908 1.359 . S
C909 C910 1.380 . S
C909 H932 0.929 . S
C910 C909 1.380 . S
C910 C911 1.347 . S
C910 H933 0.931 . S
C911 C910 1.347 . S
C911 C912 1.369 . S
C912 C911 1.369 . S
C912 C913 1.408 . S
C912 H934 0.930 . S
C913 C908 1.348 . S
C913 C912 1.408 . S
C913 H935 0.930 . S
C914 O924 1.281 . S
C914 O925 1.254 . S
C915 O926 1.236 . S
C915 O927 1.266 . S
O916 Tb896 2.484 . S
O916 C898 1.248 . S
O917 Tb896 2.440 . S
O917 C898 1.266 . S
O918 Tb896 2.658 . S
O918 Tb897 2.325 . S
O918 C905 1.281 . S
O919 Tb896 2.409 . S
O919 C905 1.254 . S
O920 Tb896 2.378 . S
O920 C906 1.236 . S
O921 Tb897 2.341 . S
O921 C906 1.266 . S
O922 Tb897 2.484 . S
O922 C907 1.248 . S
O923 Tb897 2.440 . S
O923 C907 1.266 . S
O924 Tb896 2.325 . S
O924 Tb897 2.658 . S
O924 C914 1.281 . S
O925 Tb897 2.409 . S
O925 C914 1.254 . S
O926 Tb897 2.378 . S
O926 C915 1.236 . S
O927 Tb896 2.341 . S
O927 C915 1.266 . S
H928 C900 0.929 . S
H929 C901 0.931 . S
H930 C903 0.930 . S
H931 C904 0.930 . S
H932 C909 0.929 . S
H933 C910 0.931 . S
H934 C912 0.930 . S
H935 C913 0.930 . S
Tb936 C938 2.809 . S
Tb936 O956 2.484 . S
Tb936 O957 2.440 . S
Tb936 O958 2.658 . S
Tb936 O959 2.409 . S
Tb936 O960 2.378 . S
Tb936 O964 2.325 . S
Tb936 O967 2.341 . S
Tb937 C947 2.809 1_455 S
Tb937 O958 2.325 . S
Tb937 O961 2.341 . S
Tb937 O962 2.484 1_455 S
Tb937 O963 2.440 1_455 S
Tb937 O964 2.658 . S
Tb937 O965 2.409 . S
Tb937 O966 2.378 . S
C938 Tb936 2.809 . S
C938 C939 1.514 . S
C938 O956 1.248 . S
C938 O957 1.266 . S
C939 C938 1.514 . S
C939 C940 1.359 . S
C939 C944 1.348 . S
C940 C939 1.359 . S
C940 C941 1.380 . S
C940 H968 0.929 . S
C941 C940 1.380 . S
C941 C942 1.347 . S
C941 H969 0.931 . S
C942 C941 1.347 . S
C942 C943 1.369 . S
C943 C942 1.369 . S
C943 C944 1.408 . S
C943 H970 0.930 . S
C944 C939 1.348 . S
C944 C943 1.408 . S
C944 H971 0.930 . S
C945 O958 1.281 . S
C945 O959 1.254 . S
C946 O960 1.236 . S
C946 O961 1.266 . S
C947 Tb937 2.809 1_655 S
C947 C948 1.514 . S
C947 O962 1.248 . S
C947 O963 1.266 . S
C948 C947 1.514 . S
C948 C949 1.359 . S
C948 C953 1.348 . S
C949 C948 1.359 . S
C949 C950 1.380 . S
C949 H972 0.929 . S
C950 C949 1.380 . S
C950 C951 1.347 . S
C950 H973 0.931 . S
C951 C950 1.347 . S
C951 C952 1.369 . S
C952 C951 1.369 . S
C952 C953 1.408 . S
C952 H974 0.930 . S
C953 C948 1.348 . S
C953 C952 1.408 . S
C953 H975 0.930 . S
C954 O964 1.281 . S
C954 O965 1.254 . S
C955 O966 1.236 . S
C955 O967 1.266 . S
O956 Tb936 2.484 . S
O956 C938 1.248 . S
O957 Tb936 2.440 . S
O957 C938 1.266 . S
O958 Tb936 2.658 . S
O958 Tb937 2.325 . S
O958 C945 1.281 . S
O959 Tb936 2.409 . S
O959 C945 1.254 . S
O960 Tb936 2.378 . S
O960 C946 1.236 . S
O961 Tb937 2.341 . S
O961 C946 1.266 . S
O962 Tb937 2.484 1_655 S
O962 C947 1.248 . S
O963 Tb937 2.440 1_655 S
O963 C947 1.266 . S
O964 Tb936 2.325 . S
O964 Tb937 2.658 . S
O964 C954 1.281 . S
O965 Tb937 2.409 . S
O965 C954 1.254 . S
O966 Tb937 2.378 . S
O966 C955 1.236 . S
O967 Tb936 2.341 . S
O967 C955 1.266 . S
H968 C940 0.929 . S
H969 C941 0.931 . S
H970 C943 0.930 . S
H971 C944 0.930 . S
H972 C949 0.929 . S
H973 C950 0.931 . S
H974 C952 0.930 . S
H975 C953 0.930 . S
C976 C977 1.363 . S
C976 C982 1.379 . S
C976 N984 1.356 1_454 S
C977 C976 1.363 . S
C977 C983 1.363 . S
C978 C979 1.363 . S
C978 C983 1.379 . S
C978 N985 1.356 . S
C979 C978 1.363 . S
C979 C982 1.363 . S
N980 C982 1.356 . S
N980 H992 0.984 1_455 S
N980 H993 0.985 . S
N981 C983 1.356 . S
N981 H986 0.984 . S
N981 H987 0.985 . S
C982 C976 1.379 . S
C982 C979 1.363 . S
C982 N980 1.356 . S
C983 C977 1.363 . S
C983 C978 1.379 . S
C983 N981 1.356 . S
N984 C976 1.356 1_656 S
N984 H990 0.984 . S
N984 H991 0.984 . S
N985 C978 1.356 . S
N985 H988 0.984 . S
N985 H989 0.985 . S
H986 N981 0.984 . S
H987 N981 0.985 . S
H988 N985 0.984 . S
H989 N985 0.985 . S
H990 N984 0.984 . S
H991 N984 0.984 . S
H992 N980 0.984 1_655 S
H993 N980 0.985 . S
C994 C995 1.363 . S
C994 C1000 1.379 . S
C994 N1002 1.356 . S
C995 C994 1.363 . S
C995 C1001 1.363 . S
C996 C997 1.363 . S
C996 C1001 1.379 . S
C996 N1003 1.356 . S
C997 C996 1.363 . S
C997 C1000 1.363 . S
N998 C1000 1.356 . S
N998 H1010 0.984 . S
N998 H1011 0.985 . S
N999 C1001 1.356 . S
N999 H1004 0.984 . S
N999 H1005 0.985 . S
C1000 C994 1.379 . S
C1000 C997 1.363 . S
C1000 N998 1.356 . S
C1001 C995 1.363 . S
C1001 C996 1.379 . S
C1001 N999 1.356 . S
N1002 C994 1.356 . S
N1002 H1008 0.984 . S
N1002 H1009 0.984 . S
N1003 C996 1.356 . S
N1003 H1006 0.984 . S
N1003 H1007 0.985 . S
H1004 N999 0.984 . S
H1005 N999 0.985 . S
H1006 N1003 0.984 . S
H1007 N1003 0.985 . S
H1008 N1002 0.984 . S
H1009 N1002 0.984 . S
H1010 N998 0.984 . S
H1011 N998 0.985 . S
C1012 C1013 1.363 . S
C1012 C1018 1.379 . S
C1012 N1020 1.356 . S
C1013 C1012 1.363 . S
C1013 C1019 1.363 . S
C1014 C1015 1.363 . S
C1014 C1019 1.379 . S
C1014 N1021 1.356 . S
C1015 C1014 1.363 . S
C1015 C1018 1.363 . S
N1016 C1018 1.356 . S
N1016 H1028 0.984 . S
N1016 H1029 0.985 . S
N1017 C1019 1.356 . S
N1017 H1022 0.984 . S
N1017 H1023 0.985 . S
C1018 C1012 1.379 . S
C1018 C1015 1.363 . S
C1018 N1016 1.356 . S
C1019 C1013 1.363 . S
C1019 C1014 1.379 . S
C1019 N1017 1.356 . S
N1020 C1012 1.356 . S
N1020 H1026 0.984 . S
N1020 H1027 0.984 . S
N1021 C1014 1.356 . S
N1021 H1024 0.984 . S
N1021 H1025 0.985 . S
H1022 N1017 0.984 . S
H1023 N1017 0.985 . S
H1024 N1021 0.984 . S
H1025 N1021 0.985 . S
H1026 N1020 0.984 . S
H1027 N1020 0.984 . S
H1028 N1016 0.984 . S
H1029 N1016 0.985 . S
C1030 C1031 1.363 . S
C1030 C1036 1.379 . S
C1030 N1038 1.356 . S
C1031 C1030 1.363 . S
C1031 C1037 1.363 . S
C1032 C1033 1.363 . S
C1032 C1037 1.379 . S
C1032 N1039 1.356 . S
C1033 C1032 1.363 . S
C1033 C1036 1.363 . S
N1034 C1036 1.356 . S
N1034 H1046 0.984 . S
N1034 H1047 0.985 . S
N1035 C1037 1.356 . S
N1035 H1040 0.984 . S
N1035 H1041 0.985 . S
C1036 C1030 1.379 . S
C1036 C1033 1.363 . S
C1036 N1034 1.356 . S
C1037 C1031 1.363 . S
C1037 C1032 1.379 . S
C1037 N1035 1.356 . S
N1038 C1030 1.356 . S
N1038 H1044 0.984 . S
N1038 H1045 0.984 . S
N1039 C1032 1.356 . S
N1039 H1042 0.984 . S
N1039 H1043 0.985 . S
H1040 N1035 0.984 . S
H1041 N1035 0.985 . S
H1042 N1039 0.984 . S
H1043 N1039 0.985 . S
H1044 N1038 0.984 . S
H1045 N1038 0.984 . S
H1046 N1034 0.984 . S
H1047 N1034 0.985 . S
C1048 C1049 1.363 . S
C1048 C1054 1.379 . S
C1048 N1056 1.356 . S
C1049 C1048 1.363 . S
C1049 C1055 1.363 . S
C1050 C1051 1.363 . S
C1050 C1055 1.379 . S
C1050 N1057 1.356 . S
C1051 C1050 1.363 . S
C1051 C1054 1.363 . S
N1052 C1054 1.356 . S
N1052 H1064 0.984 . S
N1052 H1065 0.985 . S
N1053 C1055 1.356 . S
N1053 H1058 0.984 . S
N1053 H1059 0.985 . S
C1054 C1048 1.379 . S
C1054 C1051 1.363 . S
C1054 N1052 1.356 . S
C1055 C1049 1.363 . S
C1055 C1050 1.379 . S
C1055 N1053 1.356 . S
N1056 C1048 1.356 . S
N1056 H1062 0.984 . S
N1056 H1063 0.984 . S
N1057 C1050 1.356 . S
N1057 H1060 0.984 . S
N1057 H1061 0.985 . S
H1058 N1053 0.984 . S
H1059 N1053 0.985 . S
H1060 N1057 0.984 . S
H1061 N1057 0.985 . S
H1062 N1056 0.984 . S
H1063 N1056 0.984 . S
H1064 N1052 0.984 . S
H1065 N1052 0.985 . S
C1066 C1067 1.363 . S
C1066 C1072 1.379 . S
C1066 N1074 1.356 . S
C1067 C1066 1.363 . S
C1067 C1073 1.363 . S
C1068 C1069 1.363 . S
C1068 C1073 1.379 . S
C1068 N1075 1.356 . S
C1069 C1068 1.363 . S
C1069 C1072 1.363 . S
N1070 C1072 1.356 . S
N1070 H1082 0.984 . S
N1070 H1083 0.985 . S
N1071 C1073 1.356 . S
N1071 H1076 0.984 . S
N1071 H1077 0.985 . S
C1072 C1066 1.379 . S
C1072 C1069 1.363 . S
C1072 N1070 1.356 . S
C1073 C1067 1.363 . S
C1073 C1068 1.379 . S
C1073 N1071 1.356 . S
N1074 C1066 1.356 . S
N1074 H1080 0.984 . S
N1074 H1081 0.984 . S
N1075 C1068 1.356 . S
N1075 H1078 0.984 . S
N1075 H1079 0.985 . S
H1076 N1071 0.984 . S
H1077 N1071 0.985 . S
H1078 N1075 0.984 . S
H1079 N1075 0.985 . S
H1080 N1074 0.984 . S
H1081 N1074 0.984 . S
H1082 N1070 0.984 . S
H1083 N1070 0.985 . S
C1084 C1085 1.363 . S
C1084 C1090 1.379 . S
C1084 N1092 1.356 . S
C1085 C1084 1.363 . S
C1085 C1091 1.363 . S
C1086 C1087 1.363 . S
C1086 C1091 1.379 . S
C1086 N1093 1.356 . S
C1087 C1086 1.363 . S
C1087 C1090 1.363 . S
N1088 C1090 1.356 . S
N1088 H1100 0.984 . S
N1088 H1101 0.985 . S
N1089 C1091 1.356 . S
N1089 H1094 0.984 . S
N1089 H1095 0.985 . S
C1090 C1084 1.379 . S
C1090 C1087 1.363 . S
C1090 N1088 1.356 . S
C1091 C1085 1.363 . S
C1091 C1086 1.379 . S
C1091 N1089 1.356 . S
N1092 C1084 1.356 . S
N1092 H1098 0.984 . S
N1092 H1099 0.984 . S
N1093 C1086 1.356 . S
N1093 H1096 0.984 . S
N1093 H1097 0.985 . S
H1094 N1089 0.984 . S
H1095 N1089 0.985 . S
H1096 N1093 0.984 . S
H1097 N1093 0.985 . S
H1098 N1092 0.984 . S
H1099 N1092 0.984 . S
H1100 N1088 0.984 . S
H1101 N1088 0.985 . S
C1102 C1103 1.363 . S
C1102 C1108 1.379 . S
C1102 N1110 1.356 . S
C1103 C1102 1.363 . S
C1103 C1109 1.363 . S
C1104 C1105 1.363 . S
C1104 C1109 1.379 . S
C1104 N1111 1.356 . S
C1105 C1104 1.363 . S
C1105 C1108 1.363 . S
N1106 C1108 1.356 . S
N1106 H1118 0.984 . S
N1106 H1119 0.985 . S
N1107 C1109 1.356 . S
N1107 H1112 0.984 . S
N1107 H1113 0.985 . S
C1108 C1102 1.379 . S
C1108 C1105 1.363 . S
C1108 N1106 1.356 . S
C1109 C1103 1.363 . S
C1109 C1104 1.379 . S
C1109 N1107 1.356 . S
N1110 C1102 1.356 . S
N1110 H1116 0.984 . S
N1110 H1117 0.984 . S
N1111 C1104 1.356 . S
N1111 H1114 0.984 . S
N1111 H1115 0.985 . S
H1112 N1107 0.984 . S
H1113 N1107 0.985 . S
H1114 N1111 0.984 . S
H1115 N1111 0.985 . S
H1116 N1110 0.984 . S
H1117 N1110 0.984 . S
H1118 N1106 0.984 . S
H1119 N1106 0.985 . S
C1120 C1121 1.363 . S
C1120 C1126 1.379 . S
C1120 N1128 1.356 1_545 S
C1121 C1120 1.363 . S
C1121 C1127 1.363 1_655 S
C1122 C1123 1.363 . S
C1122 C1127 1.379 . S
C1122 N1129 1.356 . S
C1123 C1122 1.363 . S
C1123 C1126 1.363 1_455 S
N1124 C1126 1.356 . S
N1124 H1136 0.984 . S
N1124 H1137 0.985 1_655 S
N1125 C1127 1.356 . S
N1125 H1130 0.984 1_455 S
N1125 H1131 0.985 . S
C1126 C1120 1.379 . S
C1126 C1123 1.363 1_655 S
C1126 N1124 1.356 . S
C1127 C1121 1.363 1_455 S
C1127 C1122 1.379 . S
C1127 N1125 1.356 . S
N1128 C1120 1.356 1_565 S
N1128 H1134 0.984 . S
N1128 H1135 0.984 . S
N1129 C1122 1.356 . S
N1129 H1132 0.984 . S
N1129 H1133 0.985 . S
H1130 N1125 0.984 1_655 S
H1131 N1125 0.985 . S
H1132 N1129 0.984 . S
H1133 N1129 0.985 . S
H1134 N1128 0.984 . S
H1135 N1128 0.984 . S
H1136 N1124 0.984 . S
H1137 N1124 0.985 1_455 S
C1138 C1139 1.363 . S
C1138 C1144 1.379 . S
C1138 N1146 1.356 . S
C1139 C1138 1.363 . S
C1139 C1145 1.363 . S
C1140 C1141 1.363 . S
C1140 C1145 1.379 . S
C1140 N1147 1.356 . S
C1141 C1140 1.363 . S
C1141 C1144 1.363 . S
N1142 C1144 1.356 . S
N1142 H1154 0.984 . S
N1142 H1155 0.985 . S
N1143 C1145 1.356 . S
N1143 H1148 0.984 . S
N1143 H1149 0.985 . S
C1144 C1138 1.379 . S
C1144 C1141 1.363 . S
C1144 N1142 1.356 . S
C1145 C1139 1.363 . S
C1145 C1140 1.379 . S
C1145 N1143 1.356 . S
N1146 C1138 1.356 . S
N1146 H1152 0.984 . S
N1146 H1153 0.984 . S
N1147 C1140 1.356 . S
N1147 H1150 0.984 . S
N1147 H1151 0.985 . S
H1148 N1143 0.984 . S
H1149 N1143 0.985 . S
H1150 N1147 0.984 . S
H1151 N1147 0.985 . S
H1152 N1146 0.984 . S
H1153 N1146 0.984 . S
H1154 N1142 0.984 . S
H1155 N1142 0.985 . S
C1156 C1157 1.363 . S
C1156 C1162 1.379 . S
C1156 N1164 1.356 . S
C1157 C1156 1.363 . S
C1157 C1163 1.363 . S
C1158 C1159 1.363 . S
C1158 C1163 1.379 . S
C1158 N1165 1.356 1_545 S
C1159 C1158 1.363 . S
C1159 C1162 1.363 . S
N1160 C1162 1.356 . S
N1160 H1172 0.984 . S
N1160 H1173 0.985 . S
N1161 C1163 1.356 1_565 S
N1161 H1166 0.984 . S
N1161 H1167 0.985 . S
C1162 C1156 1.379 . S
C1162 C1159 1.363 . S
C1162 N1160 1.356 . S
C1163 C1157 1.363 . S
C1163 C1158 1.379 . S
C1163 N1161 1.356 1_545 S
N1164 C1156 1.356 . S
N1164 H1170 0.984 . S
N1164 H1171 0.984 . S
N1165 C1158 1.356 1_565 S
N1165 H1168 0.984 1_565 S
N1165 H1169 0.985 . S
H1166 N1161 0.984 . S
H1167 N1161 0.985 . S
H1168 N1165 0.984 1_545 S
H1169 N1165 0.985 . S
H1170 N1164 0.984 . S
H1171 N1164 0.984 . S
H1172 N1160 0.984 . S
H1173 N1160 0.985 . S
C1174 C1175 1.363 1_556 S
C1174 C1180 1.379 . S
C1174 N1182 1.356 1_556 S
C1175 C1174 1.363 1_554 S
C1175 C1181 1.363 1_554 S
C1176 C1177 1.363 . S
C1176 C1181 1.379 . S
C1176 N1183 1.356 . S
C1177 C1176 1.363 . S
C1177 C1180 1.363 . S
N1178 C1180 1.356 . S
N1178 H1190 0.984 . S
N1178 H1191 0.985 . S
N1179 C1181 1.356 . S
N1179 H1184 0.984 1_556 S
N1179 H1185 0.985 . S
C1180 C1174 1.379 . S
C1180 C1177 1.363 . S
C1180 N1178 1.356 . S
C1181 C1175 1.363 1_556 S
C1181 C1176 1.379 . S
C1181 N1179 1.356 . S
N1182 C1174 1.356 1_554 S
N1182 H1188 0.984 . S
N1182 H1189 0.984 . S
N1183 C1176 1.356 . S
N1183 H1186 0.984 . S
N1183 H1187 0.985 . S
H1184 N1179 0.984 1_554 S
H1185 N1179 0.985 . S
H1186 N1183 0.984 . S
H1187 N1183 0.985 . S
H1188 N1182 0.984 . S
H1189 N1182 0.984 . S
H1190 N1178 0.984 . S
H1191 N1178 0.985 . S
C1192 C1193 1.363 1_455 S
C1192 C1198 1.379 . S
C1192 N1200 1.356 . S
C1193 C1192 1.363 1_655 S
C1193 C1199 1.363 1_545 S
C1194 C1195 1.363 1_655 S
C1194 C1199 1.379 1_545 S
C1194 N1201 1.356 1_545 S
C1195 C1194 1.363 1_455 S
C1195 C1198 1.363 . S
N1196 C1198 1.356 . S
N1196 H1208 0.984 . S
N1196 H1209 0.985 . S
N1197 C1199 1.356 . S
N1197 H1202 0.984 . S
N1197 H1203 0.985 . S
C1198 C1192 1.379 . S
C1198 C1195 1.363 . S
C1198 N1196 1.356 . S
C1199 C1193 1.363 1_565 S
C1199 C1194 1.379 1_565 S
C1199 N1197 1.356 . S
N1200 C1192 1.356 . S
N1200 H1206 0.984 . S
N1200 H1207 0.984 1_455 S
N1201 C1194 1.356 1_565 S
N1201 H1204 0.984 1_665 S
N1201 H1205 0.985 . S
H1202 N1197 0.984 . S
H1203 N1197 0.985 . S
H1204 N1201 0.984 1_445 S
H1205 N1201 0.985 . S
H1206 N1200 0.984 . S
H1207 N1200 0.984 1_655 S
H1208 N1196 0.984 . S
H1209 N1196 0.985 . S
C1210 C1211 1.363 . S
C1210 C1216 1.379 . S
C1210 N1218 1.356 . S
C1211 C1210 1.363 . S
C1211 C1217 1.363 . S
C1212 C1213 1.363 . S
C1212 C1217 1.379 . S
C1212 N1219 1.356 . S
C1213 C1212 1.363 . S
C1213 C1216 1.363 . S
N1214 C1216 1.356 . S
N1214 H1226 0.984 . S
N1214 H1227 0.985 . S
N1215 C1217 1.356 . S
N1215 H1220 0.984 . S
N1215 H1221 0.985 . S
C1216 C1210 1.379 . S
C1216 C1213 1.363 . S
C1216 N1214 1.356 . S
C1217 C1211 1.363 . S
C1217 C1212 1.379 . S
C1217 N1215 1.356 . S
N1218 C1210 1.356 . S
N1218 H1224 0.984 . S
N1218 H1225 0.984 . S
N1219 C1212 1.356 . S
N1219 H1222 0.984 . S
N1219 H1223 0.985 . S
H1220 N1215 0.984 . S
H1221 N1215 0.985 . S
H1222 N1219 0.984 . S
H1223 N1219 0.985 . S
H1224 N1218 0.984 . S
H1225 N1218 0.984 . S
H1226 N1214 0.984 . S
H1227 N1214 0.985 . S
C1228 C1229 1.363 . S
C1228 C1234 1.379 . S
C1228 N1236 1.356 . S
C1229 C1228 1.363 . S
C1229 C1235 1.363 . S
C1230 C1231 1.363 . S
C1230 C1235 1.379 1_554 S
C1230 N1237 1.356 . S
C1231 C1230 1.363 . S
C1231 C1234 1.363 1_554 S
N1232 C1234 1.356 . S
N1232 H1244 0.984 1_545 S
N1232 H1245 0.985 1_556 S
N1233 C1235 1.356 . S
N1233 H1238 0.984 . S
N1233 H1239 0.985 . S
C1234 C1228 1.379 . S
C1234 C1231 1.363 1_556 S
C1234 N1232 1.356 . S
C1235 C1229 1.363 . S
C1235 C1230 1.379 1_556 S
C1235 N1233 1.356 . S
N1236 C1228 1.356 . S
N1236 H1242 0.984 1_545 S
N1236 H1243 0.984 . S
N1237 C1230 1.356 . S
N1237 H1240 0.984 . S
N1237 H1241 0.985 . S
H1238 N1233 0.984 . S
H1239 N1233 0.985 . S
H1240 N1237 0.984 . S
H1241 N1237 0.985 . S
H1242 N1236 0.984 1_565 S
H1243 N1236 0.984 . S
H1244 N1232 0.984 1_565 S
H1245 N1232 0.985 1_554 S
C1246 C1247 1.363 . S
C1246 C1252 1.379 . S
C1246 N1254 1.356 . S
C1247 C1246 1.363 . S
C1247 C1253 1.363 . S
C1248 C1249 1.363 . S
C1248 C1253 1.379 . S
C1248 N1255 1.356 . S
C1249 C1248 1.363 . S
C1249 C1252 1.363 . S
N1250 C1252 1.356 . S
N1250 H1262 0.984 . S
N1250 H1263 0.985 . S
N1251 C1253 1.356 . S
N1251 H1256 0.984 . S
N1251 H1257 0.985 . S
C1252 C1246 1.379 . S
C1252 C1249 1.363 . S
C1252 N1250 1.356 . S
C1253 C1247 1.363 . S
C1253 C1248 1.379 . S
C1253 N1251 1.356 . S
N1254 C1246 1.356 . S
N1254 H1260 0.984 . S
N1254 H1261 0.984 . S
N1255 C1248 1.356 . S
N1255 H1258 0.984 . S
N1255 H1259 0.985 . S
H1256 N1251 0.984 . S
H1257 N1251 0.985 . S
H1258 N1255 0.984 . S
H1259 N1255 0.985 . S
H1260 N1254 0.984 . S
H1261 N1254 0.984 . S
H1262 N1250 0.984 . S
H1263 N1250 0.985 . S
C1264 C1265 1.363 . S
C1264 C1270 1.379 . S
C1264 N1272 1.356 . S
C1265 C1264 1.363 . S
C1265 C1271 1.363 . S
C1266 C1267 1.363 . S
C1266 C1271 1.379 . S
C1266 N1273 1.356 . S
C1267 C1266 1.363 . S
C1267 C1270 1.363 . S
N1268 C1270 1.356 . S
N1268 H1280 0.984 . S
N1268 H1281 0.985 . S
N1269 C1271 1.356 . S
N1269 H1274 0.998 . S
N1269 H1275 0.985 . S
C1270 C1264 1.379 . S
C1270 C1267 1.363 . S
C1270 N1268 1.356 . S
C1271 C1265 1.363 . S
C1271 C1266 1.379 . S
C1271 N1269 1.356 . S
N1272 C1264 1.356 . S
N1272 H1278 0.984 . S
N1272 H1279 0.984 . S
N1273 C1266 1.356 . S
N1273 H1276 0.984 . S
N1273 H1277 0.985 . S
H1274 N1269 0.998 . S
H1275 N1269 0.985 . S
H1276 N1273 0.984 . S
H1277 N1273 0.985 . S
H1278 N1272 0.984 . S
H1279 N1272 0.984 . S
H1280 N1268 0.984 . S
H1281 N1268 0.985 . S
C1282 C1283 1.363 . S
C1282 C1288 1.379 . S
C1282 N1290 1.356 . S
C1283 C1282 1.363 . S
C1283 C1289 1.363 . S
C1284 C1285 1.363 . S
C1284 C1289 1.379 . S
C1284 N1291 1.356 . S
C1285 C1284 1.363 . S
C1285 C1288 1.363 . S
N1286 C1288 1.356 . S
N1286 H1298 0.984 . S
N1286 H1299 0.985 . S
N1287 C1289 1.356 . S
N1287 H1292 0.984 . S
N1287 H1293 0.985 . S
C1288 C1282 1.379 . S
C1288 C1285 1.363 . S
C1288 N1286 1.356 . S
C1289 C1283 1.363 . S
C1289 C1284 1.379 . S
C1289 N1287 1.356 . S
N1290 C1282 1.356 . S
N1290 H1296 0.984 . S
N1290 H1297 0.984 . S
N1291 C1284 1.356 . S
N1291 H1294 0.984 . S
N1291 H1295 0.985 . S
H1292 N1287 0.984 . S
H1293 N1287 0.985 . S
H1294 N1291 0.984 . S
H1295 N1291 0.985 . S
H1296 N1290 0.984 . S
H1297 N1290 0.984 . S
H1298 N1286 0.984 . S
H1299 N1286 0.985 . S
C1300 C1301 1.363 . S
C1300 C1306 1.379 . S
C1300 N1308 1.356 . S
C1301 C1300 1.363 . S
C1301 C1307 1.363 . S
C1302 C1303 1.363 . S
C1302 C1307 1.379 . S
C1302 N1309 1.356 . S
C1303 C1302 1.363 . S
C1303 C1306 1.363 . S
N1304 C1306 1.356 . S
N1304 H1316 0.984 . S
N1304 H1317 0.985 . S
N1305 C1307 1.356 . S
N1305 H1310 0.984 . S
N1305 H1311 0.985 . S
C1306 C1300 1.379 . S
C1306 C1303 1.363 . S
C1306 N1304 1.356 . S
C1307 C1301 1.363 . S
C1307 C1302 1.379 . S
C1307 N1305 1.356 . S
N1308 C1300 1.356 . S
N1308 H1314 0.984 . S
N1308 H1315 0.984 . S
N1309 C1302 1.356 . S
N1309 H1312 0.984 . S
N1309 H1313 0.985 . S
H1310 N1305 0.984 . S
H1311 N1305 0.985 . S
H1312 N1309 0.984 . S
H1313 N1309 0.985 . S
H1314 N1308 0.984 . S
H1315 N1308 0.984 . S
H1316 N1304 0.984 . S
H1317 N1304 0.985 . S
C1318 C1319 1.363 . S
C1318 C1324 1.379 . S
C1318 N1326 1.356 . S
C1319 C1318 1.363 . S
C1319 C1325 1.363 . S
C1320 C1321 1.363 . S
C1320 C1325 1.379 . S
C1320 N1327 1.356 . S
C1321 C1320 1.363 . S
C1321 C1324 1.363 . S
N1322 C1324 1.356 . S
N1322 H1334 0.984 . S
N1322 H1335 0.985 . S
N1323 C1325 1.356 . S
N1323 H1328 0.984 . S
N1323 H1329 0.985 . S
C1324 C1318 1.379 . S
C1324 C1321 1.363 . S
C1324 N1322 1.356 . S
C1325 C1319 1.363 . S
C1325 C1320 1.379 . S
C1325 N1323 1.356 . S
N1326 C1318 1.356 . S
N1326 H1332 0.984 . S
N1326 H1333 0.984 . S
N1327 C1320 1.356 . S
N1327 H1330 0.984 . S
N1327 H1331 0.985 . S
H1328 N1323 0.984 . S
H1329 N1323 0.985 . S
H1330 N1327 0.984 . S
H1331 N1327 0.985 . S
H1332 N1326 0.984 . S
H1333 N1326 0.984 . S
H1334 N1322 0.984 . S
H1335 N1322 0.985 . S
C1336 C1337 1.363 . S
C1336 C1342 1.379 . S
C1336 N1344 1.356 . S
C1337 C1336 1.363 . S
C1337 C1343 1.363 . S
C1338 C1339 1.363 . S
C1338 C1343 1.379 . S
C1338 N1345 1.356 . S
C1339 C1338 1.363 . S
C1339 C1342 1.363 . S
N1340 C1342 1.356 . S
N1340 H1352 0.984 . S
N1340 H1353 0.985 . S
N1341 C1343 1.356 . S
N1341 H1346 0.984 . S
N1341 H1347 0.985 . S
C1342 C1336 1.379 . S
C1342 C1339 1.363 . S
C1342 N1340 1.356 . S
C1343 C1337 1.363 . S
C1343 C1338 1.379 . S
C1343 N1341 1.356 . S
N1344 C1336 1.356 . S
N1344 H1350 0.984 . S
N1344 H1351 0.984 . S
N1345 C1338 1.356 . S
N1345 H1348 0.984 . S
N1345 H1349 0.985 . S
H1346 N1341 0.984 . S
H1347 N1341 0.985 . S
H1348 N1345 0.984 . S
H1349 N1345 0.985 . S
H1350 N1344 0.984 . S
H1351 N1344 0.984 . S
H1352 N1340 0.984 . S
H1353 N1340 0.985 . S
C1354 C1355 1.363 . S
C1354 C1360 1.379 . S
C1354 N1362 1.356 . S
C1355 C1354 1.363 . S
C1355 C1361 1.363 . S
C1356 C1357 1.363 . S
C1356 C1361 1.379 . S
C1356 N1363 1.356 . S
C1357 C1356 1.363 . S
C1357 C1360 1.363 . S
N1358 C1360 1.356 . S
N1358 H1370 0.984 . S
N1358 H1371 0.985 . S
N1359 C1361 1.356 . S
N1359 H1364 0.984 . S
N1359 H1365 0.985 . S
C1360 C1354 1.379 . S
C1360 C1357 1.363 . S
C1360 N1358 1.356 . S
C1361 C1355 1.363 . S
C1361 C1356 1.379 . S
C1361 N1359 1.356 . S
N1362 C1354 1.356 . S
N1362 H1368 0.984 . S
N1362 H1369 0.984 . S
N1363 C1356 1.356 . S
N1363 H1366 0.984 . S
N1363 H1367 0.985 . S
H1364 N1359 0.984 . S
H1365 N1359 0.985 . S
H1366 N1363 0.984 . S
H1367 N1363 0.985 . S
H1368 N1362 0.984 . S
H1369 N1362 0.984 . S
H1370 N1358 0.984 . S
H1371 N1358 0.985 . S
C1372 C1373 1.363 . S
C1372 C1378 1.379 . S
C1372 N1380 1.356 . S
C1373 C1372 1.363 . S
C1373 C1379 1.363 . S
C1374 C1375 1.363 . S
C1374 C1379 1.379 . S
C1374 N1381 1.356 . S
C1375 C1374 1.363 . S
C1375 C1378 1.363 . S
N1376 C1378 1.356 . S
N1376 H1388 0.984 . S
N1376 H1389 0.985 . S
N1377 C1379 1.356 . S
N1377 H1382 0.984 . S
N1377 H1383 0.985 . S
C1378 C1372 1.379 . S
C1378 C1375 1.363 . S
C1378 N1376 1.356 . S
C1379 C1373 1.363 . S
C1379 C1374 1.379 . S
C1379 N1377 1.356 . S
N1380 C1372 1.356 . S
N1380 H1386 0.984 . S
N1380 H1387 0.984 . S
N1381 C1374 1.356 . S
N1381 H1384 0.984 . S
N1381 H1385 0.985 . S
H1382 N1377 0.984 . S
H1383 N1377 0.985 . S
H1384 N1381 0.984 . S
H1385 N1381 0.985 . S
H1386 N1380 0.984 . S
H1387 N1380 0.984 . S
H1388 N1376 0.984 . S
H1389 N1376 0.985 . S
C1390 C1391 1.363 . S
C1390 C1396 1.379 . S
C1390 N1398 1.356 . S
C1391 C1390 1.363 . S
C1391 C1397 1.363 . S
C1392 C1393 1.363 . S
C1392 C1397 1.379 . S
C1392 N1399 1.356 . S
C1393 C1392 1.363 . S
C1393 C1396 1.363 . S
N1394 C1396 1.356 . S
N1394 H1406 0.984 . S
N1394 H1407 0.985 . S
N1395 C1397 1.356 . S
N1395 H1400 0.984 . S
N1395 H1401 0.985 . S
C1396 C1390 1.379 . S
C1396 C1393 1.363 . S
C1396 N1394 1.356 . S
C1397 C1391 1.363 . S
C1397 C1392 1.379 . S
C1397 N1395 1.356 . S
N1398 C1390 1.356 . S
N1398 H1404 0.984 . S
N1398 H1405 0.984 . S
N1399 C1392 1.356 . S
N1399 H1402 0.984 . S
N1399 H1403 0.985 . S
H1400 N1395 0.984 . S
H1401 N1395 0.985 . S
H1402 N1399 0.984 . S
H1403 N1399 0.985 . S
H1404 N1398 0.984 . S
H1405 N1398 0.984 . S
H1406 N1394 0.984 . S
H1407 N1394 0.985 . S
C1408 C1409 1.363 . S
C1408 C1414 1.379 . S
C1408 N1416 1.356 . S
C1409 C1408 1.363 . S
C1409 C1415 1.363 . S
C1410 C1411 1.363 . S
C1410 C1415 1.379 . S
C1410 N1417 1.356 . S
C1411 C1410 1.363 . S
C1411 C1414 1.363 . S
N1412 C1414 1.356 . S
N1412 H1424 0.984 . S
N1412 H1425 0.985 . S
N1413 C1415 1.356 . S
N1413 H1418 0.984 . S
N1413 H1419 0.985 . S
C1414 C1408 1.379 . S
C1414 C1411 1.363 . S
C1414 N1412 1.356 . S
C1415 C1409 1.363 . S
C1415 C1410 1.379 . S
C1415 N1413 1.356 . S
N1416 C1408 1.356 . S
N1416 H1422 0.984 . S
N1416 H1423 0.984 . S
N1417 C1410 1.356 . S
N1417 H1420 0.984 . S
N1417 H1421 0.985 1_455 S
H1418 N1413 0.984 . S
H1419 N1413 0.985 . S
H1420 N1417 0.984 . S
H1421 N1417 0.985 1_655 S
H1422 N1416 0.984 . S
H1423 N1416 0.984 . S
H1424 N1412 0.984 . S
H1425 N1412 0.985 . S
C1426 C1427 1.363 . S
C1426 C1432 1.379 . S
C1426 N1434 1.356 . S
C1427 C1426 1.363 . S
C1427 C1433 1.363 . S
C1428 C1429 1.363 . S
C1428 C1433 1.379 . S
C1428 N1435 1.356 . S
C1429 C1428 1.363 . S
C1429 C1432 1.363 . S
N1430 C1432 1.356 . S
N1430 H1442 0.984 . S
N1430 H1443 0.985 . S
N1431 C1433 1.356 . S
N1431 H1436 0.984 . S
N1431 H1437 0.985 . S
C1432 C1426 1.379 . S
C1432 C1429 1.363 . S
C1432 N1430 1.356 . S
C1433 C1427 1.363 . S
C1433 C1428 1.379 . S
C1433 N1431 1.356 . S
N1434 C1426 1.356 . S
N1434 H1440 0.984 . S
N1434 H1441 0.984 . S
N1435 C1428 1.356 . S
N1435 H1438 0.984 . S
N1435 H1439 0.985 . S
H1436 N1431 0.984 . S
H1437 N1431 0.985 . S
H1438 N1435 0.984 . S
H1439 N1435 0.985 . S
H1440 N1434 0.984 . S
H1441 N1434 0.984 . S
H1442 N1430 0.984 . S
H1443 N1430 0.985 . S
C1444 C1445 1.363 . S
C1444 C1450 1.379 . S
C1444 N1452 1.356 . S
C1445 C1444 1.363 . S
C1445 C1451 1.363 . S
C1446 C1447 1.363 . S
C1446 C1451 1.379 . S
C1446 N1453 1.356 . S
C1447 C1446 1.363 . S
C1447 C1450 1.363 . S
N1448 C1450 1.356 . S
N1448 H1460 0.984 . S
N1448 H1461 0.985 . S
N1449 C1451 1.356 . S
N1449 H1454 0.984 . S
N1449 H1455 0.985 . S
C1450 C1444 1.379 . S
C1450 C1447 1.363 . S
C1450 N1448 1.356 . S
C1451 C1445 1.363 . S
C1451 C1446 1.379 . S
C1451 N1449 1.356 . S
N1452 C1444 1.356 . S
N1452 H1458 0.984 . S
N1452 H1459 0.984 . S
N1453 C1446 1.356 . S
N1453 H1456 0.984 . S
N1453 H1457 0.985 . S
H1454 N1449 0.984 . S
H1455 N1449 0.985 . S
H1456 N1453 0.984 . S
H1457 N1453 0.985 . S
H1458 N1452 0.984 . S
H1459 N1452 0.984 . S
H1460 N1448 0.984 . S
H1461 N1448 0.985 . S
C1462 C1463 1.363 . S
C1462 C1468 1.379 . S
C1462 N1470 1.356 . S
C1463 C1462 1.363 . S
C1463 C1469 1.363 . S
C1464 C1465 1.363 . S
C1464 C1469 1.379 . S
C1464 N1471 1.356 . S
C1465 C1464 1.363 . S
C1465 C1468 1.363 . S
N1466 C1468 1.356 . S
N1466 H1478 0.984 . S
N1466 H1479 0.985 . S
N1467 C1469 1.356 . S
N1467 H1472 0.984 . S
N1467 H1473 0.985 . S
C1468 C1462 1.379 . S
C1468 C1465 1.363 . S
C1468 N1466 1.356 . S
C1469 C1463 1.363 . S
C1469 C1464 1.379 . S
C1469 N1467 1.356 . S
N1470 C1462 1.356 . S
N1470 H1476 0.984 . S
N1470 H1477 0.984 . S
N1471 C1464 1.356 . S
N1471 H1474 0.984 . S
N1471 H1475 0.985 . S
H1472 N1467 0.984 . S
H1473 N1467 0.985 . S
H1474 N1471 0.984 . S
H1475 N1471 0.985 . S
H1476 N1470 0.984 . S
H1477 N1470 0.984 . S
H1478 N1466 0.984 . S
H1479 N1466 0.985 . S
C1480 C1481 1.363 1_655 S
C1480 C1486 1.379 . S
C1480 N1488 1.356 . S
C1481 C1480 1.363 1_455 S
C1481 C1487 1.363 . S
C1482 C1483 1.361 1_455 S
C1482 C1487 1.379 . S
C1482 N1489 1.356 . S
C1483 C1482 1.361 1_655 S
C1483 C1486 1.365 . S
N1484 C1486 1.356 . S
N1484 H1496 0.984 . S
N1484 H1497 0.985 . S
N1485 C1487 1.356 . S
N1485 H1490 0.984 . S
N1485 H1491 0.985 . S
C1486 C1480 1.379 . S
C1486 C1483 1.365 . S
C1486 N1484 1.356 . S
C1487 C1481 1.363 . S
C1487 C1482 1.379 . S
C1487 N1485 1.356 . S
N1488 C1480 1.356 . S
N1488 H1494 0.984 . S
N1488 H1495 0.984 . S
N1489 C1482 1.356 . S
N1489 H1492 0.984 . S
N1489 H1493 0.985 . S
H1490 N1485 0.984 . S
H1491 N1485 0.985 . S
H1492 N1489 0.984 . S
H1493 N1489 0.985 . S
H1494 N1488 0.984 . S
H1495 N1488 0.984 . S
H1496 N1484 0.984 . S
H1497 N1484 0.985 . S
C1498 C1499 1.363 . S
C1498 C1504 1.379 . S
C1498 N1506 1.356 . S
C1499 C1498 1.363 . S
C1499 C1505 1.363 . S
C1500 C1501 1.363 . S
C1500 C1505 1.379 . S
C1500 N1507 1.356 . S
C1501 C1500 1.363 . S
C1501 C1504 1.363 . S
N1502 C1504 1.356 . S
N1502 H1514 0.984 . S
N1502 H1515 0.985 . S
N1503 C1505 1.356 . S
N1503 H1508 0.984 . S
N1503 H1509 0.985 . S
C1504 C1498 1.379 . S
C1504 C1501 1.363 . S
C1504 N1502 1.356 . S
C1505 C1499 1.363 . S
C1505 C1500 1.379 . S
C1505 N1503 1.356 . S
N1506 C1498 1.356 . S
N1506 H1512 0.984 . S
N1506 H1513 0.984 . S
N1507 C1500 1.356 . S
N1507 H1510 0.984 . S
N1507 H1511 0.985 . S
H1508 N1503 0.984 . S
H1509 N1503 0.985 . S
H1510 N1507 0.984 . S
H1511 N1507 0.985 . S
H1512 N1506 0.984 . S
H1513 N1506 0.984 . S
H1514 N1502 0.984 . S
H1515 N1502 0.985 . S
C1516 C1517 1.363 . S
C1516 C1522 1.379 1_556 S
C1516 N1524 1.356 . S
C1517 C1516 1.363 . S
C1517 C1523 1.363 . S
C1518 C1519 1.363 . S
C1518 C1523 1.379 1_554 S
C1518 N1525 1.356 . S
C1519 C1518 1.363 . S
C1519 C1522 1.363 . S
N1520 C1522 1.356 . S
N1520 H1532 0.984 . S
N1520 H1533 0.985 . S
N1521 C1523 1.356 . S
N1521 H1526 0.984 . S
N1521 H1527 0.985 . S
C1522 C1516 1.379 1_554 S
C1522 C1519 1.363 . S
C1522 N1520 1.356 . S
C1523 C1517 1.363 . S
C1523 C1518 1.379 1_556 S
C1523 N1521 1.356 . S
N1524 C1516 1.356 . S
N1524 H1530 0.984 . S
N1524 H1531 0.984 . S
N1525 C1518 1.356 . S
N1525 H1528 0.984 . S
N1525 H1529 0.985 . S
H1526 N1521 0.984 . S
H1527 N1521 0.985 . S
H1528 N1525 0.984 . S
H1529 N1525 0.985 . S
H1530 N1524 0.984 . S
H1531 N1524 0.984 . S
H1532 N1520 0.984 . S
H1533 N1520 0.985 . S
C1534 C1535 1.363 1_655 S
C1534 C1540 1.379 . S
C1534 N1542 1.356 . S
C1535 C1534 1.363 1_455 S
C1535 C1541 1.363 . S
C1536 C1537 1.365 1_455 S
C1536 C1541 1.377 . S
C1536 N1543 1.344 1_455 S
C1537 C1536 1.365 1_655 S
C1537 C1540 1.363 . S
N1538 C1540 1.356 . S
N1538 H1550 0.984 . S
N1538 H1551 0.985 . S
N1539 C1541 1.356 . S
N1539 H1544 0.984 . S
N1539 H1545 0.985 . S
C1540 C1534 1.379 . S
C1540 C1537 1.363 . S
C1540 N1538 1.356 . S
C1541 C1535 1.363 . S
C1541 C1536 1.377 . S
C1541 N1539 1.356 . S
N1542 C1534 1.356 . S
N1542 H1548 0.984 . S
N1542 H1549 0.984 1_655 S
N1543 C1536 1.344 1_655 S
N1543 H1546 1.020 . S
N1543 H1547 0.963 1_655 S
H1544 N1539 0.984 . S
H1545 N1539 0.985 . S
H1546 N1543 1.020 . S
H1547 N1543 0.963 1_455 S
H1548 N1542 0.984 . S
H1549 N1542 0.984 1_455 S
H1550 N1538 0.984 . S
H1551 N1538 0.985 . S
C1552 C1553 1.363 . S
C1552 C1558 1.379 . S
C1552 N1560 1.356 . S
C1553 C1552 1.363 . S
C1553 C1559 1.363 . S
C1554 C1555 1.363 1_554 S
C1554 C1559 1.379 1_554 S
C1554 N1561 1.356 . S
C1555 C1554 1.363 1_556 S
C1555 C1558 1.363 . S
N1556 C1558 1.356 . S
N1556 H1568 0.984 1_545 S
N1556 H1569 0.985 . S
N1557 C1559 1.356 . S
N1557 H1562 0.984 . S
N1557 H1563 0.985 1_556 S
C1558 C1552 1.379 . S
C1558 C1555 1.363 . S
C1558 N1556 1.356 . S
C1559 C1553 1.363 . S
C1559 C1554 1.379 1_556 S
C1559 N1557 1.356 . S
N1560 C1552 1.356 . S
N1560 H1566 0.984 . S
N1560 H1567 0.984 . S
N1561 C1554 1.356 . S
N1561 H1564 0.984 . S
N1561 H1565 0.985 . S
H1562 N1557 0.984 . S
H1563 N1557 0.985 1_554 S
H1564 N1561 0.984 . S
H1565 N1561 0.985 . S
H1566 N1560 0.984 . S
H1567 N1560 0.984 . S
H1568 N1556 0.984 1_565 S
H1569 N1556 0.985 . S
C1570 C1571 1.363 . S
C1570 C1576 1.379 . S
C1570 N1578 1.356 . S
C1571 C1570 1.363 . S
C1571 C1577 1.363 . S
C1572 C1573 1.363 . S
C1572 C1577 1.379 . S
C1572 N1579 1.356 . S
C1573 C1572 1.363 . S
C1573 C1576 1.363 . S
N1574 C1576 1.356 . S
N1574 H1586 0.984 . S
N1574 H1587 0.985 . S
N1575 C1577 1.356 . S
N1575 H1580 0.984 . S
N1575 H1581 0.985 . S
C1576 C1570 1.379 . S
C1576 C1573 1.363 . S
C1576 N1574 1.356 . S
C1577 C1571 1.363 . S
C1577 C1572 1.379 . S
C1577 N1575 1.356 . S
N1578 C1570 1.356 . S
N1578 H1584 0.984 . S
N1578 H1585 0.984 . S
N1579 C1572 1.356 . S
N1579 H1582 0.984 . S
N1579 H1583 0.985 . S
H1580 N1575 0.984 . S
H1581 N1575 0.985 . S
H1582 N1579 0.984 . S
H1583 N1579 0.985 . S
H1584 N1578 0.984 . S
H1585 N1578 0.984 . S
H1586 N1574 0.984 . S
H1587 N1574 0.985 . S
C1588 C1589 1.363 . S
C1588 C1594 1.379 . S
C1588 N1596 1.356 . S
C1589 C1588 1.363 . S
C1589 C1595 1.363 . S
C1590 C1591 1.363 . S
C1590 C1595 1.379 . S
C1590 N1597 1.356 . S
C1591 C1590 1.363 . S
C1591 C1594 1.363 . S
N1592 C1594 1.356 . S
N1592 H1604 0.984 . S
N1592 H1605 0.985 . S
N1593 C1595 1.356 . S
N1593 H1598 0.984 . S
N1593 H1599 0.985 1_545 S
C1594 C1588 1.379 . S
C1594 C1591 1.363 . S
C1594 N1592 1.356 . S
C1595 C1589 1.363 . S
C1595 C1590 1.379 . S
C1595 N1593 1.356 . S
N1596 C1588 1.356 . S
N1596 H1602 0.984 . S
N1596 H1603 0.984 . S
N1597 C1590 1.356 . S
N1597 H1600 0.984 . S
N1597 H1601 0.985 1_545 S
H1598 N1593 0.984 . S
H1599 N1593 0.985 1_565 S
H1600 N1597 0.984 . S
H1601 N1597 0.985 1_565 S
H1602 N1596 0.984 . S
H1603 N1596 0.984 . S
H1604 N1592 0.984 . S
H1605 N1592 0.985 . S
C1606 C1607 1.363 . S
C1606 C1612 1.379 . S
C1606 N1614 1.356 . S
C1607 C1606 1.363 . S
C1607 C1613 1.363 . S
C1608 C1609 1.363 . S
C1608 C1613 1.379 . S
C1608 N1615 1.356 . S
C1609 C1608 1.363 . S
C1609 C1612 1.363 . S
N1610 C1612 1.356 . S
N1610 H1622 0.984 . S
N1610 H1623 0.985 . S
N1611 C1613 1.356 . S
N1611 H1616 0.984 . S
N1611 H1617 0.985 . S
C1612 C1606 1.379 . S
C1612 C1609 1.363 . S
C1612 N1610 1.356 . S
C1613 C1607 1.363 . S
C1613 C1608 1.379 . S
C1613 N1611 1.356 . S
N1614 C1606 1.356 . S
N1614 H1620 0.984 . S
N1614 H1621 0.984 . S
N1615 C1608 1.356 . S
N1615 H1618 0.984 . S
N1615 H1619 0.985 . S
H1616 N1611 0.984 . S
H1617 N1611 0.985 . S
H1618 N1615 0.984 . S
H1619 N1615 0.985 . S
H1620 N1614 0.984 . S
H1621 N1614 0.984 . S
H1622 N1610 0.984 . S
H1623 N1610 0.985 . S
C1624 C1625 1.363 . S
C1624 C1630 1.379 . S
C1624 N1632 1.356 . S
C1625 C1624 1.363 . S
C1625 C1631 1.363 . S
C1626 C1627 1.363 . S
C1626 C1631 1.379 . S
C1626 N1633 1.356 . S
C1627 C1626 1.363 . S
C1627 C1630 1.363 . S
N1628 C1630 1.356 . S
N1628 H1640 0.984 1_545 S
N1628 H1641 0.985 . S
N1629 C1631 1.356 . S
N1629 H1634 0.984 . S
N1629 H1635 0.985 . S
C1630 C1624 1.379 . S
C1630 C1627 1.363 . S
C1630 N1628 1.356 . S
C1631 C1625 1.363 . S
C1631 C1626 1.379 . S
C1631 N1629 1.356 . S
N1632 C1624 1.356 . S
N1632 H1638 0.984 . S
N1632 H1639 0.984 . S
N1633 C1626 1.356 . S
N1633 H1636 0.984 . S
N1633 H1637 0.985 . S
H1634 N1629 0.984 . S
H1635 N1629 0.985 . S
H1636 N1633 0.984 . S
H1637 N1633 0.985 . S
H1638 N1632 0.984 . S
H1639 N1632 0.984 . S
H1640 N1628 0.984 1_565 S
H1641 N1628 0.985 . S
C1642 C1643 1.363 . S
C1642 C1648 1.379 . S
C1642 N1650 1.356 . S
C1643 C1642 1.363 . S
C1643 C1649 1.363 . S
C1644 C1645 1.363 . S
C1644 C1649 1.379 . S
C1644 N1651 1.356 . S
C1645 C1644 1.363 . S
C1645 C1648 1.363 . S
N1646 C1648 1.356 . S
N1646 H1658 0.984 . S
N1646 H1659 0.985 . S
N1647 C1649 1.356 . S
N1647 H1652 0.984 . S
N1647 H1653 0.985 . S
C1648 C1642 1.379 . S
C1648 C1645 1.363 . S
C1648 N1646 1.356 . S
C1649 C1643 1.363 . S
C1649 C1644 1.379 . S
C1649 N1647 1.356 . S
N1650 C1642 1.356 . S
N1650 H1656 0.984 . S
N1650 H1657 0.984 . S
N1651 C1644 1.356 . S
N1651 H1654 0.984 . S
N1651 H1655 0.985 . S
H1652 N1647 0.984 . S
H1653 N1647 0.985 . S
H1654 N1651 0.984 . S
H1655 N1651 0.985 . S
H1656 N1650 0.984 . S
H1657 N1650 0.984 . S
H1658 N1646 0.984 . S
H1659 N1646 0.985 . S
C1660 C1661 1.363 . S
C1660 C1666 1.379 . S
C1660 N1668 1.354 1_545 S
C1661 C1660 1.363 . S
C1661 C1667 1.363 . S
C1662 C1663 1.363 . S
C1662 C1667 1.379 . S
C1662 N1669 1.356 . S
C1663 C1662 1.363 . S
C1663 C1666 1.363 . S
N1664 C1666 1.356 1_565 S
N1664 H1676 0.984 . S
N1664 H1677 0.985 . S
N1665 C1667 1.356 . S
N1665 H1670 0.984 . S
N1665 H1671 0.985 . S
C1666 C1660 1.379 . S
C1666 C1663 1.363 . S
C1666 N1664 1.356 1_545 S
C1667 C1661 1.363 . S
C1667 C1662 1.379 . S
C1667 N1665 1.356 . S
N1668 C1660 1.354 1_565 S
N1668 H1674 0.989 . S
N1668 H1675 0.982 1_565 S
N1669 C1662 1.356 . S
N1669 H1672 0.984 . S
N1669 H1673 0.985 . S
H1670 N1665 0.984 . S
H1671 N1665 0.985 . S
H1672 N1669 0.984 . S
H1673 N1669 0.985 . S
H1674 N1668 0.989 . S
H1675 N1668 0.982 1_545 S
H1676 N1664 0.984 . S
H1677 N1664 0.985 . S
C1678 C1679 1.363 . S
C1678 C1684 1.379 . S
C1678 N1686 1.356 . S
C1679 C1678 1.363 . S
C1679 C1685 1.363 . S
C1680 C1681 1.363 . S
C1680 C1685 1.379 . S
C1680 N1687 1.356 . S
C1681 C1680 1.363 . S
C1681 C1684 1.363 . S
N1682 C1684 1.356 . S
N1682 H1694 0.984 . S
N1682 H1695 0.985 . S
N1683 C1685 1.356 . S
N1683 H1688 0.984 1_556 S
N1683 H1689 0.985 . S
C1684 C1678 1.379 . S
C1684 C1681 1.363 . S
C1684 N1682 1.356 . S
C1685 C1679 1.363 . S
C1685 C1680 1.379 . S
C1685 N1683 1.356 . S
N1686 C1678 1.356 . S
N1686 H1692 0.984 . S
N1686 H1693 0.984 1_556 S
N1687 C1680 1.356 . S
N1687 H1690 0.984 . S
N1687 H1691 0.985 . S
H1688 N1683 0.984 1_554 S
H1689 N1683 0.985 . S
H1690 N1687 0.984 . S
H1691 N1687 0.985 . S
H1692 N1686 0.984 . S
H1693 N1686 0.984 1_554 S
H1694 N1682 0.984 . S
H1695 N1682 0.985 . S
C1696 C1697 1.363 . S
C1696 C1702 1.379 . S
C1696 N1704 1.356 . S
C1697 C1696 1.363 . S
C1697 C1703 1.363 . S
C1698 C1699 1.363 . S
C1698 C1703 1.379 . S
C1698 N1705 1.356 . S
C1699 C1698 1.363 . S
C1699 C1702 1.363 . S
N1700 C1702 1.356 . S
N1700 H1712 0.984 . S
N1700 H1713 0.985 . S
N1701 C1703 1.356 . S
N1701 H1706 0.984 . S
N1701 H1707 0.985 . S
C1702 C1696 1.379 . S
C1702 C1699 1.363 . S
C1702 N1700 1.356 . S
C1703 C1697 1.363 . S
C1703 C1698 1.379 . S
C1703 N1701 1.356 . S
N1704 C1696 1.356 . S
N1704 H1710 0.984 . S
N1704 H1711 0.984 . S
N1705 C1698 1.356 . S
N1705 H1708 0.984 . S
N1705 H1709 0.985 . S
H1706 N1701 0.984 . S
H1707 N1701 0.985 . S
H1708 N1705 0.984 . S
H1709 N1705 0.985 . S
H1710 N1704 0.984 . S
H1711 N1704 0.984 . S
H1712 N1700 0.984 . S
H1713 N1700 0.985 . S
C1714 C1715 1.363 . S
C1714 C1720 1.379 . S
C1714 N1722 1.356 . S
C1715 C1714 1.363 . S
C1715 C1721 1.363 . S
C1716 C1717 1.363 . S
C1716 C1721 1.379 . S
C1716 N1723 1.356 . S
C1717 C1716 1.363 . S
C1717 C1720 1.363 . S
N1718 C1720 1.356 . S
N1718 H1730 0.984 . S
N1718 H1731 0.985 . S
N1719 C1721 1.356 . S
N1719 H1724 0.984 . S
N1719 H1725 0.985 . S
C1720 C1714 1.379 . S
C1720 C1717 1.363 . S
C1720 N1718 1.356 . S
C1721 C1715 1.363 . S
C1721 C1716 1.379 . S
C1721 N1719 1.356 . S
N1722 C1714 1.356 . S
N1722 H1728 0.984 . S
N1722 H1729 0.984 . S
N1723 C1716 1.356 . S
N1723 H1726 0.984 . S
N1723 H1727 0.985 . S
H1724 N1719 0.984 . S
H1725 N1719 0.985 . S
H1726 N1723 0.984 . S
H1727 N1723 0.985 . S
H1728 N1722 0.984 . S
H1729 N1722 0.984 . S
H1730 N1718 0.984 . S
H1731 N1718 0.985 . S
C1732 C1733 1.363 . S
C1732 C1738 1.379 . S
C1732 N1740 1.356 . S
C1733 C1732 1.363 . S
C1733 C1739 1.363 . S
C1734 C1735 1.363 . S
C1734 C1739 1.379 . S
C1734 N1741 1.356 . S
C1735 C1734 1.363 . S
C1735 C1738 1.363 . S
N1736 C1738 1.356 . S
N1736 H1748 0.984 . S
N1736 H1749 0.985 . S
N1737 C1739 1.356 . S
N1737 H1742 0.984 . S
N1737 H1743 0.985 . S
C1738 C1732 1.379 . S
C1738 C1735 1.363 . S
C1738 N1736 1.356 . S
C1739 C1733 1.363 . S
C1739 C1734 1.379 . S
C1739 N1737 1.356 . S
N1740 C1732 1.356 . S
N1740 H1746 0.984 . S
N1740 H1747 0.984 . S
N1741 C1734 1.356 . S
N1741 H1744 0.984 . S
N1741 H1745 0.985 . S
H1742 N1737 0.984 . S
H1743 N1737 0.985 . S
H1744 N1741 0.984 . S
H1745 N1741 0.985 . S
H1746 N1740 0.984 . S
H1747 N1740 0.984 . S
H1748 N1736 0.984 . S
H1749 N1736 0.985 . S
C1750 C1751 1.363 . S
C1750 C1756 1.379 . S
C1750 N1758 1.356 . S
C1751 C1750 1.363 . S
C1751 C1757 1.363 . S
C1752 C1753 1.363 . S
C1752 C1757 1.379 . S
C1752 N1759 1.356 . S
C1753 C1752 1.363 . S
C1753 C1756 1.363 . S
N1754 C1756 1.356 . S
N1754 H1766 0.984 . S
N1754 H1767 0.985 . S
N1755 C1757 1.356 . S
N1755 H1760 0.984 . S
N1755 H1761 0.985 . S
C1756 C1750 1.379 . S
C1756 C1753 1.363 . S
C1756 N1754 1.356 . S
C1757 C1751 1.363 . S
C1757 C1752 1.379 . S
C1757 N1755 1.356 . S
N1758 C1750 1.356 . S
N1758 H1764 0.984 . S
N1758 H1765 0.984 . S
N1759 C1752 1.356 . S
N1759 H1762 0.984 . S
N1759 H1763 0.985 . S
H1760 N1755 0.984 . S
H1761 N1755 0.985 . S
H1762 N1759 0.984 . S
H1763 N1759 0.985 . S
H1764 N1758 0.984 . S
H1765 N1758 0.984 . S
H1766 N1754 0.984 . S
H1767 N1754 0.985 . S
C1768 C1769 1.363 . S
C1768 C1774 1.379 . S
C1768 N1776 1.356 . S
C1769 C1768 1.363 . S
C1769 C1775 1.363 . S
C1770 C1771 1.363 . S
C1770 C1775 1.379 . S
C1770 N1777 1.356 . S
C1771 C1770 1.363 . S
C1771 C1774 1.363 . S
N1772 C1774 1.356 . S
N1772 H1784 0.984 . S
N1772 H1785 0.985 . S
N1773 C1775 1.356 . S
N1773 H1778 0.984 . S
N1773 H1779 0.985 . S
C1774 C1768 1.379 . S
C1774 C1771 1.363 . S
C1774 N1772 1.356 . S
C1775 C1769 1.363 . S
C1775 C1770 1.379 . S
C1775 N1773 1.356 . S
N1776 C1768 1.356 . S
N1776 H1782 0.984 . S
N1776 H1783 0.984 . S
N1777 C1770 1.356 . S
N1777 H1780 0.984 . S
N1777 H1781 0.985 . S
H1778 N1773 0.984 . S
H1779 N1773 0.985 . S
H1780 N1777 0.984 . S
H1781 N1777 0.985 . S
H1782 N1776 0.984 . S
H1783 N1776 0.984 . S
H1784 N1772 0.984 . S
H1785 N1772 0.985 . S
C1786 C1787 1.363 . S
C1786 C1792 1.379 . S
C1786 N1794 1.356 . S
C1787 C1786 1.363 . S
C1787 C1793 1.363 . S
C1788 C1789 1.363 . S
C1788 C1793 1.379 . S
C1788 N1795 1.356 . S
C1789 C1788 1.363 . S
C1789 C1792 1.363 . S
N1790 C1792 1.356 . S
N1790 H1802 0.984 . S
N1790 H1803 0.985 . S
N1791 C1793 1.356 . S
N1791 H1796 0.984 . S
N1791 H1797 0.985 . S
C1792 C1786 1.379 . S
C1792 C1789 1.363 . S
C1792 N1790 1.356 . S
C1793 C1787 1.363 . S
C1793 C1788 1.379 . S
C1793 N1791 1.356 . S
N1794 C1786 1.356 . S
N1794 H1800 0.984 . S
N1794 H1801 0.984 . S
N1795 C1788 1.356 . S
N1795 H1798 0.984 . S
N1795 H1799 0.985 . S
H1796 N1791 0.984 . S
H1797 N1791 0.985 . S
H1798 N1795 0.984 . S
H1799 N1795 0.985 . S
H1800 N1794 0.984 . S
H1801 N1794 0.984 . S
H1802 N1790 0.984 . S
H1803 N1790 0.985 . S
C1804 C1805 1.363 . S
C1804 C1810 1.379 . S
C1804 N1812 1.356 . S
C1805 C1804 1.363 . S
C1805 C1811 1.363 . S
C1806 C1807 1.363 . S
C1806 C1811 1.379 . S
C1806 N1813 1.356 . S
C1807 C1806 1.363 . S
C1807 C1810 1.363 . S
N1808 C1810 1.356 . S
N1808 H1820 0.984 . S
N1808 H1821 0.985 . S
N1809 C1811 1.356 . S
N1809 H1814 0.984 . S
N1809 H1815 0.985 . S
C1810 C1804 1.379 . S
C1810 C1807 1.363 . S
C1810 N1808 1.356 . S
C1811 C1805 1.363 . S
C1811 C1806 1.379 . S
C1811 N1809 1.356 . S
N1812 C1804 1.356 . S
N1812 H1818 0.984 . S
N1812 H1819 0.984 . S
N1813 C1806 1.356 . S
N1813 H1816 0.984 . S
N1813 H1817 0.985 . S
H1814 N1809 0.984 . S
H1815 N1809 0.985 . S
H1816 N1813 0.984 . S
H1817 N1813 0.985 . S
H1818 N1812 0.984 . S
H1819 N1812 0.984 . S
H1820 N1808 0.984 . S
H1821 N1808 0.985 . S
C1822 C1823 1.363 . S
C1822 C1828 1.379 . S
C1822 N1830 1.356 . S
C1823 C1822 1.363 . S
C1823 C1829 1.363 . S
C1824 C1825 1.363 . S
C1824 C1829 1.379 . S
C1824 N1831 1.356 . S
C1825 C1824 1.363 . S
C1825 C1828 1.363 . S
N1826 C1828 1.356 . S
N1826 H1838 0.984 . S
N1826 H1839 0.985 . S
N1827 C1829 1.356 . S
N1827 H1832 0.984 . S
N1827 H1833 0.985 . S
C1828 C1822 1.379 . S
C1828 C1825 1.363 . S
C1828 N1826 1.356 . S
C1829 C1823 1.363 . S
C1829 C1824 1.379 . S
C1829 N1827 1.356 . S
N1830 C1822 1.356 . S
N1830 H1836 0.984 . S
N1830 H1837 0.984 . S
N1831 C1824 1.356 . S
N1831 H1834 0.984 . S
N1831 H1835 0.985 . S
H1832 N1827 0.984 . S
H1833 N1827 0.985 . S
H1834 N1831 0.984 . S
H1835 N1831 0.985 . S
H1836 N1830 0.984 . S
H1837 N1830 0.984 . S
H1838 N1826 0.984 . S
H1839 N1826 0.985 . S
C1840 C1841 1.363 . S
C1840 C1846 1.379 . S
C1840 N1848 1.356 . S
C1841 C1840 1.363 . S
C1841 C1847 1.363 . S
C1842 C1843 1.363 . S
C1842 C1847 1.379 . S
C1842 N1849 1.356 . S
C1843 C1842 1.363 . S
C1843 C1846 1.363 . S
N1844 C1846 1.356 . S
N1844 H1856 0.984 . S
N1844 H1857 0.985 . S
N1845 C1847 1.356 . S
N1845 H1850 0.984 . S
N1845 H1851 0.985 . S
C1846 C1840 1.379 . S
C1846 C1843 1.363 . S
C1846 N1844 1.356 . S
C1847 C1841 1.363 . S
C1847 C1842 1.379 . S
C1847 N1845 1.356 . S
N1848 C1840 1.356 . S
N1848 H1854 0.984 . S
N1848 H1855 0.984 . S
N1849 C1842 1.356 . S
N1849 H1852 0.984 . S
N1849 H1853 0.985 . S
H1850 N1845 0.984 . S
H1851 N1845 0.985 . S
H1852 N1849 0.984 . S
H1853 N1849 0.985 . S
H1854 N1848 0.984 . S
H1855 N1848 0.984 . S
H1856 N1844 0.984 . S
H1857 N1844 0.985 . S
C1858 C1859 1.363 . S
C1858 C1864 1.379 . S
C1858 N1866 1.356 . S
C1859 C1858 1.363 . S
C1859 C1865 1.363 . S
C1860 C1861 1.363 . S
C1860 C1865 1.379 . S
C1860 N1867 1.356 . S
C1861 C1860 1.363 . S
C1861 C1864 1.363 . S
N1862 C1864 1.356 . S
N1862 H1874 0.984 . S
N1862 H1875 0.985 . S
N1863 C1865 1.356 . S
N1863 H1868 0.984 . S
N1863 H1869 0.985 . S
C1864 C1858 1.379 . S
C1864 C1861 1.363 . S
C1864 N1862 1.356 . S
C1865 C1859 1.363 . S
C1865 C1860 1.379 . S
C1865 N1863 1.356 . S
N1866 C1858 1.356 . S
N1866 H1872 0.984 . S
N1866 H1873 0.984 . S
N1867 C1860 1.356 . S
N1867 H1870 0.984 . S
N1867 H1871 0.985 . S
H1868 N1863 0.984 . S
H1869 N1863 0.985 . S
H1870 N1867 0.984 . S
H1871 N1867 0.985 . S
H1872 N1866 0.984 . S
H1873 N1866 0.984 . S
H1874 N1862 0.984 . S
H1875 N1862 0.985 . S
C1876 C1877 1.363 . S
C1876 C1882 1.379 . S
C1876 N1884 1.356 . S
C1877 C1876 1.363 . S
C1877 C1883 1.363 . S
C1878 C1879 1.363 . S
C1878 C1883 1.379 . S
C1878 N1885 1.356 . S
C1879 C1878 1.363 . S
C1879 C1882 1.363 . S
N1880 C1882 1.356 . S
N1880 H1892 0.984 . S
N1880 H1893 0.985 . S
N1881 C1883 1.356 1_556 S
N1881 H1886 0.984 . S
N1881 H1887 0.985 . S
C1882 C1876 1.379 . S
C1882 C1879 1.363 . S
C1882 N1880 1.356 . S
C1883 C1877 1.363 . S
C1883 C1878 1.379 . S
C1883 N1881 1.356 1_554 S
N1884 C1876 1.356 . S
N1884 H1890 0.984 1_455 S
N1884 H1891 0.984 . S
N1885 C1878 1.356 . S
N1885 H1888 0.984 . S
N1885 H1889 0.985 . S
H1886 N1881 0.984 . S
H1887 N1881 0.985 . S
H1888 N1885 0.984 . S
H1889 N1885 0.985 . S
H1890 N1884 0.984 1_655 S
H1891 N1884 0.984 . S
H1892 N1880 0.984 . S
H1893 N1880 0.985 . S
C1894 C1895 1.363 . S
C1894 C1900 1.379 . S
C1894 N1902 1.356 1_655 S
C1895 C1894 1.363 . S
C1895 C1901 1.363 . S
C1896 C1897 1.363 . S
C1896 C1901 1.379 . S
C1896 N1903 1.356 . S
C1897 C1896 1.363 . S
C1897 C1900 1.363 . S
N1898 C1900 1.356 . S
N1898 H1910 0.984 . S
N1898 H1911 0.985 . S
N1899 C1901 1.356 . S
N1899 H1904 0.984 . S
N1899 H1905 0.985 . S
C1900 C1894 1.379 . S
C1900 C1897 1.363 . S
C1900 N1898 1.356 . S
C1901 C1895 1.363 . S
C1901 C1896 1.379 . S
C1901 N1899 1.356 . S
N1902 C1894 1.356 1_455 S
N1902 H1908 0.984 . S
N1902 H1909 0.984 . S
N1903 C1896 1.356 . S
N1903 H1906 0.984 . S
N1903 H1907 0.985 . S
H1904 N1899 0.984 . S
H1905 N1899 0.985 . S
H1906 N1903 0.984 . S
H1907 N1903 0.985 . S
H1908 N1902 0.984 . S
H1909 N1902 0.984 . S
H1910 N1898 0.984 . S
H1911 N1898 0.985 . S
C1912 C1913 1.363 . S
C1912 C1918 1.379 . S
C1912 N1920 1.356 . S
C1913 C1912 1.363 . S
C1913 C1919 1.363 . S
C1914 C1915 1.363 . S
C1914 C1919 1.379 . S
C1914 N1921 1.356 . S
C1915 C1914 1.363 . S
C1915 C1918 1.363 . S
N1916 C1918 1.356 . S
N1916 H1928 0.984 . S
N1916 H1929 0.985 . S
N1917 C1919 1.356 . S
N1917 H1922 0.984 . S
N1917 H1923 0.985 . S
C1918 C1912 1.379 . S
C1918 C1915 1.363 . S
C1918 N1916 1.356 . S
C1919 C1913 1.363 . S
C1919 C1914 1.379 . S
C1919 N1917 1.356 . S
N1920 C1912 1.356 . S
N1920 H1926 0.984 . S
N1920 H1927 0.984 . S
N1921 C1914 1.356 . S
N1921 H1924 0.984 . S
N1921 H1925 0.985 . S
H1922 N1917 0.984 . S
H1923 N1917 0.985 . S
H1924 N1921 0.984 . S
H1925 N1921 0.985 . S
H1926 N1920 0.984 . S
H1927 N1920 0.984 . S
H1928 N1916 0.984 . S
H1929 N1916 0.985 . S
C1930 C1931 1.363 . S
C1930 C1936 1.379 . S
C1930 N1938 1.356 . S
C1931 C1930 1.363 . S
C1931 C1937 1.363 . S
C1932 C1933 1.363 . S
C1932 C1937 1.379 . S
C1932 N1939 1.356 . S
C1933 C1932 1.363 . S
C1933 C1936 1.363 . S
N1934 C1936 1.356 . S
N1934 H1946 0.984 . S
N1934 H1947 0.985 . S
N1935 C1937 1.356 . S
N1935 H1940 0.984 . S
N1935 H1941 0.985 . S
C1936 C1930 1.379 . S
C1936 C1933 1.363 . S
C1936 N1934 1.356 . S
C1937 C1931 1.363 . S
C1937 C1932 1.379 . S
C1937 N1935 1.356 . S
N1938 C1930 1.356 . S
N1938 H1944 0.984 . S
N1938 H1945 0.984 . S
N1939 C1932 1.356 . S
N1939 H1942 0.984 . S
N1939 H1943 0.985 . S
H1940 N1935 0.984 . S
H1941 N1935 0.985 . S
H1942 N1939 0.984 . S
H1943 N1939 0.985 . S
H1944 N1938 0.984 . S
H1945 N1938 0.984 . S
H1946 N1934 0.984 . S
H1947 N1934 0.985 . S
C1948 C1949 1.363 . S
C1948 C1954 1.379 . S
C1948 N1956 1.356 . S
C1949 C1948 1.363 . S
C1949 C1955 1.363 . S
C1950 C1951 1.363 . S
C1950 C1955 1.379 . S
C1950 N1957 1.356 . S
C1951 C1950 1.363 . S
C1951 C1954 1.363 . S
N1952 C1954 1.356 . S
N1952 H1964 0.984 . S
N1952 H1965 0.985 . S
N1953 C1955 1.356 . S
N1953 H1958 0.984 . S
N1953 H1959 0.985 . S
C1954 C1948 1.379 . S
C1954 C1951 1.363 . S
C1954 N1952 1.356 . S
C1955 C1949 1.363 . S
C1955 C1950 1.379 . S
C1955 N1953 1.356 . S
N1956 C1948 1.356 . S
N1956 H1962 0.984 . S
N1956 H1963 0.984 . S
N1957 C1950 1.356 . S
N1957 H1960 0.984 . S
N1957 H1961 0.985 . S
H1958 N1953 0.984 . S
H1959 N1953 0.985 . S
H1960 N1957 0.984 . S
H1961 N1957 0.985 . S
H1962 N1956 0.984 . S
H1963 N1956 0.984 . S
H1964 N1952 0.984 . S
H1965 N1952 0.985 . S
C1966 C1967 1.363 . S
C1966 C1972 1.379 . S
C1966 N1974 1.356 . S
C1967 C1966 1.363 . S
C1967 C1973 1.363 . S
C1968 C1969 1.363 . S
C1968 C1973 1.379 . S
C1968 N1975 1.356 . S
C1969 C1968 1.363 . S
C1969 C1972 1.363 . S
N1970 C1972 1.356 . S
N1970 H1982 0.984 . S
N1970 H1983 0.985 . S
N1971 C1973 1.356 . S
N1971 H1976 0.984 . S
N1971 H1977 0.985 . S
C1972 C1966 1.379 . S
C1972 C1969 1.363 . S
C1972 N1970 1.356 . S
C1973 C1967 1.363 . S
C1973 C1968 1.379 . S
C1973 N1971 1.356 . S
N1974 C1966 1.356 . S
N1974 H1980 0.984 . S
N1974 H1981 0.984 . S
N1975 C1968 1.356 . S
N1975 H1978 0.984 . S
N1975 H1979 0.985 . S
H1976 N1971 0.984 . S
H1977 N1971 0.985 . S
H1978 N1975 0.984 . S
H1979 N1975 0.985 . S
H1980 N1974 0.984 . S
H1981 N1974 0.984 . S
H1982 N1970 0.984 . S
H1983 N1970 0.985 . S
C1984 C1985 1.363 . S
C1984 C1990 1.379 . S
C1984 N1992 1.356 . S
C1985 C1984 1.363 . S
C1985 C1991 1.363 . S
C1986 C1987 1.363 . S
C1986 C1991 1.379 . S
C1986 N1993 1.356 . S
C1987 C1986 1.363 . S
C1987 C1990 1.363 . S
N1988 C1990 1.356 . S
N1988 H2000 0.984 . S
N1988 H2001 0.985 . S
N1989 C1991 1.356 . S
N1989 H1994 0.984 . S
N1989 H1995 0.985 . S
C1990 C1984 1.379 . S
C1990 C1987 1.363 . S
C1990 N1988 1.356 . S
C1991 C1985 1.363 . S
C1991 C1986 1.379 . S
C1991 N1989 1.356 . S
N1992 C1984 1.356 . S
N1992 H1998 0.984 . S
N1992 H1999 0.984 . S
N1993 C1986 1.356 . S
N1993 H1996 0.984 . S
N1993 H1997 0.985 . S
H1994 N1989 0.984 . S
H1995 N1989 0.985 . S
H1996 N1993 0.984 . S
H1997 N1993 0.985 . S
H1998 N1992 0.984 . S
H1999 N1992 0.984 . S
H2000 N1988 0.984 . S
H2001 N1988 0.985 . S
C2002 C2003 1.363 . S
C2002 C2008 1.379 . S
C2002 N2010 1.356 . S
C2003 C2002 1.363 . S
C2003 C2009 1.363 . S
C2004 C2005 1.363 . S
C2004 C2009 1.379 . S
C2004 N2011 1.356 . S
C2005 C2004 1.363 . S
C2005 C2008 1.363 . S
N2006 C2008 1.356 . S
N2006 H2018 0.984 . S
N2006 H2019 0.985 . S
N2007 C2009 1.356 . S
N2007 H2012 0.984 . S
N2007 H2013 0.985 . S
C2008 C2002 1.379 . S
C2008 C2005 1.363 . S
C2008 N2006 1.356 . S
C2009 C2003 1.363 . S
C2009 C2004 1.379 . S
C2009 N2007 1.356 . S
N2010 C2002 1.356 . S
N2010 H2016 0.984 . S
N2010 H2017 0.984 . S
N2011 C2004 1.356 . S
N2011 H2014 0.984 . S
N2011 H2015 0.985 . S
H2012 N2007 0.984 . S
H2013 N2007 0.985 . S
H2014 N2011 0.984 . S
H2015 N2011 0.985 . S
H2016 N2010 0.984 . S
H2017 N2010 0.984 . S
H2018 N2006 0.984 . S
H2019 N2006 0.985 . S
C2020 C2021 1.363 . S
C2020 C2026 1.379 . S
C2020 N2028 1.356 . S
C2021 C2020 1.363 . S
C2021 C2027 1.363 . S
C2022 C2023 1.363 . S
C2022 C2027 1.379 . S
C2022 N2029 1.356 . S
C2023 C2022 1.363 . S
C2023 C2026 1.363 . S
N2024 C2026 1.356 . S
N2024 H2036 0.984 . S
N2024 H2037 0.985 . S
N2025 C2027 1.356 . S
N2025 H2030 0.984 . S
N2025 H2031 0.985 . S
C2026 C2020 1.379 . S
C2026 C2023 1.363 . S
C2026 N2024 1.356 . S
C2027 C2021 1.363 . S
C2027 C2022 1.379 . S
C2027 N2025 1.356 . S
N2028 C2020 1.356 . S
N2028 H2034 0.984 . S
N2028 H2035 0.984 . S
N2029 C2022 1.356 . S
N2029 H2032 0.984 . S
N2029 H2033 0.985 . S
H2030 N2025 0.984 . S
H2031 N2025 0.985 . S
H2032 N2029 0.984 . S
H2033 N2029 0.985 . S
H2034 N2028 0.984 . S
H2035 N2028 0.984 . S
H2036 N2024 0.984 . S
H2037 N2024 0.985 . S
C2038 C2039 1.363 . S
C2038 C2044 1.379 . S
C2038 N2046 1.356 . S
C2039 C2038 1.363 . S
C2039 C2045 1.363 . S
C2040 C2041 1.363 . S
C2040 C2045 1.379 . S
C2040 N2047 1.356 . S
C2041 C2040 1.363 . S
C2041 C2044 1.363 . S
N2042 C2044 1.356 . S
N2042 H2054 0.984 . S
N2042 H2055 0.985 . S
N2043 C2045 1.356 . S
N2043 H2048 0.984 . S
N2043 H2049 0.985 . S
C2044 C2038 1.379 . S
C2044 C2041 1.363 . S
C2044 N2042 1.356 . S
C2045 C2039 1.363 . S
C2045 C2040 1.379 . S
C2045 N2043 1.356 . S
N2046 C2038 1.356 . S
N2046 H2052 0.984 . S
N2046 H2053 0.984 . S
N2047 C2040 1.356 . S
N2047 H2050 0.984 . S
N2047 H2051 0.985 . S
H2048 N2043 0.984 . S
H2049 N2043 0.985 . S
H2050 N2047 0.984 . S
H2051 N2047 0.985 . S
H2052 N2046 0.984 . S
H2053 N2046 0.984 . S
H2054 N2042 0.984 . S
H2055 N2042 0.985 . S
C2056 C2057 1.363 . S
C2056 C2062 1.379 . S
C2056 N2064 1.356 . S
C2057 C2056 1.363 . S
C2057 C2063 1.363 . S
C2058 C2059 1.363 . S
C2058 C2063 1.379 . S
C2058 N2065 1.356 . S
C2059 C2058 1.363 . S
C2059 C2062 1.363 . S
N2060 C2062 1.356 . S
N2060 H2072 0.984 . S
N2060 H2073 0.985 1_556 S
N2061 C2063 1.356 . S
N2061 H2066 0.984 . S
N2061 H2067 0.985 . S
C2062 C2056 1.379 . S
C2062 C2059 1.363 . S
C2062 N2060 1.356 . S
C2063 C2057 1.363 . S
C2063 C2058 1.379 . S
C2063 N2061 1.356 . S
N2064 C2056 1.356 . S
N2064 H2070 0.984 . S
N2064 H2071 0.984 . S
N2065 C2058 1.356 . S
N2065 H2068 0.984 1_556 S
N2065 H2069 0.985 . S
H2066 N2061 0.984 . S
H2067 N2061 0.985 . S
H2068 N2065 0.984 1_554 S
H2069 N2065 0.985 . S
H2070 N2064 0.984 . S
H2071 N2064 0.984 . S
H2072 N2060 0.984 . S
H2073 N2060 0.985 1_554 S
C2074 C2075 1.363 . S
C2074 C2080 1.379 . S
C2074 N2082 1.356 . S
C2075 C2074 1.363 . S
C2075 C2081 1.363 . S
C2076 C2077 1.363 . S
C2076 C2081 1.379 . S
C2076 N2083 1.356 . S
C2077 C2076 1.363 . S
C2077 C2080 1.363 . S
N2078 C2080 1.356 . S
N2078 H2090 0.984 . S
N2078 H2091 0.985 . S
N2079 C2081 1.356 . S
N2079 H2084 0.984 . S
N2079 H2085 0.985 . S
C2080 C2074 1.379 . S
C2080 C2077 1.363 . S
C2080 N2078 1.356 . S
C2081 C2075 1.363 . S
C2081 C2076 1.379 . S
C2081 N2079 1.356 . S
N2082 C2074 1.356 . S
N2082 H2088 0.984 . S
N2082 H2089 0.984 . S
N2083 C2076 1.356 . S
N2083 H2086 0.984 . S
N2083 H2087 0.985 . S
H2084 N2079 0.984 . S
H2085 N2079 0.985 . S
H2086 N2083 0.984 . S
H2087 N2083 0.985 . S
H2088 N2082 0.984 . S
H2089 N2082 0.984 . S
H2090 N2078 0.984 . S
H2091 N2078 0.985 . S
C2092 C2093 1.363 . S
C2092 C2098 1.379 . S
C2092 N2100 1.356 . S
C2093 C2092 1.363 . S
C2093 C2099 1.363 . S
C2094 C2095 1.363 . S
C2094 C2099 1.379 . S
C2094 N2101 1.356 . S
C2095 C2094 1.363 . S
C2095 C2098 1.363 . S
N2096 C2098 1.356 . S
N2096 H2108 0.984 . S
N2096 H2109 0.985 . S
N2097 C2099 1.356 . S
N2097 H2102 0.984 . S
N2097 H2103 0.985 . S
C2098 C2092 1.379 . S
C2098 C2095 1.363 . S
C2098 N2096 1.356 . S
C2099 C2093 1.363 . S
C2099 C2094 1.379 . S
C2099 N2097 1.356 . S
N2100 C2092 1.356 . S
N2100 H2106 0.984 . S
N2100 H2107 0.984 . S
N2101 C2094 1.356 . S
N2101 H2104 0.984 . S
N2101 H2105 0.985 . S
H2102 N2097 0.984 . S
H2103 N2097 0.985 . S
H2104 N2101 0.984 . S
H2105 N2101 0.985 . S
H2106 N2100 0.984 . S
H2107 N2100 0.984 . S
H2108 N2096 0.984 . S
H2109 N2096 0.985 . S
C2110 C2111 1.363 . S
C2110 C2116 1.379 . S
C2110 N2118 1.356 . S
C2111 C2110 1.363 . S
C2111 C2117 1.363 . S
C2112 C2113 1.363 . S
C2112 C2117 1.379 . S
C2112 N2119 1.356 . S
C2113 C2112 1.363 . S
C2113 C2116 1.363 . S
N2114 C2116 1.356 . S
N2114 H2126 0.984 . S
N2114 H2127 0.985 . S
N2115 C2117 1.356 . S
N2115 H2120 0.984 . S
N2115 H2121 0.985 . S
C2116 C2110 1.379 . S
C2116 C2113 1.363 . S
C2116 N2114 1.356 . S
C2117 C2111 1.363 . S
C2117 C2112 1.379 . S
C2117 N2115 1.356 . S
N2118 C2110 1.356 . S
N2118 H2124 0.984 . S
N2118 H2125 0.984 . S
N2119 C2112 1.356 . S
N2119 H2122 0.984 . S
N2119 H2123 0.985 . S
H2120 N2115 0.984 . S
H2121 N2115 0.985 . S
H2122 N2119 0.984 . S
H2123 N2119 0.985 . S
H2124 N2118 0.984 . S
H2125 N2118 0.984 . S
H2126 N2114 0.984 . S
H2127 N2114 0.985 . S
C2128 C2129 1.363 . S
C2128 C2134 1.379 . S
C2128 N2136 1.356 . S
C2129 C2128 1.363 . S
C2129 C2135 1.363 . S
C2130 C2131 1.363 . S
C2130 C2135 1.379 . S
C2130 N2137 1.356 . S
C2131 C2130 1.363 . S
C2131 C2134 1.363 . S
N2132 C2134 1.356 . S
N2132 H2144 0.984 . S
N2132 H2145 0.985 . S
N2133 C2135 1.356 . S
N2133 H2138 0.984 . S
N2133 H2139 0.985 . S
C2134 C2128 1.379 . S
C2134 C2131 1.363 . S
C2134 N2132 1.356 . S
C2135 C2129 1.363 . S
C2135 C2130 1.379 . S
C2135 N2133 1.356 . S
N2136 C2128 1.356 . S
N2136 H2142 0.984 . S
N2136 H2143 0.984 . S
N2137 C2130 1.356 . S
N2137 H2140 0.984 . S
N2137 H2141 0.985 . S
H2138 N2133 0.984 . S
H2139 N2133 0.985 . S
H2140 N2137 0.984 . S
H2141 N2137 0.985 . S
H2142 N2136 0.984 . S
H2143 N2136 0.984 . S
H2144 N2132 0.984 . S
H2145 N2132 0.985 . S
C2146 C2147 1.363 . S
C2146 C2152 1.379 . S
C2146 N2154 1.356 . S
C2147 C2146 1.363 . S
C2147 C2153 1.363 . S
C2148 C2149 1.363 . S
C2148 C2153 1.379 . S
C2148 N2155 1.356 . S
C2149 C2148 1.363 . S
C2149 C2152 1.363 . S
N2150 C2152 1.356 . S
N2150 H2162 0.984 . S
N2150 H2163 0.985 . S
N2151 C2153 1.356 . S
N2151 H2156 0.984 . S
N2151 H2157 0.985 . S
C2152 C2146 1.379 . S
C2152 C2149 1.363 . S
C2152 N2150 1.356 . S
C2153 C2147 1.363 . S
C2153 C2148 1.379 . S
C2153 N2151 1.356 . S
N2154 C2146 1.356 . S
N2154 H2160 0.984 . S
N2154 H2161 0.984 . S
N2155 C2148 1.356 . S
N2155 H2158 0.984 . S
N2155 H2159 0.985 . S
H2156 N2151 0.984 . S
H2157 N2151 0.985 . S
H2158 N2155 0.984 . S
H2159 N2155 0.985 . S
H2160 N2154 0.984 . S
H2161 N2154 0.984 . S
H2162 N2150 0.984 . S
H2163 N2150 0.985 . S
C2164 C2165 1.363 . S
C2164 C2170 1.379 . S
C2164 N2172 1.356 1_565 S
C2165 C2164 1.363 . S
C2165 C2171 1.363 . S
C2166 C2167 1.363 . S
C2166 C2171 1.379 . S
C2166 N2173 1.356 . S
C2167 C2166 1.363 . S
C2167 C2170 1.363 . S
N2168 C2170 1.356 . S
N2168 H2180 0.984 . S
N2168 H2181 0.985 . S
N2169 C2171 1.359 . S
N2169 H2174 0.977 1_565 S
N2169 H2175 0.989 . S
C2170 C2164 1.379 . S
C2170 C2167 1.363 . S
C2170 N2168 1.356 . S
C2171 C2165 1.363 . S
C2171 C2166 1.379 . S
C2171 N2169 1.359 . S
N2172 C2164 1.356 1_545 S
N2172 H2178 0.984 . S
N2172 H2179 0.984 . S
N2173 C2166 1.356 . S
N2173 H2176 0.984 . S
N2173 H2177 0.985 . S
H2174 N2169 0.977 1_545 S
H2175 N2169 0.989 . S
H2176 N2173 0.984 . S
H2177 N2173 0.985 . S
H2178 N2172 0.984 . S
H2179 N2172 0.984 . S
H2180 N2168 0.984 . S
H2181 N2168 0.985 . S
C2182 C2183 1.363 . S
C2182 C2188 1.379 . S
C2182 N2190 1.356 1_554 S
C2183 C2182 1.363 . S
C2183 C2189 1.363 . S
C2184 C2185 1.363 . S
C2184 C2189 1.379 . S
C2184 N2191 1.356 . S
C2185 C2184 1.363 . S
C2185 C2188 1.363 . S
N2186 C2188 1.356 . S
N2186 H2198 0.984 1_554 S
N2186 H2199 0.985 . S
N2187 C2189 1.356 . S
N2187 H2192 0.984 . S
N2187 H2193 0.985 . S
C2188 C2182 1.379 . S
C2188 C2185 1.363 . S
C2188 N2186 1.356 . S
C2189 C2183 1.363 . S
C2189 C2184 1.379 . S
C2189 N2187 1.356 . S
N2190 C2182 1.356 1_556 S
N2190 H2196 0.984 . S
N2190 H2197 0.984 . S
N2191 C2184 1.356 . S
N2191 H2194 0.984 . S
N2191 H2195 0.985 . S
H2192 N2187 0.984 . S
H2193 N2187 0.985 . S
H2194 N2191 0.984 . S
H2195 N2191 0.985 . S
H2196 N2190 0.984 . S
H2197 N2190 0.984 . S
H2198 N2186 0.984 1_556 S
H2199 N2186 0.985 . S
C2200 C2201 1.363 . S
C2200 C2206 1.379 . S
C2200 N2208 1.356 . S
C2201 C2200 1.363 . S
C2201 C2207 1.363 . S
C2202 C2203 1.363 . S
C2202 C2207 1.379 . S
C2202 N2209 1.356 . S
C2203 C2202 1.363 . S
C2203 C2206 1.363 . S
N2204 C2206 1.356 . S
N2204 H2216 0.984 . S
N2204 H2217 0.985 . S
N2205 C2207 1.356 . S
N2205 H2210 0.984 . S
N2205 H2211 0.985 . S
C2206 C2200 1.379 . S
C2206 C2203 1.363 . S
C2206 N2204 1.356 . S
C2207 C2201 1.363 . S
C2207 C2202 1.379 . S
C2207 N2205 1.356 . S
N2208 C2200 1.356 . S
N2208 H2214 0.984 . S
N2208 H2215 0.984 . S
N2209 C2202 1.356 . S
N2209 H2212 0.984 . S
N2209 H2213 0.985 . S
H2210 N2205 0.984 . S
H2211 N2205 0.985 . S
H2212 N2209 0.984 . S
H2213 N2209 0.985 . S
H2214 N2208 0.984 . S
H2215 N2208 0.984 . S
H2216 N2204 0.984 . S
H2217 N2204 0.985 . S
C2218 C2219 1.363 . S
C2218 C2224 1.379 . S
C2218 N2226 1.356 . S
C2219 C2218 1.363 . S
C2219 C2225 1.363 . S
C2220 C2221 1.363 . S
C2220 C2225 1.379 . S
C2220 N2227 1.356 . S
C2221 C2220 1.363 . S
C2221 C2224 1.363 . S
N2222 C2224 1.356 . S
N2222 H2234 0.984 . S
N2222 H2235 0.985 . S
N2223 C2225 1.356 . S
N2223 H2228 0.984 . S
N2223 H2229 0.985 . S
C2224 C2218 1.379 . S
C2224 C2221 1.363 . S
C2224 N2222 1.356 . S
C2225 C2219 1.363 . S
C2225 C2220 1.379 . S
C2225 N2223 1.356 . S
N2226 C2218 1.356 . S
N2226 H2232 0.984 . S
N2226 H2233 0.984 . S
N2227 C2220 1.356 . S
N2227 H2230 0.984 . S
N2227 H2231 0.985 . S
H2228 N2223 0.984 . S
H2229 N2223 0.985 . S
H2230 N2227 0.984 . S
H2231 N2227 0.985 . S
H2232 N2226 0.984 . S
H2233 N2226 0.984 . S
H2234 N2222 0.984 . S
H2235 N2222 0.985 . S
C2236 C2237 1.363 . S
C2236 C2242 1.379 . S
C2236 N2244 1.356 . S
C2237 C2236 1.363 . S
C2237 C2243 1.363 . S
C2238 C2239 1.363 . S
C2238 C2243 1.379 . S
C2238 N2245 1.356 . S
C2239 C2238 1.363 . S
C2239 C2242 1.363 . S
N2240 C2242 1.356 . S
N2240 H2252 0.984 . S
N2240 H2253 0.985 . S
N2241 C2243 1.356 . S
N2241 H2246 0.984 . S
N2241 H2247 0.985 . S
C2242 C2236 1.379 . S
C2242 C2239 1.363 . S
C2242 N2240 1.356 . S
C2243 C2237 1.363 . S
C2243 C2238 1.379 . S
C2243 N2241 1.356 . S
N2244 C2236 1.356 . S
N2244 H2250 0.984 . S
N2244 H2251 0.984 . S
N2245 C2238 1.356 . S
N2245 H2248 0.984 . S
N2245 H2249 0.985 . S
H2246 N2241 0.984 . S
H2247 N2241 0.985 . S
H2248 N2245 0.984 . S
H2249 N2245 0.985 . S
H2250 N2244 0.984 . S
H2251 N2244 0.984 . S
H2252 N2240 0.984 . S
H2253 N2240 0.985 . S
C2254 C2255 1.363 . S
C2254 C2260 1.379 . S
C2254 N2262 1.356 . S
C2255 C2254 1.363 . S
C2255 C2261 1.363 . S
C2256 C2257 1.363 . S
C2256 C2261 1.379 . S
C2256 N2263 1.356 . S
C2257 C2256 1.363 . S
C2257 C2260 1.363 . S
N2258 C2260 1.356 . S
N2258 H2270 0.984 . S
N2258 H2271 0.985 . S
N2259 C2261 1.356 . S
N2259 H2264 0.984 . S
N2259 H2265 0.985 . S
C2260 C2254 1.379 . S
C2260 C2257 1.363 . S
C2260 N2258 1.356 . S
C2261 C2255 1.363 . S
C2261 C2256 1.379 . S
C2261 N2259 1.356 . S
N2262 C2254 1.356 . S
N2262 H2268 0.984 . S
N2262 H2269 0.984 . S
N2263 C2256 1.356 . S
N2263 H2266 0.984 . S
N2263 H2267 0.985 . S
H2264 N2259 0.984 . S
H2265 N2259 0.985 . S
H2266 N2263 0.984 . S
H2267 N2263 0.985 . S
H2268 N2262 0.984 . S
H2269 N2262 0.984 . S
H2270 N2258 0.984 . S
H2271 N2258 0.985 . S
C2272 C2273 1.363 . S
C2272 C2278 1.379 . S
C2272 N2280 1.356 . S
C2273 C2272 1.363 . S
C2273 C2279 1.363 . S
C2274 C2275 1.363 . S
C2274 C2279 1.379 . S
C2274 N2281 1.356 . S
C2275 C2274 1.363 . S
C2275 C2278 1.363 . S
N2276 C2278 1.356 . S
N2276 H2288 0.984 . S
N2276 H2289 0.985 . S
N2277 C2279 1.356 . S
N2277 H2282 0.984 . S
N2277 H2283 0.985 . S
C2278 C2272 1.379 . S
C2278 C2275 1.363 . S
C2278 N2276 1.356 . S
C2279 C2273 1.363 . S
C2279 C2274 1.379 . S
C2279 N2277 1.356 . S
N2280 C2272 1.356 . S
N2280 H2286 0.984 . S
N2280 H2287 0.984 . S
N2281 C2274 1.356 . S
N2281 H2284 0.984 . S
N2281 H2285 0.985 . S
H2282 N2277 0.984 . S
H2283 N2277 0.985 . S
H2284 N2281 0.984 . S
H2285 N2281 0.985 . S
H2286 N2280 0.984 . S
H2287 N2280 0.984 . S
H2288 N2276 0.984 . S
H2289 N2276 0.985 . S
C2290 C2291 1.363 . S
C2290 C2296 1.379 . S
C2290 N2298 1.356 . S
C2291 C2290 1.363 . S
C2291 C2297 1.363 . S
C2292 C2293 1.363 . S
C2292 C2297 1.379 . S
C2292 N2299 1.356 . S
C2293 C2292 1.363 . S
C2293 C2296 1.363 . S
N2294 C2296 1.356 . S
N2294 H2306 0.984 . S
N2294 H2307 0.985 . S
N2295 C2297 1.356 . S
N2295 H2300 0.984 . S
N2295 H2301 0.985 . S
C2296 C2290 1.379 . S
C2296 C2293 1.363 . S
C2296 N2294 1.356 . S
C2297 C2291 1.363 . S
C2297 C2292 1.379 . S
C2297 N2295 1.356 . S
N2298 C2290 1.356 . S
N2298 H2304 0.984 . S
N2298 H2305 0.984 . S
N2299 C2292 1.356 . S
N2299 H2302 0.984 . S
N2299 H2303 0.985 . S
H2300 N2295 0.984 . S
H2301 N2295 0.985 . S
H2302 N2299 0.984 . S
H2303 N2299 0.985 . S
H2304 N2298 0.984 . S
H2305 N2298 0.984 . S
H2306 N2294 0.984 . S
H2307 N2294 0.985 . S
C2308 C2309 1.363 . S
C2308 C2314 1.379 . S
C2308 N2316 1.356 . S
C2309 C2308 1.363 . S
C2309 C2315 1.363 . S
C2310 C2311 1.363 . S
C2310 C2315 1.379 . S
C2310 N2317 1.356 . S
C2311 C2310 1.363 . S
C2311 C2314 1.363 . S
N2312 C2314 1.356 . S
N2312 H2324 0.984 . S
N2312 H2325 0.985 . S
N2313 C2315 1.356 . S
N2313 H2318 0.984 . S
N2313 H2319 0.985 1_455 S
C2314 C2308 1.379 . S
C2314 C2311 1.363 . S
C2314 N2312 1.356 . S
C2315 C2309 1.363 . S
C2315 C2310 1.379 . S
C2315 N2313 1.356 . S
N2316 C2308 1.356 . S
N2316 H2322 0.984 . S
N2316 H2323 0.984 . S
N2317 C2310 1.356 . S
N2317 H2320 0.984 . S
N2317 H2321 0.985 1_455 S
H2318 N2313 0.984 . S
H2319 N2313 0.985 1_655 S
H2320 N2317 0.984 . S
H2321 N2317 0.985 1_655 S
H2322 N2316 0.984 . S
H2323 N2316 0.984 . S
H2324 N2312 0.984 . S
H2325 N2312 0.985 . S
C2326 C2327 1.363 . S
C2326 C2332 1.379 . S
C2326 N2334 1.356 . S
C2327 C2326 1.363 . S
C2327 C2333 1.363 . S
C2328 C2329 1.363 . S
C2328 C2333 1.379 . S
C2328 N2335 1.356 . S
C2329 C2328 1.363 . S
C2329 C2332 1.363 . S
N2330 C2332 1.356 . S
N2330 H2342 0.984 . S
N2330 H2343 0.985 . S
N2331 C2333 1.356 . S
N2331 H2336 0.984 . S
N2331 H2337 0.985 . S
C2332 C2326 1.379 . S
C2332 C2329 1.363 . S
C2332 N2330 1.356 . S
C2333 C2327 1.363 . S
C2333 C2328 1.379 . S
C2333 N2331 1.356 . S
N2334 C2326 1.356 . S
N2334 H2340 0.984 . S
N2334 H2341 0.984 . S
N2335 C2328 1.356 . S
N2335 H2338 0.984 . S
N2335 H2339 0.985 . S
H2336 N2331 0.984 . S
H2337 N2331 0.985 . S
H2338 N2335 0.984 . S
H2339 N2335 0.985 . S
H2340 N2334 0.984 . S
H2341 N2334 0.984 . S
H2342 N2330 0.984 . S
H2343 N2330 0.985 . S
C2344 C2345 1.363 . S
C2344 C2350 1.379 1_556 S
C2344 N2352 1.356 1_556 S
C2345 C2344 1.363 . S
C2345 C2351 1.363 . S
C2346 C2347 1.363 . S
C2346 C2351 1.379 . S
C2346 N2353 1.356 . S
C2347 C2346 1.363 . S
C2347 C2350 1.363 1_556 S
N2348 C2350 1.356 . S
N2348 H2360 0.984 . S
N2348 H2361 0.985 . S
N2349 C2351 1.356 . S
N2349 H2354 0.984 . S
N2349 H2355 0.985 . S
C2350 C2344 1.379 1_554 S
C2350 C2347 1.363 1_554 S
C2350 N2348 1.356 . S
C2351 C2345 1.363 . S
C2351 C2346 1.379 . S
C2351 N2349 1.356 . S
N2352 C2344 1.356 1_554 S
N2352 H2358 0.984 . S
N2352 H2359 0.984 1_554 S
N2353 C2346 1.356 . S
N2353 H2356 0.984 . S
N2353 H2357 0.985 . S
H2354 N2349 0.984 . S
H2355 N2349 0.985 . S
H2356 N2353 0.984 . S
H2357 N2353 0.985 . S
H2358 N2352 0.984 . S
H2359 N2352 0.984 1_556 S
H2360 N2348 0.984 . S
H2361 N2348 0.985 . S
C2362 C2363 1.363 . S
C2362 C2368 1.379 . S
C2362 N2370 1.356 . S
C2363 C2362 1.363 . S
C2363 C2369 1.363 . S
C2364 C2365 1.363 . S
C2364 C2369 1.379 . S
C2364 N2371 1.356 . S
C2365 C2364 1.363 . S
C2365 C2368 1.363 . S
N2366 C2368 1.356 . S
N2366 H2378 0.984 . S
N2366 H2379 0.985 . S
N2367 C2369 1.356 . S
N2367 H2372 0.984 . S
N2367 H2373 0.985 . S
C2368 C2362 1.379 . S
C2368 C2365 1.363 . S
C2368 N2366 1.356 . S
C2369 C2363 1.363 . S
C2369 C2364 1.379 . S
C2369 N2367 1.356 . S
N2370 C2362 1.356 . S
N2370 H2376 0.984 . S
N2370 H2377 0.984 . S
N2371 C2364 1.356 . S
N2371 H2374 0.984 . S
N2371 H2375 0.985 . S
H2372 N2367 0.984 . S
H2373 N2367 0.985 . S
H2374 N2371 0.984 . S
H2375 N2371 0.985 . S
H2376 N2370 0.984 . S
H2377 N2370 0.984 . S
H2378 N2366 0.984 . S
H2379 N2366 0.985 . S
C2380 C2381 1.363 . S
C2380 C2386 1.379 . S
C2380 N2388 1.356 1_455 S
C2381 C2380 1.363 . S
C2381 C2387 1.363 . S
C2382 C2383 1.363 . S
C2382 C2387 1.379 . S
C2382 N2389 1.356 . S
C2383 C2382 1.363 . S
C2383 C2386 1.363 . S
N2384 C2386 1.356 1_655 S
N2384 H2396 0.984 . S
N2384 H2397 0.985 1_655 S
N2385 C2387 1.356 . S
N2385 H2390 0.984 . S
N2385 H2391 0.985 . S
C2386 C2380 1.379 . S
C2386 C2383 1.363 . S
C2386 N2384 1.356 1_455 S
C2387 C2381 1.363 . S
C2387 C2382 1.379 . S
C2387 N2385 1.356 . S
N2388 C2380 1.356 1_655 S
N2388 H2394 0.984 . S
N2388 H2395 0.984 . S
N2389 C2382 1.356 . S
N2389 H2392 0.984 . S
N2389 H2393 0.985 . S
H2390 N2385 0.984 . S
H2391 N2385 0.985 . S
H2392 N2389 0.984 . S
H2393 N2389 0.985 . S
H2394 N2388 0.984 . S
H2395 N2388 0.984 . S
H2396 N2384 0.984 . S
H2397 N2384 0.985 1_455 S
C2398 C2399 1.363 . S
C2398 C2404 1.379 . S
C2398 N2406 1.356 . S
C2399 C2398 1.363 . S
C2399 C2405 1.363 . S
C2400 C2401 1.363 . S
C2400 C2405 1.379 . S
C2400 N2407 1.356 . S
C2401 C2400 1.363 . S
C2401 C2404 1.363 . S
N2402 C2404 1.356 . S
N2402 H2414 0.984 . S
N2402 H2415 0.985 . S
N2403 C2405 1.356 . S
N2403 H2408 0.984 . S
N2403 H2409 0.985 . S
C2404 C2398 1.379 . S
C2404 C2401 1.363 . S
C2404 N2402 1.356 . S
C2405 C2399 1.363 . S
C2405 C2400 1.379 . S
C2405 N2403 1.356 . S
N2406 C2398 1.356 . S
N2406 H2412 0.984 . S
N2406 H2413 0.984 . S
N2407 C2400 1.356 . S
N2407 H2410 0.984 . S
N2407 H2411 0.985 . S
H2408 N2403 0.984 . S
H2409 N2403 0.985 . S
H2410 N2407 0.984 . S
H2411 N2407 0.985 . S
H2412 N2406 0.984 . S
H2413 N2406 0.984 . S
H2414 N2402 0.984 . S
H2415 N2402 0.985 . S
C2416 C2417 1.363 . S
C2416 C2422 1.379 . S
C2416 N2424 1.356 . S
C2417 C2416 1.363 . S
C2417 C2423 1.363 . S
C2418 C2419 1.363 . S
C2418 C2423 1.379 . S
C2418 N2425 1.356 . S
C2419 C2418 1.363 . S
C2419 C2422 1.363 . S
N2420 C2422 1.356 . S
N2420 H2432 0.984 . S
N2420 H2433 0.985 . S
N2421 C2423 1.356 . S
N2421 H2426 0.984 . S
N2421 H2427 0.985 . S
C2422 C2416 1.379 . S
C2422 C2419 1.363 . S
C2422 N2420 1.356 . S
C2423 C2417 1.363 . S
C2423 C2418 1.379 . S
C2423 N2421 1.356 . S
N2424 C2416 1.356 . S
N2424 H2430 0.984 . S
N2424 H2431 0.984 . S
N2425 C2418 1.356 . S
N2425 H2428 0.984 . S
N2425 H2429 0.985 . S
H2426 N2421 0.984 . S
H2427 N2421 0.985 . S
H2428 N2425 0.984 . S
H2429 N2425 0.985 . S
H2430 N2424 0.984 . S
H2431 N2424 0.984 . S
H2432 N2420 0.984 . S
H2433 N2420 0.985 . S
C2434 C2435 1.363 . S
C2434 C2440 1.379 . S
C2434 N2442 1.356 . S
C2435 C2434 1.363 . S
C2435 C2441 1.363 . S
C2436 C2437 1.363 . S
C2436 C2441 1.379 . S
C2436 N2443 1.356 . S
C2437 C2436 1.363 . S
C2437 C2440 1.363 . S
N2438 C2440 1.356 . S
N2438 H2450 0.984 . S
N2438 H2451 0.985 . S
N2439 C2441 1.356 . S
N2439 H2444 0.984 . S
N2439 H2445 0.985 . S
C2440 C2434 1.379 . S
C2440 C2437 1.363 . S
C2440 N2438 1.356 . S
C2441 C2435 1.363 . S
C2441 C2436 1.379 . S
C2441 N2439 1.356 . S
N2442 C2434 1.356 . S
N2442 H2448 0.984 . S
N2442 H2449 0.984 . S
N2443 C2436 1.356 . S
N2443 H2446 0.984 . S
N2443 H2447 0.985 . S
H2444 N2439 0.984 . S
H2445 N2439 0.985 . S
H2446 N2443 0.984 . S
H2447 N2443 0.985 . S
H2448 N2442 0.984 . S
H2449 N2442 0.984 . S
H2450 N2438 0.984 . S
H2451 N2438 0.985 . S
C2452 C2453 1.363 . S
C2452 C2458 1.379 1_655 S
C2452 N2460 1.356 . S
C2453 C2452 1.363 . S
C2453 C2459 1.363 . S
C2454 C2455 1.363 . S
C2454 C2459 1.379 . S
C2454 N2461 1.356 . S
C2455 C2454 1.363 . S
C2455 C2458 1.363 1_655 S
N2456 C2458 1.356 . S
N2456 H2468 0.984 . S
N2456 H2469 0.985 1_556 S
N2457 C2459 1.356 . S
N2457 H2462 0.984 . S
N2457 H2463 0.985 . S
C2458 C2452 1.379 1_455 S
C2458 C2455 1.363 1_455 S
C2458 N2456 1.356 . S
C2459 C2453 1.363 . S
C2459 C2454 1.379 . S
C2459 N2457 1.356 . S
N2460 C2452 1.356 . S
N2460 H2466 0.984 . S
N2460 H2467 0.984 . S
N2461 C2454 1.356 . S
N2461 H2464 0.984 . S
N2461 H2465 0.985 . S
H2462 N2457 0.984 . S
H2463 N2457 0.985 . S
H2464 N2461 0.984 . S
H2465 N2461 0.985 . S
H2466 N2460 0.984 . S
H2467 N2460 0.984 . S
H2468 N2456 0.984 . S
H2469 N2456 0.985 1_554 S
C2470 C2471 1.363 . S
C2470 C2476 1.379 . S
C2470 N2478 1.356 . S
C2471 C2470 1.363 . S
C2471 C2477 1.363 . S
C2472 C2473 1.363 . S
C2472 C2477 1.379 . S
C2472 N2479 1.356 . S
C2473 C2472 1.363 . S
C2473 C2476 1.363 . S
N2474 C2476 1.356 . S
N2474 H2486 0.984 . S
N2474 H2487 0.985 . S
N2475 C2477 1.356 . S
N2475 H2480 0.984 . S
N2475 H2481 0.985 . S
C2476 C2470 1.379 . S
C2476 C2473 1.363 . S
C2476 N2474 1.356 . S
C2477 C2471 1.363 . S
C2477 C2472 1.379 . S
C2477 N2475 1.356 . S
N2478 C2470 1.356 . S
N2478 H2484 0.984 . S
N2478 H2485 0.984 . S
N2479 C2472 1.356 . S
N2479 H2482 0.984 . S
N2479 H2483 0.985 . S
H2480 N2475 0.984 . S
H2481 N2475 0.985 . S
H2482 N2479 0.984 . S
H2483 N2479 0.985 . S
H2484 N2478 0.984 . S
H2485 N2478 0.984 . S
H2486 N2474 0.984 . S
H2487 N2474 0.985 . S
C2488 C2489 1.363 . S
C2488 C2494 1.379 . S
C2488 N2496 1.356 . S
C2489 C2488 1.363 . S
C2489 C2495 1.363 . S
C2490 C2491 1.363 . S
C2490 C2495 1.379 . S
C2490 N2497 1.356 . S
C2491 C2490 1.363 . S
C2491 C2494 1.363 . S
N2492 C2494 1.356 . S
N2492 H2504 0.984 . S
N2492 H2505 0.985 . S
N2493 C2495 1.356 . S
N2493 H2498 0.984 . S
N2493 H2499 0.985 . S
C2494 C2488 1.379 . S
C2494 C2491 1.363 . S
C2494 N2492 1.356 . S
C2495 C2489 1.363 . S
C2495 C2490 1.379 . S
C2495 N2493 1.356 . S
N2496 C2488 1.356 . S
N2496 H2502 0.984 . S
N2496 H2503 0.984 . S
N2497 C2490 1.356 . S
N2497 H2500 0.984 . S
N2497 H2501 0.985 . S
H2498 N2493 0.984 . S
H2499 N2493 0.985 . S
H2500 N2497 0.984 . S
H2501 N2497 0.985 . S
H2502 N2496 0.984 . S
H2503 N2496 0.984 . S
H2504 N2492 0.984 . S
H2505 N2492 0.985 . S
C2506 C2507 1.363 . S
C2506 C2512 1.379 . S
C2506 N2514 1.356 . S
C2507 C2506 1.363 . S
C2507 C2513 1.363 . S
C2508 C2509 1.363 . S
C2508 C2513 1.379 . S
C2508 N2515 1.356 . S
C2509 C2508 1.363 . S
C2509 C2512 1.363 . S
N2510 C2512 1.356 . S
N2510 H2522 0.984 . S
N2510 H2523 0.985 . S
N2511 C2513 1.356 . S
N2511 H2516 0.984 . S
N2511 H2517 0.985 . S
C2512 C2506 1.379 . S
C2512 C2509 1.363 . S
C2512 N2510 1.356 . S
C2513 C2507 1.363 . S
C2513 C2508 1.379 . S
C2513 N2511 1.356 . S
N2514 C2506 1.356 . S
N2514 H2520 0.984 . S
N2514 H2521 0.984 . S
N2515 C2508 1.356 . S
N2515 H2518 0.984 . S
N2515 H2519 0.985 . S
H2516 N2511 0.984 . S
H2517 N2511 0.985 . S
H2518 N2515 0.984 . S
H2519 N2515 0.985 . S
H2520 N2514 0.984 . S
H2521 N2514 0.984 . S
H2522 N2510 0.984 . S
H2523 N2510 0.985 . S
C2524 C2525 1.363 . S
C2524 C2530 1.379 . S
C2524 N2532 1.356 . S
C2525 C2524 1.363 . S
C2525 C2531 1.363 . S
C2526 C2527 1.363 . S
C2526 C2531 1.379 . S
C2526 N2533 1.356 . S
C2527 C2526 1.363 . S
C2527 C2530 1.363 . S
N2528 C2530 1.356 . S
N2528 H2540 0.984 . S
N2528 H2541 0.985 1_655 S
N2529 C2531 1.356 . S
N2529 H2534 0.984 . S
N2529 H2535 0.985 . S
C2530 C2524 1.379 . S
C2530 C2527 1.363 . S
C2530 N2528 1.356 . S
C2531 C2525 1.363 . S
C2531 C2526 1.379 . S
C2531 N2529 1.356 . S
N2532 C2524 1.356 . S
N2532 H2538 0.984 . S
N2532 H2539 0.984 . S
N2533 C2526 1.356 . S
N2533 H2536 0.984 . S
N2533 H2537 0.985 . S
H2534 N2529 0.984 . S
H2535 N2529 0.985 . S
H2536 N2533 0.984 . S
H2537 N2533 0.985 . S
H2538 N2532 0.984 . S
H2539 N2532 0.984 . S
H2540 N2528 0.984 . S
H2541 N2528 0.985 1_455 S
C2542 C2543 1.363 . S
C2542 C2548 1.379 . S
C2542 N2550 1.356 . S
C2543 C2542 1.363 . S
C2543 C2549 1.363 . S
C2544 C2545 1.363 . S
C2544 C2549 1.379 . S
C2544 N2551 1.356 . S
C2545 C2544 1.363 . S
C2545 C2548 1.363 . S
N2546 C2548 1.356 . S
N2546 H2558 0.984 . S
N2546 H2559 0.985 . S
N2547 C2549 1.356 . S
N2547 H2552 0.984 . S
N2547 H2553 0.985 . S
C2548 C2542 1.379 . S
C2548 C2545 1.363 . S
C2548 N2546 1.356 . S
C2549 C2543 1.363 . S
C2549 C2544 1.379 . S
C2549 N2547 1.356 . S
N2550 C2542 1.356 . S
N2550 H2556 0.984 . S
N2550 H2557 0.984 . S
N2551 C2544 1.356 . S
N2551 H2554 0.984 . S
N2551 H2555 0.985 . S
H2552 N2547 0.984 . S
H2553 N2547 0.985 . S
H2554 N2551 0.984 . S
H2555 N2551 0.985 . S
H2556 N2550 0.984 . S
H2557 N2550 0.984 . S
H2558 N2546 0.984 . S
H2559 N2546 0.985 . S
C2560 C2561 1.363 . S
C2560 C2566 1.379 . S
C2560 N2568 1.356 . S
C2561 C2560 1.363 . S
C2561 C2567 1.363 . S
C2562 C2563 1.363 . S
C2562 C2567 1.379 . S
C2562 N2569 1.356 . S
C2563 C2562 1.363 . S
C2563 C2566 1.363 . S
N2564 C2566 1.356 . S
N2564 H2576 0.984 . S
N2564 H2577 0.985 . S
N2565 C2567 1.356 . S
N2565 H2570 0.984 . S
N2565 H2571 0.985 . S
C2566 C2560 1.379 . S
C2566 C2563 1.363 . S
C2566 N2564 1.356 . S
C2567 C2561 1.363 . S
C2567 C2562 1.379 . S
C2567 N2565 1.356 . S
N2568 C2560 1.356 . S
N2568 H2574 0.984 . S
N2568 H2575 0.984 . S
N2569 C2562 1.356 . S
N2569 H2572 0.984 . S
N2569 H2573 0.985 . S
H2570 N2565 0.984 . S
H2571 N2565 0.985 . S
H2572 N2569 0.984 . S
H2573 N2569 0.985 . S
H2574 N2568 0.984 . S
H2575 N2568 0.984 . S
H2576 N2564 0.984 . S
H2577 N2564 0.985 . S
C2578 C2579 1.363 . S
C2578 C2584 1.379 . S
C2578 N2586 1.356 . S
C2579 C2578 1.363 . S
C2579 C2585 1.363 . S
C2580 C2581 1.363 1_545 S
C2580 C2585 1.379 1_545 S
C2580 N2587 1.356 . S
C2581 C2580 1.363 1_565 S
C2581 C2584 1.363 . S
N2582 C2584 1.356 . S
N2582 H2594 0.984 . S
N2582 H2595 0.985 . S
N2583 C2585 1.356 . S
N2583 H2588 0.984 . S
N2583 H2589 0.985 1_565 S
C2584 C2578 1.379 . S
C2584 C2581 1.363 . S
C2584 N2582 1.356 . S
C2585 C2579 1.363 . S
C2585 C2580 1.379 1_565 S
C2585 N2583 1.356 . S
N2586 C2578 1.356 . S
N2586 H2592 0.984 . S
N2586 H2593 0.984 . S
N2587 C2580 1.356 . S
N2587 H2590 0.984 . S
N2587 H2591 0.985 . S
H2588 N2583 0.984 . S
H2589 N2583 0.985 1_545 S
H2590 N2587 0.984 . S
H2591 N2587 0.985 . S
H2592 N2586 0.984 . S
H2593 N2586 0.984 . S
H2594 N2582 0.984 . S
H2595 N2582 0.985 . S
C2596 C2597 1.363 . S
C2596 C2602 1.379 . S
C2596 N2604 1.356 . S
C2597 C2596 1.363 . S
C2597 C2603 1.363 . S
C2598 C2599 1.363 . S
C2598 C2603 1.379 . S
C2598 N2605 1.356 . S
C2599 C2598 1.363 . S
C2599 C2602 1.363 . S
N2600 C2602 1.356 . S
N2600 H2612 0.984 . S
N2600 H2613 0.985 . S
N2601 C2603 1.356 . S
N2601 H2606 0.984 . S
N2601 H2607 0.985 . S
C2602 C2596 1.379 . S
C2602 C2599 1.363 . S
C2602 N2600 1.356 . S
C2603 C2597 1.363 . S
C2603 C2598 1.379 . S
C2603 N2601 1.356 . S
N2604 C2596 1.356 . S
N2604 H2610 0.984 . S
N2604 H2611 0.984 . S
N2605 C2598 1.356 . S
N2605 H2608 0.984 . S
N2605 H2609 0.985 . S
H2606 N2601 0.984 . S
H2607 N2601 0.985 . S
H2608 N2605 0.984 . S
H2609 N2605 0.985 . S
H2610 N2604 0.984 . S
H2611 N2604 0.984 . S
H2612 N2600 0.984 . S
H2613 N2600 0.985 . S
C2614 C2615 1.363 . S
C2614 C2620 1.379 . S
C2614 N2622 1.356 . S
C2615 C2614 1.363 . S
C2615 C2621 1.363 . S
C2616 C2617 1.363 . S
C2616 C2621 1.379 . S
C2616 N2623 1.356 . S
C2617 C2616 1.363 . S
C2617 C2620 1.363 . S
N2618 C2620 1.356 . S
N2618 H2630 0.984 . S
N2618 H2631 0.985 . S
N2619 C2621 1.356 . S
N2619 H2624 0.984 . S
N2619 H2625 0.985 . S
C2620 C2614 1.379 . S
C2620 C2617 1.363 . S
C2620 N2618 1.356 . S
C2621 C2615 1.363 . S
C2621 C2616 1.379 . S
C2621 N2619 1.356 . S
N2622 C2614 1.356 . S
N2622 H2628 0.984 . S
N2622 H2629 0.984 . S
N2623 C2616 1.356 . S
N2623 H2626 0.984 . S
N2623 H2627 0.985 . S
H2624 N2619 0.984 . S
H2625 N2619 0.985 . S
H2626 N2623 0.984 . S
H2627 N2623 0.985 . S
H2628 N2622 0.984 . S
H2629 N2622 0.984 . S
H2630 N2618 0.984 . S
H2631 N2618 0.985 . S
C2632 C2633 1.363 . S
C2632 C2638 1.379 . S
C2632 N2640 1.356 . S
C2633 C2632 1.363 . S
C2633 C2639 1.363 . S
C2634 C2635 1.363 . S
C2634 C2639 1.379 . S
C2634 N2641 1.356 . S
C2635 C2634 1.363 . S
C2635 C2638 1.363 . S
N2636 C2638 1.356 . S
N2636 H2648 0.984 . S
N2636 H2649 0.985 . S
N2637 C2639 1.356 . S
N2637 H2642 0.984 . S
N2637 H2643 0.985 . S
C2638 C2632 1.379 . S
C2638 C2635 1.363 . S
C2638 N2636 1.356 . S
C2639 C2633 1.363 . S
C2639 C2634 1.379 . S
C2639 N2637 1.356 . S
N2640 C2632 1.356 . S
N2640 H2646 0.984 . S
N2640 H2647 0.984 . S
N2641 C2634 1.356 . S
N2641 H2644 0.984 . S
N2641 H2645 0.985 . S
H2642 N2637 0.984 . S
H2643 N2637 0.985 . S
H2644 N2641 0.984 . S
H2645 N2641 0.985 . S
H2646 N2640 0.984 . S
H2647 N2640 0.984 . S
H2648 N2636 0.984 . S
H2649 N2636 0.985 . S
C2650 C2651 1.363 . S
C2650 C2656 1.379 . S
C2650 N2658 1.356 . S
C2651 C2650 1.363 . S
C2651 C2657 1.363 . S
C2652 C2653 1.363 . S
C2652 C2657 1.379 . S
C2652 N2659 1.356 . S
C2653 C2652 1.363 . S
C2653 C2656 1.363 . S
N2654 C2656 1.356 . S
N2654 H2666 0.984 . S
N2654 H2667 0.985 . S
N2655 C2657 1.356 . S
N2655 H2660 0.984 . S
N2655 H2661 0.985 . S
C2656 C2650 1.379 . S
C2656 C2653 1.363 . S
C2656 N2654 1.356 . S
C2657 C2651 1.363 . S
C2657 C2652 1.379 . S
C2657 N2655 1.356 . S
N2658 C2650 1.356 . S
N2658 H2664 0.984 . S
N2658 H2665 0.984 . S
N2659 C2652 1.356 . S
N2659 H2662 0.985 . S
N2659 H2663 0.985 1_554 S
H2660 N2655 0.984 . S
H2661 N2655 0.985 . S
H2662 N2659 0.985 . S
H2663 N2659 0.985 1_556 S
H2664 N2658 0.984 . S
H2665 N2658 0.984 . S
H2666 N2654 0.984 . S
H2667 N2654 0.985 . S
C2668 C2669 1.363 . S
C2668 C2674 1.379 . S
C2668 N2676 1.356 . S
C2669 C2668 1.363 . S
C2669 C2675 1.363 . S
C2670 C2671 1.363 . S
C2670 C2675 1.379 . S
C2670 N2677 1.356 . S
C2671 C2670 1.363 . S
C2671 C2674 1.363 . S
N2672 C2674 1.356 . S
N2672 H2684 0.984 . S
N2672 H2685 0.985 . S
N2673 C2675 1.356 . S
N2673 H2678 0.984 . S
N2673 H2679 0.985 . S
C2674 C2668 1.379 . S
C2674 C2671 1.363 . S
C2674 N2672 1.356 . S
C2675 C2669 1.363 . S
C2675 C2670 1.379 . S
C2675 N2673 1.356 . S
N2676 C2668 1.356 . S
N2676 H2682 0.984 . S
N2676 H2683 0.984 . S
N2677 C2670 1.356 . S
N2677 H2680 0.984 . S
N2677 H2681 0.985 . S
H2678 N2673 0.984 . S
H2679 N2673 0.985 . S
H2680 N2677 0.984 . S
H2681 N2677 0.985 . S
H2682 N2676 0.984 . S
H2683 N2676 0.984 . S
H2684 N2672 0.984 . S
H2685 N2672 0.985 . S
C2686 C2687 1.363 . S
C2686 C2692 1.379 . S
C2686 N2694 1.356 . S
C2687 C2686 1.363 . S
C2687 C2693 1.363 . S
C2688 C2689 1.363 . S
C2688 C2693 1.379 . S
C2688 N2695 1.356 . S
C2689 C2688 1.363 . S
C2689 C2692 1.363 . S
N2690 C2692 1.356 . S
N2690 H2702 0.984 . S
N2690 H2703 0.985 . S
N2691 C2693 1.356 . S
N2691 H2696 0.984 . S
N2691 H2697 0.985 . S
C2692 C2686 1.379 . S
C2692 C2689 1.363 . S
C2692 N2690 1.356 . S
C2693 C2687 1.363 . S
C2693 C2688 1.379 . S
C2693 N2691 1.356 . S
N2694 C2686 1.356 . S
N2694 H2700 0.984 . S
N2694 H2701 0.984 . S
N2695 C2688 1.356 . S
N2695 H2698 0.984 . S
N2695 H2699 0.985 . S
H2696 N2691 0.984 . S
H2697 N2691 0.985 . S
H2698 N2695 0.984 . S
H2699 N2695 0.985 . S
H2700 N2694 0.984 . S
H2701 N2694 0.984 . S
H2702 N2690 0.984 . S
H2703 N2690 0.985 . S
C977 C105 2.454 . S
C979 C346 2.342 . S
C995 C65 2.078 . S
C997 C394 2.071 . S
C1013 C73 1.518 . S
C1015 C426 1.516 . S
C1033 C471 1.697 . S
C1031 C92 1.808 . S
C1049 C17 0.993 . S
C1051 C511 0.985 . S
C1069 C546 1.219 . S
C1067 C37 1.169 . S
C1087 C585 1.371 . S
C1085 C49 1.276 . S
C1103 C8 1.363 . S
C1105 C622 1.342 . S
C1123 C354 2.223 . S
C1121 C231 2.173 1_545 S
C1139 C241 0.860 . S
C1141 C391 0.843 . S
C1159 C434 2.353 . S
C1157 C273 2.249 . S
C1177 C466 1.194 . S
C1175 C171 1.209 . S
C1193 C227 1.453 . S
C1195 C506 1.426 . S
C1213 C554 0.697 . S
C1211 C245 0.811 . S
C1231 C595 2.185 . S
C1229 C269 2.294 . S
C1249 C625 2.096 . S
C1247 C175 2.079 . S
C1267 C351 2.058 . S
C1265 C162 2.106 1_554 S
C1283 C289 2.167 . S
C1285 C674 2.154 . S
C1303 C711 1.324 . S
C1301 C330 1.341 . S
C1321 C742 1.154 . S
C1319 C317 1.275 . S
C1337 C120 2.717 . S
C1339 C635 2.688 . S
C1355 C134 1.527 . S
C1357 C431 1.473 . S
C1373 C331 1.805 . S
C1375 C794 1.835 . S
C1393 C826 1.914 . S
C1391 C303 1.906 . S
C1411 C355 2.332 . S
C1409 C59 2.430 . S
C1429 C825 2.114 . S
C1427 C107 2.110 . S
C1445 C91 1.552 . S
C1447 C435 1.557 . S
C1463 C78 1.787 . S
C1465 C782 1.711 . S
C1483 C502 1.013 1_655 S
C1481 C7 1.010 . S
C1499 C51 1.222 . S
C1501 C715 1.285 . S
C1519 C594 1.347 . S
C1517 C31 1.337 . S
C1537 C871 1.352 . S
C1535 C22 1.349 . S
C1555 C345 2.229 1_556 S
C1553 C143 2.202 . S
C1573 C822 0.857 . S
C1571 C315 0.839 . S
C1589 C115 2.387 . S
C1591 C425 2.373 . S
C1607 C287 1.229 . S
C1609 C795 1.240 . S
C1625 C147 1.479 . S
C1627 C515 1.468 . S
C1645 C705 0.694 . S
C1643 C311 0.717 . S
C1661 C119 2.195 . S
C1663 C586 2.217 . S
C1679 C283 2.084 1_556 S
C1681 C874 2.091 . S
C1697 C190 1.988 . S
C1699 C342 2.010 . S
C1715 C177 2.193 . S
C1717 C665 2.188 . S
C1733 C260 1.304 . S
C1735 C542 1.312 . S
C1751 C247 1.226 . S
C1753 C751 1.121 . S
C1771 C866 2.705 . S
C1769 C274 2.739 . S
C1787 C218 1.525 . S
C1789 C422 1.492 . S
C1807 C465 1.848 . S
C1805 C261 1.807 . S
C1825 C395 1.943 . S
C1823 C205 1.944 . S
C1841 C77 2.454 . S
C1843 C906 2.342 . S
C1861 C834 2.072 . S
C1859 C93 2.078 . S
C1877 C101 1.518 . S
C1879 C946 1.516 . S
C1895 C64 1.808 1_655 S
C1897 C791 1.698 . S
C1913 C45 0.993 . S
C1915 C671 0.985 . S
C1933 C706 1.219 . S
C1931 C9 1.170 . S
C1951 C745 1.371 . S
C1949 C21 1.276 . S
C1969 C862 1.342 . S
C1967 C36 1.363 . S
C1987 C914 2.223 . S
C1985 C259 2.173 . S
C2003 C185 0.860 . S
C2005 C831 0.843 . S
C2023 C954 2.353 . S
C2021 C203 2.250 . S
C2041 C786 1.194 . S
C2039 C213 1.208 . S
C2059 C666 1.426 1_556 S
C2057 C255 1.453 . S
C2075 C189 0.811 . S
C2077 C714 0.697 . S
C2095 C755 2.186 . S
C2093 C199 2.294 . S
C2111 C217 2.079 . S
C2113 C865 2.096 . S
C2131 C911 2.058 . S
C2129 C316 2.108 . S
C2147 C135 2.167 . S
C2149 C514 2.154 . S
C2167 C551 1.324 . S
C2165 C148 1.341 1_565 S
C2185 C582 1.154 . S
C2183 C163 1.276 . S
C2203 C875 2.688 . S
C2201 C302 2.717 . S
C2219 C288 1.527 . S
C2221 C951 1.473 . S
C2239 C474 1.835 . S
C2237 C149 1.805 . S
C2257 C386 1.914 . S
C2255 C121 1.907 . S
C2273 C87 2.431 . S
C2275 C915 2.333 . S
C2293 C385 2.115 . S
C2291 C79 2.110 . S
C2309 C63 1.553 . S
C2311 C955 1.557 . S
C2327 C106 1.787 . S
C2329 C462 1.711 . S
C2345 C35 1.009 . S
C2347 C662 1.013 . S
C2365 C555 1.285 . S
C2363 C23 1.222 . S
C2381 C3 1.337 . S
C2383 C754 1.347 . S
C2399 C50 1.350 . S
C2401 C631 1.352 . S
C2419 C905 2.230 . S
C2417 C325 2.202 . S
C2435 C161 0.839 . S
C2437 C382 0.854 . S
C2455 C945 2.373 1_656 S
C2453 C297 2.387 . S
C2471 C133 1.229 . S
C2473 C475 1.240 . S
C2489 C329 1.479 . S
C2491 C675 1.468 . S
C2509 C545 0.694 . S
C2507 C157 0.719 . S
C2525 C301 2.195 . S
C2527 C746 2.217 1_655 S
C2545 C634 2.091 . S
C2543 C129 2.084 . S
C2563 C902 2.010 . S
C2561 C246 1.988 . S
C2581 C505 2.189 1_565 S
C2579 C219 2.194 . S
C2597 C232 1.304 . S
C2599 C702 1.312 . S
C2617 C591 1.121 . S
C2615 C191 1.226 . S
C2633 C204 2.739 . S
C2635 C626 2.704 . S
C2651 C176 1.525 . S
C2653 C942 1.492 . S
C2671 C785 1.849 . S
C2669 C233 1.808 . S
C2689 C835 1.943 . S
C2687 C275 1.944 . S
