# Generated by pormake.
# Topology tph, (6,8)-cn, num edge types: 1
# Building blocks:
#     Node 0, Type 0, BuildingBlock: OJICUG_clean_sbu_0, # of connection points: 6
#     Node 1, Type 0, BuildingBlock: OJICUG_clean_sbu_0, # of connection points: 6
#     Node 2, Type 0, BuildingBlock: OJICUG_clean_sbu_0, # of connection points: 6
#     Node 3, Type 0, BuildingBlock: OJICUG_clean_sbu_0, # of connection points: 6
#     Node 4, Type 0, BuildingBlock: OJICUG_clean_sbu_0, # of connection points: 6
#     Node 5, Type 0, BuildingBlock: OJICUG_clean_sbu_0, # of connection points: 6
#     Node 6, Type 0, BuildingBlock: OJICUG_clean_sbu_0, # of connection points: 6
#     Node 7, Type 0, BuildingBlock: OJICUG_clean_sbu_0, # of connection points: 6
#     Node 8, Type 0, BuildingBlock: OJICUG_clean_sbu_0, # of connection points: 6
#     Node 9, Type 0, BuildingBlock: OJICUG_clean_sbu_0, # of connection points: 6
#     Node 10, Type 0, BuildingBlock: OJICUG_clean_sbu_0, # of connection points: 6
#     Node 11, Type 0, BuildingBlock: OJICUG_clean_sbu_0, # of connection points: 6
#     Node 12, Type 0, BuildingBlock: OJICUG_clean_sbu_0, # of connection points: 6
#     Node 13, Type 0, BuildingBlock: OJICUG_clean_sbu_0, # of connection points: 6
#     Node 14, Type 0, BuildingBlock: OJICUG_clean_sbu_0, # of connection points: 6
#     Node 15, Type 0, BuildingBlock: OJICUG_clean_sbu_0, # of connection points: 6
#     Node 16, Type 1, BuildingBlock: TAGTUT_clean_sbu_1, # of connection points: 8
#     Node 17, Type 1, BuildingBlock: TAGTUT_clean_sbu_1, # of connection points: 8
#     Node 18, Type 1, BuildingBlock: TAGTUT_clean_sbu_1, # of connection points: 8
#     Node 19, Type 1, BuildingBlock: TAGTUT_clean_sbu_1, # of connection points: 8
#     Node 20, Type 1, BuildingBlock: TAGTUT_clean_sbu_1, # of connection points: 8
#     Node 21, Type 1, BuildingBlock: TAGTUT_clean_sbu_1, # of connection points: 8
#     Node 22, Type 1, BuildingBlock: TAGTUT_clean_sbu_1, # of connection points: 8
#     Node 23, Type 1, BuildingBlock: TAGTUT_clean_sbu_1, # of connection points: 8
#     Node 24, Type 1, BuildingBlock: TAGTUT_clean_sbu_1, # of connection points: 8
#     Node 25, Type 1, BuildingBlock: TAGTUT_clean_sbu_1, # of connection points: 8
#     Node 26, Type 1, BuildingBlock: TAGTUT_clean_sbu_1, # of connection points: 8
#     Node 27, Type 1, BuildingBlock: TAGTUT_clean_sbu_1, # of connection points: 8
#     Edge 28, Type (0, 1), None
#     Edge 29, Type (0, 1), None
#     Edge 30, Type (0, 1), None
#     Edge 31, Type (0, 1), None
#     Edge 32, Type (0, 1), None
#     Edge 33, Type (0, 1), None
#     Edge 34, Type (0, 1), None
#     Edge 35, Type (0, 1), None
#     Edge 36, Type (0, 1), None
#     Edge 37, Type (0, 1), None
#     Edge 38, Type (0, 1), None
#     Edge 39, Type (0, 1), None
#     Edge 40, Type (0, 1), None
#     Edge 41, Type (0, 1), None
#     Edge 42, Type (0, 1), None
#     Edge 43, Type (0, 1), None
#     Edge 44, Type (0, 1), None
#     Edge 45, Type (0, 1), None
#     Edge 46, Type (0, 1), None
#     Edge 47, Type (0, 1), None
#     Edge 48, Type (0, 1), None
#     Edge 49, Type (0, 1), None
#     Edge 50, Type (0, 1), None
#     Edge 51, Type (0, 1), None
#     Edge 52, Type (0, 1), None
#     Edge 53, Type (0, 1), None
#     Edge 54, Type (0, 1), None
#     Edge 55, Type (0, 1), None
#     Edge 56, Type (0, 1), None
#     Edge 57, Type (0, 1), None
#     Edge 58, Type (0, 1), None
#     Edge 59, Type (0, 1), None
#     Edge 60, Type (0, 1), None
#     Edge 61, Type (0, 1), None
#     Edge 62, Type (0, 1), None
#     Edge 63, Type (0, 1), None
#     Edge 64, Type (0, 1), None
#     Edge 65, Type (0, 1), None
#     Edge 66, Type (0, 1), None
#     Edge 67, Type (0, 1), None
#     Edge 68, Type (0, 1), None
#     Edge 69, Type (0, 1), None
#     Edge 70, Type (0, 1), None
#     Edge 71, Type (0, 1), None
#     Edge 72, Type (0, 1), None
#     Edge 73, Type (0, 1), None
#     Edge 74, Type (0, 1), None
#     Edge 75, Type (0, 1), None
#     Edge 76, Type (0, 1), None
#     Edge 77, Type (0, 1), None
#     Edge 78, Type (0, 1), None
#     Edge 79, Type (0, 1), None
#     Edge 80, Type (0, 1), None
#     Edge 81, Type (0, 1), None
#     Edge 82, Type (0, 1), None
#     Edge 83, Type (0, 1), None
#     Edge 84, Type (0, 1), None
#     Edge 85, Type (0, 1), None
#     Edge 86, Type (0, 1), None
#     Edge 87, Type (0, 1), None
#     Edge 88, Type (0, 1), None
#     Edge 89, Type (0, 1), None
#     Edge 90, Type (0, 1), None
#     Edge 91, Type (0, 1), None
#     Edge 92, Type (0, 1), None
#     Edge 93, Type (0, 1), None
#     Edge 94, Type (0, 1), None
#     Edge 95, Type (0, 1), None
#     Edge 96, Type (0, 1), None
#     Edge 97, Type (0, 1), None
#     Edge 98, Type (0, 1), None
#     Edge 99, Type (0, 1), None
#     Edge 100, Type (0, 1), None
#     Edge 101, Type (0, 1), None
#     Edge 102, Type (0, 1), None
#     Edge 103, Type (0, 1), None
#     Edge 104, Type (0, 1), None
#     Edge 105, Type (0, 1), None
#     Edge 106, Type (0, 1), None
#     Edge 107, Type (0, 1), None
#     Edge 108, Type (0, 1), None
#     Edge 109, Type (0, 1), None
#     Edge 110, Type (0, 1), None
#     Edge 111, Type (0, 1), None
#     Edge 112, Type (0, 1), None
#     Edge 113, Type (0, 1), None
#     Edge 114, Type (0, 1), None
#     Edge 115, Type (0, 1), None
#     Edge 116, Type (0, 1), None
#     Edge 117, Type (0, 1), None
#     Edge 118, Type (0, 1), None
#     Edge 119, Type (0, 1), None
#     Edge 120, Type (0, 1), None
#     Edge 121, Type (0, 1), None
#     Edge 122, Type (0, 1), None
#     Edge 123, Type (0, 1), None
# Relax obj value: 0.228
# Max RMSD: 0.320
# Mean RMSD: 0.276
data_MOF--net-tph--node1-OJICUG_clean_sbu_0--node2-TAGTUT_clean_sbu_1--edge1-none
_symmetry_space_group_name_H-M    P1
_symmetry_Int_Tables_number       1
_symmetry_cell_setting            triclinic
loop_
_symmetry_equiv_pos_as_xyz
'x, y, z'
_cell_length_a     24.141216
_cell_length_b     23.976388
_cell_length_c     23.884709
_cell_angle_alpha  90.66817
_cell_angle_beta   91.275774
_cell_angle_gamma 89.767064
loop_
_atom_site_label
_atom_site_type_symbol
_atom_site_fract_x
_atom_site_fract_y
_atom_site_fract_z
_atom_type_partial_charge
Sc0 Sc 0.13158 0.21189 0.1854 0.0
Sc1 Sc 0.23581 0.11387 0.19536 0.0
Sc2 Sc 0.24829 0.22568 0.10957 0.0
O3 O 0.20625 0.18656 0.16584 0.0
C4 C 0.13846 0.25376 0.05738 0.0
C5 C 0.11209 0.09348 0.18995 0.0
C6 C 0.2406 0.09913 0.06973 0.0
C7 C 0.18925 0.16192 0.2999 0.0
C8 C 0.18467 0.32288 0.18097 0.0
C9 C 0.34464 0.17995 0.16793 0.0
O10 O 0.11264 0.24941 0.10335 0.0
O11 O 0.15695 0.08434 0.21598 0.0
O12 O 0.26823 0.14498 0.06793 0.0
O13 O 0.14779 0.18129 0.27118 0.0
O14 O 0.2198 0.30526 0.14488 0.0
O15 O 0.32206 0.13265 0.17387 0.0
O16 O 0.15656 0.29134 0.21121 0.0
O17 O 0.23567 0.148 0.27821 0.0
O18 O 0.31561 0.22362 0.16771 0.0
O19 O 0.10545 0.13325 0.15647 0.0
O20 O 0.18474 0.23124 0.04973 0.0
O21 O 0.22243 0.0804 0.11483 0.0
Sc22 Sc 0.43557 0.65634 0.0241 0.0
Sc23 Sc 0.35754 0.539 0.05576 0.0
Sc24 Sc 0.46838 0.57883 0.14301 0.0
O25 O 0.42482 0.58792 0.071 0.0
C26 C 0.56014 0.62858 0.05342 0.0
C27 C 0.40157 0.54982 0.93967 0.0
C28 C 0.44633 0.45335 0.12431 0.0
C29 C 0.32154 0.64684 0.99034 0.0
C30 C 0.43549 0.70765 0.1467 0.0
C31 C 0.3436 0.57642 0.18185 0.0
O32 O 0.52482 0.65007 0.01983 0.0
O33 O 0.38868 0.51432 0.97679 0.0
O34 O 0.48408 0.49 0.13111 0.0
O35 O 0.35222 0.66915 0.02687 0.0
O36 O 0.44862 0.66065 0.16587 0.0
O37 O 0.3235 0.57298 0.1319 0.0
O38 O 0.43751 0.71774 0.09438 0.0
O39 O 0.30908 0.59615 -0.00192 0.0
O40 O 0.39429 0.56368 0.19326 0.0
O41 O 0.4224 0.59849 0.95152 0.0
O42 O 0.54516 0.60098 0.09695 0.0
O43 O 0.39877 0.46749 0.10228 0.0
Sc44 Sc 0.86546 0.26115 0.24717 0.0
Sc45 Sc 0.79413 0.2713 0.1195 0.0
Sc46 Sc 0.80218 0.3823 0.20814 0.0
O47 O 0.81842 0.30334 0.19484 0.0
C48 C 0.77392 0.33268 0.32169 0.0
C49 C 0.82764 0.16208 0.18256 0.0
C50 C 0.68953 0.31856 0.16017 0.0
C51 C 0.91883 0.26333 0.12159 0.0
C52 C 0.92252 0.37691 0.27113 0.0
C53 C 0.80209 0.39357 0.09246 0.0
O54 O 0.80745 0.28987 0.31671 0.0
O55 O 0.81844 0.18539 0.13621 0.0
O56 O 0.71694 0.36286 0.17502 0.0
O57 O 0.92205 0.24531 0.17296 0.0
O58 O 0.88339 0.40459 0.24705 0.0
O59 O 0.77307 0.35064 0.08462 0.0
O60 O 0.92213 0.32451 0.27268 0.0
O61 O 0.87464 0.2801 0.09776 0.0
O62 O 0.83806 0.39506 0.13074 0.0
O63 O 0.81772 0.18816 0.22778 0.0
O64 O 0.76832 0.36961 0.28516 0.0
O65 O 0.71227 0.27181 0.14761 0.0
Sc66 Sc 0.63752 0.98214 0.08801 0.0
Sc67 Sc 0.576 0.87165 0.01558 0.0
Sc68 Sc 0.5199 0.92323 0.13819 0.0
O69 O 0.57373 0.9298 0.0767 0.0
C70 C 0.62152 0.94802 0.21264 0.0
C71 C 0.69648 0.87098 0.05831 0.0
C72 C 0.55228 0.798 0.11667 0.0
C73 C 0.62574 0.96903 0.95113 0.0
C74 C 0.5429 0.05965 0.12579 0.0
C75 C 0.44307 0.88418 0.04203 0.0
O76 O 0.62947 0.9872 0.17866 0.0
O77 O 0.6646 0.87216 0.01562 0.0
O78 O 0.51534 0.83366 0.12833 0.0
O79 O 0.65153 0.98498 -0.00377 0.0
O80 O 0.52089 0.01682 0.14936 0.0
O81 O 0.48323 0.86409 0.0131 0.0
O82 O 0.58055 0.05378 0.08872 0.0
O83 O 0.58253 0.93744 0.95277 0.0
O84 O 0.45199 0.92223 0.07937 0.0
O85 O 0.69299 0.9089 0.09598 0.0
O86 O 0.58554 0.91171 0.20024 0.0
O87 O 0.58411 0.80579 0.07633 0.0
Sc88 Sc 0.21615 0.88542 0.30334 0.0
Sc89 Sc 0.1408 0.76557 0.28037 0.0
Sc90 Sc 0.22517 0.7799 0.39788 0.0
O91 O 0.1943 0.80969 0.32521 0.0
C92 C 0.32934 0.82232 0.35495 0.0
C93 C 0.22303 0.82644 0.19299 0.0
C94 C 0.18421 0.66776 0.33098 0.0
C95 C 0.08812 0.87964 0.25062 0.0
C96 C 0.22596 0.91203 0.41453 0.0
C97 C 0.10735 0.75869 0.41356 0.0
O98 O 0.3035 0.86733 0.33894 0.0
O99 O 0.18533 0.79043 0.20454 0.0
O100 O 0.19694 0.6905 0.37851 0.0
O101 O 0.1334 0.90621 0.26259 0.0
O102 O 0.24997 0.86627 0.42844 0.0
O103 O 0.09857 0.74537 0.36116 0.0
O104 O 0.18592 0.91015 0.38048 0.0
O105 O 0.08188 0.82976 0.26544 0.0
O106 O 0.14793 0.78746 0.43134 0.0
O107 O 0.24413 0.86098 0.22685 0.0
O108 O 0.30404 0.77621 0.36115 0.0
O109 O 0.19287 0.69525 0.28763 0.0
Sc110 Sc 0.07022 0.63984 0.99033 0.0
Sc111 Sc 0.02958 0.57345 0.8675 0.0
Sc112 Sc 0.14 0.52046 0.94926 0.0
O113 O 0.07447 0.57415 0.93888 0.0
C114 C 0.18673 0.62314 0.0122 0.0
C115 C 0.06373 0.70173 0.87441 0.0
C116 C 0.15513 0.56348 0.82732 0.0
C117 C 0.94192 0.62621 0.95789 0.0
C118 C 0.10295 0.52779 0.06538 0.0
C119 C 0.04561 0.44696 0.87992 0.0
O120 O 0.15423 0.64346 0.97663 0.0
O121 O 0.04979 0.65627 0.8512 0.0
O122 O 0.17543 0.55592 0.87641 0.0
O123 O 0.97973 0.63956 -0.00571 0.0
O124 O 0.10688 0.49358 0.02439 0.0
O125 O 0.01044 0.48644 0.87573 0.0
O126 O 0.08553 0.5788 0.05975 0.0
O127 O 0.95302 0.60021 0.91181 0.0
O128 O 0.09527 0.45512 0.89885 0.0
O129 O 0.06728 0.70648 0.92737 0.0
O130 O 0.19333 0.57104 0.00912 0.0
O131 O 0.1034 0.55577 0.81567 0.0
Sc132 Sc 0.88506 0.72474 0.25548 0.0
Sc133 Sc 0.77765 0.63389 0.23286 0.0
Sc134 Sc 0.79132 0.70244 0.35647 0.0
O135 O 0.81419 0.68989 0.27993 0.0
C136 C 0.90378 0.71121 0.38049 0.0
C137 C 0.90256 0.60358 0.24106 0.0
C138 C 0.7696 0.57254 0.3404 0.0
C139 C 0.82104 0.69679 0.14436 0.0
C140 C 0.8337 0.82038 0.3052 0.0
C141 C 0.67893 0.69152 0.30736 0.0
O142 O 0.91267 0.74319 0.34004 0.0
O143 O 0.85892 0.60008 0.20948 0.0
O144 O 0.76441 0.61782 0.36826 0.0
O145 O 0.86802 0.70505 0.16756 0.0
O146 O 0.81673 0.79062 0.34613 0.0
O147 O 0.69684 0.65973 0.26746 0.0
O148 O 0.84532 0.80089 0.25708 0.0
O149 O 0.77785 0.69798 0.17321 0.0
O150 O 0.70976 0.72395 0.336 0.0
O151 O 0.91964 0.64834 0.26298 0.0
O152 O 0.87 0.67255 0.37579 0.0
O153 O 0.7819 0.56975 0.28993 0.0
Sc154 Sc 0.98637 0.93185 0.8669 0.0
Sc155 Sc 0.86572 0.99236 0.91631 0.0
Sc156 Sc 0.91636 0.87243 0.97656 0.0
O157 O 0.92651 0.93591 0.92415 0.0
C158 C 0.94408 0.81025 0.86689 0.0
C159 C 0.88575 0.96108 0.79079 0.0
C160 C 0.79402 0.88902 0.93358 0.0
C161 C 0.96479 0.06498 0.88507 0.0
C162 C 0.0535 0.88173 0.96528 0.0
C163 C 0.87267 0.96627 0.05323 0.0
O164 O 0.98482 0.84307 0.86558 0.0
O165 O 0.87676 0.99966 0.82637 0.0
O166 O 0.82642 0.88035 0.97518 0.0
O167 O 0.99073 0.02407 0.86214 0.0
O168 O 0.00861 0.85826 0.98175 0.0
O169 O 0.85046 0.98971 0.00949 0.0
O170 O 0.05158 0.9238 0.93222 0.0
O171 O 0.92656 0.05735 0.9209 0.0
O172 O 0.91226 0.93029 0.04839 0.0
O173 O 0.92461 0.92673 0.79988 0.0
O174 O 0.90885 0.81464 0.90529 0.0
O175 O 0.80468 0.92788 0.90037 0.0
Sc176 Sc 0.36664 0.49222 0.41783 0.0
Sc177 Sc 0.41544 0.37114 0.4771 0.0
Sc178 Sc 0.4881 0.43181 0.36972 0.0
O179 O 0.42704 0.43534 0.42583 0.0
C180 C 0.38864 0.46223 0.29245 0.0
C181 C 0.29342 0.389 0.43276 0.0
C182 C 0.44351 0.31088 0.36635 0.0
C183 C 0.37234 0.46466 0.55435 0.0
C184 C 0.46646 0.56539 0.38888 0.0
C185 C 0.55287 0.37915 0.46893 0.0
O186 O 0.37895 0.50035 0.32829 0.0
O187 O 0.32539 0.3792 0.47443 0.0
O188 O 0.48505 0.3429 0.36599 0.0
O189 O 0.35056 0.48866 0.51072 0.0
O190 O 0.49322 0.52449 0.3667 0.0
O191 O 0.50734 0.35605 0.48405 0.0
O192 O 0.42746 0.55741 0.42378 0.0
O193 O 0.41129 0.42806 0.54951 0.0
O194 O 0.55217 0.42155 0.4362 0.0
O195 O 0.30513 0.42823 0.40034 0.0
O196 O 0.42778 0.42823 0.30144 0.0
O197 O 0.40836 0.3148 0.40486 0.0
Sc198 Sc 0.36349 0.76023 0.74983 0.0
Sc199 Sc 0.29283 0.77185 0.62196 0.0
Sc200 Sc 0.29959 0.88182 0.71216 0.0
O201 O 0.31654 0.80309 0.69773 0.0
C202 C 0.2713 0.83004 0.82493 0.0
C203 C 0.3257 0.6616 0.68434 0.0
C204 C 0.18741 0.81929 0.66061 0.0
C205 C 0.41758 0.76416 0.62465 0.0
C206 C 0.4198 0.87585 0.77612 0.0
C207 C 0.30133 0.89492 0.59604 0.0
O208 O 0.30557 0.78788 0.81987 0.0
O209 O 0.31679 0.6855 0.63817 0.0
O210 O 0.21482 0.8631 0.67703 0.0
O211 O 0.42051 0.74533 0.67572 0.0
O212 O 0.38037 0.90384 0.75284 0.0
O213 O 0.27278 0.85168 0.58775 0.0
O214 O 0.41988 0.82342 0.77606 0.0
O215 O 0.37345 0.78093 0.60083 0.0
O216 O 0.33605 0.89748 0.6355 0.0
O217 O 0.31586 0.68732 0.72976 0.0
O218 O 0.26489 0.86679 0.78832 0.0
O219 O 0.21026 0.77241 0.64859 0.0
Sc220 Sc 0.13845 0.48106 0.58681 0.0
Sc221 Sc 0.07637 0.37186 0.51311 0.0
Sc222 Sc 0.01963 0.42319 0.63554 0.0
O223 O 0.07422 0.42955 0.57467 0.0
C224 C 0.12149 0.44498 0.71099 0.0
C225 C 0.19677 0.36978 0.55655 0.0
C226 C 0.05073 0.29798 0.61332 0.0
C227 C 0.12692 0.46932 0.44949 0.0
C228 C 0.04427 0.55948 0.62479 0.0
C229 C 0.94363 0.38614 0.53811 0.0
O230 O 0.13019 0.48445 0.67749 0.0
O231 O 0.16495 0.3716 0.51388 0.0
O232 O 0.01367 0.33376 0.62432 0.0
O233 O 0.15259 0.48475 0.4949 0.0
O234 O 0.02176 0.51668 0.64792 0.0
O235 O 0.98371 0.36519 0.50975 0.0
O236 O 0.0822 0.55345 0.58802 0.0
O237 O 0.08365 0.43782 0.45064 0.0
O238 O 0.95269 0.42407 0.57556 0.0
O239 O 0.19338 0.40737 0.59449 0.0
O240 O 0.0844 0.40985 0.69836 0.0
O241 O 0.0833 0.30575 0.5736 0.0
Sc242 Sc 0.93631 0.15501 0.52055 0.0
Sc243 Sc 0.85601 0.03874 0.55303 0.0
Sc244 Sc 0.96588 0.078 0.64128 0.0
O245 O 0.92273 0.08784 0.56888 0.0
C246 C 0.05949 0.12717 0.55411 0.0
C247 C 0.90329 0.049 0.43751 0.0
C248 C 0.94341 0.95274 0.6222 0.0
C249 C 0.82039 0.14526 0.48218 0.0
C250 C 0.93347 0.2068 0.64322 0.0
C251 C 0.84032 0.07544 0.67933 0.0
O252 O 0.02499 0.14908 0.52037 0.0
O253 O 0.88815 0.01426 0.47441 0.0
O254 O 0.98116 0.98916 0.62984 0.0
O255 O 0.85417 0.17077 0.51362 0.0
O256 O 0.94696 0.1601 0.6629 0.0
O257 O 0.82065 0.07182 0.62921 0.0
O258 O 0.93504 0.21655 0.59074 0.0
O259 O 0.808 0.09566 0.49558 0.0
O260 O 0.89117 0.06363 0.69104 0.0
O261 O 0.92579 0.09679 0.44918 0.0
O262 O 0.04375 0.09891 0.59681 0.0
O263 O 0.89631 0.96709 0.59951 0.0
Sc264 Sc 0.74663 0.72451 0.61086 0.0
Sc265 Sc 0.63145 0.71075 0.68834 0.0
Sc266 Sc 0.73521 0.61211 0.69552 0.0
O267 O 0.70564 0.68525 0.66748 0.0
C268 C 0.73839 0.59824 0.56982 0.0
C269 C 0.63692 0.75394 0.56087 0.0
C270 C 0.61131 0.59319 0.69165 0.0
C271 C 0.6835 0.82117 0.68405 0.0
C272 C 0.84371 0.67835 0.66713 0.0
C273 C 0.69145 0.66028 0.80131 0.0
O274 O 0.76617 0.64405 0.56838 0.0
O275 O 0.61163 0.74996 0.60718 0.0
O276 O 0.65629 0.58321 0.71723 0.0
O277 O 0.71799 0.80388 0.64709 0.0
O278 O 0.82116 0.63094 0.67272 0.0
O279 O 0.64914 0.67916 0.77352 0.0
O280 O 0.81474 0.72208 0.66794 0.0
O281 O 0.6569 0.78937 0.71529 0.0
O282 O 0.73715 0.64587 0.77849 0.0
O283 O 0.68213 0.72969 0.55231 0.0
O284 O 0.72025 0.57928 0.61483 0.0
O285 O 0.60522 0.63287 0.65808 0.0
Sc286 Sc 0.71761 0.38453 0.79962 0.0
Sc287 Sc 0.64047 0.26526 0.77871 0.0
Sc288 Sc 0.72485 0.28052 0.89601 0.0
O289 O 0.69428 0.30968 0.82306 0.0
C290 C 0.8292 0.32067 0.8522 0.0
C291 C 0.724 0.32313 0.68994 0.0
C292 C 0.68252 0.16738 0.83059 0.0
C293 C 0.58891 0.38002 0.74889 0.0
C294 C 0.72872 0.41365 0.91082 0.0
C295 C 0.60728 0.26026 0.91254 0.0
O296 O 0.80428 0.36578 0.83534 0.0
O297 O 0.6852 0.28831 0.70175 0.0
O298 O 0.69545 0.19096 0.87773 0.0
O299 O 0.6348 0.40598 0.75958 0.0
O300 O 0.75108 0.36723 0.92562 0.0
O301 O 0.59824 0.24641 0.86025 0.0
O302 O 0.68903 0.41279 0.87623 0.0
O303 O 0.58237 0.33017 0.76365 0.0
O304 O 0.6478 0.28954 0.9296 0.0
O305 O 0.74528 0.35775 0.72355 0.0
O306 O 0.80328 0.27507 0.85899 0.0
O307 O 0.69138 0.19405 0.78672 0.0
Sc308 Sc 0.55864 0.13632 0.5008 0.0
Sc309 Sc 0.52793 0.08112 0.37029 0.0
Sc310 Sc 0.64369 0.0297 0.452 0.0
O311 O 0.5753 0.07917 0.44242 0.0
C312 C 0.68297 0.1268 0.5374 0.0
C313 C 0.55851 0.2061 0.3896 0.0
C314 C 0.65532 0.07423 0.32687 0.0
C315 C 0.43479 0.12185 0.45085 0.0
C316 C 0.59302 0.02891 0.57021 0.0
C317 C 0.5529 0.95087 0.38064 0.0
O318 O 0.6343 0.14316 0.53677 0.0
O319 O 0.52445 0.17023 0.37088 0.0
O320 O 0.67459 0.05715 0.37372 0.0
O321 O 0.47202 0.14374 0.48171 0.0
O322 O 0.62051 0.00514 0.53214 0.0
O323 O 0.5235 0.9917 0.36379 0.0
O324 O 0.55624 0.06801 0.56158 0.0
O325 O 0.44697 0.08581 0.41291 0.0
O326 O 0.59754 0.9579 0.41071 0.0
O327 O 0.57989 0.20082 0.43867 0.0
O328 O 0.69859 0.0902 0.50119 0.0
O329 O 0.60324 0.08206 0.31746 0.0
Sc330 Sc 0.3844 0.22379 0.75457 0.0
Sc331 Sc 0.27737 0.13214 0.73198 0.0
Sc332 Sc 0.29064 0.20101 0.85575 0.0
O333 O 0.31371 0.18845 0.77917 0.0
C334 C 0.4032 0.21202 0.8807 0.0
C335 C 0.40143 0.10253 0.7425 0.0
C336 C 0.27081 0.07087 0.84012 0.0
C337 C 0.32037 0.19523 0.64267 0.0
C338 C 0.33291 0.31891 0.80462 0.0
C339 C 0.17799 0.18928 0.80535 0.0
O340 O 0.41221 0.24299 0.8394 0.0
O341 O 0.35883 0.0991 0.70953 0.0
O342 O 0.26521 0.11615 0.86786 0.0
O343 O 0.36726 0.20355 0.6663 0.0
O344 O 0.31539 0.28906 0.84519 0.0
O345 O 0.1962 0.1576 0.76557 0.0
O346 O 0.34427 0.29978 0.75625 0.0
O347 O 0.27708 0.19562 0.6714 0.0
O348 O 0.20869 0.22128 0.83468 0.0
O349 O 0.41941 0.14773 0.76264 0.0
O350 O 0.36969 0.17297 0.87678 0.0
O351 O 0.28184 0.0681 0.78931 0.0
C352 C 0.96384 0.26473 0.08155 0.0
C353 C 0.10979 0.27356 0.00763 0.0
C354 C 0.03186 0.39328 0.85084 0.0
Mg355 Mg 0.02619 0.20217 0.9863 0.0
O356 O 0.98381 0.25018 0.94221 0.0
Mg357 Mg 0.9936 0.33224 0.96323 0.0
Mg358 Mg 0.00564 0.25406 0.86102 0.0
O359 O 0.02113 0.2614 0.78419 0.0
Mg360 Mg 0.00847 0.3242 0.73854 0.0
Mg361 Mg 0.00452 0.18548 0.75668 0.0
C362 C 0.99141 0.12009 0.88702 0.0
C363 C 0.11864 0.19084 0.81552 0.0
O364 O 0.95945 0.30574 0.04716 0.0
O365 O 0.98969 0.21958 0.06887 0.0
O366 O 0.07564 0.31396 0.01214 0.0
O367 O 0.10248 0.23673 0.9705 0.0
O368 O 0.00943 0.13016 0.93685 0.0
O369 O 0.97936 0.15993 0.85137 0.0
C370 C 0.88847 0.31991 0.86989 0.0
O371 O 0.91803 0.28303 0.84632 0.0
O372 O 0.90587 0.34493 0.91508 0.0
O373 O 0.04021 0.22001 0.66987 0.0
O374 O 0.08291 0.29479 0.70183 0.0
O375 O 0.92161 0.22851 0.73656 0.0
C376 C 0.06877 0.26401 0.66068 0.0
O377 O 0.93679 0.29871 0.68225 0.0
O378 O 0.0198 0.39457 0.79821 0.0
C379 C 0.92004 0.24865 0.68736 0.0
O380 O 0.03256 0.34705 0.87763 0.0
O381 O 0.09821 0.22245 0.8547 0.0
O382 O 0.08881 0.1641 0.77991 0.0
C383 C 0.46279 0.76625 0.58478 0.0
C384 C 0.60877 0.7757 0.5117 0.0
C385 C 0.53887 0.89537 0.35385 0.0
Mg386 Mg 0.52622 0.70422 0.48991 0.0
O387 O 0.48417 0.75252 0.44578 0.0
Mg388 Mg 0.49377 0.83478 0.46705 0.0
Mg389 Mg 0.50698 0.75602 0.36491 0.0
O390 O 0.52303 0.76237 0.28811 0.0
Mg391 Mg 0.51223 0.82482 0.24199 0.0
Mg392 Mg 0.50601 0.68622 0.26067 0.0
C393 C 0.49242 0.62114 0.39123 0.0
C394 C 0.61983 0.69227 0.31879 0.0
O395 O 0.45829 0.80738 0.55046 0.0
O396 O 0.48936 0.72148 0.57231 0.0
O397 O 0.57496 0.81623 0.51712 0.0
O398 O 0.6016 0.7403 0.47319 0.0
O399 O 0.50997 0.63144 0.44118 0.0
O400 O 0.48065 0.66108 0.35547 0.0
C401 C 0.3889 0.82212 0.37272 0.0
O402 O 0.41886 0.78522 0.34957 0.0
O403 O 0.40618 0.84752 0.41777 0.0
O404 O 0.54195 0.7201 0.17345 0.0
O405 O 0.58594 0.79434 0.20464 0.0
O406 O 0.4233 0.72894 0.24018 0.0
C407 C 0.57088 0.76373 0.16371 0.0
O408 O 0.43944 0.79946 0.18654 0.0
O409 O 0.52731 0.89526 0.30104 0.0
C410 C 0.42228 0.74943 0.19115 0.0
O411 O 0.5353 0.84997 0.38207 0.0
O412 O 0.59961 0.72415 0.35792 0.0
O413 O 0.58988 0.66467 0.28401 0.0
C414 C 0.91941 0.72679 0.4356 0.0
C415 C 0.06463 0.75305 0.45399 0.0
C416 C 0.03436 0.61675 0.65079 0.0
Mg417 Mg 0.97149 0.80919 0.51172 0.0
O418 O 0.97907 0.75432 0.56313 0.0
Mg419 Mg 0.98835 0.6744 0.5421 0.0
Mg420 Mg 0.0096 0.758 0.63883 0.0
O421 O 0.03332 0.75481 0.71321 0.0
Mg422 Mg 0.02105 0.6935 0.75865 0.0
Mg423 Mg 0.02171 0.83064 0.7421 0.0
C424 C 0.96016 0.89272 0.61311 0.0
C425 C 0.12704 0.82086 0.66241 0.0
O426 O 0.93772 0.68757 0.46612 0.0
O427 O 0.91942 0.77818 0.44928 0.0
O428 O 0.05653 0.70633 0.47937 0.0
O429 O 0.0424 0.79918 0.46793 0.0
O430 O 0.95411 0.87977 0.56142 0.0
O431 O 0.98153 0.85699 0.64979 0.0
C432 C 0.89909 0.68413 0.64425 0.0
O433 O 0.92669 0.7261 0.66186 0.0
O434 O 0.91336 0.65597 0.60061 0.0
O435 O 0.06219 0.79072 0.82915 0.0
O436 O 0.10078 0.71864 0.79018 0.0
O437 O 0.93771 0.80037 0.77135 0.0
C438 C 0.08628 0.74309 0.83464 0.0
O439 O 0.95775 0.72511 0.81949 0.0
O440 O 0.02339 0.61898 0.70316 0.0
C441 C 0.93563 0.77387 0.81719 0.0
O442 O 0.03928 0.66242 0.62279 0.0
O443 O 0.09867 0.79002 0.62761 0.0
O444 O 0.10616 0.84405 0.70582 0.0
C445 C 0.06478 0.06497 0.20674 0.0
C446 C 0.03567 0.91087 0.24001 0.0
C447 C 0.84625 0.97489 0.11027 0.0
Mg448 Mg 0.99758 0.00339 0.29368 0.0
O449 O 0.94169 0.02199 0.24537 0.0
Mg450 Mg 0.9541 0.01 0.16416 0.0
Mg451 Mg 0.86635 0.99334 0.25056 0.0
O452 O 0.79115 0.97431 0.24925 0.0
Mg453 Mg 0.74293 0.99809 0.19066 0.0
Mg454 Mg 0.772 0.99038 0.32756 0.0
C455 C 0.9091 0.02956 0.38043 0.0
C456 C 0.8393 0.87952 0.31236 0.0
O457 O 0.02599 0.06113 0.17061 0.0
O458 O 0.0636 0.04522 0.25609 0.0
O459 O 0.02266 0.93583 0.19327 0.0
O460 O 0.00852 0.91983 0.28369 0.0
O461 O 0.95964 0.02817 0.36647 0.0
O462 O 0.8677 0.01726 0.34605 0.0
C463 C 0.85469 0.10662 0.18542 0.0
O464 O 0.84223 0.07793 0.2271 0.0
O465 O 0.89323 0.09041 0.15196 0.0
O466 O 0.68164 0.95865 0.29204 0.0
O467 O 0.70963 0.92001 0.21336 0.0
O468 O 0.74756 0.07725 0.30065 0.0
C469 C 0.67054 0.93166 0.24583 0.0
O470 O 0.6871 0.06282 0.23282 0.0
O471 O 0.79584 0.99281 0.11335 0.0
C472 C 0.69777 0.08112 0.28264 0.0
O473 O 0.8741 0.96364 0.15547 0.0
O474 O 0.87401 0.90471 0.28089 0.0
O475 O 0.80056 0.90392 0.33888 0.0
C476 C 0.25904 0.02001 0.86674 0.0
C477 C 0.24087 0.05865 0.02378 0.0
C478 C 0.10837 0.85229 0.97759 0.0
Mg479 Mg 0.31168 0.9768 0.95923 0.0
O480 O 0.25628 0.93864 -0.00571 0.0
Mg481 Mg 0.18625 0.95319 0.94786 0.0
Mg482 Mg 0.24829 0.85941 0.01059 0.0
O483 O 0.23343 0.78449 0.02479 0.0
Mg484 Mg 0.18194 0.73989 0.98554 0.0
Mg485 Mg 0.30669 0.75801 0.04803 0.0
C486 C 0.38667 0.8852 0.01668 0.0
C487 C 0.24732 0.82633 0.13931 0.0
O488 O 0.21795 0.0208 0.89816 0.0
O489 O 0.29726 0.9841 0.87246 0.0
O490 O 0.19918 0.02443 0.01696 0.0
O491 O 0.28715 0.05219 -0.00065 0.0
O492 O 0.37878 0.93153 0.99211 0.0
O493 O 0.34627 0.84947 0.0254 0.0
C494 C 0.24456 0.84747 0.87772 0.0
O495 O 0.26753 0.83413 0.92312 0.0
O496 O 0.20883 0.88752 0.87687 0.0
O497 O 0.25495 0.67038 0.06841 0.0
O498 O 0.17026 0.70085 0.06418 0.0
O499 O 0.31291 0.73474 0.9561 0.0
C500 C 0.20304 0.65981 0.06084 0.0
O501 O 0.24214 0.68233 0.93799 0.0
O502 O 0.11131 0.79931 0.96915 0.0
C503 C 0.29405 0.68599 0.9499 0.0
O504 O 0.15205 0.8791 -0.00602 0.0
O505 O 0.23414 0.8648 0.10412 0.0
O506 O 0.28189 0.78739 0.12977 0.0
C507 C 0.94 0.55847 0.25093 0.0
C508 C 0.97684 0.40332 0.28234 0.0
C509 C 0.15392 0.48065 0.39416 0.0
Mg510 Mg 0.01983 0.47346 0.20684 0.0
O511 O 0.06442 0.52076 0.25087 0.0
Mg512 Mg 0.04585 0.52032 0.33214 0.0
Mg513 Mg 0.14126 0.49625 0.25382 0.0
O514 O 0.21655 0.47737 0.25862 0.0
Mg515 Mg 0.26207 0.50385 0.31816 0.0
Mg516 Mg 0.23621 0.49608 0.18038 0.0
C517 C 0.10567 0.50389 0.12099 0.0
C518 C 0.17831 0.38242 0.18852 0.0
O519 O 0.97218 0.56465 0.29449 0.0
O520 O 0.94672 0.52175 0.21262 0.0
O521 O 0.98184 0.44462 0.31669 0.0
O522 O 0.01174 0.39638 0.24432 0.0
O523 O 0.06128 0.47813 0.13173 0.0
O524 O 0.14167 0.52016 0.15943 0.0
C525 C 0.15184 0.61396 0.32308 0.0
O526 O 0.16619 0.58316 0.28246 0.0
O527 O 0.10677 0.60229 0.34876 0.0
O528 O 0.32734 0.46777 0.21413 0.0
O529 O 0.30193 0.42883 0.29233 0.0
O530 O 0.25271 0.58265 0.21054 0.0
C531 C 0.34021 0.44253 0.26005 0.0
O532 O 0.31403 0.57062 0.27728 0.0
O533 O 0.20508 0.4965 0.39285 0.0
C534 C 0.30261 0.5861 0.22707 0.0
O535 O 0.12653 0.47153 0.34843 0.0
O536 O 0.14057 0.40383 0.22053 0.0
O537 O 0.2148 0.41104 0.1644 0.0
C538 C 0.78385 0.44548 0.07062 0.0
C539 C 0.75098 0.46995 0.92459 0.0
C540 C 0.88553 0.65291 0.96423 0.0
Mg541 Mg 0.69782 0.51853 0.00731 0.0
O542 O 0.74948 0.57172 0.0232 0.0
Mg543 Mg 0.82957 0.55199 0.01285 0.0
Mg544 Mg 0.74652 0.64334 0.9828 0.0
O545 O 0.75133 0.71647 0.95568 0.0
Mg546 Mg 0.81137 0.76122 0.98108 0.0
Mg547 Mg 0.67607 0.74395 0.97019 0.0
C548 C 0.61721 0.61778 0.03244 0.0
C549 C 0.68896 0.66248 0.86236 0.0
O550 O 0.81933 0.48456 0.07187 0.0
O551 O 0.73512 0.44938 0.04902 0.0
O552 O 0.79853 0.47797 0.94907 0.0
O553 O 0.71488 0.50839 0.92403 0.0
O554 O 0.62939 0.56595 0.03472 0.0
O555 O 0.65024 0.6539 0.00862 0.0
C556 C 0.81683 0.66469 0.09249 0.0
O557 O 0.77454 0.67575 0.06282 0.0
O558 O 0.8471 0.62127 0.083 0.0
O559 O 0.71582 0.82975 0.93457 0.0
O560 O 0.79598 0.80005 0.9035 0.0
O561 O 0.70143 0.77481 0.05812 0.0
C562 C 0.76312 0.84006 0.91265 0.0
O563 O 0.77909 0.81984 0.04736 0.0
O564 O 0.88393 0.70456 0.97926 0.0
C565 C 0.72957 0.81921 0.06552 0.0
O566 O 0.84023 0.62524 0.95571 0.0
O567 O 0.71659 0.62665 0.89202 0.0
O568 O 0.66606 0.70616 0.88342 0.0
C569 C 0.28385 0.94602 0.57186 0.0
C570 C 0.24922 0.96844 0.42485 0.0
C571 C 0.37918 0.14965 0.45402 0.0
Mg572 Mg 0.19632 0.01699 0.50704 0.0
O573 O 0.24731 0.07074 0.52229 0.0
Mg574 Mg 0.32757 0.05109 0.5106 0.0
Mg575 Mg 0.24309 0.14214 0.48064 0.0
O576 O 0.24776 0.21522 0.45247 0.0
Mg577 Mg 0.30842 0.25966 0.47553 0.0
Mg578 Mg 0.17371 0.2437 0.46911 0.0
C579 C 0.11638 0.11691 0.53323 0.0
C580 C 0.18489 0.16275 0.36085 0.0
O581 O 0.31959 0.98484 0.57149 0.0
O582 O 0.23506 0.94942 0.55026 0.0
O583 O 0.29677 0.97632 0.44903 0.0
O584 O 0.21365 0.00734 0.42364 0.0
O585 O 0.12881 0.06513 0.53523 0.0
O586 O 0.1483 0.15333 0.50842 0.0
C587 C 0.31631 0.16434 0.58976 0.0
O588 O 0.27357 0.17516 0.56053 0.0
O589 O 0.34666 0.1212 0.57956 0.0
O590 O 0.21459 0.32986 0.43342 0.0
O591 O 0.29366 0.30093 0.39942 0.0
O592 O 0.20045 0.27364 0.55674 0.0
C593 C 0.26144 0.34084 0.41077 0.0
O594 O 0.27846 0.31731 0.54419 0.0
O595 O 0.37864 0.20143 0.46878 0.0
C596 C 0.22936 0.31757 0.56353 0.0
O597 O 0.33396 0.12181 0.45042 0.0
O598 O 0.21141 0.12598 0.39038 0.0
O599 O 0.16249 0.20657 0.38219 0.0
C600 C 0.56351 0.56598 0.70892 0.0
C601 C 0.53669 0.41207 0.74028 0.0
C602 C 0.34592 0.47329 0.61123 0.0
Mg603 Mg 0.49662 0.5044 0.79565 0.0
O604 O 0.44061 0.52156 0.74688 0.0
Mg605 Mg 0.45324 0.51037 0.66557 0.0
Mg606 Mg 0.36559 0.49217 0.75185 0.0
O607 O 0.29099 0.47149 0.75004 0.0
Mg608 Mg 0.24263 0.4938 0.69097 0.0
Mg609 Mg 0.27121 0.48714 0.82815 0.0
C610 C 0.40745 0.53047 0.88221 0.0
C611 C 0.33922 0.37776 0.81279 0.0
O612 O 0.52488 0.56186 0.67263 0.0
O613 O 0.56212 0.54689 0.75849 0.0
O614 O 0.52215 0.43656 0.69371 0.0
O615 O 0.51117 0.42135 0.78502 0.0
O616 O 0.45802 0.52954 0.86829 0.0
O617 O 0.36636 0.51615 0.84806 0.0
C618 C 0.35288 0.60606 0.68687 0.0
O619 O 0.34045 0.5769 0.7283 0.0
O620 O 0.3918 0.5904 0.65362 0.0
O621 O 0.18131 0.45347 0.79113 0.0
O622 O 0.20933 0.41543 0.71221 0.0
O623 O 0.2466 0.57272 0.80035 0.0
C624 C 0.1701 0.42722 0.74447 0.0
O625 O 0.18637 0.55754 0.73263 0.0
O626 O 0.29519 0.49006 0.61398 0.0
C627 C 0.19658 0.57392 0.78307 0.0
O628 O 0.37389 0.46292 0.65658 0.0
O629 O 0.37392 0.40335 0.78162 0.0
O630 O 0.30072 0.40174 0.83994 0.0
C631 C 0.75694 0.52165 0.36652 0.0
C632 C 0.7388 0.55804 0.52351 0.0
C633 C 0.60729 0.34971 0.48386 0.0
Mg634 Mg 0.8098 0.47775 0.45792 0.0
O635 O 0.75509 0.43895 0.49366 0.0
Mg636 Mg 0.68524 0.45275 0.44602 0.0
Mg637 Mg 0.74953 0.3588 0.50695 0.0
O638 O 0.73846 0.28281 0.51757 0.0
Mg639 Mg 0.67903 0.23593 0.50006 0.0
Mg640 Mg 0.81214 0.25801 0.5444 0.0
C641 C 0.88731 0.38708 0.5127 0.0
C642 C 0.74819 0.32332 0.63573 0.0
O643 O 0.71592 0.52243 0.39807 0.0
O644 O 0.79449 0.48496 0.37139 0.0
O645 O 0.69761 0.52316 0.51659 0.0
O646 O 0.78488 0.55267 0.49849 0.0
O647 O 0.87854 0.43379 0.48916 0.0
O648 O 0.84756 0.35059 0.52083 0.0
C649 C 0.74684 0.34993 0.37428 0.0
O650 O 0.77017 0.33702 0.41954 0.0
O651 O 0.71004 0.38899 0.37361 0.0
O652 O 0.76898 0.16944 0.57003 0.0
O653 O 0.69136 0.21035 0.58494 0.0
O654 O 0.80284 0.23282 0.45114 0.0
C655 C 0.71694 0.1654 0.57432 0.0
O656 O 0.73141 0.17707 0.44692 0.0
O657 O 0.60761 0.29616 0.48643 0.0
C658 C 0.78444 0.18323 0.44807 0.0
O659 O 0.65335 0.37616 0.49024 0.0
O660 O 0.73334 0.36098 0.60041 0.0
O661 O 0.78664 0.28794 0.62697 0.0
C662 C 0.43743 0.05692 0.75479 0.0
C663 C 0.47412 0.90216 0.78817 0.0
C664 C 0.65236 0.98009 0.8956 0.0
Mg665 Mg 0.51567 0.97047 0.71232 0.0
O666 O 0.56091 0.019 0.75401 0.0
Mg667 Mg 0.54363 0.01985 0.83545 0.0
Mg668 Mg 0.63775 0.99469 0.75568 0.0
O669 O 0.71324 0.97652 0.75908 0.0
Mg670 Mg 0.75943 0.00345 0.81775 0.0
Mg671 Mg 0.73145 0.99439 0.6802 0.0
C672 C 0.59743 0.00246 0.62428 0.0
C673 C 0.67563 0.88057 0.69087 0.0
O674 O 0.47015 0.06436 0.79776 0.0
O675 O 0.44268 0.01815 0.71837 0.0
O676 O 0.47869 0.94439 0.82141 0.0
O677 O 0.50996 0.89396 0.75131 0.0
O678 O 0.55347 0.97655 0.63598 0.0
O679 O 0.63551 0.0172 0.66146 0.0
C680 C 0.64975 0.11347 0.8236 0.0
O681 O 0.66309 0.08234 0.78282 0.0
O682 O 0.60533 0.10188 0.85045 0.0
O683 O 0.82334 0.96673 0.71312 0.0
O684 O 0.7989 0.92821 0.79195 0.0
O685 O 0.74905 0.08133 0.70826 0.0
C686 C 0.83676 0.94163 0.75904 0.0
O687 O 0.8108 0.0696 0.77491 0.0
O688 O 0.70344 0.99612 0.89353 0.0
C689 C 0.79909 0.08477 0.7246 0.0
O690 O 0.62441 0.97077 0.85037 0.0
O691 O 0.63811 0.90167 0.72341 0.0
O692 O 0.71078 0.90954 0.66537 0.0
C693 C 0.42027 0.22792 0.93562 0.0
C694 C 0.56513 0.25432 0.9538 0.0
C695 C 0.53299 0.11686 0.15172 0.0
Mg696 Mg 0.47266 0.30998 0.01283 0.0
O697 O 0.48073 0.25522 0.0646 0.0
Mg698 Mg 0.4892 0.17541 0.0427 0.0
Mg699 Mg 0.5117 0.25794 0.14085 0.0
O700 O 0.5368 0.25304 0.21619 0.0
Mg701 Mg 0.5183 0.19214 0.26158 0.0
Mg702 Mg 0.52467 0.32931 0.24427 0.0
C703 C 0.46326 0.39321 0.11526 0.0
C704 C 0.62944 0.31952 0.16388 0.0
O705 O 0.43843 0.18877 0.96634 0.0
O706 O 0.4206 0.27933 0.94939 0.0
O707 O 0.55725 0.20746 0.97913 0.0
O708 O 0.54335 0.3004 0.96857 0.0
O709 O 0.45659 0.38026 0.06359 0.0
O710 O 0.48497 0.35741 0.15187 0.0
C711 C 0.40022 0.18534 0.14544 0.0
O712 O 0.42837 0.22667 0.1638 0.0
O713 O 0.41414 0.15764 0.10137 0.0
O714 O 0.56275 0.28749 0.33293 0.0
O715 O 0.59578 0.20756 0.30383 0.0
O716 O 0.43906 0.30256 0.27046 0.0
C717 C 0.58434 0.23937 0.34467 0.0
O718 O 0.4514 0.22562 0.31741 0.0
O719 O 0.52053 0.11898 0.20381 0.0
C720 C 0.43375 0.27602 0.31573 0.0
O721 O 0.53975 0.16244 0.12399 0.0
O722 O 0.60046 0.28948 0.12893 0.0
O723 O 0.60954 0.3415 0.20842 0.0
loop_
_geom_bond_atom_site_label_1
_geom_bond_atom_site_label_2
_geom_bond_distance
_geom_bond_site_symmetry_2
_ccdc_geom_bond_type
Sc0 O3 2.025 . S
Sc0 O10 2.105 . S
Sc0 O13 2.105 . S
Sc0 O16 2.105 . S
Sc0 O19 2.105 . S
Sc1 O3 2.025 . S
Sc1 O11 2.105 . S
Sc1 O15 2.105 . S
Sc1 O17 2.105 . S
Sc1 O21 2.105 . S
Sc2 O3 2.025 . S
Sc2 O12 2.105 . S
Sc2 O14 2.105 . S
Sc2 O18 2.105 . S
Sc2 O20 2.105 . S
O3 Sc0 2.025 . S
O3 Sc1 2.025 . S
O3 Sc2 2.025 . S
C4 O10 1.268 . S
C4 O20 1.268 . S
C5 O11 1.268 . S
C5 O19 1.268 . S
C6 O12 1.268 . S
C6 O21 1.268 . S
C7 O13 1.268 . S
C7 O17 1.268 . S
C8 O14 1.268 . S
C8 O16 1.268 . S
C9 O15 1.268 . S
C9 O18 1.268 . S
O10 Sc0 2.105 . S
O10 C4 1.268 . S
O11 Sc1 2.105 . S
O11 C5 1.268 . S
O12 Sc2 2.105 . S
O12 C6 1.268 . S
O13 Sc0 2.105 . S
O13 C7 1.268 . S
O14 Sc2 2.105 . S
O14 C8 1.268 . S
O15 Sc1 2.105 . S
O15 C9 1.268 . S
O16 Sc0 2.105 . S
O16 C8 1.268 . S
O17 Sc1 2.105 . S
O17 C7 1.268 . S
O18 Sc2 2.105 . S
O18 C9 1.268 . S
O19 Sc0 2.105 . S
O19 C5 1.268 . S
O20 Sc2 2.105 . S
O20 C4 1.268 . S
O21 Sc1 2.105 . S
O21 C6 1.268 . S
Sc22 O25 2.025 . S
Sc22 O32 2.105 . S
Sc22 O35 2.105 . S
Sc22 O38 2.105 . S
Sc22 O41 2.105 1_554 S
Sc23 O25 2.025 . S
Sc23 O33 2.105 1_554 S
Sc23 O37 2.105 . S
Sc23 O39 2.105 . S
Sc23 O43 2.105 . S
Sc24 O25 2.025 . S
Sc24 O34 2.105 . S
Sc24 O36 2.105 . S
Sc24 O40 2.105 . S
Sc24 O42 2.105 . S
O25 Sc22 2.025 . S
O25 Sc23 2.025 . S
O25 Sc24 2.025 . S
C26 O32 1.268 . S
C26 O42 1.268 . S
C27 O33 1.268 . S
C27 O41 1.268 . S
C28 O34 1.268 . S
C28 O43 1.268 . S
C29 O35 1.268 . S
C29 O39 1.268 . S
C30 O36 1.268 . S
C30 O38 1.268 . S
C31 O37 1.268 . S
C31 O40 1.268 . S
O32 Sc22 2.105 . S
O32 C26 1.268 . S
O33 Sc23 2.105 1_556 S
O33 C27 1.268 . S
O34 Sc24 2.105 . S
O34 C28 1.268 . S
O35 Sc22 2.105 . S
O35 C29 1.268 . S
O36 Sc24 2.105 . S
O36 C30 1.268 . S
O37 Sc23 2.105 . S
O37 C31 1.268 . S
O38 Sc22 2.105 . S
O38 C30 1.268 . S
O39 Sc23 2.105 . S
O39 C29 1.268 . S
O40 Sc24 2.105 . S
O40 C31 1.268 . S
O41 Sc22 2.105 1_556 S
O41 C27 1.268 . S
O42 Sc24 2.105 . S
O42 C26 1.268 . S
O43 Sc23 2.105 . S
O43 C28 1.268 . S
Sc44 O47 2.025 . S
Sc44 O54 2.105 . S
Sc44 O57 2.105 . S
Sc44 O60 2.105 . S
Sc44 O63 2.105 . S
Sc45 O47 2.025 . S
Sc45 O55 2.105 . S
Sc45 O59 2.105 . S
Sc45 O61 2.105 . S
Sc45 O65 2.105 . S
Sc46 O47 2.025 . S
Sc46 O56 2.105 . S
Sc46 O58 2.105 . S
Sc46 O62 2.105 . S
Sc46 O64 2.105 . S
O47 Sc44 2.025 . S
O47 Sc45 2.025 . S
O47 Sc46 2.025 . S
C48 O54 1.268 . S
C48 O64 1.268 . S
C49 O55 1.268 . S
C49 O63 1.268 . S
C50 O56 1.268 . S
C50 O65 1.268 . S
C51 O57 1.268 . S
C51 O61 1.268 . S
C52 O58 1.268 . S
C52 O60 1.268 . S
C53 O59 1.268 . S
C53 O62 1.268 . S
O54 Sc44 2.105 . S
O54 C48 1.268 . S
O55 Sc45 2.105 . S
O55 C49 1.268 . S
O56 Sc46 2.105 . S
O56 C50 1.268 . S
O57 Sc44 2.105 . S
O57 C51 1.268 . S
O58 Sc46 2.105 . S
O58 C52 1.268 . S
O59 Sc45 2.105 . S
O59 C53 1.268 . S
O60 Sc44 2.105 . S
O60 C52 1.268 . S
O61 Sc45 2.105 . S
O61 C51 1.268 . S
O62 Sc46 2.105 . S
O62 C53 1.268 . S
O63 Sc44 2.105 . S
O63 C49 1.268 . S
O64 Sc46 2.105 . S
O64 C48 1.268 . S
O65 Sc45 2.105 . S
O65 C50 1.268 . S
Sc66 O69 2.025 . S
Sc66 O76 2.105 . S
Sc66 O79 2.105 1_554 S
Sc66 O82 2.105 1_565 S
Sc66 O85 2.105 . S
Sc67 O69 2.025 . S
Sc67 O77 2.105 . S
Sc67 O81 2.105 . S
Sc67 O83 2.105 1_554 S
Sc67 O87 2.105 . S
Sc68 O69 2.025 . S
Sc68 O78 2.105 . S
Sc68 O80 2.105 1_565 S
Sc68 O84 2.105 . S
Sc68 O86 2.105 . S
O69 Sc66 2.025 . S
O69 Sc67 2.025 . S
O69 Sc68 2.025 . S
C70 O76 1.268 . S
C70 O86 1.268 . S
C71 O77 1.268 . S
C71 O85 1.268 . S
C72 O78 1.268 . S
C72 O87 1.268 . S
C73 O79 1.268 . S
C73 O83 1.268 . S
C74 O80 1.268 . S
C74 O82 1.268 . S
C75 O81 1.268 . S
C75 O84 1.268 . S
O76 Sc66 2.105 . S
O76 C70 1.268 . S
O77 Sc67 2.105 . S
O77 C71 1.268 . S
O78 Sc68 2.105 . S
O78 C72 1.268 . S
O79 Sc66 2.105 1_556 S
O79 C73 1.268 . S
O80 Sc68 2.105 1_545 S
O80 C74 1.268 . S
O81 Sc67 2.105 . S
O81 C75 1.268 . S
O82 Sc66 2.105 1_545 S
O82 C74 1.268 . S
O83 Sc67 2.105 1_556 S
O83 C73 1.268 . S
O84 Sc68 2.105 . S
O84 C75 1.268 . S
O85 Sc66 2.105 . S
O85 C71 1.268 . S
O86 Sc68 2.105 . S
O86 C70 1.268 . S
O87 Sc67 2.105 . S
O87 C72 1.268 . S
Sc88 O91 2.025 . S
Sc88 O98 2.105 . S
Sc88 O101 2.105 . S
Sc88 O104 2.105 . S
Sc88 O107 2.105 . S
Sc89 O91 2.025 . S
Sc89 O99 2.105 . S
Sc89 O103 2.105 . S
Sc89 O105 2.105 . S
Sc89 O109 2.105 . S
Sc90 O91 2.025 . S
Sc90 O100 2.105 . S
Sc90 O102 2.105 . S
Sc90 O106 2.105 . S
Sc90 O108 2.105 . S
O91 Sc88 2.025 . S
O91 Sc89 2.025 . S
O91 Sc90 2.025 . S
C92 O98 1.268 . S
C92 O108 1.268 . S
C93 O99 1.268 . S
C93 O107 1.268 . S
C94 O100 1.268 . S
C94 O109 1.268 . S
C95 O101 1.268 . S
C95 O105 1.268 . S
C96 O102 1.268 . S
C96 O104 1.268 . S
C97 O103 1.268 . S
C97 O106 1.268 . S
O98 Sc88 2.105 . S
O98 C92 1.268 . S
O99 Sc89 2.105 . S
O99 C93 1.268 . S
O100 Sc90 2.105 . S
O100 C94 1.268 . S
O101 Sc88 2.105 . S
O101 C95 1.268 . S
O102 Sc90 2.105 . S
O102 C96 1.268 . S
O103 Sc89 2.105 . S
O103 C97 1.268 . S
O104 Sc88 2.105 . S
O104 C96 1.268 . S
O105 Sc89 2.105 . S
O105 C95 1.268 . S
O106 Sc90 2.105 . S
O106 C97 1.268 . S
O107 Sc88 2.105 . S
O107 C93 1.268 . S
O108 Sc90 2.105 . S
O108 C92 1.268 . S
O109 Sc89 2.105 . S
O109 C94 1.268 . S
Sc110 O113 2.025 . S
Sc110 O120 2.105 . S
Sc110 O123 2.105 1_455 S
Sc110 O126 2.105 1_556 S
Sc110 O129 2.105 . S
Sc111 O113 2.025 . S
Sc111 O121 2.105 . S
Sc111 O125 2.105 . S
Sc111 O127 2.105 1_455 S
Sc111 O131 2.105 . S
Sc112 O113 2.025 . S
Sc112 O122 2.105 . S
Sc112 O124 2.105 1_556 S
Sc112 O128 2.105 . S
Sc112 O130 2.105 . S
O113 Sc110 2.025 . S
O113 Sc111 2.025 . S
O113 Sc112 2.025 . S
C114 O120 1.268 . S
C114 O130 1.268 . S
C115 O121 1.268 . S
C115 O129 1.268 . S
C116 O122 1.268 . S
C116 O131 1.268 . S
C117 O123 1.268 . S
C117 O127 1.268 . S
C118 O124 1.268 . S
C118 O126 1.268 . S
C119 O125 1.268 . S
C119 O128 1.268 . S
O120 Sc110 2.105 . S
O120 C114 1.268 . S
O121 Sc111 2.105 . S
O121 C115 1.268 . S
O122 Sc112 2.105 . S
O122 C116 1.268 . S
O123 Sc110 2.105 1_655 S
O123 C117 1.268 . S
O124 Sc112 2.105 1_554 S
O124 C118 1.268 . S
O125 Sc111 2.105 . S
O125 C119 1.268 . S
O126 Sc110 2.105 1_554 S
O126 C118 1.268 . S
O127 Sc111 2.105 1_655 S
O127 C117 1.268 . S
O128 Sc112 2.105 . S
O128 C119 1.268 . S
O129 Sc110 2.105 . S
O129 C115 1.268 . S
O130 Sc112 2.105 . S
O130 C114 1.268 . S
O131 Sc111 2.105 . S
O131 C116 1.268 . S
Sc132 O135 2.025 . S
Sc132 O142 2.105 . S
Sc132 O145 2.105 . S
Sc132 O148 2.105 . S
Sc132 O151 2.105 . S
Sc133 O135 2.025 . S
Sc133 O143 2.105 . S
Sc133 O147 2.105 . S
Sc133 O149 2.105 . S
Sc133 O153 2.105 . S
Sc134 O135 2.025 . S
Sc134 O144 2.105 . S
Sc134 O146 2.105 . S
Sc134 O150 2.105 . S
Sc134 O152 2.105 . S
O135 Sc132 2.025 . S
O135 Sc133 2.025 . S
O135 Sc134 2.025 . S
C136 O142 1.268 . S
C136 O152 1.268 . S
C137 O143 1.268 . S
C137 O151 1.268 . S
C138 O144 1.268 . S
C138 O153 1.268 . S
C139 O145 1.268 . S
C139 O149 1.268 . S
C140 O146 1.268 . S
C140 O148 1.268 . S
C141 O147 1.268 . S
C141 O150 1.268 . S
O142 Sc132 2.105 . S
O142 C136 1.268 . S
O143 Sc133 2.105 . S
O143 C137 1.268 . S
O144 Sc134 2.105 . S
O144 C138 1.268 . S
O145 Sc132 2.105 . S
O145 C139 1.268 . S
O146 Sc134 2.105 . S
O146 C140 1.268 . S
O147 Sc133 2.105 . S
O147 C141 1.268 . S
O148 Sc132 2.105 . S
O148 C140 1.268 . S
O149 Sc133 2.105 . S
O149 C139 1.268 . S
O150 Sc134 2.105 . S
O150 C141 1.268 . S
O151 Sc132 2.105 . S
O151 C137 1.268 . S
O152 Sc134 2.105 . S
O152 C136 1.268 . S
O153 Sc133 2.105 . S
O153 C138 1.268 . S
Sc154 O157 2.025 . S
Sc154 O164 2.105 . S
Sc154 O167 2.105 1_565 S
Sc154 O170 2.105 1_655 S
Sc154 O173 2.105 . S
Sc155 O157 2.025 . S
Sc155 O165 2.105 . S
Sc155 O169 2.105 1_556 S
Sc155 O171 2.105 1_565 S
Sc155 O175 2.105 . S
Sc156 O157 2.025 . S
Sc156 O166 2.105 . S
Sc156 O168 2.105 1_655 S
Sc156 O172 2.105 1_556 S
Sc156 O174 2.105 . S
O157 Sc154 2.025 . S
O157 Sc155 2.025 . S
O157 Sc156 2.025 . S
C158 O164 1.268 . S
C158 O174 1.268 . S
C159 O165 1.268 . S
C159 O173 1.268 . S
C160 O166 1.268 . S
C160 O175 1.268 . S
C161 O167 1.268 . S
C161 O171 1.268 . S
C162 O168 1.268 . S
C162 O170 1.268 . S
C163 O169 1.268 . S
C163 O172 1.268 . S
O164 Sc154 2.105 . S
O164 C158 1.268 . S
O165 Sc155 2.105 . S
O165 C159 1.268 . S
O166 Sc156 2.105 . S
O166 C160 1.268 . S
O167 Sc154 2.105 1_545 S
O167 C161 1.268 . S
O168 Sc156 2.105 1_455 S
O168 C162 1.268 . S
O169 Sc155 2.105 1_554 S
O169 C163 1.268 . S
O170 Sc154 2.105 1_455 S
O170 C162 1.268 . S
O171 Sc155 2.105 1_545 S
O171 C161 1.268 . S
O172 Sc156 2.105 1_554 S
O172 C163 1.268 . S
O173 Sc154 2.105 . S
O173 C159 1.268 . S
O174 Sc156 2.105 . S
O174 C158 1.268 . S
O175 Sc155 2.105 . S
O175 C160 1.268 . S
Sc176 O179 2.025 . S
Sc176 O186 2.105 . S
Sc176 O189 2.105 . S
Sc176 O192 2.105 . S
Sc176 O195 2.105 . S
Sc177 O179 2.025 . S
Sc177 O187 2.105 . S
Sc177 O191 2.105 . S
Sc177 O193 2.105 . S
Sc177 O197 2.105 . S
Sc178 O179 2.025 . S
Sc178 O188 2.105 . S
Sc178 O190 2.105 . S
Sc178 O194 2.105 . S
Sc178 O196 2.105 . S
O179 Sc176 2.025 . S
O179 Sc177 2.025 . S
O179 Sc178 2.025 . S
C180 O186 1.268 . S
C180 O196 1.268 . S
C181 O187 1.268 . S
C181 O195 1.268 . S
C182 O188 1.268 . S
C182 O197 1.268 . S
C183 O189 1.268 . S
C183 O193 1.268 . S
C184 O190 1.268 . S
C184 O192 1.268 . S
C185 O191 1.268 . S
C185 O194 1.268 . S
O186 Sc176 2.105 . S
O186 C180 1.268 . S
O187 Sc177 2.105 . S
O187 C181 1.268 . S
O188 Sc178 2.105 . S
O188 C182 1.268 . S
O189 Sc176 2.105 . S
O189 C183 1.268 . S
O190 Sc178 2.105 . S
O190 C184 1.268 . S
O191 Sc177 2.105 . S
O191 C185 1.268 . S
O192 Sc176 2.105 . S
O192 C184 1.268 . S
O193 Sc177 2.105 . S
O193 C183 1.268 . S
O194 Sc178 2.105 . S
O194 C185 1.268 . S
O195 Sc176 2.105 . S
O195 C181 1.268 . S
O196 Sc178 2.105 . S
O196 C180 1.268 . S
O197 Sc177 2.105 . S
O197 C182 1.268 . S
Sc198 O201 2.025 . S
Sc198 O208 2.105 . S
Sc198 O211 2.105 . S
Sc198 O214 2.105 . S
Sc198 O217 2.105 . S
Sc199 O201 2.025 . S
Sc199 O209 2.105 . S
Sc199 O213 2.105 . S
Sc199 O215 2.105 . S
Sc199 O219 2.105 . S
Sc200 O201 2.025 . S
Sc200 O210 2.105 . S
Sc200 O212 2.105 . S
Sc200 O216 2.105 . S
Sc200 O218 2.105 . S
O201 Sc198 2.025 . S
O201 Sc199 2.025 . S
O201 Sc200 2.025 . S
C202 O208 1.268 . S
C202 O218 1.268 . S
C203 O209 1.268 . S
C203 O217 1.268 . S
C204 O210 1.268 . S
C204 O219 1.268 . S
C205 O211 1.268 . S
C205 O215 1.268 . S
C206 O212 1.268 . S
C206 O214 1.268 . S
C207 O213 1.268 . S
C207 O216 1.268 . S
O208 Sc198 2.105 . S
O208 C202 1.268 . S
O209 Sc199 2.105 . S
O209 C203 1.268 . S
O210 Sc200 2.105 . S
O210 C204 1.268 . S
O211 Sc198 2.105 . S
O211 C205 1.268 . S
O212 Sc200 2.105 . S
O212 C206 1.268 . S
O213 Sc199 2.105 . S
O213 C207 1.268 . S
O214 Sc198 2.105 . S
O214 C206 1.268 . S
O215 Sc199 2.105 . S
O215 C205 1.268 . S
O216 Sc200 2.105 . S
O216 C207 1.268 . S
O217 Sc198 2.105 . S
O217 C203 1.268 . S
O218 Sc200 2.105 . S
O218 C202 1.268 . S
O219 Sc199 2.105 . S
O219 C204 1.268 . S
Sc220 O223 2.025 . S
Sc220 O230 2.105 . S
Sc220 O233 2.105 . S
Sc220 O236 2.105 . S
Sc220 O239 2.105 . S
Sc221 O223 2.025 . S
Sc221 O231 2.105 . S
Sc221 O235 2.105 1_455 S
Sc221 O237 2.105 . S
Sc221 O241 2.105 . S
Sc222 O223 2.025 . S
Sc222 O232 2.105 . S
Sc222 O234 2.105 . S
Sc222 O238 2.105 1_455 S
Sc222 O240 2.105 . S
O223 Sc220 2.025 . S
O223 Sc221 2.025 . S
O223 Sc222 2.025 . S
C224 O230 1.268 . S
C224 O240 1.268 . S
C225 O231 1.268 . S
C225 O239 1.268 . S
C226 O232 1.268 . S
C226 O241 1.268 . S
C227 O233 1.268 . S
C227 O237 1.268 . S
C228 O234 1.268 . S
C228 O236 1.268 . S
C229 O235 1.268 . S
C229 O238 1.268 . S
O230 Sc220 2.105 . S
O230 C224 1.268 . S
O231 Sc221 2.105 . S
O231 C225 1.268 . S
O232 Sc222 2.105 . S
O232 C226 1.268 . S
O233 Sc220 2.105 . S
O233 C227 1.268 . S
O234 Sc222 2.105 . S
O234 C228 1.268 . S
O235 Sc221 2.105 1_655 S
O235 C229 1.268 . S
O236 Sc220 2.105 . S
O236 C228 1.268 . S
O237 Sc221 2.105 . S
O237 C227 1.268 . S
O238 Sc222 2.105 1_655 S
O238 C229 1.268 . S
O239 Sc220 2.105 . S
O239 C225 1.268 . S
O240 Sc222 2.105 . S
O240 C224 1.268 . S
O241 Sc221 2.105 . S
O241 C226 1.268 . S
Sc242 O245 2.025 . S
Sc242 O252 2.105 1_655 S
Sc242 O255 2.105 . S
Sc242 O258 2.105 . S
Sc242 O261 2.105 . S
Sc243 O245 2.025 . S
Sc243 O253 2.105 . S
Sc243 O257 2.105 . S
Sc243 O259 2.105 . S
Sc243 O263 2.105 1_545 S
Sc244 O245 2.025 . S
Sc244 O254 2.105 1_545 S
Sc244 O256 2.105 . S
Sc244 O260 2.105 . S
Sc244 O262 2.105 1_655 S
O245 Sc242 2.025 . S
O245 Sc243 2.025 . S
O245 Sc244 2.025 . S
C246 O252 1.268 . S
C246 O262 1.268 . S
C247 O253 1.268 . S
C247 O261 1.268 . S
C248 O254 1.268 . S
C248 O263 1.268 . S
C249 O255 1.268 . S
C249 O259 1.268 . S
C250 O256 1.268 . S
C250 O258 1.268 . S
C251 O257 1.268 . S
C251 O260 1.268 . S
O252 Sc242 2.105 1_455 S
O252 C246 1.268 . S
O253 Sc243 2.105 . S
O253 C247 1.268 . S
O254 Sc244 2.105 1_565 S
O254 C248 1.268 . S
O255 Sc242 2.105 . S
O255 C249 1.268 . S
O256 Sc244 2.105 . S
O256 C250 1.268 . S
O257 Sc243 2.105 . S
O257 C251 1.268 . S
O258 Sc242 2.105 . S
O258 C250 1.268 . S
O259 Sc243 2.105 . S
O259 C249 1.268 . S
O260 Sc244 2.105 . S
O260 C251 1.268 . S
O261 Sc242 2.105 . S
O261 C247 1.268 . S
O262 Sc244 2.105 1_455 S
O262 C246 1.268 . S
O263 Sc243 2.105 1_565 S
O263 C248 1.268 . S
Sc264 O267 2.025 . S
Sc264 O274 2.105 . S
Sc264 O277 2.105 . S
Sc264 O280 2.105 . S
Sc264 O283 2.105 . S
Sc265 O267 2.025 . S
Sc265 O275 2.105 . S
Sc265 O279 2.105 . S
Sc265 O281 2.105 . S
Sc265 O285 2.105 . S
Sc266 O267 2.025 . S
Sc266 O276 2.105 . S
Sc266 O278 2.105 . S
Sc266 O282 2.105 . S
Sc266 O284 2.105 . S
O267 Sc264 2.025 . S
O267 Sc265 2.025 . S
O267 Sc266 2.025 . S
C268 O274 1.268 . S
C268 O284 1.268 . S
C269 O275 1.268 . S
C269 O283 1.268 . S
C270 O276 1.268 . S
C270 O285 1.268 . S
C271 O277 1.268 . S
C271 O281 1.268 . S
C272 O278 1.268 . S
C272 O280 1.268 . S
C273 O279 1.268 . S
C273 O282 1.268 . S
O274 Sc264 2.105 . S
O274 C268 1.268 . S
O275 Sc265 2.105 . S
O275 C269 1.268 . S
O276 Sc266 2.105 . S
O276 C270 1.268 . S
O277 Sc264 2.105 . S
O277 C271 1.268 . S
O278 Sc266 2.105 . S
O278 C272 1.268 . S
O279 Sc265 2.105 . S
O279 C273 1.268 . S
O280 Sc264 2.105 . S
O280 C272 1.268 . S
O281 Sc265 2.105 . S
O281 C271 1.268 . S
O282 Sc266 2.105 . S
O282 C273 1.268 . S
O283 Sc264 2.105 . S
O283 C269 1.268 . S
O284 Sc266 2.105 . S
O284 C268 1.268 . S
O285 Sc265 2.105 . S
O285 C270 1.268 . S
Sc286 O289 2.025 . S
Sc286 O296 2.105 . S
Sc286 O299 2.105 . S
Sc286 O302 2.105 . S
Sc286 O305 2.105 . S
Sc287 O289 2.025 . S
Sc287 O297 2.105 . S
Sc287 O301 2.105 . S
Sc287 O303 2.105 . S
Sc287 O307 2.105 . S
Sc288 O289 2.025 . S
Sc288 O298 2.105 . S
Sc288 O300 2.105 . S
Sc288 O304 2.105 . S
Sc288 O306 2.105 . S
O289 Sc286 2.025 . S
O289 Sc287 2.025 . S
O289 Sc288 2.025 . S
C290 O296 1.268 . S
C290 O306 1.268 . S
C291 O297 1.268 . S
C291 O305 1.268 . S
C292 O298 1.268 . S
C292 O307 1.268 . S
C293 O299 1.268 . S
C293 O303 1.268 . S
C294 O300 1.268 . S
C294 O302 1.268 . S
C295 O301 1.268 . S
C295 O304 1.268 . S
O296 Sc286 2.105 . S
O296 C290 1.268 . S
O297 Sc287 2.105 . S
O297 C291 1.268 . S
O298 Sc288 2.105 . S
O298 C292 1.268 . S
O299 Sc286 2.105 . S
O299 C293 1.268 . S
O300 Sc288 2.105 . S
O300 C294 1.268 . S
O301 Sc287 2.105 . S
O301 C295 1.268 . S
O302 Sc286 2.105 . S
O302 C294 1.268 . S
O303 Sc287 2.105 . S
O303 C293 1.268 . S
O304 Sc288 2.105 . S
O304 C295 1.268 . S
O305 Sc286 2.105 . S
O305 C291 1.268 . S
O306 Sc288 2.105 . S
O306 C290 1.268 . S
O307 Sc287 2.105 . S
O307 C292 1.268 . S
Sc308 O311 2.025 . S
Sc308 O318 2.105 . S
Sc308 O321 2.105 . S
Sc308 O324 2.105 . S
Sc308 O327 2.105 . S
Sc309 O311 2.025 . S
Sc309 O319 2.105 . S
Sc309 O323 2.105 1_545 S
Sc309 O325 2.105 . S
Sc309 O329 2.105 . S
Sc310 O311 2.025 . S
Sc310 O320 2.105 . S
Sc310 O322 2.105 . S
Sc310 O326 2.105 1_545 S
Sc310 O328 2.105 . S
O311 Sc308 2.025 . S
O311 Sc309 2.025 . S
O311 Sc310 2.025 . S
C312 O318 1.268 . S
C312 O328 1.268 . S
C313 O319 1.268 . S
C313 O327 1.268 . S
C314 O320 1.268 . S
C314 O329 1.268 . S
C315 O321 1.268 . S
C315 O325 1.268 . S
C316 O322 1.268 . S
C316 O324 1.268 . S
C317 O323 1.268 . S
C317 O326 1.268 . S
O318 Sc308 2.105 . S
O318 C312 1.268 . S
O319 Sc309 2.105 . S
O319 C313 1.268 . S
O320 Sc310 2.105 . S
O320 C314 1.268 . S
O321 Sc308 2.105 . S
O321 C315 1.268 . S
O322 Sc310 2.105 . S
O322 C316 1.268 . S
O323 Sc309 2.105 1_565 S
O323 C317 1.268 . S
O324 Sc308 2.105 . S
O324 C316 1.268 . S
O325 Sc309 2.105 . S
O325 C315 1.268 . S
O326 Sc310 2.105 1_565 S
O326 C317 1.268 . S
O327 Sc308 2.105 . S
O327 C313 1.268 . S
O328 Sc310 2.105 . S
O328 C312 1.268 . S
O329 Sc309 2.105 . S
O329 C314 1.268 . S
Sc330 O333 2.025 . S
Sc330 O340 2.105 . S
Sc330 O343 2.105 . S
Sc330 O346 2.105 . S
Sc330 O349 2.105 . S
Sc331 O333 2.025 . S
Sc331 O341 2.105 . S
Sc331 O345 2.105 . S
Sc331 O347 2.105 . S
Sc331 O351 2.105 . S
Sc332 O333 2.025 . S
Sc332 O342 2.105 . S
Sc332 O344 2.105 . S
Sc332 O348 2.105 . S
Sc332 O350 2.105 . S
O333 Sc330 2.025 . S
O333 Sc331 2.025 . S
O333 Sc332 2.025 . S
C334 O340 1.268 . S
C334 O350 1.268 . S
C335 O341 1.268 . S
C335 O349 1.268 . S
C336 O342 1.268 . S
C336 O351 1.268 . S
C337 O343 1.268 . S
C337 O347 1.268 . S
C338 O344 1.268 . S
C338 O346 1.268 . S
C339 O345 1.268 . S
C339 O348 1.268 . S
O340 Sc330 2.105 . S
O340 C334 1.268 . S
O341 Sc331 2.105 . S
O341 C335 1.268 . S
O342 Sc332 2.105 . S
O342 C336 1.268 . S
O343 Sc330 2.105 . S
O343 C337 1.268 . S
O344 Sc332 2.105 . S
O344 C338 1.268 . S
O345 Sc331 2.105 . S
O345 C339 1.268 . S
O346 Sc330 2.105 . S
O346 C338 1.268 . S
O347 Sc331 2.105 . S
O347 C337 1.268 . S
O348 Sc332 2.105 . S
O348 C339 1.268 . S
O349 Sc330 2.105 . S
O349 C335 1.268 . S
O350 Sc332 2.105 . S
O350 C334 1.268 . S
O351 Sc331 2.105 . S
O351 C336 1.268 . S
C352 O364 1.241 . S
C352 O365 1.280 . S
C353 O366 1.277 . S
C353 O367 1.245 . S
C354 O378 1.247 1_455 S
C354 O380 1.289 . S
Mg355 O356 1.926 1_454 S
Mg355 O365 1.984 1_455 S
Mg355 O367 1.988 . S
Mg355 O368 2.061 1_554 S
O356 Mg355 1.926 1_656 S
O356 Mg357 1.986 . S
O356 Mg358 1.916 1_655 S
Mg357 O356 1.986 . S
Mg357 O364 2.042 1_556 S
Mg357 O366 2.041 1_656 S
Mg357 O372 2.038 . S
Mg357 O380 2.238 1_655 S
Mg358 O356 1.916 1_455 S
Mg358 O359 1.918 . S
Mg358 O369 2.106 1_455 S
Mg358 O371 2.076 1_455 S
Mg358 O380 2.107 . S
Mg358 O381 2.082 . S
O359 Mg358 1.918 . S
O359 Mg360 1.926 1_455 S
O359 Mg361 1.986 . S
Mg360 O359 1.926 1_655 S
Mg360 O374 1.984 1_655 S
Mg360 O377 1.988 . S
Mg360 O378 2.061 . S
Mg361 O359 1.986 . S
Mg361 O369 2.238 1_455 S
Mg361 O373 2.042 . S
Mg361 O375 2.041 1_455 S
Mg361 O382 2.038 . S
C362 O368 1.247 1_655 S
C362 O369 1.289 . S
C363 O381 1.245 . S
C363 O382 1.274 . S
O364 C352 1.241 . S
O364 Mg357 2.042 1_554 S
O365 C352 1.280 . S
O365 Mg355 1.984 1_655 S
O366 C353 1.277 . S
O366 Mg357 2.041 1_454 S
O367 C353 1.245 . S
O367 Mg355 1.988 . S
O368 Mg355 2.061 1_556 S
O368 C362 1.247 1_455 S
O369 Mg358 2.106 1_655 S
O369 Mg361 2.238 1_655 S
O369 C362 1.289 . S
C370 O371 1.245 . S
C370 O372 1.274 . S
O371 Mg358 2.076 1_655 S
O371 C370 1.245 . S
O372 Mg357 2.038 . S
O372 C370 1.274 . S
O373 Mg361 2.042 . S
O373 C376 1.241 . S
O374 Mg360 1.984 1_455 S
O374 C376 1.280 . S
O375 Mg361 2.041 1_655 S
O375 C379 1.277 . S
C376 O373 1.241 . S
C376 O374 1.280 . S
O377 Mg360 1.988 . S
O377 C379 1.245 . S
O378 C354 1.247 1_655 S
O378 Mg360 2.061 . S
C379 O375 1.277 . S
C379 O377 1.245 . S
O380 C354 1.289 . S
O380 Mg357 2.238 1_455 S
O380 Mg358 2.107 . S
O381 Mg358 2.082 . S
O381 C363 1.245 . S
O382 Mg361 2.038 . S
O382 C363 1.274 . S
C383 O395 1.241 . S
C383 O396 1.280 . S
C384 O397 1.277 . S
C384 O398 1.245 . S
C385 O409 1.247 . S
C385 O411 1.289 . S
Mg386 O387 1.926 . S
Mg386 O396 1.984 . S
Mg386 O398 1.988 . S
Mg386 O399 2.061 . S
O387 Mg386 1.926 . S
O387 Mg388 1.986 . S
O387 Mg389 1.917 . S
Mg388 O387 1.986 . S
Mg388 O395 2.042 . S
Mg388 O397 2.041 . S
Mg388 O403 2.038 . S
Mg388 O411 2.238 . S
Mg389 O387 1.917 . S
Mg389 O390 1.917 . S
Mg389 O400 2.106 . S
Mg389 O402 2.079 . S
Mg389 O411 2.106 . S
Mg389 O412 2.079 . S
O390 Mg389 1.917 . S
O390 Mg391 1.926 . S
O390 Mg392 1.986 . S
Mg391 O390 1.926 . S
Mg391 O405 1.984 . S
Mg391 O408 1.988 . S
Mg391 O409 2.061 . S
Mg392 O390 1.986 . S
Mg392 O400 2.238 . S
Mg392 O404 2.042 . S
Mg392 O406 2.041 . S
Mg392 O413 2.038 . S
C393 O399 1.247 . S
C393 O400 1.289 . S
C394 O412 1.245 . S
C394 O413 1.274 . S
O395 C383 1.241 . S
O395 Mg388 2.042 . S
O396 C383 1.280 . S
O396 Mg386 1.984 . S
O397 C384 1.277 . S
O397 Mg388 2.041 . S
O398 C384 1.245 . S
O398 Mg386 1.988 . S
O399 Mg386 2.061 . S
O399 C393 1.247 . S
O400 Mg389 2.106 . S
O400 Mg392 2.238 . S
O400 C393 1.289 . S
C401 O402 1.245 . S
C401 O403 1.274 . S
O402 Mg389 2.079 . S
O402 C401 1.245 . S
O403 Mg388 2.038 . S
O403 C401 1.274 . S
O404 Mg392 2.042 . S
O404 C407 1.241 . S
O405 Mg391 1.984 . S
O405 C407 1.280 . S
O406 Mg392 2.041 . S
O406 C410 1.277 . S
C407 O404 1.241 . S
C407 O405 1.280 . S
O408 Mg391 1.988 . S
O408 C410 1.245 . S
O409 C385 1.247 . S
O409 Mg391 2.061 . S
C410 O406 1.277 . S
C410 O408 1.245 . S
O411 C385 1.289 . S
O411 Mg388 2.238 . S
O411 Mg389 2.106 . S
O412 Mg389 2.079 . S
O412 C394 1.245 . S
O413 Mg392 2.038 . S
O413 C394 1.274 . S
C414 O426 1.241 . S
C414 O427 1.280 . S
C415 O428 1.277 . S
C415 O429 1.245 . S
C416 O440 1.247 . S
C416 O442 1.289 . S
Mg417 O418 1.926 1_455 S
Mg417 O427 1.984 1_455 S
Mg417 O429 1.988 . S
Mg417 O430 2.061 . S
O418 Mg417 1.926 1_655 S
O418 Mg419 1.986 . S
O418 Mg420 1.917 1_655 S
Mg419 O418 1.986 . S
Mg419 O426 2.042 . S
Mg419 O428 2.041 1_655 S
Mg419 O434 2.038 . S
Mg419 O442 2.238 1_655 S
Mg420 O418 1.917 1_455 S
Mg420 O421 1.917 . S
Mg420 O431 2.106 1_455 S
Mg420 O433 2.079 1_455 S
Mg420 O442 2.106 . S
Mg420 O443 2.079 . S
O421 Mg420 1.917 . S
O421 Mg422 1.926 1_455 S
O421 Mg423 1.986 . S
Mg422 O421 1.926 1_655 S
Mg422 O436 1.984 1_655 S
Mg422 O439 1.988 . S
Mg422 O440 2.061 1_655 S
Mg423 O421 1.986 . S
Mg423 O431 2.233 1_455 S
Mg423 O435 2.042 . S
Mg423 O437 2.041 1_455 S
Mg423 O444 2.038 . S
C424 O430 1.247 1_655 S
C424 O431 1.290 . S
C425 O443 1.245 . S
C425 O444 1.274 . S
O426 C414 1.241 . S
O426 Mg419 2.042 . S
O427 C414 1.280 . S
O427 Mg417 1.984 1_655 S
O428 C415 1.277 . S
O428 Mg419 2.041 1_455 S
O429 C415 1.245 . S
O429 Mg417 1.988 . S
O430 Mg417 2.061 . S
O430 C424 1.247 1_455 S
O431 Mg420 2.106 1_655 S
O431 Mg423 2.233 1_655 S
O431 C424 1.290 . S
C432 O433 1.245 . S
C432 O434 1.274 . S
O433 Mg420 2.079 1_655 S
O433 C432 1.245 . S
O434 Mg419 2.038 . S
O434 C432 1.274 . S
O435 Mg423 2.042 . S
O435 C438 1.241 . S
O436 Mg422 1.984 1_455 S
O436 C438 1.280 . S
O437 Mg423 2.041 1_655 S
O437 C441 1.277 . S
C438 O435 1.241 . S
C438 O436 1.280 . S
O439 Mg422 1.988 . S
O439 C441 1.245 . S
O440 C416 1.247 . S
O440 Mg422 2.061 1_455 S
C441 O437 1.277 . S
C441 O439 1.245 . S
O442 C416 1.289 . S
O442 Mg419 2.238 1_455 S
O442 Mg420 2.106 . S
O443 Mg420 2.079 . S
O443 C425 1.245 . S
O444 Mg423 2.038 . S
O444 C425 1.274 . S
C445 O457 1.241 . S
C445 O458 1.280 . S
C446 O459 1.277 . S
C446 O460 1.245 . S
C447 O471 1.245 1_565 S
C447 O473 1.289 . S
Mg448 O449 1.926 1_465 S
Mg448 O458 1.984 1_565 S
Mg448 O460 1.988 . S
Mg448 O461 2.059 1_465 S
O449 Mg448 1.926 1_645 S
O449 Mg450 1.986 . S
O449 Mg451 1.919 . S
Mg450 O449 1.986 . S
Mg450 O457 2.042 1_655 S
Mg450 O459 2.041 1_645 S
Mg450 O465 2.038 . S
Mg450 O473 2.238 1_545 S
Mg451 O449 1.919 . S
Mg451 O452 1.915 1_545 S
Mg451 O462 2.107 . S
Mg451 O464 2.090 . S
Mg451 O473 2.106 1_545 S
Mg451 O474 2.068 1_545 S
O452 Mg451 1.915 1_565 S
O452 Mg453 1.926 1_565 S
O452 Mg454 1.986 . S
Mg453 O452 1.926 1_545 S
Mg453 O467 1.984 1_545 S
Mg453 O470 1.988 . S
Mg453 O471 2.062 . S
Mg454 O452 1.986 . S
Mg454 O462 2.238 1_565 S
Mg454 O466 2.042 . S
Mg454 O468 2.041 1_565 S
Mg454 O475 2.038 . S
C455 O461 1.252 . S
C455 O462 1.289 . S
C456 O474 1.245 . S
C456 O475 1.274 . S
O457 C445 1.241 . S
O457 Mg450 2.042 1_455 S
O458 C445 1.280 . S
O458 Mg448 1.984 1_545 S
O459 C446 1.277 . S
O459 Mg450 2.041 1_465 S
O460 C446 1.245 . S
O460 Mg448 1.988 . S
O461 Mg448 2.059 1_645 S
O461 C455 1.252 . S
O462 Mg451 2.107 . S
O462 Mg454 2.238 1_545 S
O462 C455 1.289 . S
C463 O464 1.245 . S
C463 O465 1.274 . S
O464 Mg451 2.090 . S
O464 C463 1.245 . S
O465 Mg450 2.038 . S
O465 C463 1.274 . S
O466 Mg454 2.042 . S
O466 C469 1.241 . S
O467 Mg453 1.984 1_565 S
O467 C469 1.280 . S
O468 Mg454 2.041 1_545 S
O468 C472 1.277 . S
C469 O466 1.241 . S
C469 O467 1.280 . S
O470 Mg453 1.988 . S
O470 C472 1.245 . S
O471 C447 1.245 1_545 S
O471 Mg453 2.062 . S
C472 O468 1.277 . S
C472 O470 1.245 . S
O473 C447 1.289 . S
O473 Mg450 2.238 1_565 S
O473 Mg451 2.106 1_565 S
O474 Mg451 2.068 1_565 S
O474 C456 1.245 . S
O475 Mg454 2.038 . S
O475 C456 1.274 . S
C476 O488 1.241 . S
C476 O489 1.280 . S
C477 O490 1.277 . S
C477 O491 1.245 . S
C478 O502 1.247 . S
C478 O504 1.289 . S
Mg479 O480 1.926 1_544 S
Mg479 O489 1.984 1_554 S
Mg479 O491 1.988 . S
Mg479 O492 2.061 1_545 S
O480 Mg479 1.926 1_566 S
O480 Mg481 1.986 . S
O480 Mg482 1.917 1_556 S
Mg481 O480 1.986 . S
Mg481 O488 2.042 1_565 S
Mg481 O490 2.041 1_566 S
Mg481 O496 2.038 . S
Mg481 O504 2.238 . S
Mg482 O480 1.917 1_554 S
Mg482 O483 1.917 . S
Mg482 O493 2.106 . S
Mg482 O495 2.079 1_554 S
Mg482 O504 2.106 1_554 S
Mg482 O505 2.079 . S
O483 Mg482 1.917 . S
O483 Mg484 1.926 1_554 S
O483 Mg485 1.986 . S
Mg484 O483 1.926 1_556 S
Mg484 O498 1.984 1_556 S
Mg484 O501 1.988 . S
Mg484 O502 2.061 . S
Mg485 O483 1.986 . S
Mg485 O493 2.238 . S
Mg485 O497 2.042 . S
Mg485 O499 2.041 . S
Mg485 O506 2.038 . S
C486 O492 1.247 . S
C486 O493 1.289 . S
C487 O505 1.245 . S
C487 O506 1.274 . S
O488 C476 1.241 . S
O488 Mg481 2.042 1_545 S
O489 C476 1.280 . S
O489 Mg479 1.984 1_556 S
O490 C477 1.277 . S
O490 Mg481 2.041 1_544 S
O491 C477 1.245 . S
O491 Mg479 1.988 . S
O492 Mg479 2.061 1_565 S
O492 C486 1.247 . S
O493 Mg482 2.106 . S
O493 Mg485 2.238 . S
O493 C486 1.289 . S
C494 O495 1.245 . S
C494 O496 1.274 . S
O495 Mg482 2.079 1_556 S
O495 C494 1.245 . S
O496 Mg481 2.038 . S
O496 C494 1.274 . S
O497 Mg485 2.042 . S
O497 C500 1.241 . S
O498 Mg484 1.984 1_554 S
O498 C500 1.280 . S
O499 Mg485 2.041 . S
O499 C503 1.277 1_554 S
C500 O497 1.241 . S
C500 O498 1.280 . S
O501 Mg484 1.988 . S
O501 C503 1.245 . S
O502 C478 1.247 . S
O502 Mg484 2.061 . S
C503 O499 1.277 1_556 S
C503 O501 1.245 . S
O504 C478 1.289 . S
O504 Mg481 2.238 . S
O504 Mg482 2.106 1_556 S
O505 Mg482 2.079 . S
O505 C487 1.245 . S
O506 Mg485 2.038 . S
O506 C487 1.274 . S
C507 O519 1.241 . S
C507 O520 1.280 . S
C508 O521 1.277 . S
C508 O522 1.245 . S
C509 O533 1.247 . S
C509 O535 1.289 . S
Mg510 O511 1.923 1_655 S
Mg510 O520 1.988 . S
Mg510 O522 1.990 . S
Mg510 O523 2.057 1_655 S
O511 Mg510 1.923 1_455 S
O511 Mg512 1.986 . S
O511 Mg513 1.917 . S
Mg512 O511 1.986 . S
Mg512 O519 2.042 1_455 S
Mg512 O521 2.041 1_455 S
Mg512 O527 2.038 . S
Mg512 O535 2.238 . S
Mg513 O511 1.917 . S
Mg513 O514 1.917 . S
Mg513 O524 2.106 . S
Mg513 O526 2.079 . S
Mg513 O535 2.106 . S
Mg513 O536 2.079 . S
O514 Mg513 1.917 . S
O514 Mg515 1.926 . S
O514 Mg516 1.986 . S
Mg515 O514 1.926 . S
Mg515 O529 1.984 . S
Mg515 O532 1.988 . S
Mg515 O533 2.061 . S
Mg516 O514 1.986 . S
Mg516 O524 2.238 . S
Mg516 O528 2.042 . S
Mg516 O530 2.041 . S
Mg516 O537 2.038 . S
C517 O523 1.247 . S
C517 O524 1.289 . S
C518 O536 1.245 . S
C518 O537 1.274 . S
O519 C507 1.241 . S
O519 Mg512 2.042 1_655 S
O520 C507 1.280 . S
O520 Mg510 1.988 . S
O521 C508 1.277 . S
O521 Mg512 2.041 1_655 S
O522 C508 1.245 . S
O522 Mg510 1.990 . S
O523 Mg510 2.057 1_455 S
O523 C517 1.247 . S
O524 Mg513 2.106 . S
O524 Mg516 2.238 . S
O524 C517 1.289 . S
C525 O526 1.245 . S
C525 O527 1.274 . S
O526 Mg513 2.079 . S
O526 C525 1.245 . S
O527 Mg512 2.038 . S
O527 C525 1.274 . S
O528 Mg516 2.042 . S
O528 C531 1.241 . S
O529 Mg515 1.984 . S
O529 C531 1.280 . S
O530 Mg516 2.041 . S
O530 C534 1.277 . S
C531 O528 1.241 . S
C531 O529 1.280 . S
O532 Mg515 1.988 . S
O532 C534 1.245 . S
O533 C509 1.247 . S
O533 Mg515 2.061 . S
C534 O530 1.277 . S
C534 O532 1.245 . S
O535 C509 1.289 . S
O535 Mg512 2.238 . S
O535 Mg513 2.106 . S
O536 Mg513 2.079 . S
O536 C518 1.245 . S
O537 Mg516 2.038 . S
O537 C518 1.274 . S
C538 O550 1.241 . S
C538 O551 1.280 . S
C539 O552 1.277 . S
C539 O553 1.245 . S
C540 O564 1.247 1_556 S
C540 O566 1.289 . S
Mg541 O542 1.926 1_556 S
Mg541 O551 1.984 1_556 S
Mg541 O553 1.988 . S
Mg541 O554 2.061 . S
O542 Mg541 1.926 1_554 S
O542 Mg543 1.986 . S
O542 Mg544 1.917 . S
Mg543 O542 1.986 . S
Mg543 O550 2.042 . S
Mg543 O552 2.041 1_554 S
Mg543 O558 2.038 . S
Mg543 O566 2.238 1_554 S
Mg544 O542 1.917 . S
Mg544 O545 1.917 1_554 S
Mg544 O555 2.106 . S
Mg544 O557 2.079 . S
Mg544 O566 2.106 1_554 S
Mg544 O567 2.079 1_554 S
O545 Mg544 1.917 1_556 S
O545 Mg546 1.926 1_556 S
O545 Mg547 1.986 . S
Mg546 O545 1.926 1_554 S
Mg546 O560 1.984 1_554 S
Mg546 O563 1.988 . S
Mg546 O564 2.061 . S
Mg547 O545 1.986 . S
Mg547 O555 2.238 1_556 S
Mg547 O559 2.042 . S
Mg547 O561 2.041 1_556 S
Mg547 O568 2.038 . S
C548 O554 1.247 1_554 S
C548 O555 1.289 . S
C549 O567 1.245 . S
C549 O568 1.274 . S
O550 C538 1.241 . S
O550 Mg543 2.042 . S
O551 C538 1.280 . S
O551 Mg541 1.984 1_554 S
O552 C539 1.277 . S
O552 Mg543 2.041 1_556 S
O553 C539 1.245 . S
O553 Mg541 1.988 . S
O554 Mg541 2.061 . S
O554 C548 1.247 1_556 S
O555 Mg544 2.106 . S
O555 Mg547 2.238 1_554 S
O555 C548 1.289 . S
C556 O557 1.245 . S
C556 O558 1.274 . S
O557 Mg544 2.079 . S
O557 C556 1.245 . S
O558 Mg543 2.038 . S
O558 C556 1.274 . S
O559 Mg547 2.042 . S
O559 C562 1.241 . S
O560 Mg546 1.984 1_556 S
O560 C562 1.280 . S
O561 Mg547 2.041 1_554 S
O561 C565 1.277 . S
C562 O559 1.241 . S
C562 O560 1.280 . S
O563 Mg546 1.988 . S
O563 C565 1.245 . S
O564 C540 1.247 1_554 S
O564 Mg546 2.061 . S
C565 O561 1.277 . S
C565 O563 1.245 . S
O566 C540 1.289 . S
O566 Mg543 2.238 1_556 S
O566 Mg544 2.106 1_556 S
O567 Mg544 2.079 1_556 S
O567 C549 1.245 . S
O568 Mg547 2.038 . S
O568 C549 1.274 . S
C569 O581 1.241 . S
C569 O582 1.280 . S
C570 O583 1.277 . S
C570 O584 1.245 . S
C571 O595 1.247 . S
C571 O597 1.289 . S
Mg572 O573 1.926 1_565 S
Mg572 O582 1.984 . S
Mg572 O584 1.988 . S
Mg572 O585 2.061 1_565 S
O573 Mg572 1.926 1_545 S
O573 Mg574 1.986 . S
O573 Mg575 1.917 . S
Mg574 O573 1.986 . S
Mg574 O581 2.042 1_545 S
Mg574 O583 2.041 1_545 S
Mg574 O589 2.038 . S
Mg574 O597 2.238 . S
Mg575 O573 1.917 . S
Mg575 O576 1.917 . S
Mg575 O586 2.106 . S
Mg575 O588 2.079 . S
Mg575 O597 2.106 . S
Mg575 O598 2.079 . S
O576 Mg575 1.917 . S
O576 Mg577 1.926 . S
O576 Mg578 1.986 . S
Mg577 O576 1.926 . S
Mg577 O591 1.984 . S
Mg577 O594 1.988 . S
Mg577 O595 2.061 . S
Mg578 O576 1.986 . S
Mg578 O586 2.238 . S
Mg578 O590 2.042 . S
Mg578 O592 2.041 . S
Mg578 O599 2.038 . S
C579 O585 1.247 . S
C579 O586 1.289 . S
C580 O598 1.245 . S
C580 O599 1.274 . S
O581 C569 1.241 . S
O581 Mg574 2.042 1_565 S
O582 C569 1.280 . S
O582 Mg572 1.984 . S
O583 C570 1.277 . S
O583 Mg574 2.041 1_565 S
O584 C570 1.245 . S
O584 Mg572 1.988 . S
O585 Mg572 2.061 1_545 S
O585 C579 1.247 . S
O586 Mg575 2.106 . S
O586 Mg578 2.238 . S
O586 C579 1.289 . S
C587 O588 1.245 . S
C587 O589 1.274 . S
O588 Mg575 2.079 . S
O588 C587 1.245 . S
O589 Mg574 2.038 . S
O589 C587 1.274 . S
O590 Mg578 2.042 . S
O590 C593 1.241 . S
O591 Mg577 1.984 . S
O591 C593 1.280 . S
O592 Mg578 2.041 . S
O592 C596 1.277 . S
C593 O590 1.241 . S
C593 O591 1.280 . S
O594 Mg577 1.988 . S
O594 C596 1.245 . S
O595 C571 1.247 . S
O595 Mg577 2.061 . S
C596 O592 1.277 . S
C596 O594 1.245 . S
O597 C571 1.289 . S
O597 Mg574 2.238 . S
O597 Mg575 2.106 . S
O598 Mg575 2.079 . S
O598 C580 1.245 . S
O599 Mg578 2.038 . S
O599 C580 1.274 . S
C600 O612 1.241 . S
C600 O613 1.280 . S
C601 O614 1.277 . S
C601 O615 1.245 . S
C602 O626 1.247 . S
C602 O628 1.289 . S
Mg603 O604 1.926 . S
Mg603 O613 1.984 . S
Mg603 O615 1.988 . S
Mg603 O616 2.061 . S
O604 Mg603 1.926 . S
O604 Mg605 1.986 . S
O604 Mg606 1.917 . S
Mg605 O604 1.986 . S
Mg605 O612 2.042 . S
Mg605 O614 2.041 . S
Mg605 O620 2.038 . S
Mg605 O628 2.238 . S
Mg606 O604 1.917 . S
Mg606 O607 1.917 . S
Mg606 O617 2.106 . S
Mg606 O619 2.079 . S
Mg606 O628 2.106 . S
Mg606 O629 2.079 . S
O607 Mg606 1.917 . S
O607 Mg608 1.926 . S
O607 Mg609 1.986 . S
Mg608 O607 1.926 . S
Mg608 O622 1.984 . S
Mg608 O625 1.988 . S
Mg608 O626 2.061 . S
Mg609 O607 1.986 . S
Mg609 O617 2.238 . S
Mg609 O621 2.042 . S
Mg609 O623 2.041 . S
Mg609 O630 2.038 . S
C610 O616 1.247 . S
C610 O617 1.289 . S
C611 O629 1.245 . S
C611 O630 1.274 . S
O612 C600 1.241 . S
O612 Mg605 2.042 . S
O613 C600 1.280 . S
O613 Mg603 1.984 . S
O614 C601 1.277 . S
O614 Mg605 2.041 . S
O615 C601 1.245 . S
O615 Mg603 1.988 . S
O616 Mg603 2.061 . S
O616 C610 1.247 . S
O617 Mg606 2.106 . S
O617 Mg609 2.238 . S
O617 C610 1.289 . S
C618 O619 1.245 . S
C618 O620 1.274 . S
O619 Mg606 2.079 . S
O619 C618 1.245 . S
O620 Mg605 2.038 . S
O620 C618 1.274 . S
O621 Mg609 2.042 . S
O621 C624 1.241 . S
O622 Mg608 1.984 . S
O622 C624 1.280 . S
O623 Mg609 2.041 . S
O623 C627 1.277 . S
C624 O621 1.241 . S
C624 O622 1.280 . S
O625 Mg608 1.988 . S
O625 C627 1.245 . S
O626 C602 1.247 . S
O626 Mg608 2.061 . S
C627 O623 1.277 . S
C627 O625 1.245 . S
O628 C602 1.289 . S
O628 Mg605 2.238 . S
O628 Mg606 2.106 . S
O629 Mg606 2.079 . S
O629 C611 1.245 . S
O630 Mg609 2.038 . S
O630 C611 1.274 . S
C631 O643 1.241 . S
C631 O644 1.280 . S
C632 O645 1.277 . S
C632 O646 1.245 . S
C633 O657 1.247 . S
C633 O659 1.289 . S
Mg634 O635 1.926 . S
Mg634 O644 1.984 . S
Mg634 O646 1.988 . S
Mg634 O647 2.061 . S
O635 Mg634 1.926 . S
O635 Mg636 1.986 . S
O635 Mg637 1.917 . S
Mg636 O635 1.986 . S
Mg636 O643 2.042 . S
Mg636 O645 2.041 . S
Mg636 O651 2.038 . S
Mg636 O659 2.238 . S
Mg637 O635 1.917 . S
Mg637 O638 1.917 . S
Mg637 O648 2.106 . S
Mg637 O650 2.079 . S
Mg637 O659 2.106 . S
Mg637 O660 2.079 . S
O638 Mg637 1.917 . S
O638 Mg639 1.926 . S
O638 Mg640 1.986 . S
Mg639 O638 1.926 . S
Mg639 O653 1.984 . S
Mg639 O656 1.988 . S
Mg639 O657 2.061 . S
Mg640 O638 1.986 . S
Mg640 O648 2.238 . S
Mg640 O652 2.042 . S
Mg640 O654 2.041 . S
Mg640 O661 2.038 . S
C641 O647 1.247 . S
C641 O648 1.289 . S
C642 O660 1.245 . S
C642 O661 1.274 . S
O643 C631 1.241 . S
O643 Mg636 2.042 . S
O644 C631 1.280 . S
O644 Mg634 1.984 . S
O645 C632 1.277 . S
O645 Mg636 2.041 . S
O646 C632 1.245 . S
O646 Mg634 1.988 . S
O647 Mg634 2.061 . S
O647 C641 1.247 . S
O648 Mg637 2.106 . S
O648 Mg640 2.238 . S
O648 C641 1.289 . S
C649 O650 1.245 . S
C649 O651 1.274 . S
O650 Mg637 2.079 . S
O650 C649 1.245 . S
O651 Mg636 2.038 . S
O651 C649 1.274 . S
O652 Mg640 2.042 . S
O652 C655 1.241 . S
O653 Mg639 1.984 . S
O653 C655 1.280 . S
O654 Mg640 2.041 . S
O654 C658 1.277 . S
C655 O652 1.241 . S
C655 O653 1.280 . S
O656 Mg639 1.988 . S
O656 C658 1.245 . S
O657 C633 1.247 . S
O657 Mg639 2.061 . S
C658 O654 1.277 . S
C658 O656 1.245 . S
O659 C633 1.289 . S
O659 Mg636 2.238 . S
O659 Mg637 2.106 . S
O660 Mg637 2.079 . S
O660 C642 1.245 . S
O661 Mg640 2.038 . S
O661 C642 1.274 . S
C662 O674 1.241 . S
C662 O675 1.280 . S
C663 O676 1.277 . S
C663 O677 1.245 . S
C664 O688 1.246 1_565 S
C664 O690 1.289 . S
Mg665 O666 1.926 1_565 S
Mg665 O675 1.984 1_565 S
Mg665 O677 1.988 . S
Mg665 O678 2.058 1_565 S
O666 Mg665 1.926 1_545 S
O666 Mg667 1.986 . S
O666 Mg668 1.919 . S
Mg667 O666 1.986 . S
Mg667 O674 2.042 . S
Mg667 O676 2.041 1_545 S
Mg667 O682 2.038 . S
Mg667 O690 2.238 1_545 S
Mg668 O666 1.919 . S
Mg668 O669 1.915 1_545 S
Mg668 O679 2.107 . S
Mg668 O681 2.090 . S
Mg668 O690 2.106 1_545 S
Mg668 O691 2.067 1_545 S
O669 Mg668 1.915 1_565 S
O669 Mg670 1.926 1_565 S
O669 Mg671 1.986 . S
Mg670 O669 1.926 1_545 S
Mg670 O684 1.984 1_545 S
Mg670 O687 1.988 . S
Mg670 O688 2.062 . S
Mg671 O669 1.986 . S
Mg671 O679 2.238 1_565 S
Mg671 O683 2.042 . S
Mg671 O685 2.041 1_565 S
Mg671 O692 2.038 . S
C672 O678 1.253 . S
C672 O679 1.289 . S
C673 O691 1.245 . S
C673 O692 1.274 . S
O674 C662 1.241 . S
O674 Mg667 2.042 . S
O675 C662 1.280 . S
O675 Mg665 1.984 1_545 S
O676 C663 1.277 . S
O676 Mg667 2.041 1_565 S
O677 C663 1.245 . S
O677 Mg665 1.988 . S
O678 Mg665 2.058 1_545 S
O678 C672 1.253 . S
O679 Mg668 2.107 . S
O679 Mg671 2.238 1_545 S
O679 C672 1.289 . S
C680 O681 1.245 . S
C680 O682 1.274 . S
O681 Mg668 2.090 . S
O681 C680 1.245 . S
O682 Mg667 2.038 . S
O682 C680 1.274 . S
O683 Mg671 2.042 . S
O683 C686 1.241 . S
O684 Mg670 1.984 1_565 S
O684 C686 1.280 . S
O685 Mg671 2.041 1_545 S
O685 C689 1.277 . S
C686 O683 1.241 . S
C686 O684 1.280 . S
O687 Mg670 1.988 . S
O687 C689 1.245 . S
O688 C664 1.246 1_545 S
O688 Mg670 2.062 . S
C689 O685 1.277 . S
C689 O687 1.245 . S
O690 C664 1.289 . S
O690 Mg667 2.238 1_565 S
O690 Mg668 2.106 1_565 S
O691 Mg668 2.067 1_565 S
O691 C673 1.245 . S
O692 Mg671 2.038 . S
O692 C673 1.274 . S
C693 O705 1.241 . S
C693 O706 1.280 . S
C694 O707 1.277 . S
C694 O708 1.245 . S
C695 O719 1.247 . S
C695 O721 1.289 . S
Mg696 O697 1.926 . S
Mg696 O706 1.984 1_554 S
Mg696 O708 1.988 1_554 S
Mg696 O709 2.061 . S
O697 Mg696 1.926 . S
O697 Mg698 1.986 . S
O697 Mg699 1.917 . S
Mg698 O697 1.986 . S
Mg698 O705 2.042 1_554 S
Mg698 O707 2.041 1_554 S
Mg698 O713 2.038 . S
Mg698 O721 2.238 . S
Mg699 O697 1.917 . S
Mg699 O700 1.917 . S
Mg699 O710 2.106 . S
Mg699 O712 2.079 . S
Mg699 O721 2.106 . S
Mg699 O722 2.079 . S
O700 Mg699 1.917 . S
O700 Mg701 1.926 . S
O700 Mg702 1.986 . S
Mg701 O700 1.926 . S
Mg701 O715 1.984 . S
Mg701 O718 1.988 . S
Mg701 O719 2.061 . S
Mg702 O700 1.986 . S
Mg702 O710 2.238 . S
Mg702 O714 2.042 . S
Mg702 O716 2.041 . S
Mg702 O723 2.038 . S
C703 O709 1.247 . S
C703 O710 1.289 . S
C704 O722 1.245 . S
C704 O723 1.274 . S
O705 C693 1.241 . S
O705 Mg698 2.042 1_556 S
O706 C693 1.280 . S
O706 Mg696 1.984 1_556 S
O707 C694 1.277 . S
O707 Mg698 2.041 1_556 S
O708 C694 1.245 . S
O708 Mg696 1.988 1_556 S
O709 Mg696 2.061 . S
O709 C703 1.247 . S
O710 Mg699 2.106 . S
O710 Mg702 2.238 . S
O710 C703 1.289 . S
C711 O712 1.245 . S
C711 O713 1.274 . S
O712 Mg699 2.079 . S
O712 C711 1.245 . S
O713 Mg698 2.038 . S
O713 C711 1.274 . S
O714 Mg702 2.042 . S
O714 C717 1.241 . S
O715 Mg701 1.984 . S
O715 C717 1.280 . S
O716 Mg702 2.041 . S
O716 C720 1.277 . S
C717 O714 1.241 . S
C717 O715 1.280 . S
O718 Mg701 1.988 . S
O718 C720 1.245 . S
O719 C695 1.247 . S
O719 Mg701 2.061 . S
C720 O716 1.277 . S
C720 O718 1.245 . S
O721 C695 1.289 . S
O721 Mg698 2.238 . S
O721 Mg699 2.106 . S
O722 Mg699 2.079 . S
O722 C704 1.245 . S
O723 Mg702 2.038 . S
O723 C704 1.274 . S
C376 C226 1.725 . S
C384 C269 1.412 . S
C379 C250 1.866 . S
C205 C383 1.661 . S
C438 C115 2.190 . S
C136 C414 1.278 . S
C441 C158 1.643 . S
C97 C415 1.818 . S
C314 C472 2.311 . S
C336 C476 1.751 . S
C531 C180 1.812 . S
C539 C294 1.921 . S
C469 C70 1.865 . S
C477 C6 1.851 . S
C31 C534 2.089 . S
C53 C538 1.724 . S
C29 C503 1.925 1_554 S
C593 C181 2.025 . S
C293 C601 1.714 . S
C655 C312 2.044 . S
C137 C507 1.433 . S
C596 C225 1.814 . S
C600 C270 1.745 . S
C663 C206 1.515 . S
C72 C407 1.725 . S
C4 C353 1.412 . S
C410 C30 1.866 . S
C51 C352 1.661 . S
C313 C717 2.190 . S
C334 C693 1.278 . S
C720 C182 1.643 . S
C295 C694 1.818 . S
C116 C627 2.311 . S
C631 C138 1.751 . S
C686 C159 1.812 . S
C570 C96 1.921 . S
C624 C224 1.865 . S
C268 C632 1.851 . S
C251 C689 2.089 . S
C569 C207 1.724 . S
C249 C658 1.925 . S
C562 C160 2.024 . S
C95 C446 1.714 . S
C114 C500 2.044 1_556 S
C335 C662 1.434 . S
C71 C565 1.815 . S
C5 C445 1.745 . S
C508 C52 1.515 . S
C363 C339 2.176 . S
C393 C184 2.342 . S
C370 C290 2.509 . S
C385 C317 2.716 . S
C425 C204 2.129 . S
C228 C416 2.753 . S
C272 C432 2.636 . S
C248 C424 2.616 . S
C463 C49 2.231 . S
C486 C75 1.940 . S
C8 C518 1.695 . S
C548 C26 2.304 . S
C140 C456 1.765 . S
C478 C162 2.242 . S
C525 C94 2.222 . S
C117 C540 2.432 . S
C487 C93 2.210 . S
C7 C580 2.146 . S
C27 C610 2.057 . S
C48 C649 2.455 . S
C509 C227 2.547 . S
C587 C337 2.456 . S
C183 C602 2.601 . S
C672 C316 1.795 . S
C394 C141 2.176 . S
C161 C362 2.342 . S
C92 C401 2.509 . S
C119 C354 2.716 . S
C704 C50 2.129 . S
C695 C74 2.753 . S
C9 C711 2.636 . S
C28 C703 2.616 . S
C203 C618 2.231 . S
C641 C229 1.940 . S
C673 C271 1.695 . S
C246 C579 2.306 . S
C611 C338 1.765 . S
C185 C633 2.242 . S
C680 C292 2.222 . S
C315 C571 2.431 . S
C291 C642 2.210 . S
C273 C549 2.148 . S
C455 C247 2.057 . S
C202 C494 2.455 . S
C73 C664 2.547 . S
C139 C556 2.456 . S
C447 C163 2.601 . S
C118 C517 1.795 . S
