# Generated by pormake.
# Topology ocu, (6,8)-cn, num edge types: 1
# Building blocks:
#     Node 0, Type 0, BuildingBlock: FUNLAD_clean_sbu_0, # of connection points: 6
#     Node 1, Type 0, BuildingBlock: FUNLAD_clean_sbu_0, # of connection points: 6
#     Node 2, Type 0, BuildingBlock: FUNLAD_clean_sbu_0, # of connection points: 6
#     Node 3, Type 0, BuildingBlock: FUNLAD_clean_sbu_0, # of connection points: 6
#     Node 4, Type 0, BuildingBlock: FUNLAD_clean_sbu_0, # of connection points: 6
#     Node 5, Type 0, BuildingBlock: FUNLAD_clean_sbu_0, # of connection points: 6
#     Node 6, Type 0, BuildingBlock: FUNLAD_clean_sbu_0, # of connection points: 6
#     Node 7, Type 0, BuildingBlock: FUNLAD_clean_sbu_0, # of connection points: 6
#     Node 8, Type 1, BuildingBlock: TAGTUT_clean_sbu_1, # of connection points: 8
#     Node 9, Type 1, BuildingBlock: TAGTUT_clean_sbu_1, # of connection points: 8
#     Node 10, Type 1, BuildingBlock: TAGTUT_clean_sbu_1, # of connection points: 8
#     Node 11, Type 1, BuildingBlock: TAGTUT_clean_sbu_1, # of connection points: 8
#     Node 12, Type 1, BuildingBlock: TAGTUT_clean_sbu_1, # of connection points: 8
#     Node 13, Type 1, BuildingBlock: TAGTUT_clean_sbu_1, # of connection points: 8
#     Edge 14, Type (0, 1), BuildingBlock: XIVTED_clean_linker_0, # of connection points: 2
#     Edge 15, Type (0, 1), BuildingBlock: XIVTED_clean_linker_0, # of connection points: 2
#     Edge 16, Type (0, 1), BuildingBlock: XIVTED_clean_linker_0, # of connection points: 2
#     Edge 17, Type (0, 1), BuildingBlock: XIVTED_clean_linker_0, # of connection points: 2
#     Edge 18, Type (0, 1), BuildingBlock: XIVTED_clean_linker_0, # of connection points: 2
#     Edge 19, Type (0, 1), BuildingBlock: XIVTED_clean_linker_0, # of connection points: 2
#     Edge 20, Type (0, 1), BuildingBlock: XIVTED_clean_linker_0, # of connection points: 2
#     Edge 21, Type (0, 1), BuildingBlock: XIVTED_clean_linker_0, # of connection points: 2
#     Edge 22, Type (0, 1), BuildingBlock: XIVTED_clean_linker_0, # of connection points: 2
#     Edge 23, Type (0, 1), BuildingBlock: XIVTED_clean_linker_0, # of connection points: 2
#     Edge 24, Type (0, 1), BuildingBlock: XIVTED_clean_linker_0, # of connection points: 2
#     Edge 25, Type (0, 1), BuildingBlock: XIVTED_clean_linker_0, # of connection points: 2
#     Edge 26, Type (0, 1), BuildingBlock: XIVTED_clean_linker_0, # of connection points: 2
#     Edge 27, Type (0, 1), BuildingBlock: XIVTED_clean_linker_0, # of connection points: 2
#     Edge 28, Type (0, 1), BuildingBlock: XIVTED_clean_linker_0, # of connection points: 2
#     Edge 29, Type (0, 1), BuildingBlock: XIVTED_clean_linker_0, # of connection points: 2
#     Edge 30, Type (0, 1), BuildingBlock: XIVTED_clean_linker_0, # of connection points: 2
#     Edge 31, Type (0, 1), BuildingBlock: XIVTED_clean_linker_0, # of connection points: 2
#     Edge 32, Type (0, 1), BuildingBlock: XIVTED_clean_linker_0, # of connection points: 2
#     Edge 33, Type (0, 1), BuildingBlock: XIVTED_clean_linker_0, # of connection points: 2
#     Edge 34, Type (0, 1), BuildingBlock: XIVTED_clean_linker_0, # of connection points: 2
#     Edge 35, Type (0, 1), BuildingBlock: XIVTED_clean_linker_0, # of connection points: 2
#     Edge 36, Type (0, 1), BuildingBlock: XIVTED_clean_linker_0, # of connection points: 2
#     Edge 37, Type (0, 1), BuildingBlock: XIVTED_clean_linker_0, # of connection points: 2
#     Edge 38, Type (0, 1), BuildingBlock: XIVTED_clean_linker_0, # of connection points: 2
#     Edge 39, Type (0, 1), BuildingBlock: XIVTED_clean_linker_0, # of connection points: 2
#     Edge 40, Type (0, 1), BuildingBlock: XIVTED_clean_linker_0, # of connection points: 2
#     Edge 41, Type (0, 1), BuildingBlock: XIVTED_clean_linker_0, # of connection points: 2
#     Edge 42, Type (0, 1), BuildingBlock: XIVTED_clean_linker_0, # of connection points: 2
#     Edge 43, Type (0, 1), BuildingBlock: XIVTED_clean_linker_0, # of connection points: 2
#     Edge 44, Type (0, 1), BuildingBlock: XIVTED_clean_linker_0, # of connection points: 2
#     Edge 45, Type (0, 1), BuildingBlock: XIVTED_clean_linker_0, # of connection points: 2
#     Edge 46, Type (0, 1), BuildingBlock: XIVTED_clean_linker_0, # of connection points: 2
#     Edge 47, Type (0, 1), BuildingBlock: XIVTED_clean_linker_0, # of connection points: 2
#     Edge 48, Type (0, 1), BuildingBlock: XIVTED_clean_linker_0, # of connection points: 2
#     Edge 49, Type (0, 1), BuildingBlock: XIVTED_clean_linker_0, # of connection points: 2
#     Edge 50, Type (0, 1), BuildingBlock: XIVTED_clean_linker_0, # of connection points: 2
#     Edge 51, Type (0, 1), BuildingBlock: XIVTED_clean_linker_0, # of connection points: 2
#     Edge 52, Type (0, 1), BuildingBlock: XIVTED_clean_linker_0, # of connection points: 2
#     Edge 53, Type (0, 1), BuildingBlock: XIVTED_clean_linker_0, # of connection points: 2
#     Edge 54, Type (0, 1), BuildingBlock: XIVTED_clean_linker_0, # of connection points: 2
#     Edge 55, Type (0, 1), BuildingBlock: XIVTED_clean_linker_0, # of connection points: 2
#     Edge 56, Type (0, 1), BuildingBlock: XIVTED_clean_linker_0, # of connection points: 2
#     Edge 57, Type (0, 1), BuildingBlock: XIVTED_clean_linker_0, # of connection points: 2
#     Edge 58, Type (0, 1), BuildingBlock: XIVTED_clean_linker_0, # of connection points: 2
#     Edge 59, Type (0, 1), BuildingBlock: XIVTED_clean_linker_0, # of connection points: 2
#     Edge 60, Type (0, 1), BuildingBlock: XIVTED_clean_linker_0, # of connection points: 2
#     Edge 61, Type (0, 1), BuildingBlock: XIVTED_clean_linker_0, # of connection points: 2
# Relax obj value: 0.204
# Max RMSD: 0.257
# Mean RMSD: 0.202
data_MOF--net-ocu--node1-FUNLAD_clean_sbu_0--node2-TAGTUT_clean_sbu_1--edge1-XIVTED_clean_linker_0
_symmetry_space_group_name_H-M    P1
_symmetry_Int_Tables_number       1
_symmetry_cell_setting            triclinic
loop_
_symmetry_equiv_pos_as_xyz
'x, y, z'
_cell_length_a     39.169766
_cell_length_b     36.883861
_cell_length_c     40.760882
_cell_angle_alpha  85.484436
_cell_angle_beta   87.191226
_cell_angle_gamma 91.937914
loop_
_atom_site_label
_atom_site_type_symbol
_atom_site_fract_x
_atom_site_fract_y
_atom_site_fract_z
_atom_type_partial_charge
C0 C 0.22487 0.26643 0.31093 0.0
N1 N 0.19194 0.18964 0.24788 0.0
C2 C 0.18574 0.16484 0.2741 0.0
C3 C 0.15418 0.14628 0.2786 0.0
C4 C 0.12862 0.15433 0.2565 0.0
C5 C 0.13657 0.17741 0.22812 0.0
C6 C 0.16907 0.19434 0.22387 0.0
Zn7 Zn 0.23103 0.22695 0.24967 0.0
C8 C 0.20773 0.30042 0.22201 0.0
N9 N 0.30846 0.30976 0.25167 0.0
C10 C 0.33146 0.30508 0.27556 0.0
C11 C 0.31448 0.33464 0.22548 0.0
C12 C 0.34596 0.35335 0.22089 0.0
C13 C 0.37164 0.34535 0.24287 0.0
C14 C 0.36389 0.32215 0.27122 0.0
Zn15 Zn 0.26937 0.27242 0.24994 0.0
O16 O 0.21195 0.23988 0.29701 0.0
C17 C 0.29278 0.19903 0.27755 0.0
O18 O 0.25027 0.28469 0.29678 0.0
H19 H 0.29614 0.33762 0.20657 0.0
H20 H 0.20399 0.16185 0.29308 0.0
H21 H 0.32592 0.28564 0.29655 0.0
O22 O 0.26312 0.18725 0.2714 0.0
O23 O 0.30069 0.23254 0.27121 0.0
H24 H 0.17476 0.21372 0.20286 0.0
O25 O 0.28847 0.25943 0.20259 0.0
O26 O 0.25006 0.21472 0.20283 0.0
O27 O 0.23741 0.31204 0.22823 0.0
O28 O 0.19966 0.26694 0.22836 0.0
C29 C 0.27547 0.23293 0.18867 0.0
H30 H 0.14849 0.12907 0.30115 0.0
H31 H 0.11718 0.18444 0.2109 0.0
H32 H 0.35149 0.37065 0.19838 0.0
H33 H 0.38338 0.31517 0.28834 0.0
C34 C 0.70367 0.28949 0.21636 0.0
N35 N 0.74978 0.19247 0.19626 0.0
C36 C 0.71721 0.18027 0.19217 0.0
C37 C 0.7105 0.1563 0.16853 0.0
C38 C 0.73734 0.14534 0.14817 0.0
C39 C 0.77079 0.15826 0.15237 0.0
C40 C 0.77656 0.18179 0.17714 0.0
Zn41 Zn 0.75443 0.22948 0.23074 0.0
C42 C 0.80367 0.29094 0.2102 0.0
N43 N 0.75536 0.30787 0.30187 0.0
C44 C 0.72858 0.31913 0.32065 0.0
C45 C 0.78803 0.31946 0.30629 0.0
C46 C 0.79487 0.34337 0.32995 0.0
C47 C 0.76802 0.35499 0.3499 0.0
C48 C 0.73445 0.34271 0.34535 0.0
Zn49 Zn 0.75062 0.27092 0.26738 0.0
O50 O 0.71659 0.26069 0.20681 0.0
C51 C 0.70135 0.20966 0.28802 0.0
O52 O 0.71322 0.30176 0.24287 0.0
H53 H 0.80914 0.30952 0.29196 0.0
H54 H 0.69606 0.18984 0.20669 0.0
H55 H 0.70284 0.30929 0.31694 0.0
O56 O 0.71537 0.19921 0.26175 0.0
O57 O 0.71096 0.2403 0.29747 0.0
H58 H 0.8022 0.1921 0.18058 0.0
O59 O 0.78839 0.2395 0.29142 0.0
O60 O 0.79176 0.19869 0.25512 0.0
O61 O 0.78962 0.3011 0.23656 0.0
O62 O 0.79414 0.26037 0.20053 0.0
C63 C 0.80123 0.21071 0.28176 0.0
H64 H 0.6843 0.14741 0.16533 0.0
H65 H 0.79194 0.15059 0.13658 0.0
H66 H 0.82114 0.35188 0.33335 0.0
H67 H 0.71328 0.35099 0.36078 0.0
C68 C 0.8002 0.70728 0.27993 0.0
N69 N 0.7997 0.8189 0.25423 0.0
C70 C 0.81099 0.81714 0.28533 0.0
C71 C 0.82843 0.84642 0.29661 0.0
C72 C 0.83467 0.87811 0.27586 0.0
C73 C 0.82389 0.87953 0.24349 0.0
C74 C 0.8059 0.84921 0.23309 0.0
Zn75 Zn 0.76949 0.77468 0.24629 0.0
C76 C 0.78453 0.73723 0.18981 0.0
N77 N 0.70518 0.6809 0.24464 0.0
C78 C 0.6988 0.6509 0.26612 0.0
C79 C 0.69408 0.68222 0.21349 0.0
C80 C 0.67667 0.65276 0.20249 0.0
C81 C 0.67023 0.62137 0.22361 0.0
C82 C 0.6808 0.62044 0.25604 0.0
Zn83 Zn 0.73528 0.72519 0.25238 0.0
O84 O 0.8054 0.74049 0.26968 0.0
C85 C 0.72033 0.76259 0.30888 0.0
O86 O 0.7712 0.69197 0.2764 0.0
H87 H 0.69957 0.70589 0.1965 0.0
H88 H 0.80558 0.79329 0.3021 0.0
H89 H 0.70817 0.65034 0.29067 0.0
O90 O 0.74344 0.78187 0.29214 0.0
O91 O 0.70956 0.73306 0.29818 0.0
H92 H 0.79635 0.85015 0.2086 0.0
O93 O 0.69947 0.75923 0.22872 0.0
O94 O 0.7334 0.80799 0.22252 0.0
O95 O 0.76157 0.71782 0.20665 0.0
O96 O 0.79501 0.76697 0.20036 0.0
C97 C 0.70451 0.79254 0.21874 0.0
H98 H 0.83688 0.8444 0.32161 0.0
H99 H 0.82881 0.90371 0.22685 0.0
H100 H 0.66833 0.65442 0.17745 0.0
H101 H 0.67569 0.59653 0.27296 0.0
C102 C 0.22415 0.80815 0.28064 0.0
N103 N 0.30056 0.73845 0.30627 0.0
C104 C 0.33458 0.74715 0.30193 0.0
C105 C 0.35155 0.76297 0.32683 0.0
C106 C 0.33314 0.76928 0.35617 0.0
C107 C 0.29984 0.75444 0.36184 0.0
C108 C 0.28383 0.73916 0.33629 0.0
Zn109 Zn 0.2704 0.7434 0.26709 0.0
C110 C 0.20243 0.70224 0.28411 0.0
N111 N 0.20076 0.76302 0.19263 0.0
C112 C 0.21797 0.7633 0.16275 0.0
C113 C 0.16665 0.75452 0.19616 0.0
C114 C 0.14981 0.74079 0.17009 0.0
C115 C 0.16843 0.73606 0.14045 0.0
C116 C 0.20217 0.75004 0.13617 0.0
Zn117 Zn 0.23074 0.75807 0.23206 0.0
O118 O 0.24849 0.78823 0.28936 0.0
C119 C 0.29878 0.79934 0.21509 0.0
O120 O 0.20896 0.80195 0.25467 0.0
H121 H 0.15337 0.75456 0.22004 0.0
H122 H 0.34751 0.74606 0.27799 0.0
H123 H 0.24519 0.76908 0.1603 0.0
O124 O 0.30799 0.78026 0.24021 0.0
O125 O 0.26809 0.79573 0.20678 0.0
H126 H 0.2567 0.73291 0.33932 0.0
O127 O 0.2531 0.71325 0.2095 0.0
O128 O 0.29188 0.69958 0.245 0.0
O129 O 0.19326 0.72094 0.25873 0.0
O130 O 0.23302 0.70618 0.29262 0.0
C131 C 0.27727 0.69334 0.21877 0.0
H132 H 0.37763 0.77344 0.32196 0.0
H133 H 0.28476 0.75881 0.38408 0.0
H134 H 0.12344 0.73098 0.17407 0.0
H135 H 0.21761 0.74674 0.1139 0.0
C136 C 0.2034 0.79044 0.7168 0.0
N137 N 0.24958 0.69368 0.69609 0.0
C138 C 0.217 0.68154 0.69201 0.0
C139 C 0.21024 0.65763 0.66833 0.0
C140 C 0.23704 0.64664 0.64795 0.0
C141 C 0.27051 0.65951 0.65214 0.0
C142 C 0.27633 0.683 0.67693 0.0
Zn143 Zn 0.25428 0.73051 0.73074 0.0
C144 C 0.30339 0.79218 0.71035 0.0
N145 N 0.25525 0.80846 0.80238 0.0
C146 C 0.22855 0.81859 0.82193 0.0
C147 C 0.28778 0.82087 0.80633 0.0
C148 C 0.29453 0.84451 0.83024 0.0
C149 C 0.26779 0.85487 0.85105 0.0
C150 C 0.23438 0.8417 0.84699 0.0
Zn151 Zn 0.25057 0.7717 0.76765 0.0
O152 O 0.21634 0.76173 0.70708 0.0
C153 C 0.20141 0.7102 0.78814 0.0
O154 O 0.21299 0.80257 0.74335 0.0
H155 H 0.30891 0.81167 0.79154 0.0
H156 H 0.19588 0.69109 0.70658 0.0
H157 H 0.20294 0.8081 0.81861 0.0
O158 O 0.21532 0.69995 0.76174 0.0
O159 O 0.21105 0.74076 0.79773 0.0
H160 H 0.30199 0.69326 0.68038 0.0
O161 O 0.28857 0.74026 0.79146 0.0
O162 O 0.29173 0.69976 0.75485 0.0
O163 O 0.28939 0.80214 0.73681 0.0
O164 O 0.29388 0.76165 0.70054 0.0
C165 C 0.30136 0.71155 0.78152 0.0
H166 H 0.18402 0.64876 0.66515 0.0
H167 H 0.29164 0.65181 0.63635 0.0
H168 H 0.32072 0.85355 0.83331 0.0
H169 H 0.21331 0.84889 0.86312 0.0
C170 C 0.3021 0.2089 0.77802 0.0
N171 N 0.30187 0.32072 0.75264 0.0
C172 C 0.31465 0.31855 0.78313 0.0
C173 C 0.33226 0.34787 0.79414 0.0
C174 C 0.33689 0.3801 0.77383 0.0
C175 C 0.32439 0.38204 0.74212 0.0
C176 C 0.30651 0.35156 0.73191 0.0
Zn177 Zn 0.27123 0.27669 0.74527 0.0
C178 C 0.2848 0.23948 0.68845 0.0
N179 N 0.20603 0.18347 0.74429 0.0
C180 C 0.19986 0.15325 0.76555 0.0
C181 C 0.19427 0.18528 0.71338 0.0
C182 C 0.17619 0.15622 0.70247 0.0
C183 C 0.16983 0.12468 0.72339 0.0
C184 C 0.1813 0.12312 0.75552 0.0
Zn185 Zn 0.23667 0.2275 0.75176 0.0
O186 O 0.30742 0.24201 0.76748 0.0
C187 C 0.22316 0.26473 0.80862 0.0
O188 O 0.27276 0.19393 0.77537 0.0
H189 H 0.19972 0.20902 0.69647 0.0
H190 H 0.31011 0.29443 0.79975 0.0
H191 H 0.20982 0.15226 0.78988 0.0
O192 O 0.24636 0.2838 0.79178 0.0
O193 O 0.21181 0.23549 0.79781 0.0
H194 H 0.29565 0.35286 0.70797 0.0
O195 O 0.20068 0.26195 0.72867 0.0
O196 O 0.23493 0.31044 0.72257 0.0
O197 O 0.26215 0.22004 0.70567 0.0
O198 O 0.29558 0.26918 0.69884 0.0
C199 C 0.20587 0.29532 0.71896 0.0
H200 H 0.34181 0.3456 0.81872 0.0
H201 H 0.32786 0.40672 0.7259 0.0
H202 H 0.16735 0.15827 0.67761 0.0
H203 H 0.17639 0.09902 0.77224 0.0
C204 C 0.72398 0.30759 0.77994 0.0
N205 N 0.7998 0.23734 0.80686 0.0
C206 C 0.834 0.24535 0.80354 0.0
C207 C 0.85078 0.25914 0.82959 0.0
C208 C 0.83198 0.26437 0.85902 0.0
C209 C 0.79813 0.25075 0.86321 0.0
C210 C 0.78239 0.23744 0.8366 0.0
Zn211 Zn 0.77043 0.24264 0.76706 0.0
C212 C 0.70193 0.20191 0.78303 0.0
N213 N 0.70206 0.26289 0.69158 0.0
C214 C 0.71975 0.26308 0.66195 0.0
C215 C 0.66794 0.25443 0.69462 0.0
C216 C 0.65157 0.24051 0.66837 0.0
C217 C 0.6707 0.23558 0.63906 0.0
C218 C 0.70443 0.24963 0.63518 0.0
Zn219 Zn 0.73131 0.25769 0.73153 0.0
O220 O 0.74804 0.28757 0.78929 0.0
C221 C 0.7997 0.29863 0.71566 0.0
O222 O 0.70952 0.30151 0.75358 0.0
H223 H 0.65426 0.25459 0.7183 0.0
H224 H 0.84744 0.24495 0.77977 0.0
H225 H 0.74698 0.26887 0.65988 0.0
O226 O 0.80854 0.27955 0.74094 0.0
O227 O 0.76919 0.29502 0.70686 0.0
H228 H 0.75511 0.23193 0.83884 0.0
O229 O 0.75355 0.21287 0.70941 0.0
O230 O 0.79228 0.19867 0.7448 0.0
O231 O 0.69325 0.22095 0.75765 0.0
O232 O 0.73247 0.20531 0.79185 0.0
C233 C 0.77759 0.19272 0.71852 0.0
H234 H 0.87723 0.26869 0.82574 0.0
H235 H 0.78263 0.25441 0.88536 0.0
H236 H 0.62519 0.23066 0.672 0.0
H237 H 0.72022 0.2462 0.61317 0.0
C238 C 0.72637 0.76836 0.81106 0.0
N239 N 0.69417 0.69195 0.74744 0.0
C240 C 0.68832 0.66677 0.77343 0.0
C241 C 0.6569 0.64793 0.77797 0.0
C242 C 0.63108 0.65611 0.75617 0.0
C243 C 0.63871 0.67958 0.72796 0.0
C244 C 0.67109 0.69677 0.72364 0.0
Zn245 Zn 0.73301 0.72951 0.74953 0.0
C246 C 0.70913 0.80301 0.72233 0.0
N247 N 0.80979 0.81282 0.7522 0.0
C248 C 0.83258 0.80785 0.77625 0.0
C249 C 0.81625 0.83757 0.72599 0.0
C250 C 0.84808 0.85559 0.72141 0.0
C251 C 0.87359 0.84699 0.74343 0.0
C252 C 0.86532 0.82418 0.77192 0.0
Zn253 Zn 0.77089 0.77538 0.75004 0.0
O254 O 0.71374 0.74182 0.79696 0.0
C255 C 0.79489 0.70192 0.77709 0.0
O256 O 0.75159 0.78701 0.79701 0.0
H257 H 0.79804 0.84079 0.70699 0.0
H258 H 0.70671 0.66367 0.79228 0.0
H259 H 0.82667 0.78853 0.79726 0.0
O260 O 0.76531 0.68991 0.77096 0.0
O261 O 0.80248 0.73552 0.77097 0.0
H262 H 0.67651 0.71644 0.7028 0.0
O263 O 0.79019 0.76299 0.70258 0.0
O264 O 0.75223 0.71787 0.70261 0.0
O265 O 0.7387 0.81496 0.72858 0.0
O266 O 0.70142 0.76943 0.7285 0.0
C267 C 0.7775 0.73642 0.68854 0.0
H268 H 0.65151 0.63044 0.80039 0.0
H269 H 0.61914 0.68669 0.71096 0.0
H270 H 0.854 0.87262 0.69881 0.0
H271 H 0.88464 0.81677 0.78909 0.0
C272 C 0.88981 0.04774 0.55754 0.0
C273 C 0.92654 0.07157 0.45467 0.0
C274 C 0.96789 0.93988 0.45543 0.0
Mg275 Mg 0.9598 0.07112 0.52133 0.0
O276 O 0.9619 0.02043 0.52343 0.0
Mg277 Mg 0.9245 0.99214 0.50391 0.0
Mg278 Mg 0.00187 1.00049 0.50019 0.0
O279 O 0.04175 0.98055 0.47684 0.0
Mg280 Mg 0.04355 0.92984 0.47845 0.0
Mg281 Mg 0.07917 0.00852 0.49652 0.0
C282 C 0.03587 0.06178 0.54398 0.0
C283 C 0.03534 0.06262 0.44832 0.0
O284 O 0.88761 0.01881 0.54187 0.0
O285 O 0.9151 0.0708 0.5534 0.0
O286 O 0.91551 0.03896 0.46352 0.0
O287 O 0.94676 0.08881 0.47215 0.0
O288 O 0.00948 0.08151 0.5417 0.0
O289 O 0.03738 0.03145 0.53071 0.0
C290 C 0.96856 0.93843 0.55225 0.0
O291 O 0.99591 0.95424 0.53911 0.0
O292 O 0.9387 0.94721 0.54327 0.0
O293 O 0.11601 0.98195 0.45843 0.0
O294 O 0.08853 0.93001 0.4468 0.0
O295 O 0.08788 0.96122 0.5367 0.0
C296 C 0.11385 0.95303 0.44274 0.0
O297 O 0.05577 0.91203 0.52784 0.0
O298 O 0.99423 0.92004 0.45711 0.0
C299 C 0.07623 0.92879 0.54545 0.0
O300 O 0.96638 0.96948 0.46983 0.0
O301 O 0.0079 0.04679 0.46127 0.0
O302 O 0.06514 0.05373 0.45738 0.0
C303 C 0.41812 0.10672 0.02842 0.0
C304 C 0.45399 0.0841 0.93131 0.0
C305 C 0.44402 0.94384 0.97814 0.0
Mg306 Mg 0.48915 0.09038 0.99668 0.0
O307 O 0.47369 0.0428 0.01205 0.0
Mg308 Mg 0.42859 0.02543 0.99639 0.0
Mg309 Mg 0.50178 0.00108 0.00028 0.0
O310 O 0.52983 0.95933 0.98853 0.0
Mg311 Mg 0.51449 0.91158 0.00367 0.0
Mg312 Mg 0.57491 0.97683 0.00407 0.0
C313 C 0.55961 0.05838 0.02205 0.0
C314 C 0.55871 0.03052 0.94018 0.0
O315 O 0.40641 0.07603 0.01975 0.0
O316 O 0.44962 0.11729 0.02317 0.0
O317 O 0.43524 0.05881 0.94683 0.0
O318 O 0.47862 0.09957 0.94495 0.0
O319 O 0.5422 0.08587 0.01218 0.0
O320 O 0.54709 0.02556 0.02421 0.0
C321 C 0.44466 0.97142 0.06019 0.0
O322 O 0.47602 0.96956 0.04921 0.0
O323 O 0.42363 0.99144 0.04481 0.0
O324 O 0.59715 0.92632 0.98079 0.0
O325 O 0.55412 0.88499 0.97691 0.0
O326 O 0.5682 0.94363 0.05353 0.0
C327 C 0.58562 0.89568 0.97188 0.0
O328 O 0.52543 0.9021 0.05541 0.0
O329 O 0.46139 0.91626 0.98793 0.0
C330 C 0.54978 0.9181 0.06906 0.0
O331 O 0.45656 0.97664 0.97634 0.0
O332 O 0.52742 0.03251 0.95128 0.0
O333 O 0.5798 0.01062 0.95558 0.0
C334 C 0.91081 0.59842 0.02584 0.0
C335 C 0.94212 0.56979 0.92837 0.0
C336 C 0.9493 0.43497 0.98393 0.0
Mg337 Mg 0.9801 0.58494 0.98939 0.0
O338 O 0.97011 0.53835 0.01038 0.0
Mg339 Mg 0.92556 0.51539 0.99853 0.0
Mg340 Mg 0.00209 0.50003 0.99815 0.0
O341 O 0.03399 0.46164 0.98595 0.0
Mg342 Mg 0.0237 0.41514 0.00708 0.0
Mg343 Mg 0.07847 0.48446 0.99814 0.0
C344 C 0.05463 0.56515 0.01254 0.0
C345 C 0.05355 0.5341 0.9351 0.0
O346 O 0.90052 0.56562 0.02137 0.0
O347 O 0.9407 0.6112 0.01587 0.0
O348 O 0.92534 0.54551 0.94721 0.0
O349 O 0.96757 0.58737 0.93848 0.0
O350 O 0.03333 0.58837 0.00158 0.0
O351 O 0.04671 0.53103 0.01847 0.0
C352 C 0.95085 0.46569 0.0613 0.0
O353 O 0.98153 0.46703 0.04801 0.0
O354 O 0.92682 0.48341 0.04814 0.0
O355 O 0.10354 0.43405 0.97561 0.0
O356 O 0.06324 0.38858 0.98114 0.0
O357 O 0.07829 0.45439 0.04955 0.0
C358 C 0.09322 0.40122 0.97131 0.0
O359 O 0.03577 0.41286 0.05807 0.0
O360 O 0.9705 0.41163 0.99484 0.0
C361 C 0.06124 0.43027 0.06833 0.0
O362 O 0.95741 0.46903 0.97797 0.0
O363 O 0.02281 0.53294 0.94826 0.0
O364 O 0.07748 0.51636 0.94843 0.0
C365 C 0.39035 0.55022 0.05681 0.0
C366 C 0.42822 0.5746 0.95436 0.0
C367 C 0.46658 0.44045 0.95579 0.0
Mg368 Mg 0.46101 0.57249 0.02141 0.0
O369 O 0.46196 0.52176 0.02273 0.0
Mg370 Mg 0.42416 0.49453 0.00284 0.0
Mg371 Mg 0.50157 0.50092 -0.00022 0.0
O372 O 0.54121 0.47999 0.97692 0.0
Mg373 Mg 0.54203 0.42922 0.97925 0.0
Mg374 Mg 0.57908 0.50725 0.99672 0.0
C375 C 0.53649 0.56071 0.04465 0.0
C376 C 0.53659 0.56229 0.94809 0.0
O377 O 0.3875 0.52175 0.04059 0.0
O378 O 0.41624 0.57253 0.05328 0.0
O379 O 0.41662 0.54208 0.96276 0.0
O380 O 0.44853 0.59121 0.97224 0.0
O381 O 0.51056 0.58114 0.04274 0.0
O382 O 0.53748 0.53092 0.03051 0.0
C383 C 0.46654 0.43943 0.05141 0.0
O384 O 0.49432 0.4547 0.03869 0.0
O385 O 0.43701 0.44894 0.04209 0.0
O386 O 0.61551 0.47969 0.95898 0.0
O387 O 0.58674 0.42849 0.94737 0.0
O388 O 0.58704 0.46011 0.03714 0.0
C389 C 0.61257 0.45085 0.94326 0.0
O390 O 0.55423 0.41135 0.02865 0.0
O391 O 0.4924 0.41996 0.95839 0.0
C392 C 0.57501 0.4279 0.0461 0.0
O393 O 0.46571 0.47081 0.96904 0.0
O394 O 0.50878 0.54713 0.96087 0.0
O395 O 0.56611 0.55268 0.95735 0.0
C396 C 0.91788 0.60631 0.52951 0.0
C397 C 0.95317 0.58331 0.43228 0.0
C398 C 0.94381 0.44347 0.47841 0.0
Mg399 Mg 0.98874 0.5902 0.49732 0.0
O400 O 0.9736 0.54253 0.51292 0.0
Mg401 Mg 0.9284 0.52494 0.49767 0.0
Mg402 Mg 1.00163 0.50085 0.50084 0.0
O403 O 0.02961 0.45921 0.48869 0.0
Mg404 Mg 0.01435 0.41139 0.50366 0.0
Mg405 Mg 0.07479 0.47667 0.50399 0.0
C406 C 0.05954 0.55827 0.52216 0.0
C407 C 0.05811 0.53062 0.44044 0.0
O408 O 0.90626 0.57554 0.52097 0.0
O409 O 0.94934 0.61702 0.52412 0.0
O410 O 0.93477 0.55798 0.44811 0.0
O411 O 0.97766 0.59936 0.44564 0.0
O412 O 0.04197 0.5857 0.51242 0.0
O413 O 0.04713 0.5254 0.52442 0.0
C414 C 0.94517 0.47107 0.56127 0.0
O415 O 0.97639 0.46922 0.5499 0.0
O416 O 0.92392 0.49107 0.54616 0.0
O417 O 0.09697 0.42623 0.48043 0.0
O418 O 0.05391 0.38486 0.47682 0.0
O419 O 0.06821 0.44329 0.55339 0.0
C420 C 0.08538 0.39557 0.4716 0.0
O421 O 0.02529 0.40191 0.55538 0.0
O422 O 0.96132 0.41584 0.48773 0.0
C423 C 0.04975 0.4178 0.56896 0.0
O424 O 0.9562 0.47628 0.47732 0.0
O425 O 0.02686 0.53243 0.45175 0.0
O426 O 0.07935 0.51068 0.4556 0.0
C427 C 0.41294 0.10122 0.52602 0.0
C428 C 0.44298 0.07099 0.42898 0.0
C429 C 0.44849 0.93683 0.48462 0.0
Mg430 Mg 0.48179 0.08612 0.48948 0.0
O431 O 0.4712 0.03996 0.5112 0.0
Mg432 Mg 0.42625 0.01759 0.49966 0.0
Mg433 Mg 0.50243 0.00094 0.49893 0.0
O434 O 0.53346 0.96186 0.48662 0.0
Mg435 Mg 0.5225 0.91551 0.5079 0.0
Mg436 Mg 0.5784 0.98399 0.49825 0.0
C437 C 0.55617 0.06521 0.51235 0.0
C438 C 0.55366 0.03392 0.43537 0.0
O439 O 0.40214 0.06845 0.52211 0.0
O440 O 0.44292 0.11342 0.51572 0.0
O441 O 0.42601 0.04729 0.44824 0.0
O442 O 0.46891 0.08818 0.43861 0.0
O443 O 0.53518 0.08873 0.50132 0.0
O444 O 0.54772 0.03127 0.51868 0.0
C445 C 0.45117 0.96756 0.56241 0.0
O446 O 0.48175 0.96835 0.54893 0.0
O447 O 0.42736 0.98578 0.54941 0.0
O448 O 0.60233 0.93302 0.47572 0.0
O449 O 0.56138 0.88822 0.48165 0.0
O450 O 0.57814 0.95417 0.54969 0.0
C451 C 0.59144 0.90035 0.47155 0.0
O452 O 0.53517 0.91323 0.55882 0.0
O453 O 0.46919 0.91292 0.49553 0.0
C454 C 0.56096 0.93041 0.56874 0.0
O455 O 0.45728 0.97075 0.47917 0.0
O456 O 0.52309 0.03334 0.44886 0.0
O457 O 0.57745 0.01575 0.44846 0.0
H458 H 0.09374 0.08872 0.26535 0.0
H459 H 0.07487 0.12338 0.42799 0.0
H460 H 0.08513 0.20286 0.27829 0.0
H461 H 0.98984 0.05657 0.40086 0.0
H462 H 0.07734 0.15486 0.37265 0.0
H463 H 0.05052 0.07473 0.31037 0.0
C464 C 0.0812 0.11086 0.27639 0.0
C465 C 0.09304 0.14686 0.26863 0.0
C466 C 0.05736 0.13416 0.37929 0.0
C467 C 0.04565 0.13116 0.3208 0.0
C468 C 0.05622 0.11607 0.41063 0.0
C469 C 0.03251 0.08719 0.41859 0.0
C470 C 0.03567 0.12207 0.35562 0.0
C471 C 0.00869 0.07866 0.39539 0.0
C472 C 0.05671 0.10295 0.30215 0.0
C473 C 0.07658 0.17472 0.28392 0.0
N474 N 0.0117 0.0951 0.36436 0.0
N475 N 0.05481 0.16625 0.31052 0.0
H476 H 0.8394 0.23713 0.32933 0.0
H477 H 0.88859 0.04307 0.40709 0.0
H478 H 0.8177 0.13878 0.28221 0.0
H479 H 0.93531 0.14376 0.43334 0.0
H480 H 0.86274 0.0767 0.36099 0.0
H481 H 0.87473 0.20294 0.36756 0.0
C482 C 0.84231 0.20834 0.32686 0.0
C483 C 0.82544 0.19074 0.30263 0.0
C484 C 0.87895 0.09133 0.37665 0.0
C485 C 0.86559 0.15122 0.34672 0.0
C486 C 0.89366 0.07217 0.40305 0.0
C487 C 0.91381 0.09065 0.42448 0.0
C488 C 0.88405 0.1293 0.37189 0.0
C489 C 0.91975 0.12833 0.41773 0.0
C490 C 0.86258 0.18884 0.34866 0.0
C491 C 0.83029 0.15342 0.3005 0.0
N492 N 0.90459 0.14642 0.39234 0.0
N493 N 0.84957 0.13477 0.32256 0.0
H494 H 0.9024 0.89392 0.26733 0.0
H495 H 0.90663 0.97224 0.44391 0.0
H496 H 0.81052 0.9256 0.31809 0.0
H497 H 0.9762 0.89558 0.40556 0.0
H498 H 0.87527 0.97125 0.39317 0.0
H499 H 0.93591 0.91637 0.31109 0.0
C500 C 0.88953 0.90756 0.28676 0.0
C501 C 0.85382 0.90785 0.28939 0.0
C502 C 0.89744 0.95474 0.39611 0.0
C503 C 0.89143 0.93177 0.34005 0.0
C504 C 0.91509 0.95495 0.42512 0.0
C505 C 0.94412 0.93398 0.42911 0.0
C506 C 0.90938 0.93395 0.37084 0.0
C507 C 0.95391 0.91207 0.40386 0.0
C508 C 0.9085 0.91957 0.31209 0.0
C509 C 0.83813 0.92509 0.31536 0.0
N510 N 0.93679 0.91292 0.37577 0.0
N511 N 0.85699 0.93559 0.34031 0.0
H512 H 0.25231 0.82673 0.33722 0.0
H513 H 0.10782 0.96629 0.37749 0.0
H514 H 0.17244 0.85624 0.27189 0.0
H515 H 0.17536 0.9215 0.44906 0.0
H516 H 0.14028 0.93781 0.33421 0.0
H517 H 0.23259 0.87152 0.37397 0.0
C518 C 0.23072 0.8428 0.33043 0.0
C519 C 0.21366 0.83731 0.30156 0.0
C520 C 0.14861 0.93492 0.3592 0.0
C521 C 0.19107 0.8889 0.34372 0.0
C522 C 0.13038 0.95155 0.38377 0.0
C523 C 0.13939 0.94652 0.4166 0.0
C524 C 0.17571 0.91269 0.36773 0.0
C525 C 0.16811 0.92642 0.42385 0.0
C526 C 0.21954 0.86845 0.35148 0.0
C527 C 0.18612 0.85927 0.294 0.0
N528 N 0.18507 0.90981 0.39961 0.0
N529 N 0.1755 0.88391 0.31511 0.0
H530 H 0.16518 0.7629 0.66994 0.0
H531 H 0.05561 0.861 0.57329 0.0
H532 H 0.18588 0.8622 0.71593 0.0
H533 H 0.12408 0.9521 0.58724 0.0
H534 H 0.08043 0.82651 0.61913 0.0
H535 H 0.12893 0.79581 0.63197 0.0
C536 C 0.16165 0.7916 0.67237 0.0
C537 C 0.17857 0.80982 0.69619 0.0
C538 C 0.09026 0.85392 0.612 0.0
C539 C 0.13657 0.84784 0.65281 0.0
C540 C 0.0759 0.8738 0.58593 0.0
C541 C 0.08836 0.90925 0.57572 0.0
C542 C 0.11749 0.86943 0.62798 0.0
C543 C 0.11408 0.92463 0.59379 0.0
C544 C 0.1406 0.81035 0.65084 0.0
C545 C 0.17312 0.84707 0.69807 0.0
N546 N 0.128 0.90451 0.61886 0.0
N547 N 0.15299 0.86501 0.67629 0.0
H548 H 0.19345 0.07413 0.68405 0.0
H549 H 0.03119 0.11368 0.58786 0.0
H550 H 0.10149 0.11274 0.72937 0.0
H551 H 0.09403 0.02574 0.56043 0.0
H552 H 0.06147 0.11621 0.63813 0.0
H553 H 0.16013 0.05283 0.63946 0.0
C554 C 0.16589 0.07608 0.68559 0.0
C555 C 0.15003 0.09521 0.7102 0.0
C556 C 0.06859 0.09625 0.62116 0.0
C557 C 0.11247 0.07311 0.65878 0.0
C558 C 0.05174 0.09521 0.59204 0.0
C559 C 0.05977 0.06914 0.56986 0.0
C560 C 0.09422 0.07159 0.62806 0.0
C561 C 0.08679 0.04605 0.57691 0.0
C562 C 0.14703 0.0646 0.65986 0.0
C563 C 0.11449 0.09797 0.71082 0.0
N564 N 0.10317 0.04783 0.60547 0.0
N565 N 0.09698 0.08812 0.68484 0.0
H566 H 0.75043 0.17438 0.66139 0.0
H567 H 0.89606 0.0356 0.62287 0.0
H568 H 0.82897 0.14444 0.72809 0.0
H569 H 0.82786 0.07826 0.55094 0.0
H570 H 0.86311 0.06404 0.66582 0.0
H571 H 0.77067 0.12954 0.62492 0.0
C572 C 0.77183 0.1582 0.66854 0.0
C573 C 0.78836 0.16357 0.69772 0.0
C574 C 0.85476 0.06648 0.64084 0.0
C575 C 0.81158 0.11196 0.65588 0.0
C576 C 0.87329 0.04989 0.61645 0.0
C577 C 0.86422 0.05433 0.58361 0.0
C578 C 0.82732 0.08814 0.63211 0.0
C579 C 0.83519 0.07382 0.57617 0.0
C580 C 0.78331 0.13252 0.64765 0.0
C581 C 0.81569 0.1415 0.70573 0.0
N582 N 0.81795 0.09045 0.60022 0.0
N583 N 0.82663 0.11686 0.68477 0.0
H584 H 0.91509 0.79699 0.7212 0.0
H585 H 0.01493 0.9445 0.59899 0.0
H586 H 0.91064 0.91146 0.73449 0.0
H587 H 0.92879 0.87808 0.57371 0.0
H588 H 0.01078 0.91406 0.65482 0.0
H589 H 0.95736 0.81086 0.67534 0.0
C590 C 0.92483 0.82481 0.71593 0.0
C591 C 0.90923 0.85331 0.73105 0.0
C592 C 0.99386 0.90524 0.63652 0.0
C593 C 0.95727 0.86899 0.67939 0.0
C594 C 0.99601 0.92252 0.6048 0.0
C595 C 0.97161 0.91411 0.58211 0.0
C596 C 0.96787 0.87879 0.64493 0.0
C597 C 0.94763 0.88564 0.59076 0.0
C598 C 0.94871 0.83262 0.6897 0.0
C599 C 0.92208 0.88891 0.72312 0.0
N600 N 0.9461 0.86918 0.62177 0.0
N601 N 0.94495 0.89594 0.69711 0.0
H602 H 0.25338 0.17864 0.15193 0.0
H603 H 0.43256 0.17362 0.05064 0.0
H604 H 0.33597 0.25826 0.15688 0.0
H605 H 0.35035 0.09312 0.04736 0.0
H606 H 0.39506 0.20918 0.08407 0.0
H607 H 0.28566 0.15182 0.10784 0.0
C608 C 0.27811 0.19083 0.14343 0.0
C609 C 0.29216 0.2205 0.15842 0.0
C610 C 0.38514 0.18388 0.07581 0.0
C611 C 0.32948 0.18958 0.10813 0.0
C612 C 0.40657 0.16348 0.05672 0.0
C613 C 0.39478 0.13002 0.04642 0.0
C614 C 0.35166 0.17075 0.08483 0.0
C615 C 0.36071 0.11855 0.05491 0.0
C616 C 0.29659 0.17541 0.11828 0.0
C617 C 0.32422 0.23527 0.1462 0.0
N618 N 0.34048 0.13872 0.07383 0.0
N619 N 0.34197 0.21937 0.12204 0.0
H620 H 0.82332 0.36051 0.22155 0.0
H621 H 0.96131 0.39239 0.06865 0.0
H622 H 0.84489 0.27736 0.1555 0.0
H623 H 0.91291 0.47869 0.11645 0.0
H624 H 0.92874 0.34759 0.1072 0.0
H625 H 0.86502 0.40146 0.18975 0.0
C626 C 0.83691 0.35069 0.20042 0.0
C627 C 0.83019 0.31532 0.19115 0.0
C628 C 0.92586 0.37635 0.10969 0.0
C629 C 0.87865 0.36252 0.15449 0.0
C630 C 0.9449 0.40193 0.08808 0.0
C631 C 0.94023 0.43937 0.08971 0.0
C632 C 0.90229 0.38836 0.13331 0.0
C633 C 0.91764 0.45014 0.11462 0.0
C634 C 0.8608 0.37422 0.18223 0.0
C635 C 0.84895 0.30439 0.16349 0.0
N636 N 0.89954 0.42488 0.13528 0.0
N637 N 0.87225 0.32788 0.14614 0.0
H638 H 0.64238 0.7651 0.20257 0.0
H639 H 0.59005 0.95249 0.11059 0.0
H640 H 0.70319 0.86535 0.19854 0.0
H641 H 0.5384 0.84927 0.0996 0.0
H642 H 0.62359 0.92324 0.15326 0.0
H643 H 0.59775 0.79749 0.17402 0.0
C644 C 0.64631 0.794 0.19586 0.0
C645 C 0.67681 0.81248 0.20267 0.0
C646 C 0.60453 0.90706 0.14195 0.0
C647 C 0.62553 0.84974 0.17012 0.0
C648 C 0.58515 0.92379 0.11773 0.0
C649 C 0.56179 0.90314 0.10104 0.0
C650 C 0.60069 0.86935 0.14954 0.0
C651 C 0.55626 0.86619 0.11164 0.0
C652 C 0.62072 0.81246 0.1796 0.0
C653 C 0.68028 0.84993 0.19352 0.0
N654 N 0.57606 0.85029 0.13482 0.0
N655 N 0.65503 0.86727 0.17757 0.0
H656 H 0.17642 0.74184 0.07281 0.0
H657 H 0.0938 0.61986 0.9805 0.0
H658 H 0.13428 0.67089 0.15522 0.0
H659 H 0.08721 0.54678 0.0686 0.0
H660 H 0.12972 0.66169 0.00766 0.0
H661 H 0.1631 0.69496 0.03611 0.0
C662 C 0.16377 0.71662 0.08308 0.0
C663 C 0.15579 0.71064 0.11706 0.0
C664 C 0.12182 0.63604 0.02093 0.0
C665 C 0.1399 0.65677 0.07514 0.0
C666 C 0.10135 0.61196 0.00521 0.0
C667 C 0.08708 0.58037 0.02269 0.0
C668 C 0.12777 0.62834 0.05443 0.0
C669 C 0.09756 0.57111 0.05446 0.0
C670 C 0.15608 0.68975 0.06207 0.0
C671 C 0.13989 0.67726 0.1291 0.0
N672 N 0.11653 0.5956 0.06972 0.0
N673 N 0.13244 0.65169 0.10816 0.0
H674 H 0.26804 0.83203 0.91591 0.0
H675 H 0.40467 0.99038 0.94191 0.0
H676 H 0.29047 0.92551 0.84717 0.0
H677 H 0.40256 0.88273 0.99209 0.0
H678 H 0.34966 0.97591 0.9193 0.0
H679 H 0.30275 0.86026 0.95617 0.0
C680 C 0.27903 0.85925 0.90994 0.0
C681 C 0.27662 0.8766 0.87838 0.0
C682 C 0.36098 0.95572 0.93574 0.0
C683 C 0.31691 0.90843 0.92354 0.0
C684 C 0.39238 0.96395 0.94869 0.0
C685 C 0.40861 0.93743 0.96835 0.0
C686 C 0.34565 0.92082 0.94263 0.0
C687 C 0.39134 0.90371 0.97644 0.0
C688 C 0.29915 0.87514 0.93269 0.0
C689 C 0.29181 0.91145 0.8714 0.0
N690 N 0.36098 0.89621 0.96322 0.0
N691 N 0.31184 0.92603 0.89362 0.0
H692 H 0.24818 0.32096 0.8409 0.0
H693 H 0.0797 0.33077 0.95773 0.0
H694 H 0.16379 0.2421 0.8447 0.0
H695 H 0.15774 0.41687 0.94254 0.0
H696 H 0.11409 0.2935 0.92321 0.0
H697 H 0.21955 0.35108 0.88499 0.0
C698 C 0.22374 0.30967 0.85127 0.0
C699 C 0.20814 0.27914 0.83876 0.0
C700 C 0.12382 0.32043 0.9276 0.0
C701 C 0.17507 0.31388 0.88931 0.0
C702 C 0.1042 0.34184 0.94737 0.0
C703 C 0.11562 0.37734 0.95285 0.0
C704 C 0.15521 0.33444 0.91313 0.0
C705 C 0.14774 0.38985 0.93888 0.0
C706 C 0.20739 0.32701 0.87645 0.0
C707 C 0.17667 0.26561 0.85348 0.0
N708 N 0.16629 0.36852 0.9195 0.0
N709 N 0.16098 0.28332 0.87777 0.0
H710 H 0.63122 0.20253 0.7876 0.0
H711 H 0.61366 0.01575 0.90118 0.0
H712 H 0.71632 0.14225 0.82296 0.0
H713 H 0.53797 0.09695 0.9114 0.0
H714 H 0.64559 0.05664 0.86021 0.0
H715 H 0.59186 0.1599 0.82217 0.0
C716 C 0.64161 0.18023 0.80237 0.0
C717 C 0.67719 0.17599 0.8024 0.0
C718 C 0.62182 0.06549 0.87111 0.0
C719 C 0.63238 0.12704 0.84135 0.0
C720 C 0.60336 0.04206 0.89448 0.0
C721 C 0.57312 0.05297 0.91029 0.0
C722 C 0.61016 0.10038 0.86293 0.0
C723 C 0.56105 0.08732 0.89996 0.0
C724 C 0.61915 0.1561 0.82215 0.0
C725 C 0.68919 0.14675 0.82218 0.0
N726 N 0.57979 0.11003 0.8771 0.0
N727 N 0.66692 0.1234 0.84057 0.0
H728 H 0.86206 0.71871 0.78506 0.0
H729 H 0.88947 0.53751 0.8982 0.0
H730 H 0.7864 0.63048 0.80215 0.0
H731 H 0.96147 0.62947 0.88617 0.0
H732 H 0.85705 0.56539 0.85396 0.0
H733 H 0.90321 0.68128 0.81337 0.0
C734 C 0.85411 0.69132 0.79462 0.0
C735 C 0.8205 0.6779 0.79172 0.0
C736 C 0.88024 0.57919 0.86062 0.0
C737 C 0.86772 0.63482 0.8243 0.0
C738 C 0.8989 0.56324 0.88583 0.0
C739 C 0.92784 0.58161 0.8965 0.0
C740 C 0.8905 0.61381 0.84603 0.0
C741 C 0.93906 0.61455 0.87914 0.0
C742 C 0.87773 0.66991 0.8107 0.0
C743 C 0.81192 0.64203 0.80413 0.0
N744 N 0.92002 0.6299 0.85515 0.0
N745 N 0.83528 0.62186 0.82026 0.0
H746 H 0.21704 0.37232 0.19883 0.0
H747 H 0.03933 0.37246 0.11175 0.0
H748 H 0.14115 0.28395 0.21084 0.0
H749 H 0.11534 0.46065 0.0978 0.0
H750 H 0.07134 0.3452 0.15668 0.0
H751 H 0.17604 0.40979 0.16947 0.0
C752 C 0.19169 0.36092 0.19557 0.0
C753 C 0.18271 0.32478 0.20681 0.0
C754 C 0.08074 0.37082 0.14412 0.0
C755 C 0.13571 0.36739 0.17337 0.0
C756 C 0.06234 0.38652 0.11855 0.0
C757 C 0.07509 0.41843 0.1004 0.0
C758 C 0.11217 0.38706 0.15146 0.0
C759 C 0.10487 0.43561 0.11064 0.0
C760 C 0.16826 0.38232 0.17888 0.0
C761 C 0.1494 0.31151 0.20217 0.0
N762 N 0.12273 0.41937 0.13508 0.0
N763 N 0.12728 0.33267 0.18554 0.0
H764 H 0.16068 0.72475 0.84266 0.0
H765 H 0.08977 0.51984 0.87936 0.0
H766 H 0.18104 0.64048 0.77749 0.0
H767 H 0.04549 0.60782 0.92805 0.0
H768 H 0.12201 0.56413 0.84092 0.0
H769 H 0.11834 0.68334 0.87425 0.0
C770 C 0.15624 0.69765 0.83489 0.0
C771 C 0.17475 0.68616 0.80738 0.0
C772 C 0.10471 0.57394 0.85949 0.0
C773 C 0.12624 0.63849 0.84357 0.0
C774 C 0.08598 0.54858 0.88123 0.0
C775 C 0.06437 0.56011 0.90653 0.0
C776 C 0.10275 0.61133 0.86355 0.0
C777 C 0.06123 0.59776 0.90841 0.0
C778 C 0.13191 0.67406 0.85287 0.0
C779 C 0.16763 0.65068 0.79852 0.0
N780 N 0.08065 0.62202 0.88761 0.0
N781 N 0.1443 0.62817 0.81663 0.0
H782 H 0.36868 0.23197 0.78204 0.0
H783 H 0.47122 0.15074 0.8987 0.0
H784 H 0.2992 0.14009 0.80959 0.0
H785 H 0.40878 0.05323 0.8918 0.0
H786 H 0.43962 0.18135 0.85544 0.0
H787 H 0.41345 0.20075 0.81083 0.0
C788 C 0.36279 0.2052 0.7943 0.0
C789 C 0.32988 0.18889 0.79385 0.0
C790 C 0.43336 0.15295 0.86245 0.0
C791 C 0.38109 0.15313 0.8279 0.0
C792 C 0.45162 0.13538 0.8873 0.0
C793 C 0.44234 0.09954 0.8993 0.0
C794 C 0.40569 0.13442 0.84943 0.0
C795 C 0.41652 0.08109 0.88369 0.0
C796 C 0.38844 0.18741 0.81104 0.0
C797 C 0.32404 0.15389 0.8096 0.0
N798 N 0.39875 0.09892 0.86004 0.0
N799 N 0.34931 0.13734 0.82618 0.0
H800 H 0.8244 0.25923 0.92667 0.0
H801 H 0.91019 0.38079 0.01683 0.0
H802 H 0.86567 0.32957 0.84349 0.0
H803 H 0.91562 0.45358 0.92856 0.0
H804 H 0.8729 0.33941 0.99065 0.0
H805 H 0.83848 0.30635 0.96295 0.0
C806 C 0.837 0.28438 0.91616 0.0
C807 C 0.84465 0.29008 0.88211 0.0
C808 C 0.88086 0.36491 0.97716 0.0
C809 C 0.86129 0.34423 0.92347 0.0
C810 C 0.90214 0.38872 0.9923 0.0
C811 C 0.91646 0.42005 0.97444 0.0
C812 C 0.87416 0.37262 0.94383 0.0
C813 C 0.90527 0.42942 0.94296 0.0
C814 C 0.84511 0.31138 0.93691 0.0
C815 C 0.8604 0.3234 0.86969 0.0
N816 N 0.88551 0.40517 0.92823 0.0
N817 N 0.86825 0.3491 0.89037 0.0
H818 H 0.66669 0.74109 0.8432 0.0
H819 H 0.65392 0.90883 0.95533 0.0
H820 H 0.74695 0.82349 0.84758 0.0
H821 H 0.5713 0.82996 0.94726 0.0
H822 H 0.6911 0.87303 0.92185 0.0
H823 H 0.63458 0.76798 0.88754 0.0
C824 C 0.67783 0.76447 0.85383 0.0
C825 C 0.70939 0.78033 0.84136 0.0
C826 C 0.66491 0.8634 0.92761 0.0
C827 C 0.67259 0.81145 0.89187 0.0
C828 C 0.6436 0.88387 0.94675 0.0
C829 C 0.60923 0.87269 0.95386 0.0
C830 C 0.65181 0.83151 0.91535 0.0
C831 C 0.59749 0.83989 0.94219 0.0
C832 C 0.6594 0.77991 0.87906 0.0
C833 C 0.72258 0.81055 0.85617 0.0
N834 N 0.61866 0.82064 0.9233 0.0
N835 N 0.70396 0.82534 0.88038 0.0
H836 H 0.84349 0.76102 0.1535 0.0
H837 H 0.84591 0.58281 0.05357 0.0
H838 H 0.76086 0.67999 0.15812 0.0
H839 H 0.92502 0.66798 0.04161 0.0
H840 H 0.81237 0.62056 0.08877 0.0
H841 H 0.87178 0.73026 0.10894 0.0
C842 C 0.83108 0.73715 0.14484 0.0
C843 C 0.8 0.72285 0.15983 0.0
C844 C 0.83696 0.63111 0.0782 0.0
C845 C 0.83224 0.68733 0.10925 0.0
C846 C 0.85613 0.60951 0.05808 0.0
C847 C 0.88853 0.62198 0.04479 0.0
C848 C 0.85033 0.66535 0.0853 0.0
C849 C 0.90032 0.65699 0.05146 0.0
C850 C 0.84726 0.7195 0.11951 0.0
C851 C 0.78504 0.69178 0.14762 0.0
N852 N 0.8814 0.67725 0.07144 0.0
N853 N 0.80143 0.67492 0.12334 0.0
H854 H 0.283 0.85799 0.17466 0.0
H855 H 0.46687 0.90591 0.08949 0.0
H856 H 0.36965 0.80074 0.21054 0.0
H857 H 0.38771 0.98371 0.09764 0.0
H858 H 0.43379 0.86414 0.13061 0.0
H859 H 0.32193 0.90069 0.14143 0.0
C860 C 0.31028 0.85438 0.17558 0.0
C861 C 0.32299 0.82572 0.19554 0.0
C862 C 0.42409 0.89064 0.12364 0.0
C863 C 0.36808 0.87466 0.15695 0.0
C864 C 0.44308 0.91459 0.10033 0.0
C865 C 0.43001 0.94833 0.08965 0.0
C866 C 0.39173 0.90044 0.1359 0.0
C867 C 0.39874 0.95785 0.10453 0.0
C868 C 0.33257 0.87893 0.15666 0.0
C869 C 0.35874 0.82258 0.19564 0.0
N870 N 0.38062 0.93398 0.12632 0.0
N871 N 0.38008 0.84653 0.17637 0.0
H872 H 0.71661 0.07411 0.15264 0.0
H873 H 0.60154 0.11842 0.00507 0.0
H874 H 0.73502 0.1679 0.08347 0.0
H875 H 0.59877 0.01331 0.05995 0.0
H876 H 0.65683 0.13243 0.02707 0.0
H877 H 0.68171 0.04573 0.11289 0.0
C878 C 0.71444 0.08796 0.12842 0.0
C879 C 0.72856 0.12323 0.12111 0.0
C880 C 0.64447 0.10602 0.03387 0.0
C881 C 0.68745 0.092 0.07624 0.0
C882 C 0.61276 0.09811 0.02148 0.0
C883 C 0.59517 0.06497 0.03128 0.0
C884 C 0.65841 0.08091 0.05676 0.0
C885 C 0.61124 0.03937 0.05205 0.0
C886 C 0.69426 0.07199 0.10583 0.0
C887 C 0.72461 0.14053 0.08978 0.0
N888 N 0.64164 0.04817 0.06463 0.0
N889 N 0.70368 0.12511 0.06873 0.0
H890 H 0.58675 0.7047 0.77644 0.0
H891 H 0.5768 0.62279 0.92867 0.0
H892 H 0.59705 0.59003 0.76704 0.0
H893 H 0.49202 0.55683 0.89978 0.0
H894 H 0.5801 0.65495 0.87358 0.0
H895 H 0.54532 0.69034 0.82294 0.0
C896 C 0.57851 0.67656 0.78273 0.0
C897 C 0.5956 0.64835 0.76857 0.0
C898 C 0.55995 0.63434 0.87982 0.0
C899 C 0.5488 0.63208 0.82114 0.0
C900 C 0.55836 0.61584 0.91099 0.0
C901 C 0.53443 0.58706 0.9184 0.0
C902 C 0.53839 0.62286 0.85578 0.0
C903 C 0.51096 0.57891 0.89477 0.0
C904 C 0.55515 0.66848 0.80938 0.0
C905 C 0.58453 0.61237 0.77774 0.0
N906 N 0.51441 0.59576 0.8639 0.0
N907 N 0.56229 0.60512 0.8042 0.0
H908 H 0.3189 0.64016 0.78006 0.0
H909 H 0.43801 0.64697 0.93387 0.0
H910 H 0.33891 0.73685 0.83018 0.0
H911 H 0.39032 0.54741 0.90613 0.0
H912 H 0.41199 0.68031 0.88794 0.0
H913 H 0.3548 0.60614 0.8185 0.0
C914 C 0.3312 0.65434 0.79883 0.0
C915 C 0.3257 0.69134 0.80208 0.0
C916 C 0.40743 0.65113 0.89179 0.0
C917 C 0.36683 0.6527 0.84589 0.0
C918 C 0.42238 0.632 0.91796 0.0
C919 C 0.41594 0.59434 0.92428 0.0
C920 C 0.3861 0.63252 0.8715 0.0
C921 C 0.39563 0.57648 0.90253 0.0
C922 C 0.35153 0.63488 0.82082 0.0
C923 C 0.34219 0.7083 0.82694 0.0
N924 N 0.38127 0.59576 0.87723 0.0
N925 N 0.36193 0.68886 0.84789 0.0
H926 H 0.31107 0.42905 0.81366 0.0
H927 H 0.47092 0.38901 0.9115 0.0
H928 H 0.40485 0.39498 0.76817 0.0
H929 H 0.40921 0.4778 0.93899 0.0
H930 H 0.44142 0.38785 0.86068 0.0
H931 H 0.34317 0.4503 0.85908 0.0
C932 C 0.33872 0.42816 0.81226 0.0
C933 C 0.35549 0.41016 0.78739 0.0
C934 C 0.43439 0.40769 0.8778 0.0
C935 C 0.3917 0.43224 0.83967 0.0
C936 C 0.45077 0.40795 0.90721 0.0
C937 C 0.44286 0.43388 0.92956 0.0
C938 C 0.40933 0.43298 0.87075 0.0
C939 C 0.41635 0.45759 0.92237 0.0
C940 C 0.3569 0.43962 0.83845 0.0
C941 C 0.39114 0.4088 0.78694 0.0
N942 N 0.40038 0.45656 0.8935 0.0
N943 N 0.40801 0.41852 0.81335 0.0
H944 H 0.67355 0.3563 0.76855 0.0
H945 H 0.67724 0.42608 0.94878 0.0
H946 H 0.74903 0.32543 0.83825 0.0
H947 H 0.60289 0.45689 0.87836 0.0
H948 H 0.71032 0.39789 0.90538 0.0
H949 H 0.65294 0.40102 0.8053 0.0
C950 C 0.68594 0.35909 0.79145 0.0
C951 C 0.71272 0.33673 0.80051 0.0
C952 C 0.68722 0.41162 0.89919 0.0
C953 C 0.68927 0.38782 0.84278 0.0
C954 C 0.66865 0.42803 0.92386 0.0
C955 C 0.63764 0.44392 0.91682 0.0
C956 C 0.67425 0.41088 0.8676 0.0
C957 C 0.62692 0.44504 0.88449 0.0
C958 C 0.67424 0.3847 0.81242 0.0
C959 C 0.72804 0.3418 0.83039 0.0
N960 N 0.64496 0.42833 0.86116 0.0
N961 N 0.71586 0.36652 0.85058 0.0
H962 H 0.666 0.26202 0.16903 0.0
H963 H 0.55513 0.35964 0.07338 0.0
H964 H 0.68552 0.36103 0.21587 0.0
H965 H 0.62255 0.45137 0.0881 0.0
H966 H 0.58052 0.32497 0.11879 0.0
H967 H 0.62944 0.29482 0.13129 0.0
C968 C 0.66216 0.29062 0.17169 0.0
C969 C 0.67883 0.30879 0.19569 0.0
C970 C 0.58998 0.35257 0.11193 0.0
C971 C 0.63646 0.34667 0.15258 0.0
C972 C 0.57528 0.37255 0.08612 0.0
C973 C 0.58729 0.40825 0.07624 0.0
C974 C 0.61707 0.36824 0.12799 0.0
C975 C 0.61289 0.42373 0.09439 0.0
C976 C 0.64094 0.3093 0.15029 0.0
C977 C 0.67298 0.34592 0.19786 0.0
N978 N 0.62712 0.40353 0.11922 0.0
N979 N 0.65267 0.3638 0.17622 0.0
H980 H 0.60251 0.60578 0.23265 0.0
H981 H 0.5972 0.52733 0.05626 0.0
H982 H 0.694 0.57329 0.18175 0.0
H983 H 0.52875 0.60512 0.0945 0.0
H984 H 0.62851 0.52775 0.10705 0.0
H985 H 0.5687 0.58332 0.18911 0.0
C986 C 0.61522 0.59195 0.21326 0.0
C987 C 0.65092 0.5915 0.21046 0.0
C988 C 0.60661 0.54463 0.10408 0.0
C989 C 0.61297 0.56755 0.16008 0.0
C990 C 0.58899 0.54475 0.07504 0.0
C991 C 0.56029 0.56623 0.071 0.0
C992 C 0.59496 0.56561 0.12932 0.0
C993 C 0.55079 0.58827 0.09623 0.0
C994 C 0.59609 0.57993 0.18805 0.0
C995 C 0.6664 0.57398 0.18457 0.0
N996 N 0.56787 0.58711 0.12436 0.0
N997 N 0.64738 0.56349 0.15973 0.0
H998 H 0.32715 0.64425 0.23082 0.0
H999 H 0.32567 0.57466 0.05053 0.0
H1000 H 0.25276 0.67563 0.16016 0.0
H1001 H 0.39912 0.5439 0.12188 0.0
H1002 H 0.29192 0.60266 0.09359 0.0
H1003 H 0.34792 0.59934 0.19441 0.0
C1004 C 0.31503 0.64153 0.20777 0.0
C1005 C 0.28853 0.6641 0.19834 0.0
C1006 C 0.31496 0.58896 0.10005 0.0
C1007 C 0.31219 0.61277 0.15645 0.0
C1008 C 0.33391 0.57267 0.07557 0.0
C1009 C 0.36488 0.5569 0.08297 0.0
C1010 C 0.32749 0.58968 0.13181 0.0
C1011 C 0.37514 0.5557 0.11546 0.0
C1012 C 0.32682 0.6158 0.187 0.0
C1013 C 0.27354 0.65909 0.1683 0.0
N1014 N 0.35673 0.57229 0.13861 0.0
N1015 N 0.28582 0.63426 0.14828 0.0
H1016 H 0.40621 0.41115 0.23457 0.0
H1017 H 0.42615 0.3791 0.07107 0.0
H1018 H 0.41519 0.29735 0.2203 0.0
H1019 H 0.51142 0.44467 0.0995 0.0
H1020 H 0.42289 0.34711 0.12623 0.0
H1021 H 0.44939 0.42587 0.18961 0.0
C1022 C 0.41883 0.38923 0.22325 0.0
C1023 C 0.40714 0.35313 0.23064 0.0
C1024 C 0.44307 0.36766 0.11991 0.0
C1025 C 0.45448 0.36967 0.17857 0.0
C1026 C 0.44466 0.38604 0.08867 0.0
C1027 C 0.46871 0.41469 0.08112 0.0
C1028 C 0.46466 0.37923 0.14387 0.0
C1029 C 0.49233 0.42275 0.10465 0.0
C1030 C 0.44328 0.39756 0.19752 0.0
C1031 C 0.42366 0.32556 0.21498 0.0
N1032 N 0.4889 0.40603 0.13556 0.0
N1033 N 0.44541 0.33445 0.18844 0.0
H1034 H 0.83769 0.76279 0.65674 0.0
H1035 H 0.84955 0.59364 0.54622 0.0
H1036 H 0.75646 0.68155 0.65198 0.0
H1037 H 0.93257 0.67223 0.55358 0.0
H1038 H 0.81253 0.63016 0.57918 0.0
H1039 H 0.86981 0.73514 0.61285 0.0
C1040 C 0.82633 0.73953 0.6461 0.0
C1041 C 0.79449 0.72419 0.65835 0.0
C1042 C 0.83878 0.63957 0.57339 0.0
C1043 C 0.8313 0.69218 0.60839 0.0
C1044 C 0.85999 0.61868 0.55456 0.0
C1045 C 0.89442 0.62959 0.54738 0.0
C1046 C 0.85203 0.6716 0.58527 0.0
C1047 C 0.90632 0.66251 0.5587 0.0
C1048 C 0.84477 0.72364 0.62114 0.0
C1049 C 0.78105 0.69408 0.64356 0.0
N1050 N 0.88525 0.68216 0.5773 0.0
N1051 N 0.79968 0.67884 0.61963 0.0
H1052 H 0.32266 0.86182 0.7218 0.0
H1053 H 0.46168 0.89425 0.56981 0.0
H1054 H 0.34491 0.77885 0.65576 0.0
H1055 H 0.41266 0.9804 0.61731 0.0
H1056 H 0.42892 0.84936 0.6081 0.0
H1057 H 0.3644 0.90295 0.69026 0.0
C1058 C 0.3364 0.85208 0.70072 0.0
C1059 C 0.32987 0.8167 0.69138 0.0
C1060 C 0.42593 0.87811 0.61058 0.0
C1061 C 0.37839 0.86411 0.65503 0.0
C1062 C 0.44507 0.90374 0.58912 0.0
C1063 C 0.4403 0.94117 0.59072 0.0
C1064 C 0.40212 0.89003 0.63402 0.0
C1065 C 0.41747 0.95187 0.61548 0.0
C1066 C 0.36032 0.87571 0.68268 0.0
C1067 C 0.34882 0.80589 0.6638 0.0
N1068 N 0.39926 0.92654 0.63599 0.0
N1069 N 0.37215 0.82947 0.64659 0.0
H1070 H 0.20488 0.36844 0.70044 0.0
H1071 H 0.03667 0.34963 0.60046 0.0
H1072 H 0.14381 0.26861 0.7018 0.0
H1073 H 0.09142 0.45155 0.60972 0.0
H1074 H 0.07043 0.321 0.64368 0.0
H1075 H 0.15993 0.4006 0.67201 0.0
C1076 C 0.18196 0.35331 0.6949 0.0
C1077 C 0.1783 0.31572 0.70321 0.0
C1078 C 0.07457 0.34981 0.6367 0.0
C1079 C 0.12665 0.35233 0.67063 0.0
C1080 C 0.05505 0.36624 0.61222 0.0
C1081 C 0.0617 0.40286 0.60098 0.0
C1082 C 0.10094 0.37016 0.64982 0.0
C1083 C 0.08587 0.42304 0.61716 0.0
C1084 C 0.15619 0.37171 0.6788 0.0
C1085 C 0.14786 0.29758 0.69567 0.0
N1086 N 0.10501 0.4063 0.64028 0.0
N1087 N 0.1234 0.31597 0.67952 0.0
H1088 H 0.67954 0.24079 0.57147 0.0
H1089 H 0.59571 0.11936 0.47985 0.0
H1090 H 0.63692 0.17027 0.65396 0.0
H1091 H 0.58939 0.04621 0.5679 0.0
H1092 H 0.63253 0.16069 0.50662 0.0
H1093 H 0.6665 0.19363 0.53492 0.0
C1094 C 0.66686 0.2156 0.58178 0.0
C1095 C 0.65856 0.20986 0.61572 0.0
C1096 C 0.62449 0.13511 0.51994 0.0
C1097 C 0.64305 0.15569 0.574 0.0
C1098 C 0.60349 0.11133 0.50445 0.0
C1099 C 0.58899 0.07993 0.52209 0.0
C1100 C 0.63073 0.1273 0.55336 0.0
C1101 C 0.59985 0.07044 0.55367 0.0
C1102 C 0.65934 0.18858 0.56086 0.0
C1103 C 0.64271 0.17648 0.62784 0.0
N1104 N 0.61932 0.09466 0.56873 0.0
N1105 N 0.63542 0.15078 0.60699 0.0
H1106 H 0.78834 0.4262 0.34417 0.0
H1107 H 0.90132 0.49284 0.44933 0.0
H1108 H 0.77112 0.33355 0.41477 0.0
H1109 H 0.90547 0.37954 0.48414 0.0
H1110 H 0.84649 0.47997 0.42616 0.0
H1111 H 0.82319 0.4557 0.38292 0.0
C1112 C 0.79058 0.41296 0.36862 0.0
C1113 C 0.7768 0.37767 0.37656 0.0
C1114 C 0.85937 0.45788 0.43879 0.0
C1115 C 0.81735 0.4106 0.42094 0.0
C1116 C 0.89063 0.4653 0.45237 0.0
C1117 C 0.90854 0.43707 0.46806 0.0
C1118 C 0.84612 0.42186 0.44058 0.0
C1119 C 0.89304 0.40202 0.47159 0.0
C1120 C 0.81061 0.42972 0.39085 0.0
C1121 C 0.78111 0.36101 0.40806 0.0
N1122 N 0.86295 0.39535 0.45759 0.0
N1123 N 0.80177 0.37725 0.42885 0.0
H1124 H 0.74577 0.81778 0.34206 0.0
H1125 H 0.57615 0.83065 0.45671 0.0
H1126 H 0.65995 0.74093 0.3438 0.0
H1127 H 0.65647 0.91447 0.44359 0.0
H1128 H 0.60994 0.79291 0.42205 0.0
H1129 H 0.7171 0.84804 0.38599 0.0
C1130 C 0.72098 0.80697 0.35194 0.0
C1131 C 0.70502 0.77697 0.33891 0.0
C1132 C 0.62028 0.81944 0.42693 0.0
C1133 C 0.67188 0.81191 0.38928 0.0
C1134 C 0.60102 0.84111 0.44679 0.0
C1135 C 0.61329 0.87611 0.45291 0.0
C1136 C 0.65216 0.83269 0.41305 0.0
C1137 C 0.64582 0.88786 0.43944 0.0
C1138 C 0.7046 0.82439 0.37703 0.0
C1139 C 0.67311 0.76402 0.35302 0.0
N1140 N 0.664 0.86629 0.42 0.0
N1141 N 0.65739 0.78183 0.37725 0.0
H1142 H 0.21849 0.64363 0.32435 0.0
H1143 H 0.03568 0.59618 0.41148 0.0
H1144 H 0.13156 0.70081 0.28903 0.0
H1145 H 0.11435 0.51802 0.40216 0.0
H1146 H 0.06826 0.63778 0.36989 0.0
H1147 H 0.1798 0.60099 0.35789 0.0
C1148 C 0.19119 0.64723 0.32361 0.0
C1149 C 0.17833 0.67585 0.30373 0.0
C1150 C 0.07795 0.61123 0.3767 0.0
C1151 C 0.13353 0.62699 0.34267 0.0
C1152 C 0.05925 0.58738 0.40029 0.0
C1153 C 0.07236 0.5536 0.41078 0.0
C1154 C 0.11007 0.60128 0.36397 0.0
C1155 C 0.10332 0.54392 0.39543 0.0
C1156 C 0.16904 0.62271 0.3427 0.0
C1157 C 0.14257 0.67898 0.30386 0.0
N1158 N 0.1212 0.5677 0.37337 0.0
N1159 N 0.12137 0.65507 0.32332 0.0
H1160 H 0.28401 0.12724 0.30149 0.0
H1161 H 0.4636 0.12902 0.38526 0.0
H1162 H 0.35955 0.21585 0.28741 0.0
H1163 H 0.38867 0.03987 0.4004 0.0
H1164 H 0.43047 0.15581 0.34094 0.0
H1165 H 0.32577 0.09023 0.33033 0.0
C1166 C 0.30942 0.13878 0.30419 0.0
C1167 C 0.3181 0.17486 0.29252 0.0
C1168 C 0.42155 0.13008 0.35362 0.0
C1169 C 0.36595 0.13279 0.32534 0.0
C1170 C 0.4406 0.11465 0.37883 0.0
C1171 C 0.42849 0.0826 0.39715 0.0
C1172 C 0.3901 0.11346 0.34684 0.0
C1173 C 0.39865 0.06504 0.38742 0.0
C1174 C 0.33328 0.11765 0.32059 0.0
C1175 C 0.35151 0.18834 0.29645 0.0
N1176 N 0.38015 0.08103 0.36335 0.0
N1177 N 0.37405 0.16745 0.31278 0.0
H1178 H 0.71769 0.87494 0.69891 0.0
H1179 H 0.53975 0.87242 0.61228 0.0
H1180 H 0.64259 0.78584 0.71167 0.0
H1181 H 0.61471 0.9616 0.59807 0.0
H1182 H 0.57211 0.84579 0.65726 0.0
H1183 H 0.67619 0.91178 0.66958 0.0
C1184 C 0.69241 0.86326 0.69583 0.0
C1185 C 0.68381 0.82709 0.70725 0.0
C1186 C 0.5812 0.87149 0.64463 0.0
C1187 C 0.63625 0.86897 0.67383 0.0
C1188 C 0.56259 0.88682 0.61904 0.0
C1189 C 0.57496 0.91882 0.60081 0.0
C1190 C 0.61245 0.88819 0.6519 0.0
C1191 C 0.60456 0.93645 0.61097 0.0
C1192 C 0.6687 0.88429 0.67915 0.0
C1193 C 0.65057 0.81343 0.70283 0.0
N1194 N 0.62262 0.92057 0.63542 0.0
N1195 N 0.62817 0.83424 0.68621 0.0
H1196 H 0.66059 0.22443 0.34244 0.0
H1197 H 0.58997 0.01954 0.37972 0.0
H1198 H 0.68096 0.13993 0.27751 0.0
H1199 H 0.54552 0.10763 0.42812 0.0
H1200 H 0.6221 0.06376 0.34114 0.0
H1201 H 0.61825 0.18309 0.37413 0.0
C1202 C 0.65614 0.1973 0.33475 0.0
C1203 C 0.67466 0.18571 0.30728 0.0
C1204 C 0.60479 0.0736 0.35969 0.0
C1205 C 0.62617 0.13814 0.34357 0.0
C1206 C 0.58614 0.04829 0.38151 0.0
C1207 C 0.56452 0.05987 0.40677 0.0
C1208 C 0.60274 0.11102 0.36362 0.0
C1209 C 0.56128 0.09752 0.40853 0.0
C1210 C 0.63182 0.17375 0.35278 0.0
C1211 C 0.66754 0.1502 0.2985 0.0
N1212 N 0.58063 0.12175 0.38764 0.0
N1213 N 0.64422 0.12774 0.31666 0.0
H1214 H 0.86263 0.73446 0.29555 0.0
H1215 H 0.91243 0.54839 0.39151 0.0
H1216 H 0.80089 0.63473 0.30114 0.0
H1217 H 0.96528 0.65145 0.40049 0.0
H1218 H 0.87949 0.57699 0.34806 0.0
H1219 H 0.90686 0.70217 0.32481 0.0
C1220 C 0.85842 0.70569 0.30273 0.0
C1221 C 0.82777 0.68734 0.29618 0.0
C1222 C 0.89867 0.59327 0.35911 0.0
C1223 C 0.87855 0.65021 0.32956 0.0
C1224 C 0.9177 0.57691 0.38379 0.0
C1225 C 0.94122 0.59774 0.40011 0.0
C1226 C 0.90303 0.63081 0.3507 0.0
C1227 C 0.94725 0.63442 0.38877 0.0
C1228 C 0.88377 0.68729 0.3194 0.0
C1229 C 0.82392 0.65005 0.30594 0.0
N1230 N 0.92778 0.64998 0.36513 0.0
N1231 N 0.84893 0.63277 0.3223 0.0
H1232 H 0.36189 0.83572 0.33586 0.0
H1233 H 0.41148 0.96529 0.43415 0.0
H1234 H 0.32954 0.76792 0.42376 0.0
H1235 H 0.41182 0.87616 0.5093 0.0
H1236 H 0.3726 0.92925 0.40345 0.0
H1237 H 0.37714 0.88442 0.36958 0.0
C1238 C 0.35825 0.83103 0.36239 0.0
C1239 C 0.34519 0.79745 0.37712 0.0
C1240 C 0.38104 0.91759 0.42672 0.0
C1241 C 0.36058 0.85411 0.41605 0.0
C1242 C 0.40259 0.93852 0.44461 0.0
C1243 C 0.41589 0.92291 0.47348 0.0
C1244 C 0.37345 0.88096 0.43783 0.0
C1245 C 0.40303 0.88853 0.48639 0.0
C1246 C 0.366 0.85933 0.38167 0.0
C1247 C 0.33991 0.7933 0.41149 0.0
N1248 N 0.38317 0.86822 0.46802 0.0
N1249 N 0.34803 0.82121 0.42986 0.0
H1250 H 0.16521 0.23974 0.34351 0.0
H1251 H 0.1535 0.40886 0.45414 0.0
H1252 H 0.2458 0.32199 0.34679 0.0
H1253 H 0.07089 0.32956 0.44763 0.0
H1254 H 0.19038 0.37279 0.42059 0.0
H1255 H 0.13344 0.26723 0.38769 0.0
C1256 C 0.1765 0.26322 0.35386 0.0
C1257 C 0.20806 0.27884 0.34114 0.0
C1258 C 0.16426 0.36313 0.42671 0.0
C1259 C 0.17164 0.31068 0.39147 0.0
C1260 C 0.14313 0.38375 0.44589 0.0
C1261 C 0.10884 0.37252 0.45347 0.0
C1262 C 0.15107 0.33103 0.41489 0.0
C1263 C 0.09702 0.33954 0.4422 0.0
C1264 C 0.15826 0.27901 0.37901 0.0
C1265 C 0.22142 0.30922 0.35559 0.0
N1266 N 0.11801 0.32014 0.42328 0.0
N1267 N 0.20299 0.32435 0.37972 0.0
H1268 H 0.25912 0.18396 0.65582 0.0
H1269 H 0.42791 0.17126 0.54004 0.0
H1270 H 0.34452 0.2615 0.65266 0.0
H1271 H 0.3481 0.08694 0.55438 0.0
H1272 H 0.39406 0.2092 0.57445 0.0
H1273 H 0.28745 0.1536 0.61176 0.0
C1274 C 0.28373 0.1949 0.64559 0.0
C1275 C 0.2997 0.22511 0.65827 0.0
C1276 C 0.38384 0.18252 0.56988 0.0
C1277 C 0.33246 0.19006 0.60777 0.0
C1278 C 0.40314 0.16073 0.55019 0.0
C1279 C 0.39104 0.12553 0.5445 0.0
C1280 C 0.35211 0.16918 0.58406 0.0
C1281 C 0.35863 0.1137 0.55821 0.0
C1282 C 0.29992 0.17743 0.62043 0.0
C1283 C 0.33137 0.23824 0.64372 0.0
N1284 N 0.34041 0.13539 0.57751 0.0
N1285 N 0.34692 0.22036 0.61945 0.0
H1286 H 0.78417 0.35806 0.6762 0.0
H1287 H 0.96723 0.40509 0.58965 0.0
H1288 H 0.87059 0.29956 0.71095 0.0
H1289 H 0.88924 0.48382 0.59993 0.0
H1290 H 0.93442 0.36329 0.63091 0.0
H1291 H 0.82321 0.40091 0.64331 0.0
C1292 C 0.81143 0.35422 0.67695 0.0
C1293 C 0.82405 0.32515 0.69648 0.0
C1294 C 0.92494 0.39001 0.6244 0.0
C1295 C 0.86925 0.37426 0.65827 0.0
C1296 C 0.94378 0.41397 0.60101 0.0
C1297 C 0.93091 0.44798 0.59086 0.0
C1298 C 0.89292 0.40007 0.63728 0.0
C1299 C 0.90008 0.45776 0.6064 0.0
C1300 C 0.83378 0.37885 0.65823 0.0
C1301 C 0.85977 0.32172 0.69639 0.0
N1302 N 0.88205 0.43386 0.62825 0.0
N1303 N 0.88117 0.34576 0.67728 0.0
H1304 H 0.21657 0.57533 0.65256 0.0
H1305 H 0.1012 0.61846 0.50494 0.0
H1306 H 0.23438 0.66908 0.58325 0.0
H1307 H 0.09901 0.51349 0.56002 0.0
H1308 H 0.1564 0.63291 0.5269 0.0
H1309 H 0.18177 0.54664 0.61291 0.0
C1310 C 0.21429 0.58912 0.62834 0.0
C1311 C 0.22823 0.62445 0.62094 0.0
C1312 C 0.1442 0.60643 0.53376 0.0
C1313 C 0.18722 0.59286 0.57618 0.0
C1314 C 0.11253 0.59827 0.52138 0.0
C1315 C 0.09512 0.56505 0.53126 0.0
C1316 C 0.15827 0.58149 0.55671 0.0
C1317 C 0.11134 0.53961 0.55206 0.0
C1318 C 0.19416 0.57296 0.6058 0.0
C1319 C 0.22412 0.64166 0.58962 0.0
N1320 N 0.14168 0.54866 0.56464 0.0
N1321 N 0.20325 0.62606 0.56861 0.0
loop_
_geom_bond_atom_site_label_1
_geom_bond_atom_site_label_2
_geom_bond_distance
_geom_bond_site_symmetry_2
_ccdc_geom_bond_type
C0 O16 1.251 . S
C0 O18 1.254 . S
N1 C2 1.333 . S
N1 C6 1.307 . S
N1 Zn7 2.020 . S
C2 N1 1.333 . S
C2 C3 1.379 . S
C2 H20 0.952 . S
C3 C2 1.379 . S
C3 C4 1.390 . S
C3 H30 0.949 . S
C4 C3 1.390 . S
C4 C5 1.357 . S
C5 C4 1.357 . S
C5 C6 1.370 . S
C5 H31 0.950 . S
C6 N1 1.307 . S
C6 C5 1.370 . S
C6 H24 0.948 . S
Zn7 N1 2.020 . S
Zn7 O16 2.039 . S
Zn7 O22 2.034 . S
Zn7 O26 2.025 . S
Zn7 O28 2.024 . S
C8 O27 1.246 . S
C8 O28 1.249 . S
N9 C10 1.307 . S
N9 C11 1.333 . S
N9 Zn15 2.020 . S
C10 N9 1.307 . S
C10 C14 1.370 . S
C10 H21 0.948 . S
C11 N9 1.333 . S
C11 C12 1.379 . S
C11 H19 0.952 . S
C12 C11 1.379 . S
C12 C13 1.390 . S
C12 H32 0.949 . S
C13 C12 1.390 . S
C13 C14 1.357 . S
C14 C10 1.370 . S
C14 C13 1.357 . S
C14 H33 0.950 . S
Zn15 N9 2.020 . S
Zn15 O18 2.025 . S
Zn15 O23 2.024 . S
Zn15 O25 2.039 . S
Zn15 O27 2.034 . S
O16 C0 1.251 . S
O16 Zn7 2.039 . S
C17 O22 1.246 . S
C17 O23 1.249 . S
O18 C0 1.254 . S
O18 Zn15 2.025 . S
H19 C11 0.952 . S
H20 C2 0.952 . S
H21 C10 0.948 . S
O22 Zn7 2.034 . S
O22 C17 1.246 . S
O23 Zn15 2.024 . S
O23 C17 1.249 . S
H24 C6 0.948 . S
O25 Zn15 2.039 . S
O25 C29 1.251 . S
O26 Zn7 2.025 . S
O26 C29 1.254 . S
O27 C8 1.246 . S
O27 Zn15 2.034 . S
O28 Zn7 2.024 . S
O28 C8 1.249 . S
C29 O25 1.251 . S
C29 O26 1.254 . S
H30 C3 0.949 . S
H31 C5 0.950 . S
H32 C12 0.949 . S
H33 C14 0.950 . S
C34 O50 1.251 . S
C34 O52 1.254 . S
N35 C36 1.333 . S
N35 C40 1.307 . S
N35 Zn41 2.020 . S
C36 N35 1.333 . S
C36 C37 1.379 . S
C36 H54 0.952 . S
C37 C36 1.379 . S
C37 C38 1.390 . S
C37 H64 0.949 . S
C38 C37 1.390 . S
C38 C39 1.357 . S
C39 C38 1.357 . S
C39 C40 1.370 . S
C39 H65 0.950 . S
C40 N35 1.307 . S
C40 C39 1.370 . S
C40 H58 0.948 . S
Zn41 N35 2.020 . S
Zn41 O50 2.039 . S
Zn41 O56 2.034 . S
Zn41 O60 2.025 . S
Zn41 O62 2.024 . S
C42 O61 1.246 . S
C42 O62 1.249 . S
N43 C44 1.307 . S
N43 C45 1.333 . S
N43 Zn49 2.020 . S
C44 N43 1.307 . S
C44 C48 1.370 . S
C44 H55 0.948 . S
C45 N43 1.333 . S
C45 C46 1.379 . S
C45 H53 0.952 . S
C46 C45 1.379 . S
C46 C47 1.390 . S
C46 H66 0.949 . S
C47 C46 1.390 . S
C47 C48 1.357 . S
C48 C44 1.370 . S
C48 C47 1.357 . S
C48 H67 0.950 . S
Zn49 N43 2.020 . S
Zn49 O52 2.025 . S
Zn49 O57 2.024 . S
Zn49 O59 2.039 . S
Zn49 O61 2.034 . S
O50 C34 1.251 . S
O50 Zn41 2.039 . S
C51 O56 1.246 . S
C51 O57 1.249 . S
O52 C34 1.254 . S
O52 Zn49 2.025 . S
H53 C45 0.952 . S
H54 C36 0.952 . S
H55 C44 0.948 . S
O56 Zn41 2.034 . S
O56 C51 1.246 . S
O57 Zn49 2.024 . S
O57 C51 1.249 . S
H58 C40 0.948 . S
O59 Zn49 2.039 . S
O59 C63 1.251 . S
O60 Zn41 2.025 . S
O60 C63 1.254 . S
O61 C42 1.246 . S
O61 Zn49 2.034 . S
O62 Zn41 2.024 . S
O62 C42 1.249 . S
C63 O59 1.251 . S
C63 O60 1.254 . S
H64 C37 0.949 . S
H65 C39 0.950 . S
H66 C46 0.949 . S
H67 C48 0.950 . S
C68 O84 1.251 . S
C68 O86 1.254 . S
N69 C70 1.333 . S
N69 C74 1.307 . S
N69 Zn75 2.020 . S
C70 N69 1.333 . S
C70 C71 1.379 . S
C70 H88 0.952 . S
C71 C70 1.379 . S
C71 C72 1.390 . S
C71 H98 0.949 . S
C72 C71 1.390 . S
C72 C73 1.357 . S
C73 C72 1.357 . S
C73 C74 1.370 . S
C73 H99 0.950 . S
C74 N69 1.307 . S
C74 C73 1.370 . S
C74 H92 0.948 . S
Zn75 N69 2.020 . S
Zn75 O84 2.039 . S
Zn75 O90 2.034 . S
Zn75 O94 2.025 . S
Zn75 O96 2.024 . S
C76 O95 1.246 . S
C76 O96 1.249 . S
N77 C78 1.307 . S
N77 C79 1.333 . S
N77 Zn83 2.020 . S
C78 N77 1.307 . S
C78 C82 1.370 . S
C78 H89 0.948 . S
C79 N77 1.333 . S
C79 C80 1.379 . S
C79 H87 0.952 . S
C80 C79 1.379 . S
C80 C81 1.390 . S
C80 H100 0.949 . S
C81 C80 1.390 . S
C81 C82 1.357 . S
C82 C78 1.370 . S
C82 C81 1.357 . S
C82 H101 0.950 . S
Zn83 N77 2.020 . S
Zn83 O86 2.025 . S
Zn83 O91 2.024 . S
Zn83 O93 2.039 . S
Zn83 O95 2.034 . S
O84 C68 1.251 . S
O84 Zn75 2.039 . S
C85 O90 1.246 . S
C85 O91 1.249 . S
O86 C68 1.254 . S
O86 Zn83 2.025 . S
H87 C79 0.952 . S
H88 C70 0.952 . S
H89 C78 0.948 . S
O90 Zn75 2.034 . S
O90 C85 1.246 . S
O91 Zn83 2.024 . S
O91 C85 1.249 . S
H92 C74 0.948 . S
O93 Zn83 2.039 . S
O93 C97 1.251 . S
O94 Zn75 2.025 . S
O94 C97 1.254 . S
O95 C76 1.246 . S
O95 Zn83 2.034 . S
O96 Zn75 2.024 . S
O96 C76 1.249 . S
C97 O93 1.251 . S
C97 O94 1.254 . S
H98 C71 0.949 . S
H99 C73 0.950 . S
H100 C80 0.949 . S
H101 C82 0.950 . S
C102 O118 1.251 . S
C102 O120 1.254 . S
N103 C104 1.333 . S
N103 C108 1.307 . S
N103 Zn109 2.020 . S
C104 N103 1.333 . S
C104 C105 1.379 . S
C104 H122 0.952 . S
C105 C104 1.379 . S
C105 C106 1.390 . S
C105 H132 0.949 . S
C106 C105 1.390 . S
C106 C107 1.357 . S
C107 C106 1.357 . S
C107 C108 1.370 . S
C107 H133 0.950 . S
C108 N103 1.307 . S
C108 C107 1.370 . S
C108 H126 0.948 . S
Zn109 N103 2.020 . S
Zn109 O118 2.039 . S
Zn109 O124 2.034 . S
Zn109 O128 2.025 . S
Zn109 O130 2.024 . S
C110 O129 1.246 . S
C110 O130 1.249 . S
N111 C112 1.307 . S
N111 C113 1.333 . S
N111 Zn117 2.020 . S
C112 N111 1.307 . S
C112 C116 1.370 . S
C112 H123 0.948 . S
C113 N111 1.333 . S
C113 C114 1.379 . S
C113 H121 0.952 . S
C114 C113 1.379 . S
C114 C115 1.390 . S
C114 H134 0.949 . S
C115 C114 1.390 . S
C115 C116 1.357 . S
C116 C112 1.370 . S
C116 C115 1.357 . S
C116 H135 0.950 . S
Zn117 N111 2.020 . S
Zn117 O120 2.025 . S
Zn117 O125 2.024 . S
Zn117 O127 2.039 . S
Zn117 O129 2.034 . S
O118 C102 1.251 . S
O118 Zn109 2.039 . S
C119 O124 1.246 . S
C119 O125 1.249 . S
O120 C102 1.254 . S
O120 Zn117 2.025 . S
H121 C113 0.952 . S
H122 C104 0.952 . S
H123 C112 0.948 . S
O124 Zn109 2.034 . S
O124 C119 1.246 . S
O125 Zn117 2.024 . S
O125 C119 1.249 . S
H126 C108 0.948 . S
O127 Zn117 2.039 . S
O127 C131 1.251 . S
O128 Zn109 2.025 . S
O128 C131 1.254 . S
O129 C110 1.246 . S
O129 Zn117 2.034 . S
O130 Zn109 2.024 . S
O130 C110 1.249 . S
C131 O127 1.251 . S
C131 O128 1.254 . S
H132 C105 0.949 . S
H133 C107 0.950 . S
H134 C114 0.949 . S
H135 C116 0.950 . S
C136 O152 1.251 . S
C136 O154 1.254 . S
N137 C138 1.333 . S
N137 C142 1.307 . S
N137 Zn143 2.020 . S
C138 N137 1.333 . S
C138 C139 1.379 . S
C138 H156 0.952 . S
C139 C138 1.379 . S
C139 C140 1.390 . S
C139 H166 0.949 . S
C140 C139 1.390 . S
C140 C141 1.357 . S
C141 C140 1.357 . S
C141 C142 1.370 . S
C141 H167 0.950 . S
C142 N137 1.307 . S
C142 C141 1.370 . S
C142 H160 0.948 . S
Zn143 N137 2.020 . S
Zn143 O152 2.039 . S
Zn143 O158 2.034 . S
Zn143 O162 2.025 . S
Zn143 O164 2.024 . S
C144 O163 1.246 . S
C144 O164 1.249 . S
N145 C146 1.307 . S
N145 C147 1.333 . S
N145 Zn151 2.020 . S
C146 N145 1.307 . S
C146 C150 1.370 . S
C146 H157 0.948 . S
C147 N145 1.333 . S
C147 C148 1.379 . S
C147 H155 0.952 . S
C148 C147 1.379 . S
C148 C149 1.390 . S
C148 H168 0.949 . S
C149 C148 1.390 . S
C149 C150 1.357 . S
C150 C146 1.370 . S
C150 C149 1.357 . S
C150 H169 0.950 . S
Zn151 N145 2.020 . S
Zn151 O154 2.025 . S
Zn151 O159 2.024 . S
Zn151 O161 2.039 . S
Zn151 O163 2.034 . S
O152 C136 1.251 . S
O152 Zn143 2.039 . S
C153 O158 1.246 . S
C153 O159 1.249 . S
O154 C136 1.254 . S
O154 Zn151 2.025 . S
H155 C147 0.952 . S
H156 C138 0.952 . S
H157 C146 0.948 . S
O158 Zn143 2.034 . S
O158 C153 1.246 . S
O159 Zn151 2.024 . S
O159 C153 1.249 . S
H160 C142 0.948 . S
O161 Zn151 2.039 . S
O161 C165 1.251 . S
O162 Zn143 2.025 . S
O162 C165 1.254 . S
O163 C144 1.246 . S
O163 Zn151 2.034 . S
O164 Zn143 2.024 . S
O164 C144 1.249 . S
C165 O161 1.251 . S
C165 O162 1.254 . S
H166 C139 0.949 . S
H167 C141 0.950 . S
H168 C148 0.949 . S
H169 C150 0.950 . S
C170 O186 1.251 . S
C170 O188 1.254 . S
N171 C172 1.333 . S
N171 C176 1.307 . S
N171 Zn177 2.020 . S
C172 N171 1.333 . S
C172 C173 1.379 . S
C172 H190 0.952 . S
C173 C172 1.379 . S
C173 C174 1.390 . S
C173 H200 0.949 . S
C174 C173 1.390 . S
C174 C175 1.357 . S
C175 C174 1.357 . S
C175 C176 1.370 . S
C175 H201 0.950 . S
C176 N171 1.307 . S
C176 C175 1.370 . S
C176 H194 0.948 . S
Zn177 N171 2.020 . S
Zn177 O186 2.039 . S
Zn177 O192 2.034 . S
Zn177 O196 2.025 . S
Zn177 O198 2.024 . S
C178 O197 1.246 . S
C178 O198 1.249 . S
N179 C180 1.307 . S
N179 C181 1.333 . S
N179 Zn185 2.020 . S
C180 N179 1.307 . S
C180 C184 1.370 . S
C180 H191 0.948 . S
C181 N179 1.333 . S
C181 C182 1.379 . S
C181 H189 0.952 . S
C182 C181 1.379 . S
C182 C183 1.390 . S
C182 H202 0.949 . S
C183 C182 1.390 . S
C183 C184 1.357 . S
C184 C180 1.370 . S
C184 C183 1.357 . S
C184 H203 0.950 . S
Zn185 N179 2.020 . S
Zn185 O188 2.025 . S
Zn185 O193 2.024 . S
Zn185 O195 2.039 . S
Zn185 O197 2.034 . S
O186 C170 1.251 . S
O186 Zn177 2.039 . S
C187 O192 1.246 . S
C187 O193 1.249 . S
O188 C170 1.254 . S
O188 Zn185 2.025 . S
H189 C181 0.952 . S
H190 C172 0.952 . S
H191 C180 0.948 . S
O192 Zn177 2.034 . S
O192 C187 1.246 . S
O193 Zn185 2.024 . S
O193 C187 1.249 . S
H194 C176 0.948 . S
O195 Zn185 2.039 . S
O195 C199 1.251 . S
O196 Zn177 2.025 . S
O196 C199 1.254 . S
O197 C178 1.246 . S
O197 Zn185 2.034 . S
O198 Zn177 2.024 . S
O198 C178 1.249 . S
C199 O195 1.251 . S
C199 O196 1.254 . S
H200 C173 0.949 . S
H201 C175 0.950 . S
H202 C182 0.949 . S
H203 C184 0.950 . S
C204 O220 1.251 . S
C204 O222 1.254 . S
N205 C206 1.333 . S
N205 C210 1.307 . S
N205 Zn211 2.020 . S
C206 N205 1.333 . S
C206 C207 1.379 . S
C206 H224 0.952 . S
C207 C206 1.379 . S
C207 C208 1.390 . S
C207 H234 0.949 . S
C208 C207 1.390 . S
C208 C209 1.357 . S
C209 C208 1.357 . S
C209 C210 1.370 . S
C209 H235 0.950 . S
C210 N205 1.307 . S
C210 C209 1.370 . S
C210 H228 0.948 . S
Zn211 N205 2.020 . S
Zn211 O220 2.039 . S
Zn211 O226 2.034 . S
Zn211 O230 2.025 . S
Zn211 O232 2.024 . S
C212 O231 1.246 . S
C212 O232 1.249 . S
N213 C214 1.307 . S
N213 C215 1.333 . S
N213 Zn219 2.020 . S
C214 N213 1.307 . S
C214 C218 1.370 . S
C214 H225 0.948 . S
C215 N213 1.333 . S
C215 C216 1.379 . S
C215 H223 0.952 . S
C216 C215 1.379 . S
C216 C217 1.390 . S
C216 H236 0.949 . S
C217 C216 1.390 . S
C217 C218 1.357 . S
C218 C214 1.370 . S
C218 C217 1.357 . S
C218 H237 0.950 . S
Zn219 N213 2.020 . S
Zn219 O222 2.025 . S
Zn219 O227 2.024 . S
Zn219 O229 2.039 . S
Zn219 O231 2.034 . S
O220 C204 1.251 . S
O220 Zn211 2.039 . S
C221 O226 1.246 . S
C221 O227 1.249 . S
O222 C204 1.254 . S
O222 Zn219 2.025 . S
H223 C215 0.952 . S
H224 C206 0.952 . S
H225 C214 0.948 . S
O226 Zn211 2.034 . S
O226 C221 1.246 . S
O227 Zn219 2.024 . S
O227 C221 1.249 . S
H228 C210 0.948 . S
O229 Zn219 2.039 . S
O229 C233 1.251 . S
O230 Zn211 2.025 . S
O230 C233 1.254 . S
O231 C212 1.246 . S
O231 Zn219 2.034 . S
O232 Zn211 2.024 . S
O232 C212 1.249 . S
C233 O229 1.251 . S
C233 O230 1.254 . S
H234 C207 0.949 . S
H235 C209 0.950 . S
H236 C216 0.949 . S
H237 C218 0.950 . S
C238 O254 1.251 . S
C238 O256 1.254 . S
N239 C240 1.333 . S
N239 C244 1.307 . S
N239 Zn245 2.020 . S
C240 N239 1.333 . S
C240 C241 1.379 . S
C240 H258 0.952 . S
C241 C240 1.379 . S
C241 C242 1.390 . S
C241 H268 0.949 . S
C242 C241 1.390 . S
C242 C243 1.357 . S
C243 C242 1.357 . S
C243 C244 1.370 . S
C243 H269 0.950 . S
C244 N239 1.307 . S
C244 C243 1.370 . S
C244 H262 0.948 . S
Zn245 N239 2.020 . S
Zn245 O254 2.039 . S
Zn245 O260 2.034 . S
Zn245 O264 2.025 . S
Zn245 O266 2.024 . S
C246 O265 1.246 . S
C246 O266 1.249 . S
N247 C248 1.307 . S
N247 C249 1.333 . S
N247 Zn253 2.020 . S
C248 N247 1.307 . S
C248 C252 1.370 . S
C248 H259 0.948 . S
C249 N247 1.333 . S
C249 C250 1.379 . S
C249 H257 0.952 . S
C250 C249 1.379 . S
C250 C251 1.390 . S
C250 H270 0.949 . S
C251 C250 1.390 . S
C251 C252 1.357 . S
C252 C248 1.370 . S
C252 C251 1.357 . S
C252 H271 0.950 . S
Zn253 N247 2.020 . S
Zn253 O256 2.025 . S
Zn253 O261 2.024 . S
Zn253 O263 2.039 . S
Zn253 O265 2.034 . S
O254 C238 1.251 . S
O254 Zn245 2.039 . S
C255 O260 1.246 . S
C255 O261 1.249 . S
O256 C238 1.254 . S
O256 Zn253 2.025 . S
H257 C249 0.952 . S
H258 C240 0.952 . S
H259 C248 0.948 . S
O260 Zn245 2.034 . S
O260 C255 1.246 . S
O261 Zn253 2.024 . S
O261 C255 1.249 . S
H262 C244 0.948 . S
O263 Zn253 2.039 . S
O263 C267 1.251 . S
O264 Zn245 2.025 . S
O264 C267 1.254 . S
O265 C246 1.246 . S
O265 Zn253 2.034 . S
O266 Zn245 2.024 . S
O266 C246 1.249 . S
C267 O263 1.251 . S
C267 O264 1.254 . S
H268 C241 0.949 . S
H269 C243 0.950 . S
H270 C250 0.949 . S
H271 C252 0.950 . S
C272 O284 1.241 . S
C272 O285 1.280 . S
C273 O286 1.277 . S
C273 O287 1.245 . S
C274 O298 1.247 . S
C274 O300 1.289 . S
Mg275 O276 1.926 . S
Mg275 O285 1.984 . S
Mg275 O287 1.988 . S
Mg275 O288 2.061 1_655 S
O276 Mg275 1.926 . S
O276 Mg277 1.986 . S
O276 Mg278 1.917 1_655 S
Mg277 O276 1.986 . S
Mg277 O284 2.042 . S
Mg277 O286 2.041 . S
Mg277 O292 2.038 1_545 S
Mg277 O300 2.238 1_545 S
Mg278 O276 1.917 1_455 S
Mg278 O279 1.917 1_545 S
Mg278 O289 2.106 . S
Mg278 O291 2.079 1_445 S
Mg278 O300 2.106 1_445 S
Mg278 O301 2.079 . S
O279 Mg278 1.917 1_565 S
O279 Mg280 1.926 . S
O279 Mg281 1.986 . S
Mg280 O279 1.926 . S
Mg280 O294 1.984 . S
Mg280 O297 1.988 . S
Mg280 O298 2.061 1_455 S
Mg281 O279 1.986 . S
Mg281 O289 2.238 1_565 S
Mg281 O293 2.042 . S
Mg281 O295 2.041 . S
Mg281 O302 2.038 1_565 S
C282 O288 1.247 . S
C282 O289 1.289 . S
C283 O301 1.245 . S
C283 O302 1.274 . S
O284 C272 1.241 . S
O284 Mg277 2.042 . S
O285 C272 1.280 . S
O285 Mg275 1.984 . S
O286 C273 1.277 . S
O286 Mg277 2.041 . S
O287 C273 1.245 . S
O287 Mg275 1.988 . S
O288 Mg275 2.061 1_455 S
O288 C282 1.247 . S
O289 Mg278 2.106 . S
O289 Mg281 2.238 1_545 S
O289 C282 1.289 . S
C290 O291 1.245 . S
C290 O292 1.274 . S
O291 Mg278 2.079 1_665 S
O291 C290 1.245 . S
O292 Mg277 2.038 1_565 S
O292 C290 1.274 . S
O293 Mg281 2.042 . S
O293 C296 1.241 . S
O294 Mg280 1.984 . S
O294 C296 1.280 . S
O295 Mg281 2.041 . S
O295 C299 1.277 . S
C296 O293 1.241 . S
C296 O294 1.280 . S
O297 Mg280 1.988 . S
O297 C299 1.245 . S
O298 C274 1.247 . S
O298 Mg280 2.061 1_655 S
C299 O295 1.277 . S
C299 O297 1.245 . S
O300 C274 1.289 . S
O300 Mg277 2.238 1_565 S
O300 Mg278 2.106 1_665 S
O301 Mg278 2.079 . S
O301 C283 1.245 . S
O302 Mg281 2.038 1_545 S
O302 C283 1.274 . S
C303 O315 1.241 . S
C303 O316 1.280 . S
C304 O317 1.277 . S
C304 O318 1.245 . S
C305 O329 1.247 . S
C305 O331 1.289 . S
Mg306 O307 1.926 . S
Mg306 O316 1.984 . S
Mg306 O318 1.988 1_554 S
Mg306 O319 2.061 . S
O307 Mg306 1.926 . S
O307 Mg308 1.986 . S
O307 Mg309 1.917 . S
Mg308 O307 1.986 . S
Mg308 O315 2.042 . S
Mg308 O317 2.041 1_554 S
Mg308 O323 2.038 1_545 S
Mg308 O331 2.238 1_544 S
Mg309 O307 1.917 . S
Mg309 O310 1.917 1_544 S
Mg309 O320 2.106 . S
Mg309 O322 2.079 1_545 S
Mg309 O331 2.106 1_544 S
Mg309 O332 2.079 1_554 S
O310 Mg309 1.917 1_566 S
O310 Mg311 1.926 . S
O310 Mg312 1.986 . S
Mg311 O310 1.926 . S
Mg311 O325 1.984 . S
Mg311 O328 1.988 1_556 S
Mg311 O329 2.061 . S
Mg312 O310 1.986 . S
Mg312 O320 2.238 1_566 S
Mg312 O324 2.042 . S
Mg312 O326 2.041 1_556 S
Mg312 O333 2.038 1_565 S
C313 O319 1.247 . S
C313 O320 1.289 . S
C314 O332 1.245 . S
C314 O333 1.274 . S
O315 C303 1.241 . S
O315 Mg308 2.042 . S
O316 C303 1.280 . S
O316 Mg306 1.984 . S
O317 C304 1.277 . S
O317 Mg308 2.041 1_556 S
O318 C304 1.245 . S
O318 Mg306 1.988 1_556 S
O319 Mg306 2.061 . S
O319 C313 1.247 . S
O320 Mg309 2.106 . S
O320 Mg312 2.238 1_544 S
O320 C313 1.289 . S
C321 O322 1.245 . S
C321 O323 1.274 . S
O322 Mg309 2.079 1_565 S
O322 C321 1.245 . S
O323 Mg308 2.038 1_565 S
O323 C321 1.274 . S
O324 Mg312 2.042 . S
O324 C327 1.241 . S
O325 Mg311 1.984 . S
O325 C327 1.280 . S
O326 Mg312 2.041 1_554 S
O326 C330 1.277 . S
C327 O324 1.241 . S
C327 O325 1.280 . S
O328 Mg311 1.988 1_554 S
O328 C330 1.245 . S
O329 C305 1.247 . S
O329 Mg311 2.061 . S
C330 O326 1.277 . S
C330 O328 1.245 . S
O331 C305 1.289 . S
O331 Mg308 2.238 1_566 S
O331 Mg309 2.106 1_566 S
O332 Mg309 2.079 1_556 S
O332 C314 1.245 . S
O333 Mg312 2.038 1_545 S
O333 C314 1.274 . S
C334 O346 1.241 . S
C334 O347 1.280 . S
C335 O348 1.277 . S
C335 O349 1.245 . S
C336 O360 1.247 . S
C336 O362 1.289 . S
Mg337 O338 1.926 . S
Mg337 O347 1.984 . S
Mg337 O349 1.988 1_554 S
Mg337 O350 2.061 1_655 S
O338 Mg337 1.926 . S
O338 Mg339 1.986 . S
O338 Mg340 1.917 1_655 S
Mg339 O338 1.986 . S
Mg339 O346 2.042 . S
Mg339 O348 2.041 1_554 S
Mg339 O354 2.038 . S
Mg339 O362 2.238 1_554 S
Mg340 O338 1.917 1_455 S
Mg340 O341 1.917 1_554 S
Mg340 O351 2.106 . S
Mg340 O353 2.079 1_455 S
Mg340 O362 2.106 1_454 S
Mg340 O363 2.079 1_554 S
O341 Mg340 1.917 1_556 S
O341 Mg342 1.926 . S
O341 Mg343 1.986 . S
Mg342 O341 1.926 . S
Mg342 O356 1.984 . S
Mg342 O359 1.988 1_556 S
Mg342 O360 2.061 1_455 S
Mg343 O341 1.986 . S
Mg343 O351 2.238 1_556 S
Mg343 O355 2.042 . S
Mg343 O357 2.041 1_556 S
Mg343 O364 2.038 . S
C344 O350 1.247 . S
C344 O351 1.289 . S
C345 O363 1.245 . S
C345 O364 1.274 . S
O346 C334 1.241 . S
O346 Mg339 2.042 . S
O347 C334 1.280 . S
O347 Mg337 1.984 . S
O348 C335 1.277 . S
O348 Mg339 2.041 1_556 S
O349 C335 1.245 . S
O349 Mg337 1.988 1_556 S
O350 Mg337 2.061 1_455 S
O350 C344 1.247 . S
O351 Mg340 2.106 . S
O351 Mg343 2.238 1_554 S
O351 C344 1.289 . S
C352 O353 1.245 . S
C352 O354 1.274 . S
O353 Mg340 2.079 1_655 S
O353 C352 1.245 . S
O354 Mg339 2.038 . S
O354 C352 1.274 . S
O355 Mg343 2.042 . S
O355 C358 1.241 . S
O356 Mg342 1.984 . S
O356 C358 1.280 . S
O357 Mg343 2.041 1_554 S
O357 C361 1.277 . S
C358 O355 1.241 . S
C358 O356 1.280 . S
O359 Mg342 1.988 1_554 S
O359 C361 1.245 . S
O360 C336 1.247 . S
O360 Mg342 2.061 1_655 S
C361 O357 1.277 . S
C361 O359 1.245 . S
O362 C336 1.289 . S
O362 Mg339 2.238 1_556 S
O362 Mg340 2.106 1_656 S
O363 Mg340 2.079 1_556 S
O363 C345 1.245 . S
O364 Mg343 2.038 . S
O364 C345 1.274 . S
C365 O377 1.241 . S
C365 O378 1.280 . S
C366 O379 1.277 . S
C366 O380 1.245 . S
C367 O391 1.247 . S
C367 O393 1.289 . S
Mg368 O369 1.926 . S
Mg368 O378 1.984 . S
Mg368 O380 1.988 1_554 S
Mg368 O381 2.061 . S
O369 Mg368 1.926 . S
O369 Mg370 1.986 . S
O369 Mg371 1.917 . S
Mg370 O369 1.986 . S
Mg370 O377 2.042 . S
Mg370 O379 2.041 1_554 S
Mg370 O385 2.038 . S
Mg370 O393 2.238 1_554 S
Mg371 O369 1.917 . S
Mg371 O372 1.917 1_554 S
Mg371 O382 2.106 . S
Mg371 O384 2.079 . S
Mg371 O393 2.106 1_554 S
Mg371 O394 2.079 1_554 S
O372 Mg371 1.917 1_556 S
O372 Mg373 1.926 . S
O372 Mg374 1.986 . S
Mg373 O372 1.926 . S
Mg373 O387 1.984 . S
Mg373 O390 1.988 1_556 S
Mg373 O391 2.061 . S
Mg374 O372 1.986 . S
Mg374 O382 2.238 1_556 S
Mg374 O386 2.042 . S
Mg374 O388 2.041 1_556 S
Mg374 O395 2.038 . S
C375 O381 1.247 . S
C375 O382 1.289 . S
C376 O394 1.245 . S
C376 O395 1.274 . S
O377 C365 1.241 . S
O377 Mg370 2.042 . S
O378 C365 1.280 . S
O378 Mg368 1.984 . S
O379 C366 1.277 . S
O379 Mg370 2.041 1_556 S
O380 C366 1.245 . S
O380 Mg368 1.988 1_556 S
O381 Mg368 2.061 . S
O381 C375 1.247 . S
O382 Mg371 2.106 . S
O382 Mg374 2.238 1_554 S
O382 C375 1.289 . S
C383 O384 1.245 . S
C383 O385 1.274 . S
O384 Mg371 2.079 . S
O384 C383 1.245 . S
O385 Mg370 2.038 . S
O385 C383 1.274 . S
O386 Mg374 2.042 . S
O386 C389 1.241 . S
O387 Mg373 1.984 . S
O387 C389 1.280 . S
O388 Mg374 2.041 1_554 S
O388 C392 1.277 . S
C389 O386 1.241 . S
C389 O387 1.280 . S
O390 Mg373 1.988 1_554 S
O390 C392 1.245 . S
O391 C367 1.247 . S
O391 Mg373 2.061 . S
C392 O388 1.277 . S
C392 O390 1.245 . S
O393 C367 1.289 . S
O393 Mg370 2.238 1_556 S
O393 Mg371 2.106 1_556 S
O394 Mg371 2.079 1_556 S
O394 C376 1.245 . S
O395 Mg374 2.038 . S
O395 C376 1.274 . S
C396 O408 1.241 . S
C396 O409 1.280 . S
C397 O410 1.277 . S
C397 O411 1.245 . S
C398 O422 1.247 . S
C398 O424 1.289 . S
Mg399 O400 1.926 . S
Mg399 O409 1.984 . S
Mg399 O411 1.988 . S
Mg399 O412 2.061 1_655 S
O400 Mg399 1.926 . S
O400 Mg401 1.986 . S
O400 Mg402 1.917 1_655 S
Mg401 O400 1.986 . S
Mg401 O408 2.042 . S
Mg401 O410 2.041 . S
Mg401 O416 2.038 . S
Mg401 O424 2.238 . S
Mg402 O400 1.917 1_455 S
Mg402 O403 1.917 . S
Mg402 O413 2.106 . S
Mg402 O415 2.079 1_455 S
Mg402 O424 2.106 1_455 S
Mg402 O425 2.079 . S
O403 Mg402 1.917 . S
O403 Mg404 1.926 . S
O403 Mg405 1.986 . S
Mg404 O403 1.926 . S
Mg404 O418 1.984 . S
Mg404 O421 1.988 . S
Mg404 O422 2.061 1_455 S
Mg405 O403 1.986 . S
Mg405 O413 2.238 . S
Mg405 O417 2.042 . S
Mg405 O419 2.041 . S
Mg405 O426 2.038 . S
C406 O412 1.247 . S
C406 O413 1.289 . S
C407 O425 1.245 . S
C407 O426 1.274 . S
O408 C396 1.241 . S
O408 Mg401 2.042 . S
O409 C396 1.280 . S
O409 Mg399 1.984 . S
O410 C397 1.277 . S
O410 Mg401 2.041 . S
O411 C397 1.245 . S
O411 Mg399 1.988 . S
O412 Mg399 2.061 1_455 S
O412 C406 1.247 . S
O413 Mg402 2.106 . S
O413 Mg405 2.238 . S
O413 C406 1.289 . S
C414 O415 1.245 . S
C414 O416 1.274 . S
O415 Mg402 2.079 1_655 S
O415 C414 1.245 . S
O416 Mg401 2.038 . S
O416 C414 1.274 . S
O417 Mg405 2.042 . S
O417 C420 1.241 . S
O418 Mg404 1.984 . S
O418 C420 1.280 . S
O419 Mg405 2.041 . S
O419 C423 1.277 . S
C420 O417 1.241 . S
C420 O418 1.280 . S
O421 Mg404 1.988 . S
O421 C423 1.245 . S
O422 C398 1.247 . S
O422 Mg404 2.061 1_655 S
C423 O419 1.277 . S
C423 O421 1.245 . S
O424 C398 1.289 . S
O424 Mg401 2.238 . S
O424 Mg402 2.106 1_655 S
O425 Mg402 2.079 . S
O425 C407 1.245 . S
O426 Mg405 2.038 . S
O426 C407 1.274 . S
C427 O439 1.241 . S
C427 O440 1.280 . S
C428 O441 1.277 . S
C428 O442 1.245 . S
C429 O453 1.247 . S
C429 O455 1.289 . S
Mg430 O431 1.926 . S
Mg430 O440 1.984 . S
Mg430 O442 1.988 . S
Mg430 O443 2.061 . S
O431 Mg430 1.926 . S
O431 Mg432 1.986 . S
O431 Mg433 1.917 . S
Mg432 O431 1.986 . S
Mg432 O439 2.042 . S
Mg432 O441 2.041 . S
Mg432 O447 2.038 1_545 S
Mg432 O455 2.238 1_545 S
Mg433 O431 1.917 . S
Mg433 O434 1.917 1_545 S
Mg433 O444 2.106 . S
Mg433 O446 2.079 1_545 S
Mg433 O455 2.106 1_545 S
Mg433 O456 2.079 . S
O434 Mg433 1.917 1_565 S
O434 Mg435 1.926 . S
O434 Mg436 1.986 . S
Mg435 O434 1.926 . S
Mg435 O449 1.984 . S
Mg435 O452 1.988 . S
Mg435 O453 2.061 . S
Mg436 O434 1.986 . S
Mg436 O444 2.238 1_565 S
Mg436 O448 2.042 . S
Mg436 O450 2.041 . S
Mg436 O457 2.038 1_565 S
C437 O443 1.247 . S
C437 O444 1.289 . S
C438 O456 1.245 . S
C438 O457 1.274 . S
O439 C427 1.241 . S
O439 Mg432 2.042 . S
O440 C427 1.280 . S
O440 Mg430 1.984 . S
O441 C428 1.277 . S
O441 Mg432 2.041 . S
O442 C428 1.245 . S
O442 Mg430 1.988 . S
O443 Mg430 2.061 . S
O443 C437 1.247 . S
O444 Mg433 2.106 . S
O444 Mg436 2.238 1_545 S
O444 C437 1.289 . S
C445 O446 1.245 . S
C445 O447 1.274 . S
O446 Mg433 2.079 1_565 S
O446 C445 1.245 . S
O447 Mg432 2.038 1_565 S
O447 C445 1.274 . S
O448 Mg436 2.042 . S
O448 C451 1.241 . S
O449 Mg435 1.984 . S
O449 C451 1.280 . S
O450 Mg436 2.041 . S
O450 C454 1.277 . S
C451 O448 1.241 . S
C451 O449 1.280 . S
O452 Mg435 1.988 . S
O452 C454 1.245 . S
O453 C429 1.247 . S
O453 Mg435 2.061 . S
C454 O450 1.277 . S
C454 O452 1.245 . S
O455 C429 1.289 . S
O455 Mg432 2.238 1_565 S
O455 Mg433 2.106 1_565 S
O456 Mg433 2.079 . S
O456 C438 1.245 . S
O457 Mg436 2.038 1_545 S
O457 C438 1.274 . S
H458 C464 0.930 . S
H459 C468 0.930 . S
H460 C473 0.929 . S
H461 C471 0.929 1_565 S
H462 C466 0.929 . S
H463 C472 0.929 . S
C464 H458 0.930 . S
C464 C465 1.367 . S
C464 C472 1.378 . S
C465 C464 1.367 . S
C465 C473 1.433 . S
C466 H462 0.929 . S
C466 C468 1.378 . S
C466 C470 1.350 . S
C467 C470 1.463 . S
C467 C472 1.350 . S
C467 N475 1.427 . S
C468 H459 0.930 . S
C468 C466 1.378 . S
C468 C469 1.367 . S
C469 C468 1.367 . S
C469 C471 1.433 . S
C470 C466 1.350 . S
C470 C467 1.463 . S
C470 N474 1.427 . S
C471 H461 0.929 1_545 S
C471 C469 1.433 . S
C471 N474 1.384 . S
C472 H463 0.929 . S
C472 C464 1.378 . S
C472 C467 1.350 . S
C473 H460 0.929 . S
C473 C465 1.433 . S
C473 N475 1.384 . S
N474 C470 1.427 . S
N474 C471 1.384 . S
N475 C467 1.427 . S
N475 C473 1.384 . S
H476 C482 0.930 . S
H477 C486 0.930 . S
H478 C491 0.929 . S
H479 C489 0.929 . S
H480 C484 0.929 . S
H481 C490 0.929 . S
C482 H476 0.930 . S
C482 C483 1.367 . S
C482 C490 1.378 . S
C483 C482 1.367 . S
C483 C491 1.433 . S
C484 H480 0.929 . S
C484 C486 1.378 . S
C484 C488 1.350 . S
C485 C488 1.463 . S
C485 C490 1.350 . S
C485 N493 1.427 . S
C486 H477 0.930 . S
C486 C484 1.378 . S
C486 C487 1.367 . S
C487 C486 1.367 . S
C487 C489 1.433 . S
C488 C484 1.350 . S
C488 C485 1.463 . S
C488 N492 1.427 . S
C489 H479 0.929 . S
C489 C487 1.433 . S
C489 N492 1.384 . S
C490 H481 0.929 . S
C490 C482 1.378 . S
C490 C485 1.350 . S
C491 H478 0.929 . S
C491 C483 1.433 . S
C491 N493 1.384 . S
N492 C488 1.427 . S
N492 C489 1.384 . S
N493 C485 1.427 . S
N493 C491 1.384 . S
H494 C500 0.930 . S
H495 C504 0.930 . S
H496 C509 0.929 . S
H497 C507 0.929 . S
H498 C502 0.929 . S
H499 C508 0.929 . S
C500 H494 0.930 . S
C500 C501 1.367 . S
C500 C508 1.378 . S
C501 C500 1.367 . S
C501 C509 1.433 . S
C502 H498 0.929 . S
C502 C504 1.378 . S
C502 C506 1.350 . S
C503 C506 1.463 . S
C503 C508 1.350 . S
C503 N511 1.427 . S
C504 H495 0.930 . S
C504 C502 1.378 . S
C504 C505 1.367 . S
C505 C504 1.367 . S
C505 C507 1.433 . S
C506 C502 1.350 . S
C506 C503 1.463 . S
C506 N510 1.427 . S
C507 H497 0.929 . S
C507 C505 1.433 . S
C507 N510 1.384 . S
C508 H499 0.929 . S
C508 C500 1.378 . S
C508 C503 1.350 . S
C509 H496 0.929 . S
C509 C501 1.433 . S
C509 N511 1.384 . S
N510 C506 1.427 . S
N510 C507 1.384 . S
N511 C503 1.427 . S
N511 C509 1.384 . S
H512 C518 0.930 . S
H513 C522 0.930 . S
H514 C527 0.929 . S
H515 C525 0.929 . S
H516 C520 0.929 . S
H517 C526 0.929 . S
C518 H512 0.930 . S
C518 C519 1.367 . S
C518 C526 1.378 . S
C519 C518 1.367 . S
C519 C527 1.433 . S
C520 H516 0.929 . S
C520 C522 1.378 . S
C520 C524 1.350 . S
C521 C524 1.463 . S
C521 C526 1.350 . S
C521 N529 1.427 . S
C522 H513 0.930 . S
C522 C520 1.378 . S
C522 C523 1.367 . S
C523 C522 1.367 . S
C523 C525 1.433 . S
C524 C520 1.350 . S
C524 C521 1.463 . S
C524 N528 1.427 . S
C525 H515 0.929 . S
C525 C523 1.433 . S
C525 N528 1.384 . S
C526 H517 0.929 . S
C526 C518 1.378 . S
C526 C521 1.350 . S
C527 H514 0.929 . S
C527 C519 1.433 . S
C527 N529 1.384 . S
N528 C524 1.427 . S
N528 C525 1.384 . S
N529 C521 1.427 . S
N529 C527 1.384 . S
H530 C536 0.930 . S
H531 C540 0.930 . S
H532 C545 0.929 . S
H533 C543 0.929 . S
H534 C538 0.929 . S
H535 C544 0.929 . S
C536 H530 0.930 . S
C536 C537 1.367 . S
C536 C544 1.378 . S
C537 C536 1.367 . S
C537 C545 1.433 . S
C538 H534 0.929 . S
C538 C540 1.378 . S
C538 C542 1.350 . S
C539 C542 1.463 . S
C539 C544 1.350 . S
C539 N547 1.427 . S
C540 H531 0.930 . S
C540 C538 1.378 . S
C540 C541 1.367 . S
C541 C540 1.367 . S
C541 C543 1.433 . S
C542 C538 1.350 . S
C542 C539 1.463 . S
C542 N546 1.427 . S
C543 H533 0.929 . S
C543 C541 1.433 . S
C543 N546 1.384 . S
C544 H535 0.929 . S
C544 C536 1.378 . S
C544 C539 1.350 . S
C545 H532 0.929 . S
C545 C537 1.433 . S
C545 N547 1.384 . S
N546 C542 1.427 . S
N546 C543 1.384 . S
N547 C539 1.427 . S
N547 C545 1.384 . S
H548 C554 0.930 . S
H549 C558 0.930 . S
H550 C563 0.929 . S
H551 C561 0.929 . S
H552 C556 0.929 . S
H553 C562 0.929 . S
C554 H548 0.930 . S
C554 C555 1.367 . S
C554 C562 1.378 . S
C555 C554 1.367 . S
C555 C563 1.433 . S
C556 H552 0.929 . S
C556 C558 1.378 . S
C556 C560 1.350 . S
C557 C560 1.463 . S
C557 C562 1.350 . S
C557 N565 1.427 . S
C558 H549 0.930 . S
C558 C556 1.378 . S
C558 C559 1.367 . S
C559 C558 1.367 . S
C559 C561 1.433 . S
C560 C556 1.350 . S
C560 C557 1.463 . S
C560 N564 1.427 . S
C561 H551 0.929 . S
C561 C559 1.433 . S
C561 N564 1.384 . S
C562 H553 0.929 . S
C562 C554 1.378 . S
C562 C557 1.350 . S
C563 H550 0.929 . S
C563 C555 1.433 . S
C563 N565 1.384 . S
N564 C560 1.427 . S
N564 C561 1.384 . S
N565 C557 1.427 . S
N565 C563 1.384 . S
H566 C572 0.930 . S
H567 C576 0.930 . S
H568 C581 0.929 . S
H569 C579 0.929 . S
H570 C574 0.929 . S
H571 C580 0.929 . S
C572 H566 0.930 . S
C572 C573 1.367 . S
C572 C580 1.378 . S
C573 C572 1.367 . S
C573 C581 1.433 . S
C574 H570 0.929 . S
C574 C576 1.378 . S
C574 C578 1.350 . S
C575 C578 1.463 . S
C575 C580 1.350 . S
C575 N583 1.427 . S
C576 H567 0.930 . S
C576 C574 1.378 . S
C576 C577 1.367 . S
C577 C576 1.367 . S
C577 C579 1.433 . S
C578 C574 1.350 . S
C578 C575 1.463 . S
C578 N582 1.427 . S
C579 H569 0.929 . S
C579 C577 1.433 . S
C579 N582 1.384 . S
C580 H571 0.929 . S
C580 C572 1.378 . S
C580 C575 1.350 . S
C581 H568 0.929 . S
C581 C573 1.433 . S
C581 N583 1.384 . S
N582 C578 1.427 . S
N582 C579 1.384 . S
N583 C575 1.427 . S
N583 C581 1.384 . S
H584 C590 0.930 . S
H585 C594 0.930 . S
H586 C599 0.929 . S
H587 C597 0.929 . S
H588 C592 0.929 . S
H589 C598 0.929 . S
C590 H584 0.930 . S
C590 C591 1.367 . S
C590 C598 1.378 . S
C591 C590 1.367 . S
C591 C599 1.433 . S
C592 H588 0.929 . S
C592 C594 1.378 . S
C592 C596 1.350 . S
C593 C596 1.463 . S
C593 C598 1.350 . S
C593 N601 1.427 . S
C594 H585 0.930 . S
C594 C592 1.378 . S
C594 C595 1.367 . S
C595 C594 1.367 . S
C595 C597 1.433 . S
C596 C592 1.350 . S
C596 C593 1.463 . S
C596 N600 1.427 . S
C597 H587 0.929 . S
C597 C595 1.433 . S
C597 N600 1.384 . S
C598 H589 0.929 . S
C598 C590 1.378 . S
C598 C593 1.350 . S
C599 H586 0.929 . S
C599 C591 1.433 . S
C599 N601 1.384 . S
N600 C596 1.427 . S
N600 C597 1.384 . S
N601 C593 1.427 . S
N601 C599 1.384 . S
H602 C608 0.930 . S
H603 C612 0.930 . S
H604 C617 0.929 . S
H605 C615 0.929 . S
H606 C610 0.929 . S
H607 C616 0.929 . S
C608 H602 0.930 . S
C608 C609 1.367 . S
C608 C616 1.378 . S
C609 C608 1.367 . S
C609 C617 1.433 . S
C610 H606 0.929 . S
C610 C612 1.378 . S
C610 C614 1.350 . S
C611 C614 1.463 . S
C611 C616 1.350 . S
C611 N619 1.427 . S
C612 H603 0.930 . S
C612 C610 1.378 . S
C612 C613 1.367 . S
C613 C612 1.367 . S
C613 C615 1.433 . S
C614 C610 1.350 . S
C614 C611 1.463 . S
C614 N618 1.427 . S
C615 H605 0.929 . S
C615 C613 1.433 . S
C615 N618 1.384 . S
C616 H607 0.929 . S
C616 C608 1.378 . S
C616 C611 1.350 . S
C617 H604 0.929 . S
C617 C609 1.433 . S
C617 N619 1.384 . S
N618 C614 1.427 . S
N618 C615 1.384 . S
N619 C611 1.427 . S
N619 C617 1.384 . S
H620 C626 0.930 . S
H621 C630 0.930 . S
H622 C635 0.929 . S
H623 C633 0.929 . S
H624 C628 0.929 . S
H625 C634 0.929 . S
C626 H620 0.930 . S
C626 C627 1.367 . S
C626 C634 1.378 . S
C627 C626 1.367 . S
C627 C635 1.433 . S
C628 H624 0.929 . S
C628 C630 1.378 . S
C628 C632 1.350 . S
C629 C632 1.463 . S
C629 C634 1.350 . S
C629 N637 1.427 . S
C630 H621 0.930 . S
C630 C628 1.378 . S
C630 C631 1.367 . S
C631 C630 1.367 . S
C631 C633 1.433 . S
C632 C628 1.350 . S
C632 C629 1.463 . S
C632 N636 1.427 . S
C633 H623 0.929 . S
C633 C631 1.433 . S
C633 N636 1.384 . S
C634 H625 0.929 . S
C634 C626 1.378 . S
C634 C629 1.350 . S
C635 H622 0.929 . S
C635 C627 1.433 . S
C635 N637 1.384 . S
N636 C632 1.427 . S
N636 C633 1.384 . S
N637 C629 1.427 . S
N637 C635 1.384 . S
H638 C644 0.930 . S
H639 C648 0.930 . S
H640 C653 0.929 . S
H641 C651 0.929 . S
H642 C646 0.929 . S
H643 C652 0.929 . S
C644 H638 0.930 . S
C644 C645 1.367 . S
C644 C652 1.378 . S
C645 C644 1.367 . S
C645 C653 1.433 . S
C646 H642 0.929 . S
C646 C648 1.378 . S
C646 C650 1.350 . S
C647 C650 1.463 . S
C647 C652 1.350 . S
C647 N655 1.427 . S
C648 H639 0.930 . S
C648 C646 1.378 . S
C648 C649 1.367 . S
C649 C648 1.367 . S
C649 C651 1.433 . S
C650 C646 1.350 . S
C650 C647 1.463 . S
C650 N654 1.427 . S
C651 H641 0.929 . S
C651 C649 1.433 . S
C651 N654 1.384 . S
C652 H643 0.929 . S
C652 C644 1.378 . S
C652 C647 1.350 . S
C653 H640 0.929 . S
C653 C645 1.433 . S
C653 N655 1.384 . S
N654 C650 1.427 . S
N654 C651 1.384 . S
N655 C647 1.427 . S
N655 C653 1.384 . S
H656 C662 0.930 . S
H657 C666 0.930 . S
H658 C671 0.929 . S
H659 C669 0.929 . S
H660 C664 0.929 . S
H661 C670 0.929 . S
C662 H656 0.930 . S
C662 C663 1.367 . S
C662 C670 1.378 . S
C663 C662 1.367 . S
C663 C671 1.433 . S
C664 H660 0.929 . S
C664 C666 1.378 . S
C664 C668 1.350 . S
C665 C668 1.463 . S
C665 C670 1.350 . S
C665 N673 1.427 . S
C666 H657 0.930 . S
C666 C664 1.378 . S
C666 C667 1.367 . S
C667 C666 1.367 . S
C667 C669 1.433 . S
C668 C664 1.350 . S
C668 C665 1.463 . S
C668 N672 1.427 . S
C669 H659 0.929 . S
C669 C667 1.433 . S
C669 N672 1.384 . S
C670 H661 0.929 . S
C670 C662 1.378 . S
C670 C665 1.350 . S
C671 H658 0.929 . S
C671 C663 1.433 . S
C671 N673 1.384 . S
N672 C668 1.427 . S
N672 C669 1.384 . S
N673 C665 1.427 . S
N673 C671 1.384 . S
H674 C680 0.930 . S
H675 C684 0.930 . S
H676 C689 0.929 . S
H677 C687 0.929 . S
H678 C682 0.929 . S
H679 C688 0.929 . S
C680 H674 0.930 . S
C680 C681 1.367 . S
C680 C688 1.378 . S
C681 C680 1.367 . S
C681 C689 1.433 . S
C682 H678 0.929 . S
C682 C684 1.378 . S
C682 C686 1.350 . S
C683 C686 1.463 . S
C683 C688 1.350 . S
C683 N691 1.427 . S
C684 H675 0.930 . S
C684 C682 1.378 . S
C684 C685 1.367 . S
C685 C684 1.367 . S
C685 C687 1.433 . S
C686 C682 1.350 . S
C686 C683 1.463 . S
C686 N690 1.427 . S
C687 H677 0.929 . S
C687 C685 1.433 . S
C687 N690 1.384 . S
C688 H679 0.929 . S
C688 C680 1.378 . S
C688 C683 1.350 . S
C689 H676 0.929 . S
C689 C681 1.433 . S
C689 N691 1.384 . S
N690 C686 1.427 . S
N690 C687 1.384 . S
N691 C683 1.427 . S
N691 C689 1.384 . S
H692 C698 0.930 . S
H693 C702 0.930 . S
H694 C707 0.929 . S
H695 C705 0.929 . S
H696 C700 0.929 . S
H697 C706 0.929 . S
C698 H692 0.930 . S
C698 C699 1.367 . S
C698 C706 1.378 . S
C699 C698 1.367 . S
C699 C707 1.433 . S
C700 H696 0.929 . S
C700 C702 1.378 . S
C700 C704 1.350 . S
C701 C704 1.463 . S
C701 C706 1.350 . S
C701 N709 1.427 . S
C702 H693 0.930 . S
C702 C700 1.378 . S
C702 C703 1.367 . S
C703 C702 1.367 . S
C703 C705 1.433 . S
C704 C700 1.350 . S
C704 C701 1.463 . S
C704 N708 1.427 . S
C705 H695 0.929 . S
C705 C703 1.433 . S
C705 N708 1.384 . S
C706 H697 0.929 . S
C706 C698 1.378 . S
C706 C701 1.350 . S
C707 H694 0.929 . S
C707 C699 1.433 . S
C707 N709 1.384 . S
N708 C704 1.427 . S
N708 C705 1.384 . S
N709 C701 1.427 . S
N709 C707 1.384 . S
H710 C716 0.930 . S
H711 C720 0.930 . S
H712 C725 0.929 . S
H713 C723 0.929 . S
H714 C718 0.929 . S
H715 C724 0.929 . S
C716 H710 0.930 . S
C716 C717 1.367 . S
C716 C724 1.378 . S
C717 C716 1.367 . S
C717 C725 1.433 . S
C718 H714 0.929 . S
C718 C720 1.378 . S
C718 C722 1.350 . S
C719 C722 1.463 . S
C719 C724 1.350 . S
C719 N727 1.427 . S
C720 H711 0.930 . S
C720 C718 1.378 . S
C720 C721 1.367 . S
C721 C720 1.367 . S
C721 C723 1.433 . S
C722 C718 1.350 . S
C722 C719 1.463 . S
C722 N726 1.427 . S
C723 H713 0.929 . S
C723 C721 1.433 . S
C723 N726 1.384 . S
C724 H715 0.929 . S
C724 C716 1.378 . S
C724 C719 1.350 . S
C725 H712 0.929 . S
C725 C717 1.433 . S
C725 N727 1.384 . S
N726 C722 1.427 . S
N726 C723 1.384 . S
N727 C719 1.427 . S
N727 C725 1.384 . S
H728 C734 0.930 . S
H729 C738 0.930 . S
H730 C743 0.929 . S
H731 C741 0.929 . S
H732 C736 0.929 . S
H733 C742 0.929 . S
C734 H728 0.930 . S
C734 C735 1.367 . S
C734 C742 1.378 . S
C735 C734 1.367 . S
C735 C743 1.433 . S
C736 H732 0.929 . S
C736 C738 1.378 . S
C736 C740 1.350 . S
C737 C740 1.463 . S
C737 C742 1.350 . S
C737 N745 1.427 . S
C738 H729 0.930 . S
C738 C736 1.378 . S
C738 C739 1.367 . S
C739 C738 1.367 . S
C739 C741 1.433 . S
C740 C736 1.350 . S
C740 C737 1.463 . S
C740 N744 1.427 . S
C741 H731 0.929 . S
C741 C739 1.433 . S
C741 N744 1.384 . S
C742 H733 0.929 . S
C742 C734 1.378 . S
C742 C737 1.350 . S
C743 H730 0.929 . S
C743 C735 1.433 . S
C743 N745 1.384 . S
N744 C740 1.427 . S
N744 C741 1.384 . S
N745 C737 1.427 . S
N745 C743 1.384 . S
H746 C752 0.930 . S
H747 C756 0.930 . S
H748 C761 0.929 . S
H749 C759 0.929 . S
H750 C754 0.929 . S
H751 C760 0.929 . S
C752 H746 0.930 . S
C752 C753 1.367 . S
C752 C760 1.378 . S
C753 C752 1.367 . S
C753 C761 1.433 . S
C754 H750 0.929 . S
C754 C756 1.378 . S
C754 C758 1.350 . S
C755 C758 1.463 . S
C755 C760 1.350 . S
C755 N763 1.427 . S
C756 H747 0.930 . S
C756 C754 1.378 . S
C756 C757 1.367 . S
C757 C756 1.367 . S
C757 C759 1.433 . S
C758 C754 1.350 . S
C758 C755 1.463 . S
C758 N762 1.427 . S
C759 H749 0.929 . S
C759 C757 1.433 . S
C759 N762 1.384 . S
C760 H751 0.929 . S
C760 C752 1.378 . S
C760 C755 1.350 . S
C761 H748 0.929 . S
C761 C753 1.433 . S
C761 N763 1.384 . S
N762 C758 1.427 . S
N762 C759 1.384 . S
N763 C755 1.427 . S
N763 C761 1.384 . S
H764 C770 0.930 . S
H765 C774 0.930 . S
H766 C779 0.929 . S
H767 C777 0.929 . S
H768 C772 0.929 . S
H769 C778 0.929 . S
C770 H764 0.930 . S
C770 C771 1.367 . S
C770 C778 1.378 . S
C771 C770 1.367 . S
C771 C779 1.433 . S
C772 H768 0.929 . S
C772 C774 1.378 . S
C772 C776 1.350 . S
C773 C776 1.463 . S
C773 C778 1.350 . S
C773 N781 1.427 . S
C774 H765 0.930 . S
C774 C772 1.378 . S
C774 C775 1.367 . S
C775 C774 1.367 . S
C775 C777 1.433 . S
C776 C772 1.350 . S
C776 C773 1.463 . S
C776 N780 1.427 . S
C777 H767 0.929 . S
C777 C775 1.433 . S
C777 N780 1.384 . S
C778 H769 0.929 . S
C778 C770 1.378 . S
C778 C773 1.350 . S
C779 H766 0.929 . S
C779 C771 1.433 . S
C779 N781 1.384 . S
N780 C776 1.427 . S
N780 C777 1.384 . S
N781 C773 1.427 . S
N781 C779 1.384 . S
H782 C788 0.930 . S
H783 C792 0.930 . S
H784 C797 0.929 . S
H785 C795 0.929 . S
H786 C790 0.929 . S
H787 C796 0.929 . S
C788 H782 0.930 . S
C788 C789 1.367 . S
C788 C796 1.378 . S
C789 C788 1.367 . S
C789 C797 1.433 . S
C790 H786 0.929 . S
C790 C792 1.378 . S
C790 C794 1.350 . S
C791 C794 1.463 . S
C791 C796 1.350 . S
C791 N799 1.427 . S
C792 H783 0.930 . S
C792 C790 1.378 . S
C792 C793 1.367 . S
C793 C792 1.367 . S
C793 C795 1.433 . S
C794 C790 1.350 . S
C794 C791 1.463 . S
C794 N798 1.427 . S
C795 H785 0.929 . S
C795 C793 1.433 . S
C795 N798 1.384 . S
C796 H787 0.929 . S
C796 C788 1.378 . S
C796 C791 1.350 . S
C797 H784 0.929 . S
C797 C789 1.433 . S
C797 N799 1.384 . S
N798 C794 1.427 . S
N798 C795 1.384 . S
N799 C791 1.427 . S
N799 C797 1.384 . S
H800 C806 0.930 . S
H801 C810 0.930 . S
H802 C815 0.929 . S
H803 C813 0.929 . S
H804 C808 0.929 . S
H805 C814 0.929 . S
C806 H800 0.930 . S
C806 C807 1.367 . S
C806 C814 1.378 . S
C807 C806 1.367 . S
C807 C815 1.433 . S
C808 H804 0.929 . S
C808 C810 1.378 . S
C808 C812 1.350 . S
C809 C812 1.463 . S
C809 C814 1.350 . S
C809 N817 1.427 . S
C810 H801 0.930 . S
C810 C808 1.378 . S
C810 C811 1.367 . S
C811 C810 1.367 . S
C811 C813 1.433 . S
C812 C808 1.350 . S
C812 C809 1.463 . S
C812 N816 1.427 . S
C813 H803 0.929 . S
C813 C811 1.433 . S
C813 N816 1.384 . S
C814 H805 0.929 . S
C814 C806 1.378 . S
C814 C809 1.350 . S
C815 H802 0.929 . S
C815 C807 1.433 . S
C815 N817 1.384 . S
N816 C812 1.427 . S
N816 C813 1.384 . S
N817 C809 1.427 . S
N817 C815 1.384 . S
H818 C824 0.930 . S
H819 C828 0.930 . S
H820 C833 0.929 . S
H821 C831 0.929 . S
H822 C826 0.929 . S
H823 C832 0.929 . S
C824 H818 0.930 . S
C824 C825 1.367 . S
C824 C832 1.378 . S
C825 C824 1.367 . S
C825 C833 1.433 . S
C826 H822 0.929 . S
C826 C828 1.378 . S
C826 C830 1.350 . S
C827 C830 1.463 . S
C827 C832 1.350 . S
C827 N835 1.427 . S
C828 H819 0.930 . S
C828 C826 1.378 . S
C828 C829 1.367 . S
C829 C828 1.367 . S
C829 C831 1.433 . S
C830 C826 1.350 . S
C830 C827 1.463 . S
C830 N834 1.427 . S
C831 H821 0.929 . S
C831 C829 1.433 . S
C831 N834 1.384 . S
C832 H823 0.929 . S
C832 C824 1.378 . S
C832 C827 1.350 . S
C833 H820 0.929 . S
C833 C825 1.433 . S
C833 N835 1.384 . S
N834 C830 1.427 . S
N834 C831 1.384 . S
N835 C827 1.427 . S
N835 C833 1.384 . S
H836 C842 0.930 . S
H837 C846 0.930 . S
H838 C851 0.929 . S
H839 C849 0.929 . S
H840 C844 0.929 . S
H841 C850 0.929 . S
C842 H836 0.930 . S
C842 C843 1.367 . S
C842 C850 1.378 . S
C843 C842 1.367 . S
C843 C851 1.433 . S
C844 H840 0.929 . S
C844 C846 1.378 . S
C844 C848 1.350 . S
C845 C848 1.463 . S
C845 C850 1.350 . S
C845 N853 1.427 . S
C846 H837 0.930 . S
C846 C844 1.378 . S
C846 C847 1.367 . S
C847 C846 1.367 . S
C847 C849 1.433 . S
C848 C844 1.350 . S
C848 C845 1.463 . S
C848 N852 1.427 . S
C849 H839 0.929 . S
C849 C847 1.433 . S
C849 N852 1.384 . S
C850 H841 0.929 . S
C850 C842 1.378 . S
C850 C845 1.350 . S
C851 H838 0.929 . S
C851 C843 1.433 . S
C851 N853 1.384 . S
N852 C848 1.427 . S
N852 C849 1.384 . S
N853 C845 1.427 . S
N853 C851 1.384 . S
H854 C860 0.930 . S
H855 C864 0.930 . S
H856 C869 0.929 . S
H857 C867 0.929 . S
H858 C862 0.929 . S
H859 C868 0.929 . S
C860 H854 0.930 . S
C860 C861 1.367 . S
C860 C868 1.378 . S
C861 C860 1.367 . S
C861 C869 1.433 . S
C862 H858 0.929 . S
C862 C864 1.378 . S
C862 C866 1.350 . S
C863 C866 1.463 . S
C863 C868 1.350 . S
C863 N871 1.427 . S
C864 H855 0.930 . S
C864 C862 1.378 . S
C864 C865 1.367 . S
C865 C864 1.367 . S
C865 C867 1.433 . S
C866 C862 1.350 . S
C866 C863 1.463 . S
C866 N870 1.427 . S
C867 H857 0.929 . S
C867 C865 1.433 . S
C867 N870 1.384 . S
C868 H859 0.929 . S
C868 C860 1.378 . S
C868 C863 1.350 . S
C869 H856 0.929 . S
C869 C861 1.433 . S
C869 N871 1.384 . S
N870 C866 1.427 . S
N870 C867 1.384 . S
N871 C863 1.427 . S
N871 C869 1.384 . S
H872 C878 0.930 . S
H873 C882 0.930 . S
H874 C887 0.929 . S
H875 C885 0.929 . S
H876 C880 0.929 . S
H877 C886 0.929 . S
C878 H872 0.930 . S
C878 C879 1.367 . S
C878 C886 1.378 . S
C879 C878 1.367 . S
C879 C887 1.433 . S
C880 H876 0.929 . S
C880 C882 1.378 . S
C880 C884 1.350 . S
C881 C884 1.463 . S
C881 C886 1.350 . S
C881 N889 1.427 . S
C882 H873 0.930 . S
C882 C880 1.378 . S
C882 C883 1.367 . S
C883 C882 1.367 . S
C883 C885 1.433 . S
C884 C880 1.350 . S
C884 C881 1.463 . S
C884 N888 1.427 . S
C885 H875 0.929 . S
C885 C883 1.433 . S
C885 N888 1.384 . S
C886 H877 0.929 . S
C886 C878 1.378 . S
C886 C881 1.350 . S
C887 H874 0.929 . S
C887 C879 1.433 . S
C887 N889 1.384 . S
N888 C884 1.427 . S
N888 C885 1.384 . S
N889 C881 1.427 . S
N889 C887 1.384 . S
H890 C896 0.930 . S
H891 C900 0.930 . S
H892 C905 0.929 . S
H893 C903 0.929 . S
H894 C898 0.929 . S
H895 C904 0.929 . S
C896 H890 0.930 . S
C896 C897 1.367 . S
C896 C904 1.378 . S
C897 C896 1.367 . S
C897 C905 1.433 . S
C898 H894 0.929 . S
C898 C900 1.378 . S
C898 C902 1.350 . S
C899 C902 1.463 . S
C899 C904 1.350 . S
C899 N907 1.427 . S
C900 H891 0.930 . S
C900 C898 1.378 . S
C900 C901 1.367 . S
C901 C900 1.367 . S
C901 C903 1.433 . S
C902 C898 1.350 . S
C902 C899 1.463 . S
C902 N906 1.427 . S
C903 H893 0.929 . S
C903 C901 1.433 . S
C903 N906 1.384 . S
C904 H895 0.929 . S
C904 C896 1.378 . S
C904 C899 1.350 . S
C905 H892 0.929 . S
C905 C897 1.433 . S
C905 N907 1.384 . S
N906 C902 1.427 . S
N906 C903 1.384 . S
N907 C899 1.427 . S
N907 C905 1.384 . S
H908 C914 0.930 . S
H909 C918 0.930 . S
H910 C923 0.929 . S
H911 C921 0.929 . S
H912 C916 0.929 . S
H913 C922 0.929 . S
C914 H908 0.930 . S
C914 C915 1.367 . S
C914 C922 1.378 . S
C915 C914 1.367 . S
C915 C923 1.433 . S
C916 H912 0.929 . S
C916 C918 1.378 . S
C916 C920 1.350 . S
C917 C920 1.463 . S
C917 C922 1.350 . S
C917 N925 1.427 . S
C918 H909 0.930 . S
C918 C916 1.378 . S
C918 C919 1.367 . S
C919 C918 1.367 . S
C919 C921 1.433 . S
C920 C916 1.350 . S
C920 C917 1.463 . S
C920 N924 1.427 . S
C921 H911 0.929 . S
C921 C919 1.433 . S
C921 N924 1.384 . S
C922 H913 0.929 . S
C922 C914 1.378 . S
C922 C917 1.350 . S
C923 H910 0.929 . S
C923 C915 1.433 . S
C923 N925 1.384 . S
N924 C920 1.427 . S
N924 C921 1.384 . S
N925 C917 1.427 . S
N925 C923 1.384 . S
H926 C932 0.930 . S
H927 C936 0.930 . S
H928 C941 0.929 . S
H929 C939 0.929 . S
H930 C934 0.929 . S
H931 C940 0.929 . S
C932 H926 0.930 . S
C932 C933 1.367 . S
C932 C940 1.378 . S
C933 C932 1.367 . S
C933 C941 1.433 . S
C934 H930 0.929 . S
C934 C936 1.378 . S
C934 C938 1.350 . S
C935 C938 1.463 . S
C935 C940 1.350 . S
C935 N943 1.427 . S
C936 H927 0.930 . S
C936 C934 1.378 . S
C936 C937 1.367 . S
C937 C936 1.367 . S
C937 C939 1.433 . S
C938 C934 1.350 . S
C938 C935 1.463 . S
C938 N942 1.427 . S
C939 H929 0.929 . S
C939 C937 1.433 . S
C939 N942 1.384 . S
C940 H931 0.929 . S
C940 C932 1.378 . S
C940 C935 1.350 . S
C941 H928 0.929 . S
C941 C933 1.433 . S
C941 N943 1.384 . S
N942 C938 1.427 . S
N942 C939 1.384 . S
N943 C935 1.427 . S
N943 C941 1.384 . S
H944 C950 0.930 . S
H945 C954 0.930 . S
H946 C959 0.929 . S
H947 C957 0.929 . S
H948 C952 0.929 . S
H949 C958 0.929 . S
C950 H944 0.930 . S
C950 C951 1.367 . S
C950 C958 1.378 . S
C951 C950 1.367 . S
C951 C959 1.433 . S
C952 H948 0.929 . S
C952 C954 1.378 . S
C952 C956 1.350 . S
C953 C956 1.463 . S
C953 C958 1.350 . S
C953 N961 1.427 . S
C954 H945 0.930 . S
C954 C952 1.378 . S
C954 C955 1.367 . S
C955 C954 1.367 . S
C955 C957 1.433 . S
C956 C952 1.350 . S
C956 C953 1.463 . S
C956 N960 1.427 . S
C957 H947 0.929 . S
C957 C955 1.433 . S
C957 N960 1.384 . S
C958 H949 0.929 . S
C958 C950 1.378 . S
C958 C953 1.350 . S
C959 H946 0.929 . S
C959 C951 1.433 . S
C959 N961 1.384 . S
N960 C956 1.427 . S
N960 C957 1.384 . S
N961 C953 1.427 . S
N961 C959 1.384 . S
H962 C968 0.930 . S
H963 C972 0.930 . S
H964 C977 0.929 . S
H965 C975 0.929 . S
H966 C970 0.929 . S
H967 C976 0.929 . S
C968 H962 0.930 . S
C968 C969 1.367 . S
C968 C976 1.378 . S
C969 C968 1.367 . S
C969 C977 1.433 . S
C970 H966 0.929 . S
C970 C972 1.378 . S
C970 C974 1.350 . S
C971 C974 1.463 . S
C971 C976 1.350 . S
C971 N979 1.427 . S
C972 H963 0.930 . S
C972 C970 1.378 . S
C972 C973 1.367 . S
C973 C972 1.367 . S
C973 C975 1.433 . S
C974 C970 1.350 . S
C974 C971 1.463 . S
C974 N978 1.427 . S
C975 H965 0.929 . S
C975 C973 1.433 . S
C975 N978 1.384 . S
C976 H967 0.929 . S
C976 C968 1.378 . S
C976 C971 1.350 . S
C977 H964 0.929 . S
C977 C969 1.433 . S
C977 N979 1.384 . S
N978 C974 1.427 . S
N978 C975 1.384 . S
N979 C971 1.427 . S
N979 C977 1.384 . S
H980 C986 0.930 . S
H981 C990 0.930 . S
H982 C995 0.929 . S
H983 C993 0.929 . S
H984 C988 0.929 . S
H985 C994 0.929 . S
C986 H980 0.930 . S
C986 C987 1.367 . S
C986 C994 1.378 . S
C987 C986 1.367 . S
C987 C995 1.433 . S
C988 H984 0.929 . S
C988 C990 1.378 . S
C988 C992 1.350 . S
C989 C992 1.463 . S
C989 C994 1.350 . S
C989 N997 1.427 . S
C990 H981 0.930 . S
C990 C988 1.378 . S
C990 C991 1.367 . S
C991 C990 1.367 . S
C991 C993 1.433 . S
C992 C988 1.350 . S
C992 C989 1.463 . S
C992 N996 1.427 . S
C993 H983 0.929 . S
C993 C991 1.433 . S
C993 N996 1.384 . S
C994 H985 0.929 . S
C994 C986 1.378 . S
C994 C989 1.350 . S
C995 H982 0.929 . S
C995 C987 1.433 . S
C995 N997 1.384 . S
N996 C992 1.427 . S
N996 C993 1.384 . S
N997 C989 1.427 . S
N997 C995 1.384 . S
H998 C1004 0.930 . S
H999 C1008 0.930 . S
H1000 C1013 0.929 . S
H1001 C1011 0.929 . S
H1002 C1006 0.929 . S
H1003 C1012 0.929 . S
C1004 H998 0.930 . S
C1004 C1005 1.367 . S
C1004 C1012 1.378 . S
C1005 C1004 1.367 . S
C1005 C1013 1.433 . S
C1006 H1002 0.929 . S
C1006 C1008 1.378 . S
C1006 C1010 1.350 . S
C1007 C1010 1.463 . S
C1007 C1012 1.350 . S
C1007 N1015 1.427 . S
C1008 H999 0.930 . S
C1008 C1006 1.378 . S
C1008 C1009 1.367 . S
C1009 C1008 1.367 . S
C1009 C1011 1.433 . S
C1010 C1006 1.350 . S
C1010 C1007 1.463 . S
C1010 N1014 1.427 . S
C1011 H1001 0.929 . S
C1011 C1009 1.433 . S
C1011 N1014 1.384 . S
C1012 H1003 0.929 . S
C1012 C1004 1.378 . S
C1012 C1007 1.350 . S
C1013 H1000 0.929 . S
C1013 C1005 1.433 . S
C1013 N1015 1.384 . S
N1014 C1010 1.427 . S
N1014 C1011 1.384 . S
N1015 C1007 1.427 . S
N1015 C1013 1.384 . S
H1016 C1022 0.930 . S
H1017 C1026 0.930 . S
H1018 C1031 0.929 . S
H1019 C1029 0.929 . S
H1020 C1024 0.929 . S
H1021 C1030 0.929 . S
C1022 H1016 0.930 . S
C1022 C1023 1.367 . S
C1022 C1030 1.378 . S
C1023 C1022 1.367 . S
C1023 C1031 1.433 . S
C1024 H1020 0.929 . S
C1024 C1026 1.378 . S
C1024 C1028 1.350 . S
C1025 C1028 1.463 . S
C1025 C1030 1.350 . S
C1025 N1033 1.427 . S
C1026 H1017 0.930 . S
C1026 C1024 1.378 . S
C1026 C1027 1.367 . S
C1027 C1026 1.367 . S
C1027 C1029 1.433 . S
C1028 C1024 1.350 . S
C1028 C1025 1.463 . S
C1028 N1032 1.427 . S
C1029 H1019 0.929 . S
C1029 C1027 1.433 . S
C1029 N1032 1.384 . S
C1030 H1021 0.929 . S
C1030 C1022 1.378 . S
C1030 C1025 1.350 . S
C1031 H1018 0.929 . S
C1031 C1023 1.433 . S
C1031 N1033 1.384 . S
N1032 C1028 1.427 . S
N1032 C1029 1.384 . S
N1033 C1025 1.427 . S
N1033 C1031 1.384 . S
H1034 C1040 0.930 . S
H1035 C1044 0.930 . S
H1036 C1049 0.929 . S
H1037 C1047 0.929 . S
H1038 C1042 0.929 . S
H1039 C1048 0.929 . S
C1040 H1034 0.930 . S
C1040 C1041 1.367 . S
C1040 C1048 1.378 . S
C1041 C1040 1.367 . S
C1041 C1049 1.433 . S
C1042 H1038 0.929 . S
C1042 C1044 1.378 . S
C1042 C1046 1.350 . S
C1043 C1046 1.463 . S
C1043 C1048 1.350 . S
C1043 N1051 1.427 . S
C1044 H1035 0.930 . S
C1044 C1042 1.378 . S
C1044 C1045 1.367 . S
C1045 C1044 1.367 . S
C1045 C1047 1.433 . S
C1046 C1042 1.350 . S
C1046 C1043 1.463 . S
C1046 N1050 1.427 . S
C1047 H1037 0.929 . S
C1047 C1045 1.433 . S
C1047 N1050 1.384 . S
C1048 H1039 0.929 . S
C1048 C1040 1.378 . S
C1048 C1043 1.350 . S
C1049 H1036 0.929 . S
C1049 C1041 1.433 . S
C1049 N1051 1.384 . S
N1050 C1046 1.427 . S
N1050 C1047 1.384 . S
N1051 C1043 1.427 . S
N1051 C1049 1.384 . S
H1052 C1058 0.930 . S
H1053 C1062 0.930 . S
H1054 C1067 0.929 . S
H1055 C1065 0.929 . S
H1056 C1060 0.929 . S
H1057 C1066 0.929 . S
C1058 H1052 0.930 . S
C1058 C1059 1.367 . S
C1058 C1066 1.378 . S
C1059 C1058 1.367 . S
C1059 C1067 1.433 . S
C1060 H1056 0.929 . S
C1060 C1062 1.378 . S
C1060 C1064 1.350 . S
C1061 C1064 1.463 . S
C1061 C1066 1.350 . S
C1061 N1069 1.427 . S
C1062 H1053 0.930 . S
C1062 C1060 1.378 . S
C1062 C1063 1.367 . S
C1063 C1062 1.367 . S
C1063 C1065 1.433 . S
C1064 C1060 1.350 . S
C1064 C1061 1.463 . S
C1064 N1068 1.427 . S
C1065 H1055 0.929 . S
C1065 C1063 1.433 . S
C1065 N1068 1.384 . S
C1066 H1057 0.929 . S
C1066 C1058 1.378 . S
C1066 C1061 1.350 . S
C1067 H1054 0.929 . S
C1067 C1059 1.433 . S
C1067 N1069 1.384 . S
N1068 C1064 1.427 . S
N1068 C1065 1.384 . S
N1069 C1061 1.427 . S
N1069 C1067 1.384 . S
H1070 C1076 0.930 . S
H1071 C1080 0.930 . S
H1072 C1085 0.929 . S
H1073 C1083 0.929 . S
H1074 C1078 0.929 . S
H1075 C1084 0.929 . S
C1076 H1070 0.930 . S
C1076 C1077 1.367 . S
C1076 C1084 1.378 . S
C1077 C1076 1.367 . S
C1077 C1085 1.433 . S
C1078 H1074 0.929 . S
C1078 C1080 1.378 . S
C1078 C1082 1.350 . S
C1079 C1082 1.463 . S
C1079 C1084 1.350 . S
C1079 N1087 1.427 . S
C1080 H1071 0.930 . S
C1080 C1078 1.378 . S
C1080 C1081 1.367 . S
C1081 C1080 1.367 . S
C1081 C1083 1.433 . S
C1082 C1078 1.350 . S
C1082 C1079 1.463 . S
C1082 N1086 1.427 . S
C1083 H1073 0.929 . S
C1083 C1081 1.433 . S
C1083 N1086 1.384 . S
C1084 H1075 0.929 . S
C1084 C1076 1.378 . S
C1084 C1079 1.350 . S
C1085 H1072 0.929 . S
C1085 C1077 1.433 . S
C1085 N1087 1.384 . S
N1086 C1082 1.427 . S
N1086 C1083 1.384 . S
N1087 C1079 1.427 . S
N1087 C1085 1.384 . S
H1088 C1094 0.930 . S
H1089 C1098 0.930 . S
H1090 C1103 0.929 . S
H1091 C1101 0.929 . S
H1092 C1096 0.929 . S
H1093 C1102 0.929 . S
C1094 H1088 0.930 . S
C1094 C1095 1.367 . S
C1094 C1102 1.378 . S
C1095 C1094 1.367 . S
C1095 C1103 1.433 . S
C1096 H1092 0.929 . S
C1096 C1098 1.378 . S
C1096 C1100 1.350 . S
C1097 C1100 1.463 . S
C1097 C1102 1.350 . S
C1097 N1105 1.427 . S
C1098 H1089 0.930 . S
C1098 C1096 1.378 . S
C1098 C1099 1.367 . S
C1099 C1098 1.367 . S
C1099 C1101 1.433 . S
C1100 C1096 1.350 . S
C1100 C1097 1.463 . S
C1100 N1104 1.427 . S
C1101 H1091 0.929 . S
C1101 C1099 1.433 . S
C1101 N1104 1.384 . S
C1102 H1093 0.929 . S
C1102 C1094 1.378 . S
C1102 C1097 1.350 . S
C1103 H1090 0.929 . S
C1103 C1095 1.433 . S
C1103 N1105 1.384 . S
N1104 C1100 1.427 . S
N1104 C1101 1.384 . S
N1105 C1097 1.427 . S
N1105 C1103 1.384 . S
H1106 C1112 0.930 . S
H1107 C1116 0.930 . S
H1108 C1121 0.929 . S
H1109 C1119 0.929 . S
H1110 C1114 0.929 . S
H1111 C1120 0.929 . S
C1112 H1106 0.930 . S
C1112 C1113 1.367 . S
C1112 C1120 1.378 . S
C1113 C1112 1.367 . S
C1113 C1121 1.433 . S
C1114 H1110 0.929 . S
C1114 C1116 1.378 . S
C1114 C1118 1.350 . S
C1115 C1118 1.463 . S
C1115 C1120 1.350 . S
C1115 N1123 1.427 . S
C1116 H1107 0.930 . S
C1116 C1114 1.378 . S
C1116 C1117 1.367 . S
C1117 C1116 1.367 . S
C1117 C1119 1.433 . S
C1118 C1114 1.350 . S
C1118 C1115 1.463 . S
C1118 N1122 1.427 . S
C1119 H1109 0.929 . S
C1119 C1117 1.433 . S
C1119 N1122 1.384 . S
C1120 H1111 0.929 . S
C1120 C1112 1.378 . S
C1120 C1115 1.350 . S
C1121 H1108 0.929 . S
C1121 C1113 1.433 . S
C1121 N1123 1.384 . S
N1122 C1118 1.427 . S
N1122 C1119 1.384 . S
N1123 C1115 1.427 . S
N1123 C1121 1.384 . S
H1124 C1130 0.930 . S
H1125 C1134 0.930 . S
H1126 C1139 0.929 . S
H1127 C1137 0.929 . S
H1128 C1132 0.929 . S
H1129 C1138 0.929 . S
C1130 H1124 0.930 . S
C1130 C1131 1.367 . S
C1130 C1138 1.378 . S
C1131 C1130 1.367 . S
C1131 C1139 1.433 . S
C1132 H1128 0.929 . S
C1132 C1134 1.378 . S
C1132 C1136 1.350 . S
C1133 C1136 1.463 . S
C1133 C1138 1.350 . S
C1133 N1141 1.427 . S
C1134 H1125 0.930 . S
C1134 C1132 1.378 . S
C1134 C1135 1.367 . S
C1135 C1134 1.367 . S
C1135 C1137 1.433 . S
C1136 C1132 1.350 . S
C1136 C1133 1.463 . S
C1136 N1140 1.427 . S
C1137 H1127 0.929 . S
C1137 C1135 1.433 . S
C1137 N1140 1.384 . S
C1138 H1129 0.929 . S
C1138 C1130 1.378 . S
C1138 C1133 1.350 . S
C1139 H1126 0.929 . S
C1139 C1131 1.433 . S
C1139 N1141 1.384 . S
N1140 C1136 1.427 . S
N1140 C1137 1.384 . S
N1141 C1133 1.427 . S
N1141 C1139 1.384 . S
H1142 C1148 0.930 . S
H1143 C1152 0.930 . S
H1144 C1157 0.929 . S
H1145 C1155 0.929 . S
H1146 C1150 0.929 . S
H1147 C1156 0.929 . S
C1148 H1142 0.930 . S
C1148 C1149 1.367 . S
C1148 C1156 1.378 . S
C1149 C1148 1.367 . S
C1149 C1157 1.433 . S
C1150 H1146 0.929 . S
C1150 C1152 1.378 . S
C1150 C1154 1.350 . S
C1151 C1154 1.463 . S
C1151 C1156 1.350 . S
C1151 N1159 1.427 . S
C1152 H1143 0.930 . S
C1152 C1150 1.378 . S
C1152 C1153 1.367 . S
C1153 C1152 1.367 . S
C1153 C1155 1.433 . S
C1154 C1150 1.350 . S
C1154 C1151 1.463 . S
C1154 N1158 1.427 . S
C1155 H1145 0.929 . S
C1155 C1153 1.433 . S
C1155 N1158 1.384 . S
C1156 H1147 0.929 . S
C1156 C1148 1.378 . S
C1156 C1151 1.350 . S
C1157 H1144 0.929 . S
C1157 C1149 1.433 . S
C1157 N1159 1.384 . S
N1158 C1154 1.427 . S
N1158 C1155 1.384 . S
N1159 C1151 1.427 . S
N1159 C1157 1.384 . S
H1160 C1166 0.930 . S
H1161 C1170 0.930 . S
H1162 C1175 0.929 . S
H1163 C1173 0.929 . S
H1164 C1168 0.929 . S
H1165 C1174 0.929 . S
C1166 H1160 0.930 . S
C1166 C1167 1.367 . S
C1166 C1174 1.378 . S
C1167 C1166 1.367 . S
C1167 C1175 1.433 . S
C1168 H1164 0.929 . S
C1168 C1170 1.378 . S
C1168 C1172 1.350 . S
C1169 C1172 1.463 . S
C1169 C1174 1.350 . S
C1169 N1177 1.427 . S
C1170 H1161 0.930 . S
C1170 C1168 1.378 . S
C1170 C1171 1.367 . S
C1171 C1170 1.367 . S
C1171 C1173 1.433 . S
C1172 C1168 1.350 . S
C1172 C1169 1.463 . S
C1172 N1176 1.427 . S
C1173 H1163 0.929 . S
C1173 C1171 1.433 . S
C1173 N1176 1.384 . S
C1174 H1165 0.929 . S
C1174 C1166 1.378 . S
C1174 C1169 1.350 . S
C1175 H1162 0.929 . S
C1175 C1167 1.433 . S
C1175 N1177 1.384 . S
N1176 C1172 1.427 . S
N1176 C1173 1.384 . S
N1177 C1169 1.427 . S
N1177 C1175 1.384 . S
H1178 C1184 0.930 . S
H1179 C1188 0.930 . S
H1180 C1193 0.929 . S
H1181 C1191 0.929 . S
H1182 C1186 0.929 . S
H1183 C1192 0.929 . S
C1184 H1178 0.930 . S
C1184 C1185 1.367 . S
C1184 C1192 1.378 . S
C1185 C1184 1.367 . S
C1185 C1193 1.433 . S
C1186 H1182 0.929 . S
C1186 C1188 1.378 . S
C1186 C1190 1.350 . S
C1187 C1190 1.463 . S
C1187 C1192 1.350 . S
C1187 N1195 1.427 . S
C1188 H1179 0.930 . S
C1188 C1186 1.378 . S
C1188 C1189 1.367 . S
C1189 C1188 1.367 . S
C1189 C1191 1.433 . S
C1190 C1186 1.350 . S
C1190 C1187 1.463 . S
C1190 N1194 1.427 . S
C1191 H1181 0.929 . S
C1191 C1189 1.433 . S
C1191 N1194 1.384 . S
C1192 H1183 0.929 . S
C1192 C1184 1.378 . S
C1192 C1187 1.350 . S
C1193 H1180 0.929 . S
C1193 C1185 1.433 . S
C1193 N1195 1.384 . S
N1194 C1190 1.427 . S
N1194 C1191 1.384 . S
N1195 C1187 1.427 . S
N1195 C1193 1.384 . S
H1196 C1202 0.930 . S
H1197 C1206 0.930 . S
H1198 C1211 0.929 . S
H1199 C1209 0.929 . S
H1200 C1204 0.929 . S
H1201 C1210 0.929 . S
C1202 H1196 0.930 . S
C1202 C1203 1.367 . S
C1202 C1210 1.378 . S
C1203 C1202 1.367 . S
C1203 C1211 1.433 . S
C1204 H1200 0.929 . S
C1204 C1206 1.378 . S
C1204 C1208 1.350 . S
C1205 C1208 1.463 . S
C1205 C1210 1.350 . S
C1205 N1213 1.427 . S
C1206 H1197 0.930 . S
C1206 C1204 1.378 . S
C1206 C1207 1.367 . S
C1207 C1206 1.367 . S
C1207 C1209 1.433 . S
C1208 C1204 1.350 . S
C1208 C1205 1.463 . S
C1208 N1212 1.427 . S
C1209 H1199 0.929 . S
C1209 C1207 1.433 . S
C1209 N1212 1.384 . S
C1210 H1201 0.929 . S
C1210 C1202 1.378 . S
C1210 C1205 1.350 . S
C1211 H1198 0.929 . S
C1211 C1203 1.433 . S
C1211 N1213 1.384 . S
N1212 C1208 1.427 . S
N1212 C1209 1.384 . S
N1213 C1205 1.427 . S
N1213 C1211 1.384 . S
H1214 C1220 0.930 . S
H1215 C1224 0.930 . S
H1216 C1229 0.929 . S
H1217 C1227 0.929 . S
H1218 C1222 0.929 . S
H1219 C1228 0.929 . S
C1220 H1214 0.930 . S
C1220 C1221 1.367 . S
C1220 C1228 1.378 . S
C1221 C1220 1.367 . S
C1221 C1229 1.433 . S
C1222 H1218 0.929 . S
C1222 C1224 1.378 . S
C1222 C1226 1.350 . S
C1223 C1226 1.463 . S
C1223 C1228 1.350 . S
C1223 N1231 1.427 . S
C1224 H1215 0.930 . S
C1224 C1222 1.378 . S
C1224 C1225 1.367 . S
C1225 C1224 1.367 . S
C1225 C1227 1.433 . S
C1226 C1222 1.350 . S
C1226 C1223 1.463 . S
C1226 N1230 1.427 . S
C1227 H1217 0.929 . S
C1227 C1225 1.433 . S
C1227 N1230 1.384 . S
C1228 H1219 0.929 . S
C1228 C1220 1.378 . S
C1228 C1223 1.350 . S
C1229 H1216 0.929 . S
C1229 C1221 1.433 . S
C1229 N1231 1.384 . S
N1230 C1226 1.427 . S
N1230 C1227 1.384 . S
N1231 C1223 1.427 . S
N1231 C1229 1.384 . S
H1232 C1238 0.930 . S
H1233 C1242 0.930 . S
H1234 C1247 0.929 . S
H1235 C1245 0.929 . S
H1236 C1240 0.929 . S
H1237 C1246 0.929 . S
C1238 H1232 0.930 . S
C1238 C1239 1.367 . S
C1238 C1246 1.378 . S
C1239 C1238 1.367 . S
C1239 C1247 1.433 . S
C1240 H1236 0.929 . S
C1240 C1242 1.378 . S
C1240 C1244 1.350 . S
C1241 C1244 1.463 . S
C1241 C1246 1.350 . S
C1241 N1249 1.427 . S
C1242 H1233 0.930 . S
C1242 C1240 1.378 . S
C1242 C1243 1.367 . S
C1243 C1242 1.367 . S
C1243 C1245 1.433 . S
C1244 C1240 1.350 . S
C1244 C1241 1.463 . S
C1244 N1248 1.427 . S
C1245 H1235 0.929 . S
C1245 C1243 1.433 . S
C1245 N1248 1.384 . S
C1246 H1237 0.929 . S
C1246 C1238 1.378 . S
C1246 C1241 1.350 . S
C1247 H1234 0.929 . S
C1247 C1239 1.433 . S
C1247 N1249 1.384 . S
N1248 C1244 1.427 . S
N1248 C1245 1.384 . S
N1249 C1241 1.427 . S
N1249 C1247 1.384 . S
H1250 C1256 0.930 . S
H1251 C1260 0.930 . S
H1252 C1265 0.929 . S
H1253 C1263 0.929 . S
H1254 C1258 0.929 . S
H1255 C1264 0.929 . S
C1256 H1250 0.930 . S
C1256 C1257 1.367 . S
C1256 C1264 1.378 . S
C1257 C1256 1.367 . S
C1257 C1265 1.433 . S
C1258 H1254 0.929 . S
C1258 C1260 1.378 . S
C1258 C1262 1.350 . S
C1259 C1262 1.463 . S
C1259 C1264 1.350 . S
C1259 N1267 1.427 . S
C1260 H1251 0.930 . S
C1260 C1258 1.378 . S
C1260 C1261 1.367 . S
C1261 C1260 1.367 . S
C1261 C1263 1.433 . S
C1262 C1258 1.350 . S
C1262 C1259 1.463 . S
C1262 N1266 1.427 . S
C1263 H1253 0.929 . S
C1263 C1261 1.433 . S
C1263 N1266 1.384 . S
C1264 H1255 0.929 . S
C1264 C1256 1.378 . S
C1264 C1259 1.350 . S
C1265 H1252 0.929 . S
C1265 C1257 1.433 . S
C1265 N1267 1.384 . S
N1266 C1262 1.427 . S
N1266 C1263 1.384 . S
N1267 C1259 1.427 . S
N1267 C1265 1.384 . S
H1268 C1274 0.930 . S
H1269 C1278 0.930 . S
H1270 C1283 0.929 . S
H1271 C1281 0.929 . S
H1272 C1276 0.929 . S
H1273 C1282 0.929 . S
C1274 H1268 0.930 . S
C1274 C1275 1.367 . S
C1274 C1282 1.378 . S
C1275 C1274 1.367 . S
C1275 C1283 1.433 . S
C1276 H1272 0.929 . S
C1276 C1278 1.378 . S
C1276 C1280 1.350 . S
C1277 C1280 1.463 . S
C1277 C1282 1.350 . S
C1277 N1285 1.427 . S
C1278 H1269 0.930 . S
C1278 C1276 1.378 . S
C1278 C1279 1.367 . S
C1279 C1278 1.367 . S
C1279 C1281 1.433 . S
C1280 C1276 1.350 . S
C1280 C1277 1.463 . S
C1280 N1284 1.427 . S
C1281 H1271 0.929 . S
C1281 C1279 1.433 . S
C1281 N1284 1.384 . S
C1282 H1273 0.929 . S
C1282 C1274 1.378 . S
C1282 C1277 1.350 . S
C1283 H1270 0.929 . S
C1283 C1275 1.433 . S
C1283 N1285 1.384 . S
N1284 C1280 1.427 . S
N1284 C1281 1.384 . S
N1285 C1277 1.427 . S
N1285 C1283 1.384 . S
H1286 C1292 0.930 . S
H1287 C1296 0.930 . S
H1288 C1301 0.929 . S
H1289 C1299 0.929 . S
H1290 C1294 0.929 . S
H1291 C1300 0.929 . S
C1292 H1286 0.930 . S
C1292 C1293 1.367 . S
C1292 C1300 1.378 . S
C1293 C1292 1.367 . S
C1293 C1301 1.433 . S
C1294 H1290 0.929 . S
C1294 C1296 1.378 . S
C1294 C1298 1.350 . S
C1295 C1298 1.463 . S
C1295 C1300 1.350 . S
C1295 N1303 1.427 . S
C1296 H1287 0.930 . S
C1296 C1294 1.378 . S
C1296 C1297 1.367 . S
C1297 C1296 1.367 . S
C1297 C1299 1.433 . S
C1298 C1294 1.350 . S
C1298 C1295 1.463 . S
C1298 N1302 1.427 . S
C1299 H1289 0.929 . S
C1299 C1297 1.433 . S
C1299 N1302 1.384 . S
C1300 H1291 0.929 . S
C1300 C1292 1.378 . S
C1300 C1295 1.350 . S
C1301 H1288 0.929 . S
C1301 C1293 1.433 . S
C1301 N1303 1.384 . S
N1302 C1298 1.427 . S
N1302 C1299 1.384 . S
N1303 C1295 1.427 . S
N1303 C1301 1.384 . S
H1304 C1310 0.930 . S
H1305 C1314 0.930 . S
H1306 C1319 0.929 . S
H1307 C1317 0.929 . S
H1308 C1312 0.929 . S
H1309 C1318 0.929 . S
C1310 H1304 0.930 . S
C1310 C1311 1.367 . S
C1310 C1318 1.378 . S
C1311 C1310 1.367 . S
C1311 C1319 1.433 . S
C1312 H1308 0.929 . S
C1312 C1314 1.378 . S
C1312 C1316 1.350 . S
C1313 C1316 1.463 . S
C1313 C1318 1.350 . S
C1313 N1321 1.427 . S
C1314 H1305 0.930 . S
C1314 C1312 1.378 . S
C1314 C1315 1.367 . S
C1315 C1314 1.367 . S
C1315 C1317 1.433 . S
C1316 C1312 1.350 . S
C1316 C1313 1.463 . S
C1316 N1320 1.427 . S
C1317 H1307 0.929 . S
C1317 C1315 1.433 . S
C1317 N1320 1.384 . S
C1318 H1309 0.929 . S
C1318 C1310 1.378 . S
C1318 C1313 1.350 . S
C1319 H1306 0.929 . S
C1319 C1311 1.433 . S
C1319 N1321 1.384 . S
N1320 C1316 1.427 . S
N1320 C1317 1.384 . S
N1321 C1313 1.427 . S
N1321 C1319 1.384 . S
C469 C283 0.389 . S
C465 C4 0.313 . S
C487 C273 1.722 . S
C483 C63 1.713 . S
C505 C274 0.858 . S
C501 C72 0.847 . S
C519 C102 1.641 . S
C523 C296 1.648 . S
C537 C136 1.713 . S
C541 C299 1.724 . S
C559 C282 0.840 . S
C555 C183 0.851 . S
C573 C233 1.641 . S
C577 C272 1.650 . S
C591 C251 0.287 . S
C595 C290 0.389 . S
C613 C303 1.563 . S
C609 C29 1.594 . S
C627 C42 1.984 . S
C631 C352 1.891 . S
C649 C330 1.698 . S
C645 C97 1.711 . S
C667 C344 0.776 . S
C663 C115 0.794 . S
C681 C149 0.833 . S
C685 C305 0.836 . S
C703 C358 1.617 . S
C699 C187 1.650 . S
C717 C212 1.997 . S
C721 C314 1.881 . S
C735 C255 1.682 . S
C739 C335 1.658 . S
C753 C8 1.680 . S
C757 C361 1.649 . S
C771 C153 1.988 . S
C775 C345 1.895 . S
C793 C304 1.688 . S
C789 C170 1.711 . S
C811 C336 0.777 . S
C807 C208 0.801 . S
C825 C238 1.591 . S
C829 C327 1.565 . S
C843 C76 1.655 . S
C847 C334 1.619 . S
C865 C321 1.891 . S
C861 C119 2.000 . S
C879 C38 0.822 . S
C883 C313 0.807 . S
C897 C242 0.329 . S
C901 C376 0.360 . S
C915 C165 1.719 . S
C919 C366 1.719 . S
C937 C367 0.839 . S
C933 C174 0.846 . S
C955 C389 1.650 . S
C951 C204 1.643 . S
C969 C34 1.712 . S
C973 C392 1.724 . S
C991 C375 0.854 . S
C987 C81 0.852 . S
C1005 C131 1.649 . S
C1009 C365 1.644 . S
C1023 C13 0.327 . S
C1027 C383 0.370 . S
C1041 C267 1.591 . S
C1045 C396 1.564 . S
C1063 C445 1.886 . S
C1059 C144 1.984 . S
C1077 C199 1.713 . S
C1081 C423 1.688 . S
C1095 C217 0.797 . S
C1099 C437 0.777 . S
C1117 C398 0.821 . S
C1113 C47 0.817 . S
C1131 C85 1.652 . S
C1135 C451 1.608 . S
C1153 C407 1.888 . S
C1149 C110 1.997 . S
C1171 C428 1.653 . S
C1167 C17 1.679 . S
C1189 C454 1.656 . S
C1185 C246 1.681 . S
C1203 C51 1.987 . S
C1207 C438 1.888 . S
C1221 C68 1.708 . S
C1225 C397 1.692 . S
C1243 C429 0.804 . S
C1239 C106 0.813 . S
C1257 C0 1.593 . S
C1261 C420 1.566 . S
C1275 C178 1.648 . S
C1279 C427 1.607 . S
C1297 C414 1.892 . S
C1293 C221 2.002 . S
C1315 C406 0.820 . S
C1311 C140 0.814 . S
