# Generated by pormake.
# Topology iac, (4,6)-cn, num edge types: 1
# Building blocks:
#     Node 0, Type 0, BuildingBlock: GALJAG_clean_sbu_0, # of connection points: 4
#     Node 1, Type 0, BuildingBlock: GALJAG_clean_sbu_0, # of connection points: 4
#     Node 2, Type 0, BuildingBlock: GALJAG_clean_sbu_0, # of connection points: 4
#     Node 3, Type 0, BuildingBlock: GALJAG_clean_sbu_0, # of connection points: 4
#     Node 4, Type 0, BuildingBlock: GALJAG_clean_sbu_0, # of connection points: 4
#     Node 5, Type 0, BuildingBlock: GALJAG_clean_sbu_0, # of connection points: 4
#     Node 6, Type 0, BuildingBlock: GALJAG_clean_sbu_0, # of connection points: 4
#     Node 7, Type 0, BuildingBlock: GALJAG_clean_sbu_0, # of connection points: 4
#     Node 8, Type 0, BuildingBlock: GALJAG_clean_sbu_0, # of connection points: 4
#     Node 9, Type 0, BuildingBlock: GALJAG_clean_sbu_0, # of connection points: 4
#     Node 10, Type 0, BuildingBlock: GALJAG_clean_sbu_0, # of connection points: 4
#     Node 11, Type 0, BuildingBlock: GALJAG_clean_sbu_0, # of connection points: 4
#     Node 12, Type 0, BuildingBlock: GALJAG_clean_sbu_0, # of connection points: 4
#     Node 13, Type 0, BuildingBlock: GALJAG_clean_sbu_0, # of connection points: 4
#     Node 14, Type 0, BuildingBlock: GALJAG_clean_sbu_0, # of connection points: 4
#     Node 15, Type 0, BuildingBlock: GALJAG_clean_sbu_0, # of connection points: 4
#     Node 16, Type 0, BuildingBlock: GALJAG_clean_sbu_0, # of connection points: 4
#     Node 17, Type 0, BuildingBlock: GALJAG_clean_sbu_0, # of connection points: 4
#     Node 18, Type 0, BuildingBlock: GALJAG_clean_sbu_0, # of connection points: 4
#     Node 19, Type 0, BuildingBlock: GALJAG_clean_sbu_0, # of connection points: 4
#     Node 20, Type 0, BuildingBlock: GALJAG_clean_sbu_0, # of connection points: 4
#     Node 21, Type 0, BuildingBlock: GALJAG_clean_sbu_0, # of connection points: 4
#     Node 22, Type 0, BuildingBlock: GALJAG_clean_sbu_0, # of connection points: 4
#     Node 23, Type 0, BuildingBlock: GALJAG_clean_sbu_0, # of connection points: 4
#     Node 24, Type 1, BuildingBlock: VOLQOD_clean_sbu_1, # of connection points: 6
#     Node 25, Type 1, BuildingBlock: VOLQOD_clean_sbu_1, # of connection points: 6
#     Node 26, Type 1, BuildingBlock: VOLQOD_clean_sbu_1, # of connection points: 6
#     Node 27, Type 1, BuildingBlock: VOLQOD_clean_sbu_1, # of connection points: 6
#     Node 28, Type 1, BuildingBlock: VOLQOD_clean_sbu_1, # of connection points: 6
#     Node 29, Type 1, BuildingBlock: VOLQOD_clean_sbu_1, # of connection points: 6
#     Node 30, Type 1, BuildingBlock: VOLQOD_clean_sbu_1, # of connection points: 6
#     Node 31, Type 1, BuildingBlock: VOLQOD_clean_sbu_1, # of connection points: 6
#     Node 32, Type 1, BuildingBlock: VOLQOD_clean_sbu_1, # of connection points: 6
#     Node 33, Type 1, BuildingBlock: VOLQOD_clean_sbu_1, # of connection points: 6
#     Node 34, Type 1, BuildingBlock: VOLQOD_clean_sbu_1, # of connection points: 6
#     Node 35, Type 1, BuildingBlock: VOLQOD_clean_sbu_1, # of connection points: 6
#     Node 36, Type 1, BuildingBlock: VOLQOD_clean_sbu_1, # of connection points: 6
#     Node 37, Type 1, BuildingBlock: VOLQOD_clean_sbu_1, # of connection points: 6
#     Node 38, Type 1, BuildingBlock: VOLQOD_clean_sbu_1, # of connection points: 6
#     Node 39, Type 1, BuildingBlock: VOLQOD_clean_sbu_1, # of connection points: 6
#     Edge 40, Type (0, 1), BuildingBlock: XIVTED_clean_linker_0, # of connection points: 2
#     Edge 41, Type (0, 1), BuildingBlock: XIVTED_clean_linker_0, # of connection points: 2
#     Edge 42, Type (0, 1), BuildingBlock: XIVTED_clean_linker_0, # of connection points: 2
#     Edge 43, Type (0, 1), BuildingBlock: XIVTED_clean_linker_0, # of connection points: 2
#     Edge 44, Type (0, 1), BuildingBlock: XIVTED_clean_linker_0, # of connection points: 2
#     Edge 45, Type (0, 1), BuildingBlock: XIVTED_clean_linker_0, # of connection points: 2
#     Edge 46, Type (0, 1), BuildingBlock: XIVTED_clean_linker_0, # of connection points: 2
#     Edge 47, Type (0, 1), BuildingBlock: XIVTED_clean_linker_0, # of connection points: 2
#     Edge 48, Type (0, 1), BuildingBlock: XIVTED_clean_linker_0, # of connection points: 2
#     Edge 49, Type (0, 1), BuildingBlock: XIVTED_clean_linker_0, # of connection points: 2
#     Edge 50, Type (0, 1), BuildingBlock: XIVTED_clean_linker_0, # of connection points: 2
#     Edge 51, Type (0, 1), BuildingBlock: XIVTED_clean_linker_0, # of connection points: 2
#     Edge 52, Type (0, 1), BuildingBlock: XIVTED_clean_linker_0, # of connection points: 2
#     Edge 53, Type (0, 1), BuildingBlock: XIVTED_clean_linker_0, # of connection points: 2
#     Edge 54, Type (0, 1), BuildingBlock: XIVTED_clean_linker_0, # of connection points: 2
#     Edge 55, Type (0, 1), BuildingBlock: XIVTED_clean_linker_0, # of connection points: 2
#     Edge 56, Type (0, 1), BuildingBlock: XIVTED_clean_linker_0, # of connection points: 2
#     Edge 57, Type (0, 1), BuildingBlock: XIVTED_clean_linker_0, # of connection points: 2
#     Edge 58, Type (0, 1), BuildingBlock: XIVTED_clean_linker_0, # of connection points: 2
#     Edge 59, Type (0, 1), BuildingBlock: XIVTED_clean_linker_0, # of connection points: 2
#     Edge 60, Type (0, 1), BuildingBlock: XIVTED_clean_linker_0, # of connection points: 2
#     Edge 61, Type (0, 1), BuildingBlock: XIVTED_clean_linker_0, # of connection points: 2
#     Edge 62, Type (0, 1), BuildingBlock: XIVTED_clean_linker_0, # of connection points: 2
#     Edge 63, Type (0, 1), BuildingBlock: XIVTED_clean_linker_0, # of connection points: 2
#     Edge 64, Type (0, 1), BuildingBlock: XIVTED_clean_linker_0, # of connection points: 2
#     Edge 65, Type (0, 1), BuildingBlock: XIVTED_clean_linker_0, # of connection points: 2
#     Edge 66, Type (0, 1), BuildingBlock: XIVTED_clean_linker_0, # of connection points: 2
#     Edge 67, Type (0, 1), BuildingBlock: XIVTED_clean_linker_0, # of connection points: 2
#     Edge 68, Type (0, 1), BuildingBlock: XIVTED_clean_linker_0, # of connection points: 2
#     Edge 69, Type (0, 1), BuildingBlock: XIVTED_clean_linker_0, # of connection points: 2
#     Edge 70, Type (0, 1), BuildingBlock: XIVTED_clean_linker_0, # of connection points: 2
#     Edge 71, Type (0, 1), BuildingBlock: XIVTED_clean_linker_0, # of connection points: 2
#     Edge 72, Type (0, 1), BuildingBlock: XIVTED_clean_linker_0, # of connection points: 2
#     Edge 73, Type (0, 1), BuildingBlock: XIVTED_clean_linker_0, # of connection points: 2
#     Edge 74, Type (0, 1), BuildingBlock: XIVTED_clean_linker_0, # of connection points: 2
#     Edge 75, Type (0, 1), BuildingBlock: XIVTED_clean_linker_0, # of connection points: 2
#     Edge 76, Type (0, 1), BuildingBlock: XIVTED_clean_linker_0, # of connection points: 2
#     Edge 77, Type (0, 1), BuildingBlock: XIVTED_clean_linker_0, # of connection points: 2
#     Edge 78, Type (0, 1), BuildingBlock: XIVTED_clean_linker_0, # of connection points: 2
#     Edge 79, Type (0, 1), BuildingBlock: XIVTED_clean_linker_0, # of connection points: 2
#     Edge 80, Type (0, 1), BuildingBlock: XIVTED_clean_linker_0, # of connection points: 2
#     Edge 81, Type (0, 1), BuildingBlock: XIVTED_clean_linker_0, # of connection points: 2
#     Edge 82, Type (0, 1), BuildingBlock: XIVTED_clean_linker_0, # of connection points: 2
#     Edge 83, Type (0, 1), BuildingBlock: XIVTED_clean_linker_0, # of connection points: 2
#     Edge 84, Type (0, 1), BuildingBlock: XIVTED_clean_linker_0, # of connection points: 2
#     Edge 85, Type (0, 1), BuildingBlock: XIVTED_clean_linker_0, # of connection points: 2
#     Edge 86, Type (0, 1), BuildingBlock: XIVTED_clean_linker_0, # of connection points: 2
#     Edge 87, Type (0, 1), BuildingBlock: XIVTED_clean_linker_0, # of connection points: 2
#     Edge 88, Type (0, 1), BuildingBlock: XIVTED_clean_linker_0, # of connection points: 2
#     Edge 89, Type (0, 1), BuildingBlock: XIVTED_clean_linker_0, # of connection points: 2
#     Edge 90, Type (0, 1), BuildingBlock: XIVTED_clean_linker_0, # of connection points: 2
#     Edge 91, Type (0, 1), BuildingBlock: XIVTED_clean_linker_0, # of connection points: 2
#     Edge 92, Type (0, 1), BuildingBlock: XIVTED_clean_linker_0, # of connection points: 2
#     Edge 93, Type (0, 1), BuildingBlock: XIVTED_clean_linker_0, # of connection points: 2
#     Edge 94, Type (0, 1), BuildingBlock: XIVTED_clean_linker_0, # of connection points: 2
#     Edge 95, Type (0, 1), BuildingBlock: XIVTED_clean_linker_0, # of connection points: 2
#     Edge 96, Type (0, 1), BuildingBlock: XIVTED_clean_linker_0, # of connection points: 2
#     Edge 97, Type (0, 1), BuildingBlock: XIVTED_clean_linker_0, # of connection points: 2
#     Edge 98, Type (0, 1), BuildingBlock: XIVTED_clean_linker_0, # of connection points: 2
#     Edge 99, Type (0, 1), BuildingBlock: XIVTED_clean_linker_0, # of connection points: 2
#     Edge 100, Type (0, 1), BuildingBlock: XIVTED_clean_linker_0, # of connection points: 2
#     Edge 101, Type (0, 1), BuildingBlock: XIVTED_clean_linker_0, # of connection points: 2
#     Edge 102, Type (0, 1), BuildingBlock: XIVTED_clean_linker_0, # of connection points: 2
#     Edge 103, Type (0, 1), BuildingBlock: XIVTED_clean_linker_0, # of connection points: 2
#     Edge 104, Type (0, 1), BuildingBlock: XIVTED_clean_linker_0, # of connection points: 2
#     Edge 105, Type (0, 1), BuildingBlock: XIVTED_clean_linker_0, # of connection points: 2
#     Edge 106, Type (0, 1), BuildingBlock: XIVTED_clean_linker_0, # of connection points: 2
#     Edge 107, Type (0, 1), BuildingBlock: XIVTED_clean_linker_0, # of connection points: 2
#     Edge 108, Type (0, 1), BuildingBlock: XIVTED_clean_linker_0, # of connection points: 2
#     Edge 109, Type (0, 1), BuildingBlock: XIVTED_clean_linker_0, # of connection points: 2
#     Edge 110, Type (0, 1), BuildingBlock: XIVTED_clean_linker_0, # of connection points: 2
#     Edge 111, Type (0, 1), BuildingBlock: XIVTED_clean_linker_0, # of connection points: 2
#     Edge 112, Type (0, 1), BuildingBlock: XIVTED_clean_linker_0, # of connection points: 2
#     Edge 113, Type (0, 1), BuildingBlock: XIVTED_clean_linker_0, # of connection points: 2
#     Edge 114, Type (0, 1), BuildingBlock: XIVTED_clean_linker_0, # of connection points: 2
#     Edge 115, Type (0, 1), BuildingBlock: XIVTED_clean_linker_0, # of connection points: 2
#     Edge 116, Type (0, 1), BuildingBlock: XIVTED_clean_linker_0, # of connection points: 2
#     Edge 117, Type (0, 1), BuildingBlock: XIVTED_clean_linker_0, # of connection points: 2
#     Edge 118, Type (0, 1), BuildingBlock: XIVTED_clean_linker_0, # of connection points: 2
#     Edge 119, Type (0, 1), BuildingBlock: XIVTED_clean_linker_0, # of connection points: 2
#     Edge 120, Type (0, 1), BuildingBlock: XIVTED_clean_linker_0, # of connection points: 2
#     Edge 121, Type (0, 1), BuildingBlock: XIVTED_clean_linker_0, # of connection points: 2
#     Edge 122, Type (0, 1), BuildingBlock: XIVTED_clean_linker_0, # of connection points: 2
#     Edge 123, Type (0, 1), BuildingBlock: XIVTED_clean_linker_0, # of connection points: 2
#     Edge 124, Type (0, 1), BuildingBlock: XIVTED_clean_linker_0, # of connection points: 2
#     Edge 125, Type (0, 1), BuildingBlock: XIVTED_clean_linker_0, # of connection points: 2
#     Edge 126, Type (0, 1), BuildingBlock: XIVTED_clean_linker_0, # of connection points: 2
#     Edge 127, Type (0, 1), BuildingBlock: XIVTED_clean_linker_0, # of connection points: 2
#     Edge 128, Type (0, 1), BuildingBlock: XIVTED_clean_linker_0, # of connection points: 2
#     Edge 129, Type (0, 1), BuildingBlock: XIVTED_clean_linker_0, # of connection points: 2
#     Edge 130, Type (0, 1), BuildingBlock: XIVTED_clean_linker_0, # of connection points: 2
#     Edge 131, Type (0, 1), BuildingBlock: XIVTED_clean_linker_0, # of connection points: 2
#     Edge 132, Type (0, 1), BuildingBlock: XIVTED_clean_linker_0, # of connection points: 2
#     Edge 133, Type (0, 1), BuildingBlock: XIVTED_clean_linker_0, # of connection points: 2
#     Edge 134, Type (0, 1), BuildingBlock: XIVTED_clean_linker_0, # of connection points: 2
#     Edge 135, Type (0, 1), BuildingBlock: XIVTED_clean_linker_0, # of connection points: 2
# Relax obj value: 0.329
# Max RMSD: 0.288
# Mean RMSD: 0.183
data_MOF--net-iac--node1-GALJAG_clean_sbu_0--node2-VOLQOD_clean_sbu_1--edge1-XIVTED_clean_linker_0
_symmetry_space_group_name_H-M    P1
_symmetry_Int_Tables_number       1
_symmetry_cell_setting            triclinic
loop_
_symmetry_equiv_pos_as_xyz
'x, y, z'
_cell_length_a     55.053195
_cell_length_b     55.120774
_cell_length_c     55.065848
_cell_angle_alpha  90.155945
_cell_angle_beta   90.111324
_cell_angle_gamma 90.570519
loop_
_atom_site_label
_atom_site_type_symbol
_atom_site_fract_x
_atom_site_fract_y
_atom_site_fract_z
_atom_type_partial_charge
In0 In 0.98049 0.24632 0.11357 0.0
O1 O 0.97305 0.21714 0.08505 0.0
O2 O 0.99331 0.20723 0.1163 0.0
C3 C -0.00331 0.2774 0.07967 0.0
C4 C 0.93707 0.24459 0.13597 0.0
C5 C 0.00907 0.26681 0.14729 0.0
O6 O 0.01002 0.26152 0.08917 0.0
O7 O 0.97461 0.2765 0.08598 0.0
O8 O 0.9923 0.27824 0.1368 0.0
O9 O 0.01103 0.24473 0.14125 0.0
C10 C 0.98354 0.20054 0.09663 0.0
O11 O 0.95694 0.24076 0.14652 0.0
O12 O 0.93885 0.24988 0.11373 0.0
In13 In 0.03765 0.71964 0.38662 0.0
O14 O 0.06973 0.71126 0.36188 0.0
O15 O 0.07344 0.74024 0.38715 0.0
C16 C 0.00129 0.70646 0.35637 0.0
C17 C 0.04085 0.68572 0.42137 0.0
C18 C 0.02008 0.76225 0.40209 0.0
O19 O 0.01935 0.71882 0.34937 0.0
O20 O 0.00237 0.69966 0.37818 0.0
O21 O 0.03116 0.74791 0.41595 0.0
O22 O 0.01854 0.75545 0.38026 0.0
C23 C 0.08299 0.72801 0.37042 0.0
O24 O 0.03001 0.70552 0.42427 0.0
O25 O 0.05025 0.6828 0.40067 0.0
In26 In 0.49108 0.77349 0.61777 0.0
O27 O 0.52295 0.78416 0.59398 0.0
O28 O 0.48836 0.79965 0.58628 0.0
C29 C 0.49034 0.72597 0.60674 0.0
C30 C 0.52034 0.79262 0.65153 0.0
C31 C 0.44518 0.77871 0.63348 0.0
O32 O 0.48915 0.74234 0.59091 0.0
O33 O 0.49327 0.73353 0.62818 0.0
O34 O 0.4633 0.77898 0.64741 0.0
O35 O 0.45022 0.77721 0.6112 0.0
C36 C 0.5107 0.79848 0.58111 0.0
O37 O 0.50604 0.8054 0.63911 0.0
O38 O 0.51954 0.77006 0.64722 0.0
In39 In 0.53933 0.25695 0.9024 0.0
O40 O 0.56717 0.23784 0.87879 0.0
O41 O 0.56775 0.27648 0.87988 0.0
C42 C 0.49911 0.24539 0.87676 0.0
C43 C 0.54486 0.2257 0.9394 0.0
C44 C 0.53498 0.30183 0.92095 0.0
O45 O 0.49855 0.25599 0.89703 0.0
O46 O 0.52005 0.23977 0.86962 0.0
O47 O 0.5457 0.28512 0.93218 0.0
O48 O 0.52729 0.2961 0.90012 0.0
C49 C 0.57686 0.25732 0.87143 0.0
O50 O 0.52439 0.23235 0.93178 0.0
O51 O 0.56276 0.23463 0.9282 0.0
In52 In 0.15118 0.03912 0.25418 0.0
O53 O 0.18411 0.0204 0.23858 0.0
O54 O 0.17828 0.01751 0.27657 0.0
C55 C 0.16815 0.08488 0.25658 0.0
C56 C 0.1287 0.01738 0.21676 0.0
C57 C 0.11187 0.03734 0.28268 0.0
O58 O 0.16588 0.07171 0.27516 0.0
O59 O 0.16164 0.07505 0.23686 0.0
O60 O 0.11459 0.05351 0.26667 0.0
O61 O 0.1295 0.02304 0.28508 0.0
C62 C 0.19099 0.01163 0.25847 0.0
O63 O 0.12868 0.00879 0.2379 0.0
O64 O 0.14009 0.03725 0.21425 0.0
In65 In 0.24438 0.8901 0.5216 0.0
O66 O 0.21573 0.90167 0.49401 0.0
O67 O 0.21449 0.91689 0.52951 0.0
C68 C 0.28063 0.91229 0.54611 0.0
C69 C 0.22202 0.85401 0.54573 0.0
C70 C 0.2725 0.87719 0.48409 0.0
O71 O 0.26462 0.92383 0.53469 0.0
O72 O 0.27755 0.88962 0.54628 0.0
O73 O 0.26593 0.86239 0.50029 0.0
O74 O 0.26412 0.89832 0.48631 0.0
C75 C 0.20511 0.91566 0.50864 0.0
O76 O 0.22824 0.85193 0.52381 0.0
O77 O 0.22718 0.87418 0.55544 0.0
In78 In 0.35436 0.97134 0.75554 0.0
O79 O 0.33262 0.99326 0.72863 0.0
O80 O 0.32476 -0.00232 0.7662 0.0
C81 C 0.32781 0.93001 0.75577 0.0
C82 C 0.39167 0.98127 0.72563 0.0
C83 C 0.38016 0.97907 0.79617 0.0
O84 O 0.33487 0.94041 0.77495 0.0
O85 O 0.33499 0.93985 0.73641 0.0
O86 O 0.38449 0.96166 0.78191 0.0
O87 O 0.36207 0.99177 0.79053 0.0
C88 C 0.32045 0.00409 0.74464 0.0
O89 O 0.37935 -0.00269 0.73611 0.0
O90 O 0.38497 0.95966 0.72984 0.0
In91 In 0.25043 0.14162 0.01692 0.0
O92 O 0.27182 0.11162 0.03569 0.0
O93 O 0.29048 0.1346 0.01082 0.0
C94 C 0.21419 0.10873 0.015 0.0
C95 C 0.24436 0.17577 0.05152 0.0
C96 C 0.25239 0.16414 0.9735 0.0
O97 O 0.2342 0.10581 0.00433 0.0
O98 O 0.21249 0.12822 0.02699 0.0
O99 O 0.23788 0.1469 0.97785 0.0
O100 O 0.2662 0.16983 0.99092 0.0
C101 C 0.29155 0.11691 0.02526 0.0
O102 O 0.23171 0.17505 0.03245 0.0
O103 O 0.25934 0.15876 0.05357 0.0
In104 In 0.76822 0.36865 0.04888 0.0
O105 O 0.74088 0.33774 0.0524 0.0
O106 O 0.75847 0.35072 0.08452 0.0
C107 C 0.78441 0.35006 0.00712 0.0
C108 C 0.73407 0.40251 0.04323 0.0
C109 C 0.81001 0.38714 0.06644 0.0
O110 O 0.77702 0.33689 0.02436 0.0
O111 O 0.78323 0.37264 0.0108 0.0
O112 O 0.79112 0.39948 0.06371 0.0
O113 O 0.8075 0.36485 0.06175 0.0
C114 C 0.74297 0.33647 0.07514 0.0
O115 O 0.74151 0.39568 0.0637 0.0
O116 O 0.74383 0.39219 0.0253 0.0
In117 In 0.84778 0.48863 0.25963 0.0
O118 O 0.87575 0.51075 0.23907 0.0
O119 O 0.87389 0.4729 0.2315 0.0
C120 C 0.87706 0.48903 0.2987 0.0
C121 C 0.81555 0.52442 0.25305 0.0
C122 C 0.81719 0.45033 0.26207 0.0
O123 O 0.87433 0.47057 0.28534 0.0
O124 O 0.86464 0.50716 0.2926 0.0
O125 O 0.82483 0.46163 0.28051 0.0
O126 O 0.82516 0.45817 0.24205 0.0
C127 C 0.88434 0.49302 0.22754 0.0
O128 O 0.82172 0.51709 0.27383 0.0
O129 O 0.82551 0.51357 0.23555 0.0
In130 In 0.7127 0.60787 0.52587 0.0
O131 O 0.73622 0.58282 0.54861 0.0
O132 O 0.73609 0.57834 0.5102 0.0
C133 C 0.67129 0.58194 0.52832 0.0
C134 C 0.71959 0.64663 0.555 0.0
C135 C 0.72071 0.63204 0.48442 0.0
O136 O 0.68071 0.58861 0.50859 0.0
O137 O 0.68246 0.58887 0.5472 0.0
O138 O 0.73749 0.62229 0.49644 0.0
O139 O 0.69968 0.62934 0.49313 0.0
C140 C 0.74438 0.57157 0.53041 0.0
O141 O 0.69916 0.64176 0.54566 0.0
O142 O 0.73583 0.6313 0.55073 0.0
In143 In 0.65518 0.53127 0.7401 0.0
O144 O 0.68042 0.50526 0.72008 0.0
O145 O 0.6823 0.50713 0.75869 0.0
C146 C 0.67566 0.57325 0.72489 0.0
C147 C 0.61523 0.51799 0.71501 0.0
C148 C 0.63575 0.53421 0.7848 0.0
O149 O 0.68609 0.559 0.73925 0.0
O150 O 0.65519 0.56599 0.71745 0.0
O151 O 0.64777 0.55144 0.77558 0.0
O152 O 0.63433 0.51538 0.77187 0.0
C153 C 0.69021 0.49772 0.73939 0.0
O154 O 0.63462 0.50596 0.71417 0.0
O155 O 0.6165 0.53721 0.72742 0.0
In156 In 0.97815 0.73215 0.87403 0.0
O157 O -0.00145 0.73693 0.83878 0.0
O158 O 0.00778 0.7066 0.86047 0.0
C159 C 0.93723 0.74302 0.8499 0.0
C160 C 0.96318 0.70264 0.91001 0.0
C161 C 0.00413 0.76866 0.8939 0.0
O162 O 0.94899 0.72392 0.84589 0.0
O163 O 0.94538 0.75601 0.86702 0.0
O164 O 0.0079 0.74677 0.89921 0.0
O165 O 0.98731 0.77203 0.87872 0.0
C166 C 0.01162 0.71853 0.84131 0.0
O167 O 0.96669 0.72506 0.91301 0.0
O168 O 0.96639 0.69515 0.8886 0.0
In169 In 0.02499 0.23165 0.61491 0.0
O170 O 0.01293 0.2497 0.57981 0.0
O171 O 0.01724 0.27172 0.61126 0.0
C172 C 0.02123 0.19172 0.58752 0.0
C173 C 0.07044 0.23194 0.63194 0.0
C174 C 0.99223 0.23627 0.65057 0.0
O175 O 0.03663 0.20827 0.58336 0.0
O176 O 0.00835 0.19482 0.60621 0.0
O177 O 0.01477 0.23744 0.6546 0.0
O178 O 0.98645 0.23089 0.62903 0.0
C179 C 0.01052 0.27027 0.58942 0.0
O180 O 0.055 0.21592 0.63775 0.0
O181 O 0.06303 0.24771 0.61714 0.0
In182 In 0.45994 0.25618 0.39118 0.0
O183 O 0.484 0.2471 0.35899 0.0
O184 O 0.50093 0.25067 0.39351 0.0
C185 C 0.42641 0.27443 0.36102 0.0
C186 C 0.44046 0.21564 0.4108 0.0
C187 C 0.46873 0.29265 0.42241 0.0
O188 O 0.44807 0.27102 0.35453 0.0
O189 O 0.42161 0.26833 0.38257 0.0
O190 O 0.4753 0.27123 0.42659 0.0
O191 O 0.45898 0.29585 0.40196 0.0
C192 C 0.50341 0.24659 0.37113 0.0
O193 O 0.43996 0.23598 0.42109 0.0
O194 O 0.4504 0.2157 0.3902 0.0
In195 In 0.54733 0.78779 0.12316 0.0
O196 O 0.57326 0.76293 0.10313 0.0
O197 O 0.54547 0.74695 0.12496 0.0
C198 C 0.53641 0.80721 0.08019 0.0
C199 C 0.50613 0.80088 0.14454 0.0
C200 C 0.57754 0.79813 0.15981 0.0
O201 O 0.52397 0.7906 0.08991 0.0
O202 O 0.55506 0.81403 0.09203 0.0
O203 O 0.56111 0.78208 0.16085 0.0
O204 O 0.57921 0.80919 0.13971 0.0
C205 C 0.56333 0.74379 0.111 0.0
O206 O 0.52419 0.81509 0.14303 0.0
O207 O 0.5089 0.78005 0.13533 0.0
In208 In 0.91325 0.02337 0.74272 0.0
O209 O 0.93009 0.04086 0.70936 0.0
O210 O 0.94251 0.00599 0.71976 0.0
C211 C 0.93317 0.00861 0.78455 0.0
C212 C 0.89499 0.06471 0.76027 0.0
C213 C 0.87738 -0.002 0.721 0.0
O214 O 0.91344 -9e-05 0.77658 0.0
O215 O 0.94324 0.02407 0.77097 0.0
O216 O 0.87674 0.02074 0.72331 0.0
O217 O 0.89583 0.98803 0.73001 0.0
C218 C 0.94353 0.02305 0.7046 0.0
O219 O 0.88419 0.04451 0.76222 0.0
O220 O 0.915 0.06418 0.74904 0.0
In221 In 0.76754 0.14093 0.51807 0.0
O222 O 0.79026 0.10713 0.52384 0.0
O223 O 0.76924 0.10952 0.49139 0.0
C224 C 0.7204 0.13001 0.52549 0.0
C225 C 0.78048 0.16751 0.55705 0.0
C226 C 0.78522 0.16815 0.48191 0.0
O227 O 0.7276 0.14177 0.50723 0.0
O228 O 0.73691 0.12403 0.54007 0.0
O229 O 0.798 0.15257 0.49263 0.0
O230 O 0.76385 0.17032 0.48986 0.0
C231 C 0.78385 0.09735 0.504 0.0
O232 O 0.76892 0.17607 0.53935 0.0
O233 O 0.78612 0.14546 0.55496 0.0
In234 In 0.61137 0.95255 0.26369 0.0
O235 O 0.65025 0.94015 0.26106 0.0
O236 O 0.62688 0.91949 0.28377 0.0
C237 C 0.63448 -0.00454 0.25871 0.0
C238 C 0.58586 0.94018 0.22336 0.0
C239 C 0.58023 0.96014 0.30028 0.0
O240 O 0.63412 0.98372 0.27833 0.0
O241 O 0.62265 0.98582 0.2415 0.0
O242 O 0.58733 0.93906 0.29483 0.0
O243 O 0.58884 0.97696 0.28731 0.0
C244 C 0.64814 0.92288 0.2758 0.0
O245 O 0.5764 0.95008 0.24156 0.0
O246 O 0.60802 0.93529 0.22592 0.0
In247 In 0.74785 0.85118 0.01147 0.0
O248 O 0.73283 0.88944 0.01217 0.0
O249 O 0.70864 0.86035 0.00312 0.0
C250 C 0.7917 0.86701 0.02626 0.0
C251 C 0.74048 0.82011 0.04832 0.0
C252 C 0.75044 0.83905 0.96441 0.0
O253 O 0.77268 0.87912 0.0298 0.0
O254 O 0.78856 0.84732 0.0149 0.0
O255 O 0.73812 0.82671 0.97936 0.0
O256 O 0.76197 0.85676 0.97347 0.0
C257 C 0.71173 0.88294 0.00572 0.0
O258 O 0.7519 0.81419 0.02943 0.0
O259 O 0.73141 0.84101 0.04773 0.0
In260 In 0.26862 0.65034 0.01596 0.0
O261 O 0.26499 0.68681 0.03548 0.0
O262 O 0.28114 0.65753 0.05452 0.0
C263 C 0.2578 0.66493 0.97059 0.0
C264 C 0.31133 0.62987 0.00497 0.0
C265 C 0.23065 0.62487 0.03322 0.0
O266 O 0.26959 0.67818 0.98524 0.0
O267 O 0.25061 0.64499 0.97922 0.0
O268 O 0.25139 0.61561 0.03066 0.0
O269 O 0.22909 0.64677 0.02675 0.0
C270 C 0.27422 0.67927 0.05504 0.0
O271 O 0.29204 0.61757 0.00724 0.0
O272 O 0.30919 0.65225 0.0091 0.0
In273 In 0.12133 0.46902 0.76054 0.0
O274 O 0.13855 0.4355 0.7438 0.0
O275 O 0.14657 0.44373 0.78068 0.0
C276 C 0.15487 0.49927 0.74172 0.0
C277 C 0.08087 0.47225 0.73361 0.0
C278 C 0.10072 0.47779 0.80365 0.0
O279 O 0.15293 0.49557 0.76424 0.0
O280 O 0.13943 0.48828 0.72872 0.0
O281 O 0.11402 0.49323 0.79302 0.0
O282 O 0.09804 0.45782 0.79261 0.0
C283 C 0.15059 0.43037 0.76259 0.0
O284 O 0.09015 0.45197 0.73872 0.0
O285 O 0.09203 0.49049 0.74209 0.0
In286 In 0.22416 0.34529 0.53401 0.0
O287 O 0.25992 0.32513 0.53446 0.0
O288 O 0.23054 0.30971 0.55426 0.0
C289 C 0.22208 0.34497 0.48532 0.0
C290 C 0.17686 0.35153 0.5456 0.0
C291 C 0.24646 0.3843 0.55335 0.0
O292 O 0.21637 0.32679 0.49803 0.0
O293 O 0.22971 0.36317 0.49716 0.0
O294 O 0.23986 0.38337 0.53135 0.0
O295 O 0.2418 0.36548 0.56562 0.0
C296 C 0.25256 0.30827 0.54804 0.0
O297 O 0.19398 0.36171 0.55695 0.0
O298 O 0.18362 0.33662 0.52973 0.0
In299 In 0.39426 0.52077 0.26854 0.0
O300 O 0.40931 0.53834 0.23486 0.0
O301 O 0.42424 0.50437 0.24505 0.0
C302 C 0.4084 0.50214 0.31152 0.0
C303 C 0.38458 0.56597 0.28361 0.0
C304 C 0.35619 0.49951 0.24592 0.0
O305 O 0.42211 0.51522 0.29865 0.0
O306 O 0.3881 0.49722 0.30204 0.0
O307 O 0.35532 0.52065 0.25461 0.0
O308 O 0.37607 0.48878 0.24917 0.0
C309 C 0.42394 0.52159 0.22996 0.0
O310 O 0.36938 0.54875 0.28509 0.0
O311 O 0.4048 0.56039 0.27449 0.0
O312 O -0.00229 0.02723 0.01752 0.0
Zn313 Zn 0.01399 0.00059 -0.00059 0.0
O314 O 0.01095 0.97005 0.01664 0.0
Zn315 Zn 0.0431 0.95564 0.02093 0.0
Zn316 Zn -0.00517 0.97534 0.04789 0.0
Zn317 Zn 0.99152 0.94843 -0.00288 0.0
O318 O 0.04764 0.92449 0.00191 0.0
O319 O 0.01135 0.92147 0.98438 0.0
O320 O 0.04879 0.0108 -0.00305 0.0
O321 O 0.06922 0.97919 0.01077 0.0
O322 O 0.04946 0.9502 0.05613 0.0
O323 O 0.01749 0.96597 0.07484 0.0
O324 O 0.96381 0.95535 0.05079 0.0
O325 O -0.00041 -0.00114 0.96603 0.0
O326 O 0.96417 0.93457 0.01612 0.0
O327 O 0.97842 0.96447 0.96748 0.0
C328 C 0.98874 0.02913 0.03869 0.0
C329 C 0.03279 0.91386 0.98761 0.0
C330 C 0.03828 0.95603 0.07546 0.0
C331 C 0.06874 0.00055 0.00208 0.0
C332 C 0.9548 0.93925 0.03668 0.0
C333 C 0.98471 0.98379 0.95652 0.0
O334 O 0.98704 0.01089 0.05279 0.0
O335 O 0.28114 0.75623 0.23209 0.0
Zn336 Zn 0.28661 0.76279 0.26733 0.0
O337 O 0.30204 0.79415 0.27202 0.0
Zn338 Zn 0.33518 0.79008 0.2849 0.0
Zn339 Zn 0.30201 0.81175 0.24108 0.0
Zn340 Zn 0.28315 0.81183 0.29527 0.0
O341 O 0.33993 0.80637 0.31768 0.0
O342 O 0.30263 0.81993 0.32434 0.0
O343 O 0.30774 0.7366 0.27995 0.0
O344 O 0.3428 0.75458 0.28946 0.0
O345 O 0.35933 0.80415 0.26142 0.0
O346 O 0.33632 0.81831 0.23146 0.0
O347 O 0.28536 0.84438 0.24361 0.0
O348 O 0.25462 0.75984 0.28438 0.0
O349 O 0.27343 0.84346 0.28203 0.0
O350 O 0.25316 0.79398 0.30562 0.0
C351 C 0.2817 0.76904 0.21292 0.0
C352 C 0.32457 0.81737 0.33083 0.0
C353 C 0.35704 0.81458 0.24093 0.0
C354 C 0.32954 0.7356 0.28751 0.0
C355 C 0.27531 0.85437 0.26185 0.0
C356 C 0.244 0.77361 0.29947 0.0
O357 O 0.288 0.79135 0.21361 0.0
O358 O 0.51021 0.96049 0.51403 0.0
Zn359 Zn 0.48877 0.98797 0.50632 0.0
O360 O 0.50097 0.01641 0.52294 0.0
Zn361 Zn 0.47528 0.03296 0.5402 0.0
Zn362 Zn 0.52622 0.00807 0.54588 0.0
Zn363 Zn 0.51353 0.03761 0.49883 0.0
O364 O 0.46411 0.06341 0.52315 0.0
O365 O 0.48922 0.06271 0.49163 0.0
O366 O 0.45503 0.97948 0.51776 0.0
O367 O 0.44628 0.01097 0.5414 0.0
O368 O 0.48404 0.03815 0.5753 0.0
O369 O 0.5122 0.00982 0.57958 0.0
O370 O 0.55403 0.03206 0.54319 0.0
O371 O 0.49119 0.99054 0.46987 0.0
O372 O 0.54448 0.05306 0.51014 0.0
O373 O 0.51837 0.02049 0.46739 0.0
C374 C 0.52921 0.95711 0.52667 0.0
C375 C 0.47102 0.07144 0.50261 0.0
C376 C 0.49667 0.02422 0.58867 0.0
C377 C 0.44066 0.99055 0.53203 0.0
C378 C 0.55854 0.04895 0.52802 0.0
C379 C 0.50623 0.00326 0.45766 0.0
O380 O 0.5382 0.97384 0.54007 0.0
O381 O 0.28526 0.249 0.80361 0.0
Zn382 Zn 0.29987 0.26251 0.77308 0.0
O383 O 0.29104 0.24285 0.74517 0.0
Zn384 Zn 0.31837 0.22369 0.73341 0.0
Zn385 Zn 0.26398 0.22207 0.7545 0.0
Zn386 Zn 0.28099 0.26423 0.71958 0.0
O387 O 0.32632 0.23109 0.69818 0.0
O388 O 0.30332 0.26325 0.6914 0.0
O389 O 0.33565 0.26102 0.77802 0.0
O390 O 0.34786 0.2305 0.75453 0.0
O391 O 0.30973 0.1881 0.73415 0.0
O392 O 0.27158 0.18769 0.74729 0.0
O393 O 0.23412 0.22941 0.73555 0.0
O394 O 0.28786 0.29692 0.77006 0.0
O395 O 0.24785 0.25484 0.70746 0.0
O396 O 0.27764 0.29808 0.73114 0.0
C397 C 0.26801 0.23402 0.80758 0.0
C398 C 0.31947 0.2484 0.68463 0.0
C399 C 0.29022 0.17673 0.73956 0.0
C400 C 0.35208 0.24656 0.7708 0.0
C401 C 0.23092 0.24178 0.71638 0.0
C402 C 0.27984 0.30835 0.7517 0.0
O403 O 0.25718 0.22319 0.79019 0.0
O404 O 0.97028 0.98986 0.40491 0.0
Zn405 Zn 0.95662 0.97674 0.43671 0.0
O406 O 0.97482 0.99032 0.46415 0.0
Zn407 Zn 0.98603 0.96543 0.48629 0.0
Zn408 Zn 0.00195 0.01 0.45366 0.0
Zn409 Zn 0.95419 0.01147 0.48173 0.0
O410 O 0.97729 0.97184 0.52143 0.0
O411 O 0.95853 0.00689 0.51699 0.0
O412 O 0.96054 0.94046 0.43743 0.0
O413 O 0.97521 0.9327 0.47433 0.0
O414 O 0.02228 0.96482 0.48611 0.0
O415 O 0.03404 -0.00555 0.4614 0.0
O416 O 0.00142 0.0428 0.46941 0.0
O417 O 0.92022 0.98378 0.43932 0.0
O418 O 0.96209 0.0464 0.47666 0.0
O419 O 0.91995 0.00486 0.47383 0.0
C420 C 0.98698 0.0056 0.40101 0.0
C421 C 0.96745 0.99061 0.53048 0.0
C422 C 0.03892 0.97681 0.4754 0.0
C423 C 0.967 0.92553 0.45383 0.0
C424 C 0.98335 0.05556 0.47569 0.0
C425 C 0.90887 -0.00569 0.45648 0.0
O426 O -0.00033 0.01471 0.41813 0.0
O427 O 0.2864 0.72422 0.72903 0.0
Zn428 Zn 0.25573 0.72515 0.74848 0.0
O429 O 0.22843 0.71293 0.72938 0.0
Zn430 Zn 0.20438 0.73826 0.72515 0.0
Zn431 Zn 0.23926 0.70124 0.69755 0.0
Zn432 Zn 0.21428 0.68646 0.7472 0.0
O433 O 0.17266 0.72872 0.74055 0.0
O434 O 0.17846 0.69031 0.75101 0.0
O435 O 0.2512 0.76012 0.75556 0.0
O436 O 0.21645 0.77061 0.73816 0.0
O437 O 0.19767 0.74329 0.68994 0.0
O438 O 0.22036 0.71663 0.67031 0.0
O439 O 0.23709 0.66458 0.69465 0.0
O440 O 0.25933 0.70921 0.78119 0.0
O441 O 0.22147 0.65541 0.73078 0.0
O442 O 0.22758 0.68425 0.78079 0.0
C443 C 0.29046 0.71996 0.70666 0.0
C444 C 0.16473 0.70861 0.74888 0.0
C445 C 0.2048 0.73358 0.67027 0.0
C446 C 0.23551 0.77599 0.75025 0.0
C447 C 0.23016 0.64912 0.71038 0.0
C448 C 0.24564 0.69379 0.79172 0.0
O449 O 0.2739 0.71169 0.69263 0.0
O450 O 0.53587 0.00285 0.05164 0.0
Zn451 Zn 0.53621 0.01618 0.01796 0.0
O452 O 0.50663 0.00598 0.00107 0.0
Zn453 Zn 0.51565 0.98542 0.97399 0.0
Zn454 Zn 0.48394 0.98883 0.02302 0.0
Zn455 Zn 0.49081 0.03402 0.98813 0.0
O456 O 0.50146 -0.00349 0.94273 0.0
O457 O 0.48208 0.03014 0.95275 0.0
O458 O 0.56578 0.00177 0.00275 0.0
O459 O 0.55164 0.9812 0.97105 0.0
O460 O 0.50262 0.95231 0.97948 0.0
O461 O 0.47718 0.95486 0.01058 0.0
O462 O 0.45244 0.00743 0.02863 0.0
O463 O 0.54074 0.05256 0.01837 0.0
O464 O 0.46027 0.03966 0.00577 0.0
O465 O 0.51044 0.06381 0.99418 0.0
C466 C 0.521 0.99007 0.06397 0.0
C467 C 0.4879 0.01416 0.93712 0.0
C468 C 0.48729 0.94261 0.99378 0.0
C469 C 0.56925 0.98827 0.98435 0.0
C470 C 0.44679 0.02834 0.02069 0.0
C471 C 0.52892 0.06883 0.00721 0.0
O472 O 0.5003 0.98376 0.05553 0.0
O473 O 0.16462 0.31514 0.24662 0.0
Zn474 Zn 0.19685 0.3095 0.26188 0.0
O475 O 0.22218 0.32395 0.24202 0.0
Zn476 Zn 0.24633 0.29965 0.23436 0.0
Zn477 Zn 0.20892 0.33675 0.2116 0.0
Zn478 Zn 0.23715 0.34979 0.26081 0.0
O479 O 0.27855 0.30721 0.24942 0.0
O480 O 0.272 0.34216 0.26827 0.0
O481 O 0.2007 0.27352 0.26455 0.0
O482 O 0.23557 0.26671 0.24571 0.0
O483 O 0.25032 0.29566 0.19876 0.0
O484 O 0.21962 0.31616 0.18298 0.0
O485 O 0.22091 0.37134 0.20606 0.0
O486 O 0.19666 0.32293 0.29572 0.0
O487 O 0.23643 0.38061 0.24234 0.0
O488 O 0.22188 0.35438 0.29339 0.0
C489 C 0.15728 0.32542 0.22733 0.0
C490 C 0.28593 0.32476 0.26263 0.0
C491 C 0.23732 0.3016 0.18067 0.0
C492 C 0.21703 0.25908 0.25724 0.0
C493 C 0.23051 0.3865 0.22084 0.0
C494 C 0.20702 0.34131 0.30534 0.0
O495 O 0.17213 0.33515 0.21238 0.0
O496 O 0.53145 0.53089 0.94747 0.0
Zn497 Zn 0.51189 0.52114 0.97681 0.0
O498 O 0.52983 0.52984 0.00614 0.0
Zn499 Zn 0.53435 0.50185 0.02703 0.0
Zn500 Zn 0.56109 0.54475 -0.00186 0.0
Zn501 Zn 0.51135 0.55296 0.02369 0.0
O502 O 0.51612 0.50414 0.05879 0.0
O503 O 0.49655 0.5386 0.0532 0.0
O504 O 0.50734 0.48491 0.97482 0.0
O505 O 0.52335 0.47191 0.00945 0.0
O506 O 0.56971 0.49708 0.03371 0.0
O507 O 0.58784 0.52272 0.00826 0.0
O508 O 0.56722 0.57626 0.01606 0.0
O509 O 0.47942 0.53827 0.97499 0.0
O510 O 0.53239 0.57942 0.03597 0.0
O511 O 0.48484 0.56638 0.00358 0.0
C512 C 0.55142 0.54239 0.94443 0.0
C513 C 0.5009 0.51989 0.06585 0.0
C514 C 0.58876 0.50556 0.02362 0.0
C515 C 0.5132 0.46773 0.98906 0.0
C516 C 0.55381 0.58683 0.03151 0.0
C517 C 0.47279 0.55753 0.98589 0.0
O518 O 0.5642 0.54966 0.96236 0.0
O519 O 0.78026 0.23332 0.24602 0.0
Zn520 Zn 0.75462 0.23999 0.27044 0.0
O521 O 0.72425 0.2247 0.26051 0.0
Zn522 Zn 0.70017 0.24983 0.25482 0.0
Zn523 Zn 0.7288 0.20545 0.23071 0.0
Zn524 Zn 0.7136 0.20382 0.28677 0.0
O525 O 0.67135 0.24516 0.27643 0.0
O526 O 0.68159 0.21466 0.30057 0.0
O527 O 0.75148 0.27578 0.27278 0.0
O528 O 0.71404 0.2836 0.26017 0.0
O529 O 0.68865 0.24895 0.22049 0.0
O530 O 0.70836 0.21842 0.20356 0.0
O531 O 0.71944 0.17018 0.23566 0.0
O532 O 0.76674 0.22866 0.30266 0.0
O533 O 0.70899 0.17016 0.27463 0.0
O534 O 0.73829 0.202 0.31344 0.0
C535 C 0.78162 0.2207 0.22671 0.0
C536 C 0.66667 0.23091 0.29399 0.0
C537 C 0.6934 0.23581 0.20212 0.0
C538 C 0.73476 0.2907 0.2678 0.0
C539 C 0.71188 0.15915 0.25454 0.0
C540 C 0.75832 0.21302 0.31735 0.0
O541 O 0.7635 0.20846 0.21876 0.0
O542 O -0.00416 0.497 0.57384 0.0
Zn543 Zn 0.00034 0.49361 0.53801 0.0
O544 O 0.97097 0.48139 0.52307 0.0
Zn545 Zn 0.97897 0.45557 0.50017 0.0
Zn546 Zn 0.94884 0.46948 0.54802 0.0
Zn547 Zn 0.95652 0.50794 0.50613 0.0
O548 O 0.97232 0.46498 0.46537 0.0
O549 O 0.95612 0.50133 0.47055 0.0
O550 O 0.02697 0.46971 0.53378 0.0
O551 O 0.01356 0.44465 0.50502 0.0
O552 O 0.95962 0.42568 0.50764 0.0
O553 O 0.94386 0.43377 0.54381 0.0
O554 O 0.91604 0.48511 0.54545 0.0
O555 O 0.01065 0.52589 0.5245 0.0
O556 O 0.92202 0.51185 0.51587 0.0
O557 O 0.97518 0.53897 0.51073 0.0
C558 C 0.98085 0.48763 0.58875 0.0
C559 C 0.96276 0.48408 0.45677 0.0
C560 C 0.94805 0.41904 0.5265 0.0
C561 C 0.02992 0.45137 0.52006 0.0
C562 C 0.90827 0.50159 0.53137 0.0
C563 C -0.00258 0.54267 0.51605 0.0
O564 O 0.9625 0.47529 0.58159 0.0
O565 O 0.77602 0.73808 0.33271 0.0
Zn566 Zn 0.79004 0.75991 0.30746 0.0
O567 O 0.77586 0.75285 0.27631 0.0
Zn568 Zn 0.79771 0.73679 0.25426 0.0
Zn569 Zn 0.74594 0.73474 0.28077 0.0
Zn570 Zn 0.77002 0.78442 0.26341 0.0
O571 O 0.79698 0.7516 0.22055 0.0
O572 O 0.7784 0.78607 0.22875 0.0
O573 O 0.82578 0.75359 0.3056 0.0
O574 O 0.83136 0.73667 0.26912 0.0
O575 O 0.78596 0.70272 0.24967 0.0
O576 O 0.74785 0.70247 0.26327 0.0
O577 O 0.71756 0.75494 0.26999 0.0
O578 O 0.78073 0.7941 0.31731 0.0
O579 O 0.73452 0.79126 0.26409 0.0
O580 O 0.78785 0.81025 0.28169 0.0
C581 C 0.75577 0.72684 0.33394 0.0
C582 C 0.7882 0.77174 0.21369 0.0
C583 C 0.76563 0.69199 0.25293 0.0
C584 C 0.83947 0.74378 0.28973 0.0
C585 C 0.71585 0.77752 0.26527 0.0
C586 C 0.78226 0.81279 0.30387 0.0
O587 O 0.7414 0.72569 0.31583 0.0
O588 O 0.78168 0.24536 0.73386 0.0
Zn589 Zn 0.78247 0.25278 0.76931 0.0
O590 O 0.7995 0.28352 0.77428 0.0
Zn591 Zn 0.82953 0.2784 0.79243 0.0
Zn592 Zn 0.80585 0.29968 0.74351 0.0
Zn593 Zn 0.77904 0.30404 0.79293 0.0
O594 O 0.82839 0.29275 0.82619 0.0
O595 O 0.78998 0.30485 0.82724 0.0
O596 O 0.80045 0.22517 0.78438 0.0
O597 O 0.83488 0.2427 0.79652 0.0
O598 O 0.85848 0.29019 0.77371 0.0
O599 O 0.84181 0.30264 0.73921 0.0
O600 O 0.79139 0.33336 0.7419 0.0
O601 O 0.74779 0.25336 0.78118 0.0
O602 O 0.77857 0.33765 0.77987 0.0
O603 O 0.745 0.29177 0.79289 0.0
C604 C 0.78643 0.25719 0.71461 0.0
C605 C 0.81017 0.30097 0.83765 0.0
C606 C 0.86045 0.29844 0.75223 0.0
C607 C 0.82174 0.22383 0.79331 0.0
C608 C 0.78257 0.34633 0.75886 0.0
C609 C 0.73533 0.27112 0.78886 0.0
O610 O 0.79449 0.27893 0.71542 0.0
O611 O 0.68692 0.81242 0.73012 0.0
Zn612 Zn 0.71832 0.79759 0.73933 0.0
O613 O 0.74381 0.81097 0.71942 0.0
Zn614 Zn 0.76461 0.78521 0.70828 0.0
Zn615 Zn 0.73048 0.82724 0.69137 0.0
Zn616 Zn 0.76194 0.8336 0.73887 0.0
O617 O 0.79685 0.78604 0.72516 0.0
O618 O 0.79515 0.82059 0.74583 0.0
O619 O 0.71499 0.76168 0.73417 0.0
O620 O 0.74919 0.75275 0.71498 0.0
O621 O 0.76796 0.78566 0.67209 0.0
O622 O 0.73438 0.80539 0.66225 0.0
O623 O 0.74785 0.85929 0.68571 0.0
O624 O 0.72415 0.80473 0.77464 0.0
O625 O 0.76506 0.86538 0.72194 0.0
O626 O 0.74748 0.83765 0.77183 0.0
C627 C 0.67998 0.82601 0.71287 0.0
C628 C 0.8063 0.80138 0.73978 0.0
C629 C 0.75152 0.791 0.65674 0.0
C630 C 0.72914 0.74629 0.72454 0.0
C631 C 0.75966 0.87258 0.70069 0.0
C632 C 0.73485 0.82288 0.7844 0.0
O633 O 0.69466 0.83322 0.69645 0.0
O634 O 0.45223 0.54735 0.54824 0.0
Zn635 Zn 0.45957 0.51471 0.53488 0.0
O636 O 0.44764 0.48954 0.55642 0.0
Zn637 Zn 0.47399 0.4675 0.56433 0.0
Zn638 Zn 0.43443 0.5035 0.58635 0.0
Zn639 Zn 0.42249 0.47219 0.53905 0.0
O640 O 0.46805 0.43426 0.55066 0.0
O641 O 0.43006 0.43694 0.53745 0.0
O642 O 0.49548 0.5134 0.53221 0.0
O643 O 0.50609 0.48012 0.55197 0.0
O644 O 0.479 0.46553 0.60005 0.0
O645 O 0.45465 0.49354 0.61531 0.0
O646 O 0.39885 0.49403 0.59103 0.0
O647 O 0.44697 0.51163 0.50093 0.0
O648 O 0.39074 0.47665 0.55528 0.0
O649 O 0.41969 0.48208 0.50401 0.0
C650 C 0.4443 0.55476 0.56861 0.0
C651 C 0.44913 0.42465 0.54124 0.0
C652 C 0.47137 0.47793 0.61794 0.0
C653 C 0.51159 0.49884 0.53963 0.0
C654 C 0.38396 0.48462 0.57585 0.0
C655 C 0.43113 0.49767 0.49134 0.0
O656 O 0.4372 0.54001 0.58497 0.0
O657 O 0.02297 0.45322 0.01974 0.0
Zn658 Zn 0.00767 0.4846 0.01191 0.0
O659 O 0.01918 0.50906 0.03438 0.0
Zn660 Zn 0.99161 0.5244 0.04911 0.0
Zn661 Zn 0.0395 0.49472 0.05974 0.0
Zn662 Zn 0.03616 0.53375 0.01671 0.0
O663 O 0.98265 0.5558 0.03323 0.0
O664 O 0.01671 0.56414 0.01334 0.0
O665 O 0.97212 0.47727 0.01651 0.0
O666 O 0.96305 0.50235 0.04666 0.0
O667 O -0.00308 0.52886 0.08464 0.0
O668 O 0.02195 0.49828 0.092 0.0
O669 O 0.07201 0.513 0.06193 0.0
O670 O 0.01685 0.49217 0.97749 0.0
O671 O 0.06669 0.54174 0.03402 0.0
O672 O 0.04327 0.52249 0.98278 0.0
C673 C 0.03621 0.4448 0.03658 0.0
C674 C -0.00458 0.56983 0.02004 0.0
C675 C 0.00691 0.51418 0.09932 0.0
C676 C 0.95744 0.48486 0.03261 0.0
C677 C 0.0791 0.53215 0.0509 0.0
C678 C 0.03289 0.50675 0.9692 0.0
O679 O 0.04423 0.45843 0.05366 0.0
H680 H -0.00247 0.16057 0.1221 0.0
H681 H 0.97801 0.06911 0.01182 0.0
H682 H 0.968 0.18249 0.053 0.0
H683 H 0.98669 0.04506 0.08583 0.0
H684 H 0.97471 0.1108 0.02635 0.0
H685 H -0.00486 0.11819 0.10885 0.0
C686 C 0.99065 0.15645 0.1041 0.0
C687 C 0.98309 0.17502 0.08854 0.0
C688 C 0.97704 0.09639 0.03945 0.0
C689 C 0.9802 0.12669 0.07335 0.0
C690 C 0.9789 0.07258 0.03118 0.0
C691 C 0.98277 0.05362 0.04764 0.0
C692 C 0.97946 0.10136 0.06435 0.0
C693 C 0.98367 0.05914 0.07252 0.0
C694 C 0.98911 0.13227 0.09663 0.0
C695 C 0.97411 0.1687 0.06551 0.0
N696 N 0.98238 0.08258 0.08012 0.0
N697 N 0.97305 0.14506 0.05854 0.0
H698 H 0.11372 0.76396 0.38551 0.0
H699 H 0.21694 0.73293 0.28865 0.0
H700 H 0.1077 0.70484 0.3342 0.0
H701 H 0.21789 0.79648 0.33477 0.0
H702 H 0.17821 0.72067 0.30669 0.0
H703 H 0.15345 0.77429 0.36886 0.0
C704 C 0.12083 0.75309 0.37077 0.0
C705 C 0.10743 0.73357 0.36113 0.0
C706 C 0.18693 0.73728 0.31284 0.0
C707 C 0.15284 0.74534 0.34193 0.0
C708 C 0.20904 0.74429 0.30258 0.0
C709 C 0.22065 0.76581 0.31017 0.0
C710 C 0.17645 0.75184 0.33088 0.0
C711 C 0.20958 0.7798 0.32828 0.0
C712 C 0.1435 0.75903 0.36124 0.0
C713 C 0.11749 0.72007 0.34209 0.0
N714 N 0.18811 0.77256 0.338 0.0
N715 N 0.13963 0.72625 0.33305 0.0
H716 H 0.49143 0.81787 0.54018 0.0
H717 H 0.55791 0.93632 0.56168 0.0
H718 H 0.55561 0.81899 0.58518 0.0
H719 H 0.52246 0.92134 0.4932 0.0
H720 H 0.56283 0.89266 0.56771 0.0
H721 H 0.50647 0.8539 0.51914 0.0
C722 C 0.50902 0.8254 0.54513 0.0
C723 C 0.52221 0.81581 0.5645 0.0
C724 C 0.55468 0.899 0.551 0.0
C725 C 0.53914 0.85733 0.54128 0.0
C726 C 0.55186 0.92391 0.54758 0.0
C727 C 0.53895 0.93232 0.52737 0.0
C728 C 0.54419 0.88267 0.53424 0.0
C729 C 0.53175 0.91551 0.50949 0.0
C730 C 0.51767 0.8459 0.53313 0.0
C731 C 0.54492 0.82605 0.5703 0.0
N732 N 0.53387 0.89143 0.51365 0.0
N733 N 0.55238 0.8468 0.55923 0.0
H734 H 0.45346 0.26006 0.88742 0.0
H735 H 0.39214 0.21787 0.76312 0.0
H736 H 0.49517 0.22463 0.83153 0.0
H737 H 0.36533 0.27561 0.80875 0.0
H738 H 0.42849 0.21574 0.78894 0.0
H739 H 0.41839 0.25999 0.86047 0.0
C740 C 0.45516 0.25202 0.86953 0.0
C741 C 0.47726 0.24249 0.86159 0.0
C742 C 0.41464 0.22894 0.79306 0.0
C743 C 0.43724 0.24258 0.83055 0.0
C744 C 0.39398 0.23025 0.77833 0.0
C745 C 0.37556 0.24685 0.78384 0.0
C746 C 0.41661 0.24411 0.81351 0.0
C747 C 0.37891 0.26243 0.8038 0.0
C748 C 0.43518 0.25216 0.85409 0.0
C749 C 0.47842 0.23224 0.83825 0.0
N750 N 0.39889 0.2605 0.81799 0.0
N751 N 0.45863 0.23261 0.82343 0.0
H752 H 0.0201 0.78006 0.44836 0.0
H753 H 0.95503 0.90317 0.41085 0.0
H754 H -0.00511 0.79557 0.37582 0.0
H755 H 0.98207 0.88839 0.48297 0.0
H756 H 0.96437 0.86162 0.39909 0.0
H757 H 0.00208 0.81786 0.46249 0.0
C758 C 0.01076 0.79145 0.43542 0.0
C759 C 0.00919 0.78488 0.41086 0.0
C760 C 0.96799 0.8674 0.41757 0.0
C761 C 0.98843 0.828 0.42686 0.0
C762 C 0.96257 0.89111 0.42434 0.0
C763 C 0.96816 0.89944 0.44783 0.0
C764 C 0.97916 0.85195 0.43437 0.0
C765 C 0.97773 0.88289 0.46457 0.0
C766 C 0.00039 0.81295 0.4435 0.0
C767 C -0.00331 0.80012 0.39489 0.0
N768 N 0.98322 0.86003 0.45742 0.0
N769 N 0.98689 0.82107 0.40315 0.0
H770 H 0.40404 0.76597 0.6084 0.0
H771 H 0.32975 0.73965 0.73032 0.0
H772 H 0.43041 0.78321 0.68032 0.0
H773 H 0.30416 0.71918 0.65884 0.0
H774 H 0.36598 0.75742 0.712 0.0
H775 H 0.3656 0.75217 0.62611 0.0
C776 C 0.40152 0.76734 0.62786 0.0
C777 C 0.42043 0.77553 0.64297 0.0
C778 C 0.35248 0.74897 0.70032 0.0
C779 C 0.3769 0.75936 0.66334 0.0
C780 C 0.33184 0.73864 0.71079 0.0
C781 C 0.31386 0.72786 0.69612 0.0
C782 C 0.35518 0.74856 0.67497 0.0
C783 C 0.31757 0.72722 0.67089 0.0
C784 C 0.3797 0.75924 0.63798 0.0
C785 C 0.41632 0.77685 0.66805 0.0
N786 N 0.3378 0.73751 0.66111 0.0
N787 N 0.39508 0.7686 0.67748 0.0
H788 H 0.58476 0.19869 0.95082 0.0
H789 H 0.50042 0.10592 0.02045 0.0
H790 H 0.51046 0.21137 0.97167 0.0
H791 H 0.57326 0.08937 -0.00222 0.0
H792 H 0.50871 0.14887 0.01377 0.0
H793 H 0.58549 0.16336 0.97775 0.0
C794 C 0.56879 0.19432 0.96146 0.0
C795 C 0.5473 0.20746 0.95862 0.0
C796 C 0.52314 0.13601 0.01068 0.0
C797 C 0.54799 0.16737 0.9893 0.0
C798 C 0.51839 0.11154 0.01458 0.0
C799 C 0.53611 0.09435 0.00926 0.0
C800 C 0.54548 0.14317 0.00057 0.0
C801 C 0.55916 0.10229 0.0019 0.0
C802 C 0.56921 0.1742 0.97682 0.0
C803 C 0.52721 0.20131 0.97294 0.0
N804 N 0.56304 0.12621 -0.00288 0.0
N805 N 0.52794 0.1815 0.9874 0.0
H806 H 0.02163 0.31468 0.14805 0.0
H807 H 0.12274 0.29778 0.24995 0.0
H808 H 0.03645 0.2464 0.18292 0.0
H809 H 0.1328 0.34647 0.18932 0.0
H810 H 0.08272 0.28681 0.23419 0.0
H811 H 0.05461 0.33364 0.1717 0.0
C812 C 0.03151 0.30383 0.16105 0.0
C813 C 0.02655 0.27895 0.16353 0.0
C814 C 0.09357 0.3002 0.22462 0.0
C815 C 0.06371 0.30047 0.19062 0.0
C816 C 0.11638 0.3066 0.2336 0.0
C817 C 0.13139 0.32276 0.22066 0.0
C818 C 0.08554 0.31027 0.20276 0.0
C819 C 0.12199 0.33367 0.19968 0.0
C820 C 0.0503 0.31462 0.17439 0.0
C821 C 0.03991 0.2656 0.18041 0.0
N822 N 0.09968 0.32704 0.19121 0.0
N823 N 0.05796 0.27655 0.19335 0.0
H824 H 0.13873 0.02064 0.16845 0.0
H825 H 0.0202 0.95983 0.12168 0.0
H826 H 0.09093 0.98547 0.21976 0.0
H827 H 0.08725 0.95316 0.08168 0.0
H828 H 0.04378 0.97063 0.15799 0.0
H829 H 0.11788 -0.00101 0.13537 0.0
C830 C 0.12383 0.00839 0.17268 0.0
C831 C 0.11638 0.00481 0.19668 0.0
C832 C 0.05324 0.96623 0.14135 0.0
C833 C 0.09258 0.9803 0.15929 0.0
C834 C 0.03985 0.96004 0.12068 0.0
C835 C 0.05177 0.95595 0.09857 0.0
C836 C 0.07853 0.96889 0.13957 0.0
C837 C 0.07728 0.95635 0.09829 0.0
C838 C 0.11215 -0.00411 0.15392 0.0
C839 C 0.09713 0.98863 0.20138 0.0
N840 N 0.08982 0.96337 0.11836 0.0
N841 N 0.08558 0.97717 0.18275 0.0
H842 H 0.29039 0.90608 0.44801 0.0
H843 H 0.33666 0.79314 0.372 0.0
H844 H 0.2917 0.83261 0.47484 0.0
H845 H 0.32572 0.86466 0.34293 0.0
H846 H 0.33245 0.8097 0.41318 0.0
H847 H 0.31435 0.89342 0.41301 0.0
C848 C 0.29587 0.88731 0.4466 0.0
C849 C 0.2886 0.87022 0.46398 0.0
C850 C 0.33177 0.82192 0.39783 0.0
C851 C 0.31602 0.85562 0.42409 0.0
C852 C 0.33448 0.81251 0.37442 0.0
C853 C 0.33147 0.82767 0.35433 0.0
C854 C 0.32583 0.84651 0.40084 0.0
C855 C 0.32814 0.85251 0.35815 0.0
C856 C 0.30965 0.88011 0.4267 0.0
C857 C 0.29657 0.84625 0.46155 0.0
N858 N 0.325 0.86113 0.38099 0.0
N859 N 0.30958 0.83956 0.44175 0.0
H860 H 0.42276 0.95102 0.70132 0.0
H861 H 0.47212 0.05622 0.61735 0.0
H862 H 0.40684 0.02662 0.71333 0.0
H863 H 0.50349 0.98476 0.61777 0.0
H864 H 0.45097 0.04656 0.65504 0.0
H865 H 0.45455 0.96312 0.67251 0.0
C866 C 0.42608 0.97013 0.69802 0.0
C867 C 0.41196 0.98783 0.70942 0.0
C868 C 0.46286 0.03314 0.64717 0.0
C869 C 0.44814 0.00179 0.67668 0.0
C870 C 0.475 0.03869 0.62569 0.0
C871 C 0.4893 0.02116 0.61424 0.0
C872 C 0.46464 0.00971 0.65699 0.0
C873 C 0.49253 -0.00121 0.62591 0.0
C874 C 0.44429 0.97704 0.68171 0.0
C875 C 0.41712 0.01235 0.70471 0.0
N876 N 0.47983 0.99349 0.64639 0.0
N877 N 0.43459 0.01859 0.68851 0.0
H878 H 0.28176 0.20197 0.95997 0.0
H879 H 0.23261 0.20255 0.82331 0.0
H880 H 0.22431 0.15495 0.93359 0.0
H881 H 0.29013 0.24974 0.84946 0.0
H882 H 0.22674 0.18762 0.86454 0.0
H883 H 0.28298 0.22196 0.9204 0.0
C884 C 0.26937 0.1959 0.94584 0.0
C885 C 0.25303 0.17669 0.94994 0.0
C886 C 0.24051 0.20139 0.8613 0.0
C887 C 0.25426 0.19946 0.90474 0.0
C888 C 0.24384 0.20999 0.83775 0.0
C889 C 0.26208 0.22725 0.83284 0.0
C890 C 0.25558 0.21003 0.88009 0.0
C891 C 0.27596 0.2363 0.85234 0.0
C892 C 0.27003 0.20734 0.9233 0.0
C893 C 0.2373 0.16961 0.93111 0.0
N894 N 0.27257 0.22741 0.87507 0.0
N895 N 0.23837 0.18093 0.90927 0.0
H896 H 0.07627 0.07053 0.29168 0.0
H897 H -0.00524 0.97416 0.36373 0.0
H898 H 0.0951 -0.00444 0.3027 0.0
H899 H -0.00171 0.04997 0.38297 0.0
H900 H 0.02107 0.98253 0.32875 0.0
H901 H 0.03829 0.06341 0.31419 0.0
C902 C 0.07232 0.0526 0.29873 0.0
C903 C 0.08894 0.03371 0.29586 0.0
C904 C 0.01542 -0.00258 0.34024 0.0
C905 C 0.04554 0.02531 0.32055 0.0
C906 C 0.00021 0.99271 0.35995 0.0
C907 C -0.00532 0.0114 0.37622 0.0
C908 C 0.02476 0.02098 0.33683 0.0
C909 C 0.00242 0.03509 0.37082 0.0
C910 C 0.05068 0.04853 0.31137 0.0
C911 C 0.08295 0.01072 0.30501 0.0
N912 N 0.0174 0.0392 0.35171 0.0
N913 N 0.06172 0.00716 0.31699 0.0
H914 H 0.19548 0.85714 0.58711 0.0
H915 H 0.22228 0.72426 0.62448 0.0
H916 H 0.22398 0.80547 0.53585 0.0
H917 H 0.17165 0.76945 0.66322 0.0
H918 H 0.21873 0.75099 0.58937 0.0
H919 H 0.18255 0.82371 0.61311 0.0
C920 C 0.19872 0.83868 0.58123 0.0
C921 C 0.21111 0.83396 0.55959 0.0
C922 C 0.20794 0.7547 0.60535 0.0
C923 C 0.19676 0.79564 0.58932 0.0
C924 C 0.20993 0.73942 0.62542 0.0
C925 C 0.19783 0.74506 0.64709 0.0
C926 C 0.19399 0.77582 0.60718 0.0
C927 C 0.18185 0.76475 0.64712 0.0
C928 C 0.19122 0.81958 0.59598 0.0
C929 C 0.21462 0.80978 0.55257 0.0
N930 N 0.18084 0.77975 0.62769 0.0
N931 N 0.20795 0.79145 0.56769 0.0
H932 H 0.37506 0.01607 0.82881 0.0
H933 H 0.49868 0.98563 0.89805 0.0
H934 H 0.42241 0.95721 0.80933 0.0
H935 H 0.44907 0.04101 0.92187 0.0
H936 H 0.47342 0.97873 0.86231 0.0
H937 H 0.40363 0.0281 0.8608 0.0
C938 C 0.3914 0.0056 0.83138 0.0
C939 C 0.39633 0.98551 0.81656 0.0
C940 C 0.46817 0.99257 0.87521 0.0
C941 C 0.4292 -0.00064 0.85279 0.0
C942 C 0.48267 -0.00337 0.89558 0.0
C943 C 0.47579 0.01369 0.91317 0.0
C944 C 0.44656 0.00556 0.87244 0.0
C945 C 0.45499 0.02757 0.90885 0.0
C946 C 0.40776 0.01256 0.84953 0.0
C947 C 0.41783 0.9727 0.82049 0.0
N948 N 0.44091 0.02297 0.88905 0.0
N949 N 0.43348 0.97985 0.83825 0.0
H950 H 0.21209 0.21331 0.05262 0.0
H951 H 0.27689 0.27553 0.16727 0.0
H952 H 0.27427 0.18428 0.09007 0.0
H953 H 0.20589 0.29666 0.14202 0.0
H954 H 0.2794 0.24669 0.1339 0.0
H955 H 0.21197 0.24756 0.08118 0.0
C956 C 0.22564 0.21411 0.0669 0.0
C957 C 0.24313 0.19589 0.06913 0.0
C958 C 0.26334 0.25777 0.13548 0.0
C959 C 0.24334 0.23505 0.10142 0.0
C960 C 0.26195 0.27438 0.15447 0.0
C961 C 0.24098 0.28829 0.15766 0.0
C962 C 0.24361 0.25493 0.11954 0.0
C963 C 0.22234 0.28622 0.1403 0.0
C964 C 0.22561 0.23367 0.08309 0.0
C965 C 0.26036 0.19784 0.08781 0.0
N966 N 0.22396 0.26956 0.12211 0.0
N967 N 0.26004 0.21709 0.10319 0.0
H968 H 0.21578 0.06292 -0.00373 0.0
H969 H 0.11549 0.98414 0.00559 0.0
H970 H 0.16677 0.11491 0.02767 0.0
H971 H 0.07386 0.04943 -0.00422 0.0
H972 H 0.15252 0.00889 0.00794 0.0
H973 H 0.18164 0.0347 0.99063 0.0
C974 C 0.19785 0.06828 0.00217 0.0
C975 C 0.19404 0.09117 0.01261 0.0
C976 C 0.13534 0.01772 0.00474 0.0
C977 C 0.15509 0.05907 0.00631 0.0
C978 C 0.11418 0.00362 0.00352 0.0
C979 C 0.09155 0.01473 0.00043 0.0
C980 C 0.13375 0.04307 0.00308 0.0
C981 C 0.09091 0.04007 -0.00197 0.0
C982 C 0.17844 0.05212 -0.00092 0.0
C983 C 0.17048 0.09734 0.01975 0.0
N984 N 0.11168 0.0534 -0.00026 0.0
N985 N 0.15182 0.08142 0.01629 0.0
H986 H 0.71909 0.42541 0.00193 0.0
H987 H 0.60101 0.47801 0.06276 0.0
H988 H 0.70558 0.4207 0.07898 0.0
H989 H 0.62961 0.50662 -0.00441 0.0
H990 H 0.63859 0.45559 0.06856 0.0
H991 H 0.68549 0.45402 -0.00167 0.0
C992 C 0.70912 0.43051 0.01806 0.0
C993 C 0.7149 0.42063 0.04074 0.0
C994 C 0.63674 0.46701 0.0527 0.0
C995 C 0.67665 0.45299 0.03677 0.0
C996 C 0.61529 0.47972 0.04935 0.0
C997 C 0.61219 0.49403 0.0286 0.0
C998 C 0.65496 0.46829 0.03495 0.0
C999 C 0.63131 0.49577 0.01185 0.0
C1000 C 0.69009 0.44688 0.01603 0.0
C1001 C 0.7016 0.42787 0.06114 0.0
N1002 N 0.65181 0.48274 0.01522 0.0
N1003 N 0.68288 0.44345 0.05864 0.0
H1004 H 0.80456 0.42627 0.30323 0.0
H1005 H 0.72089 0.32699 0.2371 0.0
H1006 H 0.79241 0.42645 0.22576 0.0
H1007 H 0.76261 0.3131 0.30188 0.0
H1008 H 0.73729 0.36871 0.23657 0.0
H1009 H 0.77939 0.38971 0.30647 0.0
C1010 C 0.79642 0.41872 0.28692 0.0
C1011 C 0.8008 0.42917 0.26413 0.0
C1012 C 0.74247 0.35657 0.25107 0.0
C1013 C 0.77183 0.38757 0.26781 0.0
C1014 C 0.73301 0.33294 0.2515 0.0
C1015 C 0.7406 0.31671 0.26949 0.0
C1016 C 0.75914 0.36392 0.26903 0.0
C1017 C 0.7565 0.32509 0.28762 0.0
C1018 C 0.78209 0.39788 0.2888 0.0
C1019 C 0.78969 0.41873 0.24362 0.0
N1020 N 0.7653 0.34812 0.2869 0.0
N1021 N 0.77572 0.39838 0.24592 0.0
H1022 H 0.76866 0.55677 0.5712 0.0
H1023 H 0.88196 0.51977 0.49415 0.0
H1024 H 0.76631 0.54777 0.49333 0.0
H1025 H 0.87582 0.49772 0.56908 0.0
H1026 H 0.83941 0.53108 0.4944 0.0
H1027 H 0.80722 0.53487 0.57208 0.0
C1028 C 0.776 0.54975 0.55438 0.0
C1029 C 0.76458 0.55441 0.5321 0.0
C1030 C 0.84726 0.52358 0.51076 0.0
C1031 C 0.80851 0.52986 0.53297 0.0
C1032 C 0.87162 0.51736 0.5107 0.0
C1033 C 0.88243 0.50806 0.53171 0.0
C1034 C 0.83365 0.52095 0.53211 0.0
C1035 C 0.8681 0.50495 0.55254 0.0
C1036 C 0.79796 0.53729 0.55491 0.0
C1037 C 0.77472 0.54486 0.51086 0.0
N1038 N 0.84441 0.51173 0.55235 0.0
N1039 N 0.79634 0.5334 0.51177 0.0
H1040 H 0.18697 0.11176 0.21961 0.0
H1041 H 0.18835 0.23585 0.29057 0.0
H1042 H 0.17097 0.1146 0.29624 0.0
H1043 H 0.23666 0.22252 0.23043 0.0
H1044 H 0.17874 0.19238 0.29203 0.0
H1045 H 0.202 0.15366 0.22171 0.0
C1046 C 0.18665 0.12124 0.23687 0.0
C1047 C 0.17768 0.10986 0.25777 0.0
C1048 C 0.19167 0.199 0.27874 0.0
C1049 C 0.19457 0.15761 0.26025 0.0
C1050 C 0.1971 0.22374 0.27785 0.0
C1051 C 0.21324 0.23276 0.26029 0.0
C1052 C 0.20202 0.18335 0.26159 0.0
C1053 C 0.22416 0.21631 0.24429 0.0
C1054 C 0.19535 0.14503 0.23809 0.0
C1055 C 0.17778 0.12281 0.27973 0.0
N1056 N 0.21806 0.1924 0.24508 0.0
N1057 N 0.18584 0.14618 0.28036 0.0
H1058 H 0.32302 0.89002 0.5578 0.0
H1059 H 0.40094 0.0126 0.55151 0.0
H1060 H 0.29072 0.96068 0.55065 0.0
H1061 H 0.42728 0.94278 0.52819 0.0
H1062 H 0.36213 0.99354 0.5623 0.0
H1063 H 0.36318 0.90932 0.55946 0.0
C1064 C 0.32433 0.90964 0.55728 0.0
C1065 C 0.30362 0.92382 0.55371 0.0
C1066 C 0.3765 0.98243 0.55496 0.0
C1067 C 0.34931 0.94581 0.55537 0.0
C1068 C 0.3986 0.99325 0.54874 0.0
C1069 C 0.41722 0.97927 0.53862 0.0
C1070 C 0.37318 0.95743 0.55137 0.0
C1071 C 0.41326 0.95427 0.53558 0.0
C1072 C 0.34724 0.92058 0.558 0.0
C1073 C 0.30631 0.94913 0.55314 0.0
N1074 N 0.39163 0.94413 0.54192 0.0
N1075 N 0.32883 0.95936 0.55366 0.0
H1076 H 0.78706 0.54671 0.28676 0.0
H1077 H 0.78801 0.66826 0.216 0.0
H1078 H 0.80877 0.55054 0.21161 0.0
H1079 H 0.74022 0.65666 0.27693 0.0
H1080 H 0.79273 0.62444 0.21204 0.0
H1081 H 0.76674 0.5857 0.2824 0.0
C1082 C 0.78719 0.55559 0.26924 0.0
C1083 C 0.79992 0.54566 0.24962 0.0
C1084 C 0.78075 0.6314 0.22593 0.0
C1085 C 0.77703 0.59028 0.24458 0.0
C1086 C 0.77809 0.6564 0.2282 0.0
C1087 C 0.76395 0.66599 0.24698 0.0
C1088 C 0.76974 0.61597 0.243 0.0
C1089 C 0.75135 0.64992 0.26224 0.0
C1090 C 0.7755 0.57778 0.26672 0.0
C1091 C 0.79935 0.55774 0.22725 0.0
N1092 N 0.75501 0.62564 0.2603 0.0
N1093 N 0.78853 0.5797 0.22546 0.0
H1094 H 0.70568 0.46895 0.70174 0.0
H1095 H 0.77785 0.38261 0.79188 0.0
H1096 H 0.71662 0.48286 0.77816 0.0
H1097 H 0.77031 0.36731 0.71532 0.0
H1098 H 0.76006 0.42224 0.78547 0.0
H1099 H 0.73338 0.43443 0.70459 0.0
C1100 C 0.71414 0.46491 0.71902 0.0
C1101 C 0.70865 0.47853 0.73982 0.0
C1102 C 0.76247 0.4104 0.76995 0.0
C1103 C 0.74018 0.43929 0.74322 0.0
C1104 C 0.77264 0.38773 0.77363 0.0
C1105 C 0.77524 0.37155 0.75415 0.0
C1106 C 0.75444 0.4169 0.74667 0.0
C1107 C 0.76851 0.37925 0.73084 0.0
C1108 C 0.72991 0.44524 0.72064 0.0
C1109 C 0.72011 0.47264 0.76173 0.0
N1110 N 0.75803 0.4013 0.72778 0.0
N1111 N 0.73516 0.45338 0.76288 0.0
H1112 H 0.03086 0.76823 0.93594 0.0
H1113 H 0.0352 0.91253 0.93902 0.0
H1114 H 0.00689 0.81528 0.87837 0.0
H1115 H 0.04609 0.86856 0.00258 0.0
H1116 H 0.03696 0.87624 0.91369 0.0
H1117 H 0.04734 0.80377 0.95762 0.0
C1118 C 0.02947 0.78598 0.92769 0.0
C1119 C 0.01716 0.789 0.90558 0.0
C1120 C 0.03948 0.87446 0.93311 0.0
C1121 C 0.036 0.8294 0.93002 0.0
C1122 C 0.03864 0.89517 0.9475 0.0
C1123 C 0.04043 0.89329 0.97276 0.0
C1124 C 0.04148 0.85165 0.94417 0.0
C1125 C 0.04473 0.87055 0.98307 0.0
C1126 C 0.03884 0.8062 0.94005 0.0
C1127 C 0.0159 0.81227 0.89559 0.0
N1128 N 0.04463 0.8504 0.96872 0.0
N1129 N 0.02501 0.83159 0.90798 0.0
H1130 H -0.00165 0.24557 0.69921 0.0
H1131 H 0.87176 0.31377 0.70647 0.0
H1132 H 0.94578 0.24896 0.64107 0.0
H1133 H 0.90351 0.28096 0.7701 0.0
H1134 H 0.90652 0.3006 0.68275 0.0
H1135 H 0.96943 0.26641 0.72598 0.0
C1136 C 0.98066 0.25043 0.69221 0.0
C1137 C 0.97429 0.24537 0.66801 0.0
C1138 C 0.90602 0.29665 0.70201 0.0
C1139 C 0.94194 0.26989 0.69795 0.0
C1140 C 0.8863 0.30434 0.71563 0.0
C1141 C 0.88436 0.29785 0.74017 0.0
C1142 C 0.92397 0.28252 0.71302 0.0
C1143 C 0.90404 0.28598 0.75112 0.0
C1144 C 0.96436 0.26246 0.70737 0.0
C1145 C 0.95132 0.25227 0.65967 0.0
N1146 N 0.92292 0.27827 0.73733 0.0
N1147 N 0.93606 0.26435 0.67457 0.0
H1148 H 0.42568 0.21077 0.45785 0.0
H1149 H 0.46083 0.07233 0.45486 0.0
H1150 H 0.43991 0.16951 0.39278 0.0
H1151 H 0.44911 0.1121 0.52128 0.0
H1152 H 0.4429 0.10526 0.43199 0.0
H1153 H 0.42378 0.173 0.48095 0.0
C1154 C 0.42783 0.1937 0.44832 0.0
C1155 C 0.43357 0.1932 0.4235 0.0
C1156 C 0.44392 0.10681 0.45158 0.0
C1157 C 0.43159 0.15013 0.44978 0.0
C1158 C 0.45425 0.08805 0.46462 0.0
C1159 C 0.45695 0.08992 0.48985 0.0
C1160 C 0.43676 0.12792 0.46378 0.0
C1161 C 0.4476 0.11026 0.50176 0.0
C1162 C 0.42679 0.17218 0.46154 0.0
C1163 C 0.43592 0.17069 0.41199 0.0
N1164 N 0.43836 0.12884 0.48851 0.0
N1165 N 0.43531 0.15006 0.42532 0.0
H1166 H 0.57386 0.77883 0.20491 0.0
H1167 H 0.70709 0.82101 0.24314 0.0
H1168 H 0.61875 0.82667 0.16175 0.0
H1169 H 0.67085 0.75636 0.2694 0.0
H1170 H 0.66975 0.8325 0.22228 0.0
H1171 H 0.60427 0.78023 0.23706 0.0
C1172 C 0.59002 0.7899 0.20232 0.0
C1173 C 0.59414 0.8022 0.18042 0.0
C1174 C 0.66991 0.81606 0.233 0.0
C1175 C 0.62892 0.80384 0.21717 0.0
C1176 C 0.69115 0.80948 0.245 0.0
C1177 C 0.69224 0.78732 0.25752 0.0
C1178 C 0.64965 0.80049 0.23378 0.0
C1179 C 0.67096 0.77332 0.25953 0.0
C1180 C 0.60732 0.7907 0.22071 0.0
C1181 C 0.61511 0.81663 0.17823 0.0
N1182 N 0.6506 0.77999 0.24747 0.0
N1183 N 0.63199 0.81676 0.19629 0.0
H1184 H 0.04952 0.17816 0.54931 0.0
H1185 H 0.9505 0.08429 0.49889 0.0
H1186 H 0.98222 0.16104 0.58585 0.0
H1187 H 0.02607 0.08146 0.47805 0.0
H1188 H 0.95979 0.11902 0.5248 0.0
H1189 H 0.03951 0.14774 0.51826 0.0
C1190 C 0.03274 0.16785 0.55087 0.0
C1191 C 0.0167 0.17193 0.57018 0.0
C1192 C 0.97426 0.11094 0.51434 0.0
C1193 C 0.00497 0.13778 0.53462 0.0
C1194 C 0.96896 0.09125 0.49935 0.0
C1195 C 0.98764 0.07968 0.48658 0.0
C1196 C -0.00167 0.11922 0.51644 0.0
C1197 C 0.01118 0.08964 0.48781 0.0
C1198 C 0.02702 0.15064 0.53313 0.0
C1199 C -0.00484 0.15826 0.57135 0.0
N1200 N 0.01593 0.10875 0.50274 0.0
N1201 N 0.98984 0.14185 0.5537 0.0
H1202 H 0.51411 0.24674 0.32291 0.0
H1203 H 0.65356 0.21321 0.33868 0.0
H1204 H 0.54676 0.23756 0.39358 0.0
H1205 H 0.62571 0.25248 0.27701 0.0
H1206 H 0.6135 0.21591 0.35792 0.0
H1207 H 0.55409 0.2422 0.30433 0.0
C1208 C 0.52969 0.24361 0.3345 0.0
C1209 C 0.52722 0.24262 0.3598 0.0
C1210 C 0.61628 0.22395 0.34021 0.0
C1211 C 0.57286 0.23735 0.3387 0.0
C1212 C 0.63905 0.22238 0.32921 0.0
C1213 C 0.64296 0.23271 0.30626 0.0
C1214 C 0.59729 0.23551 0.32792 0.0
C1215 C 0.62356 0.24441 0.29479 0.0
C1216 C 0.55248 0.24115 0.3239 0.0
C1217 C 0.54798 0.23856 0.37399 0.0
N1218 N 0.60152 0.24536 0.30568 0.0
N1219 N 0.57 0.236 0.36322 0.0
H1220 H 0.56253 0.83571 0.04895 0.0
H1221 H 0.51298 0.91037 0.96629 0.0
H1222 H 0.49049 0.8072 0.06222 0.0
H1223 H 0.45928 0.91358 0.02331 0.0
H1224 H 0.52303 0.86932 0.97898 0.0
H1225 H 0.54583 0.86161 0.01711 0.0
C1226 C 0.54332 0.83452 0.04473 0.0
C1227 C 0.5278 0.81962 0.0583 0.0
C1228 C 0.50859 0.87884 0.9882 0.0
C1229 C 0.50862 0.84903 0.02224 0.0
C1230 C 0.50267 0.90222 0.98095 0.0
C1231 C 0.48603 0.91586 -0.00544 0.0
C1232 C 0.49754 0.86911 0.00892 0.0
C1233 C 0.47282 0.90403 0.01286 0.0
C1234 C 0.53383 0.84905 0.02642 0.0
C1235 C 0.50303 0.81862 0.05218 0.0
N1236 N 0.47928 0.88141 0.01993 0.0
N1237 N 0.49403 0.83374 0.03507 0.0
H1238 H 0.91798 0.71903 0.81084 0.0
H1239 H 0.83035 0.82799 0.77454 0.0
H1240 H 0.9122 0.7855 0.85194 0.0
H1241 H 0.8332 0.76002 0.73543 0.0
H1242 H 0.86283 0.81402 0.80101 0.0
H1243 H 0.88824 0.73442 0.78189 0.0
C1244 C 0.91025 0.73677 0.81389 0.0
C1245 C 0.91745 0.75099 0.83384 0.0
C1246 C 0.85649 0.80224 0.78651 0.0
C1247 C 0.88375 0.76887 0.80064 0.0
C1248 C 0.83804 0.81027 0.77125 0.0
C1249 C 0.82883 0.79506 0.75285 0.0
C1250 C 0.86579 0.77882 0.78339 0.0
C1251 C 0.8396 0.77232 0.74945 0.0
C1252 C 0.89341 0.74561 0.79728 0.0
C1253 C 0.90704 0.77391 0.83685 0.0
N1254 N 0.85736 0.7648 0.76474 0.0
N1255 N 0.89073 0.78217 0.82038 0.0
H1256 H 0.97244 0.02884 0.80733 0.0
H1257 H 0.95028 0.9576 0.93156 0.0
H1258 H 0.91456 0.97643 0.81739 0.0
H1259 H -0.00054 0.01874 0.92443 0.0
H1260 H 0.93848 0.96248 0.88915 0.0
H1261 H 0.98488 0.02284 0.84943 0.0
C1262 C 0.96251 0.01587 0.81835 0.0
C1263 C 0.94242 0.00314 0.80896 0.0
C1264 C 0.95177 0.97488 0.89691 0.0
C1265 C 0.95636 -0.00362 0.85711 0.0
C1266 C 0.9585 0.97215 0.92113 0.0
C1267 C 0.97593 0.98778 0.93155 0.0
C1268 C 0.96267 0.99326 0.88298 0.0
C1269 C 0.98593 0.0063 0.91717 0.0
C1270 C 0.96952 0.01258 0.84241 0.0
C1271 C 0.93015 0.98662 0.82399 0.0
N1272 N 0.97923 0.00845 0.89356 0.0
N1273 N 0.93728 0.98376 0.8474 0.0
H1274 H 0.77642 0.21638 0.56301 0.0
H1275 H 0.78019 0.20863 0.70682 0.0
H1276 H 0.79347 0.15075 0.60178 0.0
H1277 H 0.78961 0.27651 0.66875 0.0
H1278 H 0.781 0.18722 0.66812 0.0
H1279 H 0.77843 0.23898 0.60127 0.0
C1280 C 0.78085 0.20679 0.57956 0.0
C1281 C 0.7847 0.18168 0.57934 0.0
C1282 C 0.7829 0.2068 0.66824 0.0
C1283 C 0.78658 0.20725 0.62303 0.0
C1284 C 0.78221 0.2191 0.69031 0.0
C1285 C 0.78481 0.24445 0.69104 0.0
C1286 C 0.78592 0.21992 0.64667 0.0
C1287 C 0.78755 0.25696 0.66903 0.0
C1288 C 0.78197 0.21968 0.60134 0.0
C1289 C 0.79041 0.17011 0.60121 0.0
N1290 N 0.78796 0.24455 0.64767 0.0
N1291 N 0.7909 0.18297 0.62226 0.0
H1292 H 0.56051 0.92808 0.33307 0.0
H1293 H 0.52218 0.03377 0.42238 0.0
H1294 H 0.5633 0.00405 0.31437 0.0
H1295 H 0.50154 0.95913 0.43496 0.0
H1296 H 0.53541 0.02289 0.38168 0.0
H1297 H 0.53708 0.93835 0.36949 0.0
C1298 C 0.55596 0.94685 0.3365 0.0
C1299 C 0.56409 0.96529 0.32092 0.0
C1300 C 0.52771 0.00888 0.39316 0.0
C1301 C 0.53754 0.97713 0.36233 0.0
C1302 C 0.52021 0.0151 0.41642 0.0
C1303 C 0.51099 -0.00274 0.43206 0.0
C1304 C 0.52644 0.98455 0.3856 0.0
C1305 C 0.50859 0.9734 0.42339 0.0
C1306 C 0.54257 0.95269 0.35721 0.0
C1307 C 0.55763 0.98929 0.32606 0.0
N1308 N 0.51667 0.96761 0.4008 0.0
N1309 N 0.54497 -0.00547 0.34644 0.0
H1310 H 0.71775 0.82965 0.09094 0.0
H1311 H 0.79505 0.74164 0.17409 0.0
H1312 H 0.76883 0.78064 0.05802 0.0
H1313 H 0.77317 0.8141 0.19399 0.0
H1314 H 0.7807 0.7493 0.13242 0.0
H1315 H 0.73015 0.81534 0.13086 0.0
C1316 C 0.73116 0.81544 0.09209 0.0
C1317 C 0.74261 0.80662 0.07123 0.0
C1318 C 0.77931 0.76345 0.14602 0.0
C1319 C 0.75721 0.79058 0.11677 0.0
C1320 C 0.7877 0.75924 0.16965 0.0
C1321 C 0.7851 0.77718 0.18763 0.0
C1322 C 0.76797 0.7855 0.14071 0.0
C1323 C 0.77531 0.7996 0.18089 0.0
C1324 C 0.73842 0.80749 0.11486 0.0
C1325 C 0.75973 0.78804 0.07375 0.0
N1326 N 0.76682 0.80296 0.15811 0.0
N1327 N 0.76685 0.78081 0.09625 0.0
H1328 H 0.9495 0.05737 0.66957 0.0
H1329 H 0.98083 0.95947 0.56727 0.0
H1330 H 0.96436 0.98238 0.68572 0.0
H1331 H 0.95588 0.03232 0.55391 0.0
H1332 H 0.98181 0.96864 0.61096 0.0
H1333 H 0.96053 0.05004 0.62737 0.0
C1334 C 0.95556 0.03947 0.66431 0.0
C1335 C 0.95563 0.02036 0.68098 0.0
C1336 C 0.97625 0.98257 0.59835 0.0
C1337 C 0.96767 0.01163 0.63267 0.0
C1338 C 0.97556 0.97732 0.57348 0.0
C1339 C 0.9679 -0.00499 0.55694 0.0
C1340 C 0.96944 0.00571 0.60654 0.0
C1341 C 0.96154 0.01793 0.56594 0.0
C1342 C 0.9617 0.03522 0.64018 0.0
C1343 C 0.96384 -0.00244 0.6733 0.0
N1344 N 0.9624 0.02256 0.59007 0.0
N1345 N 0.96913 0.99368 0.64953 0.0
H1346 H 0.81741 0.15107 0.44871 0.0
H1347 H 0.76758 0.1689 0.3366 0.0
H1348 H 0.76944 0.2108 0.46315 0.0
H1349 H 0.77863 0.24551 0.34889 0.0
H1350 H 0.78513 0.16068 0.37659 0.0
H1351 H 0.82024 0.16414 0.40623 0.0
C1352 C 0.8082 0.16743 0.44313 0.0
C1353 C 0.79277 0.17967 0.45914 0.0
C1354 C 0.78439 0.17924 0.37023 0.0
C1355 C 0.79593 0.19449 0.4111 0.0
C1356 C 0.77414 0.18391 0.34763 0.0
C1357 C 0.77164 0.20786 0.33975 0.0
C1358 C 0.7914 0.19872 0.38522 0.0
C1359 C 0.78036 0.22679 0.35452 0.0
C1360 C 0.8097 0.17472 0.41896 0.0
C1361 C 0.78117 0.2007 0.45112 0.0
N1362 N 0.78923 0.22186 0.377 0.0
N1363 N 0.78275 0.20733 0.42747 0.0
H1364 H 0.53789 0.94827 0.2137 0.0
H1365 H 0.56757 0.98513 0.07946 0.0
H1366 H 0.60589 0.93128 0.17903 0.0
H1367 H 0.49341 0.97183 0.10153 0.0
H1368 H 0.58161 0.96709 0.11715 0.0
H1369 H 0.5203 0.9569 0.17377 0.0
C1370 C 0.54893 0.94579 0.19764 0.0
C1371 C 0.57347 0.93936 0.19964 0.0
C1372 C 0.56226 0.96799 0.11373 0.0
C1373 C 0.5537 0.94973 0.15423 0.0
C1374 C 0.5542 0.97858 0.09234 0.0
C1375 C 0.52925 0.98021 0.08745 0.0
C1376 C 0.54531 0.95932 0.13066 0.0
C1377 C 0.5128 0.97103 0.10468 0.0
C1378 C 0.5389 0.95077 0.17491 0.0
C1379 C 0.58695 0.93635 0.17831 0.0
N1380 N 0.52112 0.96119 0.12572 0.0
N1381 N 0.57703 0.94204 0.15651 0.0
H1382 H 0.77516 0.86376 0.92959 0.0
H1383 H 0.71274 0.79361 0.81829 0.0
H1384 H 0.72332 0.80533 0.93932 0.0
H1385 H 0.75733 0.85817 0.81133 0.0
H1386 H 0.71692 0.79641 0.86246 0.0
H1387 H 0.77044 0.85992 0.88582 0.0
C1388 C 0.76293 0.84995 0.92247 0.0
C1389 C 0.74956 0.83487 0.93805 0.0
C1390 C 0.72565 0.81 0.85122 0.0
C1391 C 0.74381 0.83056 0.88792 0.0
C1392 C 0.7232 0.80849 0.82602 0.0
C1393 C 0.73478 0.82563 0.81106 0.0
C1394 C 0.73986 0.82871 0.86143 0.0
C1395 C 0.74812 0.84449 0.82208 0.0
C1396 C 0.76012 0.84786 0.89747 0.0
C1397 C 0.73397 0.8173 0.92787 0.0
N1398 N 0.75039 0.84543 0.84657 0.0
N1399 N 0.73144 0.81566 0.90337 0.0
H1400 H 0.83413 0.84244 0.02305 0.0
H1401 H 0.91639 0.95574 0.06362 0.0
H1402 H 0.80435 0.91037 0.04754 0.0
H1403 H 0.94203 0.89339 0.02406 0.0
H1404 H 0.87635 0.93591 0.06722 0.0
H1405 H 0.87474 0.85756 0.03271 0.0
C1406 C 0.83615 0.86052 0.03061 0.0
C1407 C 0.81595 0.87537 0.03409 0.0
C1408 C 0.89091 0.92647 0.05812 0.0
C1409 C 0.86238 0.89284 0.04513 0.0
C1410 C 0.91373 0.93768 0.0562 0.0
C1411 C 0.9323 0.92627 0.0432 0.0
C1412 C 0.88695 0.90369 0.04719 0.0
C1413 C 0.92801 0.90295 0.03387 0.0
C1414 C 0.85933 0.86913 0.03616 0.0
C1415 C 0.81955 0.89849 0.04429 0.0
N1416 N 0.90574 0.89252 0.03588 0.0
N1417 N 0.84242 0.90667 0.04921 0.0
H1418 H 0.32058 0.5824 0.99379 0.0
H1419 H 0.4629 0.60547 0.98699 0.0
H1420 H 0.35466 0.65312 -0.00146 0.0
H1421 H 0.42999 0.53564 0.97226 0.0
H1422 H 0.42287 0.62381 0.98633 0.0
H1423 H 0.35974 0.56516 0.98218 0.0
C1424 C 0.3363 0.59428 0.99233 0.0
C1425 C 0.33452 0.61914 -0.00254 0.0
C1426 C 0.42431 0.60453 0.98284 0.0
C1427 C 0.37915 0.59967 0.98404 0.0
C1428 C 0.44718 0.5941 0.98315 0.0
C1429 C 0.4496 0.56903 0.97992 0.0
C1430 C 0.40364 0.5897 0.97982 0.0
C1431 C 0.42878 0.55507 0.97484 0.0
C1432 C 0.35857 0.58448 0.98555 0.0
C1433 C 0.3553 0.6338 -0.00497 0.0
N1434 N 0.40652 0.56554 0.97542 0.0
N1435 N 0.37678 0.6238 0.98868 0.0
H1436 H 0.19632 0.51545 0.76345 0.0
H1437 H 0.20836 0.62443 0.67315 0.0
H1438 H 0.15547 0.52013 0.69673 0.0
H1439 H 0.25224 0.61509 0.73721 0.0
H1440 H 0.19693 0.58134 0.67481 0.0
H1441 H 0.22422 0.54648 0.74843 0.0
C1442 C 0.19337 0.52294 0.74552 0.0
C1443 C 0.17329 0.51577 0.73154 0.0
C1444 C 0.20974 0.58849 0.68802 0.0
C1445 C 0.2049 0.55152 0.71428 0.0
C1446 C 0.21642 0.613 0.68689 0.0
C1447 C 0.23091 0.6231 0.70529 0.0
C1448 C 0.21752 0.57443 0.70781 0.0
C1449 C 0.24076 0.60781 0.72289 0.0
C1450 C 0.20938 0.54055 0.73685 0.0
C1451 C 0.17057 0.52555 0.70822 0.0
N1452 N 0.2335 0.58431 0.72402 0.0
N1453 N 0.18591 0.54338 0.70049 0.0
H1454 H 0.1383 0.33865 0.51675 0.0
H1455 H 0.06722 0.459 0.55206 0.0
H1456 H 0.15907 0.38658 0.57548 0.0
H1457 H 0.04143 0.40838 0.49755 0.0
H1458 H 0.10033 0.43171 0.56143 0.0
H1459 H 0.10103 0.36184 0.51133 0.0
C1460 C 0.13472 0.35367 0.52891 0.0
C1461 C 0.15189 0.36088 0.54643 0.0
C1462 C 0.08745 0.42653 0.54741 0.0
C1463 C 0.1097 0.38778 0.53994 0.0
C1464 C 0.06861 0.44223 0.54187 0.0
C1465 C 0.0515 0.43606 0.52389 0.0
C1466 C 0.08939 0.40445 0.53484 0.0
C1467 C 0.05425 0.41397 0.51146 0.0
C1468 C 0.11356 0.36704 0.52565 0.0
C1469 C 0.14639 0.3805 0.56164 0.0
N1470 N 0.07286 0.39896 0.51715 0.0
N1471 N 0.12593 0.39347 0.55781 0.0
H1472 H 0.82959 0.0101 0.71753 0.0
H1473 H 0.79168 0.88053 0.66419 0.0
H1474 H 0.88044 0.95412 0.69863 0.0
H1475 H 0.75228 0.9166 0.72111 0.0
H1476 H 0.81866 0.91618 0.66095 0.0
H1477 H 0.79617 0.98368 0.70344 0.0
C1478 C 0.83371 0.99247 0.70993 0.0
C1479 C 0.85762 0.98395 0.70961 0.0
C1480 C 0.80352 0.91657 0.67349 0.0
C1481 C 0.81989 0.95426 0.69302 0.0
C1482 C 0.78808 0.89641 0.67519 0.0
C1483 C 0.76996 0.89585 0.69298 0.0
C1484 C 0.80041 0.93616 0.68948 0.0
C1485 C 0.76617 0.91654 0.70721 0.0
C1486 C 0.81472 0.97752 0.70189 0.0
C1487 C 0.86214 0.96108 0.69955 0.0
N1488 N 0.78149 0.93587 0.70535 0.0
N1489 N 0.84338 0.9469 0.69177 0.0
H1490 H 0.68162 0.14056 0.49658 0.0
H1491 H 0.59411 0.04538 0.56281 0.0
H1492 H 0.70153 0.10154 0.56138 0.0
H1493 H 0.57389 0.0864 0.49927 0.0
H1494 H 0.63216 0.06847 0.56493 0.0
H1495 H 0.64053 0.12381 0.49971 0.0
C1496 C 0.67725 0.12865 0.5116 0.0
C1497 C 0.69499 0.1222 0.52861 0.0
C1498 C 0.61929 0.07251 0.55064 0.0
C1499 C 0.64817 0.10282 0.53221 0.0
C1500 C 0.59758 0.05932 0.54939 0.0
C1501 C 0.5809 0.06375 0.53066 0.0
C1502 C 0.62437 0.09019 0.53298 0.0
C1503 C 0.5863 0.08217 0.5139 0.0
C1504 C 0.65381 0.11907 0.51338 0.0
C1505 C 0.68838 0.10682 0.54778 0.0
N1506 N 0.60764 0.09457 0.51536 0.0
N1507 N 0.66553 0.09744 0.54894 0.0
H1508 H 0.17704 0.41424 0.80126 0.0
H1509 H 0.26815 0.34084 0.71649 0.0
H1510 H 0.17004 0.40738 0.72346 0.0
H1511 H 0.2637 0.3293 0.79389 0.0
H1512 H 0.23816 0.37282 0.72 0.0
H1513 H 0.21315 0.38861 0.79981 0.0
C1514 C 0.18297 0.40713 0.78392 0.0
C1515 C 0.17046 0.41272 0.76245 0.0
C1516 C 0.24399 0.36353 0.73627 0.0
C1517 C 0.21194 0.38412 0.76063 0.0
C1518 C 0.26129 0.34543 0.73433 0.0
C1519 C 0.26807 0.33206 0.75487 0.0
C1520 C 0.23336 0.36829 0.75889 0.0
C1521 C 0.25884 0.33902 0.77756 0.0
C1522 C 0.20364 0.3927 0.78311 0.0
C1523 C 0.179 0.4033 0.74045 0.0
N1524 N 0.24157 0.35644 0.77893 0.0
N1525 N 0.19928 0.38953 0.7401 0.0
H1526 H 0.34239 0.58187 0.3035 0.0
H1527 H 0.37744 0.72218 0.28944 0.0
H1528 H 0.41277 0.60691 0.27919 0.0
H1529 H 0.30442 0.69434 0.29835 0.0
H1530 H 0.39285 0.68083 0.29406 0.0
H1531 H 0.3306 0.62384 0.31035 0.0
C1532 C 0.35545 0.59622 0.29983 0.0
C1533 C 0.37844 0.591 0.29042 0.0
C1534 C 0.37349 0.68389 0.29526 0.0
C1535 C 0.36505 0.63904 0.29807 0.0
C1536 C 0.36471 0.70745 0.29271 0.0
C1537 C 0.33961 0.71159 0.29315 0.0
C1538 C 0.35702 0.66454 0.29848 0.0
C1539 C 0.32389 0.6919 0.29748 0.0
C1540 C 0.34871 0.62017 0.30372 0.0
C1541 C 0.39476 0.61024 0.28623 0.0
N1542 N 0.33285 0.66923 0.29983 0.0
N1543 N 0.38765 0.63351 0.28984 0.0
H1544 H 0.48524 0.70567 0.5619 0.0
H1545 H 0.44173 0.57685 0.6132 0.0
H1546 H 0.48282 0.68847 0.63829 0.0
H1547 H 0.45326 0.59193 0.53712 0.0
H1548 H 0.45305 0.6188 0.62274 0.0
H1549 H 0.47146 0.66453 0.5525 0.0
C1550 C 0.48207 0.69311 0.57669 0.0
C1551 C 0.48521 0.7004 0.6009 0.0
C1552 C 0.45292 0.61294 0.60396 0.0
C1553 C 0.46902 0.65347 0.59032 0.0
C1554 C 0.44622 0.58907 0.59847 0.0
C1555 C 0.44674 0.58082 0.57434 0.0
C1556 C 0.46006 0.62862 0.58517 0.0
C1557 C 0.45281 0.59743 0.556 0.0
C1558 C 0.47406 0.66968 0.57132 0.0
C1559 C 0.48074 0.68348 0.61937 0.0
N1560 N 0.45938 0.62049 0.56182 0.0
N1561 N 0.47273 0.66078 0.61369 0.0
H1562 H 0.60318 0.21891 0.85451 0.0
H1563 H 0.70114 0.30612 0.79235 0.0
H1564 H 0.59757 0.29683 0.85017 0.0
H1565 H 0.7106 0.22874 0.79872 0.0
H1566 H 0.65997 0.30168 0.80766 0.0
H1567 H 0.63954 0.22089 0.82895 0.0
C1568 C 0.6095 0.23639 0.848 0.0
C1569 C 0.59762 0.25779 0.85468 0.0
C1570 C 0.67091 0.28559 0.80554 0.0
C1571 C 0.63892 0.26016 0.82551 0.0
C1572 C 0.69444 0.28812 0.7968 0.0
C1573 C 0.70942 0.26781 0.79469 0.0
C1574 C 0.66231 0.26261 0.81255 0.0
C1575 C 0.69967 0.24489 0.80028 0.0
C1576 C 0.6302 0.2375 0.83342 0.0
C1577 C 0.60638 0.27993 0.84568 0.0
N1578 N 0.67677 0.24293 0.80934 0.0
N1579 N 0.6266 0.28054 0.83169 0.0
H1580 H 0.97407 0.307 0.04717 0.0
H1581 H 0.0584 0.41728 0.07198 0.0
H1582 H 0.04242 0.29606 0.08375 0.0
H1583 H 0.01866 0.41114 0.00446 0.0
H1584 H 0.05332 0.37336 0.07772 0.0
H1585 H 0.9895 0.34597 0.03198 0.0
C1586 C 0.99249 0.3126 0.05154 0.0
C1587 C 0.00703 0.29835 0.06661 0.0
C1588 C 0.04621 0.38168 0.06142 0.0
C1589 C 0.02445 0.34304 0.05009 0.0
C1590 C 0.04912 0.40671 0.05813 0.0
C1591 C 0.03857 0.41806 0.03795 0.0
C1592 C 0.03229 0.36815 0.04468 0.0
C1593 C 0.02677 0.40335 0.02053 0.0
C1594 C 0.00129 0.33477 0.04291 0.0
C1595 C 0.03072 0.30647 0.07198 0.0
N1596 N 0.02346 0.37929 0.02458 0.0
N1597 N 0.03854 0.32858 0.06418 0.0
H1598 H 0.95807 0.6872 0.3709 0.0
H1599 H 0.87878 0.73472 0.26029 0.0
H1600 H 0.99261 0.72281 0.31016 0.0
H1601 H 0.8567 0.73769 0.33545 0.0
H1602 H 0.91917 0.72094 0.2735 0.0
H1603 H 0.9186 0.69402 0.35205 0.0
C1604 C 0.95741 0.69591 0.3533 0.0
C1605 C 0.97858 0.70482 0.34224 0.0
C1606 C 0.90536 0.72469 0.28694 0.0
C1607 C 0.93355 0.71279 0.32078 0.0
C1608 C 0.88246 0.73261 0.2795 0.0
C1609 C 0.86448 0.73756 0.29683 0.0
C1610 C 0.90985 0.72108 0.31175 0.0
C1611 C 0.87008 0.73439 0.32147 0.0
C1612 C 0.93488 0.69996 0.34269 0.0
C1613 C 0.97665 0.71589 0.31937 0.0
N1614 N 0.89218 0.72615 0.32816 0.0
N1615 N 0.95439 0.71984 0.30944 0.0
H1616 H 0.54693 0.31757 0.96654 0.0
H1617 H 0.49602 0.45106 0.94521 0.0
H1618 H 0.51247 0.34038 0.90004 0.0
H1619 H 0.52629 0.42655 0.01321 0.0
H1620 H 0.4993 0.4099 0.9292 0.0
H1621 H 0.53802 0.35707 0.9845 0.0
C1622 C 0.53757 0.33095 0.95571 0.0
C1623 C 0.53055 0.32582 0.93175 0.0
C1624 C 0.505 0.41349 0.9477 0.0
C1625 C 0.52012 0.37089 0.95218 0.0
C1626 C 0.50302 0.43698 0.95691 0.0
C1627 C 0.51115 0.44236 0.9805 0.0
C1628 C 0.51528 0.39531 0.96216 0.0
C1629 C 0.51999 0.42333 -0.00517 0.0
C1630 C 0.53236 0.35343 0.96599 0.0
C1631 C 0.51831 0.34368 0.91855 0.0
N1632 N 0.52205 0.40072 0.98534 0.0
N1633 N 0.51353 0.36547 0.92893 0.0
H1634 H 0.93042 0.24245 0.18459 0.0
H1635 H 0.78876 0.21059 0.17831 0.0
H1636 H 0.89108 0.24006 0.11674 0.0
H1637 H 0.82637 0.23377 0.24335 0.0
H1638 H 0.82653 0.2166 0.15527 0.0
H1639 H 0.89264 0.23519 0.20628 0.0
C1640 C 0.91374 0.2405 0.17425 0.0
C1641 C 0.91381 0.24189 0.14885 0.0
C1642 C 0.82643 0.22027 0.1746 0.0
C1643 C 0.87043 0.2333 0.1736 0.0
C1644 C 0.805 0.21665 0.18777 0.0
C1645 C 0.80446 0.22173 0.21276 0.0
C1646 C 0.84739 0.22872 0.18664 0.0
C1647 C 0.82592 0.22975 0.2241 0.0
C1648 C 0.89216 0.23635 0.18666 0.0
C1649 C 0.8917 0.23924 0.13637 0.0
N1650 N 0.84646 0.23297 0.21097 0.0
N1651 N 0.87081 0.23491 0.1489 0.0
H1652 H 0.06376 0.64178 0.42088 0.0
H1653 H 0.97603 0.58685 0.51711 0.0
H1654 H 0.01706 0.6867 0.46454 0.0
H1655 H 0.04335 0.55152 0.49957 0.0
H1656 H 0.9917 0.62423 0.49906 0.0
H1657 H 0.05802 0.60871 0.45006 0.0
C1658 C 0.0526 0.64477 0.43677 0.0
C1659 C 0.04053 0.66679 0.44014 0.0
C1660 C 0.00327 0.60846 0.49959 0.0
C1661 C 0.03378 0.62924 0.47328 0.0
C1662 C 0.9943 0.58716 0.50983 0.0
C1663 C 0.00839 0.56615 0.50959 0.0
C1664 C 0.02618 0.60851 0.48843 0.0
C1665 C 0.03197 0.56742 0.50006 0.0
C1666 C 0.04944 0.62599 0.45345 0.0
C1667 C 0.02645 0.66987 0.4611 0.0
N1668 N 0.03998 0.58816 0.4893 0.0
N1669 N 0.02311 0.65114 0.47667 0.0
H1670 H 0.54298 0.7715 0.68984 0.0
H1671 H 0.65657 0.85195 0.6774 0.0
H1672 H 0.53976 0.83813 0.64912 0.0
H1673 H 0.64337 0.81005 0.74235 0.0
H1674 H 0.61308 0.85031 0.66846 0.0
H1675 H 0.57868 0.7872 0.71136 0.0
C1676 C 0.54958 0.78963 0.68581 0.0
C1677 C 0.53874 0.80348 0.66759 0.0
C1678 C 0.61968 0.84203 0.68498 0.0
C1679 C 0.57968 0.82131 0.69159 0.0
C1680 C 0.64451 0.84289 0.69006 0.0
C1681 C 0.65372 0.83049 0.71025 0.0
C1682 C 0.60419 0.82833 0.69998 0.0
C1683 C 0.63718 0.81936 0.72623 0.0
C1684 C 0.56984 0.79865 0.69813 0.0
C1685 C 0.54777 0.82691 0.66305 0.0
N1686 N 0.61328 0.81801 0.72042 0.0
N1687 N 0.56818 0.83491 0.67456 0.0
H1688 H 0.60663 0.47558 0.69045 0.0
H1689 H 0.47153 0.51145 0.65487 0.0
H1690 H 0.57146 0.54075 0.71515 0.0
H1691 H 0.50619 0.44552 0.63133 0.0
H1692 H 0.50502 0.51872 0.68311 0.0
H1693 H 0.56802 0.46153 0.67316 0.0
C1694 C 0.59078 0.48695 0.69217 0.0
C1695 C 0.59228 0.50949 0.70393 0.0
C1696 C 0.50507 0.50241 0.67211 0.0
C1697 C 0.54802 0.49346 0.6845 0.0
C1698 C 0.48577 0.4981 0.65614 0.0
C1699 C 0.48634 0.47815 0.64025 0.0
C1700 C 0.52503 0.48671 0.67207 0.0
C1701 C 0.50525 0.46143 0.64286 0.0
C1702 C 0.5687 0.47885 0.68248 0.0
C1703 C 0.57115 0.52336 0.70597 0.0
N1704 N 0.52409 0.46634 0.65807 0.0
N1705 N 0.54992 0.5152 0.6962 0.0
H1706 H 0.77659 0.30442 0.98969 0.0
H1707 H 0.84503 0.32536 0.86388 0.0
H1708 H 0.8118 0.37251 0.97243 0.0
H1709 H 0.778 0.28483 0.87067 0.0
H1710 H 0.84323 0.33486 0.90768 0.0
H1711 H 0.78776 0.28896 0.94954 0.0
C1712 C 0.78695 0.31597 0.97756 0.0
C1713 C 0.79299 0.33986 0.98408 0.0
C1714 C 0.82919 0.32359 0.8995 0.0
C1715 C 0.80607 0.32224 0.93866 0.0
C1716 C 0.83026 0.31814 0.87473 0.0
C1717 C 0.81149 0.30458 0.86393 0.0
C1718 C 0.80961 0.31477 0.91331 0.0
C1719 C 0.79263 0.2956 0.87847 0.0
C1720 C 0.79329 0.30716 0.95476 0.0
C1721 C 0.80652 0.35409 0.96782 0.0
N1722 N 0.79215 0.30085 0.90249 0.0
N1723 N 0.81257 0.34508 0.9457 0.0
H1724 H 0.90992 0.45738 0.20439 0.0
H1725 H 0.98688 0.55053 0.12598 0.0
H1726 H 0.90725 0.53497 0.21453 0.0
H1727 H 0.00237 0.47399 0.12795 0.0
H1728 H 0.96011 0.54545 0.16087 0.0
H1729 H 0.94515 0.46288 0.17774 0.0
C1730 C 0.91676 0.47555 0.201 0.0
C1731 C 0.90553 0.49577 0.21143 0.0
C1732 C 0.96971 0.52982 0.15402 0.0
C1733 C 0.94579 0.5022 0.18123 0.0
C1734 C 0.98511 0.53275 0.13419 0.0
C1735 C -0.00333 0.51262 0.12398 0.0
C1736 C 0.96547 0.50649 0.16339 0.0
C1737 C 0.99379 0.49 0.1353 0.0
C1738 C 0.93696 0.47867 0.18598 0.0
C1739 C 0.91525 0.51889 0.20669 0.0
N1740 N 0.97804 0.48742 0.15412 0.0
N1741 N 0.93469 0.52148 0.19179 0.0
H1742 H 0.76472 0.64583 0.46661 0.0
H1743 H 0.71221 0.70557 0.34616 0.0
H1744 H 0.68781 0.65019 0.45208 0.0
H1745 H 0.7849 0.71876 0.37319 0.0
H1746 H 0.70302 0.68273 0.38313 0.0
H1747 H 0.77274 0.66975 0.43027 0.0
C1748 C 0.74952 0.65179 0.4557 0.0
C1749 C 0.72558 0.64607 0.46228 0.0
C1750 C 0.72092 0.69076 0.38095 0.0
C1751 C 0.7346 0.6734 0.42073 0.0
C1752 C 0.7262 0.70375 0.35987 0.0
C1753 C 0.74938 0.71403 0.35656 0.0
C1754 C 0.73904 0.68785 0.39863 0.0
C1755 C 0.76678 0.71117 0.37496 0.0
C1756 C 0.75409 0.66553 0.43504 0.0
C1757 C 0.70654 0.65428 0.44759 0.0
N1758 N 0.76129 0.69821 0.39513 0.0
N1759 N 0.71146 0.66751 0.42737 0.0
H1760 H 0.60219 0.50298 0.80347 0.0
H1761 H 0.58928 0.57133 0.92965 0.0
H1762 H 0.6397 0.57048 0.81867 0.0
H1763 H 0.53656 0.51909 0.90303 0.0
H1764 H 0.60905 0.57091 0.88994 0.0
H1765 H 0.57958 0.50741 0.84125 0.0
C1766 C 0.60574 0.51869 0.81485 0.0
C1767 C 0.62289 0.53635 0.80807 0.0
C1768 C 0.59298 0.55978 0.89274 0.0
C1769 C 0.59703 0.54158 0.8512 0.0
C1770 C 0.58169 0.55999 0.91538 0.0
C1771 C 0.56135 0.54506 0.91971 0.0
C1772 C 0.58407 0.54426 0.87449 0.0
C1773 C 0.55221 0.53085 0.90053 0.0
C1774 C 0.5927 0.5213 0.8363 0.0
C1775 C 0.62666 0.55644 0.82335 0.0
N1776 N 0.56384 0.53057 0.87883 0.0
N1777 N 0.6139 0.55845 0.84434 0.0
H1778 H 0.72566 0.34604 0.11993 0.0
H1779 H 0.70554 0.21729 0.15743 0.0
H1780 H 0.72445 0.29174 0.06341 0.0
H1781 H 0.665 0.27482 0.19137 0.0
H1782 H 0.70817 0.24146 0.12048 0.0
H1783 H 0.70108 0.31933 0.1454 0.0
C1784 C 0.72009 0.32845 0.11292 0.0
C1785 C 0.72734 0.32075 0.08987 0.0
C1786 C 0.69792 0.24838 0.13573 0.0
C1787 C 0.69938 0.29013 0.11876 0.0
C1788 C 0.69639 0.23459 0.15688 0.0
C1789 C 0.68609 0.2446 0.17791 0.0
C1790 C 0.68943 0.27228 0.136 0.0
C1791 C 0.674 0.2668 0.17589 0.0
C1792 C 0.70578 0.31337 0.12726 0.0
C1793 C 0.71934 0.29806 0.0813 0.0
N1794 N 0.67678 0.28035 0.15557 0.0
N1795 N 0.70624 0.28315 0.09606 0.0
H1796 H 0.88835 0.52742 0.32806 0.0
H1797 H 0.96274 0.44757 0.42265 0.0
H1798 H 0.90325 0.45145 0.31719 0.0
H1799 H 0.94867 0.52403 0.43151 0.0
H1800 H 0.94569 0.4495 0.38162 0.0
H1801 H 0.91437 0.52731 0.36396 0.0
C1802 C 0.89717 0.51072 0.33322 0.0
C1803 C 0.89346 0.48935 0.31985 0.0
C1804 C 0.94664 0.4659 0.39246 0.0
C1805 C 0.92326 0.48903 0.3609 0.0
C1806 C 0.95648 0.46484 0.41584 0.0
C1807 C 0.95675 0.48558 0.43068 0.0
C1808 C 0.93703 0.48785 0.38398 0.0
C1809 C 0.94845 0.50748 0.42087 0.0
C1810 C 0.9121 0.51067 0.35367 0.0
C1811 C 0.9055 0.46827 0.32716 0.0
N1812 N 0.93869 0.50796 0.39827 0.0
N1813 N 0.91973 0.46858 0.34735 0.0
H1814 H 0.76286 0.66111 0.57433 0.0
H1815 H 0.71222 0.78582 0.6264 0.0
H1816 H 0.68895 0.68448 0.56421 0.0
H1817 H 0.78543 0.76062 0.63746 0.0
H1818 H 0.70507 0.75225 0.59819 0.0
H1819 H 0.77254 0.69984 0.59357 0.0
C1820 C 0.74861 0.67438 0.57629 0.0
C1821 C 0.72499 0.6695 0.56791 0.0
C1822 C 0.72282 0.75432 0.60648 0.0
C1823 C 0.73602 0.71408 0.5897 0.0
C1824 C 0.72702 0.77365 0.62242 0.0
C1825 C 0.74933 0.77577 0.63471 0.0
C1826 C 0.74106 0.73706 0.60285 0.0
C1827 C 0.76782 0.75947 0.62873 0.0
C1828 C 0.7542 0.69658 0.58712 0.0
C1829 C 0.70732 0.68745 0.57067 0.0
N1830 N 0.76314 0.74059 0.61353 0.0
N1831 N 0.71318 0.70896 0.58144 0.0
H1832 H 0.6416 0.57054 0.49045 0.0
H1833 H 0.55065 0.48843 0.56841 0.0
H1834 H 0.65097 0.55869 0.56735 0.0
H1835 H 0.53044 0.52475 0.50214 0.0
H1836 H 0.59172 0.5058 0.56475 0.0
H1837 H 0.60464 0.54579 0.4914 0.0
C1838 C 0.63588 0.56267 0.50754 0.0
C1839 C 0.64914 0.56685 0.52892 0.0
C1840 C 0.57832 0.50965 0.55089 0.0
C1841 C 0.6071 0.53835 0.53005 0.0
C1842 C 0.55503 0.49961 0.55284 0.0
C1843 C 0.5372 0.50538 0.53563 0.0
C1844 C 0.58373 0.52517 0.53143 0.0
C1845 C 0.54366 0.52008 0.51591 0.0
C1846 C 0.61483 0.54854 0.50805 0.0
C1847 C 0.64105 0.55609 0.55053 0.0
N1848 N 0.56641 0.52956 0.51439 0.0
N1849 N 0.62044 0.5423 0.55057 0.0
H1850 H 0.18476 0.92242 0.46371 0.0
H1851 H 0.05728 0.95712 0.51648 0.0
H1852 H 0.17387 0.9372 0.53991 0.0
H1853 H 0.07825 0.98176 0.44513 0.0
H1854 H 0.09915 0.94524 0.52419 0.0
H1855 H 0.14499 0.94037 0.45499 0.0
C1856 C 0.1741 0.92962 0.47853 0.0
C1857 C 0.18245 0.92823 0.50257 0.0
C1858 C 0.09463 0.95338 0.5069 0.0
C1859 C 0.1372 0.94826 0.49281 0.0
C1860 C 0.07075 0.96001 0.50243 0.0
C1861 C 0.06437 0.97034 0.48011 0.0
C1862 C 0.11217 0.95659 0.48875 0.0
C1863 C 0.08254 0.97389 0.4626 0.0
C1864 C 0.15154 0.9399 0.47354 0.0
C1865 C 0.16805 0.93787 0.52113 0.0
N1866 N 0.10568 0.9667 0.46716 0.0
N1867 N 0.14596 0.94718 0.5159 0.0
H1868 H 0.30256 0.91027 0.71771 0.0
H1869 H 0.2605 0.79373 0.78909 0.0
H1870 H 0.31513 0.90205 0.79462 0.0
H1871 H 0.22613 0.81568 0.72233 0.0
H1872 H 0.27981 0.83369 0.79219 0.0
H1873 H 0.27464 0.87545 0.71884 0.0
C1874 C 0.29947 0.90108 0.73481 0.0
C1875 C 0.31132 0.90883 0.75606 0.0
C1876 C 0.26765 0.82998 0.77712 0.0
C1877 C 0.2794 0.86922 0.75751 0.0
C1878 C 0.25657 0.80723 0.7754 0.0
C1879 C 0.24183 0.80147 0.75537 0.0
C1880 C 0.26442 0.84683 0.75836 0.0
C1881 C 0.23732 0.81951 0.7381 0.0
C1882 C 0.28337 0.88141 0.73549 0.0
C1883 C 0.30647 0.89652 0.77779 0.0
N1884 N 0.24902 0.84129 0.73971 0.0
N1885 N 0.29105 0.87715 0.77792 0.0
H1886 H 0.29712 0.07161 0.04511 0.0
H1887 H 0.44082 0.07647 0.02603 0.0
H1888 H 0.33734 0.13171 0.0145 0.0
H1889 H 0.40216 0.00837 0.03298 0.0
H1890 H 0.40305 0.098 0.03194 0.0
H1891 H 0.33537 0.04918 0.04936 0.0
C1892 C 0.31401 0.08013 0.03951 0.0
C1893 C 0.31416 0.10346 0.0293 0.0
C1894 C 0.40273 0.07835 0.03236 0.0
C1895 C 0.3576 0.07823 0.03439 0.0
C1896 C 0.42431 0.06603 0.02904 0.0
C1897 C 0.42448 0.04061 0.02855 0.0
C1898 C 0.38097 0.06524 0.03502 0.0
C1899 C 0.40269 0.02801 0.03307 0.0
C1900 C 0.33572 0.06734 0.04189 0.0
C1901 C 0.3364 0.1137 0.02228 0.0
N1902 N 0.38159 0.0405 0.03577 0.0
N1903 N 0.35718 0.10104 0.02497 0.0
H1904 H 0.7219 0.59017 0.73188 0.0
H1905 H 0.68319 0.72756 0.72793 0.0
H1906 H 0.65087 0.61217 0.70766 0.0
H1907 H 0.75786 0.70659 0.71781 0.0
H1908 H 0.67085 0.68497 0.72439 0.0
H1909 H 0.73571 0.6325 0.72964 0.0
C1910 C 0.70934 0.60388 0.72575 0.0
C1911 C 0.68521 0.59777 0.72001 0.0
C1912 C 0.68991 0.68974 0.72286 0.0
C1913 C 0.70067 0.64603 0.71798 0.0
C1914 C 0.697 0.71398 0.7251 0.0
C1915 C 0.72159 0.72057 0.72327 0.0
C1916 C 0.70759 0.67194 0.7192 0.0
C1917 C 0.7387 0.70225 0.71934 0.0
C1918 C 0.71721 0.62797 0.7245 0.0
C1919 C 0.66964 0.61615 0.7122 0.0
N1920 N 0.73139 0.67869 0.71765 0.0
N1921 N 0.67753 0.63956 0.71177 0.0
H1922 H 0.85434 0.36863 0.05504 0.0
H1923 H 0.91896 0.49891 0.06024 0.0
H1924 H 0.81954 0.43303 0.08218 0.0
H1925 H 0.94547 0.4389 0.01757 0.0
H1926 H 0.88487 0.47366 0.07344 0.0
H1927 H 0.89146 0.3924 0.04818 0.0
C1928 C 0.85476 0.3876 0.06023 0.0
C1929 C 0.83386 0.39902 0.06894 0.0
C1930 C 0.89809 0.46606 0.0611 0.0
C1931 C 0.87583 0.42627 0.06066 0.0
C1932 C 0.91745 0.48051 0.05342 0.0
C1933 C 0.935 0.47103 0.03767 0.0
C1934 C 0.89636 0.44191 0.05314 0.0
C1935 C 0.93221 0.44702 0.02952 0.0
C1936 C 0.8758 0.40121 0.05599 0.0
C1937 C 0.83526 0.42365 0.07522 0.0
N1938 N 0.91329 0.43322 0.03746 0.0
N1939 N 0.85583 0.43656 0.07069 0.0
H1940 H 0.3194 0.02896 0.70202 0.0
H1941 H 0.25957 0.1452 0.76262 0.0
H1942 H 0.29036 0.02918 0.77479 0.0
H1943 H 0.31777 0.14804 0.7102 0.0
H1944 H 0.2592 0.10088 0.75948 0.0
H1945 H 0.30581 0.0707 0.69689 0.0
C1946 C 0.30951 0.03753 0.71665 0.0
C1947 C 0.30643 0.0259 0.73907 0.0
C1948 C 0.2718 0.1113 0.74848 0.0
C1949 C 0.29103 0.07337 0.73329 0.0
C1950 C 0.27209 0.13651 0.75027 0.0
C1951 C 0.28903 0.1502 0.73692 0.0
C1952 C 0.28825 0.09985 0.73295 0.0
C1953 C 0.30474 0.13809 0.72112 0.0
C1954 C 0.30194 0.06136 0.71374 0.0
C1955 C 0.29341 0.03774 0.75737 0.0
N1956 N 0.30403 0.11353 0.71962 0.0
N1957 N 0.28646 0.06107 0.75422 0.0
H1958 H 0.20857 0.98913 0.29881 0.0
H1959 H 0.27139 0.88402 0.22174 0.0
H1960 H 0.21569 0.99125 0.2208 0.0
H1961 H 0.25977 0.88237 0.29931 0.0
H1962 H 0.25609 0.92569 0.22108 0.0
H1963 H 0.23356 0.95286 0.2996 0.0
C1964 C 0.21576 0.98218 0.28189 0.0
C1965 C 0.20981 0.99293 0.2597 0.0
C1966 C 0.25707 0.91617 0.23822 0.0
C1967 C 0.23795 0.95121 0.26034 0.0
C1968 C 0.26569 0.89239 0.23858 0.0
C1969 C 0.26654 0.87955 0.26052 0.0
C1970 C 0.24938 0.92707 0.25998 0.0
C1971 C 0.25914 0.89136 0.28187 0.0
C1972 C 0.22992 0.9614 0.28231 0.0
C1973 C 0.21971 0.98332 0.2383 0.0
N1974 N 0.25081 0.91434 0.28101 0.0
N1975 N 0.23302 0.96274 0.23909 0.0
H1976 H 0.49422 0.29371 0.46524 0.0
H1977 H 0.41331 0.39977 0.51728 0.0
H1978 H 0.44186 0.33347 0.42303 0.0
H1979 H 0.48836 0.39414 0.53966 0.0
H1980 H 0.41891 0.36538 0.49015 0.0
H1981 H 0.4888 0.32282 0.49879 0.0
C1982 C 0.48182 0.30868 0.46298 0.0
C1983 C 0.46854 0.31137 0.44139 0.0
C1984 C 0.43402 0.37151 0.50131 0.0
C1985 C 0.46165 0.34365 0.47959 0.0
C1986 C 0.43084 0.39102 0.51693 0.0
C1987 C 0.45059 0.40026 0.5303 0.0
C1988 C 0.45698 0.36102 0.49923 0.0
C1989 C 0.47275 0.38783 0.52935 0.0
C1990 C 0.47867 0.32507 0.48208 0.0
C1991 C 0.45259 0.33088 0.43931 0.0
N1992 N 0.47549 0.36893 0.51372 0.0
N1993 N 0.44938 0.34613 0.4583 0.0
H1994 H 0.46055 0.7846 0.13461 0.0
H1995 H 0.40375 0.82121 0.25703 0.0
H1996 H 0.50096 0.83265 0.18206 0.0
H1997 H 0.35994 0.81945 0.19188 0.0
H1998 H 0.44033 0.82337 0.23172 0.0
H1999 H 0.42344 0.7942 0.15697 0.0
C2000 C 0.4615 0.79728 0.14967 0.0
C2001 C 0.48364 0.8078 0.15671 0.0
C2002 C 0.42263 0.823 0.2231 0.0
C2003 C 0.44173 0.81849 0.18237 0.0
C2004 C 0.40183 0.82166 0.23745 0.0
C2005 C 0.37887 0.81989 0.22649 0.0
C2006 C 0.4203 0.82188 0.19776 0.0
C2007 C 0.37731 0.8207 0.20106 0.0
C2008 C 0.4404 0.80287 0.16225 0.0
C2009 C 0.48408 0.82423 0.17618 0.0
N2010 N 0.39782 0.8211 0.1875 0.0
N2011 N 0.46341 0.82877 0.18874 0.0
H2012 H 0.97452 0.71093 0.9574 0.0
H2013 H 0.95019 0.57531 0.00093 0.0
H2014 H 0.94487 0.65635 0.90914 0.0
H2015 H 0.01687 0.61425 0.01606 0.0
H2016 H 0.93575 0.61039 0.97759 0.0
H2017 H 0.97704 0.68041 0.98957 0.0
C2018 C 0.96787 0.6927 0.9538 0.0
C2019 C 0.95975 0.68597 0.93056 0.0
C2020 C 0.95326 0.61135 0.98658 0.0
C2021 C 0.96227 0.6514 0.96719 0.0
C2022 C 0.96144 0.59152 -8e-05 0.0
C2023 C 0.98476 0.59203 0.0102 0.0
C2024 C 0.96829 0.63188 0.98424 0.0
C2025 C -0.00117 0.61323 0.00821 0.0
C2026 C 0.96942 0.67537 0.9721 0.0
C2027 C 0.95147 0.66212 0.92679 0.0
N2028 N 0.99038 0.63238 -0.00461 0.0
N2029 N 0.95309 0.64555 0.94493 0.0
H2030 H 0.10724 0.26411 0.62222 0.0
H2031 H 0.19209 0.2127 0.72756 0.0
H2032 H 0.08886 0.20206 0.66645 0.0
H2033 H 0.21586 0.26752 0.67667 0.0
H2034 H 0.15345 0.20984 0.70618 0.0
H2035 H 0.14681 0.2666 0.64245 0.0
C2036 C 0.11162 0.25094 0.63609 0.0
C2037 C 0.09483 0.23288 0.64275 0.0
C2038 C 0.16712 0.22247 0.69966 0.0
C2039 C 0.13975 0.23571 0.66599 0.0
C2040 C 0.18918 0.22419 0.71192 0.0
C2041 C 0.20725 0.24038 0.70389 0.0
C2042 C 0.16303 0.23711 0.67928 0.0
C2043 C 0.20244 0.25477 0.68348 0.0
C2044 C 0.13415 0.25237 0.64762 0.0
C2045 C 0.10131 0.21627 0.6608 0.0
N2046 N 0.18074 0.25281 0.67187 0.0
N2047 N 0.12325 0.21816 0.67188 0.0
H2048 H 0.59191 0.73176 0.07225 0.0
H2049 H 0.54509 0.59551 0.07875 0.0
H2050 H 0.55076 0.70072 0.1313 0.0
H2051 H 0.58387 0.62424 0.01704 0.0
H2052 H 0.55546 0.6318 0.10174 0.0
H2053 H 0.59727 0.69097 0.05532 0.0
C2054 C 0.58444 0.7163 0.08188 0.0
C2055 C 0.57045 0.71951 0.10289 0.0
C2056 C 0.56197 0.63021 0.08327 0.0
C2057 C 0.57645 0.67315 0.08377 0.0
C2058 C 0.55598 0.60952 0.07012 0.0
C2059 C 0.5632 0.60729 0.04587 0.0
C2060 C 0.57481 0.64913 0.0719 0.0
C2061 C 0.57776 0.62556 0.03567 0.0
C2062 C 0.58746 0.69308 0.07221 0.0
C2063 C 0.56127 0.69901 0.1148 0.0
N2064 N 0.5827 0.64609 0.04863 0.0
N2065 N 0.56421 0.67673 0.10491 0.0
H2066 H 0.04439 0.68151 0.84351 0.0
H2067 H 0.12797 0.74091 0.74201 0.0
H2068 H 0.02313 0.74272 0.7999 0.0
H2069 H 0.14418 0.67254 0.77629 0.0
H2070 H 0.08794 0.73999 0.76083 0.0
H2071 H 0.07952 0.67578 0.81699 0.0
C2072 C 0.04697 0.69353 0.82818 0.0
C2073 C 0.03109 0.7128 0.82404 0.0
C2074 C 0.10014 0.72504 0.76402 0.0
C2075 C 0.07113 0.70652 0.79384 0.0
C2076 C 0.12303 0.7256 0.75332 0.0
C2077 C 0.13955 0.70695 0.75784 0.0
C2078 C 0.09384 0.70585 0.7796 0.0
C2079 C 0.13207 0.68741 0.77244 0.0
C2080 C 0.06698 0.69027 0.81305 0.0
C2081 C 0.03512 0.72779 0.80388 0.0
N2082 N 0.10986 0.68753 0.78308 0.0
N2083 N 0.0549 0.72451 0.7897 0.0
H2084 H 4e-05 0.27525 0.54107 0.0
H2085 H 0.92773 0.39705 0.56615 0.0
H2086 H 0.98954 0.30886 0.61112 0.0
H2087 H 0.96133 0.38113 0.49715 0.0
H2088 H 0.93699 0.35613 0.57964 0.0
H2089 H 0.97522 0.30712 0.52253 0.0
C2090 C 0.99258 0.28937 0.55247 0.0
C2091 C -0.0028 0.28984 0.57752 0.0
C2092 C 0.94183 0.36146 0.56134 0.0
C2093 C 0.96825 0.32536 0.55678 0.0
C2094 C 0.93639 0.38476 0.55354 0.0
C2095 C 0.94474 0.39285 0.53089 0.0
C2096 C 0.95564 0.34631 0.54636 0.0
C2097 C 0.95527 0.37588 0.51509 0.0
C2098 C 0.97828 0.3073 0.54196 0.0
C2099 C 0.98684 0.30818 0.59164 0.0
N2100 N 0.96106 0.35351 0.52338 0.0
N2101 N 0.97285 0.32522 0.58105 0.0
H2102 H 0.42715 0.27695 0.3115 0.0
H2103 H 0.30198 0.34811 0.30349 0.0
H2104 H 0.38461 0.29674 0.3741 0.0
H2105 H 0.32462 0.29754 0.24813 0.0
H2106 H 0.33906 0.3395 0.32627 0.0
H2107 H 0.39557 0.29391 0.28511 0.0
C2108 C 0.41125 0.28503 0.31965 0.0
C2109 C 0.40822 0.28525 0.34492 0.0
C2110 C 0.33601 0.3306 0.30895 0.0
C2111 C 0.37265 0.30499 0.31511 0.0
C2112 C 0.31499 0.3356 0.29586 0.0
C2113 C 0.31009 0.32324 0.27406 0.0
C2114 C 0.35235 0.31342 0.29998 0.0
C2115 C 0.32758 0.3072 0.26504 0.0
C2116 C 0.39334 0.29466 0.30464 0.0
C2117 C 0.38742 0.29596 0.35466 0.0
N2118 N 0.34793 0.30261 0.27815 0.0
N2119 N 0.37039 0.30546 0.33971 0.0
H2120 H 0.38108 0.47569 0.34357 0.0
H2121 H 0.45664 0.52413 0.45786 0.0
H2122 H 0.44772 0.51717 0.33796 0.0
H2123 H 0.39806 0.47179 0.46398 0.0
H2124 H 0.45279 0.52236 0.41383 0.0
H2125 H 0.38695 0.47338 0.38757 0.0
C2126 C 0.39716 0.48394 0.35156 0.0
C2127 C 0.41389 0.49674 0.33715 0.0
C2128 C 0.44078 0.51124 0.42478 0.0
C2129 C 0.42044 0.49462 0.3874 0.0
C2130 C 0.44283 0.51238 0.44998 0.0
C2131 C 0.4276 0.49813 0.4647 0.0
C2132 C 0.42327 0.49586 0.41414 0.0
C2133 C 0.41016 0.48314 0.45337 0.0
C2134 C 0.40043 0.48273 0.37667 0.0
C2135 C 0.43436 0.50715 0.34841 0.0
N2136 N 0.40844 0.48243 0.42875 0.0
N2137 N 0.43692 0.50609 0.3729 0.0
H2138 H 0.26574 0.72803 0.06048 0.0
H2139 H 0.27181 0.72111 0.20489 0.0
H2140 H 0.28464 0.66375 0.1006 0.0
H2141 H 0.28165 0.78904 0.16701 0.0
H2142 H 0.26919 0.70019 0.16608 0.0
H2143 H 0.26558 0.75112 0.09878 0.0
C2144 C 0.26994 0.71884 0.0773 0.0
C2145 C 0.27526 0.69398 0.07742 0.0
C2146 C 0.27184 0.71969 0.16623 0.0
C2147 C 0.27466 0.72001 0.121 0.0
C2148 C 0.2732 0.73172 0.18842 0.0
C2149 C 0.27719 0.75691 0.18929 0.0
C2150 C 0.27429 0.73285 0.14461 0.0
C2151 C 0.2787 0.7696 0.16722 0.0
C2152 C 0.26983 0.73199 0.09907 0.0
C2153 C 0.28053 0.68289 0.09966 0.0
N2154 N 0.27732 0.7574 0.14571 0.0
N2155 N 0.27994 0.69595 0.12055 0.0
H2156 H 0.06906 0.44872 0.82852 0.0
H2157 H 0.06387 0.53649 0.94392 0.0
H2158 H 0.10601 0.51807 0.8322 0.0
H2159 H 0.01981 0.47161 0.93628 0.0
H2160 H 0.07896 0.53048 0.90275 0.0
H2161 H 0.05052 0.45698 0.86791 0.0
C2162 C 0.07324 0.4657 0.83763 0.0
C2163 C 0.08915 0.4827 0.8272 0.0
C2164 C 0.06587 0.51765 0.91002 0.0
C2165 C 0.06805 0.49228 0.87219 0.0
C2166 C 0.05724 0.52106 0.93355 0.0
C2167 C 0.04065 0.50444 0.94365 0.0
C2168 C 0.058 0.49738 0.89655 0.0
C2169 C 0.03263 0.48486 0.92928 0.0
C2170 C 0.0626 0.47044 0.86007 0.0
C2171 C 0.09387 0.50445 0.83968 0.0
N2172 N 0.04152 0.48178 0.90652 0.0
N2173 N 0.08344 0.50858 0.8616 0.0
H2174 H 0.2414 0.26542 0.57043 0.0
H2175 H 0.31304 0.21184 0.65225 0.0
H2176 H 0.30184 0.31178 0.551 0.0
H2177 H 0.33728 0.28616 0.65835 0.0
H2178 H 0.30346 0.21871 0.60931 0.0
H2179 H 0.26842 0.24212 0.59653 0.0
C2180 C 0.26052 0.27021 0.57112 0.0
C2181 C 0.26935 0.29073 0.55893 0.0
C2182 C 0.31179 0.2332 0.61984 0.0
C2183 C 0.30032 0.26438 0.58877 0.0
C2184 C 0.31762 0.22921 0.64419 0.0
C2185 C 0.32556 0.24863 0.65875 0.0
C2186 C 0.31413 0.25671 0.61031 0.0
C2187 C 0.33092 0.27085 0.64763 0.0
C2188 C 0.27603 0.25676 0.5858 0.0
C2189 C 0.29429 0.29617 0.56032 0.0
N2190 N 0.32464 0.27446 0.62409 0.0
N2191 N 0.30876 0.28358 0.57568 0.0
H2192 H 0.42654 0.55755 0.19662 0.0
H2193 H 0.50821 0.48548 0.10141 0.0
H2194 H 0.4524 0.48535 0.21119 0.0
H2195 H 0.46715 0.5499 0.08529 0.0
H2196 H 0.49088 0.48544 0.1425 0.0
H2197 H 0.44557 0.55613 0.15693 0.0
C2198 C 0.43641 0.54142 0.1915 0.0
C2199 C 0.43779 0.52148 0.20712 0.0
C2200 C 0.48566 0.49946 0.12984 0.0
C2201 C 0.45947 0.51958 0.16145 0.0
C2202 C 0.49545 0.49946 0.1064 0.0
C2203 C 0.48924 0.5178 0.0899 0.0
C2204 C 0.46975 0.51801 0.13671 0.0
C2205 C 0.47265 0.53547 0.09735 0.0
C2206 C 0.44718 0.54055 0.16875 0.0
C2207 C 0.45092 0.5011 0.1996 0.0
N2208 N 0.46363 0.53518 0.12018 0.0
N2209 N 0.46122 0.5006 0.17715 0.0
H2210 H 0.27759 0.70321 0.94562 0.0
H2211 H 0.2241 0.65769 0.81803 0.0
H2212 H 0.23191 0.63973 0.93658 0.0
H2213 H 0.27492 0.71754 0.82475 0.0
H2214 H 0.22659 0.65134 0.86165 0.0
H2215 H 0.27579 0.70997 0.90169 0.0
C2216 C 0.26697 0.69087 0.93442 0.0
C2217 C 0.25486 0.67089 0.9447 0.0
C2218 C 0.23731 0.6658 0.85362 0.0
C2219 C 0.25297 0.67831 0.89458 0.0
C2220 C 0.23595 0.66941 0.82866 0.0
C2221 C 0.24927 0.68824 0.8177 0.0
C2222 C 0.25199 0.68121 0.86787 0.0
C2223 C 0.26438 0.70277 0.83243 0.0
C2224 C 0.26609 0.69463 0.90936 0.0
C2225 C 0.24151 0.65536 0.92939 0.0
N2226 N 0.26522 0.69905 0.85682 0.0
N2227 N 0.24097 0.65937 0.90511 0.0
H2228 H 0.05311 0.43637 0.7124 0.0
H2229 H 0.00371 0.52419 0.61318 0.0
H2230 H 0.06064 0.51421 0.71797 0.0
H2231 H 0.9731 0.45254 0.62285 0.0
H2232 H 0.02223 0.52162 0.65336 0.0
H2233 H 0.02164 0.44179 0.68138 0.0
C2234 C 0.04789 0.45457 0.70734 0.0
C2235 C 0.05973 0.47487 0.71742 0.0
C2236 C 0.01103 0.50664 0.64697 0.0
C2237 C 0.02404 0.48118 0.68203 0.0
C2238 C 0.00047 0.50813 0.62405 0.0
C2239 C 0.98708 0.48848 0.61471 0.0
C2240 C 0.00874 0.48506 0.66032 0.0
C2241 C 0.98333 0.46809 0.62948 0.0
C2242 C 0.02988 0.45766 0.68974 0.0
C2243 C 0.05219 0.49805 0.71041 0.0
N2244 N -0.00538 0.46665 0.6514 0.0
N2245 N 0.0351 0.50057 0.69286 0.0
H2246 H 0.20098 0.31 0.45714 0.0
H2247 H 0.2262 0.37861 0.33252 0.0
H2248 H 0.23445 0.38103 0.45348 0.0
H2249 H 0.18258 0.31331 0.33838 0.0
H2250 H 0.22795 0.38103 0.37675 0.0
H2251 H 0.19365 0.3114 0.41349 0.0
C2252 C 0.20687 0.32586 0.4471 0.0
C2253 C 0.21847 0.34537 0.45885 0.0
C2254 C 0.21775 0.36635 0.36834 0.0
C2255 C 0.20999 0.34719 0.40894 0.0
C2256 C 0.21666 0.36499 0.34308 0.0
C2257 C 0.20447 0.34555 0.3317 0.0
C2258 C 0.20673 0.34805 0.38229 0.0
C2259 C 0.19235 0.32851 0.34633 0.0
C2260 C 0.20253 0.32673 0.42221 0.0
C2261 C 0.22555 0.36556 0.44504 0.0
N2262 N 0.19405 0.33 0.37087 0.0
N2263 N 0.2213 0.36591 0.42074 0.0
H2264 H 0.26956 0.38774 0.59733 0.0
H2265 H 0.3451 0.50083 0.55113 0.0
H2266 H 0.25441 0.42829 0.53222 0.0
H2267 H 0.36526 0.45828 0.61332 0.0
H2268 H 0.3046 0.48253 0.55209 0.0
H2269 H 0.29747 0.42008 0.61049 0.0
C2270 C 0.27179 0.40365 0.58602 0.0
C2271 C 0.26015 0.40514 0.56339 0.0
C2272 C 0.31757 0.47761 0.566 0.0
C2273 C 0.29189 0.4421 0.57831 0.0
C2274 C 0.34059 0.48825 0.56556 0.0
C2275 C 0.35837 0.48085 0.58207 0.0
C2276 C 0.31265 0.45889 0.58259 0.0
C2277 C 0.35188 0.46441 0.60033 0.0
C2278 C 0.28768 0.42211 0.59356 0.0
C2279 C 0.26343 0.42621 0.54957 0.0
N2280 N 0.32965 0.45343 0.59973 0.0
N2281 N 0.27925 0.4437 0.5571 0.0
H2282 H 0.80484 0.06182 0.53085 0.0
H2283 H 0.87973 0.01497 0.42231 0.0
H2284 H 0.78663 0.08109 0.45723 0.0
H2285 H 0.87864 0.97975 0.49201 0.0
H2286 H 0.84057 0.03353 0.43178 0.0
H2287 H 0.82721 0.02702 0.51557 0.0
C2288 C 0.80532 0.05848 0.51146 0.0
C2289 C 0.79429 0.07447 0.49524 0.0
C2290 C 0.8484 0.02098 0.44463 0.0
C2291 C 0.82016 0.03497 0.47749 0.0
C2292 C 0.8706 0.01018 0.43906 0.0
C2293 C 0.88235 -0.00388 0.45657 0.0
C2294 C 0.8384 0.01785 0.46793 0.0
C2295 C 0.8701 0.99072 0.47818 0.0
C2296 C 0.81795 0.03853 0.5027 0.0
C2297 C 0.79514 0.06922 0.4703 0.0
N2298 N 0.84906 0.00207 0.48354 0.0
N2299 N 0.80839 0.05021 0.4621 0.0
H2300 H 0.63867 0.02459 0.21856 0.0
H2301 H 0.71131 0.12713 0.29179 0.0
H2302 H 0.66146 0.01838 0.29331 0.0
H2303 H 0.69678 0.13246 0.21495 0.0
H2304 H 0.69511 0.086 0.2915 0.0
H2305 H 0.66116 0.06315 0.21573 0.0
C2306 C 0.64844 0.03133 0.23432 0.0
C2307 C 0.64806 0.01845 0.25626 0.0
C2308 C 0.69561 0.09599 0.2746 0.0
C2309 C 0.67379 0.06222 0.25315 0.0
C2310 C 0.70486 0.11951 0.27477 0.0
C2311 C 0.70513 0.13326 0.2534 0.0
C2312 C 0.6862 0.08615 0.25297 0.0
C2313 C 0.69684 0.12241 0.23181 0.0
C2314 C 0.66133 0.05324 0.23268 0.0
C2315 C 0.66111 0.02782 0.2761 0.0
N2316 N 0.68736 0.09951 0.23219 0.0
N2317 N 0.67333 0.04916 0.27408 0.0
H2318 H 0.71129 0.93151 0.01596 0.0
H2319 H 0.5813 0.95053 0.95445 0.0
H2320 H 0.66877 0.87428 0.98252 0.0
H2321 H 0.61197 0.00016 0.00735 0.0
H2322 H 0.61824 0.92654 0.95656 0.0
H2323 H 0.67912 0.96032 0.00603 0.0
C2324 C 0.69519 0.92504 0.00653 0.0
C2325 C 0.69249 0.90048 0.00028 0.0
C2326 C 0.61698 0.94288 0.96744 0.0
C2327 C 0.65604 0.93326 0.98852 0.0
C2328 C 0.59599 0.95672 0.96611 0.0
C2329 C 0.59335 0.97718 0.98107 0.0
C2330 C 0.63551 0.94962 0.98373 0.0
C2331 C 0.61308 0.98433 -0.00426 0.0
C2332 C 0.67693 0.94146 0.00082 0.0
C2333 C 0.67141 0.89303 0.98792 0.0
N2334 N 0.63325 0.97039 -0.00308 0.0
N2335 N 0.65398 0.90936 0.98244 0.0
H2336 H 0.3561 0.45919 0.2171 0.0
H2337 H 0.22244 0.43062 0.24089 0.0
H2338 H 0.30885 0.51375 0.24669 0.0
H2339 H 0.26111 0.39491 0.18329 0.0
H2340 H 0.25096 0.46472 0.23855 0.0
H2341 H 0.32059 0.43782 0.20062 0.0
C2342 C 0.33824 0.46678 0.21989 0.0
C2343 C 0.33528 0.48794 0.23367 0.0
C2344 C 0.25273 0.4499 0.22574 0.0
C2345 C 0.29465 0.46363 0.215 0.0
C2346 C 0.23631 0.43055 0.22696 0.0
C2347 C 0.23962 0.41003 0.21234 0.0
C2348 C 0.27303 0.44813 0.21045 0.0
C2349 C 0.25801 0.41053 0.19481 0.0
C2350 C 0.318 0.45474 0.21027 0.0
C2351 C 0.31183 0.49727 0.23643 0.0
N2352 N 0.2746 0.42895 0.19488 0.0
N2353 N 0.29232 0.48476 0.22764 0.0
H2354 H 0.18673 0.64267 0.0463 0.0
H2355 H 0.12394 0.51213 0.05924 0.0
H2356 H 0.22669 0.5759 0.04135 0.0
H2357 H 0.08605 0.58014 0.05665 0.0
H2358 H 0.16277 0.53473 0.06116 0.0
H2359 H 0.1508 0.6197 0.05835 0.0
C2360 C 0.18795 0.62314 0.04787 0.0
C2361 C 0.20955 0.61111 0.04244 0.0
C2362 C 0.14589 0.54464 0.06065 0.0
C2363 C 0.16839 0.58456 0.05607 0.0
C2364 C 0.12383 0.53178 0.05975 0.0
C2365 C 0.10198 0.54441 0.0575 0.0
C2366 C 0.1458 0.57015 0.05947 0.0
C2367 C 0.10262 0.5698 0.05805 0.0
C2368 C 0.16743 0.60999 0.05482 0.0
C2369 C 0.21024 0.5858 0.04514 0.0
N2370 N 0.12416 0.58182 0.05875 0.0
N2371 N 0.18981 0.57327 0.05147 0.0
H2372 H 0.69517 0.9302 0.2628 0.0
H2373 H 0.74424 0.81618 0.33566 0.0
H2374 H 0.64982 0.88495 0.30816 0.0
H2375 H 0.78683 0.85821 0.28495 0.0
H2376 H 0.7122 0.84642 0.33326 0.0
H2377 H 0.73069 0.90833 0.27676 0.0
C2378 C 0.69268 0.91557 0.27569 0.0
C2379 C 0.66946 0.90914 0.28408 0.0
C2380 C 0.72881 0.84933 0.32313 0.0
C2381 C 0.71023 0.88406 0.30034 0.0
C2382 C 0.74731 0.83225 0.32477 0.0
C2383 C 0.76809 0.8345 0.31013 0.0
C2384 C 0.73124 0.86876 0.30685 0.0
C2385 C 0.77097 0.85564 0.29628 0.0
C2386 C 0.71303 0.90319 0.28379 0.0
C2387 C 0.66738 0.89028 0.30102 0.0
N2388 N 0.75254 0.87172 0.29462 0.0
N2389 N 0.68753 0.87824 0.30848 0.0
H2390 H 0.84969 0.07116 0.77895 0.0
H2391 H 0.86961 0.21322 0.80089 0.0
H2392 H 0.91691 0.10926 0.7642 0.0
H2393 H 0.79894 0.17941 0.79251 0.0
H2394 H 0.88824 0.17333 0.79778 0.0
H2395 H 0.83212 0.10912 0.79341 0.0
C2396 C 0.86079 0.0875 0.77891 0.0
C2397 C 0.88468 0.08721 0.77011 0.0
C2398 C 0.86864 0.17466 0.79697 0.0
C2399 C 0.8648 0.13047 0.78681 0.0
C2400 C 0.85795 0.19739 0.7989 0.0
C2401 C 0.83267 0.1997 0.79655 0.0
C2402 C 0.85395 0.15412 0.79284 0.0
C2403 C 0.81852 0.17851 0.79407 0.0
C2404 C 0.85076 0.1091 0.78717 0.0
C2405 C 0.89833 0.1088 0.77059 0.0
N2406 N 0.82938 0.1566 0.79204 0.0
N2407 N 0.88815 0.12963 0.77872 0.0
loop_
_geom_bond_atom_site_label_1
_geom_bond_atom_site_label_2
_geom_bond_distance
_geom_bond_site_symmetry_2
_ccdc_geom_bond_type
In0 O1 2.294 . S
In0 O2 2.326 . S
In0 O6 2.266 . S
In0 O7 2.326 . S
In0 O8 2.266 . S
In0 O9 2.326 . S
In0 O11 2.294 1_455 S
In0 O12 2.326 1_455 S
O1 In0 2.294 . S
O1 C10 1.240 . S
O2 In0 2.326 . S
O2 C10 1.252 . S
C3 O6 1.252 . S
C3 O7 1.260 . S
C4 O11 1.240 . S
C4 O12 1.252 . S
C5 O8 1.252 . S
C5 O9 1.260 . S
O6 In0 2.266 . S
O6 C3 1.252 . S
O7 In0 2.326 . S
O7 C3 1.260 . S
O8 In0 2.266 . S
O8 C5 1.252 . S
O9 In0 2.326 . S
O9 C5 1.260 . S
C10 O1 1.240 . S
C10 O2 1.252 . S
O11 In0 2.294 1_655 S
O11 C4 1.240 . S
O12 In0 2.326 1_655 S
O12 C4 1.252 . S
In13 O14 2.294 . S
In13 O15 2.326 . S
In13 O19 2.266 1_455 S
In13 O20 2.326 1_455 S
In13 O21 2.266 . S
In13 O22 2.326 . S
In13 O24 2.294 . S
In13 O25 2.326 . S
O14 In13 2.294 . S
O14 C23 1.240 . S
O15 In13 2.326 . S
O15 C23 1.252 . S
C16 O19 1.252 . S
C16 O20 1.260 . S
C17 O24 1.240 . S
C17 O25 1.252 . S
C18 O21 1.252 . S
C18 O22 1.260 . S
O19 In13 2.266 1_655 S
O19 C16 1.252 . S
O20 In13 2.326 1_655 S
O20 C16 1.260 . S
O21 In13 2.266 . S
O21 C18 1.252 . S
O22 In13 2.326 . S
O22 C18 1.260 . S
C23 O14 1.240 . S
C23 O15 1.252 . S
O24 In13 2.294 . S
O24 C17 1.240 . S
O25 In13 2.326 . S
O25 C17 1.252 . S
In26 O27 2.294 . S
In26 O28 2.326 . S
In26 O32 2.266 . S
In26 O33 2.326 . S
In26 O34 2.266 . S
In26 O35 2.326 . S
In26 O37 2.294 . S
In26 O38 2.326 . S
O27 In26 2.294 . S
O27 C36 1.240 . S
O28 In26 2.326 . S
O28 C36 1.252 . S
C29 O32 1.252 . S
C29 O33 1.260 . S
C30 O37 1.240 . S
C30 O38 1.252 . S
C31 O34 1.252 . S
C31 O35 1.260 . S
O32 In26 2.266 . S
O32 C29 1.252 . S
O33 In26 2.326 . S
O33 C29 1.260 . S
O34 In26 2.266 . S
O34 C31 1.252 . S
O35 In26 2.326 . S
O35 C31 1.260 . S
C36 O27 1.240 . S
C36 O28 1.252 . S
O37 In26 2.294 . S
O37 C30 1.240 . S
O38 In26 2.326 . S
O38 C30 1.252 . S
In39 O40 2.294 . S
In39 O41 2.326 . S
In39 O45 2.266 . S
In39 O46 2.326 . S
In39 O47 2.266 . S
In39 O48 2.326 . S
In39 O50 2.294 . S
In39 O51 2.326 . S
O40 In39 2.294 . S
O40 C49 1.240 . S
O41 In39 2.326 . S
O41 C49 1.252 . S
C42 O45 1.252 . S
C42 O46 1.260 . S
C43 O50 1.240 . S
C43 O51 1.252 . S
C44 O47 1.252 . S
C44 O48 1.260 . S
O45 In39 2.266 . S
O45 C42 1.252 . S
O46 In39 2.326 . S
O46 C42 1.260 . S
O47 In39 2.266 . S
O47 C44 1.252 . S
O48 In39 2.326 . S
O48 C44 1.260 . S
C49 O40 1.240 . S
C49 O41 1.252 . S
O50 In39 2.294 . S
O50 C43 1.240 . S
O51 In39 2.326 . S
O51 C43 1.252 . S
In52 O53 2.294 1_545 S
In52 O54 2.326 1_545 S
In52 O58 2.266 . S
In52 O59 2.326 . S
In52 O60 2.266 . S
In52 O61 2.326 . S
In52 O63 2.294 . S
In52 O64 2.326 . S
O53 In52 2.294 1_565 S
O53 C62 1.240 . S
O54 In52 2.326 1_565 S
O54 C62 1.252 . S
C55 O58 1.252 . S
C55 O59 1.260 . S
C56 O63 1.240 . S
C56 O64 1.252 . S
C57 O60 1.252 . S
C57 O61 1.260 . S
O58 In52 2.266 . S
O58 C55 1.252 . S
O59 In52 2.326 . S
O59 C55 1.260 . S
O60 In52 2.266 . S
O60 C57 1.252 . S
O61 In52 2.326 . S
O61 C57 1.260 . S
C62 O53 1.240 . S
C62 O54 1.252 . S
O63 In52 2.294 . S
O63 C56 1.240 . S
O64 In52 2.326 . S
O64 C56 1.252 . S
In65 O66 2.294 . S
In65 O67 2.326 . S
In65 O71 2.266 . S
In65 O72 2.326 . S
In65 O73 2.266 . S
In65 O74 2.326 . S
In65 O76 2.294 . S
In65 O77 2.326 . S
O66 In65 2.294 . S
O66 C75 1.240 . S
O67 In65 2.326 . S
O67 C75 1.252 . S
C68 O71 1.252 . S
C68 O72 1.260 . S
C69 O76 1.240 . S
C69 O77 1.252 . S
C70 O73 1.252 . S
C70 O74 1.260 . S
O71 In65 2.266 . S
O71 C68 1.252 . S
O72 In65 2.326 . S
O72 C68 1.260 . S
O73 In65 2.266 . S
O73 C70 1.252 . S
O74 In65 2.326 . S
O74 C70 1.260 . S
C75 O66 1.240 . S
C75 O67 1.252 . S
O76 In65 2.294 . S
O76 C69 1.240 . S
O77 In65 2.326 . S
O77 C69 1.252 . S
In78 O79 2.294 . S
In78 O80 2.326 . S
In78 O84 2.266 1_545 S
In78 O85 2.326 1_545 S
In78 O86 2.266 1_545 S
In78 O87 2.326 1_545 S
In78 O89 2.294 . S
In78 O90 2.326 . S
O79 In78 2.294 . S
O79 C88 1.240 . S
O80 In78 2.326 . S
O80 C88 1.252 . S
C81 O84 1.252 . S
C81 O85 1.260 . S
C82 O89 1.240 . S
C82 O90 1.252 . S
C83 O86 1.252 . S
C83 O87 1.260 . S
O84 In78 2.266 1_565 S
O84 C81 1.252 . S
O85 In78 2.326 1_565 S
O85 C81 1.260 . S
O86 In78 2.266 1_565 S
O86 C83 1.252 . S
O87 In78 2.326 1_565 S
O87 C83 1.260 . S
C88 O79 1.240 . S
C88 O80 1.252 . S
O89 In78 2.294 . S
O89 C82 1.240 . S
O90 In78 2.326 . S
O90 C82 1.252 . S
In91 O92 2.294 . S
In91 O93 2.326 . S
In91 O97 2.266 . S
In91 O98 2.326 . S
In91 O99 2.266 1_554 S
In91 O100 2.326 1_554 S
In91 O102 2.294 . S
In91 O103 2.326 . S
O92 In91 2.294 . S
O92 C101 1.240 . S
O93 In91 2.326 . S
O93 C101 1.252 . S
C94 O97 1.252 . S
C94 O98 1.260 . S
C95 O102 1.240 . S
C95 O103 1.252 . S
C96 O99 1.252 . S
C96 O100 1.260 . S
O97 In91 2.266 . S
O97 C94 1.252 . S
O98 In91 2.326 . S
O98 C94 1.260 . S
O99 In91 2.266 1_556 S
O99 C96 1.252 . S
O100 In91 2.326 1_556 S
O100 C96 1.260 . S
C101 O92 1.240 . S
C101 O93 1.252 . S
O102 In91 2.294 . S
O102 C95 1.240 . S
O103 In91 2.326 . S
O103 C95 1.252 . S
In104 O105 2.294 . S
In104 O106 2.326 . S
In104 O110 2.266 1_554 S
In104 O111 2.326 1_554 S
In104 O112 2.266 . S
In104 O113 2.326 . S
In104 O115 2.294 . S
In104 O116 2.326 . S
O105 In104 2.294 . S
O105 C114 1.240 . S
O106 In104 2.326 . S
O106 C114 1.252 . S
C107 O110 1.252 . S
C107 O111 1.260 . S
C108 O115 1.240 . S
C108 O116 1.252 . S
C109 O112 1.252 . S
C109 O113 1.260 . S
O110 In104 2.266 1_556 S
O110 C107 1.252 . S
O111 In104 2.326 1_556 S
O111 C107 1.260 . S
O112 In104 2.266 . S
O112 C109 1.252 . S
O113 In104 2.326 . S
O113 C109 1.260 . S
C114 O105 1.240 . S
C114 O106 1.252 . S
O115 In104 2.294 . S
O115 C108 1.240 . S
O116 In104 2.326 . S
O116 C108 1.252 . S
In117 O118 2.294 . S
In117 O119 2.326 . S
In117 O123 2.266 . S
In117 O124 2.326 . S
In117 O125 2.266 . S
In117 O126 2.326 . S
In117 O128 2.294 . S
In117 O129 2.326 . S
O118 In117 2.294 . S
O118 C127 1.240 . S
O119 In117 2.326 . S
O119 C127 1.252 . S
C120 O123 1.252 . S
C120 O124 1.260 . S
C121 O128 1.240 . S
C121 O129 1.252 . S
C122 O125 1.252 . S
C122 O126 1.260 . S
O123 In117 2.266 . S
O123 C120 1.252 . S
O124 In117 2.326 . S
O124 C120 1.260 . S
O125 In117 2.266 . S
O125 C122 1.252 . S
O126 In117 2.326 . S
O126 C122 1.260 . S
C127 O118 1.240 . S
C127 O119 1.252 . S
O128 In117 2.294 . S
O128 C121 1.240 . S
O129 In117 2.326 . S
O129 C121 1.252 . S
In130 O131 2.294 . S
In130 O132 2.326 . S
In130 O136 2.266 . S
In130 O137 2.326 . S
In130 O138 2.266 . S
In130 O139 2.326 . S
In130 O141 2.294 . S
In130 O142 2.326 . S
O131 In130 2.294 . S
O131 C140 1.240 . S
O132 In130 2.326 . S
O132 C140 1.252 . S
C133 O136 1.252 . S
C133 O137 1.260 . S
C134 O141 1.240 . S
C134 O142 1.252 . S
C135 O138 1.252 . S
C135 O139 1.260 . S
O136 In130 2.266 . S
O136 C133 1.252 . S
O137 In130 2.326 . S
O137 C133 1.260 . S
O138 In130 2.266 . S
O138 C135 1.252 . S
O139 In130 2.326 . S
O139 C135 1.260 . S
C140 O131 1.240 . S
C140 O132 1.252 . S
O141 In130 2.294 . S
O141 C134 1.240 . S
O142 In130 2.326 . S
O142 C134 1.252 . S
In143 O144 2.294 . S
In143 O145 2.326 . S
In143 O149 2.266 . S
In143 O150 2.326 . S
In143 O151 2.266 . S
In143 O152 2.326 . S
In143 O154 2.294 . S
In143 O155 2.326 . S
O144 In143 2.294 . S
O144 C153 1.240 . S
O145 In143 2.326 . S
O145 C153 1.252 . S
C146 O149 1.252 . S
C146 O150 1.260 . S
C147 O154 1.240 . S
C147 O155 1.252 . S
C148 O151 1.252 . S
C148 O152 1.260 . S
O149 In143 2.266 . S
O149 C146 1.252 . S
O150 In143 2.326 . S
O150 C146 1.260 . S
O151 In143 2.266 . S
O151 C148 1.252 . S
O152 In143 2.326 . S
O152 C148 1.260 . S
C153 O144 1.240 . S
C153 O145 1.252 . S
O154 In143 2.294 . S
O154 C147 1.240 . S
O155 In143 2.326 . S
O155 C147 1.252 . S
In156 O157 2.294 . S
In156 O158 2.326 . S
In156 O162 2.266 1_455 S
In156 O163 2.326 1_455 S
In156 O164 2.266 . S
In156 O165 2.326 . S
In156 O167 2.294 . S
In156 O168 2.326 . S
O157 In156 2.294 . S
O157 C166 1.240 . S
O158 In156 2.326 . S
O158 C166 1.252 . S
C159 O162 1.252 . S
C159 O163 1.260 . S
C160 O167 1.240 . S
C160 O168 1.252 . S
C161 O164 1.252 . S
C161 O165 1.260 . S
O162 In156 2.266 1_655 S
O162 C159 1.252 . S
O163 In156 2.326 1_655 S
O163 C159 1.260 . S
O164 In156 2.266 . S
O164 C161 1.252 . S
O165 In156 2.326 . S
O165 C161 1.260 . S
C166 O157 1.240 . S
C166 O158 1.252 . S
O167 In156 2.294 . S
O167 C160 1.240 . S
O168 In156 2.326 . S
O168 C160 1.252 . S
In169 O170 2.294 . S
In169 O171 2.326 . S
In169 O175 2.266 . S
In169 O176 2.326 . S
In169 O177 2.266 1_455 S
In169 O178 2.326 1_455 S
In169 O180 2.294 . S
In169 O181 2.326 . S
O170 In169 2.294 . S
O170 C179 1.240 . S
O171 In169 2.326 . S
O171 C179 1.252 . S
C172 O175 1.252 . S
C172 O176 1.260 . S
C173 O180 1.240 . S
C173 O181 1.252 . S
C174 O177 1.252 . S
C174 O178 1.260 . S
O175 In169 2.266 . S
O175 C172 1.252 . S
O176 In169 2.326 . S
O176 C172 1.260 . S
O177 In169 2.266 1_655 S
O177 C174 1.252 . S
O178 In169 2.326 1_655 S
O178 C174 1.260 . S
C179 O170 1.240 . S
C179 O171 1.252 . S
O180 In169 2.294 . S
O180 C173 1.240 . S
O181 In169 2.326 . S
O181 C173 1.252 . S
In182 O183 2.294 . S
In182 O184 2.326 . S
In182 O188 2.266 . S
In182 O189 2.326 . S
In182 O190 2.266 . S
In182 O191 2.326 . S
In182 O193 2.294 . S
In182 O194 2.326 . S
O183 In182 2.294 . S
O183 C192 1.240 . S
O184 In182 2.326 . S
O184 C192 1.252 . S
C185 O188 1.252 . S
C185 O189 1.260 . S
C186 O193 1.240 . S
C186 O194 1.252 . S
C187 O190 1.252 . S
C187 O191 1.260 . S
O188 In182 2.266 . S
O188 C185 1.252 . S
O189 In182 2.326 . S
O189 C185 1.260 . S
O190 In182 2.266 . S
O190 C187 1.252 . S
O191 In182 2.326 . S
O191 C187 1.260 . S
C192 O183 1.240 . S
C192 O184 1.252 . S
O193 In182 2.294 . S
O193 C186 1.240 . S
O194 In182 2.326 . S
O194 C186 1.252 . S
In195 O196 2.294 . S
In195 O197 2.326 . S
In195 O201 2.266 . S
In195 O202 2.326 . S
In195 O203 2.266 . S
In195 O204 2.326 . S
In195 O206 2.294 . S
In195 O207 2.326 . S
O196 In195 2.294 . S
O196 C205 1.240 . S
O197 In195 2.326 . S
O197 C205 1.252 . S
C198 O201 1.252 . S
C198 O202 1.260 . S
C199 O206 1.240 . S
C199 O207 1.252 . S
C200 O203 1.252 . S
C200 O204 1.260 . S
O201 In195 2.266 . S
O201 C198 1.252 . S
O202 In195 2.326 . S
O202 C198 1.260 . S
O203 In195 2.266 . S
O203 C200 1.252 . S
O204 In195 2.326 . S
O204 C200 1.260 . S
C205 O196 1.240 . S
C205 O197 1.252 . S
O206 In195 2.294 . S
O206 C199 1.240 . S
O207 In195 2.326 . S
O207 C199 1.252 . S
In208 O209 2.294 . S
In208 O210 2.326 . S
In208 O214 2.266 . S
In208 O215 2.326 . S
In208 O216 2.266 1_545 S
In208 O217 2.326 1_545 S
In208 O219 2.294 . S
In208 O220 2.326 . S
O209 In208 2.294 . S
O209 C218 1.240 . S
O210 In208 2.326 . S
O210 C218 1.252 . S
C211 O214 1.252 . S
C211 O215 1.260 . S
C212 O219 1.240 . S
C212 O220 1.252 . S
C213 O216 1.252 . S
C213 O217 1.260 . S
O214 In208 2.266 . S
O214 C211 1.252 . S
O215 In208 2.326 . S
O215 C211 1.260 . S
O216 In208 2.266 1_565 S
O216 C213 1.252 . S
O217 In208 2.326 1_565 S
O217 C213 1.260 . S
C218 O209 1.240 . S
C218 O210 1.252 . S
O219 In208 2.294 . S
O219 C212 1.240 . S
O220 In208 2.326 . S
O220 C212 1.252 . S
In221 O222 2.294 . S
In221 O223 2.326 . S
In221 O227 2.266 . S
In221 O228 2.326 . S
In221 O229 2.266 . S
In221 O230 2.326 . S
In221 O232 2.294 . S
In221 O233 2.326 . S
O222 In221 2.294 . S
O222 C231 1.240 . S
O223 In221 2.326 . S
O223 C231 1.252 . S
C224 O227 1.252 . S
C224 O228 1.260 . S
C225 O232 1.240 . S
C225 O233 1.252 . S
C226 O229 1.252 . S
C226 O230 1.260 . S
O227 In221 2.266 . S
O227 C224 1.252 . S
O228 In221 2.326 . S
O228 C224 1.260 . S
O229 In221 2.266 . S
O229 C226 1.252 . S
O230 In221 2.326 . S
O230 C226 1.260 . S
C231 O222 1.240 . S
C231 O223 1.252 . S
O232 In221 2.294 . S
O232 C225 1.240 . S
O233 In221 2.326 . S
O233 C225 1.252 . S
In234 O235 2.265 1_545 S
In234 O236 2.281 1_545 S
In234 O240 2.295 . S
In234 O241 2.371 . S
In234 O242 2.273 . S
In234 O243 2.329 . S
In234 O245 2.289 1_545 S
In234 O246 2.322 1_545 S
O235 In234 2.265 1_565 S
O235 C244 1.240 . S
O236 In234 2.281 1_565 S
O236 C244 1.252 . S
C237 O240 1.252 . S
C237 O241 1.260 . S
C238 O245 1.240 . S
C238 O246 1.252 . S
C239 O242 1.252 . S
C239 O243 1.260 . S
O240 In234 2.295 . S
O240 C237 1.252 . S
O241 In234 2.371 . S
O241 C237 1.260 . S
O242 In234 2.273 . S
O242 C239 1.252 . S
O243 In234 2.329 . S
O243 C239 1.260 . S
C244 O235 1.240 . S
C244 O236 1.252 . S
O245 In234 2.289 1_565 S
O245 C238 1.240 . S
O246 In234 2.322 1_565 S
O246 C238 1.252 . S
In247 O248 2.294 . S
In247 O249 2.326 . S
In247 O253 2.272 . S
In247 O254 2.326 . S
In247 O255 2.266 1_554 S
In247 O256 2.326 1_554 S
In247 O258 2.294 . S
In247 O259 2.326 . S
O248 In247 2.294 . S
O248 C257 1.240 . S
O249 In247 2.326 . S
O249 C257 1.252 . S
C250 O253 1.253 . S
C250 O254 1.260 . S
C251 O258 1.240 . S
C251 O259 1.252 . S
C252 O255 1.252 . S
C252 O256 1.260 . S
O253 In247 2.272 . S
O253 C250 1.253 . S
O254 In247 2.326 . S
O254 C250 1.260 . S
O255 In247 2.266 1_556 S
O255 C252 1.252 . S
O256 In247 2.326 1_556 S
O256 C252 1.260 . S
C257 O248 1.240 . S
C257 O249 1.252 . S
O258 In247 2.294 . S
O258 C251 1.240 . S
O259 In247 2.326 . S
O259 C251 1.252 . S
In260 O261 2.294 . S
In260 O262 2.326 . S
In260 O266 2.266 1_554 S
In260 O267 2.326 1_554 S
In260 O268 2.266 . S
In260 O269 2.326 . S
In260 O271 2.294 . S
In260 O272 2.326 . S
O261 In260 2.294 . S
O261 C270 1.240 . S
O262 In260 2.326 . S
O262 C270 1.252 . S
C263 O266 1.252 . S
C263 O267 1.260 . S
C264 O271 1.240 . S
C264 O272 1.252 . S
C265 O268 1.252 . S
C265 O269 1.262 . S
O266 In260 2.266 1_556 S
O266 C263 1.252 . S
O267 In260 2.326 1_556 S
O267 C263 1.260 . S
O268 In260 2.266 . S
O268 C265 1.252 . S
O269 In260 2.326 . S
O269 C265 1.262 . S
C270 O261 1.240 . S
C270 O262 1.252 . S
O271 In260 2.294 . S
O271 C264 1.240 . S
O272 In260 2.326 . S
O272 C264 1.252 . S
In273 O274 2.294 . S
In273 O275 2.326 . S
In273 O279 2.266 . S
In273 O280 2.326 . S
In273 O281 2.266 . S
In273 O282 2.326 . S
In273 O284 2.294 . S
In273 O285 2.326 . S
O274 In273 2.294 . S
O274 C283 1.240 . S
O275 In273 2.326 . S
O275 C283 1.252 . S
C276 O279 1.252 . S
C276 O280 1.260 . S
C277 O284 1.240 . S
C277 O285 1.252 . S
C278 O281 1.252 . S
C278 O282 1.260 . S
O279 In273 2.266 . S
O279 C276 1.252 . S
O280 In273 2.326 . S
O280 C276 1.260 . S
O281 In273 2.266 . S
O281 C278 1.252 . S
O282 In273 2.326 . S
O282 C278 1.260 . S
C283 O274 1.240 . S
C283 O275 1.252 . S
O284 In273 2.294 . S
O284 C277 1.240 . S
O285 In273 2.326 . S
O285 C277 1.252 . S
In286 O287 2.294 . S
In286 O288 2.326 . S
In286 O292 2.266 . S
In286 O293 2.326 . S
In286 O294 2.266 . S
In286 O295 2.326 . S
In286 O297 2.294 . S
In286 O298 2.326 . S
O287 In286 2.294 . S
O287 C296 1.240 . S
O288 In286 2.326 . S
O288 C296 1.252 . S
C289 O292 1.252 . S
C289 O293 1.260 . S
C290 O297 1.240 . S
C290 O298 1.252 . S
C291 O294 1.252 . S
C291 O295 1.260 . S
O292 In286 2.266 . S
O292 C289 1.252 . S
O293 In286 2.326 . S
O293 C289 1.260 . S
O294 In286 2.266 . S
O294 C291 1.252 . S
O295 In286 2.326 . S
O295 C291 1.260 . S
C296 O287 1.240 . S
C296 O288 1.252 . S
O297 In286 2.294 . S
O297 C290 1.240 . S
O298 In286 2.326 . S
O298 C290 1.252 . S
In299 O300 2.294 . S
In299 O301 2.326 . S
In299 O305 2.266 . S
In299 O306 2.326 . S
In299 O307 2.266 . S
In299 O308 2.326 . S
In299 O310 2.294 . S
In299 O311 2.326 . S
O300 In299 2.294 . S
O300 C309 1.240 . S
O301 In299 2.326 . S
O301 C309 1.252 . S
C302 O305 1.252 . S
C302 O306 1.260 . S
C303 O310 1.240 . S
C303 O311 1.252 . S
C304 O307 1.252 . S
C304 O308 1.260 . S
O305 In299 2.266 . S
O305 C302 1.252 . S
O306 In299 2.326 . S
O306 C302 1.260 . S
O307 In299 2.266 . S
O307 C304 1.252 . S
O308 In299 2.326 . S
O308 C304 1.260 . S
C309 O300 1.240 . S
C309 O301 1.252 . S
O310 In299 2.294 . S
O310 C303 1.240 . S
O311 In299 2.326 . S
O311 C303 1.252 . S
O312 Zn313 1.953 . S
O312 C328 1.225 1_455 S
Zn313 O312 1.953 . S
Zn313 O314 1.955 . S
Zn313 O320 1.919 1_554 S
Zn313 O325 1.924 1_454 S
O314 Zn313 1.955 . S
O314 Zn315 1.937 1_545 S
O314 Zn316 1.939 1_455 S
O314 Zn317 1.936 1_444 S
Zn315 O314 1.937 1_565 S
Zn315 O318 1.933 . S
Zn315 O321 1.941 1_565 S
Zn315 O322 1.965 . S
Zn316 O314 1.939 1_655 S
Zn316 O323 1.938 . S
Zn316 O324 1.906 1_545 S
Zn316 O334 1.953 . S
Zn317 O314 1.936 1_666 S
Zn317 O319 1.932 . S
Zn317 O326 1.977 1_556 S
Zn317 O327 1.910 1_565 S
O318 Zn315 1.933 . S
O318 C329 1.226 1_554 S
O319 Zn317 1.932 . S
O319 C329 1.307 1_655 S
O320 Zn313 1.919 1_556 S
O320 C331 1.253 1_556 S
O321 Zn315 1.941 1_545 S
O321 C331 1.283 . S
O322 Zn315 1.965 . S
O322 C330 1.303 . S
O323 Zn316 1.938 . S
O323 C330 1.247 1_645 S
O324 Zn316 1.906 1_565 S
O324 C332 1.304 . S
O325 Zn313 1.924 1_656 S
O325 C333 1.311 . S
O326 Zn317 1.977 1_554 S
O326 C332 1.272 . S
O327 Zn317 1.910 1_545 S
O327 C333 1.231 . S
C328 O312 1.225 1_655 S
C328 O334 1.298 . S
C329 O318 1.226 1_556 S
C329 O319 1.307 1_455 S
C330 O322 1.303 . S
C330 O323 1.247 1_465 S
C331 O320 1.253 1_554 S
C331 O321 1.283 . S
C332 O324 1.304 . S
C332 O326 1.272 . S
C333 O325 1.311 . S
C333 O327 1.231 . S
O334 Zn316 1.953 . S
O334 C328 1.298 . S
O335 Zn336 1.953 . S
O335 C351 1.225 . S
Zn336 O335 1.953 . S
Zn336 O337 1.949 . S
Zn336 O343 1.919 . S
Zn336 O348 1.924 . S
O337 Zn336 1.949 . S
O337 Zn338 1.923 . S
O337 Zn339 1.950 . S
O337 Zn340 1.945 . S
Zn338 O337 1.923 . S
Zn338 O341 1.933 . S
Zn338 O344 1.941 . S
Zn338 O345 1.965 . S
Zn339 O337 1.950 . S
Zn339 O346 1.938 . S
Zn339 O347 1.906 . S
Zn339 O357 1.953 . S
Zn340 O337 1.945 . S
Zn340 O342 1.932 . S
Zn340 O349 1.977 . S
Zn340 O350 1.910 . S
O341 Zn338 1.933 . S
O341 C352 1.226 . S
O342 Zn340 1.932 . S
O342 C352 1.307 . S
O343 Zn336 1.919 . S
O343 C354 1.253 . S
O344 Zn338 1.941 . S
O344 C354 1.283 . S
O345 Zn338 1.965 . S
O345 C353 1.303 . S
O346 Zn339 1.938 . S
O346 C353 1.247 . S
O347 Zn339 1.906 . S
O347 C355 1.304 . S
O348 Zn336 1.924 . S
O348 C356 1.311 . S
O349 Zn340 1.977 . S
O349 C355 1.272 . S
O350 Zn340 1.910 . S
O350 C356 1.231 . S
C351 O335 1.225 . S
C351 O357 1.298 . S
C352 O341 1.226 . S
C352 O342 1.307 . S
C353 O345 1.303 . S
C353 O346 1.247 . S
C354 O343 1.253 . S
C354 O344 1.283 . S
C355 O347 1.304 . S
C355 O349 1.272 . S
C356 O348 1.311 . S
C356 O350 1.231 . S
O357 Zn339 1.953 . S
O357 C351 1.298 . S
O358 Zn359 1.953 . S
O358 C374 1.225 . S
Zn359 O358 1.953 . S
Zn359 O360 1.949 1_565 S
Zn359 O366 1.919 . S
Zn359 O371 1.924 . S
O360 Zn359 1.949 1_545 S
O360 Zn361 1.923 . S
O360 Zn362 1.950 . S
O360 Zn363 1.945 . S
Zn361 O360 1.923 . S
Zn361 O364 1.933 . S
Zn361 O367 1.941 . S
Zn361 O368 1.965 . S
Zn362 O360 1.950 . S
Zn362 O369 1.938 . S
Zn362 O370 1.906 . S
Zn362 O380 1.953 1_545 S
Zn363 O360 1.945 . S
Zn363 O365 1.932 . S
Zn363 O372 1.977 . S
Zn363 O373 1.910 . S
O364 Zn361 1.933 . S
O364 C375 1.226 . S
O365 Zn363 1.932 . S
O365 C375 1.307 . S
O366 Zn359 1.919 . S
O366 C377 1.253 1_565 S
O367 Zn361 1.941 . S
O367 C377 1.283 . S
O368 Zn361 1.965 . S
O368 C376 1.303 . S
O369 Zn362 1.938 . S
O369 C376 1.247 . S
O370 Zn362 1.906 . S
O370 C378 1.304 . S
O371 Zn359 1.924 . S
O371 C379 1.311 . S
O372 Zn363 1.977 . S
O372 C378 1.272 . S
O373 Zn363 1.910 . S
O373 C379 1.231 1_545 S
C374 O358 1.225 . S
C374 O380 1.298 . S
C375 O364 1.226 . S
C375 O365 1.307 . S
C376 O368 1.303 . S
C376 O369 1.247 . S
C377 O366 1.253 1_545 S
C377 O367 1.283 . S
C378 O370 1.304 . S
C378 O372 1.272 . S
C379 O371 1.311 . S
C379 O373 1.231 1_565 S
O380 Zn362 1.953 1_565 S
O380 C374 1.298 . S
O381 Zn382 1.953 . S
O381 C397 1.225 . S
Zn382 O381 1.953 . S
Zn382 O383 1.949 . S
Zn382 O389 1.919 . S
Zn382 O394 1.924 . S
O383 Zn382 1.949 . S
O383 Zn384 1.923 . S
O383 Zn385 1.950 . S
O383 Zn386 1.945 . S
Zn384 O383 1.923 . S
Zn384 O387 1.933 . S
Zn384 O390 1.941 . S
Zn384 O391 1.965 . S
Zn385 O383 1.950 . S
Zn385 O392 1.938 . S
Zn385 O393 1.906 . S
Zn385 O403 1.953 . S
Zn386 O383 1.945 . S
Zn386 O388 1.932 . S
Zn386 O395 1.977 . S
Zn386 O396 1.910 . S
O387 Zn384 1.933 . S
O387 C398 1.226 . S
O388 Zn386 1.932 . S
O388 C398 1.307 . S
O389 Zn382 1.919 . S
O389 C400 1.253 . S
O390 Zn384 1.941 . S
O390 C400 1.283 . S
O391 Zn384 1.965 . S
O391 C399 1.303 . S
O392 Zn385 1.938 . S
O392 C399 1.247 . S
O393 Zn385 1.906 . S
O393 C401 1.304 . S
O394 Zn382 1.924 . S
O394 C402 1.311 . S
O395 Zn386 1.977 . S
O395 C401 1.272 . S
O396 Zn386 1.910 . S
O396 C402 1.231 . S
C397 O381 1.225 . S
C397 O403 1.298 . S
C398 O387 1.226 . S
C398 O388 1.307 . S
C399 O391 1.303 . S
C399 O392 1.247 . S
C400 O389 1.253 . S
C400 O390 1.283 . S
C401 O393 1.304 . S
C401 O395 1.272 . S
C402 O394 1.311 . S
C402 O396 1.231 . S
O403 Zn385 1.953 . S
O403 C397 1.298 . S
O404 Zn405 1.953 1_455 S
O404 C420 1.225 . S
Zn405 O404 1.953 1_655 S
Zn405 O406 1.949 1_655 S
Zn405 O412 1.919 1_545 S
Zn405 O417 1.924 . S
O406 Zn405 1.949 1_455 S
O406 Zn407 1.923 1_545 S
O406 Zn408 1.950 . S
O406 Zn409 1.945 1_455 S
Zn407 O406 1.923 1_565 S
Zn407 O410 1.933 . S
Zn407 O413 1.941 . S
Zn407 O414 1.965 . S
Zn408 O406 1.950 . S
Zn408 O415 1.938 . S
Zn408 O416 1.906 . S
Zn408 O426 1.953 . S
Zn409 O406 1.945 1_655 S
Zn409 O411 1.932 . S
Zn409 O418 1.990 . S
Zn409 O419 1.910 . S
O410 Zn407 1.933 . S
O410 C421 1.226 1_465 S
O411 Zn409 1.932 . S
O411 C421 1.307 . S
O412 Zn405 1.919 1_565 S
O412 C423 1.253 . S
O413 Zn407 1.941 . S
O413 C423 1.283 1_455 S
O414 Zn407 1.965 . S
O414 C422 1.303 1_565 S
O415 Zn408 1.938 . S
O415 C422 1.247 . S
O416 Zn408 1.906 . S
O416 C424 1.304 . S
O417 Zn405 1.924 . S
O417 C425 1.311 . S
O418 Zn409 1.990 . S
O418 C424 1.240 1_655 S
O419 Zn409 1.910 . S
O419 C425 1.231 . S
C420 O404 1.225 . S
C420 O426 1.298 . S
C421 O410 1.226 1_645 S
C421 O411 1.307 . S
C422 O414 1.303 1_545 S
C422 O415 1.247 . S
C423 O412 1.253 . S
C423 O413 1.283 1_655 S
C424 O416 1.304 . S
C424 O418 1.240 1_455 S
C425 O417 1.311 . S
C425 O419 1.231 . S
O426 Zn408 1.953 . S
O426 C420 1.298 . S
O427 Zn428 1.953 . S
O427 C443 1.225 . S
Zn428 O427 1.953 . S
Zn428 O429 1.949 . S
Zn428 O435 1.919 . S
Zn428 O440 1.924 . S
O429 Zn428 1.949 . S
O429 Zn430 1.923 . S
O429 Zn431 1.950 . S
O429 Zn432 1.945 . S
Zn430 O429 1.923 . S
Zn430 O433 1.933 . S
Zn430 O436 1.941 . S
Zn430 O437 1.965 . S
Zn431 O429 1.950 . S
Zn431 O438 1.938 . S
Zn431 O439 1.906 . S
Zn431 O449 1.953 . S
Zn432 O429 1.945 . S
Zn432 O434 1.932 . S
Zn432 O441 1.977 . S
Zn432 O442 1.910 . S
O433 Zn430 1.933 . S
O433 C444 1.226 . S
O434 Zn432 1.932 . S
O434 C444 1.307 . S
O435 Zn428 1.919 . S
O435 C446 1.253 . S
O436 Zn430 1.941 . S
O436 C446 1.283 . S
O437 Zn430 1.965 . S
O437 C445 1.303 . S
O438 Zn431 1.938 . S
O438 C445 1.247 . S
O439 Zn431 1.906 . S
O439 C447 1.304 . S
O440 Zn428 1.924 . S
O440 C448 1.311 . S
O441 Zn432 1.977 . S
O441 C447 1.272 . S
O442 Zn432 1.910 . S
O442 C448 1.231 . S
C443 O427 1.225 . S
C443 O449 1.298 . S
C444 O433 1.226 . S
C444 O434 1.307 . S
C445 O437 1.303 . S
C445 O438 1.247 . S
C446 O435 1.253 . S
C446 O436 1.283 . S
C447 O439 1.304 . S
C447 O441 1.272 . S
C448 O440 1.311 . S
C448 O442 1.231 . S
O449 Zn431 1.953 . S
O449 C443 1.298 . S
O450 Zn451 1.953 . S
O450 C466 1.225 . S
Zn451 O450 1.953 . S
Zn451 O452 1.949 . S
Zn451 O458 1.919 1_545 S
Zn451 O463 1.924 . S
O452 Zn451 1.949 . S
O452 Zn453 1.923 1_545 S
O452 Zn454 1.950 . S
O452 Zn455 1.945 1_554 S
Zn453 O452 1.923 1_565 S
Zn453 O456 1.933 1_554 S
Zn453 O459 1.941 . S
Zn453 O460 1.965 . S
Zn454 O452 1.950 . S
Zn454 O461 1.938 1_545 S
Zn454 O462 1.906 . S
Zn454 O472 1.953 . S
Zn455 O452 1.945 1_556 S
Zn455 O457 1.932 . S
Zn455 O464 1.977 1_556 S
Zn455 O465 1.910 . S
O456 Zn453 1.933 1_556 S
O456 C467 1.226 . S
O457 Zn455 1.932 . S
O457 C467 1.307 1_545 S
O458 Zn451 1.919 1_565 S
O458 C469 1.267 . S
O459 Zn453 1.941 . S
O459 C469 1.285 . S
O460 Zn453 1.965 . S
O460 C468 1.303 . S
O461 Zn454 1.938 1_565 S
O461 C468 1.247 . S
O462 Zn454 1.906 . S
O462 C470 1.304 . S
O463 Zn451 1.924 . S
O463 C471 1.311 . S
O464 Zn455 1.977 1_554 S
O464 C470 1.272 . S
O465 Zn455 1.910 . S
O465 C471 1.231 1_556 S
C466 O450 1.225 . S
C466 O472 1.298 . S
C467 O456 1.226 . S
C467 O457 1.307 1_565 S
C468 O460 1.303 . S
C468 O461 1.247 . S
C469 O458 1.267 . S
C469 O459 1.285 . S
C470 O462 1.304 . S
C470 O464 1.272 . S
C471 O463 1.311 . S
C471 O465 1.231 1_554 S
O472 Zn454 1.953 . S
O472 C466 1.298 . S
O473 Zn474 1.953 . S
O473 C489 1.225 . S
Zn474 O473 1.953 . S
Zn474 O475 1.949 . S
Zn474 O481 1.919 . S
Zn474 O486 1.924 . S
O475 Zn474 1.949 . S
O475 Zn476 1.923 . S
O475 Zn477 1.950 . S
O475 Zn478 1.945 . S
Zn476 O475 1.923 . S
Zn476 O479 1.933 . S
Zn476 O482 1.941 . S
Zn476 O483 1.965 . S
Zn477 O475 1.950 . S
Zn477 O484 1.938 . S
Zn477 O485 1.906 . S
Zn477 O495 1.953 . S
Zn478 O475 1.945 . S
Zn478 O480 1.932 . S
Zn478 O487 1.977 . S
Zn478 O488 1.910 . S
O479 Zn476 1.933 . S
O479 C490 1.226 . S
O480 Zn478 1.932 . S
O480 C490 1.307 . S
O481 Zn474 1.919 . S
O481 C492 1.253 . S
O482 Zn476 1.941 . S
O482 C492 1.283 . S
O483 Zn476 1.965 . S
O483 C491 1.303 . S
O484 Zn477 1.938 . S
O484 C491 1.247 . S
O485 Zn477 1.906 . S
O485 C493 1.304 . S
O486 Zn474 1.924 . S
O486 C494 1.311 . S
O487 Zn478 1.977 . S
O487 C493 1.272 . S
O488 Zn478 1.910 . S
O488 C494 1.231 . S
C489 O473 1.225 . S
C489 O495 1.298 . S
C490 O479 1.226 . S
C490 O480 1.307 . S
C491 O483 1.303 . S
C491 O484 1.247 . S
C492 O481 1.253 . S
C492 O482 1.283 . S
C493 O485 1.304 . S
C493 O487 1.272 . S
C494 O486 1.311 . S
C494 O488 1.231 . S
O495 Zn477 1.953 . S
O495 C489 1.298 . S
O496 Zn497 1.953 . S
O496 C512 1.225 . S
Zn497 O496 1.953 . S
Zn497 O498 1.949 1_556 S
Zn497 O504 1.919 . S
Zn497 O509 1.924 . S
O498 Zn497 1.949 1_554 S
O498 Zn499 1.923 . S
O498 Zn500 1.950 . S
O498 Zn501 1.945 . S
Zn499 O498 1.923 . S
Zn499 O502 1.933 . S
Zn499 O505 1.941 . S
Zn499 O506 1.965 . S
Zn500 O498 1.950 . S
Zn500 O507 1.938 . S
Zn500 O508 1.906 . S
Zn500 O518 1.953 1_554 S
Zn501 O498 1.945 . S
Zn501 O503 1.932 . S
Zn501 O510 1.977 . S
Zn501 O511 1.910 . S
O502 Zn499 1.933 . S
O502 C513 1.226 . S
O503 Zn501 1.932 . S
O503 C513 1.307 . S
O504 Zn497 1.919 . S
O504 C515 1.253 1_556 S
O505 Zn499 1.941 . S
O505 C515 1.283 . S
O506 Zn499 1.965 . S
O506 C514 1.303 . S
O507 Zn500 1.938 . S
O507 C514 1.247 . S
O508 Zn500 1.906 . S
O508 C516 1.304 . S
O509 Zn497 1.924 . S
O509 C517 1.311 . S
O510 Zn501 1.977 . S
O510 C516 1.272 . S
O511 Zn501 1.910 . S
O511 C517 1.231 1_554 S
C512 O496 1.225 . S
C512 O518 1.298 . S
C513 O502 1.226 . S
C513 O503 1.307 . S
C514 O506 1.303 . S
C514 O507 1.247 . S
C515 O504 1.253 1_554 S
C515 O505 1.283 . S
C516 O508 1.304 . S
C516 O510 1.272 . S
C517 O509 1.311 . S
C517 O511 1.231 1_556 S
O518 Zn500 1.953 1_556 S
O518 C512 1.298 . S
O519 Zn520 1.953 . S
O519 C535 1.225 . S
Zn520 O519 1.953 . S
Zn520 O521 1.949 . S
Zn520 O527 1.919 . S
Zn520 O532 1.924 . S
O521 Zn520 1.949 . S
O521 Zn522 1.923 . S
O521 Zn523 1.950 . S
O521 Zn524 1.945 . S
Zn522 O521 1.923 . S
Zn522 O525 1.933 . S
Zn522 O528 1.941 . S
Zn522 O529 1.965 . S
Zn523 O521 1.950 . S
Zn523 O530 1.938 . S
Zn523 O531 1.906 . S
Zn523 O541 1.953 . S
Zn524 O521 1.945 . S
Zn524 O526 1.932 . S
Zn524 O533 1.977 . S
Zn524 O534 1.910 . S
O525 Zn522 1.933 . S
O525 C536 1.226 . S
O526 Zn524 1.932 . S
O526 C536 1.307 . S
O527 Zn520 1.919 . S
O527 C538 1.253 . S
O528 Zn522 1.941 . S
O528 C538 1.283 . S
O529 Zn522 1.965 . S
O529 C537 1.303 . S
O530 Zn523 1.938 . S
O530 C537 1.247 . S
O531 Zn523 1.906 . S
O531 C539 1.304 . S
O532 Zn520 1.924 . S
O532 C540 1.311 . S
O533 Zn524 1.977 . S
O533 C539 1.272 . S
O534 Zn524 1.910 . S
O534 C540 1.231 . S
C535 O519 1.225 . S
C535 O541 1.298 . S
C536 O525 1.226 . S
C536 O526 1.307 . S
C537 O529 1.303 . S
C537 O530 1.247 . S
C538 O527 1.253 . S
C538 O528 1.283 . S
C539 O531 1.304 . S
C539 O533 1.272 . S
C540 O532 1.311 . S
C540 O534 1.231 . S
O541 Zn523 1.953 . S
O541 C535 1.298 . S
O542 Zn543 1.953 . S
O542 C558 1.225 . S
Zn543 O542 1.953 . S
Zn543 O544 1.949 . S
Zn543 O550 1.919 . S
Zn543 O555 1.924 . S
O544 Zn543 1.949 . S
O544 Zn545 1.923 . S
O544 Zn546 1.950 1_455 S
O544 Zn547 1.945 1_455 S
Zn545 O544 1.923 . S
Zn545 O548 1.933 1_455 S
Zn545 O551 1.941 . S
Zn545 O552 1.965 1_455 S
Zn546 O544 1.950 1_655 S
Zn546 O553 1.938 . S
Zn546 O554 1.906 . S
Zn546 O564 1.953 1_655 S
Zn547 O544 1.945 1_655 S
Zn547 O549 1.932 . S
Zn547 O556 1.977 . S
Zn547 O557 1.910 1_655 S
O548 Zn545 1.933 1_655 S
O548 C559 1.226 . S
O549 Zn547 1.932 . S
O549 C559 1.307 . S
O550 Zn543 1.919 . S
O550 C561 1.253 . S
O551 Zn545 1.941 . S
O551 C561 1.283 . S
O552 Zn545 1.965 1_655 S
O552 C560 1.303 . S
O553 Zn546 1.938 . S
O553 C560 1.247 . S
O554 Zn546 1.906 . S
O554 C562 1.304 . S
O555 Zn543 1.924 . S
O555 C563 1.311 . S
O556 Zn547 1.977 . S
O556 C562 1.272 . S
O557 Zn547 1.910 1_455 S
O557 C563 1.231 . S
C558 O542 1.225 . S
C558 O564 1.298 . S
C559 O548 1.226 . S
C559 O549 1.307 . S
C560 O552 1.303 . S
C560 O553 1.247 . S
C561 O550 1.253 . S
C561 O551 1.283 . S
C562 O554 1.304 . S
C562 O556 1.272 . S
C563 O555 1.311 . S
C563 O557 1.231 . S
O564 Zn546 1.953 1_455 S
O564 C558 1.298 . S
O565 Zn566 1.953 . S
O565 C581 1.225 . S
Zn566 O565 1.953 . S
Zn566 O567 1.949 . S
Zn566 O573 1.919 . S
Zn566 O578 1.924 . S
O567 Zn566 1.949 . S
O567 Zn568 1.923 . S
O567 Zn569 1.950 . S
O567 Zn570 1.945 . S
Zn568 O567 1.923 . S
Zn568 O571 1.933 . S
Zn568 O574 1.941 . S
Zn568 O575 1.965 . S
Zn569 O567 1.950 . S
Zn569 O576 1.938 . S
Zn569 O577 1.906 . S
Zn569 O587 1.953 . S
Zn570 O567 1.945 . S
Zn570 O572 1.932 . S
Zn570 O579 1.977 . S
Zn570 O580 1.910 . S
O571 Zn568 1.933 . S
O571 C582 1.226 . S
O572 Zn570 1.932 . S
O572 C582 1.307 . S
O573 Zn566 1.919 . S
O573 C584 1.253 . S
O574 Zn568 1.941 . S
O574 C584 1.283 . S
O575 Zn568 1.965 . S
O575 C583 1.303 . S
O576 Zn569 1.938 . S
O576 C583 1.247 . S
O577 Zn569 1.906 . S
O577 C585 1.304 . S
O578 Zn566 1.924 . S
O578 C586 1.311 . S
O579 Zn570 1.977 . S
O579 C585 1.272 . S
O580 Zn570 1.910 . S
O580 C586 1.231 . S
C581 O565 1.225 . S
C581 O587 1.298 . S
C582 O571 1.226 . S
C582 O572 1.307 . S
C583 O575 1.303 . S
C583 O576 1.247 . S
C584 O573 1.253 . S
C584 O574 1.283 . S
C585 O577 1.304 . S
C585 O579 1.272 . S
C586 O578 1.311 . S
C586 O580 1.231 . S
O587 Zn569 1.953 . S
O587 C581 1.298 . S
O588 Zn589 1.953 . S
O588 C604 1.225 . S
Zn589 O588 1.953 . S
Zn589 O590 1.949 . S
Zn589 O596 1.919 . S
Zn589 O601 1.924 . S
O590 Zn589 1.949 . S
O590 Zn591 1.923 . S
O590 Zn592 1.950 . S
O590 Zn593 1.945 . S
Zn591 O590 1.923 . S
Zn591 O594 1.933 . S
Zn591 O597 1.941 . S
Zn591 O598 1.965 . S
Zn592 O590 1.950 . S
Zn592 O599 1.938 . S
Zn592 O600 1.906 . S
Zn592 O610 1.953 . S
Zn593 O590 1.945 . S
Zn593 O595 1.932 . S
Zn593 O602 1.977 . S
Zn593 O603 1.910 . S
O594 Zn591 1.933 . S
O594 C605 1.226 . S
O595 Zn593 1.932 . S
O595 C605 1.307 . S
O596 Zn589 1.919 . S
O596 C607 1.253 . S
O597 Zn591 1.941 . S
O597 C607 1.283 . S
O598 Zn591 1.965 . S
O598 C606 1.303 . S
O599 Zn592 1.938 . S
O599 C606 1.247 . S
O600 Zn592 1.906 . S
O600 C608 1.304 . S
O601 Zn589 1.924 . S
O601 C609 1.311 . S
O602 Zn593 1.977 . S
O602 C608 1.272 . S
O603 Zn593 1.910 . S
O603 C609 1.231 . S
C604 O588 1.225 . S
C604 O610 1.298 . S
C605 O594 1.226 . S
C605 O595 1.307 . S
C606 O598 1.303 . S
C606 O599 1.247 . S
C607 O596 1.253 . S
C607 O597 1.283 . S
C608 O600 1.304 . S
C608 O602 1.272 . S
C609 O601 1.311 . S
C609 O603 1.231 . S
O610 Zn592 1.953 . S
O610 C604 1.298 . S
O611 Zn612 1.953 . S
O611 C627 1.225 . S
Zn612 O611 1.953 . S
Zn612 O613 1.949 . S
Zn612 O619 1.919 . S
Zn612 O624 1.924 . S
O613 Zn612 1.949 . S
O613 Zn614 1.923 . S
O613 Zn615 1.950 . S
O613 Zn616 1.945 . S
Zn614 O613 1.923 . S
Zn614 O617 1.933 . S
Zn614 O620 1.941 . S
Zn614 O621 1.965 . S
Zn615 O613 1.950 . S
Zn615 O622 1.938 . S
Zn615 O623 1.906 . S
Zn615 O633 1.953 . S
Zn616 O613 1.945 . S
Zn616 O618 1.932 . S
Zn616 O625 1.977 . S
Zn616 O626 1.910 . S
O617 Zn614 1.933 . S
O617 C628 1.226 . S
O618 Zn616 1.932 . S
O618 C628 1.307 . S
O619 Zn612 1.919 . S
O619 C630 1.253 . S
O620 Zn614 1.941 . S
O620 C630 1.283 . S
O621 Zn614 1.965 . S
O621 C629 1.303 . S
O622 Zn615 1.938 . S
O622 C629 1.247 . S
O623 Zn615 1.906 . S
O623 C631 1.304 . S
O624 Zn612 1.924 . S
O624 C632 1.311 . S
O625 Zn616 1.977 . S
O625 C631 1.272 . S
O626 Zn616 1.910 . S
O626 C632 1.231 . S
C627 O611 1.225 . S
C627 O633 1.298 . S
C628 O617 1.226 . S
C628 O618 1.307 . S
C629 O621 1.303 . S
C629 O622 1.247 . S
C630 O619 1.253 . S
C630 O620 1.283 . S
C631 O623 1.304 . S
C631 O625 1.272 . S
C632 O624 1.311 . S
C632 O626 1.231 . S
O633 Zn615 1.953 . S
O633 C627 1.298 . S
O634 Zn635 1.953 . S
O634 C650 1.225 . S
Zn635 O634 1.953 . S
Zn635 O636 1.949 . S
Zn635 O642 1.919 . S
Zn635 O647 1.924 . S
O636 Zn635 1.949 . S
O636 Zn637 1.923 . S
O636 Zn638 1.950 . S
O636 Zn639 1.945 . S
Zn637 O636 1.923 . S
Zn637 O640 1.933 . S
Zn637 O643 1.941 . S
Zn637 O644 1.965 . S
Zn638 O636 1.950 . S
Zn638 O645 1.938 . S
Zn638 O646 1.906 . S
Zn638 O656 1.953 . S
Zn639 O636 1.945 . S
Zn639 O641 1.932 . S
Zn639 O648 1.977 . S
Zn639 O649 1.910 . S
O640 Zn637 1.933 . S
O640 C651 1.226 . S
O641 Zn639 1.932 . S
O641 C651 1.307 . S
O642 Zn635 1.919 . S
O642 C653 1.253 . S
O643 Zn637 1.941 . S
O643 C653 1.283 . S
O644 Zn637 1.965 . S
O644 C652 1.303 . S
O645 Zn638 1.938 . S
O645 C652 1.247 . S
O646 Zn638 1.906 . S
O646 C654 1.304 . S
O647 Zn635 1.924 . S
O647 C655 1.311 . S
O648 Zn639 1.977 . S
O648 C654 1.272 . S
O649 Zn639 1.910 . S
O649 C655 1.231 . S
C650 O634 1.225 . S
C650 O656 1.298 . S
C651 O640 1.226 . S
C651 O641 1.307 . S
C652 O644 1.303 . S
C652 O645 1.247 . S
C653 O642 1.253 . S
C653 O643 1.283 . S
C654 O646 1.304 . S
C654 O648 1.272 . S
C655 O647 1.311 . S
C655 O649 1.231 . S
O656 Zn638 1.953 . S
O656 C650 1.298 . S
O657 Zn658 1.953 . S
O657 C673 1.225 . S
Zn658 O657 1.953 . S
Zn658 O659 1.949 . S
Zn658 O665 1.919 1_454 S
Zn658 O670 1.924 1_554 S
O659 Zn658 1.949 . S
O659 Zn660 1.923 1_455 S
O659 Zn661 1.950 . S
O659 Zn662 1.945 1_554 S
Zn660 O659 1.923 1_655 S
Zn660 O663 1.933 . S
Zn660 O666 1.941 . S
Zn660 O667 1.965 . S
Zn661 O659 1.950 . S
Zn661 O668 1.938 . S
Zn661 O669 1.906 . S
Zn661 O679 1.953 . S
Zn662 O659 1.945 1_556 S
Zn662 O664 1.932 . S
Zn662 O671 1.977 1_556 S
Zn662 O672 1.910 . S
O663 Zn660 1.933 . S
O663 C674 1.211 1_654 S
O664 Zn662 1.932 . S
O664 C674 1.330 . S
O665 Zn658 1.919 1_656 S
O665 C676 1.253 1_556 S
O666 Zn660 1.941 . S
O666 C676 1.283 . S
O667 Zn660 1.965 . S
O667 C675 1.302 . S
O668 Zn661 1.938 . S
O668 C675 1.250 1_455 S
O669 Zn661 1.906 . S
O669 C677 1.304 . S
O670 Zn658 1.924 1_556 S
O670 C678 1.311 . S
O671 Zn662 1.977 1_554 S
O671 C677 1.272 . S
O672 Zn662 1.910 . S
O672 C678 1.231 . S
C673 O657 1.225 . S
C673 O679 1.298 . S
C674 O663 1.211 1_456 S
C674 O664 1.330 . S
C675 O667 1.302 . S
C675 O668 1.250 1_655 S
C676 O665 1.253 1_554 S
C676 O666 1.283 . S
C677 O669 1.304 . S
C677 O671 1.272 . S
C678 O670 1.311 . S
C678 O672 1.231 . S
O679 Zn661 1.953 . S
O679 C673 1.298 . S
H680 C686 0.930 . S
H681 C690 0.930 . S
H682 C695 0.929 . S
H683 C693 0.929 . S
H684 C688 0.929 . S
H685 C694 0.929 . S
C686 H680 0.930 . S
C686 C687 1.344 1_655 S
C686 C694 1.378 . S
C687 C686 1.344 1_455 S
C687 C695 1.453 . S
C688 H684 0.929 . S
C688 C690 1.378 . S
C688 C692 1.350 1_455 S
C689 C692 1.463 . S
C689 C694 1.350 . S
C689 N697 1.427 1_655 S
C690 H681 0.930 . S
C690 C688 1.378 . S
C690 C691 1.367 1_455 S
C691 C690 1.367 1_655 S
C691 C693 1.433 . S
C692 C688 1.350 1_655 S
C692 C689 1.463 . S
C692 N696 1.427 . S
C693 H683 0.929 . S
C693 C691 1.433 . S
C693 N696 1.384 . S
C694 H685 0.929 . S
C694 C686 1.378 . S
C694 C689 1.350 . S
C695 H682 0.929 . S
C695 C687 1.453 . S
C695 N697 1.384 . S
N696 C692 1.427 . S
N696 C693 1.384 . S
N697 C689 1.427 1_455 S
N697 C695 1.384 . S
H698 C704 0.930 . S
H699 C708 0.930 . S
H700 C713 0.929 . S
H701 C711 0.929 . S
H702 C706 0.929 . S
H703 C712 0.929 . S
C704 H698 0.930 . S
C704 C705 1.367 . S
C704 C712 1.378 . S
C705 C704 1.367 . S
C705 C713 1.433 . S
C706 H702 0.929 . S
C706 C708 1.378 . S
C706 C710 1.350 . S
C707 C710 1.463 . S
C707 C712 1.350 . S
C707 N715 1.427 . S
C708 H699 0.930 . S
C708 C706 1.378 . S
C708 C709 1.367 . S
C709 C708 1.367 . S
C709 C711 1.433 . S
C710 C706 1.350 . S
C710 C707 1.463 . S
C710 N714 1.427 . S
C711 H701 0.929 . S
C711 C709 1.433 . S
C711 N714 1.384 . S
C712 H703 0.929 . S
C712 C704 1.378 . S
C712 C707 1.350 . S
C713 H700 0.929 . S
C713 C705 1.433 . S
C713 N715 1.384 . S
N714 C710 1.427 . S
N714 C711 1.384 . S
N715 C707 1.427 . S
N715 C713 1.384 . S
H716 C722 0.930 . S
H717 C726 0.930 . S
H718 C731 0.929 . S
H719 C729 0.929 . S
H720 C724 0.929 . S
H721 C730 0.929 . S
C722 H716 0.930 . S
C722 C723 1.367 . S
C722 C730 1.378 . S
C723 C722 1.367 . S
C723 C731 1.433 . S
C724 H720 0.929 . S
C724 C726 1.378 . S
C724 C728 1.350 . S
C725 C728 1.463 . S
C725 C730 1.350 . S
C725 N733 1.427 . S
C726 H717 0.930 . S
C726 C724 1.378 . S
C726 C727 1.367 . S
C727 C726 1.367 . S
C727 C729 1.433 . S
C728 C724 1.350 . S
C728 C725 1.463 . S
C728 N732 1.427 . S
C729 H719 0.929 . S
C729 C727 1.433 . S
C729 N732 1.384 . S
C730 H721 0.929 . S
C730 C722 1.378 . S
C730 C725 1.350 . S
C731 H718 0.929 . S
C731 C723 1.433 . S
C731 N733 1.384 . S
N732 C728 1.427 . S
N732 C729 1.384 . S
N733 C725 1.427 . S
N733 C731 1.384 . S
H734 C740 0.930 . S
H735 C744 0.930 . S
H736 C749 0.929 . S
H737 C747 0.929 . S
H738 C742 0.929 . S
H739 C748 0.929 . S
C740 H734 0.930 . S
C740 C741 1.367 . S
C740 C748 1.378 . S
C741 C740 1.367 . S
C741 C749 1.433 . S
C742 H738 0.929 . S
C742 C744 1.378 . S
C742 C746 1.350 . S
C743 C746 1.463 . S
C743 C748 1.350 . S
C743 N751 1.427 . S
C744 H735 0.930 . S
C744 C742 1.378 . S
C744 C745 1.367 . S
C745 C744 1.367 . S
C745 C747 1.433 . S
C746 C742 1.350 . S
C746 C743 1.463 . S
C746 N750 1.427 . S
C747 H737 0.929 . S
C747 C745 1.433 . S
C747 N750 1.384 . S
C748 H739 0.929 . S
C748 C740 1.378 . S
C748 C743 1.350 . S
C749 H736 0.929 . S
C749 C741 1.433 . S
C749 N751 1.384 . S
N750 C746 1.427 . S
N750 C747 1.384 . S
N751 C743 1.427 . S
N751 C749 1.384 . S
H752 C758 0.930 . S
H753 C762 0.930 . S
H754 C767 0.929 . S
H755 C765 0.929 . S
H756 C760 0.929 . S
H757 C766 0.929 . S
C758 H752 0.930 . S
C758 C759 1.367 . S
C758 C766 1.378 . S
C759 C758 1.367 . S
C759 C767 1.433 1_455 S
C760 H756 0.929 . S
C760 C762 1.378 . S
C760 C764 1.350 . S
C761 C764 1.463 . S
C761 C766 1.350 1_655 S
C761 N769 1.427 . S
C762 H753 0.930 . S
C762 C760 1.378 . S
C762 C763 1.367 . S
C763 C762 1.367 . S
C763 C765 1.433 1_655 S
C764 C760 1.350 . S
C764 C761 1.463 . S
C764 N768 1.427 1_655 S
C765 H755 0.929 . S
C765 C763 1.433 1_455 S
C765 N768 1.384 . S
C766 H757 0.929 . S
C766 C758 1.378 . S
C766 C761 1.350 1_455 S
C767 H754 0.929 . S
C767 C759 1.433 1_655 S
C767 N769 1.384 . S
N768 C764 1.427 1_455 S
N768 C765 1.384 . S
N769 C761 1.427 . S
N769 C767 1.384 . S
H770 C776 0.930 . S
H771 C780 0.930 . S
H772 C785 0.929 . S
H773 C783 0.929 . S
H774 C778 0.929 . S
H775 C784 0.929 . S
C776 H770 0.930 . S
C776 C777 1.367 . S
C776 C784 1.378 . S
C777 C776 1.367 . S
C777 C785 1.433 . S
C778 H774 0.929 . S
C778 C780 1.378 . S
C778 C782 1.350 . S
C779 C782 1.463 . S
C779 C784 1.350 . S
C779 N787 1.427 . S
C780 H771 0.930 . S
C780 C778 1.378 . S
C780 C781 1.367 . S
C781 C780 1.367 . S
C781 C783 1.433 . S
C782 C778 1.350 . S
C782 C779 1.463 . S
C782 N786 1.427 . S
C783 H773 0.929 . S
C783 C781 1.433 . S
C783 N786 1.384 . S
C784 H775 0.929 . S
C784 C776 1.378 . S
C784 C779 1.350 . S
C785 H772 0.929 . S
C785 C777 1.433 . S
C785 N787 1.384 . S
N786 C782 1.427 . S
N786 C783 1.384 . S
N787 C779 1.427 . S
N787 C785 1.384 . S
H788 C794 0.930 . S
H789 C798 0.930 . S
H790 C803 0.929 . S
H791 C801 0.929 . S
H792 C796 0.929 . S
H793 C802 0.929 . S
C794 H788 0.930 . S
C794 C795 1.367 . S
C794 C802 1.378 . S
C795 C794 1.367 . S
C795 C803 1.433 . S
C796 H792 0.929 . S
C796 C798 1.378 1_556 S
C796 C800 1.350 . S
C797 C800 1.463 . S
C797 C802 1.350 . S
C797 N805 1.427 . S
C798 H789 0.930 . S
C798 C796 1.378 1_554 S
C798 C799 1.359 1_554 S
C799 C798 1.359 1_556 S
C799 C801 1.467 . S
C800 C796 1.350 . S
C800 C797 1.463 . S
C800 N804 1.427 . S
C801 H791 0.929 . S
C801 C799 1.467 . S
C801 N804 1.384 . S
C802 H793 0.929 . S
C802 C794 1.378 . S
C802 C797 1.350 . S
C803 H790 0.929 . S
C803 C795 1.433 . S
C803 N805 1.384 . S
N804 C800 1.427 . S
N804 C801 1.384 . S
N805 C797 1.427 . S
N805 C803 1.384 . S
H806 C812 0.930 . S
H807 C816 0.930 . S
H808 C821 0.929 . S
H809 C819 0.929 . S
H810 C814 0.929 . S
H811 C820 0.929 . S
C812 H806 0.930 . S
C812 C813 1.367 . S
C812 C820 1.378 . S
C813 C812 1.367 . S
C813 C821 1.433 . S
C814 H810 0.929 . S
C814 C816 1.378 . S
C814 C818 1.350 . S
C815 C818 1.463 . S
C815 C820 1.350 . S
C815 N823 1.427 . S
C816 H807 0.930 . S
C816 C814 1.378 . S
C816 C817 1.367 . S
C817 C816 1.367 . S
C817 C819 1.433 . S
C818 C814 1.350 . S
C818 C815 1.463 . S
C818 N822 1.427 . S
C819 H809 0.929 . S
C819 C817 1.433 . S
C819 N822 1.384 . S
C820 H811 0.929 . S
C820 C812 1.378 . S
C820 C815 1.350 . S
C821 H808 0.929 . S
C821 C813 1.433 . S
C821 N823 1.384 . S
N822 C818 1.427 . S
N822 C819 1.384 . S
N823 C815 1.427 . S
N823 C821 1.384 . S
H824 C830 0.930 . S
H825 C834 0.930 . S
H826 C839 0.941 . S
H827 C837 0.929 . S
H828 C832 0.929 . S
H829 C838 0.929 . S
C830 H824 0.930 . S
C830 C831 1.367 . S
C830 C838 1.378 . S
C831 C830 1.367 . S
C831 C839 1.420 1_545 S
C832 H828 0.929 . S
C832 C834 1.378 . S
C832 C836 1.350 1_565 S
C833 C836 1.463 . S
C833 C838 1.350 . S
C833 N841 1.427 1_545 S
C834 H825 0.930 . S
C834 C832 1.378 . S
C834 C835 1.367 1_565 S
C835 C834 1.367 1_545 S
C835 C837 1.433 . S
C836 C832 1.350 1_545 S
C836 C833 1.463 . S
C836 N840 1.427 . S
C837 H827 0.929 . S
C837 C835 1.433 . S
C837 N840 1.384 . S
C838 H829 0.929 . S
C838 C830 1.378 . S
C838 C833 1.350 . S
C839 H826 0.941 . S
C839 C831 1.420 1_565 S
C839 N841 1.386 . S
N840 C836 1.427 . S
N840 C837 1.384 . S
N841 C833 1.427 1_565 S
N841 C839 1.386 . S
H842 C848 0.930 . S
H843 C852 0.930 . S
H844 C857 0.929 . S
H845 C855 0.929 . S
H846 C850 0.929 . S
H847 C856 0.929 . S
C848 H842 0.930 . S
C848 C849 1.367 . S
C848 C856 1.378 . S
C849 C848 1.367 . S
C849 C857 1.433 . S
C850 H846 0.929 . S
C850 C852 1.378 . S
C850 C854 1.350 . S
C851 C854 1.463 . S
C851 C856 1.350 . S
C851 N859 1.427 . S
C852 H843 0.930 . S
C852 C850 1.378 . S
C852 C853 1.367 . S
C853 C852 1.367 . S
C853 C855 1.433 . S
C854 C850 1.350 . S
C854 C851 1.463 . S
C854 N858 1.427 . S
C855 H845 0.929 . S
C855 C853 1.433 . S
C855 N858 1.384 . S
C856 H847 0.929 . S
C856 C848 1.378 . S
C856 C851 1.350 . S
C857 H844 0.929 . S
C857 C849 1.433 . S
C857 N859 1.384 . S
N858 C854 1.427 . S
N858 C855 1.384 . S
N859 C851 1.427 . S
N859 C857 1.384 . S
H860 C866 0.930 . S
H861 C870 0.930 . S
H862 C875 0.929 . S
H863 C873 0.929 1_565 S
H864 C868 0.929 . S
H865 C874 0.929 . S
C866 H860 0.930 . S
C866 C867 1.367 1_565 S
C866 C874 1.378 . S
C867 C866 1.367 1_545 S
C867 C875 1.433 . S
C868 H864 0.929 . S
C868 C870 1.378 . S
C868 C872 1.350 . S
C869 C872 1.463 . S
C869 C874 1.350 1_545 S
C869 N877 1.427 . S
C870 H861 0.930 . S
C870 C868 1.378 . S
C870 C871 1.367 . S
C871 C870 1.367 . S
C871 C873 1.433 . S
C872 C868 1.350 . S
C872 C869 1.463 . S
C872 N876 1.450 . S
C873 H863 0.929 1_545 S
C873 C871 1.433 . S
C873 N876 1.387 . S
C874 H865 0.929 . S
C874 C866 1.378 . S
C874 C869 1.350 1_565 S
C875 H862 0.929 . S
C875 C867 1.433 . S
C875 N877 1.384 . S
N876 C872 1.450 . S
N876 C873 1.387 . S
N877 C869 1.427 . S
N877 C875 1.384 . S
H878 C884 0.930 . S
H879 C888 0.930 . S
H880 C893 0.929 . S
H881 C891 0.929 . S
H882 C886 0.929 . S
H883 C892 0.929 . S
C884 H878 0.930 . S
C884 C885 1.367 . S
C884 C892 1.378 . S
C885 C884 1.367 . S
C885 C893 1.433 . S
C886 H882 0.929 . S
C886 C888 1.378 . S
C886 C890 1.350 . S
C887 C890 1.463 . S
C887 C892 1.350 . S
C887 N895 1.427 . S
C888 H879 0.930 . S
C888 C886 1.378 . S
C888 C889 1.367 . S
C889 C888 1.367 . S
C889 C891 1.433 . S
C890 C886 1.350 . S
C890 C887 1.463 . S
C890 N894 1.427 . S
C891 H881 0.929 . S
C891 C889 1.433 . S
C891 N894 1.384 . S
C892 H883 0.929 . S
C892 C884 1.378 . S
C892 C887 1.350 . S
C893 H880 0.929 . S
C893 C885 1.433 . S
C893 N895 1.384 . S
N894 C890 1.427 . S
N894 C891 1.384 . S
N895 C887 1.427 . S
N895 C893 1.384 . S
H896 C902 0.930 . S
H897 C906 0.930 1_565 S
H898 C911 0.929 1_565 S
H899 C909 0.929 . S
H900 C904 0.929 1_565 S
H901 C910 0.929 . S
C902 H896 0.930 . S
C902 C903 1.367 . S
C902 C910 1.378 . S
C903 C902 1.367 . S
C903 C911 1.433 . S
C904 H900 0.929 1_545 S
C904 C906 1.378 . S
C904 C908 1.350 . S
C905 C908 1.463 . S
C905 C910 1.350 . S
C905 N913 1.427 . S
C906 H897 0.930 1_545 S
C906 C904 1.378 . S
C906 C907 1.367 . S
C907 C906 1.367 . S
C907 C909 1.433 . S
C908 C904 1.350 . S
C908 C905 1.463 . S
C908 N912 1.427 . S
C909 H899 0.929 . S
C909 C907 1.433 . S
C909 N912 1.384 . S
C910 H901 0.929 . S
C910 C902 1.378 . S
C910 C905 1.350 . S
C911 H898 0.929 1_545 S
C911 C903 1.433 . S
C911 N913 1.384 . S
N912 C908 1.427 . S
N912 C909 1.384 . S
N913 C905 1.427 . S
N913 C911 1.384 . S
H914 C920 0.930 . S
H915 C924 0.930 . S
H916 C929 0.929 . S
H917 C927 0.929 . S
H918 C922 0.929 . S
H919 C928 0.929 . S
C920 H914 0.930 . S
C920 C921 1.367 . S
C920 C928 1.378 . S
C921 C920 1.367 . S
C921 C929 1.433 . S
C922 H918 0.929 . S
C922 C924 1.378 . S
C922 C926 1.350 . S
C923 C926 1.463 . S
C923 C928 1.350 . S
C923 N931 1.427 . S
C924 H915 0.930 . S
C924 C922 1.378 . S
C924 C925 1.367 . S
C925 C924 1.367 . S
C925 C927 1.433 . S
C926 C922 1.350 . S
C926 C923 1.463 . S
C926 N930 1.427 . S
C927 H917 0.929 . S
C927 C925 1.433 . S
C927 N930 1.384 . S
C928 H919 0.929 . S
C928 C920 1.378 . S
C928 C923 1.350 . S
C929 H916 0.929 . S
C929 C921 1.433 . S
C929 N931 1.384 . S
N930 C926 1.427 . S
N930 C927 1.384 . S
N931 C923 1.427 . S
N931 C929 1.384 . S
H932 C938 0.930 . S
H933 C942 0.930 . S
H934 C947 0.929 . S
H935 C945 0.929 . S
H936 C940 0.929 . S
H937 C946 0.929 . S
C938 H932 0.930 . S
C938 C939 1.367 1_545 S
C938 C946 1.378 . S
C939 C938 1.367 1_565 S
C939 C947 1.433 . S
C940 H936 0.929 . S
C940 C942 1.378 . S
C940 C944 1.350 . S
C941 C944 1.463 . S
C941 C946 1.350 1_565 S
C941 N949 1.427 . S
C942 H933 0.930 . S
C942 C940 1.378 . S
C942 C943 1.367 . S
C943 C942 1.367 . S
C943 C945 1.433 1_565 S
C944 C940 1.350 . S
C944 C941 1.463 . S
C944 N948 1.427 1_565 S
C945 H935 0.929 . S
C945 C943 1.433 1_545 S
C945 N948 1.384 . S
C946 H937 0.929 . S
C946 C938 1.378 . S
C946 C941 1.350 1_545 S
C947 H934 0.929 . S
C947 C939 1.433 . S
C947 N949 1.384 . S
N948 C944 1.427 1_545 S
N948 C945 1.384 . S
N949 C941 1.427 . S
N949 C947 1.384 . S
H950 C956 0.930 . S
H951 C960 0.930 . S
H952 C965 0.929 . S
H953 C963 0.929 . S
H954 C958 0.929 . S
H955 C964 0.929 . S
C956 H950 0.930 . S
C956 C957 1.367 . S
C956 C964 1.378 . S
C957 C956 1.367 . S
C957 C965 1.433 . S
C958 H954 0.929 . S
C958 C960 1.378 . S
C958 C962 1.350 . S
C959 C962 1.463 . S
C959 C964 1.350 . S
C959 N967 1.427 . S
C960 H951 0.930 . S
C960 C958 1.378 . S
C960 C961 1.367 . S
C961 C960 1.367 . S
C961 C963 1.433 . S
C962 C958 1.350 . S
C962 C959 1.463 . S
C962 N966 1.427 . S
C963 H953 0.929 . S
C963 C961 1.433 . S
C963 N966 1.384 . S
C964 H955 0.929 . S
C964 C956 1.378 . S
C964 C959 1.350 . S
C965 H952 0.929 . S
C965 C957 1.433 . S
C965 N967 1.384 . S
N966 C962 1.427 . S
N966 C963 1.384 . S
N967 C959 1.427 . S
N967 C965 1.384 . S
H968 C974 0.930 . S
H969 C978 0.930 . S
H970 C983 0.929 . S
H971 C981 0.929 . S
H972 C976 0.929 . S
H973 C982 0.929 . S
C974 H968 0.930 . S
C974 C975 1.367 1_556 S
C974 C982 1.378 . S
C975 C974 1.367 1_554 S
C975 C983 1.433 . S
C976 H972 0.929 . S
C976 C978 1.378 . S
C976 C980 1.352 . S
C977 C980 1.462 . S
C977 C982 1.323 1_554 S
C977 N985 1.458 . S
C978 H969 0.930 . S
C978 C976 1.378 . S
C978 C979 1.367 1_554 S
C979 C978 1.367 1_556 S
C979 C981 1.433 . S
C980 C976 1.352 . S
C980 C977 1.462 . S
C980 N984 1.425 1_554 S
C981 H971 0.929 . S
C981 C979 1.433 . S
C981 N984 1.384 . S
C982 H973 0.929 . S
C982 C974 1.378 . S
C982 C977 1.323 1_556 S
C983 H970 0.929 . S
C983 C975 1.433 . S
C983 N985 1.384 . S
N984 C980 1.425 1_556 S
N984 C981 1.384 . S
N985 C977 1.458 . S
N985 C983 1.384 . S
H986 C992 0.930 . S
H987 C996 0.930 . S
H988 C1001 0.929 . S
H989 C999 0.929 1_556 S
H990 C994 0.929 . S
H991 C1000 0.961 . S
C992 H986 0.930 . S
C992 C993 1.367 1_556 S
C992 C1000 1.381 . S
C993 C992 1.367 1_554 S
C993 C1001 1.433 . S
C994 H990 0.929 . S
C994 C996 1.378 . S
C994 C998 1.350 . S
C995 C998 1.463 . S
C995 C1000 1.315 1_554 S
C995 N1003 1.427 . S
C996 H987 0.930 . S
C996 C994 1.378 . S
C996 C997 1.367 . S
C997 C996 1.367 . S
C997 C999 1.433 . S
C998 C994 1.350 . S
C998 C995 1.463 . S
C998 N1002 1.427 . S
C999 H989 0.929 1_554 S
C999 C997 1.433 . S
C999 N1002 1.384 . S
C1000 H991 0.961 . S
C1000 C992 1.381 . S
C1000 C995 1.315 1_556 S
C1001 H988 0.929 . S
C1001 C993 1.433 . S
C1001 N1003 1.384 . S
N1002 C998 1.427 . S
N1002 C999 1.384 . S
N1003 C995 1.427 . S
N1003 C1001 1.384 . S
H1004 C1010 0.930 . S
H1005 C1014 0.930 . S
H1006 C1019 0.929 . S
H1007 C1017 0.929 . S
H1008 C1012 0.929 . S
H1009 C1018 0.929 . S
C1010 H1004 0.930 . S
C1010 C1011 1.367 . S
C1010 C1018 1.378 . S
C1011 C1010 1.367 . S
C1011 C1019 1.433 . S
C1012 H1008 0.929 . S
C1012 C1014 1.378 . S
C1012 C1016 1.350 . S
C1013 C1016 1.463 . S
C1013 C1018 1.350 . S
C1013 N1021 1.427 . S
C1014 H1005 0.930 . S
C1014 C1012 1.378 . S
C1014 C1015 1.367 . S
C1015 C1014 1.367 . S
C1015 C1017 1.433 . S
C1016 C1012 1.350 . S
C1016 C1013 1.463 . S
C1016 N1020 1.427 . S
C1017 H1007 0.929 . S
C1017 C1015 1.433 . S
C1017 N1020 1.384 . S
C1018 H1009 0.929 . S
C1018 C1010 1.378 . S
C1018 C1013 1.350 . S
C1019 H1006 0.929 . S
C1019 C1011 1.433 . S
C1019 N1021 1.384 . S
N1020 C1016 1.427 . S
N1020 C1017 1.384 . S
N1021 C1013 1.427 . S
N1021 C1019 1.384 . S
H1022 C1028 0.930 . S
H1023 C1032 0.930 . S
H1024 C1037 0.929 . S
H1025 C1035 0.929 . S
H1026 C1030 0.929 . S
H1027 C1036 0.929 . S
C1028 H1022 0.930 . S
C1028 C1029 1.367 . S
C1028 C1036 1.378 . S
C1029 C1028 1.367 . S
C1029 C1037 1.433 . S
C1030 H1026 0.929 . S
C1030 C1032 1.378 . S
C1030 C1034 1.350 . S
C1031 C1034 1.463 . S
C1031 C1036 1.350 . S
C1031 N1039 1.427 . S
C1032 H1023 0.930 . S
C1032 C1030 1.378 . S
C1032 C1033 1.367 . S
C1033 C1032 1.367 . S
C1033 C1035 1.433 . S
C1034 C1030 1.350 . S
C1034 C1031 1.463 . S
C1034 N1038 1.427 . S
C1035 H1025 0.929 . S
C1035 C1033 1.433 . S
C1035 N1038 1.384 . S
C1036 H1027 0.929 . S
C1036 C1028 1.378 . S
C1036 C1031 1.350 . S
C1037 H1024 0.929 . S
C1037 C1029 1.433 . S
C1037 N1039 1.384 . S
N1038 C1034 1.427 . S
N1038 C1035 1.384 . S
N1039 C1031 1.427 . S
N1039 C1037 1.384 . S
H1040 C1046 0.930 . S
H1041 C1050 0.930 . S
H1042 C1055 0.929 . S
H1043 C1053 0.929 . S
H1044 C1048 0.929 . S
H1045 C1054 0.929 . S
C1046 H1040 0.930 . S
C1046 C1047 1.367 . S
C1046 C1054 1.378 . S
C1047 C1046 1.367 . S
C1047 C1055 1.433 . S
C1048 H1044 0.929 . S
C1048 C1050 1.378 . S
C1048 C1052 1.350 . S
C1049 C1052 1.463 . S
C1049 C1054 1.350 . S
C1049 N1057 1.427 . S
C1050 H1041 0.930 . S
C1050 C1048 1.378 . S
C1050 C1051 1.367 . S
C1051 C1050 1.367 . S
C1051 C1053 1.433 . S
C1052 C1048 1.350 . S
C1052 C1049 1.463 . S
C1052 N1056 1.427 . S
C1053 H1043 0.929 . S
C1053 C1051 1.433 . S
C1053 N1056 1.384 . S
C1054 H1045 0.929 . S
C1054 C1046 1.378 . S
C1054 C1049 1.350 . S
C1055 H1042 0.929 . S
C1055 C1047 1.433 . S
C1055 N1057 1.384 . S
N1056 C1052 1.427 . S
N1056 C1053 1.384 . S
N1057 C1049 1.427 . S
N1057 C1055 1.384 . S
H1058 C1064 0.930 . S
H1059 C1068 0.930 . S
H1060 C1073 0.929 . S
H1061 C1071 0.929 . S
H1062 C1066 0.927 1_545 S
H1063 C1072 0.929 . S
C1064 H1058 0.930 . S
C1064 C1065 1.367 . S
C1064 C1072 1.378 . S
C1065 C1064 1.367 . S
C1065 C1073 1.433 . S
C1066 H1062 0.927 1_565 S
C1066 C1068 1.378 1_565 S
C1066 C1070 1.350 . S
C1067 C1070 1.463 . S
C1067 C1072 1.350 . S
C1067 N1075 1.427 . S
C1068 H1059 0.930 . S
C1068 C1066 1.378 1_545 S
C1068 C1069 1.367 1_545 S
C1069 C1068 1.367 1_565 S
C1069 C1071 1.433 . S
C1070 C1066 1.350 . S
C1070 C1067 1.463 . S
C1070 N1074 1.427 . S
C1071 H1061 0.929 . S
C1071 C1069 1.433 . S
C1071 N1074 1.384 . S
C1072 H1063 0.929 . S
C1072 C1064 1.378 . S
C1072 C1067 1.350 . S
C1073 H1060 0.929 . S
C1073 C1065 1.433 . S
C1073 N1075 1.384 . S
N1074 C1070 1.427 . S
N1074 C1071 1.384 . S
N1075 C1067 1.427 . S
N1075 C1073 1.384 . S
H1076 C1082 0.930 . S
H1077 C1086 0.930 . S
H1078 C1091 0.929 . S
H1079 C1089 0.929 . S
H1080 C1084 0.929 . S
H1081 C1090 0.929 . S
C1082 H1076 0.930 . S
C1082 C1083 1.367 . S
C1082 C1090 1.378 . S
C1083 C1082 1.367 . S
C1083 C1091 1.433 . S
C1084 H1080 0.929 . S
C1084 C1086 1.378 . S
C1084 C1088 1.350 . S
C1085 C1088 1.463 . S
C1085 C1090 1.350 . S
C1085 N1093 1.427 . S
C1086 H1077 0.930 . S
C1086 C1084 1.378 . S
C1086 C1087 1.367 . S
C1087 C1086 1.367 . S
C1087 C1089 1.433 . S
C1088 C1084 1.350 . S
C1088 C1085 1.463 . S
C1088 N1092 1.427 . S
C1089 H1079 0.929 . S
C1089 C1087 1.433 . S
C1089 N1092 1.384 . S
C1090 H1081 0.929 . S
C1090 C1082 1.378 . S
C1090 C1085 1.350 . S
C1091 H1078 0.929 . S
C1091 C1083 1.433 . S
C1091 N1093 1.384 . S
N1092 C1088 1.427 . S
N1092 C1089 1.384 . S
N1093 C1085 1.427 . S
N1093 C1091 1.384 . S
H1094 C1100 0.930 . S
H1095 C1104 0.930 . S
H1096 C1109 0.929 . S
H1097 C1107 0.929 . S
H1098 C1102 0.929 . S
H1099 C1108 0.929 . S
C1100 H1094 0.930 . S
C1100 C1101 1.367 . S
C1100 C1108 1.378 . S
C1101 C1100 1.367 . S
C1101 C1109 1.433 . S
C1102 H1098 0.929 . S
C1102 C1104 1.378 . S
C1102 C1106 1.350 . S
C1103 C1106 1.463 . S
C1103 C1108 1.350 . S
C1103 N1111 1.427 . S
C1104 H1095 0.930 . S
C1104 C1102 1.378 . S
C1104 C1105 1.367 . S
C1105 C1104 1.367 . S
C1105 C1107 1.433 . S
C1106 C1102 1.350 . S
C1106 C1103 1.463 . S
C1106 N1110 1.427 . S
C1107 H1097 0.929 . S
C1107 C1105 1.433 . S
C1107 N1110 1.384 . S
C1108 H1099 0.929 . S
C1108 C1100 1.378 . S
C1108 C1103 1.350 . S
C1109 H1096 0.929 . S
C1109 C1101 1.433 . S
C1109 N1111 1.384 . S
N1110 C1106 1.427 . S
N1110 C1107 1.384 . S
N1111 C1103 1.427 . S
N1111 C1109 1.384 . S
H1112 C1118 0.930 . S
H1113 C1122 0.930 . S
H1114 C1127 0.929 . S
H1115 C1125 0.929 1_554 S
H1116 C1120 0.929 1_655 S
H1117 C1126 0.929 . S
C1118 H1112 0.930 . S
C1118 C1119 1.367 . S
C1118 C1126 1.378 . S
C1119 C1118 1.367 . S
C1119 C1127 1.433 1_455 S
C1120 H1116 0.929 1_455 S
C1120 C1122 1.378 . S
C1120 C1124 1.350 . S
C1121 C1124 1.463 . S
C1121 C1126 1.350 . S
C1121 N1129 1.427 1_455 S
C1122 H1113 0.930 . S
C1122 C1120 1.378 . S
C1122 C1123 1.367 . S
C1123 C1122 1.367 . S
C1123 C1125 1.433 . S
C1124 C1120 1.350 . S
C1124 C1121 1.463 . S
C1124 N1128 1.427 . S
C1125 H1115 0.929 1_556 S
C1125 C1123 1.433 . S
C1125 N1128 1.384 . S
C1126 H1117 0.929 . S
C1126 C1118 1.378 . S
C1126 C1121 1.350 . S
C1127 H1114 0.929 . S
C1127 C1119 1.433 1_655 S
C1127 N1129 1.384 . S
N1128 C1124 1.427 . S
N1128 C1125 1.384 . S
N1129 C1121 1.427 1_655 S
N1129 C1127 1.384 . S
H1130 C1136 0.930 . S
H1131 C1140 0.930 . S
H1132 C1145 0.929 . S
H1133 C1143 0.929 . S
H1134 C1138 0.929 . S
H1135 C1144 0.929 . S
C1136 H1130 0.930 . S
C1136 C1137 1.367 . S
C1136 C1144 1.378 . S
C1137 C1136 1.367 . S
C1137 C1145 1.433 . S
C1138 H1134 0.929 . S
C1138 C1140 1.378 . S
C1138 C1142 1.350 . S
C1139 C1142 1.463 . S
C1139 C1144 1.350 . S
C1139 N1147 1.427 . S
C1140 H1131 0.930 . S
C1140 C1138 1.378 . S
C1140 C1141 1.367 . S
C1141 C1140 1.367 . S
C1141 C1143 1.433 . S
C1142 C1138 1.350 . S
C1142 C1139 1.463 . S
C1142 N1146 1.427 . S
C1143 H1133 0.929 . S
C1143 C1141 1.433 . S
C1143 N1146 1.384 . S
C1144 H1135 0.929 . S
C1144 C1136 1.378 . S
C1144 C1139 1.350 . S
C1145 H1132 0.929 . S
C1145 C1137 1.433 . S
C1145 N1147 1.384 . S
N1146 C1142 1.427 . S
N1146 C1143 1.384 . S
N1147 C1139 1.427 . S
N1147 C1145 1.384 . S
H1148 C1154 0.930 . S
H1149 C1158 0.930 . S
H1150 C1163 0.929 . S
H1151 C1161 0.929 . S
H1152 C1156 0.929 . S
H1153 C1162 0.929 . S
C1154 H1148 0.930 . S
C1154 C1155 1.367 . S
C1154 C1162 1.378 . S
C1155 C1154 1.367 . S
C1155 C1163 1.433 . S
C1156 H1152 0.929 . S
C1156 C1158 1.378 . S
C1156 C1160 1.350 . S
C1157 C1160 1.463 . S
C1157 C1162 1.350 . S
C1157 N1165 1.427 . S
C1158 H1149 0.930 . S
C1158 C1156 1.378 . S
C1158 C1159 1.367 . S
C1159 C1158 1.367 . S
C1159 C1161 1.433 . S
C1160 C1156 1.350 . S
C1160 C1157 1.463 . S
C1160 N1164 1.427 . S
C1161 H1151 0.929 . S
C1161 C1159 1.433 . S
C1161 N1164 1.384 . S
C1162 H1153 0.929 . S
C1162 C1154 1.378 . S
C1162 C1157 1.350 . S
C1163 H1150 0.929 . S
C1163 C1155 1.433 . S
C1163 N1165 1.384 . S
N1164 C1160 1.427 . S
N1164 C1161 1.384 . S
N1165 C1157 1.427 . S
N1165 C1163 1.384 . S
H1166 C1172 0.930 . S
H1167 C1176 0.930 . S
H1168 C1181 0.929 . S
H1169 C1179 0.929 . S
H1170 C1174 0.929 . S
H1171 C1180 0.929 . S
C1172 H1166 0.930 . S
C1172 C1173 1.367 . S
C1172 C1180 1.378 . S
C1173 C1172 1.367 . S
C1173 C1181 1.433 . S
C1174 H1170 0.929 . S
C1174 C1176 1.378 . S
C1174 C1178 1.350 . S
C1175 C1178 1.463 . S
C1175 C1180 1.350 . S
C1175 N1183 1.427 . S
C1176 H1167 0.930 . S
C1176 C1174 1.378 . S
C1176 C1177 1.367 . S
C1177 C1176 1.367 . S
C1177 C1179 1.433 . S
C1178 C1174 1.350 . S
C1178 C1175 1.463 . S
C1178 N1182 1.427 . S
C1179 H1169 0.929 . S
C1179 C1177 1.433 . S
C1179 N1182 1.384 . S
C1180 H1171 0.929 . S
C1180 C1172 1.378 . S
C1180 C1175 1.350 . S
C1181 H1168 0.929 . S
C1181 C1173 1.433 . S
C1181 N1183 1.384 . S
N1182 C1178 1.427 . S
N1182 C1179 1.384 . S
N1183 C1175 1.427 . S
N1183 C1181 1.384 . S
H1184 C1190 0.930 . S
H1185 C1194 0.930 1_655 S
H1186 C1199 0.929 . S
H1187 C1197 0.929 . S
H1188 C1192 0.929 1_655 S
H1189 C1198 0.929 . S
C1190 H1184 0.930 . S
C1190 C1191 1.367 . S
C1190 C1198 1.378 . S
C1191 C1190 1.367 . S
C1191 C1199 1.433 1_455 S
C1192 H1188 0.929 1_455 S
C1192 C1194 1.378 . S
C1192 C1196 1.350 . S
C1193 C1196 1.463 . S
C1193 C1198 1.350 . S
C1193 N1201 1.427 1_455 S
C1194 H1185 0.930 1_455 S
C1194 C1192 1.378 . S
C1194 C1195 1.367 . S
C1195 C1194 1.367 . S
C1195 C1197 1.433 . S
C1196 C1192 1.350 . S
C1196 C1193 1.463 . S
C1196 N1200 1.427 . S
C1197 H1187 0.929 . S
C1197 C1195 1.433 . S
C1197 N1200 1.384 . S
C1198 H1189 0.929 . S
C1198 C1190 1.378 . S
C1198 C1193 1.350 . S
C1199 H1186 0.929 . S
C1199 C1191 1.433 1_655 S
C1199 N1201 1.384 . S
N1200 C1196 1.427 . S
N1200 C1197 1.384 . S
N1201 C1193 1.427 1_655 S
N1201 C1199 1.384 . S
H1202 C1208 0.930 . S
H1203 C1212 0.930 . S
H1204 C1217 0.929 . S
H1205 C1215 0.929 . S
H1206 C1210 0.929 . S
H1207 C1216 0.929 . S
C1208 H1202 0.930 . S
C1208 C1209 1.367 . S
C1208 C1216 1.378 . S
C1209 C1208 1.367 . S
C1209 C1217 1.433 . S
C1210 H1206 0.929 . S
C1210 C1212 1.378 . S
C1210 C1214 1.350 . S
C1211 C1214 1.463 . S
C1211 C1216 1.350 . S
C1211 N1219 1.427 . S
C1212 H1203 0.930 . S
C1212 C1210 1.378 . S
C1212 C1213 1.367 . S
C1213 C1212 1.367 . S
C1213 C1215 1.433 . S
C1214 C1210 1.350 . S
C1214 C1211 1.463 . S
C1214 N1218 1.427 . S
C1215 H1205 0.929 . S
C1215 C1213 1.433 . S
C1215 N1218 1.384 . S
C1216 H1207 0.929 . S
C1216 C1208 1.378 . S
C1216 C1211 1.350 . S
C1217 H1204 0.929 . S
C1217 C1209 1.433 . S
C1217 N1219 1.384 . S
N1218 C1214 1.427 . S
N1218 C1215 1.384 . S
N1219 C1211 1.427 . S
N1219 C1217 1.384 . S
H1220 C1226 0.930 . S
H1221 C1230 0.930 . S
H1222 C1235 0.929 . S
H1223 C1233 0.929 . S
H1224 C1228 0.929 . S
H1225 C1234 0.929 . S
C1226 H1220 0.930 . S
C1226 C1227 1.367 . S
C1226 C1234 1.378 . S
C1227 C1226 1.367 . S
C1227 C1235 1.433 . S
C1228 H1224 0.929 . S
C1228 C1230 1.378 . S
C1228 C1232 1.350 . S
C1229 C1232 1.463 . S
C1229 C1234 1.350 . S
C1229 N1237 1.427 . S
C1230 H1221 0.930 . S
C1230 C1228 1.378 . S
C1230 C1231 1.367 . S
C1231 C1230 1.367 . S
C1231 C1233 1.433 . S
C1232 C1228 1.350 . S
C1232 C1229 1.463 . S
C1232 N1236 1.427 . S
C1233 H1223 0.929 . S
C1233 C1231 1.433 . S
C1233 N1236 1.384 . S
C1234 H1225 0.929 . S
C1234 C1226 1.378 . S
C1234 C1229 1.350 . S
C1235 H1222 0.929 . S
C1235 C1227 1.433 . S
C1235 N1237 1.384 . S
N1236 C1232 1.427 . S
N1236 C1233 1.384 . S
N1237 C1229 1.427 . S
N1237 C1235 1.384 . S
H1238 C1244 0.930 . S
H1239 C1248 0.930 . S
H1240 C1253 0.929 . S
H1241 C1251 0.929 . S
H1242 C1246 0.929 . S
H1243 C1252 0.929 . S
C1244 H1238 0.930 . S
C1244 C1245 1.367 . S
C1244 C1252 1.378 . S
C1245 C1244 1.367 . S
C1245 C1253 1.433 . S
C1246 H1242 0.929 . S
C1246 C1248 1.378 . S
C1246 C1250 1.350 . S
C1247 C1250 1.463 . S
C1247 C1252 1.350 . S
C1247 N1255 1.427 . S
C1248 H1239 0.930 . S
C1248 C1246 1.378 . S
C1248 C1249 1.367 . S
C1249 C1248 1.367 . S
C1249 C1251 1.433 . S
C1250 C1246 1.350 . S
C1250 C1247 1.463 . S
C1250 N1254 1.427 . S
C1251 H1241 0.929 . S
C1251 C1249 1.433 . S
C1251 N1254 1.384 . S
C1252 H1243 0.929 . S
C1252 C1244 1.378 . S
C1252 C1247 1.350 . S
C1253 H1240 0.929 . S
C1253 C1245 1.433 . S
C1253 N1255 1.384 . S
N1254 C1250 1.427 . S
N1254 C1251 1.384 . S
N1255 C1247 1.427 . S
N1255 C1253 1.384 . S
H1256 C1262 0.930 . S
H1257 C1266 0.921 1_565 S
H1258 C1271 0.929 . S
H1259 C1269 0.929 . S
H1260 C1264 0.929 1_565 S
H1261 C1270 0.929 . S
C1262 H1256 0.930 . S
C1262 C1263 1.367 . S
C1262 C1270 1.378 . S
C1263 C1262 1.367 . S
C1263 C1271 1.433 1_545 S
C1264 H1260 0.929 1_545 S
C1264 C1266 1.378 . S
C1264 C1268 1.350 . S
C1265 C1268 1.463 . S
C1265 C1270 1.350 . S
C1265 N1273 1.395 1_545 S
C1266 H1257 0.921 1_545 S
C1266 C1264 1.378 . S
C1266 C1267 1.367 . S
C1267 C1266 1.367 . S
C1267 C1269 1.433 . S
C1268 C1264 1.350 . S
C1268 C1265 1.463 . S
C1268 N1272 1.427 . S
C1269 H1259 0.929 . S
C1269 C1267 1.433 . S
C1269 N1272 1.384 . S
C1270 H1261 0.929 . S
C1270 C1262 1.378 . S
C1270 C1265 1.350 . S
C1271 H1258 0.929 . S
C1271 C1263 1.433 1_565 S
C1271 N1273 1.390 . S
N1272 C1268 1.427 . S
N1272 C1269 1.384 . S
N1273 C1265 1.395 1_565 S
N1273 C1271 1.390 . S
H1274 C1280 0.930 . S
H1275 C1284 0.930 . S
H1276 C1289 0.929 . S
H1277 C1287 0.929 . S
H1278 C1282 0.929 . S
H1279 C1288 0.929 . S
C1280 H1274 0.930 . S
C1280 C1281 1.367 . S
C1280 C1288 1.378 . S
C1281 C1280 1.367 . S
C1281 C1289 1.433 . S
C1282 H1278 0.929 . S
C1282 C1284 1.378 . S
C1282 C1286 1.350 . S
C1283 C1286 1.463 . S
C1283 C1288 1.350 . S
C1283 N1291 1.427 . S
C1284 H1275 0.930 . S
C1284 C1282 1.378 . S
C1284 C1285 1.367 . S
C1285 C1284 1.367 . S
C1285 C1287 1.433 . S
C1286 C1282 1.350 . S
C1286 C1283 1.463 . S
C1286 N1290 1.427 . S
C1287 H1277 0.929 . S
C1287 C1285 1.433 . S
C1287 N1290 1.384 . S
C1288 H1279 0.929 . S
C1288 C1280 1.378 . S
C1288 C1283 1.350 . S
C1289 H1276 0.929 . S
C1289 C1281 1.433 . S
C1289 N1291 1.384 . S
N1290 C1286 1.427 . S
N1290 C1287 1.384 . S
N1291 C1283 1.427 . S
N1291 C1289 1.384 . S
H1292 C1298 0.930 . S
H1293 C1302 0.930 . S
H1294 C1307 0.929 . S
H1295 C1305 0.929 . S
H1296 C1300 0.929 . S
H1297 C1306 0.929 . S
C1298 H1292 0.930 . S
C1298 C1299 1.367 1_565 S
C1298 C1306 1.378 . S
C1299 C1298 1.367 1_545 S
C1299 C1307 1.433 . S
C1300 H1296 0.929 . S
C1300 C1302 1.378 . S
C1300 C1304 1.350 1_545 S
C1301 C1304 1.463 . S
C1301 C1306 1.350 . S
C1301 N1309 1.427 1_565 S
C1302 H1293 0.930 . S
C1302 C1300 1.378 . S
C1302 C1303 1.367 1_545 S
C1303 C1302 1.367 1_565 S
C1303 C1305 1.433 . S
C1304 C1300 1.350 1_565 S
C1304 C1301 1.463 . S
C1304 N1308 1.427 . S
C1305 H1295 0.929 . S
C1305 C1303 1.433 . S
C1305 N1308 1.384 . S
C1306 H1297 0.929 . S
C1306 C1298 1.378 . S
C1306 C1301 1.350 . S
C1307 H1294 0.929 . S
C1307 C1299 1.433 . S
C1307 N1309 1.384 . S
N1308 C1304 1.427 . S
N1308 C1305 1.384 . S
N1309 C1301 1.427 1_545 S
N1309 C1307 1.384 . S
H1310 C1316 0.930 . S
H1311 C1320 0.930 . S
H1312 C1325 0.929 . S
H1313 C1323 0.929 . S
H1314 C1318 0.929 . S
H1315 C1324 0.929 . S
C1316 H1310 0.930 . S
C1316 C1317 1.367 . S
C1316 C1324 1.378 . S
C1317 C1316 1.367 . S
C1317 C1325 1.433 . S
C1318 H1314 0.929 . S
C1318 C1320 1.378 . S
C1318 C1322 1.350 . S
C1319 C1322 1.463 . S
C1319 C1324 1.350 . S
C1319 N1327 1.427 . S
C1320 H1311 0.930 . S
C1320 C1318 1.378 . S
C1320 C1321 1.367 . S
C1321 C1320 1.367 . S
C1321 C1323 1.433 . S
C1322 C1318 1.350 . S
C1322 C1319 1.463 . S
C1322 N1326 1.427 . S
C1323 H1313 0.929 . S
C1323 C1321 1.433 . S
C1323 N1326 1.384 . S
C1324 H1315 0.929 . S
C1324 C1316 1.378 . S
C1324 C1319 1.350 . S
C1325 H1312 0.929 . S
C1325 C1317 1.433 . S
C1325 N1327 1.384 . S
N1326 C1322 1.427 . S
N1326 C1323 1.384 . S
N1327 C1319 1.427 . S
N1327 C1325 1.384 . S
H1328 C1334 0.930 . S
H1329 C1338 0.930 . S
H1330 C1343 0.922 1_565 S
H1331 C1341 0.929 . S
H1332 C1336 0.929 . S
H1333 C1342 0.929 . S
C1334 H1328 0.930 . S
C1334 C1335 1.367 . S
C1334 C1342 1.378 . S
C1335 C1334 1.367 . S
C1335 C1343 1.442 . S
C1336 H1332 0.929 . S
C1336 C1338 1.378 . S
C1336 C1340 1.350 1_565 S
C1337 C1340 1.463 . S
C1337 C1342 1.350 . S
C1337 N1345 1.427 1_545 S
C1338 H1329 0.930 . S
C1338 C1336 1.378 . S
C1338 C1339 1.387 . S
C1339 C1338 1.387 . S
C1339 C1341 1.408 1_565 S
C1340 C1336 1.350 1_545 S
C1340 C1337 1.463 . S
C1340 N1344 1.427 . S
C1341 H1331 0.929 . S
C1341 C1339 1.408 1_545 S
C1341 N1344 1.384 . S
C1342 H1333 0.929 . S
C1342 C1334 1.378 . S
C1342 C1337 1.350 . S
C1343 H1330 0.922 1_545 S
C1343 C1335 1.442 . S
C1343 N1345 1.382 1_545 S
N1344 C1340 1.427 . S
N1344 C1341 1.384 . S
N1345 C1337 1.427 1_565 S
N1345 C1343 1.382 1_565 S
H1346 C1352 0.930 . S
H1347 C1356 0.930 . S
H1348 C1361 0.929 . S
H1349 C1359 0.929 . S
H1350 C1354 0.929 . S
H1351 C1360 0.929 . S
C1352 H1346 0.930 . S
C1352 C1353 1.367 . S
C1352 C1360 1.378 . S
C1353 C1352 1.367 . S
C1353 C1361 1.433 . S
C1354 H1350 0.929 . S
C1354 C1356 1.378 . S
C1354 C1358 1.350 . S
C1355 C1358 1.463 . S
C1355 C1360 1.350 . S
C1355 N1363 1.427 . S
C1356 H1347 0.930 . S
C1356 C1354 1.378 . S
C1356 C1357 1.367 . S
C1357 C1356 1.367 . S
C1357 C1359 1.433 . S
C1358 C1354 1.350 . S
C1358 C1355 1.463 . S
C1358 N1362 1.427 . S
C1359 H1349 0.929 . S
C1359 C1357 1.433 . S
C1359 N1362 1.384 . S
C1360 H1351 0.929 . S
C1360 C1352 1.378 . S
C1360 C1355 1.350 . S
C1361 H1348 0.929 . S
C1361 C1353 1.433 . S
C1361 N1363 1.384 . S
N1362 C1358 1.427 . S
N1362 C1359 1.384 . S
N1363 C1355 1.427 . S
N1363 C1361 1.384 . S
H1364 C1370 0.930 . S
H1365 C1374 0.930 . S
H1366 C1379 0.929 . S
H1367 C1377 0.929 . S
H1368 C1372 0.929 . S
H1369 C1378 0.929 . S
C1370 H1364 0.930 . S
C1370 C1371 1.367 1_545 S
C1370 C1378 1.378 . S
C1371 C1370 1.367 1_565 S
C1371 C1379 1.433 . S
C1372 H1368 0.929 . S
C1372 C1374 1.378 . S
C1372 C1376 1.350 1_565 S
C1373 C1376 1.463 . S
C1373 C1378 1.350 . S
C1373 N1381 1.427 1_545 S
C1374 H1365 0.930 . S
C1374 C1372 1.378 . S
C1374 C1375 1.367 1_565 S
C1375 C1374 1.367 1_545 S
C1375 C1377 1.433 . S
C1376 C1372 1.350 1_545 S
C1376 C1373 1.463 . S
C1376 N1380 1.427 . S
C1377 H1367 0.929 . S
C1377 C1375 1.433 . S
C1377 N1380 1.384 . S
C1378 H1369 0.929 . S
C1378 C1370 1.378 . S
C1378 C1373 1.350 . S
C1379 H1366 0.929 . S
C1379 C1371 1.433 . S
C1379 N1381 1.384 . S
N1380 C1376 1.427 . S
N1380 C1377 1.384 . S
N1381 C1373 1.427 1_565 S
N1381 C1379 1.384 . S
H1382 C1388 0.930 . S
H1383 C1392 0.930 . S
H1384 C1397 0.929 . S
H1385 C1395 0.929 . S
H1386 C1390 0.929 . S
H1387 C1396 0.929 . S
C1388 H1382 0.930 . S
C1388 C1389 1.367 . S
C1388 C1396 1.378 . S
C1389 C1388 1.367 . S
C1389 C1397 1.433 . S
C1390 H1386 0.929 . S
C1390 C1392 1.378 . S
C1390 C1394 1.350 . S
C1391 C1394 1.463 . S
C1391 C1396 1.350 . S
C1391 N1399 1.427 . S
C1392 H1383 0.930 . S
C1392 C1390 1.378 . S
C1392 C1393 1.367 . S
C1393 C1392 1.367 . S
C1393 C1395 1.433 . S
C1394 C1390 1.350 . S
C1394 C1391 1.463 . S
C1394 N1398 1.427 . S
C1395 H1385 0.929 . S
C1395 C1393 1.433 . S
C1395 N1398 1.384 . S
C1396 H1387 0.929 . S
C1396 C1388 1.378 . S
C1396 C1391 1.350 . S
C1397 H1384 0.929 . S
C1397 C1389 1.433 . S
C1397 N1399 1.384 . S
N1398 C1394 1.427 . S
N1398 C1395 1.384 . S
N1399 C1391 1.427 . S
N1399 C1397 1.384 . S
H1400 C1406 0.930 . S
H1401 C1410 0.930 1_556 S
H1402 C1415 0.929 . S
H1403 C1413 0.929 . S
H1404 C1408 0.929 1_556 S
H1405 C1414 0.929 . S
C1406 H1400 0.930 . S
C1406 C1407 1.367 . S
C1406 C1414 1.378 . S
C1407 C1406 1.367 . S
C1407 C1415 1.433 1_554 S
C1408 H1404 0.929 1_554 S
C1408 C1410 1.378 . S
C1408 C1412 1.350 . S
C1409 C1412 1.463 . S
C1409 C1414 1.350 . S
C1409 N1417 1.427 1_554 S
C1410 H1401 0.930 1_554 S
C1410 C1408 1.378 . S
C1410 C1411 1.367 . S
C1411 C1410 1.367 . S
C1411 C1413 1.433 . S
C1412 C1408 1.350 . S
C1412 C1409 1.463 . S
C1412 N1416 1.427 . S
C1413 H1403 0.929 . S
C1413 C1411 1.433 . S
C1413 N1416 1.384 . S
C1414 H1405 0.929 . S
C1414 C1406 1.378 . S
C1414 C1409 1.350 . S
C1415 H1402 0.929 . S
C1415 C1407 1.433 1_556 S
C1415 N1417 1.384 . S
N1416 C1412 1.427 . S
N1416 C1413 1.384 . S
N1417 C1409 1.427 1_556 S
N1417 C1415 1.384 . S
H1418 C1424 0.930 . S
H1419 C1428 0.930 . S
H1420 C1433 0.929 . S
H1421 C1431 0.929 . S
H1422 C1426 0.929 . S
H1423 C1432 0.929 . S
C1424 H1418 0.930 . S
C1424 C1425 1.367 . S
C1424 C1432 1.378 . S
C1425 C1424 1.367 . S
C1425 C1433 1.433 1_554 S
C1426 H1422 0.929 . S
C1426 C1428 1.378 . S
C1426 C1430 1.350 . S
C1427 C1430 1.463 1_554 S
C1427 C1432 1.350 . S
C1427 N1435 1.427 1_554 S
C1428 H1419 0.930 . S
C1428 C1426 1.378 . S
C1428 C1429 1.367 . S
C1429 C1428 1.367 . S
C1429 C1431 1.433 1_556 S
C1430 C1426 1.350 . S
C1430 C1427 1.463 1_556 S
C1430 N1434 1.427 1_556 S
C1431 H1421 0.929 . S
C1431 C1429 1.433 1_554 S
C1431 N1434 1.384 . S
C1432 H1423 0.929 . S
C1432 C1424 1.378 . S
C1432 C1427 1.350 . S
C1433 H1420 0.929 . S
C1433 C1425 1.433 1_556 S
C1433 N1435 1.384 . S
N1434 C1430 1.427 1_554 S
N1434 C1431 1.384 . S
N1435 C1427 1.427 1_556 S
N1435 C1433 1.384 . S
H1436 C1442 0.930 . S
H1437 C1446 0.930 . S
H1438 C1451 0.929 . S
H1439 C1449 0.929 . S
H1440 C1444 0.929 . S
H1441 C1450 0.929 . S
C1442 H1436 0.930 . S
C1442 C1443 1.367 . S
C1442 C1450 1.378 . S
C1443 C1442 1.367 . S
C1443 C1451 1.433 . S
C1444 H1440 0.929 . S
C1444 C1446 1.378 . S
C1444 C1448 1.350 . S
C1445 C1448 1.463 . S
C1445 C1450 1.350 . S
C1445 N1453 1.427 . S
C1446 H1437 0.930 . S
C1446 C1444 1.378 . S
C1446 C1447 1.367 . S
C1447 C1446 1.367 . S
C1447 C1449 1.433 . S
C1448 C1444 1.350 . S
C1448 C1445 1.463 . S
C1448 N1452 1.427 . S
C1449 H1439 0.929 . S
C1449 C1447 1.433 . S
C1449 N1452 1.384 . S
C1450 H1441 0.929 . S
C1450 C1442 1.378 . S
C1450 C1445 1.350 . S
C1451 H1438 0.929 . S
C1451 C1443 1.433 . S
C1451 N1453 1.384 . S
N1452 C1448 1.427 . S
N1452 C1449 1.384 . S
N1453 C1445 1.427 . S
N1453 C1451 1.384 . S
H1454 C1460 0.930 . S
H1455 C1464 0.930 . S
H1456 C1469 0.929 . S
H1457 C1467 0.929 . S
H1458 C1462 0.929 . S
H1459 C1468 0.929 . S
C1460 H1454 0.930 . S
C1460 C1461 1.367 . S
C1460 C1468 1.378 . S
C1461 C1460 1.367 . S
C1461 C1469 1.433 . S
C1462 H1458 0.929 . S
C1462 C1464 1.378 . S
C1462 C1466 1.350 . S
C1463 C1466 1.463 . S
C1463 C1468 1.350 . S
C1463 N1471 1.427 . S
C1464 H1455 0.930 . S
C1464 C1462 1.378 . S
C1464 C1465 1.367 . S
C1465 C1464 1.367 . S
C1465 C1467 1.433 . S
C1466 C1462 1.350 . S
C1466 C1463 1.463 . S
C1466 N1470 1.427 . S
C1467 H1457 0.929 . S
C1467 C1465 1.433 . S
C1467 N1470 1.384 . S
C1468 H1459 0.929 . S
C1468 C1460 1.378 . S
C1468 C1463 1.350 . S
C1469 H1456 0.929 . S
C1469 C1461 1.433 . S
C1469 N1471 1.384 . S
N1470 C1466 1.427 . S
N1470 C1467 1.384 . S
N1471 C1463 1.427 . S
N1471 C1469 1.384 . S
H1472 C1478 0.930 . S
H1473 C1482 0.930 . S
H1474 C1487 0.929 . S
H1475 C1485 0.929 . S
H1476 C1480 0.929 . S
H1477 C1486 0.929 . S
C1478 H1472 0.930 . S
C1478 C1479 1.367 . S
C1478 C1486 1.378 . S
C1479 C1478 1.367 . S
C1479 C1487 1.433 . S
C1480 H1476 0.929 . S
C1480 C1482 1.378 . S
C1480 C1484 1.350 . S
C1481 C1484 1.463 . S
C1481 C1486 1.350 . S
C1481 N1489 1.427 . S
C1482 H1473 0.930 . S
C1482 C1480 1.378 . S
C1482 C1483 1.367 . S
C1483 C1482 1.367 . S
C1483 C1485 1.433 . S
C1484 C1480 1.350 . S
C1484 C1481 1.463 . S
C1484 N1488 1.427 . S
C1485 H1475 0.929 . S
C1485 C1483 1.433 . S
C1485 N1488 1.384 . S
C1486 H1477 0.929 . S
C1486 C1478 1.378 . S
C1486 C1481 1.350 . S
C1487 H1474 0.929 . S
C1487 C1479 1.433 . S
C1487 N1489 1.384 . S
N1488 C1484 1.427 . S
N1488 C1485 1.384 . S
N1489 C1481 1.427 . S
N1489 C1487 1.384 . S
H1490 C1496 0.930 . S
H1491 C1500 0.930 . S
H1492 C1505 0.929 . S
H1493 C1503 0.929 . S
H1494 C1498 0.929 . S
H1495 C1504 0.929 . S
C1496 H1490 0.930 . S
C1496 C1497 1.367 . S
C1496 C1504 1.378 . S
C1497 C1496 1.367 . S
C1497 C1505 1.433 . S
C1498 H1494 0.929 . S
C1498 C1500 1.378 . S
C1498 C1502 1.350 . S
C1499 C1502 1.463 . S
C1499 C1504 1.350 . S
C1499 N1507 1.427 . S
C1500 H1491 0.930 . S
C1500 C1498 1.378 . S
C1500 C1501 1.367 . S
C1501 C1500 1.367 . S
C1501 C1503 1.433 . S
C1502 C1498 1.350 . S
C1502 C1499 1.463 . S
C1502 N1506 1.427 . S
C1503 H1493 0.929 . S
C1503 C1501 1.433 . S
C1503 N1506 1.384 . S
C1504 H1495 0.929 . S
C1504 C1496 1.378 . S
C1504 C1499 1.350 . S
C1505 H1492 0.929 . S
C1505 C1497 1.433 . S
C1505 N1507 1.384 . S
N1506 C1502 1.427 . S
N1506 C1503 1.384 . S
N1507 C1499 1.427 . S
N1507 C1505 1.384 . S
H1508 C1514 0.930 . S
H1509 C1518 0.930 . S
H1510 C1523 0.929 . S
H1511 C1521 0.929 . S
H1512 C1516 0.929 . S
H1513 C1522 0.929 . S
C1514 H1508 0.930 . S
C1514 C1515 1.367 . S
C1514 C1522 1.378 . S
C1515 C1514 1.367 . S
C1515 C1523 1.433 . S
C1516 H1512 0.929 . S
C1516 C1518 1.378 . S
C1516 C1520 1.350 . S
C1517 C1520 1.463 . S
C1517 C1522 1.350 . S
C1517 N1525 1.427 . S
C1518 H1509 0.930 . S
C1518 C1516 1.378 . S
C1518 C1519 1.367 . S
C1519 C1518 1.367 . S
C1519 C1521 1.433 . S
C1520 C1516 1.350 . S
C1520 C1517 1.463 . S
C1520 N1524 1.427 . S
C1521 H1511 0.929 . S
C1521 C1519 1.433 . S
C1521 N1524 1.384 . S
C1522 H1513 0.929 . S
C1522 C1514 1.378 . S
C1522 C1517 1.350 . S
C1523 H1510 0.929 . S
C1523 C1515 1.433 . S
C1523 N1525 1.384 . S
N1524 C1520 1.427 . S
N1524 C1521 1.384 . S
N1525 C1517 1.427 . S
N1525 C1523 1.384 . S
H1526 C1532 0.930 . S
H1527 C1536 0.930 . S
H1528 C1541 0.929 . S
H1529 C1539 0.929 . S
H1530 C1534 0.929 . S
H1531 C1540 0.929 . S
C1532 H1526 0.930 . S
C1532 C1533 1.367 . S
C1532 C1540 1.378 . S
C1533 C1532 1.367 . S
C1533 C1541 1.433 . S
C1534 H1530 0.929 . S
C1534 C1536 1.378 . S
C1534 C1538 1.350 . S
C1535 C1538 1.463 . S
C1535 C1540 1.350 . S
C1535 N1543 1.427 . S
C1536 H1527 0.930 . S
C1536 C1534 1.378 . S
C1536 C1537 1.367 . S
C1537 C1536 1.367 . S
C1537 C1539 1.433 . S
C1538 C1534 1.350 . S
C1538 C1535 1.463 . S
C1538 N1542 1.427 . S
C1539 H1529 0.929 . S
C1539 C1537 1.433 . S
C1539 N1542 1.384 . S
C1540 H1531 0.929 . S
C1540 C1532 1.378 . S
C1540 C1535 1.350 . S
C1541 H1528 0.929 . S
C1541 C1533 1.433 . S
C1541 N1543 1.384 . S
N1542 C1538 1.427 . S
N1542 C1539 1.384 . S
N1543 C1535 1.427 . S
N1543 C1541 1.384 . S
H1544 C1550 0.930 . S
H1545 C1554 0.930 . S
H1546 C1559 0.929 . S
H1547 C1557 0.929 . S
H1548 C1552 0.929 . S
H1549 C1558 0.929 . S
C1550 H1544 0.930 . S
C1550 C1551 1.367 . S
C1550 C1558 1.378 . S
C1551 C1550 1.367 . S
C1551 C1559 1.433 . S
C1552 H1548 0.929 . S
C1552 C1554 1.378 . S
C1552 C1556 1.350 . S
C1553 C1556 1.463 . S
C1553 C1558 1.350 . S
C1553 N1561 1.427 . S
C1554 H1545 0.930 . S
C1554 C1552 1.378 . S
C1554 C1555 1.367 . S
C1555 C1554 1.367 . S
C1555 C1557 1.433 . S
C1556 C1552 1.350 . S
C1556 C1553 1.463 . S
C1556 N1560 1.427 . S
C1557 H1547 0.929 . S
C1557 C1555 1.433 . S
C1557 N1560 1.384 . S
C1558 H1549 0.929 . S
C1558 C1550 1.378 . S
C1558 C1553 1.350 . S
C1559 H1546 0.929 . S
C1559 C1551 1.433 . S
C1559 N1561 1.384 . S
N1560 C1556 1.427 . S
N1560 C1557 1.384 . S
N1561 C1553 1.427 . S
N1561 C1559 1.384 . S
H1562 C1568 0.930 . S
H1563 C1572 0.930 . S
H1564 C1577 0.929 . S
H1565 C1575 0.929 . S
H1566 C1570 0.929 . S
H1567 C1576 0.929 . S
C1568 H1562 0.930 . S
C1568 C1569 1.367 . S
C1568 C1576 1.378 . S
C1569 C1568 1.367 . S
C1569 C1577 1.433 . S
C1570 H1566 0.929 . S
C1570 C1572 1.378 . S
C1570 C1574 1.350 . S
C1571 C1574 1.463 . S
C1571 C1576 1.350 . S
C1571 N1579 1.427 . S
C1572 H1563 0.930 . S
C1572 C1570 1.378 . S
C1572 C1573 1.367 . S
C1573 C1572 1.367 . S
C1573 C1575 1.433 . S
C1574 C1570 1.350 . S
C1574 C1571 1.463 . S
C1574 N1578 1.427 . S
C1575 H1565 0.929 . S
C1575 C1573 1.433 . S
C1575 N1578 1.384 . S
C1576 H1567 0.929 . S
C1576 C1568 1.378 . S
C1576 C1571 1.350 . S
C1577 H1564 0.929 . S
C1577 C1569 1.433 . S
C1577 N1579 1.384 . S
N1578 C1574 1.427 . S
N1578 C1575 1.384 . S
N1579 C1571 1.427 . S
N1579 C1577 1.384 . S
H1580 C1586 0.930 . S
H1581 C1590 0.930 . S
H1582 C1595 0.929 . S
H1583 C1593 0.929 1_655 S
H1584 C1588 0.929 . S
H1585 C1594 0.963 . S
C1586 H1580 0.930 . S
C1586 C1587 1.367 1_655 S
C1586 C1594 1.384 . S
C1587 C1586 1.367 1_455 S
C1587 C1595 1.433 . S
C1588 H1584 0.929 . S
C1588 C1590 1.378 . S
C1588 C1592 1.350 . S
C1589 C1592 1.463 . S
C1589 C1594 1.310 1_455 S
C1589 N1597 1.427 . S
C1590 H1581 0.930 . S
C1590 C1588 1.378 . S
C1590 C1591 1.367 . S
C1591 C1590 1.367 . S
C1591 C1593 1.433 . S
C1592 C1588 1.350 . S
C1592 C1589 1.463 . S
C1592 N1596 1.427 . S
C1593 H1583 0.929 1_455 S
C1593 C1591 1.433 . S
C1593 N1596 1.384 . S
C1594 H1585 0.963 . S
C1594 C1586 1.384 . S
C1594 C1589 1.310 1_655 S
C1595 H1582 0.929 . S
C1595 C1587 1.433 . S
C1595 N1597 1.384 . S
N1596 C1592 1.427 . S
N1596 C1593 1.384 . S
N1597 C1589 1.427 . S
N1597 C1595 1.384 . S
H1598 C1604 0.930 . S
H1599 C1608 0.930 . S
H1600 C1613 0.929 . S
H1601 C1611 0.929 . S
H1602 C1606 0.929 . S
H1603 C1612 0.929 . S
C1604 H1598 0.930 . S
C1604 C1605 1.367 . S
C1604 C1612 1.378 . S
C1605 C1604 1.367 . S
C1605 C1613 1.433 . S
C1606 H1602 0.929 . S
C1606 C1608 1.378 . S
C1606 C1610 1.350 . S
C1607 C1610 1.463 . S
C1607 C1612 1.350 . S
C1607 N1615 1.427 . S
C1608 H1599 0.930 . S
C1608 C1606 1.378 . S
C1608 C1609 1.367 . S
C1609 C1608 1.367 . S
C1609 C1611 1.433 . S
C1610 C1606 1.350 . S
C1610 C1607 1.463 . S
C1610 N1614 1.427 . S
C1611 H1601 0.929 . S
C1611 C1609 1.433 . S
C1611 N1614 1.384 . S
C1612 H1603 0.929 . S
C1612 C1604 1.378 . S
C1612 C1607 1.350 . S
C1613 H1600 0.929 . S
C1613 C1605 1.433 . S
C1613 N1615 1.384 . S
N1614 C1610 1.427 . S
N1614 C1611 1.384 . S
N1615 C1607 1.427 . S
N1615 C1613 1.384 . S
H1616 C1622 0.930 . S
H1617 C1626 0.930 . S
H1618 C1631 0.929 . S
H1619 C1629 0.929 . S
H1620 C1624 0.929 . S
H1621 C1630 0.929 . S
C1622 H1616 0.930 . S
C1622 C1623 1.367 . S
C1622 C1630 1.378 . S
C1623 C1622 1.367 . S
C1623 C1631 1.433 . S
C1624 H1620 0.929 . S
C1624 C1626 1.378 . S
C1624 C1628 1.350 . S
C1625 C1628 1.463 . S
C1625 C1630 1.350 . S
C1625 N1633 1.427 . S
C1626 H1617 0.930 . S
C1626 C1624 1.378 . S
C1626 C1627 1.367 . S
C1627 C1626 1.367 . S
C1627 C1629 1.433 1_556 S
C1628 C1624 1.350 . S
C1628 C1625 1.463 . S
C1628 N1632 1.427 . S
C1629 H1619 0.929 . S
C1629 C1627 1.433 1_554 S
C1629 N1632 1.384 1_554 S
C1630 H1621 0.929 . S
C1630 C1622 1.378 . S
C1630 C1625 1.350 . S
C1631 H1618 0.929 . S
C1631 C1623 1.433 . S
C1631 N1633 1.384 . S
N1632 C1628 1.427 . S
N1632 C1629 1.384 1_556 S
N1633 C1625 1.427 . S
N1633 C1631 1.384 . S
H1634 C1640 0.930 . S
H1635 C1644 0.930 . S
H1636 C1649 0.929 . S
H1637 C1647 0.929 . S
H1638 C1642 0.929 . S
H1639 C1648 0.929 . S
C1640 H1634 0.930 . S
C1640 C1641 1.367 . S
C1640 C1648 1.378 . S
C1641 C1640 1.367 . S
C1641 C1649 1.433 . S
C1642 H1638 0.929 . S
C1642 C1644 1.378 . S
C1642 C1646 1.350 . S
C1643 C1646 1.463 . S
C1643 C1648 1.350 . S
C1643 N1651 1.427 . S
C1644 H1635 0.930 . S
C1644 C1642 1.378 . S
C1644 C1645 1.367 . S
C1645 C1644 1.367 . S
C1645 C1647 1.433 . S
C1646 C1642 1.350 . S
C1646 C1643 1.463 . S
C1646 N1650 1.427 . S
C1647 H1637 0.929 . S
C1647 C1645 1.433 . S
C1647 N1650 1.384 . S
C1648 H1639 0.929 . S
C1648 C1640 1.378 . S
C1648 C1643 1.350 . S
C1649 H1636 0.929 . S
C1649 C1641 1.433 . S
C1649 N1651 1.384 . S
N1650 C1646 1.427 . S
N1650 C1647 1.384 . S
N1651 C1643 1.427 . S
N1651 C1649 1.384 . S
H1652 C1658 0.930 . S
H1653 C1662 0.930 . S
H1654 C1667 0.929 1_655 S
H1655 C1665 0.929 . S
H1656 C1660 0.929 1_655 S
H1657 C1666 0.929 . S
C1658 H1652 0.930 . S
C1658 C1659 1.367 . S
C1658 C1666 1.378 . S
C1659 C1658 1.367 . S
C1659 C1667 1.433 . S
C1660 H1656 0.929 1_455 S
C1660 C1662 1.378 . S
C1660 C1664 1.350 . S
C1661 C1664 1.463 . S
C1661 C1666 1.350 . S
C1661 N1669 1.427 . S
C1662 H1653 0.930 . S
C1662 C1660 1.378 . S
C1662 C1663 1.367 . S
C1663 C1662 1.367 . S
C1663 C1665 1.433 . S
C1664 C1660 1.350 . S
C1664 C1661 1.463 . S
C1664 N1668 1.427 . S
C1665 H1655 0.929 . S
C1665 C1663 1.433 . S
C1665 N1668 1.384 . S
C1666 H1657 0.929 . S
C1666 C1658 1.378 . S
C1666 C1661 1.350 . S
C1667 H1654 0.929 1_455 S
C1667 C1659 1.433 . S
C1667 N1669 1.384 . S
N1668 C1664 1.427 . S
N1668 C1665 1.384 . S
N1669 C1661 1.427 . S
N1669 C1667 1.384 . S
H1670 C1676 0.930 . S
H1671 C1680 0.930 . S
H1672 C1685 0.929 . S
H1673 C1683 0.929 . S
H1674 C1678 0.929 . S
H1675 C1684 0.929 . S
C1676 H1670 0.930 . S
C1676 C1677 1.367 . S
C1676 C1684 1.378 . S
C1677 C1676 1.367 . S
C1677 C1685 1.433 . S
C1678 H1674 0.929 . S
C1678 C1680 1.378 . S
C1678 C1682 1.350 . S
C1679 C1682 1.463 . S
C1679 C1684 1.350 . S
C1679 N1687 1.427 . S
C1680 H1671 0.930 . S
C1680 C1678 1.378 . S
C1680 C1681 1.367 . S
C1681 C1680 1.367 . S
C1681 C1683 1.433 . S
C1682 C1678 1.350 . S
C1682 C1679 1.463 . S
C1682 N1686 1.427 . S
C1683 H1673 0.929 . S
C1683 C1681 1.433 . S
C1683 N1686 1.384 . S
C1684 H1675 0.929 . S
C1684 C1676 1.378 . S
C1684 C1679 1.350 . S
C1685 H1672 0.929 . S
C1685 C1677 1.433 . S
C1685 N1687 1.384 . S
N1686 C1682 1.427 . S
N1686 C1683 1.384 . S
N1687 C1679 1.427 . S
N1687 C1685 1.384 . S
H1688 C1694 0.930 . S
H1689 C1698 0.930 . S
H1690 C1703 0.929 . S
H1691 C1701 0.929 . S
H1692 C1696 0.929 . S
H1693 C1702 0.929 . S
C1694 H1688 0.930 . S
C1694 C1695 1.367 . S
C1694 C1702 1.378 . S
C1695 C1694 1.367 . S
C1695 C1703 1.433 . S
C1696 H1692 0.929 . S
C1696 C1698 1.378 . S
C1696 C1700 1.350 . S
C1697 C1700 1.463 . S
C1697 C1702 1.350 . S
C1697 N1705 1.427 . S
C1698 H1689 0.930 . S
C1698 C1696 1.378 . S
C1698 C1699 1.367 . S
C1699 C1698 1.367 . S
C1699 C1701 1.433 . S
C1700 C1696 1.350 . S
C1700 C1697 1.463 . S
C1700 N1704 1.427 . S
C1701 H1691 0.929 . S
C1701 C1699 1.433 . S
C1701 N1704 1.384 . S
C1702 H1693 0.929 . S
C1702 C1694 1.378 . S
C1702 C1697 1.350 . S
C1703 H1690 0.929 . S
C1703 C1695 1.433 . S
C1703 N1705 1.384 . S
N1704 C1700 1.427 . S
N1704 C1701 1.384 . S
N1705 C1697 1.427 . S
N1705 C1703 1.384 . S
H1706 C1712 0.930 . S
H1707 C1716 0.930 . S
H1708 C1721 0.929 . S
H1709 C1719 0.929 . S
H1710 C1714 0.929 . S
H1711 C1720 0.929 . S
C1712 H1706 0.930 . S
C1712 C1713 1.367 . S
C1712 C1720 1.378 . S
C1713 C1712 1.367 . S
C1713 C1721 1.433 . S
C1714 H1710 0.929 . S
C1714 C1716 1.378 . S
C1714 C1718 1.350 . S
C1715 C1718 1.463 . S
C1715 C1720 1.350 . S
C1715 N1723 1.427 . S
C1716 H1707 0.930 . S
C1716 C1714 1.378 . S
C1716 C1717 1.367 . S
C1717 C1716 1.367 . S
C1717 C1719 1.433 . S
C1718 C1714 1.350 . S
C1718 C1715 1.463 . S
C1718 N1722 1.427 . S
C1719 H1709 0.929 . S
C1719 C1717 1.433 . S
C1719 N1722 1.384 . S
C1720 H1711 0.929 . S
C1720 C1712 1.378 . S
C1720 C1715 1.350 . S
C1721 H1708 0.929 . S
C1721 C1713 1.433 . S
C1721 N1723 1.384 . S
N1722 C1718 1.427 . S
N1722 C1719 1.384 . S
N1723 C1715 1.427 . S
N1723 C1721 1.384 . S
H1724 C1730 0.930 . S
H1725 C1734 0.965 . S
H1726 C1739 0.929 . S
H1727 C1737 0.929 . S
H1728 C1732 0.929 . S
H1729 C1738 0.929 . S
C1730 H1724 0.930 . S
C1730 C1731 1.367 . S
C1730 C1738 1.378 . S
C1731 C1730 1.367 . S
C1731 C1739 1.433 . S
C1732 H1728 0.929 . S
C1732 C1734 1.378 . S
C1732 C1736 1.350 . S
C1733 C1736 1.463 . S
C1733 C1738 1.350 . S
C1733 N1741 1.427 . S
C1734 H1725 0.965 . S
C1734 C1732 1.378 . S
C1734 C1735 1.367 . S
C1735 C1734 1.367 . S
C1735 C1737 1.433 . S
C1736 C1732 1.350 . S
C1736 C1733 1.463 . S
C1736 N1740 1.427 . S
C1737 H1727 0.929 . S
C1737 C1735 1.433 . S
C1737 N1740 1.384 . S
C1738 H1729 0.929 . S
C1738 C1730 1.378 . S
C1738 C1733 1.350 . S
C1739 H1726 0.929 . S
C1739 C1731 1.433 . S
C1739 N1741 1.384 . S
N1740 C1736 1.427 . S
N1740 C1737 1.384 . S
N1741 C1733 1.427 . S
N1741 C1739 1.384 . S
H1742 C1748 0.930 . S
H1743 C1752 0.930 . S
H1744 C1757 0.929 . S
H1745 C1755 0.929 . S
H1746 C1750 0.929 . S
H1747 C1756 0.929 . S
C1748 H1742 0.930 . S
C1748 C1749 1.367 . S
C1748 C1756 1.378 . S
C1749 C1748 1.367 . S
C1749 C1757 1.433 . S
C1750 H1746 0.929 . S
C1750 C1752 1.378 . S
C1750 C1754 1.350 . S
C1751 C1754 1.463 . S
C1751 C1756 1.350 . S
C1751 N1759 1.427 . S
C1752 H1743 0.930 . S
C1752 C1750 1.378 . S
C1752 C1753 1.367 . S
C1753 C1752 1.367 . S
C1753 C1755 1.433 . S
C1754 C1750 1.350 . S
C1754 C1751 1.463 . S
C1754 N1758 1.427 . S
C1755 H1745 0.929 . S
C1755 C1753 1.433 . S
C1755 N1758 1.384 . S
C1756 H1747 0.929 . S
C1756 C1748 1.378 . S
C1756 C1751 1.350 . S
C1757 H1744 0.929 . S
C1757 C1749 1.433 . S
C1757 N1759 1.384 . S
N1758 C1754 1.427 . S
N1758 C1755 1.384 . S
N1759 C1751 1.427 . S
N1759 C1757 1.384 . S
H1760 C1766 0.930 . S
H1761 C1770 0.930 . S
H1762 C1775 0.929 . S
H1763 C1773 0.929 . S
H1764 C1768 0.929 . S
H1765 C1774 0.929 . S
C1766 H1760 0.930 . S
C1766 C1767 1.367 . S
C1766 C1774 1.378 . S
C1767 C1766 1.367 . S
C1767 C1775 1.433 . S
C1768 H1764 0.929 . S
C1768 C1770 1.378 . S
C1768 C1772 1.350 . S
C1769 C1772 1.463 . S
C1769 C1774 1.350 . S
C1769 N1777 1.427 . S
C1770 H1761 0.930 . S
C1770 C1768 1.378 . S
C1770 C1771 1.367 . S
C1771 C1770 1.367 . S
C1771 C1773 1.433 . S
C1772 C1768 1.350 . S
C1772 C1769 1.463 . S
C1772 N1776 1.427 . S
C1773 H1763 0.929 . S
C1773 C1771 1.433 . S
C1773 N1776 1.384 . S
C1774 H1765 0.929 . S
C1774 C1766 1.378 . S
C1774 C1769 1.350 . S
C1775 H1762 0.929 . S
C1775 C1767 1.433 . S
C1775 N1777 1.384 . S
N1776 C1772 1.427 . S
N1776 C1773 1.384 . S
N1777 C1769 1.427 . S
N1777 C1775 1.384 . S
H1778 C1784 0.930 . S
H1779 C1788 0.930 . S
H1780 C1793 0.929 . S
H1781 C1791 0.929 . S
H1782 C1786 0.929 . S
H1783 C1792 0.929 . S
C1784 H1778 0.930 . S
C1784 C1785 1.367 . S
C1784 C1792 1.378 . S
C1785 C1784 1.367 . S
C1785 C1793 1.433 . S
C1786 H1782 0.929 . S
C1786 C1788 1.378 . S
C1786 C1790 1.350 . S
C1787 C1790 1.463 . S
C1787 C1792 1.350 . S
C1787 N1795 1.427 . S
C1788 H1779 0.930 . S
C1788 C1786 1.378 . S
C1788 C1789 1.367 . S
C1789 C1788 1.367 . S
C1789 C1791 1.433 . S
C1790 C1786 1.350 . S
C1790 C1787 1.463 . S
C1790 N1794 1.427 . S
C1791 H1781 0.929 . S
C1791 C1789 1.433 . S
C1791 N1794 1.384 . S
C1792 H1783 0.929 . S
C1792 C1784 1.378 . S
C1792 C1787 1.350 . S
C1793 H1780 0.929 . S
C1793 C1785 1.433 . S
C1793 N1795 1.384 . S
N1794 C1790 1.427 . S
N1794 C1791 1.384 . S
N1795 C1787 1.427 . S
N1795 C1793 1.384 . S
H1796 C1802 0.930 . S
H1797 C1806 0.930 . S
H1798 C1811 0.929 . S
H1799 C1809 0.929 . S
H1800 C1804 0.929 . S
H1801 C1810 0.929 . S
C1802 H1796 0.930 . S
C1802 C1803 1.367 . S
C1802 C1810 1.378 . S
C1803 C1802 1.367 . S
C1803 C1811 1.433 . S
C1804 H1800 0.929 . S
C1804 C1806 1.378 . S
C1804 C1808 1.350 . S
C1805 C1808 1.463 . S
C1805 C1810 1.350 . S
C1805 N1813 1.427 . S
C1806 H1797 0.930 . S
C1806 C1804 1.378 . S
C1806 C1807 1.367 . S
C1807 C1806 1.367 . S
C1807 C1809 1.433 . S
C1808 C1804 1.350 . S
C1808 C1805 1.463 . S
C1808 N1812 1.427 . S
C1809 H1799 0.929 . S
C1809 C1807 1.433 . S
C1809 N1812 1.384 . S
C1810 H1801 0.929 . S
C1810 C1802 1.378 . S
C1810 C1805 1.350 . S
C1811 H1798 0.929 . S
C1811 C1803 1.433 . S
C1811 N1813 1.384 . S
N1812 C1808 1.427 . S
N1812 C1809 1.384 . S
N1813 C1805 1.427 . S
N1813 C1811 1.384 . S
H1814 C1820 0.930 . S
H1815 C1824 0.930 . S
H1816 C1829 0.929 . S
H1817 C1827 0.929 . S
H1818 C1822 0.929 . S
H1819 C1828 0.929 . S
C1820 H1814 0.930 . S
C1820 C1821 1.367 . S
C1820 C1828 1.378 . S
C1821 C1820 1.367 . S
C1821 C1829 1.433 . S
C1822 H1818 0.929 . S
C1822 C1824 1.378 . S
C1822 C1826 1.350 . S
C1823 C1826 1.463 . S
C1823 C1828 1.350 . S
C1823 N1831 1.427 . S
C1824 H1815 0.930 . S
C1824 C1822 1.378 . S
C1824 C1825 1.367 . S
C1825 C1824 1.367 . S
C1825 C1827 1.433 . S
C1826 C1822 1.350 . S
C1826 C1823 1.463 . S
C1826 N1830 1.427 . S
C1827 H1817 0.929 . S
C1827 C1825 1.433 . S
C1827 N1830 1.384 . S
C1828 H1819 0.929 . S
C1828 C1820 1.378 . S
C1828 C1823 1.350 . S
C1829 H1816 0.929 . S
C1829 C1821 1.433 . S
C1829 N1831 1.384 . S
N1830 C1826 1.427 . S
N1830 C1827 1.384 . S
N1831 C1823 1.427 . S
N1831 C1829 1.384 . S
H1832 C1838 0.930 . S
H1833 C1842 0.930 . S
H1834 C1847 0.929 . S
H1835 C1845 0.929 . S
H1836 C1840 0.929 . S
H1837 C1846 0.929 . S
C1838 H1832 0.930 . S
C1838 C1839 1.367 . S
C1838 C1846 1.378 . S
C1839 C1838 1.367 . S
C1839 C1847 1.433 . S
C1840 H1836 0.929 . S
C1840 C1842 1.378 . S
C1840 C1844 1.350 . S
C1841 C1844 1.463 . S
C1841 C1846 1.350 . S
C1841 N1849 1.427 . S
C1842 H1833 0.930 . S
C1842 C1840 1.378 . S
C1842 C1843 1.367 . S
C1843 C1842 1.367 . S
C1843 C1845 1.433 . S
C1844 C1840 1.350 . S
C1844 C1841 1.463 . S
C1844 N1848 1.427 . S
C1845 H1835 0.929 . S
C1845 C1843 1.433 . S
C1845 N1848 1.384 . S
C1846 H1837 0.929 . S
C1846 C1838 1.378 . S
C1846 C1841 1.350 . S
C1847 H1834 0.929 . S
C1847 C1839 1.433 . S
C1847 N1849 1.384 . S
N1848 C1844 1.427 . S
N1848 C1845 1.384 . S
N1849 C1841 1.427 . S
N1849 C1847 1.384 . S
H1850 C1856 0.930 . S
H1851 C1860 0.930 . S
H1852 C1865 0.929 . S
H1853 C1863 0.929 . S
H1854 C1858 0.929 . S
H1855 C1864 0.929 . S
C1856 H1850 0.930 . S
C1856 C1857 1.367 . S
C1856 C1864 1.378 . S
C1857 C1856 1.367 . S
C1857 C1865 1.433 . S
C1858 H1854 0.929 . S
C1858 C1860 1.378 . S
C1858 C1862 1.350 . S
C1859 C1862 1.463 . S
C1859 C1864 1.350 . S
C1859 N1867 1.427 . S
C1860 H1851 0.930 . S
C1860 C1858 1.378 . S
C1860 C1861 1.367 . S
C1861 C1860 1.367 . S
C1861 C1863 1.433 . S
C1862 C1858 1.350 . S
C1862 C1859 1.463 . S
C1862 N1866 1.427 . S
C1863 H1853 0.929 . S
C1863 C1861 1.433 . S
C1863 N1866 1.384 . S
C1864 H1855 0.929 . S
C1864 C1856 1.378 . S
C1864 C1859 1.350 . S
C1865 H1852 0.929 . S
C1865 C1857 1.433 . S
C1865 N1867 1.384 . S
N1866 C1862 1.427 . S
N1866 C1863 1.384 . S
N1867 C1859 1.427 . S
N1867 C1865 1.384 . S
H1868 C1874 0.930 . S
H1869 C1878 0.930 . S
H1870 C1883 0.929 . S
H1871 C1881 0.929 . S
H1872 C1876 0.929 . S
H1873 C1882 0.929 . S
C1874 H1868 0.930 . S
C1874 C1875 1.367 . S
C1874 C1882 1.378 . S
C1875 C1874 1.367 . S
C1875 C1883 1.433 . S
C1876 H1872 0.929 . S
C1876 C1878 1.378 . S
C1876 C1880 1.350 . S
C1877 C1880 1.463 . S
C1877 C1882 1.350 . S
C1877 N1885 1.427 . S
C1878 H1869 0.930 . S
C1878 C1876 1.378 . S
C1878 C1879 1.367 . S
C1879 C1878 1.367 . S
C1879 C1881 1.433 . S
C1880 C1876 1.350 . S
C1880 C1877 1.463 . S
C1880 N1884 1.427 . S
C1881 H1871 0.929 . S
C1881 C1879 1.433 . S
C1881 N1884 1.384 . S
C1882 H1873 0.929 . S
C1882 C1874 1.378 . S
C1882 C1877 1.350 . S
C1883 H1870 0.929 . S
C1883 C1875 1.433 . S
C1883 N1885 1.384 . S
N1884 C1880 1.427 . S
N1884 C1881 1.384 . S
N1885 C1877 1.427 . S
N1885 C1883 1.384 . S
H1886 C1892 0.930 . S
H1887 C1896 0.930 . S
H1888 C1901 0.929 . S
H1889 C1899 0.929 . S
H1890 C1894 0.929 . S
H1891 C1900 0.929 . S
C1892 H1886 0.930 . S
C1892 C1893 1.367 . S
C1892 C1900 1.378 . S
C1893 C1892 1.367 . S
C1893 C1901 1.433 . S
C1894 H1890 0.929 . S
C1894 C1896 1.378 . S
C1894 C1898 1.350 . S
C1895 C1898 1.463 . S
C1895 C1900 1.350 . S
C1895 N1903 1.427 . S
C1896 H1887 0.930 . S
C1896 C1894 1.378 . S
C1896 C1897 1.367 . S
C1897 C1896 1.367 . S
C1897 C1899 1.433 . S
C1898 C1894 1.350 . S
C1898 C1895 1.463 . S
C1898 N1902 1.427 . S
C1899 H1889 0.929 . S
C1899 C1897 1.433 . S
C1899 N1902 1.384 . S
C1900 H1891 0.929 . S
C1900 C1892 1.378 . S
C1900 C1895 1.350 . S
C1901 H1888 0.929 . S
C1901 C1893 1.433 . S
C1901 N1903 1.384 . S
N1902 C1898 1.427 . S
N1902 C1899 1.384 . S
N1903 C1895 1.427 . S
N1903 C1901 1.384 . S
H1904 C1910 0.930 . S
H1905 C1914 0.930 . S
H1906 C1919 0.929 . S
H1907 C1917 0.929 . S
H1908 C1912 0.929 . S
H1909 C1918 0.929 . S
C1910 H1904 0.930 . S
C1910 C1911 1.367 . S
C1910 C1918 1.378 . S
C1911 C1910 1.367 . S
C1911 C1919 1.433 . S
C1912 H1908 0.929 . S
C1912 C1914 1.378 . S
C1912 C1916 1.350 . S
C1913 C1916 1.463 . S
C1913 C1918 1.350 . S
C1913 N1921 1.427 . S
C1914 H1905 0.930 . S
C1914 C1912 1.378 . S
C1914 C1915 1.367 . S
C1915 C1914 1.367 . S
C1915 C1917 1.433 . S
C1916 C1912 1.350 . S
C1916 C1913 1.463 . S
C1916 N1920 1.427 . S
C1917 H1907 0.929 . S
C1917 C1915 1.433 . S
C1917 N1920 1.384 . S
C1918 H1909 0.929 . S
C1918 C1910 1.378 . S
C1918 C1913 1.350 . S
C1919 H1906 0.929 . S
C1919 C1911 1.433 . S
C1919 N1921 1.384 . S
N1920 C1916 1.427 . S
N1920 C1917 1.384 . S
N1921 C1913 1.427 . S
N1921 C1919 1.384 . S
H1922 C1928 0.930 . S
H1923 C1932 0.930 . S
H1924 C1937 0.929 . S
H1925 C1935 0.929 . S
H1926 C1930 0.929 . S
H1927 C1936 0.929 . S
C1928 H1922 0.930 . S
C1928 C1929 1.367 . S
C1928 C1936 1.378 . S
C1929 C1928 1.367 . S
C1929 C1937 1.433 1_554 S
C1930 H1926 0.929 . S
C1930 C1932 1.378 . S
C1930 C1934 1.365 . S
C1931 C1934 1.460 1_554 S
C1931 C1936 1.350 . S
C1931 N1939 1.427 1_554 S
C1932 H1923 0.930 . S
C1932 C1930 1.378 . S
C1932 C1933 1.367 . S
C1933 C1932 1.367 . S
C1933 C1935 1.433 1_556 S
C1934 C1930 1.365 . S
C1934 C1931 1.460 1_556 S
C1934 N1938 1.416 1_556 S
C1935 H1925 0.929 . S
C1935 C1933 1.433 1_554 S
C1935 N1938 1.384 . S
C1936 H1927 0.929 . S
C1936 C1928 1.378 . S
C1936 C1931 1.350 . S
C1937 H1924 0.929 . S
C1937 C1929 1.433 1_556 S
C1937 N1939 1.384 . S
N1938 C1934 1.416 1_554 S
N1938 C1935 1.384 . S
N1939 C1931 1.427 1_556 S
N1939 C1937 1.384 . S
H1940 C1946 0.930 . S
H1941 C1950 0.930 . S
H1942 C1955 0.929 . S
H1943 C1953 0.929 . S
H1944 C1948 0.929 . S
H1945 C1954 0.929 . S
C1946 H1940 0.930 . S
C1946 C1947 1.367 . S
C1946 C1954 1.378 . S
C1947 C1946 1.367 . S
C1947 C1955 1.433 . S
C1948 H1944 0.929 . S
C1948 C1950 1.378 . S
C1948 C1952 1.350 . S
C1949 C1952 1.463 . S
C1949 C1954 1.350 . S
C1949 N1957 1.427 . S
C1950 H1941 0.930 . S
C1950 C1948 1.378 . S
C1950 C1951 1.367 . S
C1951 C1950 1.367 . S
C1951 C1953 1.433 . S
C1952 C1948 1.350 . S
C1952 C1949 1.463 . S
C1952 N1956 1.427 . S
C1953 H1943 0.929 . S
C1953 C1951 1.433 . S
C1953 N1956 1.384 . S
C1954 H1945 0.929 . S
C1954 C1946 1.378 . S
C1954 C1949 1.350 . S
C1955 H1942 0.929 . S
C1955 C1947 1.433 . S
C1955 N1957 1.384 . S
N1956 C1952 1.427 . S
N1956 C1953 1.384 . S
N1957 C1949 1.427 . S
N1957 C1955 1.384 . S
H1958 C1964 0.930 . S
H1959 C1968 0.930 . S
H1960 C1973 0.929 . S
H1961 C1971 0.929 . S
H1962 C1966 0.929 . S
H1963 C1972 0.929 . S
C1964 H1958 0.930 . S
C1964 C1965 1.367 . S
C1964 C1972 1.378 . S
C1965 C1964 1.367 . S
C1965 C1973 1.433 . S
C1966 H1962 0.929 . S
C1966 C1968 1.378 . S
C1966 C1970 1.350 . S
C1967 C1970 1.463 . S
C1967 C1972 1.350 . S
C1967 N1975 1.427 . S
C1968 H1959 0.930 . S
C1968 C1966 1.378 . S
C1968 C1969 1.367 . S
C1969 C1968 1.367 . S
C1969 C1971 1.433 . S
C1970 C1966 1.350 . S
C1970 C1967 1.463 . S
C1970 N1974 1.427 . S
C1971 H1961 0.929 . S
C1971 C1969 1.433 . S
C1971 N1974 1.384 . S
C1972 H1963 0.929 . S
C1972 C1964 1.378 . S
C1972 C1967 1.350 . S
C1973 H1960 0.929 . S
C1973 C1965 1.433 . S
C1973 N1975 1.384 . S
N1974 C1970 1.427 . S
N1974 C1971 1.384 . S
N1975 C1967 1.427 . S
N1975 C1973 1.384 . S
H1976 C1982 0.930 . S
H1977 C1986 0.930 . S
H1978 C1991 0.929 . S
H1979 C1989 0.929 . S
H1980 C1984 0.929 . S
H1981 C1990 0.929 . S
C1982 H1976 0.930 . S
C1982 C1983 1.367 . S
C1982 C1990 1.378 . S
C1983 C1982 1.367 . S
C1983 C1991 1.433 . S
C1984 H1980 0.929 . S
C1984 C1986 1.378 . S
C1984 C1988 1.350 . S
C1985 C1988 1.463 . S
C1985 C1990 1.350 . S
C1985 N1993 1.427 . S
C1986 H1977 0.930 . S
C1986 C1984 1.378 . S
C1986 C1987 1.367 . S
C1987 C1986 1.367 . S
C1987 C1989 1.433 . S
C1988 C1984 1.350 . S
C1988 C1985 1.463 . S
C1988 N1992 1.427 . S
C1989 H1979 0.929 . S
C1989 C1987 1.433 . S
C1989 N1992 1.384 . S
C1990 H1981 0.929 . S
C1990 C1982 1.378 . S
C1990 C1985 1.350 . S
C1991 H1978 0.929 . S
C1991 C1983 1.433 . S
C1991 N1993 1.384 . S
N1992 C1988 1.427 . S
N1992 C1989 1.384 . S
N1993 C1985 1.427 . S
N1993 C1991 1.384 . S
H1994 C2000 0.930 . S
H1995 C2004 0.930 . S
H1996 C2009 0.929 . S
H1997 C2007 0.929 . S
H1998 C2002 0.929 . S
H1999 C2008 0.929 . S
C2000 H1994 0.930 . S
C2000 C2001 1.367 . S
C2000 C2008 1.378 . S
C2001 C2000 1.367 . S
C2001 C2009 1.433 . S
C2002 H1998 0.929 . S
C2002 C2004 1.378 . S
C2002 C2006 1.350 . S
C2003 C2006 1.463 . S
C2003 C2008 1.350 . S
C2003 N2011 1.427 . S
C2004 H1995 0.930 . S
C2004 C2002 1.378 . S
C2004 C2005 1.367 . S
C2005 C2004 1.367 . S
C2005 C2007 1.433 . S
C2006 C2002 1.350 . S
C2006 C2003 1.463 . S
C2006 N2010 1.427 . S
C2007 H1997 0.929 . S
C2007 C2005 1.433 . S
C2007 N2010 1.384 . S
C2008 H1999 0.929 . S
C2008 C2000 1.378 . S
C2008 C2003 1.350 . S
C2009 H1996 0.929 . S
C2009 C2001 1.433 . S
C2009 N2011 1.384 . S
N2010 C2006 1.427 . S
N2010 C2007 1.384 . S
N2011 C2003 1.427 . S
N2011 C2009 1.384 . S
H2012 C2018 0.930 1_655 S
H2013 C2022 0.930 . S
H2014 C2027 0.929 . S
H2015 C2025 0.929 1_554 S
H2016 C2020 0.929 . S
H2017 C2026 0.940 . S
C2018 H2012 0.930 1_455 S
C2018 C2019 1.367 . S
C2018 C2026 1.375 1_455 S
C2019 C2018 1.367 . S
C2019 C2027 1.433 . S
C2020 H2016 0.929 . S
C2020 C2022 1.378 . S
C2020 C2024 1.350 . S
C2021 C2024 1.463 . S
C2021 C2026 1.342 1_455 S
C2021 N2029 1.427 . S
C2022 H2013 0.930 . S
C2022 C2020 1.378 . S
C2022 C2023 1.367 1_455 S
C2023 C2022 1.367 1_655 S
C2023 C2025 1.433 . S
C2024 C2020 1.350 . S
C2024 C2021 1.463 . S
C2024 N2028 1.427 1_455 S
C2025 H2015 0.929 1_556 S
C2025 C2023 1.433 . S
C2025 N2028 1.384 . S
C2026 H2017 0.940 . S
C2026 C2018 1.375 1_655 S
C2026 C2021 1.342 1_655 S
C2027 H2014 0.929 . S
C2027 C2019 1.433 . S
C2027 N2029 1.384 . S
N2028 C2024 1.427 1_655 S
N2028 C2025 1.384 . S
N2029 C2021 1.427 . S
N2029 C2027 1.384 . S
H2030 C2036 0.930 . S
H2031 C2040 0.930 . S
H2032 C2045 0.929 . S
H2033 C2043 0.929 . S
H2034 C2038 0.929 . S
H2035 C2044 0.929 . S
C2036 H2030 0.930 . S
C2036 C2037 1.367 . S
C2036 C2044 1.378 . S
C2037 C2036 1.367 . S
C2037 C2045 1.433 . S
C2038 H2034 0.929 . S
C2038 C2040 1.378 . S
C2038 C2042 1.350 . S
C2039 C2042 1.463 . S
C2039 C2044 1.350 . S
C2039 N2047 1.427 . S
C2040 H2031 0.930 . S
C2040 C2038 1.378 . S
C2040 C2041 1.367 . S
C2041 C2040 1.367 . S
C2041 C2043 1.433 . S
C2042 C2038 1.350 . S
C2042 C2039 1.463 . S
C2042 N2046 1.427 . S
C2043 H2033 0.929 . S
C2043 C2041 1.433 . S
C2043 N2046 1.384 . S
C2044 H2035 0.929 . S
C2044 C2036 1.378 . S
C2044 C2039 1.350 . S
C2045 H2032 0.929 . S
C2045 C2037 1.433 . S
C2045 N2047 1.384 . S
N2046 C2042 1.427 . S
N2046 C2043 1.384 . S
N2047 C2039 1.427 . S
N2047 C2045 1.384 . S
H2048 C2054 0.930 . S
H2049 C2058 0.930 . S
H2050 C2063 0.929 . S
H2051 C2061 0.929 . S
H2052 C2056 0.929 . S
H2053 C2062 0.929 . S
C2054 H2048 0.930 . S
C2054 C2055 1.367 . S
C2054 C2062 1.378 . S
C2055 C2054 1.367 . S
C2055 C2063 1.433 . S
C2056 H2052 0.929 . S
C2056 C2058 1.378 . S
C2056 C2060 1.350 . S
C2057 C2060 1.463 . S
C2057 C2062 1.350 . S
C2057 N2065 1.427 . S
C2058 H2049 0.930 . S
C2058 C2056 1.378 . S
C2058 C2059 1.367 . S
C2059 C2058 1.367 . S
C2059 C2061 1.433 . S
C2060 C2056 1.350 . S
C2060 C2057 1.463 . S
C2060 N2064 1.427 . S
C2061 H2051 0.929 . S
C2061 C2059 1.433 . S
C2061 N2064 1.384 . S
C2062 H2053 0.929 . S
C2062 C2054 1.378 . S
C2062 C2057 1.350 . S
C2063 H2050 0.929 . S
C2063 C2055 1.433 . S
C2063 N2065 1.384 . S
N2064 C2060 1.427 . S
N2064 C2061 1.384 . S
N2065 C2057 1.427 . S
N2065 C2063 1.384 . S
H2066 C2072 0.930 . S
H2067 C2076 0.930 . S
H2068 C2081 0.929 . S
H2069 C2079 0.929 . S
H2070 C2074 0.929 . S
H2071 C2080 0.929 . S
C2072 H2066 0.930 . S
C2072 C2073 1.367 . S
C2072 C2080 1.378 . S
C2073 C2072 1.367 . S
C2073 C2081 1.433 . S
C2074 H2070 0.929 . S
C2074 C2076 1.378 . S
C2074 C2078 1.350 . S
C2075 C2078 1.463 . S
C2075 C2080 1.350 . S
C2075 N2083 1.427 . S
C2076 H2067 0.930 . S
C2076 C2074 1.378 . S
C2076 C2077 1.367 . S
C2077 C2076 1.367 . S
C2077 C2079 1.433 . S
C2078 C2074 1.350 . S
C2078 C2075 1.463 . S
C2078 N2082 1.427 . S
C2079 H2069 0.929 . S
C2079 C2077 1.433 . S
C2079 N2082 1.384 . S
C2080 H2071 0.929 . S
C2080 C2072 1.378 . S
C2080 C2075 1.350 . S
C2081 H2068 0.929 . S
C2081 C2073 1.433 . S
C2081 N2083 1.384 . S
N2082 C2078 1.427 . S
N2082 C2079 1.384 . S
N2083 C2075 1.427 . S
N2083 C2081 1.384 . S
H2084 C2090 0.927 1_655 S
H2085 C2094 0.930 . S
H2086 C2099 0.929 . S
H2087 C2097 0.929 . S
H2088 C2092 0.929 . S
H2089 C2098 0.922 1_655 S
C2090 H2084 0.927 1_455 S
C2090 C2091 1.367 . S
C2090 C2098 1.380 . S
C2091 C2090 1.367 . S
C2091 C2099 1.433 . S
C2092 H2088 0.929 . S
C2092 C2094 1.378 . S
C2092 C2096 1.350 . S
C2093 C2096 1.463 . S
C2093 C2098 1.354 . S
C2093 N2101 1.427 . S
C2094 H2085 0.930 . S
C2094 C2092 1.378 . S
C2094 C2095 1.367 1_455 S
C2095 C2094 1.367 1_655 S
C2095 C2097 1.433 . S
C2096 C2092 1.350 . S
C2096 C2093 1.463 . S
C2096 N2100 1.427 1_455 S
C2097 H2087 0.929 . S
C2097 C2095 1.433 . S
C2097 N2100 1.384 . S
C2098 H2089 0.922 1_455 S
C2098 C2090 1.380 . S
C2098 C2093 1.354 . S
C2099 H2086 0.929 . S
C2099 C2091 1.433 . S
C2099 N2101 1.384 . S
N2100 C2096 1.427 1_655 S
N2100 C2097 1.384 . S
N2101 C2093 1.427 . S
N2101 C2099 1.384 . S
H2102 C2108 0.930 . S
H2103 C2112 0.930 . S
H2104 C2117 0.929 . S
H2105 C2115 0.929 . S
H2106 C2110 0.929 . S
H2107 C2116 0.929 . S
C2108 H2102 0.930 . S
C2108 C2109 1.367 . S
C2108 C2116 1.378 . S
C2109 C2108 1.367 . S
C2109 C2117 1.433 . S
C2110 H2106 0.929 . S
C2110 C2112 1.378 . S
C2110 C2114 1.350 . S
C2111 C2114 1.463 . S
C2111 C2116 1.350 . S
C2111 N2119 1.427 . S
C2112 H2103 0.930 . S
C2112 C2110 1.378 . S
C2112 C2113 1.367 . S
C2113 C2112 1.367 . S
C2113 C2115 1.433 . S
C2114 C2110 1.350 . S
C2114 C2111 1.463 . S
C2114 N2118 1.427 . S
C2115 H2105 0.929 . S
C2115 C2113 1.433 . S
C2115 N2118 1.384 . S
C2116 H2107 0.929 . S
C2116 C2108 1.378 . S
C2116 C2111 1.350 . S
C2117 H2104 0.929 . S
C2117 C2109 1.433 . S
C2117 N2119 1.384 . S
N2118 C2114 1.427 . S
N2118 C2115 1.384 . S
N2119 C2111 1.427 . S
N2119 C2117 1.384 . S
H2120 C2126 0.930 . S
H2121 C2130 0.930 . S
H2122 C2135 0.929 . S
H2123 C2133 0.929 . S
H2124 C2128 0.929 . S
H2125 C2134 0.929 . S
C2126 H2120 0.930 . S
C2126 C2127 1.367 . S
C2126 C2134 1.378 . S
C2127 C2126 1.367 . S
C2127 C2135 1.433 . S
C2128 H2124 0.929 . S
C2128 C2130 1.378 . S
C2128 C2132 1.350 . S
C2129 C2132 1.463 . S
C2129 C2134 1.350 . S
C2129 N2137 1.427 . S
C2130 H2121 0.930 . S
C2130 C2128 1.378 . S
C2130 C2131 1.367 . S
C2131 C2130 1.367 . S
C2131 C2133 1.433 . S
C2132 C2128 1.350 . S
C2132 C2129 1.463 . S
C2132 N2136 1.427 . S
C2133 H2123 0.929 . S
C2133 C2131 1.433 . S
C2133 N2136 1.384 . S
C2134 H2125 0.929 . S
C2134 C2126 1.378 . S
C2134 C2129 1.350 . S
C2135 H2122 0.929 . S
C2135 C2127 1.433 . S
C2135 N2137 1.384 . S
N2136 C2132 1.427 . S
N2136 C2133 1.384 . S
N2137 C2129 1.427 . S
N2137 C2135 1.384 . S
H2138 C2144 0.930 . S
H2139 C2148 0.930 . S
H2140 C2153 0.929 . S
H2141 C2151 0.929 . S
H2142 C2146 0.929 . S
H2143 C2152 0.929 . S
C2144 H2138 0.930 . S
C2144 C2145 1.367 . S
C2144 C2152 1.378 . S
C2145 C2144 1.367 . S
C2145 C2153 1.433 . S
C2146 H2142 0.929 . S
C2146 C2148 1.378 . S
C2146 C2150 1.350 . S
C2147 C2150 1.463 . S
C2147 C2152 1.350 . S
C2147 N2155 1.427 . S
C2148 H2139 0.930 . S
C2148 C2146 1.378 . S
C2148 C2149 1.367 . S
C2149 C2148 1.367 . S
C2149 C2151 1.433 . S
C2150 C2146 1.350 . S
C2150 C2147 1.463 . S
C2150 N2154 1.427 . S
C2151 H2141 0.929 . S
C2151 C2149 1.433 . S
C2151 N2154 1.384 . S
C2152 H2143 0.929 . S
C2152 C2144 1.378 . S
C2152 C2147 1.350 . S
C2153 H2140 0.929 . S
C2153 C2145 1.433 . S
C2153 N2155 1.384 . S
N2154 C2150 1.427 . S
N2154 C2151 1.384 . S
N2155 C2147 1.427 . S
N2155 C2153 1.384 . S
H2156 C2162 0.930 . S
H2157 C2166 0.930 . S
H2158 C2171 0.929 . S
H2159 C2169 0.929 . S
H2160 C2164 0.929 . S
H2161 C2170 0.929 . S
C2162 H2156 0.930 . S
C2162 C2163 1.367 . S
C2162 C2170 1.378 . S
C2163 C2162 1.367 . S
C2163 C2171 1.433 . S
C2164 H2160 0.929 . S
C2164 C2166 1.378 . S
C2164 C2168 1.350 . S
C2165 C2168 1.463 . S
C2165 C2170 1.350 . S
C2165 N2173 1.427 . S
C2166 H2157 0.930 . S
C2166 C2164 1.378 . S
C2166 C2167 1.367 . S
C2167 C2166 1.367 . S
C2167 C2169 1.433 . S
C2168 C2164 1.350 . S
C2168 C2165 1.463 . S
C2168 N2172 1.427 . S
C2169 H2159 0.929 . S
C2169 C2167 1.433 . S
C2169 N2172 1.384 . S
C2170 H2161 0.929 . S
C2170 C2162 1.378 . S
C2170 C2165 1.350 . S
C2171 H2158 0.929 . S
C2171 C2163 1.433 . S
C2171 N2173 1.384 . S
N2172 C2168 1.427 . S
N2172 C2169 1.384 . S
N2173 C2165 1.427 . S
N2173 C2171 1.384 . S
H2174 C2180 0.930 . S
H2175 C2184 0.930 . S
H2176 C2189 0.929 . S
H2177 C2187 0.929 . S
H2178 C2182 0.929 . S
H2179 C2188 0.929 . S
C2180 H2174 0.930 . S
C2180 C2181 1.367 . S
C2180 C2188 1.378 . S
C2181 C2180 1.367 . S
C2181 C2189 1.433 . S
C2182 H2178 0.929 . S
C2182 C2184 1.378 . S
C2182 C2186 1.350 . S
C2183 C2186 1.463 . S
C2183 C2188 1.350 . S
C2183 N2191 1.427 . S
C2184 H2175 0.930 . S
C2184 C2182 1.378 . S
C2184 C2185 1.367 . S
C2185 C2184 1.367 . S
C2185 C2187 1.433 . S
C2186 C2182 1.350 . S
C2186 C2183 1.463 . S
C2186 N2190 1.427 . S
C2187 H2177 0.929 . S
C2187 C2185 1.433 . S
C2187 N2190 1.384 . S
C2188 H2179 0.929 . S
C2188 C2180 1.378 . S
C2188 C2183 1.350 . S
C2189 H2176 0.929 . S
C2189 C2181 1.433 . S
C2189 N2191 1.384 . S
N2190 C2186 1.427 . S
N2190 C2187 1.384 . S
N2191 C2183 1.427 . S
N2191 C2189 1.384 . S
H2192 C2198 0.930 . S
H2193 C2202 0.930 . S
H2194 C2207 0.929 . S
H2195 C2205 0.929 . S
H2196 C2200 0.929 . S
H2197 C2206 0.929 . S
C2198 H2192 0.930 . S
C2198 C2199 1.367 . S
C2198 C2206 1.378 . S
C2199 C2198 1.367 . S
C2199 C2207 1.433 . S
C2200 H2196 0.929 . S
C2200 C2202 1.378 . S
C2200 C2204 1.350 . S
C2201 C2204 1.463 . S
C2201 C2206 1.350 . S
C2201 N2209 1.427 . S
C2202 H2193 0.930 . S
C2202 C2200 1.378 . S
C2202 C2203 1.367 . S
C2203 C2202 1.367 . S
C2203 C2205 1.433 . S
C2204 C2200 1.350 . S
C2204 C2201 1.463 . S
C2204 N2208 1.427 . S
C2205 H2195 0.929 . S
C2205 C2203 1.433 . S
C2205 N2208 1.384 . S
C2206 H2197 0.929 . S
C2206 C2198 1.378 . S
C2206 C2201 1.350 . S
C2207 H2194 0.929 . S
C2207 C2199 1.433 . S
C2207 N2209 1.384 . S
N2208 C2204 1.427 . S
N2208 C2205 1.384 . S
N2209 C2201 1.427 . S
N2209 C2207 1.384 . S
H2210 C2216 0.930 . S
H2211 C2220 0.930 . S
H2212 C2225 0.929 . S
H2213 C2223 0.929 . S
H2214 C2218 0.929 . S
H2215 C2224 0.929 . S
C2216 H2210 0.930 . S
C2216 C2217 1.367 . S
C2216 C2224 1.378 . S
C2217 C2216 1.367 . S
C2217 C2225 1.433 . S
C2218 H2214 0.929 . S
C2218 C2220 1.378 . S
C2218 C2222 1.350 . S
C2219 C2222 1.463 . S
C2219 C2224 1.350 . S
C2219 N2227 1.427 . S
C2220 H2211 0.930 . S
C2220 C2218 1.378 . S
C2220 C2221 1.367 . S
C2221 C2220 1.367 . S
C2221 C2223 1.433 . S
C2222 C2218 1.350 . S
C2222 C2219 1.463 . S
C2222 N2226 1.427 . S
C2223 H2213 0.929 . S
C2223 C2221 1.433 . S
C2223 N2226 1.384 . S
C2224 H2215 0.929 . S
C2224 C2216 1.378 . S
C2224 C2219 1.350 . S
C2225 H2212 0.929 . S
C2225 C2217 1.433 . S
C2225 N2227 1.384 . S
N2226 C2222 1.427 . S
N2226 C2223 1.384 . S
N2227 C2219 1.427 . S
N2227 C2225 1.384 . S
H2228 C2234 0.930 . S
H2229 C2238 0.930 . S
H2230 C2243 0.929 . S
H2231 C2241 0.929 . S
H2232 C2236 0.929 . S
H2233 C2242 0.929 . S
C2234 H2228 0.930 . S
C2234 C2235 1.367 . S
C2234 C2242 1.378 . S
C2235 C2234 1.367 . S
C2235 C2243 1.433 . S
C2236 H2232 0.929 . S
C2236 C2238 1.378 . S
C2236 C2240 1.350 . S
C2237 C2240 1.463 . S
C2237 C2242 1.350 . S
C2237 N2245 1.427 . S
C2238 H2229 0.930 . S
C2238 C2236 1.378 . S
C2238 C2239 1.367 . S
C2239 C2238 1.367 . S
C2239 C2241 1.433 . S
C2240 C2236 1.350 . S
C2240 C2237 1.463 . S
C2240 N2244 1.427 . S
C2241 H2231 0.929 . S
C2241 C2239 1.433 . S
C2241 N2244 1.384 . S
C2242 H2233 0.929 . S
C2242 C2234 1.378 . S
C2242 C2237 1.350 . S
C2243 H2230 0.929 . S
C2243 C2235 1.433 . S
C2243 N2245 1.384 . S
N2244 C2240 1.427 . S
N2244 C2241 1.384 . S
N2245 C2237 1.427 . S
N2245 C2243 1.384 . S
H2246 C2252 0.930 . S
H2247 C2256 0.930 . S
H2248 C2261 0.929 . S
H2249 C2259 0.929 . S
H2250 C2254 0.929 . S
H2251 C2260 0.929 . S
C2252 H2246 0.930 . S
C2252 C2253 1.367 . S
C2252 C2260 1.378 . S
C2253 C2252 1.367 . S
C2253 C2261 1.433 . S
C2254 H2250 0.929 . S
C2254 C2256 1.378 . S
C2254 C2258 1.350 . S
C2255 C2258 1.463 . S
C2255 C2260 1.350 . S
C2255 N2263 1.427 . S
C2256 H2247 0.930 . S
C2256 C2254 1.378 . S
C2256 C2257 1.367 . S
C2257 C2256 1.367 . S
C2257 C2259 1.433 . S
C2258 C2254 1.350 . S
C2258 C2255 1.463 . S
C2258 N2262 1.427 . S
C2259 H2249 0.929 . S
C2259 C2257 1.433 . S
C2259 N2262 1.384 . S
C2260 H2251 0.929 . S
C2260 C2252 1.378 . S
C2260 C2255 1.350 . S
C2261 H2248 0.929 . S
C2261 C2253 1.433 . S
C2261 N2263 1.384 . S
N2262 C2258 1.427 . S
N2262 C2259 1.384 . S
N2263 C2255 1.427 . S
N2263 C2261 1.384 . S
H2264 C2270 0.930 . S
H2265 C2274 0.930 . S
H2266 C2279 0.929 . S
H2267 C2277 0.929 . S
H2268 C2272 0.929 . S
H2269 C2278 0.929 . S
C2270 H2264 0.930 . S
C2270 C2271 1.367 . S
C2270 C2278 1.378 . S
C2271 C2270 1.367 . S
C2271 C2279 1.433 . S
C2272 H2268 0.929 . S
C2272 C2274 1.378 . S
C2272 C2276 1.350 . S
C2273 C2276 1.463 . S
C2273 C2278 1.350 . S
C2273 N2281 1.427 . S
C2274 H2265 0.930 . S
C2274 C2272 1.378 . S
C2274 C2275 1.367 . S
C2275 C2274 1.367 . S
C2275 C2277 1.433 . S
C2276 C2272 1.350 . S
C2276 C2273 1.463 . S
C2276 N2280 1.427 . S
C2277 H2267 0.929 . S
C2277 C2275 1.433 . S
C2277 N2280 1.384 . S
C2278 H2269 0.929 . S
C2278 C2270 1.378 . S
C2278 C2273 1.350 . S
C2279 H2266 0.929 . S
C2279 C2271 1.433 . S
C2279 N2281 1.384 . S
N2280 C2276 1.427 . S
N2280 C2277 1.384 . S
N2281 C2273 1.427 . S
N2281 C2279 1.384 . S
H2282 C2288 0.930 . S
H2283 C2292 0.930 . S
H2284 C2297 0.929 . S
H2285 C2295 0.929 . S
H2286 C2290 0.929 . S
H2287 C2296 0.929 . S
C2288 H2282 0.930 . S
C2288 C2289 1.367 . S
C2288 C2296 1.378 . S
C2289 C2288 1.367 . S
C2289 C2297 1.433 . S
C2290 H2286 0.929 . S
C2290 C2292 1.378 . S
C2290 C2294 1.350 . S
C2291 C2294 1.463 . S
C2291 C2296 1.350 . S
C2291 N2299 1.427 . S
C2292 H2283 0.930 . S
C2292 C2290 1.378 . S
C2292 C2293 1.367 . S
C2293 C2292 1.367 . S
C2293 C2295 1.433 . S
C2294 C2290 1.350 . S
C2294 C2291 1.463 . S
C2294 N2298 1.427 . S
C2295 H2285 0.929 . S
C2295 C2293 1.433 . S
C2295 N2298 1.384 . S
C2296 H2287 0.929 . S
C2296 C2288 1.378 . S
C2296 C2291 1.350 . S
C2297 H2284 0.929 . S
C2297 C2289 1.433 . S
C2297 N2299 1.384 . S
N2298 C2294 1.427 . S
N2298 C2295 1.384 . S
N2299 C2291 1.427 . S
N2299 C2297 1.384 . S
H2300 C2306 0.930 . S
H2301 C2310 0.930 . S
H2302 C2315 0.929 . S
H2303 C2313 0.929 . S
H2304 C2308 0.929 . S
H2305 C2314 0.929 . S
C2306 H2300 0.930 . S
C2306 C2307 1.367 . S
C2306 C2314 1.378 . S
C2307 C2306 1.367 . S
C2307 C2315 1.433 . S
C2308 H2304 0.929 . S
C2308 C2310 1.378 . S
C2308 C2312 1.350 . S
C2309 C2312 1.463 . S
C2309 C2314 1.350 . S
C2309 N2317 1.427 . S
C2310 H2301 0.930 . S
C2310 C2308 1.378 . S
C2310 C2311 1.367 . S
C2311 C2310 1.367 . S
C2311 C2313 1.433 . S
C2312 C2308 1.350 . S
C2312 C2309 1.463 . S
C2312 N2316 1.427 . S
C2313 H2303 0.929 . S
C2313 C2311 1.433 . S
C2313 N2316 1.384 . S
C2314 H2305 0.929 . S
C2314 C2306 1.378 . S
C2314 C2309 1.350 . S
C2315 H2302 0.929 . S
C2315 C2307 1.433 . S
C2315 N2317 1.384 . S
N2316 C2312 1.427 . S
N2316 C2313 1.384 . S
N2317 C2309 1.427 . S
N2317 C2315 1.384 . S
H2318 C2324 0.930 . S
H2319 C2328 0.930 . S
H2320 C2333 0.929 . S
H2321 C2331 0.929 . S
H2322 C2326 0.929 . S
H2323 C2332 0.929 . S
C2324 H2318 0.930 . S
C2324 C2325 1.367 . S
C2324 C2332 1.378 . S
C2325 C2324 1.367 . S
C2325 C2333 1.433 1_554 S
C2326 H2322 0.929 . S
C2326 C2328 1.378 . S
C2326 C2330 1.350 . S
C2327 C2330 1.463 1_554 S
C2327 C2332 1.350 . S
C2327 N2335 1.427 1_554 S
C2328 H2319 0.930 . S
C2328 C2326 1.378 . S
C2328 C2329 1.367 . S
C2329 C2328 1.367 . S
C2329 C2331 1.433 1_556 S
C2330 C2326 1.350 . S
C2330 C2327 1.463 1_556 S
C2330 N2334 1.427 1_556 S
C2331 H2321 0.929 . S
C2331 C2329 1.433 1_554 S
C2331 N2334 1.384 . S
C2332 H2323 0.929 . S
C2332 C2324 1.378 . S
C2332 C2327 1.350 . S
C2333 H2320 0.929 . S
C2333 C2325 1.433 1_556 S
C2333 N2335 1.384 . S
N2334 C2330 1.427 1_554 S
N2334 C2331 1.384 . S
N2335 C2327 1.427 1_556 S
N2335 C2333 1.384 . S
H2336 C2342 0.930 . S
H2337 C2346 0.930 . S
H2338 C2351 0.929 . S
H2339 C2349 0.929 . S
H2340 C2344 0.929 . S
H2341 C2350 0.929 . S
C2342 H2336 0.930 . S
C2342 C2343 1.367 . S
C2342 C2350 1.378 . S
C2343 C2342 1.367 . S
C2343 C2351 1.433 . S
C2344 H2340 0.929 . S
C2344 C2346 1.378 . S
C2344 C2348 1.350 . S
C2345 C2348 1.463 . S
C2345 C2350 1.350 . S
C2345 N2353 1.427 . S
C2346 H2337 0.930 . S
C2346 C2344 1.378 . S
C2346 C2347 1.367 . S
C2347 C2346 1.367 . S
C2347 C2349 1.433 . S
C2348 C2344 1.350 . S
C2348 C2345 1.463 . S
C2348 N2352 1.427 . S
C2349 H2339 0.929 . S
C2349 C2347 1.433 . S
C2349 N2352 1.384 . S
C2350 H2341 0.929 . S
C2350 C2342 1.378 . S
C2350 C2345 1.350 . S
C2351 H2338 0.929 . S
C2351 C2343 1.433 . S
C2351 N2353 1.384 . S
N2352 C2348 1.427 . S
N2352 C2349 1.384 . S
N2353 C2345 1.427 . S
N2353 C2351 1.384 . S
H2354 C2360 0.930 . S
H2355 C2364 0.930 . S
H2356 C2369 0.929 . S
H2357 C2367 0.929 . S
H2358 C2362 0.929 1_556 S
H2359 C2368 0.929 . S
C2360 H2354 0.930 . S
C2360 C2361 1.367 . S
C2360 C2368 1.378 . S
C2361 C2360 1.367 . S
C2361 C2369 1.433 1_554 S
C2362 H2358 0.929 1_554 S
C2362 C2364 1.378 . S
C2362 C2366 1.350 . S
C2363 C2366 1.463 . S
C2363 C2368 1.350 . S
C2363 N2371 1.427 1_554 S
C2364 H2355 0.930 . S
C2364 C2362 1.378 . S
C2364 C2365 1.367 . S
C2365 C2364 1.367 . S
C2365 C2367 1.433 . S
C2366 C2362 1.350 . S
C2366 C2363 1.463 . S
C2366 N2370 1.427 . S
C2367 H2357 0.929 . S
C2367 C2365 1.433 . S
C2367 N2370 1.384 . S
C2368 H2359 0.929 . S
C2368 C2360 1.378 . S
C2368 C2363 1.350 . S
C2369 H2356 0.929 . S
C2369 C2361 1.433 1_556 S
C2369 N2371 1.384 . S
N2370 C2366 1.427 . S
N2370 C2367 1.384 . S
N2371 C2363 1.427 1_556 S
N2371 C2369 1.384 . S
H2372 C2378 0.930 . S
H2373 C2382 0.930 . S
H2374 C2387 0.929 . S
H2375 C2385 0.929 . S
H2376 C2380 0.929 . S
H2377 C2386 0.929 . S
C2378 H2372 0.930 . S
C2378 C2379 1.367 . S
C2378 C2386 1.378 . S
C2379 C2378 1.367 . S
C2379 C2387 1.433 . S
C2380 H2376 0.929 . S
C2380 C2382 1.378 . S
C2380 C2384 1.350 . S
C2381 C2384 1.463 . S
C2381 C2386 1.350 . S
C2381 N2389 1.427 . S
C2382 H2373 0.930 . S
C2382 C2380 1.378 . S
C2382 C2383 1.367 . S
C2383 C2382 1.367 . S
C2383 C2385 1.433 . S
C2384 C2380 1.350 . S
C2384 C2381 1.463 . S
C2384 N2388 1.427 . S
C2385 H2375 0.929 . S
C2385 C2383 1.433 . S
C2385 N2388 1.384 . S
C2386 H2377 0.929 . S
C2386 C2378 1.378 . S
C2386 C2381 1.350 . S
C2387 H2374 0.929 . S
C2387 C2379 1.433 . S
C2387 N2389 1.384 . S
N2388 C2384 1.427 . S
N2388 C2385 1.384 . S
N2389 C2381 1.427 . S
N2389 C2387 1.384 . S
H2390 C2396 0.930 . S
H2391 C2400 0.930 . S
H2392 C2405 0.929 . S
H2393 C2403 0.929 . S
H2394 C2398 0.929 . S
H2395 C2404 0.929 . S
C2396 H2390 0.930 . S
C2396 C2397 1.367 . S
C2396 C2404 1.378 . S
C2397 C2396 1.367 . S
C2397 C2405 1.433 . S
C2398 H2394 0.929 . S
C2398 C2400 1.378 . S
C2398 C2402 1.350 . S
C2399 C2402 1.463 . S
C2399 C2404 1.350 . S
C2399 N2407 1.427 . S
C2400 H2391 0.930 . S
C2400 C2398 1.378 . S
C2400 C2401 1.367 . S
C2401 C2400 1.367 . S
C2401 C2403 1.433 . S
C2402 C2398 1.350 . S
C2402 C2399 1.463 . S
C2402 N2406 1.427 . S
C2403 H2393 0.929 . S
C2403 C2401 1.433 . S
C2403 N2406 1.384 . S
C2404 H2395 0.929 . S
C2404 C2396 1.378 . S
C2404 C2399 1.350 . S
C2405 H2392 0.929 . S
C2405 C2397 1.433 . S
C2405 N2407 1.384 . S
N2406 C2402 1.427 . S
N2406 C2403 1.384 . S
N2407 C2399 1.427 . S
N2407 C2405 1.384 . S
C691 C328 1.274 . S
C687 C10 1.306 . S
C705 C23 1.596 . S
C709 C356 1.483 . S
C723 C36 1.306 . S
C727 C374 1.286 . S
C745 C400 1.458 . S
C741 C42 1.623 . S
C759 C18 1.622 . S
C763 C423 1.466 . S
C781 C443 1.291 . S
C777 C31 1.315 . S
C799 C471 1.465 1_556 S
C795 C43 1.595 . S
C813 C5 1.309 . S
C817 C489 1.277 . S
C831 C56 1.561 . S
C835 C330 1.562 1_545 S
C849 C70 1.281 . S
C853 C352 1.261 . S
C871 C376 1.559 . S
C867 C82 1.558 . S
C889 C397 1.301 . S
C885 C96 1.315 . S
C903 C57 1.319 . S
C907 C420 1.293 . S
C925 C445 1.562 . S
C921 C69 1.561 . S
C943 C467 1.266 . S
C939 C83 1.283 . S
C961 C491 1.562 . S
C957 C95 1.557 . S
C979 C331 1.109 1_556 S
C975 C94 1.229 . S
C997 C514 1.346 . S
C993 C108 1.350 . S
C1011 C122 1.256 . S
C1015 C538 1.134 . S
C1033 C562 1.289 . S
C1029 C140 1.328 . S
C1047 C55 1.235 . S
C1051 C492 1.139 . S
C1069 C377 1.154 1_565 S
C1065 C68 1.260 . S
C1083 C121 1.349 . S
C1087 C583 1.348 . S
C1105 C608 1.289 . S
C1101 C153 1.329 . S
C1119 C161 1.047 . S
C1123 C329 1.034 . S
C1141 C606 0.969 . S
C1137 C174 0.959 . S
C1155 C186 1.044 . S
C1159 C375 1.031 . S
C1173 C200 0.917 . S
C1177 C585 0.910 . S
C1195 C424 0.897 . S
C1191 C172 0.909 . S
C1213 C536 1.029 . S
C1209 C192 1.044 . S
C1231 C468 0.966 . S
C1227 C198 0.958 . S
C1249 C628 1.046 . S
C1245 C159 1.054 . S
C1267 C333 0.855 . S
C1263 C211 0.897 . S
C1281 C225 1.247 . S
C1285 C604 1.221 . S
C1303 C379 0.857 . S
C1299 C239 0.899 . S
C1317 C251 1.241 . S
C1321 C582 1.219 . S
C1335 C218 1.242 . S
C1339 C421 1.220 1_565 S
C1353 C226 0.899 . S
C1357 C540 0.861 . S
C1375 C466 1.218 . S
C1371 C238 1.245 . S
C1389 C252 0.909 . S
C1393 C632 0.881 . S
C1407 C250 1.246 . S
C1411 C332 1.204 . S
C1425 C264 1.156 . S
C1429 C517 1.100 . S
C1443 C276 1.255 . S
C1447 C447 1.220 . S
C1461 C290 1.160 . S
C1465 C561 1.052 . S
C1483 C631 1.213 . S
C1479 C213 1.246 . S
C1501 C378 1.231 . S
C1497 C224 1.263 . S
C1519 C402 1.079 . S
C1515 C283 1.154 . S
C1537 C354 1.078 . S
C1533 C303 1.164 . S
C1551 C29 1.309 . S
C1555 C650 1.277 . S
C1573 C609 1.469 . S
C1569 C49 1.592 . S
C1591 C673 1.292 . S
C1587 C3 1.313 . S
C1605 C16 1.627 . S
C1609 C584 1.475 . S
C1623 C44 1.624 . S
C1627 C515 1.470 1_556 S
C1645 C535 1.284 . S
C1641 C4 1.305 . S
C1663 C563 1.478 . S
C1659 C17 1.595 . S
C1681 C627 1.284 . S
C1677 C30 1.304 . S
C1699 C652 1.564 . S
C1695 C147 1.558 . S
C1713 C107 1.278 . S
C1717 C605 1.253 . S
C1731 C127 1.560 . S
C1735 C675 1.559 . S
C1753 C581 1.297 . S
C1749 C135 1.316 . S
C1771 C512 1.301 . S
C1767 C148 1.319 . S
C1785 C114 1.559 . S
C1789 C537 1.561 . S
C1807 C559 1.263 . S
C1803 C120 1.280 . S
C1821 C134 1.561 . S
C1825 C629 1.564 . S
C1843 C653 1.112 . S
C1839 C133 1.231 . S
C1861 C422 1.348 1_565 S
C1857 C75 1.351 . S
C1879 C446 1.160 . S
C1875 C81 1.259 . S
C1893 C101 1.329 . S
C1897 C470 1.285 . S
C1915 C630 1.109 . S
C1911 C146 1.229 . S
C1929 C109 1.261 . S
C1933 C676 1.160 1_556 S
C1951 C399 1.350 . S
C1947 C88 1.349 . S
C1969 C355 1.294 . S
C1965 C62 1.330 . S
C1983 C187 1.047 . S
C1987 C651 1.033 . S
C2005 C353 0.955 . S
C2001 C199 0.959 . S
C2023 C674 1.026 1_655 S
C2019 C160 1.044 . S
C2037 C173 0.902 . S
C2041 C401 0.878 . S
C2055 C205 0.902 . S
C2059 C516 0.891 . S
C2073 C166 1.048 . S
C2077 C444 1.032 . S
C2091 C179 0.952 . S
C2095 C560 0.959 . S
C2109 C185 1.051 . S
C2113 C490 1.041 . S
C2131 C655 0.880 . S
C2127 C302 0.911 . S
C2145 C270 1.256 . S
C2149 C351 1.233 . S
C2167 C678 0.857 . S
C2163 C278 0.902 . S
C2181 C296 1.244 . S
C2185 C398 1.222 . S
C2199 C309 1.246 . S
C2203 C513 1.226 . S
C2221 C448 0.868 . S
C2217 C263 0.903 . S
C2235 C277 1.257 . S
C2239 C558 1.236 . S
C2257 C494 0.868 . S
C2253 C289 0.902 . S
C2275 C654 1.204 . S
C2271 C291 1.244 . S
C2293 C425 1.101 . S
C2289 C231 1.155 . S
C2307 C237 1.255 . S
C2311 C539 1.213 . S
C2329 C469 1.064 1_556 S
C2325 C257 1.161 . S
C2347 C493 1.210 . S
C2343 C304 1.250 . S
C2361 C265 1.257 . S
C2365 C677 1.212 . S
C2383 C586 1.103 . S
C2379 C244 1.158 . S
C2401 C607 1.058 . S
C2397 C212 1.157 . S
