# Generated by pormake.
# Topology hwx, (6,3)-cn, num edge types: 1
# Building blocks:
#     Node 0, Type 0, BuildingBlock: IZENUY_clean_sbu_0, # of connection points: 6
#     Node 1, Type 0, BuildingBlock: IZENUY_clean_sbu_0, # of connection points: 6
#     Node 2, Type 0, BuildingBlock: IZENUY_clean_sbu_0, # of connection points: 6
#     Node 3, Type 0, BuildingBlock: IZENUY_clean_sbu_0, # of connection points: 6
#     Node 4, Type 1, BuildingBlock: OLANEW_clean_sbu_2, # of connection points: 3
#     Node 5, Type 1, BuildingBlock: OLANEW_clean_sbu_2, # of connection points: 3
#     Node 6, Type 1, BuildingBlock: OLANEW_clean_sbu_2, # of connection points: 3
#     Node 7, Type 1, BuildingBlock: OLANEW_clean_sbu_2, # of connection points: 3
#     Node 8, Type 1, BuildingBlock: OLANEW_clean_sbu_2, # of connection points: 3
#     Node 9, Type 1, BuildingBlock: OLANEW_clean_sbu_2, # of connection points: 3
#     Node 10, Type 1, BuildingBlock: OLANEW_clean_sbu_2, # of connection points: 3
#     Node 11, Type 1, BuildingBlock: OLANEW_clean_sbu_2, # of connection points: 3
#     Edge 12, Type (0, 1), BuildingBlock: MIFKUJ_clean_linker_0, # of connection points: 2
#     Edge 13, Type (0, 1), BuildingBlock: MIFKUJ_clean_linker_0, # of connection points: 2
#     Edge 14, Type (0, 1), BuildingBlock: MIFKUJ_clean_linker_0, # of connection points: 2
#     Edge 15, Type (0, 1), BuildingBlock: MIFKUJ_clean_linker_0, # of connection points: 2
#     Edge 16, Type (0, 1), BuildingBlock: MIFKUJ_clean_linker_0, # of connection points: 2
#     Edge 17, Type (0, 1), BuildingBlock: MIFKUJ_clean_linker_0, # of connection points: 2
#     Edge 18, Type (0, 1), BuildingBlock: MIFKUJ_clean_linker_0, # of connection points: 2
#     Edge 19, Type (0, 1), BuildingBlock: MIFKUJ_clean_linker_0, # of connection points: 2
#     Edge 20, Type (0, 1), BuildingBlock: MIFKUJ_clean_linker_0, # of connection points: 2
#     Edge 21, Type (0, 1), BuildingBlock: MIFKUJ_clean_linker_0, # of connection points: 2
#     Edge 22, Type (0, 1), BuildingBlock: MIFKUJ_clean_linker_0, # of connection points: 2
#     Edge 23, Type (0, 1), BuildingBlock: MIFKUJ_clean_linker_0, # of connection points: 2
#     Edge 24, Type (0, 1), BuildingBlock: MIFKUJ_clean_linker_0, # of connection points: 2
#     Edge 25, Type (0, 1), BuildingBlock: MIFKUJ_clean_linker_0, # of connection points: 2
#     Edge 26, Type (0, 1), BuildingBlock: MIFKUJ_clean_linker_0, # of connection points: 2
#     Edge 27, Type (0, 1), BuildingBlock: MIFKUJ_clean_linker_0, # of connection points: 2
#     Edge 28, Type (0, 1), BuildingBlock: MIFKUJ_clean_linker_0, # of connection points: 2
#     Edge 29, Type (0, 1), BuildingBlock: MIFKUJ_clean_linker_0, # of connection points: 2
#     Edge 30, Type (0, 1), BuildingBlock: MIFKUJ_clean_linker_0, # of connection points: 2
#     Edge 31, Type (0, 1), BuildingBlock: MIFKUJ_clean_linker_0, # of connection points: 2
#     Edge 32, Type (0, 1), BuildingBlock: MIFKUJ_clean_linker_0, # of connection points: 2
#     Edge 33, Type (0, 1), BuildingBlock: MIFKUJ_clean_linker_0, # of connection points: 2
#     Edge 34, Type (0, 1), BuildingBlock: MIFKUJ_clean_linker_0, # of connection points: 2
#     Edge 35, Type (0, 1), BuildingBlock: MIFKUJ_clean_linker_0, # of connection points: 2
# Relax obj value: 0.014
# Max RMSD: 0.072
# Mean RMSD: 0.062
data_MOF--net-hwx--node1-IZENUY_clean_sbu_0--node2-OLANEW_clean_sbu_2--edge1-MIFKUJ_clean_linker_0
_symmetry_space_group_name_H-M    P1
_symmetry_Int_Tables_number       1
_symmetry_cell_setting            triclinic
loop_
_symmetry_equiv_pos_as_xyz
'x, y, z'
_cell_length_a     69.198828
_cell_length_b     69.283729
_cell_length_c     28.702785
_cell_angle_alpha  86.058955
_cell_angle_beta   93.933718
_cell_angle_gamma 90.029305
loop_
_atom_site_label
_atom_site_type_symbol
_atom_site_fract_x
_atom_site_fract_y
_atom_site_fract_z
_atom_type_partial_charge
Fe0 Fe 0.23961 0.20875 0.06614 0.0
Fe1 Fe 0.23569 0.21045 0.95894 0.0
O2 O 0.22978 0.1995 0.01371 0.0
Fe3 Fe 0.21406 0.17934 0.0162 0.0
O4 O 0.19689 0.19211 0.04826 0.0
O5 O 0.21869 0.2024 0.09985 0.0
O6 O 0.22806 0.23205 0.05078 0.0
C7 C 0.23048 0.24224 0.01351 0.0
C8 C 0.24295 0.16995 0.08904 0.0
O9 O 0.23767 0.23501 0.97919 0.0
C10 C 0.23606 0.1704 0.94497 0.0
O11 O 0.26242 0.21683 0.04226 0.0
O12 O 0.26132 0.20574 0.97234 0.0
O13 O 0.22602 0.16793 0.07026 0.0
O14 O 0.25162 0.18594 0.08456 0.0
C15 C 0.19711 0.20354 0.94049 0.0
O16 O 0.23474 0.18788 0.92899 0.0
O17 O 0.23019 0.16522 0.98453 0.0
C18 C 0.27093 0.21154 0.00757 0.0
O19 O 0.21048 0.21591 0.94168 0.0
O20 O 0.19934 0.18711 0.9625 0.0
C21 C 0.20119 0.1993 0.08682 0.0
Fe22 Fe 0.26854 0.72005 0.61604 0.0
Fe23 Fe 0.29019 0.69085 0.56233 0.0
O24 O 0.27558 0.71187 0.56242 0.0
Fe25 Fe 0.26804 0.7248 0.5089 0.0
O26 O 0.28006 0.74654 0.52693 0.0
O27 O 0.26852 0.74589 0.59639 0.0
O28 O 0.29357 0.72295 0.63762 0.0
C29 C 0.30622 0.70973 0.64063 0.0
C30 C 0.23486 0.72585 0.5614 0.0
O31 O 0.30365 0.69468 0.6183 0.0
C32 C 0.2637 0.68787 0.48273 0.0
O33 O 0.26717 0.69575 0.64545 0.0
O34 O 0.27227 0.67597 0.5908 0.0
O35 O 0.24471 0.73252 0.5284 0.0
O36 O 0.24306 0.7177 0.59816 0.0
C37 C 0.30667 0.71393 0.49504 0.0
O38 O 0.2794 0.68327 0.5062 0.0
O39 O 0.2556 0.7039 0.487 0.0
C40 C 0.2655 0.67924 0.62921 0.0
O41 O 0.30921 0.70415 0.53371 0.0
O42 O 0.28988 0.71945 0.47949 0.0
C43 C 0.27671 0.75485 0.56324 0.0
Fe44 Fe 0.77891 0.7906 0.95325 0.0
Fe45 Fe 0.77907 0.78763 0.06013 0.0
O46 O 0.78632 0.79963 0.0078 0.0
Fe47 Fe 0.80102 0.82056 0.01022 0.0
O48 O 0.79061 0.83224 0.9546 0.0
O49 O 0.76664 0.81315 0.9334 0.0
O50 O 0.75543 0.78168 0.97176 0.0
C51 C 0.7455 0.78622 0.00492 0.0
C52 C 0.8178 0.80187 0.9423 0.0
O53 O 0.75366 0.79179 0.0423 0.0
C54 C 0.81682 0.79571 0.08561 0.0
O55 O 0.79067 0.76738 0.96947 0.0
O56 O 0.77844 0.76341 0.03798 0.0
O57 O 0.82004 0.80917 0.98133 0.0
O58 O 0.80104 0.79791 0.92503 0.0
C59 C 0.77642 0.82721 0.07786 0.0
O60 O 0.8041 0.78278 0.08093 0.0
O61 O 0.81415 0.81253 0.06595 0.0
C62 C 0.78677 0.7566 0.00477 0.0
O63 O 0.77825 0.80957 0.09208 0.0
O64 O 0.78301 0.83342 0.03971 0.0
C65 C 0.77471 0.82948 0.93143 0.0
Fe66 Fe 0.69858 0.32757 0.5062 0.0
Fe67 Fe 0.72093 0.29678 0.56983 0.0
O68 O 0.71371 0.30682 0.51301 0.0
Fe69 Fe 0.72163 0.29605 0.46349 0.0
O70 O 0.72315 0.31906 0.42764 0.0
O71 O 0.71642 0.34136 0.47519 0.0
O72 O 0.70882 0.33806 0.55977 0.0
C73 C 0.72522 0.33524 0.58184 0.0
C74 C 0.68393 0.30462 0.43391 0.0
O75 O 0.7333 0.31887 0.58401 0.0
C76 C 0.71254 0.26403 0.52526 0.0
O77 O 0.67965 0.31507 0.5367 0.0
O78 O 0.69889 0.30397 0.59633 0.0
O79 O 0.69695 0.29185 0.4414 0.0
O80 O 0.68581 0.32086 0.45142 0.0
C81 C 0.75466 0.29305 0.52112 0.0
O82 O 0.70895 0.27421 0.55841 0.0
O83 O 0.72147 0.27112 0.49085 0.0
C84 C 0.68201 0.30733 0.57771 0.0
O85 O 0.74434 0.28762 0.55425 0.0
O86 O 0.74688 0.29957 0.48226 0.0
C87 C 0.72401 0.33642 0.43913 0.0
O88 O 0.19524 0.50835 0.92835 0.0
Cd89 Cd 0.18841 0.48606 0.99511 0.0
O90 O 0.21009 0.52381 0.98413 0.0
Cd91 Cd 0.22409 0.54887 0.01401 0.0
O92 O 0.2304 0.57073 0.06412 0.0
C93 C 0.21739 0.57323 0.09236 0.0
O94 O 0.20136 0.56312 0.0885 0.0
C95 C 0.20515 0.52277 0.94091 0.0
C96 C 0.19342 0.44679 0.98399 0.0
O97 O 0.17649 0.45448 0.97936 0.0
O98 O 0.20798 0.45773 0.99265 0.0
O99 O 0.97237 0.76536 0.47149 0.0
Cd100 Cd 0.9894 0.76445 0.5493 0.0
O101 O 0.97445 0.79696 0.45918 0.0
Cd102 Cd 0.98443 0.79996 0.53201 0.0
O103 O 0.9733 0.79891 0.60142 0.0
C104 C 0.9573 0.78997 0.60332 0.0
O105 O 0.95001 0.78215 0.56556 0.0
C106 C 0.96935 0.78064 0.44474 0.0
C107 C 0.02929 0.75914 0.54705 0.0
O108 O 0.01788 0.74466 0.55192 0.0
O109 O 0.02181 0.77614 0.54297 0.0
O110 O 0.78743 0.49061 0.08988 0.0
Cd111 Cd 0.7904 0.50903 0.0145 0.0
O112 O 0.8065 0.46727 0.07169 0.0
Cd113 Cd 0.81037 0.47859 1.00019 0.0
O114 O 0.80755 0.47021 0.92819 0.0
C115 C 0.79092 0.47106 0.90645 0.0
O116 O 0.77648 0.47869 0.92644 0.0
C117 C 0.79591 0.47445 0.10063 0.0
C118 C 0.79385 0.54911 0.0189 0.0
O119 O 0.77727 0.54085 0.01888 0.0
O120 O 0.80889 0.53841 0.01773 0.0
O121 O 0.01164 0.21524 0.6376 0.0
Cd122 Cd 0.985 0.20892 0.58032 0.0
O123 O 0.02897 0.22126 0.5775 0.0
Cd124 Cd 0.05492 0.22511 0.53854 0.0
O125 O 0.07477 0.22463 0.48259 0.0
C126 C 0.06773 0.22092 0.44209 0.0
O127 O 0.04903 0.2178 0.43579 0.0
C128 C 0.02793 0.21939 0.62165 0.0
C129 C 0.95177 0.23153 0.58149 0.0
O130 O 0.95426 0.21609 0.60853 0.0
O131 O 0.9653 0.2366 0.55487 0.0
O132 O 0.68635 0.99549 0.62404 0.0
Cd133 Cd 0.67028 0.01949 0.56738 0.0
O134 O 0.70051 0.98456 0.56527 0.0
Cd135 Cd 0.71657 0.96462 0.52599 0.0
O136 O 0.72688 0.95008 0.46692 0.0
C137 C 0.72137 0.93302 0.45912 0.0
O138 O 0.71 0.92393 0.48813 0.0
C139 C 0.69743 0.98314 0.60856 0.0
C140 C 0.68024 0.05841 0.5735 0.0
O141 O 0.66649 0.0509 0.59634 0.0
O142 O 0.68972 0.04734 0.54912 0.0
O143 O 0.5316 0.26197 0.05918 0.0
Cd144 Cd 0.51424 0.25773 0.98325 0.0
O145 O 0.52546 0.29315 0.0581 0.0
Cd146 Cd 0.51491 0.2936 0.98472 0.0
O147 O 0.52602 0.29152 0.91589 0.0
C148 C 0.5429 0.28417 0.91793 0.0
O149 O 0.55108 0.27831 0.95915 0.0
C150 C 0.53278 0.27782 0.07912 0.0
C151 C 0.47493 0.24985 0.98993 0.0
O152 O 0.48741 0.23612 0.99097 0.0
O153 O 0.48108 0.2673 0.98607 0.0
O154 O 0.30008 0.01886 0.46945 0.0
Cd155 Cd 0.3061 0.00124 0.54604 0.0
O156 O 0.32693 0.03563 0.47828 0.0
Cd157 Cd 0.33093 0.02668 0.55263 0.0
O158 O 0.32146 0.03657 0.61795 0.0
C159 C 0.3148 0.05373 0.61265 0.0
O160 O 0.31487 0.06294 0.57105 0.0
C161 C 0.31197 0.03117 0.45309 0.0
C162 C 0.29991 0.96148 0.54537 0.0
O163 O 0.28671 0.97279 0.5572 0.0
O164 O 0.3159 0.969 0.53331 0.0
O165 O 0.4927 0.69748 0.93815 0.0
Cd166 Cd 0.52041 0.68987 0.99388 0.0
O167 O 0.47782 0.70694 0.99736 0.0
Cd168 Cd 0.45356 0.71492 0.03712 0.0
O169 O 0.43448 0.71888 0.09324 0.0
C170 C 0.43898 0.71021 0.13299 0.0
O171 O 0.45468 0.6994 0.13822 0.0
C172 C 0.47745 0.70384 0.95414 0.0
C173 C 0.55257 0.71379 0.98558 0.0
O174 O 0.55033 0.6989 0.9616 0.0
O175 O 0.53932 0.71766 0.01266 0.0
H176 H 0.16188 0.19344 0.07398 0.0
H177 H 0.13752 0.1972 0.13094 0.0
H178 H 0.18202 0.21544 0.23095 0.0
H179 H 0.20632 0.21168 0.17485 0.0
H180 H 0.15878 0.18784 0.26924 0.0
H181 H 0.15137 0.24787 0.17342 0.0
H182 H 0.1455 0.26742 0.09869 0.0
H183 H 0.08945 0.24154 0.07788 0.0
H184 H 0.09511 0.22162 0.15223 0.0
H185 H 0.10688 0.22674 0.44287 0.0
H186 H 0.12785 0.22322 0.37888 0.0
H187 H 0.07844 0.20812 0.28893 0.0
H188 H 0.05728 0.21192 0.35255 0.0
H189 H 0.10226 0.23222 0.24233 0.0
H190 H 0.10869 0.17319 0.33849 0.0
H191 H 0.11443 0.15273 0.41187 0.0
H192 H 0.17194 0.17553 0.43051 0.0
H193 H 0.16645 0.19635 0.35755 0.0
C194 C 0.16645 0.19831 0.10804 0.0
C195 C 0.18608 0.20217 0.11987 0.0
C196 C 0.15251 0.2005 0.14047 0.0
C197 C 0.15798 0.20662 0.18513 0.0
C198 C 0.1775 0.21062 0.19676 0.0
C199 C 0.19138 0.20851 0.1645 0.0
C200 C 0.1436 0.20852 0.22051 0.0
C201 C 0.14652 0.19769 0.26354 0.0
C202 C 0.1273 0.22092 0.21245 0.0
C203 C 0.12375 0.2331 0.16813 0.0
C204 C 0.13785 0.24625 0.15275 0.0
C205 C 0.13455 0.25741 0.11048 0.0
C206 C 0.11714 0.25567 0.08347 0.0
C207 C 0.10295 0.24284 0.0988 0.0
C208 C 0.10619 0.23162 0.14101 0.0
C209 C 0.10044 0.22274 0.40945 0.0
C210 C 0.08042 0.21948 0.40294 0.0
C211 C 0.11246 0.22067 0.37293 0.0
C212 C 0.10474 0.21513 0.32931 0.0
C213 C 0.0847 0.21236 0.32231 0.0
C214 C 0.07265 0.21447 0.3588 0.0
C215 C 0.1177 0.21184 0.29147 0.0
C216 C 0.11446 0.22232 0.24796 0.0
C217 C 0.1337 0.19902 0.29892 0.0
C218 C 0.13709 0.18646 0.34276 0.0
C219 C 0.12251 0.17395 0.35842 0.0
C220 C 0.12572 0.16227 0.39991 0.0
C221 C 0.14352 0.16286 0.4259 0.0
C222 C 0.15815 0.1751 0.41037 0.0
C223 C 0.155 0.18684 0.36893 0.0
H224 H 0.14598 0.1538 0.45801 0.0
H225 H 0.11462 0.26431 0.05073 0.0
H226 H 0.26996 0.64024 0.62254 0.0
H227 H 0.25762 0.61401 0.67343 0.0
H228 H 0.22925 0.65572 0.75091 0.0
H229 H 0.24221 0.68199 0.70134 0.0
H230 H 0.24512 0.63111 0.80962 0.0
H231 H 0.20392 0.62576 0.6727 0.0
H232 H 0.19361 0.62257 0.58965 0.0
H233 H 0.22372 0.56827 0.59324 0.0
H234 H 0.23444 0.57124 0.6762 0.0
H235 H 0.18271 0.53842 0.86604 0.0
H236 H 0.19077 0.56565 0.81177 0.0
H237 H 0.24783 0.56825 0.88213 0.0
H238 H 0.23936 0.54182 0.93773 0.0
H239 H 0.21429 0.57222 0.74982 0.0
H240 H 0.26568 0.61284 0.87944 0.0
H241 H 0.26952 0.61721 0.96416 0.0
H242 H 0.20916 0.60514 0.97653 0.0
H243 H 0.20487 0.60106 0.89177 0.0
C244 C 0.26099 0.64381 0.65023 0.0
C245 C 0.25712 0.6632 0.65802 0.0
C246 C 0.25384 0.62878 0.67921 0.0
C247 C 0.24231 0.63281 0.71588 0.0
C248 C 0.23818 0.65219 0.72309 0.0
C249 C 0.24557 0.66721 0.69463 0.0
C250 C 0.23521 0.61691 0.74787 0.0
C251 C 0.23832 0.61828 0.79645 0.0
C252 C 0.22587 0.60032 0.731 0.0
C253 C 0.22011 0.59881 0.68061 0.0
C254 C 0.20854 0.61325 0.65565 0.0
C255 C 0.20257 0.61145 0.60863 0.0
C256 C 0.20798 0.59521 0.58625 0.0
C257 C 0.21952 0.58082 0.61068 0.0
C258 C 0.22554 0.58255 0.65771 0.0
C259 C 0.19693 0.5449 0.86983 0.0
C260 C 0.2103 0.53835 0.90647 0.0
C261 C 0.20156 0.56041 0.8388 0.0
C262 C 0.21978 0.56937 0.84338 0.0
C263 C 0.23345 0.5621 0.87873 0.0
C264 C 0.22864 0.54696 0.91042 0.0
C265 C 0.2245 0.5863 0.81141 0.0
C266 C 0.22101 0.58511 0.76292 0.0
C267 C 0.23269 0.60343 0.82842 0.0
C268 C 0.23501 0.60646 0.87926 0.0
C269 C 0.2532 0.61126 0.90016 0.0
C270 C 0.25545 0.61366 0.94821 0.0
C271 C 0.2396 0.61139 0.97574 0.0
C272 C 0.22143 0.60684 0.9552 0.0
C273 C 0.21908 0.60449 0.90715 0.0
H274 H 0.2414 0.61318 0.01295 0.0
H275 H 0.20312 0.59371 0.55006 0.0
H276 H 0.82964 0.76094 0.12829 0.0
H277 H 0.85833 0.75507 0.18219 0.0
H278 H 0.87194 0.81592 0.16988 0.0
H279 H 0.8437 0.82181 0.11529 0.0
H280 H 0.9039 0.79535 0.16892 0.0
H281 H 0.84906 0.79473 0.26453 0.0
H282 H 0.81736 0.78353 0.2899 0.0
H283 H 0.84005 0.72595 0.31877 0.0
H284 H 0.87184 0.73678 0.293 0.0
H285 H 0.95882 0.81058 0.38087 0.0
H286 H 0.93597 0.80963 0.31249 0.0
H287 H 0.93101 0.74777 0.33722 0.0
H288 H 0.95371 0.74859 0.40615 0.0
H289 H 0.89618 0.76484 0.32797 0.0
H290 H 0.95278 0.7674 0.2415 0.0
H291 H 0.98434 0.77973 0.21791 0.0
H292 H 0.95841 0.83482 0.17354 0.0
H293 H 0.92674 0.82292 0.19748 0.0
C294 C 0.83876 0.77305 0.13703 0.0
C295 C 0.83427 0.79187 0.11777 0.0
C296 C 0.85515 0.76969 0.16788 0.0
C297 C 0.86718 0.7851 0.18054 0.0
C298 C 0.86291 0.80379 0.16061 0.0
C299 C 0.84667 0.80715 0.12954 0.0
C300 C 0.8839 0.78202 0.21554 0.0
C301 C 0.90221 0.78878 0.20381 0.0
C302 C 0.88181 0.77301 0.26068 0.0
C303 C 0.86274 0.76651 0.27633 0.0
C304 C 0.84724 0.77965 0.27597 0.0
C305 C 0.82927 0.77338 0.29047 0.0
C306 C 0.82667 0.75403 0.3058 0.0
C307 C 0.84207 0.74092 0.3068 0.0
C308 C 0.86006 0.74712 0.29227 0.0
C309 C 0.95318 0.7967 0.37133 0.0
C310 C 0.95802 0.77968 0.39922 0.0
C311 C 0.94015 0.79618 0.33204 0.0
C312 C 0.93182 0.77861 0.31962 0.0
C313 C 0.93726 0.76148 0.3462 0.0
C314 C 0.95029 0.76198 0.38551 0.0
C315 C 0.91615 0.77845 0.28164 0.0
C316 C 0.898 0.77112 0.29286 0.0
C317 C 0.91837 0.78709 0.23621 0.0
C318 C 0.9374 0.79429 0.2216 0.0
C319 C 0.95383 0.78219 0.22704 0.0
C320 C 0.97174 0.78909 0.21354 0.0
C321 C 0.97339 0.80806 0.19431 0.0
C322 C 0.95712 0.82014 0.18845 0.0
C323 C 0.93918 0.81331 0.20192 0.0
H324 H 0.98726 0.81338 0.18389 0.0
H325 H 0.81275 0.74919 0.31701 0.0
H326 H 0.76284 0.33779 0.61636 0.0
H327 H 0.7774 0.36303 0.66265 0.0
H328 H 0.72228 0.3926 0.65589 0.0
H329 H 0.70783 0.3678 0.60811 0.0
H330 H 0.74994 0.41802 0.64639 0.0
H331 H 0.73993 0.36243 0.75337 0.0
H332 H 0.74358 0.32824 0.78274 0.0
H333 H 0.80537 0.33476 0.79648 0.0
H334 H 0.8021 0.36893 0.76643 0.0
H335 H 0.75709 0.46982 0.85175 0.0
H336 H 0.74957 0.44909 0.78758 0.0
H337 H 0.80849 0.42809 0.79926 0.0
H338 H 0.81614 0.44873 0.86376 0.0
H339 H 0.78272 0.39886 0.80181 0.0
H340 H 0.79199 0.45595 0.70356 0.0
H341 H 0.78777 0.49021 0.67542 0.0
H342 H 0.72683 0.48114 0.64695 0.0
H343 H 0.73064 0.44687 0.67556 0.0
C344 C 0.75384 0.3497 0.62468 0.0
C345 C 0.73413 0.35071 0.60902 0.0
C346 C 0.76217 0.3641 0.65121 0.0
C347 C 0.75086 0.37955 0.66349 0.0
C348 C 0.7313 0.38082 0.64691 0.0
C349 C 0.72303 0.36658 0.61976 0.0
C350 C 0.75913 0.39411 0.69481 0.0
C351 C 0.75698 0.41384 0.68054 0.0
C352 C 0.76881 0.38867 0.73884 0.0
C353 C 0.77078 0.36817 0.7572 0.0
C354 C 0.7543 0.35653 0.76234 0.0
C355 C 0.7563 0.33716 0.77911 0.0
C356 C 0.7747 0.32931 0.79129 0.0
C357 C 0.79114 0.34084 0.78689 0.0
C358 C 0.78922 0.36021 0.77 0.0
C359 C 0.76856 0.46107 0.84016 0.0
C360 C 0.78718 0.46084 0.86311 0.0
C361 C 0.76425 0.44927 0.8033 0.0
C362 C 0.77849 0.43707 0.78857 0.0
C363 C 0.7973 0.43739 0.81012 0.0
C364 C 0.80165 0.44925 0.84688 0.0
C365 C 0.77322 0.42277 0.75374 0.0
C366 C 0.77592 0.40306 0.76741 0.0
C367 C 0.76394 0.42825 0.70936 0.0
C368 C 0.76159 0.44886 0.69206 0.0
C369 C 0.77766 0.46129 0.69166 0.0
C370 C 0.77535 0.48071 0.67555 0.0
C371 C 0.75704 0.48786 0.65949 0.0
C372 C 0.74101 0.47559 0.65943 0.0
C373 C 0.74324 0.45616 0.67553 0.0
H374 H 0.75528 0.5029 0.64703 0.0
H375 H 0.77622 0.31431 0.80427 0.0
H376 H 0.67438 0.27121 0.39226 0.0
H377 H 0.64663 0.26562 0.33773 0.0
H378 H 0.62711 0.32424 0.34746 0.0
H379 H 0.65468 0.3299 0.4027 0.0
H380 H 0.59709 0.29955 0.3483 0.0
H381 H 0.65075 0.3122 0.25418 0.0
H382 H 0.68378 0.308 0.22912 0.0
H383 H 0.67099 0.24911 0.20086 0.0
H384 H 0.63795 0.25288 0.22641 0.0
H385 H 0.53794 0.30901 0.1324 0.0
H386 H 0.56128 0.31198 0.19941 0.0
H387 H 0.57796 0.25227 0.19382 0.0
H388 H 0.5547 0.24913 0.12685 0.0
H389 H 0.60889 0.27693 0.1924 0.0
H390 H 0.55386 0.2657 0.28343 0.0
H391 H 0.52082 0.27127 0.30691 0.0
H392 H 0.53607 0.32926 0.33848 0.0
H393 H 0.56914 0.32413 0.31454 0.0
C394 C 0.6642 0.28294 0.38289 0.0
C395 C 0.66688 0.30108 0.40153 0.0
C396 C 0.64834 0.27971 0.35165 0.0
C397 C 0.63493 0.29459 0.33805 0.0
C398 C 0.63729 0.31256 0.35743 0.0
C399 C 0.65312 0.31579 0.38884 0.0
C400 C 0.61876 0.29155 0.30266 0.0
C401 C 0.59966 0.2948 0.31402 0.0
C402 C 0.62211 0.28507 0.25819 0.0
C403 C 0.64195 0.28276 0.24268 0.0
C404 C 0.65503 0.29831 0.24298 0.0
C405 C 0.67374 0.29601 0.22863 0.0
C406 C 0.6795 0.27829 0.21353 0.0
C407 C 0.66653 0.26283 0.21264 0.0
C408 C 0.6478 0.26504 0.22702 0.0
C409 C 0.5463 0.29639 0.14595 0.0
C410 C 0.54453 0.27886 0.12403 0.0
C411 C 0.55961 0.29811 0.18435 0.0
C412 C 0.57136 0.28235 0.20153 0.0
C413 C 0.56905 0.26462 0.18101 0.0
C414 C 0.55568 0.26284 0.14282 0.0
C415 C 0.5872 0.28479 0.2381 0.0
C416 C 0.60628 0.28153 0.22681 0.0
C417 C 0.58382 0.29146 0.28233 0.0
C418 C 0.56393 0.29459 0.29675 0.0
C419 C 0.55013 0.2797 0.29497 0.0
C420 C 0.5314 0.28277 0.30846 0.0
C421 C 0.52633 0.30062 0.32406 0.0
C422 C 0.54 0.31544 0.32633 0.0
C423 C 0.55875 0.31245 0.31285 0.0
H424 H 0.51183 0.30296 0.3345 0.0
H425 H 0.69399 0.27654 0.20242 0.0
H426 H 0.2451 0.17581 0.85404 0.0
H427 H 0.25695 0.15193 0.80441 0.0
H428 H 0.25548 0.10792 0.91789 0.0
H429 H 0.24361 0.13187 0.96836 0.0
H430 H 0.28949 0.10719 0.87089 0.0
H431 H 0.22146 0.10715 0.83261 0.0
H432 H 0.1892 0.12155 0.81153 0.0
H433 H 0.20928 0.14701 0.68311 0.0
H434 H 0.24176 0.13301 0.70372 0.0
H435 H 0.30975 0.03841 0.70197 0.0
H436 H 0.29506 0.05436 0.76472 0.0
H437 H 0.28683 0.10634 0.67376 0.0
H438 H 0.3011 0.09055 0.61115 0.0
H439 H 0.25478 0.09762 0.71719 0.0
H440 H 0.32362 0.10166 0.76095 0.0
H441 H 0.35628 0.08828 0.78255 0.0
H442 H 0.33475 0.0557 0.90065 0.0
H443 H 0.30189 0.06872 0.87937 0.0
C444 C 0.24724 0.16107 0.86862 0.0
C445 C 0.24326 0.15573 0.91513 0.0
C446 C 0.25396 0.14741 0.84008 0.0
C447 C 0.25684 0.12812 0.85731 0.0
C448 C 0.25324 0.12273 0.90392 0.0
C449 C 0.2464 0.13641 0.93259 0.0
C450 C 0.26375 0.1138 0.82614 0.0
C451 C 0.28174 0.10473 0.83769 0.0
C452 C 0.25368 0.1108 0.7827 0.0
C453 C 0.2341 0.1191 0.76987 0.0
C454 C 0.21904 0.11592 0.80001 0.0
C455 C 0.20071 0.124 0.78812 0.0
C456 C 0.1972 0.13521 0.74604 0.0
C457 C 0.21202 0.13832 0.7157 0.0
C458 C 0.23039 0.13029 0.72744 0.0
C459 C 0.30485 0.05325 0.69548 0.0
C460 C 0.30658 0.06321 0.65157 0.0
C461 C 0.2965 0.06235 0.73137 0.0
C462 C 0.28989 0.08156 0.72394 0.0
C463 C 0.29172 0.09148 0.68021 0.0
C464 C 0.29997 0.08243 0.64446 0.0
C465 C 0.28088 0.09156 0.7611 0.0
C466 C 0.26241 0.09977 0.75072 0.0
C467 C 0.29053 0.09379 0.80551 0.0
C468 C 0.31026 0.08596 0.81822 0.0
C469 C 0.32582 0.09151 0.79128 0.0
C470 C 0.34437 0.08402 0.80351 0.0
C471 C 0.34757 0.07109 0.84285 0.0
C472 C 0.33224 0.06568 0.87012 0.0
C473 C 0.31365 0.07311 0.858 0.0
H474 H 0.36195 0.06532 0.85228 0.0
H475 H 0.183 0.14146 0.73691 0.0
H476 H 0.34233 0.69605 0.50353 0.0
H477 H 0.36674 0.69732 0.44553 0.0
H478 H 0.33176 0.73881 0.35802 0.0
H479 H 0.30727 0.73745 0.41523 0.0
H480 H 0.34192 0.70936 0.30994 0.0
H481 H 0.37436 0.75174 0.41554 0.0
H482 H 0.38865 0.7611 0.49174 0.0
H483 H 0.42894 0.71376 0.4972 0.0
H484 H 0.41472 0.70394 0.42128 0.0
H485 H 0.40664 0.73275 0.13554 0.0
H486 H 0.38594 0.73498 0.20062 0.0
H487 H 0.42248 0.69379 0.28493 0.0
H488 H 0.44348 0.69176 0.22034 0.0
H489 H 0.41213 0.72266 0.33584 0.0
H490 H 0.37967 0.67985 0.23213 0.0
H491 H 0.36527 0.66965 0.1568 0.0
H492 H 0.32478 0.71689 0.14906 0.0
H493 H 0.33912 0.72754 0.22406 0.0
C494 C 0.34 0.70568 0.4723 0.0
C495 C 0.32276 0.7165 0.46378 0.0
C496 C 0.35398 0.70642 0.43922 0.0
C497 C 0.35105 0.71815 0.39739 0.0
C498 C 0.33426 0.72957 0.38989 0.0
C499 C 0.32029 0.72879 0.42271 0.0
C500 C 0.36466 0.71752 0.35976 0.0
C501 C 0.35722 0.71258 0.31545 0.0
C502 C 0.38473 0.72107 0.36737 0.0
C503 C 0.39334 0.72699 0.41294 0.0
C504 C 0.38616 0.74323 0.43316 0.0
C505 C 0.39427 0.74863 0.47627 0.0
C506 C 0.40966 0.738 0.49936 0.0
C507 C 0.41701 0.72197 0.47931 0.0
C508 C 0.40894 0.71649 0.43622 0.0
C509 C 0.41031 0.7242 0.16795 0.0
C510 C 0.42664 0.71197 0.17263 0.0
C511 C 0.39844 0.72545 0.20509 0.0
C512 C 0.40252 0.71435 0.24743 0.0
C513 C 0.41904 0.70247 0.25257 0.0
C514 C 0.43098 0.70127 0.21552 0.0
C515 C 0.3893 0.71478 0.28592 0.0
C516 C 0.39681 0.71955 0.33037 0.0
C517 C 0.36927 0.71098 0.2786 0.0
C518 C 0.36061 0.7046 0.23348 0.0
C519 C 0.3678 0.68816 0.21418 0.0
C520 C 0.35963 0.68228 0.17157 0.0
C521 C 0.34415 0.69265 0.1481 0.0
C522 C 0.33679 0.70889 0.16724 0.0
C523 C 0.34492 0.71485 0.20981 0.0
H524 H 0.33784 0.68807 0.11512 0.0
H525 H 0.41591 0.74221 0.53273 0.0
H526 H 0.73668 0.83717 0.90518 0.0
H527 H 0.72351 0.86311 0.84993 0.0
H528 H 0.78161 0.88179 0.82411 0.0
H529 H 0.79466 0.85675 0.88176 0.0
H530 H 0.76214 0.9116 0.82681 0.0
H531 H 0.75006 0.85436 0.74562 0.0
H532 H 0.73775 0.82157 0.73316 0.0
H533 H 0.67955 0.84115 0.74527 0.0
H534 H 0.69154 0.87396 0.75867 0.0
H535 H 0.73274 0.96533 0.60748 0.0
H536 H 0.746 0.93875 0.66141 0.0
H537 H 0.69355 0.93778 0.73433 0.0
H538 H 0.68042 0.96458 0.68136 0.0
H539 H 0.71025 0.89922 0.70465 0.0
H540 H 0.72495 0.95696 0.78845 0.0
H541 H 0.73892 0.98948 0.79535 0.0
H542 H 0.79498 0.96763 0.76954 0.0
H543 H 0.78125 0.93503 0.76179 0.0
C544 C 0.74659 0.84687 0.88767 0.0
C545 C 0.76667 0.84498 0.89768 0.0
C546 C 0.73907 0.86161 0.85575 0.0
C547 C 0.75153 0.87428 0.8318 0.0
C548 C 0.77163 0.87231 0.84196 0.0
C549 C 0.7791 0.85796 0.87489 0.0
C550 C 0.74371 0.88982 0.79694 0.0
C551 C 0.751 0.90869 0.79977 0.0
C552 C 0.72898 0.88632 0.76163 0.0
C553 C 0.72173 0.86658 0.7536 0.0
C554 C 0.73465 0.85163 0.746 0.0
C555 C 0.72773 0.83304 0.73876 0.0
C556 C 0.70789 0.82925 0.73859 0.0
C557 C 0.69493 0.84407 0.74555 0.0
C558 C 0.70177 0.86267 0.75296 0.0
C559 C 0.724 0.95932 0.63474 0.0
C560 C 0.70552 0.96692 0.64012 0.0
C561 C 0.7316 0.94424 0.66559 0.0
C562 C 0.72069 0.93633 0.70165 0.0
C563 C 0.70214 0.94368 0.70659 0.0
C564 C 0.69472 0.95902 0.67649 0.0
C565 C 0.72875 0.92063 0.73496 0.0
C566 C 0.72147 0.90186 0.73172 0.0
C567 C 0.74378 0.92407 0.76913 0.0
C568 C 0.75203 0.94363 0.77396 0.0
C569 C 0.74021 0.95914 0.78375 0.0
C570 C 0.7481 0.97758 0.78793 0.0
C571 C 0.76782 0.98064 0.78273 0.0
C572 C 0.7797 0.96525 0.77347 0.0
C573 C 0.77188 0.9468 0.7692 0.0
H574 H 0.7739 0.99492 0.786 0.0
H575 H 0.70256 0.81485 0.73294 0.0
H576 H 0.85526 0.81364 0.96109 0.0
H577 H 0.8828 0.81016 0.91304 0.0
H578 H 0.84622 0.78088 0.81277 0.0
H579 H 0.81872 0.78418 0.86043 0.0
H580 H 0.88158 0.76302 0.83157 0.0
H581 H 0.85644 0.82802 0.79334 0.0
H582 H 0.84715 0.8608 0.81218 0.0
H583 H 0.90533 0.87103 0.86666 0.0
H584 H 0.91489 0.83817 0.84871 0.0
H585 H 0.92235 0.77302 0.61542 0.0
H586 H 0.90294 0.7736 0.68278 0.0
H587 H 0.94759 0.80586 0.75524 0.0
H588 H 0.9671 0.80569 0.68705 0.0
H589 H 0.91289 0.82163 0.76218 0.0
H590 H 0.93924 0.75828 0.78953 0.0
H591 H 0.94857 0.72557 0.77034 0.0
H592 H 0.88887 0.71192 0.73751 0.0
H593 H 0.87918 0.74464 0.75584 0.0
C594 C 0.85309 0.8064 0.9289 0.0
C595 C 0.83473 0.79933 0.9144 0.0
C596 C 0.86884 0.80445 0.90148 0.0
C597 C 0.8665 0.79539 0.85921 0.0
C598 C 0.84833 0.78791 0.8453 0.0
C599 C 0.8326 0.78992 0.87249 0.0
C600 C 0.88271 0.79412 0.82839 0.0
C601 C 0.88841 0.77581 0.81622 0.0
C602 C 0.89204 0.8108 0.8097 0.0
C603 C 0.88632 0.83057 0.82022 0.0
C604 C 0.8672 0.8372 0.80969 0.0
C605 C 0.8619 0.8558 0.82014 0.0
C606 C 0.87562 0.86797 0.84074 0.0
C607 C 0.8947 0.86157 0.85079 0.0
C608 C 0.90007 0.84297 0.84047 0.0
C609 C 0.92819 0.78011 0.64576 0.0
C610 C 0.94629 0.78931 0.64584 0.0
C611 C 0.91709 0.78032 0.68445 0.0
C612 C 0.92391 0.78953 0.72438 0.0
C613 C 0.94208 0.79859 0.72487 0.0
C614 C 0.95322 0.79843 0.68595 0.0
C615 C 0.91143 0.7905 0.76421 0.0
C616 C 0.90641 0.80877 0.77816 0.0
C617 C 0.90276 0.77375 0.78467 0.0
C618 C 0.9085 0.75398 0.77384 0.0
C619 C 0.9281 0.74835 0.77793 0.0
C620 C 0.93346 0.7298 0.76724 0.0
C621 C 0.91933 0.71668 0.75266 0.0
C622 C 0.8998 0.72209 0.74882 0.0
C623 C 0.89437 0.74063 0.75943 0.0
H624 H 0.92351 0.70233 0.74438 0.0
H625 H 0.87149 0.88236 0.8488 0.0
H626 H 0.71933 0.3756 0.43847 0.0
H627 H 0.73326 0.40052 0.38657 0.0
H628 H 0.76259 0.35658 0.31838 0.0
H629 H 0.7485 0.33142 0.36989 0.0
H630 H 0.78611 0.38967 0.34233 0.0
H631 H 0.72451 0.37446 0.2642 0.0
H632 H 0.68912 0.36985 0.25923 0.0
H633 H 0.68087 0.42893 0.29012 0.0
H634 H 0.71626 0.43381 0.29599 0.0
H635 H 0.80981 0.4385 0.13014 0.0
H636 H 0.79942 0.41727 0.19458 0.0
H637 H 0.76236 0.46245 0.23478 0.0
H638 H 0.77233 0.48375 0.16913 0.0
H639 H 0.7429 0.43029 0.23044 0.0
H640 H 0.80388 0.4468 0.30332 0.0
H641 H 0.83919 0.4519 0.31071 0.0
H642 H 0.84884 0.3917 0.29319 0.0
H643 H 0.81358 0.38627 0.28503 0.0
C644 C 0.72877 0.37119 0.41252 0.0
C645 C 0.73272 0.3515 0.4081 0.0
C646 C 0.7367 0.38547 0.38289 0.0
C647 C 0.74888 0.38036 0.34862 0.0
C648 C 0.75322 0.36078 0.3447 0.0
C649 C 0.74507 0.34644 0.37392 0.0
C650 C 0.75667 0.39547 0.31608 0.0
C651 C 0.77674 0.39845 0.31747 0.0
C652 C 0.74432 0.4073 0.28489 0.0
C653 C 0.72304 0.40443 0.28105 0.0
C654 C 0.71516 0.38642 0.27035 0.0
C655 C 0.6951 0.38377 0.26729 0.0
C656 C 0.68275 0.39907 0.27449 0.0
C657 C 0.69045 0.41708 0.28463 0.0
C658 C 0.71051 0.4198 0.2878 0.0
C659 C 0.7997 0.44411 0.15307 0.0
C660 C 0.79185 0.46285 0.14425 0.0
C661 C 0.79383 0.43193 0.19019 0.0
C662 C 0.7802 0.43826 0.21988 0.0
C663 C 0.77289 0.45723 0.21233 0.0
C664 C 0.77868 0.46942 0.17491 0.0
C665 C 0.7725 0.42453 0.25615 0.0
C666 C 0.75237 0.42172 0.25551 0.0
C667 C 0.78482 0.41299 0.28831 0.0
C668 C 0.80606 0.41617 0.29318 0.0
C669 C 0.81353 0.43468 0.30067 0.0
C670 C 0.83354 0.43762 0.30506 0.0
C671 C 0.84625 0.42214 0.30232 0.0
C672 C 0.83897 0.40368 0.29527 0.0
C673 C 0.81897 0.40065 0.29082 0.0
H674 H 0.86174 0.42445 0.30574 0.0
H675 H 0.66722 0.39699 0.2721 0.0
H676 H 0.18963 0.23422 0.87602 0.0
H677 H 0.1611 0.23922 0.8213 0.0
H678 H 0.13596 0.18673 0.8797 0.0
H679 H 0.16451 0.18142 0.93371 0.0
H680 H 0.13294 0.18741 0.78814 0.0
H681 H 0.11949 0.23212 0.90219 0.0
H682 H 0.12624 0.25925 0.95208 0.0
H683 H 0.13132 0.29782 0.82992 0.0
H684 H 0.12484 0.27084 0.77927 0.0
H685 H 0.0348 0.19906 0.70526 0.0
H686 H 0.06416 0.19893 0.75785 0.0
H687 H 0.0897 0.24175 0.66499 0.0
H688 H 0.0603 0.24185 0.61176 0.0
H689 H 0.09344 0.24757 0.76922 0.0
H690 H 0.10557 0.20157 0.65588 0.0
H691 H 0.09763 0.17381 0.60883 0.0
H692 H 0.09374 0.13701 0.73442 0.0
H693 H 0.10136 0.16464 0.78225 0.0
C694 C 0.17797 0.22381 0.87742 0.0
C695 C 0.17941 0.20736 0.90912 0.0
C696 C 0.16163 0.22673 0.84622 0.0
C697 C 0.14632 0.2134 0.84652 0.0
C698 C 0.14761 0.19717 0.87866 0.0
C699 C 0.16395 0.19418 0.90961 0.0
C700 C 0.12924 0.21588 0.81231 0.0
C701 C 0.12423 0.20052 0.78443 0.0
C702 C 0.11809 0.23314 0.8066 0.0
C703 C 0.12189 0.24941 0.83695 0.0
C704 C 0.1222 0.24635 0.88596 0.0
C705 C 0.12595 0.26171 0.91439 0.0
C706 C 0.12927 0.28024 0.89419 0.0
C707 C 0.12878 0.28345 0.84552 0.0
C708 C 0.12505 0.26814 0.81693 0.0
C709 C 0.04662 0.20854 0.69614 0.0
C710 C 0.0454 0.22025 0.65407 0.0
C711 C 0.06336 0.20843 0.72616 0.0
C712 C 0.07908 0.22025 0.71509 0.0
C713 C 0.0777 0.2325 0.67397 0.0
C714 C 0.06102 0.23238 0.64342 0.0
C715 C 0.09717 0.21904 0.74581 0.0
C716 C 0.10232 0.23458 0.7729 0.0
C717 C 0.10836 0.20188 0.75129 0.0
C718 C 0.10384 0.18522 0.72263 0.0
C719 C 0.10284 0.1876 0.67346 0.0
C720 C 0.09843 0.17188 0.64665 0.0
C721 C 0.09513 0.15367 0.66862 0.0
C722 C 0.09627 0.15113 0.71745 0.0
C723 C 0.10065 0.16681 0.74443 0.0
H724 H 0.09172 0.14151 0.6478 0.0
H725 H 0.13218 0.29211 0.91624 0.0
H726 H 0.23267 0.69475 0.41895 0.0
H727 H 0.2226 0.67578 0.35273 0.0
H728 H 0.26871 0.63491 0.3934 0.0
H729 H 0.27872 0.65356 0.45987 0.0
H730 H 0.2424 0.66727 0.27837 0.0
H731 H 0.25396 0.58998 0.3659 0.0
H732 H 0.25305 0.57316 0.44431 0.0
H733 H 0.21259 0.6153 0.48263 0.0
H734 H 0.21292 0.63208 0.40424 0.0
H735 H 0.24866 0.59658 0.11044 0.0
H736 H 0.25437 0.61688 0.17653 0.0
H737 H 0.19913 0.59988 0.22686 0.0
H738 H 0.19338 0.57946 0.16137 0.0
H739 H 0.22714 0.59727 0.29642 0.0
H740 H 0.20507 0.64448 0.17423 0.0
H741 H 0.20505 0.66184 0.09629 0.0
H742 H 0.2633 0.68082 0.12757 0.0
H743 H 0.26376 0.66333 0.20548 0.0
C744 C 0.24055 0.68162 0.41412 0.0
C745 C 0.2565 0.67568 0.44482 0.0
C746 C 0.23484 0.67086 0.37608 0.0
C747 C 0.24486 0.65391 0.36822 0.0
C748 C 0.26063 0.64783 0.39909 0.0
C749 C 0.26634 0.65854 0.43709 0.0
C750 C 0.23908 0.6427 0.32735 0.0
C751 C 0.23901 0.65197 0.28229 0.0
C752 C 0.23447 0.6228 0.33253 0.0
C753 C 0.23361 0.61239 0.3793 0.0
C754 C 0.24475 0.59556 0.39095 0.0
C755 C 0.24434 0.58603 0.43542 0.0
C756 C 0.23281 0.59316 0.4685 0.0
C757 C 0.22154 0.60977 0.45707 0.0
C758 C 0.22183 0.6193 0.4126 0.0
C759 C 0.23768 0.59724 0.13545 0.0
C760 C 0.22058 0.58636 0.13069 0.0
C761 C 0.24094 0.6089 0.1731 0.0
C762 C 0.22713 0.60995 0.2065 0.0
C763 C 0.20999 0.59925 0.20155 0.0
C764 C 0.20671 0.58763 0.16396 0.0
C765 C 0.23073 0.62177 0.24737 0.0
C766 C 0.23045 0.61258 0.29247 0.0
C767 C 0.23481 0.64179 0.24221 0.0
C768 C 0.2345 0.65246 0.19554 0.0
C769 C 0.21793 0.65224 0.16436 0.0
C770 C 0.21783 0.66212 0.1202 0.0
C771 C 0.23418 0.67239 0.10694 0.0
C772 C 0.25065 0.67284 0.13787 0.0
C773 C 0.25083 0.66297 0.18205 0.0
H774 H 0.23408 0.68002 0.07273 0.0
H775 H 0.23261 0.58581 0.50295 0.0
H776 H 0.33737 0.68532 0.65128 0.0
H777 H 0.36536 0.68631 0.70733 0.0
H778 H 0.34241 0.73741 0.76178 0.0
H779 H 0.31437 0.73677 0.70492 0.0
H780 H 0.38068 0.74074 0.75389 0.0
H781 H 0.33906 0.69354 0.82159 0.0
H782 H 0.31794 0.66487 0.82418 0.0
H783 H 0.3658 0.62888 0.79686 0.0
H784 H 0.38716 0.65738 0.7934 0.0
H785 H 0.44784 0.72997 0.95802 0.0
H786 H 0.41773 0.73268 0.90753 0.0
H787 H 0.43664 0.68591 0.82973 0.0
H788 H 0.46659 0.68303 0.88014 0.0
H789 H 0.39849 0.68185 0.85601 0.0
H790 H 0.43928 0.73031 0.7836 0.0
H791 H 0.45992 0.75934 0.78215 0.0
H792 H 0.41264 0.79336 0.8218 0.0
H793 H 0.39179 0.76444 0.82412 0.0
C794 C 0.33822 0.6968 0.67512 0.0
C795 C 0.3235 0.71086 0.67387 0.0
C796 C 0.35423 0.6973 0.7073 0.0
C797 C 0.35581 0.71172 0.7394 0.0
C798 C 0.34143 0.72609 0.73752 0.0
C799 C 0.3254 0.72567 0.70506 0.0
C800 C 0.3725 0.71158 0.77487 0.0
C801 C 0.38438 0.72798 0.77681 0.0
C802 C 0.37744 0.69487 0.80453 0.0
C803 C 0.36468 0.67764 0.80687 0.0
C804 C 0.34506 0.67954 0.8158 0.0
C805 C 0.33305 0.66331 0.81747 0.0
C806 C 0.34052 0.64507 0.81059 0.0
C807 C 0.36003 0.64302 0.80215 0.0
C808 C 0.37211 0.6592 0.80038 0.0
C809 C 0.44545 0.72012 0.93054 0.0
C810 C 0.45942 0.70609 0.92345 0.0
C811 C 0.42835 0.72182 0.90144 0.0
C812 C 0.42497 0.70947 0.86496 0.0
C813 C 0.43895 0.69552 0.85779 0.0
C814 C 0.45608 0.69397 0.88646 0.0
C815 C 0.40683 0.71084 0.83427 0.0
C816 C 0.39466 0.69466 0.83338 0.0
C817 C 0.40154 0.72779 0.80599 0.0
C818 C 0.41406 0.74517 0.8046 0.0
C819 C 0.43334 0.74394 0.79246 0.0
C820 C 0.44506 0.76038 0.79138 0.0
C821 C 0.43761 0.77817 0.80203 0.0
C822 C 0.4184 0.77956 0.81365 0.0
C823 C 0.40663 0.76315 0.81483 0.0
H824 H 0.44671 0.79089 0.80116 0.0
H825 H 0.33119 0.63253 0.8119 0.0
H826 H 0.75528 0.81811 0.15252 0.0
H827 H 0.74466 0.8395 0.20961 0.0
H828 H 0.76918 0.88836 0.13345 0.0
H829 H 0.78006 0.86686 0.07574 0.0
H830 H 0.77986 0.88666 0.22849 0.0
H831 H 0.72118 0.88434 0.13181 0.0
H832 H 0.69465 0.8687 0.08679 0.0
H833 H 0.67779 0.83794 0.21246 0.0
H834 H 0.7044 0.85316 0.25818 0.0
H835 H 0.74093 0.94934 0.38653 0.0
H836 H 0.74909 0.93441 0.31563 0.0
H837 H 0.72281 0.88106 0.36516 0.0
H838 H 0.71421 0.89601 0.43556 0.0
H839 H 0.7123 0.88897 0.27569 0.0
H840 H 0.77275 0.88761 0.37011 0.0
H841 H 0.80001 0.90163 0.41617 0.0
H842 H 0.81394 0.93796 0.29591 0.0
H843 H 0.78659 0.92432 0.24927 0.0
C844 C 0.75831 0.83343 0.14755 0.0
C845 C 0.7686 0.84077 0.10964 0.0
C846 C 0.75212 0.84566 0.18015 0.0
C847 C 0.756 0.86554 0.17563 0.0
C848 C 0.766 0.87305 0.13747 0.0
C849 C 0.77212 0.86078 0.10446 0.0
C850 C 0.75038 0.87809 0.21239 0.0
C851 C 0.76502 0.88756 0.23819 0.0
C852 C 0.73109 0.87883 0.22568 0.0
C853 C 0.71488 0.86982 0.1984 0.0
C854 C 0.71189 0.87415 0.14983 0.0
C855 C 0.69683 0.86537 0.12418 0.0
C856 C 0.68456 0.85231 0.14674 0.0
C857 C 0.6873 0.84805 0.19503 0.0
C858 C 0.70236 0.85678 0.22084 0.0
C859 C 0.73695 0.93441 0.38243 0.0
C860 C 0.72696 0.92385 0.41682 0.0
C861 C 0.74166 0.92587 0.34188 0.0
C862 C 0.73672 0.90655 0.33518 0.0
C863 C 0.72674 0.896 0.36946 0.0
C864 C 0.72191 0.90455 0.40983 0.0
C865 C 0.74185 0.89722 0.2925 0.0
C866 C 0.7271 0.88835 0.2656 0.0
C867 C 0.76106 0.89691 0.27839 0.0
C868 C 0.7775 0.90512 0.30638 0.0
C869 C 0.78153 0.89871 0.3536 0.0
C870 C 0.79702 0.90656 0.37979 0.0
C871 C 0.80867 0.92073 0.35902 0.0
C872 C 0.80488 0.92702 0.31197 0.0
C873 C 0.7894 0.91923 0.28564 0.0
H874 H 0.82065 0.92679 0.37935 0.0
H875 H 0.67292 0.84552 0.12681 0.0
H876 H 0.68225 0.29161 0.66743 0.0
H877 H 0.65469 0.28533 0.71445 0.0
H878 H 0.61587 0.30767 0.59935 0.0
H879 H 0.64355 0.31429 0.55184 0.0
H880 H 0.60768 0.32187 0.68217 0.0
H881 H 0.61804 0.25983 0.6264 0.0
H882 H 0.63775 0.23195 0.60877 0.0
H883 H 0.65377 0.22033 0.75515 0.0
H884 H 0.63442 0.24835 0.77367 0.0
H885 H 0.53092 0.29534 0.82678 0.0
H886 H 0.55044 0.29638 0.75854 0.0
H887 H 0.59933 0.27304 0.84581 0.0
H888 H 0.57991 0.27151 0.9135 0.0
H889 H 0.59778 0.25754 0.76396 0.0
H890 H 0.59337 0.32237 0.81728 0.0
H891 H 0.57612 0.35165 0.8364 0.0
H892 H 0.5505 0.35849 0.69565 0.0
H893 H 0.56745 0.3291 0.67588 0.0
C894 C 0.66788 0.29519 0.65192 0.0
C895 C 0.66512 0.30348 0.60584 0.0
C896 C 0.65211 0.29146 0.67881 0.0
C897 C 0.63322 0.29576 0.66014 0.0
C898 C 0.63035 0.30415 0.61428 0.0
C899 C 0.64617 0.30791 0.58723 0.0
C900 C 0.61667 0.29201 0.68953 0.0
C901 C 0.60517 0.30771 0.69919 0.0
C902 C 0.61365 0.27357 0.71219 0.0
C903 C 0.62481 0.25628 0.70141 0.0
C904 C 0.62581 0.25138 0.65485 0.0
C905 C 0.63693 0.23555 0.64469 0.0
C906 C 0.64701 0.22439 0.68081 0.0
C907 C 0.64594 0.22899 0.72721 0.0
C908 C 0.63486 0.24483 0.73757 0.0
C909 C 0.54577 0.29024 0.83126 0.0
C910 C 0.55392 0.28351 0.87564 0.0
C911 C 0.55691 0.29088 0.79228 0.0
C912 C 0.57643 0.28502 0.79718 0.0
C913 C 0.58431 0.27762 0.84111 0.0
C914 C 0.57319 0.27686 0.8799 0.0
C915 C 0.58916 0.28755 0.75765 0.0
C916 C 0.59995 0.2716 0.74607 0.0
C917 C 0.59164 0.30579 0.73341 0.0
C918 C 0.58146 0.32342 0.74529 0.0
C919 C 0.58393 0.33004 0.79054 0.0
C920 C 0.57424 0.34667 0.80147 0.0
C921 C 0.56217 0.35688 0.76731 0.0
C922 C 0.55982 0.35053 0.72211 0.0
C923 C 0.56946 0.3339 0.71102 0.0
H924 H 0.55468 0.36976 0.77583 0.0
H925 H 0.65564 0.21217 0.67283 0.0
H926 H 0.27854 0.16882 0.13791 0.0
H927 H 0.29181 0.14284 0.19301 0.0
H928 H 0.24036 0.10902 0.16659 0.0
H929 H 0.22695 0.13484 0.11189 0.0
H930 H 0.24953 0.11093 0.25911 0.0
H931 H 0.28246 0.09678 0.1236 0.0
H932 H 0.30271 0.10418 0.05728 0.0
H933 H 0.35038 0.11832 0.1525 0.0
H934 H 0.33032 0.11126 0.2194 0.0
H935 H 0.28079 0.02634 0.39084 0.0
H936 H 0.27075 0.04743 0.32165 0.0
H937 H 0.32223 0.08172 0.34304 0.0
H938 H 0.33257 0.06054 0.41167 0.0
H939 H 0.31311 0.07871 0.25074 0.0
H940 H 0.28022 0.09518 0.38494 0.0
H941 H 0.26023 0.08899 0.45225 0.0
H942 H 0.21273 0.07184 0.36015 0.0
H943 H 0.23255 0.07768 0.29233 0.0
C944 C 0.2701 0.15581 0.14361 0.0
C945 C 0.25162 0.15398 0.12067 0.0
C946 C 0.27774 0.14094 0.17493 0.0
C947 C 0.2671 0.12397 0.1837 0.0
C948 C 0.24881 0.122 0.16035 0.0
C949 C 0.24118 0.1368 0.12904 0.0
C950 C 0.27451 0.10863 0.21897 0.0
C951 C 0.26328 0.10365 0.25683 0.0
C952 C 0.29269 0.09953 0.21663 0.0
C953 C 0.30483 0.10366 0.17649 0.0
C954 C 0.29722 0.10161 0.13039 0.0
C955 C 0.30866 0.10572 0.09269 0.0
C956 C 0.3278 0.11176 0.10066 0.0
C957 C 0.33554 0.11365 0.14637 0.0
C958 C 0.32415 0.10958 0.1842 0.0
C959 C 0.29017 0.03815 0.38036 0.0
C960 C 0.30737 0.04189 0.40719 0.0
C961 C 0.28437 0.05023 0.34089 0.0
C962 C 0.29555 0.06638 0.32777 0.0
C963 C 0.31333 0.0694 0.35264 0.0
C964 C 0.31919 0.05728 0.392 0.0
C965 C 0.28804 0.08095 0.29063 0.0
C966 C 0.29928 0.08587 0.25268 0.0
C967 C 0.2699 0.09014 0.29294 0.0
C968 C 0.25794 0.08666 0.33365 0.0
C969 C 0.26557 0.08994 0.37909 0.0
C970 C 0.25426 0.08652 0.41732 0.0
C971 C 0.23524 0.07997 0.4105 0.0
C972 C 0.22748 0.07688 0.3654 0.0
C973 C 0.23873 0.08025 0.32705 0.0
H974 H 0.22651 0.07734 0.44013 0.0
H975 H 0.33664 0.11494 0.07143 0.0
H976 H 0.24658 0.27056 0.95821 0.0
H977 H 0.23933 0.30525 0.95294 0.0
H978 H 0.1972 0.29592 0.056 0.0
H979 H 0.20469 0.26115 0.0624 0.0
H980 H 0.18579 0.32033 0.96448 0.0
H981 H 0.23374 0.31354 0.09662 0.0
H982 H 0.26523 0.3025 0.13455 0.0
H983 H 0.29485 0.33607 0.03032 0.0
H984 H 0.2635 0.3471 0.99138 0.0
H985 H 0.16776 0.41829 0.00546 0.0
H986 H 0.17323 0.38338 0.00923 0.0
H987 H 0.2302 0.39292 0.95944 0.0
H988 H 0.22518 0.42787 0.95878 0.0
H989 H 0.23377 0.36741 0.02445 0.0
H990 H 0.18862 0.37486 0.8911 0.0
H991 H 0.15853 0.38481 0.8447 0.0
H992 H 0.12521 0.34964 0.93845 0.0
H993 H 0.15508 0.33969 0.98584 0.0
C994 C 0.23579 0.27589 0.97982 0.0
C995 C 0.22624 0.26319 0.01087 0.0
C996 C 0.23168 0.29567 0.97675 0.0
C997 C 0.21775 0.30303 0.00407 0.0
C998 C 0.20799 0.29042 0.03466 0.0
C999 C 0.21237 0.27064 0.03846 0.0
C1000 C 0.2136 0.32401 0.00083 0.0
C1001 C 0.19608 0.33071 0.97812 0.0
C1002 C 0.22743 0.33739 0.01707 0.0
C1003 C 0.24628 0.331 0.04086 0.0
C1004 C 0.24696 0.31845 0.08158 0.0
C1005 C 0.26479 0.31222 0.1033 0.0
C1006 C 0.28203 0.31854 0.08479 0.0
C1007 C 0.28148 0.33117 0.0446 0.0
C1008 C 0.26369 0.33743 0.02272 0.0
C1009 C 0.18136 0.41289 0.99489 0.0
C1010 C 0.19605 0.42574 0.98177 0.0
C1011 C 0.18446 0.39291 0.99676 0.0
C1012 C 0.20205 0.38537 0.98395 0.0
C1013 C 0.21653 0.39829 0.96969 0.0
C1014 C 0.21364 0.41827 0.96911 0.0
C1015 C 0.20578 0.36412 0.98773 0.0
C1016 C 0.22332 0.35724 0.01063 0.0
C1017 C 0.19211 0.3506 0.97051 0.0
C1018 C 0.17408 0.35671 0.94233 0.0
C1019 C 0.17486 0.36939 0.90208 0.0
C1020 C 0.15784 0.375 0.87556 0.0
C1021 C 0.13996 0.36791 0.8887 0.0
C1022 C 0.13907 0.35516 0.92836 0.0
C1023 C 0.15604 0.34952 0.95506 0.0
H1024 H 0.12681 0.37227 0.86809 0.0
H1025 H 0.29582 0.3137 0.10164 0.0
H1026 H 0.21192 0.73883 0.48445 0.0
H1027 H 0.17714 0.74546 0.47953 0.0
H1028 H 0.17499 0.72735 0.62586 0.0
H1029 H 0.20982 0.72064 0.6312 0.0
H1030 H 0.1463 0.72182 0.49564 0.0
H1031 H 0.14298 0.75787 0.67161 0.0
H1032 H 0.164 0.77728 0.72319 0.0
H1033 H 0.19541 0.798 0.60599 0.0
H1034 H 0.17441 0.77897 0.55363 0.0
H1035 H 0.04951 0.72507 0.55903 0.0
H1036 H 0.0845 0.72042 0.55894 0.0
H1037 H 0.09204 0.78197 0.53335 0.0
H1038 H 0.05705 0.78678 0.53423 0.0
H1039 H 0.1185 0.76806 0.5978 0.0
H1040 H 0.09522 0.75153 0.44544 0.0
H1041 H 0.07482 0.73482 0.38707 0.0
H1042 H 0.09747 0.67996 0.44486 0.0
H1043 H 0.11781 0.69634 0.50402 0.0
C1044 C 0.20408 0.73624 0.51564 0.0
C1045 C 0.21368 0.7293 0.55831 0.0
C1046 C 0.18418 0.73997 0.51268 0.0
C1047 C 0.17354 0.73704 0.55239 0.0
C1048 C 0.183 0.72989 0.59491 0.0
C1049 C 0.20289 0.726 0.59785 0.0
C1050 C 0.15255 0.74157 0.54938 0.0
C1051 C 0.14019 0.73189 0.51802 0.0
C1052 C 0.1447 0.7551 0.57768 0.0
C1053 C 0.15724 0.76682 0.60883 0.0
C1054 C 0.15432 0.76663 0.65684 0.0
C1055 C 0.16624 0.77756 0.6862 0.0
C1056 C 0.18106 0.78882 0.6679 0.0
C1057 C 0.18396 0.78922 0.62015 0.0
C1058 C 0.17208 0.77834 0.59063 0.0
C1059 C 0.0586 0.73763 0.5533 0.0
C1060 C 0.05048 0.75629 0.54649 0.0
C1061 C 0.0786 0.73494 0.5531 0.0
C1062 C 0.09089 0.75083 0.54562 0.0
C1063 C 0.08284 0.7695 0.53917 0.0
C1064 C 0.06283 0.77221 0.53953 0.0
C1065 C 0.11213 0.74794 0.54484 0.0
C1066 C 0.12456 0.75794 0.57547 0.0
C1067 C 0.1201 0.73507 0.51497 0.0
C1068 C 0.10791 0.72516 0.47943 0.0
C1069 C 0.09573 0.7359 0.44594 0.0
C1070 C 0.0842 0.72648 0.41267 0.0
C1071 C 0.08482 0.70634 0.41233 0.0
C1072 C 0.097 0.69556 0.4452 0.0
C1073 C 0.10854 0.7049 0.47858 0.0
H1074 H 0.07588 0.69908 0.38653 0.0
H1075 H 0.19028 0.79725 0.6907 0.0
H1076 H 0.81257 0.73663 0.95741 0.0
H1077 H 0.8172 0.70146 0.9601 0.0
H1078 H 0.77131 0.69377 0.05423 0.0
H1079 H 0.76736 0.72868 0.05346 0.0
H1080 H 0.79818 0.67057 0.08372 0.0
H1081 H 0.76636 0.68608 0.93105 0.0
H1082 H 0.76229 0.70271 0.85218 0.0
H1083 H 0.81625 0.67883 0.81715 0.0
H1084 H 0.82075 0.66224 0.89605 0.0
H1085 H 0.76707 0.57455 0.04451 0.0
H1086 H 0.76935 0.60987 0.04261 0.0
H1087 H 0.82615 0.60726 0.99032 0.0
H1088 H 0.82419 0.57183 0.99311 0.0
H1089 H 0.79784 0.63507 0.93938 0.0
H1090 H 0.82676 0.61693 0.09356 0.0
H1091 H 0.82819 0.59967 0.17176 0.0
H1092 H 0.77597 0.62818 0.20272 0.0
H1093 H 0.77408 0.64541 0.12439 0.0
C1094 C 0.80351 0.72737 0.97864 0.0
C1095 C 0.78962 0.73541 0.00522 0.0
C1096 C 0.80608 0.70727 0.98001 0.0
C1097 C 0.79444 0.69484 0.00695 0.0
C1098 C 0.78057 0.70295 0.03336 0.0
C1099 C 0.77828 0.72297 0.03279 0.0
C1100 C 0.79656 0.67339 0.00822 0.0
C1101 C 0.79793 0.66288 0.05202 0.0
C1102 C 0.7967 0.6632 0.96705 0.0
C1103 C 0.79399 0.67311 0.9196 0.0
C1104 C 0.77742 0.68449 0.90663 0.0
C1105 C 0.77502 0.69389 0.86191 0.0
C1106 C 0.78903 0.69187 0.82973 0.0
C1107 C 0.80543 0.68041 0.84215 0.0
C1108 C 0.80791 0.671 0.88684 0.0
C1109 C 0.78009 0.58147 0.03282 0.0
C1110 C 0.79547 0.57041 0.01906 0.0
C1111 C 0.78137 0.60163 0.03179 0.0
C1112 C 0.79792 0.61111 0.01635 0.0
C1113 C 0.81327 0.60017 0.00232 0.0
C1114 C 0.81215 0.57995 0.00417 0.0
C1115 C 0.79899 0.63251 0.01464 0.0
C1116 C 0.79825 0.64291 0.97088 0.0
C1117 C 0.79904 0.64261 0.05574 0.0
C1118 C 0.80019 0.63233 0.10294 0.0
C1119 C 0.81549 0.61939 0.11688 0.0
C1120 C 0.8164 0.60964 0.16127 0.0
C1121 C 0.80215 0.61279 0.19215 0.0
C1122 C 0.78699 0.62574 0.17874 0.0
C1123 C 0.786 0.63552 0.13437 0.0
H1124 H 0.80289 0.60523 0.22651 0.0
H1125 H 0.78715 0.69916 0.79513 0.0
H1126 H 0.77533 0.27421 0.5949 0.0
H1127 H 0.81013 0.26857 0.60444 0.0
H1128 H 0.81713 0.29967 0.47122 0.0
H1129 H 0.78206 0.30501 0.46078 0.0
H1130 H 0.83749 0.26733 0.47836 0.0
H1131 H 0.83096 0.31956 0.57483 0.0
H1132 H 0.81694 0.33767 0.63548 0.0
H1133 H 0.83468 0.29269 0.73999 0.0
H1134 H 0.8485 0.27411 0.67984 0.0
H1135 H 0.93975 0.26113 0.51819 0.0
H1136 H 0.90772 0.27642 0.50847 0.0
H1137 H 0.88993 0.24179 0.62855 0.0
H1138 H 0.92188 0.2264 0.63854 0.0
H1139 H 0.87651 0.28037 0.62438 0.0
H1140 H 0.8789 0.22687 0.52409 0.0
H1141 H 0.89228 0.20885 0.46238 0.0
H1142 H 0.88224 0.25788 0.36377 0.0
H1143 H 0.86903 0.27628 0.42515 0.0
C1144 C 0.78423 0.27995 0.56762 0.0
C1145 C 0.77589 0.29005 0.52702 0.0
C1146 C 0.80418 0.27681 0.57331 0.0
C1147 C 0.8163 0.28397 0.53892 0.0
C1148 C 0.80805 0.29408 0.4983 0.0
C1149 C 0.78802 0.29712 0.49239 0.0
C1150 C 0.83745 0.28008 0.54476 0.0
C1151 C 0.8461 0.27059 0.50985 0.0
C1152 C 0.84865 0.28409 0.58615 0.0
C1153 C 0.84067 0.29537 0.6227 0.0
C1154 C 0.83178 0.31346 0.6107 0.0
C1155 C 0.82387 0.32382 0.64499 0.0
C1156 C 0.8249 0.31632 0.69153 0.0
C1157 C 0.83389 0.29847 0.7039 0.0
C1158 C 0.84179 0.28803 0.66973 0.0
C1159 C 0.92913 0.25697 0.54296 0.0
C1160 C 0.93329 0.24243 0.5789 0.0
C1161 C 0.91083 0.2657 0.53729 0.0
C1162 C 0.89643 0.26008 0.56753 0.0
C1163 C 0.90086 0.24631 0.60486 0.0
C1164 C 0.9191 0.23748 0.61037 0.0
C1165 C 0.87633 0.26741 0.55831 0.0
C1166 C 0.86791 0.27748 0.5926 0.0
C1167 C 0.86534 0.26409 0.51622 0.0
C1168 C 0.87321 0.25302 0.47932 0.0
C1169 C 0.8797 0.23386 0.48935 0.0
C1170 C 0.88722 0.22357 0.45442 0.0
C1171 C 0.88817 0.23224 0.40922 0.0
C1172 C 0.88154 0.2512 0.39882 0.0
C1173 C 0.87403 0.26156 0.43366 0.0
H1174 H 0.89399 0.22425 0.38222 0.0
H1175 H 0.81876 0.32436 0.718 0.0
H1176 H 0.68619 0.24563 0.57917 0.0
H1177 H 0.67964 0.21097 0.58808 0.0
H1178 H 0.72286 0.20037 0.49122 0.0
H1179 H 0.72886 0.23512 0.48065 0.0
H1180 H 0.69317 0.17847 0.47438 0.0
H1181 H 0.73115 0.19277 0.61589 0.0
H1182 H 0.73821 0.21044 0.68682 0.0
H1183 H 0.68409 0.19175 0.73899 0.0
H1184 H 0.67665 0.1741 0.66817 0.0
H1185 H 0.70802 0.07856 0.52745 0.0
H1186 H 0.71293 0.11354 0.52137 0.0
H1187 H 0.66642 0.12096 0.61126 0.0
H1188 H 0.66157 0.08591 0.61808 0.0
H1189 H 0.6963 0.14448 0.63264 0.0
H1190 H 0.65877 0.12927 0.49369 0.0
H1191 H 0.65088 0.11211 0.42238 0.0
H1192 H 0.70326 0.13301 0.36494 0.0
H1193 H 0.7116 0.15008 0.43622 0.0
C1194 C 0.69427 0.2359 0.5597 0.0
C1195 C 0.70816 0.24309 0.52947 0.0
C1196 C 0.69059 0.21606 0.56502 0.0
C1197 C 0.70106 0.20294 0.54115 0.0
C1198 C 0.71464 0.21016 0.51018 0.0
C1199 C 0.71808 0.23003 0.5042 0.0
C1200 C 0.69799 0.18171 0.54838 0.0
C1201 C 0.69414 0.17103 0.50897 0.0
C1202 C 0.69863 0.17199 0.59358 0.0
C1203 C 0.70329 0.18223 0.63663 0.0
C1204 C 0.72074 0.19248 0.64245 0.0
C1205 C 0.72481 0.20248 0.68263 0.0
C1206 C 0.71159 0.20224 0.71736 0.0
C1207 C 0.69432 0.19191 0.71208 0.0
C1208 C 0.69019 0.18187 0.67198 0.0
C1209 C 0.69893 0.0876 0.54628 0.0
C1210 C 0.68431 0.07943 0.57302 0.0
C1211 C 0.70169 0.10762 0.54257 0.0
C1212 C 0.68982 0.11991 0.56521 0.0
C1213 C 0.67569 0.11176 0.59333 0.0
C1214 C 0.67293 0.09172 0.59713 0.0
C1215 C 0.69185 0.14127 0.55858 0.0
C1216 C 0.6954 0.15195 0.59807 0.0
C1217 C 0.6909 0.15101 0.51346 0.0
C1218 C 0.6859 0.1408 0.47049 0.0
C1219 C 0.66869 0.13008 0.46601 0.0
C1220 C 0.66412 0.12039 0.42557 0.0
C1221 C 0.67659 0.12143 0.3892 0.0
C1222 C 0.69363 0.1322 0.39316 0.0
C1223 C 0.69828 0.14189 0.43356 0.0
H1224 H 0.67302 0.11392 0.35792 0.0
H1225 H 0.71475 0.21003 0.74839 0.0
H1226 H 0.29623 0.22193 0.07867 0.0
H1227 H 0.3309 0.22802 0.07624 0.0
H1228 H 0.32853 0.21325 0.93242 0.0
H1229 H 0.29373 0.20723 0.93434 0.0
H1230 H 0.36122 0.2056 0.06056 0.0
H1231 H 0.35943 0.24371 0.87421 0.0
H1232 H 0.33685 0.26324 0.81974 0.0
H1233 H 0.30765 0.28235 0.93568 0.0
H1234 H 0.33021 0.26317 0.99081 0.0
H1235 H 0.45705 0.21465 0.98904 0.0
H1236 H 0.4225 0.20788 0.99255 0.0
H1237 H 0.41103 0.26869 0.00128 0.0
H1238 H 0.44551 0.27562 0.99663 0.0
H1239 H 0.38501 0.25419 0.94299 0.0
H1240 H 0.41135 0.23633 0.09852 0.0
H1241 H 0.43341 0.21945 0.15911 0.0
H1242 H 0.41281 0.16457 0.11578 0.0
H1243 H 0.39079 0.18113 0.05449 0.0
C1244 C 0.30305 0.21992 0.04648 0.0
C1245 C 0.29215 0.21424 0.00655 0.0
C1246 C 0.3229 0.22333 0.04527 0.0
C1247 C 0.33225 0.22127 0.00406 0.0
C1248 C 0.32154 0.21516 0.96443 0.0
C1249 C 0.30166 0.21167 0.96564 0.0
C1250 C 0.35312 0.22594 0.00239 0.0
C1251 C 0.36645 0.21616 0.03475 0.0
C1252 C 0.35987 0.24004 0.96942 0.0
C1253 C 0.34638 0.25182 0.93656 0.0
C1254 C 0.34823 0.25213 0.88806 0.0
C1255 C 0.33543 0.26314 0.85708 0.0
C1256 C 0.32079 0.27397 0.87423 0.0
C1257 C 0.31895 0.27389 0.92242 0.0
C1258 C 0.33173 0.26293 0.95354 0.0
C1259 C 0.44718 0.22658 0.99179 0.0
C1260 C 0.45404 0.24567 0.99271 0.0
C1261 C 0.42743 0.22268 0.99395 0.0
C1262 C 0.41418 0.23774 0.99772 0.0
C1263 C 0.42098 0.25683 0.99835 0.0
C1264 C 0.44071 0.26076 0.99586 0.0
C1265 C 0.39321 0.23364 0.00077 0.0
C1266 C 0.37983 0.24353 0.96865 0.0
C1267 C 0.38637 0.21998 0.03475 0.0
C1268 C 0.39956 0.20998 0.07162 0.0
C1269 C 0.41163 0.22066 0.10168 0.0
C1270 C 0.42411 0.21115 0.13619 0.0
C1271 C 0.42455 0.19095 0.14121 0.0
C1272 C 0.41247 0.18022 0.1118 0.0
C1273 C 0.39998 0.18966 0.0772 0.0
H1274 H 0.43422 0.18362 0.16795 0.0
H1275 H 0.31089 0.28246 0.85019 0.0
H1276 H 0.26275 0.7796 0.62331 0.0
H1277 H 0.267 0.81468 0.62217 0.0
H1278 H 0.30279 0.81279 0.50534 0.0
H1279 H 0.29857 0.7777 0.50598 0.0
H1280 H 0.3175 0.83644 0.57737 0.0
H1281 H 0.25785 0.8262 0.48317 0.0
H1282 H 0.22531 0.81214 0.47056 0.0
H1283 H 0.2059 0.84143 0.58597 0.0
H1284 H 0.23841 0.85551 0.5996 0.0
H1285 H 0.31998 0.935 0.50148 0.0
H1286 H 0.31587 0.89993 0.50566 0.0
H1287 H 0.2698 0.90496 0.59827 0.0
H1288 H 0.27326 0.94016 0.5923 0.0
H1289 H 0.2601 0.8792 0.54181 0.0
H1290 H 0.31755 0.88998 0.63778 0.0
H1291 H 0.35002 0.90283 0.65838 0.0
H1292 H 0.37357 0.87184 0.55062 0.0
H1293 H 0.34117 0.859 0.52895 0.0
C1294 C 0.27165 0.78661 0.59756 0.0
C1295 C 0.28023 0.77588 0.56452 0.0
C1296 C 0.274 0.80665 0.5969 0.0
C1297 C 0.28506 0.81629 0.56342 0.0
C1298 C 0.29416 0.80558 0.53138 0.0
C1299 C 0.29167 0.78556 0.5317 0.0
C1300 C 0.28671 0.83762 0.56091 0.0
C1301 C 0.30503 0.84585 0.56905 0.0
C1302 C 0.27029 0.84977 0.55168 0.0
C1303 C 0.2506 0.84178 0.54262 0.0
C1304 C 0.24666 0.82958 0.50598 0.0
C1305 C 0.22823 0.82162 0.49863 0.0
C1306 C 0.21356 0.82587 0.52749 0.0
C1307 C 0.21728 0.83816 0.56363 0.0
C1308 C 0.2357 0.84616 0.57114 0.0
C1309 C 0.30894 0.92862 0.5226 0.0
C1310 C 0.29702 0.94031 0.54677 0.0
C1311 C 0.30667 0.90855 0.52524 0.0
C1312 C 0.29281 0.89969 0.55317 0.0
C1313 C 0.28064 0.9114 0.57661 0.0
C1314 C 0.28265 0.93152 0.57324 0.0
C1315 C 0.29103 0.87824 0.55788 0.0
C1316 C 0.27265 0.86992 0.55023 0.0
C1317 C 0.30737 0.86598 0.56855 0.0
C1318 C 0.32689 0.87368 0.58145 0.0
C1319 C 0.32962 0.88602 0.61824 0.0
C1320 C 0.34802 0.89329 0.63015 0.0
C1321 C 0.36384 0.8882 0.60574 0.0
C1322 C 0.3613 0.87579 0.56945 0.0
C1323 C 0.34292 0.8685 0.55736 0.0
H1324 H 0.37807 0.89384 0.61502 0.0
H1325 H 0.19931 0.81965 0.52183 0.0
H1326 H 0.72483 0.76602 0.94034 0.0
H1327 H 0.69041 0.75872 0.93659 0.0
H1328 H 0.68358 0.79125 0.05739 0.0
H1329 H 0.71837 0.79814 0.06234 0.0
H1330 H 0.66527 0.75842 0.06654 0.0
H1331 H 0.66654 0.80837 0.94424 0.0
H1332 H 0.67803 0.8255 0.87322 0.0
H1333 H 0.66209 0.77703 0.79354 0.0
H1334 H 0.6508 0.75947 0.86418 0.0
H1335 H 0.56337 0.74381 0.03879 0.0
H1336 H 0.59427 0.76106 0.04076 0.0
H1337 H 0.61313 0.72737 0.93126 0.0
H1338 H 0.58229 0.71016 0.92883 0.0
H1339 H 0.62342 0.76567 0.91889 0.0
H1340 H 0.62671 0.71461 0.04364 0.0
H1341 H 0.61583 0.69711 0.11484 0.0
H1342 H 0.62332 0.74844 0.18978 0.0
H1343 H 0.63401 0.76632 0.11877 0.0
C1344 C 0.71603 0.77178 0.96597 0.0
C1345 C 0.72437 0.78267 0.00167 0.0
C1346 C 0.69627 0.76769 0.96357 0.0
C1347 C 0.68429 0.77472 0.99617 0.0
C1348 C 0.69252 0.78574 0.03171 0.0
C1349 C 0.7124 0.78967 0.03449 0.0
C1350 C 0.66341 0.76959 0.99439 0.0
C1351 C 0.656 0.76044 0.0345 0.0
C1352 C 0.65136 0.77191 0.95241 0.0
C1353 C 0.65791 0.78255 0.90964 0.0
C1354 C 0.66558 0.80131 0.91164 0.0
C1355 C 0.67206 0.8111 0.87144 0.0
C1356 C 0.6708 0.80234 0.82894 0.0
C1357 C 0.66304 0.78379 0.8265 0.0
C1358 C 0.65658 0.77392 0.8666 0.0
C1359 C 0.574 0.74023 0.01475 0.0
C1360 C 0.57044 0.72551 0.98389 0.0
C1361 C 0.59167 0.75006 0.01602 0.0
C1362 C 0.60606 0.74534 0.98652 0.0
C1363 C 0.60221 0.73123 0.95434 0.0
C1364 C 0.5846 0.72136 0.95313 0.0
C1365 C 0.62553 0.75424 0.9907 0.0
C1366 C 0.63264 0.76405 0.95106 0.0
C1367 C 0.6373 0.7526 0.03311 0.0
C1368 C 0.63092 0.74185 0.07578 0.0
C1369 C 0.62588 0.7222 0.0752 0.0
C1370 C 0.61978 0.71221 0.11553 0.0
C1371 C 0.61882 0.72167 0.15677 0.0
C1372 C 0.62403 0.74114 0.15779 0.0
C1373 C 0.63011 0.75121 0.11752 0.0
H1374 H 0.6141 0.71391 0.18796 0.0
H1375 H 0.67582 0.80991 0.79787 0.0
loop_
_geom_bond_atom_site_label_1
_geom_bond_atom_site_label_2
_geom_bond_distance
_geom_bond_site_symmetry_2
_ccdc_geom_bond_type
Fe0 O2 1.918 . S
Fe0 O5 1.997 . S
Fe0 O6 2.002 . S
Fe0 O11 1.976 . S
Fe0 O14 1.996 . S
Fe1 O2 1.918 1_556 S
Fe1 O9 1.997 . S
Fe1 O12 1.996 . S
Fe1 O16 1.976 . S
Fe1 O19 2.002 . S
O2 Fe0 1.918 . S
O2 Fe1 1.918 1_554 S
O2 Fe3 1.918 . S
Fe3 O2 1.918 . S
Fe3 O4 2.002 . S
Fe3 O13 1.976 . S
Fe3 O17 1.996 1_554 S
Fe3 O20 1.997 1_554 S
O4 Fe3 2.002 . S
O4 C21 1.295 . S
O5 Fe0 1.997 . S
O5 C21 1.235 . S
O6 Fe0 2.002 . S
O6 C7 1.295 . S
C7 O6 1.295 . S
C7 O9 1.235 1_554 S
C8 O13 1.287 . S
C8 O14 1.255 . S
O9 Fe1 1.997 . S
O9 C7 1.235 1_556 S
C10 O16 1.287 . S
C10 O17 1.255 . S
O11 Fe0 1.976 . S
O11 C18 1.287 . S
O12 Fe1 1.996 . S
O12 C18 1.255 1_556 S
O13 Fe3 1.976 . S
O13 C8 1.287 . S
O14 Fe0 1.996 . S
O14 C8 1.255 . S
C15 O19 1.295 . S
C15 O20 1.235 . S
O16 Fe1 1.976 . S
O16 C10 1.287 . S
O17 Fe3 1.996 1_556 S
O17 C10 1.255 . S
C18 O11 1.287 . S
C18 O12 1.255 1_554 S
O19 Fe1 2.002 . S
O19 C15 1.295 . S
O20 Fe3 1.997 1_556 S
O20 C15 1.235 . S
C21 O4 1.295 . S
C21 O5 1.235 . S
Fe22 O24 1.918 . S
Fe22 O27 1.997 . S
Fe22 O28 2.002 . S
Fe22 O33 1.976 . S
Fe22 O36 1.996 . S
Fe23 O24 1.918 . S
Fe23 O31 1.997 . S
Fe23 O34 1.996 . S
Fe23 O38 1.976 . S
Fe23 O41 2.002 . S
O24 Fe22 1.918 . S
O24 Fe23 1.918 . S
O24 Fe25 1.918 . S
Fe25 O24 1.918 . S
Fe25 O26 2.002 . S
Fe25 O35 1.976 . S
Fe25 O39 1.996 . S
Fe25 O42 1.997 . S
O26 Fe25 2.002 . S
O26 C43 1.295 . S
O27 Fe22 1.997 . S
O27 C43 1.235 . S
O28 Fe22 2.002 . S
O28 C29 1.295 . S
C29 O28 1.295 . S
C29 O31 1.235 . S
C30 O35 1.287 . S
C30 O36 1.255 . S
O31 Fe23 1.997 . S
O31 C29 1.235 . S
C32 O38 1.287 . S
C32 O39 1.255 . S
O33 Fe22 1.976 . S
O33 C40 1.287 . S
O34 Fe23 1.996 . S
O34 C40 1.255 . S
O35 Fe25 1.976 . S
O35 C30 1.287 . S
O36 Fe22 1.996 . S
O36 C30 1.255 . S
C37 O41 1.295 . S
C37 O42 1.235 . S
O38 Fe23 1.976 . S
O38 C32 1.287 . S
O39 Fe25 1.996 . S
O39 C32 1.255 . S
C40 O33 1.287 . S
C40 O34 1.255 . S
O41 Fe23 2.002 . S
O41 C37 1.295 . S
O42 Fe25 1.997 . S
O42 C37 1.235 . S
C43 O26 1.295 . S
C43 O27 1.235 . S
Fe44 O46 1.918 1_556 S
Fe44 O49 1.997 . S
Fe44 O50 2.002 . S
Fe44 O55 1.976 . S
Fe44 O58 1.996 . S
Fe45 O46 1.918 . S
Fe45 O53 1.997 . S
Fe45 O56 1.996 . S
Fe45 O60 1.976 . S
Fe45 O63 2.002 . S
O46 Fe44 1.918 1_554 S
O46 Fe45 1.918 . S
O46 Fe47 1.918 . S
Fe47 O46 1.918 . S
Fe47 O48 2.002 1_554 S
Fe47 O57 1.976 1_554 S
Fe47 O61 1.996 . S
Fe47 O64 1.997 . S
O48 Fe47 2.002 1_556 S
O48 C65 1.295 . S
O49 Fe44 1.997 . S
O49 C65 1.235 . S
O50 Fe44 2.002 . S
O50 C51 1.295 1_556 S
C51 O50 1.295 1_554 S
C51 O53 1.235 . S
C52 O57 1.287 . S
C52 O58 1.255 . S
O53 Fe45 1.997 . S
O53 C51 1.235 . S
C54 O60 1.287 . S
C54 O61 1.255 . S
O55 Fe44 1.976 . S
O55 C62 1.287 1_556 S
O56 Fe45 1.996 . S
O56 C62 1.255 . S
O57 Fe47 1.976 1_556 S
O57 C52 1.287 . S
O58 Fe44 1.996 . S
O58 C52 1.255 . S
C59 O63 1.295 . S
C59 O64 1.235 . S
O60 Fe45 1.976 . S
O60 C54 1.287 . S
O61 Fe47 1.996 . S
O61 C54 1.255 . S
C62 O55 1.287 1_554 S
C62 O56 1.255 . S
O63 Fe45 2.002 . S
O63 C59 1.295 . S
O64 Fe47 1.997 . S
O64 C59 1.235 . S
C65 O48 1.295 . S
C65 O49 1.235 . S
Fe66 O68 1.918 . S
Fe66 O71 1.997 . S
Fe66 O72 2.002 . S
Fe66 O77 1.976 . S
Fe66 O80 1.996 . S
Fe67 O68 1.918 . S
Fe67 O75 1.997 . S
Fe67 O78 1.996 . S
Fe67 O82 1.976 . S
Fe67 O85 2.002 . S
O68 Fe66 1.918 . S
O68 Fe67 1.918 . S
O68 Fe69 1.918 . S
Fe69 O68 1.918 . S
Fe69 O70 2.002 . S
Fe69 O79 1.976 . S
Fe69 O83 1.996 . S
Fe69 O86 1.997 . S
O70 Fe69 2.002 . S
O70 C87 1.295 . S
O71 Fe66 1.997 . S
O71 C87 1.235 . S
O72 Fe66 2.002 . S
O72 C73 1.295 . S
C73 O72 1.295 . S
C73 O75 1.235 . S
C74 O79 1.287 . S
C74 O80 1.255 . S
O75 Fe67 1.997 . S
O75 C73 1.235 . S
C76 O82 1.287 . S
C76 O83 1.255 . S
O77 Fe66 1.976 . S
O77 C84 1.287 . S
O78 Fe67 1.996 . S
O78 C84 1.255 . S
O79 Fe69 1.976 . S
O79 C74 1.287 . S
O80 Fe66 1.996 . S
O80 C74 1.255 . S
C81 O85 1.295 . S
C81 O86 1.235 . S
O82 Fe67 1.976 . S
O82 C76 1.287 . S
O83 Fe69 1.996 . S
O83 C76 1.255 . S
C84 O77 1.287 . S
C84 O78 1.255 . S
O85 Fe67 2.002 . S
O85 C81 1.295 . S
O86 Fe69 1.997 . S
O86 C81 1.235 . S
C87 O70 1.295 . S
C87 O71 1.235 . S
O88 Cd89 2.300 1_556 S
O88 C95 1.275 . S
Cd89 O88 2.300 1_554 S
Cd89 O97 2.381 1_554 S
Cd89 O98 2.378 . S
O90 Cd91 2.385 1_556 S
O90 C95 1.255 . S
Cd91 O90 2.385 1_554 S
Cd91 O92 2.317 . S
O92 Cd91 2.317 . S
O92 C93 1.232 . S
C93 O92 1.232 . S
C93 O94 1.218 . S
O94 C93 1.218 . S
C95 O88 1.275 . S
C95 O90 1.255 . S
C96 O97 1.258 1_554 S
C96 O98 1.256 . S
O97 Cd89 2.381 1_556 S
O97 C96 1.258 1_556 S
O98 Cd89 2.378 . S
O98 C96 1.256 . S
O99 Cd100 2.300 1_655 S
O99 C106 1.275 . S
Cd100 O99 2.300 1_455 S
Cd100 O108 2.381 . S
Cd100 O109 2.378 . S
O101 Cd102 2.385 . S
O101 C106 1.255 . S
Cd102 O101 2.385 . S
Cd102 O103 2.317 . S
O103 Cd102 2.317 . S
O103 C104 1.232 . S
C104 O103 1.232 . S
C104 O105 1.218 . S
O105 C104 1.218 . S
C106 O99 1.275 . S
C106 O101 1.255 . S
C107 O108 1.258 . S
C107 O109 1.256 . S
O108 Cd100 2.381 . S
O108 C107 1.258 . S
O109 Cd100 2.378 . S
O109 C107 1.256 . S
O110 Cd111 2.300 . S
O110 C117 1.275 . S
Cd111 O110 2.300 . S
Cd111 O119 2.381 . S
Cd111 O120 2.378 . S
O112 Cd113 2.394 . S
O112 C117 1.255 . S
Cd113 O112 2.394 . S
Cd113 O114 2.309 1_554 S
O114 Cd113 2.309 1_556 S
O114 C115 1.232 . S
C115 O114 1.232 . S
C115 O116 1.218 . S
O116 C115 1.218 . S
C117 O110 1.275 . S
C117 O112 1.255 . S
C118 O119 1.258 . S
C118 O120 1.256 . S
O119 Cd111 2.381 . S
O119 C118 1.258 . S
O120 Cd111 2.378 . S
O120 C118 1.256 . S
O121 Cd122 2.314 . S
O121 C128 1.275 . S
Cd122 O121 2.314 . S
Cd122 O130 2.353 1_455 S
Cd122 O131 2.349 1_455 S
O123 Cd124 2.385 . S
O123 C128 1.255 . S
Cd124 O123 2.385 . S
Cd124 O125 2.317 . S
O125 Cd124 2.317 . S
O125 C126 1.232 . S
C126 O125 1.232 . S
C126 O127 1.218 . S
O127 C126 1.218 . S
C128 O121 1.275 . S
C128 O123 1.255 . S
C129 O130 1.258 . S
C129 O131 1.256 . S
O130 Cd122 2.353 1_655 S
O130 C129 1.258 . S
O131 Cd122 2.349 1_655 S
O131 C129 1.256 . S
O132 Cd133 2.300 1_565 S
O132 C139 1.275 . S
Cd133 O132 2.300 1_545 S
Cd133 O141 2.381 . S
Cd133 O142 2.378 . S
O134 Cd135 2.385 . S
O134 C139 1.255 . S
Cd135 O134 2.385 . S
Cd135 O136 2.317 . S
O136 Cd135 2.317 . S
O136 C137 1.232 . S
C137 O136 1.232 . S
C137 O138 1.218 . S
O138 C137 1.218 . S
C139 O132 1.275 . S
C139 O134 1.255 . S
C140 O141 1.258 . S
C140 O142 1.256 . S
O141 Cd133 2.381 . S
O141 C140 1.258 . S
O142 Cd133 2.378 . S
O142 C140 1.256 . S
O143 Cd144 2.300 . S
O143 C150 1.275 . S
Cd144 O143 2.300 . S
Cd144 O152 2.381 . S
Cd144 O153 2.378 1_554 S
O145 Cd146 2.385 1_554 S
O145 C150 1.255 . S
Cd146 O145 2.385 1_556 S
Cd146 O147 2.317 . S
O147 Cd146 2.317 . S
O147 C148 1.232 . S
C148 O147 1.232 . S
C148 O149 1.218 . S
O149 C148 1.218 . S
C150 O143 1.275 . S
C150 O145 1.255 . S
C151 O152 1.258 . S
C151 O153 1.256 1_554 S
O152 Cd144 2.381 . S
O152 C151 1.258 . S
O153 Cd144 2.378 1_556 S
O153 C151 1.256 1_556 S
O154 Cd155 2.300 1_545 S
O154 C161 1.275 . S
Cd155 O154 2.300 1_565 S
Cd155 O163 2.381 . S
Cd155 O164 2.378 . S
O156 Cd157 2.385 . S
O156 C161 1.255 . S
Cd157 O156 2.385 . S
Cd157 O158 2.317 . S
O158 Cd157 2.317 . S
O158 C159 1.232 . S
C159 O158 1.232 . S
C159 O160 1.218 . S
O160 C159 1.218 . S
C161 O154 1.275 . S
C161 O156 1.255 . S
C162 O163 1.258 . S
C162 O164 1.256 . S
O163 Cd155 2.381 . S
O163 C162 1.258 . S
O164 Cd155 2.378 . S
O164 C162 1.256 . S
O165 Cd166 2.300 1_556 S
O165 C172 1.275 . S
Cd166 O165 2.300 1_554 S
Cd166 O174 2.381 . S
Cd166 O175 2.378 . S
O167 Cd168 2.385 . S
O167 C172 1.255 1_554 S
Cd168 O167 2.385 . S
Cd168 O169 2.317 . S
O169 Cd168 2.317 . S
O169 C170 1.232 . S
C170 O169 1.232 . S
C170 O171 1.218 . S
O171 C170 1.218 . S
C172 O165 1.275 . S
C172 O167 1.255 1_556 S
C173 O174 1.258 . S
C173 O175 1.256 . S
O174 Cd166 2.381 . S
O174 C173 1.258 . S
O175 Cd166 2.378 . S
O175 C173 1.256 . S
H176 C194 0.951 . S
H177 C196 0.951 . S
H178 C198 0.950 . S
H179 C199 0.950 . S
H180 C201 0.950 . S
H181 C204 0.950 . S
H182 C205 0.950 . S
H183 C207 0.950 . S
H184 C208 0.950 . S
H185 C209 0.951 . S
H186 C211 0.951 . S
H187 C213 0.950 . S
H188 C214 0.950 . S
H189 C216 0.950 . S
H190 C219 0.950 . S
H191 C220 0.950 . S
H192 C222 0.950 . S
H193 C223 0.950 . S
C194 H176 0.951 . S
C194 C195 1.366 . S
C194 C196 1.388 . S
C195 C194 1.366 . S
C195 C199 1.385 . S
C196 H177 0.951 . S
C196 C194 1.388 . S
C196 C197 1.366 . S
C197 C196 1.366 . S
C197 C198 1.414 . S
C197 C200 1.499 . S
C198 H178 0.950 . S
C198 C197 1.414 . S
C198 C199 1.374 . S
C199 H179 0.950 . S
C199 C195 1.385 . S
C199 C198 1.374 . S
C200 C197 1.499 . S
C200 C201 1.373 . S
C200 C202 1.389 . S
C201 H180 0.950 . S
C201 C200 1.373 . S
C201 C217 1.377 . S
C202 C200 1.389 . S
C202 C203 1.524 . S
C202 C216 1.377 . S
C203 C202 1.524 . S
C203 C204 1.397 . S
C203 C208 1.363 . S
C204 H181 0.950 . S
C204 C203 1.397 . S
C204 C205 1.334 . S
C205 H182 0.950 . S
C205 C204 1.334 . S
C205 C206 1.287 . S
C206 C205 1.287 . S
C206 C207 1.524 . S
C206 H225 0.913 . S
C207 H183 0.950 . S
C207 C206 1.524 . S
C207 C208 1.415 . S
C208 H184 0.950 . S
C208 C203 1.363 . S
C208 C207 1.415 . S
C209 H185 0.951 . S
C209 C210 1.366 . S
C209 C211 1.388 . S
C210 C209 1.366 . S
C210 C214 1.385 . S
C211 H186 0.951 . S
C211 C209 1.388 . S
C211 C212 1.366 . S
C212 C211 1.366 . S
C212 C213 1.414 . S
C212 C215 1.499 . S
C213 H187 0.950 . S
C213 C212 1.414 . S
C213 C214 1.374 . S
C214 H188 0.950 . S
C214 C210 1.385 . S
C214 C213 1.374 . S
C215 C212 1.499 . S
C215 C216 1.373 . S
C215 C217 1.389 . S
C216 H189 0.950 . S
C216 C202 1.377 . S
C216 C215 1.373 . S
C217 C201 1.377 . S
C217 C215 1.389 . S
C217 C218 1.524 . S
C218 C217 1.524 . S
C218 C219 1.397 . S
C218 C223 1.363 . S
C219 H190 0.950 . S
C219 C218 1.397 . S
C219 C220 1.334 . S
C220 H191 0.950 . S
C220 C219 1.334 . S
C220 C221 1.287 . S
C221 C220 1.287 . S
C221 C222 1.524 . S
C221 H224 0.999 . S
C222 H192 0.950 . S
C222 C221 1.524 . S
C222 C223 1.415 . S
C223 H193 0.950 . S
C223 C218 1.363 . S
C223 C222 1.415 . S
H224 C221 0.999 . S
H225 C206 0.913 . S
H226 C244 0.951 . S
H227 C246 0.951 . S
H228 C248 0.950 . S
H229 C249 0.950 . S
H230 C251 0.950 . S
H231 C254 0.950 . S
H232 C255 0.950 . S
H233 C257 0.950 . S
H234 C258 0.950 . S
H235 C259 0.951 . S
H236 C261 0.951 . S
H237 C263 0.950 . S
H238 C264 0.950 . S
H239 C266 0.950 . S
H240 C269 0.950 . S
H241 C270 0.950 . S
H242 C272 0.950 . S
H243 C273 0.950 . S
C244 H226 0.951 . S
C244 C245 1.366 . S
C244 C246 1.388 . S
C245 C244 1.366 . S
C245 C249 1.385 . S
C246 H227 0.951 . S
C246 C244 1.388 . S
C246 C247 1.366 . S
C247 C246 1.366 . S
C247 C248 1.414 . S
C247 C250 1.499 . S
C248 H228 0.950 . S
C248 C247 1.414 . S
C248 C249 1.374 . S
C249 H229 0.950 . S
C249 C245 1.385 . S
C249 C248 1.374 . S
C250 C247 1.499 . S
C250 C251 1.373 . S
C250 C252 1.389 . S
C251 H230 0.950 . S
C251 C250 1.373 . S
C251 C267 1.377 . S
C252 C250 1.389 . S
C252 C253 1.524 . S
C252 C266 1.377 . S
C253 C252 1.524 . S
C253 C254 1.397 . S
C253 C258 1.363 . S
C254 H231 0.950 . S
C254 C253 1.397 . S
C254 C255 1.334 . S
C255 H232 0.950 . S
C255 C254 1.334 . S
C255 C256 1.287 . S
C256 C255 1.287 . S
C256 C257 1.524 . S
C256 H275 0.913 . S
C257 H233 0.950 . S
C257 C256 1.524 . S
C257 C258 1.415 . S
C258 H234 0.950 . S
C258 C253 1.363 . S
C258 C257 1.415 . S
C259 H235 0.951 . S
C259 C260 1.366 . S
C259 C261 1.388 . S
C260 C259 1.366 . S
C260 C264 1.385 . S
C261 H236 0.951 . S
C261 C259 1.388 . S
C261 C262 1.366 . S
C262 C261 1.366 . S
C262 C263 1.414 . S
C262 C265 1.499 . S
C263 H237 0.950 . S
C263 C262 1.414 . S
C263 C264 1.374 . S
C264 H238 0.950 . S
C264 C260 1.385 . S
C264 C263 1.374 . S
C265 C262 1.499 . S
C265 C266 1.373 . S
C265 C267 1.389 . S
C266 H239 0.950 . S
C266 C252 1.377 . S
C266 C265 1.373 . S
C267 C251 1.377 . S
C267 C265 1.389 . S
C267 C268 1.524 . S
C268 C267 1.524 . S
C268 C269 1.397 . S
C268 C273 1.363 . S
C269 H240 0.950 . S
C269 C268 1.397 . S
C269 C270 1.334 . S
C270 H241 0.950 . S
C270 C269 1.334 . S
C270 C271 1.287 . S
C271 C270 1.287 . S
C271 C272 1.524 . S
C271 H274 0.999 . S
C272 H242 0.950 . S
C272 C271 1.524 . S
C272 C273 1.415 . S
C273 H243 0.950 . S
C273 C268 1.363 . S
C273 C272 1.415 . S
H274 C271 0.999 . S
H275 C256 0.913 . S
H276 C294 0.951 . S
H277 C296 0.951 . S
H278 C298 0.950 . S
H279 C299 0.950 . S
H280 C301 0.950 . S
H281 C304 0.950 . S
H282 C305 0.950 . S
H283 C307 0.950 . S
H284 C308 0.950 . S
H285 C309 0.951 . S
H286 C311 0.951 . S
H287 C313 0.950 . S
H288 C314 0.950 . S
H289 C316 0.950 . S
H290 C319 0.950 . S
H291 C320 0.950 . S
H292 C322 0.950 . S
H293 C323 0.950 . S
C294 H276 0.951 . S
C294 C295 1.366 . S
C294 C296 1.388 . S
C295 C294 1.366 . S
C295 C299 1.385 . S
C296 H277 0.951 . S
C296 C294 1.388 . S
C296 C297 1.366 . S
C297 C296 1.366 . S
C297 C298 1.414 . S
C297 C300 1.499 . S
C298 H278 0.950 . S
C298 C297 1.414 . S
C298 C299 1.374 . S
C299 H279 0.950 . S
C299 C295 1.385 . S
C299 C298 1.374 . S
C300 C297 1.499 . S
C300 C301 1.373 . S
C300 C302 1.389 . S
C301 H280 0.950 . S
C301 C300 1.373 . S
C301 C317 1.377 . S
C302 C300 1.389 . S
C302 C303 1.524 . S
C302 C316 1.377 . S
C303 C302 1.524 . S
C303 C304 1.397 . S
C303 C308 1.363 . S
C304 H281 0.950 . S
C304 C303 1.397 . S
C304 C305 1.334 . S
C305 H282 0.950 . S
C305 C304 1.334 . S
C305 C306 1.287 . S
C306 C305 1.287 . S
C306 C307 1.524 . S
C306 H325 0.913 . S
C307 H283 0.950 . S
C307 C306 1.524 . S
C307 C308 1.415 . S
C308 H284 0.950 . S
C308 C303 1.363 . S
C308 C307 1.415 . S
C309 H285 0.951 . S
C309 C310 1.366 . S
C309 C311 1.388 . S
C310 C309 1.366 . S
C310 C314 1.385 . S
C311 H286 0.951 . S
C311 C309 1.388 . S
C311 C312 1.366 . S
C312 C311 1.366 . S
C312 C313 1.414 . S
C312 C315 1.499 . S
C313 H287 0.950 . S
C313 C312 1.414 . S
C313 C314 1.374 . S
C314 H288 0.950 . S
C314 C310 1.385 . S
C314 C313 1.374 . S
C315 C312 1.499 . S
C315 C316 1.373 . S
C315 C317 1.389 . S
C316 H289 0.950 . S
C316 C302 1.377 . S
C316 C315 1.373 . S
C317 C301 1.377 . S
C317 C315 1.389 . S
C317 C318 1.524 . S
C318 C317 1.524 . S
C318 C319 1.397 . S
C318 C323 1.363 . S
C319 H290 0.950 . S
C319 C318 1.397 . S
C319 C320 1.334 . S
C320 H291 0.950 . S
C320 C319 1.334 . S
C320 C321 1.287 . S
C321 C320 1.287 . S
C321 C322 1.524 . S
C321 H324 0.999 . S
C322 H292 0.950 . S
C322 C321 1.524 . S
C322 C323 1.415 . S
C323 H293 0.950 . S
C323 C318 1.363 . S
C323 C322 1.415 . S
H324 C321 0.999 . S
H325 C306 0.913 . S
H326 C344 0.951 . S
H327 C346 0.951 . S
H328 C348 0.950 . S
H329 C349 0.950 . S
H330 C351 0.950 . S
H331 C354 0.950 . S
H332 C355 0.950 . S
H333 C357 0.950 . S
H334 C358 0.950 . S
H335 C359 0.951 . S
H336 C361 0.951 . S
H337 C363 0.950 . S
H338 C364 0.950 . S
H339 C366 0.950 . S
H340 C369 0.950 . S
H341 C370 0.950 . S
H342 C372 0.950 . S
H343 C373 0.950 . S
C344 H326 0.951 . S
C344 C345 1.366 . S
C344 C346 1.388 . S
C345 C344 1.366 . S
C345 C349 1.385 . S
C346 H327 0.951 . S
C346 C344 1.388 . S
C346 C347 1.366 . S
C347 C346 1.366 . S
C347 C348 1.414 . S
C347 C350 1.499 . S
C348 H328 0.950 . S
C348 C347 1.414 . S
C348 C349 1.374 . S
C349 H329 0.950 . S
C349 C345 1.385 . S
C349 C348 1.374 . S
C350 C347 1.499 . S
C350 C351 1.373 . S
C350 C352 1.389 . S
C351 H330 0.950 . S
C351 C350 1.373 . S
C351 C367 1.377 . S
C352 C350 1.389 . S
C352 C353 1.524 . S
C352 C366 1.377 . S
C353 C352 1.524 . S
C353 C354 1.397 . S
C353 C358 1.363 . S
C354 H331 0.950 . S
C354 C353 1.397 . S
C354 C355 1.334 . S
C355 H332 0.950 . S
C355 C354 1.334 . S
C355 C356 1.287 . S
C356 C355 1.287 . S
C356 C357 1.524 . S
C356 H375 0.913 . S
C357 H333 0.950 . S
C357 C356 1.524 . S
C357 C358 1.415 . S
C358 H334 0.950 . S
C358 C353 1.363 . S
C358 C357 1.415 . S
C359 H335 0.951 . S
C359 C360 1.366 . S
C359 C361 1.388 . S
C360 C359 1.366 . S
C360 C364 1.385 . S
C361 H336 0.951 . S
C361 C359 1.388 . S
C361 C362 1.366 . S
C362 C361 1.366 . S
C362 C363 1.414 . S
C362 C365 1.499 . S
C363 H337 0.950 . S
C363 C362 1.414 . S
C363 C364 1.374 . S
C364 H338 0.950 . S
C364 C360 1.385 . S
C364 C363 1.374 . S
C365 C362 1.499 . S
C365 C366 1.373 . S
C365 C367 1.389 . S
C366 H339 0.950 . S
C366 C352 1.377 . S
C366 C365 1.373 . S
C367 C351 1.377 . S
C367 C365 1.389 . S
C367 C368 1.524 . S
C368 C367 1.524 . S
C368 C369 1.397 . S
C368 C373 1.363 . S
C369 H340 0.950 . S
C369 C368 1.397 . S
C369 C370 1.334 . S
C370 H341 0.950 . S
C370 C369 1.334 . S
C370 C371 1.287 . S
C371 C370 1.287 . S
C371 C372 1.524 . S
C371 H374 0.999 . S
C372 H342 0.950 . S
C372 C371 1.524 . S
C372 C373 1.415 . S
C373 H343 0.950 . S
C373 C368 1.363 . S
C373 C372 1.415 . S
H374 C371 0.999 . S
H375 C356 0.913 . S
H376 C394 0.951 . S
H377 C396 0.951 . S
H378 C398 0.950 . S
H379 C399 0.950 . S
H380 C401 0.950 . S
H381 C404 0.950 . S
H382 C405 0.950 . S
H383 C407 0.950 . S
H384 C408 0.950 . S
H385 C409 0.951 . S
H386 C411 0.951 . S
H387 C413 0.950 . S
H388 C414 0.950 . S
H389 C416 0.950 . S
H390 C419 0.950 . S
H391 C420 0.950 . S
H392 C422 0.950 . S
H393 C423 0.950 . S
C394 H376 0.951 . S
C394 C395 1.366 . S
C394 C396 1.388 . S
C395 C394 1.366 . S
C395 C399 1.385 . S
C396 H377 0.951 . S
C396 C394 1.388 . S
C396 C397 1.366 . S
C397 C396 1.366 . S
C397 C398 1.414 . S
C397 C400 1.499 . S
C398 H378 0.950 . S
C398 C397 1.414 . S
C398 C399 1.374 . S
C399 H379 0.950 . S
C399 C395 1.385 . S
C399 C398 1.374 . S
C400 C397 1.499 . S
C400 C401 1.373 . S
C400 C402 1.389 . S
C401 H380 0.950 . S
C401 C400 1.373 . S
C401 C417 1.377 . S
C402 C400 1.389 . S
C402 C403 1.524 . S
C402 C416 1.377 . S
C403 C402 1.524 . S
C403 C404 1.397 . S
C403 C408 1.363 . S
C404 H381 0.950 . S
C404 C403 1.397 . S
C404 C405 1.334 . S
C405 H382 0.950 . S
C405 C404 1.334 . S
C405 C406 1.287 . S
C406 C405 1.287 . S
C406 C407 1.524 . S
C406 H425 0.913 . S
C407 H383 0.950 . S
C407 C406 1.524 . S
C407 C408 1.415 . S
C408 H384 0.950 . S
C408 C403 1.363 . S
C408 C407 1.415 . S
C409 H385 0.951 . S
C409 C410 1.366 . S
C409 C411 1.388 . S
C410 C409 1.366 . S
C410 C414 1.385 . S
C411 H386 0.951 . S
C411 C409 1.388 . S
C411 C412 1.366 . S
C412 C411 1.366 . S
C412 C413 1.414 . S
C412 C415 1.499 . S
C413 H387 0.950 . S
C413 C412 1.414 . S
C413 C414 1.374 . S
C414 H388 0.950 . S
C414 C410 1.385 . S
C414 C413 1.374 . S
C415 C412 1.499 . S
C415 C416 1.373 . S
C415 C417 1.389 . S
C416 H389 0.950 . S
C416 C402 1.377 . S
C416 C415 1.373 . S
C417 C401 1.377 . S
C417 C415 1.389 . S
C417 C418 1.524 . S
C418 C417 1.524 . S
C418 C419 1.397 . S
C418 C423 1.363 . S
C419 H390 0.950 . S
C419 C418 1.397 . S
C419 C420 1.334 . S
C420 H391 0.950 . S
C420 C419 1.334 . S
C420 C421 1.287 . S
C421 C420 1.287 . S
C421 C422 1.524 . S
C421 H424 0.999 . S
C422 H392 0.950 . S
C422 C421 1.524 . S
C422 C423 1.415 . S
C423 H393 0.950 . S
C423 C418 1.363 . S
C423 C422 1.415 . S
H424 C421 0.999 . S
H425 C406 0.913 . S
H426 C444 0.951 . S
H427 C446 0.951 . S
H428 C448 0.950 . S
H429 C449 0.950 . S
H430 C451 0.950 . S
H431 C454 0.950 . S
H432 C455 0.950 . S
H433 C457 0.950 . S
H434 C458 0.950 . S
H435 C459 0.951 . S
H436 C461 0.951 . S
H437 C463 0.950 . S
H438 C464 0.950 . S
H439 C466 0.950 . S
H440 C469 0.950 . S
H441 C470 0.950 . S
H442 C472 0.950 . S
H443 C473 0.950 . S
C444 H426 0.951 . S
C444 C445 1.366 . S
C444 C446 1.388 . S
C445 C444 1.366 . S
C445 C449 1.385 . S
C446 H427 0.951 . S
C446 C444 1.388 . S
C446 C447 1.366 . S
C447 C446 1.366 . S
C447 C448 1.414 . S
C447 C450 1.499 . S
C448 H428 0.950 . S
C448 C447 1.414 . S
C448 C449 1.374 . S
C449 H429 0.950 . S
C449 C445 1.385 . S
C449 C448 1.374 . S
C450 C447 1.499 . S
C450 C451 1.373 . S
C450 C452 1.389 . S
C451 H430 0.950 . S
C451 C450 1.373 . S
C451 C467 1.377 . S
C452 C450 1.389 . S
C452 C453 1.524 . S
C452 C466 1.377 . S
C453 C452 1.524 . S
C453 C454 1.397 . S
C453 C458 1.363 . S
C454 H431 0.950 . S
C454 C453 1.397 . S
C454 C455 1.334 . S
C455 H432 0.950 . S
C455 C454 1.334 . S
C455 C456 1.287 . S
C456 C455 1.287 . S
C456 C457 1.524 . S
C456 H475 0.913 . S
C457 H433 0.950 . S
C457 C456 1.524 . S
C457 C458 1.415 . S
C458 H434 0.950 . S
C458 C453 1.363 . S
C458 C457 1.415 . S
C459 H435 0.951 . S
C459 C460 1.366 . S
C459 C461 1.388 . S
C460 C459 1.366 . S
C460 C464 1.385 . S
C461 H436 0.951 . S
C461 C459 1.388 . S
C461 C462 1.366 . S
C462 C461 1.366 . S
C462 C463 1.414 . S
C462 C465 1.499 . S
C463 H437 0.950 . S
C463 C462 1.414 . S
C463 C464 1.374 . S
C464 H438 0.950 . S
C464 C460 1.385 . S
C464 C463 1.374 . S
C465 C462 1.499 . S
C465 C466 1.373 . S
C465 C467 1.389 . S
C466 H439 0.950 . S
C466 C452 1.377 . S
C466 C465 1.373 . S
C467 C451 1.377 . S
C467 C465 1.389 . S
C467 C468 1.524 . S
C468 C467 1.524 . S
C468 C469 1.397 . S
C468 C473 1.363 . S
C469 H440 0.950 . S
C469 C468 1.397 . S
C469 C470 1.334 . S
C470 H441 0.950 . S
C470 C469 1.334 . S
C470 C471 1.287 . S
C471 C470 1.287 . S
C471 C472 1.524 . S
C471 H474 0.999 . S
C472 H442 0.950 . S
C472 C471 1.524 . S
C472 C473 1.415 . S
C473 H443 0.950 . S
C473 C468 1.363 . S
C473 C472 1.415 . S
H474 C471 0.999 . S
H475 C456 0.913 . S
H476 C494 0.951 . S
H477 C496 0.951 . S
H478 C498 0.950 . S
H479 C499 0.950 . S
H480 C501 0.950 . S
H481 C504 0.950 . S
H482 C505 0.950 . S
H483 C507 0.950 . S
H484 C508 0.950 . S
H485 C509 0.951 . S
H486 C511 0.951 . S
H487 C513 0.950 . S
H488 C514 0.950 . S
H489 C516 0.950 . S
H490 C519 0.950 . S
H491 C520 0.950 . S
H492 C522 0.950 . S
H493 C523 0.950 . S
C494 H476 0.951 . S
C494 C495 1.366 . S
C494 C496 1.388 . S
C495 C494 1.366 . S
C495 C499 1.385 . S
C496 H477 0.951 . S
C496 C494 1.388 . S
C496 C497 1.366 . S
C497 C496 1.366 . S
C497 C498 1.414 . S
C497 C500 1.499 . S
C498 H478 0.950 . S
C498 C497 1.414 . S
C498 C499 1.374 . S
C499 H479 0.950 . S
C499 C495 1.385 . S
C499 C498 1.374 . S
C500 C497 1.499 . S
C500 C501 1.373 . S
C500 C502 1.389 . S
C501 H480 0.950 . S
C501 C500 1.373 . S
C501 C517 1.377 . S
C502 C500 1.389 . S
C502 C503 1.524 . S
C502 C516 1.377 . S
C503 C502 1.524 . S
C503 C504 1.397 . S
C503 C508 1.363 . S
C504 H481 0.950 . S
C504 C503 1.397 . S
C504 C505 1.334 . S
C505 H482 0.950 . S
C505 C504 1.334 . S
C505 C506 1.287 . S
C506 C505 1.287 . S
C506 C507 1.524 . S
C506 H525 0.913 . S
C507 H483 0.950 . S
C507 C506 1.524 . S
C507 C508 1.415 . S
C508 H484 0.950 . S
C508 C503 1.363 . S
C508 C507 1.415 . S
C509 H485 0.951 . S
C509 C510 1.366 . S
C509 C511 1.388 . S
C510 C509 1.366 . S
C510 C514 1.385 . S
C511 H486 0.951 . S
C511 C509 1.388 . S
C511 C512 1.366 . S
C512 C511 1.366 . S
C512 C513 1.414 . S
C512 C515 1.499 . S
C513 H487 0.950 . S
C513 C512 1.414 . S
C513 C514 1.374 . S
C514 H488 0.950 . S
C514 C510 1.385 . S
C514 C513 1.374 . S
C515 C512 1.499 . S
C515 C516 1.373 . S
C515 C517 1.389 . S
C516 H489 0.950 . S
C516 C502 1.377 . S
C516 C515 1.373 . S
C517 C501 1.377 . S
C517 C515 1.389 . S
C517 C518 1.524 . S
C518 C517 1.524 . S
C518 C519 1.397 . S
C518 C523 1.363 . S
C519 H490 0.950 . S
C519 C518 1.397 . S
C519 C520 1.334 . S
C520 H491 0.950 . S
C520 C519 1.334 . S
C520 C521 1.287 . S
C521 C520 1.287 . S
C521 C522 1.524 . S
C521 H524 0.999 . S
C522 H492 0.950 . S
C522 C521 1.524 . S
C522 C523 1.415 . S
C523 H493 0.950 . S
C523 C518 1.363 . S
C523 C522 1.415 . S
H524 C521 0.999 . S
H525 C506 0.913 . S
H526 C544 0.951 . S
H527 C546 0.951 . S
H528 C548 0.950 . S
H529 C549 0.950 . S
H530 C551 0.950 . S
H531 C554 0.950 . S
H532 C555 0.950 . S
H533 C557 0.950 . S
H534 C558 0.950 . S
H535 C559 0.951 . S
H536 C561 0.951 . S
H537 C563 0.950 . S
H538 C564 0.950 . S
H539 C566 0.950 . S
H540 C569 0.950 . S
H541 C570 0.950 . S
H542 C572 0.950 . S
H543 C573 0.950 . S
C544 H526 0.951 . S
C544 C545 1.366 . S
C544 C546 1.388 . S
C545 C544 1.366 . S
C545 C549 1.385 . S
C546 H527 0.951 . S
C546 C544 1.388 . S
C546 C547 1.366 . S
C547 C546 1.366 . S
C547 C548 1.414 . S
C547 C550 1.499 . S
C548 H528 0.950 . S
C548 C547 1.414 . S
C548 C549 1.374 . S
C549 H529 0.950 . S
C549 C545 1.385 . S
C549 C548 1.374 . S
C550 C547 1.499 . S
C550 C551 1.373 . S
C550 C552 1.389 . S
C551 H530 0.950 . S
C551 C550 1.373 . S
C551 C567 1.377 . S
C552 C550 1.389 . S
C552 C553 1.524 . S
C552 C566 1.377 . S
C553 C552 1.524 . S
C553 C554 1.397 . S
C553 C558 1.363 . S
C554 H531 0.950 . S
C554 C553 1.397 . S
C554 C555 1.334 . S
C555 H532 0.950 . S
C555 C554 1.334 . S
C555 C556 1.287 . S
C556 C555 1.287 . S
C556 C557 1.524 . S
C556 H575 0.913 . S
C557 H533 0.950 . S
C557 C556 1.524 . S
C557 C558 1.415 . S
C558 H534 0.950 . S
C558 C553 1.363 . S
C558 C557 1.415 . S
C559 H535 0.951 . S
C559 C560 1.366 . S
C559 C561 1.388 . S
C560 C559 1.366 . S
C560 C564 1.385 . S
C561 H536 0.951 . S
C561 C559 1.388 . S
C561 C562 1.366 . S
C562 C561 1.366 . S
C562 C563 1.414 . S
C562 C565 1.499 . S
C563 H537 0.950 . S
C563 C562 1.414 . S
C563 C564 1.374 . S
C564 H538 0.950 . S
C564 C560 1.385 . S
C564 C563 1.374 . S
C565 C562 1.499 . S
C565 C566 1.373 . S
C565 C567 1.389 . S
C566 H539 0.950 . S
C566 C552 1.377 . S
C566 C565 1.373 . S
C567 C551 1.377 . S
C567 C565 1.389 . S
C567 C568 1.524 . S
C568 C567 1.524 . S
C568 C569 1.397 . S
C568 C573 1.363 . S
C569 H540 0.950 . S
C569 C568 1.397 . S
C569 C570 1.334 . S
C570 H541 0.950 . S
C570 C569 1.334 . S
C570 C571 1.287 . S
C571 C570 1.287 . S
C571 C572 1.524 . S
C571 H574 0.999 . S
C572 H542 0.950 . S
C572 C571 1.524 . S
C572 C573 1.415 . S
C573 H543 0.950 . S
C573 C568 1.363 . S
C573 C572 1.415 . S
H574 C571 0.999 . S
H575 C556 0.913 . S
H576 C594 0.951 . S
H577 C596 0.951 . S
H578 C598 0.950 . S
H579 C599 0.950 . S
H580 C601 0.950 . S
H581 C604 0.950 . S
H582 C605 0.950 . S
H583 C607 0.950 . S
H584 C608 0.950 . S
H585 C609 0.951 . S
H586 C611 0.951 . S
H587 C613 0.950 . S
H588 C614 0.950 . S
H589 C616 0.950 . S
H590 C619 0.950 . S
H591 C620 0.950 . S
H592 C622 0.950 . S
H593 C623 0.950 . S
C594 H576 0.951 . S
C594 C595 1.366 . S
C594 C596 1.388 . S
C595 C594 1.366 . S
C595 C599 1.385 . S
C596 H577 0.951 . S
C596 C594 1.388 . S
C596 C597 1.366 . S
C597 C596 1.366 . S
C597 C598 1.414 . S
C597 C600 1.499 . S
C598 H578 0.950 . S
C598 C597 1.414 . S
C598 C599 1.374 . S
C599 H579 0.950 . S
C599 C595 1.385 . S
C599 C598 1.374 . S
C600 C597 1.499 . S
C600 C601 1.373 . S
C600 C602 1.389 . S
C601 H580 0.950 . S
C601 C600 1.373 . S
C601 C617 1.377 . S
C602 C600 1.389 . S
C602 C603 1.524 . S
C602 C616 1.377 . S
C603 C602 1.524 . S
C603 C604 1.397 . S
C603 C608 1.363 . S
C604 H581 0.950 . S
C604 C603 1.397 . S
C604 C605 1.334 . S
C605 H582 0.950 . S
C605 C604 1.334 . S
C605 C606 1.287 . S
C606 C605 1.287 . S
C606 C607 1.524 . S
C606 H625 0.913 . S
C607 H583 0.950 . S
C607 C606 1.524 . S
C607 C608 1.415 . S
C608 H584 0.950 . S
C608 C603 1.363 . S
C608 C607 1.415 . S
C609 H585 0.951 . S
C609 C610 1.366 . S
C609 C611 1.388 . S
C610 C609 1.366 . S
C610 C614 1.385 . S
C611 H586 0.951 . S
C611 C609 1.388 . S
C611 C612 1.366 . S
C612 C611 1.366 . S
C612 C613 1.414 . S
C612 C615 1.499 . S
C613 H587 0.950 . S
C613 C612 1.414 . S
C613 C614 1.374 . S
C614 H588 0.950 . S
C614 C610 1.385 . S
C614 C613 1.374 . S
C615 C612 1.499 . S
C615 C616 1.373 . S
C615 C617 1.389 . S
C616 H589 0.950 . S
C616 C602 1.377 . S
C616 C615 1.373 . S
C617 C601 1.377 . S
C617 C615 1.389 . S
C617 C618 1.524 . S
C618 C617 1.524 . S
C618 C619 1.397 . S
C618 C623 1.363 . S
C619 H590 0.950 . S
C619 C618 1.397 . S
C619 C620 1.334 . S
C620 H591 0.950 . S
C620 C619 1.334 . S
C620 C621 1.287 . S
C621 C620 1.287 . S
C621 C622 1.524 . S
C621 H624 0.999 . S
C622 H592 0.950 . S
C622 C621 1.524 . S
C622 C623 1.415 . S
C623 H593 0.950 . S
C623 C618 1.363 . S
C623 C622 1.415 . S
H624 C621 0.999 . S
H625 C606 0.913 . S
H626 C644 0.951 . S
H627 C646 0.951 . S
H628 C648 0.950 . S
H629 C649 0.950 . S
H630 C651 0.950 . S
H631 C654 0.950 . S
H632 C655 0.950 . S
H633 C657 0.950 . S
H634 C658 0.950 . S
H635 C659 0.951 . S
H636 C661 0.951 . S
H637 C663 0.950 . S
H638 C664 0.950 . S
H639 C666 0.950 . S
H640 C669 0.950 . S
H641 C670 0.950 . S
H642 C672 0.950 . S
H643 C673 0.950 . S
C644 H626 0.951 . S
C644 C645 1.366 . S
C644 C646 1.388 . S
C645 C644 1.366 . S
C645 C649 1.385 . S
C646 H627 0.951 . S
C646 C644 1.388 . S
C646 C647 1.366 . S
C647 C646 1.366 . S
C647 C648 1.414 . S
C647 C650 1.499 . S
C648 H628 0.950 . S
C648 C647 1.414 . S
C648 C649 1.374 . S
C649 H629 0.950 . S
C649 C645 1.385 . S
C649 C648 1.374 . S
C650 C647 1.499 . S
C650 C651 1.373 . S
C650 C652 1.389 . S
C651 H630 0.950 . S
C651 C650 1.373 . S
C651 C667 1.377 . S
C652 C650 1.389 . S
C652 C653 1.524 . S
C652 C666 1.377 . S
C653 C652 1.524 . S
C653 C654 1.397 . S
C653 C658 1.363 . S
C654 H631 0.950 . S
C654 C653 1.397 . S
C654 C655 1.334 . S
C655 H632 0.950 . S
C655 C654 1.334 . S
C655 C656 1.287 . S
C656 C655 1.287 . S
C656 C657 1.524 . S
C656 H675 0.913 . S
C657 H633 0.950 . S
C657 C656 1.524 . S
C657 C658 1.415 . S
C658 H634 0.950 . S
C658 C653 1.363 . S
C658 C657 1.415 . S
C659 H635 0.951 . S
C659 C660 1.366 . S
C659 C661 1.388 . S
C660 C659 1.366 . S
C660 C664 1.385 . S
C661 H636 0.951 . S
C661 C659 1.388 . S
C661 C662 1.366 . S
C662 C661 1.366 . S
C662 C663 1.414 . S
C662 C665 1.499 . S
C663 H637 0.950 . S
C663 C662 1.414 . S
C663 C664 1.374 . S
C664 H638 0.950 . S
C664 C660 1.385 . S
C664 C663 1.374 . S
C665 C662 1.499 . S
C665 C666 1.373 . S
C665 C667 1.389 . S
C666 H639 0.950 . S
C666 C652 1.377 . S
C666 C665 1.373 . S
C667 C651 1.377 . S
C667 C665 1.389 . S
C667 C668 1.524 . S
C668 C667 1.524 . S
C668 C669 1.397 . S
C668 C673 1.363 . S
C669 H640 0.950 . S
C669 C668 1.397 . S
C669 C670 1.334 . S
C670 H641 0.950 . S
C670 C669 1.334 . S
C670 C671 1.287 . S
C671 C670 1.287 . S
C671 C672 1.524 . S
C671 H674 0.999 . S
C672 H642 0.950 . S
C672 C671 1.524 . S
C672 C673 1.415 . S
C673 H643 0.950 . S
C673 C668 1.363 . S
C673 C672 1.415 . S
H674 C671 0.999 . S
H675 C656 0.913 . S
H676 C694 0.951 . S
H677 C696 0.951 . S
H678 C698 0.950 . S
H679 C699 0.950 . S
H680 C701 0.950 . S
H681 C704 0.950 . S
H682 C705 0.950 . S
H683 C707 0.950 . S
H684 C708 0.950 . S
H685 C709 0.951 . S
H686 C711 0.951 . S
H687 C713 0.950 . S
H688 C714 0.950 . S
H689 C716 0.950 . S
H690 C719 0.950 . S
H691 C720 0.950 . S
H692 C722 0.950 . S
H693 C723 0.950 . S
C694 H676 0.951 . S
C694 C695 1.366 . S
C694 C696 1.388 . S
C695 C694 1.366 . S
C695 C699 1.385 . S
C696 H677 0.951 . S
C696 C694 1.388 . S
C696 C697 1.366 . S
C697 C696 1.366 . S
C697 C698 1.414 . S
C697 C700 1.499 . S
C698 H678 0.950 . S
C698 C697 1.414 . S
C698 C699 1.374 . S
C699 H679 0.950 . S
C699 C695 1.385 . S
C699 C698 1.374 . S
C700 C697 1.499 . S
C700 C701 1.373 . S
C700 C702 1.389 . S
C701 H680 0.950 . S
C701 C700 1.373 . S
C701 C717 1.377 . S
C702 C700 1.389 . S
C702 C703 1.524 . S
C702 C716 1.377 . S
C703 C702 1.524 . S
C703 C704 1.397 . S
C703 C708 1.363 . S
C704 H681 0.950 . S
C704 C703 1.397 . S
C704 C705 1.334 . S
C705 H682 0.950 . S
C705 C704 1.334 . S
C705 C706 1.287 . S
C706 C705 1.287 . S
C706 C707 1.524 . S
C706 H725 0.913 . S
C707 H683 0.950 . S
C707 C706 1.524 . S
C707 C708 1.415 . S
C708 H684 0.950 . S
C708 C703 1.363 . S
C708 C707 1.415 . S
C709 H685 0.951 . S
C709 C710 1.366 . S
C709 C711 1.388 . S
C710 C709 1.366 . S
C710 C714 1.385 . S
C711 H686 0.951 . S
C711 C709 1.388 . S
C711 C712 1.366 . S
C712 C711 1.366 . S
C712 C713 1.414 . S
C712 C715 1.499 . S
C713 H687 0.950 . S
C713 C712 1.414 . S
C713 C714 1.374 . S
C714 H688 0.950 . S
C714 C710 1.385 . S
C714 C713 1.374 . S
C715 C712 1.499 . S
C715 C716 1.373 . S
C715 C717 1.389 . S
C716 H689 0.950 . S
C716 C702 1.377 . S
C716 C715 1.373 . S
C717 C701 1.377 . S
C717 C715 1.389 . S
C717 C718 1.524 . S
C718 C717 1.524 . S
C718 C719 1.397 . S
C718 C723 1.363 . S
C719 H690 0.950 . S
C719 C718 1.397 . S
C719 C720 1.334 . S
C720 H691 0.950 . S
C720 C719 1.334 . S
C720 C721 1.287 . S
C721 C720 1.287 . S
C721 C722 1.524 . S
C721 H724 0.999 . S
C722 H692 0.950 . S
C722 C721 1.524 . S
C722 C723 1.415 . S
C723 H693 0.950 . S
C723 C718 1.363 . S
C723 C722 1.415 . S
H724 C721 0.999 . S
H725 C706 0.913 . S
H726 C744 0.951 . S
H727 C746 0.951 . S
H728 C748 0.950 . S
H729 C749 0.950 . S
H730 C751 0.950 . S
H731 C754 0.950 . S
H732 C755 0.950 . S
H733 C757 0.950 . S
H734 C758 0.950 . S
H735 C759 0.951 . S
H736 C761 0.951 . S
H737 C763 0.950 . S
H738 C764 0.950 . S
H739 C766 0.950 . S
H740 C769 0.950 . S
H741 C770 0.950 . S
H742 C772 0.950 . S
H743 C773 0.950 . S
C744 H726 0.951 . S
C744 C745 1.366 . S
C744 C746 1.388 . S
C745 C744 1.366 . S
C745 C749 1.385 . S
C746 H727 0.951 . S
C746 C744 1.388 . S
C746 C747 1.366 . S
C747 C746 1.366 . S
C747 C748 1.414 . S
C747 C750 1.499 . S
C748 H728 0.950 . S
C748 C747 1.414 . S
C748 C749 1.374 . S
C749 H729 0.950 . S
C749 C745 1.385 . S
C749 C748 1.374 . S
C750 C747 1.499 . S
C750 C751 1.373 . S
C750 C752 1.389 . S
C751 H730 0.950 . S
C751 C750 1.373 . S
C751 C767 1.377 . S
C752 C750 1.389 . S
C752 C753 1.524 . S
C752 C766 1.377 . S
C753 C752 1.524 . S
C753 C754 1.397 . S
C753 C758 1.363 . S
C754 H731 0.950 . S
C754 C753 1.397 . S
C754 C755 1.334 . S
C755 H732 0.950 . S
C755 C754 1.334 . S
C755 C756 1.287 . S
C756 C755 1.287 . S
C756 C757 1.524 . S
C756 H775 0.913 . S
C757 H733 0.950 . S
C757 C756 1.524 . S
C757 C758 1.415 . S
C758 H734 0.950 . S
C758 C753 1.363 . S
C758 C757 1.415 . S
C759 H735 0.951 . S
C759 C760 1.366 . S
C759 C761 1.388 . S
C760 C759 1.366 . S
C760 C764 1.385 . S
C761 H736 0.951 . S
C761 C759 1.388 . S
C761 C762 1.366 . S
C762 C761 1.366 . S
C762 C763 1.414 . S
C762 C765 1.499 . S
C763 H737 0.950 . S
C763 C762 1.414 . S
C763 C764 1.374 . S
C764 H738 0.950 . S
C764 C760 1.385 . S
C764 C763 1.374 . S
C765 C762 1.499 . S
C765 C766 1.373 . S
C765 C767 1.389 . S
C766 H739 0.950 . S
C766 C752 1.377 . S
C766 C765 1.373 . S
C767 C751 1.377 . S
C767 C765 1.389 . S
C767 C768 1.524 . S
C768 C767 1.524 . S
C768 C769 1.397 . S
C768 C773 1.363 . S
C769 H740 0.950 . S
C769 C768 1.397 . S
C769 C770 1.334 . S
C770 H741 0.950 . S
C770 C769 1.334 . S
C770 C771 1.287 . S
C771 C770 1.287 . S
C771 C772 1.524 . S
C771 H774 0.999 . S
C772 H742 0.950 . S
C772 C771 1.524 . S
C772 C773 1.415 . S
C773 H743 0.950 . S
C773 C768 1.363 . S
C773 C772 1.415 . S
H774 C771 0.999 . S
H775 C756 0.913 . S
H776 C794 0.951 . S
H777 C796 0.951 . S
H778 C798 0.950 . S
H779 C799 0.950 . S
H780 C801 0.950 . S
H781 C804 0.950 . S
H782 C805 0.950 . S
H783 C807 0.950 . S
H784 C808 0.950 . S
H785 C809 0.951 . S
H786 C811 0.951 . S
H787 C813 0.950 . S
H788 C814 0.950 . S
H789 C816 0.950 . S
H790 C819 0.950 . S
H791 C820 0.950 . S
H792 C822 0.950 . S
H793 C823 0.950 . S
C794 H776 0.951 . S
C794 C795 1.366 . S
C794 C796 1.388 . S
C795 C794 1.366 . S
C795 C799 1.385 . S
C796 H777 0.951 . S
C796 C794 1.388 . S
C796 C797 1.366 . S
C797 C796 1.366 . S
C797 C798 1.414 . S
C797 C800 1.499 . S
C798 H778 0.950 . S
C798 C797 1.414 . S
C798 C799 1.374 . S
C799 H779 0.950 . S
C799 C795 1.385 . S
C799 C798 1.374 . S
C800 C797 1.499 . S
C800 C801 1.373 . S
C800 C802 1.389 . S
C801 H780 0.950 . S
C801 C800 1.373 . S
C801 C817 1.377 . S
C802 C800 1.389 . S
C802 C803 1.524 . S
C802 C816 1.377 . S
C803 C802 1.524 . S
C803 C804 1.397 . S
C803 C808 1.363 . S
C804 H781 0.950 . S
C804 C803 1.397 . S
C804 C805 1.334 . S
C805 H782 0.950 . S
C805 C804 1.334 . S
C805 C806 1.287 . S
C806 C805 1.287 . S
C806 C807 1.524 . S
C806 H825 0.913 . S
C807 H783 0.950 . S
C807 C806 1.524 . S
C807 C808 1.415 . S
C808 H784 0.950 . S
C808 C803 1.363 . S
C808 C807 1.415 . S
C809 H785 0.951 . S
C809 C810 1.366 . S
C809 C811 1.388 . S
C810 C809 1.366 . S
C810 C814 1.385 . S
C811 H786 0.951 . S
C811 C809 1.388 . S
C811 C812 1.366 . S
C812 C811 1.366 . S
C812 C813 1.414 . S
C812 C815 1.499 . S
C813 H787 0.950 . S
C813 C812 1.414 . S
C813 C814 1.374 . S
C814 H788 0.950 . S
C814 C810 1.385 . S
C814 C813 1.374 . S
C815 C812 1.499 . S
C815 C816 1.373 . S
C815 C817 1.389 . S
C816 H789 0.950 . S
C816 C802 1.377 . S
C816 C815 1.373 . S
C817 C801 1.377 . S
C817 C815 1.389 . S
C817 C818 1.524 . S
C818 C817 1.524 . S
C818 C819 1.397 . S
C818 C823 1.363 . S
C819 H790 0.950 . S
C819 C818 1.397 . S
C819 C820 1.334 . S
C820 H791 0.950 . S
C820 C819 1.334 . S
C820 C821 1.287 . S
C821 C820 1.287 . S
C821 C822 1.524 . S
C821 H824 0.999 . S
C822 H792 0.950 . S
C822 C821 1.524 . S
C822 C823 1.415 . S
C823 H793 0.950 . S
C823 C818 1.363 . S
C823 C822 1.415 . S
H824 C821 0.999 . S
H825 C806 0.913 . S
H826 C844 0.951 . S
H827 C846 0.951 . S
H828 C848 0.950 . S
H829 C849 0.950 . S
H830 C851 0.950 . S
H831 C854 0.950 . S
H832 C855 0.950 . S
H833 C857 0.950 . S
H834 C858 0.950 . S
H835 C859 0.951 . S
H836 C861 0.951 . S
H837 C863 0.950 . S
H838 C864 0.950 . S
H839 C866 0.950 . S
H840 C869 0.950 . S
H841 C870 0.950 . S
H842 C872 0.950 . S
H843 C873 0.950 . S
C844 H826 0.951 . S
C844 C845 1.366 . S
C844 C846 1.388 . S
C845 C844 1.366 . S
C845 C849 1.385 . S
C846 H827 0.951 . S
C846 C844 1.388 . S
C846 C847 1.366 . S
C847 C846 1.366 . S
C847 C848 1.414 . S
C847 C850 1.499 . S
C848 H828 0.950 . S
C848 C847 1.414 . S
C848 C849 1.374 . S
C849 H829 0.950 . S
C849 C845 1.385 . S
C849 C848 1.374 . S
C850 C847 1.499 . S
C850 C851 1.373 . S
C850 C852 1.389 . S
C851 H830 0.950 . S
C851 C850 1.373 . S
C851 C867 1.377 . S
C852 C850 1.389 . S
C852 C853 1.524 . S
C852 C866 1.377 . S
C853 C852 1.524 . S
C853 C854 1.397 . S
C853 C858 1.363 . S
C854 H831 0.950 . S
C854 C853 1.397 . S
C854 C855 1.334 . S
C855 H832 0.950 . S
C855 C854 1.334 . S
C855 C856 1.287 . S
C856 C855 1.287 . S
C856 C857 1.524 . S
C856 H875 0.913 . S
C857 H833 0.950 . S
C857 C856 1.524 . S
C857 C858 1.415 . S
C858 H834 0.950 . S
C858 C853 1.363 . S
C858 C857 1.415 . S
C859 H835 0.951 . S
C859 C860 1.366 . S
C859 C861 1.388 . S
C860 C859 1.366 . S
C860 C864 1.385 . S
C861 H836 0.951 . S
C861 C859 1.388 . S
C861 C862 1.366 . S
C862 C861 1.366 . S
C862 C863 1.414 . S
C862 C865 1.499 . S
C863 H837 0.950 . S
C863 C862 1.414 . S
C863 C864 1.374 . S
C864 H838 0.950 . S
C864 C860 1.385 . S
C864 C863 1.374 . S
C865 C862 1.499 . S
C865 C866 1.373 . S
C865 C867 1.389 . S
C866 H839 0.950 . S
C866 C852 1.377 . S
C866 C865 1.373 . S
C867 C851 1.377 . S
C867 C865 1.389 . S
C867 C868 1.524 . S
C868 C867 1.524 . S
C868 C869 1.397 . S
C868 C873 1.363 . S
C869 H840 0.950 . S
C869 C868 1.397 . S
C869 C870 1.334 . S
C870 H841 0.950 . S
C870 C869 1.334 . S
C870 C871 1.287 . S
C871 C870 1.287 . S
C871 C872 1.524 . S
C871 H874 0.999 . S
C872 H842 0.950 . S
C872 C871 1.524 . S
C872 C873 1.415 . S
C873 H843 0.950 . S
C873 C868 1.363 . S
C873 C872 1.415 . S
H874 C871 0.999 . S
H875 C856 0.913 . S
H876 C894 0.951 . S
H877 C896 0.951 . S
H878 C898 0.950 . S
H879 C899 0.950 . S
H880 C901 0.950 . S
H881 C904 0.950 . S
H882 C905 0.950 . S
H883 C907 0.950 . S
H884 C908 0.950 . S
H885 C909 0.951 . S
H886 C911 0.951 . S
H887 C913 0.950 . S
H888 C914 0.950 . S
H889 C916 0.950 . S
H890 C919 0.950 . S
H891 C920 0.950 . S
H892 C922 0.950 . S
H893 C923 0.950 . S
C894 H876 0.951 . S
C894 C895 1.366 . S
C894 C896 1.388 . S
C895 C894 1.366 . S
C895 C899 1.385 . S
C896 H877 0.951 . S
C896 C894 1.388 . S
C896 C897 1.366 . S
C897 C896 1.366 . S
C897 C898 1.414 . S
C897 C900 1.499 . S
C898 H878 0.950 . S
C898 C897 1.414 . S
C898 C899 1.374 . S
C899 H879 0.950 . S
C899 C895 1.385 . S
C899 C898 1.374 . S
C900 C897 1.499 . S
C900 C901 1.373 . S
C900 C902 1.389 . S
C901 H880 0.950 . S
C901 C900 1.373 . S
C901 C917 1.377 . S
C902 C900 1.389 . S
C902 C903 1.524 . S
C902 C916 1.377 . S
C903 C902 1.524 . S
C903 C904 1.397 . S
C903 C908 1.363 . S
C904 H881 0.950 . S
C904 C903 1.397 . S
C904 C905 1.334 . S
C905 H882 0.950 . S
C905 C904 1.334 . S
C905 C906 1.287 . S
C906 C905 1.287 . S
C906 C907 1.524 . S
C906 H925 0.913 . S
C907 H883 0.950 . S
C907 C906 1.524 . S
C907 C908 1.415 . S
C908 H884 0.950 . S
C908 C903 1.363 . S
C908 C907 1.415 . S
C909 H885 0.951 . S
C909 C910 1.366 . S
C909 C911 1.388 . S
C910 C909 1.366 . S
C910 C914 1.385 . S
C911 H886 0.951 . S
C911 C909 1.388 . S
C911 C912 1.366 . S
C912 C911 1.366 . S
C912 C913 1.414 . S
C912 C915 1.499 . S
C913 H887 0.950 . S
C913 C912 1.414 . S
C913 C914 1.374 . S
C914 H888 0.950 . S
C914 C910 1.385 . S
C914 C913 1.374 . S
C915 C912 1.499 . S
C915 C916 1.373 . S
C915 C917 1.389 . S
C916 H889 0.950 . S
C916 C902 1.377 . S
C916 C915 1.373 . S
C917 C901 1.377 . S
C917 C915 1.389 . S
C917 C918 1.524 . S
C918 C917 1.524 . S
C918 C919 1.397 . S
C918 C923 1.363 . S
C919 H890 0.950 . S
C919 C918 1.397 . S
C919 C920 1.334 . S
C920 H891 0.950 . S
C920 C919 1.334 . S
C920 C921 1.287 . S
C921 C920 1.287 . S
C921 C922 1.524 . S
C921 H924 0.999 . S
C922 H892 0.950 . S
C922 C921 1.524 . S
C922 C923 1.415 . S
C923 H893 0.950 . S
C923 C918 1.363 . S
C923 C922 1.415 . S
H924 C921 0.999 . S
H925 C906 0.913 . S
H926 C944 0.951 . S
H927 C946 0.951 . S
H928 C948 0.950 . S
H929 C949 0.950 . S
H930 C951 0.950 . S
H931 C954 0.950 . S
H932 C955 0.950 . S
H933 C957 0.950 . S
H934 C958 0.950 . S
H935 C959 0.951 . S
H936 C961 0.951 . S
H937 C963 0.950 . S
H938 C964 0.950 . S
H939 C966 0.950 . S
H940 C969 0.950 . S
H941 C970 0.950 . S
H942 C972 0.950 . S
H943 C973 0.950 . S
C944 H926 0.951 . S
C944 C945 1.366 . S
C944 C946 1.388 . S
C945 C944 1.366 . S
C945 C949 1.385 . S
C946 H927 0.951 . S
C946 C944 1.388 . S
C946 C947 1.366 . S
C947 C946 1.366 . S
C947 C948 1.414 . S
C947 C950 1.499 . S
C948 H928 0.950 . S
C948 C947 1.414 . S
C948 C949 1.374 . S
C949 H929 0.950 . S
C949 C945 1.385 . S
C949 C948 1.374 . S
C950 C947 1.499 . S
C950 C951 1.373 . S
C950 C952 1.389 . S
C951 H930 0.950 . S
C951 C950 1.373 . S
C951 C967 1.377 . S
C952 C950 1.389 . S
C952 C953 1.524 . S
C952 C966 1.377 . S
C953 C952 1.524 . S
C953 C954 1.397 . S
C953 C958 1.363 . S
C954 H931 0.950 . S
C954 C953 1.397 . S
C954 C955 1.334 . S
C955 H932 0.950 . S
C955 C954 1.334 . S
C955 C956 1.287 . S
C956 C955 1.287 . S
C956 C957 1.524 . S
C956 H975 0.913 . S
C957 H933 0.950 . S
C957 C956 1.524 . S
C957 C958 1.415 . S
C958 H934 0.950 . S
C958 C953 1.363 . S
C958 C957 1.415 . S
C959 H935 0.951 . S
C959 C960 1.366 . S
C959 C961 1.388 . S
C960 C959 1.366 . S
C960 C964 1.385 . S
C961 H936 0.951 . S
C961 C959 1.388 . S
C961 C962 1.366 . S
C962 C961 1.366 . S
C962 C963 1.414 . S
C962 C965 1.499 . S
C963 H937 0.950 . S
C963 C962 1.414 . S
C963 C964 1.374 . S
C964 H938 0.950 . S
C964 C960 1.385 . S
C964 C963 1.374 . S
C965 C962 1.499 . S
C965 C966 1.373 . S
C965 C967 1.389 . S
C966 H939 0.950 . S
C966 C952 1.377 . S
C966 C965 1.373 . S
C967 C951 1.377 . S
C967 C965 1.389 . S
C967 C968 1.524 . S
C968 C967 1.524 . S
C968 C969 1.397 . S
C968 C973 1.363 . S
C969 H940 0.950 . S
C969 C968 1.397 . S
C969 C970 1.334 . S
C970 H941 0.950 . S
C970 C969 1.334 . S
C970 C971 1.287 . S
C971 C970 1.287 . S
C971 C972 1.524 . S
C971 H974 0.999 . S
C972 H942 0.950 . S
C972 C971 1.524 . S
C972 C973 1.415 . S
C973 H943 0.950 . S
C973 C968 1.363 . S
C973 C972 1.415 . S
H974 C971 0.999 . S
H975 C956 0.913 . S
H976 C994 0.951 . S
H977 C996 0.951 . S
H978 C998 0.950 . S
H979 C999 0.950 . S
H980 C1001 0.950 . S
H981 C1004 0.950 . S
H982 C1005 0.950 . S
H983 C1007 0.950 . S
H984 C1008 0.950 1_556 S
H985 C1009 0.951 . S
H986 C1011 0.951 . S
H987 C1013 0.950 . S
H988 C1014 0.950 . S
H989 C1016 0.950 . S
H990 C1019 0.950 . S
H991 C1020 0.950 . S
H992 C1022 0.950 . S
H993 C1023 0.950 . S
C994 H976 0.951 . S
C994 C995 1.366 1_556 S
C994 C996 1.388 . S
C995 C994 1.366 1_554 S
C995 C999 1.385 . S
C996 H977 0.951 . S
C996 C994 1.388 . S
C996 C997 1.366 1_556 S
C997 C996 1.366 1_554 S
C997 C998 1.414 . S
C997 C1000 1.499 . S
C998 H978 0.950 . S
C998 C997 1.414 . S
C998 C999 1.374 . S
C999 H979 0.950 . S
C999 C995 1.385 . S
C999 C998 1.374 . S
C1000 C997 1.499 . S
C1000 C1001 1.373 . S
C1000 C1002 1.389 . S
C1001 H980 0.950 . S
C1001 C1000 1.373 . S
C1001 C1017 1.377 . S
C1002 C1000 1.389 . S
C1002 C1003 1.524 . S
C1002 C1016 1.377 . S
C1003 C1002 1.524 . S
C1003 C1004 1.397 . S
C1003 C1008 1.363 . S
C1004 H981 0.950 . S
C1004 C1003 1.397 . S
C1004 C1005 1.334 . S
C1005 H982 0.950 . S
C1005 C1004 1.334 . S
C1005 C1006 1.287 . S
C1006 C1005 1.287 . S
C1006 C1007 1.524 . S
C1006 H1025 0.913 . S
C1007 H983 0.950 . S
C1007 C1006 1.524 . S
C1007 C1008 1.415 . S
C1008 H984 0.950 1_554 S
C1008 C1003 1.363 . S
C1008 C1007 1.415 . S
C1009 H985 0.951 . S
C1009 C1010 1.366 . S
C1009 C1011 1.388 . S
C1010 C1009 1.366 . S
C1010 C1014 1.385 1_554 S
C1011 H986 0.951 . S
C1011 C1009 1.388 . S
C1011 C1012 1.366 . S
C1012 C1011 1.366 . S
C1012 C1013 1.414 1_554 S
C1012 C1015 1.499 . S
C1013 H987 0.950 . S
C1013 C1012 1.414 1_556 S
C1013 C1014 1.374 . S
C1014 H988 0.950 . S
C1014 C1010 1.385 1_556 S
C1014 C1013 1.374 . S
C1015 C1012 1.499 . S
C1015 C1016 1.373 . S
C1015 C1017 1.389 . S
C1016 H989 0.950 . S
C1016 C1002 1.377 . S
C1016 C1015 1.373 . S
C1017 C1001 1.377 . S
C1017 C1015 1.389 . S
C1017 C1018 1.524 1_554 S
C1018 C1017 1.524 1_556 S
C1018 C1019 1.398 . S
C1018 C1023 1.362 1_556 S
C1019 H990 0.950 . S
C1019 C1018 1.398 . S
C1019 C1020 1.334 . S
C1020 H991 0.950 . S
C1020 C1019 1.334 . S
C1020 C1021 1.287 . S
C1021 C1020 1.287 . S
C1021 C1022 1.524 1_556 S
C1021 H1024 0.999 . S
C1022 H992 0.950 . S
C1022 C1021 1.524 1_554 S
C1022 C1023 1.415 . S
C1023 H993 0.950 . S
C1023 C1018 1.362 1_554 S
C1023 C1022 1.415 . S
H1024 C1021 0.999 . S
H1025 C1006 0.913 . S
H1026 C1044 0.951 . S
H1027 C1046 0.951 . S
H1028 C1048 0.950 . S
H1029 C1049 0.950 . S
H1030 C1051 0.950 . S
H1031 C1054 0.950 . S
H1032 C1055 0.950 . S
H1033 C1057 0.950 . S
H1034 C1058 0.950 . S
H1035 C1059 0.951 . S
H1036 C1061 0.951 . S
H1037 C1063 0.950 . S
H1038 C1064 0.950 . S
H1039 C1066 0.950 . S
H1040 C1069 0.950 . S
H1041 C1070 0.950 . S
H1042 C1072 0.950 . S
H1043 C1073 0.950 . S
C1044 H1026 0.951 . S
C1044 C1045 1.366 . S
C1044 C1046 1.388 . S
C1045 C1044 1.366 . S
C1045 C1049 1.385 . S
C1046 H1027 0.951 . S
C1046 C1044 1.388 . S
C1046 C1047 1.366 . S
C1047 C1046 1.366 . S
C1047 C1048 1.414 . S
C1047 C1050 1.499 . S
C1048 H1028 0.950 . S
C1048 C1047 1.414 . S
C1048 C1049 1.374 . S
C1049 H1029 0.950 . S
C1049 C1045 1.385 . S
C1049 C1048 1.374 . S
C1050 C1047 1.499 . S
C1050 C1051 1.373 . S
C1050 C1052 1.389 . S
C1051 H1030 0.950 . S
C1051 C1050 1.373 . S
C1051 C1067 1.377 . S
C1052 C1050 1.389 . S
C1052 C1053 1.524 . S
C1052 C1066 1.377 . S
C1053 C1052 1.524 . S
C1053 C1054 1.397 . S
C1053 C1058 1.363 . S
C1054 H1031 0.950 . S
C1054 C1053 1.397 . S
C1054 C1055 1.334 . S
C1055 H1032 0.950 . S
C1055 C1054 1.334 . S
C1055 C1056 1.287 . S
C1056 C1055 1.287 . S
C1056 C1057 1.524 . S
C1056 H1075 0.913 . S
C1057 H1033 0.950 . S
C1057 C1056 1.524 . S
C1057 C1058 1.415 . S
C1058 H1034 0.950 . S
C1058 C1053 1.363 . S
C1058 C1057 1.415 . S
C1059 H1035 0.951 . S
C1059 C1060 1.366 . S
C1059 C1061 1.388 . S
C1060 C1059 1.366 . S
C1060 C1064 1.385 . S
C1061 H1036 0.951 . S
C1061 C1059 1.388 . S
C1061 C1062 1.366 . S
C1062 C1061 1.366 . S
C1062 C1063 1.414 . S
C1062 C1065 1.499 . S
C1063 H1037 0.950 . S
C1063 C1062 1.414 . S
C1063 C1064 1.374 . S
C1064 H1038 0.950 . S
C1064 C1060 1.385 . S
C1064 C1063 1.374 . S
C1065 C1062 1.499 . S
C1065 C1066 1.373 . S
C1065 C1067 1.389 . S
C1066 H1039 0.950 . S
C1066 C1052 1.377 . S
C1066 C1065 1.373 . S
C1067 C1051 1.377 . S
C1067 C1065 1.389 . S
C1067 C1068 1.524 . S
C1068 C1067 1.524 . S
C1068 C1069 1.397 . S
C1068 C1073 1.363 . S
C1069 H1040 0.950 . S
C1069 C1068 1.397 . S
C1069 C1070 1.334 . S
C1070 H1041 0.950 . S
C1070 C1069 1.334 . S
C1070 C1071 1.287 . S
C1071 C1070 1.287 . S
C1071 C1072 1.524 . S
C1071 H1074 0.999 . S
C1072 H1042 0.950 . S
C1072 C1071 1.524 . S
C1072 C1073 1.415 . S
C1073 H1043 0.950 . S
C1073 C1068 1.363 . S
C1073 C1072 1.415 . S
H1074 C1071 0.999 . S
H1075 C1056 0.913 . S
H1076 C1094 0.951 . S
H1077 C1096 0.951 . S
H1078 C1098 0.950 . S
H1079 C1099 0.950 . S
H1080 C1101 0.950 . S
H1081 C1104 0.950 . S
H1082 C1105 0.950 . S
H1083 C1107 0.950 . S
H1084 C1108 0.950 . S
H1085 C1109 0.951 . S
H1086 C1111 0.951 . S
H1087 C1113 0.950 . S
H1088 C1114 0.950 . S
H1089 C1116 0.950 . S
H1090 C1119 0.950 . S
H1091 C1120 0.950 . S
H1092 C1122 0.950 . S
H1093 C1123 0.950 . S
C1094 H1076 0.951 . S
C1094 C1095 1.366 . S
C1094 C1096 1.388 . S
C1095 C1094 1.366 . S
C1095 C1099 1.385 . S
C1096 H1077 0.951 . S
C1096 C1094 1.388 . S
C1096 C1097 1.366 . S
C1097 C1096 1.366 . S
C1097 C1098 1.414 . S
C1097 C1100 1.499 . S
C1098 H1078 0.950 . S
C1098 C1097 1.414 . S
C1098 C1099 1.374 . S
C1099 H1079 0.950 . S
C1099 C1095 1.385 . S
C1099 C1098 1.374 . S
C1100 C1097 1.499 . S
C1100 C1101 1.373 . S
C1100 C1102 1.389 1_554 S
C1101 H1080 0.950 . S
C1101 C1100 1.373 . S
C1101 C1117 1.377 . S
C1102 C1100 1.389 1_556 S
C1102 C1103 1.524 . S
C1102 C1116 1.377 . S
C1103 C1102 1.524 . S
C1103 C1104 1.397 . S
C1103 C1108 1.363 . S
C1104 H1081 0.950 . S
C1104 C1103 1.397 . S
C1104 C1105 1.334 . S
C1105 H1082 0.950 . S
C1105 C1104 1.334 . S
C1105 C1106 1.287 . S
C1106 C1105 1.287 . S
C1106 C1107 1.524 . S
C1106 H1125 0.913 . S
C1107 H1083 0.950 . S
C1107 C1106 1.524 . S
C1107 C1108 1.415 . S
C1108 H1084 0.950 . S
C1108 C1103 1.363 . S
C1108 C1107 1.415 . S
C1109 H1085 0.951 . S
C1109 C1110 1.366 . S
C1109 C1111 1.388 . S
C1110 C1109 1.366 . S
C1110 C1114 1.385 . S
C1111 H1086 0.951 . S
C1111 C1109 1.388 . S
C1111 C1112 1.366 . S
C1112 C1111 1.366 . S
C1112 C1113 1.414 . S
C1112 C1115 1.499 . S
C1113 H1087 0.950 . S
C1113 C1112 1.414 . S
C1113 C1114 1.374 . S
C1114 H1088 0.950 . S
C1114 C1110 1.385 . S
C1114 C1113 1.374 . S
C1115 C1112 1.499 . S
C1115 C1116 1.373 1_554 S
C1115 C1117 1.389 . S
C1116 H1089 0.950 . S
C1116 C1102 1.377 . S
C1116 C1115 1.373 1_556 S
C1117 C1101 1.377 . S
C1117 C1115 1.389 . S
C1117 C1118 1.524 . S
C1118 C1117 1.524 . S
C1118 C1119 1.397 . S
C1118 C1123 1.363 . S
C1119 H1090 0.950 . S
C1119 C1118 1.397 . S
C1119 C1120 1.334 . S
C1120 H1091 0.950 . S
C1120 C1119 1.334 . S
C1120 C1121 1.287 . S
C1121 C1120 1.287 . S
C1121 C1122 1.524 . S
C1121 H1124 0.999 . S
C1122 H1092 0.950 . S
C1122 C1121 1.524 . S
C1122 C1123 1.415 . S
C1123 H1093 0.950 . S
C1123 C1118 1.363 . S
C1123 C1122 1.415 . S
H1124 C1121 0.999 . S
H1125 C1106 0.913 . S
H1126 C1144 0.951 . S
H1127 C1146 0.951 . S
H1128 C1148 0.950 . S
H1129 C1149 0.950 . S
H1130 C1151 0.950 . S
H1131 C1154 0.950 . S
H1132 C1155 0.950 . S
H1133 C1157 0.950 . S
H1134 C1158 0.950 . S
H1135 C1159 0.951 . S
H1136 C1161 0.951 . S
H1137 C1163 0.950 . S
H1138 C1164 0.950 . S
H1139 C1166 0.950 . S
H1140 C1169 0.950 . S
H1141 C1170 0.950 . S
H1142 C1172 0.950 . S
H1143 C1173 0.950 . S
C1144 H1126 0.951 . S
C1144 C1145 1.366 . S
C1144 C1146 1.388 . S
C1145 C1144 1.366 . S
C1145 C1149 1.385 . S
C1146 H1127 0.951 . S
C1146 C1144 1.388 . S
C1146 C1147 1.366 . S
C1147 C1146 1.366 . S
C1147 C1148 1.414 . S
C1147 C1150 1.499 . S
C1148 H1128 0.950 . S
C1148 C1147 1.414 . S
C1148 C1149 1.374 . S
C1149 H1129 0.950 . S
C1149 C1145 1.385 . S
C1149 C1148 1.374 . S
C1150 C1147 1.499 . S
C1150 C1151 1.373 . S
C1150 C1152 1.389 . S
C1151 H1130 0.950 . S
C1151 C1150 1.373 . S
C1151 C1167 1.377 . S
C1152 C1150 1.389 . S
C1152 C1153 1.524 . S
C1152 C1166 1.377 . S
C1153 C1152 1.524 . S
C1153 C1154 1.397 . S
C1153 C1158 1.363 . S
C1154 H1131 0.950 . S
C1154 C1153 1.397 . S
C1154 C1155 1.334 . S
C1155 H1132 0.950 . S
C1155 C1154 1.334 . S
C1155 C1156 1.287 . S
C1156 C1155 1.287 . S
C1156 C1157 1.524 . S
C1156 H1175 0.913 . S
C1157 H1133 0.950 . S
C1157 C1156 1.524 . S
C1157 C1158 1.415 . S
C1158 H1134 0.950 . S
C1158 C1153 1.363 . S
C1158 C1157 1.415 . S
C1159 H1135 0.951 . S
C1159 C1160 1.366 . S
C1159 C1161 1.388 . S
C1160 C1159 1.366 . S
C1160 C1164 1.385 . S
C1161 H1136 0.951 . S
C1161 C1159 1.388 . S
C1161 C1162 1.366 . S
C1162 C1161 1.366 . S
C1162 C1163 1.414 . S
C1162 C1165 1.499 . S
C1163 H1137 0.950 . S
C1163 C1162 1.414 . S
C1163 C1164 1.374 . S
C1164 H1138 0.950 . S
C1164 C1160 1.385 . S
C1164 C1163 1.374 . S
C1165 C1162 1.499 . S
C1165 C1166 1.373 . S
C1165 C1167 1.389 . S
C1166 H1139 0.950 . S
C1166 C1152 1.377 . S
C1166 C1165 1.373 . S
C1167 C1151 1.377 . S
C1167 C1165 1.389 . S
C1167 C1168 1.524 . S
C1168 C1167 1.524 . S
C1168 C1169 1.397 . S
C1168 C1173 1.363 . S
C1169 H1140 0.950 . S
C1169 C1168 1.397 . S
C1169 C1170 1.334 . S
C1170 H1141 0.950 . S
C1170 C1169 1.334 . S
C1170 C1171 1.287 . S
C1171 C1170 1.287 . S
C1171 C1172 1.524 . S
C1171 H1174 0.999 . S
C1172 H1142 0.950 . S
C1172 C1171 1.524 . S
C1172 C1173 1.415 . S
C1173 H1143 0.950 . S
C1173 C1168 1.363 . S
C1173 C1172 1.415 . S
H1174 C1171 0.999 . S
H1175 C1156 0.913 . S
H1176 C1194 0.951 . S
H1177 C1196 0.951 . S
H1178 C1198 0.950 . S
H1179 C1199 0.950 . S
H1180 C1201 0.950 . S
H1181 C1204 0.950 . S
H1182 C1205 0.950 . S
H1183 C1207 0.950 . S
H1184 C1208 0.950 . S
H1185 C1209 0.951 . S
H1186 C1211 0.951 . S
H1187 C1213 0.950 . S
H1188 C1214 0.950 . S
H1189 C1216 0.950 . S
H1190 C1219 0.950 . S
H1191 C1220 0.950 . S
H1192 C1222 0.950 . S
H1193 C1223 0.950 . S
C1194 H1176 0.951 . S
C1194 C1195 1.366 . S
C1194 C1196 1.388 . S
C1195 C1194 1.366 . S
C1195 C1199 1.385 . S
C1196 H1177 0.951 . S
C1196 C1194 1.388 . S
C1196 C1197 1.366 . S
C1197 C1196 1.366 . S
C1197 C1198 1.414 . S
C1197 C1200 1.499 . S
C1198 H1178 0.950 . S
C1198 C1197 1.414 . S
C1198 C1199 1.374 . S
C1199 H1179 0.950 . S
C1199 C1195 1.385 . S
C1199 C1198 1.374 . S
C1200 C1197 1.499 . S
C1200 C1201 1.373 . S
C1200 C1202 1.389 . S
C1201 H1180 0.950 . S
C1201 C1200 1.373 . S
C1201 C1217 1.377 . S
C1202 C1200 1.389 . S
C1202 C1203 1.524 . S
C1202 C1216 1.377 . S
C1203 C1202 1.524 . S
C1203 C1204 1.397 . S
C1203 C1208 1.363 . S
C1204 H1181 0.950 . S
C1204 C1203 1.397 . S
C1204 C1205 1.334 . S
C1205 H1182 0.950 . S
C1205 C1204 1.334 . S
C1205 C1206 1.287 . S
C1206 C1205 1.287 . S
C1206 C1207 1.524 . S
C1206 H1225 0.913 . S
C1207 H1183 0.950 . S
C1207 C1206 1.524 . S
C1207 C1208 1.415 . S
C1208 H1184 0.950 . S
C1208 C1203 1.363 . S
C1208 C1207 1.415 . S
C1209 H1185 0.951 . S
C1209 C1210 1.366 . S
C1209 C1211 1.388 . S
C1210 C1209 1.366 . S
C1210 C1214 1.385 . S
C1211 H1186 0.951 . S
C1211 C1209 1.388 . S
C1211 C1212 1.366 . S
C1212 C1211 1.366 . S
C1212 C1213 1.414 . S
C1212 C1215 1.499 . S
C1213 H1187 0.950 . S
C1213 C1212 1.414 . S
C1213 C1214 1.374 . S
C1214 H1188 0.950 . S
C1214 C1210 1.385 . S
C1214 C1213 1.374 . S
C1215 C1212 1.499 . S
C1215 C1216 1.373 . S
C1215 C1217 1.389 . S
C1216 H1189 0.950 . S
C1216 C1202 1.377 . S
C1216 C1215 1.373 . S
C1217 C1201 1.377 . S
C1217 C1215 1.389 . S
C1217 C1218 1.524 . S
C1218 C1217 1.524 . S
C1218 C1219 1.397 . S
C1218 C1223 1.363 . S
C1219 H1190 0.950 . S
C1219 C1218 1.397 . S
C1219 C1220 1.334 . S
C1220 H1191 0.950 . S
C1220 C1219 1.334 . S
C1220 C1221 1.287 . S
C1221 C1220 1.287 . S
C1221 C1222 1.524 . S
C1221 H1224 0.999 . S
C1222 H1192 0.950 . S
C1222 C1221 1.524 . S
C1222 C1223 1.415 . S
C1223 H1193 0.950 . S
C1223 C1218 1.363 . S
C1223 C1222 1.415 . S
H1224 C1221 0.999 . S
H1225 C1206 0.913 . S
H1226 C1244 0.951 . S
H1227 C1246 0.951 . S
H1228 C1248 0.950 . S
H1229 C1249 0.950 . S
H1230 C1251 0.950 . S
H1231 C1254 0.950 . S
H1232 C1255 0.950 . S
H1233 C1257 0.950 . S
H1234 C1258 0.950 . S
H1235 C1259 0.951 . S
H1236 C1261 0.951 . S
H1237 C1263 0.950 . S
H1238 C1264 0.950 . S
H1239 C1266 0.950 . S
H1240 C1269 0.950 . S
H1241 C1270 0.950 . S
H1242 C1272 0.950 . S
H1243 C1273 0.950 . S
C1244 H1226 0.951 . S
C1244 C1245 1.366 . S
C1244 C1246 1.388 . S
C1245 C1244 1.366 . S
C1245 C1249 1.385 . S
C1246 H1227 0.951 . S
C1246 C1244 1.388 . S
C1246 C1247 1.366 . S
C1247 C1246 1.366 . S
C1247 C1248 1.414 . S
C1247 C1250 1.499 . S
C1248 H1228 0.950 . S
C1248 C1247 1.414 . S
C1248 C1249 1.374 . S
C1249 H1229 0.950 . S
C1249 C1245 1.385 . S
C1249 C1248 1.374 . S
C1250 C1247 1.499 . S
C1250 C1251 1.373 . S
C1250 C1252 1.389 1_554 S
C1251 H1230 0.950 . S
C1251 C1250 1.373 . S
C1251 C1267 1.377 . S
C1252 C1250 1.389 1_556 S
C1252 C1253 1.524 . S
C1252 C1266 1.377 . S
C1253 C1252 1.524 . S
C1253 C1254 1.397 . S
C1253 C1258 1.363 . S
C1254 H1231 0.950 . S
C1254 C1253 1.397 . S
C1254 C1255 1.334 . S
C1255 H1232 0.950 . S
C1255 C1254 1.334 . S
C1255 C1256 1.287 . S
C1256 C1255 1.287 . S
C1256 C1257 1.524 . S
C1256 H1275 0.913 . S
C1257 H1233 0.950 . S
C1257 C1256 1.524 . S
C1257 C1258 1.415 . S
C1258 H1234 0.950 . S
C1258 C1253 1.363 . S
C1258 C1257 1.415 . S
C1259 H1235 0.951 . S
C1259 C1260 1.366 . S
C1259 C1261 1.388 . S
C1260 C1259 1.366 . S
C1260 C1264 1.385 . S
C1261 H1236 0.951 . S
C1261 C1259 1.388 . S
C1261 C1262 1.366 . S
C1262 C1261 1.366 . S
C1262 C1263 1.414 . S
C1262 C1265 1.499 . S
C1263 H1237 0.950 . S
C1263 C1262 1.414 . S
C1263 C1264 1.374 . S
C1264 H1238 0.950 . S
C1264 C1260 1.385 . S
C1264 C1263 1.374 . S
C1265 C1262 1.499 . S
C1265 C1266 1.373 1_554 S
C1265 C1267 1.389 . S
C1266 H1239 0.950 . S
C1266 C1252 1.377 . S
C1266 C1265 1.373 1_556 S
C1267 C1251 1.377 . S
C1267 C1265 1.389 . S
C1267 C1268 1.524 . S
C1268 C1267 1.524 . S
C1268 C1269 1.397 . S
C1268 C1273 1.363 . S
C1269 H1240 0.950 . S
C1269 C1268 1.397 . S
C1269 C1270 1.334 . S
C1270 H1241 0.950 . S
C1270 C1269 1.334 . S
C1270 C1271 1.287 . S
C1271 C1270 1.287 . S
C1271 C1272 1.524 . S
C1271 H1274 0.999 . S
C1272 H1242 0.950 . S
C1272 C1271 1.524 . S
C1272 C1273 1.415 . S
C1273 H1243 0.950 . S
C1273 C1268 1.363 . S
C1273 C1272 1.415 . S
H1274 C1271 0.999 . S
H1275 C1256 0.913 . S
H1276 C1294 0.951 . S
H1277 C1296 0.951 . S
H1278 C1298 0.950 . S
H1279 C1299 0.950 . S
H1280 C1301 0.950 . S
H1281 C1304 0.950 . S
H1282 C1305 0.950 . S
H1283 C1307 0.950 . S
H1284 C1308 0.950 . S
H1285 C1309 0.951 . S
H1286 C1311 0.951 . S
H1287 C1313 0.950 . S
H1288 C1314 0.950 . S
H1289 C1316 0.950 . S
H1290 C1319 0.950 . S
H1291 C1320 0.950 . S
H1292 C1322 0.950 . S
H1293 C1323 0.950 . S
C1294 H1276 0.951 . S
C1294 C1295 1.366 . S
C1294 C1296 1.388 . S
C1295 C1294 1.366 . S
C1295 C1299 1.385 . S
C1296 H1277 0.951 . S
C1296 C1294 1.388 . S
C1296 C1297 1.366 . S
C1297 C1296 1.366 . S
C1297 C1298 1.414 . S
C1297 C1300 1.499 . S
C1298 H1278 0.950 . S
C1298 C1297 1.414 . S
C1298 C1299 1.374 . S
C1299 H1279 0.950 . S
C1299 C1295 1.385 . S
C1299 C1298 1.374 . S
C1300 C1297 1.499 . S
C1300 C1301 1.373 . S
C1300 C1302 1.389 . S
C1301 H1280 0.950 . S
C1301 C1300 1.373 . S
C1301 C1317 1.377 . S
C1302 C1300 1.389 . S
C1302 C1303 1.524 . S
C1302 C1316 1.377 . S
C1303 C1302 1.524 . S
C1303 C1304 1.397 . S
C1303 C1308 1.363 . S
C1304 H1281 0.950 . S
C1304 C1303 1.397 . S
C1304 C1305 1.334 . S
C1305 H1282 0.950 . S
C1305 C1304 1.334 . S
C1305 C1306 1.287 . S
C1306 C1305 1.287 . S
C1306 C1307 1.524 . S
C1306 H1325 0.913 . S
C1307 H1283 0.950 . S
C1307 C1306 1.524 . S
C1307 C1308 1.415 . S
C1308 H1284 0.950 . S
C1308 C1303 1.363 . S
C1308 C1307 1.415 . S
C1309 H1285 0.951 . S
C1309 C1310 1.366 . S
C1309 C1311 1.388 . S
C1310 C1309 1.366 . S
C1310 C1314 1.385 . S
C1311 H1286 0.951 . S
C1311 C1309 1.388 . S
C1311 C1312 1.366 . S
C1312 C1311 1.366 . S
C1312 C1313 1.414 . S
C1312 C1315 1.499 . S
C1313 H1287 0.950 . S
C1313 C1312 1.414 . S
C1313 C1314 1.374 . S
C1314 H1288 0.950 . S
C1314 C1310 1.385 . S
C1314 C1313 1.374 . S
C1315 C1312 1.499 . S
C1315 C1316 1.373 . S
C1315 C1317 1.389 . S
C1316 H1289 0.950 . S
C1316 C1302 1.377 . S
C1316 C1315 1.373 . S
C1317 C1301 1.377 . S
C1317 C1315 1.389 . S
C1317 C1318 1.524 . S
C1318 C1317 1.524 . S
C1318 C1319 1.397 . S
C1318 C1323 1.363 . S
C1319 H1290 0.950 . S
C1319 C1318 1.397 . S
C1319 C1320 1.334 . S
C1320 H1291 0.950 . S
C1320 C1319 1.334 . S
C1320 C1321 1.287 . S
C1321 C1320 1.287 . S
C1321 C1322 1.524 . S
C1321 H1324 0.999 . S
C1322 H1292 0.950 . S
C1322 C1321 1.524 . S
C1322 C1323 1.415 . S
C1323 H1293 0.950 . S
C1323 C1318 1.363 . S
C1323 C1322 1.415 . S
H1324 C1321 0.999 . S
H1325 C1306 0.913 . S
H1326 C1344 0.951 . S
H1327 C1346 0.951 . S
H1328 C1348 0.950 . S
H1329 C1349 0.950 . S
H1330 C1351 0.950 . S
H1331 C1354 0.950 . S
H1332 C1355 0.950 . S
H1333 C1357 0.950 . S
H1334 C1358 0.950 . S
H1335 C1359 0.951 . S
H1336 C1361 0.951 . S
H1337 C1363 0.950 . S
H1338 C1364 0.950 . S
H1339 C1366 0.945 1_556 S
H1340 C1369 0.950 . S
H1341 C1370 0.950 . S
H1342 C1372 0.950 . S
H1343 C1373 0.950 . S
C1344 H1326 0.951 . S
C1344 C1345 1.366 . S
C1344 C1346 1.388 . S
C1345 C1344 1.366 . S
C1345 C1349 1.385 . S
C1346 H1327 0.951 . S
C1346 C1344 1.388 . S
C1346 C1347 1.366 . S
C1347 C1346 1.366 . S
C1347 C1348 1.414 . S
C1347 C1350 1.499 . S
C1348 H1328 0.950 . S
C1348 C1347 1.414 . S
C1348 C1349 1.374 . S
C1349 H1329 0.950 . S
C1349 C1345 1.385 . S
C1349 C1348 1.374 . S
C1350 C1347 1.499 . S
C1350 C1351 1.373 . S
C1350 C1352 1.389 1_554 S
C1351 H1330 0.950 . S
C1351 C1350 1.373 . S
C1351 C1367 1.377 . S
C1352 C1350 1.389 1_556 S
C1352 C1353 1.524 . S
C1352 C1366 1.375 1_556 S
C1353 C1352 1.524 . S
C1353 C1354 1.397 . S
C1353 C1358 1.363 . S
C1354 H1331 0.950 . S
C1354 C1353 1.397 . S
C1354 C1355 1.334 . S
C1355 H1332 0.950 . S
C1355 C1354 1.334 . S
C1355 C1356 1.287 . S
C1356 C1355 1.287 . S
C1356 C1357 1.524 . S
C1356 H1375 0.913 . S
C1357 H1333 0.950 . S
C1357 C1356 1.524 . S
C1357 C1358 1.415 . S
C1358 H1334 0.950 . S
C1358 C1353 1.363 . S
C1358 C1357 1.415 . S
C1359 H1335 0.951 . S
C1359 C1360 1.366 . S
C1359 C1361 1.388 . S
C1360 C1359 1.366 . S
C1360 C1364 1.385 . S
C1361 H1336 0.951 . S
C1361 C1359 1.388 . S
C1361 C1362 1.366 . S
C1362 C1361 1.366 . S
C1362 C1363 1.414 . S
C1362 C1365 1.499 . S
C1363 H1337 0.950 . S
C1363 C1362 1.414 . S
C1363 C1364 1.374 . S
C1364 H1338 0.950 . S
C1364 C1360 1.385 . S
C1364 C1363 1.374 . S
C1365 C1362 1.499 . S
C1365 C1366 1.380 . S
C1365 C1367 1.389 . S
C1366 H1339 0.945 1_554 S
C1366 C1352 1.375 1_554 S
C1366 C1365 1.380 . S
C1367 C1351 1.377 . S
C1367 C1365 1.389 . S
C1367 C1368 1.524 . S
C1368 C1367 1.524 . S
C1368 C1369 1.397 . S
C1368 C1373 1.363 . S
C1369 H1340 0.950 . S
C1369 C1368 1.397 . S
C1369 C1370 1.334 . S
C1370 H1341 0.950 . S
C1370 C1369 1.334 . S
C1370 C1371 1.287 . S
C1371 C1370 1.287 . S
C1371 C1372 1.524 . S
C1371 H1374 0.999 . S
C1372 H1342 0.950 . S
C1372 C1371 1.524 . S
C1372 C1373 1.415 . S
C1373 H1343 0.950 . S
C1373 C1368 1.363 . S
C1373 C1372 1.415 . S
H1374 C1371 0.999 . S
H1375 C1356 0.913 . S
C195 C21 1.482 . S
C210 C126 1.246 . S
C245 C40 1.559 . S
C260 C95 1.486 . S
C310 C106 1.456 . S
C295 C54 1.466 . S
C345 C73 1.513 . S
C360 C115 1.395 . S
C410 C150 1.479 . S
C395 C74 1.492 . S
C460 C159 1.385 . S
C445 C10 1.511 . S
C510 C170 1.224 . S
C495 C37 1.455 . S
C560 C139 1.503 . S
C545 C65 1.562 . S
C595 C52 1.432 . S
C610 C104 1.288 . S
C645 C87 1.589 . S
C660 C117 1.587 . S
C695 C15 1.513 . S
C710 C128 1.479 . S
C760 C93 1.192 . S
C745 C32 1.475 . S
C795 C29 1.543 . S
C810 C172 1.506 . S
C860 C137 1.247 . S
C845 C59 1.541 . S
C910 C148 1.277 . S
C895 C84 1.412 . S
C945 C8 1.527 . S
C960 C161 1.518 . S
C1010 C96 1.566 . S
C995 C7 1.597 . S
C1060 C107 1.522 . S
C1045 C30 1.518 . S
C1095 C62 1.610 . S
C1110 C118 1.610 . S
C1145 C81 1.529 . S
C1160 C129 1.520 . S
C1210 C140 1.569 . S
C1195 C76 1.610 . S
C1245 C18 1.521 . S
C1260 C151 1.526 . S
C1295 C43 1.599 . S
C1310 C162 1.606 . S
C1345 C51 1.532 . S
C1360 C173 1.523 . S
