# Generated by pormake.
# Topology ftw, (4,12)-cn, num edge types: 1
# Building blocks:
#     Node 0, Type 0, BuildingBlock: ESEHIV_clean_sbu_0, # of connection points: 4
#     Node 1, Type 0, BuildingBlock: ESEHIV_clean_sbu_0, # of connection points: 4
#     Node 2, Type 0, BuildingBlock: ESEHIV_clean_sbu_0, # of connection points: 4
#     Node 3, Type 1, BuildingBlock: EZIPEK_clean_sbu_0, # of connection points: 12
#     Edge 4, Type (0, 1), BuildingBlock: ZUJKAS_clean_linker_0, # of connection points: 2
#     Edge 5, Type (0, 1), BuildingBlock: ZUJKAS_clean_linker_0, # of connection points: 2
#     Edge 6, Type (0, 1), BuildingBlock: ZUJKAS_clean_linker_0, # of connection points: 2
#     Edge 7, Type (0, 1), BuildingBlock: ZUJKAS_clean_linker_0, # of connection points: 2
#     Edge 8, Type (0, 1), BuildingBlock: ZUJKAS_clean_linker_0, # of connection points: 2
#     Edge 9, Type (0, 1), BuildingBlock: ZUJKAS_clean_linker_0, # of connection points: 2
#     Edge 10, Type (0, 1), BuildingBlock: ZUJKAS_clean_linker_0, # of connection points: 2
#     Edge 11, Type (0, 1), BuildingBlock: ZUJKAS_clean_linker_0, # of connection points: 2
#     Edge 12, Type (0, 1), BuildingBlock: ZUJKAS_clean_linker_0, # of connection points: 2
#     Edge 13, Type (0, 1), BuildingBlock: ZUJKAS_clean_linker_0, # of connection points: 2
#     Edge 14, Type (0, 1), BuildingBlock: ZUJKAS_clean_linker_0, # of connection points: 2
#     Edge 15, Type (0, 1), BuildingBlock: ZUJKAS_clean_linker_0, # of connection points: 2
# Relax obj value: 0.024
# Max RMSD: 0.144
# Mean RMSD: 0.113
data_MOF--net-ftw--node1-ESEHIV_clean_sbu_0--node2-EZIPEK_clean_sbu_0--edge1-ZUJKAS_clean_linker_0
_symmetry_space_group_name_H-M    P1
_symmetry_Int_Tables_number       1
_symmetry_cell_setting            triclinic
loop_
_symmetry_equiv_pos_as_xyz
'x, y, z'
_cell_length_a     31.300078
_cell_length_b     31.022734
_cell_length_c     30.497118
_cell_angle_alpha  87.250601
_cell_angle_beta   86.824977
_cell_angle_gamma 92.85675
loop_
_atom_site_label
_atom_site_type_symbol
_atom_site_fract_x
_atom_site_fract_y
_atom_site_fract_z
_atom_type_partial_charge
Cu0 Cu 0.97581 0.51671 0.50151 0.0
N1 N 0.94336 0.48177 0.46633 0.0
N2 N 0.93126 0.43398 0.41544 0.0
C3 C 0.96104 0.45614 0.43689 0.0
C4 C 0.89312 0.44617 0.43217 0.0
C5 C 0.90071 0.47593 0.46351 0.0
O6 O 1.0134 0.48029 0.53366 0.0
C7 C 0.97939 0.58324 0.44071 0.0
O8 O 0.938 0.57498 0.44845 0.0
H9 H 0.99528 0.45332 0.43202 0.0
H10 H 0.8769 0.49222 0.48262 0.0
N11 N 0.94298 0.54482 0.54293 0.0
N12 N 0.92908 0.59356 0.59272 0.0
C13 C 0.95616 0.58205 0.55986 0.0
C14 C 0.90623 0.53192 0.56581 0.0
C15 C 0.89748 0.56205 0.59657 0.0
C16 C 0.99625 0.44446 0.54971 0.0
O17 O 0.95587 0.43478 0.54306 0.0
H18 H 0.98636 0.59905 0.54965 0.0
H19 H 0.88801 0.50201 0.56165 0.0
O20 O 1.00508 0.56085 0.46202 0.0
H21 H 0.86206 0.43486 0.42213 0.0
H22 H 0.87049 0.56032 0.62045 0.0
Cu23 Cu 0.53734 0.99579 0.49395 0.0
N24 N 0.57325 0.9628 0.52706 0.0
N25 N 0.62236 0.94786 0.5752 0.0
C26 C 0.59617 0.97755 0.55974 0.0
C27 C 0.61506 0.91267 0.55176 0.0
C28 C 0.5848 0.92208 0.5219 0.0
O29 O 0.57231 0.02654 0.44646 0.0
C30 C 0.46982 0.04523 0.52714 0.0
O31 O 0.45608 0.0433 0.48733 0.0
H32 H 0.59422 1.00987 0.57132 0.0
H33 H 0.57303 0.90124 0.49729 0.0
N34 N 0.49718 0.96031 0.46808 0.0
N35 N 0.44623 0.94194 0.42295 0.0
C36 C 0.4796 0.9696 0.42972 0.0
C37 C 0.4746 0.92525 0.48614 0.0
C38 C 0.44308 0.91381 0.45834 0.0
C39 C 0.60897 0.04459 0.45169 0.0
O40 O 0.62126 0.04927 0.49173 0.0
H41 H 0.48908 0.99809 0.40888 0.0
H42 H 0.47933 0.91049 0.51824 0.0
O43 O 0.50621 0.03089 0.53483 0.0
H44 H 0.63166 0.88297 0.55471 0.0
H45 H 0.41883 0.88779 0.46446 0.0
Cu46 Cu 0.5395 0.52189 0.01821 0.0
N47 N 0.50825 0.55974 0.05184 0.0
N48 N 0.46099 0.60974 0.06636 0.0
C49 C 0.47427 0.58044 0.03794 0.0
C50 C 0.48786 0.60741 0.09947 0.0
C51 C 0.51702 0.57656 0.09038 0.0
O52 O 0.49874 0.48825 0.9854 0.0
C53 C 0.61588 0.57028 0.00553 0.0
O54 O 0.61792 0.55569 0.04645 0.0
H55 H 0.46085 0.57545 0.00651 0.0
H56 H 0.54361 0.56815 0.10971 0.0
N57 N 0.56731 0.48089 0.0518 0.0
N58 N 0.61237 0.42887 0.06617 0.0
C59 C 0.59682 0.45517 0.03498 0.0
C60 C 0.56366 0.47043 0.09521 0.0
C61 C 0.59159 0.43844 0.10422 0.0
C62 C 0.46703 0.47105 0.00931 0.0
O63 O 0.46453 0.47841 0.05142 0.0
H64 H 0.60724 0.45649 0.00049 0.0
H65 H 0.54226 0.48496 0.11861 0.0
O66 O 0.58354 0.55865 0.98431 0.0
H67 H 0.48697 0.62705 0.12786 0.0
H68 H 0.59584 0.4231 0.1362 0.0
C69 C 0.04965 0.13088 0.88486 0.0
C70 C 0.0354 0.12389 0.09798 0.0
C71 C 0.0361 0.92119 0.88917 0.0
C72 C 0.03992 0.91532 0.10213 0.0
C73 C 0.14282 0.92093 0.99531 0.0
C74 C 0.14765 0.13092 0.98612 0.0
C75 C 0.93468 0.91491 0.99484 0.0
C76 C 0.93935 0.12442 0.99686 0.0
C77 C 0.93452 0.01967 0.10342 0.0
C78 C 0.1422 0.01983 0.09645 0.0
C79 C 0.93966 0.01933 0.89052 0.0
C80 C 0.14768 0.02971 0.88289 0.0
Eu81 Eu 0.04304 0.10458 0.9918 0.0
O82 O 0.07973 0.06167 0.0309 0.0
O83 O 1.00436 0.06172 0.95436 0.0
Eu84 Eu 0.12229 0.02526 0.99046 0.0
Eu85 Eu 0.96006 0.02026 0.99615 0.0
O86 O 0.08061 0.0631 0.95259 0.0
O87 O 1.00354 0.0583 0.03222 0.0
Eu88 Eu 0.04308 0.02533 0.91017 0.0
Eu89 Eu 0.03901 0.02033 0.07636 0.0
O90 O 0.07964 0.9861 0.95333 0.0
O91 O 0.07675 0.98497 0.03109 0.0
O92 O 1.00054 0.98117 0.03519 0.0
O93 O 1.00396 0.98502 0.95715 0.0
Eu94 Eu 0.03926 0.94065 0.99512 0.0
O95 O 0.04843 0.14273 0.92639 0.0
O96 O 0.03842 0.13847 0.05595 0.0
O97 O 0.03718 0.90668 0.93103 0.0
O98 O 0.03879 0.90288 0.06085 0.0
O99 O 0.15658 0.9625 0.99365 0.0
O100 O 0.15971 0.09019 0.98592 0.0
O101 O 0.92273 0.95566 0.99538 0.0
O102 O 0.92559 0.08292 0.99707 0.0
O103 O 0.97495 0.01928 0.11538 0.0
O104 O 0.10115 0.01937 0.11105 0.0
O105 O 0.98068 0.02285 0.87553 0.0
O106 O 0.10715 0.02844 0.87112 0.0
O107 O 0.97501 0.90273 0.996 0.0
O108 O 0.1019 0.90642 0.99479 0.0
O109 O 0.98044 0.13888 0.99432 0.0
O110 O 0.10714 0.14272 0.98935 0.0
O111 O 0.03637 0.08255 0.11204 0.0
O112 O 0.03947 0.95602 0.1144 0.0
O113 O 0.04702 0.09024 0.87222 0.0
O114 O 0.03866 0.96269 0.87496 0.0
O115 O 0.15976 0.02829 0.92428 0.0
O116 O 0.15644 0.02288 0.05423 0.0
O117 O 0.92582 0.01868 0.93276 0.0
O118 O 0.92249 0.01908 0.06209 0.0
H119 H 0.87986 0.365 0.39651 0.0
H120 H 0.89627 0.31059 0.34314 0.0
H121 H 1.01708 0.37912 0.30609 0.0
H122 H 1.00089 0.43351 0.35885 0.0
H123 H 0.91566 0.31941 0.25133 0.0
H124 H 0.05129 0.25618 0.33998 0.0
H125 H 1.01269 0.29015 0.36512 0.0
H126 H 0.05566 0.31362 0.32868 0.0
C127 C 0.9097 0.36866 0.3767 0.0
C128 C 0.93932 0.40327 0.38235 0.0
C129 C 0.91911 0.33748 0.3464 0.0
C130 C 0.95827 0.34041 0.32141 0.0
C131 C 0.98717 0.37568 0.32589 0.0
H132 H 0.03286 0.21195 0.08579 0.0
H133 H 1.01356 0.26352 0.14059 0.0
C134 C 0.97786 0.40672 0.35611 0.0
C135 C 0.96919 0.30672 0.29052 0.0
H136 H 0.04391 0.23336 0.2672 0.0
C137 C 0.94353 0.30038 0.25487 0.0
C138 C 1.00524 0.28156 0.29566 0.0
C139 C 0.03261 0.28532 0.33465 0.0
C140 C 0.95368 0.27033 0.22343 0.0
C141 C 0.99084 0.24659 0.22752 0.0
C142 C 1.01578 0.25205 0.26386 0.0
C143 C 1.00419 0.21559 0.19462 0.0
C144 C 0.92434 0.26394 0.18638 0.0
C145 C 1.00694 0.1718 0.20722 0.0
C146 C 1.01839 0.1422 0.1761 0.0
C147 C 0.02747 0.15589 0.13172 0.0
C148 C 1.02593 0.20012 0.11955 0.0
C149 C 1.01455 0.22967 0.15076 0.0
H150 H 0.89202 0.2758 0.19426 0.0
H151 H 0.93816 0.28231 0.15638 0.0
H152 H 0.92081 0.2293 0.17888 0.0
H153 H 0.99936 0.16036 0.24102 0.0
H154 H 1.0191 0.10846 0.18678 0.0
H155 H 0.59654 0.03254 0.36462 0.0
H156 H 0.65152 0.03305 0.30422 0.0
H157 H 0.74785 0.07287 0.39172 0.0
H158 H 0.69331 0.07236 0.45233 0.0
H159 H 0.71579 0.09937 0.26771 0.0
H160 H 0.78649 0.95565 0.3452 0.0
H161 H 0.7336 0.97206 0.36135 0.0
H162 H 0.78014 1.00049 0.37976 0.0
C163 C 0.62929 0.04211 0.37092 0.0
C164 C 0.64052 0.052 0.41352 0.0
C165 C 0.66068 0.04233 0.33633 0.0
C166 C 0.70384 0.05221 0.34372 0.0
C167 C 0.7148 0.06446 0.38551 0.0
H168 H 0.94391 0.03466 0.19045 0.0
H169 H 0.88768 0.04384 0.24747 0.0
C170 C 0.68348 0.06439 0.42008 0.0
C171 C 0.73767 0.04738 0.30847 0.0
H172 H 0.82289 0.98747 0.28092 0.0
C173 C 0.73919 0.07489 0.27046 0.0
C174 C 0.7681 0.01536 0.3122 0.0
C175 C 0.76701 0.9839 0.35161 0.0
C176 C 0.77095 0.0718 0.23641 0.0
C177 C 0.80134 0.03964 0.24009 0.0
C178 C 0.79966 0.01212 0.27812 0.0
C179 C 0.83529 0.03398 0.20503 0.0
C180 C 0.77228 0.10368 0.19734 0.0
C181 C 0.8246 0.02454 0.1623 0.0
C182 C 0.85672 0.01928 0.12948 0.0
C183 C 0.90029 0.02287 0.1388 0.0
C184 C 0.9108 0.03143 0.18195 0.0
C185 C 0.87865 0.03685 0.21466 0.0
H186 H 0.75493 0.13304 0.20501 0.0
H187 H 0.8058 0.11367 0.18605 0.0
H188 H 0.75661 0.08832 0.16984 0.0
H189 H 0.79136 0.02104 0.15432 0.0
H190 H 0.84728 0.01247 0.09678 0.0
H191 H 0.06207 0.61581 0.41963 0.0
H192 H 0.08474 0.67469 0.36495 0.0
H193 H 0.9535 0.6858 0.33166 0.0
H194 H 0.93069 0.6282 0.38585 0.0
H195 H 0.07291 0.68238 0.27258 0.0
H196 H 0.99097 0.80889 0.36147 0.0
H197 H 1.00146 0.75726 0.38748 0.0
H198 H 0.95581 0.76256 0.35457 0.0
C199 C 0.03815 0.63094 0.40064 0.0
C200 C 0.99455 0.61768 0.40744 0.0
C201 C 0.05113 0.66445 0.36947 0.0
C202 C 1.02062 0.6851 0.34497 0.0
C203 C 0.9774 0.67101 0.35097 0.0
H204 H 1.01942 0.82852 0.09972 0.0
H205 H 1.02218 0.77343 0.15942 0.0
C206 C 0.96447 0.63789 0.38195 0.0
C207 C 0.03305 0.72133 0.31271 0.0
H208 H 1.00693 0.82384 0.28405 0.0
C209 C 0.05918 0.71362 0.27532 0.0
C210 C 1.01573 0.76228 0.31675 0.0
C211 C 0.98981 0.77344 0.35747 0.0
C212 C 0.06634 0.74509 0.24061 0.0
C213 C 0.04603 0.78475 0.24314 0.0
C214 C 1.02201 0.79323 0.28173 0.0
C215 C 0.04756 0.81738 0.2058 0.0
C216 C 0.09533 0.73539 0.20154 0.0
C217 C 0.05994 0.8606 0.21224 0.0
C218 C 0.05753 0.89228 0.17851 0.0
C219 C 0.04279 0.88138 0.1375 0.0
C220 C 0.0311 0.83795 0.13082 0.0
C221 C 0.03308 0.80632 0.16481 0.0
H222 H 0.11908 0.71161 0.21082 0.0
H223 H 0.07575 0.72111 0.17612 0.0
H224 H 0.11279 0.76514 0.18691 0.0
H225 H 0.07103 0.86995 0.24362 0.0
H226 H 0.06729 0.92533 0.18465 0.0
H227 H 0.46391 0.97514 0.33985 0.0
H228 H 0.41254 0.98806 0.28347 0.0
H229 H 0.31027 0.93128 0.37143 0.0
H230 H 0.36125 0.91878 0.42814 0.0
H231 H 0.35185 0.92541 0.24604 0.0
H232 H 0.2732 0.05561 0.33444 0.0
H233 H 0.32573 0.03839 0.34664 0.0
H234 H 0.27878 1.00588 0.36591 0.0
C235 C 0.43049 0.96539 0.34716 0.0
C236 C 0.41665 0.94613 0.38856 0.0
C237 C 0.40126 0.97261 0.31489 0.0
C238 C 0.35762 0.9611 0.32356 0.0
C239 C 0.3438 0.94081 0.36433 0.0
H240 H 0.12781 0.99546 0.18374 0.0
H241 H 0.18086 0.98129 0.23754 0.0
C242 C 0.37305 0.93331 0.39654 0.0
C243 C 0.32641 0.97101 0.29021 0.0
H244 H 0.24243 0.03363 0.26961 0.0
C245 C 0.32797 0.94914 0.25101 0.0
C246 C 0.29534 1.00193 0.297 0.0
C247 C 0.29313 0.02715 0.33809 0.0
C248 C 0.29859 0.95672 0.21866 0.0
C249 C 0.2676 0.98788 0.2253 0.0
C250 C 0.26623 1.00984 0.26452 0.0
C251 C 0.2357 0.9976 0.19242 0.0
C252 C 0.30027 0.9304 0.1783 0.0
C253 C 0.24885 0.01241 0.14931 0.0
C254 C 0.21855 0.02038 0.11827 0.0
C255 C 0.17444 0.01431 0.12991 0.0
C256 C 0.16144 1.00072 0.17353 0.0
C257 C 0.19175 0.99246 0.2044 0.0
H258 H 0.31745 0.9003 0.18383 0.0
H259 H 0.26756 0.92155 0.16822 0.0
H260 H 0.31768 0.94974 0.15075 0.0
H261 H 0.28258 0.01772 0.13962 0.0
H262 H 0.22978 0.03111 0.08512 0.0
H263 H 0.89759 0.60068 0.67693 0.0
H264 H 0.91416 0.65918 0.72531 0.0
H265 H 0.99301 0.72597 0.62053 0.0
H266 H 0.97592 0.66832 0.57164 0.0
H267 H 0.03318 0.71246 0.70335 0.0
H268 H 0.87555 0.78689 0.72153 0.0
H269 H 0.87468 0.72905 0.73008 0.0
H270 H 0.88956 0.75348 0.67652 0.0
C271 C 0.91773 0.62817 0.66383 0.0
C272 C 0.93564 0.62953 0.62038 0.0
C273 C 0.92724 0.66154 0.69159 0.0
C274 C 0.95471 0.69687 0.67639 0.0
C275 C 0.97182 0.69888 0.63287 0.0
H276 H 1.01363 0.93495 0.80426 0.0
H277 H 0.99566 0.88065 0.75187 0.0
C278 C 0.96219 0.66572 0.60506 0.0
C279 C 0.96761 0.7306 0.70647 0.0
H280 H 0.92972 0.81187 0.76683 0.0
C281 C 1.01062 0.73427 0.71721 0.0
C282 C 0.93813 0.75915 0.72408 0.0
C283 C 0.89192 0.75739 0.71233 0.0
C284 C 1.02485 0.76542 0.74573 0.0
C285 C 0.99518 0.79336 0.76411 0.0
C286 C 0.9523 0.79017 0.75282 0.0
C287 C 1.00801 0.82609 0.79528 0.0
C288 C 0.07156 0.76857 0.75564 0.0
C289 C 1.02103 0.81329 0.83699 0.0
C290 C 0.03134 0.84419 0.86711 0.0
C291 C 0.02884 0.88853 0.85603 0.0
C292 C 1.01638 0.90117 0.81385 0.0
C293 C 1.00583 0.8702 0.78388 0.0
H294 H 0.09172 0.75147 0.73164 0.0
H295 H 0.08359 0.80288 0.75539 0.0
H296 H 0.07536 0.75366 0.78891 0.0
H297 H 1.02239 0.77932 0.84656 0.0
H298 H 0.04065 0.83323 0.89928 0.0
H299 H 0.48375 0.04214 0.61532 0.0
H300 H 0.43002 0.04512 0.67645 0.0
H301 H 0.33378 0.07227 0.58469 0.0
H302 H 0.38703 0.06908 0.52336 0.0
H303 H 0.37082 0.10927 0.70311 0.0
H304 H 0.28862 0.95837 0.65225 0.0
H305 H 0.342 0.97621 0.6314 0.0
H306 H 0.29624 1.00096 0.61007 0.0
C307 C 0.45133 0.04951 0.6081 0.0
C308 C 0.43965 0.05489 0.56431 0.0
C309 C 0.42065 0.05113 0.64313 0.0
C310 C 0.37776 0.05801 0.63504 0.0
C311 C 0.36656 0.06609 0.5916 0.0
H312 H 0.13873 0.04144 0.79416 0.0
H313 H 0.19513 0.05004 0.73544 0.0
C314 C 0.39717 0.06452 0.55657 0.0
C315 C 0.34428 0.05422 0.6717 0.0
H316 H 0.25511 0.99339 0.71095 0.0
C317 C 0.34554 0.08393 0.70495 0.0
C318 C 0.31144 0.02099 0.67408 0.0
C319 C 0.3095 0.98703 0.64031 0.0
C320 C 0.3142 0.0819 0.74002 0.0
C321 C 0.28128 0.04868 0.74232 0.0
C322 C 0.28024 0.01889 0.70913 0.0
C323 C 0.24733 0.04427 0.77861 0.0
C324 C 0.31602 0.11595 0.77366 0.0
C325 C 0.2578 0.03757 0.82251 0.0
C326 C 0.22555 0.03268 0.85636 0.0
C327 C 0.18205 0.03395 0.84697 0.0
C328 C 0.17175 0.04016 0.80282 0.0
C329 C 0.20401 0.04517 0.76908 0.0
H330 H 0.33568 0.14518 0.76097 0.0
H331 H 0.2834 0.12571 0.78372 0.0
H332 H 0.33083 0.10268 0.8033 0.0
H333 H 0.29092 0.03567 0.83061 0.0
H334 H 0.23482 0.02774 0.88984 0.0
H335 H 0.98067 0.35826 0.5628 0.0
H336 H 1.00892 0.31059 0.61888 0.0
H337 H 0.09063 0.41589 0.65881 0.0
H338 H 0.06259 0.46416 0.60195 0.0
H339 H 0.10226 0.29298 0.64143 0.0
H340 H 1.00049 0.37266 0.76648 0.0
H341 H 0.98924 0.37586 0.70903 0.0
H342 H 0.03507 0.40527 0.72738 0.0
C343 C 1.00527 0.37114 0.58291 0.0
C344 C 1.0192 0.41496 0.57835 0.0
C345 C 1.02148 0.34382 0.61478 0.0
C346 C 0.05155 0.35987 0.64302 0.0
C347 C 0.06736 0.40306 0.63719 0.0
H348 H 0.07888 0.21466 0.89253 0.0
H349 H 0.08831 0.27217 0.83469 0.0
C350 C 0.05146 0.43046 0.60472 0.0
C351 C 0.06222 0.33206 0.68111 0.0
H352 H 0.02954 0.30755 0.7883 0.0
C353 C 0.08717 0.29652 0.67385 0.0
C354 C 0.04252 0.33697 0.72325 0.0
C355 C 1.01518 0.37462 0.73239 0.0
C356 C 0.09163 0.26473 0.70741 0.0
C357 C 0.06935 0.26801 0.74872 0.0
C358 C 0.04636 0.30487 0.75656 0.0
C359 C 0.06662 0.23232 0.78312 0.0
C360 C 0.11971 0.22774 0.69801 0.0
C361 C 0.05086 0.19085 0.77351 0.0
C362 C 0.04563 0.15782 0.80643 0.0
C363 C 0.05526 0.16581 0.84988 0.0
C364 C 0.0708 0.20745 0.85949 0.0
C365 C 0.07645 0.24034 0.82643 0.0
H366 H 0.14565 0.23764 0.67264 0.0
H367 H 0.13444 0.21544 0.72813 0.0
H368 H 0.10006 0.20097 0.68506 0.0
H369 H 0.04169 0.1842 0.7407 0.0
H370 H 0.03327 0.12625 0.79795 0.0
H371 H 0.65153 0.88716 0.63142 0.0
H372 H 0.70492 0.89847 0.68628 0.0
H373 H 0.71916 0.03362 0.64511 0.0
H374 H 0.66575 0.02264 0.59087 0.0
H375 H 0.78866 0.92715 0.67717 0.0
H376 H 0.69651 0.03961 0.77627 0.0
H377 H 0.67272 1.00826 0.73474 0.0
H378 H 0.70387 0.05756 0.71945 0.0
C379 C 0.66608 0.91924 0.63415 0.0
C380 C 0.65398 0.9541 0.60725 0.0
C381 C 0.69649 0.92569 0.66551 0.0
C382 C 0.71537 0.96709 0.67045 0.0
C383 C 0.70409 1.00168 0.64286 0.0
H384 H 0.94992 0.02871 0.80041 0.0
H385 H 0.8958 0.01555 0.74712 0.0
C386 C 0.67353 0.99533 0.61182 0.0
C387 C 0.74742 0.97413 0.70385 0.0
H388 H 0.77021 0.03486 0.79089 0.0
C389 C 0.78455 0.95051 0.70221 0.0
C390 C 0.74173 1.00418 0.73692 0.0
C391 C 0.70135 0.02852 0.74233 0.0
C392 C 0.81655 0.95676 0.73217 0.0
C393 C 0.8117 0.98823 0.76395 0.0
C394 C 0.77418 1.01119 0.76612 0.0
C395 C 0.84458 0.99713 0.79606 0.0
C396 C 0.85482 0.92904 0.72998 0.0
C397 C 0.83345 0.99268 0.8413 0.0
C398 C 0.8641 1.00079 0.87187 0.0
C399 C 0.90667 0.01356 0.85786 0.0
C400 C 0.91756 0.0187 0.81244 0.0
C401 C 0.88673 1.01084 0.78187 0.0
H402 H 0.84801 0.89898 0.71263 0.0
H403 H 0.88201 0.94738 0.7116 0.0
H404 H 0.86488 0.92003 0.7634 0.0
H405 H 0.80108 0.98233 0.85302 0.0
H406 H 0.85446 0.99622 0.9065 0.0
H407 H 0.38462 0.45746 0.03997 0.0
H408 H 0.33344 0.39975 0.02238 0.0
H409 H 0.42443 0.35685 0.92473 0.0
H410 H 0.47616 0.41542 0.94192 0.0
H411 H 0.30596 0.37144 0.92463 0.0
H412 H 0.38838 0.25676 0.03369 0.0
H413 H 0.39005 0.3138 0.04325 0.0
H414 H 0.41895 0.29493 0.99622 0.0
C415 C 0.39353 0.43631 0.01411 0.0
C416 C 0.43445 0.44086 0.99239 0.0
C417 C 0.36419 0.4034 0.00409 0.0
C418 C 0.37525 0.37399 0.97249 0.0
C419 C 0.41535 0.37939 0.9492 0.0
H420 H 0.23235 0.12477 0.95981 0.0
H421 H 0.28838 0.18279 0.95073 0.0
C422 C 0.44474 0.41289 0.95887 0.0
C423 C 0.34576 0.33594 0.96713 0.0
H424 H 0.32193 0.23299 0.00905 0.0
C425 C 0.30967 0.34088 0.94247 0.0
C426 C 0.35078 0.29623 0.99045 0.0
C427 C 0.38904 0.28968 0.01753 0.0
C428 C 0.27791 0.30728 0.94123 0.0
C429 C 0.28174 0.26823 0.96652 0.0
C430 C 0.31874 0.26289 0.98988 0.0
C431 C 0.24715 0.23318 0.97067 0.0
C432 C 0.24066 0.31404 0.91277 0.0
C433 C 0.2053 0.24186 0.98555 0.0
C434 C 0.17306 0.20878 0.99053 0.0
C435 C 0.18206 0.16599 0.98151 0.0
C436 C 0.22419 0.15724 0.96729 0.0
C437 C 0.25631 0.19045 0.96192 0.0
H438 H 0.24951 0.33797 0.88506 0.0
H439 H 0.22908 0.28333 0.89911 0.0
H440 H 0.21394 0.32686 0.9328 0.0
H441 H 0.19761 0.27422 0.99392 0.0
H442 H 0.14117 0.21675 0.00195 0.0
H443 H 0.45711 0.69062 0.09613 0.0
H444 H 0.4015 0.74192 0.08325 0.0
H445 H 0.33348 0.64817 0.00962 0.0
H446 H 0.3888 0.59657 0.02259 0.0
H447 H 0.37412 0.76997 0.99293 0.0
H448 H 0.24341 0.69174 0.10511 0.0
H449 H 0.29928 0.68273 0.11214 0.0
H450 H 0.27221 0.6577 0.06892 0.0
C451 C 0.43006 0.68068 0.07771 0.0
C452 C 0.4274 0.63944 0.06043 0.0
C453 C 0.39846 0.71013 0.07014 0.0
C454 C 0.36329 0.69872 0.04572 0.0
C455 C 0.36022 0.65748 0.02884 0.0
H456 H 0.13542 0.83429 0.98036 0.0
H457 H 0.18927 0.78057 0.99006 0.0
C458 C 0.392 0.62815 0.03604 0.0
C459 C 0.33051 0.73047 0.03675 0.0
H460 H 0.22664 0.75311 0.06215 0.0
C461 C 0.34187 0.76641 0.00806 0.0
C462 C 0.28839 0.72538 0.05615 0.0
C463 C 0.27486 0.68749 0.08754 0.0
C464 C 0.31209 0.79735 0.99799 0.0
C465 C 0.27013 0.79293 0.01826 0.0
C466 C 0.25874 0.75665 0.04667 0.0
C467 C 0.23784 0.82592 0.01113 0.0
C468 C 0.32571 0.83387 0.9649 0.0
C469 C 0.24695 0.86931 0.02005 0.0
C470 C 0.21644 0.90018 0.01401 0.0
C471 C 0.17573 0.88827 0.99969 0.0
C472 C 0.16644 0.84468 0.99132 0.0
C473 C 0.1972 0.81387 0.99691 0.0
H474 H 0.35274 0.8251 0.94246 0.0
H475 H 0.29879 0.84311 0.9448 0.0
H476 H 0.33677 0.86245 0.98254 0.0
H477 H 0.27748 0.87928 0.03239 0.0
H478 H 0.22453 0.93325 0.0216 0.0
H479 H 0.63095 0.3865 0.99223 0.0
H480 H 0.68656 0.335 0.98088 0.0
H481 H 0.72342 0.34896 0.11381 0.0
H482 H 0.66765 0.40048 0.12547 0.0
H483 H 0.77314 0.34579 0.98485 0.0
H484 H 0.70901 0.21864 0.10857 0.0
H485 H 0.67795 0.26303 0.09077 0.0
H486 H 0.71747 0.27077 0.13069 0.0
C487 C 0.65091 0.37878 0.01907 0.0
C488 C 0.64469 0.39767 0.05984 0.0
C489 C 0.68265 0.34916 0.01255 0.0
C490 C 0.70886 0.33759 0.04664 0.0
C491 C 0.70296 0.35654 0.08731 0.0
H492 H 0.95076 0.21063 0.01256 0.0
H493 H 0.89565 0.26268 0.02403 0.0
C494 C 0.67105 0.38607 0.09394 0.0
C495 C 0.74291 0.30647 0.03908 0.0
H496 H 0.77834 0.2095 0.07585 0.0
C497 C 0.77423 0.31595 0.00471 0.0
C498 C 0.74407 0.26725 0.06462 0.0
C499 C 0.71012 0.254 0.10046 0.0
C500 C 0.80683 0.28757 0.99544 0.0
C501 C 0.80868 0.24895 0.02177 0.0
C502 C 0.77715 0.23927 0.0559 0.0
C503 C 0.84247 0.21762 0.01396 0.0
C504 C 0.83837 0.29878 0.95686 0.0
C505 C 0.83101 0.17467 0.0053 0.0
C506 C 0.86243 0.14468 0.99902 0.0
C507 C 0.90615 0.15691 0.00133 0.0
C508 C 0.91754 0.20006 0.00993 0.0
C509 C 0.88602 0.23 0.01639 0.0
H510 H 0.82586 0.32282 0.9333 0.0
H511 H 0.86845 0.31302 0.96898 0.0
H512 H 0.84619 0.26954 0.93903 0.0
H513 H 0.79762 0.16431 0.0034 0.0
H514 H 0.8523 0.11181 0.99257 0.0
H515 H 0.60669 0.64275 0.95204 0.0
H516 H 0.65998 0.70369 0.93737 0.0
H517 H 0.75278 0.63241 0.00606 0.0
H518 H 0.69992 0.57225 0.02121 0.0
H519 H 0.69987 0.74513 0.0118 0.0
H520 H 0.82025 0.68542 0.89212 0.0
H521 H 0.76543 0.66372 0.898 0.0
H522 H 0.80327 0.64776 0.93709 0.0
C523 C 0.63889 0.63969 0.96269 0.0
C524 C 0.64929 0.60277 0.98759 0.0
C525 C 0.66917 0.67455 0.95459 0.0
C526 C 0.71045 0.67244 0.97038 0.0
C527 C 0.7214 0.63455 0.99303 0.0
H528 H 0.9385 0.82744 0.01148 0.0
H529 H 0.88241 0.77112 0.00321 0.0
C530 C 0.69112 0.60021 0.00173 0.0
C531 C 0.74078 0.71099 0.96804 0.0
H532 H 0.84236 0.74623 0.9319 0.0
C533 C 0.73076 0.74585 0.99373 0.0
C534 C 0.78124 0.71147 0.94497 0.0
C535 C 0.79323 0.67528 0.91616 0.0
C536 C 0.76083 0.78028 0.99858 0.0
C537 C 0.80172 0.78047 0.97608 0.0
C538 C 0.81117 0.74614 0.94929 0.0
C539 C 0.83562 0.81512 0.98105 0.0
C540 C 0.74917 0.81492 0.02956 0.0
C541 C 0.82828 0.85871 0.97106 0.0
C542 C 0.86011 0.89107 0.97634 0.0
C543 C 0.90037 0.88055 0.99102 0.0
C544 C 0.9079 0.8368 0.00027 0.0
C545 C 0.87586 0.8045 0.99543 0.0
H546 H 0.72202 0.80389 0.05309 0.0
H547 H 0.77688 0.82503 0.04857 0.0
H548 H 0.73928 0.84359 0.01025 0.0
H549 H 0.79803 0.86774 0.95873 0.0
H550 H 0.85336 0.92429 0.96807 0.0
loop_
_geom_bond_atom_site_label_1
_geom_bond_atom_site_label_2
_geom_bond_distance
_geom_bond_site_symmetry_2
_ccdc_geom_bond_type
Cu0 N1 1.999 . S
Cu0 O6 1.974 . S
Cu0 N11 1.985 . S
Cu0 O20 1.959 . S
N1 Cu0 1.999 . S
N1 C3 1.263 . S
N1 C5 1.389 . S
N2 C3 1.358 . S
N2 C4 1.400 . S
C3 N1 1.263 . S
C3 N2 1.358 . S
C3 H9 0.930 1_455 S
C4 N2 1.400 . S
C4 C5 1.351 . S
C4 H21 0.930 . S
C5 N1 1.389 . S
C5 C4 1.351 . S
C5 H10 0.930 . S
O6 Cu0 1.974 . S
O6 C16 1.282 1_455 S
C7 O8 1.261 . S
C7 O20 1.251 1_655 S
O8 C7 1.261 . S
H9 C3 0.930 1_655 S
H10 C5 0.930 . S
N11 Cu0 1.985 . S
N11 C13 1.335 . S
N11 C14 1.390 1_455 S
N12 C13 1.345 . S
N12 C15 1.336 1_455 S
C13 N11 1.335 . S
C13 N12 1.345 . S
C13 H18 0.930 . S
C14 N11 1.390 1_655 S
C14 C15 1.346 . S
C14 H19 0.930 . S
C15 N12 1.336 1_655 S
C15 C14 1.346 . S
C15 H22 0.929 . S
C16 O6 1.282 1_655 S
C16 O17 1.216 . S
O17 C16 1.216 . S
H18 C13 0.930 . S
H19 C14 0.930 . S
O20 Cu0 1.959 . S
O20 C7 1.251 1_455 S
H21 C4 0.930 . S
H22 C15 0.929 . S
Cu23 N24 1.999 . S
Cu23 O29 1.974 . S
Cu23 N34 1.985 . S
Cu23 O43 1.959 . S
N24 Cu23 1.999 . S
N24 C26 1.263 . S
N24 C28 1.389 . S
N25 C26 1.358 . S
N25 C27 1.400 . S
C26 N24 1.263 . S
C26 N25 1.358 . S
C26 H32 0.930 1_565 S
C27 N25 1.400 . S
C27 C28 1.351 . S
C27 H44 0.930 . S
C28 N24 1.389 . S
C28 C27 1.351 . S
C28 H33 0.930 . S
O29 Cu23 1.974 . S
O29 C39 1.282 1_565 S
C30 O31 1.261 . S
C30 O43 1.251 1_545 S
O31 C30 1.261 . S
H32 C26 0.930 1_545 S
H33 C28 0.930 . S
N34 Cu23 1.985 . S
N34 C36 1.335 . S
N34 C37 1.390 1_565 S
N35 C36 1.345 . S
N35 C38 1.336 1_565 S
C36 N34 1.335 . S
C36 N35 1.345 . S
C36 H41 0.930 . S
C37 N34 1.390 1_545 S
C37 C38 1.346 . S
C37 H42 0.930 . S
C38 N35 1.336 1_545 S
C38 C37 1.346 . S
C38 H45 0.929 . S
C39 O29 1.282 1_545 S
C39 O40 1.216 . S
O40 C39 1.216 . S
H41 C36 0.930 . S
H42 C37 0.930 . S
O43 Cu23 1.959 . S
O43 C30 1.251 1_565 S
H44 C27 0.930 . S
H45 C38 0.929 . S
Cu46 N47 1.999 . S
Cu46 O52 1.974 . S
Cu46 N57 1.985 . S
Cu46 O66 1.959 . S
N47 Cu46 1.999 . S
N47 C49 1.263 . S
N47 C51 1.389 . S
N48 C49 1.358 . S
N48 C50 1.400 . S
C49 N47 1.263 . S
C49 N48 1.358 . S
C49 H55 0.930 1_556 S
C50 N48 1.400 . S
C50 C51 1.351 . S
C50 H67 0.930 . S
C51 N47 1.389 . S
C51 C50 1.351 . S
C51 H56 0.930 . S
O52 Cu46 1.974 . S
O52 C62 1.282 1_556 S
C53 O54 1.261 . S
C53 O66 1.251 1_554 S
O54 C53 1.261 . S
H55 C49 0.930 1_554 S
H56 C51 0.930 . S
N57 Cu46 1.985 . S
N57 C59 1.335 . S
N57 C60 1.390 1_556 S
N58 C59 1.345 . S
N58 C61 1.336 1_556 S
C59 N57 1.335 . S
C59 N58 1.345 . S
C59 H64 0.930 . S
C60 N57 1.390 1_554 S
C60 C61 1.346 . S
C60 H65 0.930 . S
C61 N58 1.336 1_554 S
C61 C60 1.346 . S
C61 H68 0.929 . S
C62 O52 1.282 1_554 S
C62 O63 1.216 . S
O63 C62 1.216 . S
H64 C59 0.930 . S
H65 C60 0.930 . S
O66 Cu46 1.959 . S
O66 C53 1.251 1_556 S
H67 C50 0.930 . S
H68 C61 0.929 . S
C69 O95 1.283 . S
C69 O113 1.283 . S
C70 O96 1.283 . S
C70 O111 1.283 . S
C71 O97 1.283 . S
C71 O114 1.283 . S
C72 O98 1.283 . S
C72 O112 1.283 . S
C73 O99 1.284 1_554 S
C73 O108 1.283 . S
C74 O100 1.283 . S
C74 O110 1.283 . S
C75 O101 1.283 . S
C75 O107 1.283 . S
C76 O102 1.283 . S
C76 O109 1.284 1_554 S
C77 O103 1.283 . S
C77 O118 1.283 . S
C78 O104 1.283 . S
C78 O116 1.283 . S
C79 O105 1.283 . S
C79 O117 1.283 . S
C80 O106 1.283 . S
C80 O115 1.283 . S
Eu81 O82 2.370 1_556 S
Eu81 O83 2.370 1_455 S
Eu81 O86 2.370 . S
Eu81 O87 2.370 1_456 S
Eu81 O95 2.363 . S
Eu81 O96 2.363 1_556 S
Eu81 O109 2.363 1_455 S
Eu81 O110 2.363 . S
O82 Eu81 2.370 1_554 S
O82 Eu84 2.370 1_554 S
O82 Eu89 2.360 1_455 S
O83 Eu81 2.370 1_655 S
O83 Eu85 2.370 1_556 S
O83 Eu88 2.370 1_655 S
Eu84 O82 2.370 1_556 S
Eu84 O86 2.370 . S
Eu84 O90 2.370 1_545 S
Eu84 O91 2.370 1_546 S
Eu84 O99 2.363 1_545 S
Eu84 O100 2.363 . S
Eu84 O115 2.363 . S
Eu84 O116 2.363 1_556 S
Eu85 O83 2.370 1_554 S
Eu85 O87 2.370 . S
Eu85 O92 2.370 1_545 S
Eu85 O93 2.370 1_544 S
Eu85 O101 2.363 1_545 S
Eu85 O102 2.363 . S
Eu85 O117 2.363 1_554 S
Eu85 O118 2.363 . S
O86 Eu81 2.370 . S
O86 Eu84 2.370 . S
O86 Eu88 2.370 . S
O87 Eu81 2.370 1_654 S
O87 Eu85 2.370 . S
O87 Eu89 2.381 . S
Eu88 O83 2.370 1_455 S
Eu88 O86 2.370 . S
Eu88 O90 2.370 1_545 S
Eu88 O93 2.370 1_445 S
Eu88 O105 2.363 1_455 S
Eu88 O106 2.363 . S
Eu88 O113 2.363 . S
Eu88 O114 2.363 1_545 S
Eu89 O82 2.360 1_655 S
Eu89 O87 2.381 . S
Eu89 O91 2.360 1_645 S
Eu89 O92 2.380 1_545 S
Eu89 O103 2.380 . S
Eu89 O104 2.346 1_655 S
Eu89 O111 2.363 1_655 S
Eu89 O112 2.363 1_545 S
O90 Eu84 2.370 1_565 S
O90 Eu88 2.370 1_565 S
O90 Eu94 2.363 1_456 S
O91 Eu84 2.370 1_564 S
O91 Eu89 2.360 1_465 S
O91 Eu94 2.362 1_455 S
O92 Eu85 2.370 1_565 S
O92 Eu89 2.380 1_565 S
O92 Eu94 2.378 . S
O93 Eu85 2.370 1_566 S
O93 Eu88 2.370 1_665 S
O93 Eu94 2.378 1_556 S
Eu94 O90 2.363 1_654 S
Eu94 O91 2.362 1_655 S
Eu94 O92 2.378 . S
Eu94 O93 2.378 1_554 S
Eu94 O97 2.363 1_654 S
Eu94 O98 2.363 . S
Eu94 O107 2.376 . S
Eu94 O108 2.349 1_655 S
O95 C69 1.283 . S
O95 Eu81 2.363 . S
O96 C70 1.283 . S
O96 Eu81 2.363 1_554 S
O97 C71 1.283 . S
O97 Eu94 2.363 1_456 S
O98 C72 1.283 . S
O98 Eu94 2.363 . S
O99 C73 1.284 1_556 S
O99 Eu84 2.363 1_565 S
O100 C74 1.283 . S
O100 Eu84 2.363 . S
O101 C75 1.283 . S
O101 Eu85 2.363 1_565 S
O102 C76 1.283 . S
O102 Eu85 2.363 . S
O103 C77 1.283 . S
O103 Eu89 2.380 . S
O104 C78 1.283 . S
O104 Eu89 2.346 1_455 S
O105 C79 1.283 . S
O105 Eu88 2.363 1_655 S
O106 C80 1.283 . S
O106 Eu88 2.363 . S
O107 C75 1.283 . S
O107 Eu94 2.376 . S
O108 C73 1.283 . S
O108 Eu94 2.349 1_455 S
O109 C76 1.284 1_556 S
O109 Eu81 2.363 1_655 S
O110 C74 1.283 . S
O110 Eu81 2.363 . S
O111 C70 1.283 . S
O111 Eu89 2.363 1_455 S
O112 C72 1.283 . S
O112 Eu89 2.363 1_565 S
O113 C69 1.283 . S
O113 Eu88 2.363 . S
O114 C71 1.283 . S
O114 Eu88 2.363 1_565 S
O115 C80 1.283 . S
O115 Eu84 2.363 . S
O116 C78 1.283 . S
O116 Eu84 2.363 1_554 S
O117 C79 1.283 . S
O117 Eu85 2.363 1_556 S
O118 C77 1.283 . S
O118 Eu85 2.363 . S
H119 C127 0.929 . S
H120 C129 0.930 . S
H121 C131 0.930 . S
H122 C134 0.929 . S
H123 C137 0.930 . S
H124 C139 0.960 . S
H125 C139 0.960 . S
H126 C139 0.960 . S
C127 H119 0.929 . S
C127 C128 1.377 1_655 S
C127 C129 1.384 . S
C128 C127 1.377 1_455 S
C128 C134 1.390 . S
C129 H120 0.930 . S
C129 C127 1.384 . S
C129 C130 1.372 1_655 S
C130 C129 1.372 1_455 S
C130 C131 1.400 . S
C130 C135 1.490 . S
C131 H121 0.930 . S
C131 C130 1.400 . S
C131 C134 1.386 . S
H132 C148 0.930 . S
H133 C149 0.931 . S
C134 H122 0.929 . S
C134 C128 1.390 . S
C134 C131 1.386 . S
C135 C130 1.490 . S
C135 C137 1.395 1_455 S
C135 C138 1.403 . S
H136 C142 0.930 . S
C137 H123 0.930 . S
C137 C135 1.395 1_655 S
C137 C140 1.403 . S
C138 C135 1.403 . S
C138 C139 1.524 . S
C138 C142 1.400 . S
C139 H124 0.960 . S
C139 H125 0.960 . S
C139 H126 0.960 . S
C139 C138 1.524 . S
C140 C137 1.403 . S
C140 C141 1.399 . S
C140 C144 1.495 . S
C141 C140 1.399 . S
C141 C142 1.377 1_655 S
C141 C143 1.478 . S
C142 H136 0.930 . S
C142 C138 1.400 . S
C142 C141 1.377 1_455 S
C143 C141 1.478 . S
C143 C145 1.381 . S
C143 C149 1.383 1_655 S
C144 C140 1.495 . S
C144 H150 0.959 . S
C144 H151 0.961 . S
C144 H152 0.960 . S
C145 C143 1.381 . S
C145 C146 1.394 . S
C145 H153 0.930 . S
C146 C145 1.394 . S
C146 C147 1.383 . S
C146 H154 0.929 . S
C147 C146 1.383 . S
C147 C148 1.377 1_655 S
C148 H132 0.930 . S
C148 C147 1.377 1_455 S
C148 C149 1.379 . S
C149 H133 0.931 . S
C149 C143 1.383 1_455 S
C149 C148 1.379 . S
H150 C144 0.959 . S
H151 C144 0.961 . S
H152 C144 0.960 . S
H153 C145 0.930 . S
H154 C146 0.929 . S
H155 C163 0.929 . S
H156 C165 0.930 . S
H157 C167 0.930 . S
H158 C170 0.929 . S
H159 C173 0.930 . S
H160 C175 0.960 . S
H161 C175 0.960 . S
H162 C175 0.960 1_545 S
C163 H155 0.929 . S
C163 C164 1.377 1_565 S
C163 C165 1.384 . S
C164 C163 1.377 1_545 S
C164 C170 1.390 . S
C165 H156 0.930 . S
C165 C163 1.384 . S
C165 C166 1.372 1_565 S
C166 C165 1.372 1_545 S
C166 C167 1.400 . S
C166 C171 1.490 . S
C167 H157 0.930 . S
C167 C166 1.400 . S
C167 C170 1.386 . S
H168 C184 0.930 . S
H169 C185 0.931 . S
C170 H158 0.929 . S
C170 C164 1.390 . S
C170 C167 1.386 . S
C171 C166 1.490 . S
C171 C173 1.395 . S
C171 C174 1.403 . S
H172 C178 0.930 1_565 S
C173 H159 0.930 . S
C173 C171 1.395 . S
C173 C176 1.403 . S
C174 C171 1.403 . S
C174 C175 1.523 1_545 S
C174 C178 1.400 . S
C175 H160 0.960 . S
C175 H161 0.960 . S
C175 H162 0.960 1_565 S
C175 C174 1.523 1_565 S
C176 C173 1.403 . S
C176 C177 1.392 . S
C176 C180 1.495 . S
C177 C176 1.392 . S
C177 C178 1.385 . S
C177 C179 1.478 . S
C178 H172 0.930 1_545 S
C178 C174 1.400 . S
C178 C177 1.385 . S
C179 C177 1.478 . S
C179 C181 1.381 1_545 S
C179 C185 1.383 . S
C180 C176 1.495 . S
C180 H186 0.959 . S
C180 H187 0.961 . S
C180 H188 0.955 1_545 S
C181 C179 1.381 1_565 S
C181 C182 1.394 . S
C181 H189 0.930 . S
C182 C181 1.394 . S
C182 C183 1.383 1_565 S
C182 H190 0.929 . S
C183 C182 1.383 1_545 S
C183 C184 1.377 . S
C184 H168 0.930 . S
C184 C183 1.377 . S
C184 C185 1.379 . S
C185 H169 0.931 . S
C185 C179 1.383 . S
C185 C184 1.379 . S
H186 C180 0.959 . S
H187 C180 0.961 . S
H188 C180 0.955 1_565 S
H189 C181 0.930 . S
H190 C182 0.929 . S
H191 C199 0.929 . S
H192 C201 0.930 . S
H193 C203 0.930 . S
H194 C206 0.929 . S
H195 C209 0.930 . S
H196 C211 0.960 . S
H197 C211 0.960 . S
H198 C211 0.960 . S
C199 H191 0.929 . S
C199 C200 1.377 1_455 S
C199 C201 1.384 . S
C200 C199 1.377 1_655 S
C200 C206 1.390 . S
C201 H192 0.930 . S
C201 C199 1.384 . S
C201 C202 1.372 1_455 S
C202 C201 1.372 1_655 S
C202 C203 1.400 . S
C202 C207 1.490 . S
C203 H193 0.930 . S
C203 C202 1.400 . S
C203 C206 1.386 . S
H204 C220 0.930 . S
H205 C221 0.931 . S
C206 H194 0.929 . S
C206 C200 1.390 . S
C206 C203 1.386 . S
C207 C202 1.490 . S
C207 C209 1.395 1_655 S
C207 C210 1.403 . S
H208 C214 0.930 . S
C209 H195 0.930 . S
C209 C207 1.395 1_455 S
C209 C212 1.403 . S
C210 C207 1.403 . S
C210 C211 1.524 . S
C210 C214 1.400 . S
C211 H196 0.960 . S
C211 H197 0.960 . S
C211 H198 0.960 . S
C211 C210 1.524 . S
C212 C209 1.403 . S
C212 C213 1.392 . S
C212 C216 1.495 . S
C213 C212 1.392 . S
C213 C214 1.385 1_455 S
C213 C215 1.478 . S
C214 H208 0.930 . S
C214 C210 1.400 . S
C214 C213 1.385 1_655 S
C215 C213 1.478 . S
C215 C217 1.381 . S
C215 C221 1.383 1_455 S
C216 C212 1.495 . S
C216 H222 0.959 . S
C216 H223 0.961 . S
C216 H224 0.960 . S
C217 C215 1.381 . S
C217 C218 1.394 . S
C217 H225 0.930 . S
C218 C217 1.394 . S
C218 C219 1.383 1_455 S
C218 H226 0.929 . S
C219 C218 1.383 1_655 S
C219 C220 1.377 . S
C220 H204 0.930 . S
C220 C219 1.377 . S
C220 C221 1.379 . S
C221 H205 0.931 . S
C221 C215 1.383 1_655 S
C221 C220 1.379 . S
H222 C216 0.959 . S
H223 C216 0.961 . S
H224 C216 0.960 . S
H225 C217 0.930 . S
H226 C218 0.929 . S
H227 C235 0.929 . S
H228 C237 0.930 . S
H229 C239 0.930 . S
H230 C242 0.929 . S
H231 C245 0.930 . S
H232 C247 0.960 . S
H233 C247 0.960 1_545 S
H234 C247 0.960 . S
C235 H227 0.929 . S
C235 C236 1.377 1_545 S
C235 C237 1.384 . S
C236 C235 1.377 1_565 S
C236 C242 1.390 . S
C237 H228 0.930 . S
C237 C235 1.384 . S
C237 C238 1.356 1_545 S
C238 C237 1.356 1_565 S
C238 C239 1.417 . S
C238 C243 1.489 1_565 S
C239 H229 0.930 . S
C239 C238 1.417 . S
C239 C242 1.386 . S
H240 C256 0.930 . S
H241 C257 0.931 . S
C242 H230 0.929 . S
C242 C236 1.390 . S
C242 C239 1.386 . S
C243 C238 1.489 1_545 S
C243 C245 1.400 . S
C243 C246 1.399 1_545 S
H244 C250 0.930 . S
C245 H231 0.930 . S
C245 C243 1.400 . S
C245 C248 1.403 . S
C246 C243 1.399 1_565 S
C246 C247 1.524 . S
C246 C250 1.400 . S
C247 H232 0.960 . S
C247 H233 0.960 1_565 S
C247 H234 0.960 . S
C247 C246 1.524 . S
C248 C245 1.403 . S
C248 C249 1.392 . S
C248 C252 1.495 . S
C249 C248 1.392 . S
C249 C250 1.385 1_545 S
C249 C251 1.478 . S
C250 H244 0.930 . S
C250 C246 1.400 . S
C250 C249 1.385 1_565 S
C251 C249 1.478 . S
C251 C253 1.381 . S
C251 C257 1.383 1_545 S
C252 C248 1.495 . S
C252 H258 0.959 . S
C252 H259 0.968 . S
C252 H260 0.960 . S
C253 C251 1.381 . S
C253 C254 1.394 . S
C253 H261 0.930 . S
C254 C253 1.394 . S
C254 C255 1.383 . S
C254 H262 0.929 . S
C255 C254 1.383 . S
C255 C256 1.377 1_545 S
C256 H240 0.930 . S
C256 C255 1.377 1_565 S
C256 C257 1.379 . S
C257 H241 0.931 . S
C257 C251 1.383 1_565 S
C257 C256 1.379 . S
H258 C252 0.959 . S
H259 C252 0.968 . S
H260 C252 0.960 . S
H261 C253 0.930 . S
H262 C254 0.929 . S
H263 C271 0.929 . S
H264 C273 0.930 . S
H265 C275 0.930 1_655 S
H266 C278 0.929 1_655 S
H267 C281 0.930 . S
H268 C283 0.960 . S
H269 C283 0.960 . S
H270 C283 0.960 . S
C271 H263 0.929 . S
C271 C272 1.377 . S
C271 C273 1.384 . S
C272 C271 1.377 . S
C272 C278 1.390 . S
C273 H264 0.930 . S
C273 C271 1.384 . S
C273 C274 1.372 . S
C274 C273 1.372 . S
C274 C275 1.400 . S
C274 C279 1.490 . S
C275 H265 0.930 1_455 S
C275 C274 1.400 . S
C275 C278 1.386 . S
H276 C292 0.930 1_655 S
H277 C293 0.931 . S
C278 H266 0.929 1_455 S
C278 C272 1.390 . S
C278 C275 1.386 . S
C279 C274 1.490 . S
C279 C281 1.395 . S
C279 C282 1.403 1_455 S
H280 C286 0.930 . S
C281 H267 0.930 . S
C281 C279 1.395 . S
C281 C284 1.403 . S
C282 C279 1.403 1_655 S
C282 C283 1.524 . S
C282 C286 1.400 . S
C283 H268 0.960 . S
C283 H269 0.960 . S
C283 H270 0.960 . S
C283 C282 1.524 . S
C284 C281 1.403 . S
C284 C285 1.392 . S
C284 C288 1.495 . S
C285 C284 1.392 . S
C285 C286 1.385 1_455 S
C285 C287 1.478 . S
C286 H280 0.930 . S
C286 C282 1.400 . S
C286 C285 1.385 1_655 S
C287 C285 1.478 . S
C287 C289 1.381 . S
C287 C293 1.383 . S
C288 C284 1.495 . S
C288 H294 0.959 . S
C288 H295 0.961 . S
C288 H296 0.960 . S
C289 C287 1.381 . S
C289 C290 1.394 . S
C289 H297 0.930 . S
C290 C289 1.394 . S
C290 C291 1.383 . S
C290 H298 0.929 . S
C291 C290 1.383 . S
C291 C292 1.377 . S
C292 H276 0.930 1_455 S
C292 C291 1.377 . S
C292 C293 1.379 . S
C293 H277 0.931 . S
C293 C287 1.383 . S
C293 C292 1.379 . S
H294 C288 0.959 . S
H295 C288 0.961 . S
H296 C288 0.960 . S
H297 C289 0.930 . S
H298 C290 0.929 . S
H299 C307 0.929 . S
H300 C309 0.930 . S
H301 C311 0.930 . S
H302 C314 0.929 . S
H303 C317 0.930 . S
H304 C319 0.960 . S
H305 C319 0.960 1_565 S
H306 C319 0.960 . S
C307 H299 0.929 . S
C307 C308 1.377 1_565 S
C307 C309 1.384 . S
C308 C307 1.377 1_545 S
C308 C314 1.390 . S
C309 H300 0.930 . S
C309 C307 1.384 . S
C309 C310 1.372 1_565 S
C310 C309 1.372 1_545 S
C310 C311 1.400 . S
C310 C315 1.490 . S
C311 H301 0.930 . S
C311 C310 1.400 . S
C311 C314 1.386 . S
H312 C328 0.930 . S
H313 C329 0.931 . S
C314 H302 0.929 . S
C314 C308 1.390 . S
C314 C311 1.386 . S
C315 C310 1.490 . S
C315 C317 1.395 . S
C315 C318 1.403 . S
H316 C322 0.930 . S
C317 H303 0.930 . S
C317 C315 1.395 . S
C317 C320 1.403 . S
C318 C315 1.403 . S
C318 C319 1.524 . S
C318 C322 1.400 . S
C319 H304 0.960 . S
C319 H305 0.960 1_545 S
C319 H306 0.960 . S
C319 C318 1.524 . S
C320 C317 1.403 . S
C320 C321 1.392 . S
C320 C324 1.495 . S
C321 C320 1.392 . S
C321 C322 1.385 . S
C321 C323 1.478 . S
C322 H316 0.930 . S
C322 C318 1.400 . S
C322 C321 1.385 . S
C323 C321 1.478 . S
C323 C325 1.381 1_545 S
C323 C329 1.383 . S
C324 C320 1.495 . S
C324 H330 0.959 . S
C324 H331 0.961 . S
C324 H332 0.960 1_545 S
C325 C323 1.381 1_565 S
C325 C326 1.394 . S
C325 H333 0.930 . S
C326 C325 1.394 . S
C326 C327 1.383 1_565 S
C326 H334 0.929 . S
C327 C326 1.383 1_545 S
C327 C328 1.377 . S
C328 H312 0.930 . S
C328 C327 1.377 . S
C328 C329 1.379 . S
C329 H313 0.931 . S
C329 C323 1.383 . S
C329 C328 1.379 . S
H330 C324 0.959 . S
H331 C324 0.961 . S
H332 C324 0.960 1_565 S
H333 C325 0.930 . S
H334 C326 0.929 . S
H335 C343 0.929 . S
H336 C345 0.930 . S
H337 C347 0.930 . S
H338 C350 0.929 . S
H339 C353 0.930 . S
H340 C355 0.960 . S
H341 C355 0.960 . S
H342 C355 0.960 1_455 S
C343 H335 0.929 . S
C343 C344 1.377 . S
C343 C345 1.384 . S
C344 C343 1.377 . S
C344 C350 1.390 1_655 S
C345 H336 0.930 . S
C345 C343 1.384 . S
C345 C346 1.372 . S
C346 C345 1.372 . S
C346 C347 1.400 1_655 S
C346 C351 1.490 . S
C347 H337 0.930 . S
C347 C346 1.400 1_455 S
C347 C350 1.386 . S
H348 C364 0.930 . S
H349 C365 0.931 . S
C350 H338 0.929 . S
C350 C344 1.390 1_455 S
C350 C347 1.386 . S
C351 C346 1.490 . S
C351 C353 1.395 . S
C351 C354 1.403 . S
H352 C358 0.930 . S
C353 H339 0.930 . S
C353 C351 1.395 . S
C353 C356 1.404 . S
C354 C351 1.403 . S
C354 C355 1.524 . S
C354 C358 1.400 . S
C355 H340 0.960 . S
C355 H341 0.960 . S
C355 H342 0.960 1_655 S
C355 C354 1.524 . S
C356 C353 1.404 . S
C356 C357 1.393 . S
C356 C360 1.495 1_655 S
C357 C356 1.393 . S
C357 C358 1.387 . S
C357 C359 1.475 1_655 S
C358 H352 0.930 . S
C358 C354 1.400 . S
C358 C357 1.387 . S
C359 C357 1.475 1_455 S
C359 C361 1.381 1_455 S
C359 C365 1.383 . S
C360 C356 1.495 1_455 S
C360 H366 0.959 . S
C360 H367 0.961 . S
C360 H368 0.960 1_455 S
C361 C359 1.381 1_655 S
C361 C362 1.394 . S
C361 H369 0.930 . S
C362 C361 1.394 . S
C362 C363 1.383 1_655 S
C362 H370 0.929 . S
C363 C362 1.383 1_455 S
C363 C364 1.377 . S
C364 H348 0.930 . S
C364 C363 1.377 . S
C364 C365 1.379 . S
C365 H349 0.931 . S
C365 C359 1.383 . S
C365 C364 1.379 . S
H366 C360 0.959 . S
H367 C360 0.961 . S
H368 C360 0.960 1_655 S
H369 C361 0.930 . S
H370 C362 0.929 . S
H371 C379 0.929 . S
H372 C381 0.930 . S
H373 C383 0.930 . S
H374 C386 0.929 . S
H375 C389 0.930 . S
H376 C391 0.960 . S
H377 C391 0.960 . S
H378 C391 0.960 . S
C379 H371 0.929 . S
C379 C380 1.377 . S
C379 C381 1.384 . S
C380 C379 1.377 . S
C380 C386 1.390 1_565 S
C381 H372 0.930 . S
C381 C379 1.384 . S
C381 C382 1.372 . S
C382 C381 1.372 . S
C382 C383 1.400 1_565 S
C382 C387 1.490 . S
C383 H373 0.930 . S
C383 C382 1.400 1_545 S
C383 C386 1.386 . S
H384 C400 0.930 . S
H385 C401 0.931 . S
C386 H374 0.929 . S
C386 C380 1.390 1_545 S
C386 C383 1.386 . S
C387 C382 1.490 . S
C387 C389 1.395 . S
C387 C390 1.403 1_565 S
H388 C394 0.930 . S
C389 H375 0.930 . S
C389 C387 1.395 . S
C389 C392 1.403 . S
C390 C387 1.403 1_545 S
C390 C391 1.524 . S
C390 C394 1.400 . S
C391 H376 0.960 . S
C391 H377 0.960 . S
C391 H378 0.960 . S
C391 C390 1.524 . S
C392 C389 1.403 . S
C392 C393 1.392 . S
C392 C396 1.495 . S
C393 C392 1.392 . S
C393 C394 1.385 1_565 S
C393 C395 1.478 . S
C394 H388 0.930 . S
C394 C390 1.400 . S
C394 C393 1.385 1_545 S
C395 C393 1.478 . S
C395 C397 1.381 . S
C395 C401 1.383 1_565 S
C396 C392 1.495 . S
C396 H402 0.959 . S
C396 H403 0.961 . S
C396 H404 0.960 . S
C397 C395 1.381 . S
C397 C398 1.394 . S
C397 H405 0.930 . S
C398 C397 1.394 . S
C398 C399 1.383 1_565 S
C398 H406 0.929 . S
C399 C398 1.383 1_545 S
C399 C400 1.377 . S
C400 H384 0.930 . S
C400 C399 1.377 . S
C400 C401 1.379 . S
C401 H385 0.931 . S
C401 C395 1.383 1_545 S
C401 C400 1.379 . S
H402 C396 0.959 . S
H403 C396 0.961 . S
H404 C396 0.960 . S
H405 C397 0.930 . S
H406 C398 0.929 . S
H407 C415 0.929 . S
H408 C417 0.930 . S
H409 C419 0.930 . S
H410 C422 0.929 . S
H411 C425 0.930 . S
H412 C427 0.960 . S
H413 C427 0.960 . S
H414 C427 0.960 . S
C415 H407 0.929 . S
C415 C416 1.377 . S
C415 C417 1.384 . S
C416 C415 1.377 . S
C416 C422 1.390 1_554 S
C417 H408 0.930 . S
C417 C415 1.384 . S
C417 C418 1.372 . S
C418 C417 1.372 . S
C418 C419 1.400 1_554 S
C418 C423 1.490 . S
C419 H409 0.930 . S
C419 C418 1.400 1_556 S
C419 C422 1.386 . S
H420 C436 0.930 . S
H421 C437 0.931 . S
C422 H410 0.929 . S
C422 C416 1.390 1_556 S
C422 C419 1.386 . S
C423 C418 1.490 . S
C423 C425 1.395 1_554 S
C423 C426 1.403 . S
H424 C430 0.930 . S
C425 H411 0.930 . S
C425 C423 1.395 1_556 S
C425 C428 1.403 . S
C426 C423 1.403 . S
C426 C427 1.524 . S
C426 C430 1.400 . S
C427 H412 0.960 . S
C427 H413 0.960 . S
C427 H414 0.960 . S
C427 C426 1.524 . S
C428 C425 1.403 . S
C428 C429 1.398 . S
C428 C432 1.495 . S
C429 C428 1.398 . S
C429 C430 1.377 1_556 S
C429 C431 1.480 . S
C430 H424 0.930 . S
C430 C426 1.400 . S
C430 C429 1.377 1_554 S
C431 C429 1.480 . S
C431 C433 1.381 1_556 S
C431 C437 1.383 . S
C432 C428 1.495 . S
C432 H438 0.959 . S
C432 H439 0.961 . S
C432 H440 0.960 . S
C433 C431 1.381 1_554 S
C433 C434 1.394 . S
C433 H441 0.930 . S
C434 C433 1.394 . S
C434 C435 1.383 1_554 S
C434 H442 0.929 . S
C435 C434 1.383 1_556 S
C435 C436 1.377 . S
C436 H420 0.930 . S
C436 C435 1.377 . S
C436 C437 1.379 . S
C437 H421 0.931 . S
C437 C431 1.383 . S
C437 C436 1.379 . S
H438 C432 0.959 . S
H439 C432 0.961 . S
H440 C432 0.960 . S
H441 C433 0.930 . S
H442 C434 0.929 . S
H443 C451 0.929 . S
H444 C453 0.930 . S
H445 C455 0.930 . S
H446 C458 0.929 . S
H447 C461 0.930 . S
H448 C463 0.960 . S
H449 C463 0.956 1_554 S
H450 C463 0.960 . S
C451 H443 0.929 . S
C451 C452 1.377 1_554 S
C451 C453 1.384 . S
C452 C451 1.377 1_556 S
C452 C458 1.390 . S
C453 H444 0.930 . S
C453 C451 1.384 . S
C453 C454 1.372 1_554 S
C454 C453 1.372 1_556 S
C454 C455 1.400 . S
C454 C459 1.490 . S
C455 H445 0.930 . S
C455 C454 1.400 . S
C455 C458 1.386 . S
H456 C472 0.930 . S
H457 C473 0.931 . S
C458 H446 0.929 . S
C458 C452 1.390 . S
C458 C455 1.386 . S
C459 C454 1.490 . S
C459 C461 1.395 1_556 S
C459 C462 1.403 . S
H460 C466 0.930 . S
C461 H447 0.930 . S
C461 C459 1.395 1_554 S
C461 C464 1.403 . S
C462 C459 1.403 . S
C462 C463 1.524 . S
C462 C466 1.400 . S
C463 H448 0.960 . S
C463 H449 0.956 1_556 S
C463 H450 0.960 . S
C463 C462 1.524 . S
C464 C461 1.403 . S
C464 C465 1.391 1_554 S
C464 C468 1.495 . S
C465 C464 1.391 1_556 S
C465 C466 1.386 . S
C465 C467 1.478 1_556 S
C466 H460 0.930 . S
C466 C462 1.400 . S
C466 C465 1.386 . S
C467 C465 1.478 1_554 S
C467 C469 1.380 . S
C467 C473 1.383 1_554 S
C468 C464 1.495 . S
C468 H474 0.959 . S
C468 H475 0.961 1_554 S
C468 H476 0.960 . S
C469 C467 1.380 . S
C469 C470 1.394 . S
C469 H477 0.930 . S
C470 C469 1.394 . S
C470 C471 1.398 . S
C470 H478 0.929 . S
C471 C470 1.398 . S
C471 C472 1.362 1_554 S
C472 H456 0.930 . S
C472 C471 1.362 1_556 S
C472 C473 1.379 . S
C473 H457 0.931 . S
C473 C467 1.383 1_556 S
C473 C472 1.379 . S
H474 C468 0.959 . S
H475 C468 0.961 1_556 S
H476 C468 0.960 . S
H477 C469 0.930 . S
H478 C470 0.929 . S
H479 C487 0.929 . S
H480 C489 0.930 . S
H481 C491 0.930 . S
H482 C494 0.929 . S
H483 C497 0.930 . S
H484 C499 0.960 . S
H485 C499 0.960 . S
H486 C499 0.960 . S
C487 H479 0.929 . S
C487 C488 1.377 . S
C487 C489 1.384 . S
C488 C487 1.377 . S
C488 C494 1.390 1_556 S
C489 H480 0.930 . S
C489 C487 1.384 . S
C489 C490 1.372 . S
C490 C489 1.372 . S
C490 C491 1.400 1_556 S
C490 C495 1.490 . S
C491 H481 0.930 . S
C491 C490 1.400 1_554 S
C491 C494 1.386 . S
H492 C508 0.930 . S
H493 C509 0.931 . S
C494 H482 0.929 . S
C494 C488 1.390 1_554 S
C494 C491 1.386 . S
C495 C490 1.490 . S
C495 C497 1.395 . S
C495 C498 1.403 1_556 S
H496 C502 0.930 . S
C497 H483 0.930 . S
C497 C495 1.395 . S
C497 C500 1.403 . S
C498 C495 1.403 1_554 S
C498 C499 1.524 . S
C498 C502 1.400 . S
C499 H484 0.960 . S
C499 H485 0.960 . S
C499 H486 0.960 . S
C499 C498 1.524 . S
C500 C497 1.403 . S
C500 C501 1.392 . S
C500 C504 1.495 . S
C501 C500 1.392 . S
C501 C502 1.385 1_556 S
C501 C503 1.478 . S
C502 H496 0.930 . S
C502 C498 1.400 . S
C502 C501 1.385 1_554 S
C503 C501 1.478 . S
C503 C505 1.381 . S
C503 C509 1.383 1_556 S
C504 C500 1.495 . S
C504 H510 0.959 . S
C504 H511 0.961 . S
C504 H512 0.960 . S
C505 C503 1.381 . S
C505 C506 1.394 . S
C505 H513 0.930 . S
C506 C505 1.394 . S
C506 C507 1.383 . S
C506 H514 0.929 . S
C507 C506 1.383 . S
C507 C508 1.377 1_556 S
C508 H492 0.930 . S
C508 C507 1.377 1_554 S
C508 C509 1.379 . S
C509 H493 0.931 . S
C509 C503 1.383 1_554 S
C509 C508 1.379 . S
H510 C504 0.959 . S
H511 C504 0.961 . S
H512 C504 0.960 . S
H513 C505 0.930 . S
H514 C506 0.929 . S
H515 C523 0.929 . S
H516 C525 0.930 . S
H517 C527 0.930 . S
H518 C530 0.929 . S
H519 C533 0.930 . S
H520 C535 0.960 . S
H521 C535 0.960 1_556 S
H522 C535 0.960 . S
C523 H515 0.929 . S
C523 C524 1.377 1_556 S
C523 C525 1.384 . S
C524 C523 1.377 1_554 S
C524 C530 1.390 . S
C525 H516 0.930 . S
C525 C523 1.384 . S
C525 C526 1.372 1_556 S
C526 C525 1.372 1_554 S
C526 C527 1.400 . S
C526 C531 1.490 . S
C527 H517 0.930 . S
C527 C526 1.400 . S
C527 C530 1.386 . S
H528 C544 0.930 . S
H529 C545 0.931 . S
C530 H518 0.929 . S
C530 C524 1.390 . S
C530 C527 1.386 . S
C531 C526 1.490 . S
C531 C533 1.395 . S
C531 C534 1.403 . S
H532 C538 0.930 . S
C533 H519 0.930 . S
C533 C531 1.395 . S
C533 C536 1.403 . S
C534 C531 1.403 . S
C534 C535 1.524 . S
C534 C538 1.400 . S
C535 H520 0.960 . S
C535 H521 0.960 1_554 S
C535 H522 0.960 . S
C535 C534 1.524 . S
C536 C533 1.403 . S
C536 C537 1.392 . S
C536 C540 1.495 . S
C537 C536 1.392 . S
C537 C538 1.385 . S
C537 C539 1.478 . S
C538 H532 0.930 . S
C538 C534 1.400 . S
C538 C537 1.385 . S
C539 C537 1.478 . S
C539 C541 1.381 1_554 S
C539 C545 1.383 . S
C540 C536 1.495 . S
C540 H546 0.959 1_554 S
C540 H547 0.960 . S
C540 H548 0.961 1_554 S
C541 C539 1.381 1_556 S
C541 C542 1.394 . S
C541 H549 0.930 . S
C542 C541 1.394 . S
C542 C543 1.383 1_556 S
C542 H550 0.929 . S
C543 C542 1.383 1_554 S
C543 C544 1.377 . S
C544 H528 0.930 . S
C544 C543 1.377 . S
C544 C545 1.379 . S
C545 H529 0.931 . S
C545 C539 1.383 . S
C545 C544 1.379 . S
H546 C540 0.959 1_556 S
H547 C540 0.960 . S
H548 C540 0.961 1_556 S
H549 C541 0.930 . S
H550 C542 0.929 . S
C147 C70 1.201 1_655 S
C128 N2 1.169 . S
C183 C77 1.605 . S
C164 C39 1.599 . S
C219 C72 1.422 . S
C200 C7 1.421 . S
C255 C78 1.375 . S
C236 N35 1.330 . S
C272 N12 1.118 . S
C291 C71 1.167 . S
C327 C80 1.643 . S
C308 C30 1.643 . S
C344 C16 1.374 . S
C363 C69 1.386 . S
C380 N25 1.362 . S
C399 C79 1.409 . S
C416 C62 1.814 . S
C435 C74 1.829 . S
C452 N48 1.575 . S
C471 C73 1.624 . S
C507 C76 1.590 1_556 S
C488 N58 1.524 . S
C543 C75 1.866 . S
C524 C53 1.862 . S
