# Generated by pormake.
# Topology myd, (4,6)-cn, num edge types: 1
# Building blocks:
#     Node 0, Type 0, BuildingBlock: NAWXER_clean_sbu_0, # of connection points: 4
#     Node 1, Type 0, BuildingBlock: NAWXER_clean_sbu_0, # of connection points: 4
#     Node 2, Type 0, BuildingBlock: NAWXER_clean_sbu_0, # of connection points: 4
#     Node 3, Type 0, BuildingBlock: NAWXER_clean_sbu_0, # of connection points: 4
#     Node 4, Type 0, BuildingBlock: NAWXER_clean_sbu_0, # of connection points: 4
#     Node 5, Type 0, BuildingBlock: NAWXER_clean_sbu_0, # of connection points: 4
#     Node 6, Type 0, BuildingBlock: NAWXER_clean_sbu_0, # of connection points: 4
#     Node 7, Type 0, BuildingBlock: NAWXER_clean_sbu_0, # of connection points: 4
#     Node 8, Type 0, BuildingBlock: NAWXER_clean_sbu_0, # of connection points: 4
#     Node 9, Type 0, BuildingBlock: NAWXER_clean_sbu_0, # of connection points: 4
#     Node 10, Type 0, BuildingBlock: NAWXER_clean_sbu_0, # of connection points: 4
#     Node 11, Type 0, BuildingBlock: NAWXER_clean_sbu_0, # of connection points: 4
#     Node 12, Type 1, BuildingBlock: FUNLAD_clean_sbu_0, # of connection points: 6
#     Node 13, Type 1, BuildingBlock: FUNLAD_clean_sbu_0, # of connection points: 6
#     Node 14, Type 1, BuildingBlock: FUNLAD_clean_sbu_0, # of connection points: 6
#     Node 15, Type 1, BuildingBlock: FUNLAD_clean_sbu_0, # of connection points: 6
#     Node 16, Type 1, BuildingBlock: FUNLAD_clean_sbu_0, # of connection points: 6
#     Node 17, Type 1, BuildingBlock: FUNLAD_clean_sbu_0, # of connection points: 6
#     Node 18, Type 1, BuildingBlock: FUNLAD_clean_sbu_0, # of connection points: 6
#     Node 19, Type 1, BuildingBlock: FUNLAD_clean_sbu_0, # of connection points: 6
#     Edge 20, Type (0, 1), BuildingBlock: ZUJKAS_clean_linker_0, # of connection points: 2
#     Edge 21, Type (0, 1), BuildingBlock: ZUJKAS_clean_linker_0, # of connection points: 2
#     Edge 22, Type (0, 1), BuildingBlock: ZUJKAS_clean_linker_0, # of connection points: 2
#     Edge 23, Type (0, 1), BuildingBlock: ZUJKAS_clean_linker_0, # of connection points: 2
#     Edge 24, Type (0, 1), BuildingBlock: ZUJKAS_clean_linker_0, # of connection points: 2
#     Edge 25, Type (0, 1), BuildingBlock: ZUJKAS_clean_linker_0, # of connection points: 2
#     Edge 26, Type (0, 1), BuildingBlock: ZUJKAS_clean_linker_0, # of connection points: 2
#     Edge 27, Type (0, 1), BuildingBlock: ZUJKAS_clean_linker_0, # of connection points: 2
#     Edge 28, Type (0, 1), BuildingBlock: ZUJKAS_clean_linker_0, # of connection points: 2
#     Edge 29, Type (0, 1), BuildingBlock: ZUJKAS_clean_linker_0, # of connection points: 2
#     Edge 30, Type (0, 1), BuildingBlock: ZUJKAS_clean_linker_0, # of connection points: 2
#     Edge 31, Type (0, 1), BuildingBlock: ZUJKAS_clean_linker_0, # of connection points: 2
#     Edge 32, Type (0, 1), BuildingBlock: ZUJKAS_clean_linker_0, # of connection points: 2
#     Edge 33, Type (0, 1), BuildingBlock: ZUJKAS_clean_linker_0, # of connection points: 2
#     Edge 34, Type (0, 1), BuildingBlock: ZUJKAS_clean_linker_0, # of connection points: 2
#     Edge 35, Type (0, 1), BuildingBlock: ZUJKAS_clean_linker_0, # of connection points: 2
#     Edge 36, Type (0, 1), BuildingBlock: ZUJKAS_clean_linker_0, # of connection points: 2
#     Edge 37, Type (0, 1), BuildingBlock: ZUJKAS_clean_linker_0, # of connection points: 2
#     Edge 38, Type (0, 1), BuildingBlock: ZUJKAS_clean_linker_0, # of connection points: 2
#     Edge 39, Type (0, 1), BuildingBlock: ZUJKAS_clean_linker_0, # of connection points: 2
#     Edge 40, Type (0, 1), BuildingBlock: ZUJKAS_clean_linker_0, # of connection points: 2
#     Edge 41, Type (0, 1), BuildingBlock: ZUJKAS_clean_linker_0, # of connection points: 2
#     Edge 42, Type (0, 1), BuildingBlock: ZUJKAS_clean_linker_0, # of connection points: 2
#     Edge 43, Type (0, 1), BuildingBlock: ZUJKAS_clean_linker_0, # of connection points: 2
#     Edge 44, Type (0, 1), BuildingBlock: ZUJKAS_clean_linker_0, # of connection points: 2
#     Edge 45, Type (0, 1), BuildingBlock: ZUJKAS_clean_linker_0, # of connection points: 2
#     Edge 46, Type (0, 1), BuildingBlock: ZUJKAS_clean_linker_0, # of connection points: 2
#     Edge 47, Type (0, 1), BuildingBlock: ZUJKAS_clean_linker_0, # of connection points: 2
#     Edge 48, Type (0, 1), BuildingBlock: ZUJKAS_clean_linker_0, # of connection points: 2
#     Edge 49, Type (0, 1), BuildingBlock: ZUJKAS_clean_linker_0, # of connection points: 2
#     Edge 50, Type (0, 1), BuildingBlock: ZUJKAS_clean_linker_0, # of connection points: 2
#     Edge 51, Type (0, 1), BuildingBlock: ZUJKAS_clean_linker_0, # of connection points: 2
#     Edge 52, Type (0, 1), BuildingBlock: ZUJKAS_clean_linker_0, # of connection points: 2
#     Edge 53, Type (0, 1), BuildingBlock: ZUJKAS_clean_linker_0, # of connection points: 2
#     Edge 54, Type (0, 1), BuildingBlock: ZUJKAS_clean_linker_0, # of connection points: 2
#     Edge 55, Type (0, 1), BuildingBlock: ZUJKAS_clean_linker_0, # of connection points: 2
#     Edge 56, Type (0, 1), BuildingBlock: ZUJKAS_clean_linker_0, # of connection points: 2
#     Edge 57, Type (0, 1), BuildingBlock: ZUJKAS_clean_linker_0, # of connection points: 2
#     Edge 58, Type (0, 1), BuildingBlock: ZUJKAS_clean_linker_0, # of connection points: 2
#     Edge 59, Type (0, 1), BuildingBlock: ZUJKAS_clean_linker_0, # of connection points: 2
#     Edge 60, Type (0, 1), BuildingBlock: ZUJKAS_clean_linker_0, # of connection points: 2
#     Edge 61, Type (0, 1), BuildingBlock: ZUJKAS_clean_linker_0, # of connection points: 2
#     Edge 62, Type (0, 1), BuildingBlock: ZUJKAS_clean_linker_0, # of connection points: 2
#     Edge 63, Type (0, 1), BuildingBlock: ZUJKAS_clean_linker_0, # of connection points: 2
#     Edge 64, Type (0, 1), BuildingBlock: ZUJKAS_clean_linker_0, # of connection points: 2
#     Edge 65, Type (0, 1), BuildingBlock: ZUJKAS_clean_linker_0, # of connection points: 2
#     Edge 66, Type (0, 1), BuildingBlock: ZUJKAS_clean_linker_0, # of connection points: 2
#     Edge 67, Type (0, 1), BuildingBlock: ZUJKAS_clean_linker_0, # of connection points: 2
# Relax obj value: 0.275
# Max RMSD: 0.223
# Mean RMSD: 0.145
data_MOF--net-myd--node1-NAWXER_clean_sbu_0--node2-FUNLAD_clean_sbu_0--edge1-ZUJKAS_clean_linker_0
_symmetry_space_group_name_H-M    P1
_symmetry_Int_Tables_number       1
_symmetry_cell_setting            triclinic
loop_
_symmetry_equiv_pos_as_xyz
'x, y, z'
_cell_length_a     59.011498
_cell_length_b     58.987506
_cell_length_c     63.47114
_cell_angle_alpha  85.308691
_cell_angle_beta   84.615194
_cell_angle_gamma 88.865713
loop_
_atom_site_label
_atom_site_type_symbol
_atom_site_fract_x
_atom_site_fract_y
_atom_site_fract_z
_atom_type_partial_charge
C0 C 0.02278 0.23066 0.31983 0.0
C1 C 0.01618 0.28535 0.37437 0.0
O2 O 0.03932 0.23991 0.32728 0.0
Zn3 Zn 0.02064 0.25658 0.3481 0.0
O4 O 1.00234 0.23503 0.32716 0.0
Zn5 Zn 0.98423 0.25464 0.35026 0.0
O6 O 0.96677 0.27467 0.33183 0.0
O7 O 0.00387 0.28033 0.32726 0.0
O8 O 0.99692 0.27816 0.37003 0.0
O9 O 0.03441 0.27668 0.36599 0.0
O10 O 0.00657 0.22888 0.36871 0.0
O11 O 0.96919 0.23076 0.36902 0.0
C12 C 0.98373 0.28556 0.32241 0.0
C13 C 0.98695 0.22053 0.37494 0.0
C14 C 0.04155 0.7586 0.19635 0.0
C15 C 0.01904 0.70929 0.14459 0.0
O16 O 0.05477 0.74733 0.18397 0.0
Zn17 Zn 0.0306 0.73434 0.17055 0.0
O18 O 0.01992 0.75775 0.19582 0.0
Zn19 Zn 0.99576 0.74209 0.17844 0.0
O20 O 0.97837 0.72449 0.20139 0.0
O21 O 0.01413 0.71295 0.19673 0.0
O22 O 1.00172 0.71865 0.15433 0.0
O23 O 0.03888 0.71398 0.14893 0.0
O24 O 0.0184 0.76488 0.15414 0.0
O25 O 0.98202 0.76904 0.16455 0.0
C26 C 0.99433 0.71116 0.20698 0.0
C27 C 0.99985 0.77652 0.15357 0.0
C28 C 0.3469 0.99751 0.19772 0.0
C29 C 0.2908 0.99124 0.26025 0.0
O30 O 0.33921 0.97923 0.20763 0.0
Zn31 Zn 0.31926 0.99319 0.22938 0.0
O32 O 0.34045 0.01669 0.20452 0.0
Zn33 Zn 0.31789 0.02963 0.22916 0.0
O34 O 0.33782 0.04493 0.24603 0.0
O35 O 0.34207 0.00758 0.24889 0.0
O36 O 0.29621 0.01172 0.25367 0.0
O37 O 0.29977 0.97479 0.25049 0.0
O38 O 0.29457 0.00966 0.21075 0.0
O39 O 0.29607 0.04678 0.21257 0.0
C40 C 0.34737 0.0272 0.25414 0.0
C41 C 0.28734 0.02973 0.20542 0.0
C42 C 0.72107 0.4983 0.19627 0.0
C43 C 0.66848 0.49663 0.26096 0.0
O44 O 0.71433 0.48088 0.20819 0.0
Zn45 Zn 0.69391 0.49651 0.22803 0.0
O46 O 0.71327 0.51804 0.20053 0.0
Zn47 Zn 0.69004 0.53269 0.2241 0.0
O48 O 0.70952 0.55231 0.23722 0.0
O49 O 0.71723 0.5156 0.243 0.0
O50 O 0.67152 0.5166 0.25168 0.0
O51 O 0.67803 0.47962 0.25254 0.0
O52 O 0.66747 0.50864 0.20911 0.0
O53 O 0.66646 0.54615 0.20793 0.0
C54 C 0.72142 0.53637 0.24555 0.0
C55 C 0.65871 0.52772 0.20262 0.0
C56 C 0.22644 0.34516 0.97887 0.0
C57 C 0.28598 0.28663 0.9702 0.0
O58 O 0.23537 0.33796 0.96162 0.0
Zn59 Zn 0.25722 0.31663 0.97363 0.0
O60 O 0.23414 0.33778 0.99642 0.0
Zn61 Zn 0.2594 0.31417 0.00714 0.0
O62 O 0.28176 0.33249 0.01865 0.0
O63 O 0.28298 0.3372 0.98379 0.0
O64 O 0.28109 0.29139 0.98946 0.0
O65 O 0.27604 0.2974 0.95539 0.0
O66 O 0.23568 0.29161 0.99174 0.0
O67 O 0.2408 0.29251 0.02566 0.0
C68 C 0.29096 0.3415 1.00112 0.0
C69 C 0.231 0.28401 0.01115 0.0
C70 C 0.24919 0.73237 0.47708 0.0
C71 C 0.31107 0.67793 0.49237 0.0
O72 O 0.26281 0.72306 0.46348 0.0
Zn73 Zn 0.27971 0.70442 0.4837 0.0
O74 O 0.2507 0.72716 0.49692 0.0
Zn75 Zn 0.2707 0.70553 0.51708 0.0
O76 O 0.28435 0.72743 0.53292 0.0
O77 O 0.29621 0.72989 0.49874 0.0
O78 O 0.29932 0.68415 0.50899 0.0
O79 O 0.30545 0.68523 0.47414 0.0
O80 O 0.25436 0.68077 0.49715 0.0
O81 O 0.24827 0.68475 0.53148 0.0
C82 C 0.29669 0.73693 0.51728 0.0
C83 C 0.24371 0.67499 0.51528 0.0
C84 C 0.72614 0.84391 0.48025 0.0
C85 C 0.78772 0.78707 0.47407 0.0
O86 O 0.73537 0.83609 0.4634 0.0
Zn87 Zn 0.75747 0.81578 0.4763 0.0
O88 O 0.73371 0.83743 0.49809 0.0
Zn89 Zn 0.75918 0.81463 0.50984 0.0
O90 O 0.78067 0.83389 0.52125 0.0
O91 O 0.78235 0.83775 0.48629 0.0
O92 O 0.78238 0.79249 0.49306 0.0
O93 O 0.77708 0.79624 0.45895 0.0
O94 O 0.73634 0.79081 0.4947 0.0
O95 O 0.74086 0.79282 0.52859 0.0
C96 C 0.78985 0.84276 0.50364 0.0
C97 C 0.7315 0.78364 0.51419 0.0
C98 C 0.48478 0.78663 0.82237 0.0
C99 C 0.49016 0.72226 0.87531 0.0
O100 O 0.46816 0.77556 0.83219 0.0
Zn101 Zn 0.48644 0.75596 0.85032 0.0
O102 O 0.50515 0.78166 0.8267 0.0
Zn103 Zn 0.52276 0.75829 0.8471 0.0
O104 O 0.54101 0.74163 0.82608 0.0
O105 O 0.50404 0.73599 0.82709 0.0
O106 O 0.50957 0.73072 0.86843 0.0
O107 O 0.4721 0.73223 0.86975 0.0
O108 O 0.49964 0.78 0.86946 0.0
O109 O 0.53708 0.7788 0.86409 0.0
C110 C 0.52438 0.73184 0.81931 0.0
C111 C 0.5191 0.78743 0.87298 0.0
C112 C 0.49134 0.21306 0.70232 0.0
C113 C 0.49875 0.27625 0.64658 0.0
O114 O 0.47554 0.22611 0.6959 0.0
Zn115 Zn 0.49359 0.24287 0.67253 0.0
O116 O 0.51137 0.21465 0.69257 0.0
Zn117 Zn 0.52883 0.23504 0.66663 0.0
O118 O 0.55183 0.24837 0.68129 0.0
O119 O 0.51658 0.26037 0.68972 0.0
O120 O 0.51733 0.26495 0.64865 0.0
O121 O 0.48035 0.26879 0.65659 0.0
O122 O 0.50108 0.21812 0.64988 0.0
O123 O 0.53837 0.21375 0.64612 0.0
C124 C 0.53799 0.26117 0.69158 0.0
C125 C 0.51889 0.20849 0.64125 0.0
C126 C 0.78411 0.52779 0.70842 0.0
C127 C 0.84345 0.52628 0.75785 0.0
O128 O 0.79261 0.54498 0.71553 0.0
Zn129 Zn 0.81428 0.52814 0.73244 0.0
O130 O 0.79143 0.50779 0.71397 0.0
Zn131 Zn 0.81621 0.49176 0.73297 0.0
O132 O 0.79707 0.47319 0.75411 0.0
O133 O 0.79211 0.51009 0.75657 0.0
O134 O 0.83841 0.50656 0.75268 0.0
O135 O 0.83391 0.54383 0.7494 0.0
O136 O 0.83713 0.51533 0.70796 0.0
O137 O 0.83653 0.47786 0.71145 0.0
C138 C 0.78713 0.48954 0.76333 0.0
C139 C 0.84392 0.49616 0.70136 0.0
C140 C 0.22048 0.99717 0.69584 0.0
C141 C 0.16631 0.99516 0.75942 0.0
O142 O 0.21311 0.97971 0.70733 0.0
Zn143 Zn 0.19238 0.99535 0.72698 0.0
O144 O 0.21283 0.01694 0.70017 0.0
Zn145 Zn 0.18897 0.03151 0.72326 0.0
O146 O 0.20813 0.05078 0.73707 0.0
O147 O 0.21534 0.01397 0.74281 0.0
O148 O 0.16951 0.01527 0.75045 0.0
O149 O 0.17601 0.97828 0.75091 0.0
O150 O 0.16636 0.00791 0.70777 0.0
O151 O 0.16639 0.04545 0.70614 0.0
C152 C 0.21959 0.03466 0.74565 0.0
C153 C 0.15822 0.02716 0.70096 0.0
C154 C 0.74634 0.17547 0.01854 0.0
C155 C 0.79951 0.23713 0.02115 0.0
O156 O 0.75099 0.18487 0.03492 0.0
Zn157 Zn 0.77347 0.20577 0.02074 0.0
O158 O 0.7568 0.18164 1.00042 0.0
Zn159 Zn 0.78181 0.20567 0.98711 0.0
O160 O 0.80736 0.18678 0.97662 0.0
O161 O 0.8018 0.18448 0.01154 0.0
O162 O 0.79858 0.23063 0.00247 0.0
O163 O 0.78763 0.22714 0.03683 0.0
O164 O 0.75306 0.22794 1.00155 0.0
O165 O 0.7643 0.22491 0.96774 0.0
C166 C 0.81323 0.17879 0.99456 0.0
C167 C 0.75103 0.23377 0.9819 0.0
C168 C 0.10135 0.03537 0.07663 0.0
N169 N 0.0769 0.03332 0.01648 0.0
C170 C 0.09847 0.03708 0.00747 0.0
C171 C 0.10516 0.03046 0.98716 0.0
C172 C 0.08947 0.02 0.9758 0.0
C173 C 0.0674 0.016 0.98566 0.0
C174 C 0.06147 0.02279 0.00609 0.0
Zn175 Zn 0.06736 0.04505 0.04566 0.0
C176 C 0.04144 0.00882 0.07521 0.0
N177 N 0.04679 0.06938 0.10627 0.0
C178 C 0.06449 0.0799 0.11357 0.0
C179 C 0.02569 0.0694 0.11701 0.0
C180 C 0.02176 0.0809 0.13555 0.0
C181 C 0.03971 0.09258 0.1428 0.0
C182 C 0.06134 0.09153 0.13178 0.0
Zn183 Zn 0.05447 0.05629 0.07737 0.0
O184 O 0.09936 0.03388 0.05701 0.0
C185 C 0.0815 0.09198 0.04856 0.0
O186 O 0.08488 0.04322 0.08822 0.0
H187 H 0.01181 0.06105 0.1109 0.0
H188 H 0.1105 0.0455 0.01595 0.0
H189 H 0.08115 0.07992 0.10492 0.0
O190 O 0.08237 0.07702 0.0352 0.0
O191 O 0.07078 0.08762 0.06668 0.0
H192 H 0.04438 0.01999 0.0135 0.0
O193 O 0.02382 0.06908 0.06617 0.0
O194 O 0.03534 0.05725 0.03495 0.0
O195 O 0.03882 0.02475 0.08766 0.0
O196 O 0.05242 0.01275 0.05701 0.0
C197 C 0.02022 0.0669 0.04699 0.0
H198 H 0.12247 0.03356 0.98043 0.0
H199 H 0.05462 0.00825 0.9775 0.0
H200 H 0.0048 0.08137 0.14367 0.0
H201 H 0.07571 0.09996 0.13702 0.0
C202 C 0.92346 0.47557 0.0572 0.0
N203 N 0.95397 0.48352 0.99428 0.0
C204 C 0.93383 0.47716 0.98785 0.0
C205 C 0.9279 0.48404 0.96753 0.0
C206 C 0.94267 0.49786 0.95363 0.0
C207 C 0.96306 0.50479 0.96081 0.0
C208 C 0.96848 0.49725 0.98129 0.0
Zn209 Zn 0.96176 0.47062 0.0239 0.0
C210 C 0.98234 0.50511 0.04839 0.0
N211 N 0.97669 0.44237 0.08533 0.0
C212 C 0.95946 0.4294 0.09534 0.0
C213 C 0.99618 0.44519 0.09469 0.0
C214 C 0.9989 0.43438 0.11483 0.0
C215 C 0.98148 0.42047 0.12514 0.0
C216 C 0.96151 0.41829 0.11522 0.0
Zn217 Zn 0.971 0.45641 0.05568 0.0
O218 O 0.92806 0.4799 0.0373 0.0
C219 C 0.94962 0.42201 0.03208 0.0
O220 O 0.9386 0.46627 0.06801 0.0
H221 H 0.00964 0.4556 0.08648 0.0
H222 H 0.92239 0.46644 0.99843 0.0
H223 H 0.94399 0.42746 0.08784 0.0
O224 O 0.94925 0.43844 0.01789 0.0
O225 O 0.95822 0.42495 0.04918 0.0
H226 H 0.98442 0.50209 0.98668 0.0
O227 O 0.00338 0.44677 0.04317 0.0
O228 O 0.99572 0.46061 0.01135 0.0
O229 O 0.98348 0.488 0.06184 0.0
O230 O 0.9741 0.50279 0.03084 0.0
C231 C 0.00957 0.45066 0.0235 0.0
H232 H 0.91187 0.47859 0.96273 0.0
H233 H 0.97493 0.51539 0.95052 0.0
H234 H 0.01458 0.43644 0.12204 0.0
H235 H 0.94751 0.40809 0.12279 0.0
C236 C 0.03367 0.98577 0.41964 0.0
N237 N 0.04669 0.92891 0.38444 0.0
C238 C 0.02707 0.93175 0.37478 0.0
C239 C 0.02627 0.92547 0.35404 0.0
C240 C 0.04596 0.91659 0.34329 0.0
C241 C 0.06575 0.91367 0.35382 0.0
C242 C 0.06573 0.91988 0.37439 0.0
Zn243 Zn 0.05088 0.9394 0.41357 0.0
C244 C 0.09614 0.9627 0.41015 0.0
N245 N 0.06576 0.96126 0.47264 0.0
C246 C 0.04857 0.97206 0.48382 0.0
C247 C 0.08683 0.95888 0.47962 0.0
C248 C 0.09134 0.96785 0.49843 0.0
C249 C 0.07399 0.97936 0.51015 0.0
C250 C 0.05232 0.98125 0.50274 0.0
Zn251 Zn 0.06007 0.94992 0.44425 0.0
O252 O 0.03304 0.97066 0.40649 0.0
C253 C 0.01433 0.92636 0.44663 0.0
O254 O 0.0441 0.98135 0.43613 0.0
H255 H 0.10022 0.95019 0.47049 0.0
H256 H 0.01217 0.93907 0.38306 0.0
H257 H 0.03198 0.97387 0.4779 0.0
O258 O 0.02026 0.92439 0.42708 0.0
O259 O 0.02756 0.93634 0.45758 0.0
H260 H 0.0812 0.91772 0.38223 0.0
O261 O 0.07635 0.91863 0.4522 0.0
O262 O 0.06937 0.90832 0.42111 0.0
O263 O 0.09255 0.96312 0.43019 0.0
O264 O 0.08107 0.95458 0.40012 0.0
C265 C 0.07852 0.90413 0.4384 0.0
H266 H 0.01062 0.92776 0.34643 0.0
H267 H 0.08111 0.90629 0.34632 0.0
H268 H 0.1082 0.96568 0.50379 0.0
H269 H 0.03854 0.99012 0.51123 0.0
C270 C 0.93328 0.59203 0.45369 0.0
N271 N 0.99851 0.5642 0.4598 0.0
C272 C 0.00829 0.58452 0.45306 0.0
C273 C 0.02878 0.59042 0.46039 0.0
C274 C 0.03915 0.57535 0.47497 0.0
C275 C 0.02867 0.55454 0.48172 0.0
C276 C 0.00832 0.54921 0.47379 0.0
Zn277 Zn 0.96831 0.5561 0.44923 0.0
C278 C 0.93739 0.5326 0.48506 0.0
N279 N 0.90534 0.53766 0.42852 0.0
C280 C 0.89564 0.55535 0.41735 0.0
C281 C 0.8954 0.51686 0.43147 0.0
C282 C 0.87504 0.51324 0.4226 0.0
C283 C 0.86483 0.53137 0.41104 0.0
C284 C 0.87529 0.55263 0.40865 0.0
Zn285 Zn 0.93568 0.54456 0.43933 0.0
O286 O 0.95426 0.58896 0.45625 0.0
C287 C 0.9657 0.56911 0.40351 0.0
O288 O 0.9223 0.57605 0.4474 0.0
H289 H 0.90347 0.50301 0.44033 0.0
H290 H 1.00012 0.59625 0.44205 0.0
H291 H 0.90395 0.57163 0.41469 0.0
O292 O 0.97933 0.57003 0.41779 0.0
O293 O 0.94683 0.55909 0.40827 0.0
H294 H 1.00032 0.53309 0.47886 0.0
O295 O 0.94924 0.51292 0.43168 0.0
O296 O 0.98187 0.52298 0.44188 0.0
O297 O 0.92464 0.53049 0.47027 0.0
O298 O 0.9564 0.54254 0.48064 0.0
C299 C 0.96981 0.50813 0.43477 0.0
H300 H 0.03625 0.60674 0.45497 0.0
H301 H 0.03628 0.54239 0.4928 0.0
H302 H 0.8675 0.49653 0.42453 0.0
H303 H 0.86832 0.56686 0.39933 0.0
C304 C 0.42347 0.97249 0.55697 0.0
N305 N 0.45316 0.98208 0.49378 0.0
C306 C 0.43196 0.97795 0.48832 0.0
C307 C 0.42539 0.98606 0.46851 0.0
C308 C 0.44076 0.99852 0.45398 0.0
C309 C 0.46256 1.00262 0.46001 0.0
C310 C 0.46841 0.99426 0.48012 0.0
Zn311 Zn 0.46134 0.96829 0.52297 0.0
C312 C 0.48265 1.00176 0.54786 0.0
N313 N 0.47704 0.93835 0.58356 0.0
C314 C 0.46033 0.9246 0.59341 0.0
C315 C 0.49623 0.94206 0.59307 0.0
C316 C 0.49914 0.93155 0.61328 0.0
C317 C 0.48223 0.91699 0.62349 0.0
C318 C 0.46263 0.91367 0.61333 0.0
Zn319 Zn 0.47088 0.95304 0.55429 0.0
O320 O 0.42801 0.97775 0.5372 0.0
C321 C 0.44881 0.91971 0.53007 0.0
O322 O 0.43856 0.9624 0.56732 0.0
H323 H 0.50925 0.95313 0.585 0.0
H324 H 0.42014 0.96803 0.49924 0.0
H325 H 0.44501 0.9221 0.58586 0.0
O326 O 0.44812 0.93666 0.51645 0.0
O327 O 0.45802 0.92186 0.54703 0.0
H328 H 0.48519 0.99734 0.48476 0.0
O329 O 0.50321 0.94386 0.54122 0.0
O330 O 0.495 0.95813 0.50971 0.0
O331 O 0.48346 0.98442 0.56108 0.0
O332 O 0.47435 0.99995 0.53026 0.0
C333 C 0.5091 0.9481 0.52154 0.0
H334 H 0.40858 0.98209 0.46445 0.0
H335 H 0.4749 0.01224 0.44933 0.0
H336 H 0.5145 0.93449 0.62068 0.0
H337 H 0.44903 0.90291 0.62085 0.0
C338 C 0.5992 0.53543 0.57813 0.0
N339 N 0.57533 0.53566 0.5176 0.0
C340 C 0.59686 0.53976 0.50861 0.0
C341 C 0.60383 0.53277 0.48848 0.0
C342 C 0.58853 0.52142 0.47742 0.0
C343 C 0.56645 0.51729 0.48716 0.0
C344 C 0.56019 0.52457 0.50734 0.0
Zn345 Zn 0.56556 0.54665 0.547 0.0
C346 C 0.53906 0.50985 0.57508 0.0
N347 N 0.54455 0.56877 0.60848 0.0
C348 C 0.56231 0.57795 0.61692 0.0
C349 C 0.52322 0.56881 0.61876 0.0
C350 C 0.51924 0.57852 0.63827 0.0
C351 C 0.53748 0.58791 0.64725 0.0
C352 C 0.55919 0.58744 0.63631 0.0
Zn353 Zn 0.55258 0.55686 0.57909 0.0
O354 O 0.59729 0.53456 0.55842 0.0
C355 C 0.5801 0.59316 0.55153 0.0
O356 O 0.58278 0.54319 0.58983 0.0
H357 H 0.50927 0.56164 0.61172 0.0
H358 H 0.60862 0.54866 0.51699 0.0
H359 H 0.57906 0.57839 0.60842 0.0
O360 O 0.581 0.57862 0.53776 0.0
O361 O 0.56915 0.5884 0.56951 0.0
H362 H 0.54318 0.52141 0.51478 0.0
O363 O 0.52204 0.57023 0.56781 0.0
O364 O 0.53394 0.5596 0.53622 0.0
O365 O 0.5368 0.52504 0.58832 0.0
O366 O 0.55001 0.51446 0.557 0.0
C367 C 0.51869 0.56882 0.54844 0.0
H368 H 0.6209 0.53664 0.4815 0.0
H369 H 0.55416 0.5084 0.47934 0.0
H370 H 0.5022 0.57868 0.64624 0.0
H371 H 0.5736 0.59497 0.64238 0.0
C372 C 0.53577 0.48764 0.9256 0.0
N373 N 0.55177 0.42987 0.89225 0.0
C374 C 0.53194 0.42691 0.88352 0.0
C375 C 0.53202 0.41518 0.86517 0.0
C376 C 0.5527 0.40657 0.85598 0.0
C377 C 0.57288 0.41099 0.86476 0.0
C378 C 0.572 0.4224 0.88303 0.0
Zn379 Zn 0.55365 0.44223 0.92107 0.0
C380 C 0.59846 0.46575 0.92001 0.0
N381 N 0.56463 0.46399 0.98111 0.0
C382 C 0.54734 0.47687 0.98973 0.0
C383 C 0.584 0.45994 0.99089 0.0
C384 C 0.5866 0.46922 0.01004 0.0
C385 C 0.56927 0.48318 0.01903 0.0
C386 C 0.5494 0.48685 0.0086 0.0
Zn387 Zn 0.56126 0.45179 0.95251 0.0
O388 O 0.53534 0.47245 0.91252 0.0
C389 C 0.51588 0.42834 0.95272 0.0
O390 O 0.54572 0.48324 0.94241 0.0
H391 H 0.59753 0.44964 0.98376 0.0
H392 H 0.51603 0.43281 0.89121 0.0
H393 H 0.53199 0.47976 0.98179 0.0
O394 O 0.52298 0.42645 0.9334 0.0
O395 O 0.52826 0.43838 0.96439 0.0
H396 H 0.5876 0.42437 0.8903 0.0
O397 O 0.57709 0.42061 0.96201 0.0
O398 O 0.57267 0.41198 0.9298 0.0
O399 O 0.5944 0.46466 0.94011 0.0
O400 O 0.58374 0.45865 0.90895 0.0
C401 C 0.58055 0.40694 0.94757 0.0
H402 H 0.51606 0.41204 0.85885 0.0
H403 H 0.58923 0.40506 0.85794 0.0
H404 H 0.60202 0.46541 0.01768 0.0
H405 H 0.53569 0.49768 0.01466 0.0
C406 C 0.43466 0.09424 0.95189 0.0
N407 N 0.50047 0.0676 0.95568 0.0
C408 C 0.50853 0.08897 0.95047 0.0
C409 C 0.52827 0.09584 0.95851 0.0
C410 C 0.5399 0.08057 0.97198 0.0
C411 C 0.5315 0.05845 0.9767 0.0
C412 C 0.5116 0.05232 0.96839 0.0
Zn413 Zn 0.47024 0.05894 0.94554 0.0
C414 C 0.44058 0.03432 0.98173 0.0
N415 N 0.40671 0.04014 0.92639 0.0
C416 C 0.39614 0.05786 0.91608 0.0
C417 C 0.39753 0.01899 0.92887 0.0
C418 C 0.37709 0.01502 0.92028 0.0
C419 C 0.36604 0.03313 0.90945 0.0
C420 C 0.37571 0.05477 0.90763 0.0
Zn421 Zn 0.43724 0.04743 0.93653 0.0
O422 O 0.45594 0.09147 0.95288 0.0
C423 C 0.4659 0.07312 0.90038 0.0
O424 O 0.42319 0.0782 0.94632 0.0
H425 H 0.40628 0.00513 0.93707 0.0
H426 H 0.49944 0.10083 0.9403 0.0
H427 H 0.40385 0.07445 0.91383 0.0
O428 O 0.48043 0.07327 0.91397 0.0
O429 O 0.44698 0.0634 0.90577 0.0
H430 H 0.50482 0.03546 0.97242 0.0
O431 O 0.45149 0.01651 0.92711 0.0
O432 O 0.48404 0.02614 0.93778 0.0
O433 O 0.42763 0.03195 0.96716 0.0
O434 O 0.45918 0.04496 0.97712 0.0
C435 C 0.4721 0.01166 0.93002 0.0
H436 H 0.53438 0.11295 0.95421 0.0
H437 H 0.53987 0.04621 0.98713 0.0
H438 H 0.37017 0.99803 0.9218 0.0
H439 H 0.3681 0.06904 0.89888 0.0
H440 H 0.02063 0.19677 0.39386 0.0
H441 H 0.02235 0.15578 0.40282 0.0
H442 H 0.9531 0.14975 0.38785 0.0
H443 H 0.95112 0.19096 0.37888 0.0
H444 H 0.96629 0.12044 0.4248 0.0
H445 H 0.02526 0.11446 0.35201 0.0
H446 H 0.0337 0.13458 0.36947 0.0
H447 H 0.00785 0.13936 0.35679 0.0
C448 C 0.00554 0.18686 0.39294 0.0
C449 C 0.98581 0.19713 0.38542 0.0
C450 C 0.00662 0.1634 0.39795 0.0
C451 C 0.98805 0.14972 0.39549 0.0
C452 C 0.96768 0.16004 0.38967 0.0
H453 H 0.01332 1.00356 0.38452 0.0
H454 H 0.99819 0.04235 0.37811 0.0
C455 C 0.96655 0.18361 0.38467 0.0
C456 C 0.99071 0.12461 0.39743 0.0
H457 H 0.02235 0.08146 0.37633 0.0
C458 C 0.97835 0.11184 0.41411 0.0
C459 C 0.00608 0.11338 0.38315 0.0
C460 C 0.01884 0.12608 0.36421 0.0
C461 C 0.98186 0.08822 0.41752 0.0
C462 C 0.99837 0.07723 0.40407 0.0
C463 C 0.00983 0.08988 0.38675 0.0
C464 C 0.00539 0.05313 0.40856 0.0
C465 C 0.96798 0.07529 0.4356 0.0
C466 C 0.01451 0.04633 0.42773 0.0
C467 C 0.02315 0.02432 0.4314 0.0
C468 C 0.02306 0.00857 0.4159 0.0
C469 C 0.0136 0.01525 0.39679 0.0
C470 C 0.00495 0.03739 0.39312 0.0
H471 H 0.95148 0.08406 0.43959 0.0
H472 H 0.96456 0.05773 0.43175 0.0
H473 H 0.97752 0.07424 0.44992 0.0
H474 H 0.0156 0.05829 0.43966 0.0
H475 H 0.03033 0.01982 0.4463 0.0
H476 H 0.9801 0.3066 0.39477 0.0
H477 H 0.97936 0.34376 0.40887 0.0
H478 H 0.05229 0.34792 0.396 0.0
H479 H 0.05314 0.31072 0.38121 0.0
H480 H 0.99865 0.36235 0.44061 0.0
H481 H 0.03098 0.40438 0.36209 0.0
H482 H 0.0222 0.3751 0.36531 0.0
H483 H 0.04924 0.38283 0.3733 0.0
C484 C 0.99608 0.3152 0.39515 0.0
C485 C 0.01666 0.30574 0.38659 0.0
C486 C 0.99562 0.33651 0.40326 0.0
C487 C 0.01569 0.34891 0.40305 0.0
C488 C 0.03651 0.33892 0.39584 0.0
H489 H 0.0142 0.49276 0.43478 0.0
H490 H 0.02875 0.45424 0.42863 0.0
C491 C 0.03699 0.31753 0.3876 0.0
C492 C 0.0142 0.3727 0.40933 0.0
H493 H 0.01996 0.42813 0.38925 0.0
C494 C 0.00364 0.37671 0.42948 0.0
C495 C 0.02063 0.3915 0.39477 0.0
C496 C 0.03123 0.38837 0.37259 0.0
C497 C 0.99859 0.39889 0.43515 0.0
C498 C 0.00422 0.41756 0.42031 0.0
C499 C 0.01579 0.41371 0.40059 0.0
C500 C 0.99586 0.44086 0.4241 0.0
C501 C 0.98659 0.40228 0.45673 0.0
C502 C 0.97267 0.44607 0.42326 0.0
C503 C 0.96439 0.46796 0.42652 0.0
C504 C 0.97911 0.48514 0.4308 0.0
C505 C 1.00242 0.47991 0.43155 0.0
C506 C 0.01075 0.45795 0.42806 0.0
H507 H 0.9878 0.38687 0.46789 0.0
H508 H 0.99383 0.41692 0.46364 0.0
H509 H 0.96831 0.40607 0.45508 0.0
H510 H 0.96095 0.43315 0.42002 0.0
H511 H 0.94634 0.47132 0.42585 0.0
H512 H 0.03586 0.79725 0.13 0.0
H513 H 0.03891 0.83699 0.11616 0.0
H514 H 0.96869 0.84875 0.13819 0.0
H515 H 0.9654 0.80877 0.15227 0.0
H516 H 0.98449 0.86983 0.09506 0.0
H517 H 0.03916 0.88877 0.1579 0.0
H518 H 0.0481 0.86458 0.14359 0.0
H519 H 0.02155 0.86385 0.15995 0.0
C520 C 0.0209 0.80811 0.1317 0.0
C521 C 1.00039 0.79974 0.1424 0.0
C522 C 0.02274 0.83091 0.12384 0.0
C523 C 0.00415 0.84592 0.12644 0.0
C524 C 0.98329 0.83746 0.13612 0.0
H525 H 0.01965 0.99379 0.11378 0.0
H526 H 0.00822 0.95492 0.12609 0.0
C527 C 0.98143 0.81459 0.14411 0.0
C528 C 0.00698 0.87055 0.11978 0.0
H529 H 0.03626 0.91736 0.12966 0.0
C530 C 0.99567 0.88029 0.10269 0.0
C531 C 0.02133 0.88426 0.12995 0.0
C532 C 0.03311 0.87496 0.14899 0.0
C533 C 0.99895 0.90321 0.09506 0.0
C534 C 0.0141 0.91666 0.10464 0.0
C535 C 0.0248 0.90706 0.12218 0.0
C536 C 0.01953 0.94057 0.09654 0.0
C537 C 0.98605 0.91285 0.07688 0.0
C538 C 0.0297 0.94555 0.0758 0.0
C539 C 0.03626 0.96778 0.0687 0.0
C540 C 0.03293 0.98556 0.08223 0.0
C541 C 0.02244 0.98058 0.10289 0.0
C542 C 0.01591 0.95833 0.10999 0.0
H543 H 0.97065 0.90276 0.07542 0.0
H544 H 0.98079 0.93079 0.07887 0.0
H545 H 0.9972 0.91241 0.06183 0.0
H546 H 0.03313 0.93211 0.06526 0.0
H547 H 0.04438 0.97092 0.05273 0.0
H548 H 0.05134 0.68166 0.12575 0.0
H549 H 0.04514 0.65011 0.10443 0.0
H550 H 0.97331 0.66612 0.108 0.0
H551 H 0.97927 0.69741 0.12975 0.0
H552 H 0.98109 0.62232 0.11972 0.0
H553 H 0.03208 0.64543 0.04357 0.0
H554 H 0.04834 0.64639 0.06598 0.0
H555 H 0.02467 0.66572 0.06298 0.0
C556 C 0.03427 0.67874 0.12169 0.0
C557 C 0.01577 0.692 0.12954 0.0
C558 C 0.03078 0.66077 0.10935 0.0
C559 C 0.00881 0.65592 0.10437 0.0
C560 C 0.99044 0.66963 0.11157 0.0
H561 H 0.97524 0.54671 0.02719 0.0
H562 H 0.98183 0.58422 0.03939 0.0
C563 C 0.99387 0.6875 0.12401 0.0
C564 C 0.00466 0.63515 0.09369 0.0
H565 H 0.02144 0.60615 0.0503 0.0
C566 C 0.98972 0.61894 0.10442 0.0
C567 C 0.01574 0.63081 0.07363 0.0
C568 C 0.03092 0.64812 0.06076 0.0
C569 C 0.98614 0.59821 0.09602 0.0
C570 C 0.99821 0.59332 0.07656 0.0
C571 C 0.0125 0.60983 0.06539 0.0
C572 C 0.99642 0.57091 0.06796 0.0
C573 C 0.96946 0.58169 0.10809 0.0
C574 C 0.00321 0.55112 0.07961 0.0
C575 C 0.99941 0.52976 0.07278 0.0
C576 C 0.98892 0.52777 0.05402 0.0
C577 C 0.98329 0.54767 0.04174 0.0
C578 C 0.98703 0.5691 0.04867 0.0
H579 H 0.95722 0.59035 0.11927 0.0
H580 H 0.95973 0.57288 0.09709 0.0
H581 H 0.97893 0.56865 0.11751 0.0
H582 H 0.01092 0.5522 0.09432 0.0
H583 H 0.00418 0.51479 0.0825 0.0
H584 H 0.35587 0.96199 0.17241 0.0
H585 H 0.37471 0.96421 0.13613 0.0
H586 H 0.38889 0.03502 0.14041 0.0
H587 H 0.37009 0.03304 0.17635 0.0
H588 H 0.36591 0.02677 0.10538 0.0
H589 H 0.44201 0.97032 0.11125 0.0
H590 H 0.41531 0.95829 0.12235 0.0
H591 H 0.42675 0.98167 0.13417 0.0
C592 C 0.36346 0.97788 0.16579 0.0
C593 C 0.36136 0.99736 0.17727 0.0
C594 C 0.37426 0.97912 0.14505 0.0
C595 C 0.38326 0.99978 0.13557 0.0
C596 C 0.38204 0.01891 0.14738 0.0
H597 H 0.46312 0.03828 0.0171 0.0
H598 H 0.44935 0.02789 0.05418 0.0
C599 C 0.37128 0.01772 0.16798 0.0
C600 C 0.39211 1.00229 0.1128 0.0
H601 H 0.43466 0.98556 0.0768 0.0
C602 C 0.38091 0.0177 0.09912 0.0
C603 C 0.41176 0.99058 0.10471 0.0
C604 C 0.42484 0.97439 0.11885 0.0
C605 C 0.38884 0.02182 0.07763 0.0
C606 C 0.40834 0.00993 0.06944 0.0
C607 C 0.4196 0.9945 0.08308 0.0
C608 C 0.4176 0.01403 0.04688 0.0
C609 C 0.3766 0.03933 0.064 0.0
C610 C 0.40459 0.00914 0.03044 0.0
C611 C 0.41237 0.0151 0.00924 0.0
C612 C 0.43338 0.02602 0.00404 0.0
C613 C 0.44682 0.03 0.02052 0.0
C614 C 0.43901 0.02402 0.04174 0.0
H615 H 0.36527 0.05053 0.0737 0.0
H616 H 0.38892 0.05012 0.05354 0.0
H617 H 0.36595 0.03054 0.05376 0.0
H618 H 0.38818 1.00112 0.03404 0.0
H619 H 0.40164 0.01163 0.99697 0.0
H620 H 0.63307 0.56404 0.18787 0.0
H621 H 0.60612 0.5642 0.16067 0.0
H622 H 0.6185 0.49234 0.156 0.0
H623 H 0.64436 0.49186 0.18345 0.0
H624 H 0.61493 0.55666 0.1214 0.0
H625 H 0.55188 0.49324 0.15416 0.0
H626 H 0.57126 0.50507 0.17061 0.0
H627 H 0.57935 0.48041 0.15638 0.0
C628 C 0.62959 0.54821 0.18134 0.0
C629 C 0.64082 0.52794 0.18783 0.0
C630 C 0.61418 0.54832 0.16584 0.0
C631 C 0.60985 0.52818 0.1566 0.0
C632 C 0.6208 0.50793 0.1634 0.0
H633 H 0.60845 0.49905 0.03237 0.0
H634 H 0.61341 0.5144 0.0659 0.0
C635 C 0.63587 0.50774 0.17899 0.0
C636 C 0.59638 0.5284 0.13802 0.0
H637 H 0.56169 0.49408 0.11519 0.0
C638 C 0.60275 0.5434 0.12022 0.0
C639 C 0.57983 0.51173 0.13652 0.0
C640 C 0.57004 0.49694 0.15559 0.0
C641 C 0.59494 0.5405 0.10043 0.0
C642 C 0.58121 0.52156 0.09829 0.0
C643 C 0.57282 0.50819 0.11658 0.0
C644 C 0.57761 0.5137 0.07726 0.0
C645 C 0.60211 0.55739 0.08198 0.0
C646 C 0.55595 0.50722 0.0727 0.0
C647 C 0.55319 0.49738 0.05383 0.0
C648 C 0.57202 0.49402 0.03899 0.0
C649 C 0.59359 0.50096 0.04348 0.0
C650 C 0.59639 0.51034 0.06251 0.0
H651 H 0.60327 0.57472 0.08742 0.0
H652 H 0.6193 0.55265 0.07493 0.0
H653 H 0.59005 0.55795 0.06953 0.0
H654 H 0.54123 0.50935 0.08394 0.0
H655 H 0.53636 0.49191 0.05117 0.0
H656 H 0.35322 0.06298 0.27823 0.0
H657 H 0.37303 0.06195 0.31059 0.0
H658 H 0.39527 0.99307 0.30148 0.0
H659 H 0.37538 0.99384 0.26946 0.0
H660 H 0.37244 0.99758 0.34059 0.0
H661 H 0.43991 0.06257 0.32357 0.0
H662 H 0.41187 0.07235 0.31808 0.0
H663 H 0.42585 0.05087 0.30288 0.0
C664 C 0.36282 0.04784 0.28283 0.0
C665 C 0.3626 0.02845 0.27132 0.0
C666 C 0.37419 0.04728 0.30132 0.0
C667 C 0.38571 0.02745 0.30843 0.0
C668 C 0.38648 0.00855 0.29632 0.0
H669 H 0.46621 0.99737 0.41557 0.0
H670 H 0.45345 0.00634 0.38012 0.0
C671 C 0.37509 0.00904 0.27798 0.0
C672 C 0.39484 0.0253 0.32956 0.0
H673 H 0.43341 0.04688 0.35936 0.0
C674 C 0.38581 0.00834 0.34465 0.0
C675 C 0.41237 0.03926 0.33481 0.0
C676 C 0.42326 0.05717 0.31896 0.0
C677 C 0.39369 0.00501 0.36485 0.0
C678 C 0.41085 0.01928 0.37031 0.0
C679 C 0.42011 0.03612 0.35519 0.0
C680 C 0.41943 0.01657 0.39163 0.0
C681 C 0.38383 0.98596 0.38009 0.0
C682 C 0.40476 0.02004 0.40981 0.0
C683 C 0.41197 0.01497 0.43003 0.0
C684 C 0.43407 0.00639 0.43251 0.0
C685 C 0.44913 0.00405 0.41423 0.0
C686 C 0.44186 0.00911 0.39397 0.0
H687 H 0.37487 0.97338 0.37184 0.0
H688 H 0.39735 0.97695 0.38867 0.0
H689 H 0.37134 0.99315 0.39202 0.0
H690 H 0.3875 0.02616 0.40835 0.0
H691 H 0.4001 0.01741 0.44376 0.0
H692 H 0.66776 0.46007 0.29092 0.0
H693 H 0.65209 0.45957 0.32821 0.0
H694 H 0.62565 0.52765 0.31662 0.0
H695 H 0.64122 0.52837 0.27964 0.0
H696 H 0.65445 0.52191 0.34998 0.0
H697 H 0.58604 0.45734 0.3583 0.0
H698 H 0.61322 0.44906 0.34575 0.0
H699 H 0.59671 0.471 0.33289 0.0
C700 C 0.65812 0.4747 0.29621 0.0
C701 C 0.65586 0.49431 0.28234 0.0
C702 C 0.64917 0.47438 0.31751 0.0
C703 C 0.6377 0.49359 0.32515 0.0
C704 C 0.63448 0.51268 0.31105 0.0
H705 H 0.56338 0.52409 0.44306 0.0
H706 H 0.57569 0.515 0.40679 0.0
C707 C 0.6434 0.51303 0.2899 0.0
C708 C 0.63088 0.49492 0.34812 0.0
H709 H 0.59396 0.4739 0.38949 0.0
C710 C 0.6413 0.51134 0.35866 0.0
C711 C 0.61365 0.48119 0.35932 0.0
C712 C 0.60157 0.46372 0.34855 0.0
C713 C 0.6348 0.51461 0.38003 0.0
C714 C 0.61762 0.50085 0.3913 0.0
C715 C 0.60725 0.4843 0.38083 0.0
C716 C 0.60962 0.5042 0.41371 0.0
C717 C 0.64592 0.53325 0.3902 0.0
C718 C 0.62446 0.50064 0.42972 0.0
C719 C 0.61748 0.50578 0.45048 0.0
C720 C 0.59546 0.51449 0.45566 0.0
C721 C 0.58038 0.51725 0.4397 0.0
C722 C 0.58739 0.51211 0.41894 0.0
H723 H 0.65513 0.54537 0.37821 0.0
H724 H 0.63308 0.54289 0.39994 0.0
H725 H 0.6584 0.52556 0.40081 0.0
H726 H 0.64158 0.4942 0.42609 0.0
H727 H 0.62937 0.50302 0.46246 0.0
H728 H 0.20225 0.36126 0.94553 0.0
H729 H 0.16572 0.38208 0.94766 0.0
H730 H 0.16751 0.38337 0.01526 0.0
H731 H 0.20378 0.36279 0.01338 0.0
H732 H 0.12651 0.36331 0.99888 0.0
H733 H 0.14908 0.45041 0.96329 0.0
H734 H 0.16072 0.426 0.95046 0.0
H735 H 0.1697 0.43193 0.97561 0.0
C736 C 0.19507 0.36634 0.96079 0.0
C737 C 0.20595 0.36025 0.97929 0.0
C738 C 0.17422 0.37826 0.96196 0.0
C739 C 0.16398 0.38429 0.98162 0.0
C740 C 0.17517 0.37891 0.99994 0.0
H741 H 0.0436 0.43354 0.04642 0.0
H742 H 0.08032 0.41805 0.03346 0.0
C743 C 0.19594 0.36713 0.99879 0.0
C744 C 0.14076 0.39445 0.98369 0.0
H745 H 0.11104 0.44451 0.97738 0.0
C746 C 0.12306 0.381 0.99397 0.0
C747 C 0.13629 0.41743 0.97706 0.0
C748 C 0.15487 0.43246 0.96602 0.0
C749 C 0.10116 0.39009 0.99841 0.0
C750 C 0.09692 0.41341 0.99286 0.0
C751 C 0.11435 0.42666 0.9817 0.0
C752 C 0.07511 0.42452 1.00022 0.0
C753 C 0.08278 0.37467 0.00932 0.0
C754 C 0.06025 0.43416 0.9858 0.0
C755 C 0.03907 0.44323 0.99321 0.0
C756 C 0.03251 0.44283 0.01514 0.0
C757 C 0.04789 0.43391 0.02943 0.0
C758 C 0.06893 0.42496 0.02205 0.0
H759 H 0.08661 0.35654 0.0067 0.0
H760 H 0.08163 0.37638 0.02667 0.0
H761 H 0.06594 0.37928 0.0036 0.0
H762 H 0.06479 0.43413 0.96887 0.0
H763 H 0.02766 0.45005 0.98179 0.0
H764 H 0.22969 0.65271 0.48305 0.0
H765 H 0.1955 0.63036 0.48335 0.0
H766 H 0.1807 0.63723 0.5504 0.0
H767 H 0.21482 0.66041 0.55014 0.0
H768 H 0.17973 0.59098 0.50437 0.0
H769 H 0.12386 0.66422 0.52641 0.0
H770 H 0.15394 0.66732 0.51891 0.0
H771 H 0.14406 0.65491 0.54486 0.0
C772 C 0.21935 0.64935 0.49797 0.0
C773 C 0.22483 0.65865 0.51653 0.0
C774 C 0.1998 0.63648 0.4981 0.0
C775 C 0.18531 0.63251 0.51679 0.0
C776 C 0.19139 0.64055 0.53569 0.0
H777 H 0.04985 0.57174 0.51612 0.0
H778 H 0.08544 0.58289 0.52946 0.0
C779 C 0.21097 0.65364 0.53555 0.0
C780 C 0.1633 0.62117 0.51574 0.0
H781 H 0.10597 0.63147 0.51793 0.0
C782 C 0.16358 0.59968 0.50766 0.0
C783 C 0.14222 0.63261 0.51996 0.0
C784 C 0.14086 0.6561 0.52786 0.0
C785 C 0.14347 0.58977 0.50286 0.0
C786 C 0.12263 0.60164 0.50628 0.0
C787 C 0.1221 0.62249 0.51541 0.0
C788 C 0.1016 0.59384 0.49842 0.0
C789 C 0.14463 0.56707 0.49347 0.0
C790 C 0.09904 0.59649 0.47661 0.0
C791 C 0.07878 0.59038 0.469 0.0
C792 C 0.0608 0.58137 0.48308 0.0
C793 C 0.06353 0.57847 0.50492 0.0
C794 C 0.08375 0.58485 0.51256 0.0
H795 H 0.16111 0.55812 0.49556 0.0
H796 H 0.13054 0.55603 0.50086 0.0
H797 H 0.14268 0.56973 0.47621 0.0
H798 H 0.11264 0.60359 0.46552 0.0
H799 H 0.07719 0.59262 0.45209 0.0
H800 H 0.80882 0.86984 0.46996 0.0
H801 H 0.84685 0.88619 0.46559 0.0
H802 H 0.85742 0.86197 0.52989 0.0
H803 H 0.81921 0.8455 0.53447 0.0
H804 H 0.86987 0.91784 0.4902 0.0
H805 H 0.90839 0.83084 0.49043 0.0
H806 H 0.87883 0.83625 0.48637 0.0
H807 H 0.88817 0.83665 0.51242 0.0
C808 C 0.81902 0.86834 0.48335 0.0
C809 C 0.81099 0.85624 0.50254 0.0
C810 C 0.84077 0.87772 0.4808 0.0
C811 C 0.85506 0.87503 0.4973 0.0
C812 C 0.84672 0.86404 0.51688 0.0
H813 H 0.99269 0.93371 0.4858 0.0
H814 H 0.95445 0.92147 0.50034 0.0
C815 C 0.82481 0.85479 0.51952 0.0
C816 C 0.87914 0.88235 0.49328 0.0
H817 H 0.93338 0.86167 0.48401 0.0
C818 C 0.88382 0.90562 0.48913 0.0
C819 C 0.89725 0.86631 0.49162 0.0
C820 C 0.89307 0.84108 0.49529 0.0
C821 C 0.90612 0.91324 0.48309 0.0
C822 C 0.92417 0.89717 0.48118 0.0
C823 C 0.91953 0.87395 0.48564 0.0
C824 C 0.94767 0.90401 0.47297 0.0
C825 C 0.91013 0.93835 0.47797 0.0
C826 C 0.9567 0.89786 0.45297 0.0
C827 C 0.97845 0.90484 0.44461 0.0
C828 C 0.99178 0.91795 0.45618 0.0
C829 C 0.9829 0.92362 0.47648 0.0
C830 C 0.96101 0.91675 0.48477 0.0
H831 H 0.89395 0.94821 0.47725 0.0
H832 H 0.91969 0.9449 0.49039 0.0
H833 H 0.92056 0.94137 0.46253 0.0
H834 H 0.94671 0.88798 0.44363 0.0
H835 H 0.98473 0.9001 0.42897 0.0
H836 H 0.32662 0.6603 0.52941 0.0
H837 H 0.36187 0.63935 0.53447 0.0
H838 H 0.37791 0.64144 0.46665 0.0
H839 H 0.34258 0.66304 0.46137 0.0
H840 H 0.3775 0.59835 0.52186 0.0
H841 H 0.43515 0.66747 0.48601 0.0
H842 H 0.40508 0.67216 0.49245 0.0
H843 H 0.41497 0.65822 0.46911 0.0
C844 C 0.33753 0.6563 0.51548 0.0
C845 C 0.33176 0.66353 0.49495 0.0
C846 C 0.35773 0.64426 0.51843 0.0
C847 C 0.37277 0.6391 0.50099 0.0
C848 C 0.36682 0.64564 0.48039 0.0
H849 H 0.50771 0.57317 0.50718 0.0
H850 H 0.47238 0.5887 0.49392 0.0
C851 C 0.34652 0.65782 0.47739 0.0
C852 C 0.39464 0.6271 0.50476 0.0
H853 H 0.45241 0.63375 0.49963 0.0
C854 C 0.39388 0.60603 0.51684 0.0
C855 C 0.41606 0.63709 0.49821 0.0
C856 C 0.418 0.66006 0.48587 0.0
C857 C 0.41382 0.59495 0.52292 0.0
C858 C 0.43513 0.60527 0.51695 0.0
C859 C 0.43603 0.6259 0.5042 0.0
C860 C 0.45647 0.5956 0.52488 0.0
C861 C 0.41193 0.57235 0.53588 0.0
C862 C 0.45934 0.59457 0.54664 0.0
C863 C 0.4795 0.58585 0.55425 0.0
C864 C 0.49726 0.57794 0.54025 0.0
C865 C 0.49436 0.57903 0.51841 0.0
C866 C 0.4742 0.58793 0.51079 0.0
H867 H 0.39547 0.56402 0.53449 0.0
H868 H 0.42605 0.56068 0.53087 0.0
H869 H 0.41298 0.57508 0.55285 0.0
H870 H 0.44601 0.60072 0.55775 0.0
H871 H 0.48114 0.58533 0.57114 0.0
H872 H 0.52477 0.69899 0.89325 0.0
H873 H 0.52676 0.6582 0.9032 0.0
H874 H 0.45663 0.65157 0.89111 0.0
H875 H 0.45438 0.69259 0.88118 0.0
H876 H 0.47064 0.62361 0.92785 0.0
H877 H 0.52803 0.61471 0.85455 0.0
H878 H 0.53725 0.63537 0.87109 0.0
H879 H 0.51107 0.64 0.85891 0.0
C880 C 0.50958 0.689 0.89314 0.0
C881 C 0.48948 0.69903 0.88619 0.0
C882 C 0.51081 0.66565 0.89871 0.0
C883 C 0.49203 0.65182 0.89736 0.0
C884 C 0.47138 0.66196 0.89206 0.0
H885 H 0.51555 0.50494 0.89024 0.0
H886 H 0.50108 0.54384 0.883 0.0
C887 C 0.4701 0.68542 0.88651 0.0
C888 C 0.49462 0.62672 0.90009 0.0
H889 H 0.5255 0.58257 0.87993 0.0
C890 C 0.48245 0.61456 0.91729 0.0
C891 C 0.50963 0.61488 0.88597 0.0
C892 C 0.52209 0.62684 0.86646 0.0
C893 C 0.4858 0.59099 0.92136 0.0
C894 C 0.50198 0.57942 0.90805 0.0
C895 C 0.51326 0.59144 0.89025 0.0
C896 C 0.50871 0.55531 0.91306 0.0
C897 C 0.47205 0.57875 0.93994 0.0
C898 C 0.51785 0.54885 0.9323 0.0
C899 C 0.52609 0.52675 0.93646 0.0
C900 C 0.52559 0.51058 0.92138 0.0
C901 C 0.51615 0.51695 0.9022 0.0
C902 C 0.50787 0.53916 0.89805 0.0
H903 H 0.45568 0.58778 0.94386 0.0
H904 H 0.46837 0.56105 0.9367 0.0
H905 H 0.48181 0.57814 0.9541 0.0
H906 H 0.51927 0.56111 0.9439 0.0
H907 H 0.53329 0.5225 0.95139 0.0
H908 H 0.55487 0.81645 0.87298 0.0
H909 H 0.55353 0.85436 0.88629 0.0
H910 H 0.48389 0.84366 0.91172 0.0
H911 H 0.48506 0.80589 0.89854 0.0
H912 H 0.52263 0.88817 0.87226 0.0
H913 H 0.51196 0.87274 0.95988 0.0
H914 H 0.52296 0.85129 0.94273 0.0
H915 H 0.49282 0.85666 0.9467 0.0
C916 C 0.53949 0.82189 0.88195 0.0
C917 C 0.52006 0.80813 0.88467 0.0
C918 C 0.53872 0.84362 0.88946 0.0
C919 C 0.51866 0.8518 0.90013 0.0
C920 C 0.49967 0.83759 0.90386 0.0
H921 H 0.45351 0.98048 0.90749 0.0
H922 H 0.46812 0.94261 0.90025 0.0
C923 C 0.50035 0.816 0.89622 0.0
C924 C 0.51652 0.87594 0.90518 0.0
H925 H 0.50096 0.90986 0.9454 0.0
C926 C 0.51829 0.89294 0.8883 0.0
C927 C 0.51095 0.8822 0.92611 0.0
C928 C 0.50976 0.86479 0.94494 0.0
C929 C 0.5135 0.91586 0.89166 0.0
C930 C 0.50668 0.92191 0.91242 0.0
C931 C 0.50604 0.90513 0.92947 0.0
C932 C 0.49849 0.94525 0.91645 0.0
C933 C 0.51523 0.93339 0.87292 0.0
C934 C 0.51069 0.95927 0.92809 0.0
C935 C 0.50245 0.9811 0.93215 0.0
C936 C 0.48168 0.9891 0.92492 0.0
C937 C 0.46956 0.97491 0.91328 0.0
C938 C 0.47791 0.95327 0.90907 0.0
H939 H 0.52575 0.92711 0.85909 0.0
H940 H 0.49792 0.93744 0.86808 0.0
H941 H 0.52268 0.94936 0.87716 0.0
H942 H 0.52656 0.95331 0.93401 0.0
H943 H 0.51212 0.99154 0.94126 0.0
H944 H 0.46334 0.304 0.63416 0.0
H945 H 0.46584 0.34332 0.6181 0.0
H946 H 0.53885 0.34032 0.61894 0.0
H947 H 0.53659 0.30112 0.63379 0.0
H948 H 0.47904 0.38009 0.63251 0.0
H949 H 0.53618 0.3678 0.56061 0.0
H950 H 0.52331 0.34414 0.57686 0.0
H951 H 0.5494 0.35617 0.58341 0.0
C952 C 0.47994 0.3116 0.63043 0.0
C953 C 0.49977 0.29923 0.63499 0.0
C954 C 0.48136 0.33413 0.62135 0.0
C955 C 0.50261 0.3448 0.61681 0.0
C956 C 0.52232 0.3324 0.62146 0.0
H957 H 0.5312 0.48816 0.61476 0.0
H958 H 0.52012 0.44864 0.62401 0.0
C959 C 0.52096 0.30988 0.63012 0.0
C960 C 0.50431 0.36924 0.60854 0.0
H961 H 0.53563 0.40554 0.57301 0.0
C962 C 0.49116 0.38561 0.61926 0.0
C963 C 0.5197 0.37666 0.59094 0.0
C964 C 0.53272 0.3602 0.57718 0.0
C965 C 0.49372 0.40906 0.61353 0.0
C966 C 0.51059 0.4165 0.59716 0.0
C967 C 0.52298 0.40008 0.58583 0.0
C968 C 0.51611 0.44107 0.59171 0.0
C969 C 0.47804 0.42547 0.625 0.0
C970 C 0.51835 0.45009 0.57041 0.0
C971 C 0.52544 0.47252 0.56505 0.0
C972 C 0.5301 0.48662 0.58089 0.0
C973 C 0.52738 0.47783 0.60222 0.0
C974 C 0.52084 0.45522 0.60754 0.0
H975 H 0.46144 0.41748 0.63067 0.0
H976 H 0.48588 0.43036 0.63917 0.0
H977 H 0.47478 0.44108 0.61468 0.0
H978 H 0.5149 0.43966 0.55783 0.0
H979 H 0.52737 0.47879 0.54846 0.0
H980 H 0.48003 0.19467 0.62605 0.0
H981 H 0.47544 0.16157 0.60614 0.0
H982 H 0.54748 0.14731 0.60483 0.0
H983 H 0.55236 0.18063 0.62445 0.0
H984 H 0.52895 0.14041 0.56628 0.0
H985 H 0.47903 0.09754 0.63639 0.0
H986 H 0.46783 0.12479 0.62743 0.0
H987 H 0.4951 0.12295 0.63796 0.0
C988 C 0.49497 0.18467 0.62132 0.0
C989 C 0.51653 0.19013 0.62707 0.0
C990 C 0.49228 0.16572 0.61 0.0
C991 C 0.51105 0.15177 0.6044 0.0
C992 C 0.53277 0.15782 0.60911 0.0
H993 H 0.50554 0.01017 0.58169 0.0
H994 H 0.51421 0.04708 0.59353 0.0
C995 C 0.5355 0.17685 0.62036 0.0
C996 C 0.50784 0.13012 0.59485 0.0
H997 H 0.48206 0.07861 0.60487 0.0
C998 C 0.5187 0.12687 0.57466 0.0
C999 C 0.49474 0.11239 0.60601 0.0
C1000 C 0.48366 0.11442 0.62822 0.0
C1001 C 0.51662 0.10635 0.56523 0.0
C1002 C 0.50309 0.08884 0.57622 0.0
C1003 C 0.49234 0.09211 0.59643 0.0
C1004 C 0.50009 0.06669 0.56744 0.0
C1005 C 0.5293 0.1034 0.54385 0.0
C1006 C 0.48957 0.06545 0.54863 0.0
C1007 C 0.48469 0.0443 0.54171 0.0
C1008 C 0.49001 0.02407 0.55366 0.0
C1009 C 0.50113 0.02542 0.57216 0.0
C1010 C 0.5061 0.0465 0.57896 0.0
H1011 H 0.54329 0.11583 0.5401 0.0
H1012 H 0.53656 0.08594 0.54316 0.0
H1013 H 0.51732 0.10615 0.53138 0.0
H1014 H 0.48439 0.0808 0.53971 0.0
H1015 H 0.47601 0.04383 0.52746 0.0
H1016 H 0.85264 0.46067 0.676 0.0
H1017 H 0.8711 0.46293 0.63958 0.0
H1018 H 0.88559 0.53367 0.64386 0.0
H1019 H 0.86711 0.53166 0.67993 0.0
H1020 H 0.86258 0.52599 0.60908 0.0
H1021 H 0.93789 0.46839 0.61409 0.0
H1022 H 0.91113 0.45644 0.62508 0.0
H1023 H 0.92281 0.47949 0.63721 0.0
C1024 C 0.86024 0.47654 0.66935 0.0
C1025 C 0.8583 0.496 0.68087 0.0
C1026 C 0.87081 0.47781 0.64853 0.0
C1027 C 0.87978 0.49847 0.639 0.0
C1028 C 0.87876 0.51757 0.65086 0.0
H1029 H 0.95993 0.53562 0.52054 0.0
H1030 H 0.94584 0.52544 0.55754 0.0
C1031 C 0.86819 0.51635 0.67153 0.0
C1032 C 0.88843 0.501 0.61617 0.0
H1033 H 0.93029 0.48377 0.57975 0.0
C1034 C 0.87735 0.51671 0.60266 0.0
C1035 C 0.90779 0.489 0.60785 0.0
C1036 C 0.92078 0.4725 0.62178 0.0
C1037 C 0.88513 0.52085 0.58113 0.0
C1038 C 0.90434 0.50868 0.57271 0.0
C1039 C 0.91545 0.49293 0.58619 0.0
C1040 C 0.91356 0.51287 0.55015 0.0
C1041 C 0.87309 0.53874 0.56771 0.0
C1042 C 0.90033 0.50867 0.53365 0.0
C1043 C 0.90828 0.51455 0.51247 0.0
C1044 C 0.92971 0.52465 0.50735 0.0
C1045 C 0.9433 0.52799 0.52389 0.0
C1046 C 0.93531 0.52211 0.54507 0.0
H1047 H 0.86213 0.55008 0.57758 0.0
H1048 H 0.88553 0.54933 0.55719 0.0
H1049 H 0.86209 0.53027 0.55755 0.0
H1050 H 0.88364 0.50121 0.53719 0.0
H1051 H 0.89743 0.51157 0.50015 0.0
H1052 H 0.1494 0.06144 0.67101 0.0
H1053 H 0.12825 0.05798 0.64003 0.0
H1054 H 0.10799 0.99031 0.66452 0.0
H1055 H 0.12937 0.99345 0.6952 0.0
H1056 H 0.13338 0.99243 0.62547 0.0
H1057 H 0.06169 0.05497 0.62511 0.0
H1058 H 0.08869 0.06609 0.63003 0.0
H1059 H 0.07476 0.04541 0.64897 0.0
C1060 C 0.1398 0.04614 0.67011 0.0
C1061 C 0.14126 0.02758 0.68531 0.0
C1062 C 0.12765 0.04423 0.65246 0.0
C1063 C 0.11657 0.02389 0.65003 0.0
C1064 C 0.11645 0.00613 0.66613 0.0
H1065 H 0.047 0.9777 0.54771 0.0
H1066 H 0.05618 0.99116 0.58138 0.0
C1067 C 0.12871 0.00794 0.68361 0.0
C1068 C 0.10864 0.01947 0.62938 0.0
H1069 H 0.07106 0.03653 0.59331 0.0
C1070 C 0.11967 1.002 0.6185 0.0
C1071 C 0.09081 0.03204 0.62038 0.0
C1072 C 0.07812 0.05058 0.63175 0.0
C1073 C 0.1134 0.99674 0.59879 0.0
C1074 C 0.09588 0.00955 0.58956 0.0
C1075 C 0.08464 0.02692 0.60045 0.0
C1076 C 0.08895 0.00458 0.56872 0.0
C1077 C 0.12543 0.97733 0.58809 0.0
C1078 C 0.10415 0.00824 0.55048 0.0
C1079 C 0.09902 1.00055 0.5313 0.0
C1080 C 0.07855 0.98915 0.53006 0.0
C1081 C 0.06286 0.98651 0.54817 0.0
C1082 C 0.06805 0.99418 0.56738 0.0
H1083 H 0.1351 0.9663 0.59922 0.0
H1084 H 0.11306 0.96669 0.5813 0.0
H1085 H 0.13762 0.98431 0.57488 0.0
H1086 H 0.12029 0.01643 0.55125 0.0
H1087 H 0.11121 1.00324 0.5175 0.0
H1088 H 0.86486 0.49147 0.77922 0.0
H1089 H 0.88595 0.49295 0.81018 0.0
H1090 H 0.87826 0.56599 0.80655 0.0
H1091 H 0.85636 0.56462 0.77564 0.0
H1092 H 0.92491 0.51304 0.81731 0.0
H1093 H 0.8519 0.54857 0.86674 0.0
H1094 H 0.84876 0.53811 0.84127 0.0
H1095 H 0.86103 0.56552 0.84277 0.0
C1096 C 0.86772 0.50794 0.78483 0.0
C1097 C 0.85868 0.52793 0.77501 0.0
C1098 C 0.87986 0.50874 0.80258 0.0
C1099 C 0.88336 0.52952 0.81099 0.0
C1100 C 0.87532 0.54969 0.80066 0.0
H1101 H 0.94432 0.54017 0.93205 0.0
H1102 H 0.93239 0.55083 0.89639 0.0
C1103 C 0.86298 0.5489 0.78288 0.0
C1104 C 0.89474 0.52952 0.83094 0.0
H1105 H 0.88522 0.53961 0.88337 0.0
C1106 C 0.91633 0.51912 0.83168 0.0
C1107 C 0.88354 0.5374 0.84976 0.0
C1108 C 0.85996 0.54786 0.85027 0.0
C1109 C 0.92662 0.51572 0.85078 0.0
C1110 C 0.91508 0.52289 0.86964 0.0
C1111 C 0.89403 0.53423 0.86881 0.0
C1112 C 0.92344 0.51663 0.89067 0.0
C1113 C 0.94952 0.50392 0.85084 0.0
C1114 C 0.92229 0.49394 0.89917 0.0
C1115 C 0.92885 0.48789 0.91947 0.0
C1116 C 0.93683 0.50439 0.93166 0.0
C1117 C 0.93839 0.52709 0.92295 0.0
C1118 C 0.93153 0.5332 0.90267 0.0
H1119 H 0.95838 0.50394 0.8346 0.0
H1120 H 0.96053 0.51219 0.86115 0.0
H1121 H 0.94713 0.48598 0.8573 0.0
H1122 H 0.91592 0.48095 0.89022 0.0
H1123 H 0.92764 0.47025 0.92568 0.0
H1124 H 0.16574 0.95818 0.78872 0.0
H1125 H 0.1492 0.95646 0.82575 0.0
H1126 H 0.12204 0.02442 0.81531 0.0
H1127 H 0.13834 0.02627 0.77847 0.0
H1128 H 0.16118 0.98681 0.85481 0.0
H1129 H 0.06822 0.98998 0.84814 0.0
H1130 H 0.08854 0.98199 0.82684 0.0
H1131 H 0.08351 0.01149 0.83117 0.0
C1132 C 0.15576 0.97253 0.79418 0.0
C1133 C 0.15338 0.99237 0.78064 0.0
C1134 C 0.1464 0.97155 0.81536 0.0
C1135 C 0.13421 0.99023 0.82324 0.0
C1136 C 0.13102 0.00965 0.8095 0.0
H1137 H 0.11649 0.04384 0.94444 0.0
H1138 H 0.12735 0.03384 0.90829 0.0
C1139 C 0.14048 0.01071 0.78844 0.0
C1140 C 0.12677 0.99054 0.84622 0.0
H1141 H 0.08054 1.00011 0.88111 0.0
C1142 C 0.1435 0.98935 0.86061 0.0
C1143 C 0.1037 0.99375 0.8538 0.0
C1144 C 0.08492 0.99416 0.83921 0.0
C1145 C 0.13791 0.99233 0.88222 0.0
C1146 C 0.11501 0.9968 0.88957 0.0
C1147 C 0.09812 0.99691 0.87539 0.0
C1148 C 0.10849 1.00249 0.91168 0.0
C1149 C 0.15659 0.991 0.89696 0.0
C1150 C 0.09395 0.98836 0.9255 0.0
C1151 C 0.08783 0.99392 0.94633 0.0
C1152 C 0.09598 0.01385 0.95367 0.0
C1153 C 0.11031 0.02809 0.93958 0.0
C1154 C 0.11649 0.02246 0.91885 0.0
H1155 H 0.17184 0.98176 0.89026 0.0
H1156 H 0.16178 0.00849 0.89948 0.0
H1157 H 0.15061 0.98238 0.91265 0.0
H1158 H 0.08753 0.97291 0.92022 0.0
H1159 H 0.07696 0.98243 0.95674 0.0
H1160 H 0.70315 0.86327 0.51368 0.0
H1161 H 0.66755 0.88491 0.51417 0.0
H1162 H 0.66689 0.8808 0.44672 0.0
H1163 H 0.70255 0.85863 0.44611 0.0
H1164 H 0.65567 0.9258 0.49331 0.0
H1165 H 0.60499 0.85485 0.46996 0.0
H1166 H 0.63337 0.85058 0.47805 0.0
H1167 H 0.62924 0.86341 0.45202 0.0
C1168 C 0.69558 0.86703 0.49887 0.0
C1169 C 0.70569 0.85903 0.47987 0.0
C1170 C 0.67518 0.87947 0.49919 0.0
C1171 C 0.66431 0.88418 0.48057 0.0
C1172 C 0.67472 0.87697 0.46138 0.0
H1173 H 0.52608 0.94618 0.47968 0.0
H1174 H 0.56425 0.93309 0.46634 0.0
C1175 C 0.6952 0.86445 0.46103 0.0
C1176 C 0.64186 0.89619 0.4817 0.0
H1177 H 0.58511 0.8884 0.47805 0.0
C1178 C 0.64029 0.91773 0.4897 0.0
C1179 C 0.62175 0.8857 0.47694 0.0
C1180 C 0.62224 0.8623 0.46891 0.0
C1181 C 0.61916 0.92868 0.49377 0.0
C1182 C 0.59902 0.91774 0.48992 0.0
C1183 C 0.6006 0.89675 0.48093 0.0
C1184 C 0.57618 0.92652 0.49749 0.0
C1185 C 0.61849 0.95166 0.50265 0.0
C1186 C 0.57023 0.92696 0.51936 0.0
C1187 C 0.54856 0.93419 0.52697 0.0
C1188 C 0.53226 0.94122 0.5129 0.0
C1189 C 0.53827 0.94097 0.49092 0.0
C1190 C 0.56003 0.93348 0.48329 0.0
H1191 H 0.63503 0.96048 0.49906 0.0
H1192 H 0.60486 0.96265 0.4962 0.0
H1193 H 0.61487 0.94937 0.52017 0.0
H1194 H 0.58229 0.92134 0.53061 0.0
H1195 H 0.54459 0.93415 0.54399 0.0
H1196 H 0.73801 0.14664 0.98899 0.0
H1197 H 0.70263 0.12682 0.9863 0.0
H1198 H 0.67543 0.14895 0.04675 0.0
H1199 H 0.71102 0.16886 0.04969 0.0
H1200 H 0.66407 0.10084 0.03627 0.0
H1201 H 0.64632 0.17097 0.97584 0.0
H1202 H 0.67366 0.15723 0.97168 0.0
H1203 H 0.66733 0.17316 0.99449 0.0
C1204 C 0.72473 0.14689 1.00197 0.0
C1205 C 0.72717 0.15958 0.01942 0.0
C1206 C 0.70455 0.13555 1.00039 0.0
C1207 C 0.68639 0.13677 0.01616 0.0
C1208 C 0.68932 0.1479 0.03441 0.0
H1209 H 0.54639 0.12059 0.98918 0.0
H1210 H 0.58098 0.13345 0.00271 0.0
C1211 C 0.70964 0.15922 0.03607 0.0
C1212 C 0.66374 0.12874 0.01224 0.0
H1213 H 0.6215 0.13962 0.97953 0.0
C1214 C 0.65462 0.10933 0.02399 0.0
C1215 C 0.65139 0.14013 0.99642 0.0
C1216 C 0.66001 0.16165 0.98396 0.0
C1217 C 0.63364 0.10059 0.01983 0.0
C1218 C 0.62177 0.11145 0.00335 0.0
C1219 C 0.63067 0.13124 0.99207 0.0
C1220 C 0.60026 0.10258 0.99714 0.0
C1221 C 0.6243 0.07994 0.03317 0.0
C1222 C 0.59961 0.08094 0.98954 0.0
C1223 C 0.57986 0.07355 0.98175 0.0
C1224 C 0.56052 0.08782 0.9812 0.0
C1225 C 0.56113 0.10935 0.98913 0.0
C1226 C 0.58081 0.11665 0.997 0.0
H1227 H 0.63181 0.07771 0.04863 0.0
H1228 H 0.60549 0.08114 0.03623 0.0
H1229 H 0.62856 0.06455 0.02458 0.0
H1230 H 0.6146 0.07003 0.98899 0.0
H1231 H 0.57998 0.05699 0.97553 0.0
H1232 H 0.31438 0.36197 0.96581 0.0
H1233 H 0.35192 0.37888 0.9628 0.0
H1234 H 0.35388 0.36831 0.03065 0.0
H1235 H 0.31627 0.35065 0.03378 0.0
H1236 H 0.36923 0.41528 0.97859 0.0
H1237 H 0.41188 0.33614 0.00954 0.0
H1238 H 0.38286 0.33658 0.00275 0.0
H1239 H 0.3895 0.34701 0.02725 0.0
C1240 C 0.32262 0.36336 0.98019 0.0
C1241 C 0.31231 0.35472 1.00005 0.0
C1242 C 0.34416 0.37308 0.97842 0.0
C1243 C 0.35601 0.37447 0.99642 0.0
C1244 C 0.34534 0.36692 0.01645 0.0
H1245 H 0.496 0.42648 0.99381 0.0
H1246 H 0.45724 0.41422 0.00675 0.0
C1247 C 0.32372 0.35704 0.01824 0.0
C1248 C 0.37969 0.38328 0.99376 0.0
H1249 H 0.43525 0.36767 0.99874 0.0
C1250 C 0.38361 0.40493 0.9832 0.0
C1251 C 0.39856 0.36976 0.99971 0.0
C1252 C 0.39563 0.34601 0.01028 0.0
C1253 C 0.40578 0.41315 0.97798 0.0
C1254 C 0.42457 0.39941 0.98342 0.0
C1255 C 0.42075 0.37816 0.99467 0.0
C1256 C 0.44826 0.40615 0.97599 0.0
C1257 C 0.40908 0.43631 0.96626 0.0
C1258 C 0.4561 0.40528 0.95452 0.0
C1259 C 0.47819 0.41204 0.94713 0.0
C1260 C 0.49292 0.41995 0.96105 0.0
C1261 C 0.4851 0.4205 0.98267 0.0
C1262 C 0.46298 0.41352 0.99009 0.0
H1263 H 0.39304 0.44652 0.96672 0.0
H1264 H 0.42227 0.44584 0.97313 0.0
H1265 H 0.41503 0.43424 0.94941 0.0
H1266 H 0.44502 0.39949 0.94343 0.0
H1267 H 0.48357 0.4114 0.9304 0.0
H1268 H 0.82936 0.15988 0.03088 0.0
H1269 H 0.86441 0.13824 0.03482 0.0
H1270 H 0.87907 0.14212 0.96678 0.0
H1271 H 0.84393 0.16444 0.96264 0.0
H1272 H 0.87903 0.09745 0.02093 0.0
H1273 H 0.9373 0.16639 0.9858 0.0
H1274 H 0.9074 0.17145 0.99286 0.0
H1275 H 0.91655 0.158 0.96906 0.0
C1276 C 0.83992 0.15614 0.01666 0.0
C1277 C 0.83383 0.16408 0.99642 0.0
C1278 C 0.86001 0.14369 0.01898 0.0
C1279 C 0.87461 0.13881 1.00114 0.0
C1280 C 0.86833 0.14608 0.98081 0.0
H1281 H 0.00905 0.07088 0.00575 0.0
H1282 H 0.97374 0.08662 0.99254 0.0
C1283 C 0.84814 0.15868 0.97846 0.0
C1284 C 0.89638 0.12633 0.00427 0.0
H1285 H 0.95424 0.13223 0.99875 0.0
C1286 C 0.89546 0.10499 0.01589 0.0
C1287 C 0.91787 0.13612 0.99769 0.0
C1288 C 0.91999 0.15932 0.9858 0.0
C1289 C 0.91534 0.0935 0.02158 0.0
C1290 C 0.93673 0.10365 0.01565 0.0
C1291 C 0.93779 0.12451 0.00328 0.0
C1292 C 0.95799 0.09368 0.0235 0.0
C1293 C 0.9133 0.0707 0.03418 0.0
C1294 C 0.9609 0.09264 0.04525 0.0
C1295 C 0.98103 0.08384 0.05282 0.0
C1296 C 0.99872 0.07581 0.03881 0.0
C1297 C 0.99574 0.07682 0.01699 0.0
C1298 C 0.97561 0.08584 0.0094 0.0
H1299 H 0.89671 0.06263 0.03277 0.0
H1300 H 0.92725 0.05897 0.02886 0.0
H1301 H 0.91456 0.07305 0.0512 0.0
H1302 H 0.94765 0.0989 0.05637 0.0
H1303 H 0.98273 0.08338 0.0697 0.0
H1304 H 0.99055 0.20588 0.3047 0.0
H1305 H 0.99483 0.18149 0.27554 0.0
H1306 H 0.06675 0.19512 0.26652 0.0
H1307 H 0.06267 0.21982 0.29613 0.0
H1308 H 0.01132 0.1963 0.23336 0.0
H1309 H 0.06206 0.12424 0.2677 0.0
H1310 H 0.04636 0.14405 0.28396 0.0
H1311 H 0.07268 0.15241 0.26917 0.0
C1312 C 0.00739 0.2037 0.29668 0.0
C1313 C 0.02629 0.21495 0.30271 0.0
C1314 C 0.00976 0.18968 0.28 0.0
C1315 C 0.03108 0.18643 0.26895 0.0
C1316 C 0.05017 0.19723 0.27506 0.0
H1317 H 0.05445 0.13559 0.1449 0.0
H1318 H 0.05194 0.158 0.17572 0.0
C1319 C 0.04781 0.21138 0.29189 0.0
C1320 C 0.03266 0.17266 0.25038 0.0
H1321 H 0.05334 0.12267 0.23222 0.0
C1322 C 0.02057 0.18024 0.23307 0.0
C1323 C 0.04446 0.15158 0.25024 0.0
C1324 C 0.05703 0.14239 0.26878 0.0
C1325 C 0.02004 0.16734 0.21553 0.0
C1326 C 0.03211 0.14642 0.21522 0.0
C1327 C 0.0441 0.13873 0.23257 0.0
C1328 C 0.03311 0.13276 0.19661 0.0
C1329 C 0.0063 0.17603 0.19759 0.0
C1330 C 0.02337 0.11107 0.19819 0.0
C1331 C 0.02478 0.09815 0.18053 0.0
C1332 C 0.03624 0.10666 0.16117 0.0
C1333 C 0.04569 0.12851 0.15967 0.0
C1334 C 0.04418 0.14139 0.17721 0.0
H1335 H 0.99376 0.18934 0.20249 0.0
H1336 H 0.01795 0.1836 0.18423 0.0
H1337 H 0.99707 0.16195 0.1917 0.0
H1338 H 0.01477 0.10415 0.21309 0.0
H1339 H 0.01751 0.08131 0.18215 0.0
H1340 H 0.94701 0.29395 0.29907 0.0
H1341 H 0.9459 0.31976 0.26671 0.0
H1342 H 0.01336 0.34278 0.27414 0.0
H1343 H 0.0147 0.31723 0.30617 0.0
H1344 H 0.95521 0.37013 0.25775 0.0
H1345 H 0.01691 0.31285 0.21576 0.0
H1346 H 1.00048 0.30385 0.24036 0.0
H1347 H 0.02488 0.32153 0.24052 0.0
C1348 C 0.9614 0.30483 0.294 0.0
C1349 C 0.98106 0.30332 0.30497 0.0
C1350 C 0.96075 0.31952 0.27555 0.0
C1351 C 0.97971 0.33283 0.26796 0.0
C1352 C 0.99871 0.33238 0.27963 0.0
H1353 H 0.9962 0.43637 0.16087 0.0
H1354 H 0.99637 0.41584 0.19618 0.0
C1355 C 0.99942 0.31774 0.29793 0.0
C1356 C 0.98057 0.3459 0.24705 0.0
H1357 H 0.00782 0.34765 0.1971 0.0
C1358 C 0.96666 0.36528 0.24445 0.0
C1359 C 0.99545 0.33932 0.22977 0.0
C1360 C 0.01018 0.31816 0.23157 0.0
C1361 C 0.96743 0.37845 0.22493 0.0
C1362 C 0.98265 0.3721 0.20777 0.0
C1363 C 0.99638 0.3526 0.21038 0.0
C1364 C 0.98354 0.38453 0.18652 0.0
C1365 C 0.95164 0.39875 0.22263 0.0
C1366 C 0.97706 0.37344 0.16938 0.0
C1367 C 0.97712 0.38499 0.14933 0.0
C1368 C 0.98375 0.40787 0.146 0.0
C1369 C 0.99106 0.41875 0.16301 0.0
C1370 C 0.99091 0.40714 0.18318 0.0
H1371 H 0.93801 0.39876 0.23595 0.0
H1372 H 0.96156 0.41457 0.2224 0.0
H1373 H 0.94362 0.3991 0.20746 0.0
H1374 H 0.97155 0.35592 0.1716 0.0
H1375 H 0.97172 0.37609 0.13643 0.0
H1376 H 0.02269 0.76848 0.23484 0.0
H1377 H 0.03153 0.80072 0.25427 0.0
H1378 H 0.08811 0.81772 0.20799 0.0
H1379 H 0.07944 0.78504 0.18839 0.0
H1380 H 0.08477 0.81672 0.26463 0.0
H1381 H 0.02902 0.87085 0.21441 0.0
H1382 H 0.02207 0.84124 0.22039 0.0
H1383 H 0.04747 0.84888 0.20379 0.0
C1384 C 0.03738 0.77871 0.22911 0.0
C1385 C 0.05038 0.77441 0.21016 0.0
C1386 C 0.04236 0.79709 0.24016 0.0
C1387 C 0.06026 0.81155 0.23234 0.0
C1388 C 0.07422 0.80661 0.21414 0.0
H1389 H 0.07807 0.92485 0.30993 0.0
H1390 H 0.08371 0.90359 0.27825 0.0
C1391 C 0.06937 0.78794 0.20311 0.0
C1392 C 0.06265 0.83267 0.24263 0.0
H1393 H 0.03608 0.88412 0.24751 0.0
C1394 C 0.0748 0.83183 0.26057 0.0
C1395 C 0.04935 0.85209 0.23723 0.0
C1396 C 0.03625 0.85355 0.21785 0.0
C1397 C 0.07282 0.84948 0.27413 0.0
C1398 C 0.05828 0.86822 0.26951 0.0
C1399 C 0.0472 0.86968 0.25088 0.0
C1400 C 0.05248 0.88481 0.2853 0.0
C1401 C 0.08499 0.84731 0.2941 0.0
C1402 C 0.03249 0.88195 0.29901 0.0
C1403 C 0.02928 0.89392 0.31716 0.0
C1404 C 0.04609 0.9088 0.32175 0.0
C1405 C 0.06503 0.91318 0.30687 0.0
C1406 C 0.06825 0.90118 0.28877 0.0
H1407 H 0.09487 0.83114 0.29579 0.0
H1408 H 0.09685 0.8617 0.29393 0.0
H1409 H 0.07248 0.84817 0.30823 0.0
H1410 H 0.0202 0.86927 0.29648 0.0
H1411 H 0.01461 0.89015 0.3284 0.0
H1412 H 0.02439 0.67909 0.22172 0.0
H1413 H 0.01963 0.65352 0.25406 0.0
H1414 H 0.95172 0.68 0.2678 0.0
H1415 H 0.95636 0.70584 0.23545 0.0
H1416 H 0.97835 0.67819 0.30255 0.0
H1417 H 0.98126 0.5957 0.2661 0.0
H1418 H 0.00468 0.61408 0.25699 0.0
H1419 H 0.97633 0.62249 0.25123 0.0
C1420 C 0.00832 0.67936 0.23147 0.0
C1421 C 0.99072 0.69452 0.22589 0.0
C1422 C 0.00561 0.66462 0.24995 0.0
C1423 C 0.98523 0.66463 0.26327 0.0
C1424 C 0.96756 0.67962 0.25771 0.0
H1425 H 0.9408 0.56855 0.36934 0.0
H1426 H 0.94634 0.59138 0.3354 0.0
C1427 C 0.97022 0.69433 0.23917 0.0
C1428 C 0.98275 0.64967 0.28341 0.0
H1429 H 0.98313 0.59406 0.30344 0.0
C1430 C 0.97934 0.6598 0.30274 0.0
C1431 C 0.98387 0.62566 0.28366 0.0
C1432 C 0.98653 0.61377 0.2634 0.0
C1433 C 0.97735 0.6466 0.32231 0.0
C1434 C 0.97906 0.6226 0.32258 0.0
C1435 C 0.98211 0.61246 0.30324 0.0
C1436 C 0.97677 0.60774 0.34278 0.0
C1437 C 0.97298 0.65844 0.34252 0.0
C1438 C 0.99239 0.60886 0.35807 0.0
C1439 C 0.98933 0.59571 0.37754 0.0
C1440 C 0.97058 0.58117 0.38209 0.0
C1441 C 0.95542 0.57956 0.36643 0.0
C1442 C 0.95855 0.59262 0.34698 0.0
H1443 H 0.96702 0.67628 0.33942 0.0
H1444 H 0.96007 0.64922 0.35373 0.0
H1445 H 0.98901 0.65876 0.35033 0.0
H1446 H 0.00681 0.62012 0.35504 0.0
H1447 H 1.00133 0.59739 0.38921 0.0
H1448 H 0.27331 0.06864 0.18285 0.0
H1449 H 0.24469 0.07151 0.15696 0.0
H1450 H 0.23213 0.99961 0.16892 0.0
H1451 H 0.26076 0.99652 0.19418 0.0
H1452 H 0.23634 0.0126 0.12664 0.0
H1453 H 0.17608 0.07008 0.17006 0.0
H1454 H 0.20442 0.08066 0.16363 0.0
H1455 H 0.19967 0.0561 0.1821 0.0
C1456 C 0.26431 0.05352 0.18003 0.0
C1457 C 0.26929 0.03238 0.19062 0.0
C1458 C 0.24795 0.05517 0.16526 0.0
C1459 C 0.23615 0.03578 0.1611 0.0
C1460 C 0.24107 0.01477 0.17177 0.0
H1461 H 0.1065 0.02035 0.11728 0.0
H1462 H 0.1412 0.02018 0.13532 0.0
C1463 C 0.25743 0.01308 0.18631 0.0
C1464 C 0.21847 0.03694 0.14583 0.0
H1465 H 0.1655 0.0583 0.13795 0.0
C1466 C 0.22091 0.02274 0.12898 0.0
C1467 C 0.19831 0.05007 0.14899 0.0
C1468 C 0.19427 0.06497 0.16725 0.0
C1469 C 0.20343 0.02072 0.11567 0.0
C1470 C 0.18315 0.03359 0.11906 0.0
C1471 C 0.18108 0.04842 0.1354 0.0
C1472 C 0.16306 0.0308 0.10708 0.0
C1473 C 0.2064 0.00408 0.09876 0.0
C1474 C 0.16392 0.03598 0.08499 0.0
C1475 C 0.14403 0.03567 0.07451 0.0
C1476 C 0.12302 0.03054 0.08608 0.0
C1477 C 0.12247 0.02435 0.10796 0.0
C1478 C 0.14227 0.02439 0.11832 0.0
H1479 H 0.22078 0.99201 0.10124 0.0
H1480 H 0.19064 0.99418 0.09842 0.0
H1481 H 0.20997 0.01358 0.08301 0.0
H1482 H 0.1797 0.04131 0.07604 0.0
H1483 H 0.14484 0.04088 0.05769 0.0
H1484 H 0.74726 0.46097 0.18633 0.0
H1485 H 0.77881 0.45933 0.15845 0.0
H1486 H 0.76583 0.52927 0.13718 0.0
H1487 H 0.73465 0.53122 0.16515 0.0
H1488 H 0.78239 0.46759 0.11379 0.0
H1489 H 0.8319 0.52981 0.15145 0.0
H1490 H 0.80676 0.51635 0.16482 0.0
H1491 H 0.8042 0.53967 0.14507 0.0
C1492 C 0.75099 0.47594 0.17561 0.0
C1493 C 0.73862 0.49631 0.17817 0.0
C1494 C 0.769 0.47496 0.15966 0.0
C1495 C 0.77492 0.4943 0.14599 0.0
C1496 C 0.76186 0.51429 0.14783 0.0
H1497 H 0.88414 0.49113 0.03992 0.0
H1498 H 0.84662 0.49736 0.05922 0.0
C1499 C 0.74399 0.51533 0.16382 0.0
C1500 C 0.7955 0.49393 0.13063 0.0
H1501 H 0.84836 0.51688 0.11934 0.0
C1502 C 0.79677 0.47847 0.11486 0.0
C1503 C 0.8143 0.50806 0.13219 0.0
C1504 C 0.81441 0.52428 0.14939 0.0
C1505 C 0.8165 0.4765 0.10081 0.0
C1506 C 0.83529 0.49055 0.10247 0.0
C1507 C 0.83381 0.50632 0.11795 0.0
C1508 C 0.85765 0.48728 0.09024 0.0
C1509 C 0.81749 0.45876 0.08491 0.0
C1510 C 0.87628 0.48002 0.10129 0.0
C1511 C 0.89753 0.47661 0.09044 0.0
C1512 C 0.90079 0.48043 0.06819 0.0
C1513 C 0.88219 0.48804 0.05705 0.0
C1514 C 0.86074 0.49144 0.06802 0.0
H1515 H 0.80284 0.44701 0.08779 0.0
H1516 H 0.8173 0.46731 0.06869 0.0
H1517 H 0.83351 0.44862 0.08543 0.0
H1518 H 0.87432 0.47675 0.11841 0.0
H1519 H 0.91141 0.47078 0.09961 0.0
H1520 H 0.28016 0.02016 0.29089 0.0
H1521 H 0.25096 0.01603 0.32066 0.0
H1522 H 0.23381 0.95028 0.30193 0.0
H1523 H 0.26376 0.95402 0.27232 0.0
H1524 H 0.20721 0.01394 0.31831 0.0
H1525 H 0.23398 0.93626 0.36492 0.0
H1526 H 0.25259 0.95074 0.34412 0.0
H1527 H 0.23149 0.93142 0.33771 0.0
C1528 C 0.27039 0.00465 0.29323 0.0
C1529 C 0.2742 0.98744 0.27917 0.0
C1530 C 0.25369 1.00231 0.31032 0.0
C1531 C 0.24025 0.98277 0.31374 0.0
C1532 C 0.2443 0.96529 0.29998 0.0
H1533 H 0.10384 0.97157 0.3676 0.0
H1534 H 0.13995 0.97825 0.34658 0.0
C1535 C 0.26131 0.9675 0.28296 0.0
C1536 C 0.22079 0.98182 0.33052 0.0
H1537 H 0.19528 0.94885 0.37259 0.0
C1538 C 0.20483 0.99981 0.33033 0.0
C1539 C 0.21776 0.96362 0.34648 0.0
C1540 C 0.235 0.94454 0.3485 0.0
C1541 C 0.18555 0.9997 0.34505 0.0
C1542 C 0.18175 0.98083 0.36011 0.0
C1543 C 0.19814 0.96326 0.36095 0.0
C1544 C 0.15983 0.97802 0.37354 0.0
C1545 C 0.16929 0.01976 0.34417 0.0
C1546 C 0.15892 0.97547 0.39584 0.0
C1547 C 0.13805 0.97158 0.40809 0.0
C1548 C 0.11791 0.96988 0.39813 0.0
C1549 C 0.11898 0.97286 0.37583 0.0
C1550 C 0.13965 0.97678 0.36373 0.0
H1551 H 0.17805 0.03547 0.33711 0.0
H1552 H 0.15565 0.01626 0.33401 0.0
H1553 H 0.16125 0.0229 0.36021 0.0
H1554 H 0.17437 0.97622 0.40372 0.0
H1555 H 0.13781 0.9691 0.4252 0.0
H1556 H 0.72248 0.57167 0.27086 0.0
H1557 H 0.74662 0.57385 0.30016 0.0
H1558 H 0.78228 0.51276 0.28237 0.0
H1559 H 0.75846 0.51052 0.25329 0.0
H1560 H 0.7474 0.53739 0.33309 0.0
H1561 H 0.83357 0.55532 0.29328 0.0
H1562 H 0.80794 0.5614 0.28026 0.0
H1563 H 0.81945 0.53293 0.28234 0.0
C1564 C 0.73597 0.55918 0.27284 0.0
C1565 C 0.73864 0.54091 0.25991 0.0
C1566 C 0.74959 0.56034 0.28961 0.0
C1567 C 0.76623 0.54351 0.29329 0.0
C1568 C 0.76974 0.52607 0.27959 0.0
H1569 H 0.85865 0.4985 0.38454 0.0
H1570 H 0.83121 0.49991 0.35781 0.0
C1571 C 0.75607 0.52478 0.26305 0.0
C1572 C 0.77841 0.54247 0.3126 0.0
H1573 H 0.83169 0.53926 0.32922 0.0
C1574 C 0.76581 0.53813 0.33236 0.0
C1575 C 0.80239 0.54324 0.31145 0.0
C1576 C 0.81664 0.54869 0.29071 0.0
C1577 C 0.7767 0.53369 0.35101 0.0
C1578 C 0.80072 0.53385 0.34974 0.0
C1579 C 0.81325 0.53878 0.33004 0.0
C1580 C 0.81344 0.52986 0.36866 0.0
C1581 C 0.76254 0.52816 0.37177 0.0
C1582 C 0.81178 0.54562 0.3841 0.0
C1583 C 0.8273 0.54475 0.39942 0.0
C1584 C 0.84479 0.5282 0.39937 0.0
C1585 C 0.84521 0.51128 0.38503 0.0
C1586 C 0.82969 0.51218 0.36968 0.0
H1587 H 0.74497 0.52321 0.36929 0.0
H1588 H 0.77051 0.51415 0.3814 0.0
H1589 H 0.76136 0.54339 0.381 0.0
H1590 H 0.79956 0.55955 0.38341 0.0
H1591 H 0.82663 0.55795 0.41038 0.0
H1592 H 0.2126 0.25882 0.98307 0.0
H1593 H 0.18625 0.22724 0.99065 0.0
H1594 H 0.18583 0.23429 0.05773 0.0
H1595 H 0.21251 0.26607 0.05033 0.0
H1596 H 0.19464 0.18511 0.01966 0.0
H1597 H 0.11636 0.235 0.0427 0.0
H1598 H 0.14021 0.24759 0.02622 0.0
H1599 H 0.1422 0.24113 0.05407 0.0
C1600 C 0.20689 0.2538 0.99948 0.0
C1601 C 0.21467 0.26506 0.01611 0.0
C1602 C 0.19184 0.23569 0.00375 0.0
C1603 C 0.184 0.22856 0.0247 0.0
C1604 C 0.19157 0.23971 0.04142 0.0
H1605 H 0.08761 0.12421 0.07596 0.0
H1606 H 0.1123 0.15725 0.06999 0.0
C1607 C 0.20685 0.2578 0.03717 0.0
C1608 C 0.16832 0.20905 0.02886 0.0
H1609 H 0.11283 0.19523 0.04349 0.0
C1610 C 0.17675 0.18726 0.02492 0.0
C1611 C 0.14506 0.21197 0.03577 0.0
C1612 C 0.13522 0.23516 0.03988 0.0
C1613 C 0.16255 0.1682 0.02785 0.0
C1614 C 0.1391 0.17115 0.03426 0.0
C1615 C 0.13074 0.19298 0.03841 0.0
C1616 C 0.1231 0.15171 0.03727 0.0
C1617 C 0.17298 0.14505 0.02452 0.0
C1618 C 0.12038 0.1379 0.02067 0.0
C1619 C 0.10636 0.11881 0.02407 0.0
C1620 C 0.0945 0.11338 0.04406 0.0
C1621 C 0.09648 0.12786 0.06035 0.0
C1622 C 0.11063 0.14678 0.05699 0.0
H1623 H 0.19165 0.14489 0.02573 0.0
H1624 H 0.16516 0.13185 0.0363 0.0
H1625 H 0.17012 0.1404 0.0084 0.0
H1626 H 0.12933 0.14171 0.00514 0.0
H1627 H 0.10511 0.10812 0.01115 0.0
H1628 H 0.22216 0.75864 0.50267 0.0
H1629 H 0.19307 0.78632 0.49277 0.0
H1630 H 0.20685 0.7725 0.42714 0.0
H1631 H 0.23634 0.74452 0.43691 0.0
H1632 H 0.2005 0.82608 0.46131 0.0
H1633 H 0.13538 0.76576 0.44209 0.0
H1634 H 0.15766 0.75695 0.45877 0.0
H1635 H 0.16426 0.76237 0.43069 0.0
C1636 C 0.21906 0.76135 0.48609 0.0
C1637 C 0.23162 0.74927 0.47058 0.0
C1638 C 0.20239 0.77724 0.48049 0.0
C1639 C 0.19766 0.78133 0.45928 0.0
C1640 C 0.21009 0.76939 0.44365 0.0
H1641 H 0.09358 0.87395 0.40934 0.0
H1642 H 0.12245 0.84384 0.41327 0.0
C1643 C 0.227 0.75351 0.44924 0.0
C1644 C 0.18005 0.79858 0.45381 0.0
H1645 H 0.12548 0.8047 0.44008 0.0
C1646 C 0.18415 0.82145 0.45652 0.0
C1647 C 0.1588 0.79248 0.44747 0.0
C1648 C 0.15353 0.76807 0.44463 0.0
C1649 C 0.16749 0.83839 0.45331 0.0
C1650 C 0.14585 0.83221 0.44781 0.0
C1651 C 0.14198 0.8094 0.44448 0.0
C1652 C 0.12699 0.84918 0.44592 0.0
C1653 C 0.17332 0.86279 0.45569 0.0
C1654 C 0.11931 0.86164 0.46319 0.0
C1655 C 0.1029 0.8789 0.46099 0.0
C1656 C 0.09357 0.88388 0.44152 0.0
C1657 C 0.1004 0.87056 0.42456 0.0
C1658 C 0.11695 0.85337 0.42676 0.0
H1659 H 0.19201 0.86547 0.45352 0.0
H1660 H 0.16515 0.87461 0.44406 0.0
H1661 H 0.16716 0.86723 0.47191 0.0
H1662 H 0.12635 0.85832 0.47831 0.0
H1663 H 0.09793 0.88868 0.47443 0.0
H1664 H 0.79756 0.76214 0.43942 0.0
H1665 H 0.82621 0.7315 0.43582 0.0
H1666 H 0.8485 0.74376 0.49662 0.0
H1667 H 0.81994 0.77387 0.5005 0.0
H1668 H 0.87504 0.72951 0.43776 0.0
H1669 H 0.8283 0.677 0.50393 0.0
H1670 H 0.81584 0.70193 0.49094 0.0
H1671 H 0.83561 0.70484 0.51041 0.0
C1672 C 0.80872 0.75841 0.45189 0.0
C1673 C 0.80622 0.77013 0.4704 0.0
C1674 C 0.82508 0.74096 0.44981 0.0
C1675 C 0.83916 0.73513 0.46615 0.0
C1676 C 0.8375 0.74769 0.48404 0.0
H1677 H 0.95099 0.6329 0.46251 0.0
H1678 H 0.9301 0.66917 0.46611 0.0
C1679 C 0.82112 0.76489 0.48621 0.0
C1680 C 0.8546 0.71506 0.46527 0.0
H1681 H 0.86377 0.66266 0.49022 0.0
C1682 C 0.87267 0.71489 0.44922 0.0
C1683 C 0.85134 0.69599 0.48022 0.0
C1684 C 0.83162 0.69476 0.49725 0.0
C1685 C 0.88752 0.69602 0.44769 0.0
C1686 C 0.88429 0.67705 0.46274 0.0
C1687 C 0.86637 0.67737 0.47888 0.0
C1688 C 0.8975 0.65559 0.46073 0.0
C1689 C 0.90605 0.69615 0.42962 0.0
C1690 C 0.88601 0.63598 0.45701 0.0
C1691 C 0.89772 0.61545 0.45514 0.0
C1692 C 0.92129 0.61393 0.457 0.0
C1693 C 0.93285 0.63353 0.46103 0.0
C1694 C 0.921 0.65426 0.4629 0.0
H1695 H 0.90402 0.71056 0.4175 0.0
H1696 H 0.92282 0.69767 0.43592 0.0
H1697 H 0.90615 0.67998 0.4218 0.0
H1698 H 0.86789 0.63661 0.45535 0.0
H1699 H 0.88819 0.60075 0.45205 0.0
H1700 H 0.30853 0.75229 0.55446 0.0
H1701 H 0.33544 0.78275 0.55811 0.0
H1702 H 0.34611 0.79436 0.49001 0.0
H1703 H 0.31955 0.76418 0.48612 0.0
H1704 H 0.38695 0.78459 0.528 0.0
H1705 H 0.32538 0.85742 0.52438 0.0
H1706 H 0.31704 0.82964 0.53643 0.0
H1707 H 0.32242 0.83411 0.50816 0.0
C1708 C 0.31652 0.76143 0.5403 0.0
C1709 C 0.31196 0.75579 0.52001 0.0
C1710 C 0.33188 0.77871 0.54241 0.0
C1711 C 0.34264 0.79061 0.5243 0.0
C1712 C 0.33792 0.78525 0.50412 0.0
H1713 H 0.42549 0.90976 0.49675 0.0
H1714 H 0.40127 0.87686 0.49511 0.0
C1715 C 0.32274 0.768 0.50197 0.0
C1716 C 0.35913 0.80857 0.52612 0.0
H1717 H 0.36423 0.86617 0.52371 0.0
C1718 C 0.38207 0.80244 0.52729 0.0
C1719 C 0.35255 0.83171 0.52483 0.0
C1720 C 0.32801 0.83882 0.52343 0.0
C1721 C 0.39882 0.81907 0.52689 0.0
C1722 C 0.39225 0.84231 0.5256 0.0
C1723 C 0.36921 0.84834 0.52461 0.0
C1724 C 0.40887 0.86074 0.52555 0.0
C1725 C 0.42341 0.81165 0.52721 0.0
C1726 C 0.42143 0.86233 0.54304 0.0
C1727 C 0.43539 0.88097 0.54395 0.0
C1728 C 0.43682 0.89851 0.52749 0.0
C1729 C 0.42479 0.89651 0.50965 0.0
C1730 C 0.41089 0.87779 0.50873 0.0
H1731 H 0.42617 0.79409 0.52227 0.0
H1732 H 0.43473 0.82334 0.5166 0.0
H1733 H 0.42844 0.81187 0.5436 0.0
H1734 H 0.41977 0.8496 0.55637 0.0
H1735 H 0.44431 0.88205 0.55799 0.0
H1736 H 0.49282 0.70382 0.80735 0.0
H1737 H 0.4972 0.6775 0.77968 0.0
H1738 H 0.56765 0.696 0.76582 0.0
H1739 H 0.56343 0.72277 0.79377 0.0
H1740 H 0.54131 0.69638 0.72951 0.0
H1741 H 0.53182 0.61579 0.78084 0.0
H1742 H 0.50999 0.63662 0.78664 0.0
H1743 H 0.53898 0.64232 0.79078 0.0
C1744 C 0.50934 0.70232 0.79855 0.0
C1745 C 0.52781 0.71545 0.80278 0.0
C1746 C 0.51182 0.6871 0.7828 0.0
C1747 C 0.53279 0.68458 0.77093 0.0
C1748 C 0.55135 0.69762 0.77498 0.0
H1749 H 0.56336 0.58255 0.68073 0.0
H1750 H 0.56217 0.60564 0.71113 0.0
C1751 C 0.54893 0.71285 0.79093 0.0
C1752 C 0.53474 0.66897 0.75371 0.0
H1753 H 0.52768 0.61357 0.74398 0.0
C1754 C 0.53856 0.67825 0.73264 0.0
C1755 C 0.53124 0.64531 0.75789 0.0
C1756 C 0.52798 0.63433 0.78027 0.0
C1757 C 0.5383 0.66455 0.71558 0.0
C1758 C 0.5338 0.64106 0.71975 0.0
C1759 C 0.53072 0.63166 0.74084 0.0
C1760 C 0.53303 0.62585 0.70238 0.0
C1761 C 0.54296 0.67531 0.69323 0.0
C1762 C 0.51648 0.62901 0.68783 0.0
C1763 C 0.51708 0.61577 0.67045 0.0
C1764 C 0.53428 0.59924 0.66736 0.0
C1765 C 0.55006 0.59535 0.6826 0.0
C1766 C 0.54939 0.60849 0.69997 0.0
H1767 H 0.55116 0.69215 0.69289 0.0
H1768 H 0.5541 0.66413 0.68336 0.0
H1769 H 0.52664 0.67784 0.68593 0.0
H1770 H 0.50345 0.64208 0.68965 0.0
H1771 H 0.50477 0.6192 0.65892 0.0
H1772 H 0.51412 0.82013 0.80734 0.0
H1773 H 0.51229 0.84592 0.77556 0.0
H1774 H 0.44683 0.81918 0.76614 0.0
H1775 H 0.44842 0.79323 0.79832 0.0
H1776 H 0.5101 0.82876 0.73602 0.0
H1777 H 0.43873 0.88905 0.75448 0.0
H1778 H 0.45267 0.87253 0.77489 0.0
H1779 H 0.43243 0.85939 0.76048 0.0
C1780 C 0.49911 0.81996 0.79875 0.0
C1781 C 0.48149 0.8045 0.80519 0.0
C1782 C 0.4981 0.83476 0.78062 0.0
C1783 C 0.47945 0.83446 0.76854 0.0
C1784 C 0.46123 0.81987 0.77545 0.0
H1785 H 0.47491 0.87228 0.63556 0.0
H1786 H 0.47512 0.85316 0.6712 0.0
C1787 C 0.46218 0.80504 0.79377 0.0
C1788 C 0.48049 0.8476 0.74761 0.0
H1789 H 0.45481 0.89035 0.71862 0.0
C1790 C 0.49807 0.8423 0.73225 0.0
C1791 C 0.46489 0.86533 0.74284 0.0
C1792 C 0.44619 0.87212 0.75906 0.0
C1793 C 0.50025 0.85404 0.71209 0.0
C1794 C 0.48433 0.87137 0.70713 0.0
C1795 C 0.46697 0.877 0.72256 0.0
C1796 C 0.48488 0.88304 0.68561 0.0
C1797 C 0.51957 0.84784 0.69621 0.0
C1798 C 0.49039 0.90615 0.68199 0.0
C1799 C 0.4904 0.91712 0.66158 0.0
C1800 C 0.48456 0.90515 0.64466 0.0
C1801 C 0.47935 0.88193 0.64836 0.0
C1802 C 0.47951 0.87098 0.66866 0.0
H1803 H 0.53309 0.83777 0.70391 0.0
H1804 H 0.51291 0.83746 0.68439 0.0
H1805 H 0.52726 0.86335 0.68754 0.0
H1806 H 0.49457 0.91568 0.69497 0.0
H1807 H 0.49426 0.93507 0.65917 0.0
H1808 H 0.57629 0.25848 0.71317 0.0
H1809 H 0.58599 0.28408 0.73969 0.0
H1810 H 0.52723 0.32597 0.7273 0.0
H1811 H 0.51742 0.30069 0.70116 0.0
H1812 H 0.57131 0.3496 0.73238 0.0
H1813 H 0.54097 0.28412 0.79679 0.0
H1814 H 0.56151 0.27589 0.77589 0.0
H1815 H 0.53308 0.28349 0.77005 0.0
C1816 C 0.56574 0.27337 0.71592 0.0
C1817 C 0.54595 0.27748 0.70545 0.0
C1818 C 0.57125 0.2879 0.73099 0.0
C1819 C 0.55718 0.30671 0.7354 0.0
C1820 C 0.53823 0.3115 0.72404 0.0
H1821 H 0.52975 0.41192 0.82017 0.0
H1822 H 0.53276 0.38761 0.79042 0.0
C1823 C 0.53259 0.29696 0.70926 0.0
C1824 C 0.56049 0.32039 0.75318 0.0
H1825 H 0.54871 0.32031 0.80675 0.0
C1826 C 0.56677 0.34319 0.74872 0.0
C1827 C 0.55433 0.31185 0.77433 0.0
C1828 C 0.54698 0.28754 0.77973 0.0
C1829 C 0.56668 0.35791 0.76497 0.0
C1830 C 0.55955 0.34962 0.78604 0.0
C1831 C 0.55401 0.3266 0.79054 0.0
C1832 C 0.5576 0.36446 0.80375 0.0
C1833 C 0.57417 0.38215 0.75945 0.0
C1834 C 0.56984 0.35891 0.82134 0.0
C1835 C 0.56781 0.3724 0.8384 0.0
C1836 C 0.55357 0.39183 0.83816 0.0
C1837 C 0.54087 0.3971 0.82074 0.0
C1838 C 0.54283 0.38344 0.80365 0.0
H1839 H 0.5851 0.38392 0.74419 0.0
H1840 H 0.55893 0.39324 0.75775 0.0
H1841 H 0.58368 0.38832 0.7721 0.0
H1842 H 0.58106 0.34414 0.82184 0.0
H1843 H 0.57739 0.36757 0.85184 0.0
H1844 H 0.45384 0.20986 0.73169 0.0
H1845 H 0.44932 0.18509 0.7648 0.0
H1846 H 0.51563 0.15543 0.74982 0.0
H1847 H 0.52026 0.17991 0.71682 0.0
H1848 H 0.4817 0.12315 0.7648 0.0
H1849 H 0.48369 0.19354 0.81767 0.0
H1850 H 0.463 0.19675 0.79853 0.0
H1851 H 0.49281 0.19705 0.78965 0.0
C1852 C 0.46738 0.19794 0.73536 0.0
C1853 C 0.48746 0.19698 0.7216 0.0
C1854 C 0.46484 0.18391 0.75438 0.0
C1855 C 0.48229 0.16863 0.75995 0.0
C1856 C 0.50199 0.16715 0.74592 0.0
H1857 H 0.5018 0.10054 0.88463 0.0
H1858 H 0.50645 0.12292 0.85019 0.0
C1859 C 0.5046 0.18121 0.72704 0.0
C1860 C 0.48027 0.15425 0.78044 0.0
H1861 H 0.47656 0.15667 0.83431 0.0
C1862 C 0.48054 0.13048 0.78 0.0
C1863 C 0.47915 0.1638 0.80026 0.0
C1864 C 0.47983 0.18918 0.8017 0.0
C1865 C 0.47937 0.11602 0.79883 0.0
C1866 C 0.47769 0.12558 0.81868 0.0
C1867 C 0.47775 0.14935 0.81911 0.0
C1868 C 0.47544 0.11122 0.83919 0.0
C1869 C 0.48032 0.09063 0.79731 0.0
C1870 C 0.45649 0.0972 0.84448 0.0
C1871 C 0.4538 0.0844 0.86408 0.0
C1872 C 0.46998 0.08536 0.87894 0.0
C1873 C 0.48911 0.09925 0.87353 0.0
C1874 C 0.49174 0.11213 0.85388 0.0
H1875 H 0.48764 0.08616 0.78138 0.0
H1876 H 0.49062 0.0821 0.8095 0.0
H1877 H 0.46281 0.08381 0.80004 0.0
H1878 H 0.44347 0.09651 0.83361 0.0
H1879 H 0.43876 0.07405 0.86772 0.0
H1880 H 0.76949 0.56665 0.68622 0.0
H1881 H 0.741 0.56937 0.66025 0.0
H1882 H 0.72995 0.49712 0.67099 0.0
H1883 H 0.7585 0.49418 0.69636 0.0
H1884 H 0.73373 0.51094 0.62887 0.0
H1885 H 0.67251 0.56645 0.67351 0.0
H1886 H 0.7006 0.57774 0.66726 0.0
H1887 H 0.6964 0.5527 0.68523 0.0
C1888 C 0.76087 0.5514 0.68311 0.0
C1889 C 0.76623 0.53023 0.69343 0.0
C1890 C 0.74458 0.55298 0.66829 0.0
C1891 C 0.7332 0.53346 0.66379 0.0
C1892 C 0.73855 0.51239 0.67412 0.0
H1893 H 0.60386 0.51882 0.61844 0.0
H1894 H 0.63833 0.51778 0.63689 0.0
C1895 C 0.75485 0.51078 0.68872 0.0
C1896 C 0.71549 0.53461 0.64855 0.0
H1897 H 0.66236 0.55568 0.64086 0.0
C1898 C 0.71817 0.52085 0.63137 0.0
C1899 C 0.69515 0.54742 0.65194 0.0
C1900 C 0.6908 0.56178 0.67056 0.0
C1901 C 0.70081 0.51904 0.61788 0.0
C1902 C 0.6804 0.53167 0.62144 0.0
C1903 C 0.67804 0.54599 0.63818 0.0
C1904 C 0.66051 0.52922 0.60912 0.0
C1905 C 0.70408 0.50291 0.60056 0.0
C1906 C 0.66162 0.53514 0.58712 0.0
C1907 C 0.64186 0.53533 0.57639 0.0
C1908 C 0.62073 0.52998 0.58763 0.0
C1909 C 0.61994 0.523 0.60938 0.0
C1910 C 0.6396 0.52254 0.61997 0.0
H1911 H 0.71847 0.49083 0.60292 0.0
H1912 H 0.6884 0.49303 0.59979 0.0
H1913 H 0.70782 0.51284 0.58504 0.0
H1914 H 0.67749 0.54069 0.57846 0.0
H1915 H 0.64286 0.54114 0.5597 0.0
H1916 H 0.24522 0.95917 0.68512 0.0
H1917 H 0.27725 0.95713 0.65776 0.0
H1918 H 0.26833 0.0284 0.63893 0.0
H1919 H 0.23663 0.03071 0.66634 0.0
H1920 H 0.28178 0.96762 0.61308 0.0
H1921 H 0.33422 0.024 0.65447 0.0
H1922 H 0.30825 0.01134 0.66696 0.0
H1923 H 0.30714 0.03581 0.64823 0.0
C1924 C 0.24996 0.97436 0.67505 0.0
C1925 C 0.23852 0.99516 0.67812 0.0
C1926 C 0.26824 0.97316 0.6594 0.0
C1927 C 0.27541 0.9927 0.64655 0.0
C1928 C 0.26338 0.01321 0.64894 0.0
H1929 H 0.38462 0.99065 0.54059 0.0
H1930 H 0.34739 0.99711 0.56034 0.0
C1931 C 0.2452 0.01446 0.66461 0.0
C1932 C 0.29616 0.99189 0.63143 0.0
H1933 H 0.35026 0.01217 0.62173 0.0
C1934 C 0.29673 0.97746 0.61484 0.0
C1935 C 0.31568 0.00464 0.63388 0.0
C1936 C 0.31648 0.01968 0.65193 0.0
C1937 C 0.31643 0.97522 0.6008 0.0
C1938 C 0.33593 0.98794 0.60332 0.0
C1939 C 0.33519 1.00264 0.61968 0.0
C1940 C 0.3581 0.98438 0.59085 0.0
C1941 C 0.31657 0.95863 0.58393 0.0
C1942 C 0.37647 0.97553 0.60149 0.0
C1943 C 0.39757 0.97197 0.59039 0.0
C1944 C 0.40093 0.97727 0.56829 0.0
C1945 C 0.38258 0.9864 0.55758 0.0
C1946 C 0.36129 0.98994 0.56881 0.0
H1947 H 0.30139 0.94754 0.5862 0.0
H1948 H 0.31671 0.96819 0.56811 0.0
H1949 H 0.33212 0.94772 0.5839 0.0
H1950 H 0.37443 0.97115 0.61847 0.0
H1951 H 0.41125 0.96492 0.59923 0.0
H1952 H 0.7743 0.44879 0.78524 0.0
H1953 H 0.74587 0.44305 0.81597 0.0
H1954 H 0.7328 0.51535 0.8138 0.0
H1955 H 0.76125 0.52127 0.78364 0.0
H1956 H 0.73578 0.49671 0.85457 0.0
H1957 H 0.67742 0.44703 0.81257 0.0
H1958 H 0.70576 0.43555 0.81352 0.0
H1959 H 0.70126 0.46233 0.79877 0.0
C1960 C 0.76534 0.46344 0.79132 0.0
C1961 C 0.76998 0.48546 0.78185 0.0
C1962 C 0.74907 0.46013 0.80885 0.0
C1963 C 0.73702 0.47876 0.81707 0.0
C1964 C 0.74189 0.50072 0.8078 0.0
H1965 H 0.60545 0.48876 0.88156 0.0
H1966 H 0.64117 0.49223 0.85896 0.0
C1967 C 0.75814 0.50404 0.79044 0.0
C1968 C 0.71879 0.47572 0.83487 0.0
H1969 H 0.66563 0.45407 0.84781 0.0
C1970 C 0.72051 0.48721 0.85321 0.0
C1971 C 0.69881 0.46346 0.83299 0.0
C1972 C 0.6955 0.45152 0.81337 0.0
C1973 C 0.70253 0.4873 0.86943 0.0
C1974 C 0.68245 0.47535 0.86735 0.0
C1975 C 0.68107 0.46324 0.84936 0.0
C1976 C 0.66185 0.47648 0.88263 0.0
C1977 C 0.70475 0.50099 0.88818 0.0
C1978 C 0.66171 0.46735 0.90383 0.0
C1979 C 0.64119 0.46571 0.91699 0.0
C1980 C 0.62061 0.47288 0.90896 0.0
C1981 C 0.62109 0.48317 0.88817 0.0
C1982 C 0.64147 0.48502 0.8752 0.0
H1983 H 0.71947 0.51266 0.88544 0.0
H1984 H 0.68902 0.51116 0.89172 0.0
H1985 H 0.70723 0.48924 0.90236 0.0
H1986 H 0.67717 0.46038 0.90983 0.0
H1987 H 0.6412 0.45733 0.93283 0.0
H1988 H 0.25563 0.00789 0.75478 0.0
H1989 H 0.27911 0.0103 0.78413 0.0
H1990 H 0.24478 0.07271 0.80001 0.0
H1991 H 0.22102 0.07043 0.77043 0.0
H1992 H 0.30777 0.04719 0.79491 0.0
H1993 H 0.23381 0.02547 0.85393 0.0
H1994 H 0.23379 0.02045 0.82624 0.0
H1995 H 0.23052 0.04885 0.83432 0.0
C1996 C 0.25334 0.02236 0.76427 0.0
C1997 C 0.23643 0.0389 0.76049 0.0
C1998 C 0.26675 0.02369 0.78101 0.0
C1999 C 0.26333 0.04144 0.79434 0.0
C2000 C 0.24739 0.05875 0.78994 0.0
H2001 H 0.32716 0.05884 0.90915 0.0
H2002 H 0.29989 0.05985 0.88232 0.0
C2003 C 0.23403 0.05754 0.77298 0.0
C2004 C 0.27578 0.04083 0.81343 0.0
H2005 H 0.26954 0.02838 0.86713 0.0
C2006 C 0.29945 0.04327 0.81073 0.0
C2007 C 0.26473 0.03559 0.83395 0.0
C2008 C 0.23932 0.03228 0.83745 0.0
C2009 C 0.3125 0.04043 0.82809 0.0
C2010 C 0.30156 0.03448 0.84854 0.0
C2011 C 0.27781 0.03263 0.85134 0.0
C2012 C 0.3147 0.0308 0.86718 0.0
C2013 C 0.33788 0.04396 0.82441 0.0
C2014 C 0.33105 0.01324 0.86825 0.0
C2015 C 0.34667 0.01265 0.8835 0.0
C2016 C 0.34602 0.02961 0.89784 0.0
C2017 C 0.32816 0.04575 0.89806 0.0
C2018 C 0.31258 0.04634 0.8828 0.0
H2019 H 0.34276 0.05357 0.80891 0.0
H2020 H 0.34406 0.05328 0.83722 0.0
H2021 H 0.34668 0.02716 0.82442 0.0
H2022 H 0.33261 1.00087 0.85647 0.0
H2023 H 0.3603 1.00008 0.88294 0.0
H2024 H 0.71255 0.76651 0.55351 0.0
H2025 H 0.68592 0.73469 0.56124 0.0
H2026 H 0.68754 0.7259 0.49438 0.0
H2027 H 0.71383 0.75746 0.48648 0.0
H2028 H 0.6408 0.73016 0.54211 0.0
H2029 H 0.70438 0.66186 0.52452 0.0
H2030 H 0.71235 0.68956 0.53139 0.0
H2031 H 0.70449 0.68598 0.50523 0.0
C2032 C 0.70724 0.75777 0.54048 0.0
C2033 C 0.71538 0.76454 0.51939 0.0
C2034 C 0.69202 0.73965 0.54491 0.0
C2035 C 0.68496 0.72786 0.52837 0.0
C2036 C 0.69296 0.73464 0.50737 0.0
H2037 H 0.60432 0.60972 0.51465 0.0
H2038 H 0.62846 0.64337 0.50929 0.0
C2039 C 0.70796 0.75277 0.50292 0.0
C2040 C 0.66909 0.7085 0.53278 0.0
H2041 H 0.66567 0.65126 0.52919 0.0
C2042 C 0.64621 0.71286 0.53949 0.0
C2043 C 0.67621 0.68603 0.52912 0.0
C2044 C 0.70073 0.68041 0.52231 0.0
C2045 C 0.63008 0.69536 0.54212 0.0
C2046 C 0.63718 0.67283 0.53842 0.0
C2047 C 0.66018 0.66851 0.53194 0.0
C2048 C 0.62119 0.65338 0.54132 0.0
C2049 C 0.60547 0.70135 0.54815 0.0
C2050 C 0.60896 0.64782 0.56105 0.0
C2051 C 0.59498 0.62874 0.56409 0.0
C2052 C 0.59316 0.61458 0.54753 0.0
C2053 C 0.60524 0.62029 0.5277 0.0
C2054 C 0.61911 0.63949 0.52464 0.0
H2055 H 0.60184 0.71968 0.54417 0.0
H2056 H 0.59388 0.69112 0.54002 0.0
H2057 H 0.60162 0.69779 0.56554 0.0
H2058 H 0.61069 0.65788 0.57432 0.0
H2059 H 0.58613 0.62473 0.57965 0.0
H2060 H 0.72421 0.25858 0.00895 0.0
H2061 H 0.69411 0.28569 1.00077 0.0
H2062 H 0.70638 0.2746 0.93434 0.0
H2063 H 0.73716 0.24745 0.94239 0.0
H2064 H 0.70093 0.3201 0.94128 0.0
H2065 H 0.6309 0.2711 0.98662 0.0
H2066 H 0.65364 0.27569 0.00259 0.0
H2067 H 0.65868 0.25876 0.98021 0.0
C2068 C 0.72055 0.26175 0.99256 0.0
C2069 C 0.73305 0.25063 0.97634 0.0
C2070 C 0.70316 0.27721 0.98793 0.0
C2071 C 0.69754 0.28178 0.96702 0.0
C2072 C 0.71025 0.27113 0.95064 0.0
H2073 H 0.59562 0.37755 0.91796 0.0
H2074 H 0.62324 0.34633 0.92165 0.0
C2075 C 0.72784 0.25564 0.95526 0.0
C2076 C 0.67881 0.29821 0.96247 0.0
H2077 H 0.62305 0.3106 0.97751 0.0
C2078 C 0.68382 0.31787 0.94894 0.0
C2079 C 0.65643 0.2953 0.97245 0.0
C2080 C 0.64951 0.27395 0.9861 0.0
C2081 C 0.66735 0.33509 0.94586 0.0
C2082 C 0.64525 0.3325 0.95647 0.0
C2083 C 0.64006 0.31262 0.96955 0.0
C2084 C 0.6275 0.35055 0.95456 0.0
C2085 C 0.67387 0.35631 0.93188 0.0
C2086 C 0.62022 0.36284 0.97204 0.0
C2087 C 0.60442 0.38074 0.97002 0.0
C2088 C 0.59542 0.38652 0.9505 0.0
C2089 C 0.60216 0.37358 0.93324 0.0
C2090 C 0.61807 0.3558 0.93525 0.0
H2091 H 0.69256 0.35739 0.92776 0.0
H2092 H 0.66552 0.35634 0.91692 0.0
H2093 H 0.66792 0.37173 0.93983 0.0
H2094 H 0.62723 0.35896 0.98712 0.0
H2095 H 0.59962 0.39033 0.98362 0.0
H2096 H 0.30946 0.27794 0.93203 0.0
H2097 H 0.33915 0.24876 0.92602 0.0
H2098 H 0.33068 0.22558 0.99251 0.0
H2099 H 0.30177 0.25482 0.99869 0.0
H2100 H 0.37503 0.22907 0.97838 0.0
H2101 H 0.32921 0.18152 0.92355 0.0
H2102 H 0.33437 0.21092 0.91514 0.0
H2103 H 0.31555 0.20351 0.93852 0.0
C2104 C 0.3139 0.26652 0.9453 0.0
C2105 C 0.30323 0.26866 0.96581 0.0
C2106 C 0.33082 0.24984 0.94185 0.0
C2107 C 0.33701 0.23485 0.9588 0.0
C2108 C 0.32629 0.23701 0.97921 0.0
H2109 H 0.39011 0.10074 0.96449 0.0
H2110 H 0.36916 0.13667 0.96562 0.0
C2111 C 0.30967 0.25372 0.98269 0.0
C2112 C 0.3544 0.21659 0.95568 0.0
H2113 H 0.36476 0.16696 0.93219 0.0
C2114 C 0.37293 0.21556 0.96814 0.0
C2115 C 0.35154 0.19896 0.94238 0.0
C2116 C 0.33153 0.19857 0.92925 0.0
C2117 C 0.38812 0.19692 0.96837 0.0
C2118 C 0.38501 0.17911 0.95535 0.0
C2119 C 0.36709 0.18065 0.94218 0.0
C2120 C 0.39866 0.15771 0.95647 0.0
C2121 C 0.40659 0.19593 0.98334 0.0
C2122 C 0.4224 0.15755 0.95152 0.0
C2123 C 0.43456 0.13689 0.95126 0.0
C2124 C 0.42305 0.11615 0.95554 0.0
C2125 C 0.39944 0.11646 0.96107 0.0
C2126 C 0.38742 0.13699 0.96162 0.0
H2127 H 0.40351 0.20839 0.99554 0.0
H2128 H 0.40795 0.17865 0.99152 0.0
H2129 H 0.42316 0.19994 0.97416 0.0
H2130 H 0.43139 0.1733 0.94715 0.0
H2131 H 0.45271 0.1371 0.94666 0.0
H2132 H 0.81404 0.25031 0.05818 0.0
H2133 H 0.84061 0.28112 0.06171 0.0
H2134 H 0.84543 0.29734 0.99399 0.0
H2135 H 0.81927 0.2668 0.99023 0.0
H2136 H 0.88867 0.28585 0.0342 0.0
H2137 H 0.82726 0.35822 0.02613 0.0
H2138 H 0.81848 0.32993 0.03635 0.0
H2139 H 0.82595 0.33601 0.00844 0.0
C2140 C 0.82067 0.26055 0.04409 0.0
C2141 C 0.8146 0.25611 0.02394 0.0
C2142 C 0.83585 0.27803 0.04613 0.0
C2143 C 0.8448 0.2914 0.02809 0.0
C2144 C 0.83857 0.28719 0.00806 0.0
H2145 H 0.92783 0.41021 0.99841 0.0
H2146 H 0.90408 0.37686 0.99727 0.0
C2147 C 0.82365 0.26969 0.00598 0.0
C2148 C 0.86108 0.30962 0.02979 0.0
H2149 H 0.86623 0.36728 0.02457 0.0
C2150 C 0.88383 0.30368 0.03234 0.0
C2151 C 0.85458 0.33274 0.02704 0.0
C2152 C 0.83022 0.33977 0.02445 0.0
C2153 C 0.9005 0.32043 0.03171 0.0
C2154 C 0.89403 0.34362 0.02886 0.0
C2155 C 0.87116 0.34948 0.02661 0.0
C2156 C 0.91052 0.36223 0.02858 0.0
C2157 C 0.92496 0.31311 0.0334 0.0
C2158 C 0.92228 0.36481 0.0464 0.0
C2159 C 0.93599 0.3837 0.04702 0.0
C2160 C 0.93794 0.40052 0.02993 0.0
C2161 C 0.92673 0.39753 0.0118 0.0
C2162 C 0.9131 0.37854 0.01115 0.0
H2163 H 0.92798 0.29527 0.02932 0.0
H2164 H 0.93676 0.32434 0.02282 0.0
H2165 H 0.92911 0.31412 0.04999 0.0
H2166 H 0.92016 0.3527 0.06019 0.0
H2167 H 0.94428 0.38555 0.0613 0.0
loop_
_geom_bond_atom_site_label_1
_geom_bond_atom_site_label_2
_geom_bond_distance
_geom_bond_site_symmetry_2
_ccdc_geom_bond_type
C0 O2 1.247 . S
C0 O4 1.258 1_455 S
C1 O8 1.247 . S
C1 O9 1.258 1_655 S
O2 C0 1.247 . S
O2 Zn3 2.028 . S
Zn3 O2 2.028 . S
Zn3 O7 2.035 . S
Zn3 O9 2.035 . S
Zn3 O10 2.028 . S
O4 C0 1.258 1_655 S
O4 Zn5 2.035 . S
Zn5 O4 2.035 . S
Zn5 O6 2.028 . S
Zn5 O8 2.028 . S
Zn5 O11 2.035 . S
O6 Zn5 2.028 . S
O6 C12 1.247 . S
O7 Zn3 2.035 . S
O7 C12 1.258 1_455 S
O8 C1 1.247 . S
O8 Zn5 2.028 . S
O9 C1 1.258 1_455 S
O9 Zn3 2.035 . S
O10 Zn3 2.028 . S
O10 C13 1.247 . S
O11 Zn5 2.035 . S
O11 C13 1.258 1_655 S
C12 O6 1.247 . S
C12 O7 1.258 1_655 S
C13 O10 1.247 . S
C13 O11 1.258 1_455 S
C14 O16 1.247 . S
C14 O18 1.258 1_455 S
C15 O22 1.247 . S
C15 O23 1.258 1_655 S
O16 C14 1.247 . S
O16 Zn17 2.028 . S
Zn17 O16 2.028 . S
Zn17 O21 2.035 . S
Zn17 O23 2.035 . S
Zn17 O24 2.028 . S
O18 C14 1.258 1_655 S
O18 Zn19 2.035 . S
Zn19 O18 2.035 . S
Zn19 O20 2.028 . S
Zn19 O22 2.028 . S
Zn19 O25 2.035 . S
O20 Zn19 2.028 . S
O20 C26 1.247 . S
O21 Zn17 2.035 . S
O21 C26 1.258 1_455 S
O22 C15 1.247 . S
O22 Zn19 2.028 . S
O23 C15 1.258 1_455 S
O23 Zn17 2.035 . S
O24 Zn17 2.028 . S
O24 C27 1.247 . S
O25 Zn19 2.035 . S
O25 C27 1.258 1_655 S
C26 O20 1.247 . S
C26 O21 1.258 1_655 S
C27 O24 1.247 . S
C27 O25 1.258 1_455 S
C28 O30 1.247 1_545 S
C28 O32 1.258 . S
C29 O36 1.247 . S
C29 O37 1.258 1_545 S
O30 C28 1.247 1_565 S
O30 Zn31 2.028 . S
Zn31 O30 2.028 . S
Zn31 O35 2.035 . S
Zn31 O37 2.035 . S
Zn31 O38 2.028 . S
O32 C28 1.258 . S
O32 Zn33 2.035 . S
Zn33 O32 2.035 . S
Zn33 O34 2.028 . S
Zn33 O36 2.028 . S
Zn33 O39 2.035 . S
O34 Zn33 2.028 . S
O34 C40 1.247 . S
O35 Zn31 2.035 . S
O35 C40 1.258 1_565 S
O36 C29 1.247 . S
O36 Zn33 2.028 . S
O37 C29 1.258 1_565 S
O37 Zn31 2.035 . S
O38 Zn31 2.028 . S
O38 C41 1.247 1_565 S
O39 Zn33 2.035 . S
O39 C41 1.258 . S
C40 O34 1.247 . S
C40 O35 1.258 1_545 S
C41 O38 1.247 1_545 S
C41 O39 1.258 . S
C42 O44 1.247 . S
C42 O46 1.258 . S
C43 O50 1.247 . S
C43 O51 1.258 . S
O44 C42 1.247 . S
O44 Zn45 2.028 . S
Zn45 O44 2.028 . S
Zn45 O49 2.035 . S
Zn45 O51 2.035 . S
Zn45 O52 2.028 . S
O46 C42 1.258 . S
O46 Zn47 2.035 . S
Zn47 O46 2.035 . S
Zn47 O48 2.028 . S
Zn47 O50 2.028 . S
Zn47 O53 2.035 . S
O48 Zn47 2.028 . S
O48 C54 1.247 . S
O49 Zn45 2.035 . S
O49 C54 1.258 . S
O50 C43 1.247 . S
O50 Zn47 2.028 . S
O51 C43 1.258 . S
O51 Zn45 2.035 . S
O52 Zn45 2.028 . S
O52 C55 1.247 . S
O53 Zn47 2.035 . S
O53 C55 1.258 . S
C54 O48 1.247 . S
C54 O49 1.258 . S
C55 O52 1.247 . S
C55 O53 1.258 . S
C56 O58 1.247 1_554 S
C56 O60 1.258 . S
C57 O64 1.247 1_556 S
C57 O65 1.258 . S
O58 C56 1.247 1_556 S
O58 Zn59 2.028 . S
Zn59 O58 2.028 . S
Zn59 O63 2.035 . S
Zn59 O65 2.035 . S
Zn59 O66 2.028 . S
O60 C56 1.258 . S
O60 Zn61 2.035 . S
Zn61 O60 2.035 . S
Zn61 O62 2.028 . S
Zn61 O64 2.028 . S
Zn61 O67 2.035 . S
O62 Zn61 2.028 . S
O62 C68 1.247 1_554 S
O63 Zn59 2.035 . S
O63 C68 1.258 . S
O64 C57 1.247 1_554 S
O64 Zn61 2.028 . S
O65 C57 1.258 . S
O65 Zn59 2.035 . S
O66 Zn59 2.028 . S
O66 C69 1.247 1_556 S
O67 Zn61 2.035 . S
O67 C69 1.258 . S
C68 O62 1.247 1_556 S
C68 O63 1.258 . S
C69 O66 1.247 1_554 S
C69 O67 1.258 . S
C70 O72 1.247 . S
C70 O74 1.258 . S
C71 O78 1.247 . S
C71 O79 1.258 . S
O72 C70 1.247 . S
O72 Zn73 2.028 . S
Zn73 O72 2.028 . S
Zn73 O77 2.035 . S
Zn73 O79 2.035 . S
Zn73 O80 2.028 . S
O74 C70 1.258 . S
O74 Zn75 2.035 . S
Zn75 O74 2.035 . S
Zn75 O76 2.028 . S
Zn75 O78 2.028 . S
Zn75 O81 2.035 . S
O76 Zn75 2.028 . S
O76 C82 1.247 . S
O77 Zn73 2.035 . S
O77 C82 1.258 . S
O78 C71 1.247 . S
O78 Zn75 2.028 . S
O79 C71 1.258 . S
O79 Zn73 2.035 . S
O80 Zn73 2.028 . S
O80 C83 1.247 . S
O81 Zn75 2.035 . S
O81 C83 1.258 . S
C82 O76 1.247 . S
C82 O77 1.258 . S
C83 O80 1.247 . S
C83 O81 1.258 . S
C84 O86 1.247 . S
C84 O88 1.258 . S
C85 O92 1.247 . S
C85 O93 1.258 . S
O86 C84 1.247 . S
O86 Zn87 2.028 . S
Zn87 O86 2.028 . S
Zn87 O91 2.035 . S
Zn87 O93 2.035 . S
Zn87 O94 2.028 . S
O88 C84 1.258 . S
O88 Zn89 2.035 . S
Zn89 O88 2.035 . S
Zn89 O90 2.028 . S
Zn89 O92 2.028 . S
Zn89 O95 2.035 . S
O90 Zn89 2.028 . S
O90 C96 1.247 . S
O91 Zn87 2.035 . S
O91 C96 1.258 . S
O92 C85 1.247 . S
O92 Zn89 2.028 . S
O93 C85 1.258 . S
O93 Zn87 2.035 . S
O94 Zn87 2.028 . S
O94 C97 1.247 . S
O95 Zn89 2.035 . S
O95 C97 1.258 . S
C96 O90 1.247 . S
C96 O91 1.258 . S
C97 O94 1.247 . S
C97 O95 1.258 . S
C98 O100 1.247 . S
C98 O102 1.258 . S
C99 O106 1.247 . S
C99 O107 1.258 . S
O100 C98 1.247 . S
O100 Zn101 2.028 . S
Zn101 O100 2.028 . S
Zn101 O105 2.035 . S
Zn101 O107 2.035 . S
Zn101 O108 2.028 . S
O102 C98 1.258 . S
O102 Zn103 2.035 . S
Zn103 O102 2.035 . S
Zn103 O104 2.028 . S
Zn103 O106 2.028 . S
Zn103 O109 2.035 . S
O104 Zn103 2.028 . S
O104 C110 1.247 . S
O105 Zn101 2.035 . S
O105 C110 1.258 . S
O106 C99 1.247 . S
O106 Zn103 2.028 . S
O107 C99 1.258 . S
O107 Zn101 2.035 . S
O108 Zn101 2.028 . S
O108 C111 1.247 . S
O109 Zn103 2.035 . S
O109 C111 1.258 . S
C110 O104 1.247 . S
C110 O105 1.258 . S
C111 O108 1.247 . S
C111 O109 1.258 . S
C112 O114 1.247 . S
C112 O116 1.258 . S
C113 O120 1.247 . S
C113 O121 1.258 . S
O114 C112 1.247 . S
O114 Zn115 2.028 . S
Zn115 O114 2.028 . S
Zn115 O119 2.035 . S
Zn115 O121 2.035 . S
Zn115 O122 2.028 . S
O116 C112 1.258 . S
O116 Zn117 2.035 . S
Zn117 O116 2.035 . S
Zn117 O118 2.028 . S
Zn117 O120 2.028 . S
Zn117 O123 2.035 . S
O118 Zn117 2.028 . S
O118 C124 1.247 . S
O119 Zn115 2.035 . S
O119 C124 1.258 . S
O120 C113 1.247 . S
O120 Zn117 2.028 . S
O121 C113 1.258 . S
O121 Zn115 2.035 . S
O122 Zn115 2.028 . S
O122 C125 1.247 . S
O123 Zn117 2.035 . S
O123 C125 1.258 . S
C124 O118 1.247 . S
C124 O119 1.258 . S
C125 O122 1.247 . S
C125 O123 1.258 . S
C126 O128 1.247 . S
C126 O130 1.258 . S
C127 O134 1.247 . S
C127 O135 1.258 . S
O128 C126 1.247 . S
O128 Zn129 2.028 . S
Zn129 O128 2.028 . S
Zn129 O133 2.035 . S
Zn129 O135 2.035 . S
Zn129 O136 2.028 . S
O130 C126 1.258 . S
O130 Zn131 2.035 . S
Zn131 O130 2.035 . S
Zn131 O132 2.028 . S
Zn131 O134 2.028 . S
Zn131 O137 2.035 . S
O132 Zn131 2.028 . S
O132 C138 1.247 . S
O133 Zn129 2.035 . S
O133 C138 1.258 . S
O134 C127 1.247 . S
O134 Zn131 2.028 . S
O135 C127 1.258 . S
O135 Zn129 2.035 . S
O136 Zn129 2.028 . S
O136 C139 1.247 . S
O137 Zn131 2.035 . S
O137 C139 1.258 . S
C138 O132 1.247 . S
C138 O133 1.258 . S
C139 O136 1.247 . S
C139 O137 1.258 . S
C140 O142 1.247 . S
C140 O144 1.258 1_565 S
C141 O148 1.247 . S
C141 O149 1.258 1_545 S
O142 C140 1.247 . S
O142 Zn143 2.028 . S
Zn143 O142 2.028 . S
Zn143 O147 2.035 . S
Zn143 O149 2.035 . S
Zn143 O150 2.028 . S
O144 C140 1.258 1_545 S
O144 Zn145 2.035 . S
Zn145 O144 2.035 . S
Zn145 O146 2.028 . S
Zn145 O148 2.028 . S
Zn145 O151 2.035 . S
O146 Zn145 2.028 . S
O146 C152 1.247 . S
O147 Zn143 2.035 . S
O147 C152 1.258 1_565 S
O148 C141 1.247 . S
O148 Zn145 2.028 . S
O149 C141 1.258 1_565 S
O149 Zn143 2.035 . S
O150 Zn143 2.028 . S
O150 C153 1.247 . S
O151 Zn145 2.035 . S
O151 C153 1.258 1_545 S
C152 O146 1.247 . S
C152 O147 1.258 1_545 S
C153 O150 1.247 . S
C153 O151 1.258 1_565 S
C154 O156 1.247 . S
C154 O158 1.258 1_554 S
C155 O162 1.247 1_554 S
C155 O163 1.258 . S
O156 C154 1.247 . S
O156 Zn157 2.028 . S
Zn157 O156 2.028 . S
Zn157 O161 2.035 . S
Zn157 O163 2.035 . S
Zn157 O164 2.028 . S
O158 C154 1.258 1_556 S
O158 Zn159 2.035 . S
Zn159 O158 2.035 . S
Zn159 O160 2.028 . S
Zn159 O162 2.028 . S
Zn159 O165 2.035 . S
O160 Zn159 2.028 . S
O160 C166 1.247 1_556 S
O161 Zn157 2.035 . S
O161 C166 1.258 . S
O162 C155 1.247 1_556 S
O162 Zn159 2.028 . S
O163 C155 1.258 . S
O163 Zn157 2.035 . S
O164 Zn157 2.028 . S
O164 C167 1.253 . S
O165 Zn159 2.035 . S
O165 C167 1.253 1_556 S
C166 O160 1.247 1_554 S
C166 O161 1.258 . S
C167 O164 1.253 . S
C167 O165 1.253 1_554 S
C168 O184 1.251 . S
C168 O186 1.254 . S
N169 C170 1.330 1_554 S
N169 C174 1.307 1_554 S
N169 Zn175 2.020 . S
C170 N169 1.330 1_556 S
C170 C171 1.403 . S
C170 H188 0.931 1_556 S
C171 C170 1.403 . S
C171 C172 1.390 . S
C171 H198 0.949 . S
C172 C171 1.390 . S
C172 C173 1.357 . S
C173 C172 1.357 . S
C173 C174 1.370 . S
C173 H199 0.950 . S
C174 N169 1.307 1_556 S
C174 C173 1.370 . S
C174 H192 0.948 . S
Zn175 N169 2.020 . S
Zn175 O184 2.039 . S
Zn175 O190 2.034 . S
Zn175 O194 2.025 . S
Zn175 O196 2.024 . S
C176 O195 1.246 . S
C176 O196 1.249 . S
N177 C178 1.307 . S
N177 C179 1.333 . S
N177 Zn183 2.020 . S
C178 N177 1.307 . S
C178 C182 1.370 . S
C178 H189 0.948 . S
C179 N177 1.333 . S
C179 C180 1.379 . S
C179 H187 0.952 . S
C180 C179 1.379 . S
C180 C181 1.390 . S
C180 H200 0.949 1_455 S
C181 C180 1.390 . S
C181 C182 1.357 . S
C182 C178 1.370 . S
C182 C181 1.357 . S
C182 H201 0.950 . S
Zn183 N177 2.020 . S
Zn183 O186 2.025 . S
Zn183 O191 2.024 . S
Zn183 O193 2.039 . S
Zn183 O195 2.034 . S
O184 C168 1.251 . S
O184 Zn175 2.039 . S
C185 O190 1.246 . S
C185 O191 1.249 . S
O186 C168 1.254 . S
O186 Zn183 2.025 . S
H187 C179 0.952 . S
H188 C170 0.931 1_554 S
H189 C178 0.948 . S
O190 Zn175 2.034 . S
O190 C185 1.246 . S
O191 Zn183 2.024 . S
O191 C185 1.249 . S
H192 C174 0.948 . S
O193 Zn183 2.039 . S
O193 C197 1.251 . S
O194 Zn175 2.025 . S
O194 C197 1.254 . S
O195 C176 1.246 . S
O195 Zn183 2.034 . S
O196 Zn175 2.024 . S
O196 C176 1.249 . S
C197 O193 1.251 . S
C197 O194 1.254 . S
H198 C171 0.949 . S
H199 C173 0.950 . S
H200 C180 0.949 1_655 S
H201 C182 0.950 . S
C202 O218 1.251 . S
C202 O220 1.254 . S
N203 C204 1.333 . S
N203 C208 1.307 . S
N203 Zn209 2.020 1_556 S
C204 N203 1.333 . S
C204 C205 1.379 . S
C204 H222 0.948 . S
C205 C204 1.379 . S
C205 C206 1.390 . S
C205 H232 0.949 . S
C206 C205 1.390 . S
C206 C207 1.357 . S
C207 C206 1.357 . S
C207 C208 1.370 . S
C207 H233 0.950 . S
C208 N203 1.307 . S
C208 C207 1.370 . S
C208 H226 0.948 . S
Zn209 N203 2.020 1_554 S
Zn209 O218 2.039 . S
Zn209 O224 2.034 . S
Zn209 O228 2.025 . S
Zn209 O230 2.024 . S
C210 O229 1.246 . S
C210 O230 1.249 . S
N211 C212 1.307 . S
N211 C213 1.337 1_655 S
N211 Zn217 2.020 . S
C212 N211 1.307 . S
C212 C216 1.370 . S
C212 H223 0.948 . S
C213 N211 1.337 1_455 S
C213 C214 1.378 . S
C213 H221 0.949 . S
C214 C213 1.378 . S
C214 C215 1.390 1_455 S
C214 H234 0.949 . S
C215 C214 1.390 1_655 S
C215 C216 1.357 . S
C216 C212 1.370 . S
C216 C215 1.357 . S
C216 H235 0.950 . S
Zn217 N211 2.020 . S
Zn217 O220 2.025 . S
Zn217 O225 2.024 . S
Zn217 O227 2.039 . S
Zn217 O229 2.034 . S
O218 C202 1.251 . S
O218 Zn209 2.039 . S
C219 O224 1.246 . S
C219 O225 1.249 . S
O220 C202 1.254 . S
O220 Zn217 2.025 . S
H221 C213 0.949 . S
H222 C204 0.948 . S
H223 C212 0.948 . S
O224 Zn209 2.034 . S
O224 C219 1.246 . S
O225 Zn217 2.024 . S
O225 C219 1.249 . S
H226 C208 0.948 . S
O227 Zn217 2.039 . S
O227 C231 1.251 1_655 S
O228 Zn209 2.025 . S
O228 C231 1.254 1_655 S
O229 C210 1.246 . S
O229 Zn217 2.034 . S
O230 Zn209 2.024 . S
O230 C210 1.249 . S
C231 O227 1.251 1_455 S
C231 O228 1.254 1_455 S
H232 C205 0.949 . S
H233 C207 0.950 . S
H234 C214 0.949 . S
H235 C216 0.950 . S
C236 O252 1.251 . S
C236 O254 1.254 . S
N237 C238 1.333 . S
N237 C242 1.307 . S
N237 Zn243 2.020 . S
C238 N237 1.333 . S
C238 C239 1.379 . S
C238 H256 0.952 . S
C239 C238 1.379 . S
C239 C240 1.390 . S
C239 H266 0.949 . S
C240 C239 1.390 . S
C240 C241 1.357 . S
C241 C240 1.357 . S
C241 C242 1.370 . S
C241 H267 0.950 . S
C242 N237 1.307 . S
C242 C241 1.370 . S
C242 H260 0.948 . S
Zn243 N237 2.020 . S
Zn243 O252 2.039 . S
Zn243 O258 2.034 . S
Zn243 O262 2.025 . S
Zn243 O264 2.024 . S
C244 O263 1.246 . S
C244 O264 1.249 . S
N245 C246 1.307 . S
N245 C247 1.333 . S
N245 Zn251 2.020 . S
C246 N245 1.307 . S
C246 C250 1.370 . S
C246 H257 0.948 . S
C247 N245 1.333 . S
C247 C248 1.379 . S
C247 H255 0.952 . S
C248 C247 1.379 . S
C248 C249 1.390 . S
C248 H268 0.949 . S
C249 C248 1.390 . S
C249 C250 1.357 . S
C250 C246 1.370 . S
C250 C249 1.357 . S
C250 H269 0.950 1_565 S
Zn251 N245 2.020 . S
Zn251 O254 2.025 . S
Zn251 O259 2.024 . S
Zn251 O261 2.039 . S
Zn251 O263 2.034 . S
O252 C236 1.251 . S
O252 Zn243 2.039 . S
C253 O258 1.246 . S
C253 O259 1.249 . S
O254 C236 1.254 . S
O254 Zn251 2.025 . S
H255 C247 0.952 . S
H256 C238 0.952 . S
H257 C246 0.948 . S
O258 Zn243 2.034 . S
O258 C253 1.246 . S
O259 Zn251 2.024 . S
O259 C253 1.249 . S
H260 C242 0.948 . S
O261 Zn251 2.039 . S
O261 C265 1.251 . S
O262 Zn243 2.025 . S
O262 C265 1.254 . S
O263 C244 1.246 . S
O263 Zn251 2.034 . S
O264 Zn243 2.024 . S
O264 C244 1.249 . S
C265 O261 1.251 . S
C265 O262 1.254 . S
H266 C239 0.949 . S
H267 C241 0.950 . S
H268 C248 0.949 . S
H269 C250 0.950 1_545 S
C270 O286 1.251 . S
C270 O288 1.254 . S
N271 C272 1.333 . S
N271 C276 1.307 . S
N271 Zn277 2.020 1_455 S
C272 N271 1.333 . S
C272 C273 1.379 . S
C272 H290 0.952 1_455 S
C273 C272 1.379 . S
C273 C274 1.390 . S
C273 H300 0.949 . S
C274 C273 1.390 . S
C274 C275 1.357 . S
C275 C274 1.357 . S
C275 C276 1.370 . S
C275 H301 0.950 . S
C276 N271 1.307 . S
C276 C275 1.370 . S
C276 H294 0.948 . S
Zn277 N271 2.020 1_655 S
Zn277 O286 2.039 . S
Zn277 O292 2.034 . S
Zn277 O296 2.025 . S
Zn277 O298 2.024 . S
C278 O297 1.246 . S
C278 O298 1.249 . S
N279 C280 1.307 . S
N279 C281 1.333 . S
N279 Zn285 2.020 . S
C280 N279 1.307 . S
C280 C284 1.370 . S
C280 H291 0.948 . S
C281 N279 1.333 . S
C281 C282 1.379 . S
C281 H289 0.952 . S
C282 C281 1.379 . S
C282 C283 1.390 . S
C282 H302 0.949 . S
C283 C282 1.390 . S
C283 C284 1.357 . S
C284 C280 1.370 . S
C284 C283 1.357 . S
C284 H303 0.950 . S
Zn285 N279 2.020 . S
Zn285 O288 2.025 . S
Zn285 O293 2.024 . S
Zn285 O295 2.039 . S
Zn285 O297 2.034 . S
O286 C270 1.251 . S
O286 Zn277 2.039 . S
C287 O292 1.246 . S
C287 O293 1.249 . S
O288 C270 1.254 . S
O288 Zn285 2.025 . S
H289 C281 0.952 . S
H290 C272 0.952 1_655 S
H291 C280 0.948 . S
O292 Zn277 2.034 . S
O292 C287 1.246 . S
O293 Zn285 2.024 . S
O293 C287 1.249 . S
H294 C276 0.948 . S
O295 Zn285 2.039 . S
O295 C299 1.251 . S
O296 Zn277 2.025 . S
O296 C299 1.254 . S
O297 C278 1.246 . S
O297 Zn285 2.034 . S
O298 Zn277 2.024 . S
O298 C278 1.249 . S
C299 O295 1.251 . S
C299 O296 1.254 . S
H300 C273 0.949 . S
H301 C275 0.950 . S
H302 C282 0.949 . S
H303 C284 0.950 . S
C304 O320 1.251 . S
C304 O322 1.254 . S
N305 C306 1.333 . S
N305 C310 1.307 . S
N305 Zn311 2.020 . S
C306 N305 1.333 . S
C306 C307 1.381 1_565 S
C306 H324 0.952 . S
C307 C306 1.381 1_545 S
C307 C308 1.388 . S
C307 H334 0.949 . S
C308 C307 1.388 . S
C308 C309 1.357 . S
C309 C308 1.357 . S
C309 C310 1.370 1_545 S
C309 H335 0.950 . S
C310 N305 1.307 . S
C310 C309 1.370 1_565 S
C310 H328 0.948 . S
Zn311 N305 2.020 . S
Zn311 O320 2.039 . S
Zn311 O326 2.034 . S
Zn311 O330 2.025 . S
Zn311 O332 2.008 1_565 S
C312 O331 1.243 . S
C312 O332 1.250 1_565 S
N313 C314 1.307 . S
N313 C315 1.333 . S
N313 Zn319 2.020 . S
C314 N313 1.307 . S
C314 C318 1.370 . S
C314 H325 0.948 . S
C315 N313 1.333 . S
C315 C316 1.379 . S
C315 H323 0.952 . S
C316 C315 1.379 . S
C316 C317 1.390 . S
C316 H336 0.949 . S
C317 C316 1.390 . S
C317 C318 1.357 . S
C318 C314 1.370 . S
C318 C317 1.357 . S
C318 H337 0.950 . S
Zn319 N313 2.020 . S
Zn319 O322 2.025 . S
Zn319 O327 2.024 . S
Zn319 O329 2.039 . S
Zn319 O331 2.034 . S
O320 C304 1.251 . S
O320 Zn311 2.039 . S
C321 O326 1.246 . S
C321 O327 1.249 . S
O322 C304 1.254 . S
O322 Zn319 2.025 . S
H323 C315 0.952 . S
H324 C306 0.952 . S
H325 C314 0.948 . S
O326 Zn311 2.034 . S
O326 C321 1.246 . S
O327 Zn319 2.024 . S
O327 C321 1.249 . S
H328 C310 0.948 . S
O329 Zn319 2.039 . S
O329 C333 1.251 . S
O330 Zn311 2.025 . S
O330 C333 1.254 . S
O331 C312 1.243 . S
O331 Zn319 2.034 . S
O332 Zn311 2.008 1_545 S
O332 C312 1.250 1_545 S
C333 O329 1.251 . S
C333 O330 1.254 . S
H334 C307 0.949 . S
H335 C309 0.950 . S
H336 C316 0.949 . S
H337 C318 0.950 . S
C338 O354 1.251 . S
C338 O356 1.254 . S
N339 C340 1.333 . S
N339 C344 1.307 . S
N339 Zn345 2.020 . S
C340 N339 1.333 . S
C340 C341 1.379 . S
C340 H358 0.952 . S
C341 C340 1.379 . S
C341 C342 1.390 . S
C341 H368 0.949 . S
C342 C341 1.390 . S
C342 C343 1.357 . S
C343 C342 1.357 . S
C343 C344 1.370 . S
C343 H369 0.950 . S
C344 N339 1.307 . S
C344 C343 1.370 . S
C344 H362 0.948 . S
Zn345 N339 2.020 . S
Zn345 O354 2.039 . S
Zn345 O360 2.034 . S
Zn345 O364 2.025 . S
Zn345 O366 2.024 . S
C346 O365 1.246 . S
C346 O366 1.249 . S
N347 C348 1.307 . S
N347 C349 1.333 . S
N347 Zn353 2.020 . S
C348 N347 1.307 . S
C348 C352 1.370 . S
C348 H359 0.948 . S
C349 N347 1.333 . S
C349 C350 1.379 . S
C349 H357 0.952 . S
C350 C349 1.379 . S
C350 C351 1.390 . S
C350 H370 0.949 . S
C351 C350 1.390 . S
C351 C352 1.357 . S
C352 C348 1.370 . S
C352 C351 1.357 . S
C352 H371 0.950 . S
Zn353 N347 2.020 . S
Zn353 O356 2.025 . S
Zn353 O361 2.024 . S
Zn353 O363 2.039 . S
Zn353 O365 2.034 . S
O354 C338 1.251 . S
O354 Zn345 2.039 . S
C355 O360 1.246 . S
C355 O361 1.249 . S
O356 C338 1.254 . S
O356 Zn353 2.025 . S
H357 C349 0.952 . S
H358 C340 0.952 . S
H359 C348 0.948 . S
O360 Zn345 2.034 . S
O360 C355 1.246 . S
O361 Zn353 2.024 . S
O361 C355 1.249 . S
H362 C344 0.948 . S
O363 Zn353 2.039 . S
O363 C367 1.251 . S
O364 Zn345 2.025 . S
O364 C367 1.254 . S
O365 C346 1.246 . S
O365 Zn353 2.034 . S
O366 Zn345 2.024 . S
O366 C346 1.249 . S
C367 O363 1.251 . S
C367 O364 1.254 . S
H368 C341 0.949 . S
H369 C343 0.950 . S
H370 C350 0.949 . S
H371 C352 0.950 . S
C372 O388 1.251 . S
C372 O390 1.254 . S
N373 C374 1.333 . S
N373 C378 1.307 . S
N373 Zn379 2.020 . S
C374 N373 1.333 . S
C374 C375 1.379 . S
C374 H392 0.952 . S
C375 C374 1.379 . S
C375 C376 1.390 . S
C375 H402 0.949 . S
C376 C375 1.390 . S
C376 C377 1.357 . S
C377 C376 1.357 . S
C377 C378 1.370 . S
C377 H403 0.950 . S
C378 N373 1.307 . S
C378 C377 1.370 . S
C378 H396 0.948 . S
Zn379 N373 2.020 . S
Zn379 O388 2.039 . S
Zn379 O394 2.034 . S
Zn379 O398 2.025 . S
Zn379 O400 2.024 . S
C380 O399 1.246 . S
C380 O400 1.249 . S
N381 C382 1.307 . S
N381 C383 1.333 . S
N381 Zn387 2.020 . S
C382 N381 1.307 . S
C382 C386 1.370 1_556 S
C382 H393 0.948 . S
C383 N381 1.333 . S
C383 C384 1.379 1_556 S
C383 H391 0.952 . S
C384 C383 1.379 1_554 S
C384 C385 1.390 . S
C384 H404 0.949 . S
C385 C384 1.390 . S
C385 C386 1.357 . S
C386 C382 1.370 1_554 S
C386 C385 1.357 . S
C386 H405 0.950 . S
Zn387 N381 2.020 . S
Zn387 O390 2.025 . S
Zn387 O395 2.024 . S
Zn387 O397 2.039 . S
Zn387 O399 2.034 . S
O388 C372 1.251 . S
O388 Zn379 2.039 . S
C389 O394 1.246 . S
C389 O395 1.249 . S
O390 C372 1.254 . S
O390 Zn387 2.025 . S
H391 C383 0.952 . S
H392 C374 0.952 . S
H393 C382 0.948 . S
O394 Zn379 2.034 . S
O394 C389 1.246 . S
O395 Zn387 2.024 . S
O395 C389 1.249 . S
H396 C378 0.948 . S
O397 Zn387 2.039 . S
O397 C401 1.251 . S
O398 Zn379 2.025 . S
O398 C401 1.254 . S
O399 C380 1.246 . S
O399 Zn387 2.034 . S
O400 Zn379 2.024 . S
O400 C380 1.249 . S
C401 O397 1.251 . S
C401 O398 1.254 . S
H402 C375 0.949 . S
H403 C377 0.950 . S
H404 C384 0.949 . S
H405 C386 0.950 . S
C406 O422 1.251 . S
C406 O424 1.254 . S
N407 C408 1.333 . S
N407 C412 1.307 . S
N407 Zn413 2.020 . S
C408 N407 1.333 . S
C408 C409 1.379 . S
C408 H426 0.952 . S
C409 C408 1.379 . S
C409 C410 1.390 . S
C409 H436 0.949 . S
C410 C409 1.390 . S
C410 C411 1.357 . S
C411 C410 1.357 . S
C411 C412 1.370 . S
C411 H437 0.950 . S
C412 N407 1.307 . S
C412 C411 1.370 . S
C412 H430 0.948 . S
Zn413 N407 2.020 . S
Zn413 O422 2.039 . S
Zn413 O428 2.034 . S
Zn413 O432 2.025 . S
Zn413 O434 2.024 . S
C414 O433 1.246 . S
C414 O434 1.249 . S
N415 C416 1.307 . S
N415 C417 1.333 . S
N415 Zn421 2.020 . S
C416 N415 1.307 . S
C416 C420 1.370 . S
C416 H427 0.948 . S
C417 N415 1.333 . S
C417 C418 1.365 1_545 S
C417 H425 0.952 1_545 S
C418 C417 1.365 1_565 S
C418 C419 1.368 1_565 S
C418 H438 0.986 . S
C419 C418 1.368 1_545 S
C419 C420 1.357 . S
C420 C416 1.370 . S
C420 C419 1.357 . S
C420 H439 0.950 . S
Zn421 N415 2.020 . S
Zn421 O424 2.025 . S
Zn421 O429 2.024 . S
Zn421 O431 2.039 . S
Zn421 O433 2.034 . S
O422 C406 1.251 . S
O422 Zn413 2.039 . S
C423 O428 1.246 . S
C423 O429 1.249 . S
O424 C406 1.254 . S
O424 Zn421 2.025 . S
H425 C417 0.952 1_565 S
H426 C408 0.952 . S
H427 C416 0.948 . S
O428 Zn413 2.034 . S
O428 C423 1.246 . S
O429 Zn421 2.024 . S
O429 C423 1.249 . S
H430 C412 0.948 . S
O431 Zn421 2.039 . S
O431 C435 1.251 . S
O432 Zn413 2.025 . S
O432 C435 1.254 . S
O433 C414 1.246 . S
O433 Zn421 2.034 . S
O434 Zn413 2.024 . S
O434 C414 1.249 . S
C435 O431 1.251 . S
C435 O432 1.254 . S
H436 C409 0.949 . S
H437 C411 0.950 . S
H438 C418 0.986 . S
H439 C420 0.950 . S
H440 C448 0.929 . S
H441 C450 0.930 . S
H442 C452 0.930 . S
H443 C455 0.929 . S
H444 C458 0.930 . S
H445 C460 0.952 1_655 S
H446 C460 0.978 . S
H447 C460 0.937 1_655 S
C448 H440 0.929 . S
C448 C449 1.377 . S
C448 C450 1.384 . S
C449 C448 1.377 . S
C449 C455 1.390 1_455 S
C450 H441 0.930 . S
C450 C448 1.384 . S
C450 C451 1.372 . S
C451 C450 1.372 . S
C451 C452 1.400 1_455 S
C451 C456 1.490 . S
C452 H442 0.930 . S
C452 C451 1.400 1_655 S
C452 C455 1.386 . S
H453 C469 0.930 1_655 S
H454 C470 0.931 1_655 S
C455 H443 0.929 . S
C455 C449 1.390 1_655 S
C455 C452 1.386 . S
C456 C451 1.490 . S
C456 C458 1.395 . S
C456 C459 1.403 . S
H457 C463 0.930 . S
C458 H444 0.930 . S
C458 C456 1.395 . S
C458 C461 1.403 . S
C459 C456 1.403 . S
C459 C460 1.539 . S
C459 C463 1.400 . S
C460 H445 0.952 1_455 S
C460 H446 0.978 . S
C460 H447 0.937 1_455 S
C460 C459 1.539 . S
C461 C458 1.403 . S
C461 C462 1.392 . S
C461 C465 1.495 . S
C462 C461 1.392 . S
C462 C463 1.385 . S
C462 C464 1.478 . S
C463 H457 0.930 . S
C463 C459 1.400 . S
C463 C462 1.385 . S
C464 C462 1.478 . S
C464 C466 1.381 . S
C464 C470 1.383 . S
C465 C461 1.495 . S
C465 H471 0.959 . S
C465 H472 0.961 . S
C465 H473 0.960 . S
C466 C464 1.381 . S
C466 C467 1.394 . S
C466 H474 0.930 . S
C467 C466 1.394 . S
C467 C468 1.383 . S
C467 H475 0.929 . S
C468 C467 1.383 . S
C468 C469 1.377 . S
C469 H453 0.930 1_455 S
C469 C468 1.377 . S
C469 C470 1.379 . S
C470 H454 0.931 1_455 S
C470 C464 1.383 . S
C470 C469 1.379 . S
H471 C465 0.959 . S
H472 C465 0.961 . S
H473 C465 0.960 . S
H474 C466 0.930 . S
H475 C467 0.929 . S
H476 C484 0.929 . S
H477 C486 0.930 . S
H478 C488 0.930 . S
H479 C491 0.929 . S
H480 C494 0.930 . S
H481 C496 0.960 . S
H482 C496 0.960 . S
H483 C496 0.960 . S
C484 H476 0.929 . S
C484 C485 1.377 . S
C484 C486 1.384 . S
C485 C484 1.377 . S
C485 C491 1.390 1_655 S
C486 H477 0.930 . S
C486 C484 1.384 . S
C486 C487 1.372 . S
C487 C486 1.372 . S
C487 C488 1.400 1_655 S
C487 C492 1.490 . S
C488 H478 0.930 . S
C488 C487 1.400 1_455 S
C488 C491 1.386 . S
H489 C505 0.930 . S
H490 C506 0.931 . S
C491 H479 0.929 . S
C491 C485 1.390 1_455 S
C491 C488 1.386 . S
C492 C487 1.490 . S
C492 C494 1.395 . S
C492 C495 1.403 1_655 S
H493 C499 0.930 . S
C494 H480 0.930 . S
C494 C492 1.395 . S
C494 C497 1.403 . S
C495 C492 1.403 1_455 S
C495 C496 1.524 . S
C495 C499 1.400 . S
C496 H481 0.960 . S
C496 H482 0.960 . S
C496 H483 0.960 . S
C496 C495 1.524 . S
C497 C494 1.403 . S
C497 C498 1.392 . S
C497 C501 1.495 . S
C498 C497 1.392 . S
C498 C499 1.385 1_655 S
C498 C500 1.478 . S
C499 H493 0.930 . S
C499 C495 1.400 . S
C499 C498 1.385 1_455 S
C500 C498 1.478 . S
C500 C502 1.381 . S
C500 C506 1.383 . S
C501 C497 1.495 . S
C501 H507 0.959 . S
C501 H508 0.961 . S
C501 H509 0.960 . S
C502 C500 1.381 . S
C502 C503 1.394 . S
C502 H510 0.930 . S
C503 C502 1.394 . S
C503 C504 1.383 . S
C503 H511 0.929 . S
C504 C503 1.383 . S
C504 C505 1.377 . S
C505 H489 0.930 . S
C505 C504 1.377 . S
C505 C506 1.379 . S
C506 H490 0.931 . S
C506 C500 1.383 . S
C506 C505 1.379 . S
H507 C501 0.959 . S
H508 C501 0.961 . S
H509 C501 0.960 . S
H510 C502 0.930 . S
H511 C503 0.929 . S
H512 C520 0.929 . S
H513 C522 0.930 . S
H514 C524 0.907 1_655 S
H515 C527 0.929 . S
H516 C530 0.930 . S
H517 C532 0.960 . S
H518 C532 0.960 . S
H519 C532 0.960 . S
C520 H512 0.929 . S
C520 C521 1.377 . S
C520 C522 1.384 . S
C521 C520 1.377 . S
C521 C527 1.390 1_455 S
C522 H513 0.930 . S
C522 C520 1.384 . S
C522 C523 1.372 . S
C523 C522 1.372 . S
C523 C524 1.426 . S
C523 C528 1.490 . S
C524 H514 0.907 1_455 S
C524 C523 1.426 . S
C524 C527 1.383 1_455 S
H525 C541 0.930 1_655 S
H526 C542 0.931 1_655 S
C527 H515 0.929 . S
C527 C521 1.390 1_655 S
C527 C524 1.383 1_655 S
C528 C523 1.490 . S
C528 C530 1.395 . S
C528 C531 1.403 . S
H529 C535 0.930 . S
C530 H516 0.930 . S
C530 C528 1.395 . S
C530 C533 1.403 . S
C531 C528 1.403 . S
C531 C532 1.524 . S
C531 C535 1.400 . S
C532 H517 0.960 . S
C532 H518 0.960 . S
C532 H519 0.960 . S
C532 C531 1.524 . S
C533 C530 1.403 . S
C533 C534 1.392 . S
C533 C537 1.495 . S
C534 C533 1.392 . S
C534 C535 1.385 . S
C534 C536 1.478 . S
C535 H529 0.930 . S
C535 C531 1.400 . S
C535 C534 1.385 . S
C536 C534 1.478 . S
C536 C538 1.381 . S
C536 C542 1.383 . S
C537 C533 1.495 . S
C537 H543 0.959 . S
C537 H544 0.961 . S
C537 H545 0.960 . S
C538 C536 1.381 . S
C538 C539 1.394 . S
C538 H546 0.930 . S
C539 C538 1.394 . S
C539 C540 1.383 . S
C539 H547 0.929 . S
C540 C539 1.383 . S
C540 C541 1.377 . S
C541 H525 0.930 1_455 S
C541 C540 1.377 . S
C541 C542 1.379 . S
C542 H526 0.931 1_455 S
C542 C536 1.383 . S
C542 C541 1.379 . S
H543 C537 0.959 . S
H544 C537 0.961 . S
H545 C537 0.960 . S
H546 C538 0.930 . S
H547 C539 0.929 . S
H548 C556 0.929 . S
H549 C558 0.930 . S
H550 C560 0.930 . S
H551 C563 0.929 . S
H552 C566 0.930 . S
H553 C568 0.960 . S
H554 C568 0.960 . S
H555 C568 0.960 . S
C556 H548 0.929 . S
C556 C557 1.377 1_455 S
C556 C558 1.384 . S
C557 C556 1.377 1_655 S
C557 C563 1.390 . S
C558 H549 0.930 . S
C558 C556 1.384 . S
C558 C559 1.372 1_455 S
C559 C558 1.372 1_655 S
C559 C560 1.400 . S
C559 C564 1.490 . S
C560 H550 0.930 . S
C560 C559 1.400 . S
C560 C563 1.386 . S
H561 C577 0.930 . S
H562 C578 0.931 . S
C563 H551 0.929 . S
C563 C557 1.390 . S
C563 C560 1.386 . S
C564 C559 1.490 . S
C564 C566 1.395 . S
C564 C567 1.403 1_655 S
H565 C571 0.926 1_455 S
C566 H552 0.930 . S
C566 C564 1.395 . S
C566 C569 1.403 . S
C567 C564 1.403 1_455 S
C567 C568 1.524 . S
C567 C571 1.398 1_455 S
C568 H553 0.960 . S
C568 H554 0.960 . S
C568 H555 0.960 . S
C568 C567 1.524 . S
C569 C566 1.403 . S
C569 C570 1.392 . S
C569 C573 1.495 . S
C570 C569 1.392 . S
C570 C571 1.391 . S
C570 C572 1.478 . S
C571 H565 0.926 1_655 S
C571 C567 1.398 1_655 S
C571 C570 1.391 . S
C572 C570 1.478 . S
C572 C574 1.381 . S
C572 C578 1.383 . S
C573 C569 1.495 . S
C573 H579 0.959 . S
C573 H580 0.961 . S
C573 H581 0.960 . S
C574 C572 1.381 . S
C574 C575 1.394 . S
C574 H582 0.930 1_655 S
C575 C574 1.394 . S
C575 C576 1.383 . S
C575 H583 0.929 1_655 S
C576 C575 1.383 . S
C576 C577 1.377 . S
C577 H561 0.930 . S
C577 C576 1.377 . S
C577 C578 1.379 . S
C578 H562 0.931 . S
C578 C572 1.383 . S
C578 C577 1.379 . S
H579 C573 0.959 . S
H580 C573 0.961 . S
H581 C573 0.960 . S
H582 C574 0.930 1_455 S
H583 C575 0.929 1_455 S
H584 C592 0.929 . S
H585 C594 0.930 . S
H586 C596 0.930 . S
H587 C599 0.929 . S
H588 C602 0.930 1_565 S
H589 C604 0.960 . S
H590 C604 0.960 . S
H591 C604 0.960 . S
C592 H584 0.929 . S
C592 C593 1.377 1_565 S
C592 C594 1.384 . S
C593 C592 1.377 1_545 S
C593 C599 1.390 . S
C594 H585 0.930 . S
C594 C592 1.384 . S
C594 C595 1.372 1_565 S
C595 C594 1.372 1_545 S
C595 C596 1.400 . S
C595 C600 1.490 . S
C596 H586 0.930 . S
C596 C595 1.400 . S
C596 C599 1.386 . S
H597 C613 0.922 1_556 S
H598 C614 0.931 . S
C599 H587 0.929 . S
C599 C593 1.390 . S
C599 C596 1.386 . S
C600 C595 1.490 . S
C600 C602 1.395 . S
C600 C603 1.403 . S
H601 C607 0.930 . S
C602 H588 0.930 1_545 S
C602 C600 1.395 . S
C602 C605 1.403 . S
C603 C600 1.403 . S
C603 C604 1.524 . S
C603 C607 1.400 . S
C604 H589 0.960 . S
C604 H590 0.960 . S
C604 H591 0.960 . S
C604 C603 1.524 . S
C605 C602 1.403 . S
C605 C606 1.392 . S
C605 C609 1.495 1_545 S
C606 C605 1.392 . S
C606 C607 1.385 . S
C606 C608 1.478 . S
C607 H601 0.930 . S
C607 C603 1.400 . S
C607 C606 1.385 . S
C608 C606 1.478 . S
C608 C610 1.372 1_545 S
C608 C614 1.383 . S
C609 C605 1.495 1_565 S
C609 H615 0.959 . S
C609 H616 0.961 1_565 S
C609 H617 0.960 . S
C610 C608 1.372 1_565 S
C610 C611 1.394 1_565 S
C610 H618 0.939 . S
C611 C610 1.394 1_545 S
C611 C612 1.361 1_554 S
C611 H619 0.929 1_545 S
C612 C611 1.361 1_556 S
C612 C613 1.359 1_556 S
C613 H597 0.922 1_554 S
C613 C612 1.359 1_554 S
C613 C614 1.379 . S
C614 H598 0.931 . S
C614 C608 1.383 . S
C614 C613 1.379 . S
H615 C609 0.959 . S
H616 C609 0.961 1_545 S
H617 C609 0.960 . S
H618 C610 0.939 . S
H619 C611 0.929 1_565 S
H620 C628 0.929 . S
H621 C630 0.930 . S
H622 C632 0.930 . S
H623 C635 0.929 . S
H624 C638 0.930 . S
H625 C640 0.960 . S
H626 C640 0.960 . S
H627 C640 0.960 . S
C628 H620 0.929 . S
C628 C629 1.377 . S
C628 C630 1.384 . S
C629 C628 1.377 . S
C629 C635 1.390 . S
C630 H621 0.930 . S
C630 C628 1.384 . S
C630 C631 1.372 . S
C631 C630 1.372 . S
C631 C632 1.400 . S
C631 C636 1.490 . S
C632 H622 0.930 . S
C632 C631 1.400 . S
C632 C635 1.386 . S
H633 C649 0.930 . S
H634 C650 0.931 . S
C635 H623 0.929 . S
C635 C629 1.390 . S
C635 C632 1.386 . S
C636 C631 1.490 . S
C636 C638 1.395 . S
C636 C639 1.403 . S
H637 C643 0.930 . S
C638 H624 0.930 . S
C638 C636 1.395 . S
C638 C641 1.403 . S
C639 C636 1.403 . S
C639 C640 1.524 . S
C639 C643 1.400 . S
C640 H625 0.960 . S
C640 H626 0.960 . S
C640 H627 0.960 . S
C640 C639 1.524 . S
C641 C638 1.403 . S
C641 C642 1.392 . S
C641 C645 1.495 . S
C642 C641 1.392 . S
C642 C643 1.385 . S
C642 C644 1.478 . S
C643 H637 0.930 . S
C643 C639 1.400 . S
C643 C642 1.385 . S
C644 C642 1.478 . S
C644 C646 1.381 . S
C644 C650 1.383 . S
C645 C641 1.495 . S
C645 H651 0.959 . S
C645 H652 0.961 . S
C645 H653 0.960 . S
C646 C644 1.381 . S
C646 C647 1.394 . S
C646 H654 0.930 . S
C647 C646 1.394 . S
C647 C648 1.383 . S
C647 H655 0.929 . S
C648 C647 1.383 . S
C648 C649 1.377 . S
C649 H633 0.930 . S
C649 C648 1.377 . S
C649 C650 1.379 . S
C650 H634 0.931 . S
C650 C644 1.383 . S
C650 C649 1.379 . S
H651 C645 0.959 . S
H652 C645 0.961 . S
H653 C645 0.960 . S
H654 C646 0.930 . S
H655 C647 0.929 . S
H656 C664 0.929 . S
H657 C666 0.930 . S
H658 C668 0.930 . S
H659 C671 0.929 . S
H660 C674 0.930 . S
H661 C676 0.960 . S
H662 C676 0.960 . S
H663 C676 0.963 1_565 S
C664 H656 0.929 . S
C664 C665 1.377 . S
C664 C666 1.384 . S
C665 C664 1.377 . S
C665 C671 1.390 1_545 S
C666 H657 0.930 . S
C666 C664 1.384 . S
C666 C667 1.372 . S
C667 C666 1.372 . S
C667 C668 1.400 1_545 S
C667 C672 1.490 . S
C668 H658 0.930 . S
C668 C667 1.400 1_565 S
C668 C671 1.386 . S
H669 C685 0.930 . S
H670 C686 0.931 . S
C671 H659 0.929 . S
C671 C665 1.390 1_565 S
C671 C668 1.386 . S
C672 C667 1.490 . S
C672 C674 1.395 . S
C672 C675 1.403 . S
H673 C679 0.930 . S
C674 H660 0.930 . S
C674 C672 1.395 . S
C674 C677 1.403 . S
C675 C672 1.403 . S
C675 C676 1.524 . S
C675 C679 1.400 . S
C676 H661 0.960 . S
C676 H662 0.960 . S
C676 H663 0.963 1_545 S
C676 C675 1.524 . S
C677 C674 1.403 . S
C677 C678 1.392 . S
C677 C681 1.495 . S
C678 C677 1.392 . S
C678 C679 1.385 . S
C678 C680 1.478 . S
C679 H673 0.930 . S
C679 C675 1.400 . S
C679 C678 1.385 . S
C680 C678 1.478 . S
C680 C682 1.381 . S
C680 C686 1.383 1_545 S
C681 C677 1.495 . S
C681 H687 0.959 . S
C681 H688 0.961 1_545 S
C681 H689 0.960 . S
C682 C680 1.381 . S
C682 C683 1.394 . S
C682 H690 0.930 . S
C683 C682 1.394 . S
C683 C684 1.383 . S
C683 H691 0.929 . S
C684 C683 1.383 . S
C684 C685 1.377 1_545 S
C685 H669 0.930 . S
C685 C684 1.377 1_565 S
C685 C686 1.379 . S
C686 H670 0.931 . S
C686 C680 1.383 1_565 S
C686 C685 1.379 . S
H687 C681 0.959 . S
H688 C681 0.961 1_565 S
H689 C681 0.960 . S
H690 C682 0.930 . S
H691 C683 0.929 . S
H692 C700 0.929 . S
H693 C702 0.930 . S
H694 C704 0.930 . S
H695 C707 0.929 . S
H696 C710 0.930 . S
H697 C712 0.960 . S
H698 C712 0.960 . S
H699 C712 0.960 . S
C700 H692 0.929 . S
C700 C701 1.377 . S
C700 C702 1.384 . S
C701 C700 1.377 . S
C701 C707 1.390 . S
C702 H693 0.930 . S
C702 C700 1.384 . S
C702 C703 1.372 . S
C703 C702 1.372 . S
C703 C704 1.400 . S
C703 C708 1.490 . S
C704 H694 0.930 . S
C704 C703 1.400 . S
C704 C707 1.386 . S
H705 C721 0.930 . S
H706 C722 0.931 . S
C707 H695 0.929 . S
C707 C701 1.390 . S
C707 C704 1.386 . S
C708 C703 1.490 . S
C708 C710 1.395 . S
C708 C711 1.403 . S
H709 C715 0.930 . S
C710 H696 0.930 . S
C710 C708 1.395 . S
C710 C713 1.403 . S
C711 C708 1.403 . S
C711 C712 1.524 . S
C711 C715 1.400 . S
C712 H697 0.960 . S
C712 H698 0.960 . S
C712 H699 0.960 . S
C712 C711 1.524 . S
C713 C710 1.403 . S
C713 C714 1.392 . S
C713 C717 1.495 . S
C714 C713 1.392 . S
C714 C715 1.385 . S
C714 C716 1.478 . S
C715 H709 0.930 . S
C715 C711 1.400 . S
C715 C714 1.385 . S
C716 C714 1.478 . S
C716 C718 1.381 . S
C716 C722 1.383 . S
C717 C713 1.495 . S
C717 H723 0.959 . S
C717 H724 0.961 . S
C717 H725 0.960 . S
C718 C716 1.381 . S
C718 C719 1.394 . S
C718 H726 0.930 . S
C719 C718 1.394 . S
C719 C720 1.383 . S
C719 H727 0.929 . S
C720 C719 1.383 . S
C720 C721 1.377 . S
C721 H705 0.930 . S
C721 C720 1.377 . S
C721 C722 1.379 . S
C722 H706 0.931 . S
C722 C716 1.383 . S
C722 C721 1.379 . S
H723 C717 0.959 . S
H724 C717 0.961 . S
H725 C717 0.960 . S
H726 C718 0.930 . S
H727 C719 0.929 . S
H728 C736 0.929 1_556 S
H729 C738 0.930 1_556 S
H730 C740 0.930 . S
H731 C743 0.929 . S
H732 C746 0.930 . S
H733 C748 0.960 . S
H734 C748 0.960 . S
H735 C748 0.960 . S
C736 H728 0.929 1_554 S
C736 C737 1.377 . S
C736 C738 1.384 . S
C737 C736 1.377 . S
C737 C743 1.390 . S
C738 H729 0.930 1_554 S
C738 C736 1.384 . S
C738 C739 1.372 . S
C739 C738 1.372 . S
C739 C740 1.400 . S
C739 C744 1.490 . S
C740 H730 0.930 . S
C740 C739 1.400 . S
C740 C743 1.386 . S
H741 C757 0.930 . S
H742 C758 0.931 . S
C743 H731 0.929 . S
C743 C737 1.390 . S
C743 C740 1.386 . S
C744 C739 1.490 . S
C744 C746 1.395 . S
C744 C747 1.403 . S
H745 C751 0.930 1_556 S
C746 H732 0.930 . S
C746 C744 1.395 . S
C746 C749 1.403 . S
C747 C744 1.403 . S
C747 C748 1.524 1_554 S
C747 C751 1.400 . S
C748 H733 0.960 . S
C748 H734 0.960 . S
C748 H735 0.960 . S
C748 C747 1.524 1_556 S
C749 C746 1.403 . S
C749 C750 1.392 . S
C749 C753 1.495 . S
C750 C749 1.392 . S
C750 C751 1.385 . S
C750 C752 1.478 . S
C751 H745 0.930 1_554 S
C751 C747 1.400 . S
C751 C750 1.385 . S
C752 C750 1.478 . S
C752 C754 1.381 . S
C752 C758 1.383 . S
C753 C749 1.495 . S
C753 H759 0.959 . S
C753 H760 0.961 . S
C753 H761 0.960 . S
C754 C752 1.381 . S
C754 C755 1.394 . S
C754 H762 0.930 . S
C755 C754 1.394 . S
C755 C756 1.383 . S
C755 H763 0.929 . S
C756 C755 1.383 . S
C756 C757 1.377 . S
C757 H741 0.930 . S
C757 C756 1.377 . S
C757 C758 1.379 . S
C758 H742 0.931 . S
C758 C752 1.383 . S
C758 C757 1.379 . S
H759 C753 0.959 . S
H760 C753 0.961 . S
H761 C753 0.960 . S
H762 C754 0.930 . S
H763 C755 0.929 . S
H764 C772 0.929 . S
H765 C774 0.930 . S
H766 C776 0.930 . S
H767 C779 0.929 . S
H768 C782 0.930 . S
H769 C784 0.960 . S
H770 C784 0.960 . S
H771 C784 0.960 . S
C772 H764 0.929 . S
C772 C773 1.377 . S
C772 C774 1.384 . S
C773 C772 1.377 . S
C773 C779 1.390 . S
C774 H765 0.930 . S
C774 C772 1.384 . S
C774 C775 1.372 . S
C775 C774 1.372 . S
C775 C776 1.400 . S
C775 C780 1.490 . S
C776 H766 0.930 . S
C776 C775 1.400 . S
C776 C779 1.386 . S
H777 C793 0.930 . S
H778 C794 0.931 . S
C779 H767 0.929 . S
C779 C773 1.390 . S
C779 C776 1.386 . S
C780 C775 1.490 . S
C780 C782 1.395 . S
C780 C783 1.403 . S
H781 C787 0.930 . S
C782 H768 0.930 . S
C782 C780 1.395 . S
C782 C785 1.403 . S
C783 C780 1.403 . S
C783 C784 1.524 . S
C783 C787 1.400 . S
C784 H769 0.960 . S
C784 H770 0.960 . S
C784 H771 0.960 . S
C784 C783 1.524 . S
C785 C782 1.403 . S
C785 C786 1.392 . S
C785 C789 1.495 . S
C786 C785 1.392 . S
C786 C787 1.385 . S
C786 C788 1.478 . S
C787 H781 0.930 . S
C787 C783 1.400 . S
C787 C786 1.385 . S
C788 C786 1.478 . S
C788 C790 1.381 . S
C788 C794 1.383 . S
C789 C785 1.495 . S
C789 H795 0.959 . S
C789 H796 0.961 . S
C789 H797 0.960 . S
C790 C788 1.381 . S
C790 C791 1.394 . S
C790 H798 0.930 . S
C791 C790 1.394 . S
C791 C792 1.383 . S
C791 H799 0.929 . S
C792 C791 1.383 . S
C792 C793 1.377 . S
C793 H777 0.930 . S
C793 C792 1.377 . S
C793 C794 1.379 . S
C794 H778 0.931 . S
C794 C788 1.383 . S
C794 C793 1.379 . S
H795 C789 0.959 . S
H796 C789 0.961 . S
H797 C789 0.960 . S
H798 C790 0.930 . S
H799 C791 0.929 . S
H800 C808 0.929 . S
H801 C810 0.930 . S
H802 C812 0.930 . S
H803 C815 0.929 . S
H804 C818 0.930 . S
H805 C820 0.960 . S
H806 C820 0.960 . S
H807 C820 0.960 . S
C808 H800 0.929 . S
C808 C809 1.377 . S
C808 C810 1.384 . S
C809 C808 1.377 . S
C809 C815 1.390 . S
C810 H801 0.930 . S
C810 C808 1.384 . S
C810 C811 1.372 . S
C811 C810 1.372 . S
C811 C812 1.400 . S
C811 C816 1.490 . S
C812 H802 0.930 . S
C812 C811 1.400 . S
C812 C815 1.386 . S
H813 C829 0.929 . S
H814 C830 0.931 . S
C815 H803 0.929 . S
C815 C809 1.390 . S
C815 C812 1.386 . S
C816 C811 1.490 . S
C816 C818 1.395 . S
C816 C819 1.403 . S
H817 C823 0.930 . S
C818 H804 0.930 . S
C818 C816 1.395 . S
C818 C821 1.403 . S
C819 C816 1.403 . S
C819 C820 1.524 . S
C819 C823 1.400 . S
C820 H805 0.960 . S
C820 H806 0.960 . S
C820 H807 0.960 . S
C820 C819 1.524 . S
C821 C818 1.403 . S
C821 C822 1.392 . S
C821 C825 1.495 . S
C822 C821 1.392 . S
C822 C823 1.385 . S
C822 C824 1.478 . S
C823 H817 0.930 . S
C823 C819 1.400 . S
C823 C822 1.385 . S
C824 C822 1.478 . S
C824 C826 1.381 . S
C824 C830 1.383 . S
C825 C821 1.495 . S
C825 H831 0.959 . S
C825 H832 0.961 . S
C825 H833 0.960 . S
C826 C824 1.381 . S
C826 C827 1.394 . S
C826 H834 0.930 . S
C827 C826 1.394 . S
C827 C828 1.383 . S
C827 H835 0.929 . S
C828 C827 1.383 . S
C828 C829 1.377 . S
C829 H813 0.929 . S
C829 C828 1.377 . S
C829 C830 1.379 . S
C830 H814 0.931 . S
C830 C824 1.383 . S
C830 C829 1.379 . S
H831 C825 0.959 . S
H832 C825 0.961 . S
H833 C825 0.960 . S
H834 C826 0.930 . S
H835 C827 0.929 . S
H836 C844 0.929 . S
H837 C846 0.930 . S
H838 C848 0.930 . S
H839 C851 0.929 . S
H840 C854 0.930 . S
H841 C856 0.960 . S
H842 C856 0.960 . S
H843 C856 0.960 . S
C844 H836 0.929 . S
C844 C845 1.377 . S
C844 C846 1.384 . S
C845 C844 1.377 . S
C845 C851 1.390 . S
C846 H837 0.930 . S
C846 C844 1.384 . S
C846 C847 1.372 . S
C847 C846 1.372 . S
C847 C848 1.400 . S
C847 C852 1.490 . S
C848 H838 0.930 . S
C848 C847 1.400 . S
C848 C851 1.386 . S
H849 C865 0.930 . S
H850 C866 0.931 . S
C851 H839 0.929 . S
C851 C845 1.390 . S
C851 C848 1.386 . S
C852 C847 1.490 . S
C852 C854 1.395 . S
C852 C855 1.403 . S
H853 C859 0.930 . S
C854 H840 0.930 . S
C854 C852 1.395 . S
C854 C857 1.403 . S
C855 C852 1.403 . S
C855 C856 1.524 . S
C855 C859 1.400 . S
C856 H841 0.960 . S
C856 H842 0.960 . S
C856 H843 0.960 . S
C856 C855 1.524 . S
C857 C854 1.403 . S
C857 C858 1.392 . S
C857 C861 1.495 . S
C858 C857 1.392 . S
C858 C859 1.385 . S
C858 C860 1.478 . S
C859 H853 0.930 . S
C859 C855 1.400 . S
C859 C858 1.385 . S
C860 C858 1.478 . S
C860 C862 1.381 . S
C860 C866 1.383 . S
C861 C857 1.495 . S
C861 H867 0.959 . S
C861 H868 0.961 . S
C861 H869 0.960 . S
C862 C860 1.381 . S
C862 C863 1.394 . S
C862 H870 0.930 . S
C863 C862 1.394 . S
C863 C864 1.383 . S
C863 H871 0.929 . S
C864 C863 1.383 . S
C864 C865 1.377 . S
C865 H849 0.930 . S
C865 C864 1.377 . S
C865 C866 1.379 . S
C866 H850 0.931 . S
C866 C860 1.383 . S
C866 C865 1.379 . S
H867 C861 0.959 . S
H868 C861 0.961 . S
H869 C861 0.960 . S
H870 C862 0.930 . S
H871 C863 0.929 . S
H872 C880 0.929 . S
H873 C882 0.930 . S
H874 C884 0.930 . S
H875 C887 0.929 . S
H876 C890 0.930 . S
H877 C892 0.960 . S
H878 C892 0.960 . S
H879 C892 0.960 . S
C880 H872 0.929 . S
C880 C881 1.377 . S
C880 C882 1.384 . S
C881 C880 1.377 . S
C881 C887 1.390 . S
C882 H873 0.930 . S
C882 C880 1.384 . S
C882 C883 1.372 . S
C883 C882 1.372 . S
C883 C884 1.400 . S
C883 C888 1.490 . S
C884 H874 0.930 . S
C884 C883 1.400 . S
C884 C887 1.386 . S
H885 C901 0.930 . S
H886 C902 0.931 . S
C887 H875 0.929 . S
C887 C881 1.390 . S
C887 C884 1.386 . S
C888 C883 1.490 . S
C888 C890 1.395 . S
C888 C891 1.403 . S
H889 C895 0.930 . S
C890 H876 0.930 . S
C890 C888 1.395 . S
C890 C893 1.403 . S
C891 C888 1.403 . S
C891 C892 1.524 . S
C891 C895 1.400 . S
C892 H877 0.960 . S
C892 H878 0.960 . S
C892 H879 0.960 . S
C892 C891 1.524 . S
C893 C890 1.403 . S
C893 C894 1.392 . S
C893 C897 1.495 . S
C894 C893 1.392 . S
C894 C895 1.385 . S
C894 C896 1.478 . S
C895 H889 0.930 . S
C895 C891 1.400 . S
C895 C894 1.385 . S
C896 C894 1.478 . S
C896 C898 1.381 . S
C896 C902 1.383 . S
C897 C893 1.495 . S
C897 H903 0.959 . S
C897 H904 0.961 . S
C897 H905 0.960 . S
C898 C896 1.381 . S
C898 C899 1.394 . S
C898 H906 0.930 . S
C899 C898 1.394 . S
C899 C900 1.383 . S
C899 H907 0.929 . S
C900 C899 1.383 . S
C900 C901 1.377 . S
C901 H885 0.930 . S
C901 C900 1.377 . S
C901 C902 1.379 . S
C902 H886 0.931 . S
C902 C896 1.383 . S
C902 C901 1.379 . S
H903 C897 0.959 . S
H904 C897 0.961 . S
H905 C897 0.960 . S
H906 C898 0.930 . S
H907 C899 0.929 . S
H908 C916 0.929 . S
H909 C918 0.930 . S
H910 C920 0.930 . S
H911 C923 0.929 . S
H912 C926 0.930 . S
H913 C928 0.960 . S
H914 C928 0.960 . S
H915 C928 0.960 . S
C916 H908 0.929 . S
C916 C917 1.377 . S
C916 C918 1.384 . S
C917 C916 1.377 . S
C917 C923 1.390 . S
C918 H909 0.930 . S
C918 C916 1.384 . S
C918 C919 1.372 . S
C919 C918 1.372 . S
C919 C920 1.400 . S
C919 C924 1.490 . S
C920 H910 0.930 . S
C920 C919 1.400 . S
C920 C923 1.386 . S
H921 C937 0.930 . S
H922 C938 0.931 . S
C923 H911 0.929 . S
C923 C917 1.390 . S
C923 C920 1.386 . S
C924 C919 1.490 . S
C924 C926 1.395 . S
C924 C927 1.403 . S
H925 C931 0.930 . S
C926 H912 0.930 . S
C926 C924 1.395 . S
C926 C929 1.403 . S
C927 C924 1.403 . S
C927 C928 1.524 . S
C927 C931 1.400 . S
C928 H913 0.960 . S
C928 H914 0.960 . S
C928 H915 0.960 . S
C928 C927 1.524 . S
C929 C926 1.403 . S
C929 C930 1.392 . S
C929 C933 1.495 . S
C930 C929 1.392 . S
C930 C931 1.385 . S
C930 C932 1.478 . S
C931 H925 0.930 . S
C931 C927 1.400 . S
C931 C930 1.385 . S
C932 C930 1.478 . S
C932 C934 1.381 . S
C932 C938 1.383 . S
C933 C929 1.495 . S
C933 H939 0.959 . S
C933 H940 0.961 . S
C933 H941 0.960 . S
C934 C932 1.381 . S
C934 C935 1.394 . S
C934 H942 0.930 . S
C935 C934 1.394 . S
C935 C936 1.383 . S
C935 H943 0.929 . S
C936 C935 1.383 . S
C936 C937 1.377 . S
C937 H921 0.930 . S
C937 C936 1.377 . S
C937 C938 1.379 . S
C938 H922 0.931 . S
C938 C932 1.383 . S
C938 C937 1.379 . S
H939 C933 0.959 . S
H940 C933 0.961 . S
H941 C933 0.960 . S
H942 C934 0.930 . S
H943 C935 0.929 . S
H944 C952 0.929 . S
H945 C954 0.930 . S
H946 C956 0.930 . S
H947 C959 0.929 . S
H948 C962 0.930 . S
H949 C964 0.960 . S
H950 C964 0.960 . S
H951 C964 0.960 . S
C952 H944 0.929 . S
C952 C953 1.377 . S
C952 C954 1.384 . S
C953 C952 1.377 . S
C953 C959 1.390 . S
C954 H945 0.930 . S
C954 C952 1.384 . S
C954 C955 1.372 . S
C955 C954 1.372 . S
C955 C956 1.400 . S
C955 C960 1.490 . S
C956 H946 0.930 . S
C956 C955 1.400 . S
C956 C959 1.386 . S
H957 C973 0.930 . S
H958 C974 0.931 . S
C959 H947 0.929 . S
C959 C953 1.390 . S
C959 C956 1.386 . S
C960 C955 1.490 . S
C960 C962 1.395 . S
C960 C963 1.403 . S
H961 C967 0.930 . S
C962 H948 0.930 . S
C962 C960 1.395 . S
C962 C965 1.403 . S
C963 C960 1.403 . S
C963 C964 1.524 . S
C963 C967 1.400 . S
C964 H949 0.960 . S
C964 H950 0.960 . S
C964 H951 0.960 . S
C964 C963 1.524 . S
C965 C962 1.403 . S
C965 C966 1.392 . S
C965 C969 1.495 . S
C966 C965 1.392 . S
C966 C967 1.385 . S
C966 C968 1.478 . S
C967 H961 0.930 . S
C967 C963 1.400 . S
C967 C966 1.385 . S
C968 C966 1.478 . S
C968 C970 1.381 . S
C968 C974 1.383 . S
C969 C965 1.495 . S
C969 H975 0.959 . S
C969 H976 0.961 . S
C969 H977 0.960 . S
C970 C968 1.381 . S
C970 C971 1.394 . S
C970 H978 0.930 . S
C971 C970 1.394 . S
C971 C972 1.383 . S
C971 H979 0.929 . S
C972 C971 1.383 . S
C972 C973 1.377 . S
C973 H957 0.930 . S
C973 C972 1.377 . S
C973 C974 1.379 . S
C974 H958 0.931 . S
C974 C968 1.383 . S
C974 C973 1.379 . S
H975 C969 0.959 . S
H976 C969 0.961 . S
H977 C969 0.960 . S
H978 C970 0.930 . S
H979 C971 0.929 . S
H980 C988 0.929 . S
H981 C990 0.930 . S
H982 C992 0.930 . S
H983 C995 0.929 . S
H984 C998 0.930 . S
H985 C1000 0.960 . S
H986 C1000 0.960 . S
H987 C1000 0.960 . S
C988 H980 0.929 . S
C988 C989 1.377 . S
C988 C990 1.384 . S
C989 C988 1.377 . S
C989 C995 1.390 . S
C990 H981 0.930 . S
C990 C988 1.384 . S
C990 C991 1.372 . S
C991 C990 1.372 . S
C991 C992 1.400 . S
C991 C996 1.490 . S
C992 H982 0.930 . S
C992 C991 1.400 . S
C992 C995 1.386 . S
H993 C1009 0.930 . S
H994 C1010 0.931 . S
C995 H983 0.929 . S
C995 C989 1.390 . S
C995 C992 1.386 . S
C996 C991 1.490 . S
C996 C998 1.395 . S
C996 C999 1.403 . S
H997 C1003 0.930 . S
C998 H984 0.930 . S
C998 C996 1.395 . S
C998 C1001 1.403 . S
C999 C996 1.403 . S
C999 C1000 1.524 . S
C999 C1003 1.400 . S
C1000 H985 0.960 . S
C1000 H986 0.960 . S
C1000 H987 0.960 . S
C1000 C999 1.524 . S
C1001 C998 1.403 . S
C1001 C1002 1.392 . S
C1001 C1005 1.495 . S
C1002 C1001 1.392 . S
C1002 C1003 1.385 . S
C1002 C1004 1.478 . S
C1003 H997 0.930 . S
C1003 C999 1.400 . S
C1003 C1002 1.385 . S
C1004 C1002 1.478 . S
C1004 C1006 1.381 . S
C1004 C1010 1.383 . S
C1005 C1001 1.495 . S
C1005 H1011 0.959 . S
C1005 H1012 0.961 . S
C1005 H1013 0.960 . S
C1006 C1004 1.381 . S
C1006 C1007 1.394 . S
C1006 H1014 0.930 . S
C1007 C1006 1.394 . S
C1007 C1008 1.383 . S
C1007 H1015 0.929 . S
C1008 C1007 1.383 . S
C1008 C1009 1.377 . S
C1009 H993 0.930 . S
C1009 C1008 1.377 . S
C1009 C1010 1.379 . S
C1010 H994 0.931 . S
C1010 C1004 1.383 . S
C1010 C1009 1.379 . S
H1011 C1005 0.959 . S
H1012 C1005 0.961 . S
H1013 C1005 0.960 . S
H1014 C1006 0.930 . S
H1015 C1007 0.929 . S
H1016 C1024 0.929 . S
H1017 C1026 0.930 . S
H1018 C1028 0.930 . S
H1019 C1031 0.929 . S
H1020 C1034 0.930 . S
H1021 C1036 0.960 . S
H1022 C1036 0.960 . S
H1023 C1036 0.960 . S
C1024 H1016 0.929 . S
C1024 C1025 1.377 . S
C1024 C1026 1.384 . S
C1025 C1024 1.377 . S
C1025 C1031 1.390 . S
C1026 H1017 0.930 . S
C1026 C1024 1.384 . S
C1026 C1027 1.372 . S
C1027 C1026 1.372 . S
C1027 C1028 1.400 . S
C1027 C1032 1.490 . S
C1028 H1018 0.930 . S
C1028 C1027 1.400 . S
C1028 C1031 1.386 . S
H1029 C1045 0.930 . S
H1030 C1046 0.931 . S
C1031 H1019 0.929 . S
C1031 C1025 1.390 . S
C1031 C1028 1.386 . S
C1032 C1027 1.490 . S
C1032 C1034 1.395 . S
C1032 C1035 1.403 . S
H1033 C1039 0.930 . S
C1034 H1020 0.930 . S
C1034 C1032 1.395 . S
C1034 C1037 1.403 . S
C1035 C1032 1.403 . S
C1035 C1036 1.524 . S
C1035 C1039 1.400 . S
C1036 H1021 0.960 . S
C1036 H1022 0.960 . S
C1036 H1023 0.960 . S
C1036 C1035 1.524 . S
C1037 C1034 1.403 . S
C1037 C1038 1.392 . S
C1037 C1041 1.495 . S
C1038 C1037 1.392 . S
C1038 C1039 1.385 . S
C1038 C1040 1.478 . S
C1039 H1033 0.930 . S
C1039 C1035 1.400 . S
C1039 C1038 1.385 . S
C1040 C1038 1.478 . S
C1040 C1042 1.381 . S
C1040 C1046 1.383 . S
C1041 C1037 1.495 . S
C1041 H1047 0.959 . S
C1041 H1048 0.961 . S
C1041 H1049 0.960 . S
C1042 C1040 1.381 . S
C1042 C1043 1.394 . S
C1042 H1050 0.930 . S
C1043 C1042 1.394 . S
C1043 C1044 1.383 . S
C1043 H1051 0.929 . S
C1044 C1043 1.383 . S
C1044 C1045 1.377 . S
C1045 H1029 0.930 . S
C1045 C1044 1.377 . S
C1045 C1046 1.379 . S
C1046 H1030 0.931 . S
C1046 C1040 1.383 . S
C1046 C1045 1.379 . S
H1047 C1041 0.959 . S
H1048 C1041 0.961 . S
H1049 C1041 0.960 . S
H1050 C1042 0.930 . S
H1051 C1043 0.929 . S
H1052 C1060 0.929 . S
H1053 C1062 0.930 . S
H1054 C1064 0.930 . S
H1055 C1067 0.929 . S
H1056 C1070 0.930 . S
H1057 C1072 0.960 . S
H1058 C1072 0.960 . S
H1059 C1072 0.939 1_565 S
C1060 H1052 0.929 . S
C1060 C1061 1.377 1_545 S
C1060 C1062 1.384 . S
C1061 C1060 1.377 1_565 S
C1061 C1067 1.390 . S
C1062 H1053 0.930 . S
C1062 C1060 1.384 . S
C1062 C1063 1.372 1_545 S
C1063 C1062 1.372 1_565 S
C1063 C1064 1.400 . S
C1063 C1068 1.490 . S
C1064 H1054 0.930 . S
C1064 C1063 1.400 . S
C1064 C1067 1.386 . S
H1065 C1081 0.930 . S
H1066 C1082 0.931 . S
C1067 H1055 0.929 . S
C1067 C1061 1.390 . S
C1067 C1064 1.386 . S
C1068 C1063 1.490 . S
C1068 C1070 1.395 . S
C1068 C1071 1.403 1_565 S
H1069 C1075 0.932 . S
C1070 H1056 0.930 . S
C1070 C1068 1.395 . S
C1070 C1073 1.403 . S
C1071 C1068 1.403 1_545 S
C1071 C1072 1.524 . S
C1071 C1075 1.401 . S
C1072 H1057 0.960 . S
C1072 H1058 0.960 . S
C1072 H1059 0.939 1_545 S
C1072 C1071 1.524 . S
C1073 C1070 1.403 . S
C1073 C1074 1.392 . S
C1073 C1077 1.495 . S
C1074 C1073 1.392 . S
C1074 C1075 1.382 1_565 S
C1074 C1076 1.478 . S
C1075 H1069 0.932 . S
C1075 C1071 1.401 . S
C1075 C1074 1.382 1_545 S
C1076 C1074 1.478 . S
C1076 C1078 1.381 1_565 S
C1076 C1082 1.383 . S
C1077 C1073 1.495 . S
C1077 H1083 0.959 . S
C1077 H1084 0.961 . S
C1077 H1085 0.960 . S
C1078 C1076 1.381 1_545 S
C1078 C1079 1.394 . S
C1078 H1086 0.930 . S
C1079 C1078 1.394 . S
C1079 C1080 1.383 1_545 S
C1079 H1087 0.929 . S
C1080 C1079 1.383 1_565 S
C1080 C1081 1.377 . S
C1081 H1065 0.930 . S
C1081 C1080 1.377 . S
C1081 C1082 1.379 . S
C1082 H1066 0.931 . S
C1082 C1076 1.383 . S
C1082 C1081 1.379 . S
H1083 C1077 0.959 . S
H1084 C1077 0.961 . S
H1085 C1077 0.960 . S
H1086 C1078 0.930 . S
H1087 C1079 0.929 . S
H1088 C1096 0.929 . S
H1089 C1098 0.930 . S
H1090 C1100 0.930 . S
H1091 C1103 0.929 . S
H1092 C1106 0.930 . S
H1093 C1108 0.960 . S
H1094 C1108 0.960 . S
H1095 C1108 0.960 . S
C1096 H1088 0.929 . S
C1096 C1097 1.377 . S
C1096 C1098 1.384 . S
C1097 C1096 1.377 . S
C1097 C1103 1.390 . S
C1098 H1089 0.930 . S
C1098 C1096 1.384 . S
C1098 C1099 1.372 . S
C1099 C1098 1.372 . S
C1099 C1100 1.400 . S
C1099 C1104 1.490 . S
C1100 H1090 0.930 . S
C1100 C1099 1.400 . S
C1100 C1103 1.386 . S
H1101 C1117 0.930 . S
H1102 C1118 0.931 . S
C1103 H1091 0.929 . S
C1103 C1097 1.390 . S
C1103 C1100 1.386 . S
C1104 C1099 1.490 . S
C1104 C1106 1.395 . S
C1104 C1107 1.403 . S
H1105 C1111 0.930 . S
C1106 H1092 0.930 . S
C1106 C1104 1.395 . S
C1106 C1109 1.403 . S
C1107 C1104 1.403 . S
C1107 C1108 1.524 . S
C1107 C1111 1.400 . S
C1108 H1093 0.960 . S
C1108 H1094 0.960 . S
C1108 H1095 0.960 . S
C1108 C1107 1.524 . S
C1109 C1106 1.403 . S
C1109 C1110 1.392 . S
C1109 C1113 1.495 . S
C1110 C1109 1.392 . S
C1110 C1111 1.385 . S
C1110 C1112 1.478 . S
C1111 H1105 0.930 . S
C1111 C1107 1.400 . S
C1111 C1110 1.385 . S
C1112 C1110 1.478 . S
C1112 C1114 1.381 . S
C1112 C1118 1.383 . S
C1113 C1109 1.495 . S
C1113 H1119 0.959 . S
C1113 H1120 0.961 . S
C1113 H1121 0.960 . S
C1114 C1112 1.381 . S
C1114 C1115 1.394 . S
C1114 H1122 0.930 . S
C1115 C1114 1.394 . S
C1115 C1116 1.383 . S
C1115 H1123 0.929 . S
C1116 C1115 1.383 . S
C1116 C1117 1.377 . S
C1117 H1101 0.930 . S
C1117 C1116 1.377 . S
C1117 C1118 1.379 . S
C1118 H1102 0.931 . S
C1118 C1112 1.383 . S
C1118 C1117 1.379 . S
H1119 C1113 0.959 . S
H1120 C1113 0.961 . S
H1121 C1113 0.960 . S
H1122 C1114 0.930 . S
H1123 C1115 0.929 . S
H1124 C1132 0.929 . S
H1125 C1134 0.930 . S
H1126 C1136 0.930 . S
H1127 C1139 0.929 . S
H1128 C1142 0.930 . S
H1129 C1144 0.960 . S
H1130 C1144 0.960 . S
H1131 C1144 0.960 . S
C1132 H1124 0.929 . S
C1132 C1133 1.377 1_565 S
C1132 C1134 1.384 . S
C1133 C1132 1.377 1_545 S
C1133 C1139 1.390 . S
C1134 H1125 0.930 . S
C1134 C1132 1.384 . S
C1134 C1135 1.372 1_565 S
C1135 C1134 1.372 1_545 S
C1135 C1136 1.400 . S
C1135 C1140 1.490 . S
C1136 H1126 0.930 . S
C1136 C1135 1.400 . S
C1136 C1139 1.386 . S
H1137 C1153 0.930 . S
H1138 C1154 0.931 . S
C1139 H1127 0.929 . S
C1139 C1133 1.390 . S
C1139 C1136 1.386 . S
C1140 C1135 1.490 . S
C1140 C1142 1.395 1_545 S
C1140 C1143 1.403 . S
H1141 C1147 0.930 . S
C1142 H1128 0.930 . S
C1142 C1140 1.395 1_565 S
C1142 C1145 1.403 . S
C1143 C1140 1.403 . S
C1143 C1144 1.524 . S
C1143 C1147 1.400 . S
C1144 H1129 0.960 . S
C1144 H1130 0.960 . S
C1144 H1131 0.960 . S
C1144 C1143 1.524 . S
C1145 C1142 1.403 . S
C1145 C1146 1.392 1_565 S
C1145 C1149 1.495 . S
C1146 C1145 1.392 1_545 S
C1146 C1147 1.385 . S
C1146 C1148 1.478 . S
C1147 H1141 0.930 . S
C1147 C1143 1.400 . S
C1147 C1146 1.385 . S
C1148 C1146 1.478 . S
C1148 C1150 1.381 1_545 S
C1148 C1154 1.383 . S
C1149 C1145 1.495 . S
C1149 H1155 0.959 . S
C1149 H1156 0.961 . S
C1149 H1157 0.960 . S
C1150 C1148 1.381 1_565 S
C1150 C1151 1.394 . S
C1150 H1158 0.930 . S
C1151 C1150 1.394 . S
C1151 C1152 1.383 1_565 S
C1151 H1159 0.929 . S
C1152 C1151 1.383 1_545 S
C1152 C1153 1.377 . S
C1153 H1137 0.930 . S
C1153 C1152 1.377 . S
C1153 C1154 1.379 . S
C1154 H1138 0.931 . S
C1154 C1148 1.383 . S
C1154 C1153 1.379 . S
H1155 C1149 0.959 . S
H1156 C1149 0.961 . S
H1157 C1149 0.960 . S
H1158 C1150 0.930 . S
H1159 C1151 0.929 . S
H1160 C1168 0.929 . S
H1161 C1170 0.930 . S
H1162 C1172 0.930 . S
H1163 C1175 0.929 . S
H1164 C1178 0.930 . S
H1165 C1180 0.960 . S
H1166 C1180 0.960 . S
H1167 C1180 0.960 . S
C1168 H1160 0.929 . S
C1168 C1169 1.377 . S
C1168 C1170 1.384 . S
C1169 C1168 1.377 . S
C1169 C1175 1.390 . S
C1170 H1161 0.930 . S
C1170 C1168 1.384 . S
C1170 C1171 1.372 . S
C1171 C1170 1.372 . S
C1171 C1172 1.400 . S
C1171 C1176 1.490 . S
C1172 H1162 0.930 . S
C1172 C1171 1.400 . S
C1172 C1175 1.386 . S
H1173 C1189 0.930 . S
H1174 C1190 0.931 . S
C1175 H1163 0.929 . S
C1175 C1169 1.390 . S
C1175 C1172 1.386 . S
C1176 C1171 1.490 . S
C1176 C1178 1.395 . S
C1176 C1179 1.403 . S
H1177 C1183 0.930 . S
C1178 H1164 0.930 . S
C1178 C1176 1.395 . S
C1178 C1181 1.403 . S
C1179 C1176 1.403 . S
C1179 C1180 1.524 . S
C1179 C1183 1.400 . S
C1180 H1165 0.960 . S
C1180 H1166 0.960 . S
C1180 H1167 0.960 . S
C1180 C1179 1.524 . S
C1181 C1178 1.403 . S
C1181 C1182 1.392 . S
C1181 C1185 1.495 . S
C1182 C1181 1.392 . S
C1182 C1183 1.385 . S
C1182 C1184 1.478 . S
C1183 H1177 0.930 . S
C1183 C1179 1.400 . S
C1183 C1182 1.385 . S
C1184 C1182 1.478 . S
C1184 C1186 1.381 . S
C1184 C1190 1.383 . S
C1185 C1181 1.495 . S
C1185 H1191 0.959 . S
C1185 H1192 0.961 . S
C1185 H1193 0.960 . S
C1186 C1184 1.381 . S
C1186 C1187 1.394 . S
C1186 H1194 0.930 . S
C1187 C1186 1.394 . S
C1187 C1188 1.383 . S
C1187 H1195 0.929 . S
C1188 C1187 1.383 . S
C1188 C1189 1.377 . S
C1189 H1173 0.930 . S
C1189 C1188 1.377 . S
C1189 C1190 1.379 . S
C1190 H1174 0.931 . S
C1190 C1184 1.383 . S
C1190 C1189 1.379 . S
H1191 C1185 0.959 . S
H1192 C1185 0.961 . S
H1193 C1185 0.960 . S
H1194 C1186 0.930 . S
H1195 C1187 0.929 . S
H1196 C1204 0.929 . S
H1197 C1206 0.930 . S
H1198 C1208 0.930 . S
H1199 C1211 0.930 . S
H1200 C1214 0.930 . S
H1201 C1216 0.960 . S
H1202 C1216 0.960 . S
H1203 C1216 0.960 . S
C1204 H1196 0.929 . S
C1204 C1205 1.377 . S
C1204 C1206 1.384 . S
C1205 C1204 1.377 . S
C1205 C1211 1.390 1_556 S
C1206 H1197 0.930 . S
C1206 C1204 1.384 . S
C1206 C1207 1.372 . S
C1207 C1206 1.372 . S
C1207 C1208 1.400 . S
C1207 C1212 1.490 . S
C1208 H1198 0.930 . S
C1208 C1207 1.400 . S
C1208 C1211 1.385 1_556 S
H1209 C1225 0.930 . S
H1210 C1226 0.931 . S
C1211 H1199 0.930 . S
C1211 C1205 1.390 1_554 S
C1211 C1208 1.385 1_554 S
C1212 C1207 1.490 . S
C1212 C1214 1.395 1_556 S
C1212 C1215 1.403 . S
H1213 C1219 0.930 . S
C1214 H1200 0.930 . S
C1214 C1212 1.395 1_554 S
C1214 C1217 1.403 . S
C1215 C1212 1.403 . S
C1215 C1216 1.524 . S
C1215 C1219 1.400 . S
C1216 H1201 0.960 . S
C1216 H1202 0.960 . S
C1216 H1203 0.960 . S
C1216 C1215 1.524 . S
C1217 C1214 1.403 . S
C1217 C1218 1.392 1_554 S
C1217 C1221 1.495 . S
C1218 C1217 1.392 1_556 S
C1218 C1219 1.385 . S
C1218 C1220 1.478 . S
C1219 H1213 0.930 . S
C1219 C1215 1.400 . S
C1219 C1218 1.385 . S
C1220 C1218 1.478 . S
C1220 C1222 1.381 . S
C1220 C1226 1.383 . S
C1221 C1217 1.495 . S
C1221 H1227 0.959 . S
C1221 H1228 0.961 . S
C1221 H1229 0.960 . S
C1222 C1220 1.381 . S
C1222 C1223 1.394 . S
C1222 H1230 0.930 . S
C1223 C1222 1.394 . S
C1223 C1224 1.383 . S
C1223 H1231 0.929 . S
C1224 C1223 1.383 . S
C1224 C1225 1.377 . S
C1225 H1209 0.930 . S
C1225 C1224 1.377 . S
C1225 C1226 1.379 . S
C1226 H1210 0.931 . S
C1226 C1220 1.383 . S
C1226 C1225 1.379 . S
H1227 C1221 0.959 . S
H1228 C1221 0.961 . S
H1229 C1221 0.960 . S
H1230 C1222 0.930 . S
H1231 C1223 0.929 . S
H1232 C1240 0.929 . S
H1233 C1242 0.930 . S
H1234 C1244 0.930 . S
H1235 C1247 0.929 . S
H1236 C1250 0.930 . S
H1237 C1252 0.960 . S
H1238 C1252 0.960 . S
H1239 C1252 0.960 1_554 S
C1240 H1232 0.929 . S
C1240 C1241 1.377 . S
C1240 C1242 1.384 . S
C1241 C1240 1.377 . S
C1241 C1247 1.390 1_556 S
C1242 H1233 0.930 . S
C1242 C1240 1.384 . S
C1242 C1243 1.372 . S
C1243 C1242 1.372 . S
C1243 C1244 1.400 1_556 S
C1243 C1248 1.490 . S
C1244 H1234 0.930 . S
C1244 C1243 1.400 1_554 S
C1244 C1247 1.386 . S
H1245 C1261 0.930 . S
H1246 C1262 0.965 . S
C1247 H1235 0.929 . S
C1247 C1241 1.390 1_554 S
C1247 C1244 1.386 . S
C1248 C1243 1.490 . S
C1248 C1250 1.395 . S
C1248 C1251 1.403 . S
H1249 C1255 0.930 . S
C1250 H1236 0.930 . S
C1250 C1248 1.395 . S
C1250 C1253 1.403 . S
C1251 C1248 1.403 . S
C1251 C1252 1.524 . S
C1251 C1255 1.400 . S
C1252 H1237 0.960 . S
C1252 H1238 0.960 . S
C1252 H1239 0.960 1_556 S
C1252 C1251 1.524 . S
C1253 C1250 1.403 . S
C1253 C1254 1.392 . S
C1253 C1257 1.495 . S
C1254 C1253 1.392 . S
C1254 C1255 1.385 . S
C1254 C1256 1.478 . S
C1255 H1249 0.930 . S
C1255 C1251 1.400 . S
C1255 C1254 1.385 . S
C1256 C1254 1.478 . S
C1256 C1258 1.381 . S
C1256 C1262 1.383 . S
C1257 C1253 1.495 . S
C1257 H1263 0.959 . S
C1257 H1264 0.961 . S
C1257 H1265 0.960 . S
C1258 C1256 1.381 . S
C1258 C1259 1.394 . S
C1258 H1266 0.930 . S
C1259 C1258 1.394 . S
C1259 C1260 1.383 . S
C1259 H1267 0.929 . S
C1260 C1259 1.383 . S
C1260 C1261 1.377 . S
C1261 H1245 0.930 . S
C1261 C1260 1.377 . S
C1261 C1262 1.379 . S
C1262 H1246 0.965 . S
C1262 C1256 1.383 . S
C1262 C1261 1.379 . S
H1263 C1257 0.959 . S
H1264 C1257 0.961 . S
H1265 C1257 0.960 . S
H1266 C1258 0.930 . S
H1267 C1259 0.929 . S
H1268 C1276 0.929 . S
H1269 C1278 0.930 . S
H1270 C1280 0.930 1_556 S
H1271 C1283 0.929 1_556 S
H1272 C1286 0.930 . S
H1273 C1288 0.960 . S
H1274 C1288 0.960 . S
H1275 C1288 0.960 . S
C1276 H1268 0.929 . S
C1276 C1277 1.377 . S
C1276 C1278 1.384 . S
C1277 C1276 1.377 . S
C1277 C1283 1.390 . S
C1278 H1269 0.930 . S
C1278 C1276 1.384 . S
C1278 C1279 1.372 . S
C1279 C1278 1.372 . S
C1279 C1280 1.400 . S
C1279 C1284 1.490 . S
C1280 H1270 0.930 1_554 S
C1280 C1279 1.400 . S
C1280 C1283 1.386 . S
H1281 C1297 0.950 . S
H1282 C1298 0.931 . S
C1283 H1271 0.929 1_554 S
C1283 C1277 1.390 . S
C1283 C1280 1.386 . S
C1284 C1279 1.490 . S
C1284 C1286 1.395 . S
C1284 C1287 1.403 . S
H1285 C1291 0.930 . S
C1286 H1272 0.930 . S
C1286 C1284 1.395 . S
C1286 C1289 1.403 . S
C1287 C1284 1.403 . S
C1287 C1288 1.524 . S
C1287 C1291 1.400 . S
C1288 H1273 0.960 . S
C1288 H1274 0.960 . S
C1288 H1275 0.960 . S
C1288 C1287 1.524 . S
C1289 C1286 1.403 . S
C1289 C1290 1.392 . S
C1289 C1293 1.495 . S
C1290 C1289 1.392 . S
C1290 C1291 1.385 . S
C1290 C1292 1.478 . S
C1291 H1285 0.930 . S
C1291 C1287 1.400 . S
C1291 C1290 1.385 . S
C1292 C1290 1.478 . S
C1292 C1294 1.381 . S
C1292 C1298 1.383 . S
C1293 C1289 1.495 . S
C1293 H1299 0.959 . S
C1293 H1300 0.961 . S
C1293 H1301 0.960 . S
C1294 C1292 1.381 . S
C1294 C1295 1.394 . S
C1294 H1302 0.930 . S
C1295 C1294 1.394 . S
C1295 C1296 1.383 . S
C1295 H1303 0.929 . S
C1296 C1295 1.383 . S
C1296 C1297 1.377 . S
C1297 H1281 0.950 . S
C1297 C1296 1.377 . S
C1297 C1298 1.379 . S
C1298 H1282 0.931 . S
C1298 C1292 1.383 . S
C1298 C1297 1.379 . S
H1299 C1293 0.959 . S
H1300 C1293 0.961 . S
H1301 C1293 0.960 . S
H1302 C1294 0.930 . S
H1303 C1295 0.929 . S
H1304 C1312 0.929 . S
H1305 C1314 0.930 . S
H1306 C1316 0.930 . S
H1307 C1319 0.929 . S
H1308 C1322 0.930 . S
H1309 C1324 0.960 . S
H1310 C1324 0.960 . S
H1311 C1324 0.960 . S
C1312 H1304 0.929 . S
C1312 C1313 1.377 1_655 S
C1312 C1314 1.384 . S
C1313 C1312 1.377 1_455 S
C1313 C1319 1.390 . S
C1314 H1305 0.930 . S
C1314 C1312 1.384 . S
C1314 C1315 1.372 1_655 S
C1315 C1314 1.372 1_455 S
C1315 C1316 1.400 . S
C1315 C1320 1.490 . S
C1316 H1306 0.930 . S
C1316 C1315 1.400 . S
C1316 C1319 1.386 . S
H1317 C1333 0.930 . S
H1318 C1334 0.931 . S
C1319 H1307 0.929 . S
C1319 C1313 1.390 . S
C1319 C1316 1.386 . S
C1320 C1315 1.490 . S
C1320 C1322 1.395 1_455 S
C1320 C1323 1.403 . S
H1321 C1327 0.930 . S
C1322 H1308 0.930 . S
C1322 C1320 1.395 1_655 S
C1322 C1325 1.403 . S
C1323 C1320 1.403 . S
C1323 C1324 1.524 . S
C1323 C1327 1.400 . S
C1324 H1309 0.960 . S
C1324 H1310 0.960 . S
C1324 H1311 0.960 . S
C1324 C1323 1.524 . S
C1325 C1322 1.403 . S
C1325 C1326 1.392 1_655 S
C1325 C1329 1.495 . S
C1326 C1325 1.392 1_455 S
C1326 C1327 1.385 . S
C1326 C1328 1.478 . S
C1327 H1321 0.930 . S
C1327 C1323 1.400 . S
C1327 C1326 1.385 . S
C1328 C1326 1.478 . S
C1328 C1330 1.381 1_455 S
C1328 C1334 1.383 . S
C1329 C1325 1.495 . S
C1329 H1335 0.959 . S
C1329 H1336 0.961 . S
C1329 H1337 0.960 . S
C1330 C1328 1.381 1_655 S
C1330 C1331 1.394 . S
C1330 H1338 0.930 . S
C1331 C1330 1.394 . S
C1331 C1332 1.383 1_655 S
C1331 H1339 0.929 . S
C1332 C1331 1.383 1_455 S
C1332 C1333 1.377 . S
C1333 H1317 0.930 . S
C1333 C1332 1.377 . S
C1333 C1334 1.379 . S
C1334 H1318 0.931 . S
C1334 C1328 1.383 . S
C1334 C1333 1.379 . S
H1335 C1329 0.959 . S
H1336 C1329 0.961 . S
H1337 C1329 0.960 . S
H1338 C1330 0.930 . S
H1339 C1331 0.929 . S
H1340 C1348 0.929 . S
H1341 C1350 0.930 . S
H1342 C1352 0.930 . S
H1343 C1355 0.929 . S
H1344 C1358 0.930 . S
H1345 C1360 0.960 . S
H1346 C1360 0.960 . S
H1347 C1360 0.960 . S
C1348 H1340 0.929 . S
C1348 C1349 1.377 . S
C1348 C1350 1.384 . S
C1349 C1348 1.377 . S
C1349 C1355 1.390 1_655 S
C1350 H1341 0.930 . S
C1350 C1348 1.384 . S
C1350 C1351 1.372 . S
C1351 C1350 1.372 . S
C1351 C1352 1.400 1_655 S
C1351 C1356 1.490 . S
C1352 H1342 0.930 . S
C1352 C1351 1.400 1_455 S
C1352 C1355 1.386 . S
H1353 C1369 0.930 . S
H1354 C1370 0.929 1_455 S
C1355 H1343 0.929 . S
C1355 C1349 1.390 1_455 S
C1355 C1352 1.386 . S
C1356 C1351 1.490 . S
C1356 C1358 1.395 . S
C1356 C1359 1.403 1_655 S
H1357 C1363 0.930 . S
C1358 H1344 0.930 . S
C1358 C1356 1.395 . S
C1358 C1361 1.403 . S
C1359 C1356 1.403 1_455 S
C1359 C1360 1.524 . S
C1359 C1363 1.400 . S
C1360 H1345 0.960 . S
C1360 H1346 0.960 . S
C1360 H1347 0.960 . S
C1360 C1359 1.524 . S
C1361 C1358 1.403 . S
C1361 C1362 1.392 . S
C1361 C1365 1.495 . S
C1362 C1361 1.392 . S
C1362 C1363 1.385 1_655 S
C1362 C1364 1.478 . S
C1363 H1357 0.930 . S
C1363 C1359 1.400 . S
C1363 C1362 1.385 1_455 S
C1364 C1362 1.478 . S
C1364 C1366 1.381 . S
C1364 C1370 1.384 . S
C1365 C1361 1.495 . S
C1365 H1371 0.959 . S
C1365 H1372 0.961 . S
C1365 H1373 0.960 . S
C1366 C1364 1.381 . S
C1366 C1367 1.394 . S
C1366 H1374 0.930 . S
C1367 C1366 1.394 . S
C1367 C1368 1.383 . S
C1367 H1375 0.929 . S
C1368 C1367 1.383 . S
C1368 C1369 1.377 1_655 S
C1369 H1353 0.930 . S
C1369 C1368 1.377 1_455 S
C1369 C1370 1.379 1_455 S
C1370 H1354 0.929 1_655 S
C1370 C1364 1.384 . S
C1370 C1369 1.379 1_655 S
H1371 C1365 0.959 . S
H1372 C1365 0.961 . S
H1373 C1365 0.960 . S
H1374 C1366 0.930 . S
H1375 C1367 0.929 . S
H1376 C1384 0.929 . S
H1377 C1386 0.930 . S
H1378 C1388 0.930 . S
H1379 C1391 0.929 . S
H1380 C1394 0.930 . S
H1381 C1396 0.960 . S
H1382 C1396 0.960 . S
H1383 C1396 0.960 . S
C1384 H1376 0.929 . S
C1384 C1385 1.377 . S
C1384 C1386 1.384 . S
C1385 C1384 1.377 . S
C1385 C1391 1.390 . S
C1386 H1377 0.930 . S
C1386 C1384 1.384 . S
C1386 C1387 1.372 . S
C1387 C1386 1.372 . S
C1387 C1388 1.400 . S
C1387 C1392 1.490 . S
C1388 H1378 0.930 . S
C1388 C1387 1.400 . S
C1388 C1391 1.386 . S
H1389 C1405 0.930 . S
H1390 C1406 0.931 . S
C1391 H1379 0.929 . S
C1391 C1385 1.390 . S
C1391 C1388 1.386 . S
C1392 C1387 1.490 . S
C1392 C1394 1.395 . S
C1392 C1395 1.403 . S
H1393 C1399 0.930 1_655 S
C1394 H1380 0.930 . S
C1394 C1392 1.395 . S
C1394 C1397 1.403 . S
C1395 C1392 1.403 . S
C1395 C1396 1.524 1_455 S
C1395 C1399 1.400 . S
C1396 H1381 0.960 . S
C1396 H1382 0.960 . S
C1396 H1383 0.960 . S
C1396 C1395 1.524 1_655 S
C1397 C1394 1.403 . S
C1397 C1398 1.392 . S
C1397 C1401 1.495 . S
C1398 C1397 1.392 . S
C1398 C1399 1.385 . S
C1398 C1400 1.478 . S
C1399 H1393 0.930 1_455 S
C1399 C1395 1.400 . S
C1399 C1398 1.385 . S
C1400 C1398 1.478 . S
C1400 C1402 1.381 . S
C1400 C1406 1.383 . S
C1401 C1397 1.495 . S
C1401 H1407 0.959 . S
C1401 H1408 0.961 . S
C1401 H1409 0.960 . S
C1402 C1400 1.381 . S
C1402 C1403 1.394 . S
C1402 H1410 0.930 . S
C1403 C1402 1.394 . S
C1403 C1404 1.383 . S
C1403 H1411 0.929 . S
C1404 C1403 1.383 . S
C1404 C1405 1.377 . S
C1405 H1389 0.930 . S
C1405 C1404 1.377 . S
C1405 C1406 1.379 . S
C1406 H1390 0.931 . S
C1406 C1400 1.383 . S
C1406 C1405 1.379 . S
H1407 C1401 0.959 . S
H1408 C1401 0.961 . S
H1409 C1401 0.960 . S
H1410 C1402 0.930 . S
H1411 C1403 0.929 . S
H1412 C1420 0.929 . S
H1413 C1422 0.930 . S
H1414 C1424 0.930 . S
H1415 C1427 0.929 . S
H1416 C1430 0.930 . S
H1417 C1432 0.957 1_455 S
H1418 C1432 0.947 1_455 S
H1419 C1432 0.971 . S
C1420 H1412 0.929 . S
C1420 C1421 1.377 1_455 S
C1420 C1422 1.384 . S
C1421 C1420 1.377 1_655 S
C1421 C1427 1.390 . S
C1422 H1413 0.930 . S
C1422 C1420 1.384 . S
C1422 C1423 1.372 1_455 S
C1423 C1422 1.372 1_655 S
C1423 C1424 1.400 . S
C1423 C1428 1.490 . S
C1424 H1414 0.930 . S
C1424 C1423 1.400 . S
C1424 C1427 1.386 . S
H1425 C1441 0.930 . S
H1426 C1442 0.931 . S
C1427 H1415 0.929 . S
C1427 C1421 1.390 . S
C1427 C1424 1.386 . S
C1428 C1423 1.490 . S
C1428 C1430 1.395 . S
C1428 C1431 1.403 . S
H1429 C1435 0.930 . S
C1430 H1416 0.930 . S
C1430 C1428 1.395 . S
C1430 C1433 1.403 . S
C1431 C1428 1.403 . S
C1431 C1432 1.527 . S
C1431 C1435 1.400 . S
C1432 H1417 0.957 1_655 S
C1432 H1418 0.947 1_655 S
C1432 H1419 0.971 . S
C1432 C1431 1.527 . S
C1433 C1430 1.403 . S
C1433 C1434 1.392 . S
C1433 C1437 1.495 . S
C1434 C1433 1.392 . S
C1434 C1435 1.385 . S
C1434 C1436 1.478 . S
C1435 H1429 0.930 . S
C1435 C1431 1.400 . S
C1435 C1434 1.385 . S
C1436 C1434 1.478 . S
C1436 C1438 1.381 . S
C1436 C1442 1.383 . S
C1437 C1433 1.495 . S
C1437 H1443 0.959 . S
C1437 H1444 0.961 . S
C1437 H1445 0.960 . S
C1438 C1436 1.381 . S
C1438 C1439 1.394 . S
C1438 H1446 0.930 1_655 S
C1439 C1438 1.394 . S
C1439 C1440 1.383 . S
C1439 H1447 0.929 1_655 S
C1440 C1439 1.383 . S
C1440 C1441 1.377 . S
C1441 H1425 0.930 . S
C1441 C1440 1.377 . S
C1441 C1442 1.379 . S
C1442 H1426 0.931 . S
C1442 C1436 1.383 . S
C1442 C1441 1.379 . S
H1443 C1437 0.959 . S
H1444 C1437 0.961 . S
H1445 C1437 0.960 . S
H1446 C1438 0.930 1_455 S
H1447 C1439 0.929 1_455 S
H1448 C1456 0.929 . S
H1449 C1458 0.930 . S
H1450 C1460 0.906 1_565 S
H1451 C1463 0.929 . S
H1452 C1466 0.930 . S
H1453 C1468 0.960 . S
H1454 C1468 0.960 . S
H1455 C1468 0.960 . S
C1456 H1448 0.929 . S
C1456 C1457 1.377 . S
C1456 C1458 1.384 . S
C1457 C1456 1.377 . S
C1457 C1463 1.390 1_545 S
C1458 H1449 0.930 . S
C1458 C1456 1.384 . S
C1458 C1459 1.372 . S
C1459 C1458 1.372 . S
C1459 C1460 1.424 . S
C1459 C1464 1.490 . S
C1460 H1450 0.906 1_545 S
C1460 C1459 1.424 . S
C1460 C1463 1.385 1_545 S
H1461 C1477 0.930 1_565 S
H1462 C1478 0.931 1_565 S
C1463 H1451 0.929 . S
C1463 C1457 1.390 1_565 S
C1463 C1460 1.385 1_565 S
C1464 C1459 1.490 . S
C1464 C1466 1.395 . S
C1464 C1467 1.403 . S
H1465 C1471 0.930 . S
C1466 H1452 0.930 . S
C1466 C1464 1.395 . S
C1466 C1469 1.403 . S
C1467 C1464 1.403 . S
C1467 C1468 1.524 . S
C1467 C1471 1.400 . S
C1468 H1453 0.960 . S
C1468 H1454 0.960 . S
C1468 H1455 0.960 . S
C1468 C1467 1.524 . S
C1469 C1466 1.403 . S
C1469 C1470 1.392 . S
C1469 C1473 1.495 . S
C1470 C1469 1.392 . S
C1470 C1471 1.385 . S
C1470 C1472 1.478 . S
C1471 H1465 0.930 . S
C1471 C1467 1.400 . S
C1471 C1470 1.385 . S
C1472 C1470 1.478 . S
C1472 C1474 1.381 . S
C1472 C1478 1.383 . S
C1473 C1469 1.495 . S
C1473 H1479 0.959 . S
C1473 H1480 0.961 . S
C1473 H1481 0.960 . S
C1474 C1472 1.381 . S
C1474 C1475 1.394 . S
C1474 H1482 0.930 . S
C1475 C1474 1.394 . S
C1475 C1476 1.383 . S
C1475 H1483 0.929 . S
C1476 C1475 1.383 . S
C1476 C1477 1.377 . S
C1477 H1461 0.930 1_545 S
C1477 C1476 1.377 . S
C1477 C1478 1.379 . S
C1478 H1462 0.931 1_545 S
C1478 C1472 1.383 . S
C1478 C1477 1.379 . S
H1479 C1473 0.959 . S
H1480 C1473 0.961 . S
H1481 C1473 0.960 . S
H1482 C1474 0.930 . S
H1483 C1475 0.929 . S
H1484 C1492 0.929 . S
H1485 C1494 0.930 . S
H1486 C1496 0.930 . S
H1487 C1499 0.929 . S
H1488 C1502 0.930 . S
H1489 C1504 0.960 . S
H1490 C1504 0.960 . S
H1491 C1504 0.960 . S
C1492 H1484 0.929 . S
C1492 C1493 1.377 . S
C1492 C1494 1.384 . S
C1493 C1492 1.377 . S
C1493 C1499 1.390 . S
C1494 H1485 0.930 . S
C1494 C1492 1.384 . S
C1494 C1495 1.372 . S
C1495 C1494 1.372 . S
C1495 C1496 1.400 . S
C1495 C1500 1.490 . S
C1496 H1486 0.930 . S
C1496 C1495 1.400 . S
C1496 C1499 1.386 . S
H1497 C1513 0.930 . S
H1498 C1514 0.931 . S
C1499 H1487 0.929 . S
C1499 C1493 1.390 . S
C1499 C1496 1.386 . S
C1500 C1495 1.490 . S
C1500 C1502 1.395 . S
C1500 C1503 1.403 . S
H1501 C1507 0.930 . S
C1502 H1488 0.930 . S
C1502 C1500 1.395 . S
C1502 C1505 1.403 . S
C1503 C1500 1.403 . S
C1503 C1504 1.524 . S
C1503 C1507 1.400 . S
C1504 H1489 0.960 . S
C1504 H1490 0.960 . S
C1504 H1491 0.960 . S
C1504 C1503 1.524 . S
C1505 C1502 1.403 . S
C1505 C1506 1.392 . S
C1505 C1509 1.495 . S
C1506 C1505 1.392 . S
C1506 C1507 1.385 . S
C1506 C1508 1.478 . S
C1507 H1501 0.930 . S
C1507 C1503 1.400 . S
C1507 C1506 1.385 . S
C1508 C1506 1.478 . S
C1508 C1510 1.381 . S
C1508 C1514 1.383 . S
C1509 C1505 1.495 . S
C1509 H1515 0.959 . S
C1509 H1516 0.961 . S
C1509 H1517 0.960 . S
C1510 C1508 1.381 . S
C1510 C1511 1.394 . S
C1510 H1518 0.930 . S
C1511 C1510 1.394 . S
C1511 C1512 1.383 . S
C1511 H1519 0.929 . S
C1512 C1511 1.383 . S
C1512 C1513 1.377 . S
C1513 H1497 0.930 . S
C1513 C1512 1.377 . S
C1513 C1514 1.379 . S
C1514 H1498 0.931 . S
C1514 C1508 1.383 . S
C1514 C1513 1.379 . S
H1515 C1509 0.959 . S
H1516 C1509 0.961 . S
H1517 C1509 0.960 . S
H1518 C1510 0.930 . S
H1519 C1511 0.929 . S
H1520 C1528 0.929 . S
H1521 C1530 0.930 . S
H1522 C1532 0.930 . S
H1523 C1535 0.929 . S
H1524 C1538 0.930 . S
H1525 C1540 0.960 . S
H1526 C1540 0.979 . S
H1527 C1540 0.960 . S
C1528 H1520 0.929 . S
C1528 C1529 1.377 1_545 S
C1528 C1530 1.384 . S
C1529 C1528 1.377 1_565 S
C1529 C1535 1.390 . S
C1530 H1521 0.930 . S
C1530 C1528 1.384 . S
C1530 C1531 1.372 1_545 S
C1531 C1530 1.372 1_565 S
C1531 C1532 1.400 . S
C1531 C1536 1.490 . S
C1532 H1522 0.930 . S
C1532 C1531 1.400 . S
C1532 C1535 1.386 . S
H1533 C1549 0.930 . S
H1534 C1550 0.931 . S
C1535 H1523 0.929 . S
C1535 C1529 1.390 . S
C1535 C1532 1.386 . S
C1536 C1531 1.490 . S
C1536 C1538 1.395 . S
C1536 C1539 1.403 . S
H1537 C1543 0.930 . S
C1538 H1524 0.930 . S
C1538 C1536 1.395 . S
C1538 C1541 1.403 . S
C1539 C1536 1.403 . S
C1539 C1540 1.524 . S
C1539 C1543 1.400 . S
C1540 H1525 0.960 . S
C1540 H1526 0.979 . S
C1540 H1527 0.960 . S
C1540 C1539 1.524 . S
C1541 C1538 1.403 . S
C1541 C1542 1.392 . S
C1541 C1545 1.495 . S
C1542 C1541 1.392 . S
C1542 C1543 1.385 . S
C1542 C1544 1.478 . S
C1543 H1537 0.930 . S
C1543 C1539 1.400 . S
C1543 C1542 1.385 . S
C1544 C1542 1.478 . S
C1544 C1546 1.381 . S
C1544 C1550 1.383 . S
C1545 C1541 1.495 . S
C1545 H1551 0.959 . S
C1545 H1552 0.961 . S
C1545 H1553 0.960 . S
C1546 C1544 1.381 . S
C1546 C1547 1.394 . S
C1546 H1554 0.930 1_565 S
C1547 C1546 1.394 . S
C1547 C1548 1.383 . S
C1547 H1555 0.929 1_565 S
C1548 C1547 1.383 . S
C1548 C1549 1.377 . S
C1549 H1533 0.930 . S
C1549 C1548 1.377 . S
C1549 C1550 1.379 . S
C1550 H1534 0.931 . S
C1550 C1544 1.383 . S
C1550 C1549 1.379 . S
H1551 C1545 0.959 . S
H1552 C1545 0.961 . S
H1553 C1545 0.960 . S
H1554 C1546 0.930 1_545 S
H1555 C1547 0.929 1_545 S
H1556 C1564 0.929 . S
H1557 C1566 0.930 . S
H1558 C1568 0.930 . S
H1559 C1571 0.929 . S
H1560 C1574 0.930 . S
H1561 C1576 0.960 . S
H1562 C1576 0.960 . S
H1563 C1576 0.960 . S
C1564 H1556 0.929 . S
C1564 C1565 1.377 . S
C1564 C1566 1.384 . S
C1565 C1564 1.377 . S
C1565 C1571 1.390 . S
C1566 H1557 0.930 . S
C1566 C1564 1.384 . S
C1566 C1567 1.372 . S
C1567 C1566 1.372 . S
C1567 C1568 1.400 . S
C1567 C1572 1.490 . S
C1568 H1558 0.930 . S
C1568 C1567 1.400 . S
C1568 C1571 1.386 . S
H1569 C1585 0.930 . S
H1570 C1586 0.931 . S
C1571 H1559 0.929 . S
C1571 C1565 1.390 . S
C1571 C1568 1.386 . S
C1572 C1567 1.490 . S
C1572 C1574 1.395 . S
C1572 C1575 1.403 . S
H1573 C1579 0.930 . S
C1574 H1560 0.930 . S
C1574 C1572 1.395 . S
C1574 C1577 1.403 . S
C1575 C1572 1.403 . S
C1575 C1576 1.524 . S
C1575 C1579 1.400 . S
C1576 H1561 0.960 . S
C1576 H1562 0.960 . S
C1576 H1563 0.960 . S
C1576 C1575 1.524 . S
C1577 C1574 1.403 . S
C1577 C1578 1.392 . S
C1577 C1581 1.495 . S
C1578 C1577 1.392 . S
C1578 C1579 1.385 . S
C1578 C1580 1.478 . S
C1579 H1573 0.930 . S
C1579 C1575 1.400 . S
C1579 C1578 1.385 . S
C1580 C1578 1.478 . S
C1580 C1582 1.381 . S
C1580 C1586 1.383 . S
C1581 C1577 1.495 . S
C1581 H1587 0.959 . S
C1581 H1588 0.961 . S
C1581 H1589 0.960 . S
C1582 C1580 1.381 . S
C1582 C1583 1.394 . S
C1582 H1590 0.930 . S
C1583 C1582 1.394 . S
C1583 C1584 1.383 . S
C1583 H1591 0.929 . S
C1584 C1583 1.383 . S
C1584 C1585 1.377 . S
C1585 H1569 0.930 . S
C1585 C1584 1.377 . S
C1585 C1586 1.379 . S
C1586 H1570 0.931 . S
C1586 C1580 1.383 . S
C1586 C1585 1.379 . S
H1587 C1581 0.959 . S
H1588 C1581 0.961 . S
H1589 C1581 0.960 . S
H1590 C1582 0.930 . S
H1591 C1583 0.929 . S
H1592 C1600 0.929 . S
H1593 C1602 0.930 . S
H1594 C1604 0.930 . S
H1595 C1607 0.929 . S
H1596 C1610 0.930 . S
H1597 C1612 0.960 . S
H1598 C1612 0.960 . S
H1599 C1612 0.960 . S
C1600 H1592 0.929 . S
C1600 C1601 1.377 1_556 S
C1600 C1602 1.384 . S
C1601 C1600 1.377 1_554 S
C1601 C1607 1.390 . S
C1602 H1593 0.930 . S
C1602 C1600 1.384 . S
C1602 C1603 1.372 1_556 S
C1603 C1602 1.372 1_554 S
C1603 C1604 1.400 . S
C1603 C1608 1.490 . S
C1604 H1594 0.930 . S
C1604 C1603 1.400 . S
C1604 C1607 1.386 . S
H1605 C1621 0.930 . S
H1606 C1622 0.931 . S
C1607 H1595 0.929 . S
C1607 C1601 1.390 . S
C1607 C1604 1.386 . S
C1608 C1603 1.490 . S
C1608 C1610 1.395 . S
C1608 C1611 1.403 . S
H1609 C1615 0.930 . S
C1610 H1596 0.930 . S
C1610 C1608 1.395 . S
C1610 C1613 1.403 . S
C1611 C1608 1.403 . S
C1611 C1612 1.524 . S
C1611 C1615 1.400 . S
C1612 H1597 0.960 . S
C1612 H1598 0.960 . S
C1612 H1599 0.960 . S
C1612 C1611 1.524 . S
C1613 C1610 1.403 . S
C1613 C1614 1.392 . S
C1613 C1617 1.495 . S
C1614 C1613 1.392 . S
C1614 C1615 1.385 . S
C1614 C1616 1.478 . S
C1615 H1609 0.930 . S
C1615 C1611 1.400 . S
C1615 C1614 1.385 . S
C1616 C1614 1.478 . S
C1616 C1618 1.381 . S
C1616 C1622 1.383 . S
C1617 C1613 1.495 . S
C1617 H1623 0.959 . S
C1617 H1624 0.961 . S
C1617 H1625 0.960 . S
C1618 C1616 1.381 . S
C1618 C1619 1.394 . S
C1618 H1626 0.930 1_554 S
C1619 C1618 1.394 . S
C1619 C1620 1.383 . S
C1619 H1627 0.929 . S
C1620 C1619 1.383 . S
C1620 C1621 1.377 . S
C1621 H1605 0.930 . S
C1621 C1620 1.377 . S
C1621 C1622 1.379 . S
C1622 H1606 0.931 . S
C1622 C1616 1.383 . S
C1622 C1621 1.379 . S
H1623 C1617 0.959 . S
H1624 C1617 0.961 . S
H1625 C1617 0.960 . S
H1626 C1618 0.930 1_556 S
H1627 C1619 0.929 . S
H1628 C1636 0.929 . S
H1629 C1638 0.930 . S
H1630 C1640 0.930 . S
H1631 C1643 0.929 . S
H1632 C1646 0.930 . S
H1633 C1648 0.960 . S
H1634 C1648 0.960 . S
H1635 C1648 0.960 . S
C1636 H1628 0.929 . S
C1636 C1637 1.377 . S
C1636 C1638 1.384 . S
C1637 C1636 1.377 . S
C1637 C1643 1.390 . S
C1638 H1629 0.930 . S
C1638 C1636 1.384 . S
C1638 C1639 1.372 . S
C1639 C1638 1.372 . S
C1639 C1640 1.400 . S
C1639 C1644 1.490 . S
C1640 H1630 0.930 . S
C1640 C1639 1.400 . S
C1640 C1643 1.386 . S
H1641 C1657 0.930 . S
H1642 C1658 0.931 . S
C1643 H1631 0.929 . S
C1643 C1637 1.390 . S
C1643 C1640 1.386 . S
C1644 C1639 1.490 . S
C1644 C1646 1.395 . S
C1644 C1647 1.403 . S
H1645 C1651 0.930 . S
C1646 H1632 0.930 . S
C1646 C1644 1.395 . S
C1646 C1649 1.403 . S
C1647 C1644 1.403 . S
C1647 C1648 1.524 . S
C1647 C1651 1.400 . S
C1648 H1633 0.960 . S
C1648 H1634 0.960 . S
C1648 H1635 0.960 . S
C1648 C1647 1.524 . S
C1649 C1646 1.403 . S
C1649 C1650 1.392 . S
C1649 C1653 1.495 . S
C1650 C1649 1.392 . S
C1650 C1651 1.385 . S
C1650 C1652 1.478 . S
C1651 H1645 0.930 . S
C1651 C1647 1.400 . S
C1651 C1650 1.385 . S
C1652 C1650 1.478 . S
C1652 C1654 1.381 . S
C1652 C1658 1.383 . S
C1653 C1649 1.495 . S
C1653 H1659 0.959 . S
C1653 H1660 0.961 . S
C1653 H1661 0.960 . S
C1654 C1652 1.381 . S
C1654 C1655 1.394 . S
C1654 H1662 0.930 . S
C1655 C1654 1.394 . S
C1655 C1656 1.383 . S
C1655 H1663 0.929 . S
C1656 C1655 1.383 . S
C1656 C1657 1.377 . S
C1657 H1641 0.930 . S
C1657 C1656 1.377 . S
C1657 C1658 1.379 . S
C1658 H1642 0.931 . S
C1658 C1652 1.383 . S
C1658 C1657 1.379 . S
H1659 C1653 0.959 . S
H1660 C1653 0.961 . S
H1661 C1653 0.960 . S
H1662 C1654 0.930 . S
H1663 C1655 0.929 . S
H1664 C1672 0.929 . S
H1665 C1674 0.930 . S
H1666 C1676 0.930 . S
H1667 C1679 0.929 . S
H1668 C1682 0.930 . S
H1669 C1684 0.960 . S
H1670 C1684 0.960 . S
H1671 C1684 0.960 . S
C1672 H1664 0.929 . S
C1672 C1673 1.377 . S
C1672 C1674 1.384 . S
C1673 C1672 1.377 . S
C1673 C1679 1.390 . S
C1674 H1665 0.930 . S
C1674 C1672 1.384 . S
C1674 C1675 1.372 . S
C1675 C1674 1.372 . S
C1675 C1676 1.400 . S
C1675 C1680 1.490 . S
C1676 H1666 0.930 . S
C1676 C1675 1.400 . S
C1676 C1679 1.386 . S
H1677 C1693 0.930 . S
H1678 C1694 0.931 . S
C1679 H1667 0.929 . S
C1679 C1673 1.390 . S
C1679 C1676 1.386 . S
C1680 C1675 1.490 . S
C1680 C1682 1.395 . S
C1680 C1683 1.403 . S
H1681 C1687 0.930 . S
C1682 H1668 0.930 . S
C1682 C1680 1.395 . S
C1682 C1685 1.403 . S
C1683 C1680 1.403 . S
C1683 C1684 1.524 . S
C1683 C1687 1.400 . S
C1684 H1669 0.960 . S
C1684 H1670 0.960 . S
C1684 H1671 0.960 . S
C1684 C1683 1.524 . S
C1685 C1682 1.403 . S
C1685 C1686 1.392 . S
C1685 C1689 1.495 . S
C1686 C1685 1.392 . S
C1686 C1687 1.385 . S
C1686 C1688 1.478 . S
C1687 H1681 0.930 . S
C1687 C1683 1.400 . S
C1687 C1686 1.385 . S
C1688 C1686 1.478 . S
C1688 C1690 1.381 . S
C1688 C1694 1.383 . S
C1689 C1685 1.495 . S
C1689 H1695 0.959 . S
C1689 H1696 0.961 . S
C1689 H1697 0.960 . S
C1690 C1688 1.381 . S
C1690 C1691 1.394 . S
C1690 H1698 0.930 . S
C1691 C1690 1.394 . S
C1691 C1692 1.383 . S
C1691 H1699 0.929 . S
C1692 C1691 1.383 . S
C1692 C1693 1.377 . S
C1693 H1677 0.930 . S
C1693 C1692 1.377 . S
C1693 C1694 1.379 . S
C1694 H1678 0.931 . S
C1694 C1688 1.383 . S
C1694 C1693 1.379 . S
H1695 C1689 0.959 . S
H1696 C1689 0.961 . S
H1697 C1689 0.960 . S
H1698 C1690 0.930 . S
H1699 C1691 0.929 . S
H1700 C1708 0.929 . S
H1701 C1710 0.930 . S
H1702 C1712 0.930 . S
H1703 C1715 0.929 . S
H1704 C1718 0.930 . S
H1705 C1720 0.960 . S
H1706 C1720 0.960 . S
H1707 C1720 0.960 . S
C1708 H1700 0.929 . S
C1708 C1709 1.377 . S
C1708 C1710 1.384 . S
C1709 C1708 1.377 . S
C1709 C1715 1.390 . S
C1710 H1701 0.930 . S
C1710 C1708 1.384 . S
C1710 C1711 1.372 . S
C1711 C1710 1.372 . S
C1711 C1712 1.400 . S
C1711 C1716 1.490 . S
C1712 H1702 0.930 . S
C1712 C1711 1.400 . S
C1712 C1715 1.386 . S
H1713 C1729 0.930 . S
H1714 C1730 0.931 . S
C1715 H1703 0.929 . S
C1715 C1709 1.390 . S
C1715 C1712 1.386 . S
C1716 C1711 1.490 . S
C1716 C1718 1.395 . S
C1716 C1719 1.403 . S
H1717 C1723 0.930 . S
C1718 H1704 0.930 . S
C1718 C1716 1.395 . S
C1718 C1721 1.403 . S
C1719 C1716 1.403 . S
C1719 C1720 1.524 . S
C1719 C1723 1.400 . S
C1720 H1705 0.960 . S
C1720 H1706 0.960 . S
C1720 H1707 0.960 . S
C1720 C1719 1.524 . S
C1721 C1718 1.403 . S
C1721 C1722 1.392 . S
C1721 C1725 1.495 . S
C1722 C1721 1.392 . S
C1722 C1723 1.385 . S
C1722 C1724 1.478 . S
C1723 H1717 0.930 . S
C1723 C1719 1.400 . S
C1723 C1722 1.385 . S
C1724 C1722 1.478 . S
C1724 C1726 1.381 . S
C1724 C1730 1.383 . S
C1725 C1721 1.495 . S
C1725 H1731 0.959 . S
C1725 H1732 0.961 . S
C1725 H1733 0.960 . S
C1726 C1724 1.381 . S
C1726 C1727 1.394 . S
C1726 H1734 0.930 . S
C1727 C1726 1.394 . S
C1727 C1728 1.383 . S
C1727 H1735 0.929 . S
C1728 C1727 1.383 . S
C1728 C1729 1.377 . S
C1729 H1713 0.930 . S
C1729 C1728 1.377 . S
C1729 C1730 1.379 . S
C1730 H1714 0.931 . S
C1730 C1724 1.383 . S
C1730 C1729 1.379 . S
H1731 C1725 0.959 . S
H1732 C1725 0.961 . S
H1733 C1725 0.960 . S
H1734 C1726 0.930 . S
H1735 C1727 0.929 . S
H1736 C1744 0.929 . S
H1737 C1746 0.930 . S
H1738 C1748 0.930 . S
H1739 C1751 0.929 . S
H1740 C1754 0.930 . S
H1741 C1756 0.960 . S
H1742 C1756 0.960 . S
H1743 C1756 0.960 . S
C1744 H1736 0.929 . S
C1744 C1745 1.377 . S
C1744 C1746 1.384 . S
C1745 C1744 1.377 . S
C1745 C1751 1.390 . S
C1746 H1737 0.930 . S
C1746 C1744 1.384 . S
C1746 C1747 1.372 . S
C1747 C1746 1.372 . S
C1747 C1748 1.400 . S
C1747 C1752 1.490 . S
C1748 H1738 0.930 . S
C1748 C1747 1.400 . S
C1748 C1751 1.386 . S
H1749 C1765 0.930 . S
H1750 C1766 0.931 . S
C1751 H1739 0.929 . S
C1751 C1745 1.390 . S
C1751 C1748 1.386 . S
C1752 C1747 1.490 . S
C1752 C1754 1.395 . S
C1752 C1755 1.403 . S
H1753 C1759 0.930 . S
C1754 H1740 0.930 . S
C1754 C1752 1.395 . S
C1754 C1757 1.403 . S
C1755 C1752 1.403 . S
C1755 C1756 1.524 . S
C1755 C1759 1.400 . S
C1756 H1741 0.960 . S
C1756 H1742 0.960 . S
C1756 H1743 0.960 . S
C1756 C1755 1.524 . S
C1757 C1754 1.403 . S
C1757 C1758 1.392 . S
C1757 C1761 1.495 . S
C1758 C1757 1.392 . S
C1758 C1759 1.385 . S
C1758 C1760 1.478 . S
C1759 H1753 0.930 . S
C1759 C1755 1.400 . S
C1759 C1758 1.385 . S
C1760 C1758 1.478 . S
C1760 C1762 1.381 . S
C1760 C1766 1.383 . S
C1761 C1757 1.495 . S
C1761 H1767 0.959 . S
C1761 H1768 0.961 . S
C1761 H1769 0.960 . S
C1762 C1760 1.381 . S
C1762 C1763 1.394 . S
C1762 H1770 0.930 . S
C1763 C1762 1.394 . S
C1763 C1764 1.383 . S
C1763 H1771 0.929 . S
C1764 C1763 1.383 . S
C1764 C1765 1.377 . S
C1765 H1749 0.930 . S
C1765 C1764 1.377 . S
C1765 C1766 1.379 . S
C1766 H1750 0.931 . S
C1766 C1760 1.383 . S
C1766 C1765 1.379 . S
H1767 C1761 0.959 . S
H1768 C1761 0.961 . S
H1769 C1761 0.960 . S
H1770 C1762 0.930 . S
H1771 C1763 0.929 . S
H1772 C1780 0.929 . S
H1773 C1782 0.930 . S
H1774 C1784 0.930 . S
H1775 C1787 0.929 . S
H1776 C1790 0.930 . S
H1777 C1792 0.960 . S
H1778 C1792 0.960 . S
H1779 C1792 0.960 . S
C1780 H1772 0.929 . S
C1780 C1781 1.377 . S
C1780 C1782 1.384 . S
C1781 C1780 1.377 . S
C1781 C1787 1.390 . S
C1782 H1773 0.930 . S
C1782 C1780 1.384 . S
C1782 C1783 1.372 . S
C1783 C1782 1.372 . S
C1783 C1784 1.400 . S
C1783 C1788 1.490 . S
C1784 H1774 0.930 . S
C1784 C1783 1.400 . S
C1784 C1787 1.386 . S
H1785 C1801 0.930 . S
H1786 C1802 0.931 . S
C1787 H1775 0.929 . S
C1787 C1781 1.390 . S
C1787 C1784 1.386 . S
C1788 C1783 1.490 . S
C1788 C1790 1.395 . S
C1788 C1791 1.403 . S
H1789 C1795 0.930 . S
C1790 H1776 0.930 . S
C1790 C1788 1.395 . S
C1790 C1793 1.403 . S
C1791 C1788 1.403 . S
C1791 C1792 1.524 . S
C1791 C1795 1.400 . S
C1792 H1777 0.960 . S
C1792 H1778 0.960 . S
C1792 H1779 0.960 . S
C1792 C1791 1.524 . S
C1793 C1790 1.403 . S
C1793 C1794 1.392 . S
C1793 C1797 1.495 . S
C1794 C1793 1.392 . S
C1794 C1795 1.385 . S
C1794 C1796 1.478 . S
C1795 H1789 0.930 . S
C1795 C1791 1.400 . S
C1795 C1794 1.385 . S
C1796 C1794 1.478 . S
C1796 C1798 1.381 . S
C1796 C1802 1.383 . S
C1797 C1793 1.495 . S
C1797 H1803 0.959 . S
C1797 H1804 0.961 . S
C1797 H1805 0.960 . S
C1798 C1796 1.381 . S
C1798 C1799 1.394 . S
C1798 H1806 0.930 . S
C1799 C1798 1.394 . S
C1799 C1800 1.383 . S
C1799 H1807 0.929 . S
C1800 C1799 1.383 . S
C1800 C1801 1.377 . S
C1801 H1785 0.930 . S
C1801 C1800 1.377 . S
C1801 C1802 1.379 . S
C1802 H1786 0.931 . S
C1802 C1796 1.383 . S
C1802 C1801 1.379 . S
H1803 C1797 0.959 . S
H1804 C1797 0.961 . S
H1805 C1797 0.960 . S
H1806 C1798 0.930 . S
H1807 C1799 0.929 . S
H1808 C1816 0.929 . S
H1809 C1818 0.930 . S
H1810 C1820 0.930 . S
H1811 C1823 0.929 . S
H1812 C1826 0.930 . S
H1813 C1828 0.960 . S
H1814 C1828 0.960 . S
H1815 C1828 0.960 . S
C1816 H1808 0.929 . S
C1816 C1817 1.377 . S
C1816 C1818 1.384 . S
C1817 C1816 1.377 . S
C1817 C1823 1.390 . S
C1818 H1809 0.930 . S
C1818 C1816 1.384 . S
C1818 C1819 1.372 . S
C1819 C1818 1.372 . S
C1819 C1820 1.400 . S
C1819 C1824 1.490 . S
C1820 H1810 0.930 . S
C1820 C1819 1.400 . S
C1820 C1823 1.386 . S
H1821 C1837 0.930 . S
H1822 C1838 0.931 . S
C1823 H1811 0.929 . S
C1823 C1817 1.390 . S
C1823 C1820 1.386 . S
C1824 C1819 1.490 . S
C1824 C1826 1.395 . S
C1824 C1827 1.403 . S
H1825 C1831 0.930 . S
C1826 H1812 0.930 . S
C1826 C1824 1.395 . S
C1826 C1829 1.403 . S
C1827 C1824 1.403 . S
C1827 C1828 1.524 . S
C1827 C1831 1.400 . S
C1828 H1813 0.960 . S
C1828 H1814 0.960 . S
C1828 H1815 0.960 . S
C1828 C1827 1.524 . S
C1829 C1826 1.403 . S
C1829 C1830 1.392 . S
C1829 C1833 1.495 . S
C1830 C1829 1.392 . S
C1830 C1831 1.385 . S
C1830 C1832 1.478 . S
C1831 H1825 0.930 . S
C1831 C1827 1.400 . S
C1831 C1830 1.385 . S
C1832 C1830 1.478 . S
C1832 C1834 1.381 . S
C1832 C1838 1.383 . S
C1833 C1829 1.495 . S
C1833 H1839 0.959 . S
C1833 H1840 0.961 . S
C1833 H1841 0.960 . S
C1834 C1832 1.381 . S
C1834 C1835 1.394 . S
C1834 H1842 0.930 . S
C1835 C1834 1.394 . S
C1835 C1836 1.383 . S
C1835 H1843 0.929 . S
C1836 C1835 1.383 . S
C1836 C1837 1.377 . S
C1837 H1821 0.930 . S
C1837 C1836 1.377 . S
C1837 C1838 1.379 . S
C1838 H1822 0.931 . S
C1838 C1832 1.383 . S
C1838 C1837 1.379 . S
H1839 C1833 0.959 . S
H1840 C1833 0.961 . S
H1841 C1833 0.960 . S
H1842 C1834 0.930 . S
H1843 C1835 0.929 . S
H1844 C1852 0.929 . S
H1845 C1854 0.930 . S
H1846 C1856 0.930 . S
H1847 C1859 0.929 . S
H1848 C1862 0.930 . S
H1849 C1864 0.960 . S
H1850 C1864 0.960 . S
H1851 C1864 0.960 . S
C1852 H1844 0.929 . S
C1852 C1853 1.377 . S
C1852 C1854 1.384 . S
C1853 C1852 1.377 . S
C1853 C1859 1.390 . S
C1854 H1845 0.930 . S
C1854 C1852 1.384 . S
C1854 C1855 1.372 . S
C1855 C1854 1.372 . S
C1855 C1856 1.400 . S
C1855 C1860 1.490 . S
C1856 H1846 0.930 . S
C1856 C1855 1.400 . S
C1856 C1859 1.386 . S
H1857 C1873 0.930 . S
H1858 C1874 0.931 . S
C1859 H1847 0.929 . S
C1859 C1853 1.390 . S
C1859 C1856 1.386 . S
C1860 C1855 1.490 . S
C1860 C1862 1.395 . S
C1860 C1863 1.403 . S
H1861 C1867 0.930 . S
C1862 H1848 0.930 . S
C1862 C1860 1.395 . S
C1862 C1865 1.403 . S
C1863 C1860 1.403 . S
C1863 C1864 1.524 . S
C1863 C1867 1.400 . S
C1864 H1849 0.960 . S
C1864 H1850 0.960 . S
C1864 H1851 0.960 . S
C1864 C1863 1.524 . S
C1865 C1862 1.403 . S
C1865 C1866 1.392 . S
C1865 C1869 1.495 . S
C1866 C1865 1.392 . S
C1866 C1867 1.385 . S
C1866 C1868 1.478 . S
C1867 H1861 0.930 . S
C1867 C1863 1.400 . S
C1867 C1866 1.385 . S
C1868 C1866 1.478 . S
C1868 C1870 1.381 . S
C1868 C1874 1.383 . S
C1869 C1865 1.495 . S
C1869 H1875 0.959 . S
C1869 H1876 0.961 . S
C1869 H1877 0.960 . S
C1870 C1868 1.381 . S
C1870 C1871 1.394 . S
C1870 H1878 0.930 . S
C1871 C1870 1.394 . S
C1871 C1872 1.383 . S
C1871 H1879 0.929 . S
C1872 C1871 1.383 . S
C1872 C1873 1.377 . S
C1873 H1857 0.930 . S
C1873 C1872 1.377 . S
C1873 C1874 1.379 . S
C1874 H1858 0.931 . S
C1874 C1868 1.383 . S
C1874 C1873 1.379 . S
H1875 C1869 0.959 . S
H1876 C1869 0.961 . S
H1877 C1869 0.960 . S
H1878 C1870 0.930 . S
H1879 C1871 0.929 . S
H1880 C1888 0.929 . S
H1881 C1890 0.930 . S
H1882 C1892 0.930 . S
H1883 C1895 0.929 . S
H1884 C1898 0.930 . S
H1885 C1900 0.960 . S
H1886 C1900 0.960 . S
H1887 C1900 0.960 . S
C1888 H1880 0.929 . S
C1888 C1889 1.377 . S
C1888 C1890 1.384 . S
C1889 C1888 1.377 . S
C1889 C1895 1.390 . S
C1890 H1881 0.930 . S
C1890 C1888 1.384 . S
C1890 C1891 1.372 . S
C1891 C1890 1.372 . S
C1891 C1892 1.400 . S
C1891 C1896 1.490 . S
C1892 H1882 0.930 . S
C1892 C1891 1.400 . S
C1892 C1895 1.386 . S
H1893 C1909 0.930 . S
H1894 C1910 0.931 . S
C1895 H1883 0.929 . S
C1895 C1889 1.390 . S
C1895 C1892 1.386 . S
C1896 C1891 1.490 . S
C1896 C1898 1.395 . S
C1896 C1899 1.403 . S
H1897 C1903 0.930 . S
C1898 H1884 0.930 . S
C1898 C1896 1.395 . S
C1898 C1901 1.403 . S
C1899 C1896 1.403 . S
C1899 C1900 1.524 . S
C1899 C1903 1.400 . S
C1900 H1885 0.960 . S
C1900 H1886 0.960 . S
C1900 H1887 0.960 . S
C1900 C1899 1.524 . S
C1901 C1898 1.403 . S
C1901 C1902 1.392 . S
C1901 C1905 1.495 . S
C1902 C1901 1.392 . S
C1902 C1903 1.385 . S
C1902 C1904 1.478 . S
C1903 H1897 0.930 . S
C1903 C1899 1.400 . S
C1903 C1902 1.385 . S
C1904 C1902 1.478 . S
C1904 C1906 1.381 . S
C1904 C1910 1.383 . S
C1905 C1901 1.495 . S
C1905 H1911 0.959 . S
C1905 H1912 0.961 . S
C1905 H1913 0.960 . S
C1906 C1904 1.381 . S
C1906 C1907 1.394 . S
C1906 H1914 0.930 . S
C1907 C1906 1.394 . S
C1907 C1908 1.383 . S
C1907 H1915 0.929 . S
C1908 C1907 1.383 . S
C1908 C1909 1.377 . S
C1909 H1893 0.930 . S
C1909 C1908 1.377 . S
C1909 C1910 1.379 . S
C1910 H1894 0.931 . S
C1910 C1904 1.383 . S
C1910 C1909 1.379 . S
H1911 C1905 0.959 . S
H1912 C1905 0.961 . S
H1913 C1905 0.960 . S
H1914 C1906 0.930 . S
H1915 C1907 0.929 . S
H1916 C1924 0.929 . S
H1917 C1926 0.930 . S
H1918 C1928 0.930 . S
H1919 C1931 0.929 . S
H1920 C1934 0.930 . S
H1921 C1936 0.960 . S
H1922 C1936 0.960 1_565 S
H1923 C1936 0.960 . S
C1924 H1916 0.929 . S
C1924 C1925 1.377 . S
C1924 C1926 1.384 . S
C1925 C1924 1.377 . S
C1925 C1931 1.390 1_565 S
C1926 H1917 0.930 . S
C1926 C1924 1.384 . S
C1926 C1927 1.372 . S
C1927 C1926 1.372 . S
C1927 C1928 1.400 1_565 S
C1927 C1932 1.490 . S
C1928 H1918 0.930 . S
C1928 C1927 1.400 1_545 S
C1928 C1931 1.386 . S
H1929 C1945 0.930 . S
H1930 C1946 0.931 . S
C1931 H1919 0.929 . S
C1931 C1925 1.390 1_545 S
C1931 C1928 1.386 . S
C1932 C1927 1.490 . S
C1932 C1934 1.395 . S
C1932 C1935 1.403 . S
H1933 C1939 0.930 . S
C1934 H1920 0.930 . S
C1934 C1932 1.395 . S
C1934 C1937 1.403 . S
C1935 C1932 1.403 . S
C1935 C1936 1.524 1_565 S
C1935 C1939 1.400 . S
C1936 H1921 0.960 . S
C1936 H1922 0.960 1_545 S
C1936 H1923 0.960 . S
C1936 C1935 1.524 1_545 S
C1937 C1934 1.403 . S
C1937 C1938 1.392 . S
C1937 C1941 1.495 . S
C1938 C1937 1.392 . S
C1938 C1939 1.385 . S
C1938 C1940 1.478 . S
C1939 H1933 0.930 . S
C1939 C1935 1.400 . S
C1939 C1938 1.385 . S
C1940 C1938 1.478 . S
C1940 C1942 1.381 . S
C1940 C1946 1.383 1_565 S
C1941 C1937 1.495 . S
C1941 H1947 0.959 . S
C1941 H1948 0.961 . S
C1941 H1949 0.960 . S
C1942 C1940 1.381 . S
C1942 C1943 1.394 . S
C1942 H1950 0.930 . S
C1943 C1942 1.394 . S
C1943 C1944 1.383 . S
C1943 H1951 0.929 . S
C1944 C1943 1.383 . S
C1944 C1945 1.377 1_565 S
C1945 H1929 0.930 . S
C1945 C1944 1.377 1_545 S
C1945 C1946 1.379 . S
C1946 H1930 0.931 . S
C1946 C1940 1.383 1_545 S
C1946 C1945 1.379 . S
H1947 C1941 0.959 . S
H1948 C1941 0.961 . S
H1949 C1941 0.960 . S
H1950 C1942 0.930 . S
H1951 C1943 0.929 . S
H1952 C1960 0.929 . S
H1953 C1962 0.930 . S
H1954 C1964 0.930 . S
H1955 C1967 0.929 . S
H1956 C1970 0.930 . S
H1957 C1972 0.960 . S
H1958 C1972 0.960 . S
H1959 C1972 0.960 . S
C1960 H1952 0.929 . S
C1960 C1961 1.377 . S
C1960 C1962 1.384 . S
C1961 C1960 1.377 . S
C1961 C1967 1.390 . S
C1962 H1953 0.930 . S
C1962 C1960 1.384 . S
C1962 C1963 1.372 . S
C1963 C1962 1.372 . S
C1963 C1964 1.400 . S
C1963 C1968 1.490 . S
C1964 H1954 0.930 . S
C1964 C1963 1.400 . S
C1964 C1967 1.386 . S
H1965 C1981 0.930 . S
H1966 C1982 0.931 . S
C1967 H1955 0.929 . S
C1967 C1961 1.390 . S
C1967 C1964 1.386 . S
C1968 C1963 1.490 . S
C1968 C1970 1.395 . S
C1968 C1971 1.403 . S
H1969 C1975 0.930 . S
C1970 H1956 0.930 . S
C1970 C1968 1.395 . S
C1970 C1973 1.403 . S
C1971 C1968 1.403 . S
C1971 C1972 1.524 . S
C1971 C1975 1.400 . S
C1972 H1957 0.960 . S
C1972 H1958 0.960 . S
C1972 H1959 0.960 . S
C1972 C1971 1.524 . S
C1973 C1970 1.403 . S
C1973 C1974 1.392 . S
C1973 C1977 1.495 . S
C1974 C1973 1.392 . S
C1974 C1975 1.385 . S
C1974 C1976 1.478 . S
C1975 H1969 0.930 . S
C1975 C1971 1.400 . S
C1975 C1974 1.385 . S
C1976 C1974 1.478 . S
C1976 C1978 1.381 . S
C1976 C1982 1.383 . S
C1977 C1973 1.495 . S
C1977 H1983 0.959 . S
C1977 H1984 0.961 . S
C1977 H1985 0.960 . S
C1978 C1976 1.381 . S
C1978 C1979 1.394 . S
C1978 H1986 0.930 . S
C1979 C1978 1.394 . S
C1979 C1980 1.383 . S
C1979 H1987 0.929 . S
C1980 C1979 1.383 . S
C1980 C1981 1.377 . S
C1981 H1965 0.930 . S
C1981 C1980 1.377 . S
C1981 C1982 1.379 . S
C1982 H1966 0.931 . S
C1982 C1976 1.383 . S
C1982 C1981 1.379 . S
H1983 C1977 0.959 . S
H1984 C1977 0.961 . S
H1985 C1977 0.960 . S
H1986 C1978 0.930 . S
H1987 C1979 0.929 . S
H1988 C1996 0.929 . S
H1989 C1998 0.930 . S
H1990 C2000 0.930 . S
H1991 C2003 0.929 . S
H1992 C2006 0.930 . S
H1993 C2008 0.960 . S
H1994 C2008 0.960 . S
H1995 C2008 0.960 . S
C1996 H1988 0.929 . S
C1996 C1997 1.377 1_565 S
C1996 C1998 1.384 . S
C1997 C1996 1.377 1_545 S
C1997 C2003 1.390 . S
C1998 H1989 0.930 . S
C1998 C1996 1.384 . S
C1998 C1999 1.372 1_565 S
C1999 C1998 1.372 1_545 S
C1999 C2000 1.400 . S
C1999 C2004 1.490 . S
C2000 H1990 0.930 . S
C2000 C1999 1.400 . S
C2000 C2003 1.386 . S
H2001 C2017 0.930 . S
H2002 C2018 0.931 . S
C2003 H1991 0.929 . S
C2003 C1997 1.390 . S
C2003 C2000 1.386 . S
C2004 C1999 1.490 . S
C2004 C2006 1.395 . S
C2004 C2007 1.403 . S
H2005 C2011 0.930 . S
C2006 H1992 0.930 . S
C2006 C2004 1.395 . S
C2006 C2009 1.403 . S
C2007 C2004 1.403 . S
C2007 C2008 1.524 . S
C2007 C2011 1.400 . S
C2008 H1993 0.960 . S
C2008 H1994 0.960 . S
C2008 H1995 0.960 . S
C2008 C2007 1.524 . S
C2009 C2006 1.403 . S
C2009 C2010 1.392 . S
C2009 C2013 1.504 . S
C2010 C2009 1.392 . S
C2010 C2011 1.385 . S
C2010 C2012 1.478 . S
C2011 H2005 0.930 . S
C2011 C2007 1.400 . S
C2011 C2010 1.385 . S
C2012 C2010 1.478 . S
C2012 C2014 1.381 1_545 S
C2012 C2018 1.383 . S
C2013 C2009 1.504 . S
C2013 H2019 0.950 1_545 S
C2013 H2020 1.003 . S
C2013 H2021 0.921 1_545 S
C2014 C2012 1.381 1_565 S
C2014 C2015 1.394 . S
C2014 H2022 0.930 . S
C2015 C2014 1.394 . S
C2015 C2016 1.383 1_565 S
C2015 H2023 0.929 . S
C2016 C2015 1.383 1_545 S
C2016 C2017 1.377 . S
C2017 H2001 0.930 . S
C2017 C2016 1.377 . S
C2017 C2018 1.379 . S
C2018 H2002 0.931 . S
C2018 C2012 1.383 . S
C2018 C2017 1.379 . S
H2019 C2013 0.950 1_565 S
H2020 C2013 1.003 . S
H2021 C2013 0.921 1_565 S
H2022 C2014 0.930 . S
H2023 C2015 0.929 . S
H2024 C2032 0.929 . S
H2025 C2034 0.930 . S
H2026 C2036 0.930 . S
H2027 C2039 0.929 . S
H2028 C2042 0.930 . S
H2029 C2044 0.960 . S
H2030 C2044 0.960 . S
H2031 C2044 0.960 . S
C2032 H2024 0.929 . S
C2032 C2033 1.377 . S
C2032 C2034 1.384 . S
C2033 C2032 1.377 . S
C2033 C2039 1.390 . S
C2034 H2025 0.930 . S
C2034 C2032 1.384 . S
C2034 C2035 1.372 . S
C2035 C2034 1.372 . S
C2035 C2036 1.400 . S
C2035 C2040 1.490 . S
C2036 H2026 0.930 . S
C2036 C2035 1.400 . S
C2036 C2039 1.386 . S
H2037 C2053 0.930 . S
H2038 C2054 0.931 . S
C2039 H2027 0.929 . S
C2039 C2033 1.390 . S
C2039 C2036 1.386 . S
C2040 C2035 1.490 . S
C2040 C2042 1.395 . S
C2040 C2043 1.403 . S
H2041 C2047 0.930 . S
C2042 H2028 0.930 . S
C2042 C2040 1.395 . S
C2042 C2045 1.403 . S
C2043 C2040 1.403 . S
C2043 C2044 1.524 . S
C2043 C2047 1.400 . S
C2044 H2029 0.960 . S
C2044 H2030 0.960 . S
C2044 H2031 0.960 . S
C2044 C2043 1.524 . S
C2045 C2042 1.403 . S
C2045 C2046 1.392 . S
C2045 C2049 1.495 . S
C2046 C2045 1.392 . S
C2046 C2047 1.385 . S
C2046 C2048 1.478 . S
C2047 H2041 0.930 . S
C2047 C2043 1.400 . S
C2047 C2046 1.385 . S
C2048 C2046 1.478 . S
C2048 C2050 1.381 . S
C2048 C2054 1.383 . S
C2049 C2045 1.495 . S
C2049 H2055 0.959 . S
C2049 H2056 0.961 . S
C2049 H2057 0.960 . S
C2050 C2048 1.381 . S
C2050 C2051 1.394 . S
C2050 H2058 0.930 . S
C2051 C2050 1.394 . S
C2051 C2052 1.383 . S
C2051 H2059 0.929 . S
C2052 C2051 1.383 . S
C2052 C2053 1.377 . S
C2053 H2037 0.930 . S
C2053 C2052 1.377 . S
C2053 C2054 1.379 . S
C2054 H2038 0.931 . S
C2054 C2048 1.383 . S
C2054 C2053 1.379 . S
H2055 C2049 0.959 . S
H2056 C2049 0.961 . S
H2057 C2049 0.960 . S
H2058 C2050 0.930 . S
H2059 C2051 0.929 . S
H2060 C2068 0.929 . S
H2061 C2070 0.930 1_554 S
H2062 C2072 0.930 . S
H2063 C2075 0.929 . S
H2064 C2078 0.930 . S
H2065 C2080 0.960 . S
H2066 C2080 0.960 . S
H2067 C2080 0.960 1_556 S
C2068 H2060 0.929 . S
C2068 C2069 1.377 1_554 S
C2068 C2070 1.384 1_554 S
C2069 C2068 1.377 1_556 S
C2069 C2075 1.390 . S
C2070 H2061 0.930 1_556 S
C2070 C2068 1.384 1_556 S
C2070 C2071 1.372 . S
C2071 C2070 1.372 . S
C2071 C2072 1.400 . S
C2071 C2076 1.490 . S
C2072 H2062 0.930 . S
C2072 C2071 1.400 . S
C2072 C2075 1.386 . S
H2073 C2089 0.930 . S
H2074 C2090 0.931 . S
C2075 H2063 0.929 . S
C2075 C2069 1.390 . S
C2075 C2072 1.386 . S
C2076 C2071 1.490 . S
C2076 C2078 1.395 . S
C2076 C2079 1.403 . S
H2077 C2083 0.930 . S
C2078 H2064 0.930 . S
C2078 C2076 1.395 . S
C2078 C2081 1.403 . S
C2079 C2076 1.403 . S
C2079 C2080 1.524 1_556 S
C2079 C2083 1.400 . S
C2080 H2065 0.960 . S
C2080 H2066 0.960 . S
C2080 H2067 0.960 1_554 S
C2080 C2079 1.524 1_554 S
C2081 C2078 1.403 . S
C2081 C2082 1.392 . S
C2081 C2085 1.495 . S
C2082 C2081 1.392 . S
C2082 C2083 1.385 . S
C2082 C2084 1.478 . S
C2083 H2077 0.930 . S
C2083 C2079 1.400 . S
C2083 C2082 1.385 . S
C2084 C2082 1.478 . S
C2084 C2086 1.381 . S
C2084 C2090 1.383 . S
C2085 C2081 1.495 . S
C2085 H2091 0.959 . S
C2085 H2092 0.961 . S
C2085 H2093 0.960 . S
C2086 C2084 1.381 . S
C2086 C2087 1.394 . S
C2086 H2094 0.930 . S
C2087 C2086 1.394 . S
C2087 C2088 1.383 . S
C2087 H2095 0.929 . S
C2088 C2087 1.383 . S
C2088 C2089 1.377 . S
C2089 H2073 0.930 . S
C2089 C2088 1.377 . S
C2089 C2090 1.379 . S
C2090 H2074 0.931 . S
C2090 C2084 1.383 . S
C2090 C2089 1.379 . S
H2091 C2085 0.959 . S
H2092 C2085 0.961 . S
H2093 C2085 0.960 . S
H2094 C2086 0.930 . S
H2095 C2087 0.929 . S
H2096 C2104 0.929 . S
H2097 C2106 0.930 . S
H2098 C2108 0.930 1_554 S
H2099 C2111 0.927 . S
H2100 C2114 0.930 . S
H2101 C2116 0.960 . S
H2102 C2116 0.960 . S
H2103 C2116 0.960 . S
C2104 H2096 0.929 . S
C2104 C2105 1.377 . S
C2104 C2106 1.384 . S
C2105 C2104 1.377 . S
C2105 C2111 1.391 1_556 S
C2106 H2097 0.930 . S
C2106 C2104 1.384 . S
C2106 C2107 1.372 . S
C2107 C2106 1.372 . S
C2107 C2108 1.400 . S
C2107 C2112 1.490 . S
C2108 H2098 0.930 1_556 S
C2108 C2107 1.400 . S
C2108 C2111 1.386 1_556 S
H2109 C2125 0.930 . S
H2110 C2126 0.931 . S
C2111 H2099 0.927 . S
C2111 C2105 1.391 1_554 S
C2111 C2108 1.386 1_554 S
C2112 C2107 1.490 . S
C2112 C2114 1.395 . S
C2112 C2115 1.403 . S
H2113 C2119 0.930 . S
C2114 H2100 0.930 . S
C2114 C2112 1.395 . S
C2114 C2117 1.403 . S
C2115 C2112 1.403 . S
C2115 C2116 1.524 . S
C2115 C2119 1.400 . S
C2116 H2101 0.960 . S
C2116 H2102 0.960 . S
C2116 H2103 0.960 . S
C2116 C2115 1.524 . S
C2117 C2114 1.403 . S
C2117 C2118 1.392 . S
C2117 C2121 1.495 . S
C2118 C2117 1.392 . S
C2118 C2119 1.385 . S
C2118 C2120 1.478 . S
C2119 H2113 0.930 . S
C2119 C2115 1.400 . S
C2119 C2118 1.385 . S
C2120 C2118 1.478 . S
C2120 C2122 1.381 . S
C2120 C2126 1.383 . S
C2121 C2117 1.495 . S
C2121 H2127 0.959 . S
C2121 H2128 0.961 . S
C2121 H2129 0.960 . S
C2122 C2120 1.381 . S
C2122 C2123 1.394 . S
C2122 H2130 0.930 . S
C2123 C2122 1.394 . S
C2123 C2124 1.383 . S
C2123 H2131 0.929 . S
C2124 C2123 1.383 . S
C2124 C2125 1.377 . S
C2125 H2109 0.930 . S
C2125 C2124 1.377 . S
C2125 C2126 1.379 . S
C2126 H2110 0.931 . S
C2126 C2120 1.383 . S
C2126 C2125 1.379 . S
H2127 C2121 0.959 . S
H2128 C2121 0.961 . S
H2129 C2121 0.960 . S
H2130 C2122 0.930 . S
H2131 C2123 0.929 . S
H2132 C2140 0.929 . S
H2133 C2142 0.930 . S
H2134 C2144 0.930 1_556 S
H2135 C2147 0.929 1_556 S
H2136 C2150 0.930 . S
H2137 C2152 0.960 . S
H2138 C2152 0.960 . S
H2139 C2152 0.960 . S
C2140 H2132 0.929 . S
C2140 C2141 1.377 . S
C2140 C2142 1.384 . S
C2141 C2140 1.377 . S
C2141 C2147 1.390 . S
C2142 H2133 0.930 . S
C2142 C2140 1.384 . S
C2142 C2143 1.372 . S
C2143 C2142 1.372 . S
C2143 C2144 1.400 . S
C2143 C2148 1.490 . S
C2144 H2134 0.930 1_554 S
C2144 C2143 1.400 . S
C2144 C2147 1.386 . S
H2145 C2161 0.930 1_556 S
H2146 C2162 0.931 1_556 S
C2147 H2135 0.929 1_554 S
C2147 C2141 1.390 . S
C2147 C2144 1.386 . S
C2148 C2143 1.490 . S
C2148 C2150 1.395 . S
C2148 C2151 1.403 . S
H2149 C2155 0.930 . S
C2150 H2136 0.930 . S
C2150 C2148 1.395 . S
C2150 C2153 1.403 . S
C2151 C2148 1.403 . S
C2151 C2152 1.524 . S
C2151 C2155 1.400 . S
C2152 H2137 0.960 . S
C2152 H2138 0.960 . S
C2152 H2139 0.960 . S
C2152 C2151 1.524 . S
C2153 C2150 1.403 . S
C2153 C2154 1.392 . S
C2153 C2157 1.495 . S
C2154 C2153 1.392 . S
C2154 C2155 1.385 . S
C2154 C2156 1.478 . S
C2155 H2149 0.930 . S
C2155 C2151 1.400 . S
C2155 C2154 1.385 . S
C2156 C2154 1.478 . S
C2156 C2158 1.381 . S
C2156 C2162 1.383 . S
C2157 C2153 1.495 . S
C2157 H2163 0.959 . S
C2157 H2164 0.961 . S
C2157 H2165 0.960 . S
C2158 C2156 1.381 . S
C2158 C2159 1.394 . S
C2158 H2166 0.930 . S
C2159 C2158 1.394 . S
C2159 C2160 1.383 . S
C2159 H2167 0.929 . S
C2160 C2159 1.383 . S
C2160 C2161 1.377 . S
C2161 H2145 0.930 1_554 S
C2161 C2160 1.377 . S
C2161 C2162 1.379 . S
C2162 H2146 0.931 1_554 S
C2162 C2156 1.383 . S
C2162 C2161 1.379 . S
H2163 C2157 0.959 . S
H2164 C2157 0.961 . S
H2165 C2157 0.960 . S
H2166 C2158 0.930 . S
H2167 C2159 0.929 . S
C449 C13 1.477 . S
C468 C236 1.468 1_545 S
C504 C299 1.692 . S
C485 C1 1.720 . S
C540 C176 1.738 1_565 S
C521 C27 1.736 . S
C557 C15 1.625 . S
C576 C210 1.609 . S
C593 C28 1.699 . S
C612 C414 1.737 . S
C629 C55 1.039 . S
C648 C385 1.047 . S
C684 C308 1.858 . S
C665 C40 1.916 . S
C701 C43 1.290 . S
C720 C342 1.259 . S
C756 C231 1.838 . S
C737 C56 1.871 . S
C792 C274 1.281 . S
C773 C83 1.309 . S
C809 C96 1.837 . S
C828 C253 1.814 1_655 S
C845 C71 1.497 . S
C864 C367 1.472 . S
C900 C372 1.483 . S
C881 C99 1.480 . S
C936 C435 1.702 1_565 S
C917 C111 1.722 . S
C953 C113 1.738 . S
C972 C346 1.749 . S
C1008 C312 1.633 1_545 S
C989 C125 1.628 . S
C1025 C139 1.699 . S
C1044 C278 1.690 . S
C1061 C153 1.034 . S
C1080 C249 1.017 . S
C1116 C206 1.861 . S
C1097 C127 1.919 . S
C1133 C141 1.297 . S
C1152 C172 1.302 . S
C1188 C333 1.856 . S
C1169 C84 1.874 . S
C1224 C410 1.311 . S
C1205 C154 1.312 1_556 S
C1241 C68 1.835 . S
C1260 C389 1.797 . S
C1277 C166 1.498 . S
C1296 C197 1.491 1_655 S
C1332 C181 0.954 . S
C1313 C0 0.958 . S
C1349 C12 0.929 . S
C1368 C215 0.902 . S
C1404 C240 0.893 . S
C1385 C14 0.939 . S
C1440 C287 1.716 . S
C1421 C26 1.748 . S
C1457 C41 1.385 . S
C1476 C168 1.376 . S
C1493 C42 1.323 . S
C1512 C202 1.304 . S
C1548 C244 1.407 . S
C1529 C29 1.449 1_565 S
C1565 C54 0.770 . S
C1584 C283 0.798 . S
C1601 C69 1.522 . S
C1620 C185 1.466 . S
C1656 C265 1.553 . S
C1637 C70 1.593 . S
C1673 C85 1.487 . S
C1692 C270 1.491 . S
C1709 C82 1.381 . S
C1728 C321 1.377 . S
C1764 C351 0.915 . S
C1745 C110 0.952 . S
C1781 C98 0.941 . S
C1800 C317 0.961 . S
C1817 C124 0.938 . S
C1836 C376 0.924 . S
C1853 C112 1.747 . S
C1872 C423 1.740 . S
C1889 C126 1.387 . S
C1908 C338 1.383 . S
C1944 C304 1.321 . S
C1925 C140 1.324 . S
C1961 C138 1.449 . S
C1980 C380 1.440 . S
C2016 C419 0.741 . S
C1997 C152 0.767 . S
C2052 C355 1.475 . S
C2033 C97 1.519 . S
C2088 C401 1.548 . S
C2069 C167 1.591 1_556 S
C2124 C406 1.498 . S
C2105 C57 1.490 . S
C2141 C155 1.380 . S
C2160 C219 1.376 . S
