# Generated by pormake.
# Topology soc, (4,6)-cn, num edge types: 1
# Building blocks:
#     Node 0, Type 0, BuildingBlock: ESEHIV_clean_sbu_0, # of connection points: 4
#     Node 1, Type 0, BuildingBlock: ESEHIV_clean_sbu_0, # of connection points: 4
#     Node 2, Type 0, BuildingBlock: ESEHIV_clean_sbu_0, # of connection points: 4
#     Node 3, Type 0, BuildingBlock: ESEHIV_clean_sbu_0, # of connection points: 4
#     Node 4, Type 0, BuildingBlock: ESEHIV_clean_sbu_0, # of connection points: 4
#     Node 5, Type 0, BuildingBlock: ESEHIV_clean_sbu_0, # of connection points: 4
#     Node 6, Type 0, BuildingBlock: ESEHIV_clean_sbu_0, # of connection points: 4
#     Node 7, Type 0, BuildingBlock: ESEHIV_clean_sbu_0, # of connection points: 4
#     Node 8, Type 0, BuildingBlock: ESEHIV_clean_sbu_0, # of connection points: 4
#     Node 9, Type 0, BuildingBlock: ESEHIV_clean_sbu_0, # of connection points: 4
#     Node 10, Type 0, BuildingBlock: ESEHIV_clean_sbu_0, # of connection points: 4
#     Node 11, Type 0, BuildingBlock: ESEHIV_clean_sbu_0, # of connection points: 4
#     Node 12, Type 1, BuildingBlock: BETDEL_clean_sbu_0, # of connection points: 6
#     Node 13, Type 1, BuildingBlock: BETDEL_clean_sbu_0, # of connection points: 6
#     Node 14, Type 1, BuildingBlock: BETDEL_clean_sbu_0, # of connection points: 6
#     Node 15, Type 1, BuildingBlock: BETDEL_clean_sbu_0, # of connection points: 6
#     Node 16, Type 1, BuildingBlock: BETDEL_clean_sbu_0, # of connection points: 6
#     Node 17, Type 1, BuildingBlock: BETDEL_clean_sbu_0, # of connection points: 6
#     Node 18, Type 1, BuildingBlock: BETDEL_clean_sbu_0, # of connection points: 6
#     Node 19, Type 1, BuildingBlock: BETDEL_clean_sbu_0, # of connection points: 6
#     Edge 20, Type (0, 1), BuildingBlock: KIFKEQ_clean_linker_1, # of connection points: 2
#     Edge 21, Type (0, 1), BuildingBlock: KIFKEQ_clean_linker_1, # of connection points: 2
#     Edge 22, Type (0, 1), BuildingBlock: KIFKEQ_clean_linker_1, # of connection points: 2
#     Edge 23, Type (0, 1), BuildingBlock: KIFKEQ_clean_linker_1, # of connection points: 2
#     Edge 24, Type (0, 1), BuildingBlock: KIFKEQ_clean_linker_1, # of connection points: 2
#     Edge 25, Type (0, 1), BuildingBlock: KIFKEQ_clean_linker_1, # of connection points: 2
#     Edge 26, Type (0, 1), BuildingBlock: KIFKEQ_clean_linker_1, # of connection points: 2
#     Edge 27, Type (0, 1), BuildingBlock: KIFKEQ_clean_linker_1, # of connection points: 2
#     Edge 28, Type (0, 1), BuildingBlock: KIFKEQ_clean_linker_1, # of connection points: 2
#     Edge 29, Type (0, 1), BuildingBlock: KIFKEQ_clean_linker_1, # of connection points: 2
#     Edge 30, Type (0, 1), BuildingBlock: KIFKEQ_clean_linker_1, # of connection points: 2
#     Edge 31, Type (0, 1), BuildingBlock: KIFKEQ_clean_linker_1, # of connection points: 2
#     Edge 32, Type (0, 1), BuildingBlock: KIFKEQ_clean_linker_1, # of connection points: 2
#     Edge 33, Type (0, 1), BuildingBlock: KIFKEQ_clean_linker_1, # of connection points: 2
#     Edge 34, Type (0, 1), BuildingBlock: KIFKEQ_clean_linker_1, # of connection points: 2
#     Edge 35, Type (0, 1), BuildingBlock: KIFKEQ_clean_linker_1, # of connection points: 2
#     Edge 36, Type (0, 1), BuildingBlock: KIFKEQ_clean_linker_1, # of connection points: 2
#     Edge 37, Type (0, 1), BuildingBlock: KIFKEQ_clean_linker_1, # of connection points: 2
#     Edge 38, Type (0, 1), BuildingBlock: KIFKEQ_clean_linker_1, # of connection points: 2
#     Edge 39, Type (0, 1), BuildingBlock: KIFKEQ_clean_linker_1, # of connection points: 2
#     Edge 40, Type (0, 1), BuildingBlock: KIFKEQ_clean_linker_1, # of connection points: 2
#     Edge 41, Type (0, 1), BuildingBlock: KIFKEQ_clean_linker_1, # of connection points: 2
#     Edge 42, Type (0, 1), BuildingBlock: KIFKEQ_clean_linker_1, # of connection points: 2
#     Edge 43, Type (0, 1), BuildingBlock: KIFKEQ_clean_linker_1, # of connection points: 2
#     Edge 44, Type (0, 1), BuildingBlock: KIFKEQ_clean_linker_1, # of connection points: 2
#     Edge 45, Type (0, 1), BuildingBlock: KIFKEQ_clean_linker_1, # of connection points: 2
#     Edge 46, Type (0, 1), BuildingBlock: KIFKEQ_clean_linker_1, # of connection points: 2
#     Edge 47, Type (0, 1), BuildingBlock: KIFKEQ_clean_linker_1, # of connection points: 2
#     Edge 48, Type (0, 1), BuildingBlock: KIFKEQ_clean_linker_1, # of connection points: 2
#     Edge 49, Type (0, 1), BuildingBlock: KIFKEQ_clean_linker_1, # of connection points: 2
#     Edge 50, Type (0, 1), BuildingBlock: KIFKEQ_clean_linker_1, # of connection points: 2
#     Edge 51, Type (0, 1), BuildingBlock: KIFKEQ_clean_linker_1, # of connection points: 2
#     Edge 52, Type (0, 1), BuildingBlock: KIFKEQ_clean_linker_1, # of connection points: 2
#     Edge 53, Type (0, 1), BuildingBlock: KIFKEQ_clean_linker_1, # of connection points: 2
#     Edge 54, Type (0, 1), BuildingBlock: KIFKEQ_clean_linker_1, # of connection points: 2
#     Edge 55, Type (0, 1), BuildingBlock: KIFKEQ_clean_linker_1, # of connection points: 2
#     Edge 56, Type (0, 1), BuildingBlock: KIFKEQ_clean_linker_1, # of connection points: 2
#     Edge 57, Type (0, 1), BuildingBlock: KIFKEQ_clean_linker_1, # of connection points: 2
#     Edge 58, Type (0, 1), BuildingBlock: KIFKEQ_clean_linker_1, # of connection points: 2
#     Edge 59, Type (0, 1), BuildingBlock: KIFKEQ_clean_linker_1, # of connection points: 2
#     Edge 60, Type (0, 1), BuildingBlock: KIFKEQ_clean_linker_1, # of connection points: 2
#     Edge 61, Type (0, 1), BuildingBlock: KIFKEQ_clean_linker_1, # of connection points: 2
#     Edge 62, Type (0, 1), BuildingBlock: KIFKEQ_clean_linker_1, # of connection points: 2
#     Edge 63, Type (0, 1), BuildingBlock: KIFKEQ_clean_linker_1, # of connection points: 2
#     Edge 64, Type (0, 1), BuildingBlock: KIFKEQ_clean_linker_1, # of connection points: 2
#     Edge 65, Type (0, 1), BuildingBlock: KIFKEQ_clean_linker_1, # of connection points: 2
#     Edge 66, Type (0, 1), BuildingBlock: KIFKEQ_clean_linker_1, # of connection points: 2
#     Edge 67, Type (0, 1), BuildingBlock: KIFKEQ_clean_linker_1, # of connection points: 2
# Relax obj value: 0.113
# Max RMSD: 0.169
# Mean RMSD: 0.147
data_MOF--net-soc--node1-ESEHIV_clean_sbu_0--node2-BETDEL_clean_sbu_0--edge1-KIFKEQ_clean_linker_1
_symmetry_space_group_name_H-M    P1
_symmetry_Int_Tables_number       1
_symmetry_cell_setting            triclinic
loop_
_symmetry_equiv_pos_as_xyz
'x, y, z'
_cell_length_a     46.829651
_cell_length_b     45.580937
_cell_length_c     43.193602
_cell_angle_alpha  88.970893
_cell_angle_beta   90.214019
_cell_angle_gamma 79.724381
loop_
_atom_site_label
_atom_site_type_symbol
_atom_site_fract_x
_atom_site_fract_y
_atom_site_fract_z
_atom_type_partial_charge
Cu0 Cu 0.04842 0.01566 0.3129 0.0
N1 N 0.07296 0.03653 0.33508 0.0
N2 N 0.10217 0.06957 0.34421 0.0
C3 C 0.08576 0.05843 0.32307 0.0
C4 C 0.09935 0.05406 0.37063 0.0
C5 C 0.08143 0.03381 0.36494 0.0
O6 O 0.07268 0.98264 0.2917 0.0
C7 C 1.0085 0.06623 0.30513 0.0
O8 O 1.01464 0.06573 0.33486 0.0
H9 H 0.08329 0.06569 0.29907 0.0
H10 H 0.07515 0.01838 0.38165 0.0
N11 N 1.02397 0.99707 0.3378 0.0
N12 N 0.98797 0.97169 0.34726 0.0
C13 C 0.9996 0.98895 0.32683 0.0
C14 C 0.028 0.98448 0.36626 0.0
C15 C 1.00576 0.96906 0.37224 0.0
C16 C 0.09722 0.98315 0.27924 0.0
O17 O 0.10575 1.00882 0.27484 0.0
H18 H 0.99185 0.99389 0.30335 0.0
H19 H 0.04662 0.98465 0.38095 0.0
O20 O 1.02173 0.04531 0.28841 0.0
H21 H 0.1092 0.05724 0.39272 0.0
H22 H 1.0037 0.95586 0.39291 0.0
Cu23 Cu 0.02873 0.02308 0.74003 0.0
N24 N 1.01068 0.99764 0.71623 0.0
N25 N 0.98253 0.96387 0.70675 0.0
C26 C 0.98862 0.98474 0.72633 0.0
C27 C 1.00159 0.96371 0.68332 0.0
C28 C 1.01897 0.98452 0.68927 0.0
O29 O 0.9981 0.05175 0.7596 0.0
C30 C 0.07965 0.98399 0.75325 0.0
O31 O 0.08391 0.99101 0.72425 0.0
H32 H 0.97834 0.98947 0.74853 0.0
H33 H 0.03716 0.9888 0.67563 0.0
N34 N 0.05049 0.04613 0.71688 0.0
N35 N 0.0843 0.07422 0.70803 0.0
C36 C 0.07117 0.05934 0.72939 0.0
C37 C 0.05014 0.05307 0.68646 0.0
C38 C 0.071 0.07048 0.68092 0.0
C39 C 0.9795 0.06546 0.74019 0.0
O40 O 0.9825 0.05858 0.71083 0.0
H41 H 0.07632 0.05805 0.75388 0.0
H42 H 0.0359 0.04589 0.66954 0.0
O43 O 0.05622 0.99605 0.76653 0.0
H44 H 1.0033 0.94918 0.66361 0.0
H45 H 0.07624 0.07927 0.65863 0.0
Cu46 Cu 0.28878 0.03195 0.03325 0.0
N47 N 0.25711 0.02151 0.01284 0.0
N48 N 0.23636 0.99594 0.97843 0.0
C49 C 0.25748 0.99493 0.99984 0.0
C50 C 0.2217 0.02422 0.97822 0.0
C51 C 0.23451 0.03996 0.9996 0.0
O52 O 0.30771 0.99861 0.05933 0.0
C53 C 0.30158 0.07358 0.99089 0.0
O54 O 0.27756 0.08817 1.00275 0.0
H55 H 0.27502 0.97623 1.00307 0.0
H56 H 0.22955 0.06378 1.00278 0.0
N57 N 0.27667 0.06244 0.06062 0.0
N58 N 0.28014 0.09933 0.09253 0.0
C59 C 0.29476 0.07683 0.07604 0.0
C60 C 0.24965 0.07596 0.06791 0.0
C61 C 0.25175 0.09901 0.08755 0.0
C62 C 0.3213 0.973 0.05194 0.0
O63 O 0.32674 0.96703 0.02269 0.0
H64 H 0.31817 0.07145 0.07443 0.0
H65 H 0.22989 0.06979 0.05933 0.0
O66 O 0.31204 0.04743 1.00125 0.0
H67 H 0.20471 0.03344 0.9619 0.0
H68 H 0.23389 0.11421 0.09752 0.0
Cu69 Cu 0.04404 0.32083 0.03509 0.0
N70 N 0.06128 0.3464 0.00994 0.0
N71 N 0.09264 0.35604 0.9738 0.0
C72 C 0.08844 0.3392 0.99885 0.0
C73 C 0.0672 0.37482 0.96918 0.0
C74 C 0.04786 0.36864 0.99127 0.0
O75 O 0.07458 0.30144 0.06457 0.0
C76 C 1.00575 0.2838 0.00869 0.0
O77 O 0.9973 0.27949 0.03707 0.0
H78 H 0.1036 0.31966 0.00666 0.0
H79 H 1.02488 0.3774 0.99124 0.0
N80 N 1.01257 0.34119 0.05758 0.0
N81 N 0.97398 0.34665 0.08884 0.0
C82 C 0.9983 0.32842 0.07958 0.0
C83 C 0.9973 0.36894 0.05349 0.0
C84 C 0.9735 0.37236 0.07266 0.0
C85 C 0.0785 0.31565 0.08913 0.0
O86 O 0.06131 0.34118 0.09407 0.0
H87 H 1.00539 0.3058 0.08802 0.0
H88 H 1.00239 0.38536 0.03712 0.0
O89 O 0.0275 0.29674 0.00443 0.0
H90 H 0.06216 0.39017 0.9497 0.0
H91 H 0.95649 0.39181 0.07342 0.0
Cu92 Cu 0.74423 1.00329 0.02774 0.0
N93 N 0.73792 0.02915 0.99373 0.0
N94 N 0.73912 0.06356 0.95685 0.0
C95 C 0.75166 0.05086 0.98322 0.0
C96 C 0.71679 0.0495 0.95083 0.0
C97 C 0.71606 0.02844 0.97362 0.0
O98 O 0.72807 0.0236 0.06497 0.0
C99 C 0.74436 0.957 0.98954 0.0
O100 O 0.76631 0.96907 0.98004 0.0
H101 H 0.77032 0.0571 0.99449 0.0
H102 H 0.7005 0.0136 0.9756 0.0
N103 N 0.78312 0.9913 0.03828 0.0
N104 N 0.81511 0.96131 0.06841 0.0
C105 C 0.79269 0.96326 0.04839 0.0
C106 C 0.80052 1.00789 0.05188 0.0
C107 C 0.82034 0.98938 0.07055 0.0
C108 C 0.71577 0.05093 0.0647 0.0
O109 O 0.70547 0.06359 0.03845 0.0
H110 H 0.78027 0.94561 0.04535 0.0
H111 H 0.79647 0.03201 0.05185 0.0
O112 O 0.73015 0.96781 0.0132 0.0
H113 H 0.7016 0.05462 0.93171 0.0
H114 H 0.83517 0.99652 0.0869 0.0
Cu115 Cu 0.03866 0.71472 1.00184 0.0
N116 N 1.01965 0.69276 0.97529 0.0
N117 N 0.98533 0.68713 0.94098 0.0
C118 C 0.9933 0.70401 0.96361 0.0
C119 C 1.00777 0.6642 0.93817 0.0
C120 C 0.02905 0.66782 0.95936 0.0
O121 O 1.00887 0.73593 0.02936 0.0
C122 C 0.08223 0.74819 0.97982 0.0
O123 O 0.08982 0.75088 0.00877 0.0
H124 H 0.98109 0.72535 0.97036 0.0
H125 H 0.05033 0.65416 0.9617 0.0
N126 N 0.06576 0.69172 0.02792 0.0
N127 N 0.09843 0.68505 0.06623 0.0
C128 C 0.07579 0.70344 0.05312 0.0
C129 C 0.0822 0.66448 0.02517 0.0
C130 C 0.10243 0.66024 0.04903 0.0
C131 C 0.99364 0.71867 0.04249 0.0
O132 O 0.99919 0.69012 0.03624 0.0
H133 H 0.06758 0.72587 0.06066 0.0
H134 H 0.08078 0.64952 0.00635 0.0
O135 O 0.05969 0.73723 0.9737 0.0
H136 H 1.00911 0.6466 0.92148 0.0
H137 H 0.11992 0.64138 0.05217 0.0
Cu138 Cu 0.52938 0.52247 0.80958 0.0
N139 N 0.54527 0.54894 0.83373 0.0
N140 N 0.57226 0.58363 0.84308 0.0
C141 C 0.56771 0.56152 0.82438 0.0
C142 C 0.55179 0.58498 0.86523 0.0
C143 C 0.5351 0.5635 0.85935 0.0
O144 O 0.56275 0.49853 0.78915 0.0
C145 C 0.47528 0.55713 0.79691 0.0
O146 O 0.47102 0.54825 0.82531 0.0
H147 H 0.57924 0.55578 0.80304 0.0
H148 H 0.51611 0.55975 0.87194 0.0
N149 N 0.51144 0.49653 0.83341 0.0
N150 N 0.48166 0.46463 0.84452 0.0
C151 C 0.4908 0.48224 0.82266 0.0
C152 C 0.51575 0.48768 0.86319 0.0
C153 C 0.49739 0.4679 0.87013 0.0
C154 C 0.56434 0.47152 0.78101 0.0
O155 O 0.54062 0.45994 0.78014 0.0
H156 H 0.48307 0.48447 0.79894 0.0
H157 H 0.53115 0.49502 0.87867 0.0
O158 O 0.49969 0.54788 0.784 0.0
H159 H 0.5486 0.60081 0.88382 0.0
H160 H 0.49564 0.457 0.89233 0.0
Cu161 Cu 0.55097 0.52337 0.23333 0.0
N162 N 0.52557 0.50243 0.21257 0.0
N163 N 0.49227 0.47299 0.20707 0.0
C164 C 0.50464 0.49013 0.2265 0.0
C165 C 0.50589 0.47477 0.17979 0.0
C166 C 0.52638 0.49276 0.18326 0.0
O167 O 0.52663 0.55699 0.25391 0.0
C168 C 0.59002 0.47244 0.24262 0.0
O169 O 0.5859 0.47366 0.2125 0.0
H170 H 0.4997 0.49247 0.25089 0.0
H171 H 0.54178 0.49696 0.16597 0.0
N172 N 0.57621 0.54024 0.20739 0.0
N173 N 0.61132 0.56599 0.19505 0.0
C174 C 0.59807 0.55306 0.218 0.0
C175 C 0.5756 0.54518 0.17655 0.0
C176 C 0.59721 0.56092 0.16889 0.0
C177 C 0.51431 0.57699 0.23472 0.0
O178 O 0.51841 0.57246 0.205 0.0
H179 H 0.60317 0.55407 0.24238 0.0
H180 H 0.55976 0.53919 0.16078 0.0
O181 O 0.57638 0.49349 0.25891 0.0
H182 H 0.50186 0.46333 0.15892 0.0
H183 H 0.60168 0.56859 0.14586 0.0
Cu184 Cu 0.80081 0.54128 0.52489 0.0
N185 N 0.77748 0.56272 0.49457 0.0
N186 N 0.76779 0.59388 0.45405 0.0
C187 C 0.78624 0.58426 0.47759 0.0
C188 C 0.74647 0.57756 0.45623 0.0
C189 C 0.75257 0.55821 0.4814 0.0
O190 O 0.82207 0.56949 0.54438 0.0
C191 C 0.80762 0.48619 0.49812 0.0
O192 O 0.78076 0.4894 0.50789 0.0
H193 H 0.8067 0.59153 0.48153 0.0
H194 H 0.74034 0.54135 0.4888 0.0
N195 N 0.77873 0.52791 0.55592 0.0
N196 N 0.76839 0.49991 0.59553 0.0
C197 C 0.78891 0.50547 0.57576 0.0
C198 C 0.75066 0.53691 0.56326 0.0
C199 C 0.74412 0.51939 0.58774 0.0
C200 C 0.83401 0.56472 0.57099 0.0
O201 O 0.83864 0.53747 0.58262 0.0
H202 H 0.81076 0.49278 0.57502 0.0
H203 H 0.73601 0.55467 0.55147 0.0
O204 O 0.82236 0.50657 0.50374 0.0
H205 H 0.72814 0.57915 0.44058 0.0
H206 H 0.72328 0.52082 0.59892 0.0
Cu207 Cu 0.54887 0.79878 0.53339 0.0
N208 N 0.58082 0.7771 0.51234 0.0
N209 N 0.61675 0.76844 0.47769 0.0
C210 C 0.59795 0.78933 0.49261 0.0
C211 C 0.6115 0.74203 0.48877 0.0
C212 C 0.58951 0.74743 0.51029 0.0
O213 O 0.56561 0.81676 0.5679 0.0
C214 C 0.52363 0.81374 0.47731 0.0
O215 O 0.53469 0.78543 0.47404 0.0
H216 H 0.59546 0.81307 0.48791 0.0
H217 H 0.57987 0.73087 0.52268 0.0
N218 N 0.52197 0.77601 0.54884 0.0
N219 N 0.48305 0.76576 0.57431 0.0
C220 C 0.50196 0.78482 0.57084 0.0
C221 C 0.51545 0.75052 0.53794 0.0
C222 C 0.4916 0.7441 0.55363 0.0
C223 C 0.57399 0.79911 0.59067 0.0
O224 O 0.56863 0.7718 0.59003 0.0
H225 H 0.50054 0.80556 0.58304 0.0
H226 H 0.52651 0.73807 0.51909 0.0
O227 O 0.52709 0.82609 0.50298 0.0
H228 H 0.62237 0.72035 0.48132 0.0
H229 H 0.48113 0.72515 0.54973 0.0
Cu230 Cu 0.27722 0.49985 0.51264 0.0
N231 N 0.29827 0.51918 0.48423 0.0
N232 N 0.30812 0.55474 0.45148 0.0
C233 C 0.2909 0.54789 0.47459 0.0
C234 C 0.32692 0.52925 0.44627 0.0
C235 C 0.32059 0.50733 0.4662 0.0
O236 O 0.25932 0.52918 0.54141 0.0
C237 C 0.23818 0.46132 0.49325 0.0
O238 O 0.24369 0.44696 0.51981 0.0
H239 H 0.27284 0.56327 0.48395 0.0
H240 H 0.33063 0.48408 0.46631 0.0
N241 N 0.30043 0.46945 0.53623 0.0
N242 N 0.31337 0.43516 0.57407 0.0
C243 C 0.29195 0.45613 0.56194 0.0
C244 C 0.32844 0.45696 0.53239 0.0
C245 C 0.3364 0.43577 0.55549 0.0
C246 C 0.27688 0.54365 0.55405 0.0
O247 O 0.30453 0.53747 0.54691 0.0
H248 H 0.27022 0.46139 0.57116 0.0
H249 H 0.34231 0.46287 0.5143 0.0
O250 O 0.24905 0.48447 0.48765 0.0
H251 H 0.34318 0.52624 0.4283 0.0
H252 H 0.35764 0.42204 0.5584 0.0
Cu253 Cu 0.52767 0.22599 0.51108 0.0
N254 N 0.55695 0.20514 0.48632 0.0
N255 N 0.59718 0.19696 0.45763 0.0
C256 C 0.58009 0.21618 0.47612 0.0
C257 C 0.58426 0.1728 0.45627 0.0
C258 C 0.55945 0.17793 0.4739 0.0
O259 O 0.54764 0.24786 0.54101 0.0
C260 C 0.48743 0.23508 0.46271 0.0
O261 O 0.49778 0.20648 0.46053 0.0
H262 H 0.58412 0.23803 0.48211 0.0
H263 H 0.54391 0.16318 0.47652 0.0
N264 N 0.50869 0.20048 0.5345 0.0
N265 N 0.47965 0.18792 0.57158 0.0
C266 C 0.48737 0.21033 0.55451 0.0
C267 C 0.51465 0.17067 0.53881 0.0
C268 C 0.49665 0.16285 0.56158 0.0
C269 C 0.56266 0.2315 0.56178 0.0
O270 O 0.56335 0.20258 0.56144 0.0
H271 H 0.47843 0.23373 0.55707 0.0
H272 H 0.53195 0.15579 0.52769 0.0
O273 O 0.4977 0.24964 0.48386 0.0
H274 H 0.59158 0.15324 0.44262 0.0
H275 H 0.49725 0.14067 0.57122 0.0
Dy276 Dy 0.26153 0.26761 0.29699 0.0
C277 C 0.34182 0.34481 0.25401 0.0
C278 C 0.22634 0.22707 0.30988 0.0
Dy279 Dy 0.29965 0.31121 0.26464 0.0
O280 O 0.25417 0.22287 0.31499 0.0
O281 O 0.21766 0.25362 0.29803 0.0
O282 O 0.284 0.27272 0.34212 0.0
O283 O 0.30636 0.27587 0.30057 0.0
C284 C 0.30765 0.27861 0.32964 0.0
C285 C 0.25019 0.30982 0.23179 0.0
O286 O 0.32059 0.26746 0.24554 0.0
O287 O 0.28456 0.24014 0.25937 0.0
O288 O 0.33001 0.33057 0.23307 0.0
O289 O 0.33067 0.34056 0.28092 0.0
O290 O 0.26942 0.32582 0.22364 0.0
O291 O 0.25868 0.2971 0.25715 0.0
O292 O 0.2379 0.31154 0.31256 0.0
O293 O 0.27327 0.33996 0.29973 0.0
C294 C 0.30842 0.24336 0.24419 0.0
C295 C 0.24892 0.33636 0.31391 0.0
Dy296 Dy 0.80286 0.28449 0.30071 0.0
C297 C 0.77247 0.19933 0.2142 0.0
C298 C 0.8112 0.32645 0.34292 0.0
Dy299 Dy 0.78202 0.24199 0.25526 0.0
O300 O 0.81881 0.29779 0.34685 0.0
O301 O 0.79866 0.33219 0.31606 0.0
O302 O 0.84891 0.26269 0.29376 0.0
O303 O 0.81628 0.23665 0.29057 0.0
C304 C 0.84305 0.23682 0.28684 0.0
C305 C 0.74242 0.29065 0.26845 0.0
O306 O 0.76662 0.22432 0.29947 0.0
O307 O 0.76954 0.26595 0.32857 0.0
O308 O 0.7663 0.22797 0.20922 0.0
O309 O 0.78453 0.19399 0.24135 0.0
O310 O 0.73593 0.26502 0.26165 0.0
O311 O 0.76929 0.28977 0.26494 0.0
O312 O 0.81704 0.30305 0.25657 0.0
O313 O 0.81496 0.26133 0.22715 0.0
C314 C 0.76046 0.24032 0.32464 0.0
C315 C 0.82342 0.28733 0.23125 0.0
Dy316 Dy 0.78457 0.74848 0.24184 0.0
C317 C 0.84853 0.83849 0.28648 0.0
C318 C 0.75215 0.70603 0.22808 0.0
Dy319 Dy 0.81627 0.79611 0.27247 0.0
O320 O 0.74366 0.73465 0.22507 0.0
O321 O 0.7788 0.70032 0.23837 0.0
O322 O 0.78078 0.77434 0.19721 0.0
O323 O 0.7815 0.79701 0.23888 0.0
C324 C 0.7823 0.79971 0.20973 0.0
C325 C 0.81997 0.74511 0.30476 0.0
O326 O 0.77417 0.80475 0.29941 0.0
O327 O 0.75866 0.76125 0.28439 0.0
O328 O 0.85776 0.80992 0.2866 0.0
O329 O 0.82117 0.84434 0.27847 0.0
O330 O 0.82301 0.77028 0.31678 0.0
O331 O 0.8193 0.74779 0.27555 0.0
O332 O 0.82789 0.73686 0.2187 0.0
O333 O 0.84316 0.78139 0.23046 0.0
C334 C 0.7567 0.78474 0.30242 0.0
C335 C 0.84585 0.75621 0.21478 0.0
Dy336 Dy 0.28586 0.76338 0.245 0.0
C337 C 0.37203 0.80968 0.32425 0.0
C338 C 0.24083 0.7462 0.21463 0.0
Dy339 Dy 0.32669 0.7949 0.29216 0.0
O340 O 0.24239 0.77375 0.22084 0.0
O341 O 0.26368 0.72835 0.22511 0.0
O342 O 0.32313 0.73076 0.22478 0.0
O343 O 0.3305 0.76011 0.25844 0.0
C344 C 0.34281 0.73877 0.24249 0.0
C345 C 0.26938 0.81926 0.29435 0.0
O346 O 0.33305 0.81578 0.2454 0.0
O347 O 0.29611 0.80097 0.21544 0.0
O348 O 0.34959 0.82856 0.31438 0.0
O349 O 0.36979 0.78275 0.31641 0.0
O350 O 0.28893 0.82777 0.31186 0.0
O351 O 0.28206 0.79776 0.27895 0.0
O352 O 0.28117 0.74099 0.29131 0.0
O353 O 0.31865 0.75558 0.32038 0.0
C354 C 0.31691 0.81707 0.21965 0.0
C355 C 0.29864 0.73861 0.31607 0.0
Dy356 Dy 0.28457 0.79072 0.78567 0.0
C357 C 0.24947 0.70134 0.71083 0.0
C358 C 0.28524 0.84086 0.81848 0.0
Dy359 Dy 0.26086 0.74455 0.74903 0.0
O360 O 0.29889 0.81441 0.82651 0.0
O361 O 0.27227 0.83997 0.79203 0.0
O362 O 0.32943 0.76416 0.78589 0.0
O363 O 0.29347 0.74173 0.78582 0.0
C364 C 0.32087 0.73862 0.78354 0.0
C365 C 0.22516 0.79725 0.75303 0.0
O366 O 0.24046 0.73554 0.79397 0.0
O367 O 0.25099 0.77754 0.81804 0.0
O368 O 0.24521 0.72962 0.70405 0.0
O369 O 0.26023 0.69643 0.73864 0.0
O370 O 0.21621 0.77199 0.75196 0.0
O371 O 0.2523 0.79326 0.74921 0.0
O372 O 0.3069 0.79739 0.74091 0.0
O373 O 0.29872 0.75305 0.72013 0.0
C374 C 0.23738 0.7544 0.8172 0.0
C375 C 0.31205 0.77644 0.71967 0.0
Dy376 Dy 0.27406 0.23491 0.77007 0.0
C377 C 0.34521 0.32232 0.80601 0.0
C378 C 0.23529 0.19845 0.75785 0.0
Dy379 Dy 0.31554 0.27696 0.79675 0.0
O380 O 0.23045 0.22725 0.75409 0.0
O381 O 0.26147 0.18936 0.76862 0.0
O382 O 0.27615 0.25621 0.72342 0.0
O383 O 0.27998 0.28142 0.76301 0.0
C384 C 0.2816 0.28121 0.73376 0.0
C385 C 0.32232 0.22471 0.82911 0.0
O386 O 0.27349 0.29601 0.81911 0.0
O387 O 0.2484 0.25715 0.80965 0.0
O388 O 0.33189 0.30968 0.82737 0.0
O389 O 0.34209 0.31039 0.77933 0.0
O390 O 0.3372 0.24555 0.8346 0.0
O391 O 0.30568 0.23331 0.80658 0.0
O392 O 0.31685 0.21331 0.75069 0.0
O393 O 0.34204 0.25249 0.75922 0.0
C394 C 0.2511 0.28227 0.82357 0.0
C395 C 0.33957 0.22675 0.74644 0.0
Dy396 Dy 0.75689 0.26989 0.7594 0.0
C397 C 0.8512 0.28693 0.84255 0.0
C398 C 0.71188 0.2686 0.71847 0.0
Dy399 Dy 0.80524 0.28713 0.80237 0.0
O400 O 0.70921 0.27153 0.74832 0.0
O401 O 0.7391 0.2661 0.71121 0.0
O402 O 0.7814 0.22352 0.75547 0.0
O403 O 0.80476 0.25825 0.76232 0.0
C404 C 0.80666 0.23016 0.76147 0.0
C405 C 0.75421 0.32535 0.80211 0.0
O406 O 0.81212 0.31423 0.76016 0.0
O407 O 0.76714 0.3116 0.73813 0.0
O408 O 0.82388 0.29435 0.84929 0.0
O409 O 0.85357 0.27995 0.81342 0.0
O410 O 0.77903 0.33326 0.80784 0.0
O411 O 0.75777 0.29732 0.80003 0.0
O412 O 0.74688 0.24739 0.80312 0.0
O413 O 0.79163 0.24799 0.8266 0.0
C414 C 0.79088 0.32349 0.73991 0.0
C415 C 0.76655 0.23839 0.82508 0.0
Dy416 Dy 0.75413 0.75494 0.78169 0.0
C417 C 0.83799 0.82789 0.74632 0.0
C418 C 0.71362 0.71979 0.79325 0.0
Dy419 Dy 0.79708 0.79268 0.7568 0.0
O420 O 0.74144 0.71168 0.79652 0.0
O421 O 0.70767 0.74732 0.78324 0.0
O422 O 0.77869 0.74697 0.82603 0.0
O423 O 0.80149 0.75173 0.78487 0.0
C424 C 0.80364 0.74885 0.81401 0.0
C425 C 0.7471 0.79869 0.72506 0.0
O426 O 0.81088 0.75213 0.72805 0.0
O427 O 0.76984 0.73142 0.73792 0.0
O428 O 0.81013 0.83641 0.74372 0.0
O429 O 0.84369 0.79991 0.7548 0.0
O430 O 0.77178 0.80082 0.71244 0.0
O431 O 0.74993 0.79586 0.75407 0.0
O432 O 0.74092 0.79458 0.81141 0.0
O433 O 0.78208 0.8151 0.80161 0.0
C434 C 0.79433 0.73193 0.72268 0.0
C435 C 0.75797 0.81409 0.81745 0.0
H436 H 0.14712 0.08032 0.37988 0.0
H437 H 0.09688 0.11173 0.29789 0.0
H438 H 0.17595 0.11908 0.3724 0.0
H439 H 0.1268 0.14963 0.28957 0.0
H440 H 0.16781 0.23305 0.30056 0.0
H441 H 0.13724 0.19549 0.30932 0.0
H442 H 0.21263 0.13227 0.33964 0.0
H443 H 0.24285 0.1701 0.33167 0.0
C444 C 0.14209 0.09544 0.36025 0.0
C445 C 0.11946 0.09267 0.33955 0.0
C446 C 0.15898 0.11755 0.35573 0.0
C447 C 0.15389 0.13753 0.33028 0.0
C448 C 0.13121 0.13489 0.30962 0.0
C449 C 0.11422 0.11281 0.3142 0.0
C450 C 0.17775 0.21114 0.30924 0.0
C451 C 0.20768 0.20453 0.31555 0.0
C452 C 0.16029 0.18952 0.31405 0.0
C453 C 0.17238 0.16074 0.32522 0.0
C454 C 0.2024 0.15426 0.33151 0.0
C455 C 0.2198 0.1759 0.32678 0.0
H456 H 0.96297 0.06418 0.26487 0.0
H457 H 1.00312 0.12388 0.31981 0.0
H458 H 0.92155 0.10483 0.25404 0.0
H459 H 0.96251 0.16397 0.30916 0.0
H460 H 0.89843 0.23795 0.27084 0.0
H461 H 0.9387 0.19634 0.26736 0.0
H462 H 0.88054 0.13469 0.28622 0.0
H463 H 0.8397 0.17683 0.28913 0.0
C464 C 0.9633 0.08616 0.27384 0.0
C465 C 0.98634 0.09103 0.29291 0.0
C466 C 0.93949 0.10928 0.26801 0.0
C467 C 0.9387 0.1377 0.2807 0.0
C468 C 0.96247 0.14259 0.29863 0.0
C469 C 0.9858 0.11957 0.30478 0.0
C470 C 0.89409 0.21551 0.27388 0.0
C471 C 0.86601 0.21067 0.28086 0.0
C472 C 0.91721 0.19163 0.2719 0.0
C473 C 0.913 0.16218 0.27704 0.0
C474 C 0.88453 0.1571 0.28207 0.0
C475 C 0.86118 0.18119 0.28391 0.0
H476 H 0.97862 0.92056 0.37573 0.0
H477 H 0.94399 0.98577 0.30515 0.0
H478 H 0.94239 0.89089 0.36241 0.0
H479 H 0.90831 0.9552 0.29093 0.0
H480 H 0.83363 0.89964 0.29052 0.0
H481 H 0.86509 0.93429 0.30731 0.0
H482 H 0.93639 0.86031 0.31856 0.0
H483 H 0.9052 0.82616 0.30247 0.0
C484 C 0.96314 0.92884 0.3576 0.0
C485 C 0.96462 0.95553 0.34132 0.0
C486 C 0.94249 0.91157 0.34969 0.0
C487 C 0.92273 0.92038 0.32523 0.0
C488 C 0.9232 0.94774 0.30988 0.0
C489 C 0.94391 0.9651 0.31783 0.0
C490 C 0.85604 0.89096 0.29661 0.0
C491 C 0.86693 0.86022 0.29536 0.0
C492 C 0.87406 0.91074 0.30613 0.0
C493 C 0.90318 0.90002 0.31469 0.0
C494 C 0.91395 0.8693 0.31288 0.0
C495 C 0.89608 0.84971 0.30339 0.0
H496 H 0.14658 0.97341 0.24404 0.0
H497 H 0.09617 0.92891 0.30703 0.0
H498 H 0.18486 0.92902 0.24462 0.0
H499 H 0.13477 0.88501 0.30816 0.0
H500 H 0.23381 0.84655 0.33831 0.0
H501 H 0.18873 0.88247 0.33076 0.0
H502 H 0.19434 0.86942 0.23214 0.0
H503 H 0.23918 0.83254 0.23991 0.0
C504 C 0.14341 0.95401 0.25755 0.0
C505 C 0.11829 0.95481 0.27551 0.0
C506 C 0.1653 0.92856 0.25779 0.0
C507 C 0.16283 0.90359 0.27651 0.0
C508 C 0.13726 0.90394 0.29354 0.0
C509 C 0.11511 0.92909 0.29277 0.0
C510 C 0.22492 0.85068 0.31512 0.0
C511 C 0.23968 0.83643 0.28977 0.0
C512 C 0.19916 0.87126 0.31078 0.0
C513 C 0.18802 0.87877 0.28086 0.0
C514 C 0.20241 0.86399 0.25546 0.0
C515 C 0.22785 0.84269 0.25992 0.0
H516 H 0.13638 0.98257 0.76666 0.0
H517 H 0.06974 0.92859 0.76751 0.0
H518 H 0.17348 0.93805 0.77405 0.0
H519 H 0.1065 0.88375 0.77256 0.0
H520 H 0.17574 0.80439 0.78649 0.0
H521 H 0.14197 0.85025 0.79647 0.0
H522 H 0.19704 0.90005 0.74474 0.0
H523 H 0.23165 0.85409 0.73684 0.0
C524 C 0.12969 0.9611 0.76939 0.0
C525 C 0.10023 0.95898 0.76721 0.0
C526 C 0.15099 0.93544 0.77293 0.0
C527 C 0.14339 0.90686 0.77324 0.0
C528 C 0.11356 0.90509 0.77288 0.0
C529 C 0.09227 0.93086 0.77012 0.0
C530 C 0.18069 0.82527 0.77756 0.0
C531 C 0.20612 0.82571 0.76058 0.0
C532 C 0.16119 0.85166 0.7831 0.0
C533 C 0.16618 0.87922 0.77106 0.0
C534 C 0.19231 0.87959 0.75487 0.0
C535 C 0.21218 0.85317 0.75001 0.0
H536 H 0.1243 0.06473 0.75442 0.0
H537 H 0.09736 0.12071 0.67405 0.0
H538 H 0.1614 0.09418 0.76582 0.0
H539 H 0.13537 0.1495 0.68475 0.0
H540 H 0.18051 0.2161 0.73569 0.0
H541 H 0.14515 0.18507 0.72241 0.0
H542 H 0.20704 0.10623 0.74829 0.0
H543 H 0.2423 0.13758 0.76224 0.0
C544 C 0.12628 0.0833 0.73912 0.0
C545 C 0.10753 0.09056 0.7135 0.0
C546 C 0.14788 0.09997 0.74545 0.0
C547 C 0.15134 0.12432 0.72631 0.0
C548 C 0.13305 0.13115 0.70025 0.0
C549 C 0.11143 0.11444 0.6939 0.0
C550 C 0.18656 0.19213 0.73855 0.0
C551 C 0.21412 0.17923 0.75005 0.0
C552 C 0.16637 0.17431 0.73069 0.0
C553 C 0.17325 0.14311 0.7341 0.0
C554 C 0.20091 0.1302 0.74565 0.0
C555 C 0.22115 0.1481 0.75354 0.0
H556 H 0.97552 0.10613 0.78772 0.0
H557 H 0.92737 0.07795 0.71176 0.0
H558 H 0.93484 0.14756 0.79719 0.0
H559 H 0.88732 0.11844 0.72128 0.0
H560 H 0.80903 0.17076 0.76525 0.0
H561 H 0.85133 0.13128 0.76529 0.0
H562 H 0.90743 0.19678 0.76494 0.0
H563 H 0.86442 0.237 0.76487 0.0
C564 C 0.95617 0.10849 0.77342 0.0
C565 C 0.95458 0.08869 0.7491 0.0
C566 C 0.93308 0.13233 0.7786 0.0
C567 C 0.90787 0.13624 0.75998 0.0
C568 C 0.90629 0.11597 0.73619 0.0
C569 C 0.92931 0.09273 0.73073 0.0
C570 C 0.83032 0.17694 0.7654 0.0
C571 C 0.83333 0.20708 0.76453 0.0
C572 C 0.8546 0.15422 0.76549 0.0
C573 C 0.88273 0.16085 0.76479 0.0
C574 C 0.88599 0.19099 0.76559 0.0
C575 C 0.86143 0.21398 0.76539 0.0
H576 H 0.9853 0.90762 0.68551 0.0
H577 H 0.93243 0.9756 0.73902 0.0
H578 H 0.95052 0.87437 0.69473 0.0
H579 H 0.8981 0.94219 0.74888 0.0
H580 H 0.82725 0.887 0.73141 0.0
H581 H 0.86224 0.91964 0.72108 0.0
H582 H 0.93259 0.84563 0.73738 0.0
H583 H 0.89734 0.81283 0.74747 0.0
C584 C 0.9662 0.91556 0.69909 0.0
C585 C 0.96168 0.94435 0.71149 0.0
C586 C 0.94643 0.89635 0.70469 0.0
C587 C 0.92151 0.90556 0.7226 0.0
C588 C 0.9169 0.93443 0.73476 0.0
C589 C 0.93674 0.95352 0.72934 0.0
C590 C 0.85019 0.87769 0.7328 0.0
C591 C 0.85958 0.84738 0.74029 0.0
C592 C 0.87026 0.89644 0.72703 0.0
C593 C 0.90026 0.88532 0.72847 0.0
C594 C 0.90965 0.85487 0.73578 0.0
C595 C 0.8895 0.83611 0.74174 0.0
H596 H 0.26086 0.15826 0.09733 0.0
H597 H 0.32717 0.08599 0.12974 0.0
H598 H 0.27975 0.1923 0.13187 0.0
H599 H 0.3459 0.11999 0.16481 0.0
H600 H 0.31375 0.18375 0.253 0.0
H601 H 0.31642 0.14701 0.21224 0.0
H602 H 0.32768 0.21444 0.14415 0.0
H603 H 0.32572 0.25115 0.18521 0.0
C604 C 0.27963 0.14983 0.11169 0.0
C605 C 0.29244 0.11961 0.11124 0.0
C606 C 0.29069 0.16929 0.13106 0.0
C607 C 0.31442 0.1587 0.15067 0.0
C608 C 0.32776 0.12863 0.14963 0.0
C609 C 0.31704 0.10928 0.12974 0.0
C610 C 0.31811 0.19033 0.2295 0.0
C611 C 0.31937 0.22014 0.22204 0.0
C612 C 0.3197 0.16935 0.20623 0.0
C613 C 0.32194 0.17812 0.17516 0.0
C614 C 0.3259 0.2073 0.16802 0.0
C615 C 0.32496 0.22818 0.19145 0.0
H616 H 0.93259 0.38468 0.11934 0.0
H617 H 0.96399 0.2911 0.10369 0.0
H618 H 0.89378 0.37173 0.15129 0.0
H619 H 0.92637 0.27821 0.1369 0.0
H620 H 0.84043 0.26344 0.17497 0.0
H621 H 0.87537 0.279 0.13932 0.0
H622 H 0.88613 0.35026 0.20055 0.0
H623 H 0.85063 0.3354 0.23554 0.0
C624 C 0.93135 0.36137 0.12272 0.0
C625 C 0.95164 0.33902 0.10889 0.0
C626 C 0.90921 0.35391 0.14132 0.0
C627 C 0.90685 0.3239 0.14669 0.0
C628 C 0.92718 0.30157 0.13294 0.0
C629 C 0.94919 0.30901 0.11424 0.0
C630 C 0.85 0.28263 0.18064 0.0
C631 C 0.84272 0.29809 0.20818 0.0
C632 C 0.87024 0.29143 0.16032 0.0
C633 C 0.88381 0.31577 0.16714 0.0
C634 C 0.87591 0.33166 0.1943 0.0
C635 C 0.85558 0.323 0.21449 0.0
H636 H 0.82031 0.90328 0.05601 0.0
H637 H 0.82602 0.96404 0.13019 0.0
H638 H 0.81783 0.86367 0.09312 0.0
H639 H 0.82576 0.92364 0.16804 0.0
H640 H 0.77528 0.85953 0.22175 0.0
H641 H 0.79165 0.89799 0.18954 0.0
H642 H 0.83583 0.82944 0.12968 0.0
H643 H 0.81677 0.79216 0.15967 0.0
C644 C 0.82218 0.90778 0.0804 0.0
C645 C 0.8229 0.93681 0.09012 0.0
C646 C 0.82097 0.88495 0.10192 0.0
C647 C 0.82114 0.89031 0.13394 0.0
C648 C 0.82477 0.91877 0.14366 0.0
C649 C 0.82552 0.94185 0.12194 0.0
C650 C 0.78842 0.85297 0.2016 0.0
C651 C 0.7942 0.82309 0.19274 0.0
C652 C 0.7982 0.87489 0.1833 0.0
C653 C 0.81469 0.86707 0.1564 0.0
C654 C 0.82224 0.8367 0.1493 0.0
C655 C 0.81149 0.81517 0.16671 0.0
H656 H 0.11326 0.73893 0.07346 0.0
H657 H 0.12689 0.6493 0.11138 0.0
H658 H 0.14585 0.75299 0.11188 0.0
H659 H 0.15912 0.66354 0.15107 0.0
H660 H 0.24146 0.69144 0.19095 0.0
H661 H 0.20562 0.67593 0.15695 0.0
H662 H 0.1517 0.76305 0.16431 0.0
H663 H 0.1885 0.77889 0.19713 0.0
C664 C 0.12285 0.72235 0.09051 0.0
C665 C 0.1174 0.69306 0.08963 0.0
C666 C 0.14149 0.73045 0.1127 0.0
C667 C 0.15498 0.70953 0.13489 0.0
C668 C 0.14937 0.68017 0.13414 0.0
C669 C 0.13091 0.67197 0.11155 0.0
C670 C 0.22183 0.70719 0.1854 0.0
C671 C 0.21778 0.73643 0.19635 0.0
C672 C 0.20115 0.69823 0.1661 0.0
C673 C 0.17576 0.71824 0.15765 0.0
C674 C 0.17127 0.74721 0.16974 0.0
C675 C 0.19221 0.75629 0.1887 0.0
H676 H 0.23076 1.00685 0.91687 0.0
H677 H 0.24462 0.93652 0.9863 0.0
H678 H 0.24276 0.9702 0.87636 0.0
H679 H 0.25576 0.89953 0.94588 0.0
H680 H 0.31091 0.8465 0.87404 0.0
H681 H 0.29597 0.88495 0.91216 0.0
H682 H 0.22955 0.92938 0.849 0.0
H683 H 0.24533 0.89151 0.81055 0.0
C684 C 0.23537 0.98341 0.92332 0.0
C685 C 0.2368 0.97437 0.95461 0.0
C686 C 0.24242 0.96241 0.90016 0.0
C687 C 0.25078 0.93199 0.90794 0.0
C688 C 0.25023 0.92287 0.93918 0.0
C689 C 0.24349 0.9439 0.96228 0.0
C690 C 0.29349 0.86481 0.86819 0.0
C691 C 0.27931 0.86616 0.83946 0.0
C692 C 0.28463 0.8866 0.89012 0.0
C693 C 0.26118 0.90993 0.88384 0.0
C694 C 0.24775 0.91181 0.85454 0.0
C695 C 0.25682 0.89016 0.8325 0.0
H696 H 0.14938 0.33675 0.98734 0.0
H697 H 0.08912 0.35985 0.91123 0.0
H698 H 0.1886 0.3209 0.95045 0.0
H699 H 0.12809 0.34406 0.87456 0.0
H700 H 0.19559 0.27172 0.82688 0.0
H701 H 0.15783 0.29239 0.86318 0.0
H702 H 0.21658 0.34274 0.90601 0.0
H703 H 0.25447 0.32231 0.86942 0.0
C704 C 0.14464 0.33874 0.96276 0.0
C705 C 0.11623 0.34961 0.9522 0.0
C706 C 0.16703 0.32981 0.94169 0.0
C707 C 0.1613 0.33113 0.90967 0.0
C708 C 0.13305 0.34263 0.89912 0.0
C709 C 0.11081 0.35195 0.92013 0.0
C710 C 0.20049 0.28726 0.84395 0.0
C711 C 0.22804 0.29539 0.84523 0.0
C712 C 0.1788 0.29921 0.86462 0.0
C713 C 0.18428 0.3192 0.88735 0.0
C714 C 0.21183 0.32728 0.88878 0.0
C715 C 0.23343 0.3157 0.86773 0.0
H716 H 0.75992 0.11112 0.97835 0.0
H717 H 0.73447 0.07122 0.89513 0.0
H718 H 0.76623 0.15559 0.94823 0.0
H719 H 0.7408 0.11523 0.86512 0.0
H720 H 0.7204 0.20919 0.82761 0.0
H721 H 0.71495 0.16722 0.86136 0.0
H722 H 0.79639 0.17227 0.90644 0.0
H723 H 0.8017 0.21458 0.87318 0.0
C724 C 0.75617 0.11171 0.95359 0.0
C725 C 0.74638 0.08801 0.93905 0.0
C726 C 0.75963 0.13711 0.9364 0.0
C727 C 0.7534 0.13904 0.90447 0.0
C728 C 0.74493 0.11471 0.88984 0.0
C729 C 0.74144 0.08949 0.90695 0.0
C730 C 0.73698 0.20161 0.84493 0.0
C731 C 0.76159 0.21506 0.84749 0.0
C732 C 0.73396 0.17745 0.86411 0.0
C733 C 0.75547 0.16628 0.8862 0.0
C734 C 0.77945 0.18049 0.88968 0.0
C735 C 0.78251 0.20465 0.87049 0.0
H736 H 0.97724 0.6705 0.88174 0.0
H737 H 0.9344 0.72061 0.95762 0.0
H738 H 0.93363 0.68532 0.84976 0.0
H739 H 0.89192 0.73669 0.92545 0.0
H740 H 0.80924 0.73325 0.87451 0.0
H741 H 0.85336 0.71654 0.90403 0.0
H742 H 0.90445 0.72863 0.82316 0.0
H743 H 0.85961 0.74444 0.79299 0.0
C744 C 0.95856 0.68455 0.89164 0.0
C745 C 0.95938 0.6944 0.92226 0.0
C746 C 0.93374 0.69341 0.87317 0.0
C747 C 0.90927 0.71222 0.88501 0.0
C748 C 0.91017 0.72187 0.91565 0.0
C749 C 0.93475 0.71291 0.93405 0.0
C750 C 0.82985 0.73241 0.86295 0.0
C751 C 0.83103 0.74021 0.83148 0.0
C752 C 0.85521 0.72296 0.87996 0.0
C753 C 0.8825 0.72144 0.86607 0.0
C754 C 0.88375 0.72929 0.83447 0.0
C755 C 0.85817 0.73859 0.81728 0.0
H756 H 0.13398 0.28593 0.07705 0.0
H757 H 0.07911 0.32501 0.15095 0.0
H758 H 0.17612 0.27954 0.11226 0.0
H759 H 0.1208 0.31842 0.18599 0.0
H760 H 0.20101 0.28732 0.24777 0.0
H761 H 0.15981 0.2823 0.21396 0.0
H762 H 0.20274 0.31667 0.13667 0.0
H763 H 0.24337 0.32186 0.17032 0.0
C764 C 0.13076 0.29237 0.10097 0.0
C765 C 0.10316 0.30598 0.11115 0.0
C766 C 0.15493 0.289 0.12111 0.0
C767 C 0.15195 0.29863 0.15203 0.0
C768 C 0.12399 0.31053 0.16254 0.0
C769 C 0.10005 0.3144 0.14234 0.0
C770 C 0.20169 0.29347 0.22352 0.0
C771 C 0.22543 0.30505 0.21181 0.0
C772 C 0.17807 0.29071 0.20412 0.0
C773 C 0.17794 0.29894 0.17243 0.0
C774 C 0.20216 0.30971 0.16073 0.0
C775 C 0.22539 0.31294 0.18016 0.0
H776 H 0.1225 0.78514 0.97747 0.0
H777 H 0.08973 0.71799 0.92584 0.0
H778 H 0.15918 0.78733 0.938 0.0
H779 H 0.12755 0.71804 0.88785 0.0
H780 H 0.18516 0.73726 0.80968 0.0
H781 H 0.14657 0.73854 0.84721 0.0
H782 H 0.20202 0.76609 0.91742 0.0
H783 H 0.23954 0.76719 0.87871 0.0
C784 C 0.12317 0.77085 0.95762 0.0
C785 C 0.10298 0.75168 0.95464 0.0
C786 C 0.14454 0.7717 0.93507 0.0
C787 C 0.14693 0.75269 0.90936 0.0
C788 C 0.12642 0.73364 0.90656 0.0
C789 C 0.10459 0.73347 0.92857 0.0
C790 C 0.18913 0.74328 0.83326 0.0
C791 C 0.21548 0.7518 0.84133 0.0
C792 C 0.16693 0.74396 0.85503 0.0
C793 C 0.17073 0.75233 0.88589 0.0
C794 C 0.1976 0.76019 0.89397 0.0
C795 C 0.21944 0.7604 0.87187 0.0
H796 H 0.30529 0.05852 0.92998 0.0
H797 H 0.32439 0.12343 0.99458 0.0
H798 H 0.31423 0.09133 0.88655 0.0
H799 H 0.33347 0.156 0.95179 0.0
H800 H 0.36346 0.20383 0.87177 0.0
H801 H 0.36497 0.16205 0.90795 0.0
H802 H 0.28743 0.14107 0.8659 0.0
H803 H 0.28622 0.18304 0.82909 0.0
C804 C 0.31257 0.07925 0.9348 0.0
C805 C 0.31489 0.08825 0.9655 0.0
C806 C 0.31722 0.09822 0.91004 0.0
C807 C 0.32452 0.12633 0.91567 0.0
C808 C 0.32831 0.13438 0.94652 0.0
C809 C 0.32327 0.11569 0.97109 0.0
C810 C 0.34695 0.19005 0.8699 0.0
C811 C 0.32455 0.19685 0.8478 0.0
C812 C 0.34779 0.16613 0.89071 0.0
C813 C 0.32616 0.1484 0.8901 0.0
C814 C 0.30456 0.15416 0.86685 0.0
C815 C 0.30376 0.17823 0.84585 0.0
H816 H 1.01022 0.29925 0.94697 0.0
H817 H 0.95693 0.25859 0.01023 0.0
H818 H 0.97424 0.29866 0.90581 0.0
H819 H 0.92135 0.25773 0.96922 0.0
H820 H 0.84707 0.29806 0.90415 0.0
H821 H 0.88591 0.29465 0.94242 0.0
H822 H 0.94937 0.26837 0.87124 0.0
H823 H 0.91011 0.27208 0.83268 0.0
C824 C 0.99116 0.28964 0.952 0.0
C825 C 0.98653 0.27912 0.98213 0.0
C826 C 0.97047 0.28931 0.92833 0.0
C827 C 0.94455 0.27858 0.93419 0.0
C828 C 0.94067 0.26679 0.96392 0.0
C829 C 0.9613 0.26704 0.98747 0.0
C830 C 0.8693 0.29157 0.89659 0.0
C831 C 0.87545 0.28534 0.86533 0.0
C832 C 0.89164 0.28938 0.91864 0.0
C833 C 0.92093 0.28094 0.91014 0.0
C834 C 0.92714 0.27506 0.87869 0.0
C835 C 0.90465 0.2771 0.85658 0.0
H836 H 0.72172 0.96952 0.93284 0.0
H837 H 0.74726 0.89673 0.99796 0.0
H838 H 0.72033 0.93421 0.89131 0.0
H839 H 0.74578 0.86098 0.95615 0.0
H840 H 0.7239 0.8081 0.8681 0.0
H841 H 0.71385 0.84196 0.91193 0.0
H842 H 0.76539 0.90088 0.86916 0.0
H843 H 0.77576 0.86714 0.82589 0.0
C844 C 0.72582 0.94586 0.93847 0.0
C845 C 0.73413 0.9358 0.96864 0.0
C846 C 0.72538 0.92566 0.91464 0.0
C847 C 0.73334 0.89485 0.92038 0.0
C848 C 0.7394 0.88461 0.95109 0.0
C849 C 0.74001 0.90499 0.97506 0.0
C850 C 0.7329 0.82841 0.868 0.0
C851 C 0.75059 0.83497 0.84344 0.0
C852 C 0.72726 0.84766 0.89316 0.0
C853 C 0.73864 0.87416 0.89387 0.0
C854 C 0.75599 0.88081 0.86911 0.0
C855 C 0.76207 0.86138 0.84437 0.0
H856 H 0.99207 0.76076 0.08781 0.0
H857 H 0.94297 0.69889 0.04851 0.0
H858 H 0.95706 0.77008 0.13011 0.0
H859 H 0.90731 0.70909 0.08936 0.0
H860 H 0.86564 0.705 0.18278 0.0
H861 H 0.90091 0.69814 0.14106 0.0
H862 H 0.91072 0.79036 0.1477 0.0
H863 H 0.87675 0.79663 0.1904 0.0
C864 C 0.97336 0.74982 0.08778 0.0
C865 C 0.97029 0.72905 0.06495 0.0
C866 C 0.95323 0.75505 0.11206 0.0
C867 C 0.92939 0.73992 0.11374 0.0
C868 C 0.92573 0.72044 0.08972 0.0
C869 C 0.94602 0.71487 0.06595 0.0
C870 C 0.8755 0.72372 0.1755 0.0
C871 C 0.8683 0.7513 0.19011 0.0
C872 C 0.8956 0.71994 0.15124 0.0
C873 C 0.9087 0.74379 0.14048 0.0
C874 C 0.9016 0.77129 0.15539 0.0
C875 C 0.88189 0.77492 0.17995 0.0
H876 H 0.3344 0.91242 0.04415 0.0
H877 H 0.32041 0.97929 0.11476 0.0
H878 H 0.3372 0.87328 0.08413 0.0
H879 H 0.32311 0.94028 0.15453 0.0
H880 H 0.34948 0.86159 0.22137 0.0
H881 H 0.35521 0.89778 0.18049 0.0
H882 H 0.30135 0.85657 0.11957 0.0
H883 H 0.29569 0.82034 0.16019 0.0
C884 C 0.3324 0.91878 0.06819 0.0
C885 C 0.32704 0.94903 0.07619 0.0
C886 C 0.33377 0.89635 0.09109 0.0
C887 C 0.33017 0.90363 0.12255 0.0
C888 C 0.32618 0.93383 0.1306 0.0
C889 C 0.32451 0.95623 0.10773 0.0
C890 C 0.33906 0.86003 0.19918 0.0
C891 C 0.32199 0.83805 0.19424 0.0
C892 C 0.34226 0.8809 0.17578 0.0
C893 C 0.32872 0.88013 0.14673 0.0
C894 C 0.31235 0.85764 0.14152 0.0
C895 C 0.30892 0.83697 0.16497 0.0
H896 H 0.75513 0.03881 0.11247 0.0
H897 H 0.68719 0.10738 0.07584 0.0
H898 H 0.76867 0.07394 0.14921 0.0
H899 H 0.69985 0.14225 0.11339 0.0
H900 H 0.75137 0.20742 0.15517 0.0
H901 H 0.73613 0.17063 0.12156 0.0
H902 H 0.7584 0.10311 0.19348 0.0
H903 H 0.7748 0.13988 0.22648 0.0
C904 C 0.74249 0.06115 0.11286 0.0
C905 C 0.72007 0.07025 0.09111 0.0
C906 C 0.75031 0.08142 0.13398 0.0
C907 C 0.73572 0.11128 0.13414 0.0
C908 C 0.7122 0.11979 0.11351 0.0
C909 C 0.70463 0.09963 0.09218 0.0
C910 C 0.75317 0.18466 0.16368 0.0
C911 C 0.76436 0.17653 0.19341 0.0
C912 C 0.7441 0.16354 0.14453 0.0
C913 C 0.74564 0.13373 0.15474 0.0
C914 C 0.75711 0.12565 0.18453 0.0
C915 C 0.76646 0.14676 0.20356 0.0
H916 H 0.56707 0.64163 0.85966 0.0
H917 H 0.62409 0.57038 0.81459 0.0
H918 H 0.60104 0.67536 0.84827 0.0
H919 H 0.65742 0.6041 0.80238 0.0
H920 H 0.72527 0.66262 0.8144 0.0
H921 H 0.69104 0.63026 0.82823 0.0
H922 H 0.61962 0.70072 0.80336 0.0
H923 H 0.6542 0.73345 0.78994 0.0
C924 C 0.58691 0.63311 0.84754 0.0
C925 C 0.59284 0.6033 0.83801 0.0
C926 C 0.6062 0.65252 0.84066 0.0
C927 C 0.63192 0.64246 0.82434 0.0
C928 C 0.63797 0.61255 0.81524 0.0
C929 C 0.61871 0.59325 0.822 0.0
C930 C 0.70226 0.67122 0.81185 0.0
C931 C 0.69237 0.70049 0.80099 0.0
C932 C 0.68263 0.65263 0.81966 0.0
C933 C 0.65258 0.66283 0.8168 0.0
C934 C 0.64263 0.69228 0.80612 0.0
C935 C 0.66238 0.71093 0.79822 0.0
H936 H 0.48187 0.61285 0.77853 0.0
H937 H 0.4184 0.5556 0.78738 0.0
H938 H 0.44329 0.65583 0.77112 0.0
H939 H 0.3795 0.59793 0.77744 0.0
H940 H 0.31668 0.68246 0.80465 0.0
H941 H 0.35358 0.63753 0.8017 0.0
H942 H 0.40686 0.68603 0.74582 0.0
H943 H 0.3709 0.73116 0.75127 0.0
C944 C 0.45961 0.60935 0.77736 0.0
C945 C 0.45309 0.58094 0.78316 0.0
C946 C 0.43725 0.63406 0.77316 0.0
C947 C 0.40777 0.63087 0.77406 0.0
C948 C 0.40163 0.60181 0.77754 0.0
C949 C 0.42397 0.5773 0.78261 0.0
C950 C 0.33627 0.68328 0.79164 0.0
C951 C 0.34117 0.71029 0.77861 0.0
C952 C 0.3575 0.65741 0.78964 0.0
C953 C 0.38381 0.65775 0.77373 0.0
C954 C 0.38762 0.68469 0.75916 0.0
C955 C 0.36682 0.71065 0.76201 0.0
H956 H 0.43771 0.47196 0.80241 0.0
H957 H 0.47666 0.41454 0.8776 0.0
H958 H 0.40348 0.43863 0.79335 0.0
H959 H 0.44202 0.38138 0.86874 0.0
H960 H 0.35752 0.34423 0.86164 0.0
H961 H 0.3893 0.38004 0.87198 0.0
H962 H 0.40542 0.38738 0.77398 0.0
H963 H 0.37342 0.35167 0.76366 0.0
C964 C 0.43911 0.45217 0.81694 0.0
C965 C 0.46023 0.44581 0.84055 0.0
C966 C 0.41941 0.4331 0.81175 0.0
C967 C 0.42016 0.40729 0.83018 0.0
C968 C 0.44073 0.40126 0.85432 0.0
C969 C 0.46058 0.42029 0.85943 0.0
C970 C 0.36772 0.35367 0.84231 0.0
C971 C 0.36309 0.34521 0.81186 0.0
C972 C 0.38605 0.374 0.84826 0.0
C973 C 0.39995 0.38643 0.82382 0.0
C974 C 0.39481 0.37838 0.79327 0.0
C975 C 0.37661 0.35788 0.78735 0.0
H976 H 0.61679 0.48152 0.80232 0.0
H977 H 0.57703 0.41598 0.75568 0.0
H978 H 0.66213 0.44634 0.80616 0.0
H979 H 0.623 0.38108 0.75779 0.0
H980 H 0.6989 0.31342 0.7981 0.0
H981 H 0.65379 0.34907 0.79033 0.0
H982 H 0.70292 0.4208 0.7836 0.0
H983 H 0.74742 0.38533 0.79334 0.0
C984 C 0.61794 0.45982 0.7921 0.0
C985 C 0.59317 0.45164 0.7787 0.0
C986 C 0.64414 0.43948 0.79421 0.0
C987 C 0.6466 0.41045 0.78247 0.0
C988 C 0.62204 0.40281 0.76783 0.0
C989 C 0.59566 0.42301 0.76624 0.0
C990 C 0.6999 0.33685 0.79503 0.0
C991 C 0.72665 0.34659 0.79658 0.0
C992 C 0.67403 0.35739 0.79026 0.0
C993 C 0.67431 0.38818 0.78638 0.0
C994 C 0.70138 0.39759 0.78726 0.0
C995 C 0.72707 0.37716 0.79268 0.0
H996 H 0.59123 0.41568 0.22671 0.0
H997 H 0.63343 0.46966 0.28667 0.0
H998 H 0.62792 0.37241 0.23929 0.0
H999 H 0.67088 0.42574 0.29953 0.0
H1000 H 0.74983 0.34929 0.26869 0.0
H1001 H 0.71156 0.39378 0.26995 0.0
H1002 H 0.64714 0.33741 0.28069 0.0
H1003 H 0.68507 0.29335 0.27886 0.0
C1004 C 0.6081 0.41806 0.24324 0.0
C1005 C 0.60937 0.44595 0.25589 0.0
C1006 C 0.62916 0.3932 0.25054 0.0
C1007 C 0.65242 0.3955 0.27045 0.0
C1008 C 0.65329 0.42326 0.28401 0.0
C1009 C 0.63173 0.44828 0.27699 0.0
C1010 C 0.72751 0.34653 0.27174 0.0
C1011 C 0.72036 0.31786 0.27308 0.0
C1012 C 0.7056 0.37199 0.27268 0.0
C1013 C 0.67621 0.36917 0.27502 0.0
C1014 C 0.66946 0.34042 0.27829 0.0
C1015 C 0.69122 0.31514 0.27725 0.0
H1016 H 0.62267 0.60974 0.15584 0.0
H1017 H 0.65106 0.56328 0.24163 0.0
H1018 H 0.65872 0.64146 0.16236 0.0
H1019 H 0.68655 0.5959 0.24873 0.0
H1020 H 0.76411 0.64532 0.23785 0.0
H1021 H 0.73164 0.60958 0.2286 0.0
H1022 H 0.66508 0.6817 0.19586 0.0
H1023 H 0.69747 0.71696 0.20462 0.0
C1024 C 0.63671 0.60605 0.176 0.0
C1025 C 0.63372 0.58391 0.19827 0.0
C1026 C 0.65724 0.62454 0.17992 0.0
C1027 C 0.67542 0.62146 0.20622 0.0
C1028 C 0.67304 0.59881 0.22811 0.0
C1029 C 0.65242 0.58031 0.22421 0.0
C1030 C 0.7426 0.65337 0.22847 0.0
C1031 C 0.73335 0.68388 0.22183 0.0
C1032 C 0.72393 0.63298 0.22336 0.0
C1033 C 0.69575 0.64271 0.21134 0.0
C1034 C 0.68675 0.67328 0.20461 0.0
C1035 C 0.70529 0.69356 0.20981 0.0
H1036 H 0.47528 0.58673 0.28312 0.0
H1037 H 0.51011 0.63065 0.20641 0.0
H1038 H 0.43698 0.63094 0.28914 0.0
H1039 H 0.47268 0.67445 0.21266 0.0
H1040 H 0.37545 0.71314 0.19613 0.0
H1041 H 0.42062 0.67744 0.1997 0.0
H1042 H 0.42229 0.68822 0.29879 0.0
H1043 H 0.37655 0.72462 0.29494 0.0
C1044 C 0.47532 0.60612 0.26827 0.0
C1045 C 0.49541 0.6051 0.24402 0.0
C1046 C 0.45344 0.63143 0.27168 0.0
C1047 C 0.45149 0.65601 0.25098 0.0
C1048 C 0.47318 0.65572 0.22858 0.0
C1049 C 0.4947 0.6306 0.22506 0.0
C1050 C 0.38586 0.70855 0.21858 0.0
C1051 C 0.37283 0.72206 0.24513 0.0
C1052 C 0.41177 0.68804 0.22068 0.0
C1053 C 0.4252 0.67999 0.24954 0.0
C1054 C 0.41249 0.69397 0.27624 0.0
C1055 C 0.3866 0.7151 0.274 0.0
H1056 H 0.45069 0.48241 0.25134 0.0
H1057 H 0.48539 0.42149 0.17984 0.0
H1058 H 0.41434 0.45158 0.26327 0.0
H1059 H 0.44956 0.39053 0.19193 0.0
H1060 H 0.3634 0.35815 0.1981 0.0
H1061 H 0.39932 0.38954 0.18724 0.0
H1062 H 0.40708 0.40472 0.28516 0.0
H1063 H 0.37035 0.37389 0.2958 0.0
C1064 C 0.45072 0.46233 0.23833 0.0
C1065 C 0.47088 0.45464 0.21445 0.0
C1066 C 0.42991 0.44456 0.24521 0.0
C1067 C 0.42879 0.41853 0.22849 0.0
C1068 C 0.44923 0.41071 0.20489 0.0
C1069 C 0.46988 0.42852 0.19792 0.0
C1070 C 0.3728 0.36819 0.2173 0.0
C1071 C 0.36408 0.36353 0.24779 0.0
C1072 C 0.39357 0.38608 0.21112 0.0
C1073 C 0.40634 0.39969 0.2353 0.0
C1074 C 0.39753 0.39498 0.26588 0.0
C1075 C 0.37662 0.37713 0.27204 0.0
H1076 H 0.84685 0.56249 0.63283 0.0
H1077 H 0.82412 0.62485 0.55637 0.0
H1078 H 0.84038 0.60371 0.66874 0.0
H1079 H 0.81805 0.66626 0.59265 0.0
H1080 H 0.83155 0.73243 0.67334 0.0
H1081 H 0.84567 0.69288 0.63544 0.0
H1082 H 0.79219 0.63854 0.68252 0.0
H1083 H 0.77775 0.67781 0.71973 0.0
C1084 C 0.84112 0.585 0.62351 0.0
C1085 C 0.83576 0.59023 0.59162 0.0
C1086 C 0.83726 0.60863 0.6442 0.0
C1087 C 0.82837 0.63818 0.63356 0.0
C1088 C 0.82495 0.64371 0.60151 0.0
C1089 C 0.82842 0.61997 0.58075 0.0
C1090 C 0.82287 0.71201 0.67556 0.0
C1091 C 0.80348 0.70833 0.69956 0.0
C1092 C 0.83087 0.68945 0.65382 0.0
C1093 C 0.8202 0.66253 0.65616 0.0
C1094 C 0.80104 0.65887 0.68029 0.0
C1095 C 0.79262 0.68152 0.70152 0.0
H1096 H 0.43287 0.74524 0.56442 0.0
H1097 H 0.47589 0.79344 0.62975 0.0
H1098 H 0.39085 0.74979 0.59804 0.0
H1099 H 0.43401 0.79748 0.66399 0.0
H1100 H 0.34421 0.8207 0.7083 0.0
H1101 H 0.38471 0.81956 0.6725 0.0
H1102 H 0.37502 0.73129 0.64459 0.0
H1103 H 0.33426 0.73289 0.67926 0.0
C1104 C 0.43352 0.75655 0.58616 0.0
C1105 C 0.45796 0.76878 0.59438 0.0
C1106 C 0.40933 0.75916 0.60558 0.0
C1107 C 0.40885 0.77385 0.63406 0.0
C1108 C 0.43323 0.78637 0.64214 0.0
C1109 C 0.45738 0.78397 0.62253 0.0
C1110 C 0.35053 0.8012 0.69424 0.0
C1111 C 0.33566 0.77702 0.69661 0.0
C1112 C 0.374 0.80041 0.67386 0.0
C1113 C 0.38336 0.77533 0.6554 0.0
C1114 C 0.36829 0.75128 0.65778 0.0
C1115 C 0.34481 0.75217 0.67791 0.0
H1116 H 0.34654 0.38065 0.58462 0.0
H1117 H 0.27592 0.44345 0.62265 0.0
H1118 H 0.34163 0.34527 0.62614 0.0
H1119 H 0.27049 0.40743 0.66392 0.0
H1120 H 0.28463 0.33965 0.7475 0.0
H1121 H 0.29451 0.37876 0.71101 0.0
H1122 H 0.3044 0.31511 0.63722 0.0
H1123 H 0.29477 0.27663 0.67319 0.0
C1124 C 0.33016 0.38714 0.60198 0.0
C1125 C 0.3115 0.41496 0.59998 0.0
C1126 C 0.32718 0.36667 0.62573 0.0
C1127 C 0.30549 0.37338 0.64824 0.0
C1128 C 0.28751 0.4016 0.64704 0.0
C1129 C 0.29041 0.42211 0.62313 0.0
C1130 C 0.28912 0.33415 0.7235 0.0
C1131 C 0.28884 0.30514 0.71316 0.0
C1132 C 0.29463 0.3565 0.7026 0.0
C1133 C 0.30036 0.35003 0.67119 0.0
C1134 C 0.3005 0.32083 0.66126 0.0
C1135 C 0.29476 0.29878 0.6819 0.0
H1136 H 0.5928 0.27843 0.55774 0.0
H1137 H 0.57256 0.21039 0.62039 0.0
H1138 H 0.62732 0.2914 0.59615 0.0
H1139 H 0.60643 0.22333 0.65847 0.0
H1140 H 0.65489 0.26669 0.73082 0.0
H1141 H 0.61602 0.26289 0.69377 0.0
H1142 H 0.67568 0.2652 0.6182 0.0
H1143 H 0.71449 0.26887 0.65527 0.0
C1144 C 0.5952 0.26676 0.57993 0.0
C1145 C 0.57992 0.24341 0.58603 0.0
C1146 C 0.61516 0.27395 0.60181 0.0
C1147 C 0.61975 0.25835 0.63045 0.0
C1148 C 0.60335 0.23602 0.6369 0.0
C1149 C 0.58395 0.22853 0.61496 0.0
C1150 C 0.65963 0.26657 0.70629 0.0
C1151 C 0.68783 0.26783 0.69602 0.0
C1152 C 0.63738 0.26436 0.68503 0.0
C1153 C 0.64266 0.26372 0.65292 0.0
C1154 C 0.6707 0.26596 0.64267 0.0
C1155 C 0.69302 0.26781 0.66395 0.0
H1156 H 0.8381 0.48529 0.44385 0.0
H1157 H 0.79896 0.42979 0.50681 0.0
H1158 H 0.84403 0.4454 0.40555 0.0
H1159 H 0.80499 0.39015 0.4691 0.0
H1160 H 0.83342 0.31671 0.40137 0.0
H1161 H 0.83995 0.35387 0.43967 0.0
H1162 H 0.80699 0.42433 0.37386 0.0
H1163 H 0.80051 0.38709 0.33555 0.0
C1164 C 0.83174 0.46422 0.44988 0.0
C1165 C 0.81823 0.4605 0.4783 0.0
C1166 C 0.83476 0.44155 0.42788 0.0
C1167 C 0.82479 0.41466 0.43421 0.0
C1168 C 0.81312 0.4104 0.46352 0.0
C1169 C 0.80967 0.43312 0.48516 0.0
C1170 C 0.82775 0.34014 0.39504 0.0
C1171 C 0.81621 0.34902 0.36559 0.0
C1172 C 0.8315 0.36142 0.41696 0.0
C1173 C 0.82403 0.39208 0.40982 0.0
C1174 C 0.81332 0.40092 0.37997 0.0
C1175 C 0.80934 0.3796 0.35814 0.0
H1176 H 0.65086 0.81068 0.47304 0.0
H1177 H 0.62532 0.73736 0.42512 0.0
H1178 H 0.6848 0.81692 0.43126 0.0
H1179 H 0.65736 0.74443 0.38269 0.0
H1180 H 0.73744 0.73743 0.32786 0.0
H1181 H 0.70505 0.7353 0.3703 0.0
H1182 H 0.69489 0.83086 0.37992 0.0
H1183 H 0.72991 0.83259 0.33781 0.0
C1184 C 0.65234 0.79612 0.45336 0.0
C1185 C 0.63588 0.77315 0.45259 0.0
C1186 C 0.67165 0.79978 0.42926 0.0
C1187 C 0.67453 0.78087 0.40352 0.0
C1188 C 0.65689 0.7588 0.40243 0.0
C1189 C 0.63826 0.75474 0.42673 0.0
C1190 C 0.7284 0.75822 0.33878 0.0
C1191 C 0.73619 0.78531 0.32893 0.0
C1192 C 0.70935 0.75699 0.36324 0.0
C1193 C 0.69633 0.78297 0.37838 0.0
C1194 C 0.70437 0.81026 0.36897 0.0
C1195 C 0.72432 0.81137 0.34468 0.0
H1196 H 0.25923 0.59553 0.4398 0.0
H1197 H 0.35157 0.57717 0.4239 0.0
H1198 H 0.25523 0.64185 0.40928 0.0
H1199 H 0.34756 0.62315 0.39311 0.0
H1200 H 0.33538 0.7209 0.36506 0.0
H1201 H 0.33649 0.67788 0.39952 0.0
H1202 H 0.2605 0.65729 0.35392 0.0
H1203 H 0.25918 0.70053 0.31933 0.0
C1204 C 0.27871 0.60148 0.43003 0.0
C1205 C 0.30575 0.58261 0.43432 0.0
C1206 C 0.27637 0.62789 0.4123 0.0
C1207 C 0.30107 0.63624 0.39877 0.0
C1208 C 0.32814 0.61756 0.40345 0.0
C1209 C 0.33042 0.59105 0.42086 0.0
C1210 C 0.31862 0.70751 0.36251 0.0
C1211 C 0.29722 0.71428 0.33921 0.0
C1212 C 0.31943 0.68265 0.38219 0.0
C1213 C 0.29876 0.66396 0.37932 0.0
C1214 C 0.27667 0.67131 0.35686 0.0
C1215 C 0.27598 0.69609 0.33695 0.0
H1216 H 0.44332 0.28345 0.47165 0.0
H1217 H 0.47671 0.21647 0.40535 0.0
H1218 H 0.40047 0.29967 0.43831 0.0
H1219 H 0.43445 0.2324 0.37242 0.0
H1220 H 0.36321 0.27638 0.30824 0.0
H1221 H 0.4079 0.27189 0.33902 0.0
H1222 H 0.35757 0.27807 0.42296 0.0
H1223 H 0.31307 0.28273 0.3922 0.0
C1224 C 0.44183 0.27262 0.44974 0.0
C1225 C 0.46343 0.2486 0.44126 0.0
C1226 C 0.41718 0.28171 0.43073 0.0
C1227 C 0.41386 0.26732 0.40258 0.0
C1228 C 0.43624 0.24429 0.39362 0.0
C1229 C 0.46049 0.235 0.4127 0.0
C1230 C 0.3617 0.27719 0.33324 0.0
C1231 C 0.3346 0.27957 0.34776 0.0
C1232 C 0.38732 0.2745 0.35094 0.0
C1233 C 0.38648 0.27436 0.3836 0.0
C1234 C 0.35917 0.27831 0.39795 0.0
C1235 C 0.33362 0.28078 0.38028 0.0
H1236 H 0.6069 0.84329 0.58942 0.0
H1237 H 0.58624 0.77118 0.6464 0.0
H1238 H 0.6465 0.84821 0.62502 0.0
H1239 H 0.62581 0.77578 0.68152 0.0
H1240 H 0.69261 0.79946 0.74821 0.0
H1241 H 0.64691 0.80588 0.71898 0.0
H1242 H 0.69353 0.81512 0.63425 0.0
H1243 H 0.73888 0.80885 0.66338 0.0
C1244 C 0.61035 0.829 0.6099 0.0
C1245 C 0.5937 0.80664 0.61493 0.0
C1246 C 0.63317 0.83162 0.63013 0.0
C1247 C 0.63954 0.8121 0.65586 0.0
C1248 C 0.62145 0.79126 0.66205 0.0
C1249 C 0.59884 0.78852 0.64177 0.0
C1250 C 0.69297 0.80294 0.72336 0.0
C1251 C 0.71926 0.8034 0.708 0.0
C1252 C 0.66685 0.80669 0.70664 0.0
C1253 C 0.66657 0.81116 0.6743 0.0
C1254 C 0.69288 0.81227 0.65917 0.0
C1255 C 0.71892 0.80837 0.67583 0.0
H1256 H 0.6109 0.25021 0.44022 0.0
H1257 H 0.64155 0.15512 0.43742 0.0
H1258 H 0.65292 0.25868 0.41088 0.0
H1259 H 0.68378 0.16363 0.40796 0.0
H1260 H 0.73246 0.1925 0.32211 0.0
H1261 H 0.69474 0.18091 0.35649 0.0
H1262 H 0.70508 0.25505 0.41382 0.0
H1263 H 0.74238 0.26707 0.37913 0.0
C1264 C 0.62681 0.23109 0.43379 0.0
C1265 C 0.62275 0.20196 0.44122 0.0
C1266 C 0.65099 0.23596 0.41694 0.0
C1267 C 0.6718 0.21184 0.40709 0.0
C1268 C 0.66798 0.1827 0.41485 0.0
C1269 C 0.64375 0.17782 0.43172 0.0
C1270 C 0.72699 0.20613 0.34225 0.0
C1271 C 0.74034 0.23088 0.34767 0.0
C1272 C 0.7054 0.19939 0.36207 0.0
C1273 C 0.69668 0.21722 0.38778 0.0
C1274 C 0.7109 0.24119 0.39391 0.0
C1275 C 0.73246 0.24795 0.3741 0.0
H1276 H 0.79612 0.63959 0.46162 0.0
H1277 H 0.74889 0.59796 0.39405 0.0
H1278 H 0.80717 0.67425 0.42259 0.0
H1279 H 0.75868 0.63442 0.35464 0.0
H1280 H 0.81631 0.68708 0.28979 0.0
H1281 H 0.80016 0.64965 0.32436 0.0
H1282 H 0.78085 0.71613 0.39499 0.0
H1283 H 0.79809 0.75216 0.36187 0.0
C1284 C 0.78797 0.63791 0.43837 0.0
C1285 C 0.7718 0.61587 0.43094 0.0
C1286 C 0.794 0.65808 0.41598 0.0
C1287 C 0.78356 0.65728 0.38555 0.0
C1288 C 0.76711 0.63544 0.3779 0.0
C1289 C 0.76119 0.61489 0.4005 0.0
C1290 C 0.80856 0.6934 0.31274 0.0
C1291 C 0.80905 0.72221 0.32343 0.0
C1292 C 0.79913 0.67219 0.33237 0.0
C1293 C 0.78985 0.67983 0.36264 0.0
C1294 C 0.78879 0.70921 0.37226 0.0
C1295 C 0.79871 0.7299 0.35317 0.0
H1296 H 0.46876 0.84583 0.48249 0.0
H1297 H 0.53481 0.81216 0.41641 0.0
H1298 H 0.43206 0.85194 0.44108 0.0
H1299 H 0.49852 0.81866 0.3751 0.0
H1300 H 0.42325 0.7741 0.33851 0.0
H1301 H 0.46143 0.785 0.37253 0.0
H1302 H 0.41243 0.87321 0.38748 0.0
H1303 H 0.37404 0.86225 0.35292 0.0
C1304 C 0.47561 0.84127 0.45887 0.0
C1305 C 0.50443 0.82838 0.4525 0.0
C1306 C 0.45464 0.84459 0.4352 0.0
C1307 C 0.46243 0.83508 0.40507 0.0
C1308 C 0.49187 0.82561 0.39824 0.0
C1309 C 0.51265 0.82215 0.42179 0.0
C1310 C 0.42079 0.79593 0.34874 0.0
C1311 C 0.39578 0.81732 0.34316 0.0
C1312 C 0.44272 0.80229 0.36803 0.0
C1313 C 0.44 0.83009 0.38243 0.0
C1314 C 0.41508 0.85167 0.37661 0.0
C1315 C 0.39323 0.84542 0.35684 0.0
H1316 H 0.22039 0.48644 0.43698 0.0
H1317 H 0.22767 0.40431 0.49036 0.0
H1318 H 0.21182 0.46007 0.39025 0.0
H1319 H 0.21979 0.37787 0.44359 0.0
H1320 H 0.206 0.33364 0.35637 0.0
H1321 H 0.19168 0.36798 0.3985 0.0
H1322 H 0.24791 0.42586 0.36251 0.0
H1323 H 0.26178 0.39205 0.32031 0.0
C1324 C 0.21948 0.46289 0.43888 0.0
C1325 C 0.22541 0.44729 0.46723 0.0
C1326 C 0.21466 0.44778 0.41207 0.0
C1327 C 0.21579 0.41677 0.41306 0.0
C1328 C 0.2187 0.40178 0.44198 0.0
C1329 C 0.22338 0.41694 0.46885 0.0
C1330 C 0.21471 0.35409 0.35696 0.0
C1331 C 0.23547 0.35982 0.33526 0.0
C1332 C 0.20658 0.37369 0.38122 0.0
C1333 C 0.2189 0.39945 0.3841 0.0
C1334 C 0.23778 0.40635 0.36091 0.0
C1335 C 0.24596 0.38677 0.33678 0.0
H1336 H 0.45039 0.14603 0.59475 0.0
H1337 H 0.46438 0.23621 0.6076 0.0
H1338 H 0.41817 0.15077 0.63959 0.0
H1339 H 0.43159 0.24129 0.65109 0.0
H1340 H 0.39523 0.23606 0.7447 0.0
H1341 H 0.43031 0.22312 0.70365 0.0
H1342 H 0.37021 0.17753 0.65603 0.0
H1343 H 0.33518 0.18991 0.69778 0.0
C1344 C 0.44661 0.16682 0.60705 0.0
C1345 C 0.45998 0.19074 0.59744 0.0
C1346 C 0.42799 0.1696 0.63257 0.0
C1347 C 0.42251 0.1963 0.64909 0.0
C1348 C 0.43573 0.2202 0.63928 0.0
C1349 C 0.45424 0.21744 0.61391 0.0
C1350 C 0.38964 0.22286 0.72573 0.0
C1351 C 0.36232 0.21428 0.72429 0.0
C1352 C 0.40969 0.2156 0.70209 0.0
C1353 C 0.40282 0.19987 0.67622 0.0
C1354 C 0.37619 0.18964 0.67567 0.0
C1355 C 0.35612 0.19672 0.69957 0.0
H1356 H 0.7301 0.46448 0.61003 0.0
H1357 H 0.81503 0.4824 0.63244 0.0
H1358 H 0.73758 0.4222 0.64615 0.0
H1359 H 0.82232 0.44087 0.66992 0.0
H1360 H 0.83551 0.34355 0.70917 0.0
H1361 H 0.83075 0.38786 0.67494 0.0
H1362 H 0.73989 0.41072 0.69867 0.0
H1363 H 0.74429 0.36603 0.73032 0.0
C1364 C 0.75011 0.45965 0.62329 0.0
C1365 C 0.77191 0.47661 0.61868 0.0
C1366 C 0.75449 0.43549 0.64405 0.0
C1367 C 0.78055 0.42819 0.66122 0.0
C1368 C 0.80221 0.44555 0.65683 0.0
C1369 C 0.79798 0.46941 0.63559 0.0
C1370 C 0.81469 0.35827 0.70696 0.0
C1371 C 0.79021 0.35127 0.72194 0.0
C1372 C 0.81191 0.38367 0.68755 0.0
C1373 C 0.78473 0.40258 0.68352 0.0
C1374 C 0.76087 0.39622 0.70022 0.0
C1375 C 0.76349 0.37071 0.71872 0.0
H1376 H 0.2989 0.59382 0.56105 0.0
H1377 H 0.23276 0.54715 0.59593 0.0
H1378 H 0.28529 0.63253 0.59918 0.0
H1379 H 0.21962 0.58587 0.63504 0.0
H1380 H 0.23437 0.70978 0.65041 0.0
H1381 H 0.23486 0.67156 0.61146 0.0
H1382 H 0.25591 0.60288 0.68211 0.0
H1383 H 0.25594 0.64123 0.72132 0.0
C1384 C 0.28135 0.59198 0.57684 0.0
C1385 C 0.26686 0.56763 0.57574 0.0
C1386 C 0.2735 0.61414 0.59847 0.0
C1387 C 0.25144 0.61201 0.61979 0.0
C1388 C 0.23666 0.58783 0.61865 0.0
C1389 C 0.24407 0.5659 0.59635 0.0
C1390 C 0.23857 0.68655 0.65775 0.0
C1391 C 0.24551 0.67832 0.68871 0.0
C1392 C 0.23875 0.66479 0.63551 0.0
C1393 C 0.24542 0.63451 0.64398 0.0
C1394 C 0.25045 0.6262 0.67524 0.0
C1395 C 0.25066 0.64803 0.69752 0.0
loop_
_geom_bond_atom_site_label_1
_geom_bond_atom_site_label_2
_geom_bond_distance
_geom_bond_site_symmetry_2
_ccdc_geom_bond_type
Cu0 N1 1.999 1_565 S
Cu0 O6 1.974 . S
Cu0 N11 1.978 1_455 S
Cu0 O20 1.959 1_465 S
N1 Cu0 1.999 1_545 S
N1 C3 1.263 . S
N1 C5 1.389 . S
N2 C3 1.358 . S
N2 C4 1.400 . S
C3 N1 1.263 . S
C3 N2 1.358 . S
C3 H9 0.930 . S
C4 N2 1.400 . S
C4 C5 1.351 . S
C4 H21 0.930 . S
C5 N1 1.389 . S
C5 C4 1.351 . S
C5 H10 0.930 . S
O6 Cu0 1.974 . S
O6 C16 1.282 . S
C7 O8 1.261 . S
C7 O20 1.251 . S
O8 C7 1.261 . S
H9 C3 0.930 . S
H10 C5 0.930 . S
N11 Cu0 1.978 1_655 S
N11 C13 1.345 . S
N11 C14 1.388 1_655 S
N12 C13 1.345 . S
N12 C15 1.336 . S
C13 N11 1.345 . S
C13 N12 1.345 . S
C13 H18 0.930 . S
C14 N11 1.388 1_455 S
C14 C15 1.346 1_455 S
C14 H19 0.930 . S
C15 N12 1.336 . S
C15 C14 1.346 1_655 S
C15 H22 0.929 . S
C16 O6 1.282 . S
C16 O17 1.216 . S
O17 C16 1.216 . S
H18 C13 0.930 . S
H19 C14 0.930 . S
O20 Cu0 1.959 1_645 S
O20 C7 1.251 . S
H21 C4 0.930 . S
H22 C15 0.929 . S
Cu23 N24 1.983 1_445 S
Cu23 O29 1.957 1_455 S
Cu23 N34 2.001 . S
Cu23 O43 1.976 1_545 S
N24 Cu23 1.983 1_665 S
N24 C26 1.263 . S
N24 C28 1.389 . S
N25 C26 1.358 . S
N25 C27 1.400 . S
C26 N24 1.263 . S
C26 N25 1.358 . S
C26 H32 0.930 1_565 S
C27 N25 1.400 . S
C27 C28 1.351 . S
C27 H44 0.930 . S
C28 N24 1.389 . S
C28 C27 1.351 . S
C28 H33 0.930 . S
O29 Cu23 1.957 1_655 S
O29 C39 1.282 . S
C30 O31 1.261 . S
C30 O43 1.251 . S
O31 C30 1.261 . S
H32 C26 0.930 1_545 S
H33 C28 0.930 . S
N34 Cu23 2.001 . S
N34 C36 1.335 . S
N34 C37 1.390 . S
N35 C36 1.345 . S
N35 C38 1.336 . S
C36 N34 1.335 . S
C36 N35 1.345 . S
C36 H41 0.930 . S
C37 N34 1.390 . S
C37 C38 1.346 . S
C37 H42 0.940 . S
C38 N35 1.336 . S
C38 C37 1.346 . S
C38 H45 0.929 . S
C39 O29 1.282 . S
C39 O40 1.216 . S
O40 C39 1.216 . S
H41 C36 0.930 . S
H42 C37 0.940 . S
O43 Cu23 1.976 1_565 S
O43 C30 1.251 . S
H44 C27 0.930 . S
H45 C38 0.929 . S
Cu46 N47 1.999 1_545 S
Cu46 O52 1.974 1_545 S
Cu46 N57 1.985 . S
Cu46 O66 1.959 . S
N47 Cu46 1.999 1_565 S
N47 C49 1.263 . S
N47 C51 1.389 1_554 S
N48 C49 1.358 1_556 S
N48 C50 1.400 . S
C49 N47 1.263 . S
C49 N48 1.358 1_554 S
C49 H55 0.930 . S
C50 N48 1.400 . S
C50 C51 1.351 . S
C50 H67 0.930 . S
C51 N47 1.389 1_556 S
C51 C50 1.351 . S
C51 H56 0.930 . S
O52 Cu46 1.974 1_565 S
O52 C62 1.282 . S
C53 O54 1.262 . S
C53 O66 1.253 . S
O54 C53 1.262 . S
H55 C49 0.930 . S
H56 C51 0.930 . S
N57 Cu46 1.985 . S
N57 C59 1.335 . S
N57 C60 1.390 . S
N58 C59 1.345 . S
N58 C61 1.336 . S
C59 N57 1.335 . S
C59 N58 1.345 . S
C59 H64 0.930 . S
C60 N57 1.390 . S
C60 C61 1.346 . S
C60 H65 0.930 . S
C61 N58 1.336 . S
C61 C60 1.346 . S
C61 H68 0.929 . S
C62 O52 1.282 . S
C62 O63 1.216 . S
O63 C62 1.216 . S
H64 C59 0.930 . S
H65 C60 0.930 . S
O66 Cu46 1.959 . S
O66 C53 1.253 . S
H67 C50 0.930 . S
H68 C61 0.929 . S
Cu69 N70 1.999 1_554 S
Cu69 O75 1.974 . S
Cu69 N80 1.985 1_455 S
Cu69 O89 1.941 1_454 S
N70 Cu69 1.999 1_556 S
N70 C72 1.263 . S
N70 C74 1.389 . S
N71 C72 1.358 . S
N71 C73 1.400 . S
C72 N70 1.263 . S
C72 N71 1.358 . S
C72 H78 0.930 1_556 S
C73 N71 1.400 . S
C73 C74 1.351 . S
C73 H90 0.930 . S
C74 N70 1.389 . S
C74 C73 1.351 . S
C74 H79 0.930 . S
O75 Cu69 1.974 . S
O75 C85 1.282 . S
C76 O77 1.261 . S
C76 O89 1.261 . S
O77 C76 1.261 . S
H78 C72 0.930 1_554 S
H79 C74 0.930 . S
N80 Cu69 1.985 1_655 S
N80 C82 1.335 . S
N80 C83 1.390 . S
N81 C82 1.345 . S
N81 C84 1.336 . S
C82 N80 1.335 . S
C82 N81 1.345 . S
C82 H87 0.930 . S
C83 N80 1.390 . S
C83 C84 1.346 . S
C83 H88 0.930 1_655 S
C84 N81 1.336 . S
C84 C83 1.346 . S
C84 H91 0.929 . S
C85 O75 1.282 . S
C85 O86 1.216 . S
O86 C85 1.216 . S
H87 C82 0.930 . S
H88 C83 0.930 1_455 S
O89 Cu69 1.941 1_656 S
O89 C76 1.261 . S
H90 C73 0.930 . S
H91 C84 0.929 . S
Cu92 N93 1.999 1_554 S
Cu92 O98 1.974 . S
Cu92 N103 1.985 1_545 S
Cu92 O112 1.959 1_544 S
N93 Cu92 1.999 1_556 S
N93 C95 1.263 . S
N93 C97 1.389 . S
N94 C95 1.358 . S
N94 C96 1.400 . S
C95 N93 1.263 . S
C95 N94 1.358 . S
C95 H101 0.930 . S
C96 N94 1.400 . S
C96 C97 1.351 . S
C96 H113 0.930 . S
C97 N93 1.389 . S
C97 C96 1.351 . S
C97 H102 0.930 . S
O98 Cu92 1.974 . S
O98 C108 1.282 . S
C99 O100 1.261 . S
C99 O112 1.251 . S
O100 C99 1.261 . S
H101 C95 0.930 . S
H102 C97 0.930 . S
N103 Cu92 1.985 1_565 S
N103 C105 1.335 . S
N103 C106 1.390 . S
N104 C105 1.345 . S
N104 C107 1.336 . S
C105 N103 1.335 . S
C105 N104 1.345 . S
C105 H110 0.930 . S
C106 N103 1.390 . S
C106 C107 1.346 . S
C106 H111 0.930 1_565 S
C107 N104 1.336 . S
C107 C106 1.346 . S
C107 H114 0.929 . S
C108 O98 1.282 . S
C108 O109 1.216 . S
O109 C108 1.216 . S
H110 C105 0.930 . S
H111 C106 0.930 1_545 S
O112 Cu92 1.959 1_566 S
O112 C99 1.251 . S
H113 C96 0.930 . S
H114 C107 0.929 . S
Cu115 N116 1.999 1_454 S
Cu115 O121 1.974 1_455 S
Cu115 N126 1.985 . S
Cu115 O135 1.959 1_554 S
N116 Cu115 1.999 1_656 S
N116 C118 1.263 . S
N116 C120 1.389 . S
N117 C118 1.358 . S
N117 C119 1.400 . S
C118 N116 1.263 . S
C118 N117 1.358 . S
C118 H124 0.930 . S
C119 N117 1.400 . S
C119 C120 1.351 . S
C119 H136 0.930 . S
C120 N116 1.389 . S
C120 C119 1.351 . S
C120 H125 0.930 1_655 S
O121 Cu115 1.974 1_655 S
O121 C131 1.282 . S
C122 O123 1.261 . S
C122 O135 1.251 . S
O123 C122 1.261 . S
H124 C118 0.930 . S
H125 C120 0.930 1_455 S
N126 Cu115 1.985 . S
N126 C128 1.335 . S
N126 C129 1.390 . S
N127 C128 1.345 . S
N127 C130 1.336 . S
C128 N126 1.335 . S
C128 N127 1.345 . S
C128 H133 0.930 . S
C129 N126 1.390 . S
C129 C130 1.346 . S
C129 H134 0.930 . S
C130 N127 1.336 . S
C130 C129 1.346 . S
C130 H137 0.929 . S
C131 O121 1.282 . S
C131 O132 1.216 . S
O132 C131 1.216 . S
H133 C128 0.930 . S
H134 C129 0.930 . S
O135 Cu115 1.959 1_556 S
O135 C122 1.251 . S
H136 C119 0.930 . S
H137 C130 0.929 . S
Cu138 N139 1.999 . S
Cu138 O144 1.974 . S
Cu138 N149 1.985 . S
Cu138 O158 1.959 . S
N139 Cu138 1.999 . S
N139 C141 1.263 . S
N139 C143 1.389 . S
N140 C141 1.358 . S
N140 C142 1.400 . S
C141 N139 1.263 . S
C141 N140 1.358 . S
C141 H147 0.930 . S
C142 N140 1.400 . S
C142 C143 1.351 . S
C142 H159 0.930 . S
C143 N139 1.389 . S
C143 C142 1.351 . S
C143 H148 0.930 . S
O144 Cu138 1.974 . S
O144 C154 1.282 . S
C145 O146 1.261 . S
C145 O158 1.251 . S
O146 C145 1.261 . S
H147 C141 0.930 . S
H148 C143 0.930 . S
N149 Cu138 1.985 . S
N149 C151 1.335 . S
N149 C152 1.390 . S
N150 C151 1.345 . S
N150 C153 1.336 . S
C151 N149 1.335 . S
C151 N150 1.345 . S
C151 H156 0.930 . S
C152 N149 1.390 . S
C152 C153 1.346 . S
C152 H157 0.930 . S
C153 N150 1.336 . S
C153 C152 1.346 . S
C153 H160 0.929 . S
C154 O144 1.282 . S
C154 O155 1.216 . S
O155 C154 1.216 . S
H156 C151 0.930 . S
H157 C152 0.930 . S
O158 Cu138 1.959 . S
O158 C145 1.251 . S
H159 C142 0.930 . S
H160 C153 0.929 . S
Cu161 N162 1.999 . S
Cu161 O167 1.974 . S
Cu161 N172 1.985 . S
Cu161 O181 1.959 . S
N162 Cu161 1.999 . S
N162 C164 1.263 . S
N162 C166 1.389 . S
N163 C164 1.358 . S
N163 C165 1.400 . S
C164 N162 1.263 . S
C164 N163 1.358 . S
C164 H170 0.930 . S
C165 N163 1.400 . S
C165 C166 1.351 . S
C165 H182 0.930 . S
C166 N162 1.389 . S
C166 C165 1.351 . S
C166 H171 0.930 . S
O167 Cu161 1.974 . S
O167 C177 1.282 . S
C168 O169 1.261 . S
C168 O181 1.251 . S
O169 C168 1.261 . S
H170 C164 0.930 . S
H171 C166 0.930 . S
N172 Cu161 1.985 . S
N172 C174 1.335 . S
N172 C175 1.390 . S
N173 C174 1.345 . S
N173 C176 1.336 . S
C174 N172 1.335 . S
C174 N173 1.345 . S
C174 H179 0.930 . S
C175 N172 1.390 . S
C175 C176 1.346 . S
C175 H180 0.930 . S
C176 N173 1.336 . S
C176 C175 1.346 . S
C176 H183 0.929 . S
C177 O167 1.282 . S
C177 O178 1.216 . S
O178 C177 1.216 . S
H179 C174 0.930 . S
H180 C175 0.930 . S
O181 Cu161 1.959 . S
O181 C168 1.251 . S
H182 C165 0.930 . S
H183 C176 0.929 . S
Cu184 N185 1.999 . S
Cu184 O190 1.974 . S
Cu184 N195 1.985 . S
Cu184 O204 1.959 . S
N185 Cu184 1.999 . S
N185 C187 1.263 . S
N185 C189 1.389 . S
N186 C187 1.358 . S
N186 C188 1.400 . S
C187 N185 1.263 . S
C187 N186 1.358 . S
C187 H193 0.930 . S
C188 N186 1.400 . S
C188 C189 1.351 . S
C188 H205 0.930 . S
C189 N185 1.389 . S
C189 C188 1.351 . S
C189 H194 0.930 . S
O190 Cu184 1.974 . S
O190 C200 1.282 . S
C191 O192 1.261 . S
C191 O204 1.251 . S
O192 C191 1.261 . S
H193 C187 0.930 . S
H194 C189 0.930 . S
N195 Cu184 1.985 . S
N195 C197 1.335 . S
N195 C198 1.390 . S
N196 C197 1.345 . S
N196 C199 1.336 . S
C197 N195 1.335 . S
C197 N196 1.345 . S
C197 H202 0.930 . S
C198 N195 1.390 . S
C198 C199 1.346 . S
C198 H203 0.930 . S
C199 N196 1.336 . S
C199 C198 1.346 . S
C199 H206 0.929 . S
C200 O190 1.282 . S
C200 O201 1.216 . S
O201 C200 1.216 . S
H202 C197 0.930 . S
H203 C198 0.930 . S
O204 Cu184 1.959 . S
O204 C191 1.251 . S
H205 C188 0.930 . S
H206 C199 0.929 . S
Cu207 N208 1.999 . S
Cu207 O213 1.974 . S
Cu207 N218 1.985 . S
Cu207 O227 1.959 . S
N208 Cu207 1.999 . S
N208 C210 1.263 . S
N208 C212 1.389 . S
N209 C210 1.358 . S
N209 C211 1.400 . S
C210 N208 1.263 . S
C210 N209 1.358 . S
C210 H216 0.930 . S
C211 N209 1.400 . S
C211 C212 1.351 . S
C211 H228 0.930 . S
C212 N208 1.389 . S
C212 C211 1.351 . S
C212 H217 0.930 . S
O213 Cu207 1.974 . S
O213 C223 1.282 . S
C214 O215 1.261 . S
C214 O227 1.251 . S
O215 C214 1.261 . S
H216 C210 0.930 . S
H217 C212 0.930 . S
N218 Cu207 1.985 . S
N218 C220 1.335 . S
N218 C221 1.390 . S
N219 C220 1.345 . S
N219 C222 1.336 . S
C220 N218 1.335 . S
C220 N219 1.345 . S
C220 H225 0.930 . S
C221 N218 1.390 . S
C221 C222 1.346 . S
C221 H226 0.930 . S
C222 N219 1.336 . S
C222 C221 1.346 . S
C222 H229 0.929 . S
C223 O213 1.282 . S
C223 O224 1.216 . S
O224 C223 1.216 . S
H225 C220 0.930 . S
H226 C221 0.930 . S
O227 Cu207 1.959 . S
O227 C214 1.251 . S
H228 C211 0.930 . S
H229 C222 0.929 . S
Cu230 N231 1.999 . S
Cu230 O236 1.974 . S
Cu230 N241 1.985 . S
Cu230 O250 1.959 . S
N231 Cu230 1.999 . S
N231 C233 1.263 . S
N231 C235 1.389 . S
N232 C233 1.358 . S
N232 C234 1.400 . S
C233 N231 1.263 . S
C233 N232 1.358 . S
C233 H239 0.930 . S
C234 N232 1.400 . S
C234 C235 1.351 . S
C234 H251 0.930 . S
C235 N231 1.389 . S
C235 C234 1.351 . S
C235 H240 0.930 . S
O236 Cu230 1.974 . S
O236 C246 1.282 . S
C237 O238 1.261 . S
C237 O250 1.251 . S
O238 C237 1.261 . S
H239 C233 0.930 . S
H240 C235 0.930 . S
N241 Cu230 1.985 . S
N241 C243 1.335 . S
N241 C244 1.390 . S
N242 C243 1.345 . S
N242 C245 1.336 . S
C243 N241 1.335 . S
C243 N242 1.345 . S
C243 H248 0.930 . S
C244 N241 1.390 . S
C244 C245 1.346 . S
C244 H249 0.930 . S
C245 N242 1.336 . S
C245 C244 1.346 . S
C245 H252 0.929 . S
C246 O236 1.282 . S
C246 O247 1.216 . S
O247 C246 1.216 . S
H248 C243 0.930 . S
H249 C244 0.930 . S
O250 Cu230 1.959 . S
O250 C237 1.251 . S
H251 C234 0.930 . S
H252 C245 0.929 . S
Cu253 N254 1.999 . S
Cu253 O259 1.974 . S
Cu253 N264 1.985 . S
Cu253 O273 1.959 . S
N254 Cu253 1.999 . S
N254 C256 1.263 . S
N254 C258 1.389 . S
N255 C256 1.358 . S
N255 C257 1.400 . S
C256 N254 1.263 . S
C256 N255 1.358 . S
C256 H262 0.930 . S
C257 N255 1.400 . S
C257 C258 1.351 . S
C257 H274 0.930 . S
C258 N254 1.389 . S
C258 C257 1.351 . S
C258 H263 0.930 . S
O259 Cu253 1.974 . S
O259 C269 1.282 . S
C260 O261 1.261 . S
C260 O273 1.251 . S
O261 C260 1.261 . S
H262 C256 0.930 . S
H263 C258 0.930 . S
N264 Cu253 1.985 . S
N264 C266 1.335 . S
N264 C267 1.390 . S
N265 C266 1.345 . S
N265 C268 1.336 . S
C266 N264 1.335 . S
C266 N265 1.345 . S
C266 H271 0.930 . S
C267 N264 1.390 . S
C267 C268 1.346 . S
C267 H272 0.930 . S
C268 N265 1.336 . S
C268 C267 1.346 . S
C268 H275 0.929 . S
C269 O259 1.282 . S
C269 O270 1.216 . S
O270 C269 1.216 . S
H271 C266 0.930 . S
H272 C267 0.930 . S
O273 Cu253 1.959 . S
O273 C260 1.251 . S
H274 C257 0.930 . S
H275 C268 0.929 . S
Dy276 O280 2.398 . S
Dy276 O281 2.491 . S
Dy276 O282 2.403 . S
Dy276 O283 2.664 . S
Dy276 O287 2.326 . S
Dy276 O291 2.310 . S
Dy276 O292 2.351 . S
C277 O288 1.185 . S
C277 O289 1.355 . S
C278 O280 1.185 . S
C278 O281 1.355 . S
Dy279 O283 2.310 . S
Dy279 O286 2.351 . S
Dy279 O288 2.398 . S
Dy279 O289 2.491 . S
Dy279 O290 2.403 . S
Dy279 O291 2.664 . S
Dy279 O293 2.326 . S
O280 Dy276 2.398 . S
O280 C278 1.185 . S
O281 Dy276 2.491 . S
O281 C278 1.355 . S
O282 Dy276 2.403 . S
O282 C284 1.254 . S
O283 Dy276 2.664 . S
O283 Dy279 2.310 . S
O283 C284 1.268 . S
C284 O282 1.254 . S
C284 O283 1.268 . S
C285 O290 1.254 . S
C285 O291 1.268 . S
O286 Dy279 2.351 . S
O286 C294 1.249 . S
O287 Dy276 2.326 . S
O287 C294 1.267 . S
O288 C277 1.185 . S
O288 Dy279 2.398 . S
O289 C277 1.355 . S
O289 Dy279 2.491 . S
O290 Dy279 2.403 . S
O290 C285 1.254 . S
O291 Dy276 2.310 . S
O291 Dy279 2.664 . S
O291 C285 1.268 . S
O292 Dy276 2.351 . S
O292 C295 1.249 . S
O293 Dy279 2.326 . S
O293 C295 1.267 . S
C294 O286 1.249 . S
C294 O287 1.267 . S
C295 O292 1.249 . S
C295 O293 1.267 . S
Dy296 O300 2.398 . S
Dy296 O301 2.491 . S
Dy296 O302 2.403 . S
Dy296 O303 2.664 . S
Dy296 O307 2.326 . S
Dy296 O311 2.310 . S
Dy296 O312 2.351 . S
C297 O308 1.185 . S
C297 O309 1.355 . S
C298 O300 1.185 . S
C298 O301 1.355 . S
Dy299 O303 2.310 . S
Dy299 O306 2.351 . S
Dy299 O308 2.398 . S
Dy299 O309 2.491 . S
Dy299 O310 2.403 . S
Dy299 O311 2.664 . S
Dy299 O313 2.326 . S
O300 Dy296 2.398 . S
O300 C298 1.185 . S
O301 Dy296 2.491 . S
O301 C298 1.355 . S
O302 Dy296 2.403 . S
O302 C304 1.254 . S
O303 Dy296 2.664 . S
O303 Dy299 2.310 . S
O303 C304 1.268 . S
C304 O302 1.254 . S
C304 O303 1.268 . S
C305 O310 1.254 . S
C305 O311 1.268 . S
O306 Dy299 2.351 . S
O306 C314 1.249 . S
O307 Dy296 2.326 . S
O307 C314 1.267 . S
O308 C297 1.185 . S
O308 Dy299 2.398 . S
O309 C297 1.355 . S
O309 Dy299 2.491 . S
O310 Dy299 2.403 . S
O310 C305 1.254 . S
O311 Dy296 2.310 . S
O311 Dy299 2.664 . S
O311 C305 1.268 . S
O312 Dy296 2.351 . S
O312 C315 1.249 . S
O313 Dy299 2.326 . S
O313 C315 1.267 . S
C314 O306 1.249 . S
C314 O307 1.267 . S
C315 O312 1.249 . S
C315 O313 1.267 . S
Dy316 O320 2.398 . S
Dy316 O321 2.491 . S
Dy316 O322 2.403 . S
Dy316 O323 2.664 . S
Dy316 O327 2.326 . S
Dy316 O331 2.310 . S
Dy316 O332 2.351 . S
C317 O328 1.185 . S
C317 O329 1.355 . S
C318 O320 1.185 . S
C318 O321 1.355 . S
Dy319 O323 2.310 . S
Dy319 O326 2.351 . S
Dy319 O328 2.398 . S
Dy319 O329 2.491 . S
Dy319 O330 2.403 . S
Dy319 O331 2.664 . S
Dy319 O333 2.326 . S
O320 Dy316 2.398 . S
O320 C318 1.185 . S
O321 Dy316 2.491 . S
O321 C318 1.355 . S
O322 Dy316 2.403 . S
O322 C324 1.254 . S
O323 Dy316 2.664 . S
O323 Dy319 2.310 . S
O323 C324 1.268 . S
C324 O322 1.254 . S
C324 O323 1.268 . S
C325 O330 1.254 . S
C325 O331 1.268 . S
O326 Dy319 2.351 . S
O326 C334 1.249 . S
O327 Dy316 2.326 . S
O327 C334 1.267 . S
O328 C317 1.185 . S
O328 Dy319 2.398 . S
O329 C317 1.355 . S
O329 Dy319 2.491 . S
O330 Dy319 2.403 . S
O330 C325 1.254 . S
O331 Dy316 2.310 . S
O331 Dy319 2.664 . S
O331 C325 1.268 . S
O332 Dy316 2.351 . S
O332 C335 1.249 . S
O333 Dy319 2.326 . S
O333 C335 1.267 . S
C334 O326 1.249 . S
C334 O327 1.267 . S
C335 O332 1.249 . S
C335 O333 1.267 . S
Dy336 O340 2.398 . S
Dy336 O341 2.491 . S
Dy336 O342 2.403 . S
Dy336 O343 2.664 . S
Dy336 O347 2.326 . S
Dy336 O351 2.310 . S
Dy336 O352 2.351 . S
C337 O348 1.185 . S
C337 O349 1.355 . S
C338 O340 1.185 . S
C338 O341 1.355 . S
Dy339 O343 2.310 . S
Dy339 O346 2.351 . S
Dy339 O348 2.398 . S
Dy339 O349 2.491 . S
Dy339 O350 2.403 . S
Dy339 O351 2.664 . S
Dy339 O353 2.326 . S
O340 Dy336 2.398 . S
O340 C338 1.185 . S
O341 Dy336 2.491 . S
O341 C338 1.355 . S
O342 Dy336 2.403 . S
O342 C344 1.254 . S
O343 Dy336 2.664 . S
O343 Dy339 2.310 . S
O343 C344 1.268 . S
C344 O342 1.254 . S
C344 O343 1.268 . S
C345 O350 1.254 . S
C345 O351 1.268 . S
O346 Dy339 2.351 . S
O346 C354 1.249 . S
O347 Dy336 2.326 . S
O347 C354 1.267 . S
O348 C337 1.185 . S
O348 Dy339 2.398 . S
O349 C337 1.355 . S
O349 Dy339 2.491 . S
O350 Dy339 2.403 . S
O350 C345 1.254 . S
O351 Dy336 2.310 . S
O351 Dy339 2.664 . S
O351 C345 1.268 . S
O352 Dy336 2.351 . S
O352 C355 1.249 . S
O353 Dy339 2.326 . S
O353 C355 1.267 . S
C354 O346 1.249 . S
C354 O347 1.267 . S
C355 O352 1.249 . S
C355 O353 1.267 . S
Dy356 O360 2.398 . S
Dy356 O361 2.491 . S
Dy356 O362 2.403 . S
Dy356 O363 2.664 . S
Dy356 O367 2.326 . S
Dy356 O371 2.310 . S
Dy356 O372 2.351 . S
C357 O368 1.185 . S
C357 O369 1.355 . S
C358 O360 1.185 . S
C358 O361 1.355 . S
Dy359 O363 2.310 . S
Dy359 O366 2.351 . S
Dy359 O368 2.398 . S
Dy359 O369 2.491 . S
Dy359 O370 2.403 . S
Dy359 O371 2.664 . S
Dy359 O373 2.326 . S
O360 Dy356 2.398 . S
O360 C358 1.185 . S
O361 Dy356 2.491 . S
O361 C358 1.355 . S
O362 Dy356 2.403 . S
O362 C364 1.254 . S
O363 Dy356 2.664 . S
O363 Dy359 2.310 . S
O363 C364 1.268 . S
C364 O362 1.254 . S
C364 O363 1.268 . S
C365 O370 1.254 . S
C365 O371 1.268 . S
O366 Dy359 2.351 . S
O366 C374 1.249 . S
O367 Dy356 2.326 . S
O367 C374 1.267 . S
O368 C357 1.185 . S
O368 Dy359 2.398 . S
O369 C357 1.355 . S
O369 Dy359 2.491 . S
O370 Dy359 2.403 . S
O370 C365 1.254 . S
O371 Dy356 2.310 . S
O371 Dy359 2.664 . S
O371 C365 1.268 . S
O372 Dy356 2.351 . S
O372 C375 1.249 . S
O373 Dy359 2.326 . S
O373 C375 1.267 . S
C374 O366 1.249 . S
C374 O367 1.267 . S
C375 O372 1.249 . S
C375 O373 1.267 . S
Dy376 O380 2.398 . S
Dy376 O381 2.491 . S
Dy376 O382 2.403 . S
Dy376 O383 2.664 . S
Dy376 O387 2.326 . S
Dy376 O391 2.310 . S
Dy376 O392 2.351 . S
C377 O388 1.185 . S
C377 O389 1.355 . S
C378 O380 1.185 . S
C378 O381 1.355 . S
Dy379 O383 2.310 . S
Dy379 O386 2.351 . S
Dy379 O388 2.398 . S
Dy379 O389 2.491 . S
Dy379 O390 2.403 . S
Dy379 O391 2.664 . S
Dy379 O393 2.326 . S
O380 Dy376 2.398 . S
O380 C378 1.185 . S
O381 Dy376 2.491 . S
O381 C378 1.355 . S
O382 Dy376 2.403 . S
O382 C384 1.254 . S
O383 Dy376 2.664 . S
O383 Dy379 2.310 . S
O383 C384 1.268 . S
C384 O382 1.254 . S
C384 O383 1.268 . S
C385 O390 1.254 . S
C385 O391 1.268 . S
O386 Dy379 2.351 . S
O386 C394 1.249 . S
O387 Dy376 2.326 . S
O387 C394 1.267 . S
O388 C377 1.185 . S
O388 Dy379 2.398 . S
O389 C377 1.355 . S
O389 Dy379 2.491 . S
O390 Dy379 2.403 . S
O390 C385 1.254 . S
O391 Dy376 2.310 . S
O391 Dy379 2.664 . S
O391 C385 1.268 . S
O392 Dy376 2.351 . S
O392 C395 1.249 . S
O393 Dy379 2.326 . S
O393 C395 1.267 . S
C394 O386 1.249 . S
C394 O387 1.267 . S
C395 O392 1.249 . S
C395 O393 1.267 . S
Dy396 O400 2.398 . S
Dy396 O401 2.491 . S
Dy396 O402 2.403 . S
Dy396 O403 2.664 . S
Dy396 O407 2.326 . S
Dy396 O411 2.310 . S
Dy396 O412 2.351 . S
C397 O408 1.185 . S
C397 O409 1.355 . S
C398 O400 1.185 . S
C398 O401 1.355 . S
Dy399 O403 2.310 . S
Dy399 O406 2.351 . S
Dy399 O408 2.398 . S
Dy399 O409 2.491 . S
Dy399 O410 2.403 . S
Dy399 O411 2.664 . S
Dy399 O413 2.326 . S
O400 Dy396 2.398 . S
O400 C398 1.185 . S
O401 Dy396 2.491 . S
O401 C398 1.355 . S
O402 Dy396 2.403 . S
O402 C404 1.254 . S
O403 Dy396 2.664 . S
O403 Dy399 2.310 . S
O403 C404 1.268 . S
C404 O402 1.254 . S
C404 O403 1.268 . S
C405 O410 1.254 . S
C405 O411 1.268 . S
O406 Dy399 2.351 . S
O406 C414 1.249 . S
O407 Dy396 2.326 . S
O407 C414 1.267 . S
O408 C397 1.185 . S
O408 Dy399 2.398 . S
O409 C397 1.355 . S
O409 Dy399 2.491 . S
O410 Dy399 2.403 . S
O410 C405 1.254 . S
O411 Dy396 2.310 . S
O411 Dy399 2.664 . S
O411 C405 1.268 . S
O412 Dy396 2.351 . S
O412 C415 1.249 . S
O413 Dy399 2.326 . S
O413 C415 1.267 . S
C414 O406 1.249 . S
C414 O407 1.267 . S
C415 O412 1.249 . S
C415 O413 1.267 . S
Dy416 O420 2.398 . S
Dy416 O421 2.491 . S
Dy416 O422 2.403 . S
Dy416 O423 2.664 . S
Dy416 O427 2.326 . S
Dy416 O431 2.310 . S
Dy416 O432 2.351 . S
C417 O428 1.185 . S
C417 O429 1.355 . S
C418 O420 1.185 . S
C418 O421 1.355 . S
Dy419 O423 2.310 . S
Dy419 O426 2.351 . S
Dy419 O428 2.398 . S
Dy419 O429 2.491 . S
Dy419 O430 2.403 . S
Dy419 O431 2.664 . S
Dy419 O433 2.326 . S
O420 Dy416 2.398 . S
O420 C418 1.185 . S
O421 Dy416 2.491 . S
O421 C418 1.355 . S
O422 Dy416 2.403 . S
O422 C424 1.254 . S
O423 Dy416 2.664 . S
O423 Dy419 2.310 . S
O423 C424 1.268 . S
C424 O422 1.254 . S
C424 O423 1.268 . S
C425 O430 1.254 . S
C425 O431 1.268 . S
O426 Dy419 2.351 . S
O426 C434 1.249 . S
O427 Dy416 2.326 . S
O427 C434 1.267 . S
O428 C417 1.185 . S
O428 Dy419 2.398 . S
O429 C417 1.355 . S
O429 Dy419 2.491 . S
O430 Dy419 2.403 . S
O430 C425 1.254 . S
O431 Dy416 2.310 . S
O431 Dy419 2.664 . S
O431 C425 1.268 . S
O432 Dy416 2.351 . S
O432 C435 1.249 . S
O433 Dy419 2.326 . S
O433 C435 1.267 . S
C434 O426 1.249 . S
C434 O427 1.267 . S
C435 O432 1.249 . S
C435 O433 1.267 . S
H436 C444 0.950 . S
H437 C449 0.950 . S
H438 C446 0.950 . S
H439 C448 0.950 . S
H440 C450 0.950 . S
H441 C452 0.950 . S
H442 C454 0.950 . S
H443 C455 0.950 . S
C444 H436 0.950 . S
C444 C445 1.386 . S
C444 C446 1.391 . S
C445 C444 1.386 . S
C445 C449 1.393 . S
C446 H438 0.950 . S
C446 C444 1.391 . S
C446 C447 1.400 . S
C447 C446 1.400 . S
C447 C448 1.398 . S
C447 C453 1.491 . S
C448 H439 0.950 . S
C448 C447 1.398 . S
C448 C449 1.391 . S
C449 H437 0.950 . S
C449 C445 1.393 . S
C449 C448 1.391 . S
C450 H440 0.950 . S
C450 C451 1.386 . S
C450 C452 1.391 . S
C451 C450 1.386 . S
C451 C455 1.393 . S
C452 H441 0.950 . S
C452 C450 1.391 . S
C452 C453 1.400 . S
C453 C447 1.491 . S
C453 C452 1.400 . S
C453 C454 1.398 . S
C454 H442 0.950 . S
C454 C453 1.398 . S
C454 C455 1.391 . S
C455 H443 0.950 . S
C455 C451 1.393 . S
C455 C454 1.391 . S
H456 C464 0.950 . S
H457 C469 0.950 . S
H458 C466 0.950 . S
H459 C468 0.950 . S
H460 C470 0.950 . S
H461 C472 0.950 . S
H462 C474 0.950 . S
H463 C475 0.950 . S
C464 H456 0.950 . S
C464 C465 1.386 . S
C464 C466 1.391 . S
C465 C464 1.386 . S
C465 C469 1.393 . S
C466 H458 0.950 . S
C466 C464 1.391 . S
C466 C467 1.400 . S
C467 C466 1.400 . S
C467 C468 1.398 . S
C467 C473 1.491 . S
C468 H459 0.950 . S
C468 C467 1.398 . S
C468 C469 1.391 . S
C469 H457 0.950 . S
C469 C465 1.393 . S
C469 C468 1.391 . S
C470 H460 0.950 . S
C470 C471 1.386 . S
C470 C472 1.391 . S
C471 C470 1.386 . S
C471 C475 1.393 . S
C472 H461 0.950 . S
C472 C470 1.391 . S
C472 C473 1.400 . S
C473 C467 1.491 . S
C473 C472 1.400 . S
C473 C474 1.398 . S
C474 H462 0.950 . S
C474 C473 1.398 . S
C474 C475 1.391 . S
C475 H463 0.950 . S
C475 C471 1.393 . S
C475 C474 1.391 . S
H476 C484 0.950 . S
H477 C489 0.950 . S
H478 C486 0.950 . S
H479 C488 0.950 . S
H480 C490 0.950 . S
H481 C492 0.950 . S
H482 C494 0.950 . S
H483 C495 0.950 . S
C484 H476 0.950 . S
C484 C485 1.386 . S
C484 C486 1.391 . S
C485 C484 1.386 . S
C485 C489 1.393 . S
C486 H478 0.950 . S
C486 C484 1.391 . S
C486 C487 1.400 . S
C487 C486 1.400 . S
C487 C488 1.398 . S
C487 C493 1.491 . S
C488 H479 0.950 . S
C488 C487 1.398 . S
C488 C489 1.391 . S
C489 H477 0.950 . S
C489 C485 1.393 . S
C489 C488 1.391 . S
C490 H480 0.950 . S
C490 C491 1.386 . S
C490 C492 1.391 . S
C491 C490 1.386 . S
C491 C495 1.393 . S
C492 H481 0.950 . S
C492 C490 1.391 . S
C492 C493 1.400 . S
C493 C487 1.491 . S
C493 C492 1.400 . S
C493 C494 1.398 . S
C494 H482 0.950 . S
C494 C493 1.398 . S
C494 C495 1.391 . S
C495 H483 0.950 . S
C495 C491 1.393 . S
C495 C494 1.391 . S
H496 C504 0.950 . S
H497 C509 0.950 . S
H498 C506 0.950 . S
H499 C508 0.950 . S
H500 C510 0.950 . S
H501 C512 0.950 . S
H502 C514 0.950 . S
H503 C515 0.950 . S
C504 H496 0.950 . S
C504 C505 1.386 . S
C504 C506 1.391 . S
C505 C504 1.386 . S
C505 C509 1.393 . S
C506 H498 0.950 . S
C506 C504 1.391 . S
C506 C507 1.400 . S
C507 C506 1.400 . S
C507 C508 1.398 . S
C507 C513 1.491 . S
C508 H499 0.950 . S
C508 C507 1.398 . S
C508 C509 1.391 . S
C509 H497 0.950 . S
C509 C505 1.393 . S
C509 C508 1.391 . S
C510 H500 0.950 . S
C510 C511 1.386 . S
C510 C512 1.391 . S
C511 C510 1.386 . S
C511 C515 1.393 . S
C512 H501 0.950 . S
C512 C510 1.391 . S
C512 C513 1.400 . S
C513 C507 1.491 . S
C513 C512 1.400 . S
C513 C514 1.398 . S
C514 H502 0.950 . S
C514 C513 1.398 . S
C514 C515 1.391 . S
C515 H503 0.950 . S
C515 C511 1.393 . S
C515 C514 1.391 . S
H516 C524 0.950 . S
H517 C529 0.950 . S
H518 C526 0.950 . S
H519 C528 0.950 . S
H520 C530 0.950 . S
H521 C532 0.950 . S
H522 C534 0.950 . S
H523 C535 0.950 . S
C524 H516 0.950 . S
C524 C525 1.386 . S
C524 C526 1.391 . S
C525 C524 1.386 . S
C525 C529 1.393 . S
C526 H518 0.950 . S
C526 C524 1.391 . S
C526 C527 1.400 . S
C527 C526 1.400 . S
C527 C528 1.398 . S
C527 C533 1.491 . S
C528 H519 0.950 . S
C528 C527 1.398 . S
C528 C529 1.391 . S
C529 H517 0.950 . S
C529 C525 1.393 . S
C529 C528 1.391 . S
C530 H520 0.950 . S
C530 C531 1.386 . S
C530 C532 1.391 . S
C531 C530 1.386 . S
C531 C535 1.393 . S
C532 H521 0.950 . S
C532 C530 1.391 . S
C532 C533 1.400 . S
C533 C527 1.491 . S
C533 C532 1.400 . S
C533 C534 1.398 . S
C534 H522 0.950 . S
C534 C533 1.398 . S
C534 C535 1.391 . S
C535 H523 0.950 . S
C535 C531 1.393 . S
C535 C534 1.391 . S
H536 C544 0.950 . S
H537 C549 0.950 . S
H538 C546 0.950 . S
H539 C548 0.950 . S
H540 C550 0.950 . S
H541 C552 0.950 . S
H542 C554 0.950 . S
H543 C555 0.950 . S
C544 H536 0.950 . S
C544 C545 1.386 . S
C544 C546 1.391 . S
C545 C544 1.386 . S
C545 C549 1.393 . S
C546 H538 0.950 . S
C546 C544 1.391 . S
C546 C547 1.400 . S
C547 C546 1.400 . S
C547 C548 1.398 . S
C547 C553 1.491 . S
C548 H539 0.950 . S
C548 C547 1.398 . S
C548 C549 1.391 . S
C549 H537 0.950 . S
C549 C545 1.393 . S
C549 C548 1.391 . S
C550 H540 0.950 . S
C550 C551 1.386 . S
C550 C552 1.391 . S
C551 C550 1.386 . S
C551 C555 1.393 . S
C552 H541 0.950 . S
C552 C550 1.391 . S
C552 C553 1.400 . S
C553 C547 1.491 . S
C553 C552 1.400 . S
C553 C554 1.398 . S
C554 H542 0.950 . S
C554 C553 1.398 . S
C554 C555 1.391 . S
C555 H543 0.950 . S
C555 C551 1.393 . S
C555 C554 1.391 . S
H556 C564 0.950 . S
H557 C569 0.950 . S
H558 C566 0.950 . S
H559 C568 0.950 . S
H560 C570 0.950 . S
H561 C572 0.950 . S
H562 C574 0.950 . S
H563 C575 0.950 . S
C564 H556 0.950 . S
C564 C565 1.386 . S
C564 C566 1.391 . S
C565 C564 1.386 . S
C565 C569 1.393 . S
C566 H558 0.950 . S
C566 C564 1.391 . S
C566 C567 1.400 . S
C567 C566 1.400 . S
C567 C568 1.398 . S
C567 C573 1.491 . S
C568 H559 0.950 . S
C568 C567 1.398 . S
C568 C569 1.391 . S
C569 H557 0.950 . S
C569 C565 1.393 . S
C569 C568 1.391 . S
C570 H560 0.950 . S
C570 C571 1.386 . S
C570 C572 1.391 . S
C571 C570 1.386 . S
C571 C575 1.393 . S
C572 H561 0.950 . S
C572 C570 1.391 . S
C572 C573 1.400 . S
C573 C567 1.491 . S
C573 C572 1.400 . S
C573 C574 1.398 . S
C574 H562 0.950 . S
C574 C573 1.398 . S
C574 C575 1.391 . S
C575 H563 0.950 . S
C575 C571 1.393 . S
C575 C574 1.391 . S
H576 C584 0.950 . S
H577 C589 0.950 . S
H578 C586 0.950 . S
H579 C588 0.950 . S
H580 C590 0.950 . S
H581 C592 0.950 . S
H582 C594 0.950 . S
H583 C595 0.950 . S
C584 H576 0.950 . S
C584 C585 1.386 . S
C584 C586 1.391 . S
C585 C584 1.386 . S
C585 C589 1.393 . S
C586 H578 0.950 . S
C586 C584 1.391 . S
C586 C587 1.400 . S
C587 C586 1.400 . S
C587 C588 1.398 . S
C587 C593 1.491 . S
C588 H579 0.950 . S
C588 C587 1.398 . S
C588 C589 1.391 . S
C589 H577 0.950 . S
C589 C585 1.393 . S
C589 C588 1.391 . S
C590 H580 0.950 . S
C590 C591 1.386 . S
C590 C592 1.391 . S
C591 C590 1.386 . S
C591 C595 1.393 . S
C592 H581 0.950 . S
C592 C590 1.391 . S
C592 C593 1.400 . S
C593 C587 1.491 . S
C593 C592 1.400 . S
C593 C594 1.398 . S
C594 H582 0.950 . S
C594 C593 1.398 . S
C594 C595 1.391 . S
C595 H583 0.950 . S
C595 C591 1.393 . S
C595 C594 1.391 . S
H596 C604 0.950 . S
H597 C609 0.950 . S
H598 C606 0.950 . S
H599 C608 0.950 . S
H600 C610 0.950 . S
H601 C612 0.950 . S
H602 C614 0.950 . S
H603 C615 0.950 . S
C604 H596 0.950 . S
C604 C605 1.386 . S
C604 C606 1.391 . S
C605 C604 1.386 . S
C605 C609 1.393 . S
C606 H598 0.950 . S
C606 C604 1.391 . S
C606 C607 1.400 . S
C607 C606 1.400 . S
C607 C608 1.398 . S
C607 C613 1.491 . S
C608 H599 0.950 . S
C608 C607 1.398 . S
C608 C609 1.391 . S
C609 H597 0.950 . S
C609 C605 1.393 . S
C609 C608 1.391 . S
C610 H600 0.950 . S
C610 C611 1.386 . S
C610 C612 1.391 . S
C611 C610 1.386 . S
C611 C615 1.393 . S
C612 H601 0.950 . S
C612 C610 1.391 . S
C612 C613 1.400 . S
C613 C607 1.491 . S
C613 C612 1.400 . S
C613 C614 1.398 . S
C614 H602 0.950 . S
C614 C613 1.398 . S
C614 C615 1.391 . S
C615 H603 0.950 . S
C615 C611 1.393 . S
C615 C614 1.391 . S
H616 C624 0.950 . S
H617 C629 0.950 . S
H618 C626 0.950 . S
H619 C628 0.950 . S
H620 C630 0.950 . S
H621 C632 0.950 . S
H622 C634 0.950 . S
H623 C635 0.950 . S
C624 H616 0.950 . S
C624 C625 1.386 . S
C624 C626 1.391 . S
C625 C624 1.386 . S
C625 C629 1.393 . S
C626 H618 0.950 . S
C626 C624 1.391 . S
C626 C627 1.400 . S
C627 C626 1.400 . S
C627 C628 1.398 . S
C627 C633 1.491 . S
C628 H619 0.950 . S
C628 C627 1.398 . S
C628 C629 1.391 . S
C629 H617 0.950 . S
C629 C625 1.393 . S
C629 C628 1.391 . S
C630 H620 0.950 . S
C630 C631 1.386 . S
C630 C632 1.391 . S
C631 C630 1.386 . S
C631 C635 1.393 . S
C632 H621 0.950 . S
C632 C630 1.391 . S
C632 C633 1.400 . S
C633 C627 1.491 . S
C633 C632 1.400 . S
C633 C634 1.398 . S
C634 H622 0.950 . S
C634 C633 1.398 . S
C634 C635 1.391 . S
C635 H623 0.950 . S
C635 C631 1.393 . S
C635 C634 1.391 . S
H636 C644 0.950 . S
H637 C649 0.950 . S
H638 C646 0.950 . S
H639 C648 0.950 . S
H640 C650 0.950 . S
H641 C652 0.950 . S
H642 C654 0.950 . S
H643 C655 0.950 . S
C644 H636 0.950 . S
C644 C645 1.386 . S
C644 C646 1.391 . S
C645 C644 1.386 . S
C645 C649 1.393 . S
C646 H638 0.950 . S
C646 C644 1.391 . S
C646 C647 1.400 . S
C647 C646 1.400 . S
C647 C648 1.398 . S
C647 C653 1.491 . S
C648 H639 0.950 . S
C648 C647 1.398 . S
C648 C649 1.391 . S
C649 H637 0.950 . S
C649 C645 1.393 . S
C649 C648 1.391 . S
C650 H640 0.950 . S
C650 C651 1.386 . S
C650 C652 1.391 . S
C651 C650 1.386 . S
C651 C655 1.393 . S
C652 H641 0.950 . S
C652 C650 1.391 . S
C652 C653 1.400 . S
C653 C647 1.491 . S
C653 C652 1.400 . S
C653 C654 1.398 . S
C654 H642 0.950 . S
C654 C653 1.398 . S
C654 C655 1.391 . S
C655 H643 0.950 . S
C655 C651 1.393 . S
C655 C654 1.391 . S
H656 C664 0.950 . S
H657 C669 0.950 . S
H658 C666 0.950 . S
H659 C668 0.950 . S
H660 C670 0.950 . S
H661 C672 0.950 . S
H662 C674 0.950 . S
H663 C675 0.950 . S
C664 H656 0.950 . S
C664 C665 1.386 . S
C664 C666 1.391 . S
C665 C664 1.386 . S
C665 C669 1.393 . S
C666 H658 0.950 . S
C666 C664 1.391 . S
C666 C667 1.400 . S
C667 C666 1.400 . S
C667 C668 1.398 . S
C667 C673 1.491 . S
C668 H659 0.950 . S
C668 C667 1.398 . S
C668 C669 1.391 . S
C669 H657 0.950 . S
C669 C665 1.393 . S
C669 C668 1.391 . S
C670 H660 0.950 . S
C670 C671 1.386 . S
C670 C672 1.391 . S
C671 C670 1.386 . S
C671 C675 1.393 . S
C672 H661 0.950 . S
C672 C670 1.391 . S
C672 C673 1.400 . S
C673 C667 1.491 . S
C673 C672 1.400 . S
C673 C674 1.398 . S
C674 H662 0.950 . S
C674 C673 1.398 . S
C674 C675 1.391 . S
C675 H663 0.950 . S
C675 C671 1.393 . S
C675 C674 1.391 . S
H676 C684 0.950 . S
H677 C689 0.915 1_554 S
H678 C686 0.950 . S
H679 C688 0.950 . S
H680 C690 0.950 . S
H681 C692 0.950 . S
H682 C694 0.950 . S
H683 C695 0.950 . S
C684 H676 0.950 . S
C684 C685 1.386 . S
C684 C686 1.391 . S
C685 C684 1.386 . S
C685 C689 1.393 . S
C686 H678 0.950 . S
C686 C684 1.391 . S
C686 C687 1.400 . S
C687 C686 1.400 . S
C687 C688 1.398 . S
C687 C693 1.491 . S
C688 H679 0.950 . S
C688 C687 1.398 . S
C688 C689 1.391 . S
C689 H677 0.915 1_556 S
C689 C685 1.393 . S
C689 C688 1.391 . S
C690 H680 0.950 . S
C690 C691 1.386 . S
C690 C692 1.391 . S
C691 C690 1.386 . S
C691 C695 1.393 . S
C692 H681 0.950 . S
C692 C690 1.391 . S
C692 C693 1.400 . S
C693 C687 1.491 . S
C693 C692 1.400 . S
C693 C694 1.398 . S
C694 H682 0.950 . S
C694 C693 1.398 . S
C694 C695 1.391 . S
C695 H683 0.950 . S
C695 C691 1.393 . S
C695 C694 1.391 . S
H696 C704 0.950 . S
H697 C709 0.950 . S
H698 C706 0.950 . S
H699 C708 0.950 . S
H700 C710 0.950 . S
H701 C712 0.950 . S
H702 C714 0.950 . S
H703 C715 0.950 . S
C704 H696 0.950 . S
C704 C705 1.386 . S
C704 C706 1.391 . S
C705 C704 1.386 . S
C705 C709 1.393 . S
C706 H698 0.950 . S
C706 C704 1.391 . S
C706 C707 1.400 . S
C707 C706 1.400 . S
C707 C708 1.398 . S
C707 C713 1.491 . S
C708 H699 0.950 . S
C708 C707 1.398 . S
C708 C709 1.391 . S
C709 H697 0.950 . S
C709 C705 1.393 . S
C709 C708 1.391 . S
C710 H700 0.950 . S
C710 C711 1.386 . S
C710 C712 1.391 . S
C711 C710 1.386 . S
C711 C715 1.393 . S
C712 H701 0.950 . S
C712 C710 1.391 . S
C712 C713 1.400 . S
C713 C707 1.491 . S
C713 C712 1.400 . S
C713 C714 1.398 . S
C714 H702 0.950 . S
C714 C713 1.398 . S
C714 C715 1.391 . S
C715 H703 0.950 . S
C715 C711 1.393 . S
C715 C714 1.391 . S
H716 C724 0.950 . S
H717 C729 0.950 . S
H718 C726 0.950 . S
H719 C728 0.950 . S
H720 C730 0.950 . S
H721 C732 0.950 . S
H722 C734 0.950 . S
H723 C735 0.950 . S
C724 H716 0.950 . S
C724 C725 1.386 . S
C724 C726 1.391 . S
C725 C724 1.386 . S
C725 C729 1.393 . S
C726 H718 0.950 . S
C726 C724 1.391 . S
C726 C727 1.400 . S
C727 C726 1.400 . S
C727 C728 1.398 . S
C727 C733 1.491 . S
C728 H719 0.950 . S
C728 C727 1.398 . S
C728 C729 1.391 . S
C729 H717 0.950 . S
C729 C725 1.393 . S
C729 C728 1.391 . S
C730 H720 0.950 . S
C730 C731 1.386 . S
C730 C732 1.391 . S
C731 C730 1.386 . S
C731 C735 1.393 . S
C732 H721 0.950 . S
C732 C730 1.391 . S
C732 C733 1.400 . S
C733 C727 1.491 . S
C733 C732 1.400 . S
C733 C734 1.398 . S
C734 H722 0.950 . S
C734 C733 1.398 . S
C734 C735 1.391 . S
C735 H723 0.950 . S
C735 C731 1.393 . S
C735 C734 1.391 . S
H736 C744 0.950 . S
H737 C749 0.950 . S
H738 C746 0.950 . S
H739 C748 0.950 . S
H740 C750 0.950 . S
H741 C752 0.950 . S
H742 C754 0.950 . S
H743 C755 0.950 . S
C744 H736 0.950 . S
C744 C745 1.386 . S
C744 C746 1.391 . S
C745 C744 1.386 . S
C745 C749 1.393 . S
C746 H738 0.950 . S
C746 C744 1.391 . S
C746 C747 1.400 . S
C747 C746 1.400 . S
C747 C748 1.398 . S
C747 C753 1.491 . S
C748 H739 0.950 . S
C748 C747 1.398 . S
C748 C749 1.391 . S
C749 H737 0.950 . S
C749 C745 1.393 . S
C749 C748 1.391 . S
C750 H740 0.950 . S
C750 C751 1.386 . S
C750 C752 1.391 . S
C751 C750 1.386 . S
C751 C755 1.393 . S
C752 H741 0.950 . S
C752 C750 1.391 . S
C752 C753 1.400 . S
C753 C747 1.491 . S
C753 C752 1.400 . S
C753 C754 1.398 . S
C754 H742 0.950 . S
C754 C753 1.398 . S
C754 C755 1.391 . S
C755 H743 0.950 . S
C755 C751 1.393 . S
C755 C754 1.391 . S
H756 C764 0.950 . S
H757 C769 0.950 . S
H758 C766 0.950 . S
H759 C768 0.950 . S
H760 C770 0.950 . S
H761 C772 0.950 . S
H762 C774 0.950 . S
H763 C775 0.950 . S
C764 H756 0.950 . S
C764 C765 1.386 . S
C764 C766 1.391 . S
C765 C764 1.386 . S
C765 C769 1.393 . S
C766 H758 0.950 . S
C766 C764 1.391 . S
C766 C767 1.400 . S
C767 C766 1.400 . S
C767 C768 1.398 . S
C767 C773 1.491 . S
C768 H759 0.950 . S
C768 C767 1.398 . S
C768 C769 1.391 . S
C769 H757 0.950 . S
C769 C765 1.393 . S
C769 C768 1.391 . S
C770 H760 0.950 . S
C770 C771 1.386 . S
C770 C772 1.391 . S
C771 C770 1.386 . S
C771 C775 1.393 . S
C772 H761 0.950 . S
C772 C770 1.391 . S
C772 C773 1.400 . S
C773 C767 1.491 . S
C773 C772 1.400 . S
C773 C774 1.398 . S
C774 H762 0.950 . S
C774 C773 1.398 . S
C774 C775 1.391 . S
C775 H763 0.950 . S
C775 C771 1.393 . S
C775 C774 1.391 . S
H776 C784 0.950 . S
H777 C789 0.950 . S
H778 C786 0.950 . S
H779 C788 0.950 . S
H780 C790 0.950 . S
H781 C792 0.950 . S
H782 C794 0.950 . S
H783 C795 0.950 . S
C784 H776 0.950 . S
C784 C785 1.386 . S
C784 C786 1.391 . S
C785 C784 1.386 . S
C785 C789 1.393 . S
C786 H778 0.950 . S
C786 C784 1.391 . S
C786 C787 1.400 . S
C787 C786 1.400 . S
C787 C788 1.398 . S
C787 C793 1.491 . S
C788 H779 0.950 . S
C788 C787 1.398 . S
C788 C789 1.391 . S
C789 H777 0.950 . S
C789 C785 1.393 . S
C789 C788 1.391 . S
C790 H780 0.950 . S
C790 C791 1.386 . S
C790 C792 1.391 . S
C791 C790 1.386 . S
C791 C795 1.393 . S
C792 H781 0.950 . S
C792 C790 1.391 . S
C792 C793 1.400 . S
C793 C787 1.491 . S
C793 C792 1.400 . S
C793 C794 1.398 . S
C794 H782 0.950 . S
C794 C793 1.398 . S
C794 C795 1.391 . S
C795 H783 0.950 . S
C795 C791 1.393 . S
C795 C794 1.391 . S
H796 C804 0.950 . S
H797 C809 0.950 . S
H798 C806 0.950 . S
H799 C808 0.950 . S
H800 C810 0.950 . S
H801 C812 0.950 . S
H802 C814 0.950 . S
H803 C815 0.950 . S
C804 H796 0.950 . S
C804 C805 1.386 . S
C804 C806 1.391 . S
C805 C804 1.386 . S
C805 C809 1.393 . S
C806 H798 0.950 . S
C806 C804 1.391 . S
C806 C807 1.400 . S
C807 C806 1.400 . S
C807 C808 1.398 . S
C807 C813 1.491 . S
C808 H799 0.950 . S
C808 C807 1.398 . S
C808 C809 1.391 . S
C809 H797 0.950 . S
C809 C805 1.393 . S
C809 C808 1.391 . S
C810 H800 0.950 . S
C810 C811 1.386 . S
C810 C812 1.391 . S
C811 C810 1.386 . S
C811 C815 1.393 . S
C812 H801 0.950 . S
C812 C810 1.391 . S
C812 C813 1.400 . S
C813 C807 1.491 . S
C813 C812 1.400 . S
C813 C814 1.398 . S
C814 H802 0.950 . S
C814 C813 1.398 . S
C814 C815 1.391 . S
C815 H803 0.950 . S
C815 C811 1.393 . S
C815 C814 1.391 . S
H816 C824 0.950 . S
H817 C829 0.950 . S
H818 C826 0.950 . S
H819 C828 0.950 . S
H820 C830 0.950 . S
H821 C832 0.950 . S
H822 C834 0.950 . S
H823 C835 0.950 . S
C824 H816 0.950 . S
C824 C825 1.386 . S
C824 C826 1.391 . S
C825 C824 1.386 . S
C825 C829 1.393 . S
C826 H818 0.950 . S
C826 C824 1.391 . S
C826 C827 1.400 . S
C827 C826 1.400 . S
C827 C828 1.398 . S
C827 C833 1.491 . S
C828 H819 0.950 . S
C828 C827 1.398 . S
C828 C829 1.391 . S
C829 H817 0.950 . S
C829 C825 1.393 . S
C829 C828 1.391 . S
C830 H820 0.950 . S
C830 C831 1.386 . S
C830 C832 1.391 . S
C831 C830 1.386 . S
C831 C835 1.393 . S
C832 H821 0.950 . S
C832 C830 1.391 . S
C832 C833 1.400 . S
C833 C827 1.491 . S
C833 C832 1.400 . S
C833 C834 1.398 . S
C834 H822 0.950 . S
C834 C833 1.398 . S
C834 C835 1.391 . S
C835 H823 0.950 . S
C835 C831 1.393 . S
C835 C834 1.391 . S
H836 C844 0.950 . S
H837 C849 0.950 . S
H838 C846 0.950 . S
H839 C848 0.950 . S
H840 C850 0.950 . S
H841 C852 0.950 . S
H842 C854 0.950 . S
H843 C855 0.950 . S
C844 H836 0.950 . S
C844 C845 1.386 . S
C844 C846 1.391 . S
C845 C844 1.386 . S
C845 C849 1.393 . S
C846 H838 0.950 . S
C846 C844 1.391 . S
C846 C847 1.400 . S
C847 C846 1.400 . S
C847 C848 1.398 . S
C847 C853 1.491 . S
C848 H839 0.950 . S
C848 C847 1.398 . S
C848 C849 1.391 . S
C849 H837 0.950 . S
C849 C845 1.393 . S
C849 C848 1.391 . S
C850 H840 0.950 . S
C850 C851 1.386 . S
C850 C852 1.391 . S
C851 C850 1.386 . S
C851 C855 1.393 . S
C852 H841 0.950 . S
C852 C850 1.391 . S
C852 C853 1.400 . S
C853 C847 1.491 . S
C853 C852 1.400 . S
C853 C854 1.398 . S
C854 H842 0.950 . S
C854 C853 1.398 . S
C854 C855 1.391 . S
C855 H843 0.950 . S
C855 C851 1.393 . S
C855 C854 1.391 . S
H856 C864 0.950 . S
H857 C869 0.950 . S
H858 C866 0.950 . S
H859 C868 0.950 . S
H860 C870 0.950 . S
H861 C872 0.950 . S
H862 C874 0.950 . S
H863 C875 0.950 . S
C864 H856 0.950 . S
C864 C865 1.386 . S
C864 C866 1.391 . S
C865 C864 1.386 . S
C865 C869 1.393 . S
C866 H858 0.950 . S
C866 C864 1.391 . S
C866 C867 1.400 . S
C867 C866 1.400 . S
C867 C868 1.398 . S
C867 C873 1.491 . S
C868 H859 0.950 . S
C868 C867 1.398 . S
C868 C869 1.391 . S
C869 H857 0.950 . S
C869 C865 1.393 . S
C869 C868 1.391 . S
C870 H860 0.950 . S
C870 C871 1.386 . S
C870 C872 1.391 . S
C871 C870 1.386 . S
C871 C875 1.393 . S
C872 H861 0.950 . S
C872 C870 1.391 . S
C872 C873 1.400 . S
C873 C867 1.491 . S
C873 C872 1.400 . S
C873 C874 1.398 . S
C874 H862 0.950 . S
C874 C873 1.398 . S
C874 C875 1.391 . S
C875 H863 0.950 . S
C875 C871 1.393 . S
C875 C874 1.391 . S
H876 C884 0.950 . S
H877 C889 0.950 . S
H878 C886 0.950 . S
H879 C888 0.950 . S
H880 C890 0.950 . S
H881 C892 0.950 . S
H882 C894 0.950 . S
H883 C895 0.950 . S
C884 H876 0.950 . S
C884 C885 1.386 . S
C884 C886 1.391 . S
C885 C884 1.386 . S
C885 C889 1.393 . S
C886 H878 0.950 . S
C886 C884 1.391 . S
C886 C887 1.400 . S
C887 C886 1.400 . S
C887 C888 1.398 . S
C887 C893 1.491 . S
C888 H879 0.950 . S
C888 C887 1.398 . S
C888 C889 1.391 . S
C889 H877 0.950 . S
C889 C885 1.393 . S
C889 C888 1.391 . S
C890 H880 0.950 . S
C890 C891 1.386 . S
C890 C892 1.391 . S
C891 C890 1.386 . S
C891 C895 1.393 . S
C892 H881 0.950 . S
C892 C890 1.391 . S
C892 C893 1.400 . S
C893 C887 1.491 . S
C893 C892 1.400 . S
C893 C894 1.398 . S
C894 H882 0.950 . S
C894 C893 1.398 . S
C894 C895 1.391 . S
C895 H883 0.950 . S
C895 C891 1.393 . S
C895 C894 1.391 . S
H896 C904 0.950 . S
H897 C909 0.950 . S
H898 C906 0.950 . S
H899 C908 0.950 . S
H900 C910 0.950 . S
H901 C912 0.950 . S
H902 C914 0.950 . S
H903 C915 0.950 . S
C904 H896 0.950 . S
C904 C905 1.386 . S
C904 C906 1.391 . S
C905 C904 1.386 . S
C905 C909 1.393 . S
C906 H898 0.950 . S
C906 C904 1.391 . S
C906 C907 1.400 . S
C907 C906 1.400 . S
C907 C908 1.398 . S
C907 C913 1.491 . S
C908 H899 0.950 . S
C908 C907 1.398 . S
C908 C909 1.391 . S
C909 H897 0.950 . S
C909 C905 1.393 . S
C909 C908 1.391 . S
C910 H900 0.950 . S
C910 C911 1.386 . S
C910 C912 1.391 . S
C911 C910 1.386 . S
C911 C915 1.393 . S
C912 H901 0.950 . S
C912 C910 1.391 . S
C912 C913 1.400 . S
C913 C907 1.491 . S
C913 C912 1.400 . S
C913 C914 1.398 . S
C914 H902 0.950 . S
C914 C913 1.398 . S
C914 C915 1.391 . S
C915 H903 0.950 . S
C915 C911 1.393 . S
C915 C914 1.391 . S
H916 C924 0.950 . S
H917 C929 0.950 . S
H918 C926 0.950 . S
H919 C928 0.950 . S
H920 C930 0.950 . S
H921 C932 0.950 . S
H922 C934 0.950 . S
H923 C935 0.950 . S
C924 H916 0.950 . S
C924 C925 1.386 . S
C924 C926 1.391 . S
C925 C924 1.386 . S
C925 C929 1.393 . S
C926 H918 0.950 . S
C926 C924 1.391 . S
C926 C927 1.400 . S
C927 C926 1.400 . S
C927 C928 1.398 . S
C927 C933 1.491 . S
C928 H919 0.950 . S
C928 C927 1.398 . S
C928 C929 1.391 . S
C929 H917 0.950 . S
C929 C925 1.393 . S
C929 C928 1.391 . S
C930 H920 0.950 . S
C930 C931 1.386 . S
C930 C932 1.391 . S
C931 C930 1.386 . S
C931 C935 1.393 . S
C932 H921 0.950 . S
C932 C930 1.391 . S
C932 C933 1.400 . S
C933 C927 1.491 . S
C933 C932 1.400 . S
C933 C934 1.398 . S
C934 H922 0.950 . S
C934 C933 1.398 . S
C934 C935 1.391 . S
C935 H923 0.950 . S
C935 C931 1.393 . S
C935 C934 1.391 . S
H936 C944 0.950 . S
H937 C949 0.950 . S
H938 C946 0.950 . S
H939 C948 0.950 . S
H940 C950 0.950 . S
H941 C952 0.950 . S
H942 C954 0.950 . S
H943 C955 0.950 . S
C944 H936 0.950 . S
C944 C945 1.386 . S
C944 C946 1.391 . S
C945 C944 1.386 . S
C945 C949 1.393 . S
C946 H938 0.950 . S
C946 C944 1.391 . S
C946 C947 1.400 . S
C947 C946 1.400 . S
C947 C948 1.398 . S
C947 C953 1.491 . S
C948 H939 0.950 . S
C948 C947 1.398 . S
C948 C949 1.391 . S
C949 H937 0.950 . S
C949 C945 1.393 . S
C949 C948 1.391 . S
C950 H940 0.950 . S
C950 C951 1.386 . S
C950 C952 1.391 . S
C951 C950 1.386 . S
C951 C955 1.393 . S
C952 H941 0.950 . S
C952 C950 1.391 . S
C952 C953 1.400 . S
C953 C947 1.491 . S
C953 C952 1.400 . S
C953 C954 1.398 . S
C954 H942 0.950 . S
C954 C953 1.398 . S
C954 C955 1.391 . S
C955 H943 0.950 . S
C955 C951 1.393 . S
C955 C954 1.391 . S
H956 C964 0.950 . S
H957 C969 0.950 . S
H958 C966 0.950 . S
H959 C968 0.950 . S
H960 C970 0.950 . S
H961 C972 0.950 . S
H962 C974 0.950 . S
H963 C975 0.950 . S
C964 H956 0.950 . S
C964 C965 1.386 . S
C964 C966 1.391 . S
C965 C964 1.386 . S
C965 C969 1.393 . S
C966 H958 0.950 . S
C966 C964 1.391 . S
C966 C967 1.400 . S
C967 C966 1.400 . S
C967 C968 1.398 . S
C967 C973 1.491 . S
C968 H959 0.950 . S
C968 C967 1.398 . S
C968 C969 1.391 . S
C969 H957 0.950 . S
C969 C965 1.393 . S
C969 C968 1.391 . S
C970 H960 0.950 . S
C970 C971 1.386 . S
C970 C972 1.391 . S
C971 C970 1.386 . S
C971 C975 1.393 . S
C972 H961 0.950 . S
C972 C970 1.391 . S
C972 C973 1.400 . S
C973 C967 1.491 . S
C973 C972 1.400 . S
C973 C974 1.398 . S
C974 H962 0.950 . S
C974 C973 1.398 . S
C974 C975 1.391 . S
C975 H963 0.950 . S
C975 C971 1.393 . S
C975 C974 1.391 . S
H976 C984 0.950 . S
H977 C989 0.950 . S
H978 C986 0.950 . S
H979 C988 0.950 . S
H980 C990 0.950 . S
H981 C992 0.950 . S
H982 C994 0.950 . S
H983 C995 0.950 . S
C984 H976 0.950 . S
C984 C985 1.386 . S
C984 C986 1.391 . S
C985 C984 1.386 . S
C985 C989 1.393 . S
C986 H978 0.950 . S
C986 C984 1.391 . S
C986 C987 1.400 . S
C987 C986 1.400 . S
C987 C988 1.398 . S
C987 C993 1.491 . S
C988 H979 0.950 . S
C988 C987 1.398 . S
C988 C989 1.391 . S
C989 H977 0.950 . S
C989 C985 1.393 . S
C989 C988 1.391 . S
C990 H980 0.950 . S
C990 C991 1.386 . S
C990 C992 1.391 . S
C991 C990 1.386 . S
C991 C995 1.393 . S
C992 H981 0.950 . S
C992 C990 1.391 . S
C992 C993 1.400 . S
C993 C987 1.491 . S
C993 C992 1.400 . S
C993 C994 1.398 . S
C994 H982 0.950 . S
C994 C993 1.398 . S
C994 C995 1.391 . S
C995 H983 0.950 . S
C995 C991 1.393 . S
C995 C994 1.391 . S
H996 C1004 0.950 . S
H997 C1009 0.950 . S
H998 C1006 0.950 . S
H999 C1008 0.950 . S
H1000 C1010 0.950 . S
H1001 C1012 0.950 . S
H1002 C1014 0.950 . S
H1003 C1015 0.950 . S
C1004 H996 0.950 . S
C1004 C1005 1.386 . S
C1004 C1006 1.391 . S
C1005 C1004 1.386 . S
C1005 C1009 1.393 . S
C1006 H998 0.950 . S
C1006 C1004 1.391 . S
C1006 C1007 1.400 . S
C1007 C1006 1.400 . S
C1007 C1008 1.398 . S
C1007 C1013 1.491 . S
C1008 H999 0.950 . S
C1008 C1007 1.398 . S
C1008 C1009 1.391 . S
C1009 H997 0.950 . S
C1009 C1005 1.393 . S
C1009 C1008 1.391 . S
C1010 H1000 0.950 . S
C1010 C1011 1.386 . S
C1010 C1012 1.391 . S
C1011 C1010 1.386 . S
C1011 C1015 1.393 . S
C1012 H1001 0.950 . S
C1012 C1010 1.391 . S
C1012 C1013 1.400 . S
C1013 C1007 1.491 . S
C1013 C1012 1.400 . S
C1013 C1014 1.398 . S
C1014 H1002 0.950 . S
C1014 C1013 1.398 . S
C1014 C1015 1.391 . S
C1015 H1003 0.950 . S
C1015 C1011 1.393 . S
C1015 C1014 1.391 . S
H1016 C1024 0.950 . S
H1017 C1029 0.950 . S
H1018 C1026 0.950 . S
H1019 C1028 0.950 . S
H1020 C1030 0.950 . S
H1021 C1032 0.950 . S
H1022 C1034 0.950 . S
H1023 C1035 0.950 . S
C1024 H1016 0.950 . S
C1024 C1025 1.386 . S
C1024 C1026 1.391 . S
C1025 C1024 1.386 . S
C1025 C1029 1.393 . S
C1026 H1018 0.950 . S
C1026 C1024 1.391 . S
C1026 C1027 1.400 . S
C1027 C1026 1.400 . S
C1027 C1028 1.398 . S
C1027 C1033 1.491 . S
C1028 H1019 0.950 . S
C1028 C1027 1.398 . S
C1028 C1029 1.391 . S
C1029 H1017 0.950 . S
C1029 C1025 1.393 . S
C1029 C1028 1.391 . S
C1030 H1020 0.950 . S
C1030 C1031 1.386 . S
C1030 C1032 1.391 . S
C1031 C1030 1.386 . S
C1031 C1035 1.393 . S
C1032 H1021 0.950 . S
C1032 C1030 1.391 . S
C1032 C1033 1.400 . S
C1033 C1027 1.491 . S
C1033 C1032 1.400 . S
C1033 C1034 1.398 . S
C1034 H1022 0.950 . S
C1034 C1033 1.398 . S
C1034 C1035 1.391 . S
C1035 H1023 0.950 . S
C1035 C1031 1.393 . S
C1035 C1034 1.391 . S
H1036 C1044 0.950 . S
H1037 C1049 0.950 . S
H1038 C1046 0.950 . S
H1039 C1048 0.950 . S
H1040 C1050 0.950 . S
H1041 C1052 0.950 . S
H1042 C1054 0.950 . S
H1043 C1055 0.950 . S
C1044 H1036 0.950 . S
C1044 C1045 1.386 . S
C1044 C1046 1.391 . S
C1045 C1044 1.386 . S
C1045 C1049 1.393 . S
C1046 H1038 0.950 . S
C1046 C1044 1.391 . S
C1046 C1047 1.400 . S
C1047 C1046 1.400 . S
C1047 C1048 1.398 . S
C1047 C1053 1.491 . S
C1048 H1039 0.950 . S
C1048 C1047 1.398 . S
C1048 C1049 1.391 . S
C1049 H1037 0.950 . S
C1049 C1045 1.393 . S
C1049 C1048 1.391 . S
C1050 H1040 0.950 . S
C1050 C1051 1.386 . S
C1050 C1052 1.391 . S
C1051 C1050 1.386 . S
C1051 C1055 1.393 . S
C1052 H1041 0.950 . S
C1052 C1050 1.391 . S
C1052 C1053 1.400 . S
C1053 C1047 1.491 . S
C1053 C1052 1.400 . S
C1053 C1054 1.398 . S
C1054 H1042 0.950 . S
C1054 C1053 1.398 . S
C1054 C1055 1.391 . S
C1055 H1043 0.950 . S
C1055 C1051 1.393 . S
C1055 C1054 1.391 . S
H1056 C1064 0.950 . S
H1057 C1069 0.950 . S
H1058 C1066 0.950 . S
H1059 C1068 0.950 . S
H1060 C1070 0.950 . S
H1061 C1072 0.950 . S
H1062 C1074 0.950 . S
H1063 C1075 0.950 . S
C1064 H1056 0.950 . S
C1064 C1065 1.386 . S
C1064 C1066 1.391 . S
C1065 C1064 1.386 . S
C1065 C1069 1.393 . S
C1066 H1058 0.950 . S
C1066 C1064 1.391 . S
C1066 C1067 1.400 . S
C1067 C1066 1.400 . S
C1067 C1068 1.398 . S
C1067 C1073 1.491 . S
C1068 H1059 0.950 . S
C1068 C1067 1.398 . S
C1068 C1069 1.391 . S
C1069 H1057 0.950 . S
C1069 C1065 1.393 . S
C1069 C1068 1.391 . S
C1070 H1060 0.950 . S
C1070 C1071 1.386 . S
C1070 C1072 1.391 . S
C1071 C1070 1.386 . S
C1071 C1075 1.393 . S
C1072 H1061 0.950 . S
C1072 C1070 1.391 . S
C1072 C1073 1.400 . S
C1073 C1067 1.491 . S
C1073 C1072 1.400 . S
C1073 C1074 1.398 . S
C1074 H1062 0.950 . S
C1074 C1073 1.398 . S
C1074 C1075 1.391 . S
C1075 H1063 0.950 . S
C1075 C1071 1.393 . S
C1075 C1074 1.391 . S
H1076 C1084 0.950 . S
H1077 C1089 0.950 . S
H1078 C1086 0.950 . S
H1079 C1088 0.950 . S
H1080 C1090 0.950 . S
H1081 C1092 0.950 . S
H1082 C1094 0.950 . S
H1083 C1095 0.950 . S
C1084 H1076 0.950 . S
C1084 C1085 1.386 . S
C1084 C1086 1.391 . S
C1085 C1084 1.386 . S
C1085 C1089 1.393 . S
C1086 H1078 0.950 . S
C1086 C1084 1.391 . S
C1086 C1087 1.400 . S
C1087 C1086 1.400 . S
C1087 C1088 1.398 . S
C1087 C1093 1.491 . S
C1088 H1079 0.950 . S
C1088 C1087 1.398 . S
C1088 C1089 1.391 . S
C1089 H1077 0.950 . S
C1089 C1085 1.393 . S
C1089 C1088 1.391 . S
C1090 H1080 0.950 . S
C1090 C1091 1.386 . S
C1090 C1092 1.391 . S
C1091 C1090 1.386 . S
C1091 C1095 1.393 . S
C1092 H1081 0.950 . S
C1092 C1090 1.391 . S
C1092 C1093 1.400 . S
C1093 C1087 1.491 . S
C1093 C1092 1.400 . S
C1093 C1094 1.398 . S
C1094 H1082 0.950 . S
C1094 C1093 1.398 . S
C1094 C1095 1.391 . S
C1095 H1083 0.950 . S
C1095 C1091 1.393 . S
C1095 C1094 1.391 . S
H1096 C1104 0.950 . S
H1097 C1109 0.950 . S
H1098 C1106 0.950 . S
H1099 C1108 0.950 . S
H1100 C1110 0.950 . S
H1101 C1112 0.950 . S
H1102 C1114 0.950 . S
H1103 C1115 0.950 . S
C1104 H1096 0.950 . S
C1104 C1105 1.386 . S
C1104 C1106 1.391 . S
C1105 C1104 1.386 . S
C1105 C1109 1.393 . S
C1106 H1098 0.950 . S
C1106 C1104 1.391 . S
C1106 C1107 1.400 . S
C1107 C1106 1.400 . S
C1107 C1108 1.398 . S
C1107 C1113 1.491 . S
C1108 H1099 0.950 . S
C1108 C1107 1.398 . S
C1108 C1109 1.391 . S
C1109 H1097 0.950 . S
C1109 C1105 1.393 . S
C1109 C1108 1.391 . S
C1110 H1100 0.950 . S
C1110 C1111 1.386 . S
C1110 C1112 1.391 . S
C1111 C1110 1.386 . S
C1111 C1115 1.393 . S
C1112 H1101 0.950 . S
C1112 C1110 1.391 . S
C1112 C1113 1.400 . S
C1113 C1107 1.491 . S
C1113 C1112 1.400 . S
C1113 C1114 1.398 . S
C1114 H1102 0.950 . S
C1114 C1113 1.398 . S
C1114 C1115 1.391 . S
C1115 H1103 0.950 . S
C1115 C1111 1.393 . S
C1115 C1114 1.391 . S
H1116 C1124 0.950 . S
H1117 C1129 0.950 . S
H1118 C1126 0.950 . S
H1119 C1128 0.950 . S
H1120 C1130 0.950 . S
H1121 C1132 0.950 . S
H1122 C1134 0.950 . S
H1123 C1135 0.950 . S
C1124 H1116 0.950 . S
C1124 C1125 1.386 . S
C1124 C1126 1.391 . S
C1125 C1124 1.386 . S
C1125 C1129 1.393 . S
C1126 H1118 0.950 . S
C1126 C1124 1.391 . S
C1126 C1127 1.400 . S
C1127 C1126 1.400 . S
C1127 C1128 1.398 . S
C1127 C1133 1.491 . S
C1128 H1119 0.950 . S
C1128 C1127 1.398 . S
C1128 C1129 1.391 . S
C1129 H1117 0.950 . S
C1129 C1125 1.393 . S
C1129 C1128 1.391 . S
C1130 H1120 0.950 . S
C1130 C1131 1.386 . S
C1130 C1132 1.391 . S
C1131 C1130 1.386 . S
C1131 C1135 1.393 . S
C1132 H1121 0.950 . S
C1132 C1130 1.391 . S
C1132 C1133 1.400 . S
C1133 C1127 1.491 . S
C1133 C1132 1.400 . S
C1133 C1134 1.398 . S
C1134 H1122 0.950 . S
C1134 C1133 1.398 . S
C1134 C1135 1.391 . S
C1135 H1123 0.950 . S
C1135 C1131 1.393 . S
C1135 C1134 1.391 . S
H1136 C1144 0.950 . S
H1137 C1149 0.950 . S
H1138 C1146 0.950 . S
H1139 C1148 0.950 . S
H1140 C1150 0.950 . S
H1141 C1152 0.950 . S
H1142 C1154 0.950 . S
H1143 C1155 0.950 . S
C1144 H1136 0.950 . S
C1144 C1145 1.386 . S
C1144 C1146 1.391 . S
C1145 C1144 1.386 . S
C1145 C1149 1.393 . S
C1146 H1138 0.950 . S
C1146 C1144 1.391 . S
C1146 C1147 1.400 . S
C1147 C1146 1.400 . S
C1147 C1148 1.398 . S
C1147 C1153 1.491 . S
C1148 H1139 0.950 . S
C1148 C1147 1.398 . S
C1148 C1149 1.391 . S
C1149 H1137 0.950 . S
C1149 C1145 1.393 . S
C1149 C1148 1.391 . S
C1150 H1140 0.950 . S
C1150 C1151 1.386 . S
C1150 C1152 1.391 . S
C1151 C1150 1.386 . S
C1151 C1155 1.393 . S
C1152 H1141 0.950 . S
C1152 C1150 1.391 . S
C1152 C1153 1.400 . S
C1153 C1147 1.491 . S
C1153 C1152 1.400 . S
C1153 C1154 1.398 . S
C1154 H1142 0.950 . S
C1154 C1153 1.398 . S
C1154 C1155 1.391 . S
C1155 H1143 0.950 . S
C1155 C1151 1.393 . S
C1155 C1154 1.391 . S
H1156 C1164 0.950 . S
H1157 C1169 0.950 . S
H1158 C1166 0.950 . S
H1159 C1168 0.950 . S
H1160 C1170 0.950 . S
H1161 C1172 0.950 . S
H1162 C1174 0.950 . S
H1163 C1175 0.950 . S
C1164 H1156 0.950 . S
C1164 C1165 1.386 . S
C1164 C1166 1.391 . S
C1165 C1164 1.386 . S
C1165 C1169 1.393 . S
C1166 H1158 0.950 . S
C1166 C1164 1.391 . S
C1166 C1167 1.400 . S
C1167 C1166 1.400 . S
C1167 C1168 1.398 . S
C1167 C1173 1.491 . S
C1168 H1159 0.950 . S
C1168 C1167 1.398 . S
C1168 C1169 1.391 . S
C1169 H1157 0.950 . S
C1169 C1165 1.393 . S
C1169 C1168 1.391 . S
C1170 H1160 0.950 . S
C1170 C1171 1.386 . S
C1170 C1172 1.391 . S
C1171 C1170 1.386 . S
C1171 C1175 1.393 . S
C1172 H1161 0.950 . S
C1172 C1170 1.391 . S
C1172 C1173 1.400 . S
C1173 C1167 1.491 . S
C1173 C1172 1.400 . S
C1173 C1174 1.398 . S
C1174 H1162 0.950 . S
C1174 C1173 1.398 . S
C1174 C1175 1.391 . S
C1175 H1163 0.950 . S
C1175 C1171 1.393 . S
C1175 C1174 1.391 . S
H1176 C1184 0.950 . S
H1177 C1189 0.950 . S
H1178 C1186 0.950 . S
H1179 C1188 0.950 . S
H1180 C1190 0.950 . S
H1181 C1192 0.950 . S
H1182 C1194 0.950 . S
H1183 C1195 0.950 . S
C1184 H1176 0.950 . S
C1184 C1185 1.386 . S
C1184 C1186 1.391 . S
C1185 C1184 1.386 . S
C1185 C1189 1.393 . S
C1186 H1178 0.950 . S
C1186 C1184 1.391 . S
C1186 C1187 1.400 . S
C1187 C1186 1.400 . S
C1187 C1188 1.398 . S
C1187 C1193 1.491 . S
C1188 H1179 0.950 . S
C1188 C1187 1.398 . S
C1188 C1189 1.391 . S
C1189 H1177 0.950 . S
C1189 C1185 1.393 . S
C1189 C1188 1.391 . S
C1190 H1180 0.950 . S
C1190 C1191 1.386 . S
C1190 C1192 1.391 . S
C1191 C1190 1.386 . S
C1191 C1195 1.393 . S
C1192 H1181 0.950 . S
C1192 C1190 1.391 . S
C1192 C1193 1.400 . S
C1193 C1187 1.491 . S
C1193 C1192 1.400 . S
C1193 C1194 1.398 . S
C1194 H1182 0.950 . S
C1194 C1193 1.398 . S
C1194 C1195 1.391 . S
C1195 H1183 0.950 . S
C1195 C1191 1.393 . S
C1195 C1194 1.391 . S
H1196 C1204 0.950 . S
H1197 C1209 0.950 . S
H1198 C1206 0.950 . S
H1199 C1208 0.950 . S
H1200 C1210 0.950 . S
H1201 C1212 0.950 . S
H1202 C1214 0.950 . S
H1203 C1215 0.950 . S
C1204 H1196 0.950 . S
C1204 C1205 1.386 . S
C1204 C1206 1.391 . S
C1205 C1204 1.386 . S
C1205 C1209 1.393 . S
C1206 H1198 0.950 . S
C1206 C1204 1.391 . S
C1206 C1207 1.400 . S
C1207 C1206 1.400 . S
C1207 C1208 1.398 . S
C1207 C1213 1.491 . S
C1208 H1199 0.950 . S
C1208 C1207 1.398 . S
C1208 C1209 1.391 . S
C1209 H1197 0.950 . S
C1209 C1205 1.393 . S
C1209 C1208 1.391 . S
C1210 H1200 0.950 . S
C1210 C1211 1.386 . S
C1210 C1212 1.391 . S
C1211 C1210 1.386 . S
C1211 C1215 1.393 . S
C1212 H1201 0.950 . S
C1212 C1210 1.391 . S
C1212 C1213 1.400 . S
C1213 C1207 1.491 . S
C1213 C1212 1.400 . S
C1213 C1214 1.398 . S
C1214 H1202 0.950 . S
C1214 C1213 1.398 . S
C1214 C1215 1.391 . S
C1215 H1203 0.950 . S
C1215 C1211 1.393 . S
C1215 C1214 1.391 . S
H1216 C1224 0.950 . S
H1217 C1229 0.950 . S
H1218 C1226 0.950 . S
H1219 C1228 0.950 . S
H1220 C1230 0.950 . S
H1221 C1232 0.950 . S
H1222 C1234 0.950 . S
H1223 C1235 0.950 . S
C1224 H1216 0.950 . S
C1224 C1225 1.386 . S
C1224 C1226 1.391 . S
C1225 C1224 1.386 . S
C1225 C1229 1.393 . S
C1226 H1218 0.950 . S
C1226 C1224 1.391 . S
C1226 C1227 1.400 . S
C1227 C1226 1.400 . S
C1227 C1228 1.398 . S
C1227 C1233 1.491 . S
C1228 H1219 0.950 . S
C1228 C1227 1.398 . S
C1228 C1229 1.391 . S
C1229 H1217 0.950 . S
C1229 C1225 1.393 . S
C1229 C1228 1.391 . S
C1230 H1220 0.950 . S
C1230 C1231 1.386 . S
C1230 C1232 1.391 . S
C1231 C1230 1.386 . S
C1231 C1235 1.393 . S
C1232 H1221 0.950 . S
C1232 C1230 1.391 . S
C1232 C1233 1.400 . S
C1233 C1227 1.491 . S
C1233 C1232 1.400 . S
C1233 C1234 1.398 . S
C1234 H1222 0.950 . S
C1234 C1233 1.398 . S
C1234 C1235 1.391 . S
C1235 H1223 0.950 . S
C1235 C1231 1.393 . S
C1235 C1234 1.391 . S
H1236 C1244 0.950 . S
H1237 C1249 0.950 . S
H1238 C1246 0.950 . S
H1239 C1248 0.950 . S
H1240 C1250 0.950 . S
H1241 C1252 0.950 . S
H1242 C1254 0.950 . S
H1243 C1255 0.950 . S
C1244 H1236 0.950 . S
C1244 C1245 1.386 . S
C1244 C1246 1.391 . S
C1245 C1244 1.386 . S
C1245 C1249 1.393 . S
C1246 H1238 0.950 . S
C1246 C1244 1.391 . S
C1246 C1247 1.400 . S
C1247 C1246 1.400 . S
C1247 C1248 1.398 . S
C1247 C1253 1.491 . S
C1248 H1239 0.950 . S
C1248 C1247 1.398 . S
C1248 C1249 1.391 . S
C1249 H1237 0.950 . S
C1249 C1245 1.393 . S
C1249 C1248 1.391 . S
C1250 H1240 0.950 . S
C1250 C1251 1.386 . S
C1250 C1252 1.391 . S
C1251 C1250 1.386 . S
C1251 C1255 1.393 . S
C1252 H1241 0.950 . S
C1252 C1250 1.391 . S
C1252 C1253 1.400 . S
C1253 C1247 1.491 . S
C1253 C1252 1.400 . S
C1253 C1254 1.398 . S
C1254 H1242 0.950 . S
C1254 C1253 1.398 . S
C1254 C1255 1.391 . S
C1255 H1243 0.950 . S
C1255 C1251 1.393 . S
C1255 C1254 1.391 . S
H1256 C1264 0.950 . S
H1257 C1269 0.950 . S
H1258 C1266 0.950 . S
H1259 C1268 0.950 . S
H1260 C1270 0.950 . S
H1261 C1272 0.950 . S
H1262 C1274 0.950 . S
H1263 C1275 0.950 . S
C1264 H1256 0.950 . S
C1264 C1265 1.386 . S
C1264 C1266 1.391 . S
C1265 C1264 1.386 . S
C1265 C1269 1.393 . S
C1266 H1258 0.950 . S
C1266 C1264 1.391 . S
C1266 C1267 1.400 . S
C1267 C1266 1.400 . S
C1267 C1268 1.398 . S
C1267 C1273 1.491 . S
C1268 H1259 0.950 . S
C1268 C1267 1.398 . S
C1268 C1269 1.391 . S
C1269 H1257 0.950 . S
C1269 C1265 1.393 . S
C1269 C1268 1.391 . S
C1270 H1260 0.950 . S
C1270 C1271 1.386 . S
C1270 C1272 1.391 . S
C1271 C1270 1.386 . S
C1271 C1275 1.393 . S
C1272 H1261 0.950 . S
C1272 C1270 1.391 . S
C1272 C1273 1.400 . S
C1273 C1267 1.491 . S
C1273 C1272 1.400 . S
C1273 C1274 1.398 . S
C1274 H1262 0.950 . S
C1274 C1273 1.398 . S
C1274 C1275 1.391 . S
C1275 H1263 0.950 . S
C1275 C1271 1.393 . S
C1275 C1274 1.391 . S
H1276 C1284 0.950 . S
H1277 C1289 0.950 . S
H1278 C1286 0.950 . S
H1279 C1288 0.950 . S
H1280 C1290 0.950 . S
H1281 C1292 0.950 . S
H1282 C1294 0.950 . S
H1283 C1295 0.950 . S
C1284 H1276 0.950 . S
C1284 C1285 1.386 . S
C1284 C1286 1.391 . S
C1285 C1284 1.386 . S
C1285 C1289 1.393 . S
C1286 H1278 0.950 . S
C1286 C1284 1.391 . S
C1286 C1287 1.400 . S
C1287 C1286 1.400 . S
C1287 C1288 1.398 . S
C1287 C1293 1.491 . S
C1288 H1279 0.950 . S
C1288 C1287 1.398 . S
C1288 C1289 1.391 . S
C1289 H1277 0.950 . S
C1289 C1285 1.393 . S
C1289 C1288 1.391 . S
C1290 H1280 0.950 . S
C1290 C1291 1.386 . S
C1290 C1292 1.391 . S
C1291 C1290 1.386 . S
C1291 C1295 1.393 . S
C1292 H1281 0.950 . S
C1292 C1290 1.391 . S
C1292 C1293 1.400 . S
C1293 C1287 1.491 . S
C1293 C1292 1.400 . S
C1293 C1294 1.398 . S
C1294 H1282 0.950 . S
C1294 C1293 1.398 . S
C1294 C1295 1.391 . S
C1295 H1283 0.950 . S
C1295 C1291 1.393 . S
C1295 C1294 1.391 . S
H1296 C1304 0.950 . S
H1297 C1309 0.950 . S
H1298 C1306 0.950 . S
H1299 C1308 0.950 . S
H1300 C1310 0.950 . S
H1301 C1312 0.950 . S
H1302 C1314 0.950 . S
H1303 C1315 0.950 . S
C1304 H1296 0.950 . S
C1304 C1305 1.386 . S
C1304 C1306 1.391 . S
C1305 C1304 1.386 . S
C1305 C1309 1.393 . S
C1306 H1298 0.950 . S
C1306 C1304 1.391 . S
C1306 C1307 1.400 . S
C1307 C1306 1.400 . S
C1307 C1308 1.398 . S
C1307 C1313 1.491 . S
C1308 H1299 0.950 . S
C1308 C1307 1.398 . S
C1308 C1309 1.391 . S
C1309 H1297 0.950 . S
C1309 C1305 1.393 . S
C1309 C1308 1.391 . S
C1310 H1300 0.950 . S
C1310 C1311 1.386 . S
C1310 C1312 1.391 . S
C1311 C1310 1.386 . S
C1311 C1315 1.393 . S
C1312 H1301 0.950 . S
C1312 C1310 1.391 . S
C1312 C1313 1.400 . S
C1313 C1307 1.491 . S
C1313 C1312 1.400 . S
C1313 C1314 1.398 . S
C1314 H1302 0.950 . S
C1314 C1313 1.398 . S
C1314 C1315 1.391 . S
C1315 H1303 0.950 . S
C1315 C1311 1.393 . S
C1315 C1314 1.391 . S
H1316 C1324 0.950 . S
H1317 C1329 0.950 . S
H1318 C1326 0.950 . S
H1319 C1328 0.950 . S
H1320 C1330 0.950 . S
H1321 C1332 0.950 . S
H1322 C1334 0.950 . S
H1323 C1335 0.950 . S
C1324 H1316 0.950 . S
C1324 C1325 1.386 . S
C1324 C1326 1.391 . S
C1325 C1324 1.386 . S
C1325 C1329 1.393 . S
C1326 H1318 0.950 . S
C1326 C1324 1.391 . S
C1326 C1327 1.400 . S
C1327 C1326 1.400 . S
C1327 C1328 1.398 . S
C1327 C1333 1.491 . S
C1328 H1319 0.950 . S
C1328 C1327 1.398 . S
C1328 C1329 1.391 . S
C1329 H1317 0.950 . S
C1329 C1325 1.393 . S
C1329 C1328 1.391 . S
C1330 H1320 0.950 . S
C1330 C1331 1.386 . S
C1330 C1332 1.391 . S
C1331 C1330 1.386 . S
C1331 C1335 1.393 . S
C1332 H1321 0.950 . S
C1332 C1330 1.391 . S
C1332 C1333 1.400 . S
C1333 C1327 1.491 . S
C1333 C1332 1.400 . S
C1333 C1334 1.398 . S
C1334 H1322 0.950 . S
C1334 C1333 1.398 . S
C1334 C1335 1.391 . S
C1335 H1323 0.950 . S
C1335 C1331 1.393 . S
C1335 C1334 1.391 . S
H1336 C1344 0.950 . S
H1337 C1349 0.950 . S
H1338 C1346 0.950 . S
H1339 C1348 0.950 . S
H1340 C1350 0.950 . S
H1341 C1352 0.950 . S
H1342 C1354 0.950 . S
H1343 C1355 0.950 . S
C1344 H1336 0.950 . S
C1344 C1345 1.386 . S
C1344 C1346 1.391 . S
C1345 C1344 1.386 . S
C1345 C1349 1.393 . S
C1346 H1338 0.950 . S
C1346 C1344 1.391 . S
C1346 C1347 1.400 . S
C1347 C1346 1.400 . S
C1347 C1348 1.398 . S
C1347 C1353 1.491 . S
C1348 H1339 0.950 . S
C1348 C1347 1.398 . S
C1348 C1349 1.391 . S
C1349 H1337 0.950 . S
C1349 C1345 1.393 . S
C1349 C1348 1.391 . S
C1350 H1340 0.950 . S
C1350 C1351 1.386 . S
C1350 C1352 1.391 . S
C1351 C1350 1.386 . S
C1351 C1355 1.393 . S
C1352 H1341 0.950 . S
C1352 C1350 1.391 . S
C1352 C1353 1.400 . S
C1353 C1347 1.491 . S
C1353 C1352 1.400 . S
C1353 C1354 1.398 . S
C1354 H1342 0.950 . S
C1354 C1353 1.398 . S
C1354 C1355 1.391 . S
C1355 H1343 0.950 . S
C1355 C1351 1.393 . S
C1355 C1354 1.391 . S
H1356 C1364 0.950 . S
H1357 C1369 0.950 . S
H1358 C1366 0.950 . S
H1359 C1368 0.950 . S
H1360 C1370 0.950 . S
H1361 C1372 0.950 . S
H1362 C1374 0.950 . S
H1363 C1375 0.950 . S
C1364 H1356 0.950 . S
C1364 C1365 1.386 . S
C1364 C1366 1.391 . S
C1365 C1364 1.386 . S
C1365 C1369 1.393 . S
C1366 H1358 0.950 . S
C1366 C1364 1.391 . S
C1366 C1367 1.400 . S
C1367 C1366 1.400 . S
C1367 C1368 1.398 . S
C1367 C1373 1.491 . S
C1368 H1359 0.950 . S
C1368 C1367 1.398 . S
C1368 C1369 1.391 . S
C1369 H1357 0.950 . S
C1369 C1365 1.393 . S
C1369 C1368 1.391 . S
C1370 H1360 0.950 . S
C1370 C1371 1.386 . S
C1370 C1372 1.391 . S
C1371 C1370 1.386 . S
C1371 C1375 1.393 . S
C1372 H1361 0.950 . S
C1372 C1370 1.391 . S
C1372 C1373 1.400 . S
C1373 C1367 1.491 . S
C1373 C1372 1.400 . S
C1373 C1374 1.398 . S
C1374 H1362 0.950 . S
C1374 C1373 1.398 . S
C1374 C1375 1.391 . S
C1375 H1363 0.950 . S
C1375 C1371 1.393 . S
C1375 C1374 1.391 . S
H1376 C1384 0.950 . S
H1377 C1389 0.950 . S
H1378 C1386 0.950 . S
H1379 C1388 0.950 . S
H1380 C1390 0.950 . S
H1381 C1392 0.950 . S
H1382 C1394 0.950 . S
H1383 C1395 0.950 . S
C1384 H1376 0.950 . S
C1384 C1385 1.386 . S
C1384 C1386 1.391 . S
C1385 C1384 1.386 . S
C1385 C1389 1.393 . S
C1386 H1378 0.950 . S
C1386 C1384 1.391 . S
C1386 C1387 1.400 . S
C1387 C1386 1.400 . S
C1387 C1388 1.398 . S
C1387 C1393 1.491 . S
C1388 H1379 0.950 . S
C1388 C1387 1.398 . S
C1388 C1389 1.391 . S
C1389 H1377 0.950 . S
C1389 C1385 1.393 . S
C1389 C1388 1.391 . S
C1390 H1380 0.950 . S
C1390 C1391 1.386 . S
C1390 C1392 1.391 . S
C1391 C1390 1.386 . S
C1391 C1395 1.393 . S
C1392 H1381 0.950 . S
C1392 C1390 1.391 . S
C1392 C1393 1.400 . S
C1393 C1387 1.491 . S
C1393 C1392 1.400 . S
C1393 C1394 1.398 . S
C1394 H1382 0.950 . S
C1394 C1393 1.398 . S
C1394 C1395 1.391 . S
C1395 H1383 0.950 . S
C1395 C1391 1.393 . S
C1395 C1394 1.391 . S
C451 C278 1.681 . S
C445 N2 1.709 . S
C471 C304 2.367 . S
C465 C7 2.391 . S
C491 C317 1.725 . S
C485 N12 1.682 . S
C505 C16 1.700 . S
C511 C345 1.726 . S
C531 C365 2.455 . S
C525 C30 2.457 . S
C551 C378 1.561 . S
C545 N35 1.563 . S
C565 C39 1.847 . S
C571 C404 1.802 . S
C591 C417 1.521 . S
C585 N25 1.451 . S
C611 C294 1.239 . S
C605 N58 1.179 . S
C625 N81 1.445 . S
C631 C315 1.465 . S
C651 C324 1.325 . S
C645 N104 1.286 . S
C665 N127 1.205 . S
C671 C338 1.218 . S
C691 C358 0.961 . S
C685 N48 0.976 . S
C711 C394 1.579 . S
C705 N71 1.571 . S
C725 N94 1.012 . S
C731 C415 1.016 . S
C751 C424 1.730 . S
C745 N117 1.741 . S
C765 C85 2.151 . S
C771 C285 2.115 . S
C785 C122 1.860 . S
C791 C374 1.848 . S
C805 C53 1.845 1_556 S
C811 C385 1.805 . S
C831 C397 1.463 . S
C825 C76 1.529 . S
C851 C435 1.696 . S
C845 C99 1.695 . S
C871 C335 1.930 . S
C865 C131 1.897 . S
C891 C354 1.285 . S
C885 C62 1.290 . S
C905 C108 1.232 . S
C911 C297 1.196 . S
C931 C418 1.758 . S
C925 N140 1.781 . S
C945 C145 2.384 . S
C951 C364 2.349 . S
C971 C377 1.631 . S
C965 N150 1.572 . S
C985 C154 1.692 . S
C991 C405 1.704 . S
C1011 C305 2.448 . S
C1005 C168 2.465 . S
C1025 N173 1.446 . S
C1031 C318 1.463 . S
C1051 C344 1.791 . S
C1045 C177 1.841 . S
C1071 C277 1.596 . S
C1065 N163 1.548 . S
C1091 C434 1.697 . S
C1085 C200 1.702 . S
C1111 C375 1.770 . S
C1105 N219 1.722 . S
C1125 N242 1.518 . S
C1131 C384 1.560 . S
C1151 C398 1.472 . S
C1145 C269 1.551 . S
C1171 C298 1.259 . S
C1165 C191 1.296 . S
C1185 N209 1.803 . S
C1191 C334 1.817 . S
C1205 N232 1.341 . S
C1211 C355 1.307 . S
C1225 C260 2.215 . S
C1231 C284 2.184 . S
C1245 C223 1.883 . S
C1251 C425 1.851 . S
C1265 N255 1.407 . S
C1271 C314 1.455 . S
C1285 N186 1.324 . S
C1291 C325 1.328 . S
C1311 C337 1.180 . S
C1305 C214 1.205 . S
C1331 C295 1.424 . S
C1325 C237 1.425 . S
C1351 C395 1.501 . S
C1345 N265 1.437 . S
C1371 C414 0.947 . S
C1365 N196 0.963 . S
C1391 C357 0.876 . S
C1385 C246 0.905 . S
