# Generated by pormake.
# Topology iac, (4,6)-cn, num edge types: 1
# Building blocks:
#     Node 0, Type 0, BuildingBlock: QUQFOY_clean_sbu_3, # of connection points: 4
#     Node 1, Type 0, BuildingBlock: QUQFOY_clean_sbu_3, # of connection points: 4
#     Node 2, Type 0, BuildingBlock: QUQFOY_clean_sbu_3, # of connection points: 4
#     Node 3, Type 0, BuildingBlock: QUQFOY_clean_sbu_3, # of connection points: 4
#     Node 4, Type 0, BuildingBlock: QUQFOY_clean_sbu_3, # of connection points: 4
#     Node 5, Type 0, BuildingBlock: QUQFOY_clean_sbu_3, # of connection points: 4
#     Node 6, Type 0, BuildingBlock: QUQFOY_clean_sbu_3, # of connection points: 4
#     Node 7, Type 0, BuildingBlock: QUQFOY_clean_sbu_3, # of connection points: 4
#     Node 8, Type 0, BuildingBlock: QUQFOY_clean_sbu_3, # of connection points: 4
#     Node 9, Type 0, BuildingBlock: QUQFOY_clean_sbu_3, # of connection points: 4
#     Node 10, Type 0, BuildingBlock: QUQFOY_clean_sbu_3, # of connection points: 4
#     Node 11, Type 0, BuildingBlock: QUQFOY_clean_sbu_3, # of connection points: 4
#     Node 12, Type 0, BuildingBlock: QUQFOY_clean_sbu_3, # of connection points: 4
#     Node 13, Type 0, BuildingBlock: QUQFOY_clean_sbu_3, # of connection points: 4
#     Node 14, Type 0, BuildingBlock: QUQFOY_clean_sbu_3, # of connection points: 4
#     Node 15, Type 0, BuildingBlock: QUQFOY_clean_sbu_3, # of connection points: 4
#     Node 16, Type 0, BuildingBlock: QUQFOY_clean_sbu_3, # of connection points: 4
#     Node 17, Type 0, BuildingBlock: QUQFOY_clean_sbu_3, # of connection points: 4
#     Node 18, Type 0, BuildingBlock: QUQFOY_clean_sbu_3, # of connection points: 4
#     Node 19, Type 0, BuildingBlock: QUQFOY_clean_sbu_3, # of connection points: 4
#     Node 20, Type 0, BuildingBlock: QUQFOY_clean_sbu_3, # of connection points: 4
#     Node 21, Type 0, BuildingBlock: QUQFOY_clean_sbu_3, # of connection points: 4
#     Node 22, Type 0, BuildingBlock: QUQFOY_clean_sbu_3, # of connection points: 4
#     Node 23, Type 0, BuildingBlock: QUQFOY_clean_sbu_3, # of connection points: 4
#     Node 24, Type 1, BuildingBlock: VOLQOD_clean_sbu_1, # of connection points: 6
#     Node 25, Type 1, BuildingBlock: VOLQOD_clean_sbu_1, # of connection points: 6
#     Node 26, Type 1, BuildingBlock: VOLQOD_clean_sbu_1, # of connection points: 6
#     Node 27, Type 1, BuildingBlock: VOLQOD_clean_sbu_1, # of connection points: 6
#     Node 28, Type 1, BuildingBlock: VOLQOD_clean_sbu_1, # of connection points: 6
#     Node 29, Type 1, BuildingBlock: VOLQOD_clean_sbu_1, # of connection points: 6
#     Node 30, Type 1, BuildingBlock: VOLQOD_clean_sbu_1, # of connection points: 6
#     Node 31, Type 1, BuildingBlock: VOLQOD_clean_sbu_1, # of connection points: 6
#     Node 32, Type 1, BuildingBlock: VOLQOD_clean_sbu_1, # of connection points: 6
#     Node 33, Type 1, BuildingBlock: VOLQOD_clean_sbu_1, # of connection points: 6
#     Node 34, Type 1, BuildingBlock: VOLQOD_clean_sbu_1, # of connection points: 6
#     Node 35, Type 1, BuildingBlock: VOLQOD_clean_sbu_1, # of connection points: 6
#     Node 36, Type 1, BuildingBlock: VOLQOD_clean_sbu_1, # of connection points: 6
#     Node 37, Type 1, BuildingBlock: VOLQOD_clean_sbu_1, # of connection points: 6
#     Node 38, Type 1, BuildingBlock: VOLQOD_clean_sbu_1, # of connection points: 6
#     Node 39, Type 1, BuildingBlock: VOLQOD_clean_sbu_1, # of connection points: 6
#     Edge 40, Type (0, 1), BuildingBlock: ZUJKAS_clean_linker_0, # of connection points: 2
#     Edge 41, Type (0, 1), BuildingBlock: ZUJKAS_clean_linker_0, # of connection points: 2
#     Edge 42, Type (0, 1), BuildingBlock: ZUJKAS_clean_linker_0, # of connection points: 2
#     Edge 43, Type (0, 1), BuildingBlock: ZUJKAS_clean_linker_0, # of connection points: 2
#     Edge 44, Type (0, 1), BuildingBlock: ZUJKAS_clean_linker_0, # of connection points: 2
#     Edge 45, Type (0, 1), BuildingBlock: ZUJKAS_clean_linker_0, # of connection points: 2
#     Edge 46, Type (0, 1), BuildingBlock: ZUJKAS_clean_linker_0, # of connection points: 2
#     Edge 47, Type (0, 1), BuildingBlock: ZUJKAS_clean_linker_0, # of connection points: 2
#     Edge 48, Type (0, 1), BuildingBlock: ZUJKAS_clean_linker_0, # of connection points: 2
#     Edge 49, Type (0, 1), BuildingBlock: ZUJKAS_clean_linker_0, # of connection points: 2
#     Edge 50, Type (0, 1), BuildingBlock: ZUJKAS_clean_linker_0, # of connection points: 2
#     Edge 51, Type (0, 1), BuildingBlock: ZUJKAS_clean_linker_0, # of connection points: 2
#     Edge 52, Type (0, 1), BuildingBlock: ZUJKAS_clean_linker_0, # of connection points: 2
#     Edge 53, Type (0, 1), BuildingBlock: ZUJKAS_clean_linker_0, # of connection points: 2
#     Edge 54, Type (0, 1), BuildingBlock: ZUJKAS_clean_linker_0, # of connection points: 2
#     Edge 55, Type (0, 1), BuildingBlock: ZUJKAS_clean_linker_0, # of connection points: 2
#     Edge 56, Type (0, 1), BuildingBlock: ZUJKAS_clean_linker_0, # of connection points: 2
#     Edge 57, Type (0, 1), BuildingBlock: ZUJKAS_clean_linker_0, # of connection points: 2
#     Edge 58, Type (0, 1), BuildingBlock: ZUJKAS_clean_linker_0, # of connection points: 2
#     Edge 59, Type (0, 1), BuildingBlock: ZUJKAS_clean_linker_0, # of connection points: 2
#     Edge 60, Type (0, 1), BuildingBlock: ZUJKAS_clean_linker_0, # of connection points: 2
#     Edge 61, Type (0, 1), BuildingBlock: ZUJKAS_clean_linker_0, # of connection points: 2
#     Edge 62, Type (0, 1), BuildingBlock: ZUJKAS_clean_linker_0, # of connection points: 2
#     Edge 63, Type (0, 1), BuildingBlock: ZUJKAS_clean_linker_0, # of connection points: 2
#     Edge 64, Type (0, 1), BuildingBlock: ZUJKAS_clean_linker_0, # of connection points: 2
#     Edge 65, Type (0, 1), BuildingBlock: ZUJKAS_clean_linker_0, # of connection points: 2
#     Edge 66, Type (0, 1), BuildingBlock: ZUJKAS_clean_linker_0, # of connection points: 2
#     Edge 67, Type (0, 1), BuildingBlock: ZUJKAS_clean_linker_0, # of connection points: 2
#     Edge 68, Type (0, 1), BuildingBlock: ZUJKAS_clean_linker_0, # of connection points: 2
#     Edge 69, Type (0, 1), BuildingBlock: ZUJKAS_clean_linker_0, # of connection points: 2
#     Edge 70, Type (0, 1), BuildingBlock: ZUJKAS_clean_linker_0, # of connection points: 2
#     Edge 71, Type (0, 1), BuildingBlock: ZUJKAS_clean_linker_0, # of connection points: 2
#     Edge 72, Type (0, 1), BuildingBlock: ZUJKAS_clean_linker_0, # of connection points: 2
#     Edge 73, Type (0, 1), BuildingBlock: ZUJKAS_clean_linker_0, # of connection points: 2
#     Edge 74, Type (0, 1), BuildingBlock: ZUJKAS_clean_linker_0, # of connection points: 2
#     Edge 75, Type (0, 1), BuildingBlock: ZUJKAS_clean_linker_0, # of connection points: 2
#     Edge 76, Type (0, 1), BuildingBlock: ZUJKAS_clean_linker_0, # of connection points: 2
#     Edge 77, Type (0, 1), BuildingBlock: ZUJKAS_clean_linker_0, # of connection points: 2
#     Edge 78, Type (0, 1), BuildingBlock: ZUJKAS_clean_linker_0, # of connection points: 2
#     Edge 79, Type (0, 1), BuildingBlock: ZUJKAS_clean_linker_0, # of connection points: 2
#     Edge 80, Type (0, 1), BuildingBlock: ZUJKAS_clean_linker_0, # of connection points: 2
#     Edge 81, Type (0, 1), BuildingBlock: ZUJKAS_clean_linker_0, # of connection points: 2
#     Edge 82, Type (0, 1), BuildingBlock: ZUJKAS_clean_linker_0, # of connection points: 2
#     Edge 83, Type (0, 1), BuildingBlock: ZUJKAS_clean_linker_0, # of connection points: 2
#     Edge 84, Type (0, 1), BuildingBlock: ZUJKAS_clean_linker_0, # of connection points: 2
#     Edge 85, Type (0, 1), BuildingBlock: ZUJKAS_clean_linker_0, # of connection points: 2
#     Edge 86, Type (0, 1), BuildingBlock: ZUJKAS_clean_linker_0, # of connection points: 2
#     Edge 87, Type (0, 1), BuildingBlock: ZUJKAS_clean_linker_0, # of connection points: 2
#     Edge 88, Type (0, 1), BuildingBlock: ZUJKAS_clean_linker_0, # of connection points: 2
#     Edge 89, Type (0, 1), BuildingBlock: ZUJKAS_clean_linker_0, # of connection points: 2
#     Edge 90, Type (0, 1), BuildingBlock: ZUJKAS_clean_linker_0, # of connection points: 2
#     Edge 91, Type (0, 1), BuildingBlock: ZUJKAS_clean_linker_0, # of connection points: 2
#     Edge 92, Type (0, 1), BuildingBlock: ZUJKAS_clean_linker_0, # of connection points: 2
#     Edge 93, Type (0, 1), BuildingBlock: ZUJKAS_clean_linker_0, # of connection points: 2
#     Edge 94, Type (0, 1), BuildingBlock: ZUJKAS_clean_linker_0, # of connection points: 2
#     Edge 95, Type (0, 1), BuildingBlock: ZUJKAS_clean_linker_0, # of connection points: 2
#     Edge 96, Type (0, 1), BuildingBlock: ZUJKAS_clean_linker_0, # of connection points: 2
#     Edge 97, Type (0, 1), BuildingBlock: ZUJKAS_clean_linker_0, # of connection points: 2
#     Edge 98, Type (0, 1), BuildingBlock: ZUJKAS_clean_linker_0, # of connection points: 2
#     Edge 99, Type (0, 1), BuildingBlock: ZUJKAS_clean_linker_0, # of connection points: 2
#     Edge 100, Type (0, 1), BuildingBlock: ZUJKAS_clean_linker_0, # of connection points: 2
#     Edge 101, Type (0, 1), BuildingBlock: ZUJKAS_clean_linker_0, # of connection points: 2
#     Edge 102, Type (0, 1), BuildingBlock: ZUJKAS_clean_linker_0, # of connection points: 2
#     Edge 103, Type (0, 1), BuildingBlock: ZUJKAS_clean_linker_0, # of connection points: 2
#     Edge 104, Type (0, 1), BuildingBlock: ZUJKAS_clean_linker_0, # of connection points: 2
#     Edge 105, Type (0, 1), BuildingBlock: ZUJKAS_clean_linker_0, # of connection points: 2
#     Edge 106, Type (0, 1), BuildingBlock: ZUJKAS_clean_linker_0, # of connection points: 2
#     Edge 107, Type (0, 1), BuildingBlock: ZUJKAS_clean_linker_0, # of connection points: 2
#     Edge 108, Type (0, 1), BuildingBlock: ZUJKAS_clean_linker_0, # of connection points: 2
#     Edge 109, Type (0, 1), BuildingBlock: ZUJKAS_clean_linker_0, # of connection points: 2
#     Edge 110, Type (0, 1), BuildingBlock: ZUJKAS_clean_linker_0, # of connection points: 2
#     Edge 111, Type (0, 1), BuildingBlock: ZUJKAS_clean_linker_0, # of connection points: 2
#     Edge 112, Type (0, 1), BuildingBlock: ZUJKAS_clean_linker_0, # of connection points: 2
#     Edge 113, Type (0, 1), BuildingBlock: ZUJKAS_clean_linker_0, # of connection points: 2
#     Edge 114, Type (0, 1), BuildingBlock: ZUJKAS_clean_linker_0, # of connection points: 2
#     Edge 115, Type (0, 1), BuildingBlock: ZUJKAS_clean_linker_0, # of connection points: 2
#     Edge 116, Type (0, 1), BuildingBlock: ZUJKAS_clean_linker_0, # of connection points: 2
#     Edge 117, Type (0, 1), BuildingBlock: ZUJKAS_clean_linker_0, # of connection points: 2
#     Edge 118, Type (0, 1), BuildingBlock: ZUJKAS_clean_linker_0, # of connection points: 2
#     Edge 119, Type (0, 1), BuildingBlock: ZUJKAS_clean_linker_0, # of connection points: 2
#     Edge 120, Type (0, 1), BuildingBlock: ZUJKAS_clean_linker_0, # of connection points: 2
#     Edge 121, Type (0, 1), BuildingBlock: ZUJKAS_clean_linker_0, # of connection points: 2
#     Edge 122, Type (0, 1), BuildingBlock: ZUJKAS_clean_linker_0, # of connection points: 2
#     Edge 123, Type (0, 1), BuildingBlock: ZUJKAS_clean_linker_0, # of connection points: 2
#     Edge 124, Type (0, 1), BuildingBlock: ZUJKAS_clean_linker_0, # of connection points: 2
#     Edge 125, Type (0, 1), BuildingBlock: ZUJKAS_clean_linker_0, # of connection points: 2
#     Edge 126, Type (0, 1), BuildingBlock: ZUJKAS_clean_linker_0, # of connection points: 2
#     Edge 127, Type (0, 1), BuildingBlock: ZUJKAS_clean_linker_0, # of connection points: 2
#     Edge 128, Type (0, 1), BuildingBlock: ZUJKAS_clean_linker_0, # of connection points: 2
#     Edge 129, Type (0, 1), BuildingBlock: ZUJKAS_clean_linker_0, # of connection points: 2
#     Edge 130, Type (0, 1), BuildingBlock: ZUJKAS_clean_linker_0, # of connection points: 2
#     Edge 131, Type (0, 1), BuildingBlock: ZUJKAS_clean_linker_0, # of connection points: 2
#     Edge 132, Type (0, 1), BuildingBlock: ZUJKAS_clean_linker_0, # of connection points: 2
#     Edge 133, Type (0, 1), BuildingBlock: ZUJKAS_clean_linker_0, # of connection points: 2
#     Edge 134, Type (0, 1), BuildingBlock: ZUJKAS_clean_linker_0, # of connection points: 2
#     Edge 135, Type (0, 1), BuildingBlock: ZUJKAS_clean_linker_0, # of connection points: 2
# Relax obj value: 0.302
# Max RMSD: 0.293
# Mean RMSD: 0.139
data_MOF--net-iac--node1-QUQFOY_clean_sbu_3--node2-VOLQOD_clean_sbu_1--edge1-ZUJKAS_clean_linker_0
_symmetry_space_group_name_H-M    P1
_symmetry_Int_Tables_number       1
_symmetry_cell_setting            triclinic
loop_
_symmetry_equiv_pos_as_xyz
'x, y, z'
_cell_length_a     70.700916
_cell_length_b     72.129761
_cell_length_c     71.272821
_cell_angle_alpha  91.156208
_cell_angle_beta   90.108143
_cell_angle_gamma 90.870113
loop_
_atom_site_label
_atom_site_type_symbol
_atom_site_fract_x
_atom_site_fract_y
_atom_site_fract_z
_atom_type_partial_charge
C0 C 0.96229 0.22568 0.17458 0.0
O1 O 0.9758 0.21647 0.18122 0.0
Cd2 Cd 0.00766 0.21965 0.17086 0.0
O3 O 0.96534 0.23766 0.16197 0.0
Cd4 Cd -0.00636 0.24811 0.14426 0.0
C5 C -0.0017 0.20498 0.12644 0.0
O6 O 0.01554 0.25215 0.17012 0.0
O7 O 0.02843 0.24922 0.14281 0.0
O8 O 0.98334 0.28026 0.14444 0.0
C9 C 0.02993 0.25441 0.15986 0.0
O10 O 0.00756 0.20182 0.14134 0.0
C11 C 0.98654 0.28268 0.12713 0.0
O12 O -0.00956 0.22053 0.12427 0.0
O13 O -0.0085 0.26856 0.11752 0.0
C14 C -0.00657 0.75352 0.35322 0.0
O15 O 0.00648 0.75812 0.34194 0.0
Cd16 Cd 0.03899 0.75239 0.34658 0.0
O17 O -0.00278 0.74569 0.36867 0.0
Cd18 Cd 0.02681 0.7369 0.38515 0.0
C19 C 0.04354 0.78125 0.38426 0.0
O20 O 0.03755 0.72091 0.35754 0.0
O21 O 0.05835 0.72313 0.37956 0.0
O22 O 0.00791 0.71378 0.40141 0.0
C23 C 0.05306 0.71561 0.36417 0.0
O24 O 0.04799 0.77864 0.36715 0.0
C25 C 0.01673 0.71574 0.41689 0.0
O26 O 0.03533 0.76849 0.39334 0.0
O27 O 0.02959 0.72819 0.41777 0.0
C28 C 0.47794 0.71167 0.66261 0.0
O29 O 0.4926 0.7033 0.66798 0.0
Cd30 Cd 0.52124 0.70468 0.65017 0.0
O31 O 0.47844 0.72166 0.64808 0.0
Cd32 Cd 0.50108 0.73199 0.62415 0.0
C33 C 0.50432 0.68821 0.60801 0.0
O34 O 0.52753 0.73711 0.64537 0.0
O35 O 0.53399 0.73817 0.61578 0.0
O36 O 0.48651 0.7623 0.62637 0.0
C37 C 0.53909 0.74148 0.63258 0.0
O38 O 0.51464 0.68537 0.62229 0.0
C39 C 0.48612 0.76475 0.60878 0.0
O40 O 0.4969 0.70392 0.60564 0.0
O41 O 0.49149 0.75137 0.59835 0.0
C42 C 0.49452 0.23778 0.85418 0.0
O43 O 0.5076 0.2422 0.84286 0.0
Cd44 Cd 0.54038 0.24116 0.84926 0.0
O45 O 0.49842 0.23219 0.87063 0.0
Cd46 Cd 0.528 0.22667 0.88896 0.0
C47 C 0.54073 0.27204 0.88605 0.0
O48 O 0.54198 0.21089 0.86272 0.0
O49 O 0.56118 0.21608 0.88567 0.0
O50 O 0.51034 0.203 0.90572 0.0
C51 C 0.55787 0.20795 0.87006 0.0
O52 O 0.54542 0.2691 0.86903 0.0
C53 C 0.51795 0.20675 0.92154 0.0
O54 O 0.53373 0.25907 0.89574 0.0
O55 O 0.52977 0.22015 0.92224 0.0
C56 C 0.12186 0.03395 0.29368 0.0
O57 O 0.11137 0.04458 0.28442 0.0
Cd58 Cd 0.10918 0.04475 0.25124 0.0
O59 O 0.1326 0.02244 0.28521 0.0
Cd60 Cd 0.13946 0.015 0.25153 0.0
C61 C 0.15436 0.05836 0.24223 0.0
O62 O 0.10655 0.01271 0.24198 0.0
O63 O 0.12647 0.01449 0.21926 0.0
O64 O 0.14398 0.98279 0.26006 0.0
C65 C 0.10976 0.01088 0.22463 0.0
O66 O 0.1369 0.06212 0.24088 0.0
C67 C 0.15858 0.98039 0.25001 0.0
O68 O 0.15948 0.04241 0.24733 0.0
O69 O 0.16494 -0.00556 0.24148 0.0
C70 C 0.27013 0.90612 0.49896 0.0
O71 O 0.25729 0.91626 0.49234 0.0
Cd72 Cd 0.2241 0.90997 0.49405 0.0
O73 O 0.26604 0.89062 0.50639 0.0
Cd74 Cd 0.23693 0.8716 0.51137 0.0
C75 C 0.22266 0.8718 0.46554 0.0
O76 O 0.22059 0.89785 0.52497 0.0
O77 O 0.20384 0.87282 0.52217 0.0
O78 O 0.25376 0.85674 0.53694 0.0
C79 C 0.20515 0.88944 0.52817 0.0
O80 O 0.21725 0.88841 0.46803 0.0
C81 C 0.24745 0.84054 0.53294 0.0
O82 O 0.23111 0.8634 0.47857 0.0
O83 O 0.23686 0.83883 0.51861 0.0
C84 C 0.37564 0.9775 0.77381 0.0
O85 O 0.38567 0.97478 0.75927 0.0
Cd86 Cd 0.37904 0.9861 0.72886 0.0
O87 O 0.36016 0.98631 0.77285 0.0
Cd88 Cd 0.34158 0.00068 0.74756 0.0
C89 C 0.33866 0.9614 0.72076 0.0
O90 O 0.36859 0.017 0.73552 0.0
O91 O 0.34425 0.0173 0.71749 0.0
O92 O 0.32868 0.0236 0.76945 0.0
C93 C 0.36076 0.02343 0.72118 0.0
O94 O 0.35546 0.9646 0.71519 0.0
C95 C 0.31167 0.02129 0.76402 0.0
O96 O 0.33119 0.97163 0.73335 0.0
O97 O 0.30857 0.00875 0.75161 0.0
C98 C 0.2471 0.09703 0.01976 0.0
O99 O 0.23541 0.09158 0.03205 0.0
Cd100 Cd 0.20351 0.1011 0.03445 0.0
O101 O 0.24228 0.1088 0.00757 0.0
Cd102 Cd 0.21297 0.12637 0.00127 0.0
C103 C 0.21325 0.14603 0.04473 0.0
O104 O 0.19298 0.09932 0.00232 0.0
O105 O 0.17784 0.12495 0.00285 0.0
O106 O 0.22094 0.12918 0.9679 0.0
C107 C 0.17741 0.10746 0.00083 0.0
O108 O 0.20538 0.13136 0.05081 0.0
C109 C 0.21736 0.14639 0.96756 0.0
O110 O 0.21837 0.14693 0.02773 0.0
O111 O 0.21216 0.154 0.98284 0.0
C112 C 0.77479 0.41839 0.00641 0.0
O113 O 0.76347 0.43027 0.0001 0.0
Cd114 Cd 0.73012 0.42568 -0.00391 0.0
O115 O 0.7688 0.40244 0.01123 0.0
Cd116 Cd 0.7381 0.38565 0.01175 0.0
C117 C 0.73022 0.38968 0.96487 0.0
O118 O 0.71948 0.41105 0.02446 0.0
O119 O 0.7038 0.38687 0.01471 0.0
O120 O 0.74624 0.36716 0.03897 0.0
C121 C 0.70372 0.4026 0.02292 0.0
O122 O 0.72644 0.40676 0.96721 0.0
C123 C 0.74391 0.35169 0.03034 0.0
O124 O 0.7355 0.37998 0.97854 0.0
O125 O 0.73924 0.35221 0.01317 0.0
C126 C 0.87844 0.46882 0.26871 0.0
O127 O 0.88942 0.46366 0.2556 0.0
Cd128 Cd 0.88436 0.47103 0.22361 0.0
O129 O 0.8636 0.47793 0.26511 0.0
Cd130 Cd 0.84762 0.48979 0.23699 0.0
C131 C 0.84294 0.44744 0.21686 0.0
O132 O 0.87646 0.5034 0.22522 0.0
O133 O 0.85341 0.50234 0.20545 0.0
O134 O 0.83562 0.51361 0.25829 0.0
C135 C 0.8697 0.5086 0.20983 0.0
O136 O 0.86023 0.44888 0.21207 0.0
C137 C 0.81972 0.51481 0.25016 0.0
O138 O 0.83537 0.45988 0.22707 0.0
O139 O 0.81655 0.50382 0.23635 0.0
C140 C 0.75101 0.59767 0.52965 0.0
O141 O 0.73981 0.59116 0.54186 0.0
Cd142 Cd 0.707 0.59747 0.54308 0.0
O143 O 0.74499 0.60846 0.51706 0.0
Cd144 Cd 0.71399 0.6224 0.50938 0.0
C145 C 0.71194 0.64327 0.55231 0.0
O146 O 0.69731 0.59304 0.51066 0.0
O147 O 0.67931 0.61675 0.50877 0.0
O148 O 0.72521 0.62604 0.47695 0.0
C149 C 0.68103 0.59931 0.50765 0.0
O150 O 0.70622 0.62797 0.55901 0.0
C151 C 0.71804 0.64199 0.47529 0.0
O152 O 0.71632 0.64425 0.53512 0.0
O153 O 0.70925 0.64851 0.48936 0.0
C154 C 0.60123 0.54217 0.776 0.0
O155 O 0.59184 0.55195 0.76481 0.0
Cd156 Cd 0.595 0.54991 0.7317 0.0
O157 O 0.61379 0.53111 0.76985 0.0
Cd158 Cd 0.62723 0.52361 0.73836 0.0
C159 C 0.63927 0.56796 0.72933 0.0
O160 O 0.59653 0.51726 0.72459 0.0
O161 O 0.61924 0.51964 0.70461 0.0
O162 O 0.63331 0.49285 0.75034 0.0
C163 C 0.60245 0.51438 0.7081 0.0
O164 O 0.62204 0.56974 0.72465 0.0
C165 C 0.64926 0.49103 0.74244 0.0
O166 O 0.64492 0.55287 0.7362 0.0
O167 O 0.65555 0.50488 0.73354 0.0
C168 C 0.96957 0.7641 0.85152 0.0
O169 O 0.98313 0.77335 0.84445 0.0
Cd170 Cd 0.0156 0.77121 0.85249 0.0
O171 O 0.97248 0.75241 0.86438 0.0
Cd172 Cd -0.00024 0.74003 0.88184 0.0
C173 C 0.01372 0.78236 0.89947 0.0
O174 O 0.01819 0.73841 0.85417 0.0
O175 O 0.03378 0.73184 0.87894 0.0
O176 O 0.98527 0.70913 0.88332 0.0
C177 C 0.03356 0.73335 0.86125 0.0
O178 O 0.01884 0.78702 0.88308 0.0
C179 C 0.9857 0.70862 0.90112 0.0
O180 O 0.006 0.76663 0.9023 0.0
O181 O -0.0075 0.72276 0.90977 0.0
C182 C 0.97324 0.25261 0.66875 0.0
O183 O 0.98599 0.24465 0.67808 0.0
Cd184 Cd 0.0164 0.23932 0.66384 0.0
O185 O 0.97657 0.25809 0.65222 0.0
Cd186 Cd 9e-05 0.26108 0.62746 0.0
C187 C 0.00339 0.21445 0.62375 0.0
O188 O 0.0245 0.2684 0.64984 0.0
O189 O 0.03398 0.26633 0.62117 0.0
O190 O 0.98296 0.28936 0.6241 0.0
C191 C 0.03806 0.26932 0.63831 0.0
O192 O 0.01133 0.21486 0.63983 0.0
C193 C 0.98216 0.28873 0.60633 0.0
O194 O -0.00276 0.22919 0.61653 0.0
O195 O -0.00976 0.27523 0.59804 0.0
C196 C 0.49343 0.23103 0.32584 0.0
O197 O 0.50729 0.23991 0.31885 0.0
Cd198 Cd 0.53747 0.24569 0.33313 0.0
O199 O 0.49475 0.22365 0.34189 0.0
Cd200 Cd 0.51896 0.2203 0.36674 0.0
C201 C 0.52366 0.26683 0.37424 0.0
O202 O 0.54545 0.21685 0.34661 0.0
O203 O 0.55287 0.22221 0.37539 0.0
O204 O 0.5105 0.18897 0.37631 0.0
C205 C 0.55839 0.21963 0.35864 0.0
O206 O 0.53221 0.26865 0.35864 0.0
C207 C 0.50504 0.19416 0.39256 0.0
O208 O 0.51694 0.25124 0.37919 0.0
O209 O 0.50613 0.21137 0.39652 0.0
C210 C 0.4603 0.74559 0.17207 0.0
O211 O 0.46933 0.73307 0.18036 0.0
Cd212 Cd 0.4992 0.72275 0.16844 0.0
O213 O 0.46619 0.75208 0.15665 0.0
Cd214 Cd 0.4918 0.7489 0.13365 0.0
C215 C 0.48615 0.7025 0.1265 0.0
O216 O 0.51515 0.75063 0.1583 0.0
O217 O 0.52622 0.74635 0.13036 0.0
O218 O 0.48363 0.78082 0.12857 0.0
C219 C 0.52941 0.74908 0.14771 0.0
O220 O 0.49256 0.7004 0.14301 0.0
C221 C 0.48346 0.77963 0.11079 0.0
O222 O 0.48344 0.71863 0.12021 0.0
O223 O 0.4878 0.76409 0.10342 0.0
C224 C 0.92561 0.01107 0.78442 0.0
O225 O 0.9355 0.00186 0.77273 0.0
Cd226 Cd 0.93489 0.00454 0.73905 0.0
O227 O 0.91415 0.02331 0.77893 0.0
Cd228 Cd 0.90204 0.03777 0.75049 0.0
C229 C 0.88729 -0.00468 0.73239 0.0
O230 O 0.93147 0.03671 0.73432 0.0
O231 O 0.90907 0.04921 0.71899 0.0
O232 O 0.89845 0.0673 0.76741 0.0
C233 C 0.92568 0.04284 0.71886 0.0
O234 O 0.90446 -0.00948 0.73036 0.0
C235 C 0.88085 0.06837 0.76387 0.0
O236 O 0.88305 0.01097 0.73977 0.0
O237 O 0.87338 0.05525 0.75412 0.0
C238 C 0.7809 0.09097 0.48246 0.0
O239 O 0.7738 0.0825 0.49628 0.0
Cd240 Cd 0.74607 0.09119 0.51304 0.0
O241 O 0.77335 0.10566 0.47645 0.0
Cd242 Cd 0.74514 0.12473 0.48397 0.0
C243 C 0.75736 0.13541 0.52886 0.0
O244 O 0.72387 0.09878 0.4894 0.0
O245 O 0.71279 0.12544 0.49707 0.0
O246 O 0.74062 0.12924 0.45054 0.0
C247 C 0.71017 0.10804 0.49575 0.0
O248 O 0.7532 0.11862 0.53251 0.0
C249 C 0.74114 0.14683 0.45145 0.0
O250 O 0.75716 0.14103 0.51203 0.0
O251 O 0.74335 0.15426 0.46763 0.0
C252 C 0.56663 0.97951 0.28998 0.0
O253 O 0.55478 0.98554 0.27822 0.0
Cd254 Cd 0.55901 0.98507 0.24466 0.0
O255 O 0.58225 0.97268 0.28455 0.0
Cd256 Cd 0.60026 0.96604 0.25586 0.0
C257 C 0.6 0.01083 0.24082 0.0
O258 O 0.573 0.95568 0.2386 0.0
O259 O 0.59874 0.95593 0.22263 0.0
O260 O 0.61468 0.9384 0.26823 0.0
C261 C 0.58098 0.95318 0.2229 0.0
O262 O 0.58227 0.00957 0.23767 0.0
C263 C 0.6314 0.94515 0.26825 0.0
O264 O 0.60891 -0.00249 0.24801 0.0
O265 O 0.63355 0.96153 0.26233 0.0
C266 C 0.73069 0.88828 0.01912 0.0
O267 O 0.71584 0.89711 0.0152 0.0
Cd268 Cd 0.68584 0.88213 0.01051 0.0
O269 O 0.7301 0.87076 0.02127 0.0
Cd270 Cd 0.70857 0.84331 0.02202 0.0
C271 C 0.69776 0.84931 0.97618 0.0
O272 O 0.6847 0.86132 0.03591 0.0
O273 O 0.675 0.834 0.02798 0.0
O274 O 0.72816 0.8355 0.04816 0.0
C275 C 0.67108 0.84986 0.0348 0.0
O276 O 0.68926 0.86409 0.98113 0.0
C277 C 0.73065 0.81868 0.04337 0.0
O278 O 0.70656 0.83969 0.9881 0.0
O279 O 0.72238 0.81284 0.02848 0.0
C280 C 0.27316 0.58599 0.97047 0.0
O281 O 0.26 0.57788 0.97938 0.0
Cd282 Cd 0.23631 0.5929 -0.00222 0.0
O283 O 0.27446 0.60365 0.97021 0.0
Cd284 Cd 0.2564 0.63124 0.98098 0.0
C285 C 0.26198 0.62321 0.02717 0.0
O286 O 0.22612 0.61649 0.97782 0.0
O287 O 0.22536 0.64297 -0.00808 0.0
O288 O 0.26149 0.64435 0.95045 0.0
C289 C 0.21642 0.62847 0.98649 0.0
O290 O 0.25073 0.60933 0.02493 0.0
C291 C 0.26878 0.65955 0.95641 0.0
O292 O 0.26766 0.63251 0.01318 0.0
O293 O 0.27019 0.66181 0.97408 0.0
C294 C 0.07916 0.47747 0.79188 0.0
O295 O 0.06845 0.48839 0.78318 0.0
Cd296 Cd 0.07452 0.49901 0.75197 0.0
O297 O 0.09458 0.47201 0.78458 0.0
Cd298 Cd 0.11302 0.47619 0.75573 0.0
C299 C 0.11573 0.52337 0.75853 0.0
O300 O 0.08588 0.47219 0.73522 0.0
O301 O 0.11229 0.47807 0.72141 0.0
O302 O 0.12544 0.44546 0.76113 0.0
C303 C 0.0947 0.47466 0.72002 0.0
O304 O 0.0983 0.52395 0.75408 0.0
C305 C 0.14269 0.45041 0.75968 0.0
O306 O 0.12368 0.50794 0.76117 0.0
O307 O 0.14605 0.46732 0.75615 0.0
C308 C 0.23218 0.38115 0.52807 0.0
O309 O 0.21937 0.39093 0.52085 0.0
Cd310 Cd 0.18905 0.37929 0.51112 0.0
O311 O 0.22946 0.36389 0.5308 0.0
Cd312 Cd 0.2052 0.33885 0.52712 0.0
C313 C 0.20452 0.34547 0.47986 0.0
O314 O 0.18049 0.35894 0.53559 0.0
O315 O 0.17044 0.33225 0.52583 0.0
O316 O 0.21609 0.32652 0.55646 0.0
C317 C 0.1665 0.34851 0.53158 0.0
O318 O 0.1964 0.36094 0.48278 0.0
C319 C 0.22042 0.31068 0.54979 0.0
O320 O 0.20966 0.33549 0.49345 0.0
O321 O 0.21685 0.30756 0.53252 0.0
C322 C 0.42082 0.51709 0.26604 0.0
O323 O 0.43037 0.50977 0.25281 0.0
Cd324 Cd 0.42445 0.51368 0.21997 0.0
O325 O 0.40702 0.52769 0.26264 0.0
Cd326 Cd 0.38906 0.54158 0.2371 0.0
C327 C 0.37797 0.49783 0.22015 0.0
O328 O 0.41655 0.54542 0.21862 0.0
O329 O 0.3914 0.55518 0.20563 0.0
O330 O 0.38388 0.56695 0.25959 0.0
C331 C 0.40871 0.55117 0.20394 0.0
O332 O 0.39517 0.49564 0.21529 0.0
C333 C 0.36651 0.56851 0.25532 0.0
O334 O 0.37267 0.5126 0.22861 0.0
O335 O 0.35991 0.55772 0.24252 0.0
O336 O 0.96308 0.02556 0.02599 0.0
Zn337 Zn 0.9694 0.00103 0.01444 0.0
O338 O 0.96252 0.981 0.03089 0.0
Zn339 Zn 0.98543 0.96901 0.03959 0.0
Zn340 Zn 0.9479 -0.00904 0.05213 0.0
Zn341 Zn 0.94759 0.96301 0.01658 0.0
O342 O -0.01221 0.94289 0.02936 0.0
O343 O 0.96104 0.93904 0.0134 0.0
O344 O -0.00283 0.00202 0.01012 0.0
O345 O 0.00871 0.9832 0.03146 0.0
O346 O 0.98584 0.96848 0.06755 0.0
O347 O 0.96116 0.98527 0.07648 0.0
O348 O 0.9214 0.97967 0.05247 0.0
O349 O 0.95674 -0.00122 -0.01048 0.0
O350 O 0.92325 0.95831 0.02957 0.0
O351 O 0.94171 0.97165 -0.00948 0.0
C352 C 0.95395 0.03074 0.04046 0.0
C353 C 0.97681 0.93295 0.01903 0.0
C354 C 0.97575 0.9759 0.08033 0.0
C355 C 0.01107 -0.00487 0.01872 0.0
C356 C 0.9143 0.9661 0.04295 0.0
C357 C 0.94634 0.98626 0.98184 0.0
O358 O 0.94662 0.01899 0.05153 0.0
O359 O 0.23403 0.71804 0.21259 0.0
Zn360 Zn 0.22799 0.72639 0.23883 0.0
O361 O 0.2311 0.75309 0.24152 0.0
Zn362 Zn 0.25132 0.75905 0.25948 0.0
Zn363 Zn 0.23734 0.76356 0.21722 0.0
Zn364 Zn 0.20756 0.76336 0.25061 0.0
O365 O 0.24172 0.77405 0.28132 0.0
O366 O 0.21065 0.77405 0.2768 0.0
O367 O 0.24468 0.7132 0.25679 0.0
O368 O 0.26215 0.73584 0.26998 0.0
O369 O 0.27301 0.77245 0.24737 0.0
O370 O 0.26426 0.77256 0.21745 0.0
O371 O 0.22131 0.78599 0.21206 0.0
O372 O 0.20148 0.71808 0.24392 0.0
O373 O 0.20013 0.78472 0.23499 0.0
O374 O 0.18666 0.74419 0.25091 0.0
C375 C 0.23606 0.72636 0.19712 0.0
C376 C 0.22515 0.77819 0.28675 0.0
C377 C 0.27643 0.77596 0.23028 0.0
C378 C 0.25765 0.71878 0.26802 0.0
C379 C 0.20697 0.79253 0.2206 0.0
C380 C 0.18651 0.72667 0.24829 0.0
O381 O 0.23611 0.74402 0.19641 0.0
O382 O 0.50217 0.95439 0.53169 0.0
Zn383 Zn 0.49713 0.97761 0.51805 0.0
O384 O 0.50467 -0.00108 0.53357 0.0
Zn385 Zn 0.4827 0.01437 0.53763 0.0
Zn386 Zn 0.51503 -0.00883 0.55783 0.0
Zn387 Zn 0.52344 0.01296 0.52 0.0
O388 O 0.48458 0.03814 0.52372 0.0
O389 O 0.51455 0.03851 0.51462 0.0
O390 O 0.46927 0.97717 0.51328 0.0
O391 O 0.45855 0.00112 0.52992 0.0
O392 O 0.48066 0.0214 0.56459 0.0
O393 O 0.50067 0.00315 0.57936 0.0
O394 O 0.54259 -0.00054 0.56083 0.0
O395 O 0.51014 0.97679 0.49302 0.0
O396 O 0.54742 0.01468 0.53434 0.0
O397 O 0.52921 0.00139 0.49502 0.0
C398 C 0.50767 0.95052 0.54814 0.0
C399 C 0.49855 0.04626 0.51604 0.0
C400 C 0.48808 0.0156 0.57958 0.0
C401 C 0.45565 0.9868 0.51952 0.0
C402 C 0.55322 0.0088 0.54997 0.0
C403 C 0.52273 0.98731 0.48598 0.0
O404 O 0.5128 0.96319 0.55992 0.0
O405 O 0.25454 0.25183 0.79547 0.0
Zn406 Zn 0.2699 0.26104 0.77394 0.0
O407 O 0.26288 0.24806 0.75079 0.0
Zn408 Zn 0.28267 0.2311 0.74266 0.0
Zn409 Zn 0.23928 0.23437 0.75483 0.0
Zn410 Zn 0.25961 0.26636 0.73167 0.0
O411 O 0.28959 0.23477 0.71534 0.0
O412 O 0.27683 0.2621 0.70997 0.0
O413 O 0.29693 0.25626 0.77997 0.0
O414 O 0.30594 0.23507 0.75886 0.0
O415 O 0.27365 0.20465 0.74505 0.0
O416 O 0.24283 0.20717 0.75029 0.0
O417 O 0.21861 0.24311 0.73798 0.0
O418 O 0.26605 0.28856 0.77235 0.0
O419 O 0.23321 0.26471 0.72134 0.0
O420 O 0.26284 0.29228 0.74171 0.0
C421 C 0.23922 0.24243 0.79648 0.0
C422 C 0.28692 0.2485 0.70474 0.0
C423 C 0.25736 0.19731 0.74748 0.0
C424 C 0.3094 0.24554 0.77314 0.0
C425 C 0.21848 0.25517 0.72517 0.0
C426 C 0.2642 0.299 0.7583 0.0
O427 O 0.2311 0.23586 0.78179 0.0
O428 O 0.00966 0.00501 0.45569 0.0
Zn429 Zn -0.01155 -0.00714 0.46986 0.0
O430 O -0.00743 -0.0042 0.49688 0.0
Zn431 Zn -0.00535 0.97167 0.50863 0.0
Zn432 Zn 0.0156 0.01042 0.5019 0.0
Zn433 Zn 0.97117 0.00843 0.50756 0.0
O434 O 0.97699 0.96887 0.53062 0.0
O435 O 0.9611 -0.0049 0.52965 0.0
O436 O -0.01051 0.96579 0.46261 0.0
O437 O -0.00831 0.95099 0.48956 0.0
O438 O 0.02045 0.96884 0.51963 0.0
O439 O 0.03394 -0.00331 0.51787 0.0
O440 O 0.00982 0.03466 0.51478 0.0
O441 O 0.96326 0.00318 0.46142 0.0
O442 O 0.97853 0.03388 0.51714 0.0
O443 O 0.95052 0.01094 0.48889 0.0
C444 C 0.02515 0.01294 0.46066 0.0
C445 C 0.96463 0.97978 0.53734 0.0
C446 C 0.03422 0.97994 0.52309 0.0
C447 C -0.00936 0.95082 0.47171 0.0
C448 C -0.00563 0.04219 0.51964 0.0
C449 C 0.94942 0.00911 0.47114 0.0
O450 O 0.02929 0.01567 0.47789 0.0
O451 O 0.29186 0.73533 0.74635 0.0
Zn452 Zn 0.26939 0.75029 0.75357 0.0
O453 O 0.24666 0.73796 0.74382 0.0
Zn454 Zn 0.23118 0.75491 0.72956 0.0
Zn455 Zn 0.25288 0.71681 0.72764 0.0
Zn456 Zn 0.23264 0.72967 0.76506 0.0
O457 O 0.20618 0.76059 0.74212 0.0
O458 O 0.2098 0.74476 0.76828 0.0
O459 O 0.2722 0.7756 0.74261 0.0
O460 O 0.24562 0.77879 0.72631 0.0
O461 O 0.22693 0.7455 0.70323 0.0
O462 O 0.24761 0.72273 0.70056 0.0
O463 O 0.23745 0.69411 0.73475 0.0
O464 O 0.27025 0.75215 0.78191 0.0
O465 O 0.22415 0.70335 0.76149 0.0
O466 O 0.24683 0.73282 0.78908 0.0
C467 C 0.29433 0.72017 0.73731 0.0
C468 C 0.2006 0.75593 0.75835 0.0
C469 C 0.23601 0.73384 0.69323 0.0
C470 C 0.26165 0.78498 0.73197 0.0
C471 C 0.22683 0.69099 0.74882 0.0
C472 C 0.26076 0.74318 0.79398 0.0
O473 O 0.28062 0.71127 0.72955 0.0
O474 O 0.50026 -0.00185 0.04005 0.0
Zn475 Zn 0.49937 -0.0005 0.0121 0.0
O476 O 0.47478 -0.00958 0.00288 0.0
Zn477 Zn 0.47786 0.96768 0.98817 0.0
Zn478 Zn 0.45772 0.98578 0.02399 0.0
Zn479 Zn 0.4641 0.00882 0.98678 0.0
O480 O 0.46823 0.96975 0.96194 0.0
O481 O 0.45974 -0.00085 0.96054 0.0
O482 O 0.52035 0.98298 0.00307 0.0
O483 O 0.505 0.96061 0.98722 0.0
O484 O 0.46432 0.9464 -3e-05 0.0
O485 O 0.44939 0.959 0.02427 0.0
O486 O 0.43468 0.00187 0.02312 0.0
O487 O 0.50457 0.02614 0.00521 0.0
O488 O 0.43921 0.01707 -0.00331 0.0
O489 O 0.48043 0.03152 0.98624 0.0
C490 C 0.48829 -0.00576 0.05273 0.0
C491 C 0.46165 0.98321 0.95286 0.0
C492 C 0.45353 0.94492 0.01412 0.0
C493 C 0.52028 0.96775 -0.0063 0.0
C494 C 0.42933 0.01355 0.01111 0.0
C495 C 0.4956 0.03685 -0.00553 0.0
O496 O 0.47125 -0.01014 0.04863 0.0
O497 O 0.2161 0.27739 0.24471 0.0
Zn498 Zn 0.24082 0.26952 0.25541 0.0
O499 O 0.26169 0.28014 0.24124 0.0
Zn500 Zn 0.2763 0.26024 0.22976 0.0
Zn501 Zn 0.2518 0.29606 0.22176 0.0
Zn502 Zn 0.2779 0.29472 0.25807 0.0
O503 O 0.303 0.26034 0.23919 0.0
O504 O 0.30315 0.2827 0.26105 0.0
O505 O 0.24086 0.24167 0.25443 0.0
O506 O 0.2651 0.2353 0.23582 0.0
O507 O 0.27581 0.26147 0.20172 0.0
O508 O 0.25609 0.28445 0.19627 0.0
O509 O 0.26425 0.32136 0.22262 0.0
O510 O 0.24133 0.27836 0.28229 0.0
O511 O 0.28256 0.3201 0.2479 0.0
O512 O 0.26615 0.29756 0.28361 0.0
C513 C 0.21133 0.28955 0.23299 0.0
C514 C 0.31137 0.26959 0.25223 0.0
C515 C 0.26635 0.27118 0.19043 0.0
C516 C 0.25121 0.23001 0.24581 0.0
C517 C 0.27626 0.32882 0.2339 0.0
C518 C 0.2519 0.28988 0.29132 0.0
O519 O 0.22363 0.2988 0.22394 0.0
O520 O 0.49118 0.49797 0.94477 0.0
Zn521 Zn 0.47465 0.48406 0.96272 0.0
O522 O 0.48094 0.49132 -0.01136 0.0
Zn523 Zn 0.48818 0.46968 0.00308 0.0
Zn524 Zn 0.50154 0.50979 -0.01101 0.0
Zn525 Zn 0.45889 0.50202 0.00012 0.0
O526 O 0.47138 0.46537 0.02548 0.0
O527 O 0.4507 0.48787 0.02227 0.0
O528 O 0.48035 0.45715 0.95839 0.0
O529 O 0.48905 0.44692 0.98628 0.0
O530 O 0.51428 0.47333 0.01352 0.0
O531 O 0.52449 0.50011 0.00207 0.0
O532 O 0.49395 0.53338 0.00236 0.0
O533 O 0.44716 0.48882 0.95603 0.0
O534 O 0.46389 0.52796 0.00959 0.0
O535 O 0.43724 0.50198 0.98255 0.0
C536 C 0.50438 0.51007 0.94675 0.0
C537 C 0.45679 0.474 0.031 0.0
C538 C 0.52711 0.48569 0.01168 0.0
C539 C 0.48599 0.44418 0.96881 0.0
C540 C 0.47846 0.53853 0.00975 0.0
C541 C 0.43416 0.49627 0.96583 0.0
O542 O 0.5096 0.516 0.9629 0.0
O543 O 0.76418 0.22399 0.22891 0.0
Zn544 Zn 0.74124 0.23826 0.23574 0.0
O545 O 0.72028 0.22952 0.22005 0.0
Zn546 Zn 0.71068 0.25032 0.20624 0.0
Zn547 Zn 0.72803 0.20975 0.20259 0.0
Zn548 Zn 0.70045 0.22041 0.23598 0.0
O549 O 0.68675 0.26051 0.21757 0.0
O550 O 0.67867 0.23752 0.23634 0.0
O551 O 0.74817 0.26494 0.23091 0.0
O552 O 0.72947 0.2712 0.20689 0.0
O553 O 0.70734 0.24352 0.17909 0.0
O554 O 0.72437 0.21798 0.17592 0.0
O555 O 0.71212 0.18635 0.20588 0.0
O556 O 0.73651 0.23437 0.26325 0.0
O557 O 0.69153 0.19541 0.22756 0.0
O558 O 0.7092 0.21883 0.26271 0.0
C559 C 0.76826 0.21119 0.21713 0.0
C560 C 0.67535 0.25307 0.22906 0.0
C561 C 0.71497 0.23106 0.16882 0.0
C562 C 0.74299 0.27565 0.21794 0.0
C563 C 0.69761 0.18324 0.21602 0.0
C564 C 0.72337 0.22561 0.27167 0.0
O565 O 0.75581 0.20414 0.20604 0.0
O566 O 0.00829 0.50473 0.53235 0.0
Zn567 Zn 0.0037 0.50386 0.50463 0.0
O568 O 0.97754 0.496 0.49937 0.0
Zn569 Zn 0.97726 0.47245 0.48559 0.0
Zn570 Zn 0.96346 0.49344 0.52284 0.0
Zn571 Zn 0.96553 0.51429 0.48402 0.0
O572 O 0.96517 0.47425 0.46035 0.0
O573 O 0.95693 0.50374 0.45918 0.0
O574 O 0.02218 0.48515 0.49435 0.0
O575 O 0.00345 0.46295 0.48234 0.0
O576 O 0.96292 0.45306 0.49953 0.0
O577 O 0.9528 0.46759 0.52522 0.0
O578 O 0.94183 0.51118 0.52451 0.0
O579 O 0.00944 0.52955 0.49503 0.0
O580 O 0.9429 0.52479 0.49689 0.0
O581 O 0.98294 0.53566 0.47974 0.0
C582 C -0.00199 0.50201 0.54671 0.0
C583 C 0.95764 0.48756 0.45179 0.0
C584 C 0.9539 0.45302 0.51494 0.0
C585 C 0.01988 0.46931 0.48635 0.0
C586 C 0.93531 0.52263 0.51287 0.0
C587 C -0.00047 0.54027 0.48513 0.0
O588 O 0.98053 0.4978 0.54512 0.0
O589 O 0.75592 0.75268 0.30313 0.0
Zn590 Zn 0.76704 0.76431 0.28013 0.0
O591 O 0.75895 0.75082 0.25751 0.0
Zn592 Zn 0.78004 0.73735 0.2463 0.0
Zn593 Zn 0.73865 0.73352 0.26397 0.0
Zn594 Zn 0.74984 0.76846 0.23967 0.0
O595 O 0.78351 0.74348 0.21898 0.0
O596 O 0.76494 0.7678 0.21597 0.0
O597 O 0.79509 0.76353 0.28255 0.0
O598 O 0.80426 0.74374 0.26015 0.0
O599 O 0.77557 0.70986 0.24763 0.0
O600 O 0.74656 0.70733 0.25927 0.0
O601 O 0.7152 0.73769 0.24883 0.0
O602 O 0.75954 0.79117 0.27986 0.0
O603 O 0.72309 0.76238 0.23227 0.0
O604 O 0.74978 0.79416 0.25051 0.0
C605 C 0.74177 0.74182 0.30542 0.0
C606 C 0.77704 0.75659 0.20927 0.0
C607 C 0.76157 0.70002 0.25298 0.0
C608 C 0.80799 0.75461 0.27403 0.0
C609 C 0.7112 0.74984 0.23681 0.0
C610 C 0.75335 0.80111 0.2667 0.0
O611 O 0.73278 0.73471 0.29149 0.0
O612 O 0.7397 0.2345 0.70973 0.0
Zn613 Zn 0.73709 0.23857 0.73744 0.0
O614 O 0.74135 0.2645 0.7442 0.0
Zn615 Zn 0.76152 0.26636 0.76287 0.0
Zn616 Zn 0.74837 0.27843 0.72193 0.0
Zn617 Zn 0.71836 0.27458 0.75485 0.0
O618 O 0.75383 0.2814 0.78542 0.0
O619 O 0.72298 0.2846 0.781 0.0
O620 O 0.75543 0.22229 0.75053 0.0
O621 O 0.76994 0.24121 0.77103 0.0
O622 O 0.78456 0.27806 0.75188 0.0
O623 O 0.77592 0.28585 0.72319 0.0
O624 O 0.73275 0.30162 0.71995 0.0
O625 O 0.71126 0.2298 0.74507 0.0
O626 O 0.70981 0.29656 0.74056 0.0
O627 O 0.69771 0.25528 0.75617 0.0
C628 C 0.74266 0.24507 0.69592 0.0
C629 C 0.73781 0.28714 0.79093 0.0
C630 C 0.78843 0.28486 0.736 0.0
C631 C 0.76698 0.22503 0.76407 0.0
C632 C 0.71742 0.30644 0.72795 0.0
C633 C 0.6971 0.238 0.75216 0.0
O634 O 0.74548 0.26246 0.69835 0.0
O635 O 0.70127 0.79693 0.72846 0.0
Zn636 Zn 0.72134 0.78653 0.74508 0.0
O637 O 0.74635 0.79391 0.73601 0.0
Zn638 Zn 0.76173 0.77199 0.73154 0.0
Zn639 Zn 0.74435 0.80762 0.71279 0.0
Zn640 Zn 0.75836 0.80981 0.75475 0.0
O641 O 0.78556 0.77261 0.74701 0.0
O642 O 0.78143 0.79791 0.76472 0.0
O643 O 0.7183 0.75865 0.74477 0.0
O644 O 0.7471 0.74889 0.73774 0.0
O645 O 0.76769 0.76861 0.70419 0.0
O646 O 0.75379 0.79241 0.69097 0.0
O647 O 0.75824 0.83218 0.71409 0.0
O648 O 0.71673 0.79587 0.77157 0.0
O649 O 0.76654 0.83408 0.74411 0.0
O650 O 0.74156 0.81446 0.77675 0.0
C651 C 0.70172 0.80709 0.71404 0.0
C652 C 0.79086 0.78363 0.76024 0.0
C653 C 0.76287 0.77734 0.68964 0.0
C654 C 0.72994 0.74556 0.74205 0.0
C655 C 0.76596 0.84096 0.72783 0.0
C656 C 0.72586 0.80746 0.78197 0.0
O657 O 0.71729 0.81246 0.70691 0.0
O658 O 0.46701 0.51359 0.50568 0.0
Zn659 Zn 0.47564 0.49011 0.49361 0.0
O660 O 0.46798 0.4689 0.50826 0.0
Zn661 Zn 0.49042 0.45534 0.51589 0.0
Zn662 Zn 0.45403 0.47719 0.53047 0.0
Zn663 Zn 0.45184 0.45305 0.49259 0.0
O664 O 0.49131 0.43012 0.5033 0.0
O665 O 0.46405 0.4287 0.48778 0.0
O666 O 0.50372 0.4921 0.49142 0.0
O667 O 0.51426 0.46928 0.5089 0.0
O668 O 0.49165 0.45293 0.54387 0.0
O669 O 0.46832 0.47092 0.55379 0.0
O670 O 0.42808 0.46514 0.53153 0.0
O671 O 0.46508 0.48916 0.46777 0.0
O672 O 0.42684 0.44877 0.50478 0.0
O673 O 0.44733 0.46359 0.46712 0.0
C674 C 0.45759 0.51759 0.52034 0.0
C675 C 0.47964 0.42152 0.49248 0.0
C676 C 0.48251 0.46082 0.55708 0.0
C677 C 0.51723 0.48327 0.49866 0.0
C678 C 0.4193 0.45426 0.52008 0.0
C679 C 0.45389 0.47795 0.4592 0.0
O680 O 0.45145 0.50503 0.53117 0.0
O681 O 0.01958 0.45718 0.03277 0.0
Zn682 Zn 0.00977 0.47552 0.01488 0.0
O683 O 0.01533 0.50045 0.02449 0.0
Zn684 Zn -0.00803 0.51392 0.02834 0.0
Zn685 Zn 0.02979 0.49974 0.04819 0.0
Zn686 Zn 0.02963 0.51314 0.00561 0.0
O687 O -0.01113 0.53488 0.01064 0.0
O688 O 0.01501 0.53335 -0.0063 0.0
O689 O 0.9817 0.47081 0.01308 0.0
O690 O 0.96964 0.49691 0.02455 0.0
O691 O -0.00943 0.52437 0.05439 0.0
O692 O 0.01477 0.51165 0.06909 0.0
O693 O 0.05441 0.51496 0.04645 0.0
O694 O 0.02175 0.47015 -0.01026 0.0
O695 O 0.05207 0.52509 0.01733 0.0
O696 O 0.03798 0.49614 0.985 0.0
C697 C 0.02861 0.45771 0.04823 0.0
C698 C -0.00083 0.5407 -0.00265 0.0
C699 C 0.00012 0.52169 0.06919 0.0
C700 C 0.96755 0.48045 0.01804 0.0
C701 C 0.06056 0.52486 0.03305 0.0
C702 C 0.03323 0.4797 0.98001 0.0
O703 O 0.03388 0.47304 0.05599 0.0
H704 H 0.96906 0.20173 0.10149 0.0
H705 H 0.95886 0.17374 0.08417 0.0
H706 H 0.00838 0.14543 0.10339 0.0
H707 H 0.01825 0.17313 0.1214 0.0
H708 H 0.97206 0.1515 0.05717 0.0
H709 H 0.96693 0.11264 0.12314 0.0
H710 H 0.97115 0.13734 0.1229 0.0
H711 H -0.0096 0.12155 0.11945 0.0
C712 C 0.97795 0.18964 0.10179 0.0
C713 C -0.00569 0.18952 0.11303 0.0
C714 C 0.97206 0.17363 0.09192 0.0
C715 C 0.98254 0.15732 0.09299 0.0
C716 C -0.00027 0.15767 0.10291 0.0
H717 H 0.97611 0.05809 0.02593 0.0
H718 H 0.98005 0.08976 0.03761 0.0
C719 C 0.00545 0.17356 0.11305 0.0
C720 C 0.97507 0.13974 0.08454 0.0
H721 H 0.96503 0.09467 0.09473 0.0
C722 C 0.97037 0.13909 0.06539 0.0
C723 C 0.97224 0.12372 0.09541 0.0
C724 C 0.97523 0.12388 0.1164 0.0
C725 C 0.9637 0.12263 0.05665 0.0
C726 C 0.96228 0.10626 0.06723 0.0
C727 C 0.96626 0.10714 0.08653 0.0
C728 C 0.95797 0.0878 0.05854 0.0
C729 C 0.95811 0.12306 0.03622 0.0
C730 C 0.94435 0.07594 0.06649 0.0
C731 C 0.94238 0.05754 0.06012 0.0
C732 C 0.95389 0.05073 0.04557 0.0
C733 C 0.96686 0.0629 0.03704 0.0
C734 C 0.96904 0.08114 0.04362 0.0
H735 H 0.95305 0.137 0.03241 0.0
H736 H 0.97067 0.12004 0.02742 0.0
H737 H 0.94683 0.11266 0.0328 0.0
H738 H 0.93569 0.08074 0.07808 0.0
H739 H 0.93225 0.04852 0.06696 0.0
H740 H 0.04211 0.68915 0.33877 0.0
H741 H 0.06199 0.67363 0.31546 0.0
H742 H 0.11129 0.70097 0.33974 0.0
H743 H 0.09157 0.71557 0.36361 0.0
H744 H 0.07781 0.69148 0.29019 0.0
H745 H 0.13532 0.65462 0.32352 0.0
H746 H 0.11423 0.66066 0.33641 0.0
H747 H 0.13421 0.67658 0.33552 0.0
C748 C 0.0573 0.69129 0.33946 0.0
C749 C 0.06537 0.70368 0.35277 0.0
C750 C 0.06863 0.68237 0.32619 0.0
C751 C 0.08819 0.68598 0.32583 0.0
C752 C 0.09636 0.69743 0.33998 0.0
H753 H 0.15193 0.74007 0.25782 0.0
H754 H 0.12553 0.72277 0.27075 0.0
C755 C 0.08506 0.706 0.35353 0.0
C756 C 0.09934 0.68134 0.30883 0.0
H757 H 0.1452 0.67475 0.29644 0.0
C758 C 0.09235 0.68709 0.29143 0.0
C759 C 0.11808 0.6749 0.30995 0.0
C760 C 0.12572 0.66614 0.32737 0.0
C761 C 0.10443 0.68933 0.27609 0.0
C762 C 0.12395 0.68631 0.27847 0.0
C763 C 0.1303 0.67773 0.29479 0.0
C764 C 0.13816 0.69578 0.26669 0.0
C765 C 0.0964 0.69633 0.25799 0.0
C766 C 0.15406 0.6864 0.25993 0.0
C767 C 0.16941 0.69638 0.25271 0.0
C768 C 0.16912 0.71589 0.25236 0.0
C769 C 0.15266 0.72508 0.25796 0.0
C770 C 0.13739 0.71514 0.26515 0.0
H771 H 0.08221 0.69001 0.25525 0.0
H772 H 0.09457 0.71156 0.2592 0.0
H773 H 0.10575 0.6932 0.24587 0.0
H774 H 0.15499 0.67149 0.26113 0.0
H775 H 0.18187 0.68886 0.24842 0.0
H776 H 0.47425 0.79576 0.62768 0.0
H777 H 0.47516 0.82755 0.61633 0.0
H778 H 0.49144 0.80738 0.56144 0.0
H779 H 0.49049 0.77555 0.57258 0.0
H780 H 0.51731 0.83431 0.58132 0.0
H781 H 0.4425 0.85697 0.57704 0.0
H782 H 0.44936 0.84461 0.59761 0.0
H783 H 0.44903 0.83286 0.5752 0.0
C784 C 0.4775 0.79804 0.61306 0.0
C785 C 0.48244 0.78318 0.60106 0.0
C786 C 0.47799 0.81619 0.6066 0.0
C787 C 0.4834 0.81971 0.58809 0.0
C788 C 0.48721 0.80485 0.57578 0.0
H789 H 0.49466 0.92081 0.52738 0.0
H790 H 0.4895 0.88913 0.53765 0.0
C791 C 0.4866 0.78669 0.58216 0.0
C792 C 0.48729 0.83888 0.58225 0.0
H793 H 0.46632 0.87986 0.57255 0.0
C794 C 0.50619 0.84429 0.57937 0.0
C795 C 0.4727 0.85174 0.57979 0.0
C796 C 0.45221 0.84634 0.58244 0.0
C797 C 0.51091 0.8624 0.57414 0.0
C798 C 0.49635 0.8753 0.57178 0.0
C799 C 0.47743 0.86987 0.57455 0.0
C800 C 0.50042 0.89432 0.56563 0.0
C801 C 0.53137 0.86761 0.57087 0.0
C802 C 0.50851 0.90759 0.57799 0.0
C803 C 0.51147 0.92582 0.57221 0.0
C804 C 0.5064 0.93096 0.55396 0.0
C805 C 0.49876 0.91739 0.54153 0.0
C806 C 0.49571 0.89927 0.54736 0.0
H807 H 0.54074 0.85539 0.57116 0.0
H808 H 0.53297 0.87445 0.55713 0.0
H809 H 0.53613 0.87768 0.58194 0.0
H810 H 0.51217 0.90392 0.59219 0.0
H811 H 0.51734 0.93593 0.58213 0.0
H812 H 0.4621 0.22944 0.87377 0.0
H813 H 0.4294 0.23088 0.86235 0.0
H814 H 0.44956 0.24974 0.80884 0.0
H815 H 0.482 0.24864 0.82005 0.0
H816 H 0.41978 0.27032 0.82318 0.0
H817 H 0.40444 0.19443 0.82407 0.0
H818 H 0.41265 0.20479 0.84581 0.0
H819 H 0.42816 0.20392 0.8259 0.0
C820 C 0.45955 0.23391 0.85959 0.0
C821 C 0.47467 0.23886 0.84781 0.0
C822 C 0.44089 0.23463 0.85307 0.0
C823 C 0.43716 0.2402 0.83469 0.0
C824 C 0.45219 0.24536 0.82305 0.0
H825 H 0.34067 0.22626 0.76188 0.0
H826 H 0.37136 0.22524 0.77776 0.0
C827 C 0.47074 0.24469 0.82952 0.0
C828 C 0.41765 0.24088 0.82734 0.0
H829 H 0.37979 0.2137 0.81423 0.0
C830 C 0.41095 0.25798 0.82133 0.0
C831 C 0.40637 0.22468 0.82475 0.0
C832 C 0.41325 0.20586 0.83031 0.0
C833 C 0.39331 0.25931 0.81254 0.0
C834 C 0.38196 0.24313 0.81005 0.0
C835 C 0.38856 0.22605 0.81624 0.0
C836 C 0.36336 0.24362 0.80066 0.0
C837 C 0.38725 0.27789 0.80544 0.0
C838 C 0.34874 0.25417 0.80842 0.0
C839 C 0.33129 0.2549 0.79936 0.0
C840 C 0.32808 0.24493 0.78244 0.0
C841 C 0.3427 0.23416 0.77484 0.0
C842 C 0.36021 0.2335 0.7839 0.0
H843 H 0.3994 0.28775 0.80427 0.0
H844 H 0.38031 0.27637 0.79149 0.0
H845 H 0.37692 0.28403 0.81539 0.0
H846 H 0.35081 0.26178 0.82154 0.0
H847 H 0.32029 0.26319 0.80572 0.0
H848 H 0.04019 0.79068 0.4213 0.0
H849 H 0.03424 0.82155 0.4344 0.0
H850 H 0.04334 0.84521 0.38003 0.0
H851 H 0.04922 0.81429 0.36668 0.0
H852 H 0.0544 0.85722 0.43428 0.0
H853 H 0.98685 0.85576 0.39381 0.0
H854 H 0.00062 0.83522 0.3972 0.0
H855 H 0.00826 0.85223 0.38071 0.0
C856 C 0.04139 0.80248 0.41219 0.0
C857 C 0.04487 0.80001 0.39289 0.0
C858 C 0.03799 0.8201 0.41971 0.0
C859 C 0.03796 0.83551 0.40806 0.0
C860 C 0.04303 0.83337 0.38914 0.0
H861 H -0.00525 0.94562 0.43378 0.0
H862 H 0.0062 0.91785 0.41753 0.0
C863 C 0.04652 0.81572 0.38158 0.0
C864 C 0.03079 0.85331 0.41546 0.0
H865 H -0.00763 0.88136 0.41408 0.0
C866 C 0.04093 0.86262 0.42979 0.0
C867 C 0.01316 0.86019 0.40955 0.0
C868 C 0.00145 0.85033 0.39457 0.0
C869 C 0.03383 0.87866 0.43849 0.0
C870 C 0.01592 0.88522 0.43298 0.0
C871 C 0.00602 0.87618 0.41832 0.0
C872 C 0.00718 0.90132 0.44249 0.0
C873 C 0.04557 0.88848 0.45346 0.0
C874 C 0.00306 0.90087 0.46171 0.0
C875 C -0.00351 0.91668 0.47106 0.0
C876 C -0.00617 0.9332 0.4613 0.0
C877 C -0.00329 0.93317 0.44176 0.0
C878 C 0.00334 0.91735 0.43244 0.0
H879 H 0.06074 0.88479 0.45241 0.0
H880 H 0.04438 0.90376 0.45251 0.0
H881 H 0.04043 0.88431 0.46749 0.0
H882 H 0.00544 0.88843 0.46958 0.0
H883 H -0.00575 0.91614 0.48607 0.0
H884 H 0.47214 0.69535 0.69661 0.0
H885 H 0.44232 0.69308 0.71397 0.0
H886 H 0.41367 0.72107 0.66944 0.0
H887 H 0.44326 0.72374 0.65224 0.0
H888 H 0.40683 0.73602 0.70461 0.0
H889 H 0.3959 0.65941 0.70309 0.0
H890 H 0.41825 0.66786 0.71212 0.0
H891 H 0.4125 0.67095 0.68785 0.0
C892 C 0.45945 0.70093 0.69049 0.0
C893 C 0.46006 0.70977 0.67308 0.0
C894 C 0.44244 0.69952 0.70037 0.0
C895 C 0.42582 0.70673 0.69286 0.0
C896 C 0.42639 0.71539 0.67544 0.0
H897 H 0.30775 0.69799 0.70903 0.0
H898 H 0.34097 0.6925 0.70153 0.0
C899 C 0.44332 0.71693 0.66565 0.0
C900 C 0.40786 0.70622 0.70333 0.0
H901 H 0.37271 0.67728 0.71851 0.0
C902 C 0.39942 0.72319 0.70783 0.0
C903 C 0.3983 0.68942 0.70736 0.0
C904 C 0.40657 0.67084 0.70227 0.0
C905 C 0.38132 0.72388 0.71564 0.0
C906 C 0.37165 0.70709 0.71959 0.0
C907 C 0.3803 0.69008 0.71561 0.0
C908 C 0.35188 0.70712 0.72617 0.0
C909 C 0.37235 0.7426 0.71862 0.0
C910 C 0.34708 0.71636 0.74294 0.0
C911 C 0.32818 0.71981 0.74707 0.0
C912 C 0.31381 0.7137 0.73467 0.0
C913 C 0.31856 0.70293 0.71878 0.0
C914 C 0.3375 0.69974 0.71451 0.0
H915 H 0.37999 0.7537 0.71099 0.0
H916 H 0.35738 0.74228 0.7139 0.0
H917 H 0.37267 0.74635 0.7338 0.0
H918 H 0.358 0.72176 0.75232 0.0
H919 H 0.32487 0.72786 0.7596 0.0
H920 H 0.49071 0.18007 0.92542 0.0
H921 H 0.48912 0.15658 0.94948 0.0
H922 H 0.53661 0.18252 0.97825 0.0
H923 H 0.53828 0.20622 0.95415 0.0
H924 H 0.54214 0.14565 0.96798 0.0
H925 H 0.47389 0.15257 0.00454 0.0
H926 H 0.47086 0.15446 0.97968 0.0
H927 H 0.48499 0.17157 -0.00767 0.0
C928 C 0.50048 0.18109 0.93713 0.0
C929 C 0.51471 0.19486 0.93783 0.0
C930 C 0.49946 0.16775 0.95098 0.0
C931 C 0.51263 0.16795 0.96575 0.0
C932 C 0.52622 0.18227 0.96706 0.0
H933 H 0.52175 0.05665 0.01573 0.0
H934 H 0.52886 0.09007 0.01421 0.0
C935 C 0.52714 0.19576 0.95327 0.0
C936 C 0.51394 0.15148 0.97762 0.0
H937 H 0.48535 0.12079 0.00017 0.0
C938 C 0.53002 0.14043 0.97567 0.0
C939 C 0.4982 0.14483 0.98777 0.0
C940 C 0.4811 0.15661 -0.00863 0.0
C941 C 0.52986 0.12202 0.98165 0.0
C942 C 0.51326 0.11474 -0.01015 0.0
C943 C 0.498 0.12643 -0.00633 0.0
C944 C 0.50994 0.09457 -0.00909 0.0
C945 C 0.54664 0.10995 0.97751 0.0
C946 C 0.49723 0.08618 0.97815 0.0
C947 C 0.4932 0.06729 0.97892 0.0
C948 C 0.50179 0.05636 -0.00747 0.0
C949 C 0.51499 0.0647 0.00502 0.0
C950 C 0.51901 0.08375 0.00424 0.0
H951 H 0.55843 0.11776 0.97086 0.0
H952 H 0.55189 0.10397 -0.00927 0.0
H953 H 0.54231 0.09824 0.96801 0.0
H954 H 0.49025 0.09433 0.96764 0.0
H955 H 0.48304 0.06134 0.96902 0.0
H956 H 0.03334 0.2797 0.1883 0.0
H957 H 0.06244 0.29367 0.20109 0.0
H958 H 0.09518 0.26046 0.16231 0.0
H959 H 0.066 0.2475 0.14864 0.0
H960 H 0.08864 0.27971 0.21921 0.0
H961 H 0.12209 0.30796 0.15613 0.0
H962 H 0.09789 0.29967 0.15599 0.0
H963 H 0.11709 0.28384 0.15194 0.0
C964 C 0.04679 0.27557 0.18241 0.0
C965 C 0.04753 0.26257 0.16753 0.0
C966 C 0.06339 0.28358 0.18968 0.0
C967 C 0.08105 0.27845 0.18243 0.0
C968 C 0.08175 0.26523 0.16767 0.0
H969 H 0.18269 0.26516 0.23998 0.0
H970 H 0.15013 0.26656 0.22934 0.0
C971 C 0.06511 0.25763 0.16003 0.0
C972 C 0.09874 0.28562 0.19136 0.0
H973 H 0.1437 0.2999 0.18138 0.0
C974 C 0.10053 0.28452 0.21094 0.0
C975 C 0.11414 0.29253 0.18078 0.0
C976 C 0.11258 0.29628 0.16009 0.0
C977 C 0.11768 0.2888 0.22 0.0
C978 C 0.1337 0.29341 0.20911 0.0
C979 C 0.13155 0.29592 0.18974 0.0
C980 C 0.15307 0.29371 0.21709 0.0
C981 C 0.11841 0.28805 0.24114 0.0
C982 C 0.16581 0.30831 0.21337 0.0
C983 C 0.18471 0.30729 0.21901 0.0
C984 C 0.19109 0.29174 0.22862 0.0
C985 C 0.17817 0.27746 0.23284 0.0
C986 C 0.15944 0.27832 0.2269 0.0
H987 H 0.10469 0.29225 0.24736 0.0
H988 H 0.12097 0.27358 0.24537 0.0
H989 H 0.12978 0.29719 0.24709 0.0
H990 H 0.16124 0.32026 0.2057 0.0
H991 H 0.19437 0.31851 0.21557 0.0
H992 H 0.10733 0.0197 0.1877 0.0
H993 H 0.08128 0.01222 0.16605 0.0
H994 H 0.05231 0.98263 0.20983 0.0
H995 H 0.07776 -0.00892 0.23176 0.0
H996 H 0.06881 0.98113 0.15283 0.0
H997 H 0.01006 0.01323 0.19244 0.0
H998 H 0.03448 0.0168 0.19906 0.0
H999 H 0.02188 -0.00391 0.20581 0.0
C1000 C 0.09531 0.01173 0.19269 0.0
C1001 C 0.09441 0.0061 0.21138 0.0
C1002 C 0.08044 0.00746 0.18035 0.0
C1003 C 0.06461 -0.00281 0.18641 0.0
C1004 C 0.064 -0.00888 0.20498 0.0
H1005 H -0.00682 0.94784 0.09815 0.0
H1006 H 0.01236 0.95078 0.12674 0.0
C1007 C 0.07863 -0.00419 0.21745 0.0
C1008 C 0.04917 -0.00774 0.17302 0.0
H1009 H 0.00139 -0.00608 0.16626 0.0
C1010 C 0.05407 0.984 0.15575 0.0
C1011 C 0.02995 -0.00386 0.17678 0.0
C1012 C 0.02379 0.00623 0.19445 0.0
C1013 C 0.04042 0.97981 0.142 0.0
C1014 C 0.0211 0.98307 0.146 0.0
C1015 C 0.01614 -0.00889 0.16336 0.0
C1016 C 0.00615 0.97978 0.13166 0.0
C1017 C 0.04705 0.97279 0.12304 0.0
C1018 C -0.00519 -0.00547 0.12611 0.0
C1019 C 0.98325 -0.00737 0.11026 0.0
C1020 C 0.98317 0.97606 0.0996 0.0
C1021 C -0.0068 0.96081 0.10609 0.0
C1022 C 0.00431 0.96255 0.12225 0.0
H1023 H 0.06228 0.97602 0.12073 0.0
H1024 H 0.0452 0.9575 0.12219 0.0
H1025 H 0.03882 0.97896 0.11151 0.0
H1026 H -0.00416 0.00791 0.13326 0.0
H1027 H 0.97569 0.00461 0.10548 0.0
H1028 H 0.23328 0.83683 0.45512 0.0
H1029 H 0.23036 0.82194 0.42419 0.0
H1030 H 0.2023 0.87007 0.40338 0.0
H1031 H 0.20538 0.88528 0.43426 0.0
H1032 H 0.19837 0.8135 0.40185 0.0
H1033 H 0.24758 0.86341 0.36778 0.0
H1034 H 0.24552 0.86188 0.39294 0.0
H1035 H 0.22775 0.87351 0.37973 0.0
C1036 C 0.22641 0.84427 0.44402 0.0
C1037 C 0.21973 0.86234 0.44713 0.0
C1038 C 0.22472 0.8357 0.42637 0.0
C1039 C 0.21636 0.84502 0.41149 0.0
C1040 C 0.2091 0.86279 0.41464 0.0
H1041 H 0.19231 0.7909 0.30251 0.0
H1042 H 0.18872 0.80759 0.3325 0.0
C1043 C 0.21081 0.87142 0.43231 0.0
C1044 C 0.21585 0.83622 0.39259 0.0
H1045 H 0.234 0.83987 0.34848 0.0
C1046 C 0.20603 0.81929 0.39011 0.0
C1047 C 0.22605 0.84379 0.37743 0.0
C1048 C 0.23747 0.86156 0.37954 0.0
C1049 C 0.20634 0.80956 0.37287 0.0
C1050 C 0.21654 0.81714 0.35773 0.0
C1051 C 0.22612 0.83419 0.36013 0.0
C1052 C 0.21848 0.80706 0.33959 0.0
C1053 C 0.19636 0.79096 0.3712 0.0
C1054 C 0.23643 0.80157 0.33354 0.0
C1055 C 0.23857 0.79215 0.31642 0.0
C1056 C 0.22276 0.78809 0.30496 0.0
C1057 C 0.20476 0.79371 0.31104 0.0
C1058 C 0.20266 0.80318 0.3282 0.0
H1059 H 0.19256 0.78539 0.38515 0.0
H1060 H 0.18313 0.79244 0.36301 0.0
H1061 H 0.20534 0.78073 0.3637 0.0
H1062 H 0.24881 0.80449 0.34215 0.0
H1063 H 0.25263 0.78806 0.31219 0.0
H1064 H 0.38976 0.04757 0.72788 0.0
H1065 H 0.4137 0.05761 0.70537 0.0
H1066 H 0.38301 0.02869 0.66095 0.0
H1067 H 0.3586 0.01965 0.6832 0.0
H1068 H 0.43588 0.0353 0.68942 0.0
H1069 H 0.4007 0.07175 0.63255 0.0
H1070 H 0.38909 0.06782 0.65469 0.0
H1071 H 0.38804 0.05045 0.63608 0.0
C1072 C 0.38782 0.04402 0.71315 0.0
C1073 C 0.37242 0.03287 0.70718 0.0
C1074 C 0.4015 0.0497 0.70033 0.0
C1075 C 0.40016 0.04402 0.68141 0.0
C1076 C 0.38415 0.03376 0.67531 0.0
H1077 H 0.48078 -0.00345 0.61134 0.0
H1078 H 0.46256 0.00751 0.63832 0.0
C1079 C 0.37022 0.02847 0.68806 0.0
C1080 C 0.41669 0.04605 0.66881 0.0
H1081 H 0.42797 0.0529 0.62307 0.0
C1082 C 0.43427 0.03966 0.67504 0.0
C1083 C 0.4149 0.05217 0.65019 0.0
C1084 C 0.39718 0.06113 0.64313 0.0
C1085 C 0.44956 0.03775 0.66273 0.0
C1086 C 0.44696 0.04161 0.64354 0.0
C1087 C 0.42993 0.04951 0.63769 0.0
C1088 C 0.46074 0.03588 0.62896 0.0
C1089 C 0.46817 0.03127 0.67042 0.0
C1090 C 0.46577 0.04808 0.61465 0.0
C1091 C 0.47559 0.04163 0.59895 0.0
C1092 C 0.48088 0.02297 0.59748 0.0
C1093 C 0.47705 0.01105 0.61232 0.0
C1094 C 0.46676 0.01738 0.62782 0.0
H1095 H 0.47035 0.03653 0.68504 0.0
H1096 H 0.468 0.0159 0.67083 0.0
H1097 H 0.48031 0.03592 0.66174 0.0
H1098 H 0.46131 0.06238 0.6152 0.0
H1099 H 0.47849 0.05107 0.58763 0.0
H1100 H 0.22706 0.134 0.93234 0.0
H1101 H 0.22861 0.15213 0.90365 0.0
H1102 H 0.21227 0.20108 0.93497 0.0
H1103 H 0.21048 0.18312 0.96359 0.0
H1104 H 0.19226 0.1954 0.90095 0.0
H1105 H 0.27009 0.19088 0.89158 0.0
H1106 H 0.25799 0.16895 0.89385 0.0
H1107 H 0.25848 0.18519 0.9133 0.0
C1108 C 0.22387 0.14864 0.93311 0.0
C1109 C 0.21875 0.15716 0.95022 0.0
C1110 C 0.2248 0.15896 0.91675 0.0
C1111 C 0.22073 0.17795 0.9173 0.0
C1112 C 0.21548 0.18644 0.93431 0.0
H1113 H 0.25175 0.25484 0.83085 0.0
H1114 H 0.24495 0.24106 0.86115 0.0
C1115 C 0.21454 0.17616 0.95064 0.0
C1116 C 0.22193 0.18907 0.90016 0.0
H1117 H 0.25279 0.20435 0.867 0.0
C1118 C 0.20548 0.19743 0.89352 0.0
C1119 C 0.23926 0.19186 0.89073 0.0
C1120 C 0.25752 0.1839 0.89777 0.0
C1121 C 0.20586 0.20831 0.87742 0.0
C1122 C 0.2231 0.21066 0.8677 0.0
C1123 C 0.23958 0.2025 0.87452 0.0
C1124 C 0.22448 0.22107 0.8501 0.0
C1125 C 0.18791 0.21735 0.87108 0.0
C1126 C 0.21473 0.21477 0.83399 0.0
C1127 C 0.21851 0.22267 0.81664 0.0
C1128 C 0.23228 0.23685 0.81512 0.0
C1129 C 0.24115 0.24388 0.83151 0.0
C1130 C 0.2373 0.23601 0.84884 0.0
H1131 H 0.17746 0.21849 0.88266 0.0
H1132 H 0.19087 0.23141 0.86563 0.0
H1133 H 0.18137 0.2088 0.85961 0.0
H1134 H 0.20501 0.20305 0.83462 0.0
H1135 H 0.21146 0.21689 0.8043 0.0
H1136 H 0.10149 0.05766 0.31551 0.0
H1137 H 0.09421 0.05497 0.34855 0.0
H1138 H 0.13124 0.00817 0.35222 0.0
H1139 H 0.13825 0.01043 0.31866 0.0
H1140 H 0.09756 -0.00034 0.36474 0.0
H1141 H 0.11801 0.06632 0.39818 0.0
H1142 H 0.10432 0.07076 0.37764 0.0
H1143 H 0.12677 0.05935 0.37535 0.0
C1144 C 0.10845 0.047 0.32336 0.0
C1145 C 0.12028 0.0341 0.31437 0.0
C1146 C 0.10445 0.04565 0.34239 0.0
C1147 C 0.1124 0.03155 0.35299 0.0
C1148 C 0.12507 0.01925 0.34433 0.0
H1149 H 0.06219 0.02369 0.46582 0.0
H1150 H 0.08641 0.0274 0.44161 0.0
C1151 C 0.12904 0.02055 0.32516 0.0
C1152 C 0.10491 0.02805 0.37201 0.0
H1153 H 0.08989 0.05082 0.41156 0.0
C1154 C 0.09635 0.01072 0.3752 0.0
C1155 C 0.10358 0.04229 0.38588 0.0
C1156 C 0.11388 0.06063 0.38413 0.0
C1157 C 0.08511 0.0078 0.39105 0.0
C1158 C 0.08196 0.02275 0.40374 0.0
C1159 C 0.0919 0.03953 0.40151 0.0
C1160 C 0.0673 0.02158 0.41844 0.0
C1161 C 0.07618 -0.0111 0.39369 0.0
C1162 C 0.04844 0.0178 0.41333 0.0
C1163 C 0.0346 0.01564 0.42704 0.0
C1164 C 0.03932 0.01744 0.44616 0.0
C1165 C 0.05808 0.02217 0.45121 0.0
C1166 C 0.07196 0.02424 0.43743 0.0
H1167 H 0.08473 0.97785 0.38689 0.0
H1168 H 0.07456 0.98576 0.4088 0.0
H1169 H 0.06196 -0.01151 0.38706 0.0
H1170 H 0.04446 0.01624 0.39869 0.0
H1171 H 0.02027 0.0122 0.42265 0.0
H1172 H 0.27319 0.83837 0.56142 0.0
H1173 H 0.27492 0.81426 0.58497 0.0
H1174 H 0.22977 0.78377 0.55686 0.0
H1175 H 0.22854 0.80737 0.53292 0.0
H1176 H 0.24746 0.8078 0.60805 0.0
H1177 H 0.26254 0.74169 0.57097 0.0
H1178 H 0.26591 0.76389 0.56011 0.0
H1179 H 0.24281 0.75301 0.5606 0.0
C1180 C 0.264 0.82627 0.56 0.0
C1181 C 0.25067 0.82479 0.54541 0.0
C1182 C 0.265 0.81249 0.57345 0.0
C1183 C 0.25258 0.79709 0.57264 0.0
C1184 C 0.23985 0.79522 0.55756 0.0
H1185 H 0.20797 0.74841 0.67205 0.0
H1186 H 0.21158 0.76078 0.64057 0.0
C1187 C 0.23904 0.80884 0.54395 0.0
C1188 C 0.25098 0.78462 0.58888 0.0
H1189 H 0.24789 0.73919 0.6015 0.0
C1190 C 0.24782 0.79281 0.6066 0.0
C1191 C 0.25154 0.76504 0.58706 0.0
C1192 C 0.25609 0.75542 0.56868 0.0
C1193 C 0.24472 0.78204 0.62243 0.0
C1194 C 0.24411 0.76249 0.62041 0.0
C1195 C 0.2479 0.7542 0.60287 0.0
C1196 C 0.24 0.75072 0.6367 0.0
C1197 C 0.24224 0.79176 0.64123 0.0
C1198 C 0.25418 0.73966 0.64418 0.0
C1199 C 0.25203 0.73228 0.66206 0.0
C1200 C 0.23574 0.73608 0.67269 0.0
C1201 C 0.22077 0.74546 0.66427 0.0
C1202 C 0.22283 0.75259 0.64633 0.0
H1203 H 0.24797 0.80619 0.64118 0.0
H1204 H 0.22694 0.79243 0.64457 0.0
H1205 H 0.24938 0.78415 0.65256 0.0
H1206 H 0.26748 0.73795 0.63686 0.0
H1207 H 0.26382 0.72509 0.66816 0.0
H1208 H 0.40697 0.95702 0.78061 0.0
H1209 H 0.42211 0.9522 0.81087 0.0
H1210 H 0.37677 0.98096 0.83881 0.0
H1211 H 0.36136 0.98571 0.80862 0.0
H1212 H 0.43412 0.98209 0.83288 0.0
H1213 H 0.38542 0.93652 0.87258 0.0
H1214 H 0.3843 0.93843 0.84737 0.0
H1215 H 0.3739 0.95588 0.8623 0.0
C1216 C 0.39998 0.96199 0.79321 0.0
C1217 C 0.38304 0.97192 0.7922 0.0
C1218 C 0.40865 0.95919 0.81048 0.0
C1219 C 0.4005 0.96614 0.82702 0.0
C1220 C 0.3831 0.9752 0.8262 0.0
H1221 H 0.44864 0.00887 0.92847 0.0
H1222 H 0.43552 0.00313 0.89714 0.0
C1223 C 0.37438 0.97799 0.80892 0.0
C1224 C 0.41128 0.96606 0.84476 0.0
H1225 H 0.40859 0.95384 0.89064 0.0
C1226 C 0.42868 0.97568 0.84546 0.0
C1227 C 0.40419 0.95757 0.86104 0.0
C1228 C 0.38601 0.94636 0.8608 0.0
C1229 C 0.43883 0.97771 0.86227 0.0
C1230 C 0.43123 0.97011 0.87876 0.0
C1231 C 0.41425 0.95979 0.87793 0.0
C1232 C 0.44017 0.97355 0.89721 0.0
C1233 C 0.45747 -0.01181 0.86231 0.0
C1234 C 0.44702 0.95876 0.90755 0.0
C1235 C 0.45454 0.96197 0.92546 0.0
C1236 C 0.45511 0.98001 0.93336 0.0
C1237 C 0.44844 -0.00518 0.92279 0.0
C1238 C 0.44101 -0.00841 0.90487 0.0
H1239 H 0.46365 -0.01118 0.84801 0.0
H1240 H 0.4552 0.00262 0.86743 0.0
H1241 H 0.46781 0.98168 0.8718 0.0
H1242 H 0.44639 0.94474 0.90182 0.0
H1243 H 0.45951 0.95025 0.93325 0.0
H1244 H 0.23673 0.17542 0.03806 0.0
H1245 H 0.24714 0.19966 0.06018 0.0
H1246 H 0.21037 0.17701 0.10248 0.0
H1247 H 0.20037 0.15216 0.08057 0.0
H1248 H 0.23022 0.22673 0.07932 0.0
H1249 H 0.2607 0.17692 0.12877 0.0
H1250 H 0.25243 0.16998 0.1057 0.0
H1251 H 0.23594 0.17278 0.12474 0.0
C1252 C 0.23075 0.17561 0.05204 0.0
C1253 C 0.21789 0.16171 0.05766 0.0
C1254 C 0.23672 0.18951 0.06465 0.0
C1255 C 0.22986 0.18989 0.08308 0.0
C1256 C 0.21625 0.17664 0.08846 0.0
H1257 H 0.23702 0.27656 0.16645 0.0
H1258 H 0.23025 0.25887 0.13773 0.0
C1259 C 0.21046 0.16253 0.07591 0.0
C1260 C 0.23746 0.20382 0.09676 0.0
H1261 H 0.25861 0.20817 0.13963 0.0
C1262 C 0.23656 0.22271 0.09247 0.0
C1263 C 0.2462 0.19851 0.11365 0.0
C1264 C 0.24908 0.17844 0.11842 0.0
C1265 C 0.24365 0.23647 0.1049 0.0
C1266 C 0.25135 0.23119 0.12229 0.0
C1267 C 0.25267 0.21227 0.12632 0.0
C1268 C 0.25711 0.24481 0.13714 0.0
C1269 C 0.243 0.25647 0.09914 0.0
C1270 C 0.27462 0.24311 0.14624 0.0
C1271 C 0.27834 0.25289 0.16296 0.0
C1272 C 0.26469 0.26471 0.17073 0.0
C1273 C 0.24789 0.26767 0.16072 0.0
C1274 C 0.24402 0.25761 0.1442 0.0
H1275 H 0.24352 0.25763 0.08363 0.0
H1276 H 0.22949 0.26255 0.10398 0.0
H1277 H 0.25489 0.26475 0.10535 0.0
H1278 H 0.28495 0.23335 0.141 0.0
H1279 H 0.29145 0.25042 0.17034 0.0
H1280 H 0.14322 0.11628 0.01609 0.0
H1281 H 0.11528 0.09582 0.01807 0.0
H1282 H 0.14379 0.05419 0.98473 0.0
H1283 H 0.17198 0.07412 0.98365 0.0
H1284 H 0.09176 0.08034 -0.00609 0.0
H1285 H 0.1301 0.02455 0.02931 0.0
H1286 H 0.14062 0.04708 0.02553 0.0
H1287 H 0.14034 0.02969 0.007 0.0
C1288 C 0.14339 0.1028 0.00911 0.0
C1289 C 0.15972 0.09659 -6e-05 0.0
C1290 C 0.1275 0.09112 0.01027 0.0
C1291 C 0.1277 0.07325 0.00204 0.0
C1292 C 0.1436 0.06761 -0.0082 0.0
H1293 H 0.0246 0.00785 0.98567 0.0
H1294 H 0.05398 0.02541 0.98083 0.0
C1295 C 0.15959 0.07907 -0.00897 0.0
C1296 C 0.11138 0.06042 0.0043 0.0
H1297 H 0.09916 0.01681 0.01804 0.0
C1298 C 0.09336 0.06648 -0.00073 0.0
C1299 C 0.11345 0.04247 0.01166 0.0
C1300 C 0.13214 0.03564 0.01888 0.0
C1301 C 0.07733 0.05503 0.00121 0.0
C1302 C 0.07956 0.03671 0.00759 0.0
C1303 C 0.09755 0.03072 0.01282 0.0
C1304 C 0.06325 0.02385 0.00972 0.0
C1305 C 0.05817 0.06293 -0.00306 0.0
C1306 C 0.05951 0.0159 0.02718 0.0
C1307 C 0.04306 0.00533 0.02981 0.0
C1308 C 0.03003 0.00283 0.01506 0.0
C1309 C 0.03435 0.00982 -0.00269 0.0
C1310 C 0.051 0.02 -0.00541 0.0
H1311 H 0.05843 0.07833 -0.00214 0.0
H1312 H 0.05397 0.05882 0.98242 0.0
H1313 H 0.04723 0.05769 0.00674 0.0
H1314 H 0.06889 0.01854 0.03901 0.0
H1315 H 0.03999 0.00012 0.04364 0.0
H1316 H 0.6694 0.39604 0.00691 0.0
H1317 H 0.64039 0.41311 0.01228 0.0
H1318 H 0.6684 0.44649 0.05529 0.0
H1319 H 0.69796 0.43013 0.04901 0.0
H1320 H 0.61818 0.41702 0.04051 0.0
H1321 H 0.64811 0.48657 0.02427 0.0
H1322 H 0.66125 0.46562 0.02056 0.0
H1323 H 0.65909 0.47565 0.04378 0.0
C1324 C 0.66937 0.407 0.01753 0.0
C1325 C 0.6859 0.41192 0.02744 0.0
C1326 C 0.65277 0.41675 0.02062 0.0
C1327 C 0.65227 0.43135 0.03395 0.0
C1328 C 0.66859 0.4357 0.04452 0.0
H1329 H 0.53563 0.47075 0.04536 0.0
H1330 H 0.56674 0.4605 0.05583 0.0
C1331 C 0.68539 0.42626 0.04105 0.0
C1332 C 0.6346 0.44195 0.03628 0.0
H1333 H 0.61582 0.48494 0.03166 0.0
C1334 C 0.61765 0.4319 0.03868 0.0
C1335 C 0.63397 0.46138 0.03391 0.0
C1336 C 0.65153 0.47294 0.03032 0.0
C1337 C 0.60004 0.44043 0.03743 0.0
C1338 C 0.59938 0.45984 0.03484 0.0
C1339 C 0.61637 0.47009 0.03371 0.0
C1340 C 0.58139 0.4693 0.03078 0.0
C1341 C 0.58248 0.42822 0.0375 0.0
C1342 C 0.57962 0.47914 0.01406 0.0
C1343 C 0.56207 0.4857 0.0085 0.0
C1344 C 0.54596 0.48215 0.01936 0.0
C1345 C 0.54789 0.47338 0.03665 0.0
C1346 C 0.56558 0.46737 0.04253 0.0
H1347 H 0.58579 0.41339 0.03489 0.0
H1348 H 0.57558 0.42933 0.05144 0.0
H1349 H 0.57224 0.43249 0.02664 0.0
H1350 H 0.59161 0.48091 0.00479 0.0
H1351 H 0.56088 0.49243 -0.00491 0.0
H1352 H 0.85246 0.41956 0.19206 0.0
H1353 H 0.83506 0.39044 0.18596 0.0
H1354 H 0.79169 0.40782 0.22475 0.0
H1355 H 0.80851 0.43702 0.23038 0.0
H1356 H 0.8279 0.36443 0.21034 0.0
H1357 H 0.75966 0.38793 0.18269 0.0
H1358 H 0.78012 0.40312 0.18449 0.0
H1359 H 0.76493 0.39972 0.20447 0.0
C1360 C 0.83903 0.4173 0.199 0.0
C1361 C 0.83185 0.4306 0.21169 0.0
C1362 C 0.82912 0.40067 0.1955 0.0
C1363 C 0.81192 0.39709 0.20466 0.0
C1364 C 0.80462 0.41049 0.21707 0.0
H1365 H 0.76641 0.29434 0.2426 0.0
H1366 H 0.78376 0.32334 0.23736 0.0
C1367 C 0.81437 0.42715 0.2204 0.0
C1368 C 0.80248 0.3787 0.20286 0.0
H1369 H 0.75909 0.35798 0.19768 0.0
C1370 C 0.81292 0.36296 0.20721 0.0
C1371 C 0.78303 0.37672 0.19845 0.0
C1372 C 0.77138 0.39278 0.19205 0.0
C1373 C 0.80421 0.34544 0.20831 0.0
C1374 C 0.78443 0.34379 0.20559 0.0
C1375 C 0.77419 0.35933 0.20017 0.0
C1376 C 0.77397 0.32622 0.20876 0.0
C1377 C 0.81631 0.32895 0.21244 0.0
C1378 C 0.76212 0.31864 0.1947 0.0
C1379 C 0.75185 0.30233 0.19782 0.0
C1380 C 0.75336 0.29325 0.21503 0.0
C1381 C 0.76512 0.30094 0.22915 0.0
C1382 C 0.77517 0.31741 0.2261 0.0
H1383 H 0.83112 0.33125 0.20773 0.0
H1384 H 0.81665 0.32684 0.22781 0.0
H1385 H 0.81066 0.31611 0.20548 0.0
H1386 H 0.76089 0.32528 0.18127 0.0
H1387 H 0.74296 0.29671 0.18663 0.0
H1388 H 0.77855 0.60534 0.50379 0.0
H1389 H 0.8113 0.59471 0.50385 0.0
H1390 H 0.80166 0.56781 0.55654 0.0
H1391 H 0.76896 0.57807 0.55653 0.0
H1392 H 0.84105 0.59987 0.53112 0.0
H1393 H 0.81945 0.52589 0.52096 0.0
H1394 H 0.80344 0.54471 0.51722 0.0
H1395 H 0.80868 0.53752 0.54064 0.0
C1396 C 0.78342 0.59722 0.51542 0.0
C1397 C 0.77109 0.59234 0.53003 0.0
C1398 C 0.80212 0.59122 0.51545 0.0
C1399 C 0.80871 0.58027 0.53005 0.0
C1400 C 0.79667 0.57598 0.54498 0.0
H1401 H 0.91284 0.51944 0.54395 0.0
H1402 H 0.88306 0.53523 0.55023 0.0
C1403 C 0.77801 0.58188 0.54494 0.0
C1404 C 0.82797 0.57273 0.52938 0.0
H1405 H 0.85194 0.53215 0.52588 0.0
C1406 C 0.84349 0.58508 0.52999 0.0
C1407 C 0.83099 0.55342 0.52794 0.0
C1408 C 0.81479 0.53958 0.52649 0.0
C1409 C 0.86207 0.57856 0.52927 0.0
C1410 C 0.86506 0.55927 0.52765 0.0
C1411 C 0.84954 0.54694 0.52728 0.0
C1412 C 0.88407 0.55149 0.52507 0.0
C1413 C 0.87833 0.59233 0.53036 0.0
C1414 C 0.89445 0.55552 0.50889 0.0
C1415 C 0.91139 0.54651 0.50522 0.0
C1416 C 0.91818 0.53321 0.51762 0.0
C1417 C 0.90799 0.52959 0.53411 0.0
C1418 C 0.89101 0.5386 0.53774 0.0
H1419 H 0.87397 0.60574 0.53682 0.0
H1420 H 0.89027 0.5868 0.53859 0.0
H1421 H 0.88348 0.59508 0.51597 0.0
H1422 H 0.88911 0.56514 0.49875 0.0
H1423 H 0.91889 0.54965 0.4924 0.0
H1424 H 0.14851 0.09299 0.22886 0.0
H1425 H 0.17122 0.11866 0.22747 0.0
H1426 H 0.21524 0.08333 0.24755 0.0
H1427 H 0.19249 0.05746 0.24919 0.0
H1428 H 0.21207 0.11617 0.26806 0.0
H1429 H 0.21496 0.13036 0.19215 0.0
H1430 H 0.19109 0.12875 0.20055 0.0
H1431 H 0.20595 0.10872 0.20116 0.0
C1432 C 0.16308 0.09054 0.23271 0.0
C1433 C 0.16867 0.07318 0.23921 0.0
C1434 C 0.17608 0.10521 0.23176 0.0
C1435 C 0.19495 0.10282 0.23718 0.0
C1436 C 0.20075 0.08539 0.24318 0.0
H1437 H 0.26845 0.2012 0.22733 0.0
H1438 H 0.25832 0.16862 0.22615 0.0
C1439 C 0.18774 0.07064 0.24407 0.0
C1440 C 0.20794 0.11906 0.2383 0.0
H1441 H 0.22377 0.15583 0.21309 0.0
C1442 C 0.21497 0.12467 0.25598 0.0
C1443 C 0.21193 0.12997 0.2225 0.0
C1444 C 0.20575 0.12404 0.20299 0.0
C1445 C 0.22483 0.14156 0.25848 0.0
C1446 C 0.22744 0.15318 0.24294 0.0
C1447 C 0.22153 0.14699 0.22504 0.0
C1448 C 0.2348 0.17241 0.24513 0.0
C1449 C 0.23197 0.14698 0.27781 0.0
C1450 C 0.22495 0.18529 0.25626 0.0
C1451 C 0.23067 0.20389 0.25697 0.0
C1452 C 0.24628 0.21001 0.24644 0.0
C1453 C 0.25639 0.19697 0.23564 0.0
C1454 C 0.25063 0.17834 0.23493 0.0
H1455 H 0.23442 0.13457 0.28643 0.0
H1456 H 0.24534 0.15521 0.27707 0.0
H1457 H 0.22121 0.15554 0.28507 0.0
H1458 H 0.21244 0.18107 0.26392 0.0
H1459 H 0.22252 0.21354 0.26539 0.0
H1460 H 0.29866 0.89666 0.52259 0.0
H1461 H 0.33018 0.91097 0.52502 0.0
H1462 H 0.31783 0.94507 0.4776 0.0
H1463 H 0.28602 0.93144 0.47565 0.0
H1464 H 0.35954 0.9128 0.50267 0.0
H1465 H 0.33354 0.98399 0.51535 0.0
H1466 H 0.31803 0.96392 0.5153 0.0
H1467 H 0.32512 0.97419 0.49353 0.0
C1468 C 0.30272 0.90714 0.51263 0.0
C1469 C 0.28984 0.91311 0.49908 0.0
C1470 C 0.3207 0.91533 0.51405 0.0
C1471 C 0.32616 0.92945 0.50181 0.0
C1472 C 0.31368 0.93468 0.48761 0.0
H1473 H 0.44334 0.96555 0.48982 0.0
H1474 H 0.41165 0.95239 0.48477 0.0
C1475 C 0.29558 0.92676 0.48641 0.0
C1476 C 0.34488 0.93875 0.50401 0.0
H1477 H 0.3665 0.98115 0.50944 0.0
C1478 C 0.36107 0.92774 0.50422 0.0
C1479 C 0.34682 0.95822 0.50641 0.0
C1480 C 0.32994 0.97074 0.50784 0.0
C1481 C 0.37916 0.93566 0.50659 0.0
C1482 C 0.38116 0.95521 0.50805 0.0
C1483 C 0.36496 0.9662 0.50803 0.0
C1484 C 0.3999 0.96448 0.51016 0.0
C1485 C 0.39584 0.92293 0.50805 0.0
C1486 C 0.40349 0.97659 0.52547 0.0
C1487 C 0.42145 0.98455 0.5281 0.0
C1488 C 0.43615 0.98034 0.51557 0.0
C1489 C 0.43233 0.96881 0.49985 0.0
C1490 C 0.41428 0.96116 0.49704 0.0
H1491 H 0.39139 0.90884 0.51248 0.0
H1492 H 0.40265 0.92149 0.4941 0.0
H1493 H 0.4065 0.9285 0.51823 0.0
H1494 H 0.39254 0.97948 0.53569 0.0
H1495 H 0.42402 -0.00662 0.54035 0.0
H1496 H 0.7925 0.52887 0.2278 0.0
H1497 H 0.77733 0.55882 0.23193 0.0
H1498 H 0.80211 0.56499 0.28712 0.0
H1499 H 0.81817 0.53539 0.28266 0.0
H1500 H 0.75417 0.57745 0.25529 0.0
H1501 H 0.82718 0.6069 0.25981 0.0
H1502 H 0.8225 0.58279 0.25431 0.0
H1503 H 0.82146 0.59122 0.27823 0.0
C1504 C 0.79437 0.5364 0.241 0.0
C1505 C 0.80684 0.53007 0.25474 0.0
C1506 C 0.78566 0.55351 0.24335 0.0
C1507 C 0.78911 0.56437 0.25958 0.0
C1508 C 0.79978 0.55706 0.27424 0.0
H1509 H 0.74218 0.67539 0.27452 0.0
H1510 H 0.74723 0.64204 0.27649 0.0
C1511 C 0.80884 0.54013 0.27172 0.0
C1512 C 0.78362 0.58408 0.25996 0.0
H1513 H 0.80229 0.62793 0.26178 0.0
C1514 C 0.76463 0.58853 0.2568 0.0
C1515 C 0.79742 0.59847 0.26151 0.0
C1516 C 0.81829 0.59466 0.26347 0.0
C1517 C 0.75909 0.60702 0.25493 0.0
C1518 C 0.77287 0.62137 0.25681 0.0
C1519 C 0.79176 0.61689 0.26034 0.0
C1520 C 0.7684 0.64118 0.25459 0.0
C1521 C 0.73873 0.61091 0.25024 0.0
C1522 C 0.7788 0.65181 0.2418 0.0
C1523 C 0.7763 0.67091 0.24099 0.0
C1524 C 0.76317 0.67968 0.25279 0.0
C1525 C 0.75228 0.66894 0.26513 0.0
C1526 C 0.75505 0.64987 0.26618 0.0
H1527 H 0.73142 0.5985 0.24401 0.0
H1528 H 0.73114 0.61487 0.26329 0.0
H1529 H 0.73767 0.62249 0.24028 0.0
H1530 H 0.78919 0.64537 0.23272 0.0
H1531 H 0.78479 0.67883 0.23127 0.0
H1532 H 0.63792 0.45891 0.75888 0.0
H1533 H 0.6512 0.42809 0.75414 0.0
H1534 H 0.69513 0.45122 0.7194 0.0
H1535 H 0.68201 0.48218 0.72417 0.0
H1536 H 0.65494 0.41089 0.71785 0.0
H1537 H 0.72378 0.41721 0.7556 0.0
H1538 H 0.70458 0.43295 0.75994 0.0
H1539 H 0.71877 0.43515 0.73923 0.0
C1540 C 0.65062 0.45752 0.75053 0.0
C1541 C 0.65892 0.47299 0.74189 0.0
C1542 C 0.65814 0.43989 0.74778 0.0
C1543 C 0.67415 0.43741 0.73647 0.0
C1544 C 0.68289 0.45289 0.72837 0.0
H1545 H 0.73324 0.33492 0.70807 0.0
H1546 H 0.72235 0.36696 0.70705 0.0
C1547 C 0.67537 0.47056 0.7311 0.0
C1548 C 0.68084 0.41846 0.7322 0.0
H1549 H 0.71758 0.38918 0.73894 0.0
C1550 C 0.66866 0.40613 0.72241 0.0
C1551 C 0.69881 0.41242 0.73799 0.0
C1552 C 0.71225 0.42503 0.74889 0.0
C1553 C 0.67387 0.38779 0.71844 0.0
C1554 C 0.6916 0.38155 0.72473 0.0
C1555 C 0.70401 0.39403 0.73408 0.0
C1556 C 0.69696 0.36182 0.72314 0.0
C1557 C 0.66034 0.37526 0.70754 0.0
C1558 C 0.68611 0.34829 0.73223 0.0
C1559 C 0.69223 0.33001 0.7328 0.0
C1560 C 0.70944 0.32492 0.72442 0.0
C1561 C 0.71989 0.33834 0.7146 0.0
C1562 C 0.71374 0.35668 0.71407 0.0
H1563 H 0.65057 0.38337 0.69878 0.0
H1564 H 0.66805 0.36537 0.69831 0.0
H1565 H 0.65165 0.36718 0.71752 0.0
H1566 H 0.6733 0.35201 0.73962 0.0
H1567 H 0.68383 0.32007 0.7405 0.0
H1568 H 0.01541 0.77481 0.9368 0.0
H1569 H 0.01522 0.79712 0.96312 0.0
H1570 H 0.01541 0.84219 0.9242 0.0
H1571 H 0.01651 0.82002 0.8979 0.0
H1572 H 0.03664 0.85064 0.95442 0.0
H1573 H 0.9669 0.82213 0.97698 0.0
H1574 H 0.98597 0.80602 0.97728 0.0
H1575 H 0.97793 0.81496 0.95532 0.0
C1576 C 0.01565 0.7895 0.93389 0.0
C1577 C 0.01569 0.79571 0.91531 0.0
C1578 C 0.01546 0.80221 0.94893 0.0
C1579 C 0.01478 0.82129 0.94561 0.0
C1580 C 0.01584 0.82751 0.92709 0.0
H1581 H 0.95902 0.91046 -0.00677 0.0
H1582 H 0.97046 0.88184 0.97917 0.0
C1583 C 0.01642 0.81483 0.91207 0.0
C1584 C 0.01156 0.83486 0.9611 0.0
H1585 H 0.97845 0.84847 -0.00691 0.0
C1586 C 0.02405 0.85009 0.96308 0.0
C1587 C -0.00492 0.83406 0.97233 0.0
C1588 C 0.9806 0.81852 0.97033 0.0
C1589 C 0.01994 0.86511 0.97513 0.0
C1590 C 0.00315 0.86456 0.98589 0.0
C1591 C -0.00867 0.84878 0.98484 0.0
C1592 C -0.00398 0.88119 -0.00408 0.0
C1593 C 0.03292 0.88193 0.97523 0.0
C1594 C 0.00639 0.89016 0.01035 0.0
C1595 C -4e-05 0.90679 0.01834 0.0
C1596 C 0.98294 0.91452 0.01215 0.0
C1597 C 0.97221 0.90497 -0.00167 0.0
C1598 C 0.97871 0.88854 -0.00973 0.0
H1599 H 0.0434 0.88136 0.96364 0.0
H1600 H 0.02467 0.89482 0.97395 0.0
H1601 H 0.04081 0.88275 -0.0113 0.0
H1602 H 0.01957 0.88448 0.01521 0.0
H1603 H 0.00847 0.91374 0.02908 0.0
H1604 H 0.96149 0.24708 0.70501 0.0
H1605 H 0.93072 0.25516 0.71861 0.0
H1606 H 0.91258 0.27553 0.66515 0.0
H1607 H 0.94291 0.2675 0.65144 0.0
H1608 H 0.91273 0.29213 0.7187 0.0
H1609 H 0.87127 0.23707 0.68077 0.0
H1610 H 0.89661 0.2361 0.6837 0.0
H1611 H 0.88662 0.25057 0.66613 0.0
C1612 C 0.95088 0.25315 0.69614 0.0
C1613 C 0.95461 0.25656 0.67713 0.0
C1614 C 0.9334 0.25783 0.70395 0.0
C1615 C 0.91945 0.26578 0.69279 0.0
C1616 C 0.92314 0.2692 0.67389 0.0
H1617 H 0.8031 0.29613 0.70252 0.0
H1618 H 0.83625 0.29499 0.69308 0.0
C1619 C 0.94052 0.2646 0.66611 0.0
C1620 C 0.90089 0.27061 0.70067 0.0
H1621 H 0.85383 0.26086 0.69588 0.0
C1622 C 0.89982 0.28525 0.71388 0.0
C1623 C 0.88418 0.26159 0.69423 0.0
C1624 C 0.88465 0.24534 0.68055 0.0
C1625 C 0.88227 0.29145 0.72047 0.0
C1626 C 0.86555 0.2826 0.71375 0.0
C1627 C 0.86671 0.26779 0.70077 0.0
C1628 C 0.84658 0.2877 0.72051 0.0
C1629 C 0.88171 0.30763 0.73418 0.0
C1630 C 0.8416 0.28473 0.73924 0.0
C1631 C 0.82269 0.28542 0.74471 0.0
C1632 C 0.80845 0.28885 0.73145 0.0
C1633 C 0.81369 0.29332 0.71305 0.0
C1634 C 0.83262 0.29267 0.70762 0.0
H1635 H 0.8951 0.3159 0.73405 0.0
H1636 H 0.86975 0.31688 0.731 0.0
H1637 H 0.87967 0.30235 0.74856 0.0
H1638 H 0.85213 0.28061 0.74933 0.0
H1639 H 0.81917 0.282 0.75902 0.0
H1640 H 0.48873 0.20186 0.42641 0.0
H1641 H 0.48089 0.17994 0.45106 0.0
H1642 H 0.49927 0.13469 0.41539 0.0
H1643 H 0.50671 0.15643 0.3905 0.0
H1644 H 0.4665 0.12654 0.43562 0.0
H1645 H 0.52335 0.15708 0.4814 0.0
H1646 H 0.5053 0.17262 0.47401 0.0
H1647 H 0.52114 0.16276 0.45699 0.0
C1648 C 0.49092 0.1872 0.42375 0.0
C1649 C 0.49857 0.18083 0.40664 0.0
C1650 C 0.48647 0.17475 0.43786 0.0
C1651 C 0.48985 0.1558 0.43513 0.0
C1652 C 0.49662 0.14931 0.41774 0.0
H1653 H 0.52455 0.06651 0.49667 0.0
H1654 H 0.51944 0.09511 0.47999 0.0
C1655 C 0.50092 0.16173 0.40357 0.0
C1656 C 0.48761 0.14272 0.45064 0.0
H1657 H 0.50792 0.1303 0.49188 0.0
C1658 C 0.4753 0.12745 0.4481 0.0
C1659 C 0.4992 0.14406 0.46684 0.0
C1660 C 0.51311 0.15992 0.47001 0.0
C1661 C 0.47499 0.11291 0.46084 0.0
C1662 C 0.48711 0.11393 0.47665 0.0
C1663 C 0.49861 0.12969 0.47975 0.0
C1664 C 0.49019 0.09769 0.48845 0.0
C1665 C 0.46267 0.09605 0.45663 0.0
C1666 C 0.47554 0.08996 0.49911 0.0
C1667 C 0.47836 0.07346 0.5086 0.0
C1668 C 0.49594 0.06457 0.50762 0.0
C1669 C 0.51081 0.0729 0.49764 0.0
C1670 C 0.50794 0.08929 0.48813 0.0
H1671 H 0.45635 0.09635 0.44235 0.0
H1672 H 0.47096 0.08318 0.45783 0.0
H1673 H 0.45098 0.09545 0.46697 0.0
H1674 H 0.46184 0.09646 0.49976 0.0
H1675 H 0.46667 0.06748 0.51632 0.0
H1676 H 0.5613 0.7347 0.1319 0.0
H1677 H 0.59274 0.73311 0.14628 0.0
H1678 H 0.57238 0.76294 0.19512 0.0
H1679 H 0.54084 0.7638 0.18123 0.0
H1680 H 0.61768 0.75848 0.15733 0.0
H1681 H 0.59502 0.71908 0.21929 0.0
H1682 H 0.57962 0.72249 0.19951 0.0
H1683 H 0.5822 0.74021 0.21757 0.0
C1684 C 0.56358 0.74089 0.14571 0.0
C1685 C 0.54865 0.74917 0.15558 0.0
C1686 C 0.5815 0.73996 0.15391 0.0
C1687 C 0.58475 0.74747 0.17198 0.0
C1688 C 0.57002 0.75647 0.18146 0.0
H1689 H 0.6928 0.77825 0.22047 0.0
H1690 H 0.66234 0.77687 0.20425 0.0
C1691 C 0.55206 0.75709 0.17345 0.0
C1692 C 0.60359 0.74616 0.18089 0.0
H1693 H 0.62552 0.73396 0.22136 0.0
C1694 C 0.61945 0.75294 0.17125 0.0
C1695 C 0.60594 0.73853 0.19887 0.0
C1696 C 0.5898 0.72948 0.2093 0.0
C1697 C 0.63752 0.75287 0.17937 0.0
C1698 C 0.63962 0.74648 0.1979 0.0
C1699 C 0.62386 0.73914 0.20728 0.0
C1700 C 0.65798 0.74738 0.20792 0.0
C1701 C 0.65415 0.75941 0.16786 0.0
C1702 C 0.66521 0.73145 0.21617 0.0
C1703 C 0.68234 0.73232 0.22593 0.0
C1704 C 0.69263 0.7491 0.2274 0.0
C1705 C 0.68527 0.76508 0.21934 0.0
C1706 C 0.66796 0.76427 0.20991 0.0
H1707 H 0.65128 0.75769 0.15259 0.0
H1708 H 0.65678 0.77439 0.17081 0.0
H1709 H 0.66716 0.75173 0.17128 0.0
H1710 H 0.65767 0.71829 0.21493 0.0
H1711 H 0.68772 0.71977 0.23196 0.0
H1712 H 0.01756 0.18075 0.63307 0.0
H1713 H 0.01559 0.15175 0.61478 0.0
H1714 H 0.98298 0.1788 0.57239 0.0
H1715 H 0.98511 0.20794 0.59037 0.0
H1716 H 0.9841 0.13124 0.60286 0.0
H1717 H 0.02632 0.1559 0.54241 0.0
H1718 H 0.02558 0.16837 0.5646 0.0
H1719 H 0.00643 0.17012 0.54813 0.0
C1720 C 0.00997 0.18056 0.61986 0.0
C1721 C 0.00163 0.1967 0.61311 0.0
C1722 C 0.00885 0.16397 0.60944 0.0
C1723 C -0.00058 0.16326 0.59211 0.0
C1724 C -0.00932 0.1792 0.58554 0.0
H1725 H 0.96434 0.06305 0.53107 0.0
H1726 H 0.96531 0.09262 0.5484 0.0
C1727 C -0.00816 0.19581 0.5959 0.0
C1728 C -0.00135 0.14579 0.58096 0.0
H1729 H 0.01122 0.12643 0.53881 0.0
C1730 C -0.00996 0.13014 0.58886 0.0
C1731 C 0.00664 0.14442 0.56281 0.0
C1732 C 0.01693 0.16054 0.55402 0.0
C1733 C -0.01098 0.11314 0.579 0.0
C1734 C -0.00347 0.11193 0.56064 0.0
C1735 C 0.00531 0.12752 0.55282 0.0
C1736 C -0.00413 0.09444 0.54951 0.0
C1737 C 0.98028 0.09656 0.58846 0.0
C1738 C 0.01274 0.08605 0.54385 0.0
C1739 C 0.01226 0.06925 0.5338 0.0
C1740 C -0.00513 0.06056 0.52921 0.0
C1741 C 0.97797 0.06929 0.5345 0.0
C1742 C 0.97848 0.08613 0.5445 0.0
H1743 H 0.97959 0.09861 0.60393 0.0
H1744 H 0.96563 0.09434 0.58317 0.0
H1745 H -0.0116 0.08382 0.58529 0.0
H1746 H 0.0263 0.09235 0.54752 0.0
H1747 H 0.02553 0.06293 0.52993 0.0
H1748 H 0.58062 0.20709 0.33058 0.0
H1749 H 0.60348 0.22578 0.31313 0.0
H1750 H 0.59737 0.27079 0.35327 0.0
H1751 H 0.57485 0.2519 0.37116 0.0
H1752 H 0.58542 0.27099 0.30705 0.0
H1753 H 0.65897 0.25627 0.32944 0.0
H1754 H 0.64234 0.23708 0.32935 0.0
H1755 H 0.63918 0.25616 0.34553 0.0
C1756 C 0.58487 0.22061 0.33616 0.0
C1757 C 0.57619 0.22802 0.35223 0.0
C1758 C 0.59779 0.2313 0.32616 0.0
C1759 C 0.60194 0.2496 0.33196 0.0
C1760 C 0.59438 0.25661 0.34875 0.0
H1761 H 0.6784 0.28648 0.24667 0.0
H1762 H 0.65789 0.29618 0.27263 0.0
C1763 C 0.58169 0.24576 0.359 0.0
C1764 C 0.61173 0.26182 0.31873 0.0
H1765 H 0.65472 0.26673 0.2981 0.0
C1766 C 0.60066 0.27074 0.30537 0.0
C1767 C 0.63153 0.26155 0.3168 0.0
C1768 C 0.64381 0.25237 0.33109 0.0
C1769 C 0.6088 0.27756 0.28893 0.0
C1770 C 0.62836 0.27532 0.28594 0.0
C1771 C 0.63969 0.26846 0.30041 0.0
C1772 C 0.63646 0.2751 0.26688 0.0
C1773 C 0.59623 0.28567 0.27421 0.0
C1774 C 0.63057 0.26083 0.25441 0.0
C1775 C 0.64237 0.2551 0.23986 0.0
C1776 C 0.66001 0.26381 0.23742 0.0
C1777 C 0.66468 0.27977 0.24816 0.0
C1778 C 0.65304 0.28527 0.26304 0.0
H1779 H 0.58381 0.2925 0.28072 0.0
H1780 H 0.60408 0.2959 0.26563 0.0
H1781 H 0.59086 0.27435 0.26475 0.0
H1782 H 0.61801 0.25259 0.2573 0.0
H1783 H 0.63867 0.24262 0.23186 0.0
H1784 H 0.48553 0.78294 0.07261 0.0
H1785 H 0.47651 0.80977 0.05412 0.0
H1786 H 0.45914 0.83846 0.10475 0.0
H1787 H 0.46848 0.81206 0.12329 0.0
H1788 H 0.44185 0.82793 0.0505 0.0
H1789 H 0.49698 0.87452 0.0819 0.0
H1790 H 0.49711 0.84971 0.08462 0.0
H1791 H 0.4821 0.86391 0.09913 0.0
C1792 C 0.47985 0.79501 0.07977 0.0
C1793 C 0.47795 0.79553 0.09941 0.0
C1794 C 0.47464 0.81025 0.0692 0.0
C1795 C 0.46745 0.82616 0.07814 0.0
C1796 C 0.46505 0.82646 0.09766 0.0
H1797 H 0.43608 0.93569 0.04694 0.0
H1798 H 0.43569 0.9052 0.06116 0.0
C1799 C 0.47038 0.81135 0.10821 0.0
C1800 C 0.46281 0.84269 0.06723 0.0
H1801 H 0.47322 0.88879 0.06382 0.0
C1802 C 0.44875 0.84124 0.0533 0.0
C1803 C 0.47197 0.85995 0.07087 0.0
C1804 C 0.48801 0.86212 0.0848 0.0
C1805 C 0.44325 0.85683 0.04325 0.0
C1806 C 0.45207 0.87413 0.0473 0.0
C1807 C 0.46627 0.87549 0.06103 0.0
C1808 C 0.44763 0.89106 0.03702 0.0
C1809 C 0.42792 0.85485 0.02858 0.0
C1810 C 0.45377 0.89295 0.01847 0.0
C1811 C 0.4541 0.91038 0.0103 0.0
C1812 C 0.44842 0.92616 0.02064 0.0
C1813 C 0.44066 0.92387 0.03861 0.0
C1814 C 0.4404 0.90645 0.04678 0.0
H1815 H 0.42015 0.84139 0.0295 0.0
H1816 H 0.41769 0.86632 0.03005 0.0
H1817 H 0.43437 0.85568 0.01443 0.0
H1818 H 0.4596 0.88124 0.01082 0.0
H1819 H 0.46005 0.91163 -0.00362 0.0
H1820 H 0.936 0.75138 0.86596 0.0
H1821 H 0.90449 0.75379 0.85194 0.0
H1822 H 0.92859 0.78302 0.80524 0.0
H1823 H 0.95985 0.78126 0.81935 0.0
H1824 H 0.89749 0.79929 0.81777 0.0
H1825 H 0.88396 0.72371 0.80776 0.0
H1826 H 0.88881 0.73066 0.83163 0.0
H1827 H 0.90691 0.73316 0.81412 0.0
C1828 C 0.93454 0.75837 0.85274 0.0
C1829 C 0.95039 0.76611 0.84375 0.0
C1830 C 0.91658 0.75959 0.84468 0.0
C1831 C 0.91431 0.76825 0.82738 0.0
C1832 C 0.93007 0.77621 0.81857 0.0
H1833 H 0.8205 0.76195 0.7494 0.0
H1834 H 0.85026 0.75775 0.76639 0.0
C1835 C 0.94792 0.77521 0.82669 0.0
C1836 C 0.89552 0.76949 0.81847 0.0
H1837 H 0.85864 0.74363 0.80063 0.0
C1838 C 0.88898 0.78713 0.81402 0.0
C1839 C 0.88465 0.75355 0.81335 0.0
C1840 C 0.89149 0.73419 0.81678 0.0
C1841 C 0.87187 0.78931 0.80451 0.0
C1842 C 0.86069 0.77342 0.79993 0.0
C1843 C 0.8672 0.75576 0.80435 0.0
C1844 C 0.84232 0.77493 0.79027 0.0
C1845 C 0.86623 0.80857 0.799 0.0
C1846 C 0.82792 0.78556 0.79834 0.0
C1847 C 0.81114 0.78821 0.78859 0.0
C1848 C 0.80829 0.77994 0.77077 0.0
C1849 C 0.82236 0.76854 0.76308 0.0
C1850 C 0.83931 0.76612 0.77276 0.0
H1851 H 0.87863 0.8182 0.79863 0.0
H1852 H 0.85929 0.8084 0.78501 0.0
H1853 H 0.85612 0.81417 0.80948 0.0
H1854 H 0.82979 0.79203 0.81208 0.0
H1855 H 0.80039 0.79679 0.79502 0.0
H1856 H 0.90804 0.02934 0.81325 0.0
H1857 H 0.91027 0.02323 0.84671 0.0
H1858 H 0.94806 0.97807 0.83504 0.0
H1859 H 0.94618 0.98422 0.80146 0.0
H1860 H 0.90131 -0.00922 0.86616 0.0
H1861 H 0.97728 0.01085 0.87328 0.0
H1862 H 0.9634 0.01635 0.85292 0.0
H1863 H 0.97215 -0.00669 0.85567 0.0
C1864 C 0.91688 0.01812 0.81775 0.0
C1865 C 0.92706 0.00735 0.80468 0.0
C1866 C 0.91807 0.01462 0.83688 0.0
C1867 C 0.92946 0.00033 0.8433 0.0
C1868 C 0.93942 -0.01064 0.83033 0.0
H1869 H 0.93099 0.95981 0.95797 0.0
H1870 H 0.92545 0.96253 0.92422 0.0
C1871 C 0.9383 -0.00712 0.81117 0.0
C1872 C 0.93103 -0.00281 0.86363 0.0
H1873 H 0.96222 -0.00085 0.90016 0.0
C1874 C 0.91461 -0.00746 0.87364 0.0
C1875 C 0.9484 -0.0003 0.87326 0.0
C1876 C 0.96631 0.00548 0.86331 0.0
C1877 C 0.91508 -0.00957 0.89316 0.0
C1878 C 0.93248 -0.0072 0.90275 0.0
C1879 C 0.94891 -0.00271 0.8927 0.0
C1880 C 0.934 -0.00857 0.92333 0.0
C1881 C 0.89692 0.98621 0.90341 0.0
C1882 C 0.94058 0.0068 0.93392 0.0
C1883 C 0.9439 0.00527 0.95309 0.0
C1884 C 0.94072 -0.01169 0.96203 0.0
C1885 C 0.93348 0.97309 0.9515 0.0
C1886 C 0.93025 0.97462 0.93225 0.0
H1887 H 0.88428 -0.01101 0.89468 0.0
H1888 H 0.89653 0.97134 0.9071 0.0
H1889 H 0.89604 -0.00543 0.91663 0.0
H1890 H 0.94353 0.01989 0.92726 0.0
H1891 H 0.94938 0.01729 0.96081 0.0
H1892 H 0.75835 0.12828 0.56632 0.0
H1893 H 0.75753 0.15079 0.59231 0.0
H1894 H 0.76156 0.19561 0.55339 0.0
H1895 H 0.76233 0.17318 0.52709 0.0
H1896 H 0.78553 0.19589 0.59221 0.0
H1897 H 0.70738 0.18597 0.5953 0.0
H1898 H 0.72135 0.16541 0.59272 0.0
H1899 H 0.72079 0.18176 0.57411 0.0
C1900 C 0.7594 0.14289 0.56322 0.0
C1901 C 0.7602 0.14891 0.54458 0.0
C1902 C 0.75892 0.15572 0.57811 0.0
C1903 C 0.7593 0.17477 0.57466 0.0
C1904 C 0.76123 0.18091 0.55623 0.0
H1905 H 0.75233 0.26196 0.66296 0.0
H1906 H 0.7561 0.24713 0.63195 0.0
C1907 C 0.76167 0.16807 0.54126 0.0
C1908 C 0.75613 0.18804 0.5903 0.0
H1909 H 0.72189 0.20242 0.62067 0.0
C1910 C 0.77162 0.19761 0.59833 0.0
C1911 C 0.73792 0.19016 0.59809 0.0
C1912 C 0.72082 0.18041 0.5896 0.0
C1913 C 0.76949 0.20862 0.61466 0.0
C1914 C 0.75134 0.21021 0.62286 0.0
C1915 C 0.73576 0.20118 0.61433 0.0
C1916 C 0.74847 0.21964 0.64123 0.0
C1917 C 0.78675 0.21769 0.62356 0.0
C1918 C 0.74239 0.20918 0.6565 0.0
C1919 C 0.74011 0.21757 0.67412 0.0
C1920 C 0.7438 0.23665 0.67684 0.0
C1921 C 0.74942 0.24723 0.66136 0.0
C1922 C 0.75171 0.23877 0.64368 0.0
H1923 H 0.80009 0.21253 0.61726 0.0
H1924 H 0.78625 0.2329 0.62158 0.0
H1925 H 0.78704 0.21519 0.63888 0.0
H1926 H 0.73973 0.1944 0.65486 0.0
H1927 H 0.7357 0.20898 0.68566 0.0
H1928 H 0.53332 -0.01087 0.30688 0.0
H1929 H 0.52621 -0.01054 0.34046 0.0
H1930 H 0.58296 0.97194 0.35242 0.0
H1931 H 0.59011 0.9712 0.31895 0.0
H1932 H 0.55585 0.95208 0.37149 0.0
H1933 H 0.54456 0.02785 0.37944 0.0
H1934 H 0.53013 0.0167 0.36165 0.0
H1935 H 0.55539 0.0176 0.35889 0.0
C1936 C 0.54431 0.98543 0.31666 0.0
C1937 C 0.56229 0.9802 0.31025 0.0
C1938 C 0.54025 0.9857 0.33583 0.0
C1939 C 0.55415 0.98096 0.34888 0.0
C1940 C 0.57207 0.97568 0.34253 0.0
H1941 H 0.55207 0.00429 0.46799 0.0
H1942 H 0.56043 0.00132 0.43488 0.0
C1943 C 0.57612 0.9753 0.3234 0.0
C1944 C 0.55002 0.98117 0.36918 0.0
H1945 H 0.53702 0.00945 0.40566 0.0
C1946 C 0.55177 0.96461 0.37901 0.0
C1947 C 0.54494 -0.00238 0.37891 0.0
C1948 C 0.5438 0.016 0.36925 0.0
C1949 C 0.5484 0.96402 0.39836 0.0
C1950 C 0.54282 0.98035 0.40799 0.0
C1951 C 0.5412 -0.00307 0.39818 0.0
C1952 C 0.53874 0.98071 0.4283 0.0
C1953 C 0.55122 0.94603 0.40839 0.0
C1954 C 0.52393 0.9699 0.43558 0.0
C1955 C 0.51918 0.97145 0.45456 0.0
C1956 C 0.52903 0.98404 0.46647 0.0
C1957 C 0.54416 -0.00549 0.45918 0.0
C1958 C 0.54895 -0.00714 0.44027 0.0
H1959 H 0.56026 0.93639 0.40017 0.0
H1960 H 0.55777 0.94854 0.4224 0.0
H1961 H 0.53727 0.93911 0.41043 0.0
H1962 H 0.51565 0.9607 0.42648 0.0
H1963 H 0.50738 0.96329 0.4597 0.0
H1964 H 0.75278 0.82943 0.07281 0.0
H1965 H 0.77025 0.80999 0.09387 0.0
H1966 H 0.7533 0.76134 0.06147 0.0
H1967 H 0.73533 0.78094 0.04019 0.0
H1968 H 0.74548 0.75788 0.09797 0.0
H1969 H 0.8191 0.7825 0.09295 0.0
H1970 H 0.80413 0.80222 0.09523 0.0
H1971 H 0.80181 0.78697 0.07492 0.0
C1972 C 0.75295 0.81463 0.06992 0.0
C1973 C 0.74255 0.80669 0.05492 0.0
C1974 C 0.76322 0.80353 0.08185 0.0
C1975 C 0.7635 0.78423 0.07901 0.0
C1976 C 0.75353 0.77624 0.06373 0.0
H1977 H 0.78879 0.72888 0.18535 0.0
H1978 H 0.79072 0.73024 0.15096 0.0
C1979 C 0.74322 0.78742 0.05166 0.0
C1980 C 0.77177 0.77271 0.09381 0.0
H1981 H 0.80833 0.77432 0.1251 0.0
C1982 C 0.75954 0.76078 0.10351 0.0
C1983 C 0.79019 0.77629 0.10091 0.0
C1984 C 0.80459 0.78755 0.09027 0.0
C1985 C 0.76434 0.7544 0.12132 0.0
C1986 C 0.78177 0.7601 0.12947 0.0
C1987 C 0.79488 0.77017 0.11886 0.0
C1988 C 0.78447 0.75946 0.14997 0.0
C1989 C 0.74995 0.74329 0.13216 0.0
C1990 C 0.78095 0.77556 0.16064 0.0
C1991 C 0.77965 0.77481 0.1801 0.0
C1992 C 0.78203 0.75795 0.18925 0.0
C1993 C 0.78695 0.74207 0.17864 0.0
C1994 C 0.78803 0.7428 0.15905 0.0
H1995 H 0.73719 0.73968 0.12364 0.0
H1996 H 0.75638 0.73027 0.13698 0.0
H1997 H 0.74549 0.75132 0.14481 0.0
H1998 H 0.77812 0.78853 0.15382 0.0
H1999 H 0.77598 0.78728 0.18791 0.0
H2000 H 0.915 0.05246 0.68371 0.0
H2001 H 0.92436 0.03751 0.65419 0.0
H2002 H 0.96463 0.00451 0.68371 0.0
H2003 H 0.95549 0.01951 0.7134 0.0
H2004 H 0.96205 0.03282 0.63682 0.0
H2005 H 0.92581 0.96695 0.65695 0.0
H2006 H 0.92082 -0.01114 0.66847 0.0
H2007 H 0.94258 0.97739 0.67319 0.0
C2008 C 0.92612 0.0423 0.68391 0.0
C2009 C 0.93428 0.03693 0.70091 0.0
C2010 C 0.9314 0.03374 0.66705 0.0
C2011 C 0.94483 0.01966 0.66694 0.0
C2012 C 0.95398 0.01514 0.68366 0.0
H2013 H 0.98103 0.9607 0.56562 0.0
H2014 H 0.97564 0.96664 0.59911 0.0
C2015 C 0.94881 0.02381 0.70055 0.0
C2016 C 0.94844 0.00925 0.64934 0.0
H2017 H 0.93797 0.96838 0.62624 0.0
C2018 C 0.95705 0.01865 0.63456 0.0
C2019 C 0.94179 -0.00921 0.64654 0.0
C2020 C 0.93213 0.98033 0.66204 0.0
C2021 C 0.95878 0.01021 0.61681 0.0
C2022 C 0.95146 -0.00797 0.6138 0.0
C2023 C 0.94347 0.98233 0.62871 0.0
C2024 C 0.95118 0.98367 0.59479 0.0
C2025 C 0.96795 0.02095 0.60121 0.0
C2026 C 0.9384 -0.00972 0.58156 0.0
C2027 C 0.94145 0.987 0.56248 0.0
C2028 C 0.95733 0.97704 0.55645 0.0
C2029 C 0.96867 0.96841 0.56986 0.0
C2030 C 0.96567 0.97184 0.589 0.0
H2031 H 0.9757 0.03349 0.60658 0.0
H2032 H 0.97797 0.01207 0.59325 0.0
H2033 H 0.95689 0.02544 0.59128 0.0
H2034 H 0.92708 -0.00063 0.5859 0.0
H2035 H 0.93241 -0.00632 0.55245 0.0
H2036 H 0.73731 0.13425 0.41533 0.0
H2037 H 0.73562 0.15257 0.38698 0.0
H2038 H 0.73998 0.20298 0.42038 0.0
H2039 H 0.74155 0.1847 0.44899 0.0
H2040 H 0.71131 0.20315 0.39235 0.0
H2041 H 0.78024 0.18112 0.36337 0.0
H2042 H 0.76529 0.16196 0.36983 0.0
H2043 H 0.77383 0.17804 0.38764 0.0
C2044 C 0.73792 0.14923 0.41669 0.0
C2045 C 0.73966 0.15803 0.43439 0.0
C2046 C 0.73706 0.15967 0.40046 0.0
C2047 C 0.73801 0.1791 0.4016 0.0
C2048 C 0.73937 0.18798 0.41924 0.0
H2049 H 0.75197 0.23687 0.29554 0.0
H2050 H 0.75563 0.22928 0.32864 0.0
C2051 C 0.74027 0.17753 0.43553 0.0
C2052 C 0.73726 0.18996 0.38425 0.0
H2053 H 0.75865 0.19455 0.34173 0.0
C2054 C 0.72178 0.20152 0.38136 0.0
C2055 C 0.75114 0.18809 0.37012 0.0
C2056 C 0.76867 0.17678 0.37293 0.0
C2057 C 0.71926 0.21042 0.36422 0.0
C2058 C 0.73242 0.2074 0.34958 0.0
C2059 C 0.74846 0.19671 0.3529 0.0
C2060 C 0.72918 0.21392 0.33028 0.0
C2061 C 0.70242 0.22276 0.36187 0.0
C2062 C 0.71305 0.20788 0.32028 0.0
C2063 C 0.7109 0.21219 0.30141 0.0
C2064 C 0.72495 0.22248 0.29208 0.0
C2065 C 0.74089 0.22891 0.30227 0.0
C2066 C 0.74301 0.2246 0.32119 0.0
H2067 H 0.69766 0.22856 0.3756 0.0
H2068 H 0.70568 0.2344 0.35238 0.0
H2069 H 0.6905 0.21448 0.35574 0.0
H2070 H 0.70242 0.19924 0.32687 0.0
H2071 H 0.69845 0.20698 0.29401 0.0
H2072 H 0.5427 0.94954 0.21945 0.0
H2073 H 0.52385 0.95351 0.19106 0.0
H2074 H 0.57499 0.95997 0.15877 0.0
H2075 H 0.59392 0.95563 0.18696 0.0
H2076 H 0.52437 0.98521 0.17115 0.0
H2077 H 0.54367 0.926 0.12484 0.0
H2078 H 0.54861 0.9265 0.14972 0.0
H2079 H 0.56411 0.93833 0.13374 0.0
C2080 C 0.54993 0.95135 0.20621 0.0
C2081 C 0.56979 0.95236 0.20542 0.0
C2082 C 0.53914 0.95366 0.19003 0.0
C2083 C 0.54802 0.95691 0.17281 0.0
C2084 C 0.56785 0.9571 0.17184 0.0
H2085 H 0.52396 0.00099 0.0662 0.0
H2086 H 0.53651 -0.00755 0.09668 0.0
C2087 C 0.57866 0.95471 0.18799 0.0
C2088 C 0.53672 0.96205 0.1563 0.0
H2089 H 0.53009 0.95224 0.10973 0.0
C2090 C 0.52535 0.97782 0.1578 0.0
C2091 C 0.53802 0.95236 0.13893 0.0
C2092 C 0.54911 0.93475 0.13674 0.0
C2093 C 0.51591 0.98464 0.14211 0.0
C2094 C 0.51794 0.97542 0.12463 0.0
C2095 C 0.52876 0.95933 0.12323 0.0
C2096 C 0.50965 0.98266 0.10735 0.0
C2097 C 0.50443 0.00203 0.14407 0.0
C2098 C 0.49028 0.9804 0.10359 0.0
C2099 C 0.483 0.98524 0.08615 0.0
C2100 C 0.49505 -0.00766 0.07223 0.0
C2101 C 0.51428 -0.0045 0.07653 0.0
C2102 C 0.52152 -0.0094 0.09391 0.0
H2103 H 0.50549 0.00838 0.15837 0.0
H2104 H 0.50925 0.01235 0.1337 0.0
H2105 H 0.48934 -0.00131 0.14104 0.0
H2106 H 0.48098 0.97421 0.11386 0.0
H2107 H 0.46814 0.98262 0.08329 0.0
H2108 H 0.68668 0.86922 0.94594 0.0
H2109 H 0.68779 0.85982 0.91288 0.0
H2110 H 0.70896 0.80638 0.92814 0.0
H2111 H 0.70842 0.81586 0.96123 0.0
H2112 H 0.72975 0.82127 0.90143 0.0
H2113 H 0.65441 0.82597 0.88129 0.0
H2114 H 0.66315 0.84718 0.89189 0.0
H2115 H 0.66211 0.8264 0.90546 0.0
C2116 C 0.69139 0.85539 0.94229 0.0
C2117 C 0.69752 0.84331 0.95622 0.0
C2118 C 0.69184 0.84998 0.92338 0.0
C2119 C 0.69811 0.83227 0.91806 0.0
C2120 C 0.70395 0.82007 0.93195 0.0
H2121 H 0.69844 0.78935 0.80208 0.0
H2122 H 0.69043 0.79462 0.83521 0.0
C2123 C 0.70369 0.82554 0.95085 0.0
C2124 C 0.70016 0.8271 0.89796 0.0
H2125 H 0.67687 0.82547 0.85591 0.0
C2126 C 0.71812 0.82197 0.89153 0.0
C2127 C 0.68492 0.82776 0.88508 0.0
C2128 C 0.66503 0.83193 0.89132 0.0
C2129 C 0.72143 0.81816 0.8725 0.0
C2130 C 0.7065 0.82001 0.85948 0.0
C2131 C 0.68835 0.82438 0.86593 0.0
C2132 C 0.70977 0.81793 0.83908 0.0
C2133 C 0.74094 0.81221 0.86652 0.0
C2134 C 0.72271 0.82974 0.83021 0.0
C2135 C 0.72739 0.82673 0.81142 0.0
C2136 C 0.71902 0.81195 0.80108 0.0
C2137 C 0.70517 0.80081 0.8097 0.0
C2138 C 0.70059 0.80378 0.8286 0.0
H2139 H 0.74893 0.80629 0.87837 0.0
H2140 H 0.74016 0.80173 0.8549 0.0
H2141 H 0.74902 0.82446 0.86153 0.0
H2142 H 0.72959 0.84102 0.83797 0.0
H2143 H 0.73791 0.83573 0.80515 0.0
H2144 H 0.73644 0.9259 0.02156 0.0
H2145 H 0.7663 0.94256 0.028 0.0
H2146 H 0.79539 0.89057 0.03031 0.0
H2147 H 0.76573 0.87374 0.024 0.0
H2148 H 0.79458 0.93248 0.0624 0.0
H2149 H 0.82116 0.92794 -0.01104 0.0
H2150 H 0.79621 0.92794 -0.00552 0.0
H2151 H 0.80983 0.90758 -0.00172 0.0
C2152 C 0.7492 0.918 0.02337 0.0
C2153 C 0.74873 0.89849 0.02223 0.0
C2154 C 0.76617 0.92755 0.02714 0.0
C2155 C 0.78287 0.91771 0.02965 0.0
C2156 C 0.78252 0.89831 0.02842 0.0
H2157 H 0.90068 0.93115 0.03825 0.0
H2158 H 0.86761 0.92114 0.03771 0.0
C2159 C 0.76559 0.88876 0.02478 0.0
C2160 C 0.80092 0.92757 0.03321 0.0
H2161 H 0.84297 0.93776 0.0124 0.0
C2162 C 0.80515 0.93392 0.05149 0.0
C2163 C 0.81447 0.92935 0.01886 0.0
C2164 C 0.81027 0.92297 -0.00103 0.0
C2165 C 0.82314 0.94128 0.05599 0.0
C2166 C 0.83694 0.94241 0.04174 0.0
C2167 C 0.83234 0.93676 0.02331 0.0
C2168 C 0.85673 0.94806 0.04562 0.0
C2169 C 0.82756 0.94698 0.07602 0.0
C2170 C 0.86156 0.96636 0.05099 0.0
C2171 C 0.88057 0.97209 0.05154 0.0
C2172 C 0.89481 0.95962 0.0464 0.0
C2173 C 0.88993 0.94107 0.04212 0.0
C2174 C 0.87108 0.93534 0.0418 0.0
H2175 H 0.81634 0.94239 0.08586 0.0
H2176 H 0.84125 0.94113 0.08047 0.0
H2177 H 0.82885 0.96231 0.07707 0.0
H2178 H 0.85064 0.97642 0.05376 0.0
H2179 H 0.88401 0.9865 0.05475 0.0
H2180 H 0.31066 0.59341 0.96592 0.0
H2181 H 0.33427 0.57294 0.95225 0.0
H2182 H 0.29032 0.5331 0.93711 0.0
H2183 H 0.26687 0.55307 0.95211 0.0
H2184 H 0.31513 0.51574 0.95259 0.0
H2185 H 0.35443 0.55857 0.90328 0.0
H2186 H 0.35402 0.57161 0.92486 0.0
H2187 H 0.33207 0.56599 0.9128 0.0
C2188 C 0.30605 0.58042 0.9594 0.0
C2189 C 0.28705 0.57469 0.96022 0.0
C2190 C 0.31952 0.5688 0.95129 0.0
C2191 C 0.31412 0.55155 0.94319 0.0
C2192 C 0.2949 0.54631 0.94318 0.0
H2193 H 0.42291 0.49608 0.9287 0.0
H2194 H 0.39144 0.50412 0.91671 0.0
C2195 C 0.28152 0.55768 0.95181 0.0
C2196 C 0.32883 0.53799 0.93764 0.0
H2197 H 0.37426 0.53674 0.92179 0.0
C2198 C 0.32776 0.52017 0.94522 0.0
C2199 C 0.34515 0.54315 0.92736 0.0
C2200 C 0.3463 0.56081 0.91644 0.0
C2201 C 0.34343 0.50855 0.94505 0.0
C2202 C 0.36079 0.51524 0.93785 0.0
C2203 C 0.36112 0.53184 0.92791 0.0
C2204 C 0.37899 0.50769 0.94425 0.0
C2205 C 0.3416 0.48976 0.95383 0.0
C2206 C 0.38237 0.50703 0.96361 0.0
C2207 C 0.40009 0.50255 0.9704 0.0
C2208 C 0.41504 0.49881 0.95802 0.0
C2209 C 0.41161 0.49884 0.93856 0.0
C2210 C 0.39369 0.50343 0.93171 0.0
H2211 H 0.32746 0.48348 0.95075 0.0
H2212 H 0.35267 0.48015 0.9487 0.0
H2213 H 0.34285 0.49134 0.96931 0.0
H2214 H 0.37149 0.51082 0.9736 0.0
H2215 H 0.40218 0.50258 0.98547 0.0
H2216 H 0.10388 0.55911 0.75464 0.0
H2217 H 0.12362 0.58722 0.75361 0.0
H2218 H 0.17342 0.55474 0.76262 0.0
H2219 H 0.15386 0.52667 0.76409 0.0
H2220 H 0.17368 0.58666 0.78372 0.0
H2221 H 0.15697 0.60114 0.70939 0.0
H2222 H 0.13645 0.59934 0.72408 0.0
H2223 H 0.15095 0.57938 0.7201 0.0
C2224 C 0.11902 0.55796 0.75652 0.0
C2225 C 0.1273 0.54062 0.75932 0.0
C2226 C 0.13029 0.57401 0.75578 0.0
C2227 C 0.15 0.57297 0.75762 0.0
C2228 C 0.15823 0.5558 0.76103 0.0
H2229 H 0.2301 0.66 0.72609 0.0
H2230 H 0.21257 0.63058 0.72851 0.0
C2231 C 0.14701 0.53978 0.76187 0.0
C2232 C 0.16215 0.58973 0.75598 0.0
H2233 H 0.17423 0.62454 0.72638 0.0
C2234 C 0.17387 0.59492 0.77116 0.0
C2235 C 0.16262 0.60023 0.73944 0.0
C2236 C 0.15122 0.59467 0.72225 0.0
C2237 C 0.18576 0.61061 0.77041 0.0
C2238 C 0.1856 0.62159 0.75419 0.0
C2239 C 0.17421 0.61616 0.73885 0.0
C2240 C 0.1967 0.63907 0.75308 0.0
C2241 C 0.19854 0.61515 0.78692 0.0
C2242 C 0.19343 0.65357 0.76598 0.0
C2243 C 0.20346 0.67028 0.76472 0.0
C2244 C 0.2168 0.67293 0.75035 0.0
C2245 C 0.21997 0.6584 0.73734 0.0
C2246 C 0.20997 0.6416 0.73869 0.0
H2247 H 0.20124 0.60269 0.79538 0.0
H2248 H 0.21232 0.62102 0.78225 0.0
H2249 H 0.19163 0.62556 0.79617 0.0
H2250 H 0.18291 0.65208 0.77689 0.0
H2251 H 0.2005 0.68122 0.77488 0.0
H2252 H 0.15408 0.38156 0.54479 0.0
H2253 H 0.12742 0.39902 0.53305 0.0
H2254 H 0.11095 0.35265 0.49723 0.0
H2255 H 0.13777 0.33493 0.50895 0.0
H2256 H 0.12486 0.40479 0.49122 0.0
H2257 H 0.06081 0.37291 0.52377 0.0
H2258 H 0.08381 0.37184 0.53477 0.0
H2259 H 0.07881 0.3581 0.51409 0.0
C2260 C 0.14454 0.37487 0.53475 0.0
C2261 C 0.14807 0.35693 0.52769 0.0
C2262 C 0.12937 0.38489 0.52803 0.0
C2263 C 0.11739 0.37713 0.51422 0.0
C2264 C 0.12007 0.35879 0.50796 0.0
H2265 H 0.02052 0.43514 0.46903 0.0
H2266 H 0.0452 0.412 0.47155 0.0
C2267 C 0.13532 0.34869 0.51473 0.0
C2268 C 0.10328 0.38899 0.50535 0.0
H2269 H 0.05641 0.39922 0.50545 0.0
C2270 C 0.10984 0.40348 0.49411 0.0
C2271 C 0.08377 0.38704 0.50902 0.0
C2272 C 0.07623 0.37169 0.52111 0.0
C2273 C 0.09741 0.41653 0.48694 0.0
C2274 C 0.078 0.41522 0.49149 0.0
C2275 C 0.07132 0.4002 0.502 0.0
C2276 C 0.06461 0.43007 0.487 0.0
C2277 C 0.10521 0.43171 0.47478 0.0
C2278 C 0.0676 0.44808 0.49437 0.0
C2279 C 0.05357 0.46139 0.49289 0.0
C2280 C 0.03619 0.45683 0.48424 0.0
C2281 C 0.03371 0.4391 0.47587 0.0
C2282 C 0.04778 0.42583 0.47731 0.0
H2283 H 0.11834 0.42731 0.46752 0.0
H2284 H 0.09473 0.43587 0.4641 0.0
H2285 H 0.10882 0.44403 0.48374 0.0
H2286 H 0.08035 0.45155 0.50221 0.0
H2287 H 0.05593 0.47485 0.49955 0.0
H2288 H 0.89038 0.9584 0.72437 0.0
H2289 H 0.865 0.9362 0.71732 0.0
H2290 H 0.82433 0.98021 0.71969 0.0
H2291 H 0.8497 0.00252 0.72751 0.0
H2292 H 0.81273 0.95295 0.73984 0.0
H2293 H 0.83466 0.92285 0.67193 0.0
H2294 H 0.85392 0.92156 0.68817 0.0
H2295 H 0.84531 0.94391 0.68148 0.0
C2296 C 0.87608 0.96344 0.72313 0.0
C2297 C 0.87204 0.98221 0.72658 0.0
C2298 C 0.86158 0.95073 0.71887 0.0
C2299 C 0.84279 0.95658 0.71753 0.0
C2300 C 0.83875 0.97541 0.72049 0.0
H2301 H 0.76405 0.86253 0.69658 0.0
H2302 H 0.77911 0.89296 0.69209 0.0
C2303 C 0.85325 -0.01188 0.72501 0.0
C2304 C 0.82732 0.94263 0.7153 0.0
H2305 H 0.81593 0.90225 0.69194 0.0
C2306 C 0.81317 0.94213 0.72907 0.0
C2307 C 0.82749 0.92873 0.70099 0.0
C2308 C 0.84106 0.92945 0.68471 0.0
C2309 C 0.80024 0.92727 0.72986 0.0
C2310 C 0.80192 0.91227 0.71691 0.0
C2311 C 0.81494 0.91356 0.70214 0.0
C2312 C 0.79187 0.89442 0.71971 0.0
C2313 C 0.78529 0.92754 0.74494 0.0
C2314 C 0.79431 0.88508 0.73659 0.0
C2315 C 0.7857 0.86786 0.73924 0.0
C2316 C 0.7747 0.85942 0.72492 0.0
C2317 C 0.77241 0.86869 0.7079 0.0
C2318 C 0.78096 0.88606 0.70531 0.0
H2319 H 0.78122 0.94199 0.7486 0.0
H2320 H 0.77241 0.91959 0.74051 0.0
H2321 H 0.79103 0.9213 0.75783 0.0
H2322 H 0.80319 0.89098 0.74766 0.0
H2323 H 0.78794 0.86104 0.75245 0.0
H2324 H 0.69877 0.07209 0.49125 0.0
H2325 H 0.67377 0.05582 0.50824 0.0
H2326 H 0.66137 0.10618 0.53923 0.0
H2327 H 0.68592 0.12272 0.52175 0.0
H2328 H 0.67035 0.04962 0.54542 0.0
H2329 H 0.60967 0.09089 0.52064 0.0
H2330 H 0.63282 0.09262 0.51021 0.0
H2331 H 0.62804 0.10421 0.53223 0.0
C2332 C 0.69054 0.07975 0.50151 0.0
C2333 C 0.69415 0.0987 0.50505 0.0
C2334 C 0.67636 0.07042 0.5113 0.0
C2335 C 0.6656 0.07981 0.5249 0.0
C2336 C 0.66921 0.09874 0.52852 0.0
H2337 H 0.56381 0.03419 0.57657 0.0
H2338 H 0.59408 0.05137 0.57681 0.0
C2339 C 0.68324 0.10817 0.51853 0.0
C2340 C 0.65065 0.0696 0.53516 0.0
H2341 H 0.6029 0.06698 0.54151 0.0
C2342 C 0.65561 0.05352 0.54473 0.0
C2343 C 0.63145 0.07478 0.53437 0.0
C2344 C 0.62509 0.09146 0.5237 0.0
C2345 C 0.64179 0.04208 0.55286 0.0
C2346 C 0.62258 0.04688 0.55139 0.0
C2347 C 0.61771 0.06347 0.54276 0.0
C2348 C 0.60708 0.0337 0.55577 0.0
C2349 C 0.64775 0.02467 0.56247 0.0
C2350 C 0.60475 0.01768 0.54447 0.0
C2351 C 0.58752 0.00802 0.54424 0.0
C2352 C 0.57252 0.01411 0.55549 0.0
C2353 C 0.57541 0.02903 0.56814 0.0
C2354 C 0.5926 0.03889 0.56819 0.0
H2355 H 0.66263 0.02578 0.56745 0.0
H2356 H 0.63841 0.02163 0.57458 0.0
H2357 H 0.6467 0.0128 0.55234 0.0
H2358 H 0.61557 0.01368 0.5345 0.0
H2359 H 0.58537 -0.00321 0.53409 0.0
H2360 H 0.13977 0.41448 0.77053 0.0
H2361 H 0.16518 0.39209 0.77306 0.0
H2362 H 0.20577 0.43367 0.75597 0.0
H2363 H 0.18046 0.4563 0.75378 0.0
H2364 H 0.18715 0.38075 0.7438 0.0
H2365 H 0.23192 0.41099 0.80112 0.0
H2366 H 0.20797 0.41827 0.79696 0.0
H2367 H 0.22692 0.42655 0.78244 0.0
C2368 C 0.15412 0.41891 0.76749 0.0
C2369 C 0.15813 0.43711 0.76189 0.0
C2370 C 0.16862 0.40613 0.76899 0.0
C2371 C 0.18736 0.4113 0.76493 0.0
C2372 C 0.19146 0.42952 0.75957 0.0
H2373 H 0.26689 0.32655 0.73273 0.0
H2374 H 0.25182 0.35677 0.73505 0.0
C2375 C 0.17696 0.44237 0.75817 0.0
C2376 C 0.20221 0.39711 0.76471 0.0
H2377 H 0.2442 0.38496 0.78443 0.0
C2378 C 0.19963 0.38168 0.75267 0.0
C2379 C 0.21841 0.39838 0.77638 0.0
C2380 C 0.22146 0.41435 0.79009 0.0
C2381 C 0.21271 0.36734 0.75205 0.0
C2382 C 0.22911 0.36873 0.76344 0.0
C2383 C 0.23176 0.38416 0.77551 0.0
C2384 C 0.24277 0.35347 0.76377 0.0
C2385 C 0.20854 0.35056 0.73961 0.0
C2386 C 0.24392 0.34238 0.77965 0.0
C2387 C 0.25273 0.32519 0.77846 0.0
C2388 C 0.26028 0.31887 0.76129 0.0
C2389 C 0.2609 0.33094 0.74605 0.0
C2390 C 0.2523 0.34819 0.74733 0.0
H2391 H 0.19351 0.34992 0.73502 0.0
H2392 H 0.21751 0.35118 0.72688 0.0
H2393 H 0.21177 0.33756 0.74699 0.0
H2394 H 0.23671 0.34632 0.79249 0.0
H2395 H 0.25211 0.31625 0.79048 0.0
H2396 H 0.37056 0.58412 0.29043 0.0
H2397 H 0.3501 0.60728 0.30539 0.0
H2398 H 0.31603 0.6082 0.25506 0.0
H2399 H 0.33553 0.58439 0.24073 0.0
H2400 H 0.3439 0.64057 0.29862 0.0
H2401 H 0.27477 0.60639 0.29147 0.0
H2402 H 0.29631 0.59381 0.28751 0.0
H2403 H 0.28497 0.60575 0.26855 0.0
C2404 C 0.3585 0.58914 0.28274 0.0
C2405 C 0.35448 0.58242 0.26451 0.0
C2406 C 0.34682 0.60232 0.2913 0.0
C2407 C 0.33113 0.60912 0.28161 0.0
C2408 C 0.32744 0.60259 0.26323 0.0
H2409 H 0.29513 0.71362 0.265 0.0
H2410 H 0.31276 0.68716 0.27576 0.0
C2411 C 0.33877 0.58914 0.25491 0.0
C2412 C 0.31952 0.62428 0.28965 0.0
H2413 H 0.27478 0.64056 0.28698 0.0
C2414 C 0.32869 0.6404 0.29662 0.0
C2415 C 0.29957 0.62396 0.28816 0.0
C2416 C 0.28841 0.6064 0.28375 0.0
C2417 C 0.31868 0.65681 0.29978 0.0
C2418 C 0.29929 0.65732 0.29479 0.0
C2419 C 0.28977 0.64059 0.29019 0.0
C2420 C 0.28943 0.675 0.29131 0.0
C2421 C 0.32919 0.67346 0.30793 0.0
C2422 C 0.27023 0.67703 0.29601 0.0
C2423 C 0.2599 0.69171 0.28894 0.0
C2424 C 0.26878 0.70492 0.27766 0.0
C2425 C 0.28815 0.70368 0.27396 0.0
C2426 C 0.29829 0.68864 0.28038 0.0
H2427 H 0.33916 0.66911 0.31901 0.0
H2428 H 0.3378 0.68002 0.29679 0.0
H2429 H 0.31946 0.68386 0.31408 0.0
H2430 H 0.26299 0.66676 0.30438 0.0
H2431 H 0.2449 0.69251 0.29188 0.0
H2432 H 0.51695 0.65262 0.609 0.0
H2433 H 0.50633 0.62627 0.5895 0.0
H2434 H 0.47018 0.66206 0.55816 0.0
H2435 H 0.48057 0.68856 0.57769 0.0
H2436 H 0.45185 0.63003 0.57174 0.0
H2437 H 0.51833 0.61303 0.5345 0.0
H2438 H 0.52123 0.61532 0.55948 0.0
H2439 H 0.51469 0.63515 0.54616 0.0
C2440 C 0.50695 0.65498 0.5978 0.0
C2441 C 0.49959 0.67269 0.59492 0.0
C2442 C 0.50096 0.63991 0.58663 0.0
C2443 C 0.48761 0.64231 0.57234 0.0
C2444 C 0.48054 0.66 0.56911 0.0
H2445 H 0.4636 0.54769 0.49849 0.0
H2446 H 0.46719 0.57992 0.5091 0.0
C2447 C 0.48655 0.67511 0.58025 0.0
C2448 C 0.48024 0.62607 0.56159 0.0
H2449 H 0.49429 0.58931 0.53466 0.0
C2450 C 0.46103 0.62124 0.56337 0.0
C2451 C 0.49221 0.61483 0.55054 0.0
C2452 C 0.51273 0.61992 0.54737 0.0
C2453 C 0.45366 0.60487 0.55508 0.0
C2454 C 0.46592 0.59305 0.545 0.0
C2455 C 0.48492 0.59837 0.5425 0.0
C2456 C 0.45988 0.5745 0.53795 0.0
C2457 C 0.43292 0.60029 0.55736 0.0
C2458 C 0.45395 0.5609 0.55056 0.0
C2459 C 0.45179 0.54245 0.54453 0.0
C2460 C 0.45582 0.53732 0.52585 0.0
C2461 C 0.46056 0.55118 0.51301 0.0
C2462 C 0.4626 0.56961 0.51902 0.0
H2463 H 0.42456 0.613 0.56001 0.0
H2464 H 0.42714 0.5929 0.54474 0.0
H2465 H 0.43104 0.59117 0.5696 0.0
H2466 H 0.45214 0.56433 0.56531 0.0
H2467 H 0.44819 0.53209 0.55477 0.0
H2468 H 0.55316 0.18223 0.84215 0.0
H2469 H 0.57664 0.17282 0.81887 0.0
H2470 H 0.61916 0.20559 0.84851 0.0
H2471 H 0.59594 0.21428 0.87221 0.0
H2472 H 0.5904 0.19677 0.7968 0.0
H2473 H 0.6513 0.16458 0.83017 0.0
H2474 H 0.62872 0.16623 0.84187 0.0
H2475 H 0.64583 0.18506 0.84353 0.0
C2476 C 0.56771 0.18686 0.84401 0.0
C2477 C 0.57277 0.19914 0.8588 0.0
C2478 C 0.5811 0.18144 0.83074 0.0
C2479 C 0.59971 0.18841 0.83192 0.0
C2480 C 0.60506 0.19959 0.8475 0.0
H2481 H 0.6633 0.25084 0.76484 0.0
H2482 H 0.63813 0.23301 0.77949 0.0
C2483 C 0.59173 0.20473 0.86098 0.0
C2484 C 0.6123 0.18732 0.81536 0.0
H2485 H 0.65906 0.18596 0.80414 0.0
C2486 C 0.60532 0.19376 0.79824 0.0
C2487 C 0.63166 0.18296 0.81688 0.0
C2488 C 0.63969 0.17411 0.83409 0.0
C2489 C 0.61754 0.19807 0.78349 0.0
C2490 C 0.63721 0.19632 0.78614 0.0
C2491 C 0.64396 0.18774 0.80229 0.0
C2492 C 0.65094 0.2063 0.77428 0.0
C2493 C 0.60935 0.20552 0.76565 0.0
C2494 C 0.66649 0.19721 0.76639 0.0
C2495 C 0.68106 0.20744 0.75806 0.0
C2496 C 0.68037 0.22694 0.75777 0.0
C2497 C 0.6643 0.23587 0.76485 0.0
C2498 C 0.64978 0.22565 0.77308 0.0
H2499 H 0.59521 0.19917 0.76268 0.0
H2500 H 0.60744 0.22071 0.76733 0.0
H2501 H 0.61873 0.20286 0.75344 0.0
H2502 H 0.6677 0.1823 0.76733 0.0
H2503 H 0.69327 0.20014 0.75275 0.0
H2504 H 0.98274 0.31587 0.14581 0.0
H2505 H -0.0102 0.34675 0.13377 0.0
H2506 H -0.00014 0.32284 0.07882 0.0
H2507 H -0.00719 0.29195 0.09068 0.0
H2508 H 0.02558 0.35643 0.11738 0.0
H2509 H 0.96559 0.36751 0.06874 0.0
H2510 H 0.96465 0.35064 0.08712 0.0
H2511 H 0.97694 0.34555 0.06562 0.0
C2512 C 0.986 0.31722 0.13105 0.0
C2513 C 0.98721 0.30146 0.11918 0.0
C2514 C -0.00986 0.33486 0.12424 0.0
C2515 C -0.0047 0.33705 0.10543 0.0
C2516 C -0.00432 0.32146 0.09335 0.0
H2517 H 0.03175 0.42325 0.03275 0.0
H2518 H 0.02604 0.39388 0.04832 0.0
C2519 C -0.00835 0.30381 0.10015 0.0
C2520 C 0.00162 0.35537 0.09866 0.0
H2521 H -0.00787 0.3879 0.06607 0.0
C2522 C 0.01821 0.36345 0.10628 0.0
C2523 C -0.00804 0.3644 0.08419 0.0
C2524 C 0.9737 0.3567 0.07602 0.0
C2525 C 0.02578 0.38006 0.0993 0.0
C2526 C 0.01631 0.38889 0.08455 0.0
C2527 C -0.00052 0.381 0.07727 0.0
C2528 C 0.02354 0.4062 0.07611 0.0
C2529 C 0.04414 0.38767 0.10732 0.0
C2530 C 0.0249 0.4228 0.08672 0.0
C2531 C 0.02845 0.43966 0.07785 0.0
C2532 C 0.03034 0.4401 0.05824 0.0
C2533 C 0.03028 0.42331 0.04788 0.0
C2534 C 0.02695 0.40653 0.05674 0.0
H2535 H 0.05192 0.37702 0.11517 0.0
H2536 H 0.05343 0.39303 0.09605 0.0
H2537 H 0.04108 0.39934 0.11718 0.0
H2538 H 0.02204 0.4229 0.10164 0.0
H2539 H 0.02818 0.45241 0.08613 0.0
H2540 H 0.98058 0.77946 0.32948 0.0
H2541 H 0.94848 0.78252 0.31742 0.0
H2542 H 0.92987 0.73691 0.35144 0.0
H2543 H 0.96188 0.73428 0.36415 0.0
H2544 H 0.93017 0.75756 0.29691 0.0
H2545 H 0.88807 0.77279 0.36063 0.0
H2546 H 0.91358 0.77406 0.36054 0.0
H2547 H 0.90151 0.75205 0.36279 0.0
C2548 C 0.96956 0.77031 0.33465 0.0
C2549 C 0.97367 0.75661 0.34771 0.0
C2550 C 0.95125 0.77206 0.32774 0.0
C2551 C 0.93676 0.76004 0.33363 0.0
C2552 C 0.94073 0.74663 0.34704 0.0
H2553 H 0.83698 0.73048 0.2687 0.0
H2554 H 0.86857 0.73251 0.28265 0.0
C2555 C 0.95903 0.74507 0.35422 0.0
C2556 C 0.91799 0.76058 0.3245 0.0
H2557 H 0.8707 0.76301 0.33322 0.0
C2558 C 0.91716 0.75894 0.30484 0.0
C2559 C 0.90108 0.76259 0.33484 0.0
C2560 C 0.90109 0.76567 0.35585 0.0
C2561 C 0.89987 0.75897 0.29524 0.0
C2562 C 0.88291 0.76002 0.30565 0.0
C2563 C 0.88373 0.762 0.32528 0.0
C2564 C 0.86413 0.75909 0.29652 0.0
C2565 C 0.90001 0.75817 0.27406 0.0
C2566 C 0.85105 0.77316 0.29999 0.0
C2567 C 0.83291 0.77185 0.29236 0.0
C2568 C 0.82757 0.75649 0.281 0.0
C2569 C 0.84079 0.74258 0.27722 0.0
C2570 C 0.85886 0.74377 0.28511 0.0
H2571 H 0.91368 0.76336 0.26838 0.0
H2572 H 0.8981 0.74356 0.26918 0.0
H2573 H 0.88842 0.76647 0.26812 0.0
H2574 H 0.85483 0.78509 0.30877 0.0
H2575 H 0.82302 0.78283 0.29546 0.0
H2576 H 0.53871 0.28222 0.92298 0.0
H2577 H 0.53256 0.31317 0.93587 0.0
H2578 H 0.53669 0.3358 0.88048 0.0
H2579 H 0.54292 0.30481 0.86737 0.0
H2580 H 0.55282 0.35046 0.93156 0.0
H2581 H 0.48044 0.34397 0.90072 0.0
H2582 H 0.49516 0.32408 0.90421 0.0
H2583 H 0.50025 0.33963 0.88549 0.0
C2584 C 0.53872 0.29382 0.91357 0.0
C2585 C 0.54107 0.29105 0.89412 0.0
C2586 C 0.53525 0.31148 0.92097 0.0
C2587 C 0.53394 0.3266 0.90906 0.0
C2588 C 0.53754 0.32417 0.88983 0.0
H2589 H 0.48637 0.43501 0.93141 0.0
H2590 H 0.49853 0.4068 0.9167 0.0
C2591 C 0.54118 0.3065 0.88239 0.0
C2592 C 0.52695 0.3444 0.91659 0.0
H2593 H 0.48736 0.37079 0.9188 0.0
C2594 C 0.53857 0.35503 0.92872 0.0
C2595 C 0.50833 0.35016 0.91282 0.0
C2596 C 0.49519 0.33888 0.9002 0.0
C2597 C 0.53204 0.37145 0.93719 0.0
C2598 C 0.51323 0.37698 0.9338 0.0
C2599 C 0.50173 0.36644 0.92143 0.0
C2600 C 0.50517 0.39369 0.9429 0.0
C2601 C 0.54542 0.38281 0.94948 0.0
C2602 C 0.50428 0.39539 0.96252 0.0
C2603 C 0.49738 0.41154 0.97102 0.0
C2604 C 0.49105 0.42619 0.96 0.0
C2605 C 0.49115 0.42403 0.94034 0.0
C2606 C 0.49816 0.40794 0.93188 0.0
H2607 H 0.56043 0.37966 0.94633 0.0
H2608 H 0.54325 0.39789 0.94769 0.0
H2609 H 0.54278 0.37951 0.96439 0.0
H2610 H 0.50911 0.38431 0.97128 0.0
H2611 H 0.49737 0.41268 0.98619 0.0
H2612 H 0.94966 0.19475 0.19232 0.0
H2613 H 0.917 0.18608 0.19945 0.0
H2614 H 0.8981 0.23806 0.17768 0.0
H2615 H 0.9307 0.2465 0.16978 0.0
H2616 H 0.89171 0.20024 0.22178 0.0
H2617 H 0.86415 0.20262 0.14938 0.0
H2618 H 0.88913 0.20387 0.15457 0.0
H2619 H 0.87494 0.22441 0.15607 0.0
C2620 C 0.93855 0.20437 0.18908 0.0
C2621 C 0.94272 0.22128 0.18037 0.0
C2622 C 0.91989 0.19936 0.19311 0.0
C2623 C 0.90506 0.21119 0.18865 0.0
C2624 C 0.90926 0.22841 0.18064 0.0
H2625 H 0.7984 0.22587 0.23639 0.0
H2626 H 0.83164 0.22124 0.23006 0.0
C2627 C 0.9279 0.23332 0.17632 0.0
C2628 C 0.88524 0.20581 0.19287 0.0
H2629 H 0.84087 0.20443 0.17408 0.0
C2630 C 0.88063 0.20086 0.21127 0.0
C2631 C 0.87085 0.20597 0.17905 0.0
C2632 C 0.87507 0.20929 0.15863 0.0
C2633 C 0.86184 0.19732 0.2165 0.0
C2634 C 0.84725 0.1994 0.20312 0.0
C2635 C 0.852 0.20309 0.18444 0.0
C2636 C 0.82705 0.20001 0.20854 0.0
C2637 C 0.85785 0.19161 0.23637 0.0
C2638 C 0.81325 0.18974 0.19842 0.0
C2639 C 0.79401 0.19266 0.20175 0.0
C2640 C 0.78831 0.20591 0.21525 0.0
C2641 C 0.80222 0.2155 0.22592 0.0
C2642 C 0.82133 0.21273 0.22246 0.0
H2643 H 0.86971 0.18347 0.24203 0.0
H2644 H 0.85647 0.20421 0.24544 0.0
H2645 H 0.84461 0.1832 0.23732 0.0
H2646 H 0.81737 0.17994 0.18752 0.0
H2647 H 0.78367 0.18503 0.1933 0.0
H2648 H -0.01072 0.68904 0.41959 0.0
H2649 H -0.01106 0.66308 0.44095 0.0
H2650 H 0.03785 0.68612 0.4698 0.0
H2651 H 0.03834 0.71222 0.44838 0.0
H2652 H 0.04304 0.65064 0.45544 0.0
H2653 H 0.9765 0.6532 0.4957 0.0
H2654 H 0.97234 0.65706 0.47127 0.0
H2655 H 0.98667 0.6734 0.48471 0.0
C2656 C -0.00038 0.68889 0.43083 0.0
C2657 C 0.01393 0.70255 0.43221 0.0
C2658 C -0.00067 0.67411 0.44313 0.0
C2659 C 0.01329 0.67278 0.45704 0.0
C2660 C 0.02689 0.68701 0.45923 0.0
H2661 H 0.02733 0.56053 0.50356 0.0
H2662 H 0.03405 0.59388 0.50048 0.0
C2663 C 0.02712 0.70189 0.44698 0.0
C2664 C 0.01528 0.65514 0.46697 0.0
H2665 H -0.01124 0.62229 0.48889 0.0
C2666 C 0.03146 0.6446 0.46332 0.0
C2667 C 0.00021 0.64739 0.47731 0.0
C2668 C 0.98304 0.65846 0.48265 0.0
C2669 C 0.03212 0.62586 0.46812 0.0
C2670 C 0.01626 0.61767 0.47684 0.0
C2671 C 0.00083 0.62865 0.48201 0.0
C2672 C 0.01399 0.59739 0.47792 0.0
C2673 C 0.049 0.61451 0.46247 0.0
C2674 C 0.00091 0.58844 0.46593 0.0
C2675 C -0.00292 0.56958 0.46761 0.0
C2676 C 0.00626 0.5593 0.48136 0.0
C2677 C 0.02013 0.56809 0.49277 0.0
C2678 C 0.02391 0.58711 0.4911 0.0
H2679 H 0.06006 0.62295 0.45541 0.0
H2680 H 0.05529 0.60824 0.47508 0.0
H2681 H 0.04445 0.603 0.45282 0.0
H2682 H -0.00674 0.59619 0.45557 0.0
H2683 H 0.98643 0.5632 0.45852 0.0
H2684 H 0.56268 0.75951 0.60834 0.0
H2685 H 0.58997 0.77946 0.61658 0.0
H2686 H 0.58185 0.76737 0.67508 0.0
H2687 H 0.55451 0.74777 0.66707 0.0
H2688 H 0.58696 0.80578 0.6674 0.0
H2689 H 0.64203 0.76145 0.63402 0.0
H2690 H 0.62256 0.76852 0.61969 0.0
H2691 H 0.61843 0.75276 0.63845 0.0
C2692 C 0.56687 0.76097 0.62293 0.0
C2693 C 0.55654 0.75204 0.63708 0.0
C2694 C 0.58239 0.77239 0.62759 0.0
C2695 C 0.58785 0.77483 0.64641 0.0
C2696 C 0.57772 0.76573 0.66048 0.0
H2697 H 0.66565 0.80053 0.72604 0.0
H2698 H 0.63718 0.79963 0.70677 0.0
C2699 C 0.5622 0.75444 0.65587 0.0
C2700 C 0.60428 0.78658 0.65182 0.0
H2701 H 0.65239 0.78606 0.65336 0.0
C2702 C 0.6013 0.80176 0.66404 0.0
C2703 C 0.6229 0.78141 0.64715 0.0
C2704 C 0.62682 0.76511 0.63419 0.0
C2705 C 0.61652 0.81106 0.67285 0.0
C2706 C 0.63505 0.80483 0.66944 0.0
C2707 C 0.6381 0.79076 0.65594 0.0
C2708 C 0.65097 0.81009 0.68193 0.0
C2709 C 0.61261 0.82685 0.6864 0.0
C2710 C 0.66805 0.81669 0.67447 0.0
C2711 C 0.68441 0.81714 0.68546 0.0
C2712 C 0.68394 0.8107 0.70397 0.0
C2713 C 0.6665 0.80545 0.7118 0.0
C2714 C 0.65016 0.80512 0.70085 0.0
H2715 H 0.59949 0.83414 0.68248 0.0
H2716 H 0.61053 0.82127 0.70066 0.0
H2717 H 0.62456 0.83702 0.68694 0.0
H2718 H 0.66894 0.82043 0.65985 0.0
H2719 H 0.69762 0.82133 0.67902 0.0
H2720 H 0.6016 0.52137 0.67065 0.0
H2721 H 0.57939 0.50822 0.64734 0.0
H2722 H 0.55433 0.47385 0.68985 0.0
H2723 H 0.57555 0.48799 0.71334 0.0
H2724 H 0.5734 0.47566 0.63353 0.0
H2725 H 0.50786 0.49606 0.67054 0.0
H2726 H 0.53093 0.50393 0.67827 0.0
H2727 H 0.52218 0.48123 0.68434 0.0
C2728 C 0.59125 0.51109 0.67495 0.0
C2729 C 0.59 0.50586 0.69374 0.0
C2730 C 0.5786 0.50355 0.66168 0.0
C2731 C 0.56483 0.49037 0.66694 0.0
C2732 C 0.56427 0.48451 0.68558 0.0
H2733 H 0.50485 0.43466 0.57291 0.0
H2734 H 0.52329 0.43835 0.60193 0.0
C2735 C 0.5765 0.49247 0.69895 0.0
C2736 C 0.55116 0.48278 0.65284 0.0
H2737 H 0.50406 0.47648 0.64373 0.0
C2738 C 0.55823 0.47588 0.63574 0.0
C2739 C 0.53134 0.48315 0.65571 0.0
C2740 C 0.52263 0.49167 0.67313 0.0
C2741 C 0.5461 0.46993 0.62118 0.0
C2742 C 0.52628 0.46993 0.62419 0.0
C2743 C 0.51924 0.47625 0.64153 0.0
C2744 C 0.51261 0.46564 0.60884 0.0
C2745 C 0.5547 0.46474 0.60245 0.0
C2746 C 0.49923 0.47894 0.60406 0.0
C2747 C 0.48819 0.47652 0.58796 0.0
C2748 C 0.49058 0.46092 0.57615 0.0
C2749 C 0.50293 0.44694 0.58166 0.0
C2750 C 0.51362 0.44914 0.5981 0.0
H2751 H 0.56946 0.47008 0.60118 0.0
H2752 H 0.55506 0.44941 0.60092 0.0
H2753 H 0.5463 0.47025 0.59069 0.0
H2754 H 0.49806 0.49172 0.61218 0.0
H2755 H 0.47881 0.48755 0.58408 0.0
H2756 H 0.73452 0.40522 0.93032 0.0
H2757 H 0.73464 0.3888 0.89981 0.0
H2758 H 0.72133 0.33741 0.92724 0.0
H2759 H 0.72202 0.35351 0.9576 0.0
H2760 H 0.75009 0.3332 0.90463 0.0
H2761 H 0.69296 0.36864 0.86658 0.0
H2762 H 0.71114 0.38421 0.87523 0.0
H2763 H 0.69661 0.37169 0.89152 0.0
C2764 C 0.73138 0.39047 0.92973 0.0
C2765 C 0.72838 0.38059 0.94626 0.0
C2766 C 0.73134 0.38112 0.91232 0.0
C2767 C 0.72782 0.3619 0.91124 0.0
C2768 C 0.72414 0.35223 0.92774 0.0
H2769 H 0.70612 0.29413 0.81162 0.0
H2770 H 0.70403 0.31224 0.8409 0.0
C2771 C 0.72454 0.36144 0.94507 0.0
C2772 C 0.72928 0.35141 0.89324 0.0
H2773 H 0.71199 0.34799 0.84857 0.0
C2774 C 0.74168 0.3364 0.8924 0.0
C2775 C 0.71819 0.35549 0.87736 0.0
C2776 C 0.70384 0.37077 0.87772 0.0
C2777 C 0.74324 0.32526 0.87618 0.0
C2778 C 0.73263 0.3297 0.86009 0.0
C2779 C 0.72022 0.34472 0.86089 0.0
C2780 C 0.734 0.31874 0.84239 0.0
C2781 C 0.75583 0.30855 0.87669 0.0
C2782 C 0.75151 0.31649 0.83348 0.0
C2783 C 0.7528 0.30588 0.81696 0.0
C2784 C 0.73651 0.29769 0.80882 0.0
C2785 C 0.71892 0.30024 0.81759 0.0
C2786 C 0.71769 0.31062 0.83427 0.0
H2787 H 0.7582 0.30396 0.89129 0.0
H2788 H 0.74969 0.29673 0.86839 0.0
H2789 H 0.76983 0.31221 0.87067 0.0
H2790 H 0.76419 0.32306 0.83922 0.0
H2791 H 0.76651 0.30442 0.81038 0.0
H2792 H 0.87207 0.50155 0.17239 0.0
H2793 H 0.89636 0.51319 0.15115 0.0
H2794 H 0.91836 0.5493 0.19536 0.0
H2795 H 0.89494 0.53649 0.21705 0.0
H2796 H 0.9067 0.54407 0.13706 0.0
H2797 H 0.96478 0.52189 0.1839 0.0
H2798 H 0.94035 0.51652 0.18865 0.0
H2799 H 0.94989 0.53933 0.19395 0.0
C2800 C 0.88198 0.51212 0.17746 0.0
C2801 C 0.88192 0.518 0.1963 0.0
C2802 C 0.89585 0.51879 0.16535 0.0
C2803 C 0.90957 0.53175 0.1718 0.0
C2804 C 0.90844 0.53879 0.19026 0.0
H2805 H 0.98495 0.55542 0.07703 0.0
H2806 H 0.966 0.56374 0.10464 0.0
C2807 C 0.89496 0.53164 0.20256 0.0
C2808 C 0.92555 0.53679 0.15936 0.0
H2809 H 0.97348 0.53387 0.15493 0.0
C2810 C 0.92134 0.54198 0.14098 0.0
C2811 C 0.94466 0.53409 0.16457 0.0
C2812 C 0.95023 0.52751 0.18377 0.0
C2813 C 0.93542 0.54302 0.12722 0.0
C2814 C 0.9545 0.53991 0.13232 0.0
C2815 C 0.95888 0.53627 0.15109 0.0
C2816 C 0.96949 0.5373 0.11803 0.0
C2817 C 0.92936 0.5459 0.10715 0.0
C2818 C 0.97932 0.5205 0.11735 0.0
C2819 C -0.00916 0.51614 0.10209 0.0
C2820 C -0.00768 0.52834 0.0871 0.0
C2821 C 0.98375 0.54574 0.08841 0.0
C2822 C 0.97277 0.55039 0.10403 0.0
H2823 H 0.91387 0.54387 0.10522 0.0
H2824 H 0.93297 0.56029 0.10311 0.0
H2825 H 0.93666 0.53616 0.09743 0.0
H2826 H 0.97716 0.5102 0.12802 0.0
H2827 H -0.00271 0.50262 0.10132 0.0
H2828 H 0.69823 0.67245 0.46593 0.0
H2829 H 0.70087 0.69042 0.43741 0.0
H2830 H 0.74478 0.65426 0.41721 0.0
H2831 H 0.74172 0.63576 0.44553 0.0
H2832 H 0.72972 0.70997 0.42407 0.0
H2833 H 0.70996 0.65434 0.37262 0.0
H2834 H 0.70697 0.65174 0.39756 0.0
H2835 H 0.72978 0.64841 0.38693 0.0
C2836 C 0.70838 0.66824 0.45537 0.0
C2837 C 0.71971 0.65264 0.45789 0.0
C2838 C 0.70988 0.67855 0.43908 0.0
C2839 C 0.72282 0.67354 0.42505 0.0
C2840 C 0.73436 0.6581 0.42764 0.0
H2841 H 0.76404 0.74386 0.33674 0.0
H2842 H 0.75843 0.72865 0.36651 0.0
C2843 C 0.73268 0.6476 0.44385 0.0
C2844 C 0.72444 0.68481 0.40796 0.0
H2845 H 0.72259 0.68226 0.36017 0.0
C2846 C 0.72805 0.70394 0.41009 0.0
C2847 C 0.72193 0.67698 0.38976 0.0
C2848 C 0.71675 0.65678 0.38655 0.0
C2849 C 0.7295 0.71543 0.39449 0.0
C2850 C 0.72783 0.70745 0.37626 0.0
C2851 C 0.72396 0.68836 0.37416 0.0
C2852 C 0.73038 0.71844 0.35909 0.0
C2853 C 0.73246 0.73601 0.39775 0.0
C2854 C 0.71651 0.71775 0.34496 0.0
C2855 C 0.71982 0.72616 0.32778 0.0
C2856 C 0.73704 0.73552 0.32446 0.0
C2857 C 0.75055 0.73694 0.33894 0.0
C2858 C 0.74733 0.7283 0.35602 0.0
H2859 H 0.72722 0.7405 0.41178 0.0
H2860 H 0.74782 0.73934 0.39719 0.0
H2861 H 0.72517 0.74412 0.38689 0.0
H2862 H 0.70333 0.71022 0.34703 0.0
H2863 H 0.70913 0.72485 0.31692 0.0
H2864 H 0.60633 0.51492 0.80148 0.0
H2865 H 0.59209 0.51319 0.83268 0.0
H2866 H 0.57065 0.56849 0.82705 0.0
H2867 H 0.58425 0.57006 0.79561 0.0
H2868 H 0.59347 0.5331 0.86591 0.0
H2869 H 0.52265 0.53775 0.83257 0.0
H2870 H 0.54398 0.53478 0.8191 0.0
H2871 H 0.53793 0.55731 0.82836 0.0
C2872 C 0.59888 0.52683 0.80704 0.0
C2873 C 0.59607 0.54248 0.79602 0.0
C2874 C 0.59075 0.52583 0.82485 0.0
C2875 C 0.5799 0.54052 0.83191 0.0
C2876 C 0.57852 0.5568 0.8216 0.0
H2877 H 0.53001 0.5388 0.94451 0.0
H2878 H 0.54854 0.54782 0.91712 0.0
C2879 C 0.58636 0.5577 0.8037 0.0
C2880 C 0.56873 0.53816 0.84924 0.0
H2881 H 0.52342 0.5364 0.86554 0.0
C2882 C 0.57816 0.53389 0.8659 0.0
C2883 C 0.54873 0.53893 0.84903 0.0
C2884 C 0.53768 0.54226 0.83129 0.0
C2885 C 0.56809 0.5302 0.88239 0.0
C2886 C 0.54811 0.53127 0.88223 0.0
C2887 C 0.53874 0.53577 0.86563 0.0
C2888 C 0.5365 0.5265 0.89872 0.0
C2889 C 0.57886 0.5245 0.89959 0.0
C2890 C 0.52305 0.51204 0.8972 0.0
C2891 C 0.51222 0.50707 0.91268 0.0
C2892 C 0.51471 0.51642 0.93002 0.0
C2893 C 0.52787 0.53122 0.93139 0.0
C2894 C 0.53858 0.5363 0.91581 0.0
H2895 H 0.59341 0.51998 0.89607 0.0
H2896 H 0.58005 0.53649 0.90954 0.0
H2897 H 0.5714 0.51302 0.90681 0.0
H2898 H 0.52116 0.50437 0.88409 0.0
H2899 H 0.50224 0.4956 0.91114 0.0
H2900 H 0.75042 0.34621 0.06755 0.0
H2901 H 0.74874 0.3169 0.08399 0.0
H2902 H 0.73875 0.2875 0.03151 0.0
H2903 H 0.74008 0.31687 0.01495 0.0
H2904 H 0.71266 0.27869 0.05726 0.0
H2905 H 0.78341 0.27335 0.08908 0.0
H2906 H 0.77388 0.2958 0.09404 0.0
H2907 H 0.77867 0.28886 0.0701 0.0
C2908 C 0.74823 0.33349 0.05946 0.0
C2909 C 0.74531 0.33385 0.03999 0.0
C2910 C 0.74742 0.31671 0.06885 0.0
C2911 C 0.74391 0.29998 0.05892 0.0
C2912 C 0.74162 0.30024 0.03939 0.0
H2913 H 0.73778 0.2141 0.1428 0.0
H2914 H 0.74399 0.22462 0.11095 0.0
C2915 C 0.74237 0.31703 0.02998 0.0
C2916 C 0.74046 0.28274 0.06934 0.0
H2917 H 0.75742 0.25884 0.10631 0.0
C2918 C 0.72264 0.27399 0.06765 0.0
C2919 C 0.75362 0.27622 0.08251 0.0
C2920 C 0.77354 0.28394 0.08388 0.0
C2921 C 0.71696 0.2602 0.08012 0.0
C2922 C 0.72929 0.25537 0.0948 0.0
C2923 C 0.74781 0.26272 0.09522 0.0
C2924 C 0.72245 0.2456 0.11159 0.0
C2925 C 0.69749 0.25158 0.07797 0.0
C2926 C 0.70778 0.25341 0.12222 0.0
C2927 C 0.7042 0.24747 0.14035 0.0
C2928 C 0.71536 0.23371 0.14831 0.0
C2929 C 0.72895 0.22477 0.13709 0.0
C2930 C 0.73255 0.23077 0.11889 0.0
H2931 H 0.69334 0.25056 0.06293 0.0
H2932 H 0.69674 0.23753 0.08405 0.0
H2933 H 0.68706 0.26053 0.08523 0.0
H2934 H 0.70005 0.26514 0.11709 0.0
H2935 H 0.69355 0.25457 0.14857 0.0
H2936 H 0.86054 0.4811 0.30051 0.0
H2937 H 0.87288 0.48089 0.33258 0.0
H2938 H 0.92114 0.44995 0.31358 0.0
H2939 H 0.90907 0.45013 0.28145 0.0
H2940 H 0.88607 0.45107 0.35735 0.0
H2941 H 0.94192 0.50113 0.33497 0.0
H2942 H 0.92088 0.49628 0.32123 0.0
H2943 H 0.93985 0.48002 0.32121 0.0
C2944 C 0.8736 0.47394 0.30318 0.0
C2945 C 0.884 0.46591 0.28839 0.0
C2946 C 0.88058 0.47381 0.3215 0.0
C2947 C 0.89801 0.46566 0.32525 0.0
C2948 C 0.90776 0.4565 0.3108 0.0
H2949 H 0.9548 0.45451 0.43241 0.0
H2950 H 0.93978 0.44864 0.40191 0.0
C2951 C 0.90082 0.45662 0.29249 0.0
C2952 C 0.90686 0.46831 0.34384 0.0
H2953 H 0.94329 0.49106 0.3662 0.0
C2954 C 0.89861 0.45974 0.35935 0.0
C2955 C 0.92302 0.47989 0.34628 0.0
C2956 C 0.93191 0.49001 0.3301 0.0
C2957 C 0.90631 0.46234 0.37738 0.0
C2958 C 0.92268 0.47365 0.37974 0.0
C2959 C 0.9308 0.48231 0.36423 0.0
C2960 C 0.93144 0.47707 0.39827 0.0
C2961 C 0.89671 0.45331 0.39381 0.0
C2962 C 0.93204 0.49508 0.40601 0.0
C2963 C 0.94068 0.49854 0.42335 0.0
C2964 C 0.94897 0.48402 0.43318 0.0
C2965 C 0.94851 0.466 0.42523 0.0
C2966 C 0.93983 0.46257 0.40789 0.0
H2967 H 0.88215 0.44838 0.39024 0.0
H2968 H 0.90502 0.44117 0.39811 0.0
H2969 H 0.896 0.46311 0.406 0.0
H2970 H 0.92573 0.50645 0.39865 0.0
H2971 H 0.94081 0.51257 0.42906 0.0
H2972 H 0.70809 0.64597 0.5906 0.0
H2973 H 0.718 0.67209 0.61102 0.0
H2974 H 0.734 0.70346 0.56256 0.0
H2975 H 0.72419 0.67761 0.54205 0.0
H2976 H 0.76276 0.70057 0.59107 0.0
H2977 H 0.69364 0.72399 0.61917 0.0
H2978 H 0.69772 0.6995 0.62051 0.0
H2979 H 0.69561 0.70998 0.59797 0.0
C2980 C 0.7134 0.65854 0.58427 0.0
C2981 C 0.7154 0.65967 0.5647 0.0
C2982 C 0.71904 0.67343 0.59595 0.0
C2983 C 0.72668 0.68964 0.58823 0.0
C2984 C 0.72814 0.69103 0.56873 0.0
H2985 H 0.74877 0.7887 0.65606 0.0
H2986 H 0.74279 0.76905 0.62835 0.0
C2987 C 0.72247 0.67623 0.55706 0.0
C2988 C 0.73417 0.70477 0.60049 0.0
H2989 H 0.72127 0.73653 0.6339 0.0
C2990 C 0.75371 0.70857 0.60034 0.0
C2991 C 0.72226 0.71525 0.61234 0.0
C2992 C 0.70111 0.71214 0.61247 0.0
C2993 C 0.76175 0.72227 0.61226 0.0
C2994 C 0.74992 0.73226 0.62464 0.0
C2995 C 0.73031 0.72883 0.62434 0.0
C2996 C 0.7575 0.7454 0.63902 0.0
C2997 C 0.78281 0.72586 0.61162 0.0
C2998 C 0.76853 0.73884 0.65378 0.0
C2999 C 0.77199 0.75002 0.66967 0.0
C3000 C 0.76431 0.76788 0.67109 0.0
C3001 C 0.75481 0.77499 0.6555 0.0
C3002 C 0.75131 0.76377 0.63964 0.0
H3003 H 0.78899 0.72096 0.59812 0.0
H3004 H 0.78615 0.74087 0.61362 0.0
H3005 H 0.78969 0.71828 0.62312 0.0
H3006 H 0.77325 0.72462 0.65365 0.0
H3007 H 0.77944 0.74413 0.68137 0.0
H3008 H 0.6819 0.56533 0.49087 0.0
H3009 H 0.65538 0.54386 0.48507 0.0
H3010 H 0.61762 0.5827 0.51188 0.0
H3011 H 0.64397 0.60472 0.51651 0.0
H3012 H 0.63439 0.52608 0.50724 0.0
H3013 H 0.58737 0.5707 0.46672 0.0
H3014 H 0.61146 0.57742 0.47211 0.0
H3015 H 0.59285 0.58157 0.48891 0.0
C3016 C 0.66786 0.56934 0.4953 0.0
C3017 C 0.66487 0.58667 0.50402 0.0
C3018 C 0.65273 0.55707 0.49201 0.0
C3019 C 0.63439 0.56176 0.49771 0.0
C3020 C 0.63148 0.579 0.50672 0.0
H3021 H 0.54484 0.48563 0.52512 0.0
H3022 H 0.57467 0.50295 0.52316 0.0
C3023 C 0.64655 0.59152 0.50954 0.0
C3024 C 0.61856 0.54821 0.49509 0.0
H3025 H 0.57256 0.54428 0.48106 0.0
C3026 C 0.62096 0.53 0.50123 0.0
C3027 C 0.60116 0.55308 0.48682 0.0
C3028 C 0.59816 0.5717 0.47807 0.0
C3029 C 0.60626 0.51676 0.49997 0.0
C3030 C 0.58835 0.52213 0.49325 0.0
C3031 C 0.58618 0.54014 0.48647 0.0
C3032 C 0.57141 0.50975 0.49383 0.0
C3033 C 0.61025 0.49716 0.50567 0.0
C3034 C 0.55941 0.50798 0.47814 0.0
C3035 C 0.54203 0.49869 0.47949 0.0
C3036 C 0.53656 0.49061 0.49641 0.0
C3037 C 0.54893 0.49148 0.51182 0.0
C3038 C 0.56606 0.50128 0.51065 0.0
H3039 H 0.62531 0.4937 0.50317 0.0
H3040 H 0.60757 0.49583 0.52093 0.0
H3041 H 0.60121 0.4869 0.49788 0.0
H3042 H 0.56319 0.51436 0.46501 0.0
H3043 H 0.53266 0.49817 0.46743 0.0
H3044 H 0.20425 0.92532 0.54073 0.0
H3045 H 0.17634 0.94313 0.54929 0.0
H3046 H 0.14114 0.89428 0.54097 0.0
H3047 H 0.16901 0.87631 0.53258 0.0
H3048 H 0.14789 0.94703 0.52325 0.0
H3049 H 0.11887 0.91798 0.58872 0.0
H3050 H 0.14304 0.91455 0.58135 0.0
H3051 H 0.1242 0.9006 0.57121 0.0
C3052 C 0.1906 0.91826 0.54111 0.0
C3053 C 0.18875 0.89945 0.53578 0.0
C3054 C 0.17472 0.92846 0.54609 0.0
C3055 C 0.15675 0.91998 0.54596 0.0
C3056 C 0.15496 0.90098 0.54156 0.0
H3057 H 0.04252 0.94384 0.52971 0.0
H3058 H 0.07289 0.93158 0.53929 0.0
C3059 C 0.17085 0.89074 0.53658 0.0
C3060 C 0.1397 0.93148 0.54745 0.0
H3061 H 0.0973 0.93527 0.56984 0.0
C3062 C 0.13697 0.94478 0.53368 0.0
C3063 C 0.12552 0.92836 0.56102 0.0
C3064 C 0.12809 0.91471 0.57653 0.0
C3065 C 0.11995 0.9543 0.53235 0.0
C3066 C 0.10545 0.95075 0.54553 0.0
C3067 C 0.10849 0.93802 0.55983 0.0
C3068 C 0.08639 0.9585 0.54321 0.0
C3069 C 0.11723 0.96716 0.51612 0.0
C3070 C 0.08373 0.97773 0.54301 0.0
C3071 C 0.06644 0.98482 0.53724 0.0
C3072 C 0.05149 0.97275 0.53187 0.0
C3073 C 0.05378 0.95352 0.53359 0.0
C3074 C 0.07111 0.94647 0.53915 0.0
H3075 H 0.1283 0.96541 0.50521 0.0
H3076 H 0.10318 0.96475 0.50944 0.0
H3077 H 0.11796 0.98175 0.52136 0.0
H3078 H 0.09527 0.98723 0.54651 0.0
H3079 H 0.06501 -0.00029 0.53635 0.0
H3080 H 0.34728 0.93868 0.69072 0.0
H3081 H 0.33171 0.90922 0.68183 0.0
H3082 H 0.29169 0.91684 0.7269 0.0
H3083 H 0.3065 0.94639 0.73524 0.0
H3084 H 0.33096 0.88022 0.70169 0.0
H3085 H 0.2567 0.89648 0.68834 0.0
H3086 H 0.27486 0.91435 0.68928 0.0
H3087 H 0.26312 0.90701 0.71043 0.0
C3088 C 0.33486 0.93425 0.69841 0.0
C3089 C 0.32816 0.94482 0.71373 0.0
C3090 C 0.32596 0.91745 0.69329 0.0
C3091 C 0.3103 0.91092 0.70347 0.0
C3092 C 0.30329 0.92181 0.71837 0.0
H3093 H 0.28872 0.80744 0.74798 0.0
H3094 H 0.30057 0.83709 0.73666 0.0
C3095 C 0.31196 0.93866 0.72329 0.0
C3096 C 0.30297 0.89172 0.70064 0.0
H3097 H 0.26208 0.86628 0.70328 0.0
C3098 C 0.31589 0.87716 0.70148 0.0
C3099 C 0.28336 0.88755 0.69981 0.0
C3100 C 0.2688 0.90224 0.69668 0.0
C3101 C 0.30968 0.85878 0.70341 0.0
C3102 C 0.29009 0.85499 0.70525 0.0
C3103 C 0.27714 0.86925 0.70248 0.0
C3104 C 0.2829 0.83686 0.71177 0.0
C3105 C 0.32424 0.84372 0.70398 0.0
C3106 C 0.26837 0.8273 0.70205 0.0
C3107 C 0.2612 0.81056 0.70879 0.0
C3108 C 0.26854 0.80307 0.72531 0.0
C3109 C 0.28294 0.81277 0.73511 0.0
C3110 C 0.28987 0.82961 0.72853 0.0
H3111 H 0.3367 0.84732 0.69522 0.0
H3112 H 0.32932 0.84229 0.71861 0.0
H3113 H 0.31832 0.83016 0.69896 0.0
H3114 H 0.26264 0.83274 0.6892 0.0
H3115 H 0.25014 0.80333 0.70089 0.0
H3116 H 0.27591 0.10406 -0.00497 0.0
H3117 H 0.30746 0.09044 -0.00525 0.0
H3118 H 0.29342 0.05946 0.04406 0.0
H3119 H 0.26194 0.07274 0.04442 0.0
H3120 H 0.33569 0.09138 0.02384 0.0
H3121 H 0.31096 0.01972 0.00573 0.0
H3122 H 0.29628 0.03972 0.0028 0.0
H3123 H 0.29946 0.03017 0.02566 0.0
C3124 C 0.27953 0.09434 0.0058 0.0
C3125 C 0.26636 0.08938 0.01965 0.0
C3126 C 0.29754 0.08661 0.00563 0.0
C3127 C 0.30256 0.07377 0.01922 0.0
C3128 C 0.28963 0.0691 0.03326 0.0
H3129 H 0.40259 0.00813 0.03838 0.0
H3130 H 0.37218 0.0237 0.04165 0.0
C3131 C 0.27167 0.07677 0.03345 0.0
C3132 C 0.32136 0.0652 0.0188 0.0
H3133 H 0.34329 0.02361 0.01385 0.0
C3134 C 0.33741 0.07658 0.0216 0.0
C3135 C 0.32343 0.04588 0.01595 0.0
C3136 C 0.30665 0.03314 0.0122 0.0
C3137 C 0.35558 0.06908 0.02183 0.0
C3138 C 0.35764 0.04978 0.01891 0.0
C3139 C 0.34158 0.03839 0.01621 0.0
C3140 C 0.37639 0.04118 0.01765 0.0
C3141 C 0.37239 0.0818 0.02542 0.0
C3142 C 0.38864 0.04583 0.00302 0.0
C3143 C 0.40592 0.03698 0.00107 0.0
C3144 C 0.41123 0.02323 0.01369 0.0
C3145 C 0.39894 0.01868 0.02845 0.0
C3146 C 0.38159 0.02754 0.03035 0.0
H3147 H 0.36816 0.09507 0.03229 0.0
H3148 H 0.38304 0.07507 0.03438 0.0
H3149 H 0.37918 0.0851 0.01184 0.0
H3150 H 0.38467 0.05606 -0.00713 0.0
H3151 H 0.41502 0.04082 -0.01048 0.0
H3152 H 0.67498 0.57184 0.74414 0.0
H3153 H 0.69436 0.60026 0.74619 0.0
H3154 H 0.65214 0.62929 0.715 0.0
H3155 H 0.63275 0.60106 0.71276 0.0
H3156 H 0.69095 0.63695 0.70444 0.0
H3157 H 0.67768 0.64422 0.78123 0.0
H3158 H 0.68709 0.62252 0.77298 0.0
H3159 H 0.66368 0.62894 0.76619 0.0
C3160 C 0.66995 0.58419 0.73747 0.0
C3161 C 0.65222 0.58423 0.72845 0.0
C3162 C 0.68099 0.60042 0.73875 0.0
C3163 C 0.6745 0.61688 0.731 0.0
C3164 C 0.65732 0.61672 0.72115 0.0
H3165 H 0.69441 0.73267 0.75067 0.0
H3166 H 0.68268 0.70062 0.74866 0.0
C3167 C 0.64625 0.60056 0.71992 0.0
C3168 C 0.68497 0.63459 0.73389 0.0
H3169 H 0.69584 0.66776 0.7672 0.0
C3170 C 0.69224 0.64363 0.71817 0.0
C3171 C 0.68635 0.64328 0.75182 0.0
C3172 C 0.6782 0.63438 0.76906 0.0
C3173 C 0.70066 0.66133 0.71986 0.0
C3174 C 0.70193 0.67006 0.73777 0.0
C3175 C 0.6949 0.66092 0.75353 0.0
C3176 C 0.70953 0.68916 0.74023 0.0
C3177 C 0.7075 0.67084 0.70241 0.0
C3178 C 0.72861 0.69318 0.73661 0.0
C3179 C 0.73538 0.71146 0.73777 0.0
C3180 C 0.72316 0.72604 0.74259 0.0
C3181 C 0.70419 0.72181 0.74685 0.0
C3182 C 0.69746 0.70352 0.74573 0.0
H3183 H 0.70234 0.66367 0.68939 0.0
H3184 H 0.70279 0.68545 0.70234 0.0
H3185 H 0.7232 0.67095 0.7022 0.0
H3186 H 0.73819 0.68221 0.73261 0.0
H3187 H 0.7501 0.71418 0.73447 0.0
H3188 H 0.80316 0.39703 0.0202 0.0
H3189 H 0.8369 0.40496 0.02225 0.0
H3190 H 0.82622 0.45811 -0.00195 0.0
H3191 H 0.79256 0.45036 -0.00419 0.0
H3192 H 0.85708 0.43764 0.98166 0.0
H3193 H 0.86091 0.444 0.05959 0.0
H3194 H 0.85051 0.42294 0.05 0.0
H3195 H 0.8388 0.44457 0.04691 0.0
C3196 C 0.80797 0.41043 0.01535 0.0
C3197 C 0.79516 0.42309 0.0079 0.0
C3198 C 0.82723 0.41493 0.01659 0.0
C3199 C 0.83392 0.43215 0.01043 0.0
C3200 C 0.82124 0.44475 0.00289 0.0
H3201 H 0.93442 0.49637 0.02883 0.0
H3202 H 0.9026 0.48298 0.02667 0.0
C3203 C 0.80202 0.4403 0.00168 0.0
C3204 C 0.85418 0.43715 0.01171 0.0
H3205 H 0.88923 0.44882 0.04288 0.0
C3206 C 0.8642 0.43995 -0.00498 0.0
C3207 C 0.86325 0.44025 0.02919 0.0
C3208 C 0.85285 0.43794 0.04749 0.0
C3209 C 0.88311 0.44607 -0.00465 0.0
C3210 C 0.89215 0.44927 0.01283 0.0
C3211 C 0.8822 0.44621 0.02953 0.0
C3212 C 0.91153 0.45701 0.01411 0.0
C3213 C 0.89309 0.4497 0.97706 0.0
C3214 C 0.92703 0.44673 0.00783 0.0
C3215 C 0.94529 0.45434 0.00902 0.0
C3216 C 0.94828 0.47234 0.01654 0.0
C3217 C 0.93265 0.48251 0.0229 0.0
C3218 C 0.91445 0.47488 0.02174 0.0
H3219 H 0.88313 0.44961 0.96498 0.0
H3220 H 0.90068 0.46329 0.97772 0.0
H3221 H 0.90371 0.43879 0.97446 0.0
H3222 H 0.925 0.43282 0.0021 0.0
H3223 H 0.95703 0.44611 0.00407 0.0
H3224 H 0.31549 0.05226 0.78631 0.0
H3225 H 0.29416 0.07836 0.78733 0.0
H3226 H 0.25296 0.04673 0.75482 0.0
H3227 H 0.27451 0.02058 0.75336 0.0
H3228 H 0.26371 0.0768 0.7372 0.0
H3229 H 0.24634 0.09791 0.80966 0.0
H3230 H 0.27122 0.09389 0.80802 0.0
H3231 H 0.2547 0.07495 0.80379 0.0
C3232 C 0.30161 0.05058 0.77997 0.0
C3233 C 0.29683 0.03452 0.76944 0.0
C3234 C 0.28931 0.0655 0.78072 0.0
C3235 C 0.27191 0.06451 0.77118 0.0
C3236 C 0.2663 0.04778 0.76229 0.0
H3237 H 0.227 0.17698 0.75986 0.0
H3238 H 0.22526 0.14342 0.76431 0.0
C3239 C 0.27866 0.03286 0.76146 0.0
C3240 C 0.26196 0.0819 0.76711 0.0
H3241 H 0.25055 0.12346 0.78735 0.0
C3242 C 0.26023 0.08679 0.7482 0.0
C3243 C 0.25716 0.09489 0.78136 0.0
C3244 C 0.25727 0.09001 0.80183 0.0
C3245 C 0.25571 0.10487 0.74325 0.0
C3246 C 0.25313 0.11839 0.75756 0.0
C3247 C 0.25292 0.11309 0.7764 0.0
C3248 C 0.25325 0.13834 0.75338 0.0
C3249 C 0.25475 0.10959 0.72275 0.0
C3250 C 0.26956 0.1465 0.74573 0.0
C3251 C 0.27068 0.1656 0.74326 0.0
C3252 C 0.25548 0.17691 0.74842 0.0
C3253 C 0.23893 0.16863 0.75565 0.0
C3254 C 0.23789 0.14949 0.75825 0.0
H3255 H 0.25089 0.0972 0.71396 0.0
H3256 H 0.24432 0.12063 0.72027 0.0
H3257 H 0.26886 0.11465 0.71812 0.0
H3258 H 0.28169 0.13812 0.7422 0.0
H3259 H 0.28361 0.17152 0.73768 0.0
H3260 H 0.14704 0.94802 0.26577 0.0
H3261 H 0.15748 0.91675 0.25781 0.0
H3262 H 0.19831 0.9391 0.21912 0.0
H3263 H 0.18775 0.97054 0.22684 0.0
H3264 H 0.17612 0.91036 0.20358 0.0
H3265 H 0.20573 0.89032 0.27211 0.0
H3266 H 0.18218 0.89905 0.27409 0.0
H3267 H 0.20106 0.91412 0.26649 0.0
C3268 C 0.15846 0.94634 0.2558 0.0
C3269 C 0.1666 0.96176 0.24698 0.0
C3270 C 0.16444 0.92845 0.2513 0.0
C3271 C 0.17879 0.92563 0.23801 0.0
C3272 C 0.18726 0.941 0.22946 0.0
H3273 H 0.22493 0.81943 0.20024 0.0
H3274 H 0.21788 0.85259 0.20117 0.0
C3275 C 0.18127 0.95894 0.23396 0.0
C3276 C 0.18413 0.90654 0.23242 0.0
H3277 H 0.19834 0.86551 0.25032 0.0
C3278 C 0.18125 0.9006 0.21371 0.0
C3279 C 0.1909 0.89389 0.24566 0.0
C3280 C 0.19534 0.8997 0.26566 0.0
C3281 C 0.18415 0.88206 0.20811 0.0
C3282 C 0.19006 0.8693 0.22158 0.0
C3283 C 0.19357 0.87537 0.24009 0.0
C3284 C 0.19212 0.84935 0.21715 0.0
C3285 C 0.18024 0.876 0.1881 0.0
C3286 C 0.17953 0.8366 0.22516 0.0
C3287 C 0.18346 0.81772 0.22464 0.0
C3288 C 0.20017 0.81127 0.21623 0.0
C3289 C 0.21191 0.82392 0.20677 0.0
C3290 C 0.20795 0.84289 0.20732 0.0
H3291 H 0.1742 0.8873 0.17969 0.0
H3292 H 0.19359 0.87145 0.18141 0.0
H3293 H 0.17025 0.86396 0.18779 0.0
H3294 H 0.16722 0.84138 0.23278 0.0
H3295 H 0.17404 0.80833 0.23194 0.0
H3296 H 0.52313 0.30395 0.36657 0.0
H3297 H 0.51838 0.32959 0.38915 0.0
H3298 H 0.51699 0.29072 0.43442 0.0
H3299 H 0.5209 0.26519 0.412 0.0
H3300 H 0.48815 0.31263 0.43665 0.0
H3301 H 0.55286 0.35541 0.42643 0.0
H3302 H 0.54009 0.35133 0.40494 0.0
H3303 H 0.55034 0.33213 0.41688 0.0
C3304 C 0.52198 0.30098 0.38137 0.0
C3305 C 0.52218 0.28262 0.38754 0.0
C3306 C 0.51944 0.31561 0.39426 0.0
C3307 C 0.51756 0.31207 0.41351 0.0
C3308 C 0.51838 0.29377 0.41966 0.0
H3309 H 0.51186 0.40157 0.49811 0.0
H3310 H 0.52157 0.37354 0.48093 0.0
C3311 C 0.52055 0.2792 0.40681 0.0
C3312 C 0.51317 0.3271 0.42715 0.0
H3313 H 0.52751 0.36989 0.44326 0.0
C3314 C 0.4969 0.32506 0.43823 0.0
C3315 C 0.52475 0.34315 0.42946 0.0
C3316 C 0.54309 0.34557 0.41894 0.0
C3317 C 0.49156 0.33886 0.45115 0.0
C3318 C 0.50246 0.35541 0.45258 0.0
C3319 C 0.51909 0.35723 0.442 0.0
C3320 C 0.49615 0.37144 0.46401 0.0
C3321 C 0.4743 0.33554 0.46313 0.0
C3322 C 0.47864 0.37941 0.46022 0.0
C3323 C 0.47298 0.39522 0.47008 0.0
C3324 C 0.48488 0.40359 0.48373 0.0
C3325 C 0.50234 0.39542 0.48773 0.0
C3326 C 0.50794 0.37947 0.47789 0.0
H3327 H 0.47161 0.32048 0.46506 0.0
H3328 H 0.47581 0.34238 0.47716 0.0
H3329 H 0.46173 0.34125 0.45606 0.0
H3330 H 0.46953 0.37369 0.44925 0.0
H3331 H 0.45951 0.40119 0.46652 0.0
H3332 H 0.44915 0.78133 0.17127 0.0
H3333 H 0.42071 0.79462 0.18517 0.0
H3334 H 0.40397 0.7405 0.20469 0.0
H3335 H 0.43313 0.72751 0.19199 0.0
H3336 H 0.3868 0.78997 0.17703 0.0
H3337 H 0.39273 0.76917 0.25048 0.0
H3338 H 0.4122 0.76684 0.23434 0.0
H3339 H 0.39434 0.74875 0.23594 0.0
C3340 C 0.43947 0.77236 0.17878 0.0
C3341 C 0.44325 0.75343 0.18066 0.0
C3342 C 0.42326 0.77996 0.18673 0.0
C3343 C 0.41033 0.76868 0.19635 0.0
C3344 C 0.41405 0.74968 0.19802 0.0
H3345 H 0.29319 0.77071 0.19645 0.0
H3346 H 0.3265 0.77431 0.18918 0.0
C3347 C 0.43058 0.74219 0.19057 0.0
C3348 C 0.39219 0.77637 0.20319 0.0
H3349 H 0.36044 0.77308 0.23887 0.0
C3350 C 0.38124 0.78664 0.19075 0.0
C3351 C 0.38507 0.77275 0.22131 0.0
C3352 C 0.39687 0.76398 0.23631 0.0
C3353 C 0.36285 0.79201 0.19537 0.0
C3354 C 0.35484 0.78613 0.21247 0.0
C3355 C 0.36633 0.77726 0.22554 0.0
C3356 C 0.33422 0.78684 0.21609 0.0
C3357 C 0.35217 0.80367 0.18169 0.0
C3358 C 0.32731 0.79244 0.23376 0.0
C3359 C 0.30823 0.78977 0.23819 0.0
C3360 C 0.29572 0.78173 0.22491 0.0
C3361 C 0.30242 0.77718 0.2069 0.0
C3362 C 0.32152 0.77941 0.20265 0.0
H3363 H 0.36193 0.81353 0.17464 0.0
H3364 H 0.3458 0.79453 0.17059 0.0
H3365 H 0.3408 0.81168 0.18868 0.0
H3366 H 0.33683 0.79814 0.2444 0.0
H3367 H 0.3034 0.79343 0.25218 0.0
H3368 H 0.97822 0.67397 0.88657 0.0
H3369 H 0.97383 0.64545 0.90407 0.0
H3370 H 0.97558 0.67701 0.95614 0.0
H3371 H 0.98048 0.70552 0.93877 0.0
H3372 H 0.00141 0.65048 0.95512 0.0
H3373 H 0.9322 0.62013 0.93341 0.0
H3374 H 0.94676 0.62596 0.91374 0.0
H3375 H 0.93864 0.64405 0.92937 0.0
C3376 C 0.97723 0.67487 0.90173 0.0
C3377 C 0.97991 0.69192 0.91133 0.0
C3378 C 0.97455 0.65858 0.9117 0.0
C3379 C 0.97421 0.65914 0.9314 0.0
C3380 C 0.97575 0.6763 0.94094 0.0
H3381 H 0.9681 0.56231 0.00325 0.0
H3382 H 0.96024 0.59094 0.98727 0.0
C3383 C 0.9786 0.69255 0.931 0.0
C3384 C 0.97515 0.64178 0.94201 0.0
H3385 H 0.95429 0.59921 0.94733 0.0
C3386 C -0.00906 0.63939 0.95361 0.0
C3387 C 0.96144 0.62737 0.94011 0.0
C3388 C 0.94371 0.62956 0.92863 0.0
C3389 C -0.00623 0.62275 0.96286 0.0
C3390 C 0.98065 0.60798 0.96011 0.0
C3391 C 0.96444 0.61053 0.94913 0.0
C3392 C 0.98399 0.5897 0.96825 0.0
C3393 C 0.01089 0.62104 0.97536 0.0
C3394 C -0.00038 0.57937 0.9624 0.0
C3395 C 0.00421 0.56312 0.9715 0.0
C3396 C -0.00682 0.55688 0.98657 0.0
C3397 C 0.97695 0.56681 -0.00823 0.0
C3398 C 0.97239 0.58312 0.98265 0.0
H3399 H 0.01681 0.63484 0.97968 0.0
H3400 H 0.00735 0.61319 0.98816 0.0
H3401 H 0.02205 0.61342 0.96762 0.0
H3402 H 0.00857 0.58418 0.95111 0.0
H3403 H 0.01668 0.55572 0.96699 0.0
H3404 H 0.0704 0.26826 0.61727 0.0
H3405 H 0.10307 0.26874 0.62889 0.0
H3406 H 0.08278 0.27512 0.68565 0.0
H3407 H 0.05022 0.27486 0.67423 0.0
H3408 H 0.11466 0.29797 0.67696 0.0
H3409 H 0.12429 0.22369 0.65686 0.0
H3410 H 0.11702 0.23876 0.63848 0.0
H3411 H 0.10132 0.23424 0.65767 0.0
C3412 C 0.07293 0.26996 0.6322 0.0
C3413 C 0.05777 0.27133 0.64487 0.0
C3414 C 0.09156 0.27016 0.6388 0.0
C3415 C 0.09523 0.27171 0.65812 0.0
C3416 C 0.08017 0.27387 0.67069 0.0
H3417 H 0.18422 0.23765 0.72935 0.0
H3418 H 0.1552 0.24272 0.71166 0.0
C3419 C 0.0616 0.27366 0.66414 0.0
C3420 C 0.11461 0.27012 0.66555 0.0
H3421 H 0.14968 0.23897 0.67225 0.0
C3422 C 0.12246 0.28517 0.67578 0.0
C3423 C 0.12453 0.25328 0.66411 0.0
C3424 C 0.11638 0.23648 0.65382 0.0
C3425 C 0.1399 0.2837 0.68499 0.0
C3426 C 0.14973 0.26681 0.68368 0.0
C3427 C 0.14207 0.2519 0.67311 0.0
C3428 C 0.16742 0.2639 0.69415 0.0
C3429 C 0.14731 0.29994 0.69665 0.0
C3430 C 0.18387 0.27407 0.69 0.0
C3431 C 0.20048 0.27126 0.7001 0.0
C3432 C 0.2009 0.25815 0.71446 0.0
C3433 C 0.18438 0.24788 0.71843 0.0
C3434 C 0.1678 0.25072 0.70832 0.0
H3435 H 0.13633 0.31057 0.69911 0.0
H3436 H 0.15257 0.29525 0.71043 0.0
H3437 H 0.15933 0.3066 0.68923 0.0
H3438 H 0.18388 0.2841 0.67889 0.0
H3439 H 0.21298 0.27934 0.69661 0.0
H3440 H 0.48603 0.66597 0.13611 0.0
H3441 H 0.48305 0.63888 0.11511 0.0
H3442 H 0.47646 0.67467 0.06786 0.0
H3443 H 0.47893 0.70185 0.08878 0.0
H3444 H 0.45216 0.64499 0.06615 0.0
H3445 H 0.52516 0.62201 0.08053 0.0
H3446 H 0.51104 0.62424 0.10132 0.0
H3447 H 0.51675 0.64447 0.08796 0.0
C3448 C 0.48384 0.66809 0.12126 0.0
C3449 C 0.4829 0.68608 0.11409 0.0
C3450 C 0.48225 0.6526 0.10928 0.0
C3451 C 0.47999 0.6548 0.08989 0.0
C3452 C 0.47834 0.67269 0.08277 0.0
H3453 H 0.50378 0.5675 0.00793 0.0
H3454 H 0.5033 0.5967 0.02594 0.0
C3455 C 0.47976 0.6882 0.09476 0.0
C3456 C 0.47968 0.63847 0.07698 0.0
H3457 H 0.50537 0.60098 0.06315 0.0
C3458 C 0.46381 0.63539 0.06541 0.0
C3459 C 0.49507 0.62621 0.07578 0.0
C3460 C 0.51305 0.62947 0.08691 0.0
C3461 C 0.46275 0.6201 0.05294 0.0
C3462 C 0.47778 0.60737 0.05239 0.0
C3463 C 0.49379 0.61068 0.0637 0.0
C3464 C 0.47717 0.59035 0.04042 0.0
C3465 C 0.44567 0.61792 0.0403 0.0
C3466 C 0.46262 0.57713 0.04256 0.0
C3467 C 0.46275 0.56053 0.03214 0.0
C3468 C 0.47763 0.5567 0.01964 0.0
C3469 C 0.49213 0.57002 0.01745 0.0
C3470 C 0.49188 0.58671 0.02773 0.0
H3471 H 0.43865 0.6314 0.0382 0.0
H3472 H 0.44958 0.61197 0.02637 0.0
H3473 H 0.43525 0.60842 0.04688 0.0
H3474 H 0.45142 0.5794 0.05264 0.0
H3475 H 0.45148 0.55047 0.03434 0.0
H3476 H 0.03596 0.73222 0.82336 0.0
H3477 H 0.06397 0.73798 0.80426 0.0
H3478 H 0.09814 0.74276 0.8544 0.0
H3479 H 0.07015 0.73663 0.87365 0.0
H3480 H 0.08573 0.76999 0.80572 0.0
H3481 H 0.12877 0.70829 0.82077 0.0
H3482 H 0.1039 0.70942 0.82626 0.0
H3483 H 0.12112 0.72058 0.84147 0.0
C3484 C 0.04951 0.73415 0.8303 0.0
C3485 C 0.05093 0.73399 0.84997 0.0
C3486 C 0.06545 0.73752 0.81938 0.0
C3487 C 0.08306 0.74075 0.82793 0.0
C3488 C 0.08468 0.74001 0.84754 0.0
H3489 H 0.19432 0.76881 0.79337 0.0
H3490 H 0.16378 0.76922 0.80926 0.0
C3491 C 0.06872 0.7365 0.85851 0.0
C3492 C 0.09951 0.74586 0.81634 0.0
H3493 H 0.14429 0.73302 0.80514 0.0
C3494 C 0.09852 0.76187 0.80547 0.0
C3495 C 0.11604 0.73514 0.81601 0.0
C3496 C 0.11751 0.7173 0.8266 0.0
C3497 C 0.11394 0.76771 0.79461 0.0
C3498 C 0.13058 0.75724 0.79471 0.0
C3499 C 0.13146 0.74109 0.80532 0.0
C3500 C 0.14759 0.76262 0.78417 0.0
C3501 C 0.11259 0.78517 0.78345 0.0
C3502 C 0.14834 0.75984 0.76463 0.0
C3503 C 0.16582 0.75982 0.75546 0.0
C3504 C 0.18254 0.76229 0.76591 0.0
C3505 C 0.18154 0.76687 0.7851 0.0
C3506 C 0.16416 0.76708 0.79417 0.0
H3507 H 0.09953 0.79297 0.78672 0.0
H3508 H 0.12509 0.79433 0.78628 0.0
H3509 H 0.11257 0.78153 0.76824 0.0
H3510 H 0.13565 0.75616 0.75678 0.0
H3511 H 0.16636 0.75605 0.74068 0.0
H3512 H 0.98437 0.29595 0.56883 0.0
H3513 H 0.97097 0.32249 0.55273 0.0
H3514 H 0.94449 0.34055 0.60426 0.0
H3515 H 0.95809 0.31441 0.6205 0.0
H3516 H 0.93301 0.33702 0.54858 0.0
H3517 H 0.98132 0.38311 0.5908 0.0
H3518 H 0.98402 0.3583 0.58949 0.0
H3519 H 0.96605 0.3683 0.60417 0.0
C3520 C 0.97552 0.30547 0.57664 0.0
C3521 C 0.97257 0.30336 0.59597 0.0
C3522 C 0.96781 0.32054 0.56743 0.0
C3523 C 0.957 0.33354 0.57742 0.0
C3524 C 0.95305 0.33078 0.59642 0.0
H3525 H 0.93486 0.4469 0.54772 0.0
H3526 H 0.92963 0.41701 0.56251 0.0
C3527 C 0.96087 0.31588 0.60566 0.0
C3528 C 0.95151 0.35095 0.56853 0.0
H3529 H 0.96092 0.3974 0.56981 0.0
C3530 C 0.93896 0.35028 0.55326 0.0
C3531 C 0.95935 0.36816 0.57473 0.0
C3532 C 0.97355 0.3696 0.59058 0.0
C3533 C 0.93413 0.36648 0.54387 0.0
C3534 C 0.94231 0.38361 0.54984 0.0
C3535 C 0.95447 0.38427 0.56542 0.0
C3536 C 0.94042 0.4008 0.53911 0.0
C3537 C 0.92047 0.36511 0.52762 0.0
C3538 C 0.9475 0.4015 0.52078 0.0
C3539 C 0.95048 0.41853 0.51227 0.0
C3540 C 0.94668 0.43517 0.52209 0.0
C3541 C 0.93812 0.43435 0.53985 0.0
C3542 C 0.93505 0.41728 0.5483 0.0
H3543 H 0.91079 0.35292 0.5289 0.0
H3544 H 0.91189 0.37782 0.52662 0.0
H3545 H 0.92853 0.36334 0.51438 0.0
H3546 H 0.9521 0.389 0.51357 0.0
H3547 H 0.95699 0.41865 0.49853 0.0
H3548 H 0.45849 0.22216 0.33973 0.0
H3549 H 0.42803 0.22547 0.32404 0.0
H3550 H 0.45663 0.24172 0.27339 0.0
H3551 H 0.48712 0.23895 0.28912 0.0
H3552 H 0.43066 0.26622 0.28377 0.0
H3553 H 0.39879 0.19568 0.28491 0.0
H3554 H 0.40638 0.20364 0.30775 0.0
H3555 H 0.42359 0.20008 0.2895 0.0
C3556 C 0.45831 0.22608 0.32514 0.0
C3557 C 0.4752 0.23043 0.3157 0.0
C3558 C 0.44088 0.22785 0.31615 0.0
C3559 C 0.44008 0.23365 0.29749 0.0
C3560 C 0.45695 0.23719 0.28779 0.0
H3561 H 0.33399 0.24347 0.23575 0.0
H3562 H 0.36577 0.23468 0.24539 0.0
C3563 C 0.47436 0.23562 0.29681 0.0
C3564 C 0.42173 0.23804 0.28879 0.0
H3565 H 0.37748 0.22068 0.27943 0.0
C3566 C 0.41911 0.25618 0.2826 0.0
C3567 C 0.40675 0.2249 0.28711 0.0
C3568 C 0.40906 0.20494 0.2925 0.0
C3569 C 0.40173 0.26171 0.27533 0.0
C3570 C 0.38645 0.24887 0.27464 0.0
C3571 C 0.3892 0.23055 0.28021 0.0
C3572 C 0.36736 0.25436 0.26866 0.0
C3573 C 0.39991 0.28126 0.26844 0.0
C3574 C 0.35775 0.26824 0.27867 0.0
C3575 C 0.33967 0.27338 0.27316 0.0
C3576 C 0.33079 0.26458 0.25765 0.0
C3577 C 0.34044 0.25057 0.24772 0.0
C3578 C 0.35857 0.24549 0.25322 0.0
H3579 H 0.41391 0.28739 0.26478 0.0
H3580 H 0.39055 0.2817 0.25594 0.0
H3581 H 0.39369 0.29006 0.27971 0.0
H3582 H 0.36417 0.27497 0.29088 0.0
H3583 H 0.33258 0.2841 0.28122 0.0
H3584 H 0.44448 0.49045 0.27886 0.0
H3585 H 0.44982 0.48198 0.31149 0.0
H3586 H 0.41266 0.52548 0.33014 0.0
H3587 H 0.40691 0.53381 0.29766 0.0
H3588 H 0.46429 0.50234 0.3411 0.0
H3589 H 0.39046 0.48019 0.35562 0.0
H3590 H 0.39904 0.48409 0.33217 0.0
H3591 H 0.39213 0.50334 0.34695 0.0
C3592 C 0.43747 0.49824 0.28991 0.0
C3593 C 0.42513 0.51268 0.28568 0.0
C3594 C 0.44051 0.49335 0.30851 0.0
C3595 C 0.43128 0.50284 0.32312 0.0
C3596 C 0.41949 0.51766 0.31899 0.0
H3597 H 0.4603 0.50961 0.43983 0.0
H3598 H 0.45469 0.51459 0.40656 0.0
C3599 C 0.41633 0.52247 0.30043 0.0
C3600 C 0.43421 0.4975 0.34276 0.0
H3601 H 0.41071 0.48469 0.38229 0.0
C3602 C 0.45262 0.49832 0.35008 0.0
C3603 C 0.41897 0.49195 0.35429 0.0
C3604 C 0.39907 0.48964 0.34682 0.0
C3605 C 0.45614 0.49434 0.36891 0.0
C3606 C 0.44075 0.48986 0.38071 0.0
C3607 C 0.42243 0.48839 0.37322 0.0
C3608 C 0.44334 0.48699 0.40097 0.0
C3609 C 0.4763 0.4949 0.37593 0.0
C3610 C 0.43799 0.4701 0.40895 0.0
C3611 C 0.44093 0.46727 0.42805 0.0
C3612 C 0.44928 0.48132 0.43939 0.0
C3613 C 0.45405 0.49843 0.43142 0.0
C3614 C 0.45098 0.50127 0.41239 0.0
H3615 H 0.48653 0.49301 0.36426 0.0
H3616 H 0.4793 0.50862 0.38271 0.0
H3617 H 0.4787 0.48401 0.38643 0.0
H3618 H 0.4319 0.45899 0.40033 0.0
H3619 H 0.43709 0.45395 0.4338 0.0
H3620 H 0.25303 0.60719 0.06062 0.0
H3621 H 0.25192 0.62277 0.09137 0.0
H3622 H 0.27697 0.67196 0.06788 0.0
H3623 H 0.27863 0.65642 0.03725 0.0
H3624 H 0.28899 0.66619 0.10414 0.0
H3625 H 0.21065 0.66098 0.09867 0.0
H3626 H 0.22234 0.63906 0.09789 0.0
H3627 H 0.22601 0.65523 0.07931 0.0
C3628 C 0.25875 0.62116 0.06207 0.0
C3629 C 0.26559 0.63067 0.04637 0.0
C3630 C 0.25796 0.63009 0.07963 0.0
C3631 C 0.26378 0.6487 0.08172 0.0
C3632 C 0.27219 0.65765 0.0665 0.0
H3633 H 0.24852 0.73827 0.16292 0.0
H3634 H 0.25585 0.71913 0.13516 0.0
C3635 C 0.27315 0.64871 0.04898 0.0
C3636 C 0.25963 0.65939 0.09915 0.0
H3637 H 0.22317 0.67484 0.12638 0.0
C3638 C 0.27462 0.66806 0.10904 0.0
C3639 C 0.24081 0.66198 0.10535 0.0
C3640 C 0.224 0.65399 0.09469 0.0
C3641 C 0.27129 0.67909 0.12512 0.0
C3642 C 0.25251 0.68157 0.13131 0.0
C3643 C 0.23754 0.67283 0.12154 0.0
C3644 C 0.24804 0.69319 0.14797 0.0
C3645 C 0.28784 0.6879 0.1355 0.0
C3646 C 0.24081 0.68492 0.16411 0.0
C3647 C 0.23661 0.69576 0.17995 0.0
C3648 C 0.23937 0.71513 0.17986 0.0
C3649 C 0.2462 0.72342 0.16345 0.0
C3650 C 0.25053 0.71251 0.14764 0.0
H3651 H 0.30153 0.68195 0.13095 0.0
H3652 H 0.28824 0.703 0.13282 0.0
H3653 H 0.28627 0.6861 0.15086 0.0
H3654 H 0.23865 0.67003 0.16452 0.0
H3655 H 0.23131 0.68892 0.19231 0.0
H3656 H 0.09389 0.44859 0.81105 0.0
H3657 H 0.08588 0.43883 0.84274 0.0
H3658 H 0.04507 0.48259 0.84716 0.0
H3659 H 0.05249 0.49198 0.81532 0.0
H3660 H 0.09096 0.45738 0.87392 0.0
H3661 H 0.01488 0.44096 0.86844 0.0
H3662 H 0.02957 0.44373 0.84795 0.0
H3663 H 0.01925 0.46364 0.85949 0.0
C3664 C 0.08302 0.45598 0.8187 0.0
C3665 C 0.07381 0.47107 0.81071 0.0
C3666 C 0.07842 0.45033 0.83677 0.0
C3667 C 0.0646 0.45971 0.84719 0.0
C3668 C 0.05531 0.47471 0.83917 0.0
H3669 H 0.05791 0.49642 0.95621 0.0
H3670 H 0.06704 0.48601 0.92501 0.0
C3671 C 0.05972 0.48021 0.82103 0.0
C3672 C 0.06124 0.45528 0.86711 0.0
H3673 H 0.02592 0.45204 0.89941 0.0
C3674 C 0.07676 0.45572 0.87944 0.0
C3675 C 0.04281 0.45252 0.87435 0.0
C3676 C 0.02574 0.44996 0.86178 0.0
C3677 C 0.07417 0.45531 0.8989 0.0
C3678 C 0.05558 0.45499 0.90617 0.0
C3679 C 0.04018 0.45268 0.89384 0.0
C3680 C 0.05167 0.45984 0.92603 0.0
C3681 C 0.09137 0.45593 0.91147 0.0
C3682 C 0.03972 0.44872 0.93694 0.0
C3683 C 0.03419 0.4548 0.95485 0.0
C3684 C 0.04043 0.47217 0.962 0.0
C3685 C 0.05284 0.48296 0.9512 0.0
C3686 C 0.05828 0.47692 0.93338 0.0
H3687 H 0.10339 0.44868 0.90469 0.0
H3688 H 0.09583 0.47059 0.91398 0.0
H3689 H 0.08844 0.44949 0.9252 0.0
H3690 H 0.03431 0.43557 0.93143 0.0
H3691 H 0.0246 0.44616 0.96282 0.0
H3692 H 0.23584 0.27753 0.53861 0.0
H3693 H 0.25471 0.25667 0.55784 0.0
H3694 H 0.24643 0.29261 0.60608 0.0
H3695 H 0.22778 0.31344 0.58718 0.0
H3696 H 0.28951 0.27552 0.58749 0.0
H3697 H 0.23088 0.23081 0.61361 0.0
H3698 H 0.23096 0.24036 0.59033 0.0
H3699 H 0.22564 0.2549 0.61029 0.0
C3700 C 0.23791 0.28086 0.55336 0.0
C3701 C 0.23033 0.29713 0.5614 0.0
C3702 C 0.24874 0.269 0.56424 0.0
C3703 C 0.25195 0.27325 0.58326 0.0
C3704 C 0.24408 0.28921 0.59137 0.0
H3705 H 0.29595 0.27744 0.6827 0.0
H3706 H 0.29447 0.27742 0.64868 0.0
C3707 C 0.23339 0.30105 0.58056 0.0
C3708 C 0.26364 0.26146 0.59513 0.0
H3709 H 0.25829 0.23403 0.63303 0.0
C3710 C 0.28294 0.26588 0.59708 0.0
C3711 C 0.25509 0.2487 0.60733 0.0
C3712 C 0.23451 0.24323 0.6053 0.0
C3713 C 0.29338 0.2594 0.6123 0.0
C3714 C 0.28411 0.24863 0.62598 0.0
C3715 C 0.26545 0.24239 0.62265 0.0
C3716 C 0.29138 0.24758 0.64544 0.0
C3717 C 0.31387 0.2652 0.61429 0.0
C3718 C 0.29093 0.23075 0.65505 0.0
C3719 C 0.29175 0.23077 0.67469 0.0
C3720 C 0.29271 0.24766 0.68488 0.0
C3721 C 0.29515 0.26425 0.67517 0.0
C3722 C 0.29449 0.26421 0.65564 0.0
H3723 H 0.32075 0.26574 0.6003 0.0
H3724 H 0.31476 0.27937 0.62064 0.0
H3725 H 0.3218 0.2556 0.62328 0.0
H3726 H 0.28839 0.21778 0.64748 0.0
H3727 H 0.28974 0.21779 0.68185 0.0
H3728 H 0.39123 0.55352 0.16985 0.0
H3729 H 0.40031 0.5372 0.14095 0.0
H3730 H 0.45207 0.52012 0.16711 0.0
H3731 H 0.44318 0.53641 0.19611 0.0
H3732 H 0.43408 0.53841 0.1178 0.0
H3733 H 0.4225 0.47091 0.15288 0.0
H3734 H 0.41371 0.4925 0.16241 0.0
H3735 H 0.43834 0.48721 0.16448 0.0
C3736 C 0.40477 0.5467 0.16933 0.0
C3737 C 0.41632 0.54592 0.18537 0.0
C3738 C 0.40987 0.5373 0.15285 0.0
C3739 C 0.42654 0.52706 0.15221 0.0
C3740 C 0.43891 0.52762 0.16759 0.0
H3741 H 0.47615 0.464 0.06214 0.0
H3742 H 0.46725 0.4732 0.0941 0.0
C3743 C 0.43387 0.53705 0.18406 0.0
C3744 C 0.43044 0.51504 0.13577 0.0
H3745 H 0.43275 0.46967 0.12129 0.0
C3746 C 0.43383 0.5234 0.11853 0.0
C3747 C 0.43001 0.49547 0.13691 0.0
C3748 C 0.42581 0.4859 0.15511 0.0
C3749 C 0.43695 0.51267 0.1023 0.0
C3750 C 0.43626 0.49309 0.10337 0.0
C3751 C 0.4331 0.48468 0.12063 0.0
C3752 C 0.43905 0.48147 0.08643 0.0
C3753 C 0.44103 0.52234 0.08411 0.0
C3754 C 0.42553 0.48166 0.07205 0.0
C3755 C 0.43058 0.47652 0.05382 0.0
C3756 C 0.44917 0.47105 0.04989 0.0
C3757 C 0.46173 0.46815 0.06481 0.0
C3758 C 0.45671 0.47349 0.08306 0.0
H3759 H 0.44465 0.53726 0.08642 0.0
H3760 H 0.45288 0.51561 0.07653 0.0
H3761 H 0.42833 0.52136 0.07495 0.0
H3762 H 0.41176 0.48763 0.07454 0.0
H3763 H 0.42061 0.47873 0.04254 0.0
H3764 H 0.27096 0.65623 0.9185 0.0
H3765 H 0.27934 0.68008 0.89627 0.0
H3766 H 0.28928 0.71928 0.94187 0.0
H3767 H 0.2807 0.69527 0.96445 0.0
H3768 H 0.26591 0.73275 0.91492 0.0
H3769 H 0.32882 0.70405 0.88051 0.0
H3770 H 0.31097 0.68625 0.88193 0.0
H3771 H 0.32082 0.6964 0.9032 0.0
C3772 C 0.27515 0.66984 0.92388 0.0
C3773 C 0.27511 0.67389 0.94322 0.0
C3774 C 0.28017 0.68342 0.91114 0.0
C3775 C 0.28537 0.70134 0.91743 0.0
C3776 C 0.28559 0.70545 0.93677 0.0
H3777 H 0.29429 0.75566 0.80967 0.0
H3778 H 0.30405 0.75319 0.84261 0.0
C3779 C 0.28064 0.69176 0.94961 0.0
C3780 C 0.28822 0.71596 0.90341 0.0
H3781 H 0.30698 0.72075 0.8598 0.0
C3782 C 0.27537 0.73058 0.90314 0.0
C3783 C 0.30096 0.7136 0.88832 0.0
C3784 C 0.31631 0.69933 0.88864 0.0
C3785 C 0.27316 0.74118 0.88703 0.0
C3786 C 0.28379 0.73671 0.87081 0.0
C3787 C 0.29848 0.72392 0.87207 0.0
C3788 C 0.27726 0.74173 0.85186 0.0
C3789 C 0.25852 0.75617 0.8871 0.0
C3790 C 0.25898 0.73623 0.84619 0.0
C3791 C 0.25346 0.73748 0.82753 0.0
C3792 C 0.26614 0.74415 0.81402 0.0
C3793 C 0.2842 0.75048 0.81978 0.0
C3794 C 0.28978 0.74912 0.83857 0.0
H3795 H 0.25787 0.76318 0.9011 0.0
H3796 H 0.26157 0.76671 0.87632 0.0
H3797 H 0.24438 0.74983 0.88422 0.0
H3798 H 0.24924 0.72996 0.85601 0.0
H3799 H 0.23941 0.73259 0.82359 0.0
H3800 H 0.05685 0.47025 0.71369 0.0
H3801 H 0.03974 0.47539 0.68446 0.0
H3802 H 0.09237 0.48798 0.65663 0.0
H3803 H 0.10963 0.48302 0.68586 0.0
H3804 H 0.06342 0.5146 0.65193 0.0
H3805 H 0.03791 0.44265 0.63631 0.0
H3806 H 0.03297 0.45119 0.65962 0.0
H3807 H 0.05705 0.44782 0.65249 0.0
C3808 C 0.06481 0.4739 0.7013 0.0
C3809 C 0.08458 0.47623 0.70204 0.0
C3810 C 0.05502 0.47676 0.68462 0.0
C3811 C 0.06485 0.48189 0.66842 0.0
C3812 C 0.08459 0.48397 0.66902 0.0
H3813 H 0.03509 0.50938 0.55533 0.0
H3814 H 0.05063 0.50603 0.58562 0.0
C3815 C 0.09441 0.48108 0.6857 0.0
C3816 C 0.05444 0.48593 0.65106 0.0
H3817 H 0.02574 0.46634 0.61742 0.0
C3818 C 0.05521 0.50406 0.64432 0.0
C3819 C 0.0437 0.47214 0.64132 0.0
C3820 C 0.04292 0.45231 0.64767 0.0
C3821 C 0.04534 0.50885 0.62809 0.0
C3822 C 0.03471 0.49502 0.61827 0.0
C3823 C 0.03385 0.47691 0.62508 0.0
C3824 C 0.02497 0.49878 0.60044 0.0
C3825 C 0.04616 0.52867 0.62175 0.0
C3826 C 0.00539 0.49578 0.59878 0.0
C3827 C -0.00356 0.49757 0.58145 0.0
C3828 C 0.00698 0.50226 0.56546 0.0
C3829 C 0.02653 0.5058 0.56735 0.0
C3830 C 0.03544 0.50399 0.58468 0.0
H3831 H 0.05032 0.53838 0.6334 0.0
H3832 H 0.05686 0.52997 0.61047 0.0
H3833 H 0.03229 0.53296 0.61608 0.0
H3834 H -0.00289 0.49167 0.61082 0.0
H3835 H 0.98138 0.49473 0.58049 0.0
H3836 H 0.21729 0.31162 0.46801 0.0
H3837 H 0.22477 0.30163 0.43598 0.0
H3838 H 0.20853 0.35504 0.41568 0.0
H3839 H 0.20058 0.36505 0.44763 0.0
H3840 H 0.19471 0.32632 0.39374 0.0
H3841 H 0.27142 0.31793 0.40711 0.0
H3842 H 0.25656 0.30467 0.4224 0.0
H3843 H 0.25603 0.32959 0.42355 0.0
C3844 C 0.21529 0.32126 0.45675 0.0
C3845 C 0.20847 0.33919 0.4604 0.0
C3846 C 0.21968 0.31555 0.43846 0.0
C3847 C 0.21757 0.32773 0.42354 0.0
C3848 C 0.21036 0.34548 0.42705 0.0
H3849 H 0.2678 0.3174 0.31339 0.0
H3850 H 0.25895 0.32648 0.34534 0.0
C3851 C 0.20584 0.35117 0.44532 0.0
C3852 C 0.22285 0.32198 0.40424 0.0
H3853 H 0.25982 0.30695 0.37758 0.0
C3854 C 0.20895 0.32212 0.39017 0.0
C3855 C 0.2415 0.31677 0.39962 0.0
C3856 C 0.25729 0.31739 0.41391 0.0
C3857 C 0.21316 0.31699 0.37158 0.0
C3858 C 0.23166 0.31118 0.36709 0.0
C3859 C 0.2456 0.31123 0.38112 0.0
C3860 C 0.23701 0.30543 0.34781 0.0
C3861 C 0.19787 0.31823 0.35686 0.0
C3862 C 0.22781 0.29038 0.33875 0.0
C3863 C 0.23274 0.28522 0.32044 0.0
C3864 C 0.24714 0.29488 0.31095 0.0
C3865 C 0.25664 0.30967 0.32027 0.0
C3866 C 0.25161 0.31489 0.33853 0.0
H3867 H 0.18635 0.32757 0.36149 0.0
H3868 H 0.20371 0.32335 0.34344 0.0
H3869 H 0.19157 0.30424 0.35421 0.0
H3870 H 0.21683 0.28261 0.34585 0.0
H3871 H 0.22526 0.27366 0.31373 0.0
H3872 H 0.24642 0.41398 0.51554 0.0
H3873 H 0.2784 0.42648 0.51992 0.0
H3874 H 0.29191 0.38066 0.5553 0.0
H3875 H 0.26008 0.36764 0.5504 0.0
H3876 H 0.29966 0.43772 0.54969 0.0
H3877 H 0.33126 0.3759 0.5148 0.0
H3878 H 0.30614 0.37975 0.51498 0.0
H3879 H 0.31769 0.37094 0.5354 0.0
C3880 C 0.25613 0.40661 0.52438 0.0
C3881 C 0.25084 0.38967 0.53239 0.0
C3882 C 0.27439 0.41381 0.52691 0.0
C3883 C 0.28763 0.4043 0.53763 0.0
C3884 C 0.28205 0.38795 0.54657 0.0
H3885 H 0.40134 0.45456 0.55419 0.0
H3886 H 0.3696 0.44232 0.56108 0.0
C3887 C 0.26385 0.38058 0.54381 0.0
C3888 C 0.30749 0.41103 0.53835 0.0
H3889 H 0.35219 0.39952 0.52511 0.0
C3890 C 0.31121 0.42935 0.54447 0.0
C3891 C 0.32245 0.40009 0.53135 0.0
C3892 C 0.31924 0.38064 0.5236 0.0
C3893 C 0.32941 0.43726 0.54318 0.0
C3894 C 0.34431 0.42634 0.53605 0.0
C3895 C 0.34071 0.40781 0.53063 0.0
C3896 C 0.36333 0.4342 0.53229 0.0
C3897 C 0.33231 0.45745 0.54858 0.0
C3898 C 0.37039 0.4334 0.51393 0.0
C3899 C 0.38851 0.44005 0.51003 0.0
C3900 C 0.39994 0.44777 0.52441 0.0
C3901 C 0.39279 0.44881 0.5428 0.0
C3902 C 0.37465 0.44191 0.54674 0.0
H3903 H 0.31869 0.46484 0.54985 0.0
H3904 H 0.33963 0.45849 0.56235 0.0
H3905 H 0.34125 0.46461 0.53808 0.0
H3906 H 0.36186 0.42755 0.50257 0.0
H3907 H 0.39354 0.43915 0.4957 0.0
H3908 H 0.80156 0.1056 0.45341 0.0
H3909 H 0.82945 0.09216 0.43813 0.0
H3910 H 0.82596 0.04549 0.47492 0.0
H3911 H 0.79833 0.05857 0.49006 0.0
H3912 H 0.86343 0.08418 0.45526 0.0
H3913 H 0.8328 0.02004 0.42402 0.0
H3914 H 0.81844 0.03953 0.43098 0.0
H3915 H 0.82536 0.02268 0.44794 0.0
C3916 C 0.80667 0.0924 0.45812 0.0
C3917 C 0.79771 0.08317 0.47297 0.0
C3918 C 0.82253 0.08472 0.44932 0.0
C3919 C 0.82945 0.0676 0.45506 0.0
C3920 C 0.82051 0.05843 0.46986 0.0
H3921 H 0.91417 0.00656 0.48538 0.0
H3922 H 0.88559 0.02071 0.47351 0.0
C3923 C 0.80481 0.06608 0.47867 0.0
C3924 C 0.84709 0.05987 0.44722 0.0
H3925 H 0.86579 0.01805 0.43502 0.0
C3926 C 0.864 0.06996 0.45008 0.0
C3927 C 0.84777 0.0414 0.44022 0.0
C3928 C 0.83006 0.03039 0.43542 0.0
C3929 C 0.88157 0.06131 0.44839 0.0
C3930 C 0.88209 0.04219 0.44369 0.0
C3931 C 0.86531 0.03269 0.43875 0.0
C3932 C 0.8988 0.03119 0.44842 0.0
C3933 C 0.89933 0.07209 0.45358 0.0
C3934 C 0.91552 0.03189 0.43786 0.0
C3935 C 0.93195 0.02359 0.44458 0.0
C3936 C 0.93178 0.01483 0.46203 0.0
C3937 C 0.91472 0.01335 0.47197 0.0
C3938 C 0.89838 0.02136 0.46517 0.0
H3939 H 0.89654 0.08699 0.45652 0.0
H3940 H 0.90586 0.06609 0.46623 0.0
H3941 H 0.90974 0.07104 0.44199 0.0
H3942 H 0.91604 0.03945 0.42489 0.0
H3943 H 0.94498 0.02496 0.43671 0.0
H3944 H 0.6381 0.01706 0.24342 0.0
H3945 H 0.6557 0.04529 0.23597 0.0
H3946 H 0.60392 0.07138 0.21958 0.0
H3947 H 0.58607 0.04304 0.22679 0.0
H3948 H 0.63586 0.07726 0.19469 0.0
H3949 H 0.65253 0.09245 0.2698 0.0
H3950 H 0.65892 0.06976 0.26137 0.0
H3951 H 0.63442 0.07592 0.26253 0.0
C3952 C 0.63039 0.02876 0.23821 0.0
C3953 C 0.61062 0.02786 0.2359 0.0
C3954 C 0.64051 0.04487 0.23395 0.0
C3955 C 0.63105 0.0604 0.22745 0.0
C3956 C 0.61142 0.05947 0.22463 0.0
H3957 H 0.66398 0.17414 0.23207 0.0
H3958 H 0.64843 0.14388 0.23268 0.0
C3959 C 0.60126 0.04331 0.22884 0.0
C3960 C 0.64156 0.07791 0.22439 0.0
H3961 H 0.66628 0.11227 0.24756 0.0
C3962 C 0.64258 0.08494 0.20619 0.0
C3963 C 0.65016 0.08784 0.23951 0.0
C3964 C 0.64888 0.08124 0.25944 0.0
C3965 C 0.65199 0.1018 0.20273 0.0
C3966 C 0.66063 0.11167 0.21786 0.0
C3967 C 0.65973 0.10453 0.236 0.0
C3968 C 0.66947 0.13014 0.21563 0.0
C3969 C 0.65221 0.10924 0.18311 0.0
C3970 C 0.68638 0.13244 0.20561 0.0
C3971 C 0.69541 0.14984 0.2052 0.0
C3972 C 0.68767 0.16508 0.21495 0.0
C3973 C 0.67044 0.1627 0.22453 0.0
C3974 C 0.66148 0.14542 0.22488 0.0
H3975 H 0.64238 0.10139 0.17359 0.0
H3976 H 0.64827 0.12409 0.18329 0.0
H3977 H 0.66672 0.10825 0.17731 0.0
H3978 H 0.69286 0.12069 0.19858 0.0
H3979 H 0.70866 0.15123 0.19773 0.0
H3980 H 0.64118 0.83718 0.01341 0.0
H3981 H 0.6135 0.85544 0.00515 0.0
H3982 H 0.63029 0.89762 0.04582 0.0
H3983 H 0.65796 0.87959 0.05406 0.0
H3984 H 0.58266 0.87571 0.02801 0.0
H3985 H 0.63486 0.92024 -0.00906 0.0
H3986 H 0.63995 0.89684 -0.00227 0.0
H3987 H 0.6404 0.91534 0.01496 0.0
C3988 C 0.63854 0.84998 0.02111 0.0
C3989 C 0.65177 0.85712 0.03423 0.0
C3990 C 0.62282 0.86043 0.01629 0.0
C3991 C 0.62022 0.87797 0.02463 0.0
C3992 C 0.6323 0.88418 0.0391 0.0
H3993 H 0.55367 0.97428 0.01237 0.0
H3994 H 0.57869 0.95191 0.01734 0.0
C3995 C 0.648 0.87383 0.04385 0.0
C3996 C 0.60639 0.89081 0.01684 0.0
H3997 H 0.60354 0.93136 -0.00678 0.0
C3998 C 0.58711 0.88778 0.02023 0.0
C3999 C 0.61242 0.90646 0.00667 0.0
C4000 C 0.63302 0.90992 0.00219 0.0
C4001 C 0.57365 0.9005 0.0143 0.0
C4002 C 0.57973 0.91637 0.00445 0.0
C4003 C 0.59899 0.91915 0.00072 0.0
C4004 C 0.56633 0.93078 -0.00106 0.0
C4005 C 0.55313 0.89724 0.01924 0.0
C4006 C 0.55176 0.92662 0.98613 0.0
C4007 C 0.53745 0.93936 0.98322 0.0
C4008 C 0.53755 0.95647 -0.00692 0.0
C4009 C 0.5531 0.9612 0.00463 0.0
C4010 C 0.56739 0.94842 0.00755 0.0
H4011 H 0.55136 0.88645 0.03003 0.0
H4012 H 0.54665 0.91026 0.02454 0.0
H4013 H 0.54526 0.89257 0.00648 0.0
H4014 H 0.55101 0.9132 0.97903 0.0
H4015 H 0.5258 0.93536 0.97404 0.0
H4016 H 0.38524 0.46218 0.20908 0.0
H4017 H 0.36301 0.43609 0.20731 0.0
H4018 H 0.3172 0.47246 0.22193 0.0
H4019 H 0.3395 0.49864 0.2243 0.0
H4020 H 0.31715 0.44338 0.24357 0.0
H4021 H 0.32382 0.41844 0.17023 0.0
H4022 H 0.34663 0.42034 0.18115 0.0
H4023 H 0.33283 0.44086 0.17802 0.0
C4024 C 0.3704 0.46473 0.21161 0.0
C4025 C 0.36416 0.48249 0.21693 0.0
C4026 C 0.35765 0.4498 0.21042 0.0
C4027 C 0.33838 0.45236 0.21417 0.0
C4028 C 0.332 0.47019 0.21886 0.0
H4029 H 0.26479 0.35293 0.20697 0.0
H4030 H 0.27698 0.38436 0.20163 0.0
C4031 C 0.34477 0.48513 0.22024 0.0
C4032 C 0.32542 0.4361 0.21529 0.0
H4033 H 0.31285 0.39566 0.19257 0.0
C4034 C 0.31592 0.43313 0.23226 0.0
C4035 C 0.3235 0.42286 0.20045 0.0
C4036 C 0.33209 0.42591 0.18138 0.0
C4037 C 0.30554 0.41676 0.23522 0.0
C4038 C 0.30508 0.4028 0.221 0.0
C4039 C 0.31352 0.40625 0.20359 0.0
C4040 C 0.29718 0.38408 0.22445 0.0
C4041 C 0.29546 0.41444 0.25369 0.0
C4042 C 0.3047 0.37348 0.23888 0.0
C4043 C 0.29776 0.35563 0.24202 0.0
C4044 C 0.2833 0.3479 0.23063 0.0
C4045 C 0.2759 0.35849 0.21604 0.0
C4046 C 0.28283 0.37644 0.21295 0.0
H4047 H 0.29175 0.42809 0.26007 0.0
H4048 H 0.28233 0.40593 0.25197 0.0
H4049 H 0.30494 0.40742 0.26364 0.0
H4050 H 0.31614 0.37893 0.24759 0.0
H4051 H 0.30391 0.34783 0.25327 0.0
H4052 H 0.19968 0.64363 0.01788 0.0
H4053 H 0.17404 0.62954 0.03623 0.0
H4054 H 0.16796 0.5859 -0.00569 0.0
H4055 H 0.19349 0.59968 0.97608 0.0
H4056 H 0.13599 0.61966 0.02738 0.0
H4057 H 0.17777 0.55787 0.04316 0.0
H4058 H 0.18843 0.57912 0.03489 0.0
H4059 H 0.17813 0.56248 0.01852 0.0
C4060 C 0.1926 0.63123 0.01242 0.0
C4061 C 0.19867 0.62263 -0.00438 0.0
C4062 C 0.17811 0.62314 0.023 0.0
C4063 C 0.16962 0.60637 0.0169 0.0
C4064 C 0.17479 0.59853 -0.00047 0.0
H4065 H 0.07344 0.5502 0.00841 0.0
H4066 H 0.09966 0.5718 0.01193 0.0
C4067 C 0.18922 0.60653 -0.01098 0.0
C4068 C 0.1552 0.5968 0.02832 0.0
H4069 H 0.14343 0.55327 0.04248 0.0
C4070 C 0.13775 0.60532 0.03125 0.0
C4071 C 0.15769 0.5783 0.03397 0.0
C4072 C 0.17661 0.56899 0.03267 0.0
C4073 C 0.12208 0.59505 0.03752 0.0
C4074 C 0.12396 0.57583 0.04052 0.0
C4075 C 0.14194 0.56795 0.03988 0.0
C4076 C 0.10731 0.56321 0.03981 0.0
C4077 C 0.10332 0.60454 0.03953 0.0
C4078 C 0.10325 0.55066 0.05413 0.0
C4079 C 0.08806 0.53798 0.05215 0.0
C4080 C 0.07707 0.53755 0.03565 0.0
C4081 C 0.08151 0.55004 0.02134 0.0
C4082 C 0.09641 0.56265 0.02341 0.0
H4083 H 0.10535 0.6193 0.04395 0.0
H4084 H 0.09598 0.60428 0.02575 0.0
H4085 H 0.09411 0.5975 0.0499 0.0
H4086 H 0.1118 0.55067 0.06676 0.0
H4087 H 0.085 0.52854 0.0634 0.0
H4088 H 0.66658 0.95799 0.27835 0.0
H4089 H 0.69419 0.93952 0.28623 0.0
H4090 H 0.66066 0.8894 0.27867 0.0
H4091 H 0.63294 0.90776 0.27172 0.0
H4092 H 0.68407 0.88689 0.30794 0.0
H4093 H 0.72397 0.91331 0.24638 0.0
H4094 H 0.71734 0.93025 0.26384 0.0
H4095 H 0.69939 0.91843 0.25006 0.0
C4096 C 0.66512 0.94302 0.27854 0.0
C4097 C 0.64771 0.93425 0.27421 0.0
C4098 C 0.68091 0.93251 0.28297 0.0
C4099 C 0.6796 0.91308 0.28264 0.0
C4100 C 0.66202 0.90439 0.279 0.0
H4101 H 0.73565 0.82451 0.2432 0.0
H4102 H 0.72286 0.8547 0.25083 0.0
C4103 C 0.64619 0.91487 0.27495 0.0
C4104 C 0.69649 0.90143 0.28485 0.0
H4105 H 0.73641 0.88807 0.26177 0.0
C4106 C 0.69575 0.8873 0.29809 0.0
C4107 C 0.71178 0.90218 0.27207 0.0
C4108 C 0.71321 0.91675 0.25719 0.0
C4109 C 0.70875 0.87282 0.29769 0.0
C4110 C 0.7233 0.8729 0.28406 0.0
C4111 C 0.7252 0.88807 0.27214 0.0
C4112 C 0.73384 0.8559 0.27923 0.0
C4113 C 0.70572 0.85678 0.3107 0.0
C4114 C 0.74488 0.84675 0.29246 0.0
C4115 C 0.75201 0.82915 0.28821 0.0
C4116 C 0.74842 0.82065 0.27058 0.0
C4117 C 0.73857 0.83053 0.25697 0.0
C4118 C 0.7313 0.84789 0.26129 0.0
H4119 H 0.69219 0.85778 0.31854 0.0
H4120 H 0.70567 0.84341 0.30269 0.0
H4121 H 0.71742 0.85657 0.32108 0.0
H4122 H 0.74742 0.8529 0.30623 0.0
H4123 H 0.75977 0.82199 0.29892 0.0
H4124 H 0.89284 0.0989 0.78436 0.0
H4125 H 0.87427 0.12614 0.79316 0.0
H4126 H 0.82513 0.10125 0.76629 0.0
H4127 H 0.84339 0.074 0.75776 0.0
H4128 H 0.85773 0.14902 0.7685 0.0
H4129 H 0.80284 0.1202 0.81507 0.0
H4130 H 0.82423 0.10792 0.8094 0.0
H4131 H 0.80432 0.10699 0.79356 0.0
C4132 C 0.878 0.09914 0.78059 0.0
C4133 C 0.86958 0.08433 0.77034 0.0
C4134 C 0.86742 0.11467 0.78567 0.0
C4135 C 0.84824 0.11556 0.78069 0.0
C4136 C 0.83976 0.10064 0.77074 0.0
H4137 H 0.76244 0.18839 0.75452 0.0
H4138 H 0.78287 0.16288 0.76287 0.0
C4139 C 0.85029 0.08514 0.7657 0.0
C4140 C 0.8375 0.13277 0.78394 0.0
H4141 H 0.79475 0.14846 0.79909 0.0
C4142 C 0.84418 0.14907 0.77561 0.0
C4143 C 0.81985 0.13278 0.79326 0.0
C4144 C 0.8125 0.11606 0.8035 0.0
C4145 C 0.83305 0.16497 0.77514 0.0
C4146 C 0.8149 0.16457 0.78342 0.0
C4147 C 0.80866 0.14865 0.79269 0.0
C4148 C 0.80144 0.17972 0.78059 0.0
C4149 C 0.84027 0.18167 0.76473 0.0
C4150 C 0.80486 0.19751 0.78826 0.0
C4151 C 0.79321 0.2122 0.78349 0.0
C4152 C 0.77799 0.20926 0.77095 0.0
C4153 C 0.77412 0.19119 0.76407 0.0
C4154 C 0.78573 0.17656 0.76888 0.0
H4155 H 0.85354 0.17878 0.75694 0.0
H4156 H 0.82945 0.18636 0.75462 0.0
H4157 H 0.84314 0.19323 0.77488 0.0
H4158 H 0.81683 0.20014 0.79749 0.0
H4159 H 0.79652 0.22593 0.78912 0.0
loop_
_geom_bond_atom_site_label_1
_geom_bond_atom_site_label_2
_geom_bond_distance
_geom_bond_site_symmetry_2
_ccdc_geom_bond_type
C0 O1 1.306 . S
C0 O3 1.160 . S
O1 C0 1.306 . S
O1 Cd2 2.228 1_655 S
Cd2 O1 2.228 1_455 S
Cd2 O6 2.273 . S
Cd2 O10 2.277 . S
O3 C0 1.160 . S
O3 Cd4 2.203 1_655 S
Cd4 O3 2.203 1_455 S
Cd4 O6 2.411 . S
Cd4 O7 2.333 . S
Cd4 O8 2.352 . S
Cd4 O12 2.277 . S
Cd4 O13 2.356 . S
C5 O10 1.209 . S
C5 O12 1.226 . S
O6 Cd2 2.273 . S
O6 Cd4 2.411 . S
O6 C9 1.320 . S
O7 Cd4 2.333 . S
O7 C9 1.214 . S
O8 Cd4 2.352 . S
O8 C11 1.258 . S
C9 O6 1.320 . S
C9 O7 1.214 . S
O10 Cd2 2.277 . S
O10 C5 1.209 . S
C11 O8 1.258 . S
C11 O13 1.282 . S
O12 Cd4 2.277 . S
O12 C5 1.226 . S
O13 Cd4 2.356 . S
O13 C11 1.282 . S
C14 O15 1.306 . S
C14 O17 1.160 . S
O15 C14 1.306 . S
O15 Cd16 2.228 1_655 S
Cd16 O15 2.228 1_455 S
Cd16 O20 2.273 . S
Cd16 O24 2.277 . S
O17 C14 1.160 . S
O17 Cd18 2.203 1_655 S
Cd18 O17 2.203 1_455 S
Cd18 O20 2.411 . S
Cd18 O21 2.333 . S
Cd18 O22 2.352 . S
Cd18 O26 2.277 . S
Cd18 O27 2.356 . S
C19 O24 1.209 . S
C19 O26 1.226 . S
O20 Cd16 2.273 . S
O20 Cd18 2.411 . S
O20 C23 1.320 . S
O21 Cd18 2.333 . S
O21 C23 1.214 . S
O22 Cd18 2.352 . S
O22 C25 1.258 . S
C23 O20 1.320 . S
C23 O21 1.214 . S
O24 Cd16 2.277 . S
O24 C19 1.209 . S
C25 O22 1.258 . S
C25 O27 1.282 . S
O26 Cd18 2.277 . S
O26 C19 1.226 . S
O27 Cd18 2.356 . S
O27 C25 1.282 . S
C28 O29 1.306 . S
C28 O31 1.160 . S
O29 C28 1.306 . S
O29 Cd30 2.228 . S
Cd30 O29 2.228 . S
Cd30 O34 2.273 . S
Cd30 O38 2.277 . S
O31 C28 1.160 . S
O31 Cd32 2.203 . S
Cd32 O31 2.203 . S
Cd32 O34 2.411 . S
Cd32 O35 2.333 . S
Cd32 O36 2.352 . S
Cd32 O40 2.277 . S
Cd32 O41 2.356 . S
C33 O38 1.209 . S
C33 O40 1.226 . S
O34 Cd30 2.273 . S
O34 Cd32 2.411 . S
O34 C37 1.320 . S
O35 Cd32 2.333 . S
O35 C37 1.214 . S
O36 Cd32 2.352 . S
O36 C39 1.258 . S
C37 O34 1.320 . S
C37 O35 1.214 . S
O38 Cd30 2.277 . S
O38 C33 1.209 . S
C39 O36 1.258 . S
C39 O41 1.282 . S
O40 Cd32 2.277 . S
O40 C33 1.226 . S
O41 Cd32 2.356 . S
O41 C39 1.282 . S
C42 O43 1.306 . S
C42 O45 1.160 . S
O43 C42 1.306 . S
O43 Cd44 2.228 . S
Cd44 O43 2.228 . S
Cd44 O48 2.273 . S
Cd44 O52 2.277 . S
O45 C42 1.160 . S
O45 Cd46 2.203 . S
Cd46 O45 2.203 . S
Cd46 O48 2.411 . S
Cd46 O49 2.333 . S
Cd46 O50 2.352 . S
Cd46 O54 2.277 . S
Cd46 O55 2.356 . S
C47 O52 1.209 . S
C47 O54 1.226 . S
O48 Cd44 2.273 . S
O48 Cd46 2.411 . S
O48 C51 1.320 . S
O49 Cd46 2.333 . S
O49 C51 1.214 . S
O50 Cd46 2.352 . S
O50 C53 1.258 . S
C51 O48 1.320 . S
C51 O49 1.214 . S
O52 Cd44 2.277 . S
O52 C47 1.209 . S
C53 O50 1.258 . S
C53 O55 1.282 . S
O54 Cd46 2.277 . S
O54 C47 1.226 . S
O55 Cd46 2.356 . S
O55 C53 1.282 . S
C56 O57 1.306 . S
C56 O59 1.160 . S
O57 C56 1.306 . S
O57 Cd58 2.228 . S
Cd58 O57 2.228 . S
Cd58 O62 2.273 . S
Cd58 O66 2.277 . S
O59 C56 1.160 . S
O59 Cd60 2.203 . S
Cd60 O59 2.203 . S
Cd60 O62 2.411 . S
Cd60 O63 2.333 . S
Cd60 O64 2.352 1_545 S
Cd60 O68 2.277 . S
Cd60 O69 2.356 1_545 S
C61 O66 1.209 . S
C61 O68 1.226 . S
O62 Cd58 2.273 . S
O62 Cd60 2.411 . S
O62 C65 1.320 . S
O63 Cd60 2.333 . S
O63 C65 1.214 . S
O64 Cd60 2.352 1_565 S
O64 C67 1.258 . S
C65 O62 1.320 . S
C65 O63 1.214 . S
O66 Cd58 2.277 . S
O66 C61 1.209 . S
C67 O64 1.258 . S
C67 O69 1.282 . S
O68 Cd60 2.277 . S
O68 C61 1.226 . S
O69 Cd60 2.356 1_565 S
O69 C67 1.282 . S
C70 O71 1.306 . S
C70 O73 1.160 . S
O71 C70 1.306 . S
O71 Cd72 2.228 . S
Cd72 O71 2.228 . S
Cd72 O76 2.273 . S
Cd72 O80 2.277 . S
O73 C70 1.160 . S
O73 Cd74 2.203 . S
Cd74 O73 2.203 . S
Cd74 O76 2.411 . S
Cd74 O77 2.333 . S
Cd74 O78 2.352 . S
Cd74 O82 2.277 . S
Cd74 O83 2.356 . S
C75 O80 1.209 . S
C75 O82 1.226 . S
O76 Cd72 2.273 . S
O76 Cd74 2.411 . S
O76 C79 1.320 . S
O77 Cd74 2.333 . S
O77 C79 1.214 . S
O78 Cd74 2.352 . S
O78 C81 1.258 . S
C79 O76 1.320 . S
C79 O77 1.214 . S
O80 Cd72 2.277 . S
O80 C75 1.209 . S
C81 O78 1.258 . S
C81 O83 1.282 . S
O82 Cd74 2.277 . S
O82 C75 1.226 . S
O83 Cd74 2.356 . S
O83 C81 1.282 . S
C84 O85 1.306 . S
C84 O87 1.160 1_565 S
O85 C84 1.306 . S
O85 Cd86 2.228 . S
Cd86 O85 2.228 . S
Cd86 O90 2.269 1_565 S
Cd86 O94 2.277 . S
O87 C84 1.160 1_545 S
O87 Cd88 2.203 . S
Cd88 O87 2.203 . S
Cd88 O90 2.412 . S
Cd88 O91 2.333 . S
Cd88 O92 2.352 . S
Cd88 O96 2.277 1_545 S
Cd88 O97 2.356 . S
C89 O94 1.209 . S
C89 O96 1.226 . S
O90 Cd86 2.269 1_545 S
O90 Cd88 2.412 . S
O90 C93 1.321 . S
O91 Cd88 2.333 . S
O91 C93 1.214 . S
O92 Cd88 2.352 . S
O92 C95 1.258 . S
C93 O90 1.321 . S
C93 O91 1.214 . S
O94 Cd86 2.277 . S
O94 C89 1.209 . S
C95 O92 1.258 . S
C95 O97 1.282 . S
O96 Cd88 2.277 1_565 S
O96 C89 1.226 . S
O97 Cd88 2.356 . S
O97 C95 1.282 . S
C98 O99 1.306 . S
C98 O101 1.160 . S
O99 C98 1.306 . S
O99 Cd100 2.228 . S
Cd100 O99 2.228 . S
Cd100 O104 2.273 . S
Cd100 O108 2.277 . S
O101 C98 1.160 . S
O101 Cd102 2.203 . S
Cd102 O101 2.203 . S
Cd102 O104 2.411 . S
Cd102 O105 2.333 . S
Cd102 O106 2.352 1_554 S
Cd102 O110 2.277 . S
Cd102 O111 2.356 1_554 S
C103 O108 1.209 . S
C103 O110 1.226 . S
O104 Cd100 2.273 . S
O104 Cd102 2.411 . S
O104 C107 1.320 . S
O105 Cd102 2.333 . S
O105 C107 1.214 . S
O106 Cd102 2.352 1_556 S
O106 C109 1.258 . S
C107 O104 1.320 . S
C107 O105 1.214 . S
O108 Cd100 2.277 . S
O108 C103 1.209 . S
C109 O106 1.258 . S
C109 O111 1.282 . S
O110 Cd102 2.277 . S
O110 C103 1.226 . S
O111 Cd102 2.356 1_556 S
O111 C109 1.282 . S
C112 O113 1.286 1_554 S
C112 O115 1.160 . S
O113 C112 1.286 1_556 S
O113 Cd114 2.255 . S
Cd114 O113 2.255 . S
Cd114 O118 2.273 1_556 S
Cd114 O122 2.277 . S
O115 C112 1.160 . S
O115 Cd116 2.203 . S
Cd116 O115 2.203 . S
Cd116 O118 2.411 . S
Cd116 O119 2.333 . S
Cd116 O120 2.352 . S
Cd116 O124 2.277 1_554 S
Cd116 O125 2.356 . S
C117 O122 1.209 . S
C117 O124 1.226 . S
O118 Cd114 2.273 1_554 S
O118 Cd116 2.411 . S
O118 C121 1.320 . S
O119 Cd116 2.333 . S
O119 C121 1.214 . S
O120 Cd116 2.352 . S
O120 C123 1.258 . S
C121 O118 1.320 . S
C121 O119 1.214 . S
O122 Cd114 2.277 . S
O122 C117 1.209 . S
C123 O120 1.258 . S
C123 O125 1.282 . S
O124 Cd116 2.277 1_556 S
O124 C117 1.226 . S
O125 Cd116 2.356 . S
O125 C123 1.282 . S
C126 O127 1.306 . S
C126 O129 1.160 . S
O127 C126 1.306 . S
O127 Cd128 2.228 . S
Cd128 O127 2.228 . S
Cd128 O132 2.273 . S
Cd128 O136 2.277 . S
O129 C126 1.160 . S
O129 Cd130 2.203 . S
Cd130 O129 2.203 . S
Cd130 O132 2.411 . S
Cd130 O133 2.333 . S
Cd130 O134 2.352 . S
Cd130 O138 2.277 . S
Cd130 O139 2.356 . S
C131 O136 1.209 . S
C131 O138 1.226 . S
O132 Cd128 2.273 . S
O132 Cd130 2.411 . S
O132 C135 1.320 . S
O133 Cd130 2.333 . S
O133 C135 1.214 . S
O134 Cd130 2.352 . S
O134 C137 1.258 . S
C135 O132 1.320 . S
C135 O133 1.214 . S
O136 Cd128 2.277 . S
O136 C131 1.209 . S
C137 O134 1.258 . S
C137 O139 1.282 . S
O138 Cd130 2.277 . S
O138 C131 1.226 . S
O139 Cd130 2.356 . S
O139 C137 1.282 . S
C140 O141 1.306 . S
C140 O143 1.160 . S
O141 C140 1.306 . S
O141 Cd142 2.228 . S
Cd142 O141 2.228 . S
Cd142 O146 2.273 . S
Cd142 O150 2.277 . S
O143 C140 1.160 . S
O143 Cd144 2.203 . S
Cd144 O143 2.203 . S
Cd144 O146 2.411 . S
Cd144 O147 2.333 . S
Cd144 O148 2.352 . S
Cd144 O152 2.277 . S
Cd144 O153 2.356 . S
C145 O150 1.209 . S
C145 O152 1.226 . S
O146 Cd142 2.273 . S
O146 Cd144 2.411 . S
O146 C149 1.320 . S
O147 Cd144 2.333 . S
O147 C149 1.214 . S
O148 Cd144 2.352 . S
O148 C151 1.258 . S
C149 O146 1.320 . S
C149 O147 1.214 . S
O150 Cd142 2.277 . S
O150 C145 1.209 . S
C151 O148 1.258 . S
C151 O153 1.282 . S
O152 Cd144 2.277 . S
O152 C145 1.226 . S
O153 Cd144 2.356 . S
O153 C151 1.282 . S
C154 O155 1.306 . S
C154 O157 1.160 . S
O155 C154 1.306 . S
O155 Cd156 2.228 . S
Cd156 O155 2.228 . S
Cd156 O160 2.273 . S
Cd156 O164 2.277 . S
O157 C154 1.160 . S
O157 Cd158 2.203 . S
Cd158 O157 2.203 . S
Cd158 O160 2.411 . S
Cd158 O161 2.333 . S
Cd158 O162 2.352 . S
Cd158 O166 2.277 . S
Cd158 O167 2.356 . S
C159 O164 1.209 . S
C159 O166 1.226 . S
O160 Cd156 2.273 . S
O160 Cd158 2.411 . S
O160 C163 1.320 . S
O161 Cd158 2.333 . S
O161 C163 1.214 . S
O162 Cd158 2.352 . S
O162 C165 1.258 . S
C163 O160 1.320 . S
C163 O161 1.214 . S
O164 Cd156 2.277 . S
O164 C159 1.209 . S
C165 O162 1.258 . S
C165 O167 1.282 . S
O166 Cd158 2.277 . S
O166 C159 1.226 . S
O167 Cd158 2.356 . S
O167 C165 1.282 . S
C168 O169 1.306 . S
C168 O171 1.160 . S
O169 C168 1.306 . S
O169 Cd170 2.228 1_655 S
Cd170 O169 2.228 1_455 S
Cd170 O174 2.273 . S
Cd170 O178 2.277 . S
O171 C168 1.160 . S
O171 Cd172 2.203 1_655 S
Cd172 O171 2.203 1_455 S
Cd172 O174 2.411 . S
Cd172 O175 2.333 . S
Cd172 O176 2.352 . S
Cd172 O180 2.277 . S
Cd172 O181 2.356 . S
C173 O178 1.209 . S
C173 O180 1.226 . S
O174 Cd170 2.273 . S
O174 Cd172 2.411 . S
O174 C177 1.320 . S
O175 Cd172 2.333 . S
O175 C177 1.214 . S
O176 Cd172 2.352 . S
O176 C179 1.258 . S
C177 O174 1.320 . S
C177 O175 1.214 . S
O178 Cd170 2.277 . S
O178 C173 1.209 . S
C179 O176 1.258 . S
C179 O181 1.282 . S
O180 Cd172 2.277 . S
O180 C173 1.226 . S
O181 Cd172 2.356 . S
O181 C179 1.282 . S
C182 O183 1.306 . S
C182 O185 1.160 . S
O183 C182 1.306 . S
O183 Cd184 2.228 1_655 S
Cd184 O183 2.228 1_455 S
Cd184 O188 2.273 . S
Cd184 O192 2.277 . S
O185 C182 1.160 . S
O185 Cd186 2.203 1_655 S
Cd186 O185 2.203 1_455 S
Cd186 O188 2.411 . S
Cd186 O189 2.333 . S
Cd186 O190 2.352 . S
Cd186 O194 2.277 . S
Cd186 O195 2.356 . S
C187 O192 1.209 . S
C187 O194 1.226 . S
O188 Cd184 2.273 . S
O188 Cd186 2.411 . S
O188 C191 1.320 . S
O189 Cd186 2.333 . S
O189 C191 1.214 . S
O190 Cd186 2.352 . S
O190 C193 1.258 . S
C191 O188 1.320 . S
C191 O189 1.214 . S
O192 Cd184 2.277 . S
O192 C187 1.209 . S
C193 O190 1.258 . S
C193 O195 1.282 . S
O194 Cd186 2.277 . S
O194 C187 1.226 . S
O195 Cd186 2.356 . S
O195 C193 1.282 . S
C196 O197 1.306 . S
C196 O199 1.160 . S
O197 C196 1.306 . S
O197 Cd198 2.228 . S
Cd198 O197 2.228 . S
Cd198 O202 2.273 . S
Cd198 O206 2.277 . S
O199 C196 1.160 . S
O199 Cd200 2.203 . S
Cd200 O199 2.203 . S
Cd200 O202 2.411 . S
Cd200 O203 2.333 . S
Cd200 O204 2.352 . S
Cd200 O208 2.277 . S
Cd200 O209 2.356 . S
C201 O206 1.209 . S
C201 O208 1.226 . S
O202 Cd198 2.273 . S
O202 Cd200 2.411 . S
O202 C205 1.320 . S
O203 Cd200 2.333 . S
O203 C205 1.214 . S
O204 Cd200 2.352 . S
O204 C207 1.258 . S
C205 O202 1.320 . S
C205 O203 1.214 . S
O206 Cd198 2.277 . S
O206 C201 1.209 . S
C207 O204 1.258 . S
C207 O209 1.282 . S
O208 Cd200 2.277 . S
O208 C201 1.226 . S
O209 Cd200 2.356 . S
O209 C207 1.282 . S
C210 O211 1.306 . S
C210 O213 1.160 . S
O211 C210 1.306 . S
O211 Cd212 2.228 . S
Cd212 O211 2.228 . S
Cd212 O216 2.273 . S
Cd212 O220 2.277 . S
O213 C210 1.160 . S
O213 Cd214 2.203 . S
Cd214 O213 2.203 . S
Cd214 O216 2.411 . S
Cd214 O217 2.333 . S
Cd214 O218 2.352 . S
Cd214 O222 2.277 . S
Cd214 O223 2.356 . S
C215 O220 1.209 . S
C215 O222 1.226 . S
O216 Cd212 2.273 . S
O216 Cd214 2.411 . S
O216 C219 1.320 . S
O217 Cd214 2.333 . S
O217 C219 1.214 . S
O218 Cd214 2.352 . S
O218 C221 1.258 . S
C219 O216 1.320 . S
C219 O217 1.214 . S
O220 Cd212 2.277 . S
O220 C215 1.209 . S
C221 O218 1.258 . S
C221 O223 1.282 . S
O222 Cd214 2.277 . S
O222 C215 1.226 . S
O223 Cd214 2.356 . S
O223 C221 1.282 . S
C224 O225 1.306 . S
C224 O227 1.160 . S
O225 C224 1.306 . S
O225 Cd226 2.228 1_545 S
Cd226 O225 2.228 1_565 S
Cd226 O230 2.273 1_565 S
Cd226 O234 2.277 . S
O227 C224 1.160 . S
O227 Cd228 2.203 . S
Cd228 O227 2.203 . S
Cd228 O230 2.411 . S
Cd228 O231 2.333 . S
Cd228 O232 2.352 . S
Cd228 O236 2.277 1_545 S
Cd228 O237 2.356 . S
C229 O234 1.209 . S
C229 O236 1.226 . S
O230 Cd226 2.273 1_545 S
O230 Cd228 2.411 . S
O230 C233 1.320 . S
O231 Cd228 2.333 . S
O231 C233 1.214 . S
O232 Cd228 2.352 . S
O232 C235 1.258 . S
C233 O230 1.320 . S
C233 O231 1.214 . S
O234 Cd226 2.277 . S
O234 C229 1.209 . S
C235 O232 1.258 . S
C235 O237 1.282 . S
O236 Cd228 2.277 1_565 S
O236 C229 1.226 . S
O237 Cd228 2.356 . S
O237 C235 1.282 . S
C238 O239 1.306 . S
C238 O241 1.160 . S
O239 C238 1.306 . S
O239 Cd240 2.228 . S
Cd240 O239 2.228 . S
Cd240 O244 2.273 . S
Cd240 O248 2.277 . S
O241 C238 1.160 . S
O241 Cd242 2.203 . S
Cd242 O241 2.203 . S
Cd242 O244 2.411 . S
Cd242 O245 2.333 . S
Cd242 O246 2.352 . S
Cd242 O250 2.277 . S
Cd242 O251 2.356 . S
C243 O248 1.209 . S
C243 O250 1.226 . S
O244 Cd240 2.273 . S
O244 Cd242 2.411 . S
O244 C247 1.320 . S
O245 Cd242 2.333 . S
O245 C247 1.214 . S
O246 Cd242 2.352 . S
O246 C249 1.258 . S
C247 O244 1.320 . S
C247 O245 1.214 . S
O248 Cd240 2.277 . S
O248 C243 1.209 . S
C249 O246 1.258 . S
C249 O251 1.282 . S
O250 Cd242 2.277 . S
O250 C243 1.226 . S
O251 Cd242 2.356 . S
O251 C249 1.282 . S
C252 O253 1.306 . S
C252 O255 1.160 1_545 S
O253 C252 1.306 . S
O253 Cd254 2.228 . S
Cd254 O253 2.228 . S
Cd254 O258 2.273 . S
Cd254 O262 2.277 . S
O255 C252 1.160 1_565 S
O255 Cd256 2.203 . S
Cd256 O255 2.203 . S
Cd256 O258 2.411 1_565 S
Cd256 O259 2.333 . S
Cd256 O260 2.352 . S
Cd256 O264 2.277 1_565 S
Cd256 O265 2.356 . S
C257 O262 1.209 . S
C257 O264 1.226 . S
O258 Cd254 2.273 . S
O258 Cd256 2.411 1_545 S
O258 C261 1.317 1_545 S
O259 Cd256 2.333 . S
O259 C261 1.221 . S
O260 Cd256 2.352 . S
O260 C263 1.258 . S
C261 O258 1.317 1_565 S
C261 O259 1.221 . S
O262 Cd254 2.277 . S
O262 C257 1.209 . S
C263 O260 1.258 . S
C263 O265 1.282 . S
O264 Cd256 2.277 1_545 S
O264 C257 1.226 . S
O265 Cd256 2.356 . S
O265 C263 1.282 . S
C266 O267 1.306 1_554 S
C266 O269 1.160 . S
O267 C266 1.306 1_556 S
O267 Cd268 2.228 . S
Cd268 O267 2.228 . S
Cd268 O272 2.273 1_556 S
Cd268 O276 2.277 . S
O269 C266 1.160 . S
O269 Cd270 2.203 . S
Cd270 O269 2.203 . S
Cd270 O272 2.411 . S
Cd270 O273 2.333 . S
Cd270 O274 2.352 . S
Cd270 O278 2.277 1_554 S
Cd270 O279 2.356 . S
C271 O276 1.209 . S
C271 O278 1.226 . S
O272 Cd268 2.273 1_554 S
O272 Cd270 2.411 . S
O272 C275 1.320 . S
O273 Cd270 2.333 . S
O273 C275 1.214 . S
O274 Cd270 2.352 . S
O274 C277 1.258 . S
C275 O272 1.320 . S
C275 O273 1.214 . S
O276 Cd268 2.277 . S
O276 C271 1.209 . S
C277 O274 1.258 . S
C277 O279 1.282 . S
O278 Cd270 2.277 1_556 S
O278 C271 1.226 . S
O279 Cd270 2.356 . S
O279 C277 1.282 . S
C280 O281 1.306 . S
C280 O283 1.173 . S
O281 C280 1.306 . S
O281 Cd282 2.228 . S
Cd282 O281 2.228 . S
Cd282 O286 2.273 . S
Cd282 O290 2.277 . S
O283 C280 1.173 . S
O283 Cd284 2.202 1_554 S
Cd284 O283 2.202 1_556 S
Cd284 O286 2.410 1_556 S
Cd284 O287 2.333 1_556 S
Cd284 O288 2.361 . S
Cd284 O292 2.270 1_556 S
Cd284 O293 2.362 . S
C285 O290 1.209 . S
C285 O292 1.226 . S
O286 Cd282 2.273 . S
O286 Cd284 2.410 1_554 S
O286 C289 1.320 . S
O287 Cd284 2.333 1_554 S
O287 C289 1.214 . S
O288 Cd284 2.361 . S
O288 C291 1.258 . S
C289 O286 1.320 . S
C289 O287 1.214 . S
O290 Cd282 2.277 . S
O290 C285 1.209 . S
C291 O288 1.258 . S
C291 O293 1.282 . S
O292 Cd284 2.270 1_554 S
O292 C285 1.226 . S
O293 Cd284 2.362 . S
O293 C291 1.282 . S
C294 O295 1.306 . S
C294 O297 1.160 . S
O295 C294 1.306 . S
O295 Cd296 2.228 . S
Cd296 O295 2.228 . S
Cd296 O300 2.273 . S
Cd296 O304 2.277 . S
O297 C294 1.160 . S
O297 Cd298 2.203 . S
Cd298 O297 2.203 . S
Cd298 O300 2.411 . S
Cd298 O301 2.333 . S
Cd298 O302 2.352 . S
Cd298 O306 2.277 . S
Cd298 O307 2.356 . S
C299 O304 1.209 . S
C299 O306 1.226 . S
O300 Cd296 2.273 . S
O300 Cd298 2.411 . S
O300 C303 1.320 . S
O301 Cd298 2.333 . S
O301 C303 1.214 . S
O302 Cd298 2.352 . S
O302 C305 1.258 . S
C303 O300 1.320 . S
C303 O301 1.214 . S
O304 Cd296 2.277 . S
O304 C299 1.209 . S
C305 O302 1.258 . S
C305 O307 1.282 . S
O306 Cd298 2.277 . S
O306 C299 1.226 . S
O307 Cd298 2.356 . S
O307 C305 1.282 . S
C308 O309 1.306 . S
C308 O311 1.160 . S
O309 C308 1.306 . S
O309 Cd310 2.228 . S
Cd310 O309 2.228 . S
Cd310 O314 2.273 . S
Cd310 O318 2.277 . S
O311 C308 1.160 . S
O311 Cd312 2.203 . S
Cd312 O311 2.203 . S
Cd312 O314 2.411 . S
Cd312 O315 2.333 . S
Cd312 O316 2.352 . S
Cd312 O320 2.277 . S
Cd312 O321 2.356 . S
C313 O318 1.209 . S
C313 O320 1.226 . S
O314 Cd310 2.273 . S
O314 Cd312 2.411 . S
O314 C317 1.320 . S
O315 Cd312 2.333 . S
O315 C317 1.214 . S
O316 Cd312 2.352 . S
O316 C319 1.258 . S
C317 O314 1.320 . S
C317 O315 1.214 . S
O318 Cd310 2.277 . S
O318 C313 1.209 . S
C319 O316 1.258 . S
C319 O321 1.282 . S
O320 Cd312 2.277 . S
O320 C313 1.226 . S
O321 Cd312 2.356 . S
O321 C319 1.282 . S
C322 O323 1.306 . S
C322 O325 1.160 . S
O323 C322 1.306 . S
O323 Cd324 2.228 . S
Cd324 O323 2.228 . S
Cd324 O328 2.273 . S
Cd324 O332 2.277 . S
O325 C322 1.160 . S
O325 Cd326 2.203 . S
Cd326 O325 2.203 . S
Cd326 O328 2.411 . S
Cd326 O329 2.333 . S
Cd326 O330 2.352 . S
Cd326 O334 2.277 . S
Cd326 O335 2.356 . S
C327 O332 1.209 . S
C327 O334 1.226 . S
O328 Cd324 2.273 . S
O328 Cd326 2.411 . S
O328 C331 1.320 . S
O329 Cd326 2.333 . S
O329 C331 1.214 . S
O330 Cd326 2.352 . S
O330 C333 1.258 . S
C331 O328 1.320 . S
C331 O329 1.214 . S
O332 Cd324 2.277 . S
O332 C327 1.209 . S
C333 O330 1.258 . S
C333 O335 1.282 . S
O334 Cd326 2.277 . S
O334 C327 1.226 . S
O335 Cd326 2.356 . S
O335 C333 1.282 . S
O336 Zn337 1.953 . S
O336 C352 1.225 1_455 S
Zn337 O336 1.953 . S
Zn337 O338 1.949 . S
Zn337 O344 1.919 . S
Zn337 O349 1.924 1_454 S
O338 Zn337 1.949 . S
O338 Zn339 1.923 1_545 S
O338 Zn340 1.950 1_455 S
O338 Zn341 1.945 1_444 S
Zn339 O338 1.923 1_565 S
Zn339 O342 1.933 . S
Zn339 O345 1.941 1_565 S
Zn339 O346 1.965 . S
Zn340 O338 1.950 1_655 S
Zn340 O347 1.938 . S
Zn340 O348 1.906 1_545 S
Zn340 O358 1.953 . S
Zn341 O338 1.945 1_666 S
Zn341 O343 1.932 . S
Zn341 O350 1.977 1_556 S
Zn341 O351 1.910 1_565 S
O342 Zn339 1.933 . S
O342 C353 1.251 . S
O343 Zn341 1.932 . S
O343 C353 1.293 1_656 S
O344 Zn337 1.919 . S
O344 C355 1.253 . S
O345 Zn339 1.941 1_545 S
O345 C355 1.283 . S
O346 Zn339 1.965 . S
O346 C354 1.303 1_565 S
O347 Zn340 1.938 . S
O347 C354 1.247 1_655 S
O348 Zn340 1.906 1_565 S
O348 C356 1.304 . S
O349 Zn337 1.924 1_656 S
O349 C357 1.311 . S
O350 Zn341 1.977 1_554 S
O350 C356 1.272 . S
O351 Zn341 1.910 1_545 S
O351 C357 1.231 . S
C352 O336 1.225 1_655 S
C352 O358 1.298 . S
C353 O342 1.251 . S
C353 O343 1.293 1_454 S
C354 O346 1.303 1_545 S
C354 O347 1.247 1_455 S
C355 O344 1.253 . S
C355 O345 1.283 . S
C356 O348 1.304 . S
C356 O350 1.272 . S
C357 O349 1.311 . S
C357 O351 1.231 . S
O358 Zn340 1.953 . S
O358 C352 1.298 . S
O359 Zn360 1.953 . S
O359 C375 1.225 . S
Zn360 O359 1.953 . S
Zn360 O361 1.949 . S
Zn360 O367 1.919 . S
Zn360 O372 1.924 . S
O361 Zn360 1.949 . S
O361 Zn362 1.923 . S
O361 Zn363 1.950 . S
O361 Zn364 1.945 . S
Zn362 O361 1.923 . S
Zn362 O365 1.933 . S
Zn362 O368 1.941 . S
Zn362 O369 1.965 . S
Zn363 O361 1.950 . S
Zn363 O370 1.938 . S
Zn363 O371 1.906 . S
Zn363 O381 1.953 . S
Zn364 O361 1.945 . S
Zn364 O366 1.932 . S
Zn364 O373 1.977 . S
Zn364 O374 1.910 . S
O365 Zn362 1.933 . S
O365 C376 1.226 . S
O366 Zn364 1.932 . S
O366 C376 1.307 . S
O367 Zn360 1.919 . S
O367 C378 1.253 . S
O368 Zn362 1.941 . S
O368 C378 1.283 . S
O369 Zn362 1.965 . S
O369 C377 1.303 . S
O370 Zn363 1.938 . S
O370 C377 1.247 . S
O371 Zn363 1.906 . S
O371 C379 1.304 . S
O372 Zn360 1.924 . S
O372 C380 1.311 . S
O373 Zn364 1.977 . S
O373 C379 1.272 . S
O374 Zn364 1.910 . S
O374 C380 1.231 . S
C375 O359 1.225 . S
C375 O381 1.298 . S
C376 O365 1.226 . S
C376 O366 1.307 . S
C377 O369 1.303 . S
C377 O370 1.247 . S
C378 O367 1.253 . S
C378 O368 1.283 . S
C379 O371 1.304 . S
C379 O373 1.272 . S
C380 O372 1.311 . S
C380 O374 1.231 . S
O381 Zn363 1.953 . S
O381 C375 1.298 . S
O382 Zn383 1.953 . S
O382 C398 1.225 . S
Zn383 O382 1.953 . S
Zn383 O384 1.949 1_565 S
Zn383 O390 1.919 . S
Zn383 O395 1.924 . S
O384 Zn383 1.949 1_545 S
O384 Zn385 1.923 . S
O384 Zn386 1.950 . S
O384 Zn387 1.945 . S
Zn385 O384 1.923 . S
Zn385 O388 1.933 . S
Zn385 O391 1.941 . S
Zn385 O392 1.965 . S
Zn386 O384 1.950 . S
Zn386 O393 1.938 . S
Zn386 O394 1.906 . S
Zn386 O404 1.953 1_545 S
Zn387 O384 1.945 . S
Zn387 O389 1.932 . S
Zn387 O396 1.977 . S
Zn387 O397 1.910 . S
O388 Zn385 1.933 . S
O388 C399 1.226 . S
O389 Zn387 1.932 . S
O389 C399 1.307 . S
O390 Zn383 1.919 . S
O390 C401 1.208 1_565 S
O391 Zn385 1.941 . S
O391 C401 1.327 . S
O392 Zn385 1.965 . S
O392 C400 1.303 . S
O393 Zn386 1.938 . S
O393 C400 1.247 . S
O394 Zn386 1.906 . S
O394 C402 1.304 . S
O395 Zn383 1.924 . S
O395 C403 1.311 . S
O396 Zn387 1.977 . S
O396 C402 1.272 . S
O397 Zn387 1.910 . S
O397 C403 1.231 1_545 S
C398 O382 1.225 . S
C398 O404 1.298 . S
C399 O388 1.226 . S
C399 O389 1.307 . S
C400 O392 1.303 . S
C400 O393 1.247 . S
C401 O390 1.208 1_545 S
C401 O391 1.327 . S
C402 O394 1.304 . S
C402 O396 1.272 . S
C403 O395 1.311 . S
C403 O397 1.231 1_565 S
O404 Zn386 1.953 1_565 S
O404 C398 1.298 . S
O405 Zn406 1.953 . S
O405 C421 1.225 . S
Zn406 O405 1.953 . S
Zn406 O407 1.949 . S
Zn406 O413 1.919 . S
Zn406 O418 1.924 . S
O407 Zn406 1.949 . S
O407 Zn408 1.923 . S
O407 Zn409 1.950 . S
O407 Zn410 1.945 . S
Zn408 O407 1.923 . S
Zn408 O411 1.933 . S
Zn408 O414 1.941 . S
Zn408 O415 1.965 . S
Zn409 O407 1.950 . S
Zn409 O416 1.938 . S
Zn409 O417 1.906 . S
Zn409 O427 1.953 . S
Zn410 O407 1.945 . S
Zn410 O412 1.932 . S
Zn410 O419 1.977 . S
Zn410 O420 1.910 . S
O411 Zn408 1.933 . S
O411 C422 1.226 . S
O412 Zn410 1.932 . S
O412 C422 1.307 . S
O413 Zn406 1.919 . S
O413 C424 1.253 . S
O414 Zn408 1.941 . S
O414 C424 1.283 . S
O415 Zn408 1.965 . S
O415 C423 1.303 . S
O416 Zn409 1.938 . S
O416 C423 1.247 . S
O417 Zn409 1.906 . S
O417 C425 1.304 . S
O418 Zn406 1.924 . S
O418 C426 1.311 . S
O419 Zn410 1.977 . S
O419 C425 1.272 . S
O420 Zn410 1.910 . S
O420 C426 1.231 . S
C421 O405 1.225 . S
C421 O427 1.298 . S
C422 O411 1.226 . S
C422 O412 1.307 . S
C423 O415 1.303 . S
C423 O416 1.247 . S
C424 O413 1.253 . S
C424 O414 1.283 . S
C425 O417 1.304 . S
C425 O419 1.272 . S
C426 O418 1.311 . S
C426 O420 1.231 . S
O427 Zn409 1.953 . S
O427 C421 1.298 . S
O428 Zn429 1.953 1_455 S
O428 C444 1.225 . S
Zn429 O428 1.953 1_655 S
Zn429 O430 1.949 1_655 S
Zn429 O436 1.919 1_545 S
Zn429 O441 1.924 . S
O430 Zn429 1.949 1_455 S
O430 Zn431 1.923 1_545 S
O430 Zn432 1.950 . S
O430 Zn433 1.945 1_455 S
Zn431 O430 1.923 1_565 S
Zn431 O434 1.933 . S
Zn431 O437 1.941 . S
Zn431 O438 1.965 . S
Zn432 O430 1.950 . S
Zn432 O439 1.938 . S
Zn432 O440 1.906 . S
Zn432 O450 1.953 . S
Zn433 O430 1.945 1_655 S
Zn433 O435 1.932 . S
Zn433 O442 1.977 1_655 S
Zn433 O443 1.910 . S
O434 Zn431 1.933 . S
O434 C445 1.193 1_465 S
O435 Zn433 1.932 . S
O435 C445 1.357 . S
O436 Zn429 1.919 1_565 S
O436 C447 1.253 . S
O437 Zn431 1.941 . S
O437 C447 1.283 1_455 S
O438 Zn431 1.965 . S
O438 C446 1.290 1_565 S
O439 Zn432 1.938 . S
O439 C446 1.273 . S
O440 Zn432 1.906 . S
O440 C448 1.304 . S
O441 Zn429 1.924 . S
O441 C449 1.311 . S
O442 Zn433 1.977 1_455 S
O442 C448 1.272 . S
O443 Zn433 1.910 . S
O443 C449 1.231 . S
C444 O428 1.225 . S
C444 O450 1.298 . S
C445 O434 1.193 1_645 S
C445 O435 1.357 . S
C446 O438 1.290 1_545 S
C446 O439 1.273 . S
C447 O436 1.253 . S
C447 O437 1.283 1_655 S
C448 O440 1.304 . S
C448 O442 1.272 . S
C449 O441 1.311 . S
C449 O443 1.231 . S
O450 Zn432 1.953 . S
O450 C444 1.298 . S
O451 Zn452 1.953 . S
O451 C467 1.225 . S
Zn452 O451 1.953 . S
Zn452 O453 1.949 . S
Zn452 O459 1.919 . S
Zn452 O464 1.924 . S
O453 Zn452 1.949 . S
O453 Zn454 1.923 . S
O453 Zn455 1.950 . S
O453 Zn456 1.945 . S
Zn454 O453 1.923 . S
Zn454 O457 1.933 . S
Zn454 O460 1.941 . S
Zn454 O461 1.965 . S
Zn455 O453 1.950 . S
Zn455 O462 1.938 . S
Zn455 O463 1.906 . S
Zn455 O473 1.953 . S
Zn456 O453 1.945 . S
Zn456 O458 1.932 . S
Zn456 O465 1.977 . S
Zn456 O466 1.910 . S
O457 Zn454 1.933 . S
O457 C468 1.226 . S
O458 Zn456 1.932 . S
O458 C468 1.307 . S
O459 Zn452 1.919 . S
O459 C470 1.253 . S
O460 Zn454 1.941 . S
O460 C470 1.283 . S
O461 Zn454 1.965 . S
O461 C469 1.303 . S
O462 Zn455 1.938 . S
O462 C469 1.247 . S
O463 Zn455 1.906 . S
O463 C471 1.304 . S
O464 Zn452 1.924 . S
O464 C472 1.311 . S
O465 Zn456 1.977 . S
O465 C471 1.272 . S
O466 Zn456 1.910 . S
O466 C472 1.231 . S
C467 O451 1.225 . S
C467 O473 1.298 . S
C468 O457 1.226 . S
C468 O458 1.307 . S
C469 O461 1.303 . S
C469 O462 1.247 . S
C470 O459 1.253 . S
C470 O460 1.283 . S
C471 O463 1.304 . S
C471 O465 1.272 . S
C472 O464 1.311 . S
C472 O466 1.231 . S
O473 Zn455 1.953 . S
O473 C467 1.298 . S
O474 Zn475 1.953 . S
O474 C490 1.225 . S
Zn475 O474 1.953 . S
Zn475 O476 1.949 . S
Zn475 O482 1.915 . S
Zn475 O487 1.924 . S
O476 Zn475 1.949 . S
O476 Zn477 1.923 1_545 S
O476 Zn478 1.950 . S
O476 Zn479 1.945 1_554 S
Zn477 O476 1.923 1_565 S
Zn477 O480 1.933 1_554 S
Zn477 O483 1.948 . S
Zn477 O484 1.965 . S
Zn478 O476 1.950 . S
Zn478 O485 1.938 1_545 S
Zn478 O486 1.906 . S
Zn478 O496 1.953 . S
Zn479 O476 1.945 1_556 S
Zn479 O481 1.932 . S
Zn479 O488 1.977 1_556 S
Zn479 O489 1.910 . S
O480 Zn477 1.933 1_556 S
O480 C491 1.226 . S
O481 Zn479 1.932 . S
O481 C491 1.307 1_545 S
O482 Zn475 1.915 . S
O482 C493 1.257 1_545 S
O483 Zn477 1.948 . S
O483 C493 1.281 . S
O484 Zn477 1.965 . S
O484 C492 1.303 . S
O485 Zn478 1.938 1_565 S
O485 C492 1.247 . S
O486 Zn478 1.906 . S
O486 C494 1.304 . S
O487 Zn475 1.924 . S
O487 C495 1.311 . S
O488 Zn479 1.977 1_554 S
O488 C494 1.272 . S
O489 Zn479 1.910 . S
O489 C495 1.231 1_556 S
C490 O474 1.225 . S
C490 O496 1.298 . S
C491 O480 1.226 . S
C491 O481 1.307 1_565 S
C492 O484 1.303 . S
C492 O485 1.247 . S
C493 O482 1.257 1_565 S
C493 O483 1.281 . S
C494 O486 1.304 . S
C494 O488 1.272 . S
C495 O487 1.311 . S
C495 O489 1.231 1_554 S
O496 Zn478 1.953 . S
O496 C490 1.298 . S
O497 Zn498 1.953 . S
O497 C513 1.225 . S
Zn498 O497 1.953 . S
Zn498 O499 1.949 . S
Zn498 O505 1.919 . S
Zn498 O510 1.924 . S
O499 Zn498 1.949 . S
O499 Zn500 1.923 . S
O499 Zn501 1.950 . S
O499 Zn502 1.945 . S
Zn500 O499 1.923 . S
Zn500 O503 1.933 . S
Zn500 O506 1.941 . S
Zn500 O507 1.965 . S
Zn501 O499 1.950 . S
Zn501 O508 1.938 . S
Zn501 O509 1.906 . S
Zn501 O519 1.953 . S
Zn502 O499 1.945 . S
Zn502 O504 1.932 . S
Zn502 O511 1.977 . S
Zn502 O512 1.910 . S
O503 Zn500 1.933 . S
O503 C514 1.226 . S
O504 Zn502 1.932 . S
O504 C514 1.307 . S
O505 Zn498 1.919 . S
O505 C516 1.253 . S
O506 Zn500 1.941 . S
O506 C516 1.283 . S
O507 Zn500 1.965 . S
O507 C515 1.303 . S
O508 Zn501 1.938 . S
O508 C515 1.247 . S
O509 Zn501 1.906 . S
O509 C517 1.304 . S
O510 Zn498 1.924 . S
O510 C518 1.311 . S
O511 Zn502 1.977 . S
O511 C517 1.272 . S
O512 Zn502 1.910 . S
O512 C518 1.231 . S
C513 O497 1.225 . S
C513 O519 1.298 . S
C514 O503 1.226 . S
C514 O504 1.307 . S
C515 O507 1.303 . S
C515 O508 1.247 . S
C516 O505 1.253 . S
C516 O506 1.283 . S
C517 O509 1.304 . S
C517 O511 1.272 . S
C518 O510 1.311 . S
C518 O512 1.231 . S
O519 Zn501 1.953 . S
O519 C513 1.298 . S
O520 Zn521 1.953 . S
O520 C536 1.225 . S
Zn521 O520 1.953 . S
Zn521 O522 1.949 1_556 S
Zn521 O528 1.919 . S
Zn521 O533 1.924 . S
O522 Zn521 1.949 1_554 S
O522 Zn523 1.923 . S
O522 Zn524 1.950 . S
O522 Zn525 1.945 . S
Zn523 O522 1.923 . S
Zn523 O526 1.933 . S
Zn523 O529 1.941 . S
Zn523 O530 1.965 . S
Zn524 O522 1.950 . S
Zn524 O531 1.938 . S
Zn524 O532 1.906 . S
Zn524 O542 1.953 1_554 S
Zn525 O522 1.945 . S
Zn525 O527 1.932 . S
Zn525 O534 1.977 . S
Zn525 O535 1.910 . S
O526 Zn523 1.933 . S
O526 C537 1.226 . S
O527 Zn525 1.932 . S
O527 C537 1.307 . S
O528 Zn521 1.919 . S
O528 C539 1.253 1_556 S
O529 Zn523 1.941 . S
O529 C539 1.283 . S
O530 Zn523 1.965 . S
O530 C538 1.303 . S
O531 Zn524 1.938 . S
O531 C538 1.247 . S
O532 Zn524 1.906 . S
O532 C540 1.304 . S
O533 Zn521 1.924 . S
O533 C541 1.311 . S
O534 Zn525 1.977 . S
O534 C540 1.272 . S
O535 Zn525 1.910 . S
O535 C541 1.231 1_554 S
C536 O520 1.225 . S
C536 O542 1.298 . S
C537 O526 1.226 . S
C537 O527 1.307 . S
C538 O530 1.303 . S
C538 O531 1.247 . S
C539 O528 1.253 1_554 S
C539 O529 1.283 . S
C540 O532 1.304 . S
C540 O534 1.272 . S
C541 O533 1.311 . S
C541 O535 1.231 1_556 S
O542 Zn524 1.953 1_556 S
O542 C536 1.298 . S
O543 Zn544 1.953 . S
O543 C559 1.225 . S
Zn544 O543 1.953 . S
Zn544 O545 1.949 . S
Zn544 O551 1.919 . S
Zn544 O556 1.924 . S
O545 Zn544 1.949 . S
O545 Zn546 1.923 . S
O545 Zn547 1.950 . S
O545 Zn548 1.945 . S
Zn546 O545 1.923 . S
Zn546 O549 1.933 . S
Zn546 O552 1.941 . S
Zn546 O553 1.965 . S
Zn547 O545 1.950 . S
Zn547 O554 1.938 . S
Zn547 O555 1.906 . S
Zn547 O565 1.953 . S
Zn548 O545 1.945 . S
Zn548 O550 1.932 . S
Zn548 O557 1.977 . S
Zn548 O558 1.910 . S
O549 Zn546 1.933 . S
O549 C560 1.226 . S
O550 Zn548 1.932 . S
O550 C560 1.307 . S
O551 Zn544 1.919 . S
O551 C562 1.253 . S
O552 Zn546 1.941 . S
O552 C562 1.283 . S
O553 Zn546 1.965 . S
O553 C561 1.303 . S
O554 Zn547 1.938 . S
O554 C561 1.247 . S
O555 Zn547 1.906 . S
O555 C563 1.304 . S
O556 Zn544 1.924 . S
O556 C564 1.311 . S
O557 Zn548 1.977 . S
O557 C563 1.272 . S
O558 Zn548 1.910 . S
O558 C564 1.231 . S
C559 O543 1.225 . S
C559 O565 1.298 . S
C560 O549 1.226 . S
C560 O550 1.307 . S
C561 O553 1.303 . S
C561 O554 1.247 . S
C562 O551 1.253 . S
C562 O552 1.283 . S
C563 O555 1.304 . S
C563 O557 1.272 . S
C564 O556 1.311 . S
C564 O558 1.231 . S
O565 Zn547 1.953 . S
O565 C559 1.298 . S
O566 Zn567 1.953 . S
O566 C582 1.225 . S
Zn567 O566 1.953 . S
Zn567 O568 1.977 . S
Zn567 O574 1.919 . S
Zn567 O579 1.924 . S
O568 Zn567 1.977 . S
O568 Zn569 1.924 . S
O568 Zn570 1.934 1_455 S
O568 Zn571 1.932 1_455 S
Zn569 O568 1.924 . S
Zn569 O572 1.933 1_455 S
Zn569 O575 1.941 . S
Zn569 O576 1.965 1_455 S
Zn570 O568 1.934 1_655 S
Zn570 O577 1.938 . S
Zn570 O578 1.906 . S
Zn570 O588 1.935 1_655 S
Zn571 O568 1.932 1_655 S
Zn571 O573 1.932 . S
Zn571 O580 1.977 . S
Zn571 O581 1.910 1_655 S
O572 Zn569 1.933 1_655 S
O572 C583 1.226 . S
O573 Zn571 1.932 . S
O573 C583 1.307 . S
O574 Zn567 1.919 . S
O574 C585 1.253 . S
O575 Zn569 1.941 . S
O575 C585 1.283 . S
O576 Zn569 1.965 1_655 S
O576 C584 1.303 . S
O577 Zn570 1.938 . S
O577 C584 1.247 . S
O578 Zn570 1.906 . S
O578 C586 1.304 . S
O579 Zn567 1.924 . S
O579 C587 1.311 . S
O580 Zn571 1.977 . S
O580 C586 1.272 . S
O581 Zn571 1.910 1_455 S
O581 C587 1.231 . S
C582 O566 1.225 . S
C582 O588 1.334 . S
C583 O572 1.226 . S
C583 O573 1.307 . S
C584 O576 1.303 . S
C584 O577 1.247 . S
C585 O574 1.253 . S
C585 O575 1.283 . S
C586 O578 1.304 . S
C586 O580 1.272 . S
C587 O579 1.311 . S
C587 O581 1.231 . S
O588 Zn570 1.935 1_455 S
O588 C582 1.334 . S
O589 Zn590 1.953 . S
O589 C605 1.225 . S
Zn590 O589 1.953 . S
Zn590 O591 1.949 . S
Zn590 O597 1.919 . S
Zn590 O602 1.924 . S
O591 Zn590 1.949 . S
O591 Zn592 1.923 . S
O591 Zn593 1.950 . S
O591 Zn594 1.945 . S
Zn592 O591 1.923 . S
Zn592 O595 1.933 . S
Zn592 O598 1.941 . S
Zn592 O599 1.965 . S
Zn593 O591 1.950 . S
Zn593 O600 1.938 . S
Zn593 O601 1.906 . S
Zn593 O611 1.953 . S
Zn594 O591 1.945 . S
Zn594 O596 1.932 . S
Zn594 O603 1.977 . S
Zn594 O604 1.910 . S
O595 Zn592 1.933 . S
O595 C606 1.226 . S
O596 Zn594 1.932 . S
O596 C606 1.307 . S
O597 Zn590 1.919 . S
O597 C608 1.253 . S
O598 Zn592 1.941 . S
O598 C608 1.283 . S
O599 Zn592 1.965 . S
O599 C607 1.303 . S
O600 Zn593 1.938 . S
O600 C607 1.247 . S
O601 Zn593 1.906 . S
O601 C609 1.304 . S
O602 Zn590 1.924 . S
O602 C610 1.311 . S
O603 Zn594 1.977 . S
O603 C609 1.272 . S
O604 Zn594 1.910 . S
O604 C610 1.231 . S
C605 O589 1.225 . S
C605 O611 1.298 . S
C606 O595 1.226 . S
C606 O596 1.307 . S
C607 O599 1.303 . S
C607 O600 1.247 . S
C608 O597 1.253 . S
C608 O598 1.283 . S
C609 O601 1.304 . S
C609 O603 1.272 . S
C610 O602 1.311 . S
C610 O604 1.231 . S
O611 Zn593 1.953 . S
O611 C605 1.298 . S
O612 Zn613 1.953 . S
O612 C628 1.225 . S
Zn613 O612 1.953 . S
Zn613 O614 1.949 . S
Zn613 O620 1.919 . S
Zn613 O625 1.924 . S
O614 Zn613 1.949 . S
O614 Zn615 1.923 . S
O614 Zn616 1.950 . S
O614 Zn617 1.945 . S
Zn615 O614 1.923 . S
Zn615 O618 1.933 . S
Zn615 O621 1.941 . S
Zn615 O622 1.965 . S
Zn616 O614 1.950 . S
Zn616 O623 1.938 . S
Zn616 O624 1.906 . S
Zn616 O634 1.953 . S
Zn617 O614 1.945 . S
Zn617 O619 1.932 . S
Zn617 O626 1.977 . S
Zn617 O627 1.910 . S
O618 Zn615 1.933 . S
O618 C629 1.226 . S
O619 Zn617 1.932 . S
O619 C629 1.307 . S
O620 Zn613 1.919 . S
O620 C631 1.253 . S
O621 Zn615 1.941 . S
O621 C631 1.283 . S
O622 Zn615 1.965 . S
O622 C630 1.303 . S
O623 Zn616 1.938 . S
O623 C630 1.247 . S
O624 Zn616 1.906 . S
O624 C632 1.304 . S
O625 Zn613 1.924 . S
O625 C633 1.311 . S
O626 Zn617 1.977 . S
O626 C632 1.272 . S
O627 Zn617 1.910 . S
O627 C633 1.231 . S
C628 O612 1.225 . S
C628 O634 1.298 . S
C629 O618 1.226 . S
C629 O619 1.307 . S
C630 O622 1.303 . S
C630 O623 1.247 . S
C631 O620 1.253 . S
C631 O621 1.283 . S
C632 O624 1.304 . S
C632 O626 1.272 . S
C633 O625 1.311 . S
C633 O627 1.231 . S
O634 Zn616 1.953 . S
O634 C628 1.298 . S
O635 Zn636 1.953 . S
O635 C651 1.225 . S
Zn636 O635 1.953 . S
Zn636 O637 1.949 . S
Zn636 O643 1.919 . S
Zn636 O648 1.924 . S
O637 Zn636 1.949 . S
O637 Zn638 1.923 . S
O637 Zn639 1.950 . S
O637 Zn640 1.945 . S
Zn638 O637 1.923 . S
Zn638 O641 1.933 . S
Zn638 O644 1.941 . S
Zn638 O645 1.965 . S
Zn639 O637 1.950 . S
Zn639 O646 1.938 . S
Zn639 O647 1.906 . S
Zn639 O657 1.953 . S
Zn640 O637 1.945 . S
Zn640 O642 1.932 . S
Zn640 O649 1.977 . S
Zn640 O650 1.910 . S
O641 Zn638 1.933 . S
O641 C652 1.226 . S
O642 Zn640 1.932 . S
O642 C652 1.307 . S
O643 Zn636 1.919 . S
O643 C654 1.253 . S
O644 Zn638 1.941 . S
O644 C654 1.283 . S
O645 Zn638 1.965 . S
O645 C653 1.303 . S
O646 Zn639 1.938 . S
O646 C653 1.247 . S
O647 Zn639 1.906 . S
O647 C655 1.304 . S
O648 Zn636 1.924 . S
O648 C656 1.311 . S
O649 Zn640 1.977 . S
O649 C655 1.272 . S
O650 Zn640 1.910 . S
O650 C656 1.231 . S
C651 O635 1.225 . S
C651 O657 1.298 . S
C652 O641 1.226 . S
C652 O642 1.307 . S
C653 O645 1.303 . S
C653 O646 1.247 . S
C654 O643 1.253 . S
C654 O644 1.283 . S
C655 O647 1.304 . S
C655 O649 1.272 . S
C656 O648 1.311 . S
C656 O650 1.231 . S
O657 Zn639 1.953 . S
O657 C651 1.298 . S
O658 Zn659 1.953 . S
O658 C674 1.225 . S
Zn659 O658 1.953 . S
Zn659 O660 1.949 . S
Zn659 O666 1.919 . S
Zn659 O671 1.924 . S
O660 Zn659 1.949 . S
O660 Zn661 1.923 . S
O660 Zn662 1.950 . S
O660 Zn663 1.945 . S
Zn661 O660 1.923 . S
Zn661 O664 1.933 . S
Zn661 O667 1.941 . S
Zn661 O668 1.965 . S
Zn662 O660 1.950 . S
Zn662 O669 1.938 . S
Zn662 O670 1.906 . S
Zn662 O680 1.953 . S
Zn663 O660 1.945 . S
Zn663 O665 1.932 . S
Zn663 O672 1.977 . S
Zn663 O673 1.910 . S
O664 Zn661 1.933 . S
O664 C675 1.226 . S
O665 Zn663 1.932 . S
O665 C675 1.307 . S
O666 Zn659 1.919 . S
O666 C677 1.253 . S
O667 Zn661 1.941 . S
O667 C677 1.283 . S
O668 Zn661 1.965 . S
O668 C676 1.303 . S
O669 Zn662 1.938 . S
O669 C676 1.247 . S
O670 Zn662 1.906 . S
O670 C678 1.304 . S
O671 Zn659 1.924 . S
O671 C679 1.311 . S
O672 Zn663 1.977 . S
O672 C678 1.272 . S
O673 Zn663 1.910 . S
O673 C679 1.231 . S
C674 O658 1.225 . S
C674 O680 1.298 . S
C675 O664 1.226 . S
C675 O665 1.307 . S
C676 O668 1.303 . S
C676 O669 1.247 . S
C677 O666 1.253 . S
C677 O667 1.283 . S
C678 O670 1.304 . S
C678 O672 1.272 . S
C679 O671 1.311 . S
C679 O673 1.231 . S
O680 Zn662 1.953 . S
O680 C674 1.298 . S
O681 Zn682 1.944 1_455 S
O681 C697 1.225 . S
Zn682 O681 1.944 1_655 S
Zn682 O683 1.938 1_655 S
Zn682 O689 1.952 . S
Zn682 O694 1.909 1_654 S
O683 Zn682 1.938 1_455 S
O683 Zn684 1.923 1_455 S
O683 Zn685 1.950 . S
O683 Zn686 1.904 1_554 S
Zn684 O683 1.923 1_655 S
Zn684 O687 1.933 . S
Zn684 O690 1.941 . S
Zn684 O691 1.965 . S
Zn685 O683 1.950 . S
Zn685 O692 1.938 . S
Zn685 O693 1.906 . S
Zn685 O703 1.953 . S
Zn686 O683 1.904 1_556 S
Zn686 O688 1.944 . S
Zn686 O695 1.954 1_556 S
Zn686 O696 1.956 . S
O687 Zn684 1.933 . S
O687 C698 1.226 . S
O688 Zn686 1.944 . S
O688 C698 1.307 1_456 S
O689 Zn682 1.952 . S
O689 C700 1.253 . S
O690 Zn684 1.941 . S
O690 C700 1.283 . S
O691 Zn684 1.965 . S
O691 C699 1.303 . S
O692 Zn685 1.938 . S
O692 C699 1.247 1_455 S
O693 Zn685 1.906 . S
O693 C701 1.304 . S
O694 Zn682 1.909 1_456 S
O694 C702 1.311 . S
O695 Zn686 1.954 1_554 S
O695 C701 1.272 . S
O696 Zn686 1.956 . S
O696 C702 1.231 . S
C697 O681 1.225 . S
C697 O703 1.298 . S
C698 O687 1.226 . S
C698 O688 1.307 1_654 S
C699 O691 1.303 . S
C699 O692 1.247 1_655 S
C700 O689 1.253 . S
C700 O690 1.283 . S
C701 O693 1.304 . S
C701 O695 1.272 . S
C702 O694 1.311 . S
C702 O696 1.231 . S
O703 Zn685 1.953 . S
O703 C697 1.298 . S
H704 C712 0.929 . S
H705 C714 0.930 . S
H706 C716 0.930 . S
H707 C719 0.929 . S
H708 C722 0.930 . S
H709 C724 0.962 . S
H710 C724 0.941 1_655 S
H711 C724 0.980 . S
C712 H704 0.929 . S
C712 C713 1.377 1_655 S
C712 C714 1.384 . S
C713 C712 1.377 1_455 S
C713 C719 1.390 . S
C714 H705 0.930 . S
C714 C712 1.384 . S
C714 C715 1.372 . S
C715 C714 1.372 . S
C715 C716 1.400 1_655 S
C715 C720 1.490 . S
C716 H706 0.930 . S
C716 C715 1.400 1_455 S
C716 C719 1.386 . S
H717 C733 0.930 . S
H718 C734 0.931 . S
C719 H707 0.929 . S
C719 C713 1.390 . S
C719 C716 1.386 . S
C720 C715 1.490 . S
C720 C722 1.395 . S
C720 C723 1.403 . S
H721 C727 0.930 . S
C722 H708 0.930 . S
C722 C720 1.395 . S
C722 C725 1.403 . S
C723 C720 1.403 . S
C723 C724 1.521 1_655 S
C723 C727 1.400 . S
C724 H709 0.962 . S
C724 H710 0.941 1_455 S
C724 H711 0.980 . S
C724 C723 1.521 1_455 S
C725 C722 1.403 . S
C725 C726 1.392 . S
C725 C729 1.495 . S
C726 C725 1.392 . S
C726 C727 1.385 . S
C726 C728 1.478 . S
C727 H721 0.930 . S
C727 C723 1.400 . S
C727 C726 1.385 . S
C728 C726 1.478 . S
C728 C730 1.381 . S
C728 C734 1.383 1_655 S
C729 C725 1.495 . S
C729 H735 0.959 . S
C729 H736 0.961 . S
C729 H737 0.960 . S
C730 C728 1.381 . S
C730 C731 1.394 . S
C730 H738 0.930 . S
C731 C730 1.394 . S
C731 C732 1.383 . S
C731 H739 0.929 . S
C732 C731 1.383 . S
C732 C733 1.377 1_655 S
C733 H717 0.930 . S
C733 C732 1.377 1_455 S
C733 C734 1.379 . S
C734 H718 0.931 . S
C734 C728 1.383 1_455 S
C734 C733 1.379 . S
H735 C729 0.959 . S
H736 C729 0.961 . S
H737 C729 0.960 . S
H738 C730 0.930 . S
H739 C731 0.929 . S
H740 C748 0.929 . S
H741 C750 0.930 . S
H742 C752 0.930 . S
H743 C755 0.929 . S
H744 C758 0.930 . S
H745 C760 0.960 . S
H746 C760 0.960 . S
H747 C760 0.960 . S
C748 H740 0.929 . S
C748 C749 1.377 . S
C748 C750 1.384 . S
C749 C748 1.377 . S
C749 C755 1.390 . S
C750 H741 0.930 . S
C750 C748 1.384 . S
C750 C751 1.372 . S
C751 C750 1.372 . S
C751 C752 1.400 . S
C751 C756 1.490 . S
C752 H742 0.930 . S
C752 C751 1.400 . S
C752 C755 1.386 . S
H753 C769 0.930 . S
H754 C770 0.931 . S
C755 H743 0.929 . S
C755 C749 1.390 . S
C755 C752 1.386 . S
C756 C751 1.490 . S
C756 C758 1.395 . S
C756 C759 1.403 . S
H757 C763 0.930 . S
C758 H744 0.930 . S
C758 C756 1.395 . S
C758 C761 1.403 . S
C759 C756 1.403 . S
C759 C760 1.524 . S
C759 C763 1.400 . S
C760 H745 0.960 . S
C760 H746 0.960 . S
C760 H747 0.960 . S
C760 C759 1.524 . S
C761 C758 1.403 . S
C761 C762 1.392 . S
C761 C765 1.495 . S
C762 C761 1.392 . S
C762 C763 1.385 . S
C762 C764 1.478 . S
C763 H757 0.930 . S
C763 C759 1.400 . S
C763 C762 1.385 . S
C764 C762 1.478 . S
C764 C766 1.381 . S
C764 C770 1.383 . S
C765 C761 1.495 . S
C765 H771 0.959 . S
C765 H772 0.961 . S
C765 H773 0.960 . S
C766 C764 1.381 . S
C766 C767 1.394 . S
C766 H774 0.930 . S
C767 C766 1.394 . S
C767 C768 1.383 . S
C767 H775 0.929 . S
C768 C767 1.383 . S
C768 C769 1.377 . S
C769 H753 0.930 . S
C769 C768 1.377 . S
C769 C770 1.379 . S
C770 H754 0.931 . S
C770 C764 1.383 . S
C770 C769 1.379 . S
H771 C765 0.959 . S
H772 C765 0.961 . S
H773 C765 0.960 . S
H774 C766 0.930 . S
H775 C767 0.929 . S
H776 C784 0.929 . S
H777 C786 0.930 . S
H778 C788 0.930 . S
H779 C791 0.929 . S
H780 C794 0.930 . S
H781 C796 0.960 . S
H782 C796 0.960 . S
H783 C796 0.960 . S
C784 H776 0.929 . S
C784 C785 1.377 . S
C784 C786 1.384 . S
C785 C784 1.377 . S
C785 C791 1.390 . S
C786 H777 0.930 . S
C786 C784 1.384 . S
C786 C787 1.372 . S
C787 C786 1.372 . S
C787 C788 1.400 . S
C787 C792 1.490 . S
C788 H778 0.930 . S
C788 C787 1.400 . S
C788 C791 1.386 . S
H789 C805 0.930 . S
H790 C806 0.931 . S
C791 H779 0.929 . S
C791 C785 1.390 . S
C791 C788 1.386 . S
C792 C787 1.490 . S
C792 C794 1.395 . S
C792 C795 1.403 . S
H793 C799 0.930 . S
C794 H780 0.930 . S
C794 C792 1.395 . S
C794 C797 1.403 . S
C795 C792 1.403 . S
C795 C796 1.524 . S
C795 C799 1.400 . S
C796 H781 0.960 . S
C796 H782 0.960 . S
C796 H783 0.960 . S
C796 C795 1.524 . S
C797 C794 1.403 . S
C797 C798 1.392 . S
C797 C801 1.495 . S
C798 C797 1.392 . S
C798 C799 1.385 . S
C798 C800 1.478 . S
C799 H793 0.930 . S
C799 C795 1.400 . S
C799 C798 1.385 . S
C800 C798 1.478 . S
C800 C802 1.381 . S
C800 C806 1.383 . S
C801 C797 1.495 . S
C801 H807 0.959 . S
C801 H808 0.961 . S
C801 H809 0.960 . S
C802 C800 1.381 . S
C802 C803 1.394 . S
C802 H810 0.930 . S
C803 C802 1.394 . S
C803 C804 1.383 . S
C803 H811 0.929 . S
C804 C803 1.383 . S
C804 C805 1.377 . S
C805 H789 0.930 . S
C805 C804 1.377 . S
C805 C806 1.379 . S
C806 H790 0.931 . S
C806 C800 1.383 . S
C806 C805 1.379 . S
H807 C801 0.959 . S
H808 C801 0.961 . S
H809 C801 0.960 . S
H810 C802 0.930 . S
H811 C803 0.929 . S
H812 C820 0.929 . S
H813 C822 0.930 . S
H814 C824 0.930 . S
H815 C827 0.929 . S
H816 C830 0.930 . S
H817 C832 0.960 . S
H818 C832 0.960 . S
H819 C832 0.960 . S
C820 H812 0.929 . S
C820 C821 1.377 . S
C820 C822 1.384 . S
C821 C820 1.377 . S
C821 C827 1.390 . S
C822 H813 0.930 . S
C822 C820 1.384 . S
C822 C823 1.372 . S
C823 C822 1.372 . S
C823 C824 1.400 . S
C823 C828 1.490 . S
C824 H814 0.930 . S
C824 C823 1.400 . S
C824 C827 1.386 . S
H825 C841 0.930 . S
H826 C842 0.931 . S
C827 H815 0.929 . S
C827 C821 1.390 . S
C827 C824 1.386 . S
C828 C823 1.490 . S
C828 C830 1.395 . S
C828 C831 1.403 . S
H829 C835 0.930 . S
C830 H816 0.930 . S
C830 C828 1.395 . S
C830 C833 1.403 . S
C831 C828 1.403 . S
C831 C832 1.524 . S
C831 C835 1.400 . S
C832 H817 0.960 . S
C832 H818 0.960 . S
C832 H819 0.960 . S
C832 C831 1.524 . S
C833 C830 1.403 . S
C833 C834 1.392 . S
C833 C837 1.495 . S
C834 C833 1.392 . S
C834 C835 1.385 . S
C834 C836 1.478 . S
C835 H829 0.930 . S
C835 C831 1.400 . S
C835 C834 1.385 . S
C836 C834 1.478 . S
C836 C838 1.381 . S
C836 C842 1.383 . S
C837 C833 1.495 . S
C837 H843 0.959 . S
C837 H844 0.961 . S
C837 H845 0.960 . S
C838 C836 1.381 . S
C838 C839 1.394 . S
C838 H846 0.930 . S
C839 C838 1.394 . S
C839 C840 1.383 . S
C839 H847 0.929 . S
C840 C839 1.383 . S
C840 C841 1.377 . S
C841 H825 0.930 . S
C841 C840 1.377 . S
C841 C842 1.379 . S
C842 H826 0.931 . S
C842 C836 1.383 . S
C842 C841 1.379 . S
H843 C837 0.959 . S
H844 C837 0.961 . S
H845 C837 0.960 . S
H846 C838 0.930 . S
H847 C839 0.929 . S
H848 C856 0.929 . S
H849 C858 0.930 . S
H850 C860 0.930 . S
H851 C863 0.929 . S
H852 C866 0.930 . S
H853 C868 0.960 . S
H854 C868 0.960 . S
H855 C868 0.960 . S
C856 H848 0.929 . S
C856 C857 1.377 . S
C856 C858 1.384 . S
C857 C856 1.377 . S
C857 C863 1.390 1_455 S
C858 H849 0.930 . S
C858 C856 1.384 . S
C858 C859 1.372 . S
C859 C858 1.372 . S
C859 C860 1.400 1_455 S
C859 C864 1.490 . S
C860 H850 0.930 . S
C860 C859 1.400 1_655 S
C860 C863 1.386 . S
H861 C877 0.930 . S
H862 C878 0.931 . S
C863 H851 0.929 . S
C863 C857 1.390 1_655 S
C863 C860 1.386 . S
C864 C859 1.490 . S
C864 C866 1.395 . S
C864 C867 1.403 1_455 S
H865 C871 0.930 . S
C866 H852 0.930 . S
C866 C864 1.395 . S
C866 C869 1.403 . S
C867 C864 1.403 1_655 S
C867 C868 1.524 . S
C867 C871 1.400 . S
C868 H853 0.960 . S
C868 H854 0.960 . S
C868 H855 0.960 . S
C868 C867 1.524 . S
C869 C866 1.403 . S
C869 C870 1.392 . S
C869 C873 1.495 . S
C870 C869 1.392 . S
C870 C871 1.385 1_455 S
C870 C872 1.479 . S
C871 H865 0.930 . S
C871 C867 1.400 . S
C871 C870 1.385 1_655 S
C872 C870 1.479 . S
C872 C874 1.386 . S
C872 C878 1.376 1_455 S
C873 C869 1.495 . S
C873 H879 0.959 . S
C873 H880 0.961 . S
C873 H881 0.960 . S
C874 C872 1.386 . S
C874 C875 1.394 . S
C874 H882 0.930 . S
C875 C874 1.394 . S
C875 C876 1.383 1_455 S
C875 H883 0.929 . S
C876 C875 1.383 1_655 S
C876 C877 1.377 . S
C877 H861 0.930 . S
C877 C876 1.377 . S
C877 C878 1.379 . S
C878 H862 0.931 . S
C878 C872 1.376 1_655 S
C878 C877 1.379 . S
H879 C873 0.959 . S
H880 C873 0.961 . S
H881 C873 0.960 . S
H882 C874 0.930 . S
H883 C875 0.929 . S
H884 C892 0.929 . S
H885 C894 0.930 . S
H886 C896 0.930 . S
H887 C899 0.929 . S
H888 C902 0.930 . S
H889 C904 0.960 . S
H890 C904 0.960 . S
H891 C904 0.960 . S
C892 H884 0.929 . S
C892 C893 1.377 . S
C892 C894 1.384 . S
C893 C892 1.377 . S
C893 C899 1.390 . S
C894 H885 0.930 . S
C894 C892 1.384 . S
C894 C895 1.372 . S
C895 C894 1.372 . S
C895 C896 1.400 . S
C895 C900 1.490 . S
C896 H886 0.930 . S
C896 C895 1.400 . S
C896 C899 1.386 . S
H897 C913 0.930 . S
H898 C914 0.931 . S
C899 H887 0.929 . S
C899 C893 1.390 . S
C899 C896 1.386 . S
C900 C895 1.490 . S
C900 C902 1.395 . S
C900 C903 1.403 . S
H901 C907 0.930 . S
C902 H888 0.930 . S
C902 C900 1.395 . S
C902 C905 1.403 . S
C903 C900 1.403 . S
C903 C904 1.524 . S
C903 C907 1.400 . S
C904 H889 0.960 . S
C904 H890 0.960 . S
C904 H891 0.960 . S
C904 C903 1.524 . S
C905 C902 1.403 . S
C905 C906 1.392 . S
C905 C909 1.495 . S
C906 C905 1.392 . S
C906 C907 1.385 . S
C906 C908 1.478 . S
C907 H901 0.930 . S
C907 C903 1.400 . S
C907 C906 1.385 . S
C908 C906 1.478 . S
C908 C910 1.381 . S
C908 C914 1.383 . S
C909 C905 1.495 . S
C909 H915 0.959 . S
C909 H916 0.961 . S
C909 H917 0.960 . S
C910 C908 1.381 . S
C910 C911 1.394 . S
C910 H918 0.930 . S
C911 C910 1.394 . S
C911 C912 1.383 . S
C911 H919 0.929 . S
C912 C911 1.383 . S
C912 C913 1.377 . S
C913 H897 0.930 . S
C913 C912 1.377 . S
C913 C914 1.379 . S
C914 H898 0.931 . S
C914 C908 1.383 . S
C914 C913 1.379 . S
H915 C909 0.959 . S
H916 C909 0.961 . S
H917 C909 0.960 . S
H918 C910 0.930 . S
H919 C911 0.929 . S
H920 C928 0.929 . S
H921 C930 0.930 . S
H922 C932 0.930 . S
H923 C935 0.929 . S
H924 C938 0.930 . S
H925 C940 0.960 . S
H926 C940 0.960 . S
H927 C940 0.960 . S
C928 H920 0.929 . S
C928 C929 1.377 . S
C928 C930 1.384 . S
C929 C928 1.377 . S
C929 C935 1.390 . S
C930 H921 0.930 . S
C930 C928 1.384 . S
C930 C931 1.372 . S
C931 C930 1.372 . S
C931 C932 1.400 . S
C931 C936 1.490 . S
C932 H922 0.930 . S
C932 C931 1.400 . S
C932 C935 1.386 . S
H933 C949 0.930 . S
H934 C950 0.932 . S
C935 H923 0.929 . S
C935 C929 1.390 . S
C935 C932 1.386 . S
C936 C931 1.490 . S
C936 C938 1.395 . S
C936 C939 1.403 . S
H937 C943 0.930 . S
C938 H924 0.930 . S
C938 C936 1.395 . S
C938 C941 1.403 . S
C939 C936 1.403 . S
C939 C940 1.524 . S
C939 C943 1.400 . S
C940 H925 0.960 . S
C940 H926 0.960 . S
C940 H927 0.960 . S
C940 C939 1.524 . S
C941 C938 1.403 . S
C941 C942 1.392 . S
C941 C945 1.495 . S
C942 C941 1.392 . S
C942 C943 1.385 . S
C942 C944 1.478 . S
C943 H937 0.930 . S
C943 C939 1.400 . S
C943 C942 1.385 . S
C944 C942 1.478 . S
C944 C946 1.381 . S
C944 C950 1.380 1_556 S
C945 C941 1.495 . S
C945 H951 0.959 . S
C945 H952 0.961 . S
C945 H953 0.960 . S
C946 C944 1.381 . S
C946 C947 1.394 . S
C946 H954 0.930 . S
C947 C946 1.394 . S
C947 C948 1.383 1_556 S
C947 H955 0.929 . S
C948 C947 1.383 1_554 S
C948 C949 1.377 . S
C949 H933 0.930 . S
C949 C948 1.377 . S
C949 C950 1.381 . S
C950 H934 0.932 . S
C950 C944 1.380 1_554 S
C950 C949 1.381 . S
H951 C945 0.959 . S
H952 C945 0.961 . S
H953 C945 0.960 . S
H954 C946 0.930 . S
H955 C947 0.929 . S
H956 C964 0.929 . S
H957 C966 0.930 . S
H958 C968 0.930 . S
H959 C971 0.929 . S
H960 C974 0.930 . S
H961 C976 0.960 . S
H962 C976 0.960 . S
H963 C976 0.960 . S
C964 H956 0.929 . S
C964 C965 1.377 . S
C964 C966 1.384 . S
C965 C964 1.377 . S
C965 C971 1.390 . S
C966 H957 0.930 . S
C966 C964 1.384 . S
C966 C967 1.372 . S
C967 C966 1.372 . S
C967 C968 1.400 . S
C967 C972 1.490 . S
C968 H958 0.930 . S
C968 C967 1.400 . S
C968 C971 1.386 . S
H969 C985 0.930 . S
H970 C986 0.931 . S
C971 H959 0.929 . S
C971 C965 1.390 . S
C971 C968 1.386 . S
C972 C967 1.490 . S
C972 C974 1.395 . S
C972 C975 1.403 . S
H973 C979 0.930 . S
C974 H960 0.930 . S
C974 C972 1.395 . S
C974 C977 1.403 . S
C975 C972 1.403 . S
C975 C976 1.524 . S
C975 C979 1.400 . S
C976 H961 0.960 . S
C976 H962 0.960 . S
C976 H963 0.960 . S
C976 C975 1.524 . S
C977 C974 1.403 . S
C977 C978 1.392 . S
C977 C981 1.495 . S
C978 C977 1.392 . S
C978 C979 1.385 . S
C978 C980 1.478 . S
C979 H973 0.930 . S
C979 C975 1.400 . S
C979 C978 1.385 . S
C980 C978 1.478 . S
C980 C982 1.381 . S
C980 C986 1.383 . S
C981 C977 1.495 . S
C981 H987 0.959 . S
C981 H988 0.961 . S
C981 H989 0.960 . S
C982 C980 1.381 . S
C982 C983 1.394 . S
C982 H990 0.930 . S
C983 C982 1.394 . S
C983 C984 1.383 . S
C983 H991 0.929 . S
C984 C983 1.383 . S
C984 C985 1.377 . S
C985 H969 0.930 . S
C985 C984 1.377 . S
C985 C986 1.379 . S
C986 H970 0.931 . S
C986 C980 1.383 . S
C986 C985 1.379 . S
H987 C981 0.959 . S
H988 C981 0.961 . S
H989 C981 0.960 . S
H990 C982 0.930 . S
H991 C983 0.929 . S
H992 C1000 0.929 . S
H993 C1002 0.930 . S
H994 C1004 0.913 1_565 S
H995 C1007 0.929 1_565 S
H996 C1010 0.930 . S
H997 C1012 0.960 . S
H998 C1012 0.960 . S
H999 C1012 0.960 1_565 S
C1000 H992 0.929 . S
C1000 C1001 1.377 . S
C1000 C1002 1.384 . S
C1001 C1000 1.377 . S
C1001 C1007 1.390 . S
C1002 H993 0.930 . S
C1002 C1000 1.384 . S
C1002 C1003 1.372 . S
C1003 C1002 1.372 . S
C1003 C1004 1.416 . S
C1003 C1008 1.490 . S
C1004 H994 0.913 1_545 S
C1004 C1003 1.416 . S
C1004 C1007 1.386 . S
H1005 C1021 0.930 . S
H1006 C1022 0.931 . S
C1007 H995 0.929 1_545 S
C1007 C1001 1.390 . S
C1007 C1004 1.386 . S
C1008 C1003 1.490 . S
C1008 C1010 1.395 . S
C1008 C1011 1.403 . S
H1009 C1015 0.930 . S
C1010 H996 0.930 . S
C1010 C1008 1.395 . S
C1010 C1013 1.403 . S
C1011 C1008 1.403 . S
C1011 C1012 1.524 . S
C1011 C1015 1.400 . S
C1012 H997 0.960 . S
C1012 H998 0.960 . S
C1012 H999 0.960 1_545 S
C1012 C1011 1.524 . S
C1013 C1010 1.403 . S
C1013 C1014 1.392 . S
C1013 C1017 1.495 . S
C1014 C1013 1.392 . S
C1014 C1015 1.385 . S
C1014 C1016 1.478 . S
C1015 H1009 0.930 . S
C1015 C1011 1.400 . S
C1015 C1014 1.385 . S
C1016 C1014 1.478 . S
C1016 C1018 1.381 . S
C1016 C1022 1.383 1_545 S
C1017 C1013 1.495 . S
C1017 H1023 0.959 . S
C1017 H1024 0.961 . S
C1017 H1025 0.960 . S
C1018 C1016 1.381 . S
C1018 C1019 1.394 . S
C1018 H1026 0.930 . S
C1019 C1018 1.394 . S
C1019 C1020 1.383 . S
C1019 H1027 0.929 . S
C1020 C1019 1.383 . S
C1020 C1021 1.377 1_545 S
C1021 H1005 0.930 . S
C1021 C1020 1.377 1_565 S
C1021 C1022 1.379 . S
C1022 H1006 0.931 . S
C1022 C1016 1.383 1_565 S
C1022 C1021 1.379 . S
H1023 C1017 0.959 . S
H1024 C1017 0.961 . S
H1025 C1017 0.960 . S
H1026 C1018 0.930 . S
H1027 C1019 0.929 . S
H1028 C1036 0.929 . S
H1029 C1038 0.930 . S
H1030 C1040 0.930 . S
H1031 C1043 0.929 . S
H1032 C1046 0.930 . S
H1033 C1048 0.960 . S
H1034 C1048 0.960 . S
H1035 C1048 0.960 . S
C1036 H1028 0.929 . S
C1036 C1037 1.377 . S
C1036 C1038 1.384 . S
C1037 C1036 1.377 . S
C1037 C1043 1.390 . S
C1038 H1029 0.930 . S
C1038 C1036 1.384 . S
C1038 C1039 1.372 . S
C1039 C1038 1.372 . S
C1039 C1040 1.400 . S
C1039 C1044 1.490 . S
C1040 H1030 0.930 . S
C1040 C1039 1.400 . S
C1040 C1043 1.386 . S
H1041 C1057 0.930 . S
H1042 C1058 0.931 . S
C1043 H1031 0.929 . S
C1043 C1037 1.390 . S
C1043 C1040 1.386 . S
C1044 C1039 1.490 . S
C1044 C1046 1.395 . S
C1044 C1047 1.403 . S
H1045 C1051 0.930 . S
C1046 H1032 0.930 . S
C1046 C1044 1.395 . S
C1046 C1049 1.403 . S
C1047 C1044 1.403 . S
C1047 C1048 1.524 . S
C1047 C1051 1.400 . S
C1048 H1033 0.960 . S
C1048 H1034 0.960 . S
C1048 H1035 0.960 . S
C1048 C1047 1.524 . S
C1049 C1046 1.403 . S
C1049 C1050 1.392 . S
C1049 C1053 1.495 . S
C1050 C1049 1.392 . S
C1050 C1051 1.385 . S
C1050 C1052 1.478 . S
C1051 H1045 0.930 . S
C1051 C1047 1.400 . S
C1051 C1050 1.385 . S
C1052 C1050 1.478 . S
C1052 C1054 1.381 . S
C1052 C1058 1.383 . S
C1053 C1049 1.495 . S
C1053 H1059 0.959 . S
C1053 H1060 0.961 . S
C1053 H1061 0.960 . S
C1054 C1052 1.381 . S
C1054 C1055 1.394 . S
C1054 H1062 0.930 . S
C1055 C1054 1.394 . S
C1055 C1056 1.383 . S
C1055 H1063 0.929 . S
C1056 C1055 1.383 . S
C1056 C1057 1.377 . S
C1057 H1041 0.930 . S
C1057 C1056 1.377 . S
C1057 C1058 1.379 . S
C1058 H1042 0.931 . S
C1058 C1052 1.383 . S
C1058 C1057 1.379 . S
H1059 C1053 0.959 . S
H1060 C1053 0.961 . S
H1061 C1053 0.960 . S
H1062 C1054 0.930 . S
H1063 C1055 0.929 . S
H1064 C1072 0.929 . S
H1065 C1074 0.930 . S
H1066 C1076 0.930 . S
H1067 C1079 0.929 . S
H1068 C1082 0.930 . S
H1069 C1084 0.960 . S
H1070 C1084 0.960 . S
H1071 C1084 0.960 . S
C1072 H1064 0.929 . S
C1072 C1073 1.377 . S
C1072 C1074 1.384 . S
C1073 C1072 1.377 . S
C1073 C1079 1.390 1_545 S
C1074 H1065 0.930 . S
C1074 C1072 1.384 . S
C1074 C1075 1.372 . S
C1075 C1074 1.372 . S
C1075 C1076 1.400 1_545 S
C1075 C1080 1.490 . S
C1076 H1066 0.930 . S
C1076 C1075 1.400 1_565 S
C1076 C1079 1.386 . S
H1077 C1093 0.946 . S
H1078 C1094 0.931 . S
C1079 H1067 0.929 . S
C1079 C1073 1.390 1_565 S
C1079 C1076 1.386 . S
C1080 C1075 1.490 . S
C1080 C1082 1.395 . S
C1080 C1083 1.403 . S
H1081 C1087 0.930 . S
C1082 H1068 0.930 . S
C1082 C1080 1.395 . S
C1082 C1085 1.403 . S
C1083 C1080 1.403 . S
C1083 C1084 1.524 . S
C1083 C1087 1.400 . S
C1084 H1069 0.960 . S
C1084 H1070 0.960 . S
C1084 H1071 0.960 . S
C1084 C1083 1.524 . S
C1085 C1082 1.403 . S
C1085 C1086 1.392 . S
C1085 C1089 1.495 . S
C1086 C1085 1.392 . S
C1086 C1087 1.385 . S
C1086 C1088 1.478 . S
C1087 H1081 0.930 . S
C1087 C1083 1.400 . S
C1087 C1086 1.385 . S
C1088 C1086 1.478 . S
C1088 C1090 1.381 . S
C1088 C1094 1.383 1_545 S
C1089 C1085 1.495 . S
C1089 H1095 0.959 . S
C1089 H1096 0.961 1_545 S
C1089 H1097 0.960 . S
C1090 C1088 1.381 . S
C1090 C1091 1.394 . S
C1090 H1098 0.930 . S
C1091 C1090 1.394 . S
C1091 C1092 1.383 . S
C1091 H1099 0.929 . S
C1092 C1091 1.383 . S
C1092 C1093 1.359 1_545 S
C1093 H1077 0.946 . S
C1093 C1092 1.359 1_565 S
C1093 C1094 1.382 . S
C1094 H1078 0.931 . S
C1094 C1088 1.383 1_565 S
C1094 C1093 1.382 . S
H1095 C1089 0.959 . S
H1096 C1089 0.961 1_565 S
H1097 C1089 0.960 . S
H1098 C1090 0.930 . S
H1099 C1091 0.929 . S
H1100 C1108 0.929 . S
H1101 C1110 0.930 . S
H1102 C1112 0.930 . S
H1103 C1115 0.929 . S
H1104 C1118 0.930 . S
H1105 C1120 0.960 . S
H1106 C1120 0.960 . S
H1107 C1120 0.960 . S
C1108 H1100 0.929 . S
C1108 C1109 1.377 . S
C1108 C1110 1.384 . S
C1109 C1108 1.377 . S
C1109 C1115 1.390 . S
C1110 H1101 0.930 . S
C1110 C1108 1.384 . S
C1110 C1111 1.372 . S
C1111 C1110 1.372 . S
C1111 C1112 1.400 . S
C1111 C1116 1.490 . S
C1112 H1102 0.930 . S
C1112 C1111 1.400 . S
C1112 C1115 1.386 . S
H1113 C1129 0.930 . S
H1114 C1130 0.931 . S
C1115 H1103 0.929 . S
C1115 C1109 1.390 . S
C1115 C1112 1.386 . S
C1116 C1111 1.490 . S
C1116 C1118 1.395 . S
C1116 C1119 1.403 . S
H1117 C1123 0.930 . S
C1118 H1104 0.930 . S
C1118 C1116 1.395 . S
C1118 C1121 1.403 . S
C1119 C1116 1.403 . S
C1119 C1120 1.524 . S
C1119 C1123 1.400 . S
C1120 H1105 0.960 . S
C1120 H1106 0.960 . S
C1120 H1107 0.960 . S
C1120 C1119 1.524 . S
C1121 C1118 1.403 . S
C1121 C1122 1.392 . S
C1121 C1125 1.495 . S
C1122 C1121 1.392 . S
C1122 C1123 1.385 . S
C1122 C1124 1.478 . S
C1123 H1117 0.930 . S
C1123 C1119 1.400 . S
C1123 C1122 1.385 . S
C1124 C1122 1.478 . S
C1124 C1126 1.381 . S
C1124 C1130 1.383 . S
C1125 C1121 1.495 . S
C1125 H1131 0.959 . S
C1125 H1132 0.961 . S
C1125 H1133 0.960 . S
C1126 C1124 1.381 . S
C1126 C1127 1.394 . S
C1126 H1134 0.930 . S
C1127 C1126 1.394 . S
C1127 C1128 1.383 . S
C1127 H1135 0.929 . S
C1128 C1127 1.383 . S
C1128 C1129 1.377 . S
C1129 H1113 0.930 . S
C1129 C1128 1.377 . S
C1129 C1130 1.379 . S
C1130 H1114 0.931 . S
C1130 C1124 1.383 . S
C1130 C1129 1.379 . S
H1131 C1125 0.959 . S
H1132 C1125 0.961 . S
H1133 C1125 0.960 . S
H1134 C1126 0.930 . S
H1135 C1127 0.929 . S
H1136 C1144 0.947 . S
H1137 C1146 0.960 . S
H1138 C1148 0.930 . S
H1139 C1151 0.929 . S
H1140 C1154 0.930 1_565 S
H1141 C1156 0.960 . S
H1142 C1156 0.960 . S
H1143 C1156 0.960 . S
C1144 H1136 0.947 . S
C1144 C1145 1.377 . S
C1144 C1146 1.384 . S
C1145 C1144 1.377 . S
C1145 C1151 1.390 . S
C1146 H1137 0.960 . S
C1146 C1144 1.384 . S
C1146 C1147 1.372 . S
C1147 C1146 1.372 . S
C1147 C1148 1.400 . S
C1147 C1152 1.490 . S
C1148 H1138 0.930 . S
C1148 C1147 1.400 . S
C1148 C1151 1.386 . S
H1149 C1165 0.930 . S
H1150 C1166 0.931 . S
C1151 H1139 0.929 . S
C1151 C1145 1.390 . S
C1151 C1148 1.386 . S
C1152 C1147 1.490 . S
C1152 C1154 1.395 . S
C1152 C1155 1.403 . S
H1153 C1159 0.930 . S
C1154 H1140 0.930 1_545 S
C1154 C1152 1.395 . S
C1154 C1157 1.403 . S
C1155 C1152 1.403 . S
C1155 C1156 1.524 . S
C1155 C1159 1.400 . S
C1156 H1141 0.960 . S
C1156 H1142 0.960 . S
C1156 H1143 0.960 . S
C1156 C1155 1.524 . S
C1157 C1154 1.403 . S
C1157 C1158 1.392 . S
C1157 C1161 1.495 1_545 S
C1158 C1157 1.392 . S
C1158 C1159 1.385 . S
C1158 C1160 1.478 . S
C1159 H1153 0.930 . S
C1159 C1155 1.400 . S
C1159 C1158 1.385 . S
C1160 C1158 1.478 . S
C1160 C1162 1.381 . S
C1160 C1166 1.383 . S
C1161 C1157 1.495 1_565 S
C1161 H1167 0.959 . S
C1161 H1168 0.961 . S
C1161 H1169 0.960 . S
C1162 C1160 1.381 . S
C1162 C1163 1.394 . S
C1162 H1170 0.930 . S
C1163 C1162 1.394 . S
C1163 C1164 1.383 . S
C1163 H1171 0.929 . S
C1164 C1163 1.383 . S
C1164 C1165 1.377 . S
C1165 H1149 0.930 . S
C1165 C1164 1.377 . S
C1165 C1166 1.379 . S
C1166 H1150 0.931 . S
C1166 C1160 1.383 . S
C1166 C1165 1.379 . S
H1167 C1161 0.959 . S
H1168 C1161 0.961 . S
H1169 C1161 0.960 . S
H1170 C1162 0.930 . S
H1171 C1163 0.929 . S
H1172 C1180 0.929 . S
H1173 C1182 0.930 . S
H1174 C1184 0.930 . S
H1175 C1187 0.929 . S
H1176 C1190 0.930 . S
H1177 C1192 0.960 . S
H1178 C1192 0.960 . S
H1179 C1192 0.960 . S
C1180 H1172 0.929 . S
C1180 C1181 1.377 . S
C1180 C1182 1.384 . S
C1181 C1180 1.377 . S
C1181 C1187 1.390 . S
C1182 H1173 0.930 . S
C1182 C1180 1.384 . S
C1182 C1183 1.372 . S
C1183 C1182 1.372 . S
C1183 C1184 1.400 . S
C1183 C1188 1.490 . S
C1184 H1174 0.930 . S
C1184 C1183 1.400 . S
C1184 C1187 1.386 . S
H1185 C1201 0.930 . S
H1186 C1202 0.931 . S
C1187 H1175 0.929 . S
C1187 C1181 1.390 . S
C1187 C1184 1.386 . S
C1188 C1183 1.490 . S
C1188 C1190 1.395 . S
C1188 C1191 1.403 . S
H1189 C1195 0.930 . S
C1190 H1176 0.930 . S
C1190 C1188 1.395 . S
C1190 C1193 1.403 . S
C1191 C1188 1.403 . S
C1191 C1192 1.524 . S
C1191 C1195 1.400 . S
C1192 H1177 0.960 . S
C1192 H1178 0.960 . S
C1192 H1179 0.960 . S
C1192 C1191 1.524 . S
C1193 C1190 1.403 . S
C1193 C1194 1.392 . S
C1193 C1197 1.495 . S
C1194 C1193 1.392 . S
C1194 C1195 1.385 . S
C1194 C1196 1.478 . S
C1195 H1189 0.930 . S
C1195 C1191 1.400 . S
C1195 C1194 1.385 . S
C1196 C1194 1.478 . S
C1196 C1198 1.381 . S
C1196 C1202 1.383 . S
C1197 C1193 1.495 . S
C1197 H1203 0.959 . S
C1197 H1204 0.961 . S
C1197 H1205 0.960 . S
C1198 C1196 1.381 . S
C1198 C1199 1.394 . S
C1198 H1206 0.930 . S
C1199 C1198 1.394 . S
C1199 C1200 1.383 . S
C1199 H1207 0.929 . S
C1200 C1199 1.383 . S
C1200 C1201 1.377 . S
C1201 H1185 0.930 . S
C1201 C1200 1.377 . S
C1201 C1202 1.379 . S
C1202 H1186 0.931 . S
C1202 C1196 1.383 . S
C1202 C1201 1.379 . S
H1203 C1197 0.959 . S
H1204 C1197 0.961 . S
H1205 C1197 0.960 . S
H1206 C1198 0.930 . S
H1207 C1199 0.929 . S
H1208 C1216 0.929 . S
H1209 C1218 0.930 . S
H1210 C1220 0.931 . S
H1211 C1223 0.929 . S
H1212 C1226 0.930 . S
H1213 C1228 0.960 . S
H1214 C1228 0.960 . S
H1215 C1228 0.960 . S
C1216 H1208 0.929 . S
C1216 C1217 1.387 . S
C1216 C1218 1.384 . S
C1217 C1216 1.387 . S
C1217 C1223 1.386 1_565 S
C1218 H1209 0.930 . S
C1218 C1216 1.384 . S
C1218 C1219 1.372 . S
C1219 C1218 1.372 . S
C1219 C1220 1.398 1_565 S
C1219 C1224 1.490 . S
C1220 H1210 0.931 . S
C1220 C1219 1.398 1_545 S
C1220 C1223 1.386 . S
H1221 C1237 0.926 1_545 S
H1222 C1238 0.932 1_545 S
C1223 H1211 0.929 . S
C1223 C1217 1.386 1_545 S
C1223 C1220 1.386 . S
C1224 C1219 1.490 . S
C1224 C1226 1.395 1_565 S
C1224 C1227 1.403 . S
H1225 C1231 0.930 . S
C1226 H1212 0.930 . S
C1226 C1224 1.395 1_545 S
C1226 C1229 1.403 . S
C1227 C1224 1.403 . S
C1227 C1228 1.524 . S
C1227 C1231 1.400 . S
C1228 H1213 0.960 . S
C1228 H1214 0.960 . S
C1228 H1215 0.960 . S
C1228 C1227 1.524 . S
C1229 C1226 1.403 . S
C1229 C1230 1.392 1_545 S
C1229 C1233 1.495 . S
C1230 C1229 1.392 1_565 S
C1230 C1231 1.385 . S
C1230 C1232 1.478 . S
C1231 H1225 0.930 . S
C1231 C1227 1.400 . S
C1231 C1230 1.385 . S
C1232 C1230 1.478 . S
C1232 C1234 1.381 . S
C1232 C1238 1.382 . S
C1233 C1229 1.495 . S
C1233 H1239 0.959 . S
C1233 H1240 0.961 . S
C1233 H1241 0.960 . S
C1234 C1232 1.381 . S
C1234 C1235 1.394 . S
C1234 H1242 0.930 . S
C1235 C1234 1.394 . S
C1235 C1236 1.383 . S
C1235 H1243 0.929 . S
C1236 C1235 1.383 . S
C1236 C1237 1.377 . S
C1237 H1221 0.926 1_565 S
C1237 C1236 1.377 . S
C1237 C1238 1.379 . S
C1238 H1222 0.932 1_565 S
C1238 C1232 1.382 . S
C1238 C1237 1.379 . S
H1239 C1233 0.959 . S
H1240 C1233 0.961 . S
H1241 C1233 0.960 . S
H1242 C1234 0.930 . S
H1243 C1235 0.929 . S
H1244 C1252 0.929 . S
H1245 C1254 0.930 . S
H1246 C1256 0.930 . S
H1247 C1259 0.929 . S
H1248 C1262 0.930 . S
H1249 C1264 0.960 . S
H1250 C1264 0.960 . S
H1251 C1264 0.960 . S
C1252 H1244 0.929 . S
C1252 C1253 1.377 . S
C1252 C1254 1.384 . S
C1253 C1252 1.377 . S
C1253 C1259 1.390 . S
C1254 H1245 0.930 . S
C1254 C1252 1.384 . S
C1254 C1255 1.372 . S
C1255 C1254 1.372 . S
C1255 C1256 1.400 . S
C1255 C1260 1.490 . S
C1256 H1246 0.930 . S
C1256 C1255 1.400 . S
C1256 C1259 1.386 . S
H1257 C1273 0.930 . S
H1258 C1274 0.931 . S
C1259 H1247 0.929 . S
C1259 C1253 1.390 . S
C1259 C1256 1.386 . S
C1260 C1255 1.490 . S
C1260 C1262 1.395 . S
C1260 C1263 1.403 . S
H1261 C1267 0.930 . S
C1262 H1248 0.930 . S
C1262 C1260 1.395 . S
C1262 C1265 1.403 . S
C1263 C1260 1.403 . S
C1263 C1264 1.524 . S
C1263 C1267 1.400 . S
C1264 H1249 0.960 . S
C1264 H1250 0.960 . S
C1264 H1251 0.960 . S
C1264 C1263 1.524 . S
C1265 C1262 1.403 . S
C1265 C1266 1.392 . S
C1265 C1269 1.495 . S
C1266 C1265 1.392 . S
C1266 C1267 1.385 . S
C1266 C1268 1.478 . S
C1267 H1261 0.930 . S
C1267 C1263 1.400 . S
C1267 C1266 1.385 . S
C1268 C1266 1.478 . S
C1268 C1270 1.381 . S
C1268 C1274 1.383 . S
C1269 C1265 1.495 . S
C1269 H1275 0.959 . S
C1269 H1276 0.961 . S
C1269 H1277 0.960 . S
C1270 C1268 1.381 . S
C1270 C1271 1.394 . S
C1270 H1278 0.930 . S
C1271 C1270 1.394 . S
C1271 C1272 1.383 . S
C1271 H1279 0.929 . S
C1272 C1271 1.383 . S
C1272 C1273 1.377 . S
C1273 H1257 0.930 . S
C1273 C1272 1.377 . S
C1273 C1274 1.379 . S
C1274 H1258 0.931 . S
C1274 C1268 1.383 . S
C1274 C1273 1.379 . S
H1275 C1269 0.959 . S
H1276 C1269 0.961 . S
H1277 C1269 0.960 . S
H1278 C1270 0.930 . S
H1279 C1271 0.929 . S
H1280 C1288 0.929 . S
H1281 C1290 0.930 . S
H1282 C1292 0.930 . S
H1283 C1295 0.929 . S
H1284 C1298 0.930 . S
H1285 C1300 0.960 . S
H1286 C1300 0.960 . S
H1287 C1300 0.960 . S
C1288 H1280 0.929 . S
C1288 C1289 1.377 . S
C1288 C1290 1.384 . S
C1289 C1288 1.377 . S
C1289 C1295 1.390 1_554 S
C1290 H1281 0.930 . S
C1290 C1288 1.384 . S
C1290 C1291 1.372 . S
C1291 C1290 1.372 . S
C1291 C1292 1.400 1_554 S
C1291 C1296 1.490 . S
C1292 H1282 0.930 . S
C1292 C1291 1.400 1_556 S
C1292 C1295 1.386 . S
H1293 C1309 0.930 . S
H1294 C1310 0.931 . S
C1295 H1283 0.929 . S
C1295 C1289 1.390 1_556 S
C1295 C1292 1.386 . S
C1296 C1291 1.490 . S
C1296 C1298 1.395 1_554 S
C1296 C1299 1.403 . S
H1297 C1303 0.930 . S
C1298 H1284 0.930 . S
C1298 C1296 1.395 1_556 S
C1298 C1301 1.403 . S
C1299 C1296 1.403 . S
C1299 C1300 1.524 . S
C1299 C1303 1.400 . S
C1300 H1285 0.960 . S
C1300 H1286 0.960 . S
C1300 H1287 0.960 . S
C1300 C1299 1.524 . S
C1301 C1298 1.403 . S
C1301 C1302 1.392 1_556 S
C1301 C1305 1.495 . S
C1302 C1301 1.392 1_554 S
C1302 C1303 1.385 . S
C1302 C1304 1.478 . S
C1303 H1297 0.930 . S
C1303 C1299 1.400 . S
C1303 C1302 1.385 . S
C1304 C1302 1.478 . S
C1304 C1306 1.381 . S
C1304 C1310 1.383 1_554 S
C1305 C1301 1.495 . S
C1305 H1311 0.959 . S
C1305 H1312 0.961 . S
C1305 H1313 0.960 . S
C1306 C1304 1.381 . S
C1306 C1307 1.394 . S
C1306 H1314 0.930 . S
C1307 C1306 1.394 . S
C1307 C1308 1.383 . S
C1307 H1315 0.929 . S
C1308 C1307 1.383 . S
C1308 C1309 1.377 1_554 S
C1309 H1293 0.930 . S
C1309 C1308 1.377 1_556 S
C1309 C1310 1.379 . S
C1310 H1294 0.931 . S
C1310 C1304 1.383 1_556 S
C1310 C1309 1.379 . S
H1311 C1305 0.959 . S
H1312 C1305 0.961 . S
H1313 C1305 0.960 . S
H1314 C1306 0.930 . S
H1315 C1307 0.929 . S
H1316 C1324 0.929 . S
H1317 C1326 0.930 . S
H1318 C1328 0.930 . S
H1319 C1331 0.929 . S
H1320 C1334 0.934 . S
H1321 C1336 0.960 . S
H1322 C1336 0.960 . S
H1323 C1336 0.960 . S
C1324 H1316 0.929 . S
C1324 C1325 1.377 1_556 S
C1324 C1326 1.384 . S
C1325 C1324 1.377 1_554 S
C1325 C1331 1.390 . S
C1326 H1317 0.930 . S
C1326 C1324 1.384 . S
C1326 C1327 1.372 1_556 S
C1327 C1326 1.372 1_554 S
C1327 C1328 1.400 . S
C1327 C1332 1.490 . S
C1328 H1318 0.930 . S
C1328 C1327 1.400 . S
C1328 C1331 1.386 . S
H1329 C1345 0.930 . S
H1330 C1346 0.931 . S
C1331 H1319 0.929 . S
C1331 C1325 1.390 . S
C1331 C1328 1.386 . S
C1332 C1327 1.490 . S
C1332 C1334 1.390 1_554 S
C1332 C1335 1.403 . S
H1333 C1339 0.930 . S
C1334 H1320 0.934 . S
C1334 C1332 1.390 1_556 S
C1334 C1337 1.403 1_556 S
C1335 C1332 1.403 . S
C1335 C1336 1.524 . S
C1335 C1339 1.400 . S
C1336 H1321 0.960 . S
C1336 H1322 0.960 . S
C1336 H1323 0.960 . S
C1336 C1335 1.524 . S
C1337 C1334 1.403 1_554 S
C1337 C1338 1.395 . S
C1337 C1341 1.492 1_554 S
C1338 C1337 1.395 . S
C1338 C1339 1.385 . S
C1338 C1340 1.478 . S
C1339 H1333 0.930 . S
C1339 C1335 1.400 . S
C1339 C1338 1.385 . S
C1340 C1338 1.478 . S
C1340 C1342 1.382 . S
C1340 C1346 1.383 . S
C1341 C1337 1.492 1_556 S
C1341 H1347 0.959 . S
C1341 H1348 0.961 . S
C1341 H1349 0.960 . S
C1342 C1340 1.382 . S
C1342 C1343 1.394 . S
C1342 H1350 0.929 1_554 S
C1343 C1342 1.394 . S
C1343 C1344 1.383 . S
C1343 H1351 0.929 1_554 S
C1344 C1343 1.383 . S
C1344 C1345 1.377 . S
C1345 H1329 0.930 . S
C1345 C1344 1.377 . S
C1345 C1346 1.379 . S
C1346 H1330 0.931 . S
C1346 C1340 1.383 . S
C1346 C1345 1.379 . S
H1347 C1341 0.959 . S
H1348 C1341 0.961 . S
H1349 C1341 0.960 . S
H1350 C1342 0.929 1_556 S
H1351 C1343 0.929 1_556 S
H1352 C1360 0.929 . S
H1353 C1362 0.930 . S
H1354 C1364 0.930 . S
H1355 C1367 0.929 . S
H1356 C1370 0.930 . S
H1357 C1372 0.960 . S
H1358 C1372 0.960 . S
H1359 C1372 0.960 . S
C1360 H1352 0.929 . S
C1360 C1361 1.377 . S
C1360 C1362 1.384 . S
C1361 C1360 1.377 . S
C1361 C1367 1.390 . S
C1362 H1353 0.930 . S
C1362 C1360 1.384 . S
C1362 C1363 1.372 . S
C1363 C1362 1.372 . S
C1363 C1364 1.400 . S
C1363 C1368 1.490 . S
C1364 H1354 0.930 . S
C1364 C1363 1.400 . S
C1364 C1367 1.386 . S
H1365 C1381 0.930 . S
H1366 C1382 0.931 . S
C1367 H1355 0.929 . S
C1367 C1361 1.390 . S
C1367 C1364 1.386 . S
C1368 C1363 1.490 . S
C1368 C1370 1.395 . S
C1368 C1371 1.403 . S
H1369 C1375 0.930 . S
C1370 H1356 0.930 . S
C1370 C1368 1.395 . S
C1370 C1373 1.403 . S
C1371 C1368 1.403 . S
C1371 C1372 1.524 . S
C1371 C1375 1.400 . S
C1372 H1357 0.960 . S
C1372 H1358 0.960 . S
C1372 H1359 0.960 . S
C1372 C1371 1.524 . S
C1373 C1370 1.403 . S
C1373 C1374 1.392 . S
C1373 C1377 1.495 . S
C1374 C1373 1.392 . S
C1374 C1375 1.385 . S
C1374 C1376 1.478 . S
C1375 H1369 0.930 . S
C1375 C1371 1.400 . S
C1375 C1374 1.385 . S
C1376 C1374 1.478 . S
C1376 C1378 1.381 . S
C1376 C1382 1.383 . S
C1377 C1373 1.495 . S
C1377 H1383 0.959 . S
C1377 H1384 0.961 . S
C1377 H1385 0.960 . S
C1378 C1376 1.381 . S
C1378 C1379 1.394 . S
C1378 H1386 0.930 . S
C1379 C1378 1.394 . S
C1379 C1380 1.383 . S
C1379 H1387 0.929 . S
C1380 C1379 1.383 . S
C1380 C1381 1.377 . S
C1381 H1365 0.930 . S
C1381 C1380 1.377 . S
C1381 C1382 1.379 . S
C1382 H1366 0.931 . S
C1382 C1376 1.383 . S
C1382 C1381 1.379 . S
H1383 C1377 0.959 . S
H1384 C1377 0.961 . S
H1385 C1377 0.960 . S
H1386 C1378 0.930 . S
H1387 C1379 0.929 . S
H1388 C1396 0.929 . S
H1389 C1398 0.930 . S
H1390 C1400 0.930 . S
H1391 C1403 0.929 . S
H1392 C1406 0.930 . S
H1393 C1408 0.960 . S
H1394 C1408 0.960 . S
H1395 C1408 0.960 . S
C1396 H1388 0.929 . S
C1396 C1397 1.377 . S
C1396 C1398 1.384 . S
C1397 C1396 1.377 . S
C1397 C1403 1.390 . S
C1398 H1389 0.930 . S
C1398 C1396 1.384 . S
C1398 C1399 1.372 . S
C1399 C1398 1.372 . S
C1399 C1400 1.400 . S
C1399 C1404 1.490 . S
C1400 H1390 0.930 . S
C1400 C1399 1.400 . S
C1400 C1403 1.386 . S
H1401 C1417 0.930 . S
H1402 C1418 0.931 . S
C1403 H1391 0.929 . S
C1403 C1397 1.390 . S
C1403 C1400 1.386 . S
C1404 C1399 1.490 . S
C1404 C1406 1.395 . S
C1404 C1407 1.403 . S
H1405 C1411 0.930 . S
C1406 H1392 0.930 . S
C1406 C1404 1.395 . S
C1406 C1409 1.403 . S
C1407 C1404 1.403 . S
C1407 C1408 1.524 . S
C1407 C1411 1.400 . S
C1408 H1393 0.960 . S
C1408 H1394 0.960 . S
C1408 H1395 0.960 . S
C1408 C1407 1.524 . S
C1409 C1406 1.403 . S
C1409 C1410 1.392 . S
C1409 C1413 1.495 . S
C1410 C1409 1.392 . S
C1410 C1411 1.385 . S
C1410 C1412 1.478 . S
C1411 H1405 0.930 . S
C1411 C1407 1.400 . S
C1411 C1410 1.385 . S
C1412 C1410 1.478 . S
C1412 C1414 1.381 . S
C1412 C1418 1.383 . S
C1413 C1409 1.495 . S
C1413 H1419 0.959 . S
C1413 H1420 0.961 . S
C1413 H1421 0.960 . S
C1414 C1412 1.381 . S
C1414 C1415 1.394 . S
C1414 H1422 0.930 . S
C1415 C1414 1.394 . S
C1415 C1416 1.383 . S
C1415 H1423 0.929 . S
C1416 C1415 1.383 . S
C1416 C1417 1.377 . S
C1417 H1401 0.930 . S
C1417 C1416 1.377 . S
C1417 C1418 1.379 . S
C1418 H1402 0.931 . S
C1418 C1412 1.383 . S
C1418 C1417 1.379 . S
H1419 C1413 0.959 . S
H1420 C1413 0.961 . S
H1421 C1413 0.960 . S
H1422 C1414 0.930 . S
H1423 C1415 0.929 . S
H1424 C1432 0.929 . S
H1425 C1434 0.930 . S
H1426 C1436 0.930 . S
H1427 C1439 0.929 . S
H1428 C1442 0.930 . S
H1429 C1444 0.960 . S
H1430 C1444 0.960 . S
H1431 C1444 0.960 . S
C1432 H1424 0.929 . S
C1432 C1433 1.377 . S
C1432 C1434 1.384 . S
C1433 C1432 1.377 . S
C1433 C1439 1.390 . S
C1434 H1425 0.930 . S
C1434 C1432 1.384 . S
C1434 C1435 1.372 . S
C1435 C1434 1.372 . S
C1435 C1436 1.400 . S
C1435 C1440 1.490 . S
C1436 H1426 0.930 . S
C1436 C1435 1.400 . S
C1436 C1439 1.386 . S
H1437 C1453 0.930 . S
H1438 C1454 0.931 . S
C1439 H1427 0.929 . S
C1439 C1433 1.390 . S
C1439 C1436 1.386 . S
C1440 C1435 1.490 . S
C1440 C1442 1.395 . S
C1440 C1443 1.403 . S
H1441 C1447 0.930 . S
C1442 H1428 0.930 . S
C1442 C1440 1.395 . S
C1442 C1445 1.403 . S
C1443 C1440 1.403 . S
C1443 C1444 1.524 . S
C1443 C1447 1.400 . S
C1444 H1429 0.960 . S
C1444 H1430 0.960 . S
C1444 H1431 0.960 . S
C1444 C1443 1.524 . S
C1445 C1442 1.403 . S
C1445 C1446 1.392 . S
C1445 C1449 1.495 . S
C1446 C1445 1.392 . S
C1446 C1447 1.385 . S
C1446 C1448 1.478 . S
C1447 H1441 0.930 . S
C1447 C1443 1.400 . S
C1447 C1446 1.385 . S
C1448 C1446 1.478 . S
C1448 C1450 1.381 . S
C1448 C1454 1.383 . S
C1449 C1445 1.495 . S
C1449 H1455 0.959 . S
C1449 H1456 0.961 . S
C1449 H1457 0.960 . S
C1450 C1448 1.381 . S
C1450 C1451 1.394 . S
C1450 H1458 0.930 . S
C1451 C1450 1.394 . S
C1451 C1452 1.383 . S
C1451 H1459 0.929 . S
C1452 C1451 1.383 . S
C1452 C1453 1.377 . S
C1453 H1437 0.930 . S
C1453 C1452 1.377 . S
C1453 C1454 1.379 . S
C1454 H1438 0.931 . S
C1454 C1448 1.383 . S
C1454 C1453 1.379 . S
H1455 C1449 0.959 . S
H1456 C1449 0.961 . S
H1457 C1449 0.960 . S
H1458 C1450 0.930 . S
H1459 C1451 0.929 . S
H1460 C1468 0.929 . S
H1461 C1470 0.930 . S
H1462 C1472 0.930 . S
H1463 C1475 0.929 . S
H1464 C1478 0.930 . S
H1465 C1480 0.960 . S
H1466 C1480 0.960 . S
H1467 C1480 0.960 . S
C1468 H1460 0.929 . S
C1468 C1469 1.377 . S
C1468 C1470 1.384 . S
C1469 C1468 1.377 . S
C1469 C1475 1.390 . S
C1470 H1461 0.930 . S
C1470 C1468 1.384 . S
C1470 C1471 1.372 . S
C1471 C1470 1.372 . S
C1471 C1472 1.400 . S
C1471 C1476 1.490 . S
C1472 H1462 0.930 . S
C1472 C1471 1.400 . S
C1472 C1475 1.386 . S
H1473 C1489 0.930 1_545 S
H1474 C1490 0.931 . S
C1475 H1463 0.929 . S
C1475 C1469 1.390 . S
C1475 C1472 1.386 . S
C1476 C1471 1.490 . S
C1476 C1478 1.395 . S
C1476 C1479 1.403 . S
H1477 C1483 0.930 . S
C1478 H1464 0.930 . S
C1478 C1476 1.395 . S
C1478 C1481 1.403 . S
C1479 C1476 1.403 . S
C1479 C1480 1.524 . S
C1479 C1483 1.400 . S
C1480 H1465 0.960 . S
C1480 H1466 0.960 . S
C1480 H1467 0.960 . S
C1480 C1479 1.524 . S
C1481 C1478 1.403 . S
C1481 C1482 1.392 . S
C1481 C1485 1.495 . S
C1482 C1481 1.392 . S
C1482 C1483 1.385 . S
C1482 C1484 1.478 . S
C1483 H1477 0.930 . S
C1483 C1479 1.400 . S
C1483 C1482 1.385 . S
C1484 C1482 1.478 . S
C1484 C1486 1.381 . S
C1484 C1490 1.383 . S
C1485 C1481 1.495 . S
C1485 H1491 0.959 . S
C1485 H1492 0.961 . S
C1485 H1493 0.960 . S
C1486 C1484 1.381 . S
C1486 C1487 1.394 . S
C1486 H1494 0.930 . S
C1487 C1486 1.394 . S
C1487 C1488 1.391 . S
C1487 H1495 0.929 . S
C1488 C1487 1.391 . S
C1488 C1489 1.379 . S
C1489 H1473 0.930 1_565 S
C1489 C1488 1.379 . S
C1489 C1490 1.379 . S
C1490 H1474 0.931 . S
C1490 C1484 1.383 . S
C1490 C1489 1.379 . S
H1491 C1485 0.959 . S
H1492 C1485 0.961 . S
H1493 C1485 0.960 . S
H1494 C1486 0.930 . S
H1495 C1487 0.929 . S
H1496 C1504 0.929 . S
H1497 C1506 0.930 . S
H1498 C1508 0.930 . S
H1499 C1511 0.929 . S
H1500 C1514 0.930 . S
H1501 C1516 0.960 . S
H1502 C1516 0.960 . S
H1503 C1516 0.960 . S
C1504 H1496 0.929 . S
C1504 C1505 1.377 . S
C1504 C1506 1.384 . S
C1505 C1504 1.377 . S
C1505 C1511 1.390 . S
C1506 H1497 0.930 . S
C1506 C1504 1.384 . S
C1506 C1507 1.372 . S
C1507 C1506 1.372 . S
C1507 C1508 1.400 . S
C1507 C1512 1.490 . S
C1508 H1498 0.930 . S
C1508 C1507 1.400 . S
C1508 C1511 1.386 . S
H1509 C1525 0.930 . S
H1510 C1526 0.931 . S
C1511 H1499 0.929 . S
C1511 C1505 1.390 . S
C1511 C1508 1.386 . S
C1512 C1507 1.490 . S
C1512 C1514 1.395 . S
C1512 C1515 1.403 . S
H1513 C1519 0.930 . S
C1514 H1500 0.930 . S
C1514 C1512 1.395 . S
C1514 C1517 1.403 . S
C1515 C1512 1.403 . S
C1515 C1516 1.524 . S
C1515 C1519 1.400 . S
C1516 H1501 0.960 . S
C1516 H1502 0.960 . S
C1516 H1503 0.960 . S
C1516 C1515 1.524 . S
C1517 C1514 1.403 . S
C1517 C1518 1.392 . S
C1517 C1521 1.495 . S
C1518 C1517 1.392 . S
C1518 C1519 1.385 . S
C1518 C1520 1.478 . S
C1519 H1513 0.930 . S
C1519 C1515 1.400 . S
C1519 C1518 1.385 . S
C1520 C1518 1.478 . S
C1520 C1522 1.381 . S
C1520 C1526 1.383 . S
C1521 C1517 1.495 . S
C1521 H1527 0.959 . S
C1521 H1528 0.961 . S
C1521 H1529 0.960 . S
C1522 C1520 1.381 . S
C1522 C1523 1.394 . S
C1522 H1530 0.930 . S
C1523 C1522 1.394 . S
C1523 C1524 1.383 . S
C1523 H1531 0.929 . S
C1524 C1523 1.383 . S
C1524 C1525 1.377 . S
C1525 H1509 0.930 . S
C1525 C1524 1.377 . S
C1525 C1526 1.379 . S
C1526 H1510 0.931 . S
C1526 C1520 1.383 . S
C1526 C1525 1.379 . S
H1527 C1521 0.959 . S
H1528 C1521 0.961 . S
H1529 C1521 0.960 . S
H1530 C1522 0.930 . S
H1531 C1523 0.929 . S
H1532 C1540 0.929 . S
H1533 C1542 0.930 . S
H1534 C1544 0.930 . S
H1535 C1547 0.929 . S
H1536 C1550 0.930 . S
H1537 C1552 0.960 . S
H1538 C1552 0.960 . S
H1539 C1552 0.960 . S
C1540 H1532 0.929 . S
C1540 C1541 1.377 . S
C1540 C1542 1.384 . S
C1541 C1540 1.377 . S
C1541 C1547 1.390 . S
C1542 H1533 0.930 . S
C1542 C1540 1.384 . S
C1542 C1543 1.372 . S
C1543 C1542 1.372 . S
C1543 C1544 1.400 . S
C1543 C1548 1.490 . S
C1544 H1534 0.930 . S
C1544 C1543 1.400 . S
C1544 C1547 1.386 . S
H1545 C1561 0.930 . S
H1546 C1562 0.931 . S
C1547 H1535 0.929 . S
C1547 C1541 1.390 . S
C1547 C1544 1.386 . S
C1548 C1543 1.490 . S
C1548 C1550 1.395 . S
C1548 C1551 1.403 . S
H1549 C1555 0.930 . S
C1550 H1536 0.930 . S
C1550 C1548 1.395 . S
C1550 C1553 1.403 . S
C1551 C1548 1.403 . S
C1551 C1552 1.524 . S
C1551 C1555 1.400 . S
C1552 H1537 0.960 . S
C1552 H1538 0.960 . S
C1552 H1539 0.960 . S
C1552 C1551 1.524 . S
C1553 C1550 1.403 . S
C1553 C1554 1.392 . S
C1553 C1557 1.495 . S
C1554 C1553 1.392 . S
C1554 C1555 1.385 . S
C1554 C1556 1.478 . S
C1555 H1549 0.930 . S
C1555 C1551 1.400 . S
C1555 C1554 1.385 . S
C1556 C1554 1.478 . S
C1556 C1558 1.381 . S
C1556 C1562 1.383 . S
C1557 C1553 1.495 . S
C1557 H1563 0.959 . S
C1557 H1564 0.961 . S
C1557 H1565 0.960 . S
C1558 C1556 1.381 . S
C1558 C1559 1.394 . S
C1558 H1566 0.930 . S
C1559 C1558 1.394 . S
C1559 C1560 1.383 . S
C1559 H1567 0.929 . S
C1560 C1559 1.383 . S
C1560 C1561 1.377 . S
C1561 H1545 0.930 . S
C1561 C1560 1.377 . S
C1561 C1562 1.379 . S
C1562 H1546 0.931 . S
C1562 C1556 1.383 . S
C1562 C1561 1.379 . S
H1563 C1557 0.959 . S
H1564 C1557 0.961 . S
H1565 C1557 0.960 . S
H1566 C1558 0.930 . S
H1567 C1559 0.929 . S
H1568 C1576 0.929 . S
H1569 C1578 0.930 . S
H1570 C1580 0.930 . S
H1571 C1583 0.929 . S
H1572 C1586 0.930 . S
H1573 C1588 0.960 . S
H1574 C1588 0.960 . S
H1575 C1588 0.960 . S
C1576 H1568 0.929 . S
C1576 C1577 1.377 . S
C1576 C1578 1.384 . S
C1577 C1576 1.377 . S
C1577 C1583 1.390 1_455 S
C1578 H1569 0.930 . S
C1578 C1576 1.384 . S
C1578 C1579 1.372 . S
C1579 C1578 1.372 . S
C1579 C1580 1.400 1_455 S
C1579 C1584 1.490 . S
C1580 H1570 0.930 . S
C1580 C1579 1.400 1_655 S
C1580 C1583 1.386 . S
H1581 C1597 0.930 1_655 S
H1582 C1598 0.931 1_655 S
C1583 H1571 0.929 . S
C1583 C1577 1.390 1_655 S
C1583 C1580 1.386 . S
C1584 C1579 1.490 . S
C1584 C1586 1.395 . S
C1584 C1587 1.403 1_455 S
H1585 C1591 0.930 . S
C1586 H1572 0.930 . S
C1586 C1584 1.395 . S
C1586 C1589 1.403 . S
C1587 C1584 1.403 1_655 S
C1587 C1588 1.524 . S
C1587 C1591 1.400 . S
C1588 H1573 0.960 . S
C1588 H1574 0.960 . S
C1588 H1575 0.960 . S
C1588 C1587 1.524 . S
C1589 C1586 1.403 . S
C1589 C1590 1.392 . S
C1589 C1593 1.495 . S
C1590 C1589 1.392 . S
C1590 C1591 1.385 1_455 S
C1590 C1592 1.478 . S
C1591 H1585 0.930 . S
C1591 C1587 1.400 . S
C1591 C1590 1.385 1_655 S
C1592 C1590 1.478 . S
C1592 C1594 1.381 . S
C1592 C1598 1.383 . S
C1593 C1589 1.495 . S
C1593 H1599 0.959 . S
C1593 H1600 0.961 . S
C1593 H1601 0.960 . S
C1594 C1592 1.381 . S
C1594 C1595 1.394 . S
C1594 H1602 0.930 . S
C1595 C1594 1.394 . S
C1595 C1596 1.383 . S
C1595 H1603 0.929 1_556 S
C1596 C1595 1.383 . S
C1596 C1597 1.377 . S
C1597 H1581 0.930 1_455 S
C1597 C1596 1.377 . S
C1597 C1598 1.379 . S
C1598 H1582 0.931 1_455 S
C1598 C1592 1.383 . S
C1598 C1597 1.379 . S
H1599 C1593 0.959 . S
H1600 C1593 0.961 . S
H1601 C1593 0.960 . S
H1602 C1594 0.930 . S
H1603 C1595 0.929 1_554 S
H1604 C1612 0.929 . S
H1605 C1614 0.930 . S
H1606 C1616 0.930 . S
H1607 C1619 0.929 . S
H1608 C1622 0.930 . S
H1609 C1624 0.960 . S
H1610 C1624 0.960 . S
H1611 C1624 0.960 . S
C1612 H1604 0.929 . S
C1612 C1613 1.377 . S
C1612 C1614 1.384 . S
C1613 C1612 1.377 . S
C1613 C1619 1.390 . S
C1614 H1605 0.930 . S
C1614 C1612 1.384 . S
C1614 C1615 1.372 . S
C1615 C1614 1.372 . S
C1615 C1616 1.400 . S
C1615 C1620 1.490 . S
C1616 H1606 0.930 . S
C1616 C1615 1.400 . S
C1616 C1619 1.386 . S
H1617 C1633 0.930 . S
H1618 C1634 0.931 . S
C1619 H1607 0.929 . S
C1619 C1613 1.390 . S
C1619 C1616 1.386 . S
C1620 C1615 1.490 . S
C1620 C1622 1.395 . S
C1620 C1623 1.403 . S
H1621 C1627 0.930 . S
C1622 H1608 0.930 . S
C1622 C1620 1.395 . S
C1622 C1625 1.403 . S
C1623 C1620 1.403 . S
C1623 C1624 1.524 . S
C1623 C1627 1.400 . S
C1624 H1609 0.960 . S
C1624 H1610 0.960 . S
C1624 H1611 0.960 . S
C1624 C1623 1.524 . S
C1625 C1622 1.403 . S
C1625 C1626 1.392 . S
C1625 C1629 1.495 . S
C1626 C1625 1.392 . S
C1626 C1627 1.385 . S
C1626 C1628 1.478 . S
C1627 H1621 0.930 . S
C1627 C1623 1.400 . S
C1627 C1626 1.385 . S
C1628 C1626 1.478 . S
C1628 C1630 1.381 . S
C1628 C1634 1.383 . S
C1629 C1625 1.495 . S
C1629 H1635 0.959 . S
C1629 H1636 0.961 . S
C1629 H1637 0.960 . S
C1630 C1628 1.381 . S
C1630 C1631 1.394 . S
C1630 H1638 0.930 . S
C1631 C1630 1.394 . S
C1631 C1632 1.383 . S
C1631 H1639 0.929 . S
C1632 C1631 1.383 . S
C1632 C1633 1.377 . S
C1633 H1617 0.930 . S
C1633 C1632 1.377 . S
C1633 C1634 1.379 . S
C1634 H1618 0.931 . S
C1634 C1628 1.383 . S
C1634 C1633 1.379 . S
H1635 C1629 0.959 . S
H1636 C1629 0.961 . S
H1637 C1629 0.960 . S
H1638 C1630 0.930 . S
H1639 C1631 0.929 . S
H1640 C1648 0.929 . S
H1641 C1650 0.930 . S
H1642 C1652 0.930 . S
H1643 C1655 0.929 . S
H1644 C1658 0.930 . S
H1645 C1660 0.960 . S
H1646 C1660 0.960 . S
H1647 C1660 0.960 . S
C1648 H1640 0.929 . S
C1648 C1649 1.377 . S
C1648 C1650 1.384 . S
C1649 C1648 1.377 . S
C1649 C1655 1.390 . S
C1650 H1641 0.930 . S
C1650 C1648 1.384 . S
C1650 C1651 1.372 . S
C1651 C1650 1.372 . S
C1651 C1652 1.400 . S
C1651 C1656 1.490 . S
C1652 H1642 0.930 . S
C1652 C1651 1.400 . S
C1652 C1655 1.386 . S
H1653 C1669 0.930 . S
H1654 C1670 0.931 . S
C1655 H1643 0.929 . S
C1655 C1649 1.390 . S
C1655 C1652 1.386 . S
C1656 C1651 1.490 . S
C1656 C1658 1.395 . S
C1656 C1659 1.403 . S
H1657 C1663 0.930 . S
C1658 H1644 0.930 . S
C1658 C1656 1.395 . S
C1658 C1661 1.403 . S
C1659 C1656 1.403 . S
C1659 C1660 1.524 . S
C1659 C1663 1.400 . S
C1660 H1645 0.960 . S
C1660 H1646 0.960 . S
C1660 H1647 0.960 . S
C1660 C1659 1.524 . S
C1661 C1658 1.403 . S
C1661 C1662 1.392 . S
C1661 C1665 1.495 . S
C1662 C1661 1.392 . S
C1662 C1663 1.385 . S
C1662 C1664 1.478 . S
C1663 H1657 0.930 . S
C1663 C1659 1.400 . S
C1663 C1662 1.385 . S
C1664 C1662 1.478 . S
C1664 C1666 1.381 . S
C1664 C1670 1.383 . S
C1665 C1661 1.495 . S
C1665 H1671 0.959 . S
C1665 H1672 0.961 . S
C1665 H1673 0.960 . S
C1666 C1664 1.381 . S
C1666 C1667 1.394 . S
C1666 H1674 0.930 . S
C1667 C1666 1.394 . S
C1667 C1668 1.383 . S
C1667 H1675 0.929 . S
C1668 C1667 1.383 . S
C1668 C1669 1.377 . S
C1669 H1653 0.930 . S
C1669 C1668 1.377 . S
C1669 C1670 1.379 . S
C1670 H1654 0.931 . S
C1670 C1664 1.383 . S
C1670 C1669 1.379 . S
H1671 C1665 0.959 . S
H1672 C1665 0.961 . S
H1673 C1665 0.960 . S
H1674 C1666 0.930 . S
H1675 C1667 0.929 . S
H1676 C1684 0.929 . S
H1677 C1686 0.930 . S
H1678 C1688 0.930 . S
H1679 C1691 0.929 . S
H1680 C1694 0.930 . S
H1681 C1696 0.960 . S
H1682 C1696 0.960 . S
H1683 C1696 0.960 . S
C1684 H1676 0.929 . S
C1684 C1685 1.377 . S
C1684 C1686 1.384 . S
C1685 C1684 1.377 . S
C1685 C1691 1.390 . S
C1686 H1677 0.930 . S
C1686 C1684 1.384 . S
C1686 C1687 1.372 . S
C1687 C1686 1.372 . S
C1687 C1688 1.400 . S
C1687 C1692 1.490 . S
C1688 H1678 0.930 . S
C1688 C1687 1.400 . S
C1688 C1691 1.386 . S
H1689 C1705 0.930 . S
H1690 C1706 0.931 . S
C1691 H1679 0.929 . S
C1691 C1685 1.390 . S
C1691 C1688 1.386 . S
C1692 C1687 1.490 . S
C1692 C1694 1.395 . S
C1692 C1695 1.403 . S
H1693 C1699 0.930 . S
C1694 H1680 0.930 . S
C1694 C1692 1.395 . S
C1694 C1697 1.403 . S
C1695 C1692 1.403 . S
C1695 C1696 1.524 . S
C1695 C1699 1.400 . S
C1696 H1681 0.960 . S
C1696 H1682 0.960 . S
C1696 H1683 0.960 . S
C1696 C1695 1.524 . S
C1697 C1694 1.403 . S
C1697 C1698 1.392 . S
C1697 C1701 1.495 . S
C1698 C1697 1.392 . S
C1698 C1699 1.385 . S
C1698 C1700 1.478 . S
C1699 H1693 0.930 . S
C1699 C1695 1.400 . S
C1699 C1698 1.385 . S
C1700 C1698 1.478 . S
C1700 C1702 1.381 . S
C1700 C1706 1.383 . S
C1701 C1697 1.495 . S
C1701 H1707 0.959 . S
C1701 H1708 0.961 . S
C1701 H1709 0.960 . S
C1702 C1700 1.381 . S
C1702 C1703 1.394 . S
C1702 H1710 0.930 . S
C1703 C1702 1.394 . S
C1703 C1704 1.383 . S
C1703 H1711 0.929 . S
C1704 C1703 1.383 . S
C1704 C1705 1.377 . S
C1705 H1689 0.930 . S
C1705 C1704 1.377 . S
C1705 C1706 1.379 . S
C1706 H1690 0.931 . S
C1706 C1700 1.383 . S
C1706 C1705 1.379 . S
H1707 C1701 0.959 . S
H1708 C1701 0.961 . S
H1709 C1701 0.960 . S
H1710 C1702 0.930 . S
H1711 C1703 0.929 . S
H1712 C1720 0.929 . S
H1713 C1722 0.930 . S
H1714 C1724 0.930 . S
H1715 C1727 0.929 . S
H1716 C1730 0.930 . S
H1717 C1732 0.960 . S
H1718 C1732 0.960 1_455 S
H1719 C1732 0.960 . S
C1720 H1712 0.929 . S
C1720 C1721 1.377 . S
C1720 C1722 1.384 . S
C1721 C1720 1.377 . S
C1721 C1727 1.390 1_455 S
C1722 H1713 0.930 . S
C1722 C1720 1.384 . S
C1722 C1723 1.372 . S
C1723 C1722 1.372 . S
C1723 C1724 1.400 1_455 S
C1723 C1728 1.490 . S
C1724 H1714 0.930 . S
C1724 C1723 1.400 1_655 S
C1724 C1727 1.386 . S
H1725 C1741 0.930 1_655 S
H1726 C1742 0.931 1_655 S
C1727 H1715 0.929 . S
C1727 C1721 1.390 1_655 S
C1727 C1724 1.386 . S
C1728 C1723 1.490 . S
C1728 C1730 1.395 . S
C1728 C1731 1.403 . S
H1729 C1735 0.930 . S
C1730 H1716 0.930 . S
C1730 C1728 1.395 . S
C1730 C1733 1.403 . S
C1731 C1728 1.403 . S
C1731 C1732 1.524 1_455 S
C1731 C1735 1.400 . S
C1732 H1717 0.960 . S
C1732 H1718 0.960 1_655 S
C1732 H1719 0.960 . S
C1732 C1731 1.524 1_655 S
C1733 C1730 1.403 . S
C1733 C1734 1.392 . S
C1733 C1737 1.495 . S
C1734 C1733 1.392 . S
C1734 C1735 1.385 . S
C1734 C1736 1.478 . S
C1735 H1729 0.930 . S
C1735 C1731 1.400 . S
C1735 C1734 1.385 . S
C1736 C1734 1.478 . S
C1736 C1738 1.381 . S
C1736 C1742 1.383 . S
C1737 C1733 1.495 . S
C1737 H1743 0.959 . S
C1737 H1744 0.961 . S
C1737 H1745 0.960 . S
C1738 C1736 1.381 . S
C1738 C1739 1.394 . S
C1738 H1746 0.930 . S
C1739 C1738 1.394 . S
C1739 C1740 1.383 . S
C1739 H1747 0.929 . S
C1740 C1739 1.383 . S
C1740 C1741 1.377 . S
C1741 H1725 0.930 1_455 S
C1741 C1740 1.377 . S
C1741 C1742 1.379 . S
C1742 H1726 0.931 1_455 S
C1742 C1736 1.383 . S
C1742 C1741 1.379 . S
H1743 C1737 0.959 . S
H1744 C1737 0.961 . S
H1745 C1737 0.960 . S
H1746 C1738 0.930 . S
H1747 C1739 0.929 . S
H1748 C1756 0.929 . S
H1749 C1758 0.930 . S
H1750 C1760 0.930 . S
H1751 C1763 0.929 . S
H1752 C1766 0.930 . S
H1753 C1768 0.960 . S
H1754 C1768 0.960 . S
H1755 C1768 0.960 . S
C1756 H1748 0.929 . S
C1756 C1757 1.377 . S
C1756 C1758 1.384 . S
C1757 C1756 1.377 . S
C1757 C1763 1.390 . S
C1758 H1749 0.930 . S
C1758 C1756 1.384 . S
C1758 C1759 1.372 . S
C1759 C1758 1.372 . S
C1759 C1760 1.400 . S
C1759 C1764 1.490 . S
C1760 H1750 0.930 . S
C1760 C1759 1.400 . S
C1760 C1763 1.386 . S
H1761 C1777 0.930 . S
H1762 C1778 0.931 . S
C1763 H1751 0.929 . S
C1763 C1757 1.390 . S
C1763 C1760 1.386 . S
C1764 C1759 1.490 . S
C1764 C1766 1.395 . S
C1764 C1767 1.403 . S
H1765 C1771 0.930 . S
C1766 H1752 0.930 . S
C1766 C1764 1.395 . S
C1766 C1769 1.403 . S
C1767 C1764 1.403 . S
C1767 C1768 1.524 . S
C1767 C1771 1.400 . S
C1768 H1753 0.960 . S
C1768 H1754 0.960 . S
C1768 H1755 0.960 . S
C1768 C1767 1.524 . S
C1769 C1766 1.403 . S
C1769 C1770 1.392 . S
C1769 C1773 1.495 . S
C1770 C1769 1.392 . S
C1770 C1771 1.385 . S
C1770 C1772 1.478 . S
C1771 H1765 0.930 . S
C1771 C1767 1.400 . S
C1771 C1770 1.385 . S
C1772 C1770 1.478 . S
C1772 C1774 1.381 . S
C1772 C1778 1.383 . S
C1773 C1769 1.495 . S
C1773 H1779 0.959 . S
C1773 H1780 0.961 . S
C1773 H1781 0.960 . S
C1774 C1772 1.381 . S
C1774 C1775 1.394 . S
C1774 H1782 0.930 . S
C1775 C1774 1.394 . S
C1775 C1776 1.383 . S
C1775 H1783 0.929 . S
C1776 C1775 1.383 . S
C1776 C1777 1.377 . S
C1777 H1761 0.930 . S
C1777 C1776 1.377 . S
C1777 C1778 1.379 . S
C1778 H1762 0.931 . S
C1778 C1772 1.383 . S
C1778 C1777 1.379 . S
H1779 C1773 0.959 . S
H1780 C1773 0.961 . S
H1781 C1773 0.960 . S
H1782 C1774 0.930 . S
H1783 C1775 0.929 . S
H1784 C1792 0.929 . S
H1785 C1794 0.930 . S
H1786 C1796 0.930 . S
H1787 C1799 0.929 . S
H1788 C1802 0.930 . S
H1789 C1804 0.960 . S
H1790 C1804 0.960 . S
H1791 C1804 0.960 . S
C1792 H1784 0.929 . S
C1792 C1793 1.377 . S
C1792 C1794 1.384 . S
C1793 C1792 1.377 . S
C1793 C1799 1.390 . S
C1794 H1785 0.930 . S
C1794 C1792 1.384 . S
C1794 C1795 1.372 . S
C1795 C1794 1.372 . S
C1795 C1796 1.400 . S
C1795 C1800 1.490 . S
C1796 H1786 0.930 . S
C1796 C1795 1.400 . S
C1796 C1799 1.386 . S
H1797 C1813 0.930 . S
H1798 C1814 0.931 . S
C1799 H1787 0.929 . S
C1799 C1793 1.390 . S
C1799 C1796 1.386 . S
C1800 C1795 1.490 . S
C1800 C1802 1.395 . S
C1800 C1803 1.403 . S
H1801 C1807 0.930 . S
C1802 H1788 0.930 . S
C1802 C1800 1.395 . S
C1802 C1805 1.403 . S
C1803 C1800 1.403 . S
C1803 C1804 1.524 . S
C1803 C1807 1.400 . S
C1804 H1789 0.960 . S
C1804 H1790 0.960 . S
C1804 H1791 0.960 . S
C1804 C1803 1.524 . S
C1805 C1802 1.403 . S
C1805 C1806 1.392 . S
C1805 C1809 1.495 . S
C1806 C1805 1.392 . S
C1806 C1807 1.385 . S
C1806 C1808 1.478 . S
C1807 H1801 0.930 . S
C1807 C1803 1.400 . S
C1807 C1806 1.385 . S
C1808 C1806 1.478 . S
C1808 C1810 1.381 . S
C1808 C1814 1.383 . S
C1809 C1805 1.495 . S
C1809 H1815 0.959 . S
C1809 H1816 0.961 . S
C1809 H1817 0.960 . S
C1810 C1808 1.381 . S
C1810 C1811 1.394 . S
C1810 H1818 0.930 . S
C1811 C1810 1.394 . S
C1811 C1812 1.383 . S
C1811 H1819 0.929 . S
C1812 C1811 1.383 . S
C1812 C1813 1.377 . S
C1813 H1797 0.930 . S
C1813 C1812 1.377 . S
C1813 C1814 1.379 . S
C1814 H1798 0.931 . S
C1814 C1808 1.383 . S
C1814 C1813 1.379 . S
H1815 C1809 0.959 . S
H1816 C1809 0.961 . S
H1817 C1809 0.960 . S
H1818 C1810 0.930 . S
H1819 C1811 0.929 . S
H1820 C1828 0.929 . S
H1821 C1830 0.930 . S
H1822 C1832 0.930 . S
H1823 C1835 0.929 . S
H1824 C1838 0.930 . S
H1825 C1840 0.960 . S
H1826 C1840 0.960 . S
H1827 C1840 0.960 . S
C1828 H1820 0.929 . S
C1828 C1829 1.377 . S
C1828 C1830 1.384 . S
C1829 C1828 1.377 . S
C1829 C1835 1.390 . S
C1830 H1821 0.930 . S
C1830 C1828 1.384 . S
C1830 C1831 1.372 . S
C1831 C1830 1.372 . S
C1831 C1832 1.400 . S
C1831 C1836 1.490 . S
C1832 H1822 0.930 . S
C1832 C1831 1.400 . S
C1832 C1835 1.386 . S
H1833 C1849 0.930 . S
H1834 C1850 0.931 . S
C1835 H1823 0.929 . S
C1835 C1829 1.390 . S
C1835 C1832 1.386 . S
C1836 C1831 1.490 . S
C1836 C1838 1.395 . S
C1836 C1839 1.403 . S
H1837 C1843 0.930 . S
C1838 H1824 0.930 . S
C1838 C1836 1.395 . S
C1838 C1841 1.403 . S
C1839 C1836 1.403 . S
C1839 C1840 1.524 . S
C1839 C1843 1.400 . S
C1840 H1825 0.960 . S
C1840 H1826 0.960 . S
C1840 H1827 0.960 . S
C1840 C1839 1.524 . S
C1841 C1838 1.403 . S
C1841 C1842 1.392 . S
C1841 C1845 1.495 . S
C1842 C1841 1.392 . S
C1842 C1843 1.385 . S
C1842 C1844 1.478 . S
C1843 H1837 0.930 . S
C1843 C1839 1.400 . S
C1843 C1842 1.385 . S
C1844 C1842 1.478 . S
C1844 C1846 1.381 . S
C1844 C1850 1.383 . S
C1845 C1841 1.495 . S
C1845 H1851 0.959 . S
C1845 H1852 0.961 . S
C1845 H1853 0.960 . S
C1846 C1844 1.381 . S
C1846 C1847 1.394 . S
C1846 H1854 0.930 . S
C1847 C1846 1.394 . S
C1847 C1848 1.383 . S
C1847 H1855 0.929 . S
C1848 C1847 1.383 . S
C1848 C1849 1.377 . S
C1849 H1833 0.930 . S
C1849 C1848 1.377 . S
C1849 C1850 1.379 . S
C1850 H1834 0.931 . S
C1850 C1844 1.383 . S
C1850 C1849 1.379 . S
H1851 C1845 0.959 . S
H1852 C1845 0.961 . S
H1853 C1845 0.960 . S
H1854 C1846 0.930 . S
H1855 C1847 0.929 . S
H1856 C1864 0.929 . S
H1857 C1866 0.930 . S
H1858 C1868 0.930 1_565 S
H1859 C1871 0.929 1_565 S
H1860 C1874 0.930 . S
H1861 C1876 0.960 . S
H1862 C1876 0.960 . S
H1863 C1876 0.960 1_565 S
C1864 H1856 0.929 . S
C1864 C1865 1.377 . S
C1864 C1866 1.384 . S
C1865 C1864 1.377 . S
C1865 C1871 1.390 . S
C1866 H1857 0.930 . S
C1866 C1864 1.384 . S
C1866 C1867 1.372 . S
C1867 C1866 1.372 . S
C1867 C1868 1.400 . S
C1867 C1872 1.490 . S
C1868 H1858 0.930 1_545 S
C1868 C1867 1.400 . S
C1868 C1871 1.386 . S
H1869 C1885 0.930 . S
H1870 C1886 0.931 . S
C1871 H1859 0.929 1_545 S
C1871 C1865 1.390 . S
C1871 C1868 1.386 . S
C1872 C1867 1.490 . S
C1872 C1874 1.395 . S
C1872 C1875 1.403 . S
H1873 C1879 0.930 . S
C1874 H1860 0.930 . S
C1874 C1872 1.395 . S
C1874 C1877 1.403 . S
C1875 C1872 1.403 . S
C1875 C1876 1.524 . S
C1875 C1879 1.400 . S
C1876 H1861 0.960 . S
C1876 H1862 0.960 . S
C1876 H1863 0.960 1_545 S
C1876 C1875 1.524 . S
C1877 C1874 1.403 . S
C1877 C1878 1.392 . S
C1877 C1881 1.495 . S
C1878 C1877 1.392 . S
C1878 C1879 1.385 . S
C1878 C1880 1.478 . S
C1879 H1873 0.930 . S
C1879 C1875 1.400 . S
C1879 C1878 1.385 . S
C1880 C1878 1.478 . S
C1880 C1882 1.381 . S
C1880 C1886 1.383 . S
C1881 C1877 1.495 . S
C1881 H1887 0.959 . S
C1881 H1888 0.961 . S
C1881 H1889 0.960 . S
C1882 C1880 1.381 . S
C1882 C1883 1.394 . S
C1882 H1890 0.930 . S
C1883 C1882 1.394 . S
C1883 C1884 1.383 . S
C1883 H1891 0.929 . S
C1884 C1883 1.383 . S
C1884 C1885 1.377 . S
C1885 H1869 0.930 . S
C1885 C1884 1.377 . S
C1885 C1886 1.379 . S
C1886 H1870 0.931 . S
C1886 C1880 1.383 . S
C1886 C1885 1.379 . S
H1887 C1881 0.959 . S
H1888 C1881 0.961 . S
H1889 C1881 0.960 . S
H1890 C1882 0.930 . S
H1891 C1883 0.929 . S
H1892 C1900 0.929 . S
H1893 C1902 0.930 . S
H1894 C1904 0.930 . S
H1895 C1907 0.929 . S
H1896 C1910 0.930 . S
H1897 C1912 0.960 . S
H1898 C1912 0.960 . S
H1899 C1912 0.960 . S
C1900 H1892 0.929 . S
C1900 C1901 1.377 . S
C1900 C1902 1.384 . S
C1901 C1900 1.377 . S
C1901 C1907 1.390 . S
C1902 H1893 0.930 . S
C1902 C1900 1.384 . S
C1902 C1903 1.372 . S
C1903 C1902 1.372 . S
C1903 C1904 1.400 . S
C1903 C1908 1.490 . S
C1904 H1894 0.930 . S
C1904 C1903 1.400 . S
C1904 C1907 1.386 . S
H1905 C1921 0.930 . S
H1906 C1922 0.931 . S
C1907 H1895 0.929 . S
C1907 C1901 1.390 . S
C1907 C1904 1.386 . S
C1908 C1903 1.490 . S
C1908 C1910 1.395 . S
C1908 C1911 1.403 . S
H1909 C1915 0.930 . S
C1910 H1896 0.930 . S
C1910 C1908 1.395 . S
C1910 C1913 1.403 . S
C1911 C1908 1.403 . S
C1911 C1912 1.524 . S
C1911 C1915 1.400 . S
C1912 H1897 0.960 . S
C1912 H1898 0.960 . S
C1912 H1899 0.960 . S
C1912 C1911 1.524 . S
C1913 C1910 1.403 . S
C1913 C1914 1.392 . S
C1913 C1917 1.495 . S
C1914 C1913 1.392 . S
C1914 C1915 1.385 . S
C1914 C1916 1.478 . S
C1915 H1909 0.930 . S
C1915 C1911 1.400 . S
C1915 C1914 1.385 . S
C1916 C1914 1.478 . S
C1916 C1918 1.381 . S
C1916 C1922 1.383 . S
C1917 C1913 1.495 . S
C1917 H1923 0.959 . S
C1917 H1924 0.961 . S
C1917 H1925 0.960 . S
C1918 C1916 1.381 . S
C1918 C1919 1.394 . S
C1918 H1926 0.930 . S
C1919 C1918 1.394 . S
C1919 C1920 1.383 . S
C1919 H1927 0.929 . S
C1920 C1919 1.383 . S
C1920 C1921 1.377 . S
C1921 H1905 0.930 . S
C1921 C1920 1.377 . S
C1921 C1922 1.379 . S
C1922 H1906 0.931 . S
C1922 C1916 1.383 . S
C1922 C1921 1.379 . S
H1923 C1917 0.959 . S
H1924 C1917 0.961 . S
H1925 C1917 0.960 . S
H1926 C1918 0.930 . S
H1927 C1919 0.929 . S
H1928 C1936 0.929 . S
H1929 C1938 0.930 . S
H1930 C1940 0.930 . S
H1931 C1943 0.929 . S
H1932 C1946 0.930 . S
H1933 C1948 0.960 . S
H1934 C1948 0.960 . S
H1935 C1948 0.960 . S
C1936 H1928 0.929 . S
C1936 C1937 1.377 . S
C1936 C1938 1.384 . S
C1937 C1936 1.377 . S
C1937 C1943 1.390 1_545 S
C1938 H1929 0.930 . S
C1938 C1936 1.384 . S
C1938 C1939 1.362 1_545 S
C1939 C1938 1.362 1_565 S
C1939 C1940 1.406 . S
C1939 C1944 1.495 . S
C1940 H1930 0.930 . S
C1940 C1939 1.406 . S
C1940 C1943 1.386 . S
H1941 C1957 0.930 . S
H1942 C1958 0.931 . S
C1943 H1931 0.929 . S
C1943 C1937 1.390 1_565 S
C1943 C1940 1.386 . S
C1944 C1939 1.495 . S
C1944 C1946 1.395 . S
C1944 C1947 1.403 1_565 S
H1945 C1951 0.930 . S
C1946 H1932 0.930 . S
C1946 C1944 1.395 . S
C1946 C1949 1.403 . S
C1947 C1944 1.403 1_545 S
C1947 C1948 1.524 . S
C1947 C1951 1.400 . S
C1948 H1933 0.960 . S
C1948 H1934 0.960 . S
C1948 H1935 0.960 . S
C1948 C1947 1.524 . S
C1949 C1946 1.403 . S
C1949 C1950 1.392 . S
C1949 C1953 1.495 . S
C1950 C1949 1.392 . S
C1950 C1951 1.385 1_565 S
C1950 C1952 1.478 . S
C1951 H1945 0.930 . S
C1951 C1947 1.400 . S
C1951 C1950 1.385 1_545 S
C1952 C1950 1.478 . S
C1952 C1954 1.381 . S
C1952 C1958 1.383 . S
C1953 C1949 1.495 . S
C1953 H1959 0.959 . S
C1953 H1960 0.961 . S
C1953 H1961 0.960 . S
C1954 C1952 1.381 . S
C1954 C1955 1.394 . S
C1954 H1962 0.930 . S
C1955 C1954 1.394 . S
C1955 C1956 1.383 . S
C1955 H1963 0.929 . S
C1956 C1955 1.383 . S
C1956 C1957 1.377 . S
C1957 H1941 0.930 . S
C1957 C1956 1.377 . S
C1957 C1958 1.379 . S
C1958 H1942 0.931 . S
C1958 C1952 1.383 . S
C1958 C1957 1.379 . S
H1959 C1953 0.959 . S
H1960 C1953 0.961 . S
H1961 C1953 0.960 . S
H1962 C1954 0.930 . S
H1963 C1955 0.929 . S
H1964 C1972 0.929 . S
H1965 C1974 0.930 . S
H1966 C1976 0.930 . S
H1967 C1979 0.929 . S
H1968 C1982 0.930 . S
H1969 C1984 0.960 . S
H1970 C1984 0.960 . S
H1971 C1984 0.960 . S
C1972 H1964 0.929 . S
C1972 C1973 1.377 . S
C1972 C1974 1.384 . S
C1973 C1972 1.377 . S
C1973 C1979 1.390 . S
C1974 H1965 0.930 . S
C1974 C1972 1.384 . S
C1974 C1975 1.372 . S
C1975 C1974 1.372 . S
C1975 C1976 1.400 . S
C1975 C1980 1.490 . S
C1976 H1966 0.930 . S
C1976 C1975 1.400 . S
C1976 C1979 1.386 . S
H1977 C1993 0.930 . S
H1978 C1994 0.931 . S
C1979 H1967 0.929 . S
C1979 C1973 1.390 . S
C1979 C1976 1.386 . S
C1980 C1975 1.490 . S
C1980 C1982 1.395 . S
C1980 C1983 1.403 . S
H1981 C1987 0.930 . S
C1982 H1968 0.930 . S
C1982 C1980 1.395 . S
C1982 C1985 1.403 . S
C1983 C1980 1.403 . S
C1983 C1984 1.524 . S
C1983 C1987 1.400 . S
C1984 H1969 0.960 . S
C1984 H1970 0.960 . S
C1984 H1971 0.960 . S
C1984 C1983 1.524 . S
C1985 C1982 1.403 . S
C1985 C1986 1.392 . S
C1985 C1989 1.495 . S
C1986 C1985 1.392 . S
C1986 C1987 1.385 . S
C1986 C1988 1.478 . S
C1987 H1981 0.930 . S
C1987 C1983 1.400 . S
C1987 C1986 1.385 . S
C1988 C1986 1.478 . S
C1988 C1990 1.381 . S
C1988 C1994 1.383 . S
C1989 C1985 1.495 . S
C1989 H1995 0.959 . S
C1989 H1996 0.961 . S
C1989 H1997 0.960 . S
C1990 C1988 1.381 . S
C1990 C1991 1.394 . S
C1990 H1998 0.930 . S
C1991 C1990 1.394 . S
C1991 C1992 1.383 . S
C1991 H1999 0.929 . S
C1992 C1991 1.383 . S
C1992 C1993 1.377 . S
C1993 H1977 0.930 . S
C1993 C1992 1.377 . S
C1993 C1994 1.379 . S
C1994 H1978 0.931 . S
C1994 C1988 1.383 . S
C1994 C1993 1.379 . S
H1995 C1989 0.959 . S
H1996 C1989 0.961 . S
H1997 C1989 0.960 . S
H1998 C1990 0.930 . S
H1999 C1991 0.929 . S
H2000 C2008 0.929 . S
H2001 C2010 0.930 . S
H2002 C2012 0.930 . S
H2003 C2015 0.929 . S
H2004 C2018 0.930 . S
H2005 C2020 0.960 . S
H2006 C2020 0.960 . S
H2007 C2020 0.960 . S
C2008 H2000 0.929 . S
C2008 C2009 1.377 . S
C2008 C2010 1.384 . S
C2009 C2008 1.377 . S
C2009 C2015 1.390 . S
C2010 H2001 0.930 . S
C2010 C2008 1.384 . S
C2010 C2011 1.372 . S
C2011 C2010 1.372 . S
C2011 C2012 1.400 . S
C2011 C2016 1.490 . S
C2012 H2002 0.930 . S
C2012 C2011 1.400 . S
C2012 C2015 1.386 . S
H2013 C2029 0.930 1_455 S
H2014 C2030 0.931 . S
C2015 H2003 0.929 . S
C2015 C2009 1.390 . S
C2015 C2012 1.386 . S
C2016 C2011 1.490 . S
C2016 C2018 1.395 . S
C2016 C2019 1.403 1_545 S
H2017 C2023 0.930 . S
C2018 H2004 0.930 . S
C2018 C2016 1.395 . S
C2018 C2021 1.403 . S
C2019 C2016 1.403 1_565 S
C2019 C2020 1.524 . S
C2019 C2023 1.400 . S
C2020 H2005 0.960 . S
C2020 H2006 0.960 . S
C2020 H2007 0.960 . S
C2020 C2019 1.524 . S
C2021 C2018 1.403 . S
C2021 C2022 1.392 . S
C2021 C2025 1.495 . S
C2022 C2021 1.392 . S
C2022 C2023 1.385 1_545 S
C2022 C2024 1.478 . S
C2023 H2017 0.930 . S
C2023 C2019 1.400 . S
C2023 C2022 1.385 1_565 S
C2024 C2022 1.478 . S
C2024 C2026 1.381 1_545 S
C2024 C2030 1.383 . S
C2025 C2021 1.495 . S
C2025 H2031 0.959 . S
C2025 H2032 0.961 . S
C2025 H2033 0.960 . S
C2026 C2024 1.381 1_565 S
C2026 C2027 1.394 . S
C2026 H2034 0.930 . S
C2027 C2026 1.394 . S
C2027 C2028 1.383 1_565 S
C2027 H2035 0.929 . S
C2028 C2027 1.383 1_545 S
C2028 C2029 1.378 . S
C2029 H2013 0.930 1_655 S
C2029 C2028 1.378 . S
C2029 C2030 1.379 . S
C2030 H2014 0.931 . S
C2030 C2024 1.383 . S
C2030 C2029 1.379 . S
H2031 C2025 0.959 . S
H2032 C2025 0.961 . S
H2033 C2025 0.960 . S
H2034 C2026 0.930 . S
H2035 C2027 0.929 . S
H2036 C2044 0.929 . S
H2037 C2046 0.930 . S
H2038 C2048 0.930 . S
H2039 C2051 0.929 . S
H2040 C2054 0.930 . S
H2041 C2056 0.960 . S
H2042 C2056 0.960 . S
H2043 C2056 0.960 . S
C2044 H2036 0.929 . S
C2044 C2045 1.377 . S
C2044 C2046 1.384 . S
C2045 C2044 1.377 . S
C2045 C2051 1.390 . S
C2046 H2037 0.930 . S
C2046 C2044 1.384 . S
C2046 C2047 1.372 . S
C2047 C2046 1.372 . S
C2047 C2048 1.400 . S
C2047 C2052 1.490 . S
C2048 H2038 0.930 . S
C2048 C2047 1.400 . S
C2048 C2051 1.386 . S
H2049 C2065 0.930 . S
H2050 C2066 0.931 . S
C2051 H2039 0.929 . S
C2051 C2045 1.390 . S
C2051 C2048 1.386 . S
C2052 C2047 1.490 . S
C2052 C2054 1.395 . S
C2052 C2055 1.403 . S
H2053 C2059 0.930 . S
C2054 H2040 0.930 . S
C2054 C2052 1.395 . S
C2054 C2057 1.403 . S
C2055 C2052 1.403 . S
C2055 C2056 1.524 . S
C2055 C2059 1.400 . S
C2056 H2041 0.960 . S
C2056 H2042 0.960 . S
C2056 H2043 0.960 . S
C2056 C2055 1.524 . S
C2057 C2054 1.403 . S
C2057 C2058 1.392 . S
C2057 C2061 1.495 . S
C2058 C2057 1.392 . S
C2058 C2059 1.385 . S
C2058 C2060 1.478 . S
C2059 H2053 0.930 . S
C2059 C2055 1.400 . S
C2059 C2058 1.385 . S
C2060 C2058 1.478 . S
C2060 C2062 1.381 . S
C2060 C2066 1.383 . S
C2061 C2057 1.495 . S
C2061 H2067 0.959 . S
C2061 H2068 0.961 . S
C2061 H2069 0.960 . S
C2062 C2060 1.381 . S
C2062 C2063 1.394 . S
C2062 H2070 0.930 . S
C2063 C2062 1.394 . S
C2063 C2064 1.383 . S
C2063 H2071 0.929 . S
C2064 C2063 1.383 . S
C2064 C2065 1.377 . S
C2065 H2049 0.930 . S
C2065 C2064 1.377 . S
C2065 C2066 1.379 . S
C2066 H2050 0.931 . S
C2066 C2060 1.383 . S
C2066 C2065 1.379 . S
H2067 C2061 0.959 . S
H2068 C2061 0.961 . S
H2069 C2061 0.960 . S
H2070 C2062 0.930 . S
H2071 C2063 0.929 . S
H2072 C2080 0.929 . S
H2073 C2082 0.930 . S
H2074 C2084 0.930 . S
H2075 C2087 0.929 . S
H2076 C2090 0.930 . S
H2077 C2092 0.960 . S
H2078 C2092 0.928 1_565 S
H2079 C2092 0.983 . S
C2080 H2072 0.929 . S
C2080 C2081 1.349 1_565 S
C2080 C2082 1.384 . S
C2081 C2080 1.349 1_545 S
C2081 C2087 1.425 . S
C2082 H2073 0.930 . S
C2082 C2080 1.384 . S
C2082 C2083 1.372 1_565 S
C2083 C2082 1.372 1_545 S
C2083 C2084 1.400 . S
C2083 C2088 1.490 . S
C2084 H2074 0.930 . S
C2084 C2083 1.400 . S
C2084 C2087 1.386 . S
H2085 C2101 0.930 . S
H2086 C2102 0.931 . S
C2087 H2075 0.929 . S
C2087 C2081 1.425 . S
C2087 C2084 1.386 . S
C2088 C2083 1.490 . S
C2088 C2090 1.395 . S
C2088 C2091 1.403 . S
H2089 C2095 0.930 . S
C2090 H2076 0.930 . S
C2090 C2088 1.395 . S
C2090 C2093 1.403 . S
C2091 C2088 1.403 . S
C2091 C2092 1.533 . S
C2091 C2095 1.400 . S
C2092 H2077 0.960 . S
C2092 H2078 0.928 1_545 S
C2092 H2079 0.983 . S
C2092 C2091 1.533 . S
C2093 C2090 1.403 . S
C2093 C2094 1.392 . S
C2093 C2097 1.495 . S
C2094 C2093 1.392 . S
C2094 C2095 1.385 . S
C2094 C2096 1.478 . S
C2095 H2089 0.930 . S
C2095 C2091 1.400 . S
C2095 C2094 1.385 . S
C2096 C2094 1.478 . S
C2096 C2098 1.381 . S
C2096 C2102 1.383 . S
C2097 C2093 1.495 . S
C2097 H2103 0.959 . S
C2097 H2104 0.961 . S
C2097 H2105 0.960 . S
C2098 C2096 1.381 . S
C2098 C2099 1.394 . S
C2098 H2106 0.930 1_545 S
C2099 C2098 1.394 . S
C2099 C2100 1.383 . S
C2099 H2107 0.929 1_545 S
C2100 C2099 1.383 . S
C2100 C2101 1.377 . S
C2101 H2085 0.930 . S
C2101 C2100 1.377 . S
C2101 C2102 1.379 . S
C2102 H2086 0.931 . S
C2102 C2096 1.383 . S
C2102 C2101 1.379 . S
H2103 C2097 0.959 . S
H2104 C2097 0.961 . S
H2105 C2097 0.960 . S
H2106 C2098 0.930 1_565 S
H2107 C2099 0.929 1_565 S
H2108 C2116 0.929 . S
H2109 C2118 0.930 . S
H2110 C2120 0.930 . S
H2111 C2123 0.929 . S
H2112 C2126 0.930 . S
H2113 C2128 0.960 . S
H2114 C2128 0.960 . S
H2115 C2128 0.960 . S
C2116 H2108 0.929 . S
C2116 C2117 1.377 . S
C2116 C2118 1.384 . S
C2117 C2116 1.377 . S
C2117 C2123 1.390 . S
C2118 H2109 0.930 . S
C2118 C2116 1.384 . S
C2118 C2119 1.372 . S
C2119 C2118 1.372 . S
C2119 C2120 1.400 . S
C2119 C2124 1.490 . S
C2120 H2110 0.930 . S
C2120 C2119 1.400 . S
C2120 C2123 1.386 . S
H2121 C2137 0.930 . S
H2122 C2138 0.931 . S
C2123 H2111 0.929 . S
C2123 C2117 1.390 . S
C2123 C2120 1.386 . S
C2124 C2119 1.490 . S
C2124 C2126 1.395 . S
C2124 C2127 1.403 . S
H2125 C2131 0.930 . S
C2126 H2112 0.930 . S
C2126 C2124 1.395 . S
C2126 C2129 1.403 . S
C2127 C2124 1.403 . S
C2127 C2128 1.524 . S
C2127 C2131 1.400 . S
C2128 H2113 0.960 . S
C2128 H2114 0.960 . S
C2128 H2115 0.960 . S
C2128 C2127 1.524 . S
C2129 C2126 1.403 . S
C2129 C2130 1.392 . S
C2129 C2133 1.495 . S
C2130 C2129 1.392 . S
C2130 C2131 1.385 . S
C2130 C2132 1.478 . S
C2131 H2125 0.930 . S
C2131 C2127 1.400 . S
C2131 C2130 1.385 . S
C2132 C2130 1.478 . S
C2132 C2134 1.381 . S
C2132 C2138 1.383 . S
C2133 C2129 1.495 . S
C2133 H2139 0.959 . S
C2133 H2140 0.961 . S
C2133 H2141 0.960 . S
C2134 C2132 1.381 . S
C2134 C2135 1.394 . S
C2134 H2142 0.930 . S
C2135 C2134 1.394 . S
C2135 C2136 1.383 . S
C2135 H2143 0.929 . S
C2136 C2135 1.383 . S
C2136 C2137 1.377 . S
C2137 H2121 0.930 . S
C2137 C2136 1.377 . S
C2137 C2138 1.379 . S
C2138 H2122 0.931 . S
C2138 C2132 1.383 . S
C2138 C2137 1.379 . S
H2139 C2133 0.959 . S
H2140 C2133 0.961 . S
H2141 C2133 0.960 . S
H2142 C2134 0.930 . S
H2143 C2135 0.929 . S
H2144 C2152 0.940 . S
H2145 C2154 0.918 1_556 S
H2146 C2156 0.930 . S
H2147 C2159 0.929 . S
H2148 C2162 0.930 . S
H2149 C2164 0.960 . S
H2150 C2164 0.960 . S
H2151 C2164 0.960 . S
C2152 H2144 0.940 . S
C2152 C2153 1.371 1_556 S
C2152 C2154 1.380 1_556 S
C2153 C2152 1.371 1_554 S
C2153 C2159 1.390 . S
C2154 H2145 0.918 1_554 S
C2154 C2152 1.380 1_554 S
C2154 C2155 1.372 . S
C2155 C2154 1.372 . S
C2155 C2156 1.400 . S
C2155 C2160 1.490 . S
C2156 H2146 0.930 . S
C2156 C2155 1.400 . S
C2156 C2159 1.386 . S
H2157 C2173 0.930 . S
H2158 C2174 0.931 . S
C2159 H2147 0.929 . S
C2159 C2153 1.390 . S
C2159 C2156 1.386 . S
C2160 C2155 1.490 . S
C2160 C2162 1.395 . S
C2160 C2163 1.403 . S
H2161 C2167 0.930 . S
C2162 H2148 0.930 . S
C2162 C2160 1.395 . S
C2162 C2165 1.403 . S
C2163 C2160 1.403 . S
C2163 C2164 1.524 1_554 S
C2163 C2167 1.400 . S
C2164 H2149 0.960 . S
C2164 H2150 0.960 . S
C2164 H2151 0.960 . S
C2164 C2163 1.524 1_556 S
C2165 C2162 1.403 . S
C2165 C2166 1.392 . S
C2165 C2169 1.495 . S
C2166 C2165 1.392 . S
C2166 C2167 1.385 . S
C2166 C2168 1.478 . S
C2167 H2161 0.930 . S
C2167 C2163 1.400 . S
C2167 C2166 1.385 . S
C2168 C2166 1.478 . S
C2168 C2170 1.381 . S
C2168 C2174 1.383 . S
C2169 C2165 1.495 . S
C2169 H2175 0.959 . S
C2169 H2176 0.961 . S
C2169 H2177 0.960 . S
C2170 C2168 1.381 . S
C2170 C2171 1.394 . S
C2170 H2178 0.930 . S
C2171 C2170 1.394 . S
C2171 C2172 1.383 . S
C2171 H2179 0.929 . S
C2172 C2171 1.383 . S
C2172 C2173 1.377 . S
C2173 H2157 0.930 . S
C2173 C2172 1.377 . S
C2173 C2174 1.379 . S
C2174 H2158 0.931 . S
C2174 C2168 1.383 . S
C2174 C2173 1.379 . S
H2175 C2169 0.959 . S
H2176 C2169 0.961 . S
H2177 C2169 0.960 . S
H2178 C2170 0.930 . S
H2179 C2171 0.929 . S
H2180 C2188 0.929 . S
H2181 C2190 0.930 . S
H2182 C2192 0.930 . S
H2183 C2195 0.929 . S
H2184 C2198 0.930 . S
H2185 C2200 0.960 . S
H2186 C2200 0.960 . S
H2187 C2200 0.960 . S
C2188 H2180 0.929 . S
C2188 C2189 1.377 . S
C2188 C2190 1.384 . S
C2189 C2188 1.377 . S
C2189 C2195 1.390 1_554 S
C2190 H2181 0.930 . S
C2190 C2188 1.384 . S
C2190 C2191 1.372 . S
C2191 C2190 1.372 . S
C2191 C2192 1.400 1_554 S
C2191 C2196 1.490 . S
C2192 H2182 0.930 . S
C2192 C2191 1.400 1_556 S
C2192 C2195 1.386 . S
H2193 C2209 0.930 . S
H2194 C2210 0.931 . S
C2195 H2183 0.929 . S
C2195 C2189 1.390 1_556 S
C2195 C2192 1.386 . S
C2196 C2191 1.490 . S
C2196 C2198 1.395 . S
C2196 C2199 1.403 1_554 S
H2197 C2203 0.930 . S
C2198 H2184 0.930 . S
C2198 C2196 1.395 . S
C2198 C2201 1.403 . S
C2199 C2196 1.403 1_556 S
C2199 C2200 1.524 . S
C2199 C2203 1.400 . S
C2200 H2185 0.960 . S
C2200 H2186 0.960 . S
C2200 H2187 0.960 . S
C2200 C2199 1.524 . S
C2201 C2198 1.403 . S
C2201 C2202 1.418 . S
C2201 C2205 1.495 . S
C2202 C2201 1.418 . S
C2202 C2203 1.361 1_554 S
C2202 C2204 1.476 1_554 S
C2203 H2197 0.930 . S
C2203 C2199 1.400 . S
C2203 C2202 1.361 1_556 S
C2204 C2202 1.476 1_556 S
C2204 C2206 1.381 1_556 S
C2204 C2210 1.383 . S
C2205 C2201 1.495 . S
C2205 H2211 0.959 . S
C2205 H2212 0.961 . S
C2205 H2213 0.960 . S
C2206 C2204 1.381 1_554 S
C2206 C2207 1.394 . S
C2206 H2214 0.930 . S
C2207 C2206 1.394 . S
C2207 C2208 1.383 1_554 S
C2207 H2215 0.929 . S
C2208 C2207 1.383 1_556 S
C2208 C2209 1.377 . S
C2209 H2193 0.930 . S
C2209 C2208 1.377 . S
C2209 C2210 1.379 . S
C2210 H2194 0.931 . S
C2210 C2204 1.383 . S
C2210 C2209 1.379 . S
H2211 C2205 0.959 . S
H2212 C2205 0.961 . S
H2213 C2205 0.960 . S
H2214 C2206 0.930 . S
H2215 C2207 0.929 . S
H2216 C2224 0.929 . S
H2217 C2226 0.930 . S
H2218 C2228 0.930 . S
H2219 C2231 0.929 . S
H2220 C2234 0.930 . S
H2221 C2236 0.960 . S
H2222 C2236 0.960 . S
H2223 C2236 0.960 . S
C2224 H2216 0.929 . S
C2224 C2225 1.377 . S
C2224 C2226 1.384 . S
C2225 C2224 1.377 . S
C2225 C2231 1.390 . S
C2226 H2217 0.930 . S
C2226 C2224 1.384 . S
C2226 C2227 1.372 . S
C2227 C2226 1.372 . S
C2227 C2228 1.400 . S
C2227 C2232 1.490 . S
C2228 H2218 0.930 . S
C2228 C2227 1.400 . S
C2228 C2231 1.386 . S
H2229 C2245 0.930 . S
H2230 C2246 0.931 . S
C2231 H2219 0.929 . S
C2231 C2225 1.390 . S
C2231 C2228 1.386 . S
C2232 C2227 1.490 . S
C2232 C2234 1.395 . S
C2232 C2235 1.403 . S
H2233 C2239 0.930 . S
C2234 H2220 0.930 . S
C2234 C2232 1.395 . S
C2234 C2237 1.403 . S
C2235 C2232 1.403 . S
C2235 C2236 1.524 . S
C2235 C2239 1.400 . S
C2236 H2221 0.960 . S
C2236 H2222 0.960 . S
C2236 H2223 0.960 . S
C2236 C2235 1.524 . S
C2237 C2234 1.403 . S
C2237 C2238 1.392 . S
C2237 C2241 1.495 . S
C2238 C2237 1.392 . S
C2238 C2239 1.385 . S
C2238 C2240 1.478 . S
C2239 H2233 0.930 . S
C2239 C2235 1.400 . S
C2239 C2238 1.385 . S
C2240 C2238 1.478 . S
C2240 C2242 1.381 . S
C2240 C2246 1.383 . S
C2241 C2237 1.495 . S
C2241 H2247 0.959 . S
C2241 H2248 0.961 . S
C2241 H2249 0.960 . S
C2242 C2240 1.381 . S
C2242 C2243 1.394 . S
C2242 H2250 0.930 . S
C2243 C2242 1.394 . S
C2243 C2244 1.383 . S
C2243 H2251 0.929 . S
C2244 C2243 1.383 . S
C2244 C2245 1.377 . S
C2245 H2229 0.930 . S
C2245 C2244 1.377 . S
C2245 C2246 1.379 . S
C2246 H2230 0.931 . S
C2246 C2240 1.383 . S
C2246 C2245 1.379 . S
H2247 C2241 0.959 . S
H2248 C2241 0.961 . S
H2249 C2241 0.960 . S
H2250 C2242 0.930 . S
H2251 C2243 0.929 . S
H2252 C2260 0.929 . S
H2253 C2262 0.930 . S
H2254 C2264 0.930 . S
H2255 C2267 0.929 . S
H2256 C2270 0.930 . S
H2257 C2272 0.960 . S
H2258 C2272 0.960 . S
H2259 C2272 0.960 . S
C2260 H2252 0.929 . S
C2260 C2261 1.377 . S
C2260 C2262 1.384 . S
C2261 C2260 1.377 . S
C2261 C2267 1.390 . S
C2262 H2253 0.930 . S
C2262 C2260 1.384 . S
C2262 C2263 1.372 . S
C2263 C2262 1.372 . S
C2263 C2264 1.400 . S
C2263 C2268 1.490 . S
C2264 H2254 0.930 . S
C2264 C2263 1.400 . S
C2264 C2267 1.386 . S
H2265 C2281 0.930 . S
H2266 C2282 0.931 . S
C2267 H2255 0.929 . S
C2267 C2261 1.390 . S
C2267 C2264 1.386 . S
C2268 C2263 1.490 . S
C2268 C2270 1.395 . S
C2268 C2271 1.403 . S
H2269 C2275 0.930 . S
C2270 H2256 0.930 . S
C2270 C2268 1.395 . S
C2270 C2273 1.403 . S
C2271 C2268 1.403 . S
C2271 C2272 1.524 . S
C2271 C2275 1.400 . S
C2272 H2257 0.960 . S
C2272 H2258 0.960 . S
C2272 H2259 0.960 . S
C2272 C2271 1.524 . S
C2273 C2270 1.403 . S
C2273 C2274 1.392 . S
C2273 C2277 1.495 . S
C2274 C2273 1.392 . S
C2274 C2275 1.385 . S
C2274 C2276 1.478 . S
C2275 H2269 0.930 . S
C2275 C2271 1.400 . S
C2275 C2274 1.385 . S
C2276 C2274 1.478 . S
C2276 C2278 1.381 . S
C2276 C2282 1.383 . S
C2277 C2273 1.495 . S
C2277 H2283 0.959 . S
C2277 H2284 0.961 . S
C2277 H2285 0.960 . S
C2278 C2276 1.381 . S
C2278 C2279 1.394 . S
C2278 H2286 0.930 . S
C2279 C2278 1.394 . S
C2279 C2280 1.383 . S
C2279 H2287 0.929 . S
C2280 C2279 1.383 . S
C2280 C2281 1.377 . S
C2281 H2265 0.930 . S
C2281 C2280 1.377 . S
C2281 C2282 1.379 . S
C2282 H2266 0.931 . S
C2282 C2276 1.383 . S
C2282 C2281 1.379 . S
H2283 C2277 0.959 . S
H2284 C2277 0.961 . S
H2285 C2277 0.960 . S
H2286 C2278 0.930 . S
H2287 C2279 0.929 . S
H2288 C2296 0.929 . S
H2289 C2298 0.930 . S
H2290 C2300 0.930 . S
H2291 C2303 0.929 . S
H2292 C2306 0.930 . S
H2293 C2308 0.960 . S
H2294 C2308 0.960 . S
H2295 C2308 0.960 . S
C2296 H2288 0.929 . S
C2296 C2297 1.377 . S
C2296 C2298 1.384 . S
C2297 C2296 1.377 . S
C2297 C2303 1.390 . S
C2298 H2289 0.930 . S
C2298 C2296 1.384 . S
C2298 C2299 1.372 . S
C2299 C2298 1.372 . S
C2299 C2300 1.400 . S
C2299 C2304 1.490 . S
C2300 H2290 0.930 . S
C2300 C2299 1.400 . S
C2300 C2303 1.386 . S
H2301 C2317 0.930 . S
H2302 C2318 0.931 . S
C2303 H2291 0.929 . S
C2303 C2297 1.390 . S
C2303 C2300 1.386 . S
C2304 C2299 1.490 . S
C2304 C2306 1.395 . S
C2304 C2307 1.403 . S
H2305 C2311 0.930 . S
C2306 H2292 0.930 . S
C2306 C2304 1.395 . S
C2306 C2309 1.403 . S
C2307 C2304 1.403 . S
C2307 C2308 1.524 . S
C2307 C2311 1.400 . S
C2308 H2293 0.960 . S
C2308 H2294 0.960 . S
C2308 H2295 0.960 . S
C2308 C2307 1.524 . S
C2309 C2306 1.403 . S
C2309 C2310 1.392 . S
C2309 C2313 1.495 . S
C2310 C2309 1.392 . S
C2310 C2311 1.385 . S
C2310 C2312 1.478 . S
C2311 H2305 0.930 . S
C2311 C2307 1.400 . S
C2311 C2310 1.385 . S
C2312 C2310 1.478 . S
C2312 C2314 1.381 . S
C2312 C2318 1.383 . S
C2313 C2309 1.495 . S
C2313 H2319 0.959 . S
C2313 H2320 0.961 . S
C2313 H2321 0.960 . S
C2314 C2312 1.381 . S
C2314 C2315 1.394 . S
C2314 H2322 0.930 . S
C2315 C2314 1.394 . S
C2315 C2316 1.383 . S
C2315 H2323 0.929 . S
C2316 C2315 1.383 . S
C2316 C2317 1.377 . S
C2317 H2301 0.930 . S
C2317 C2316 1.377 . S
C2317 C2318 1.379 . S
C2318 H2302 0.931 . S
C2318 C2312 1.383 . S
C2318 C2317 1.379 . S
H2319 C2313 0.959 . S
H2320 C2313 0.961 . S
H2321 C2313 0.960 . S
H2322 C2314 0.930 . S
H2323 C2315 0.929 . S
H2324 C2332 0.929 . S
H2325 C2334 0.930 . S
H2326 C2336 0.930 . S
H2327 C2339 0.929 . S
H2328 C2342 0.930 . S
H2329 C2344 0.960 . S
H2330 C2344 0.960 . S
H2331 C2344 0.960 . S
C2332 H2324 0.929 . S
C2332 C2333 1.377 . S
C2332 C2334 1.384 . S
C2333 C2332 1.377 . S
C2333 C2339 1.390 . S
C2334 H2325 0.930 . S
C2334 C2332 1.384 . S
C2334 C2335 1.372 . S
C2335 C2334 1.372 . S
C2335 C2336 1.400 . S
C2335 C2340 1.490 . S
C2336 H2326 0.930 . S
C2336 C2335 1.400 . S
C2336 C2339 1.386 . S
H2337 C2353 0.930 . S
H2338 C2354 0.931 . S
C2339 H2327 0.929 . S
C2339 C2333 1.390 . S
C2339 C2336 1.386 . S
C2340 C2335 1.490 . S
C2340 C2342 1.395 . S
C2340 C2343 1.403 . S
H2341 C2347 0.930 . S
C2342 H2328 0.930 . S
C2342 C2340 1.395 . S
C2342 C2345 1.403 . S
C2343 C2340 1.403 . S
C2343 C2344 1.524 . S
C2343 C2347 1.400 . S
C2344 H2329 0.960 . S
C2344 H2330 0.960 . S
C2344 H2331 0.960 . S
C2344 C2343 1.524 . S
C2345 C2342 1.403 . S
C2345 C2346 1.392 . S
C2345 C2349 1.495 . S
C2346 C2345 1.392 . S
C2346 C2347 1.385 . S
C2346 C2348 1.478 . S
C2347 H2341 0.930 . S
C2347 C2343 1.400 . S
C2347 C2346 1.385 . S
C2348 C2346 1.478 . S
C2348 C2350 1.381 . S
C2348 C2354 1.383 . S
C2349 C2345 1.495 . S
C2349 H2355 0.959 . S
C2349 H2356 0.961 . S
C2349 H2357 0.960 . S
C2350 C2348 1.381 . S
C2350 C2351 1.394 . S
C2350 H2358 0.930 . S
C2351 C2350 1.394 . S
C2351 C2352 1.383 . S
C2351 H2359 0.929 . S
C2352 C2351 1.383 . S
C2352 C2353 1.377 . S
C2353 H2337 0.930 . S
C2353 C2352 1.377 . S
C2353 C2354 1.379 . S
C2354 H2338 0.931 . S
C2354 C2348 1.383 . S
C2354 C2353 1.379 . S
H2355 C2349 0.959 . S
H2356 C2349 0.961 . S
H2357 C2349 0.960 . S
H2358 C2350 0.930 . S
H2359 C2351 0.929 . S
H2360 C2368 0.929 . S
H2361 C2370 0.930 . S
H2362 C2372 0.930 . S
H2363 C2375 0.929 . S
H2364 C2378 0.930 . S
H2365 C2380 0.960 . S
H2366 C2380 0.960 . S
H2367 C2380 0.960 . S
C2368 H2360 0.929 . S
C2368 C2369 1.377 . S
C2368 C2370 1.384 . S
C2369 C2368 1.377 . S
C2369 C2375 1.390 . S
C2370 H2361 0.930 . S
C2370 C2368 1.384 . S
C2370 C2371 1.372 . S
C2371 C2370 1.372 . S
C2371 C2372 1.400 . S
C2371 C2376 1.490 . S
C2372 H2362 0.930 . S
C2372 C2371 1.400 . S
C2372 C2375 1.386 . S
H2373 C2389 0.930 . S
H2374 C2390 0.931 . S
C2375 H2363 0.929 . S
C2375 C2369 1.390 . S
C2375 C2372 1.386 . S
C2376 C2371 1.490 . S
C2376 C2378 1.395 . S
C2376 C2379 1.403 . S
H2377 C2383 0.930 . S
C2378 H2364 0.930 . S
C2378 C2376 1.395 . S
C2378 C2381 1.403 . S
C2379 C2376 1.403 . S
C2379 C2380 1.524 . S
C2379 C2383 1.400 . S
C2380 H2365 0.960 . S
C2380 H2366 0.960 . S
C2380 H2367 0.960 . S
C2380 C2379 1.524 . S
C2381 C2378 1.403 . S
C2381 C2382 1.392 . S
C2381 C2385 1.495 . S
C2382 C2381 1.392 . S
C2382 C2383 1.385 . S
C2382 C2384 1.478 . S
C2383 H2377 0.930 . S
C2383 C2379 1.400 . S
C2383 C2382 1.385 . S
C2384 C2382 1.478 . S
C2384 C2386 1.381 . S
C2384 C2390 1.383 . S
C2385 C2381 1.495 . S
C2385 H2391 0.959 . S
C2385 H2392 0.961 . S
C2385 H2393 0.960 . S
C2386 C2384 1.381 . S
C2386 C2387 1.394 . S
C2386 H2394 0.930 . S
C2387 C2386 1.394 . S
C2387 C2388 1.383 . S
C2387 H2395 0.929 . S
C2388 C2387 1.383 . S
C2388 C2389 1.377 . S
C2389 H2373 0.930 . S
C2389 C2388 1.377 . S
C2389 C2390 1.379 . S
C2390 H2374 0.931 . S
C2390 C2384 1.383 . S
C2390 C2389 1.379 . S
H2391 C2385 0.959 . S
H2392 C2385 0.961 . S
H2393 C2385 0.960 . S
H2394 C2386 0.930 . S
H2395 C2387 0.929 . S
H2396 C2404 0.929 . S
H2397 C2406 0.930 . S
H2398 C2408 0.930 . S
H2399 C2411 0.929 . S
H2400 C2414 0.930 . S
H2401 C2416 0.960 . S
H2402 C2416 0.960 . S
H2403 C2416 0.960 . S
C2404 H2396 0.929 . S
C2404 C2405 1.377 . S
C2404 C2406 1.384 . S
C2405 C2404 1.377 . S
C2405 C2411 1.390 . S
C2406 H2397 0.930 . S
C2406 C2404 1.384 . S
C2406 C2407 1.372 . S
C2407 C2406 1.372 . S
C2407 C2408 1.400 . S
C2407 C2412 1.490 . S
C2408 H2398 0.930 . S
C2408 C2407 1.400 . S
C2408 C2411 1.386 . S
H2409 C2425 0.930 . S
H2410 C2426 0.931 . S
C2411 H2399 0.929 . S
C2411 C2405 1.390 . S
C2411 C2408 1.386 . S
C2412 C2407 1.490 . S
C2412 C2414 1.395 . S
C2412 C2415 1.403 . S
H2413 C2419 0.930 . S
C2414 H2400 0.930 . S
C2414 C2412 1.395 . S
C2414 C2417 1.403 . S
C2415 C2412 1.403 . S
C2415 C2416 1.524 . S
C2415 C2419 1.400 . S
C2416 H2401 0.960 . S
C2416 H2402 0.960 . S
C2416 H2403 0.960 . S
C2416 C2415 1.524 . S
C2417 C2414 1.403 . S
C2417 C2418 1.392 . S
C2417 C2421 1.495 . S
C2418 C2417 1.392 . S
C2418 C2419 1.385 . S
C2418 C2420 1.478 . S
C2419 H2413 0.930 . S
C2419 C2415 1.400 . S
C2419 C2418 1.385 . S
C2420 C2418 1.478 . S
C2420 C2422 1.381 . S
C2420 C2426 1.383 . S
C2421 C2417 1.495 . S
C2421 H2427 0.959 . S
C2421 H2428 0.961 . S
C2421 H2429 0.960 . S
C2422 C2420 1.381 . S
C2422 C2423 1.394 . S
C2422 H2430 0.930 . S
C2423 C2422 1.394 . S
C2423 C2424 1.383 . S
C2423 H2431 0.929 . S
C2424 C2423 1.383 . S
C2424 C2425 1.377 . S
C2425 H2409 0.930 . S
C2425 C2424 1.377 . S
C2425 C2426 1.379 . S
C2426 H2410 0.931 . S
C2426 C2420 1.383 . S
C2426 C2425 1.379 . S
H2427 C2421 0.959 . S
H2428 C2421 0.961 . S
H2429 C2421 0.960 . S
H2430 C2422 0.930 . S
H2431 C2423 0.929 . S
H2432 C2440 0.929 . S
H2433 C2442 0.930 . S
H2434 C2444 0.930 . S
H2435 C2447 0.929 . S
H2436 C2450 0.930 . S
H2437 C2452 0.960 . S
H2438 C2452 0.960 . S
H2439 C2452 0.960 . S
C2440 H2432 0.929 . S
C2440 C2441 1.377 . S
C2440 C2442 1.384 . S
C2441 C2440 1.377 . S
C2441 C2447 1.390 . S
C2442 H2433 0.930 . S
C2442 C2440 1.384 . S
C2442 C2443 1.372 . S
C2443 C2442 1.372 . S
C2443 C2444 1.400 . S
C2443 C2448 1.490 . S
C2444 H2434 0.930 . S
C2444 C2443 1.400 . S
C2444 C2447 1.386 . S
H2445 C2461 0.930 . S
H2446 C2462 0.931 . S
C2447 H2435 0.929 . S
C2447 C2441 1.390 . S
C2447 C2444 1.386 . S
C2448 C2443 1.490 . S
C2448 C2450 1.395 . S
C2448 C2451 1.403 . S
H2449 C2455 0.930 . S
C2450 H2436 0.930 . S
C2450 C2448 1.395 . S
C2450 C2453 1.403 . S
C2451 C2448 1.403 . S
C2451 C2452 1.524 . S
C2451 C2455 1.400 . S
C2452 H2437 0.960 . S
C2452 H2438 0.960 . S
C2452 H2439 0.960 . S
C2452 C2451 1.524 . S
C2453 C2450 1.403 . S
C2453 C2454 1.392 . S
C2453 C2457 1.495 . S
C2454 C2453 1.392 . S
C2454 C2455 1.385 . S
C2454 C2456 1.478 . S
C2455 H2449 0.930 . S
C2455 C2451 1.400 . S
C2455 C2454 1.385 . S
C2456 C2454 1.478 . S
C2456 C2458 1.381 . S
C2456 C2462 1.383 . S
C2457 C2453 1.495 . S
C2457 H2463 0.959 . S
C2457 H2464 0.961 . S
C2457 H2465 0.960 . S
C2458 C2456 1.381 . S
C2458 C2459 1.394 . S
C2458 H2466 0.930 . S
C2459 C2458 1.394 . S
C2459 C2460 1.383 . S
C2459 H2467 0.929 . S
C2460 C2459 1.383 . S
C2460 C2461 1.377 . S
C2461 H2445 0.930 . S
C2461 C2460 1.377 . S
C2461 C2462 1.379 . S
C2462 H2446 0.931 . S
C2462 C2456 1.383 . S
C2462 C2461 1.379 . S
H2463 C2457 0.959 . S
H2464 C2457 0.961 . S
H2465 C2457 0.960 . S
H2466 C2458 0.930 . S
H2467 C2459 0.929 . S
H2468 C2476 0.929 . S
H2469 C2478 0.930 . S
H2470 C2480 0.930 . S
H2471 C2483 0.929 . S
H2472 C2486 0.930 . S
H2473 C2488 0.960 . S
H2474 C2488 0.960 . S
H2475 C2488 0.960 . S
C2476 H2468 0.929 . S
C2476 C2477 1.377 . S
C2476 C2478 1.384 . S
C2477 C2476 1.377 . S
C2477 C2483 1.390 . S
C2478 H2469 0.930 . S
C2478 C2476 1.384 . S
C2478 C2479 1.372 . S
C2479 C2478 1.372 . S
C2479 C2480 1.400 . S
C2479 C2484 1.490 . S
C2480 H2470 0.930 . S
C2480 C2479 1.400 . S
C2480 C2483 1.386 . S
H2481 C2497 0.930 . S
H2482 C2498 0.931 . S
C2483 H2471 0.929 . S
C2483 C2477 1.390 . S
C2483 C2480 1.386 . S
C2484 C2479 1.490 . S
C2484 C2486 1.395 . S
C2484 C2487 1.403 . S
H2485 C2491 0.930 . S
C2486 H2472 0.930 . S
C2486 C2484 1.395 . S
C2486 C2489 1.403 . S
C2487 C2484 1.403 . S
C2487 C2488 1.524 . S
C2487 C2491 1.400 . S
C2488 H2473 0.960 . S
C2488 H2474 0.960 . S
C2488 H2475 0.960 . S
C2488 C2487 1.524 . S
C2489 C2486 1.403 . S
C2489 C2490 1.392 . S
C2489 C2493 1.495 . S
C2490 C2489 1.392 . S
C2490 C2491 1.385 . S
C2490 C2492 1.478 . S
C2491 H2485 0.930 . S
C2491 C2487 1.400 . S
C2491 C2490 1.385 . S
C2492 C2490 1.478 . S
C2492 C2494 1.381 . S
C2492 C2498 1.383 . S
C2493 C2489 1.495 . S
C2493 H2499 0.959 . S
C2493 H2500 0.961 . S
C2493 H2501 0.960 . S
C2494 C2492 1.381 . S
C2494 C2495 1.394 . S
C2494 H2502 0.930 . S
C2495 C2494 1.394 . S
C2495 C2496 1.383 . S
C2495 H2503 0.929 . S
C2496 C2495 1.383 . S
C2496 C2497 1.377 . S
C2497 H2481 0.930 . S
C2497 C2496 1.377 . S
C2497 C2498 1.379 . S
C2498 H2482 0.931 . S
C2498 C2492 1.383 . S
C2498 C2497 1.379 . S
H2499 C2493 0.959 . S
H2500 C2493 0.961 . S
H2501 C2493 0.960 . S
H2502 C2494 0.930 . S
H2503 C2495 0.929 . S
H2504 C2512 0.929 . S
H2505 C2514 0.930 . S
H2506 C2516 0.930 . S
H2507 C2519 0.929 . S
H2508 C2522 0.930 . S
H2509 C2524 0.960 . S
H2510 C2524 0.960 1_655 S
H2511 C2524 0.960 . S
C2512 H2504 0.929 . S
C2512 C2513 1.377 1_655 S
C2512 C2514 1.384 . S
C2513 C2512 1.377 1_455 S
C2513 C2519 1.390 . S
C2514 H2505 0.930 . S
C2514 C2512 1.384 . S
C2514 C2515 1.372 1_655 S
C2515 C2514 1.372 1_455 S
C2515 C2516 1.400 . S
C2515 C2520 1.490 . S
C2516 H2506 0.930 . S
C2516 C2515 1.400 . S
C2516 C2519 1.386 . S
H2517 C2533 0.930 . S
H2518 C2534 0.931 . S
C2519 H2507 0.929 . S
C2519 C2513 1.390 . S
C2519 C2516 1.386 . S
C2520 C2515 1.490 . S
C2520 C2522 1.395 . S
C2520 C2523 1.403 . S
H2521 C2527 0.930 . S
C2522 H2508 0.930 . S
C2522 C2520 1.395 . S
C2522 C2525 1.403 . S
C2523 C2520 1.403 . S
C2523 C2524 1.524 . S
C2523 C2527 1.400 . S
C2524 H2509 0.960 . S
C2524 H2510 0.960 1_455 S
C2524 H2511 0.960 . S
C2524 C2523 1.524 . S
C2525 C2522 1.403 . S
C2525 C2526 1.392 . S
C2525 C2529 1.495 . S
C2526 C2525 1.392 . S
C2526 C2527 1.385 . S
C2526 C2528 1.478 . S
C2527 H2521 0.930 . S
C2527 C2523 1.400 . S
C2527 C2526 1.385 . S
C2528 C2526 1.478 . S
C2528 C2530 1.381 . S
C2528 C2534 1.383 . S
C2529 C2525 1.495 . S
C2529 H2535 0.959 . S
C2529 H2536 0.961 . S
C2529 H2537 0.960 . S
C2530 C2528 1.381 . S
C2530 C2531 1.394 . S
C2530 H2538 0.930 1_455 S
C2531 C2530 1.394 . S
C2531 C2532 1.383 . S
C2531 H2539 0.923 1_455 S
C2532 C2531 1.383 . S
C2532 C2533 1.377 . S
C2533 H2517 0.930 . S
C2533 C2532 1.377 . S
C2533 C2534 1.379 . S
C2534 H2518 0.931 . S
C2534 C2528 1.383 . S
C2534 C2533 1.379 . S
H2535 C2529 0.959 . S
H2536 C2529 0.961 . S
H2537 C2529 0.960 . S
H2538 C2530 0.930 1_655 S
H2539 C2531 0.923 1_655 S
H2540 C2548 0.929 . S
H2541 C2550 0.930 . S
H2542 C2552 0.930 . S
H2543 C2555 0.929 . S
H2544 C2558 0.930 . S
H2545 C2560 0.960 . S
H2546 C2560 0.960 . S
H2547 C2560 0.960 . S
C2548 H2540 0.929 . S
C2548 C2549 1.377 . S
C2548 C2550 1.384 . S
C2549 C2548 1.377 . S
C2549 C2555 1.390 . S
C2550 H2541 0.930 . S
C2550 C2548 1.384 . S
C2550 C2551 1.372 . S
C2551 C2550 1.372 . S
C2551 C2552 1.400 . S
C2551 C2556 1.490 . S
C2552 H2542 0.930 . S
C2552 C2551 1.400 . S
C2552 C2555 1.386 . S
H2553 C2569 0.930 . S
H2554 C2570 0.931 . S
C2555 H2543 0.929 . S
C2555 C2549 1.390 . S
C2555 C2552 1.386 . S
C2556 C2551 1.490 . S
C2556 C2558 1.395 . S
C2556 C2559 1.403 . S
H2557 C2563 0.930 . S
C2558 H2544 0.930 . S
C2558 C2556 1.395 . S
C2558 C2561 1.403 . S
C2559 C2556 1.403 . S
C2559 C2560 1.524 . S
C2559 C2563 1.400 . S
C2560 H2545 0.960 . S
C2560 H2546 0.960 . S
C2560 H2547 0.960 . S
C2560 C2559 1.524 . S
C2561 C2558 1.403 . S
C2561 C2562 1.392 . S
C2561 C2565 1.495 . S
C2562 C2561 1.392 . S
C2562 C2563 1.385 . S
C2562 C2564 1.478 . S
C2563 H2557 0.930 . S
C2563 C2559 1.400 . S
C2563 C2562 1.385 . S
C2564 C2562 1.478 . S
C2564 C2566 1.381 . S
C2564 C2570 1.383 . S
C2565 C2561 1.495 . S
C2565 H2571 0.959 . S
C2565 H2572 0.961 . S
C2565 H2573 0.960 . S
C2566 C2564 1.381 . S
C2566 C2567 1.394 . S
C2566 H2574 0.930 . S
C2567 C2566 1.394 . S
C2567 C2568 1.383 . S
C2567 H2575 0.929 . S
C2568 C2567 1.383 . S
C2568 C2569 1.377 . S
C2569 H2553 0.930 . S
C2569 C2568 1.377 . S
C2569 C2570 1.379 . S
C2570 H2554 0.931 . S
C2570 C2564 1.383 . S
C2570 C2569 1.379 . S
H2571 C2565 0.959 . S
H2572 C2565 0.961 . S
H2573 C2565 0.960 . S
H2574 C2566 0.930 . S
H2575 C2567 0.929 . S
H2576 C2584 0.929 . S
H2577 C2586 0.930 . S
H2578 C2588 0.930 . S
H2579 C2591 0.929 . S
H2580 C2594 0.930 . S
H2581 C2596 0.960 . S
H2582 C2596 0.960 . S
H2583 C2596 0.960 . S
C2584 H2576 0.929 . S
C2584 C2585 1.377 . S
C2584 C2586 1.384 . S
C2585 C2584 1.377 . S
C2585 C2591 1.390 . S
C2586 H2577 0.930 . S
C2586 C2584 1.384 . S
C2586 C2587 1.372 . S
C2587 C2586 1.372 . S
C2587 C2588 1.400 . S
C2587 C2592 1.490 . S
C2588 H2578 0.930 . S
C2588 C2587 1.400 . S
C2588 C2591 1.386 . S
H2589 C2605 0.930 . S
H2590 C2606 0.931 . S
C2591 H2579 0.929 . S
C2591 C2585 1.390 . S
C2591 C2588 1.386 . S
C2592 C2587 1.490 . S
C2592 C2594 1.395 . S
C2592 C2595 1.403 . S
H2593 C2599 0.930 . S
C2594 H2580 0.930 . S
C2594 C2592 1.395 . S
C2594 C2597 1.403 . S
C2595 C2592 1.403 . S
C2595 C2596 1.524 . S
C2595 C2599 1.400 . S
C2596 H2581 0.960 . S
C2596 H2582 0.960 . S
C2596 H2583 0.960 . S
C2596 C2595 1.524 . S
C2597 C2594 1.403 . S
C2597 C2598 1.392 . S
C2597 C2601 1.495 . S
C2598 C2597 1.392 . S
C2598 C2599 1.385 . S
C2598 C2600 1.478 . S
C2599 H2593 0.930 . S
C2599 C2595 1.400 . S
C2599 C2598 1.385 . S
C2600 C2598 1.478 . S
C2600 C2602 1.381 . S
C2600 C2606 1.383 . S
C2601 C2597 1.495 . S
C2601 H2607 0.959 . S
C2601 H2608 0.961 . S
C2601 H2609 0.960 . S
C2602 C2600 1.381 . S
C2602 C2603 1.394 1_556 S
C2602 H2610 0.930 . S
C2603 C2602 1.394 1_554 S
C2603 C2604 1.398 . S
C2603 H2611 0.929 . S
C2604 C2603 1.398 . S
C2604 C2605 1.335 1_554 S
C2605 H2589 0.930 . S
C2605 C2604 1.335 1_556 S
C2605 C2606 1.379 . S
C2606 H2590 0.931 . S
C2606 C2600 1.383 . S
C2606 C2605 1.379 . S
H2607 C2601 0.959 . S
H2608 C2601 0.961 . S
H2609 C2601 0.960 . S
H2610 C2602 0.930 . S
H2611 C2603 0.929 . S
H2612 C2620 0.929 . S
H2613 C2622 0.930 . S
H2614 C2624 0.930 . S
H2615 C2627 0.929 . S
H2616 C2630 0.930 . S
H2617 C2632 0.960 . S
H2618 C2632 0.960 . S
H2619 C2632 0.960 . S
C2620 H2612 0.929 . S
C2620 C2621 1.377 . S
C2620 C2622 1.384 . S
C2621 C2620 1.377 . S
C2621 C2627 1.390 . S
C2622 H2613 0.930 . S
C2622 C2620 1.384 . S
C2622 C2623 1.372 . S
C2623 C2622 1.372 . S
C2623 C2624 1.400 . S
C2623 C2628 1.490 . S
C2624 H2614 0.930 . S
C2624 C2623 1.400 . S
C2624 C2627 1.386 . S
H2625 C2641 0.930 . S
H2626 C2642 0.931 . S
C2627 H2615 0.929 . S
C2627 C2621 1.390 . S
C2627 C2624 1.386 . S
C2628 C2623 1.490 . S
C2628 C2630 1.395 . S
C2628 C2631 1.403 . S
H2629 C2635 0.930 . S
C2630 H2616 0.930 . S
C2630 C2628 1.395 . S
C2630 C2633 1.403 . S
C2631 C2628 1.403 . S
C2631 C2632 1.524 . S
C2631 C2635 1.400 . S
C2632 H2617 0.960 . S
C2632 H2618 0.960 . S
C2632 H2619 0.960 . S
C2632 C2631 1.524 . S
C2633 C2630 1.403 . S
C2633 C2634 1.392 . S
C2633 C2637 1.495 . S
C2634 C2633 1.392 . S
C2634 C2635 1.385 . S
C2634 C2636 1.478 . S
C2635 H2629 0.930 . S
C2635 C2631 1.400 . S
C2635 C2634 1.385 . S
C2636 C2634 1.478 . S
C2636 C2638 1.381 . S
C2636 C2642 1.383 . S
C2637 C2633 1.495 . S
C2637 H2643 0.959 . S
C2637 H2644 0.961 . S
C2637 H2645 0.960 . S
C2638 C2636 1.381 . S
C2638 C2639 1.394 . S
C2638 H2646 0.930 . S
C2639 C2638 1.394 . S
C2639 C2640 1.383 . S
C2639 H2647 0.929 . S
C2640 C2639 1.383 . S
C2640 C2641 1.377 . S
C2641 H2625 0.930 . S
C2641 C2640 1.377 . S
C2641 C2642 1.379 . S
C2642 H2626 0.931 . S
C2642 C2636 1.383 . S
C2642 C2641 1.379 . S
H2643 C2637 0.959 . S
H2644 C2637 0.961 . S
H2645 C2637 0.960 . S
H2646 C2638 0.930 . S
H2647 C2639 0.929 . S
H2648 C2656 0.929 . S
H2649 C2658 0.930 . S
H2650 C2660 0.930 . S
H2651 C2663 0.929 . S
H2652 C2666 0.930 . S
H2653 C2668 0.960 . S
H2654 C2668 0.960 . S
H2655 C2668 0.960 . S
C2656 H2648 0.929 . S
C2656 C2657 1.377 . S
C2656 C2658 1.384 . S
C2657 C2656 1.377 . S
C2657 C2663 1.390 1_455 S
C2658 H2649 0.930 . S
C2658 C2656 1.384 . S
C2658 C2659 1.372 . S
C2659 C2658 1.372 . S
C2659 C2660 1.400 1_455 S
C2659 C2664 1.490 . S
C2660 H2650 0.930 . S
C2660 C2659 1.400 1_655 S
C2660 C2663 1.386 . S
H2661 C2677 0.930 1_655 S
H2662 C2678 0.931 1_655 S
C2663 H2651 0.929 . S
C2663 C2657 1.390 1_655 S
C2663 C2660 1.386 . S
C2664 C2659 1.490 . S
C2664 C2666 1.395 . S
C2664 C2667 1.403 1_455 S
H2665 C2671 0.930 1_655 S
C2666 H2652 0.930 . S
C2666 C2664 1.395 . S
C2666 C2669 1.403 . S
C2667 C2664 1.403 1_655 S
C2667 C2668 1.524 . S
C2667 C2671 1.400 1_655 S
C2668 H2653 0.960 . S
C2668 H2654 0.960 . S
C2668 H2655 0.960 . S
C2668 C2667 1.524 . S
C2669 C2666 1.403 . S
C2669 C2670 1.392 . S
C2669 C2673 1.495 . S
C2670 C2669 1.392 . S
C2670 C2671 1.385 . S
C2670 C2672 1.478 . S
C2671 H2665 0.930 1_455 S
C2671 C2667 1.400 1_455 S
C2671 C2670 1.385 . S
C2672 C2670 1.478 . S
C2672 C2674 1.381 . S
C2672 C2678 1.383 . S
C2673 C2669 1.495 . S
C2673 H2679 0.959 . S
C2673 H2680 0.961 . S
C2673 H2681 0.960 . S
C2674 C2672 1.381 . S
C2674 C2675 1.394 . S
C2674 H2682 0.930 . S
C2675 C2674 1.394 . S
C2675 C2676 1.383 . S
C2675 H2683 0.929 . S
C2676 C2675 1.383 . S
C2676 C2677 1.377 . S
C2677 H2661 0.930 1_455 S
C2677 C2676 1.377 . S
C2677 C2678 1.379 . S
C2678 H2662 0.931 1_455 S
C2678 C2672 1.383 . S
C2678 C2677 1.379 . S
H2679 C2673 0.959 . S
H2680 C2673 0.961 . S
H2681 C2673 0.960 . S
H2682 C2674 0.930 . S
H2683 C2675 0.929 . S
H2684 C2692 0.929 . S
H2685 C2694 0.930 . S
H2686 C2696 0.930 . S
H2687 C2699 0.929 . S
H2688 C2702 0.930 . S
H2689 C2704 0.960 . S
H2690 C2704 0.960 . S
H2691 C2704 0.960 . S
C2692 H2684 0.929 . S
C2692 C2693 1.377 . S
C2692 C2694 1.384 . S
C2693 C2692 1.377 . S
C2693 C2699 1.390 . S
C2694 H2685 0.930 . S
C2694 C2692 1.384 . S
C2694 C2695 1.372 . S
C2695 C2694 1.372 . S
C2695 C2696 1.400 . S
C2695 C2700 1.490 . S
C2696 H2686 0.930 . S
C2696 C2695 1.400 . S
C2696 C2699 1.386 . S
H2697 C2713 0.930 . S
H2698 C2714 0.931 . S
C2699 H2687 0.929 . S
C2699 C2693 1.390 . S
C2699 C2696 1.386 . S
C2700 C2695 1.490 . S
C2700 C2702 1.395 . S
C2700 C2703 1.403 . S
H2701 C2707 0.930 . S
C2702 H2688 0.930 . S
C2702 C2700 1.395 . S
C2702 C2705 1.403 . S
C2703 C2700 1.403 . S
C2703 C2704 1.524 . S
C2703 C2707 1.400 . S
C2704 H2689 0.960 . S
C2704 H2690 0.960 . S
C2704 H2691 0.960 . S
C2704 C2703 1.524 . S
C2705 C2702 1.403 . S
C2705 C2706 1.392 . S
C2705 C2709 1.495 . S
C2706 C2705 1.392 . S
C2706 C2707 1.385 . S
C2706 C2708 1.478 . S
C2707 H2701 0.930 . S
C2707 C2703 1.400 . S
C2707 C2706 1.385 . S
C2708 C2706 1.478 . S
C2708 C2710 1.381 . S
C2708 C2714 1.383 . S
C2709 C2705 1.495 . S
C2709 H2715 0.959 . S
C2709 H2716 0.961 . S
C2709 H2717 0.960 . S
C2710 C2708 1.381 . S
C2710 C2711 1.394 . S
C2710 H2718 0.930 . S
C2711 C2710 1.394 . S
C2711 C2712 1.383 . S
C2711 H2719 0.929 . S
C2712 C2711 1.383 . S
C2712 C2713 1.377 . S
C2713 H2697 0.930 . S
C2713 C2712 1.377 . S
C2713 C2714 1.379 . S
C2714 H2698 0.931 . S
C2714 C2708 1.383 . S
C2714 C2713 1.379 . S
H2715 C2709 0.959 . S
H2716 C2709 0.961 . S
H2717 C2709 0.960 . S
H2718 C2710 0.930 . S
H2719 C2711 0.929 . S
H2720 C2728 0.929 . S
H2721 C2730 0.930 . S
H2722 C2732 0.930 . S
H2723 C2735 0.929 . S
H2724 C2738 0.930 . S
H2725 C2740 0.960 . S
H2726 C2740 0.960 . S
H2727 C2740 0.960 . S
C2728 H2720 0.929 . S
C2728 C2729 1.377 . S
C2728 C2730 1.384 . S
C2729 C2728 1.377 . S
C2729 C2735 1.390 . S
C2730 H2721 0.930 . S
C2730 C2728 1.384 . S
C2730 C2731 1.372 . S
C2731 C2730 1.372 . S
C2731 C2732 1.400 . S
C2731 C2736 1.490 . S
C2732 H2722 0.930 . S
C2732 C2731 1.400 . S
C2732 C2735 1.386 . S
H2733 C2749 0.930 . S
H2734 C2750 0.931 . S
C2735 H2723 0.929 . S
C2735 C2729 1.390 . S
C2735 C2732 1.386 . S
C2736 C2731 1.490 . S
C2736 C2738 1.395 . S
C2736 C2739 1.403 . S
H2737 C2743 0.930 . S
C2738 H2724 0.930 . S
C2738 C2736 1.395 . S
C2738 C2741 1.403 . S
C2739 C2736 1.403 . S
C2739 C2740 1.524 . S
C2739 C2743 1.400 . S
C2740 H2725 0.960 . S
C2740 H2726 0.960 . S
C2740 H2727 0.960 . S
C2740 C2739 1.524 . S
C2741 C2738 1.403 . S
C2741 C2742 1.392 . S
C2741 C2745 1.495 . S
C2742 C2741 1.392 . S
C2742 C2743 1.385 . S
C2742 C2744 1.478 . S
C2743 H2737 0.930 . S
C2743 C2739 1.400 . S
C2743 C2742 1.385 . S
C2744 C2742 1.478 . S
C2744 C2746 1.381 . S
C2744 C2750 1.383 . S
C2745 C2741 1.495 . S
C2745 H2751 0.959 . S
C2745 H2752 0.961 . S
C2745 H2753 0.960 . S
C2746 C2744 1.381 . S
C2746 C2747 1.394 . S
C2746 H2754 0.930 . S
C2747 C2746 1.394 . S
C2747 C2748 1.383 . S
C2747 H2755 0.929 . S
C2748 C2747 1.383 . S
C2748 C2749 1.377 . S
C2749 H2733 0.930 . S
C2749 C2748 1.377 . S
C2749 C2750 1.379 . S
C2750 H2734 0.931 . S
C2750 C2744 1.383 . S
C2750 C2749 1.379 . S
H2751 C2745 0.959 . S
H2752 C2745 0.961 . S
H2753 C2745 0.960 . S
H2754 C2746 0.930 . S
H2755 C2747 0.929 . S
H2756 C2764 0.929 . S
H2757 C2766 0.930 . S
H2758 C2768 0.930 . S
H2759 C2771 0.929 . S
H2760 C2774 0.930 . S
H2761 C2776 0.960 . S
H2762 C2776 0.960 . S
H2763 C2776 0.960 . S
C2764 H2756 0.929 . S
C2764 C2765 1.377 . S
C2764 C2766 1.384 . S
C2765 C2764 1.377 . S
C2765 C2771 1.390 . S
C2766 H2757 0.930 . S
C2766 C2764 1.384 . S
C2766 C2767 1.372 . S
C2767 C2766 1.372 . S
C2767 C2768 1.400 . S
C2767 C2772 1.490 . S
C2768 H2758 0.930 . S
C2768 C2767 1.400 . S
C2768 C2771 1.386 . S
H2769 C2785 0.930 . S
H2770 C2786 0.931 . S
C2771 H2759 0.929 . S
C2771 C2765 1.390 . S
C2771 C2768 1.386 . S
C2772 C2767 1.490 . S
C2772 C2774 1.395 . S
C2772 C2775 1.403 . S
H2773 C2779 0.930 . S
C2774 H2760 0.930 . S
C2774 C2772 1.395 . S
C2774 C2777 1.403 . S
C2775 C2772 1.403 . S
C2775 C2776 1.524 . S
C2775 C2779 1.400 . S
C2776 H2761 0.960 . S
C2776 H2762 0.960 . S
C2776 H2763 0.960 . S
C2776 C2775 1.524 . S
C2777 C2774 1.403 . S
C2777 C2778 1.392 . S
C2777 C2781 1.495 . S
C2778 C2777 1.392 . S
C2778 C2779 1.385 . S
C2778 C2780 1.478 . S
C2779 H2773 0.930 . S
C2779 C2775 1.400 . S
C2779 C2778 1.385 . S
C2780 C2778 1.478 . S
C2780 C2782 1.381 . S
C2780 C2786 1.383 . S
C2781 C2777 1.495 . S
C2781 H2787 0.959 . S
C2781 H2788 0.961 . S
C2781 H2789 0.960 . S
C2782 C2780 1.381 . S
C2782 C2783 1.394 . S
C2782 H2790 0.930 . S
C2783 C2782 1.394 . S
C2783 C2784 1.383 . S
C2783 H2791 0.929 . S
C2784 C2783 1.383 . S
C2784 C2785 1.377 . S
C2785 H2769 0.930 . S
C2785 C2784 1.377 . S
C2785 C2786 1.379 . S
C2786 H2770 0.931 . S
C2786 C2780 1.383 . S
C2786 C2785 1.379 . S
H2787 C2781 0.959 . S
H2788 C2781 0.961 . S
H2789 C2781 0.960 . S
H2790 C2782 0.930 . S
H2791 C2783 0.929 . S
H2792 C2800 0.929 . S
H2793 C2802 0.930 . S
H2794 C2804 0.930 . S
H2795 C2807 0.929 . S
H2796 C2810 0.930 . S
H2797 C2812 0.960 . S
H2798 C2812 0.960 . S
H2799 C2812 0.960 . S
C2800 H2792 0.929 . S
C2800 C2801 1.377 . S
C2800 C2802 1.384 . S
C2801 C2800 1.377 . S
C2801 C2807 1.390 . S
C2802 H2793 0.930 . S
C2802 C2800 1.384 . S
C2802 C2803 1.372 . S
C2803 C2802 1.372 . S
C2803 C2804 1.400 . S
C2803 C2808 1.490 . S
C2804 H2794 0.930 . S
C2804 C2803 1.400 . S
C2804 C2807 1.386 . S
H2805 C2821 0.930 . S
H2806 C2822 0.931 . S
C2807 H2795 0.929 . S
C2807 C2801 1.390 . S
C2807 C2804 1.386 . S
C2808 C2803 1.490 . S
C2808 C2810 1.395 . S
C2808 C2811 1.403 . S
H2809 C2815 0.930 . S
C2810 H2796 0.930 . S
C2810 C2808 1.395 . S
C2810 C2813 1.403 . S
C2811 C2808 1.403 . S
C2811 C2812 1.524 . S
C2811 C2815 1.400 . S
C2812 H2797 0.960 . S
C2812 H2798 0.960 . S
C2812 H2799 0.960 . S
C2812 C2811 1.524 . S
C2813 C2810 1.403 . S
C2813 C2814 1.392 . S
C2813 C2817 1.495 . S
C2814 C2813 1.392 . S
C2814 C2815 1.385 . S
C2814 C2816 1.478 . S
C2815 H2809 0.930 . S
C2815 C2811 1.400 . S
C2815 C2814 1.385 . S
C2816 C2814 1.478 . S
C2816 C2818 1.381 . S
C2816 C2822 1.383 . S
C2817 C2813 1.495 . S
C2817 H2823 0.959 . S
C2817 H2824 0.961 . S
C2817 H2825 0.960 . S
C2818 C2816 1.381 . S
C2818 C2819 1.394 . S
C2818 H2826 0.930 . S
C2819 C2818 1.394 . S
C2819 C2820 1.383 . S
C2819 H2827 0.929 . S
C2820 C2819 1.383 . S
C2820 C2821 1.377 . S
C2821 H2805 0.930 . S
C2821 C2820 1.377 . S
C2821 C2822 1.379 . S
C2822 H2806 0.931 . S
C2822 C2816 1.383 . S
C2822 C2821 1.379 . S
H2823 C2817 0.959 . S
H2824 C2817 0.961 . S
H2825 C2817 0.960 . S
H2826 C2818 0.930 . S
H2827 C2819 0.929 . S
H2828 C2836 0.929 . S
H2829 C2838 0.930 . S
H2830 C2840 0.930 . S
H2831 C2843 0.929 . S
H2832 C2846 0.930 . S
H2833 C2848 0.960 . S
H2834 C2848 0.960 . S
H2835 C2848 0.960 . S
C2836 H2828 0.929 . S
C2836 C2837 1.377 . S
C2836 C2838 1.384 . S
C2837 C2836 1.377 . S
C2837 C2843 1.390 . S
C2838 H2829 0.930 . S
C2838 C2836 1.384 . S
C2838 C2839 1.372 . S
C2839 C2838 1.372 . S
C2839 C2840 1.400 . S
C2839 C2844 1.490 . S
C2840 H2830 0.930 . S
C2840 C2839 1.400 . S
C2840 C2843 1.386 . S
H2841 C2857 0.930 . S
H2842 C2858 0.931 . S
C2843 H2831 0.929 . S
C2843 C2837 1.390 . S
C2843 C2840 1.386 . S
C2844 C2839 1.490 . S
C2844 C2846 1.395 . S
C2844 C2847 1.403 . S
H2845 C2851 0.930 . S
C2846 H2832 0.930 . S
C2846 C2844 1.395 . S
C2846 C2849 1.403 . S
C2847 C2844 1.403 . S
C2847 C2848 1.524 . S
C2847 C2851 1.400 . S
C2848 H2833 0.960 . S
C2848 H2834 0.960 . S
C2848 H2835 0.960 . S
C2848 C2847 1.524 . S
C2849 C2846 1.403 . S
C2849 C2850 1.392 . S
C2849 C2853 1.495 . S
C2850 C2849 1.392 . S
C2850 C2851 1.385 . S
C2850 C2852 1.478 . S
C2851 H2845 0.930 . S
C2851 C2847 1.400 . S
C2851 C2850 1.385 . S
C2852 C2850 1.478 . S
C2852 C2854 1.381 . S
C2852 C2858 1.383 . S
C2853 C2849 1.495 . S
C2853 H2859 0.959 . S
C2853 H2860 0.961 . S
C2853 H2861 0.960 . S
C2854 C2852 1.381 . S
C2854 C2855 1.394 . S
C2854 H2862 0.930 . S
C2855 C2854 1.394 . S
C2855 C2856 1.383 . S
C2855 H2863 0.929 . S
C2856 C2855 1.383 . S
C2856 C2857 1.377 . S
C2857 H2841 0.930 . S
C2857 C2856 1.377 . S
C2857 C2858 1.379 . S
C2858 H2842 0.931 . S
C2858 C2852 1.383 . S
C2858 C2857 1.379 . S
H2859 C2853 0.959 . S
H2860 C2853 0.961 . S
H2861 C2853 0.960 . S
H2862 C2854 0.930 . S
H2863 C2855 0.929 . S
H2864 C2872 0.929 . S
H2865 C2874 0.930 . S
H2866 C2876 0.930 . S
H2867 C2879 0.929 . S
H2868 C2882 0.930 . S
H2869 C2884 0.960 . S
H2870 C2884 0.960 . S
H2871 C2884 0.960 . S
C2872 H2864 0.929 . S
C2872 C2873 1.377 . S
C2872 C2874 1.384 . S
C2873 C2872 1.377 . S
C2873 C2879 1.390 . S
C2874 H2865 0.930 . S
C2874 C2872 1.384 . S
C2874 C2875 1.372 . S
C2875 C2874 1.372 . S
C2875 C2876 1.400 . S
C2875 C2880 1.490 . S
C2876 H2866 0.930 . S
C2876 C2875 1.400 . S
C2876 C2879 1.386 . S
H2877 C2893 0.930 . S
H2878 C2894 0.931 . S
C2879 H2867 0.929 . S
C2879 C2873 1.390 . S
C2879 C2876 1.386 . S
C2880 C2875 1.490 . S
C2880 C2882 1.395 . S
C2880 C2883 1.403 . S
H2881 C2887 0.930 . S
C2882 H2868 0.930 . S
C2882 C2880 1.395 . S
C2882 C2885 1.403 . S
C2883 C2880 1.403 . S
C2883 C2884 1.524 . S
C2883 C2887 1.400 . S
C2884 H2869 0.960 . S
C2884 H2870 0.960 . S
C2884 H2871 0.960 . S
C2884 C2883 1.524 . S
C2885 C2882 1.403 . S
C2885 C2886 1.392 . S
C2885 C2889 1.495 . S
C2886 C2885 1.392 . S
C2886 C2887 1.385 . S
C2886 C2888 1.478 . S
C2887 H2881 0.930 . S
C2887 C2883 1.400 . S
C2887 C2886 1.385 . S
C2888 C2886 1.478 . S
C2888 C2890 1.381 . S
C2888 C2894 1.383 . S
C2889 C2885 1.495 . S
C2889 H2895 0.959 . S
C2889 H2896 0.961 . S
C2889 H2897 0.960 . S
C2890 C2888 1.381 . S
C2890 C2891 1.394 . S
C2890 H2898 0.930 . S
C2891 C2890 1.394 . S
C2891 C2892 1.383 . S
C2891 H2899 0.929 . S
C2892 C2891 1.383 . S
C2892 C2893 1.377 . S
C2893 H2877 0.930 . S
C2893 C2892 1.377 . S
C2893 C2894 1.379 . S
C2894 H2878 0.931 . S
C2894 C2888 1.383 . S
C2894 C2893 1.379 . S
H2895 C2889 0.959 . S
H2896 C2889 0.961 . S
H2897 C2889 0.960 . S
H2898 C2890 0.930 . S
H2899 C2891 0.929 . S
H2900 C2908 0.929 . S
H2901 C2910 0.930 . S
H2902 C2912 0.930 . S
H2903 C2915 0.929 . S
H2904 C2918 0.930 . S
H2905 C2920 0.960 . S
H2906 C2920 0.960 . S
H2907 C2920 0.960 . S
C2908 H2900 0.929 . S
C2908 C2909 1.377 . S
C2908 C2910 1.384 . S
C2909 C2908 1.377 . S
C2909 C2915 1.390 . S
C2910 H2901 0.930 . S
C2910 C2908 1.384 . S
C2910 C2911 1.372 . S
C2911 C2910 1.372 . S
C2911 C2912 1.400 . S
C2911 C2916 1.490 . S
C2912 H2902 0.930 . S
C2912 C2911 1.400 . S
C2912 C2915 1.386 . S
H2913 C2929 0.930 . S
H2914 C2930 0.931 . S
C2915 H2903 0.929 . S
C2915 C2909 1.390 . S
C2915 C2912 1.386 . S
C2916 C2911 1.490 . S
C2916 C2918 1.395 . S
C2916 C2919 1.403 . S
H2917 C2923 0.930 . S
C2918 H2904 0.930 . S
C2918 C2916 1.395 . S
C2918 C2921 1.403 . S
C2919 C2916 1.403 . S
C2919 C2920 1.524 . S
C2919 C2923 1.400 . S
C2920 H2905 0.960 . S
C2920 H2906 0.960 . S
C2920 H2907 0.960 . S
C2920 C2919 1.524 . S
C2921 C2918 1.403 . S
C2921 C2922 1.392 . S
C2921 C2925 1.495 . S
C2922 C2921 1.392 . S
C2922 C2923 1.385 . S
C2922 C2924 1.478 . S
C2923 H2917 0.930 . S
C2923 C2919 1.400 . S
C2923 C2922 1.385 . S
C2924 C2922 1.478 . S
C2924 C2926 1.381 . S
C2924 C2930 1.383 . S
C2925 C2921 1.495 . S
C2925 H2931 0.959 . S
C2925 H2932 0.961 . S
C2925 H2933 0.960 . S
C2926 C2924 1.381 . S
C2926 C2927 1.394 . S
C2926 H2934 0.930 . S
C2927 C2926 1.394 . S
C2927 C2928 1.383 . S
C2927 H2935 0.929 . S
C2928 C2927 1.383 . S
C2928 C2929 1.377 . S
C2929 H2913 0.930 . S
C2929 C2928 1.377 . S
C2929 C2930 1.379 . S
C2930 H2914 0.931 . S
C2930 C2924 1.383 . S
C2930 C2929 1.379 . S
H2931 C2925 0.959 . S
H2932 C2925 0.961 . S
H2933 C2925 0.960 . S
H2934 C2926 0.930 . S
H2935 C2927 0.929 . S
H2936 C2944 0.929 . S
H2937 C2946 0.930 . S
H2938 C2948 0.930 . S
H2939 C2951 0.929 . S
H2940 C2954 0.930 . S
H2941 C2956 0.960 . S
H2942 C2956 0.960 . S
H2943 C2956 0.960 . S
C2944 H2936 0.929 . S
C2944 C2945 1.377 . S
C2944 C2946 1.384 . S
C2945 C2944 1.377 . S
C2945 C2951 1.390 . S
C2946 H2937 0.930 . S
C2946 C2944 1.384 . S
C2946 C2947 1.372 . S
C2947 C2946 1.372 . S
C2947 C2948 1.400 . S
C2947 C2952 1.490 . S
C2948 H2938 0.930 . S
C2948 C2947 1.400 . S
C2948 C2951 1.386 . S
H2949 C2965 0.930 . S
H2950 C2966 0.931 . S
C2951 H2939 0.929 . S
C2951 C2945 1.390 . S
C2951 C2948 1.386 . S
C2952 C2947 1.490 . S
C2952 C2954 1.395 . S
C2952 C2955 1.403 . S
H2953 C2959 0.930 . S
C2954 H2940 0.930 . S
C2954 C2952 1.395 . S
C2954 C2957 1.403 . S
C2955 C2952 1.403 . S
C2955 C2956 1.524 . S
C2955 C2959 1.400 . S
C2956 H2941 0.960 . S
C2956 H2942 0.960 . S
C2956 H2943 0.960 . S
C2956 C2955 1.524 . S
C2957 C2954 1.403 . S
C2957 C2958 1.392 . S
C2957 C2961 1.495 . S
C2958 C2957 1.392 . S
C2958 C2959 1.385 . S
C2958 C2960 1.478 . S
C2959 H2953 0.930 . S
C2959 C2955 1.400 . S
C2959 C2958 1.385 . S
C2960 C2958 1.478 . S
C2960 C2962 1.381 . S
C2960 C2966 1.383 . S
C2961 C2957 1.495 . S
C2961 H2967 0.959 . S
C2961 H2968 0.961 . S
C2961 H2969 0.960 . S
C2962 C2960 1.381 . S
C2962 C2963 1.394 . S
C2962 H2970 0.930 . S
C2963 C2962 1.394 . S
C2963 C2964 1.383 . S
C2963 H2971 0.929 . S
C2964 C2963 1.383 . S
C2964 C2965 1.377 . S
C2965 H2949 0.930 . S
C2965 C2964 1.377 . S
C2965 C2966 1.379 . S
C2966 H2950 0.931 . S
C2966 C2960 1.383 . S
C2966 C2965 1.379 . S
H2967 C2961 0.959 . S
H2968 C2961 0.961 . S
H2969 C2961 0.960 . S
H2970 C2962 0.930 . S
H2971 C2963 0.929 . S
H2972 C2980 0.929 . S
H2973 C2982 0.930 . S
H2974 C2984 0.930 . S
H2975 C2987 0.929 . S
H2976 C2990 0.930 . S
H2977 C2992 0.960 . S
H2978 C2992 0.960 . S
H2979 C2992 0.960 . S
C2980 H2972 0.929 . S
C2980 C2981 1.377 . S
C2980 C2982 1.384 . S
C2981 C2980 1.377 . S
C2981 C2987 1.390 . S
C2982 H2973 0.930 . S
C2982 C2980 1.384 . S
C2982 C2983 1.372 . S
C2983 C2982 1.372 . S
C2983 C2984 1.400 . S
C2983 C2988 1.490 . S
C2984 H2974 0.930 . S
C2984 C2983 1.400 . S
C2984 C2987 1.386 . S
H2985 C3001 0.930 . S
H2986 C3002 0.931 . S
C2987 H2975 0.929 . S
C2987 C2981 1.390 . S
C2987 C2984 1.386 . S
C2988 C2983 1.490 . S
C2988 C2990 1.395 . S
C2988 C2991 1.403 . S
H2989 C2995 0.930 . S
C2990 H2976 0.930 . S
C2990 C2988 1.395 . S
C2990 C2993 1.403 . S
C2991 C2988 1.403 . S
C2991 C2992 1.524 . S
C2991 C2995 1.400 . S
C2992 H2977 0.960 . S
C2992 H2978 0.960 . S
C2992 H2979 0.960 . S
C2992 C2991 1.524 . S
C2993 C2990 1.403 . S
C2993 C2994 1.392 . S
C2993 C2997 1.495 . S
C2994 C2993 1.392 . S
C2994 C2995 1.385 . S
C2994 C2996 1.478 . S
C2995 H2989 0.930 . S
C2995 C2991 1.400 . S
C2995 C2994 1.385 . S
C2996 C2994 1.478 . S
C2996 C2998 1.381 . S
C2996 C3002 1.383 . S
C2997 C2993 1.495 . S
C2997 H3003 0.959 . S
C2997 H3004 0.961 . S
C2997 H3005 0.960 . S
C2998 C2996 1.381 . S
C2998 C2999 1.394 . S
C2998 H3006 0.930 . S
C2999 C2998 1.394 . S
C2999 C3000 1.383 . S
C2999 H3007 0.929 . S
C3000 C2999 1.383 . S
C3000 C3001 1.377 . S
C3001 H2985 0.930 . S
C3001 C3000 1.377 . S
C3001 C3002 1.379 . S
C3002 H2986 0.931 . S
C3002 C2996 1.383 . S
C3002 C3001 1.379 . S
H3003 C2997 0.959 . S
H3004 C2997 0.961 . S
H3005 C2997 0.960 . S
H3006 C2998 0.930 . S
H3007 C2999 0.929 . S
H3008 C3016 0.929 . S
H3009 C3018 0.930 . S
H3010 C3020 0.930 . S
H3011 C3023 0.929 . S
H3012 C3026 0.930 . S
H3013 C3028 0.960 . S
H3014 C3028 0.960 . S
H3015 C3028 0.960 . S
C3016 H3008 0.929 . S
C3016 C3017 1.377 . S
C3016 C3018 1.384 . S
C3017 C3016 1.377 . S
C3017 C3023 1.390 . S
C3018 H3009 0.930 . S
C3018 C3016 1.384 . S
C3018 C3019 1.372 . S
C3019 C3018 1.372 . S
C3019 C3020 1.400 . S
C3019 C3024 1.490 . S
C3020 H3010 0.930 . S
C3020 C3019 1.400 . S
C3020 C3023 1.386 . S
H3021 C3037 0.930 . S
H3022 C3038 0.931 . S
C3023 H3011 0.929 . S
C3023 C3017 1.390 . S
C3023 C3020 1.386 . S
C3024 C3019 1.490 . S
C3024 C3026 1.395 . S
C3024 C3027 1.403 . S
H3025 C3031 0.930 . S
C3026 H3012 0.930 . S
C3026 C3024 1.395 . S
C3026 C3029 1.403 . S
C3027 C3024 1.403 . S
C3027 C3028 1.524 . S
C3027 C3031 1.400 . S
C3028 H3013 0.960 . S
C3028 H3014 0.960 . S
C3028 H3015 0.960 . S
C3028 C3027 1.524 . S
C3029 C3026 1.403 . S
C3029 C3030 1.392 . S
C3029 C3033 1.495 . S
C3030 C3029 1.392 . S
C3030 C3031 1.385 . S
C3030 C3032 1.478 . S
C3031 H3025 0.930 . S
C3031 C3027 1.400 . S
C3031 C3030 1.385 . S
C3032 C3030 1.478 . S
C3032 C3034 1.381 . S
C3032 C3038 1.383 . S
C3033 C3029 1.495 . S
C3033 H3039 0.959 . S
C3033 H3040 0.961 . S
C3033 H3041 0.960 . S
C3034 C3032 1.381 . S
C3034 C3035 1.394 . S
C3034 H3042 0.930 . S
C3035 C3034 1.394 . S
C3035 C3036 1.383 . S
C3035 H3043 0.929 . S
C3036 C3035 1.383 . S
C3036 C3037 1.377 . S
C3037 H3021 0.930 . S
C3037 C3036 1.377 . S
C3037 C3038 1.379 . S
C3038 H3022 0.931 . S
C3038 C3032 1.383 . S
C3038 C3037 1.379 . S
H3039 C3033 0.959 . S
H3040 C3033 0.961 . S
H3041 C3033 0.960 . S
H3042 C3034 0.930 . S
H3043 C3035 0.929 . S
H3044 C3052 0.929 . S
H3045 C3054 0.930 . S
H3046 C3056 0.930 . S
H3047 C3059 0.929 . S
H3048 C3062 0.930 . S
H3049 C3064 0.960 . S
H3050 C3064 0.960 . S
H3051 C3064 0.960 . S
C3052 H3044 0.929 . S
C3052 C3053 1.377 . S
C3052 C3054 1.384 . S
C3053 C3052 1.377 . S
C3053 C3059 1.390 . S
C3054 H3045 0.930 . S
C3054 C3052 1.384 . S
C3054 C3055 1.372 . S
C3055 C3054 1.372 . S
C3055 C3056 1.400 . S
C3055 C3060 1.490 . S
C3056 H3046 0.930 . S
C3056 C3055 1.400 . S
C3056 C3059 1.386 . S
H3057 C3073 0.930 . S
H3058 C3074 0.931 . S
C3059 H3047 0.929 . S
C3059 C3053 1.390 . S
C3059 C3056 1.386 . S
C3060 C3055 1.490 . S
C3060 C3062 1.395 . S
C3060 C3063 1.403 . S
H3061 C3067 0.930 . S
C3062 H3048 0.930 . S
C3062 C3060 1.395 . S
C3062 C3065 1.403 . S
C3063 C3060 1.403 . S
C3063 C3064 1.524 . S
C3063 C3067 1.400 . S
C3064 H3049 0.960 . S
C3064 H3050 0.960 . S
C3064 H3051 0.960 . S
C3064 C3063 1.524 . S
C3065 C3062 1.403 . S
C3065 C3066 1.392 . S
C3065 C3069 1.495 . S
C3066 C3065 1.392 . S
C3066 C3067 1.385 . S
C3066 C3068 1.478 . S
C3067 H3061 0.930 . S
C3067 C3063 1.400 . S
C3067 C3066 1.385 . S
C3068 C3066 1.478 . S
C3068 C3070 1.381 . S
C3068 C3074 1.383 . S
C3069 C3065 1.495 . S
C3069 H3075 0.959 . S
C3069 H3076 0.961 . S
C3069 H3077 0.960 1_565 S
C3070 C3068 1.381 . S
C3070 C3071 1.394 1_565 S
C3070 H3078 0.951 . S
C3071 C3070 1.394 1_545 S
C3071 C3072 1.383 1_545 S
C3071 H3079 0.929 . S
C3072 C3071 1.383 1_565 S
C3072 C3073 1.377 . S
C3073 H3057 0.930 . S
C3073 C3072 1.377 . S
C3073 C3074 1.379 . S
C3074 H3058 0.931 . S
C3074 C3068 1.383 . S
C3074 C3073 1.379 . S
H3075 C3069 0.959 . S
H3076 C3069 0.961 . S
H3077 C3069 0.960 1_545 S
H3078 C3070 0.951 . S
H3079 C3071 0.929 . S
H3080 C3088 0.929 . S
H3081 C3090 0.930 . S
H3082 C3092 0.930 . S
H3083 C3095 0.929 . S
H3084 C3098 0.930 . S
H3085 C3100 0.960 . S
H3086 C3100 0.960 . S
H3087 C3100 0.960 . S
C3088 H3080 0.929 . S
C3088 C3089 1.377 . S
C3088 C3090 1.384 . S
C3089 C3088 1.377 . S
C3089 C3095 1.390 . S
C3090 H3081 0.930 . S
C3090 C3088 1.384 . S
C3090 C3091 1.372 . S
C3091 C3090 1.372 . S
C3091 C3092 1.400 . S
C3091 C3096 1.490 . S
C3092 H3082 0.930 . S
C3092 C3091 1.400 . S
C3092 C3095 1.386 . S
H3093 C3109 0.930 . S
H3094 C3110 0.931 . S
C3095 H3083 0.929 . S
C3095 C3089 1.390 . S
C3095 C3092 1.386 . S
C3096 C3091 1.490 . S
C3096 C3098 1.395 . S
C3096 C3099 1.403 . S
H3097 C3103 0.930 . S
C3098 H3084 0.930 . S
C3098 C3096 1.395 . S
C3098 C3101 1.403 . S
C3099 C3096 1.403 . S
C3099 C3100 1.524 . S
C3099 C3103 1.400 . S
C3100 H3085 0.960 . S
C3100 H3086 0.960 . S
C3100 H3087 0.960 . S
C3100 C3099 1.524 . S
C3101 C3098 1.403 . S
C3101 C3102 1.392 . S
C3101 C3105 1.495 . S
C3102 C3101 1.392 . S
C3102 C3103 1.385 . S
C3102 C3104 1.478 . S
C3103 H3097 0.930 . S
C3103 C3099 1.400 . S
C3103 C3102 1.385 . S
C3104 C3102 1.478 . S
C3104 C3106 1.381 . S
C3104 C3110 1.383 . S
C3105 C3101 1.495 . S
C3105 H3111 0.959 . S
C3105 H3112 0.961 . S
C3105 H3113 0.960 . S
C3106 C3104 1.381 . S
C3106 C3107 1.394 . S
C3106 H3114 0.930 . S
C3107 C3106 1.394 . S
C3107 C3108 1.383 . S
C3107 H3115 0.929 . S
C3108 C3107 1.383 . S
C3108 C3109 1.377 . S
C3109 H3093 0.930 . S
C3109 C3108 1.377 . S
C3109 C3110 1.379 . S
C3110 H3094 0.931 . S
C3110 C3104 1.383 . S
C3110 C3109 1.379 . S
H3111 C3105 0.959 . S
H3112 C3105 0.961 . S
H3113 C3105 0.960 . S
H3114 C3106 0.930 . S
H3115 C3107 0.929 . S
H3116 C3124 0.929 . S
H3117 C3126 0.930 . S
H3118 C3128 0.930 . S
H3119 C3131 0.929 . S
H3120 C3134 0.930 . S
H3121 C3136 0.960 . S
H3122 C3136 0.960 . S
H3123 C3136 0.960 . S
C3124 H3116 0.929 . S
C3124 C3125 1.377 1_556 S
C3124 C3126 1.384 . S
C3125 C3124 1.377 1_554 S
C3125 C3131 1.390 . S
C3126 H3117 0.930 . S
C3126 C3124 1.384 . S
C3126 C3127 1.372 1_556 S
C3127 C3126 1.372 1_554 S
C3127 C3128 1.400 . S
C3127 C3132 1.490 . S
C3128 H3118 0.930 . S
C3128 C3127 1.400 . S
C3128 C3131 1.386 . S
H3129 C3145 0.930 . S
H3130 C3146 0.931 . S
C3131 H3119 0.929 . S
C3131 C3125 1.390 . S
C3131 C3128 1.386 . S
C3132 C3127 1.490 . S
C3132 C3134 1.395 . S
C3132 C3135 1.403 . S
H3133 C3139 0.930 . S
C3134 H3120 0.930 . S
C3134 C3132 1.395 . S
C3134 C3137 1.403 . S
C3135 C3132 1.403 . S
C3135 C3136 1.524 . S
C3135 C3139 1.400 . S
C3136 H3121 0.960 . S
C3136 H3122 0.960 . S
C3136 H3123 0.960 . S
C3136 C3135 1.524 . S
C3137 C3134 1.403 . S
C3137 C3138 1.392 . S
C3137 C3141 1.495 . S
C3138 C3137 1.392 . S
C3138 C3139 1.385 . S
C3138 C3140 1.478 . S
C3139 H3133 0.930 . S
C3139 C3135 1.400 . S
C3139 C3138 1.385 . S
C3140 C3138 1.478 . S
C3140 C3142 1.381 . S
C3140 C3146 1.383 . S
C3141 C3137 1.495 . S
C3141 H3147 0.959 . S
C3141 H3148 0.961 . S
C3141 H3149 0.960 1_554 S
C3142 C3140 1.381 . S
C3142 C3143 1.394 . S
C3142 H3150 0.930 1_554 S
C3143 C3142 1.394 . S
C3143 C3144 1.383 . S
C3143 H3151 0.929 1_554 S
C3144 C3143 1.383 . S
C3144 C3145 1.377 . S
C3145 H3129 0.930 . S
C3145 C3144 1.377 . S
C3145 C3146 1.379 . S
C3146 H3130 0.931 . S
C3146 C3140 1.383 . S
C3146 C3145 1.379 . S
H3147 C3141 0.959 . S
H3148 C3141 0.961 . S
H3149 C3141 0.960 1_556 S
H3150 C3142 0.930 1_556 S
H3151 C3143 0.929 1_556 S
H3152 C3160 0.929 . S
H3153 C3162 0.930 . S
H3154 C3164 0.930 . S
H3155 C3167 0.929 . S
H3156 C3170 0.930 . S
H3157 C3172 0.960 . S
H3158 C3172 0.960 . S
H3159 C3172 0.960 . S
C3160 H3152 0.929 . S
C3160 C3161 1.377 . S
C3160 C3162 1.384 . S
C3161 C3160 1.377 . S
C3161 C3167 1.390 . S
C3162 H3153 0.930 . S
C3162 C3160 1.384 . S
C3162 C3163 1.372 . S
C3163 C3162 1.372 . S
C3163 C3164 1.400 . S
C3163 C3168 1.490 . S
C3164 H3154 0.930 . S
C3164 C3163 1.400 . S
C3164 C3167 1.386 . S
H3165 C3181 0.930 . S
H3166 C3182 0.931 . S
C3167 H3155 0.929 . S
C3167 C3161 1.390 . S
C3167 C3164 1.386 . S
C3168 C3163 1.490 . S
C3168 C3170 1.395 . S
C3168 C3171 1.403 . S
H3169 C3175 0.930 . S
C3170 H3156 0.930 . S
C3170 C3168 1.395 . S
C3170 C3173 1.403 . S
C3171 C3168 1.403 . S
C3171 C3172 1.524 . S
C3171 C3175 1.400 . S
C3172 H3157 0.960 . S
C3172 H3158 0.960 . S
C3172 H3159 0.960 . S
C3172 C3171 1.524 . S
C3173 C3170 1.403 . S
C3173 C3174 1.392 . S
C3173 C3177 1.495 . S
C3174 C3173 1.392 . S
C3174 C3175 1.385 . S
C3174 C3176 1.478 . S
C3175 H3169 0.930 . S
C3175 C3171 1.400 . S
C3175 C3174 1.385 . S
C3176 C3174 1.478 . S
C3176 C3178 1.381 . S
C3176 C3182 1.383 . S
C3177 C3173 1.495 . S
C3177 H3183 0.959 . S
C3177 H3184 0.961 . S
C3177 H3185 0.960 . S
C3178 C3176 1.381 . S
C3178 C3179 1.394 . S
C3178 H3186 0.930 . S
C3179 C3178 1.394 . S
C3179 C3180 1.383 . S
C3179 H3187 0.929 . S
C3180 C3179 1.383 . S
C3180 C3181 1.377 . S
C3181 H3165 0.930 . S
C3181 C3180 1.377 . S
C3181 C3182 1.379 . S
C3182 H3166 0.931 . S
C3182 C3176 1.383 . S
C3182 C3181 1.379 . S
H3183 C3177 0.959 . S
H3184 C3177 0.961 . S
H3185 C3177 0.960 . S
H3186 C3178 0.930 . S
H3187 C3179 0.929 . S
H3188 C3196 0.929 . S
H3189 C3198 0.930 . S
H3190 C3200 0.936 . S
H3191 C3203 0.927 . S
H3192 C3206 0.930 . S
H3193 C3208 0.960 . S
H3194 C3208 0.960 . S
H3195 C3208 0.960 . S
C3196 H3188 0.929 . S
C3196 C3197 1.377 . S
C3196 C3198 1.384 . S
C3197 C3196 1.377 . S
C3197 C3203 1.392 1_554 S
C3198 H3189 0.930 . S
C3198 C3196 1.384 . S
C3198 C3199 1.372 . S
C3199 C3198 1.372 . S
C3199 C3200 1.394 1_554 S
C3199 C3204 1.490 . S
C3200 H3190 0.936 . S
C3200 C3199 1.394 1_556 S
C3200 C3203 1.385 . S
H3201 C3217 0.930 . S
H3202 C3218 0.931 . S
C3203 H3191 0.927 . S
C3203 C3197 1.392 1_556 S
C3203 C3200 1.385 . S
C3204 C3199 1.490 . S
C3204 C3206 1.395 1_554 S
C3204 C3207 1.403 . S
H3205 C3211 0.930 . S
C3206 H3192 0.930 . S
C3206 C3204 1.395 1_556 S
C3206 C3209 1.403 . S
C3207 C3204 1.403 . S
C3207 C3208 1.524 . S
C3207 C3211 1.400 . S
C3208 H3193 0.960 . S
C3208 H3194 0.960 . S
C3208 H3195 0.960 . S
C3208 C3207 1.524 . S
C3209 C3206 1.403 . S
C3209 C3210 1.392 1_556 S
C3209 C3213 1.495 . S
C3210 C3209 1.392 1_554 S
C3210 C3211 1.385 . S
C3210 C3212 1.478 . S
C3211 H3205 0.930 . S
C3211 C3207 1.400 . S
C3211 C3210 1.385 . S
C3212 C3210 1.478 . S
C3212 C3214 1.381 . S
C3212 C3218 1.383 1_554 S
C3213 C3209 1.495 . S
C3213 H3219 0.959 . S
C3213 H3220 0.961 . S
C3213 H3221 0.960 . S
C3214 C3212 1.381 . S
C3214 C3215 1.394 . S
C3214 H3222 0.930 . S
C3215 C3214 1.394 . S
C3215 C3216 1.383 . S
C3215 H3223 0.929 . S
C3216 C3215 1.383 . S
C3216 C3217 1.377 1_554 S
C3217 H3201 0.930 . S
C3217 C3216 1.377 1_556 S
C3217 C3218 1.379 . S
C3218 H3202 0.931 . S
C3218 C3212 1.383 1_556 S
C3218 C3217 1.379 . S
H3219 C3213 0.959 . S
H3220 C3213 0.961 . S
H3221 C3213 0.960 . S
H3222 C3214 0.930 . S
H3223 C3215 0.929 . S
H3224 C3232 0.929 . S
H3225 C3234 0.930 . S
H3226 C3236 0.930 . S
H3227 C3239 0.929 . S
H3228 C3242 0.930 . S
H3229 C3244 0.960 . S
H3230 C3244 0.960 . S
H3231 C3244 0.960 . S
C3232 H3224 0.929 . S
C3232 C3233 1.377 . S
C3232 C3234 1.384 . S
C3233 C3232 1.377 . S
C3233 C3239 1.390 . S
C3234 H3225 0.930 . S
C3234 C3232 1.384 . S
C3234 C3235 1.372 . S
C3235 C3234 1.372 . S
C3235 C3236 1.400 . S
C3235 C3240 1.490 . S
C3236 H3226 0.930 . S
C3236 C3235 1.400 . S
C3236 C3239 1.386 . S
H3237 C3253 0.930 . S
H3238 C3254 0.931 . S
C3239 H3227 0.929 . S
C3239 C3233 1.390 . S
C3239 C3236 1.386 . S
C3240 C3235 1.490 . S
C3240 C3242 1.395 . S
C3240 C3243 1.403 . S
H3241 C3247 0.930 . S
C3242 H3228 0.930 . S
C3242 C3240 1.395 . S
C3242 C3245 1.403 . S
C3243 C3240 1.403 . S
C3243 C3244 1.524 . S
C3243 C3247 1.400 . S
C3244 H3229 0.960 . S
C3244 H3230 0.960 . S
C3244 H3231 0.960 . S
C3244 C3243 1.524 . S
C3245 C3242 1.403 . S
C3245 C3246 1.392 . S
C3245 C3249 1.495 . S
C3246 C3245 1.392 . S
C3246 C3247 1.385 . S
C3246 C3248 1.478 . S
C3247 H3241 0.930 . S
C3247 C3243 1.400 . S
C3247 C3246 1.385 . S
C3248 C3246 1.478 . S
C3248 C3250 1.381 . S
C3248 C3254 1.383 . S
C3249 C3245 1.495 . S
C3249 H3255 0.959 . S
C3249 H3256 0.961 . S
C3249 H3257 0.960 . S
C3250 C3248 1.381 . S
C3250 C3251 1.394 . S
C3250 H3258 0.930 . S
C3251 C3250 1.394 . S
C3251 C3252 1.383 . S
C3251 H3259 0.929 . S
C3252 C3251 1.383 . S
C3252 C3253 1.377 . S
C3253 H3237 0.930 . S
C3253 C3252 1.377 . S
C3253 C3254 1.379 . S
C3254 H3238 0.931 . S
C3254 C3248 1.383 . S
C3254 C3253 1.379 . S
H3255 C3249 0.959 . S
H3256 C3249 0.961 . S
H3257 C3249 0.960 . S
H3258 C3250 0.930 . S
H3259 C3251 0.929 . S
H3260 C3268 0.929 . S
H3261 C3270 0.930 . S
H3262 C3272 0.930 . S
H3263 C3275 0.929 . S
H3264 C3278 0.930 . S
H3265 C3280 0.960 . S
H3266 C3280 0.960 . S
H3267 C3280 0.960 . S
C3268 H3260 0.929 . S
C3268 C3269 1.377 . S
C3268 C3270 1.384 . S
C3269 C3268 1.377 . S
C3269 C3275 1.390 . S
C3270 H3261 0.930 . S
C3270 C3268 1.384 . S
C3270 C3271 1.372 . S
C3271 C3270 1.372 . S
C3271 C3272 1.400 . S
C3271 C3276 1.490 . S
C3272 H3262 0.930 . S
C3272 C3271 1.400 . S
C3272 C3275 1.386 . S
H3273 C3289 0.930 . S
H3274 C3290 0.931 . S
C3275 H3263 0.929 . S
C3275 C3269 1.390 . S
C3275 C3272 1.386 . S
C3276 C3271 1.490 . S
C3276 C3278 1.395 . S
C3276 C3279 1.403 . S
H3277 C3283 0.930 . S
C3278 H3264 0.930 . S
C3278 C3276 1.395 . S
C3278 C3281 1.403 . S
C3279 C3276 1.403 . S
C3279 C3280 1.524 . S
C3279 C3283 1.400 . S
C3280 H3265 0.960 . S
C3280 H3266 0.960 . S
C3280 H3267 0.960 . S
C3280 C3279 1.524 . S
C3281 C3278 1.403 . S
C3281 C3282 1.392 . S
C3281 C3285 1.495 . S
C3282 C3281 1.392 . S
C3282 C3283 1.385 . S
C3282 C3284 1.478 . S
C3283 H3277 0.930 . S
C3283 C3279 1.400 . S
C3283 C3282 1.385 . S
C3284 C3282 1.478 . S
C3284 C3286 1.381 . S
C3284 C3290 1.383 . S
C3285 C3281 1.495 . S
C3285 H3291 0.959 . S
C3285 H3292 0.961 . S
C3285 H3293 0.960 . S
C3286 C3284 1.381 . S
C3286 C3287 1.394 . S
C3286 H3294 0.930 . S
C3287 C3286 1.394 . S
C3287 C3288 1.383 . S
C3287 H3295 0.929 . S
C3288 C3287 1.383 . S
C3288 C3289 1.377 . S
C3289 H3273 0.930 . S
C3289 C3288 1.377 . S
C3289 C3290 1.379 . S
C3290 H3274 0.931 . S
C3290 C3284 1.383 . S
C3290 C3289 1.379 . S
H3291 C3285 0.959 . S
H3292 C3285 0.961 . S
H3293 C3285 0.960 . S
H3294 C3286 0.930 . S
H3295 C3287 0.929 . S
H3296 C3304 0.929 . S
H3297 C3306 0.930 . S
H3298 C3308 0.930 . S
H3299 C3311 0.929 . S
H3300 C3314 0.930 . S
H3301 C3316 0.960 . S
H3302 C3316 0.960 . S
H3303 C3316 0.960 . S
C3304 H3296 0.929 . S
C3304 C3305 1.377 . S
C3304 C3306 1.384 . S
C3305 C3304 1.377 . S
C3305 C3311 1.390 . S
C3306 H3297 0.930 . S
C3306 C3304 1.384 . S
C3306 C3307 1.372 . S
C3307 C3306 1.372 . S
C3307 C3308 1.400 . S
C3307 C3312 1.490 . S
C3308 H3298 0.930 . S
C3308 C3307 1.400 . S
C3308 C3311 1.386 . S
H3309 C3325 0.930 . S
H3310 C3326 0.931 . S
C3311 H3299 0.929 . S
C3311 C3305 1.390 . S
C3311 C3308 1.386 . S
C3312 C3307 1.490 . S
C3312 C3314 1.395 . S
C3312 C3315 1.403 . S
H3313 C3319 0.930 . S
C3314 H3300 0.930 . S
C3314 C3312 1.395 . S
C3314 C3317 1.403 . S
C3315 C3312 1.403 . S
C3315 C3316 1.524 . S
C3315 C3319 1.400 . S
C3316 H3301 0.960 . S
C3316 H3302 0.960 . S
C3316 H3303 0.960 . S
C3316 C3315 1.524 . S
C3317 C3314 1.403 . S
C3317 C3318 1.392 . S
C3317 C3321 1.495 . S
C3318 C3317 1.392 . S
C3318 C3319 1.385 . S
C3318 C3320 1.478 . S
C3319 H3313 0.930 . S
C3319 C3315 1.400 . S
C3319 C3318 1.385 . S
C3320 C3318 1.478 . S
C3320 C3322 1.381 . S
C3320 C3326 1.383 . S
C3321 C3317 1.495 . S
C3321 H3327 0.959 . S
C3321 H3328 0.961 . S
C3321 H3329 0.960 . S
C3322 C3320 1.381 . S
C3322 C3323 1.394 . S
C3322 H3330 0.930 . S
C3323 C3322 1.394 . S
C3323 C3324 1.383 . S
C3323 H3331 0.929 . S
C3324 C3323 1.383 . S
C3324 C3325 1.377 . S
C3325 H3309 0.930 . S
C3325 C3324 1.377 . S
C3325 C3326 1.379 . S
C3326 H3310 0.931 . S
C3326 C3320 1.383 . S
C3326 C3325 1.379 . S
H3327 C3321 0.959 . S
H3328 C3321 0.961 . S
H3329 C3321 0.960 . S
H3330 C3322 0.930 . S
H3331 C3323 0.929 . S
H3332 C3340 0.929 . S
H3333 C3342 0.930 . S
H3334 C3344 0.930 . S
H3335 C3347 0.929 . S
H3336 C3350 0.930 . S
H3337 C3352 0.960 . S
H3338 C3352 0.960 . S
H3339 C3352 0.960 . S
C3340 H3332 0.929 . S
C3340 C3341 1.377 . S
C3340 C3342 1.384 . S
C3341 C3340 1.377 . S
C3341 C3347 1.390 . S
C3342 H3333 0.930 . S
C3342 C3340 1.384 . S
C3342 C3343 1.372 . S
C3343 C3342 1.372 . S
C3343 C3344 1.400 . S
C3343 C3348 1.490 . S
C3344 H3334 0.930 . S
C3344 C3343 1.400 . S
C3344 C3347 1.386 . S
H3345 C3361 0.930 . S
H3346 C3362 0.931 . S
C3347 H3335 0.929 . S
C3347 C3341 1.390 . S
C3347 C3344 1.386 . S
C3348 C3343 1.490 . S
C3348 C3350 1.395 . S
C3348 C3351 1.403 . S
H3349 C3355 0.930 . S
C3350 H3336 0.930 . S
C3350 C3348 1.395 . S
C3350 C3353 1.403 . S
C3351 C3348 1.403 . S
C3351 C3352 1.524 . S
C3351 C3355 1.400 . S
C3352 H3337 0.960 . S
C3352 H3338 0.960 . S
C3352 H3339 0.960 . S
C3352 C3351 1.524 . S
C3353 C3350 1.403 . S
C3353 C3354 1.392 . S
C3353 C3357 1.495 . S
C3354 C3353 1.392 . S
C3354 C3355 1.385 . S
C3354 C3356 1.478 . S
C3355 H3349 0.930 . S
C3355 C3351 1.400 . S
C3355 C3354 1.385 . S
C3356 C3354 1.478 . S
C3356 C3358 1.381 . S
C3356 C3362 1.383 . S
C3357 C3353 1.495 . S
C3357 H3363 0.959 . S
C3357 H3364 0.961 . S
C3357 H3365 0.960 . S
C3358 C3356 1.381 . S
C3358 C3359 1.394 . S
C3358 H3366 0.930 . S
C3359 C3358 1.394 . S
C3359 C3360 1.383 . S
C3359 H3367 0.929 . S
C3360 C3359 1.383 . S
C3360 C3361 1.377 . S
C3361 H3345 0.930 . S
C3361 C3360 1.377 . S
C3361 C3362 1.379 . S
C3362 H3346 0.931 . S
C3362 C3356 1.383 . S
C3362 C3361 1.379 . S
H3363 C3357 0.959 . S
H3364 C3357 0.961 . S
H3365 C3357 0.960 . S
H3366 C3358 0.930 . S
H3367 C3359 0.929 . S
H3368 C3376 0.929 . S
H3369 C3378 0.930 . S
H3370 C3380 0.930 . S
H3371 C3383 0.929 . S
H3372 C3386 0.930 . S
H3373 C3388 0.960 . S
H3374 C3388 0.960 1_655 S
H3375 C3388 0.960 . S
C3376 H3368 0.929 . S
C3376 C3377 1.377 1_655 S
C3376 C3378 1.384 . S
C3377 C3376 1.377 1_455 S
C3377 C3383 1.390 . S
C3378 H3369 0.930 . S
C3378 C3376 1.384 . S
C3378 C3379 1.357 1_655 S
C3379 C3378 1.357 1_455 S
C3379 C3380 1.416 . S
C3379 C3384 1.489 1_455 S
C3380 H3370 0.930 . S
C3380 C3379 1.416 . S
C3380 C3383 1.386 . S
H3381 C3397 0.914 1_554 S
H3382 C3398 0.931 . S
C3383 H3371 0.929 . S
C3383 C3377 1.390 . S
C3383 C3380 1.386 . S
C3384 C3379 1.489 1_655 S
C3384 C3386 1.395 . S
C3384 C3387 1.403 1_655 S
H3385 C3391 0.931 1_455 S
C3386 H3372 0.930 . S
C3386 C3384 1.395 . S
C3386 C3389 1.403 . S
C3387 C3384 1.403 1_455 S
C3387 C3388 1.524 . S
C3387 C3391 1.400 1_455 S
C3388 H3373 0.960 . S
C3388 H3374 0.960 1_455 S
C3388 H3375 0.960 . S
C3388 C3387 1.524 . S
C3389 C3386 1.403 . S
C3389 C3390 1.392 . S
C3389 C3393 1.495 . S
C3390 C3389 1.392 . S
C3390 C3391 1.385 . S
C3390 C3392 1.478 . S
C3391 H3385 0.931 1_655 S
C3391 C3387 1.400 1_655 S
C3391 C3390 1.385 . S
C3392 C3390 1.478 . S
C3392 C3394 1.381 . S
C3392 C3398 1.383 1_655 S
C3393 C3389 1.495 . S
C3393 H3399 0.959 . S
C3393 H3400 0.961 1_655 S
C3393 H3401 0.960 . S
C3394 C3392 1.381 . S
C3394 C3395 1.394 . S
C3394 H3402 0.930 . S
C3395 C3394 1.394 . S
C3395 C3396 1.383 . S
C3395 H3403 0.929 . S
C3396 C3395 1.383 . S
C3396 C3397 1.377 1_655 S
C3397 H3381 0.914 1_556 S
C3397 C3396 1.377 1_455 S
C3397 C3398 1.379 . S
C3398 H3382 0.931 . S
C3398 C3392 1.383 1_455 S
C3398 C3397 1.379 . S
H3399 C3393 0.959 . S
H3400 C3393 0.961 1_455 S
H3401 C3393 0.960 . S
H3402 C3394 0.930 . S
H3403 C3395 0.929 . S
H3404 C3412 0.929 . S
H3405 C3414 0.930 . S
H3406 C3416 0.930 . S
H3407 C3419 0.929 . S
H3408 C3422 0.930 . S
H3409 C3424 0.960 . S
H3410 C3424 0.960 . S
H3411 C3424 0.960 . S
C3412 H3404 0.929 . S
C3412 C3413 1.377 . S
C3412 C3414 1.384 . S
C3413 C3412 1.377 . S
C3413 C3419 1.390 . S
C3414 H3405 0.930 . S
C3414 C3412 1.384 . S
C3414 C3415 1.372 . S
C3415 C3414 1.372 . S
C3415 C3416 1.400 . S
C3415 C3420 1.490 . S
C3416 H3406 0.930 . S
C3416 C3415 1.400 . S
C3416 C3419 1.386 . S
H3417 C3433 0.930 . S
H3418 C3434 0.931 . S
C3419 H3407 0.929 . S
C3419 C3413 1.390 . S
C3419 C3416 1.386 . S
C3420 C3415 1.490 . S
C3420 C3422 1.395 . S
C3420 C3423 1.403 . S
H3421 C3427 0.930 . S
C3422 H3408 0.930 . S
C3422 C3420 1.395 . S
C3422 C3425 1.403 . S
C3423 C3420 1.403 . S
C3423 C3424 1.524 . S
C3423 C3427 1.400 . S
C3424 H3409 0.960 . S
C3424 H3410 0.960 . S
C3424 H3411 0.960 . S
C3424 C3423 1.524 . S
C3425 C3422 1.403 . S
C3425 C3426 1.392 . S
C3425 C3429 1.495 . S
C3426 C3425 1.392 . S
C3426 C3427 1.385 . S
C3426 C3428 1.478 . S
C3427 H3421 0.930 . S
C3427 C3423 1.400 . S
C3427 C3426 1.385 . S
C3428 C3426 1.478 . S
C3428 C3430 1.381 . S
C3428 C3434 1.383 . S
C3429 C3425 1.495 . S
C3429 H3435 0.959 . S
C3429 H3436 0.961 . S
C3429 H3437 0.960 . S
C3430 C3428 1.381 . S
C3430 C3431 1.394 . S
C3430 H3438 0.930 . S
C3431 C3430 1.394 . S
C3431 C3432 1.383 . S
C3431 H3439 0.929 . S
C3432 C3431 1.383 . S
C3432 C3433 1.377 . S
C3433 H3417 0.930 . S
C3433 C3432 1.377 . S
C3433 C3434 1.379 . S
C3434 H3418 0.931 . S
C3434 C3428 1.383 . S
C3434 C3433 1.379 . S
H3435 C3429 0.959 . S
H3436 C3429 0.961 . S
H3437 C3429 0.960 . S
H3438 C3430 0.930 . S
H3439 C3431 0.929 . S
H3440 C3448 0.929 . S
H3441 C3450 0.930 . S
H3442 C3452 0.930 . S
H3443 C3455 0.929 . S
H3444 C3458 0.930 . S
H3445 C3460 0.960 . S
H3446 C3460 0.960 . S
H3447 C3460 0.960 . S
C3448 H3440 0.929 . S
C3448 C3449 1.377 . S
C3448 C3450 1.384 . S
C3449 C3448 1.377 . S
C3449 C3455 1.390 . S
C3450 H3441 0.930 . S
C3450 C3448 1.384 . S
C3450 C3451 1.372 . S
C3451 C3450 1.372 . S
C3451 C3452 1.400 . S
C3451 C3456 1.490 . S
C3452 H3442 0.930 . S
C3452 C3451 1.400 . S
C3452 C3455 1.386 . S
H3453 C3469 0.930 . S
H3454 C3470 0.931 . S
C3455 H3443 0.929 . S
C3455 C3449 1.390 . S
C3455 C3452 1.386 . S
C3456 C3451 1.490 . S
C3456 C3458 1.395 . S
C3456 C3459 1.403 . S
H3457 C3463 0.930 . S
C3458 H3444 0.930 . S
C3458 C3456 1.395 . S
C3458 C3461 1.403 . S
C3459 C3456 1.403 . S
C3459 C3460 1.524 . S
C3459 C3463 1.400 . S
C3460 H3445 0.960 . S
C3460 H3446 0.960 . S
C3460 H3447 0.960 . S
C3460 C3459 1.524 . S
C3461 C3458 1.403 . S
C3461 C3462 1.392 . S
C3461 C3465 1.495 . S
C3462 C3461 1.392 . S
C3462 C3463 1.385 . S
C3462 C3464 1.478 . S
C3463 H3457 0.930 . S
C3463 C3459 1.400 . S
C3463 C3462 1.385 . S
C3464 C3462 1.478 . S
C3464 C3466 1.381 . S
C3464 C3470 1.383 . S
C3465 C3461 1.495 . S
C3465 H3471 0.959 . S
C3465 H3472 0.961 . S
C3465 H3473 0.960 . S
C3466 C3464 1.381 . S
C3466 C3467 1.394 . S
C3466 H3474 0.930 . S
C3467 C3466 1.394 . S
C3467 C3468 1.383 . S
C3467 H3475 0.929 . S
C3468 C3467 1.383 . S
C3468 C3469 1.377 . S
C3469 H3453 0.930 . S
C3469 C3468 1.377 . S
C3469 C3470 1.379 . S
C3470 H3454 0.931 . S
C3470 C3464 1.383 . S
C3470 C3469 1.379 . S
H3471 C3465 0.959 . S
H3472 C3465 0.961 . S
H3473 C3465 0.960 . S
H3474 C3466 0.930 . S
H3475 C3467 0.929 . S
H3476 C3484 0.929 . S
H3477 C3486 0.930 . S
H3478 C3488 0.930 . S
H3479 C3491 0.929 . S
H3480 C3494 0.930 . S
H3481 C3496 0.960 . S
H3482 C3496 0.960 . S
H3483 C3496 0.960 . S
C3484 H3476 0.929 . S
C3484 C3485 1.377 . S
C3484 C3486 1.384 . S
C3485 C3484 1.377 . S
C3485 C3491 1.390 . S
C3486 H3477 0.930 . S
C3486 C3484 1.384 . S
C3486 C3487 1.372 . S
C3487 C3486 1.372 . S
C3487 C3488 1.400 . S
C3487 C3492 1.490 . S
C3488 H3478 0.930 . S
C3488 C3487 1.400 . S
C3488 C3491 1.386 . S
H3489 C3505 0.930 . S
H3490 C3506 0.931 . S
C3491 H3479 0.929 . S
C3491 C3485 1.390 . S
C3491 C3488 1.386 . S
C3492 C3487 1.490 . S
C3492 C3494 1.395 . S
C3492 C3495 1.403 . S
H3493 C3499 0.930 . S
C3494 H3480 0.930 . S
C3494 C3492 1.395 . S
C3494 C3497 1.403 . S
C3495 C3492 1.403 . S
C3495 C3496 1.524 . S
C3495 C3499 1.400 . S
C3496 H3481 0.960 . S
C3496 H3482 0.960 . S
C3496 H3483 0.960 . S
C3496 C3495 1.524 . S
C3497 C3494 1.403 . S
C3497 C3498 1.392 . S
C3497 C3501 1.495 . S
C3498 C3497 1.392 . S
C3498 C3499 1.385 . S
C3498 C3500 1.478 . S
C3499 H3493 0.930 . S
C3499 C3495 1.400 . S
C3499 C3498 1.385 . S
C3500 C3498 1.478 . S
C3500 C3502 1.381 . S
C3500 C3506 1.383 . S
C3501 C3497 1.495 . S
C3501 H3507 0.959 . S
C3501 H3508 0.961 . S
C3501 H3509 0.960 . S
C3502 C3500 1.381 . S
C3502 C3503 1.394 . S
C3502 H3510 0.930 . S
C3503 C3502 1.394 . S
C3503 C3504 1.383 . S
C3503 H3511 0.929 . S
C3504 C3503 1.383 . S
C3504 C3505 1.377 . S
C3505 H3489 0.930 . S
C3505 C3504 1.377 . S
C3505 C3506 1.379 . S
C3506 H3490 0.931 . S
C3506 C3500 1.383 . S
C3506 C3505 1.379 . S
H3507 C3501 0.959 . S
H3508 C3501 0.961 . S
H3509 C3501 0.960 . S
H3510 C3502 0.930 . S
H3511 C3503 0.929 . S
H3512 C3520 0.929 . S
H3513 C3522 0.930 . S
H3514 C3524 0.923 1_655 S
H3515 C3527 0.936 . S
H3516 C3530 0.930 . S
H3517 C3532 0.960 . S
H3518 C3532 0.960 . S
H3519 C3532 0.960 . S
C3520 H3512 0.929 . S
C3520 C3521 1.377 . S
C3520 C3522 1.384 . S
C3521 C3520 1.377 . S
C3521 C3527 1.390 . S
C3522 H3513 0.930 . S
C3522 C3520 1.384 . S
C3522 C3523 1.372 . S
C3523 C3522 1.372 . S
C3523 C3524 1.404 . S
C3523 C3528 1.490 . S
C3524 H3514 0.923 1_455 S
C3524 C3523 1.404 . S
C3524 C3527 1.390 . S
H3525 C3541 0.930 . S
H3526 C3542 0.931 . S
C3527 H3515 0.936 . S
C3527 C3521 1.390 . S
C3527 C3524 1.390 . S
C3528 C3523 1.490 . S
C3528 C3530 1.396 1_455 S
C3528 C3531 1.402 . S
H3529 C3535 0.930 . S
C3530 H3516 0.930 . S
C3530 C3528 1.396 1_655 S
C3530 C3533 1.403 . S
C3531 C3528 1.402 . S
C3531 C3532 1.524 . S
C3531 C3535 1.400 . S
C3532 H3517 0.960 . S
C3532 H3518 0.960 . S
C3532 H3519 0.960 . S
C3532 C3531 1.524 . S
C3533 C3530 1.403 . S
C3533 C3534 1.392 . S
C3533 C3537 1.495 . S
C3534 C3533 1.392 . S
C3534 C3535 1.385 1_655 S
C3534 C3536 1.478 . S
C3535 H3529 0.930 . S
C3535 C3531 1.400 . S
C3535 C3534 1.385 1_455 S
C3536 C3534 1.478 . S
C3536 C3538 1.381 . S
C3536 C3542 1.383 . S
C3537 C3533 1.495 . S
C3537 H3543 0.959 . S
C3537 H3544 0.961 . S
C3537 H3545 0.960 . S
C3538 C3536 1.381 . S
C3538 C3539 1.394 . S
C3538 H3546 0.944 . S
C3539 C3538 1.394 . S
C3539 C3540 1.383 . S
C3539 H3547 0.929 . S
C3540 C3539 1.383 . S
C3540 C3541 1.377 . S
C3541 H3525 0.930 . S
C3541 C3540 1.377 . S
C3541 C3542 1.379 . S
C3542 H3526 0.931 . S
C3542 C3536 1.383 . S
C3542 C3541 1.379 . S
H3543 C3537 0.959 . S
H3544 C3537 0.961 . S
H3545 C3537 0.960 . S
H3546 C3538 0.944 . S
H3547 C3539 0.929 . S
H3548 C3556 0.929 . S
H3549 C3558 0.930 . S
H3550 C3560 0.930 . S
H3551 C3563 0.929 . S
H3552 C3566 0.930 . S
H3553 C3568 0.960 . S
H3554 C3568 0.960 . S
H3555 C3568 0.960 . S
C3556 H3548 0.929 . S
C3556 C3557 1.377 . S
C3556 C3558 1.384 . S
C3557 C3556 1.377 . S
C3557 C3563 1.390 . S
C3558 H3549 0.930 . S
C3558 C3556 1.384 . S
C3558 C3559 1.372 . S
C3559 C3558 1.372 . S
C3559 C3560 1.400 . S
C3559 C3564 1.490 . S
C3560 H3550 0.930 . S
C3560 C3559 1.400 . S
C3560 C3563 1.386 . S
H3561 C3577 0.930 . S
H3562 C3578 0.931 . S
C3563 H3551 0.929 . S
C3563 C3557 1.390 . S
C3563 C3560 1.386 . S
C3564 C3559 1.490 . S
C3564 C3566 1.395 . S
C3564 C3567 1.403 . S
H3565 C3571 0.930 . S
C3566 H3552 0.930 . S
C3566 C3564 1.395 . S
C3566 C3569 1.403 . S
C3567 C3564 1.403 . S
C3567 C3568 1.524 . S
C3567 C3571 1.400 . S
C3568 H3553 0.960 . S
C3568 H3554 0.960 . S
C3568 H3555 0.960 . S
C3568 C3567 1.524 . S
C3569 C3566 1.403 . S
C3569 C3570 1.392 . S
C3569 C3573 1.495 . S
C3570 C3569 1.392 . S
C3570 C3571 1.385 . S
C3570 C3572 1.478 . S
C3571 H3565 0.930 . S
C3571 C3567 1.400 . S
C3571 C3570 1.385 . S
C3572 C3570 1.478 . S
C3572 C3574 1.381 . S
C3572 C3578 1.383 . S
C3573 C3569 1.495 . S
C3573 H3579 0.959 . S
C3573 H3580 0.961 . S
C3573 H3581 0.960 . S
C3574 C3572 1.381 . S
C3574 C3575 1.394 . S
C3574 H3582 0.930 . S
C3575 C3574 1.394 . S
C3575 C3576 1.383 . S
C3575 H3583 0.929 . S
C3576 C3575 1.383 . S
C3576 C3577 1.377 . S
C3577 H3561 0.930 . S
C3577 C3576 1.377 . S
C3577 C3578 1.379 . S
C3578 H3562 0.931 . S
C3578 C3572 1.383 . S
C3578 C3577 1.379 . S
H3579 C3573 0.959 . S
H3580 C3573 0.961 . S
H3581 C3573 0.960 . S
H3582 C3574 0.930 . S
H3583 C3575 0.929 . S
H3584 C3592 0.929 . S
H3585 C3594 0.930 . S
H3586 C3596 0.930 . S
H3587 C3599 0.929 . S
H3588 C3602 0.930 . S
H3589 C3604 0.960 . S
H3590 C3604 0.960 . S
H3591 C3604 0.960 . S
C3592 H3584 0.929 . S
C3592 C3593 1.377 . S
C3592 C3594 1.384 . S
C3593 C3592 1.377 . S
C3593 C3599 1.390 . S
C3594 H3585 0.930 . S
C3594 C3592 1.384 . S
C3594 C3595 1.372 . S
C3595 C3594 1.372 . S
C3595 C3596 1.400 . S
C3595 C3600 1.490 . S
C3596 H3586 0.930 . S
C3596 C3595 1.400 . S
C3596 C3599 1.386 . S
H3597 C3613 0.930 . S
H3598 C3614 0.931 . S
C3599 H3587 0.929 . S
C3599 C3593 1.390 . S
C3599 C3596 1.386 . S
C3600 C3595 1.490 . S
C3600 C3602 1.395 . S
C3600 C3603 1.403 . S
H3601 C3607 0.930 . S
C3602 H3588 0.930 . S
C3602 C3600 1.395 . S
C3602 C3605 1.403 . S
C3603 C3600 1.403 . S
C3603 C3604 1.524 . S
C3603 C3607 1.400 . S
C3604 H3589 0.960 . S
C3604 H3590 0.960 . S
C3604 H3591 0.960 . S
C3604 C3603 1.524 . S
C3605 C3602 1.403 . S
C3605 C3606 1.392 . S
C3605 C3609 1.495 . S
C3606 C3605 1.392 . S
C3606 C3607 1.385 . S
C3606 C3608 1.478 . S
C3607 H3601 0.930 . S
C3607 C3603 1.400 . S
C3607 C3606 1.385 . S
C3608 C3606 1.478 . S
C3608 C3610 1.381 . S
C3608 C3614 1.383 . S
C3609 C3605 1.495 . S
C3609 H3615 0.959 . S
C3609 H3616 0.961 . S
C3609 H3617 0.960 . S
C3610 C3608 1.381 . S
C3610 C3611 1.394 . S
C3610 H3618 0.930 . S
C3611 C3610 1.394 . S
C3611 C3612 1.383 . S
C3611 H3619 0.929 . S
C3612 C3611 1.383 . S
C3612 C3613 1.377 . S
C3613 H3597 0.930 . S
C3613 C3612 1.377 . S
C3613 C3614 1.379 . S
C3614 H3598 0.931 . S
C3614 C3608 1.383 . S
C3614 C3613 1.379 . S
H3615 C3609 0.959 . S
H3616 C3609 0.961 . S
H3617 C3609 0.960 . S
H3618 C3610 0.930 . S
H3619 C3611 0.929 . S
H3620 C3628 0.929 . S
H3621 C3630 0.930 . S
H3622 C3632 0.930 . S
H3623 C3635 0.929 . S
H3624 C3638 0.930 . S
H3625 C3640 0.960 . S
H3626 C3640 0.960 . S
H3627 C3640 0.960 . S
C3628 H3620 0.929 . S
C3628 C3629 1.377 . S
C3628 C3630 1.384 . S
C3629 C3628 1.377 . S
C3629 C3635 1.390 . S
C3630 H3621 0.930 . S
C3630 C3628 1.384 . S
C3630 C3631 1.372 . S
C3631 C3630 1.372 . S
C3631 C3632 1.400 . S
C3631 C3636 1.490 . S
C3632 H3622 0.930 . S
C3632 C3631 1.400 . S
C3632 C3635 1.386 . S
H3633 C3649 0.930 . S
H3634 C3650 0.931 . S
C3635 H3623 0.929 . S
C3635 C3629 1.390 . S
C3635 C3632 1.386 . S
C3636 C3631 1.490 . S
C3636 C3638 1.395 . S
C3636 C3639 1.403 . S
H3637 C3643 0.930 . S
C3638 H3624 0.930 . S
C3638 C3636 1.395 . S
C3638 C3641 1.403 . S
C3639 C3636 1.403 . S
C3639 C3640 1.524 . S
C3639 C3643 1.400 . S
C3640 H3625 0.960 . S
C3640 H3626 0.960 . S
C3640 H3627 0.960 . S
C3640 C3639 1.524 . S
C3641 C3638 1.403 . S
C3641 C3642 1.392 . S
C3641 C3645 1.495 . S
C3642 C3641 1.392 . S
C3642 C3643 1.385 . S
C3642 C3644 1.478 . S
C3643 H3637 0.930 . S
C3643 C3639 1.400 . S
C3643 C3642 1.385 . S
C3644 C3642 1.478 . S
C3644 C3646 1.381 . S
C3644 C3650 1.383 . S
C3645 C3641 1.495 . S
C3645 H3651 0.959 . S
C3645 H3652 0.961 . S
C3645 H3653 0.960 . S
C3646 C3644 1.381 . S
C3646 C3647 1.394 . S
C3646 H3654 0.930 . S
C3647 C3646 1.394 . S
C3647 C3648 1.383 . S
C3647 H3655 0.929 . S
C3648 C3647 1.383 . S
C3648 C3649 1.377 . S
C3649 H3633 0.930 . S
C3649 C3648 1.377 . S
C3649 C3650 1.379 . S
C3650 H3634 0.931 . S
C3650 C3644 1.383 . S
C3650 C3649 1.379 . S
H3651 C3645 0.959 . S
H3652 C3645 0.961 . S
H3653 C3645 0.960 . S
H3654 C3646 0.930 . S
H3655 C3647 0.929 . S
H3656 C3664 0.929 . S
H3657 C3666 0.930 . S
H3658 C3668 0.930 . S
H3659 C3671 0.929 . S
H3660 C3674 0.930 . S
H3661 C3676 0.960 . S
H3662 C3676 0.960 . S
H3663 C3676 0.960 . S
C3664 H3656 0.929 . S
C3664 C3665 1.377 . S
C3664 C3666 1.384 . S
C3665 C3664 1.377 . S
C3665 C3671 1.390 . S
C3666 H3657 0.930 . S
C3666 C3664 1.384 . S
C3666 C3667 1.372 . S
C3667 C3666 1.372 . S
C3667 C3668 1.400 . S
C3667 C3672 1.490 . S
C3668 H3658 0.930 . S
C3668 C3667 1.400 . S
C3668 C3671 1.386 . S
H3669 C3685 0.930 . S
H3670 C3686 0.931 . S
C3671 H3659 0.929 . S
C3671 C3665 1.390 . S
C3671 C3668 1.386 . S
C3672 C3667 1.490 . S
C3672 C3674 1.395 . S
C3672 C3675 1.403 . S
H3673 C3679 0.930 . S
C3674 H3660 0.930 . S
C3674 C3672 1.395 . S
C3674 C3677 1.403 . S
C3675 C3672 1.403 . S
C3675 C3676 1.524 . S
C3675 C3679 1.400 . S
C3676 H3661 0.960 . S
C3676 H3662 0.960 . S
C3676 H3663 0.960 . S
C3676 C3675 1.524 . S
C3677 C3674 1.403 . S
C3677 C3678 1.392 . S
C3677 C3681 1.495 . S
C3678 C3677 1.392 . S
C3678 C3679 1.385 . S
C3678 C3680 1.478 . S
C3679 H3673 0.930 . S
C3679 C3675 1.400 . S
C3679 C3678 1.385 . S
C3680 C3678 1.478 . S
C3680 C3682 1.381 . S
C3680 C3686 1.383 . S
C3681 C3677 1.495 . S
C3681 H3687 0.959 . S
C3681 H3688 0.961 . S
C3681 H3689 0.960 . S
C3682 C3680 1.381 . S
C3682 C3683 1.394 . S
C3682 H3690 0.930 . S
C3683 C3682 1.394 . S
C3683 C3684 1.383 . S
C3683 H3691 0.929 . S
C3684 C3683 1.383 . S
C3684 C3685 1.377 . S
C3685 H3669 0.930 . S
C3685 C3684 1.377 . S
C3685 C3686 1.379 . S
C3686 H3670 0.931 . S
C3686 C3680 1.383 . S
C3686 C3685 1.379 . S
H3687 C3681 0.959 . S
H3688 C3681 0.961 . S
H3689 C3681 0.960 . S
H3690 C3682 0.930 . S
H3691 C3683 0.929 . S
H3692 C3700 0.929 . S
H3693 C3702 0.930 . S
H3694 C3704 0.930 . S
H3695 C3707 0.929 . S
H3696 C3710 0.930 . S
H3697 C3712 0.960 . S
H3698 C3712 0.960 . S
H3699 C3712 0.960 . S
C3700 H3692 0.929 . S
C3700 C3701 1.377 . S
C3700 C3702 1.384 . S
C3701 C3700 1.377 . S
C3701 C3707 1.390 . S
C3702 H3693 0.930 . S
C3702 C3700 1.384 . S
C3702 C3703 1.372 . S
C3703 C3702 1.372 . S
C3703 C3704 1.400 . S
C3703 C3708 1.490 . S
C3704 H3694 0.930 . S
C3704 C3703 1.400 . S
C3704 C3707 1.386 . S
H3705 C3721 0.930 . S
H3706 C3722 0.931 . S
C3707 H3695 0.929 . S
C3707 C3701 1.390 . S
C3707 C3704 1.386 . S
C3708 C3703 1.490 . S
C3708 C3710 1.395 . S
C3708 C3711 1.403 . S
H3709 C3715 0.930 . S
C3710 H3696 0.930 . S
C3710 C3708 1.395 . S
C3710 C3713 1.403 . S
C3711 C3708 1.403 . S
C3711 C3712 1.524 . S
C3711 C3715 1.400 . S
C3712 H3697 0.960 . S
C3712 H3698 0.960 . S
C3712 H3699 0.960 . S
C3712 C3711 1.524 . S
C3713 C3710 1.403 . S
C3713 C3714 1.392 . S
C3713 C3717 1.495 . S
C3714 C3713 1.392 . S
C3714 C3715 1.385 . S
C3714 C3716 1.478 . S
C3715 H3709 0.930 . S
C3715 C3711 1.400 . S
C3715 C3714 1.385 . S
C3716 C3714 1.478 . S
C3716 C3718 1.381 . S
C3716 C3722 1.383 . S
C3717 C3713 1.495 . S
C3717 H3723 0.959 . S
C3717 H3724 0.961 . S
C3717 H3725 0.960 . S
C3718 C3716 1.381 . S
C3718 C3719 1.394 . S
C3718 H3726 0.930 . S
C3719 C3718 1.394 . S
C3719 C3720 1.383 . S
C3719 H3727 0.929 . S
C3720 C3719 1.383 . S
C3720 C3721 1.377 . S
C3721 H3705 0.930 . S
C3721 C3720 1.377 . S
C3721 C3722 1.379 . S
C3722 H3706 0.931 . S
C3722 C3716 1.383 . S
C3722 C3721 1.379 . S
H3723 C3717 0.959 . S
H3724 C3717 0.961 . S
H3725 C3717 0.960 . S
H3726 C3718 0.930 . S
H3727 C3719 0.929 . S
H3728 C3736 0.929 . S
H3729 C3738 0.930 . S
H3730 C3740 0.930 . S
H3731 C3743 0.929 . S
H3732 C3746 0.930 . S
H3733 C3748 0.960 . S
H3734 C3748 0.960 . S
H3735 C3748 0.960 . S
C3736 H3728 0.929 . S
C3736 C3737 1.377 . S
C3736 C3738 1.384 . S
C3737 C3736 1.377 . S
C3737 C3743 1.390 . S
C3738 H3729 0.930 . S
C3738 C3736 1.384 . S
C3738 C3739 1.372 . S
C3739 C3738 1.372 . S
C3739 C3740 1.400 . S
C3739 C3744 1.490 . S
C3740 H3730 0.930 . S
C3740 C3739 1.400 . S
C3740 C3743 1.386 . S
H3741 C3757 0.930 . S
H3742 C3758 0.931 . S
C3743 H3731 0.929 . S
C3743 C3737 1.390 . S
C3743 C3740 1.386 . S
C3744 C3739 1.490 . S
C3744 C3746 1.395 . S
C3744 C3747 1.403 . S
H3745 C3751 0.930 . S
C3746 H3732 0.930 . S
C3746 C3744 1.395 . S
C3746 C3749 1.403 . S
C3747 C3744 1.403 . S
C3747 C3748 1.524 . S
C3747 C3751 1.400 . S
C3748 H3733 0.960 . S
C3748 H3734 0.960 . S
C3748 H3735 0.960 . S
C3748 C3747 1.524 . S
C3749 C3746 1.403 . S
C3749 C3750 1.392 . S
C3749 C3753 1.495 . S
C3750 C3749 1.392 . S
C3750 C3751 1.385 . S
C3750 C3752 1.478 . S
C3751 H3745 0.930 . S
C3751 C3747 1.400 . S
C3751 C3750 1.385 . S
C3752 C3750 1.478 . S
C3752 C3754 1.381 . S
C3752 C3758 1.383 . S
C3753 C3749 1.495 . S
C3753 H3759 0.959 . S
C3753 H3760 0.961 . S
C3753 H3761 0.960 . S
C3754 C3752 1.381 . S
C3754 C3755 1.394 . S
C3754 H3762 0.930 . S
C3755 C3754 1.394 . S
C3755 C3756 1.383 . S
C3755 H3763 0.929 . S
C3756 C3755 1.383 . S
C3756 C3757 1.377 . S
C3757 H3741 0.930 . S
C3757 C3756 1.377 . S
C3757 C3758 1.379 . S
C3758 H3742 0.931 . S
C3758 C3752 1.383 . S
C3758 C3757 1.379 . S
H3759 C3753 0.959 . S
H3760 C3753 0.961 . S
H3761 C3753 0.960 . S
H3762 C3754 0.930 . S
H3763 C3755 0.929 . S
H3764 C3772 0.929 . S
H3765 C3774 0.930 . S
H3766 C3776 0.930 . S
H3767 C3779 0.929 . S
H3768 C3782 0.930 . S
H3769 C3784 0.960 . S
H3770 C3784 0.960 . S
H3771 C3784 0.960 . S
C3772 H3764 0.929 . S
C3772 C3773 1.377 . S
C3772 C3774 1.384 . S
C3773 C3772 1.377 . S
C3773 C3779 1.390 . S
C3774 H3765 0.930 . S
C3774 C3772 1.384 . S
C3774 C3775 1.372 . S
C3775 C3774 1.372 . S
C3775 C3776 1.400 . S
C3775 C3780 1.490 . S
C3776 H3766 0.930 . S
C3776 C3775 1.400 . S
C3776 C3779 1.386 . S
H3777 C3793 0.930 . S
H3778 C3794 0.931 . S
C3779 H3767 0.929 . S
C3779 C3773 1.390 . S
C3779 C3776 1.386 . S
C3780 C3775 1.490 . S
C3780 C3782 1.395 . S
C3780 C3783 1.403 . S
H3781 C3787 0.930 . S
C3782 H3768 0.930 . S
C3782 C3780 1.395 . S
C3782 C3785 1.403 . S
C3783 C3780 1.403 . S
C3783 C3784 1.524 . S
C3783 C3787 1.400 . S
C3784 H3769 0.960 . S
C3784 H3770 0.960 . S
C3784 H3771 0.960 . S
C3784 C3783 1.524 . S
C3785 C3782 1.403 . S
C3785 C3786 1.392 . S
C3785 C3789 1.495 . S
C3786 C3785 1.392 . S
C3786 C3787 1.385 . S
C3786 C3788 1.478 . S
C3787 H3781 0.930 . S
C3787 C3783 1.400 . S
C3787 C3786 1.385 . S
C3788 C3786 1.478 . S
C3788 C3790 1.381 . S
C3788 C3794 1.383 . S
C3789 C3785 1.495 . S
C3789 H3795 0.959 . S
C3789 H3796 0.961 . S
C3789 H3797 0.960 . S
C3790 C3788 1.381 . S
C3790 C3791 1.394 . S
C3790 H3798 0.930 . S
C3791 C3790 1.394 . S
C3791 C3792 1.383 . S
C3791 H3799 0.929 . S
C3792 C3791 1.383 . S
C3792 C3793 1.377 . S
C3793 H3777 0.930 . S
C3793 C3792 1.377 . S
C3793 C3794 1.379 . S
C3794 H3778 0.931 . S
C3794 C3788 1.383 . S
C3794 C3793 1.379 . S
H3795 C3789 0.959 . S
H3796 C3789 0.961 . S
H3797 C3789 0.960 . S
H3798 C3790 0.930 . S
H3799 C3791 0.929 . S
H3800 C3808 0.929 . S
H3801 C3810 0.930 . S
H3802 C3812 0.930 . S
H3803 C3815 0.929 . S
H3804 C3818 0.930 . S
H3805 C3820 0.960 . S
H3806 C3820 0.960 . S
H3807 C3820 0.960 . S
C3808 H3800 0.929 . S
C3808 C3809 1.377 . S
C3808 C3810 1.384 . S
C3809 C3808 1.377 . S
C3809 C3815 1.390 . S
C3810 H3801 0.930 . S
C3810 C3808 1.384 . S
C3810 C3811 1.372 . S
C3811 C3810 1.372 . S
C3811 C3812 1.400 . S
C3811 C3816 1.490 . S
C3812 H3802 0.930 . S
C3812 C3811 1.400 . S
C3812 C3815 1.386 . S
H3813 C3829 0.930 . S
H3814 C3830 0.931 . S
C3815 H3803 0.929 . S
C3815 C3809 1.390 . S
C3815 C3812 1.386 . S
C3816 C3811 1.490 . S
C3816 C3818 1.395 . S
C3816 C3819 1.403 . S
H3817 C3823 0.930 . S
C3818 H3804 0.930 . S
C3818 C3816 1.395 . S
C3818 C3821 1.403 . S
C3819 C3816 1.403 . S
C3819 C3820 1.524 . S
C3819 C3823 1.400 . S
C3820 H3805 0.960 . S
C3820 H3806 0.960 . S
C3820 H3807 0.960 . S
C3820 C3819 1.524 . S
C3821 C3818 1.403 . S
C3821 C3822 1.392 . S
C3821 C3825 1.495 . S
C3822 C3821 1.392 . S
C3822 C3823 1.385 . S
C3822 C3824 1.478 . S
C3823 H3817 0.930 . S
C3823 C3819 1.400 . S
C3823 C3822 1.385 . S
C3824 C3822 1.478 . S
C3824 C3826 1.381 . S
C3824 C3830 1.383 . S
C3825 C3821 1.495 . S
C3825 H3831 0.959 . S
C3825 H3832 0.961 . S
C3825 H3833 0.960 . S
C3826 C3824 1.381 . S
C3826 C3827 1.394 . S
C3826 H3834 0.930 . S
C3827 C3826 1.394 . S
C3827 C3828 1.383 . S
C3827 H3835 0.929 . S
C3828 C3827 1.383 . S
C3828 C3829 1.377 . S
C3829 H3813 0.930 . S
C3829 C3828 1.377 . S
C3829 C3830 1.379 . S
C3830 H3814 0.931 . S
C3830 C3824 1.383 . S
C3830 C3829 1.379 . S
H3831 C3825 0.959 . S
H3832 C3825 0.961 . S
H3833 C3825 0.960 . S
H3834 C3826 0.930 . S
H3835 C3827 0.929 . S
H3836 C3844 0.929 . S
H3837 C3846 0.930 . S
H3838 C3848 0.930 . S
H3839 C3851 0.929 . S
H3840 C3854 0.930 . S
H3841 C3856 0.960 . S
H3842 C3856 0.960 . S
H3843 C3856 0.960 . S
C3844 H3836 0.929 . S
C3844 C3845 1.377 . S
C3844 C3846 1.384 . S
C3845 C3844 1.377 . S
C3845 C3851 1.390 . S
C3846 H3837 0.930 . S
C3846 C3844 1.384 . S
C3846 C3847 1.372 . S
C3847 C3846 1.372 . S
C3847 C3848 1.400 . S
C3847 C3852 1.490 . S
C3848 H3838 0.930 . S
C3848 C3847 1.400 . S
C3848 C3851 1.386 . S
H3849 C3865 0.930 . S
H3850 C3866 0.931 . S
C3851 H3839 0.929 . S
C3851 C3845 1.390 . S
C3851 C3848 1.386 . S
C3852 C3847 1.490 . S
C3852 C3854 1.395 . S
C3852 C3855 1.403 . S
H3853 C3859 0.930 . S
C3854 H3840 0.930 . S
C3854 C3852 1.395 . S
C3854 C3857 1.403 . S
C3855 C3852 1.403 . S
C3855 C3856 1.524 . S
C3855 C3859 1.400 . S
C3856 H3841 0.960 . S
C3856 H3842 0.960 . S
C3856 H3843 0.960 . S
C3856 C3855 1.524 . S
C3857 C3854 1.403 . S
C3857 C3858 1.392 . S
C3857 C3861 1.495 . S
C3858 C3857 1.392 . S
C3858 C3859 1.385 . S
C3858 C3860 1.478 . S
C3859 H3853 0.930 . S
C3859 C3855 1.400 . S
C3859 C3858 1.385 . S
C3860 C3858 1.478 . S
C3860 C3862 1.381 . S
C3860 C3866 1.383 . S
C3861 C3857 1.495 . S
C3861 H3867 0.959 . S
C3861 H3868 0.961 . S
C3861 H3869 0.960 . S
C3862 C3860 1.381 . S
C3862 C3863 1.394 . S
C3862 H3870 0.930 . S
C3863 C3862 1.394 . S
C3863 C3864 1.383 . S
C3863 H3871 0.929 . S
C3864 C3863 1.383 . S
C3864 C3865 1.377 . S
C3865 H3849 0.930 . S
C3865 C3864 1.377 . S
C3865 C3866 1.379 . S
C3866 H3850 0.931 . S
C3866 C3860 1.383 . S
C3866 C3865 1.379 . S
H3867 C3861 0.959 . S
H3868 C3861 0.961 . S
H3869 C3861 0.960 . S
H3870 C3862 0.930 . S
H3871 C3863 0.929 . S
H3872 C3880 0.929 . S
H3873 C3882 0.930 . S
H3874 C3884 0.930 . S
H3875 C3887 0.929 . S
H3876 C3890 0.930 . S
H3877 C3892 0.960 . S
H3878 C3892 0.960 . S
H3879 C3892 0.960 . S
C3880 H3872 0.929 . S
C3880 C3881 1.377 . S
C3880 C3882 1.384 . S
C3881 C3880 1.377 . S
C3881 C3887 1.390 . S
C3882 H3873 0.930 . S
C3882 C3880 1.384 . S
C3882 C3883 1.372 . S
C3883 C3882 1.372 . S
C3883 C3884 1.400 . S
C3883 C3888 1.490 . S
C3884 H3874 0.930 . S
C3884 C3883 1.400 . S
C3884 C3887 1.386 . S
H3885 C3901 0.930 . S
H3886 C3902 0.931 . S
C3887 H3875 0.929 . S
C3887 C3881 1.390 . S
C3887 C3884 1.386 . S
C3888 C3883 1.490 . S
C3888 C3890 1.395 . S
C3888 C3891 1.403 . S
H3889 C3895 0.930 . S
C3890 H3876 0.930 . S
C3890 C3888 1.395 . S
C3890 C3893 1.403 . S
C3891 C3888 1.403 . S
C3891 C3892 1.524 . S
C3891 C3895 1.400 . S
C3892 H3877 0.960 . S
C3892 H3878 0.960 . S
C3892 H3879 0.960 . S
C3892 C3891 1.524 . S
C3893 C3890 1.403 . S
C3893 C3894 1.392 . S
C3893 C3897 1.495 . S
C3894 C3893 1.392 . S
C3894 C3895 1.385 . S
C3894 C3896 1.478 . S
C3895 H3889 0.930 . S
C3895 C3891 1.400 . S
C3895 C3894 1.385 . S
C3896 C3894 1.478 . S
C3896 C3898 1.381 . S
C3896 C3902 1.383 . S
C3897 C3893 1.495 . S
C3897 H3903 0.959 . S
C3897 H3904 0.961 . S
C3897 H3905 0.960 . S
C3898 C3896 1.381 . S
C3898 C3899 1.394 . S
C3898 H3906 0.930 . S
C3899 C3898 1.394 . S
C3899 C3900 1.383 . S
C3899 H3907 0.929 . S
C3900 C3899 1.383 . S
C3900 C3901 1.377 . S
C3901 H3885 0.930 . S
C3901 C3900 1.377 . S
C3901 C3902 1.379 . S
C3902 H3886 0.931 . S
C3902 C3896 1.383 . S
C3902 C3901 1.379 . S
H3903 C3897 0.959 . S
H3904 C3897 0.961 . S
H3905 C3897 0.960 . S
H3906 C3898 0.930 . S
H3907 C3899 0.929 . S
H3908 C3916 0.929 . S
H3909 C3918 0.930 . S
H3910 C3920 0.930 . S
H3911 C3923 0.929 . S
H3912 C3926 0.930 . S
H3913 C3928 0.960 . S
H3914 C3928 0.960 . S
H3915 C3928 0.960 . S
C3916 H3908 0.929 . S
C3916 C3917 1.377 . S
C3916 C3918 1.384 . S
C3917 C3916 1.377 . S
C3917 C3923 1.390 . S
C3918 H3909 0.930 . S
C3918 C3916 1.384 . S
C3918 C3919 1.372 . S
C3919 C3918 1.372 . S
C3919 C3920 1.400 . S
C3919 C3924 1.490 . S
C3920 H3910 0.930 . S
C3920 C3919 1.400 . S
C3920 C3923 1.386 . S
H3921 C3937 0.930 . S
H3922 C3938 0.931 . S
C3923 H3911 0.929 . S
C3923 C3917 1.390 . S
C3923 C3920 1.386 . S
C3924 C3919 1.490 . S
C3924 C3926 1.395 . S
C3924 C3927 1.403 . S
H3925 C3931 0.930 . S
C3926 H3912 0.930 . S
C3926 C3924 1.395 . S
C3926 C3929 1.403 . S
C3927 C3924 1.403 . S
C3927 C3928 1.524 . S
C3927 C3931 1.400 . S
C3928 H3913 0.960 . S
C3928 H3914 0.960 . S
C3928 H3915 0.960 . S
C3928 C3927 1.524 . S
C3929 C3926 1.403 . S
C3929 C3930 1.392 . S
C3929 C3933 1.495 . S
C3930 C3929 1.392 . S
C3930 C3931 1.385 . S
C3930 C3932 1.478 . S
C3931 H3925 0.930 . S
C3931 C3927 1.400 . S
C3931 C3930 1.385 . S
C3932 C3930 1.478 . S
C3932 C3934 1.381 . S
C3932 C3938 1.383 . S
C3933 C3929 1.495 . S
C3933 H3939 0.959 . S
C3933 H3940 0.961 . S
C3933 H3941 0.960 . S
C3934 C3932 1.381 . S
C3934 C3935 1.394 . S
C3934 H3942 0.930 . S
C3935 C3934 1.394 . S
C3935 C3936 1.383 . S
C3935 H3943 0.929 . S
C3936 C3935 1.383 . S
C3936 C3937 1.377 . S
C3937 H3921 0.930 . S
C3937 C3936 1.377 . S
C3937 C3938 1.379 . S
C3938 H3922 0.931 . S
C3938 C3932 1.383 . S
C3938 C3937 1.379 . S
H3939 C3933 0.959 . S
H3940 C3933 0.961 . S
H3941 C3933 0.960 . S
H3942 C3934 0.930 . S
H3943 C3935 0.929 . S
H3944 C3952 0.929 . S
H3945 C3954 0.930 . S
H3946 C3956 0.930 . S
H3947 C3959 0.929 . S
H3948 C3962 0.930 . S
H3949 C3964 0.960 . S
H3950 C3964 0.960 . S
H3951 C3964 0.960 . S
C3952 H3944 0.929 . S
C3952 C3953 1.377 . S
C3952 C3954 1.384 . S
C3953 C3952 1.377 . S
C3953 C3959 1.390 . S
C3954 H3945 0.930 . S
C3954 C3952 1.384 . S
C3954 C3955 1.372 . S
C3955 C3954 1.372 . S
C3955 C3956 1.400 . S
C3955 C3960 1.490 . S
C3956 H3946 0.930 . S
C3956 C3955 1.400 . S
C3956 C3959 1.386 . S
H3957 C3973 0.930 . S
H3958 C3974 0.931 . S
C3959 H3947 0.929 . S
C3959 C3953 1.390 . S
C3959 C3956 1.386 . S
C3960 C3955 1.490 . S
C3960 C3962 1.395 . S
C3960 C3963 1.403 . S
H3961 C3967 0.930 . S
C3962 H3948 0.930 . S
C3962 C3960 1.395 . S
C3962 C3965 1.403 . S
C3963 C3960 1.403 . S
C3963 C3964 1.524 . S
C3963 C3967 1.400 . S
C3964 H3949 0.960 . S
C3964 H3950 0.960 . S
C3964 H3951 0.960 . S
C3964 C3963 1.524 . S
C3965 C3962 1.403 . S
C3965 C3966 1.392 . S
C3965 C3969 1.495 . S
C3966 C3965 1.392 . S
C3966 C3967 1.385 . S
C3966 C3968 1.478 . S
C3967 H3961 0.930 . S
C3967 C3963 1.400 . S
C3967 C3966 1.385 . S
C3968 C3966 1.478 . S
C3968 C3970 1.381 . S
C3968 C3974 1.383 . S
C3969 C3965 1.495 . S
C3969 H3975 0.959 . S
C3969 H3976 0.961 . S
C3969 H3977 0.960 . S
C3970 C3968 1.381 . S
C3970 C3971 1.394 . S
C3970 H3978 0.930 . S
C3971 C3970 1.394 . S
C3971 C3972 1.383 . S
C3971 H3979 0.929 . S
C3972 C3971 1.383 . S
C3972 C3973 1.377 . S
C3973 H3957 0.930 . S
C3973 C3972 1.377 . S
C3973 C3974 1.379 . S
C3974 H3958 0.931 . S
C3974 C3968 1.383 . S
C3974 C3973 1.379 . S
H3975 C3969 0.959 . S
H3976 C3969 0.961 . S
H3977 C3969 0.960 . S
H3978 C3970 0.930 . S
H3979 C3971 0.929 . S
H3980 C3988 0.929 . S
H3981 C3990 0.930 . S
H3982 C3992 0.930 . S
H3983 C3995 0.929 . S
H3984 C3998 0.930 . S
H3985 C4000 0.960 . S
H3986 C4000 0.960 . S
H3987 C4000 0.960 . S
C3988 H3980 0.929 . S
C3988 C3989 1.377 1_556 S
C3988 C3990 1.384 . S
C3989 C3988 1.377 1_554 S
C3989 C3995 1.390 . S
C3990 H3981 0.930 . S
C3990 C3988 1.384 . S
C3990 C3991 1.368 1_556 S
C3991 C3990 1.368 1_554 S
C3991 C3992 1.404 . S
C3991 C3996 1.488 1_554 S
C3992 H3982 0.930 . S
C3992 C3991 1.404 . S
C3992 C3995 1.386 . S
H3993 C4009 0.930 . S
H3994 C4010 0.931 . S
C3995 H3983 0.929 . S
C3995 C3989 1.390 . S
C3995 C3992 1.386 . S
C3996 C3991 1.488 1_556 S
C3996 C3998 1.380 1_556 S
C3996 C3999 1.423 . S
H3997 C4003 0.930 . S
C3998 H3984 0.930 . S
C3998 C3996 1.380 1_554 S
C3998 C4001 1.403 . S
C3999 C3996 1.423 . S
C3999 C4000 1.524 . S
C3999 C4003 1.400 . S
C4000 H3985 0.960 . S
C4000 H3986 0.960 . S
C4000 H3987 0.960 . S
C4000 C3999 1.524 . S
C4001 C3998 1.403 . S
C4001 C4002 1.392 1_554 S
C4001 C4005 1.495 . S
C4002 C4001 1.392 1_556 S
C4002 C4003 1.385 . S
C4002 C4004 1.478 . S
C4003 H3997 0.930 . S
C4003 C3999 1.400 . S
C4003 C4002 1.385 . S
C4004 C4002 1.478 . S
C4004 C4006 1.381 . S
C4004 C4010 1.383 1_556 S
C4005 C4001 1.495 . S
C4005 H4011 0.959 . S
C4005 H4012 0.961 . S
C4005 H4013 0.953 1_554 S
C4006 C4004 1.381 . S
C4006 C4007 1.394 . S
C4006 H4014 0.930 . S
C4007 C4006 1.394 . S
C4007 C4008 1.383 . S
C4007 H4015 0.929 . S
C4008 C4007 1.383 . S
C4008 C4009 1.377 1_556 S
C4009 H3993 0.930 . S
C4009 C4008 1.377 1_554 S
C4009 C4010 1.379 . S
C4010 H3994 0.931 . S
C4010 C4004 1.383 1_554 S
C4010 C4009 1.379 . S
H4011 C4005 0.959 . S
H4012 C4005 0.961 . S
H4013 C4005 0.953 1_556 S
H4014 C4006 0.930 . S
H4015 C4007 0.929 . S
H4016 C4024 0.929 . S
H4017 C4026 0.930 . S
H4018 C4028 0.930 . S
H4019 C4031 0.929 . S
H4020 C4034 0.930 . S
H4021 C4036 0.960 . S
H4022 C4036 0.960 . S
H4023 C4036 0.960 . S
C4024 H4016 0.929 . S
C4024 C4025 1.377 . S
C4024 C4026 1.384 . S
C4025 C4024 1.377 . S
C4025 C4031 1.390 . S
C4026 H4017 0.930 . S
C4026 C4024 1.384 . S
C4026 C4027 1.372 . S
C4027 C4026 1.372 . S
C4027 C4028 1.400 . S
C4027 C4032 1.490 . S
C4028 H4018 0.930 . S
C4028 C4027 1.400 . S
C4028 C4031 1.386 . S
H4029 C4045 0.930 . S
H4030 C4046 0.931 . S
C4031 H4019 0.929 . S
C4031 C4025 1.390 . S
C4031 C4028 1.386 . S
C4032 C4027 1.490 . S
C4032 C4034 1.395 . S
C4032 C4035 1.403 . S
H4033 C4039 0.930 . S
C4034 H4020 0.930 . S
C4034 C4032 1.395 . S
C4034 C4037 1.403 . S
C4035 C4032 1.403 . S
C4035 C4036 1.524 . S
C4035 C4039 1.400 . S
C4036 H4021 0.960 . S
C4036 H4022 0.960 . S
C4036 H4023 0.960 . S
C4036 C4035 1.524 . S
C4037 C4034 1.403 . S
C4037 C4038 1.392 . S
C4037 C4041 1.495 . S
C4038 C4037 1.392 . S
C4038 C4039 1.385 . S
C4038 C4040 1.478 . S
C4039 H4033 0.930 . S
C4039 C4035 1.400 . S
C4039 C4038 1.385 . S
C4040 C4038 1.478 . S
C4040 C4042 1.381 . S
C4040 C4046 1.383 . S
C4041 C4037 1.495 . S
C4041 H4047 0.959 . S
C4041 H4048 0.961 . S
C4041 H4049 0.960 . S
C4042 C4040 1.381 . S
C4042 C4043 1.394 . S
C4042 H4050 0.930 . S
C4043 C4042 1.394 . S
C4043 C4044 1.383 . S
C4043 H4051 0.929 . S
C4044 C4043 1.383 . S
C4044 C4045 1.377 . S
C4045 H4029 0.930 . S
C4045 C4044 1.377 . S
C4045 C4046 1.379 . S
C4046 H4030 0.931 . S
C4046 C4040 1.383 . S
C4046 C4045 1.379 . S
H4047 C4041 0.959 . S
H4048 C4041 0.961 . S
H4049 C4041 0.960 . S
H4050 C4042 0.930 . S
H4051 C4043 0.929 . S
H4052 C4060 0.929 . S
H4053 C4062 0.930 . S
H4054 C4064 0.930 . S
H4055 C4067 0.929 . S
H4056 C4070 0.930 . S
H4057 C4072 0.960 . S
H4058 C4072 0.960 . S
H4059 C4072 0.960 1_556 S
C4060 H4052 0.929 . S
C4060 C4061 1.377 . S
C4060 C4062 1.384 . S
C4061 C4060 1.377 . S
C4061 C4067 1.390 1_554 S
C4062 H4053 0.930 . S
C4062 C4060 1.384 . S
C4062 C4063 1.372 . S
C4063 C4062 1.372 . S
C4063 C4064 1.400 1_554 S
C4063 C4068 1.490 . S
C4064 H4054 0.930 . S
C4064 C4063 1.400 1_556 S
C4064 C4067 1.386 . S
H4065 C4081 0.930 . S
H4066 C4082 0.931 1_556 S
C4067 H4055 0.929 . S
C4067 C4061 1.390 1_556 S
C4067 C4064 1.386 . S
C4068 C4063 1.490 . S
C4068 C4070 1.395 . S
C4068 C4071 1.403 . S
H4069 C4075 0.930 . S
C4070 H4056 0.930 . S
C4070 C4068 1.395 . S
C4070 C4073 1.403 . S
C4071 C4068 1.403 . S
C4071 C4072 1.524 . S
C4071 C4075 1.400 . S
C4072 H4057 0.960 . S
C4072 H4058 0.960 . S
C4072 H4059 0.960 1_554 S
C4072 C4071 1.524 . S
C4073 C4070 1.403 . S
C4073 C4074 1.392 . S
C4073 C4077 1.495 . S
C4074 C4073 1.392 . S
C4074 C4075 1.385 . S
C4074 C4076 1.478 . S
C4075 H4069 0.930 . S
C4075 C4071 1.400 . S
C4075 C4074 1.385 . S
C4076 C4074 1.478 . S
C4076 C4078 1.381 . S
C4076 C4082 1.383 . S
C4077 C4073 1.495 . S
C4077 H4083 0.959 . S
C4077 H4084 0.961 . S
C4077 H4085 0.960 . S
C4078 C4076 1.381 . S
C4078 C4079 1.394 . S
C4078 H4086 0.930 . S
C4079 C4078 1.394 . S
C4079 C4080 1.383 . S
C4079 H4087 0.929 . S
C4080 C4079 1.383 . S
C4080 C4081 1.377 . S
C4081 H4065 0.930 . S
C4081 C4080 1.377 . S
C4081 C4082 1.379 . S
C4082 H4066 0.931 1_554 S
C4082 C4076 1.383 . S
C4082 C4081 1.379 . S
H4083 C4077 0.959 . S
H4084 C4077 0.961 . S
H4085 C4077 0.960 . S
H4086 C4078 0.930 . S
H4087 C4079 0.929 . S
H4088 C4096 0.929 . S
H4089 C4098 0.930 . S
H4090 C4100 0.930 . S
H4091 C4103 0.929 . S
H4092 C4106 0.930 . S
H4093 C4108 0.960 . S
H4094 C4108 0.960 . S
H4095 C4108 0.960 . S
C4096 H4088 0.929 . S
C4096 C4097 1.377 . S
C4096 C4098 1.384 . S
C4097 C4096 1.377 . S
C4097 C4103 1.390 . S
C4098 H4089 0.930 . S
C4098 C4096 1.384 . S
C4098 C4099 1.372 . S
C4099 C4098 1.372 . S
C4099 C4100 1.400 . S
C4099 C4104 1.490 . S
C4100 H4090 0.930 . S
C4100 C4099 1.400 . S
C4100 C4103 1.386 . S
H4101 C4117 0.930 . S
H4102 C4118 0.931 . S
C4103 H4091 0.929 . S
C4103 C4097 1.390 . S
C4103 C4100 1.386 . S
C4104 C4099 1.490 . S
C4104 C4106 1.395 . S
C4104 C4107 1.403 . S
H4105 C4111 0.930 . S
C4106 H4092 0.930 . S
C4106 C4104 1.395 . S
C4106 C4109 1.403 . S
C4107 C4104 1.403 . S
C4107 C4108 1.524 . S
C4107 C4111 1.400 . S
C4108 H4093 0.960 . S
C4108 H4094 0.960 . S
C4108 H4095 0.960 . S
C4108 C4107 1.524 . S
C4109 C4106 1.403 . S
C4109 C4110 1.392 . S
C4109 C4113 1.495 . S
C4110 C4109 1.392 . S
C4110 C4111 1.385 . S
C4110 C4112 1.478 . S
C4111 H4105 0.930 . S
C4111 C4107 1.400 . S
C4111 C4110 1.385 . S
C4112 C4110 1.478 . S
C4112 C4114 1.381 . S
C4112 C4118 1.383 . S
C4113 C4109 1.495 . S
C4113 H4119 0.959 . S
C4113 H4120 0.961 . S
C4113 H4121 0.960 . S
C4114 C4112 1.381 . S
C4114 C4115 1.394 . S
C4114 H4122 0.930 . S
C4115 C4114 1.394 . S
C4115 C4116 1.383 . S
C4115 H4123 0.929 . S
C4116 C4115 1.383 . S
C4116 C4117 1.377 . S
C4117 H4101 0.930 . S
C4117 C4116 1.377 . S
C4117 C4118 1.379 . S
C4118 H4102 0.931 . S
C4118 C4112 1.383 . S
C4118 C4117 1.379 . S
H4119 C4113 0.959 . S
H4120 C4113 0.961 . S
H4121 C4113 0.960 . S
H4122 C4114 0.930 . S
H4123 C4115 0.929 . S
H4124 C4132 0.929 . S
H4125 C4134 0.930 . S
H4126 C4136 0.930 . S
H4127 C4139 0.929 . S
H4128 C4142 0.930 . S
H4129 C4144 0.960 . S
H4130 C4144 0.960 . S
H4131 C4144 0.960 . S
C4132 H4124 0.929 . S
C4132 C4133 1.377 . S
C4132 C4134 1.384 . S
C4133 C4132 1.377 . S
C4133 C4139 1.390 . S
C4134 H4125 0.930 . S
C4134 C4132 1.384 . S
C4134 C4135 1.372 . S
C4135 C4134 1.372 . S
C4135 C4136 1.400 . S
C4135 C4140 1.490 . S
C4136 H4126 0.930 . S
C4136 C4135 1.400 . S
C4136 C4139 1.386 . S
H4137 C4153 0.930 . S
H4138 C4154 0.931 . S
C4139 H4127 0.929 . S
C4139 C4133 1.390 . S
C4139 C4136 1.386 . S
C4140 C4135 1.490 . S
C4140 C4142 1.395 . S
C4140 C4143 1.403 . S
H4141 C4147 0.930 . S
C4142 H4128 0.930 . S
C4142 C4140 1.395 . S
C4142 C4145 1.403 . S
C4143 C4140 1.403 . S
C4143 C4144 1.524 . S
C4143 C4147 1.400 . S
C4144 H4129 0.960 . S
C4144 H4130 0.960 . S
C4144 H4131 0.960 . S
C4144 C4143 1.524 . S
C4145 C4142 1.403 . S
C4145 C4146 1.392 . S
C4145 C4149 1.495 . S
C4146 C4145 1.392 . S
C4146 C4147 1.385 . S
C4146 C4148 1.478 . S
C4147 H4141 0.930 . S
C4147 C4143 1.400 . S
C4147 C4146 1.385 . S
C4148 C4146 1.478 . S
C4148 C4150 1.381 . S
C4148 C4154 1.383 . S
C4149 C4145 1.495 . S
C4149 H4155 0.959 . S
C4149 H4156 0.961 . S
C4149 H4157 0.960 . S
C4150 C4148 1.381 . S
C4150 C4151 1.394 . S
C4150 H4158 0.930 . S
C4151 C4150 1.394 . S
C4151 C4152 1.383 . S
C4151 H4159 0.929 . S
C4152 C4151 1.383 . S
C4152 C4153 1.377 . S
C4153 H4137 0.930 . S
C4153 C4152 1.377 . S
C4153 C4154 1.379 . S
C4154 H4138 0.931 . S
C4154 C4148 1.383 . S
C4154 C4153 1.379 . S
H4155 C4149 0.959 . S
H4156 C4149 0.961 . S
H4157 C4149 0.960 . S
H4158 C4150 0.930 . S
H4159 C4151 0.929 . S
C732 C352 1.033 . S
C713 C5 1.039 . S
C749 C23 1.311 . S
C768 C380 1.257 . S
C785 C39 0.975 . S
C804 C398 0.982 . S
C840 C424 1.283 . S
C821 C42 1.345 . S
C857 C19 1.385 . S
C876 C447 1.231 . S
C912 C467 0.976 . S
C893 C28 1.005 . S
C948 C495 1.222 . S
C929 C53 1.282 . S
C965 C9 0.994 . S
C984 C513 0.969 . S
C1001 C65 1.368 . S
C1020 C354 1.362 . S
C1037 C75 0.965 . S
C1056 C376 0.974 . S
C1092 C400 1.386 . S
C1073 C93 1.380 . S
C1128 C421 0.959 . S
C1109 C109 0.947 . S
C1145 C56 1.009 . S
C1164 C444 0.981 . S
C1200 C469 1.248 . S
C1181 C81 1.245 . S
C1236 C491 0.965 . S
C1217 C84 0.976 . S
C1272 C515 1.330 . S
C1253 C103 1.326 . S
C1308 C355 0.784 . S
C1289 C107 0.821 . S
C1344 C538 1.106 . S
C1325 C121 1.101 . S
C1361 C131 0.941 . S
C1380 C562 0.857 . S
C1416 C586 1.025 . S
C1397 C140 1.074 . S
C1433 C61 0.885 . S
C1452 C516 0.887 . S
C1488 C401 0.775 1_565 S
C1469 C70 0.856 . S
C1505 C137 1.027 . S
C1524 C607 1.028 . S
C1560 C632 0.938 . S
C1541 C165 0.986 . S
C1577 C173 1.036 . S
C1596 C353 1.027 1_556 S
C1632 C630 0.860 . S
C1613 C182 0.874 . S
C1649 C207 0.979 . S
C1668 C399 0.994 . S
C1685 C219 0.829 . S
C1704 C609 0.833 . S
C1740 C448 0.890 . S
C1721 C187 0.862 . S
C1776 C560 1.031 . S
C1757 C205 1.019 . S
C1812 C492 0.852 . S
C1793 C221 0.869 . S
C1848 C652 0.967 . S
C1829 C168 0.988 . S
C1884 C357 0.833 . S
C1865 C224 0.804 . S
C1901 C243 1.234 . S
C1920 C628 1.189 . S
C1956 C403 0.834 . S
C1937 C252 0.813 . S
C1973 C277 1.150 . S
C1992 C606 1.103 . S
C2009 C233 1.265 . S
C2028 C445 1.227 . S
C2045 C249 0.715 . S
C2064 C564 0.682 . S
C2100 C490 1.283 . S
C2081 C261 1.286 1_545 S
C2117 C271 0.777 . S
C2136 C656 0.708 . S
C2153 C266 1.223 . S
C2172 C356 1.190 . S
C2189 C280 1.100 . S
C2208 C541 1.005 . S
C2225 C299 1.302 . S
C2244 C471 1.228 . S
C2261 C317 1.141 . S
C2280 C585 1.108 . S
C2316 C655 1.219 . S
C2297 C229 1.290 . S
C2352 C402 1.223 . S
C2333 C247 1.255 . S
C2388 C426 0.998 . S
C2369 C305 1.056 . S
C2424 C378 1.013 . S
C2405 C333 1.058 . S
C2441 C33 1.040 . S
C2460 C674 1.049 . S
C2496 C633 1.266 . S
C2477 C51 1.311 . S
C2532 C697 0.966 . S
C2513 C11 0.976 . S
C2549 C14 1.343 . S
C2568 C608 1.277 . S
C2585 C47 1.385 . S
C2604 C539 1.237 . S
C2640 C559 1.010 . S
C2621 C0 1.004 . S
C2676 C587 1.238 . S
C2657 C25 1.282 . S
C2712 C651 1.014 . S
C2693 C37 0.996 . S
C2748 C676 1.362 . S
C2729 C163 1.367 . S
C2765 C117 0.966 . S
C2784 C629 0.970 . S
C2801 C135 1.385 . S
C2820 C699 1.376 . S
C2856 C605 0.930 . S
C2837 C151 0.940 . S
C2892 C536 1.008 . S
C2873 C154 1.015 . S
C2909 C123 1.247 . S
C2928 C561 1.249 . S
C2964 C583 0.956 . S
C2945 C126 0.979 . S
C2981 C145 1.328 . S
C3000 C653 1.316 . S
C3036 C677 0.866 . S
C3017 C149 0.816 . S
C3072 C446 1.091 1_565 S
C3053 C79 1.096 . S
C3108 C470 0.839 . S
C3089 C89 0.941 . S
C3125 C98 1.072 . S
C3144 C494 1.022 . S
C3180 C654 0.842 . S
C3161 C159 0.883 . S
C3197 C112 0.858 . S
C3216 C700 0.818 . S
C3252 C423 1.019 . S
C3233 C95 1.030 . S
C3288 C379 0.966 . S
C3269 C67 0.988 . S
C3305 C201 1.036 . S
C3324 C675 1.007 . S
C3360 C377 0.884 . S
C3341 C210 0.874 . S
C3396 C698 0.964 1_556 S
C3377 C179 0.978 . S
C3413 C191 0.828 . S
C3432 C425 0.820 . S
C3449 C215 0.861 . S
C3468 C540 0.842 . S
C3485 C177 1.019 . S
C3504 C468 1.023 . S
C3521 C193 0.868 . S
C3540 C584 0.853 . S
C3557 C196 0.988 . S
C3576 C514 0.966 . S
C3612 C679 0.778 . S
C3593 C322 0.805 . S
C3629 C285 1.234 . S
C3648 C375 1.191 . S
C3684 C702 0.820 . S
C3665 C294 0.813 . S
C3701 C319 1.151 . S
C3720 C422 1.128 . S
C3737 C331 1.266 . S
C3756 C537 1.235 . S
C3792 C472 0.654 . S
C3773 C291 0.717 . S
C3809 C303 1.294 . S
C3828 C582 1.277 . S
C3864 C518 0.828 . S
C3845 C313 0.777 . S
C3900 C678 1.156 . S
C3881 C308 1.225 . S
C3936 C449 1.008 . S
C3917 C238 1.100 . S
C3953 C257 1.302 . S
C3972 C563 1.261 . S
C4008 C493 1.030 1_556 S
C3989 C275 1.141 . S
C4044 C517 1.240 . S
C4025 C327 1.288 . S
C4061 C289 1.255 . S
C4080 C701 1.235 . S
C4116 C610 1.051 . S
C4097 C263 1.063 . S
C4152 C631 0.988 . S
C4133 C235 1.059 . S
