# Generated by pormake.
# Topology eea, (3,6)-cn, num edge types: 1
# Building blocks:
#     Node 0, Type 0, BuildingBlock: OLANEW_clean_sbu_2, # of connection points: 3
#     Node 1, Type 0, BuildingBlock: OLANEW_clean_sbu_2, # of connection points: 3
#     Node 2, Type 0, BuildingBlock: OLANEW_clean_sbu_2, # of connection points: 3
#     Node 3, Type 0, BuildingBlock: OLANEW_clean_sbu_2, # of connection points: 3
#     Node 4, Type 0, BuildingBlock: OLANEW_clean_sbu_2, # of connection points: 3
#     Node 5, Type 0, BuildingBlock: OLANEW_clean_sbu_2, # of connection points: 3
#     Node 6, Type 0, BuildingBlock: OLANEW_clean_sbu_2, # of connection points: 3
#     Node 7, Type 0, BuildingBlock: OLANEW_clean_sbu_2, # of connection points: 3
#     Node 8, Type 0, BuildingBlock: OLANEW_clean_sbu_2, # of connection points: 3
#     Node 9, Type 0, BuildingBlock: OLANEW_clean_sbu_2, # of connection points: 3
#     Node 10, Type 0, BuildingBlock: OLANEW_clean_sbu_2, # of connection points: 3
#     Node 11, Type 0, BuildingBlock: OLANEW_clean_sbu_2, # of connection points: 3
#     Node 12, Type 0, BuildingBlock: OLANEW_clean_sbu_2, # of connection points: 3
#     Node 13, Type 0, BuildingBlock: OLANEW_clean_sbu_2, # of connection points: 3
#     Node 14, Type 0, BuildingBlock: OLANEW_clean_sbu_2, # of connection points: 3
#     Node 15, Type 0, BuildingBlock: OLANEW_clean_sbu_2, # of connection points: 3
#     Node 16, Type 0, BuildingBlock: OLANEW_clean_sbu_2, # of connection points: 3
#     Node 17, Type 0, BuildingBlock: OLANEW_clean_sbu_2, # of connection points: 3
#     Node 18, Type 1, BuildingBlock: CUWYAW_clean_sbu_0, # of connection points: 6
#     Node 19, Type 1, BuildingBlock: CUWYAW_clean_sbu_0, # of connection points: 6
#     Node 20, Type 1, BuildingBlock: CUWYAW_clean_sbu_0, # of connection points: 6
#     Node 21, Type 1, BuildingBlock: CUWYAW_clean_sbu_0, # of connection points: 6
#     Node 22, Type 1, BuildingBlock: CUWYAW_clean_sbu_0, # of connection points: 6
#     Node 23, Type 1, BuildingBlock: CUWYAW_clean_sbu_0, # of connection points: 6
#     Node 24, Type 1, BuildingBlock: CUWYAW_clean_sbu_0, # of connection points: 6
#     Node 25, Type 1, BuildingBlock: CUWYAW_clean_sbu_0, # of connection points: 6
#     Node 26, Type 1, BuildingBlock: CUWYAW_clean_sbu_0, # of connection points: 6
#     Edge 27, Type (0, 1), BuildingBlock: ZUJKAS_clean_linker_0, # of connection points: 2
#     Edge 28, Type (0, 1), BuildingBlock: ZUJKAS_clean_linker_0, # of connection points: 2
#     Edge 29, Type (0, 1), BuildingBlock: ZUJKAS_clean_linker_0, # of connection points: 2
#     Edge 30, Type (0, 1), BuildingBlock: ZUJKAS_clean_linker_0, # of connection points: 2
#     Edge 31, Type (0, 1), BuildingBlock: ZUJKAS_clean_linker_0, # of connection points: 2
#     Edge 32, Type (0, 1), BuildingBlock: ZUJKAS_clean_linker_0, # of connection points: 2
#     Edge 33, Type (0, 1), BuildingBlock: ZUJKAS_clean_linker_0, # of connection points: 2
#     Edge 34, Type (0, 1), BuildingBlock: ZUJKAS_clean_linker_0, # of connection points: 2
#     Edge 35, Type (0, 1), BuildingBlock: ZUJKAS_clean_linker_0, # of connection points: 2
#     Edge 36, Type (0, 1), BuildingBlock: ZUJKAS_clean_linker_0, # of connection points: 2
#     Edge 37, Type (0, 1), BuildingBlock: ZUJKAS_clean_linker_0, # of connection points: 2
#     Edge 38, Type (0, 1), BuildingBlock: ZUJKAS_clean_linker_0, # of connection points: 2
#     Edge 39, Type (0, 1), BuildingBlock: ZUJKAS_clean_linker_0, # of connection points: 2
#     Edge 40, Type (0, 1), BuildingBlock: ZUJKAS_clean_linker_0, # of connection points: 2
#     Edge 41, Type (0, 1), BuildingBlock: ZUJKAS_clean_linker_0, # of connection points: 2
#     Edge 42, Type (0, 1), BuildingBlock: ZUJKAS_clean_linker_0, # of connection points: 2
#     Edge 43, Type (0, 1), BuildingBlock: ZUJKAS_clean_linker_0, # of connection points: 2
#     Edge 44, Type (0, 1), BuildingBlock: ZUJKAS_clean_linker_0, # of connection points: 2
#     Edge 45, Type (0, 1), BuildingBlock: ZUJKAS_clean_linker_0, # of connection points: 2
#     Edge 46, Type (0, 1), BuildingBlock: ZUJKAS_clean_linker_0, # of connection points: 2
#     Edge 47, Type (0, 1), BuildingBlock: ZUJKAS_clean_linker_0, # of connection points: 2
#     Edge 48, Type (0, 1), BuildingBlock: ZUJKAS_clean_linker_0, # of connection points: 2
#     Edge 49, Type (0, 1), BuildingBlock: ZUJKAS_clean_linker_0, # of connection points: 2
#     Edge 50, Type (0, 1), BuildingBlock: ZUJKAS_clean_linker_0, # of connection points: 2
#     Edge 51, Type (0, 1), BuildingBlock: ZUJKAS_clean_linker_0, # of connection points: 2
#     Edge 52, Type (0, 1), BuildingBlock: ZUJKAS_clean_linker_0, # of connection points: 2
#     Edge 53, Type (0, 1), BuildingBlock: ZUJKAS_clean_linker_0, # of connection points: 2
#     Edge 54, Type (0, 1), BuildingBlock: ZUJKAS_clean_linker_0, # of connection points: 2
#     Edge 55, Type (0, 1), BuildingBlock: ZUJKAS_clean_linker_0, # of connection points: 2
#     Edge 56, Type (0, 1), BuildingBlock: ZUJKAS_clean_linker_0, # of connection points: 2
#     Edge 57, Type (0, 1), BuildingBlock: ZUJKAS_clean_linker_0, # of connection points: 2
#     Edge 58, Type (0, 1), BuildingBlock: ZUJKAS_clean_linker_0, # of connection points: 2
#     Edge 59, Type (0, 1), BuildingBlock: ZUJKAS_clean_linker_0, # of connection points: 2
#     Edge 60, Type (0, 1), BuildingBlock: ZUJKAS_clean_linker_0, # of connection points: 2
#     Edge 61, Type (0, 1), BuildingBlock: ZUJKAS_clean_linker_0, # of connection points: 2
#     Edge 62, Type (0, 1), BuildingBlock: ZUJKAS_clean_linker_0, # of connection points: 2
#     Edge 63, Type (0, 1), BuildingBlock: ZUJKAS_clean_linker_0, # of connection points: 2
#     Edge 64, Type (0, 1), BuildingBlock: ZUJKAS_clean_linker_0, # of connection points: 2
#     Edge 65, Type (0, 1), BuildingBlock: ZUJKAS_clean_linker_0, # of connection points: 2
#     Edge 66, Type (0, 1), BuildingBlock: ZUJKAS_clean_linker_0, # of connection points: 2
#     Edge 67, Type (0, 1), BuildingBlock: ZUJKAS_clean_linker_0, # of connection points: 2
#     Edge 68, Type (0, 1), BuildingBlock: ZUJKAS_clean_linker_0, # of connection points: 2
#     Edge 69, Type (0, 1), BuildingBlock: ZUJKAS_clean_linker_0, # of connection points: 2
#     Edge 70, Type (0, 1), BuildingBlock: ZUJKAS_clean_linker_0, # of connection points: 2
#     Edge 71, Type (0, 1), BuildingBlock: ZUJKAS_clean_linker_0, # of connection points: 2
#     Edge 72, Type (0, 1), BuildingBlock: ZUJKAS_clean_linker_0, # of connection points: 2
#     Edge 73, Type (0, 1), BuildingBlock: ZUJKAS_clean_linker_0, # of connection points: 2
#     Edge 74, Type (0, 1), BuildingBlock: ZUJKAS_clean_linker_0, # of connection points: 2
#     Edge 75, Type (0, 1), BuildingBlock: ZUJKAS_clean_linker_0, # of connection points: 2
#     Edge 76, Type (0, 1), BuildingBlock: ZUJKAS_clean_linker_0, # of connection points: 2
#     Edge 77, Type (0, 1), BuildingBlock: ZUJKAS_clean_linker_0, # of connection points: 2
#     Edge 78, Type (0, 1), BuildingBlock: ZUJKAS_clean_linker_0, # of connection points: 2
#     Edge 79, Type (0, 1), BuildingBlock: ZUJKAS_clean_linker_0, # of connection points: 2
#     Edge 80, Type (0, 1), BuildingBlock: ZUJKAS_clean_linker_0, # of connection points: 2
# Relax obj value: 0.026
# Max RMSD: 0.179
# Mean RMSD: 0.117
data_MOF--net-eea--node1-OLANEW_clean_sbu_2--node2-CUWYAW_clean_sbu_0--edge1-ZUJKAS_clean_linker_0
_symmetry_space_group_name_H-M    P1
_symmetry_Int_Tables_number       1
_symmetry_cell_setting            triclinic
loop_
_symmetry_equiv_pos_as_xyz
'x, y, z'
_cell_length_a     77.296776
_cell_length_b     75.444203
_cell_length_c     88.075897
_cell_angle_alpha  96.816583
_cell_angle_beta   93.49158
_cell_angle_gamma 120.60441
loop_
_atom_site_label
_atom_site_type_symbol
_atom_site_fract_x
_atom_site_fract_y
_atom_site_fract_z
_atom_type_partial_charge
O0 O 0.25654 0.14381 0.41945 0.0
Cd1 Cd 0.24735 0.13354 0.39143 0.0
O2 O 0.28845 0.15289 0.41938 0.0
Cd3 Cd 0.28159 0.13716 0.39551 0.0
O4 O 0.26747 0.10653 0.3808 0.0
C5 C 0.25181 0.09208 0.38518 0.0
O6 O 0.2451 0.0968 0.39745 0.0
C7 C 0.2743 0.15167 0.4267 0.0
C8 C 0.23821 0.16076 0.37937 0.0
O9 O 0.22447 0.14444 0.38393 0.0
O10 O 0.25627 0.16408 0.38036 0.0
O11 O 0.90546 0.20117 0.43229 0.0
Cd12 Cd 0.91118 0.21186 0.40707 0.0
O13 O 0.88542 0.16898 0.42017 0.0
Cd14 Cd 0.86536 0.13513 0.41805 0.0
O15 O 0.84588 0.10125 0.41133 0.0
C16 C 0.82997 0.09394 0.40164 0.0
O17 O 0.82563 0.107 0.39635 0.0
C18 C 0.89333 0.18199 0.43278 0.0
C19 C 0.94899 0.22183 0.39897 0.0
O20 O 0.94653 0.23564 0.40678 0.0
O21 O 0.9336 0.20317 0.39519 0.0
O22 O 0.90021 0.76005 0.43549 0.0
Cd23 Cd 0.90366 0.77288 0.41094 0.0
O24 O 0.89163 0.782 0.44583 0.0
Cd25 Cd 0.88708 0.79238 0.42465 0.0
O26 O 0.86647 0.79884 0.41167 0.0
C27 C 0.85026 0.79388 0.41748 0.0
O28 O 0.84757 0.7855 0.43004 0.0
C29 C 0.8959 0.768 0.44712 0.0
C30 C 0.9402 0.78163 0.40052 0.0
O31 O 0.93919 0.79538 0.40983 0.0
O32 O 0.92393 0.76372 0.39613 0.0
O33 O 0.13115 0.24656 0.57425 0.0
Cd34 Cd 0.12066 0.23158 0.59759 0.0
O35 O 0.10065 0.23926 0.56513 0.0
Cd36 Cd 0.08555 0.22684 0.58481 0.0
O37 O 0.06014 0.21703 0.59808 0.0
C38 C 0.05521 0.23037 0.60232 0.0
O39 O 0.06623 0.24938 0.5993 0.0
C40 C 0.11925 0.24662 0.56367 0.0
C41 C 0.14818 0.22165 0.61001 0.0
O42 O 0.13318 0.20855 0.59966 0.0
O43 O 0.15009 0.23941 0.6146 0.0
O44 O 0.71213 0.80899 0.59102 0.0
Cd45 Cd 0.70965 0.80098 0.61715 0.0
O46 O 0.72621 0.84171 0.60195 0.0
Cd47 Cd 0.74129 0.87553 0.60314 0.0
O48 O 0.75587 0.90936 0.60959 0.0
C49 C 0.74586 0.91814 0.60728 0.0
O50 O 0.72693 0.90664 0.60052 0.0
C51 C 0.71976 0.82806 0.58973 0.0
C52 C 0.73473 0.7865 0.62617 0.0
O53 O 0.7165 0.77383 0.61943 0.0
O54 O 0.74118 0.80611 0.62852 0.0
O55 O 0.1022 0.87259 0.57772 0.0
Cd56 Cd 0.09905 0.88435 0.60391 0.0
O57 O 0.11824 0.85715 0.58483 0.0
Cd58 Cd 0.12306 0.87168 0.60882 0.0
O59 O 0.14153 0.90113 0.62485 0.0
C60 C 0.1601 0.91127 0.62296 0.0
O61 O 0.16643 0.90278 0.61252 0.0
C62 C 0.10999 0.86159 0.57419 0.0
C63 C 0.06447 0.85309 0.61358 0.0
O64 O 0.0636 0.86625 0.6061 0.0
O65 O 0.08175 0.85484 0.61662 0.0
O66 O 0.93151 0.47886 0.75473 0.0
Cd67 Cd 0.92151 0.46904 0.72676 0.0
O68 O 0.95733 0.47418 0.75413 0.0
Cd69 Cd 0.94758 0.45826 0.73016 0.0
O70 O 0.93225 0.42852 0.7142 0.0
C71 C 0.91418 0.4153 0.71598 0.0
O72 O 0.90555 0.42082 0.7264 0.0
C73 C 0.94703 0.47997 0.76168 0.0
C74 C 0.91046 0.49563 0.71592 0.0
O75 O 0.89714 0.47826 0.71952 0.0
O76 O 0.92898 0.5003 0.71728 0.0
O77 O 0.56899 0.51852 0.76262 0.0
Cd78 Cd 0.57455 0.5219 0.73587 0.0
O79 O 0.551 0.48497 0.75376 0.0
Cd80 Cd 0.52962 0.45167 0.7533 0.0
O81 O 0.50802 0.41813 0.74672 0.0
C82 C 0.4915 0.41211 0.73816 0.0
O83 O 0.48791 0.42625 0.73406 0.0
C84 C 0.55785 0.49999 0.76511 0.0
C85 C 0.61492 0.53877 0.73127 0.0
O86 O 0.6075 0.55047 0.7339 0.0
O87 O 0.60329 0.5191 0.73105 0.0
O88 O 0.56972 0.09888 0.77276 0.0
Cd89 Cd 0.57468 0.11612 0.7502 0.0
O90 O 0.53669 0.08569 0.76951 0.0
Cd91 Cd 0.53477 0.10057 0.75023 0.0
O92 O 0.51729 0.11099 0.73766 0.0
C93 C 0.49844 0.09766 0.73381 0.0
O94 O 0.49125 0.07864 0.73675 0.0
C95 C 0.55243 0.08775 0.77692 0.0
C96 C 0.60894 0.12129 0.73761 0.0
O97 O 0.61029 0.1351 0.74841 0.0
O98 O 0.59135 0.10503 0.73272 0.0
O99 O 0.80632 0.58593 0.91003 0.0
Cd100 Cd 0.80163 0.57875 0.9363 0.0
O101 O 0.77453 0.57511 0.90146 0.0
Cd102 Cd 0.76185 0.56667 0.92282 0.0
O103 O 0.73714 0.55789 0.93678 0.0
C104 C 0.73119 0.57068 0.93975 0.0
O105 O 0.74087 0.58883 0.93512 0.0
C106 C 0.7929 0.58277 0.89919 0.0
C107 C 0.82992 0.56906 0.94748 0.0
O108 O 0.81167 0.55455 0.94193 0.0
O109 O 0.83472 0.58808 0.94791 0.0
O110 O 0.40512 0.1801 0.93134 0.0
Cd111 Cd 0.41609 0.18982 0.9592 0.0
O112 O 0.43476 0.20459 0.92653 0.0
Cd113 Cd 0.4456 0.22072 0.95042 0.0
O114 O 0.45355 0.24922 0.96612 0.0
C115 C 0.44127 0.25559 0.96458 0.0
O116 O 0.42455 0.24411 0.95465 0.0
C117 C 0.41702 0.18895 0.9217 0.0
C118 C 0.43111 0.1657 0.96881 0.0
O119 O 0.41243 0.15998 0.96902 0.0
O120 O 0.44273 0.18296 0.96424 0.0
O121 O 0.77153 0.19299 0.91398 0.0
Cd122 Cd 0.76946 0.2037 0.94081 0.0
O123 O 0.80237 0.19894 0.91951 0.0
Cd124 Cd 0.80709 0.21491 0.94307 0.0
O125 O 0.8234 0.24424 0.95953 0.0
C126 C 0.82017 0.25868 0.95717 0.0
O127 O 0.80622 0.2547 0.94578 0.0
C128 C 0.78671 0.19244 0.90973 0.0
C129 C 0.73268 0.17498 0.94971 0.0
O130 O 0.73459 0.19053 0.94384 0.0
O131 O 0.74819 0.17304 0.95141 0.0
O132 O 0.56564 0.80187 0.09386 0.0
Cd133 Cd 0.54692 0.78942 0.06774 0.0
O134 O 0.5925 0.8012 0.08778 0.0
Cd135 Cd 0.57767 0.78387 0.06454 0.0
O136 O 0.56507 0.75386 0.04914 0.0
C137 C 0.57531 0.74509 0.05031 0.0
O138 O 0.59257 0.75504 0.05972 0.0
C139 C 0.58339 0.80548 0.09778 0.0
C140 C 0.54283 0.82073 0.05726 0.0
O141 O 0.53112 0.80952 0.06632 0.0
O142 O 0.55643 0.81707 0.05298 0.0
O143 O 0.23112 0.81702 0.09144 0.0
Cd144 Cd 0.2326 0.80797 0.06415 0.0
O145 O 0.24054 0.79594 0.09871 0.0
Cd146 Cd 0.23532 0.77975 0.07517 0.0
O147 O 0.21271 0.75128 0.05947 0.0
C148 C 0.19436 0.74556 0.06071 0.0
O149 O 0.19072 0.75759 0.07033 0.0
C150 C 0.23609 0.80986 0.10215 0.0
C151 C 0.27089 0.83476 0.05642 0.0
O152 O 0.25688 0.83909 0.05544 0.0
O153 O 0.26677 0.8177 0.061 0.0
O154 O 0.23706 0.42517 0.10045 0.0
Cd155 Cd 0.24105 0.44121 0.07735 0.0
O156 O 0.20362 0.40714 0.09622 0.0
Cd157 Cd 0.19959 0.42077 0.07677 0.0
O158 O 0.18069 0.42991 0.06452 0.0
C159 C 0.18316 0.44787 0.06869 0.0
O160 O 0.19813 0.46124 0.07961 0.0
C161 C 0.22015 0.41198 0.10422 0.0
C162 C 0.27661 0.44825 0.06596 0.0
O163 O 0.27677 0.46196 0.07616 0.0
O164 O 0.25959 0.43126 0.06103 0.0
O165 O 0.45706 0.89792 0.23856 0.0
Cd166 Cd 0.44883 0.88592 0.26318 0.0
O167 O 0.44602 0.91964 0.24211 0.0
Cd168 Cd 0.43128 0.90856 0.26224 0.0
O169 O 0.40509 0.89988 0.27453 0.0
C170 C 0.39177 0.90285 0.26819 0.0
O171 O 0.39493 0.91069 0.25538 0.0
C172 C 0.45465 0.91206 0.23413 0.0
C173 C 0.47933 0.88076 0.27664 0.0
O174 O 0.46368 0.86547 0.26788 0.0
O175 O 0.48044 0.89843 0.27917 0.0
O176 O 0.0528 0.48865 0.26487 0.0
Cd177 Cd 0.06179 0.49305 0.29273 0.0
O178 O 0.07232 0.52264 0.26998 0.0
Cd179 Cd 0.08615 0.55483 0.26601 0.0
O180 O 0.09811 0.58837 0.27077 0.0
C181 C 0.08836 0.5943 0.27891 0.0
O182 O 0.07163 0.58008 0.28337 0.0
C183 C 0.06113 0.50604 0.26012 0.0
C184 C 0.07959 0.47081 0.30086 0.0
O185 O 0.06092 0.46412 0.30213 0.0
O186 O 0.08978 0.48787 0.29563 0.0
O187 O 0.44999 0.5196 0.25116 0.0
Cd188 Cd 0.45011 0.52742 0.27889 0.0
O189 O 0.44958 0.54752 0.24686 0.0
Cd190 Cd 0.45519 0.56137 0.27114 0.0
O191 O 0.47521 0.5889 0.2886 0.0
C192 C 0.49403 0.59737 0.28759 0.0
O193 O 0.49977 0.58839 0.27703 0.0
C194 C 0.4491 0.53077 0.24177 0.0
C195 C 0.41173 0.50111 0.28656 0.0
O196 O 0.41653 0.51885 0.28291 0.0
O197 O 0.42518 0.49596 0.28676 0.0
C198 C 0.52804 0.0117 0.05035 0.0
Eu199 Eu 0.51451 0.00872 0.02175 0.0
C200 C 0.52061 0.00208 0.06396 0.0
C201 C 0.52819 0.01468 0.07861 0.0
C202 C 0.52161 0.00604 0.0918 0.0
C203 C 0.50734 0.98458 0.09058 0.0
C204 C 0.49969 0.97194 0.07586 0.0
C205 C 0.5062 0.98065 0.06263 0.0
C206 C 0.50346 0.03435 0.01141 0.0
C207 C 0.46578 0.9748 0.01368 0.0
C208 C 0.48033 0.99327 0.96007 0.0
Eu209 Eu 0.49376 0.99516 0.98843 0.0
C210 C 0.48884 -0.00013 0.94584 0.0
C211 C 0.47904 0.98638 0.93169 0.0
C212 C 0.48672 0.99227 0.918 0.0
C213 C 0.50436 0.01184 0.91819 0.0
C214 C 0.51429 0.02525 0.93245 0.0
C215 C 0.5066 0.01932 0.94616 0.0
C216 C 0.50451 0.96921 0.99855 0.0
C217 C 0.54286 0.02896 0.99646 0.0
O218 O 0.52923 6e-05 0.03871 0.0
O219 O 0.52108 0.02314 0.04601 0.0
O220 O 0.52021 0.04101 0.02047 0.0
O221 O 0.49303 0.01467 0.00872 0.0
O222 O 0.48282 0.98153 0.023 0.0
O223 O 0.46595 0.98071 0.00015 0.0
O224 O 0.48391 0.00809 0.97144 0.0
O225 O 0.48195 0.9783 0.96474 0.0
O226 O 0.48808 0.9628 0.98916 0.0
O227 O 0.51501 0.98892 0.00145 0.0
O228 O 0.52595 0.02079 0.98663 0.0
O229 O 0.54268 0.02469 0.01058 0.0
H230 H 0.53932 0.03124 0.07985 0.0
H231 H 0.52797 0.01612 0.10299 0.0
H232 H 0.48854 0.95539 0.07457 0.0
H233 H 0.50003 0.97066 0.05139 0.0
H234 H 0.4654 0.97125 0.93123 0.0
H235 H 0.47889 0.98143 0.90725 0.0
H236 H 0.52777 0.04051 0.933 0.0
H237 H 0.51443 0.02999 0.95696 0.0
C238 C 0.01092 0.53243 0.05664 0.0
Eu239 Eu 0.00182 0.51253 0.02833 0.0
C240 C 0.01573 0.52952 0.0723 0.0
C241 C 0.00327 0.52881 0.08343 0.0
C242 C 0.00713 0.52572 0.09828 0.0
C243 C 0.02368 0.52346 0.10235 0.0
C244 C 0.03632 0.52439 0.09125 0.0
C245 C 0.03234 0.52731 0.07632 0.0
C246 C 0.97153 0.47219 0.01868 0.0
C247 C 0.0283 0.49031 0.02233 0.0
C248 C 0.99199 0.47351 0.96769 0.0
Eu249 Eu 0.00153 0.49414 0.99578 0.0
C250 C 0.98722 0.47668 0.95227 0.0
C251 C 0.98524 0.4938 0.95036 0.0
C252 C 0.98192 0.49736 0.93554 0.0
C253 C 0.98073 0.48396 0.92244 0.0
C254 C 0.98243 0.46666 0.92446 0.0
C255 C 0.98565 0.46307 0.93927 0.0
C256 C 0.03215 0.53427 0.00541 0.0
C257 C 0.97565 0.5171 0.00155 0.0
O258 O 0.02435 0.53625 0.04716 0.0
O259 O 0.9923 0.5195 0.04985 0.0
O260 O 0.96953 0.48565 0.02775 0.0
O261 O 0.98957 0.48008 0.01609 0.0
O262 O 0.0263 0.50432 0.03134 0.0
O263 O 0.01715 0.48105 0.00867 0.0
O264 O 0.97866 0.4704 0.97714 0.0
O265 O 0.01068 0.48639 0.97435 0.0
O266 O 0.03384 0.52065 0.99625 0.0
O267 O 0.01411 0.52669 0.00803 0.0
O268 O 0.97795 0.50343 0.99241 0.0
O269 O 0.98599 0.5256 0.01556 0.0
H270 H 0.99045 0.53059 0.08063 0.0
H271 H 0.9973 0.52536 0.10665 0.0
H272 H 0.0491 0.52257 0.09404 0.0
H273 H 0.04219 0.52773 0.06796 0.0
H274 H 0.98663 0.50457 0.96033 0.0
H275 H 0.98083 0.5109 0.93434 0.0
H276 H 0.98129 0.4559 0.91459 0.0
H277 H 0.98718 0.44981 0.94057 0.0
C278 C 0.47783 0.46551 0.96004 0.0
Eu279 Eu 0.49105 0.48844 0.98749 0.0
C280 C 0.48581 0.46716 0.94526 0.0
C281 C 0.50425 0.4849 0.94371 0.0
C282 C 0.51136 0.48684 0.92942 0.0
C283 C 0.50014 0.47104 0.91647 0.0
C284 C 0.48186 0.45309 0.91819 0.0
C285 C 0.47474 0.4512 0.93248 0.0
C286 C 0.50231 0.52923 0.99415 0.0
C287 C 0.54063 0.51136 0.9945 0.0
C288 C 0.52575 0.53271 0.04738 0.0
Eu289 Eu 0.51304 0.51025 0.01984 0.0
C290 C 0.51729 0.52992 0.06199 0.0
C291 C 0.50289 0.50988 0.06449 0.0
C292 C 0.49493 0.50722 0.07842 0.0
C293 C 0.50104 0.52459 0.09004 0.0
C294 C 0.51523 0.54469 0.08732 0.0
C295 C 0.52331 0.54731 0.07341 0.0
C296 C 0.502 0.46956 0.01323 0.0
C297 C 0.46354 0.48766 0.01284 0.0
O298 O 0.48752 0.46238 0.97111 0.0
O299 O 0.47333 0.47958 0.9648 0.0
O300 O 0.48568 0.51507 0.98535 0.0
O301 O 0.51269 0.52159 0.99805 0.0
O302 O 0.52354 0.49644 0.98582 0.0
O303 O 0.54039 0.52189 0.0075 0.0
O304 O 0.51583 0.53575 0.03644 0.0
O305 O 0.53122 0.51952 0.04235 0.0
O306 O 0.51855 0.48382 0.02206 0.0
O307 O 0.49145 0.47701 0.00931 0.0
O308 O 0.48068 0.50249 0.02148 0.0
O309 O 0.46364 0.47707 -0.00018 0.0
H310 H 0.51303 0.49734 0.95351 0.0
H311 H 0.52562 0.50072 0.92851 0.0
H312 H 0.47278 0.44075 0.9084 0.0
H313 H 0.46045 0.43741 0.93351 0.0
H314 H 0.49792 0.49627 0.05571 0.0
H315 H 0.48424 0.49151 0.08017 0.0
H316 H 0.51999 0.55845 0.09587 0.0
H317 H 0.53423 0.5629 0.07156 0.0
C318 C 0.20253 0.33138 0.37713 0.0
Eu319 Eu 0.18826 0.33326 0.35021 0.0
C320 C 0.19577 0.32559 0.39196 0.0
C321 C 0.17938 0.32659 0.39702 0.0
C322 C 0.17346 0.32122 0.41131 0.0
C323 C 0.18378 0.31466 0.4207 0.0
C324 C 0.19999 0.3134 0.41538 0.0
C325 C 0.20593 0.31886 0.40116 0.0
C326 C 0.17378 0.35768 0.34309 0.0
C327 C 0.13923 0.29966 0.34169 0.0
C328 C 0.15396 0.32336 0.28915 0.0
Eu329 Eu 0.16744 0.32248 0.31672 0.0
C330 C 0.16212 0.32867 0.27466 0.0
C331 C 0.18192 0.33355 0.27298 0.0
C332 C 0.18958 0.33895 0.25916 0.0
C333 C 0.17753 0.33956 0.24683 0.0
C334 C 0.1577 0.33469 0.24866 0.0
C335 C 0.15008 0.32928 0.26246 0.0
C336 C 0.18152 0.29792 0.32416 0.0
C337 C 0.21606 0.35752 0.32567 0.0
O338 O 0.19499 0.31605 0.36534 0.0
O339 O 0.20357 0.34827 0.37367 0.0
O340 O 0.18983 0.36444 0.35307 0.0
O341 O 0.16541 0.33833 0.33853 0.0
O342 O 0.15614 0.30661 0.35127 0.0
O343 O 0.13954 0.30592 0.32824 0.0
O344 O 0.16113 0.33899 0.30068 0.0
O345 O 0.15247 0.3066 0.29329 0.0
O346 O 0.1651 0.29106 0.31463 0.0
O347 O 0.1903 0.31739 0.32836 0.0
O348 O 0.1991 0.35009 0.31606 0.0
O349 O 0.21605 0.35101 0.33895 0.0
H350 H 0.17126 0.33163 0.38998 0.0
H351 H 0.16102 0.32252 0.41508 0.0
H352 H 0.20799 0.308 0.42214 0.0
H353 H 0.21849 0.31781 0.39734 0.0
H354 H 0.19144 0.3332 0.28236 0.0
H355 H 0.20484 0.34245 0.25809 0.0
H356 H 0.14815 0.33539 0.23953 0.0
H357 H 0.13481 0.32571 0.26363 0.0
C358 C 0.6769 0.87242 0.39162 0.0
Eu359 Eu 0.66782 0.85166 0.36362 0.0
C360 C 0.68387 0.87048 0.40687 0.0
C361 C 0.68174 0.85153 0.40949 0.0
C362 C 0.68762 0.84955 0.42421 0.0
C363 C 0.6959 0.86655 0.43655 0.0
C364 C 0.69847 0.88567 0.4337 0.0
C365 C 0.69247 0.88758 0.41899 0.0
C366 C 0.64014 0.81052 0.35414 0.0
C367 C 0.69752 0.83297 0.35802 0.0
C368 C 0.6613 0.81403 0.30292 0.0
Eu369 Eu 0.66934 0.83418 0.33102 0.0
C370 C 0.65474 0.8158 0.28747 0.0
C371 C 0.65669 0.83456 0.28451 0.0
C372 C 0.65107 0.83621 0.26959 0.0
C373 C 0.64324 0.81905 0.25746 0.0
C374 C 0.64102 0.8002 0.26059 0.0
C375 C 0.64676 0.79861 0.27548 0.0
C376 C 0.69673 0.87544 0.34087 0.0
C377 C 0.63913 0.85219 0.33648 0.0
O378 O 0.68985 0.87731 0.38169 0.0
O379 O 0.65845 0.8577 0.38544 0.0
O380 O 0.63685 0.82291 0.36331 0.0
O381 O 0.65823 0.81986 0.35148 0.0
O382 O 0.69396 0.84588 0.3669 0.0
O383 O 0.68711 0.82347 0.34413 0.0
O384 O 0.64792 0.8088 0.31253 0.0
O385 O 0.67952 0.82894 0.3094 0.0
O386 O 0.70056 0.86327 0.33198 0.0
O387 O 0.67854 0.86574 0.34312 0.0
O388 O 0.643 0.83954 0.32761 0.0
O389 O 0.64937 0.86171 0.35044 0.0
H390 H 0.67521 0.83818 0.40021 0.0
H391 H 0.6852 0.83453 0.42599 0.0
H392 H 0.70512 0.89918 0.44284 0.0
H393 H 0.69439 0.90238 0.4171 0.0
H394 H 0.6627 0.84795 0.29371 0.0
H395 H 0.65274 0.85085 0.26755 0.0
H396 H 0.63524 0.78679 0.25145 0.0
H397 H 0.64517 0.78403 0.27759 0.0
C398 C 0.14242 0.81394 0.29034 0.0
Eu399 Eu 0.15563 0.83315 0.31888 0.0
C400 C 0.1516 0.8162 0.27608 0.0
C401 C 0.17137 0.83285 0.27587 0.0
C402 C 0.18012 0.83489 0.26227 0.0
C403 C 0.16919 0.82032 0.24865 0.0
C404 C 0.14938 0.80362 0.24898 0.0
C405 C 0.14068 0.80158 0.2626 0.0
C406 C 0.16916 0.87396 0.32894 0.0
C407 C 0.20476 0.85248 0.326 0.0
C408 C 0.19074 0.86911 0.38035 0.0
Eu409 Eu 0.17734 0.84995 0.35183 0.0
C410 C 0.18181 0.86661 0.39473 0.0
C411 C 0.16288 0.84888 0.39538 0.0
C412 C 0.15459 0.84642 0.40919 0.0
C413 C 0.16505 0.86172 0.42252 0.0
C414 C 0.18391 0.87957 0.42172 0.0
C415 C 0.19223 0.88197 0.40792 0.0
C416 C 0.16401 0.80923 0.34152 0.0
C417 C 0.12822 0.83048 0.34484 0.0
O418 O 0.14938 0.80739 0.30087 0.0
O419 O 0.14034 0.82944 0.29611 0.0
O420 O 0.1523 0.86142 0.31977 0.0
O421 O 0.17856 0.86485 0.33157 0.0
O422 O 0.18751 0.83951 0.31671 0.0
O423 O 0.20497 0.86154 0.33984 0.0
O424 O 0.18343 0.87554 0.36996 0.0
O425 O 0.19304 0.85382 0.37443 0.0
O426 O 0.18084 0.82171 0.35073 0.0
O427 O 0.15458 0.81834 0.33909 0.0
O428 O 0.14549 0.84351 0.35409 0.0
O429 O 0.12799 0.82153 0.33093 0.0
H430 H 0.18001 0.8443 0.28621 0.0
H431 H 0.19531 0.84802 0.26237 0.0
H432 H 0.14069 0.79195 0.23876 0.0
H433 H 0.12544 0.78857 0.26262 0.0
H434 H 0.15457 0.83693 0.38523 0.0
H435 H 0.13993 0.83263 0.40941 0.0
H436 H 0.19242 0.89151 0.43184 0.0
H437 H 0.20685 0.89575 0.40757 0.0
C438 C 0.87362 0.66986 0.71253 0.0
Eu439 Eu 0.85805 0.66834 0.68499 0.0
C440 C 0.86636 0.66311 0.72703 0.0
C441 C 0.84772 0.6601 0.73065 0.0
C442 C 0.84106 0.65351 0.74449 0.0
C443 C 0.85287 0.64967 0.75488 0.0
C444 C 0.87141 0.65248 0.75102 0.0
C445 C 0.87809 0.65918 0.73725 0.0
C446 C 0.84377 0.69209 0.67593 0.0
C447 C 0.80887 0.63402 0.67865 0.0
C448 C 0.82022 0.65069 0.6239 0.0
Eu449 Eu 0.83505 0.65377 0.65211 0.0
C450 C 0.82808 0.66079 0.61054 0.0
C451 C 0.82037 0.64898 0.59562 0.0
C452 C 0.82798 0.65813 0.58279 0.0
C453 C 0.84348 0.67931 0.58467 0.0
C454 C 0.85119 0.69111 0.59968 0.0
C455 C 0.84357 0.68193 0.6125 0.0
C456 C 0.84839 0.6296 0.66171 0.0
C457 C 0.88335 0.68992 0.65893 0.0
O458 O 0.86878 0.65488 0.70093 0.0
O459 O 0.87175 0.68501 0.70847 0.0
O460 O 0.86084 0.69986 0.68493 0.0
O461 O 0.83474 0.67248 0.67307 0.0
O462 O 0.82635 0.64231 0.68785 0.0
O463 O 0.80804 0.63803 0.66451 0.0
O464 O 0.81942 0.66231 0.6358 0.0
O465 O 0.8269 0.63885 0.62789 0.0
O466 O 0.83096 0.62208 0.65332 0.0
O467 O 0.85816 0.64929 0.66409 0.0
O468 O 0.86562 0.68226 0.65029 0.0
O469 O 0.88471 0.68412 0.67228 0.0
H470 H 0.83836 0.66289 0.7228 0.0
H471 H 0.82679 0.65168 0.74712 0.0
H472 H 0.8807 0.64926 0.75856 0.0
H473 H 0.8924 0.66119 0.73453 0.0
H474 H 0.80844 0.63263 0.5939 0.0
H475 H 0.82152 0.64869 0.57138 0.0
H476 H 0.86328 0.70739 0.60153 0.0
H477 H 0.84981 0.69131 0.62394 0.0
C478 C 0.3318 0.18849 0.72239 0.0
Eu479 Eu 0.3231 0.17035 0.69365 0.0
C480 C 0.33858 0.18485 0.737 0.0
C481 C 0.33471 0.16491 0.73862 0.0
C482 C 0.34102 0.16157 0.75264 0.0
C483 C 0.35152 0.17818 0.76518 0.0
C484 C 0.35566 0.1982 0.7634 0.0
C485 C 0.34919 0.20148 0.74941 0.0
C486 C 0.29535 0.12952 0.68269 0.0
C487 C 0.3525 0.15185 0.68638 0.0
C488 C 0.317 0.13785 0.63176 0.0
Eu489 Eu 0.32474 0.15541 0.66058 0.0
C490 C 0.31266 0.14241 0.61668 0.0
C491 C 0.32434 0.16247 0.61295 0.0
C492 C 0.32048 0.16627 0.59836 0.0
C493 C 0.30472 0.15016 0.58732 0.0
C494 C 0.29274 0.13025 0.59121 0.0
C495 C 0.29674 0.1264 0.60576 0.0
C496 C 0.35227 0.19635 0.67176 0.0
C497 C 0.29477 0.17319 0.66773 0.0
O498 O 0.34492 0.19455 0.71258 0.0
O499 O 0.31337 0.17432 0.71578 0.0
O500 O 0.29193 0.14133 0.69238 0.0
O501 O 0.31348 0.13919 0.68021 0.0
O502 O 0.34944 0.16469 0.69583 0.0
O503 O 0.3416 0.1429 0.67259 0.0
O504 O 0.30299 0.13295 0.64081 0.0
O505 O 0.33539 0.15029 0.6392 0.0
O506 O 0.35596 0.18474 0.66212 0.0
O507 O 0.33409 0.1864 0.67398 0.0
O508 O 0.29818 0.1606 0.65833 0.0
O509 O 0.30535 0.18208 0.68165 0.0
H510 H 0.32674 0.15193 0.72906 0.0
H511 H 0.33784 0.14605 0.75364 0.0
H512 H 0.36356 0.21124 0.77291 0.0
H513 H 0.35237 0.21698 0.74832 0.0
H514 H 0.33657 0.17517 0.62125 0.0
H515 H 0.32979 0.18181 0.59571 0.0
H516 H 0.28062 0.11751 0.58287 0.0
H517 H 0.28754 0.11084 0.60843 0.0
C518 C 0.80267 0.13553 0.62254 0.0
Eu519 Eu 0.81657 0.15616 0.65069 0.0
C520 C 0.81117 0.13724 0.60795 0.0
C521 C 0.82865 0.15582 0.60614 0.0
C522 C 0.83653 0.15745 0.59216 0.0
C523 C 0.82718 0.14045 0.57979 0.0
C524 C 0.80986 0.12172 0.58183 0.0
C525 C 0.80192 0.12016 0.59579 0.0
C526 C 0.83038 0.19716 0.66003 0.0
C527 C 0.86579 0.1756 0.6573 0.0
C528 C 0.85321 0.1933 0.71191 0.0
Eu529 Eu 0.83905 0.17382 0.68348 0.0
C530 C 0.84505 0.19083 0.72662 0.0
C531 C 0.82482 0.17544 0.72715 0.0
C532 C 0.81733 0.17272 0.74128 0.0
C533 C 0.83001 0.18529 0.75512 0.0
C534 C 0.85023 0.20084 0.75447 0.0
C535 C 0.85767 0.20357 0.74032 0.0
C536 C 0.82476 0.13268 0.67373 0.0
C537 C 0.79013 0.15534 0.677 0.0
O538 O 0.8105 0.12992 0.6332 0.0
O539 O 0.80015 0.15084 0.62804 0.0
O540 O 0.81359 0.18452 0.6508 0.0
O541 O 0.83977 0.1881 0.66292 0.0
O542 O 0.84838 0.16242 0.64823 0.0
O543 O 0.86627 0.18506 0.67106 0.0
O544 O 0.84513 0.19928 0.70172 0.0
O545 O 0.85568 0.1782 0.70581 0.0
O546 O 0.84186 0.14512 0.68264 0.0
O547 O 0.81569 0.14212 0.67128 0.0
O548 O 0.80765 0.16841 0.68593 0.0
O549 O 0.78935 0.14564 0.66322 0.0
H550 H 0.83608 0.16913 0.61548 0.0
H551 H 0.8497 0.17219 0.59098 0.0
H552 H 0.80248 0.10821 0.57266 0.0
H553 H 0.78854 0.10563 0.59709 0.0
H554 H 0.8149 0.16537 0.71665 0.0
H555 H 0.80176 0.16049 0.7414 0.0
H556 H 0.86028 0.21098 0.76489 0.0
H557 H 0.87332 0.21554 0.74009 0.0
H558 H 0.28449 0.87253 0.04724 0.0
H559 H 0.31801 0.89599 0.04038 0.0
H560 H 0.33689 0.85307 0.04974 0.0
H561 H 0.30336 0.82941 0.05653 0.0
H562 H 0.35663 0.91504 0.05876 0.0
H563 H 0.34982 0.86294 0.00557 0.0
H564 H 0.32815 0.85897 0.01476 0.0
H565 H 0.34481 0.85128 0.02267 0.0
C566 C 0.29574 0.86803 0.04781 0.0
C567 C 0.29122 0.84904 0.05236 0.0
C568 C 0.3149 0.88148 0.04392 0.0
C569 C 0.32982 0.87614 0.04439 0.0
C570 C 0.32546 0.85731 0.04907 0.0
H571 H 0.45899 0.95952 0.04086 0.0
H572 H 0.42626 0.93564 0.04871 0.0
C573 C 0.30631 0.84386 0.053 0.0
C574 C 0.35001 0.89037 0.04008 0.0
H575 H 0.38176 0.89405 0.01369 0.0
C576 C 0.36217 0.91048 0.04892 0.0
C577 C 0.35705 0.8844 0.02714 0.0
C578 C 0.34425 0.8633 0.01688 0.0
C579 C 0.38129 0.92477 0.04523 0.0
C580 C 0.38848 0.91867 0.03245 0.0
C581 C 0.37626 0.89861 0.02355 0.0
C582 C 0.40836 0.93311 0.02779 0.0
C583 C 0.39345 0.94643 0.0548 0.0
C584 C 0.40914 0.93927 0.01332 0.0
C585 C 0.42778 0.95284 0.00876 0.0
C586 C 0.44605 0.96043 0.01858 0.0
C587 C 0.44522 0.95407 0.03304 0.0
C588 C 0.42653 0.9405 0.03759 0.0
H589 H 0.38395 0.95014 0.06193 0.0
H590 H 0.40581 0.94749 0.0627 0.0
H591 H 0.40051 0.95842 0.04732 0.0
H592 H 0.39527 0.93367 0.00557 0.0
H593 H 0.42783 0.95734 0.99753 0.0
H594 H 0.14686 0.42141 0.05014 0.0
H595 H 0.12083 0.42897 0.04188 0.0
H596 H 0.15913 0.49283 0.06518 0.0
H597 H 0.18525 0.48545 0.07359 0.0
H598 H 0.10277 0.44623 0.06382 0.0
H599 H 0.14001 0.49516 0.01966 0.0
H600 H 0.14658 0.47693 0.02553 0.0
H601 H 0.15529 0.50136 0.03797 0.0
C602 C 0.14987 0.43714 0.05337 0.0
C603 C 0.16815 0.45284 0.06253 0.0
C604 C 0.13495 0.44139 0.04868 0.0
C605 C 0.13813 0.46145 0.05289 0.0
C606 C 0.15649 0.47729 0.06173 0.0
H607 H 0.05141 0.5027 0.05076 0.0
H608 H 0.07778 0.49535 0.05859 0.0
C609 C 0.17137 0.47302 0.06653 0.0
C610 C 0.12188 0.46558 0.04856 0.0
H611 H 0.10923 0.49191 0.02567 0.0
C612 C 0.10415 0.45622 0.05549 0.0
C613 C 0.12376 0.47854 0.03764 0.0
C614 C 0.14235 0.48852 0.02964 0.0
C615 C 0.08825 0.45963 0.05187 0.0
C616 C 0.09022 0.47275 0.04106 0.0
C617 C 0.10787 0.48197 0.03402 0.0
C618 C 0.07386 0.47666 0.03659 0.0
C619 C 0.06932 0.44898 0.05941 0.0
C620 C 0.063 0.46859 0.02165 0.0
C621 C 0.04788 0.47264 0.01716 0.0
C622 C 0.04349 0.48506 0.0275 0.0
C623 C 0.05437 0.49305 0.04252 0.0
C624 C 0.0694 0.48884 0.04704 0.0
H625 H 0.06882 0.43672 0.06556 0.0
H626 H 0.06885 0.46077 0.0679 0.0
H627 H 0.05556 0.44173 0.05065 0.0
H628 H 0.06627 0.45919 0.01343 0.0
H629 H 0.0399 0.46632 0.00548 0.0
H630 H 0.53887 0.71864 0.03166 0.0
H631 H 0.52468 0.68169 0.0207 0.0
H632 H 0.57925 0.68556 0.04024 0.0
H633 H 0.5935 0.72228 0.05125 0.0
H634 H 0.54093 0.66179 0.00041 0.0
H635 H 0.53242 0.63758 0.05794 0.0
H636 H 0.53605 0.66241 0.05479 0.0
H637 H 0.55731 0.6588 0.05643 0.0
C638 C 0.54791 0.71166 0.03352 0.0
C639 C 0.56724 0.72335 0.04245 0.0
C640 C 0.53978 0.69057 0.02725 0.0
C641 C 0.5508 0.68087 0.02991 0.0
C642 C 0.57037 0.6927 0.03831 0.0
H643 H 0.53753 0.5602 0.01155 0.0
H644 H 0.54813 0.59689 0.01939 0.0
C645 C 0.57851 0.71372 0.04454 0.0
C646 C 0.5418 0.65825 0.02428 0.0
H647 H 0.52812 0.61234 0.03679 0.0
C648 C 0.53791 0.65089 0.00832 0.0
C649 C 0.53786 0.64413 0.03467 0.0
C650 C 0.54093 0.65103 0.05192 0.0
C651 C 0.53093 0.62984 0.00247 0.0
C652 C 0.52746 0.61584 0.01289 0.0
C653 C 0.53088 0.62314 0.02884 0.0
C654 C 0.52103 0.5937 0.00761 0.0
C655 C 0.52803 0.62294 0.98524 0.0
C656 C 0.50221 0.57971 0.99846 0.0
C657 C 0.49612 0.5587 0.99395 0.0
C658 C 0.50873 0.5514 0.9986 0.0
C659 C 0.52753 0.56542 0.00777 0.0
C660 C 0.53359 0.58637 0.01226 0.0
H661 H 0.53556 0.63645 0.9791 0.0
H662 H 0.53413 0.61261 0.98245 0.0
H663 H 0.51157 0.61395 0.98078 0.0
H664 H 0.49212 0.58496 0.995 0.0
H665 H 0.4815 0.54816 0.98696 0.0
H666 H 0.85353 0.27343 0.97885 0.0
H667 H 0.87769 0.30981 0.99072 0.0
H668 H 0.8414 0.32917 0.96686 0.0
H669 H 0.81732 0.29289 0.95475 0.0
H670 H 0.88147 0.35152 0.96294 0.0
H671 H 0.87455 0.34892 0.02505 0.0
H672 H 0.87939 0.32969 0.01573 0.0
H673 H 0.85598 0.32833 0.00988 0.0
C674 C 0.8505 0.28537 0.97631 0.0
C675 C 0.83351 0.28025 0.96581 0.0
C676 C 0.86429 0.30616 0.98318 0.0
C677 C 0.86124 0.32217 0.97979 0.0
C678 C 0.84401 0.31704 0.96966 0.0
H679 H 0.93217 0.45305 0.02394 0.0
H680 H 0.90507 0.41669 0.01435 0.0
C681 C 0.83024 0.29628 0.96277 0.0
C682 C 0.87678 0.3444 0.98585 0.0
H683 H 0.90284 0.37961 0.01906 0.0
C684 C 0.88605 0.3577 0.97521 0.0
C685 C 0.8826 0.35246 0.00186 0.0
C686 C 0.87249 0.33918 0.01381 0.0
C687 C 0.90127 0.37876 0.98014 0.0
C688 C 0.90763 0.38662 0.99614 0.0
C689 C 0.89807 0.37346 0.0068 0.0
C690 C 0.92411 0.40852 0.00203 0.0
C691 C 0.91024 0.39246 0.96817 0.0
C692 C 0.94382 0.41587 0.99842 0.0
C693 C 0.95928 0.43661 0.00385 0.0
C694 C 0.95529 0.45027 0.01306 0.0
C695 C 0.93563 0.44283 0.01683 0.0
C696 C 0.92017 0.42209 0.0114 0.0
H697 H 0.90018 0.3857 0.95689 0.0
H698 H 0.91303 0.40837 0.97204 0.0
H699 H 0.92498 0.39397 0.96635 0.0
H700 H 0.94727 0.40554 0.99145 0.0
H701 H 0.97434 0.44193 0.00083 0.0
H702 H 0.70512 0.53286 0.94789 0.0
H703 H 0.67282 0.52211 0.95767 0.0
H704 H 0.68289 0.58385 0.95785 0.0
H705 H 0.71499 0.59466 0.94789 0.0
H706 H 0.66341 0.53763 0.98428 0.0
H707 H 0.62736 0.54582 0.9313 0.0
H708 H 0.65076 0.54585 0.93204 0.0
H709 H 0.6509 0.56907 0.93984 0.0
C710 C 0.70052 0.5442 0.95009 0.0
C711 C 0.71255 0.56457 0.94696 0.0
C712 C 0.68206 0.53801 0.95567 0.0
C713 C 0.67528 0.55206 0.95818 0.0
C714 C 0.68762 0.57262 0.95565 0.0
H715 H 0.57872 0.54162 0.00881 0.0
H716 H 0.61118 0.55069 9e-05 0.0
C717 C 0.70603 0.5788 0.95004 0.0
C718 C 0.65518 0.54515 0.96325 0.0
H719 H 0.60934 0.54 0.95289 0.0
C720 C 0.65155 0.53806 0.97741 0.0
C721 C 0.63962 0.54542 0.95413 0.0
C722 C 0.64222 0.55175 0.93841 0.0
C723 C 0.6329 0.53168 0.98287 0.0
C724 C 0.61764 0.53275 0.97404 0.0
C725 C 0.62113 0.53939 0.95971 0.0
C726 C 0.59794 0.52708 0.97942 0.0
C727 C 0.62962 0.52359 0.99796 0.0
C728 C 0.57966 0.51115 0.97048 0.0
C729 C 0.56103 0.50603 0.97536 0.0
C730 C 0.56034 0.51683 0.98926 0.0
C731 C 0.57869 0.5329 0.99811 0.0
C732 C 0.59729 0.53802 0.9932 0.0
H733 H 0.64024 0.51834 0.00104 0.0
H734 H 0.63236 0.53632 0.00732 0.0
H735 H 0.61381 0.51035 0.99744 0.0
H736 H 0.57982 0.50261 0.95975 0.0
H737 H 0.54721 0.49362 0.96823 0.0
H738 H 0.41117 0.13014 0.9813 0.0
H739 H 0.42404 0.10819 0.98856 0.0
H740 H 0.48145 0.14942 0.97404 0.0
H741 H 0.46876 0.17152 0.96675 0.0
H742 H 0.46311 0.10458 0.96252 0.0
H743 H 0.46831 0.1242 0.02619 0.0
H744 H 0.44459 0.11664 0.01504 0.0
H745 H 0.46721 0.14046 0.01314 0.0
C746 C 0.42656 0.1346 0.97971 0.0
C747 C 0.43897 0.15261 0.9735 0.0
C748 C 0.4339 0.12207 0.9839 0.0
C749 C 0.45373 0.12732 0.98194 0.0
C750 C 0.46612 0.14519 0.97568 0.0
H751 H 0.52356 0.07686 0.01767 0.0
H752 H 0.51167 0.09948 0.01 0.0
C753 C 0.45885 0.1578 0.97156 0.0
C754 C 0.46144 0.11394 0.98618 0.0
H755 H 0.4743 0.0973 0.01694 0.0
C756 C 0.46559 0.10298 0.97441 0.0
C757 C 0.4648 0.11208 0.00171 0.0
C758 C 0.46117 0.12406 0.01481 0.0
C759 C 0.47276 0.08991 0.97776 0.0
C760 C 0.47573 0.08774 0.99326 0.0
C761 C 0.47187 0.09894 0.00505 0.0
C762 C 0.48301 0.07401 0.99751 0.0
C763 C 0.47732 0.0787 0.96474 0.0
C764 C 0.47074 0.05223 0.99307 0.0
C765 C 0.47744 0.03928 0.99751 0.0
C766 C 0.49652 0.04796 0.00641 0.0
C767 C 0.5088 0.06978 0.01078 0.0
C768 C 0.50204 0.0827 0.00643 0.0
H769 H 0.47816 0.08526 0.95398 0.0
H770 H 0.49189 0.07961 0.96802 0.0
H771 H 0.46511 0.06194 0.96228 0.0
H772 H 0.45587 0.04523 0.98637 0.0
H773 H 0.4676 0.0225 0.99409 0.0
H774 H 0.72372 0.1401 0.96201 0.0
H775 H 0.69138 0.11492 0.96966 0.0
H776 H 0.66507 0.14992 0.95555 0.0
H777 H 0.69739 0.1753 0.948 0.0
H778 H 0.65713 0.13866 0.98474 0.0
H779 H 0.63934 0.07051 0.94061 0.0
H780 H 0.66395 0.08305 0.95198 0.0
H781 H 0.6584 0.09702 0.93927 0.0
C782 C 0.71105 0.14242 0.96049 0.0
C783 C 0.71312 0.15968 0.95434 0.0
C784 C 0.69255 0.12795 0.9648 0.0
C785 C 0.67577 0.1304 0.96297 0.0
C786 C 0.67783 0.1477 0.95698 0.0
H787 H 0.54971 0.03986 0.96788 0.0
H788 H 0.58195 0.06461 0.95997 0.0
C789 C 0.6963 0.16217 0.95266 0.0
C790 C 0.65617 0.11519 0.96761 0.0
H791 H 0.61804 0.06383 0.96016 0.0
C792 C 0.64855 0.1223 0.97936 0.0
C793 C 0.64492 0.09393 0.96044 0.0
C794 C 0.65192 0.08564 0.94728 0.0
C795 C 0.63009 0.10864 0.98429 0.0
C796 C 0.61913 0.08726 0.97742 0.0
C797 C 0.62659 0.0802 0.96551 0.0
C798 C 0.5997 0.07202 0.98226 0.0
C799 C 0.62231 0.11727 0.99663 0.0
C800 C 0.59905 0.06775 0.99736 0.0
C801 C 0.58063 0.05362 0.00195 0.0
C802 C 0.5625 0.04343 0.99149 0.0
C803 C 0.56331 0.04749 0.97628 0.0
C804 C 0.58174 0.06161 0.97171 0.0
H805 H 0.62983 0.13454 0.99799 0.0
H806 H 0.60565 0.11022 0.99394 0.0
H807 H 0.62545 0.11341 0.00785 0.0
H808 H 0.61281 0.07534 0.0056 0.0
H809 H 0.5806 0.0508 0.01372 0.0
H810 H 0.87113 0.59346 0.94998 0.0
H811 H 0.89628 0.58475 0.95821 0.0
H812 H 0.84827 0.52521 0.96656 0.0
H813 H 0.82304 0.53339 0.95746 0.0
H814 H 0.9071 0.57817 0.98387 0.0
H815 H 0.87791 0.5054 0.94173 0.0
H816 H 0.86835 0.52261 0.94043 0.0
H817 H 0.85887 0.50365 0.95315 0.0
C818 C 0.86595 0.57846 0.95349 0.0
C819 C 0.84512 0.56402 0.95295 0.0
C820 C 0.88034 0.57349 0.9582 0.0
C821 C 0.87422 0.5541 0.9627 0.0
C822 C 0.85341 0.53994 0.96263 0.0
H823 H 0.95588 0.53184 0.01853 0.0
H824 H 0.93157 0.54097 0.00905 0.0
C825 C 0.83898 0.5447 0.95756 0.0
C826 C 0.88968 0.54905 0.96788 0.0
H827 H 0.90196 0.51139 0.96307 0.0
C828 C 0.90605 0.56363 0.97921 0.0
C829 C 0.88863 0.53028 0.96162 0.0
C830 C 0.87262 0.51473 0.94844 0.0
C831 C 0.92116 0.55986 0.9846 0.0
C832 C 0.91941 0.54052 0.97904 0.0
C833 C 0.90322 0.5261 0.96753 0.0
C834 C 0.93419 0.53493 0.98488 0.0
C835 C 0.93907 0.57695 0.9959 0.0
C836 C 0.94317 0.52759 0.97448 0.0
C837 C 0.9566 0.52172 0.97987 0.0
C838 C 0.96156 0.52339 0.9958 0.0
C839 C 0.95261 0.53073 0.00621 0.0
C840 C 0.93881 0.53612 0.00079 0.0
H841 H 0.94169 0.59261 0.99475 0.0
H842 H 0.93596 0.57454 0.00785 0.0
H843 H 0.95319 0.57696 0.99419 0.0
H844 H 0.93982 0.52641 0.96215 0.0
H845 H 0.96325 0.5161 0.97158 0.0
H846 H 0.47603 0.28485 0.98399 0.0
H847 H 0.48604 0.32074 0.99475 0.0
H848 H 0.42907 0.30989 0.97323 0.0
H849 H 0.41882 0.27401 0.96264 0.0
H850 H 0.49047 0.35067 0.97741 0.0
H851 H 0.43353 0.3382 0.01683 0.0
H852 H 0.43817 0.31788 0.00934 0.0
H853 H 0.42244 0.32371 0.99762 0.0
C854 C 0.46549 0.28999 0.98176 0.0
C855 C 0.44663 0.27657 0.97244 0.0
C856 C 0.47125 0.3105 0.9879 0.0
C857 C 0.45821 0.3179 0.98494 0.0
C858 C 0.4392 0.30438 0.97594 0.0
H859 H 0.46661 0.43753 0.99639 0.0
H860 H 0.45643 0.40068 0.9899 0.0
C861 C 0.43342 0.2839 0.96981 0.0
C862 C 0.46507 0.34017 0.99015 0.0
H863 H 0.4525 0.37242 0.01052 0.0
C864 C 0.48231 0.35546 0.98479 0.0
C865 C 0.45431 0.34634 0.9997 0.0
C866 C 0.4362 0.33069 0.00634 0.0
C867 C 0.48879 0.37673 0.98838 0.0
C868 C 0.47789 0.38286 0.99777 0.0
C869 C 0.46077 0.36762 0.00327 0.0
C870 C 0.48397 0.40506 0.0019 0.0
C871 C 0.50688 0.39241 0.98173 0.0
C872 C 0.5027 0.41961 0.01093 0.0
C873 C 0.50854 0.44061 0.01462 0.0
C874 C 0.49568 0.44735 0.00941 0.0
C875 C 0.47682 0.43273 0.00053 0.0
C876 C 0.47098 0.41171 0.99684 0.0
H877 H 0.51062 0.38478 0.97198 0.0
H878 H 0.5041 0.40421 0.97761 0.0
H879 H 0.5203 0.40074 0.99085 0.0
H880 H 0.51279 0.41471 0.01513 0.0
H881 H 0.52313 0.45156 0.02154 0.0
H882 H 0.19652 0.71538 0.04174 0.0
H883 H 0.16859 0.68 0.03063 0.0
H884 H 0.12621 0.69325 0.05107 0.0
H885 H 0.15387 0.72863 0.062 0.0
H886 H 0.14368 0.6502 0.04744 0.0
H887 H 0.09782 0.66651 0.00693 0.0
H888 H 0.12379 0.68582 0.015 0.0
H889 H 0.10356 0.68071 0.02622 0.0
C890 C 0.18121 0.71088 0.04366 0.0
C891 C 0.17743 0.72484 0.05276 0.0
C892 C 0.16528 0.69065 0.03733 0.0
C893 C 0.1453 0.68408 0.03988 0.0
C894 C 0.14144 0.69812 0.04869 0.0
H895 H 0.03028 0.56559 0.02282 0.0
H896 H 0.05799 0.60206 0.03129 0.0
C897 C 0.15732 0.71832 0.05501 0.0
C898 C 0.1287 0.66213 0.0343 0.0
H899 H 0.08205 0.63182 0.01239 0.0
C900 C 0.13028 0.64615 0.03967 0.0
C901 C 0.11119 0.65694 0.02425 0.0
C902 C 0.10901 0.67337 0.01764 0.0
C903 C 0.11464 0.62513 0.0355 0.0
C904 C 0.0971 0.61995 0.02551 0.0
C905 C 0.09551 0.63589 0.0201 0.0
C906 C 0.08036 0.59799 0.02037 0.0
C907 C 0.1168 0.60866 0.04208 0.0
C908 C 0.08377 0.58377 0.01132 0.0
C909 C 0.06804 0.56303 0.0065 0.0
C910 C 0.04861 0.5562 0.01057 0.0
C911 C 0.04514 0.57048 0.01954 0.0
C912 C 0.06091 0.59127 0.02435 0.0
H913 H 0.12866 0.61557 0.05238 0.0
H914 H 0.1022 0.59676 0.04537 0.0
H915 H 0.12123 0.60059 0.0332 0.0
H916 H 0.09859 0.58875 0.00792 0.0
H917 H 0.0711 0.55236 0.99955 0.0
H918 H 0.2808 0.42365 0.04281 0.0
H919 H 0.31228 0.42944 0.03365 0.0
H920 H 0.34667 0.48659 0.06682 0.0
H921 H 0.31534 0.48098 0.07606 0.0
H922 H 0.34224 0.46603 0.02184 0.0
H923 H 0.37395 0.4522 0.07439 0.0
H924 H 0.34737 0.44342 0.07011 0.0
H925 H 0.36559 0.47044 0.07771 0.0
C926 C 0.29506 0.43745 0.04818 0.0
C927 C 0.29557 0.45182 0.06021 0.0
C928 C 0.31301 0.44072 0.04292 0.0
C929 C 0.33178 0.45829 0.0497 0.0
C930 C 0.33234 0.47277 0.0616 0.0
H931 H 0.45751 0.50775 0.03802 0.0
H932 H 0.42523 0.50014 0.04638 0.0
C933 C 0.31441 0.46958 0.06681 0.0
C934 C 0.3508 0.4617 0.04418 0.0
H935 H 0.3956 0.46511 0.05543 0.0
C936 C 0.35388 0.46572 0.02912 0.0
C937 C 0.36593 0.46133 0.05375 0.0
C938 C 0.36308 0.45645 0.06986 0.0
C939 C 0.37198 0.46992 0.02349 0.0
C940 C 0.38717 0.46958 0.03307 0.0
C941 C 0.38396 0.46537 0.0481 0.0
C942 C 0.40667 0.47396 0.02788 0.0
C943 C 0.37492 0.47535 0.00752 0.0
C944 C 0.407 0.46157 0.0148 0.0
C945 C 0.42546 0.46596 0.00991 0.0
C946 C 0.44395 0.48268 0.01811 0.0
C947 C 0.44357 0.49479 0.03139 0.0
C948 C 0.42512 0.49045 0.03621 0.0
H949 H 0.36455 0.48048 0.00346 0.0
H950 H 0.39081 0.48795 0.00723 0.0
H951 H 0.37159 0.46131 0.99929 0.0
H952 H 0.39299 0.44843 0.00842 0.0
H953 H 0.4252 0.45621 0.99972 0.0
H954 H 0.55206 0.83571 0.03031 0.0
H955 H 0.54708 0.86238 0.02116 0.0
H956 H 0.52489 0.87091 0.06358 0.0
H957 H 0.52857 0.84326 0.07225 0.0
H958 H 0.50194 0.86999 0.04164 0.0
H959 H 0.58008 0.92376 0.03097 0.0
H960 H 0.57014 0.89829 0.01981 0.0
H961 H 0.57383 0.9019 0.04063 0.0
C962 C 0.54622 0.84339 0.03769 0.0
C963 C 0.5407 0.83746 0.05198 0.0
C964 C 0.54358 0.85881 0.03252 0.0
C965 C 0.53606 0.86912 0.04181 0.0
C966 C 0.53077 0.86329 0.05619 0.0
H967 H 0.53832 0.97984 0.01835 0.0
H968 H 0.54585 0.95613 0.02994 0.0
C969 C 0.53287 0.84749 0.06115 0.0
C970 C 0.53257 0.88506 0.03622 0.0
H971 H 0.55418 0.92852 0.01924 0.0
C972 C 0.5135 0.88292 0.03691 0.0
C973 C 0.54769 0.90225 0.03031 0.0
C974 C 0.56913 0.90682 0.03056 0.0
C975 C 0.50898 0.89712 0.03161 0.0
C976 C 0.52357 0.91336 0.02465 0.0
C977 C 0.54283 0.91586 0.0243 0.0
C978 C 0.51911 0.92782 0.01761 0.0
C979 C 0.48873 0.89473 0.03388 0.0
C980 C 0.50185 0.91989 0.00657 0.0
C981 C 0.49721 0.93341 0.00038 0.0
C982 C 0.51003 0.95515 0.00475 0.0
C983 C 0.52786 0.96315 0.01515 0.0
C984 C 0.53227 0.9496 0.02165 0.0
H985 H 0.48279 0.88685 0.04388 0.0
H986 H 0.48982 0.9101 0.03582 0.0
H987 H 0.47754 0.88485 0.02346 0.0
H988 H 0.49189 0.9032 0.00276 0.0
H989 H 0.48353 0.9268 0.99216 0.0
H990 H 0.98473 0.25941 0.40644 0.0
H991 H 0.01687 0.26949 0.39672 0.0
H992 H 0.99033 0.20748 0.37023 0.0
H993 H 0.95815 0.1971 0.3801 0.0
H994 H 0.02982 0.22354 0.38496 0.0
H995 H 0.0253 0.2801 0.35254 0.0
H996 H 0.02363 0.28468 0.37272 0.0
H997 H 0.00397 0.26098 0.36054 0.0
C998 C 0.98573 0.24786 0.39861 0.0
C999 C 0.96883 0.22751 0.39393 0.0
C1000 C 0.00409 0.25368 0.39302 0.0
C1001 C 0.00584 0.23935 0.38253 0.0
C1002 C 0.98924 0.21881 0.37825 0.0
H1003 H 0.10154 0.27924 0.32466 0.0
H1004 H 0.06876 0.26188 0.3341 0.0
C1005 C 0.97087 0.21293 0.38389 0.0
C1006 C 0.02482 0.24599 0.37571 0.0
H1007 H 0.05652 0.28102 0.35446 0.0
C1008 C 0.03564 0.23603 0.37821 0.0
C1009 C 0.03216 0.26202 0.36669 0.0
C1010 C 0.02058 0.27244 0.36281 0.0
C1011 C 0.05395 0.24207 0.37226 0.0
C1012 C 0.06173 0.25873 0.3638 0.0
C1013 C 0.05062 0.26833 0.36102 0.0
C1014 C 0.08148 0.26683 0.35789 0.0
C1015 C 0.06463 0.23041 0.37491 0.0
C1016 C 0.09954 0.27509 0.36807 0.0
C1017 C 0.11833 0.2849 0.36269 0.0
C1018 C 0.1194 0.2869 0.34704 0.0
C1019 C 0.10126 0.27804 0.33679 0.0
C1020 C 0.0825 0.26811 0.34216 0.0
H1021 H 0.05398 0.21454 0.37732 0.0
H1022 H 0.07194 0.22889 0.36478 0.0
H1023 H 0.0766 0.23914 0.38509 0.0
H1024 H 0.09918 0.27472 0.38031 0.0
H1025 H 0.13201 0.29168 0.37092 0.0
H1026 H 0.85059 0.81091 0.39151 0.0
H1027 H 0.82486 0.81749 0.38059 0.0
H1028 H 0.78943 0.79238 0.41699 0.0
H1029 H 0.81478 0.78549 0.42783 0.0
H1030 H 0.76642 0.77725 0.38805 0.0
H1031 H 0.81511 0.86394 0.39831 0.0
H1032 H 0.8252 0.85046 0.38744 0.0
H1033 H 0.82213 0.84774 0.40725 0.0
C1034 C 0.83732 0.8068 0.39719 0.0
C1035 C 0.83478 0.79775 0.41058 0.0
C1036 C 0.8227 0.81068 0.39098 0.0
C1037 C 0.80539 0.80569 0.39811 0.0
C1038 C 0.80272 0.79642 0.41134 0.0
H1039 H 0.72042 0.84743 0.38664 0.0
H1040 H 0.74636 0.84036 0.39609 0.0
C1041 C 0.81726 0.79252 0.41753 0.0
C1042 C 0.78983 0.80985 0.3918 0.0
H1043 H 0.78218 0.84899 0.38449 0.0
C1044 C 0.76986 0.79293 0.38724 0.0
C1045 C 0.79432 0.83035 0.39096 0.0
C1046 C 0.8153 0.84922 0.39637 0.0
C1047 C 0.75425 0.79593 0.3818 0.0
C1048 C 0.75882 0.81638 0.38066 0.0
C1049 C 0.77877 0.83332 0.38529 0.0
C1050 C 0.74305 0.82054 0.37488 0.0
C1051 C 0.73291 0.77723 0.37766 0.0
C1052 C 0.73273 0.81189 0.35977 0.0
C1053 C 0.71785 0.81582 0.35435 0.0
C1054 C 0.71312 0.82863 0.36389 0.0
C1055 C 0.72364 0.83745 0.37899 0.0
C1056 C 0.7385 0.83347 0.38441 0.0
H1057 H 0.73106 0.76377 0.38289 0.0
H1058 H 0.72167 0.78115 0.38152 0.0
H1059 H 0.72944 0.77225 0.36493 0.0
H1060 H 0.73629 0.80221 0.35212 0.0
H1061 H 0.71018 0.80891 0.34262 0.0
H1062 H 0.21639 0.05864 0.39016 0.0
H1063 H 0.20204 0.02181 0.37939 0.0
H1064 H 0.25132 0.03854 0.35256 0.0
H1065 H 0.26564 0.07559 0.36307 0.0
H1066 H 0.21389 0.00768 0.33613 0.0
H1067 H 0.22626 0.98828 0.39304 0.0
H1068 H 0.21142 0.0004 0.39296 0.0
H1069 H 0.2375 0.01485 0.38974 0.0
C1070 C 0.22414 0.05453 0.3819 0.0
C1071 C 0.24228 0.07002 0.37759 0.0
C1072 C 0.21596 0.03346 0.37582 0.0
C1073 C 0.22587 0.02744 0.36546 0.0
C1074 C 0.24353 0.04288 0.36064 0.0
H1075 H 0.20623 0.90265 0.34524 0.0
H1076 H 0.22027 0.94013 0.35339 0.0
C1077 C 0.25168 0.06402 0.36665 0.0
C1078 C 0.21804 0.005 0.35996 0.0
H1079 H 0.20654 0.95964 0.37253 0.0
C1080 C 0.21233 0.99716 0.34406 0.0
C1081 C 0.21635 0.99141 0.37033 0.0
C1082 C 0.22339 0.99917 0.38746 0.0
C1083 C 0.20459 0.97596 0.33826 0.0
C1084 C 0.20216 0.96222 0.3487 0.0
C1085 C 0.20821 0.97016 0.36457 0.0
C1086 C 0.19366 0.93959 0.34343 0.0
C1087 C 0.19944 0.96856 0.32101 0.0
C1088 C 0.17394 0.92681 0.3353 0.0
C1089 C 0.16594 0.90541 0.33057 0.0
C1090 C 0.17745 0.89645 0.33404 0.0
C1091 C 0.19705 0.90919 0.34237 0.0
C1092 C 0.20508 0.93058 0.34703 0.0
H1093 H 0.20732 0.98172 0.31461 0.0
H1094 H 0.20359 0.95675 0.3174 0.0
H1095 H 0.18285 0.96121 0.31763 0.0
H1096 H 0.16468 0.93334 0.33274 0.0
H1097 H 0.15072 0.89588 0.32427 0.0
H1098 H 0.48719 0.62161 0.30918 0.0
H1099 H 0.51178 0.65718 0.32267 0.0
H1100 H 0.55921 0.65558 0.30034 0.0
H1101 H 0.5349 0.62001 0.28701 0.0
H1102 H 0.57109 0.67343 0.33185 0.0
H1103 H 0.53397 0.70783 0.30049 0.0
H1104 H 0.51767 0.68752 0.31062 0.0
H1105 H 0.52807 0.6814 0.29453 0.0
C1106 C 0.50289 0.62876 0.30725 0.0
C1107 C 0.50905 0.61805 0.2969 0.0
C1108 C 0.51688 0.64912 0.31489 0.0
C1109 C 0.53721 0.65912 0.31225 0.0
C1110 C 0.54356 0.64817 0.30245 0.0
H1111 H 0.64567 0.78224 0.33619 0.0
H1112 H 0.6206 0.74515 0.32679 0.0
C1113 C 0.52962 0.62783 0.29483 0.0
C1114 C 0.55181 0.68123 0.3193 0.0
H1115 H 0.56198 0.73093 0.31956 0.0
C1116 C 0.56911 0.68602 0.3292 0.0
C1117 C 0.54918 0.69759 0.31576 0.0
C1118 C 0.53133 0.69344 0.30467 0.0
C1119 C 0.58381 0.70678 0.33576 0.0
C1120 C 0.58126 0.72314 0.3321 0.0
C1121 C 0.56386 0.71833 0.32234 0.0
C1122 C 0.5966 0.74541 0.33807 0.0
C1123 C 0.60182 0.71102 0.34667 0.0
C1124 C 0.59126 0.75793 0.34723 0.0
C1125 C 0.60549 0.77911 0.35251 0.0
C1126 C 0.62525 0.78813 0.34865 0.0
C1127 C 0.63056 0.77563 0.33941 0.0
C1128 C 0.61631 0.75444 0.33412 0.0
H1129 H 0.59889 0.69686 0.35139 0.0
H1130 H 0.61511 0.71592 0.34036 0.0
H1131 H 0.60584 0.7238 0.35645 0.0
H1132 H 0.57607 0.75128 0.3503 0.0
H1133 H 0.60099 0.78843 0.35957 0.0
H1134 H 0.37998 0.88619 0.29447 0.0
H1135 H 0.34858 0.8774 0.3052 0.0
H1136 H 0.32961 0.89849 0.26774 0.0
H1137 H 0.36091 0.90752 0.25707 0.0
H1138 H 0.32497 0.91367 0.29665 0.0
H1139 H 0.29129 0.8276 0.28786 0.0
H1140 H 0.31645 0.84288 0.29852 0.0
H1141 H 0.31243 0.84456 0.27857 0.0
C1142 C 0.3691 0.88892 0.28851 0.0
C1143 C 0.37293 0.89749 0.27488 0.0
C1144 C 0.35113 0.88379 0.29461 0.0
C1145 C 0.33667 0.88705 0.28714 0.0
C1146 C 0.34055 0.89578 0.27365 0.0
H1147 H 0.21059 0.83843 0.29777 0.0
H1148 H 0.24287 0.84714 0.28877 0.0
C1149 C 0.35846 0.90091 0.26756 0.0
C1150 C 0.31756 0.88171 0.29343 0.0
H1151 H 0.27344 0.84088 0.30115 0.0
C1152 C 0.31371 0.89777 0.29768 0.0
C1153 C 0.30282 0.86091 0.29455 0.0
C1154 C 0.30579 0.84292 0.28952 0.0
C1155 C 0.29552 0.89361 0.30308 0.0
C1156 C 0.28093 0.87287 0.30447 0.0
C1157 C 0.28474 0.85679 0.30016 0.0
C1158 C 0.26144 0.8675 0.31007 0.0
C1159 C 0.29186 0.91137 0.30689 0.0
C1160 C 0.26118 0.87589 0.32509 0.0
C1161 C 0.24278 0.87101 0.33026 0.0
C1162 C 0.22425 0.85753 0.32054 0.0
C1163 C 0.22456 0.84892 0.30556 0.0
C1164 C 0.24299 0.85383 0.30039 0.0
H1165 H 0.30214 0.9251 0.30168 0.0
H1166 H 0.2759 0.90635 0.30279 0.0
H1167 H 0.29469 0.91641 0.31961 0.0
H1168 H 0.27524 0.88617 0.33284 0.0
H1169 H 0.2431 0.87781 0.3419 0.0
H1170 H 0.10894 0.46737 0.28776 0.0
H1171 H 0.12458 0.44786 0.2951 0.0
H1172 H 0.08891 0.43067 0.33256 0.0
H1173 H 0.07216 0.4488 0.32444 0.0
H1174 H 0.1475 0.45198 0.31852 0.0
H1175 H 0.07738 0.37498 0.315 0.0
H1176 H 0.07713 0.39652 0.30837 0.0
H1177 H 0.07702 0.3944 0.32856 0.0
C1178 C 0.10432 0.4592 0.29745 0.0
C1179 C 0.0892 0.45931 0.30542 0.0
C1180 C 0.11329 0.44811 0.30168 0.0
C1181 C 0.10764 0.43733 0.3142 0.0
C1182 C 0.09299 0.4381 0.3225 0.0
H1183 H 0.18502 0.3973 0.3565 0.0
H1184 H 0.16914 0.41704 0.35029 0.0
C1185 C 0.08354 0.44861 0.31794 0.0
C1186 C 0.11744 0.42575 0.31872 0.0
H1187 H 0.10755 0.37906 0.32782 0.0
C1188 C 0.13873 0.43595 0.3204 0.0
C1189 C 0.10607 0.40472 0.32098 0.0
C1190 C 0.08315 0.39197 0.31796 0.0
C1191 C 0.14893 0.42575 0.3242 0.0
C1192 C 0.1376 0.40509 0.32725 0.0
C1193 C 0.11633 0.39495 0.32565 0.0
C1194 C 0.14726 0.39324 0.33142 0.0
C1195 C 0.17163 0.43706 0.32429 0.0
C1196 C 0.13967 0.37285 0.32348 0.0
C1197 C 0.14814 0.36127 0.32749 0.0
C1198 C 0.1648 0.37002 0.3392 0.0
C1199 C 0.17241 0.39034 0.34723 0.0
C1200 C 0.16348 0.40171 0.34355 0.0
H1201 H 0.17674 0.44929 0.31689 0.0
H1202 H 0.17935 0.44497 0.33623 0.0
H1203 H 0.17661 0.42611 0.32015 0.0
H1204 H 0.12711 0.36582 0.31416 0.0
H1205 H 0.14163 0.34545 0.32137 0.0
H1206 H 0.39704 0.46251 0.2945 0.0
H1207 H 0.36295 0.43881 0.30024 0.0
H1208 H 0.34577 0.48354 0.2926 0.0
H1209 H 0.37993 0.50749 0.28699 0.0
H1210 H 0.33415 0.46696 0.31948 0.0
H1211 H 0.31085 0.40419 0.26902 0.0
H1212 H 0.3344 0.41168 0.28034 0.0
H1213 H 0.33263 0.43021 0.27028 0.0
C1214 C 0.38602 0.46732 0.29401 0.0
C1215 C 0.39117 0.48686 0.29023 0.0
C1216 C 0.3665 0.45369 0.2972 0.0
C1217 C 0.35176 0.45929 0.29658 0.0
C1218 C 0.35691 0.47888 0.29303 0.0
H1219 H 0.22271 0.37326 0.29869 0.0
H1220 H 0.25522 0.39881 0.29146 0.0
C1221 C 0.37643 0.49253 0.28983 0.0
C1222 C 0.3311 0.44488 0.30004 0.0
H1223 H 0.28954 0.39576 0.28875 0.0
C1224 C 0.32433 0.45144 0.31271 0.0
C1225 C 0.31823 0.42477 0.29104 0.0
C1226 C 0.32427 0.41732 0.27682 0.0
C1227 C 0.30522 0.43817 0.31692 0.0
C1228 C 0.29274 0.41772 0.30834 0.0
C1229 C 0.29925 0.41139 0.29539 0.0
C1230 C 0.27304 0.4025 0.31282 0.0
C1231 C 0.29853 0.44619 0.33045 0.0
C1232 C 0.27235 0.39595 0.32713 0.0
C1233 C 0.25384 0.38137 0.33131 0.0
C1234 C 0.23565 0.37297 0.3212 0.0
C1235 C 0.23641 0.37946 0.30679 0.0
C1236 C 0.25497 0.39404 0.30262 0.0
H1237 H 0.30709 0.46356 0.33301 0.0
H1238 H 0.28205 0.44038 0.32826 0.0
H1239 H 0.30136 0.44056 0.34086 0.0
H1240 H 0.28618 0.40197 0.33503 0.0
H1241 H 0.25384 0.37667 0.34246 0.0
H1242 H 0.48 0.84471 0.27525 0.0
H1243 H 0.50748 0.84066 0.28605 0.0
H1244 H 0.5433 0.90677 0.30403 0.0
H1245 H 0.51592 0.91102 0.29328 0.0
H1246 H 0.56399 0.88954 0.28708 0.0
H1247 H 0.52517 0.84499 0.33276 0.0
H1248 H 0.51089 0.83506 0.31369 0.0
H1249 H 0.51702 0.8602 0.32357 0.0
C1250 C 0.49368 0.85838 0.28156 0.0
C1251 C 0.49575 0.87818 0.28344 0.0
C1252 C 0.50932 0.85602 0.28777 0.0
C1253 C 0.5273 0.87338 0.29596 0.0
C1254 C 0.52948 0.89317 0.2978 0.0
H1255 H 0.62409 0.87383 0.35207 0.0
H1256 H 0.59749 0.8797 0.34214 0.0
C1257 C 0.51381 0.89555 0.29167 0.0
C1258 C 0.54404 0.87097 0.30229 0.0
H1259 H 0.55652 0.84803 0.32857 0.0
C1260 C 0.56241 0.88052 0.29617 0.0
C1261 C 0.54195 0.85936 0.31425 0.0
C1262 C 0.52277 0.84943 0.32158 0.0
C1263 C 0.57866 0.87843 0.30152 0.0
C1264 C 0.57638 0.86637 0.31321 0.0
C1265 C 0.55815 0.85715 0.31953 0.0
C1266 C 0.59276 0.86312 0.31905 0.0
C1267 C 0.59821 0.88927 0.29475 0.0
C1268 C 0.5988 0.85173 0.30935 0.0
C1269 C 0.61394 0.84828 0.31498 0.0
C1270 C 0.62334 0.85617 0.33043 0.0
C1271 C 0.61725 0.86761 0.3401 0.0
C1272 C 0.60202 0.87095 0.33447 0.0
H1273 H 0.59911 0.90159 0.28847 0.0
H1274 H 0.61153 0.89649 0.30393 0.0
H1275 H 0.59915 0.87761 0.28646 0.0
H1276 H 0.59162 0.8453 0.29747 0.0
H1277 H 0.61823 0.83937 0.30722 0.0
H1278 H 0.12337 0.62782 0.27294 0.0
H1279 H 0.13732 0.6649 0.28305 0.0
H1280 H 0.08531 0.64874 0.30665 0.0
H1281 H 0.07134 0.61171 0.29676 0.0
H1282 H 0.12049 0.69032 0.28003 0.0
H1283 H 0.13417 0.68368 0.34113 0.0
H1284 H 0.12919 0.66359 0.32515 0.0
H1285 H 0.10863 0.66564 0.33179 0.0
C1286 C 0.11486 0.63216 0.28024 0.0
C1287 C 0.09632 0.6168 0.28415 0.0
C1288 C 0.12285 0.65334 0.28599 0.0
C1289 C 0.1125 0.65948 0.2958 0.0
C1290 C 0.09372 0.64426 0.29934 0.0
H1291 H 0.12813 0.78108 0.3234 0.0
H1292 H 0.11652 0.74502 0.3118 0.0
C1293 C 0.08572 0.62311 0.29361 0.0
C1294 C 0.12134 0.6818 0.30242 0.0
H1295 H 0.1377 0.71575 0.33663 0.0
C1296 C 0.12436 0.69594 0.29239 0.0
C1297 C 0.12664 0.68908 0.31854 0.0
C1298 C 0.12469 0.67477 0.3298 0.0
C1299 C 0.13205 0.71715 0.29811 0.0
C1300 C 0.13655 0.72425 0.31426 0.0
C1301 C 0.13405 0.7102 0.32426 0.0
C1302 C 0.14371 0.74615 0.32108 0.0
C1303 C 0.13544 0.73181 0.28682 0.0
C1304 C 0.16263 0.75853 0.33044 0.0
C1305 C 0.16923 0.77908 0.33715 0.0
C1306 C 0.15696 0.78749 0.33466 0.0
C1307 C 0.13794 0.775 0.32542 0.0
C1308 C 0.13135 0.75447 0.31871 0.0
H1309 H 0.13649 0.7253 0.27515 0.0
H1310 H 0.12248 0.73428 0.28576 0.0
H1311 H 0.14954 0.74725 0.29087 0.0
H1312 H 0.17231 0.75232 0.33248 0.0
H1313 H 0.18395 0.78839 0.34424 0.0
H1314 H 0.83551 0.06279 0.40918 0.0
H1315 H 0.81442 0.02528 0.39899 0.0
H1316 H 0.77377 0.03601 0.37131 0.0
H1317 H 0.79485 0.0735 0.38123 0.0
H1318 H 0.77371 0.99735 0.40047 0.0
H1319 H 0.78769 0.00258 0.3397 0.0
H1320 H 0.80298 0.024 0.35547 0.0
H1321 H 0.77866 0.01901 0.3474 0.0
C1322 C 0.82209 0.05718 0.40091 0.0
C1323 C 0.81693 0.07116 0.39594 0.0
C1324 C 0.81007 0.03574 0.39511 0.0
C1325 C 0.79275 0.02793 0.3842 0.0
C1326 C 0.78734 0.04178 0.37946 0.0
H1327 H 0.68945 0.90268 0.35813 0.0
H1328 H 0.71374 0.9394 0.36907 0.0
C1329 C 0.79935 0.0632 0.38522 0.0
C1330 C 0.78011 0.00526 0.37794 0.0
H1331 H 0.76074 0.96991 0.34429 0.0
C1332 C 0.77097 0.99131 0.3882 0.0
C1333 C 0.77686 0.9974 0.36196 0.0
C1334 C 0.78722 0.01149 0.3505 0.0
C1335 C 0.75811 0.96976 0.38285 0.0
C1336 C 0.75404 0.96205 0.36679 0.0
C1337 C 0.76371 0.9759 0.35658 0.0
C1338 C 0.73945 0.93973 0.3603 0.0
C1339 C 0.74907 0.95543 0.39444 0.0
C1340 C 0.74573 0.9279 0.35138 0.0
C1341 C 0.73183 0.90694 0.345 0.0
C1342 C 0.71143 0.89757 0.34739 0.0
C1343 C 0.70513 0.90949 0.35619 0.0
C1344 C 0.71901 0.93042 0.36254 0.0
H1345 H 0.7581 0.96267 0.40612 0.0
H1346 H 0.73349 0.95219 0.39529 0.0
H1347 H 0.7481 0.9403 0.39085 0.0
H1348 H 0.76142 0.93486 0.34943 0.0
H1349 H 0.73704 0.89807 0.33825 0.0
H1350 H 0.9462 0.7579 0.37794 0.0
H1351 H 0.97825 0.76599 0.36864 0.0
H1352 H 0.00997 0.82389 0.40118 0.0
H1353 H 0.97802 0.81607 0.4105 0.0
H1354 H 0.00662 0.80618 0.35703 0.0
H1355 H 0.04064 0.79105 0.40773 0.0
H1356 H 0.01356 0.77958 0.40302 0.0
H1357 H 0.02938 0.80666 0.41156 0.0
C1358 C 0.96 0.77233 0.38315 0.0
C1359 C 0.95957 0.78634 0.39497 0.0
C1360 C 0.97827 0.77692 0.37781 0.0
C1361 C 0.99643 0.79543 0.38432 0.0
C1362 C 0.9961 0.80943 0.39612 0.0
H1363 H 0.12268 0.84855 0.37144 0.0
H1364 H 0.09058 0.84017 0.38058 0.0
C1365 C 0.97783 0.80495 0.40139 0.0
C1366 C 0.0157 0.80036 0.37854 0.0
H1367 H 0.06122 0.80464 0.3884 0.0
C1368 C 0.01857 0.80579 0.36383 0.0
C1369 C 0.03123 0.79996 0.38753 0.0
C1370 C 0.02864 0.79389 0.40332 0.0
C1371 C 0.03678 0.81119 0.35792 0.0
C1372 C 0.05228 0.81055 0.36683 0.0
C1373 C 0.04934 0.80509 0.38157 0.0
C1374 C 0.07171 0.81561 0.36113 0.0
C1375 C 0.03942 0.81811 0.3424 0.0
C1376 C 0.07183 0.8044 0.34726 0.0
C1377 C 0.09016 0.8093 0.34191 0.0
C1378 C 0.10877 0.82528 0.35047 0.0
C1379 C 0.10863 0.8362 0.36452 0.0
C1380 C 0.09028 0.83141 0.36979 0.0
H1381 H 0.02905 0.82367 0.33932 0.0
H1382 H 0.05527 0.83085 0.34222 0.0
H1383 H 0.03579 0.80467 0.33338 0.0
H1384 H 0.05773 0.79176 0.34059 0.0
H1385 H 0.08971 0.80042 0.33113 0.0
H1386 H 0.26327 0.19517 0.367 0.0
H1387 H 0.25537 0.21987 0.35758 0.0
H1388 H 0.19455 0.18442 0.36869 0.0
H1389 H 0.20227 0.15965 0.37815 0.0
H1390 H 0.223 0.21061 0.33362 0.0
H1391 H 0.21719 0.24569 0.39079 0.0
H1392 H 0.22972 0.23101 0.38874 0.0
H1393 H 0.20249 0.21759 0.38646 0.0
C1394 C 0.24822 0.19263 0.36745 0.0
C1395 C 0.23341 0.17549 0.37337 0.0
C1396 C 0.24374 0.20674 0.36206 0.0
C1397 C 0.22448 0.20407 0.36264 0.0
C1398 C 0.20961 0.18689 0.36838 0.0
H1399 H 0.16305 0.25564 0.31691 0.0
H1400 H 0.17481 0.23356 0.3259 0.0
C1401 C 0.21402 0.17271 0.3737 0.0
C1402 C 0.21979 0.21907 0.35704 0.0
H1403 H 0.20633 0.25463 0.36868 0.0
C1404 C 0.21946 0.22033 0.34127 0.0
C1405 C 0.21542 0.23186 0.36712 0.0
C1406 C 0.21636 0.23168 0.38425 0.0
C1407 C 0.21429 0.23368 0.33522 0.0
C1408 C 0.20921 0.24592 0.34521 0.0
C1409 C 0.2101 0.2451 0.36105 0.0
C1410 C 0.20251 0.25936 0.3394 0.0
C1411 C 0.21433 0.23465 0.31821 0.0
C1412 C 0.2141 0.28112 0.34417 0.0
C1413 C 0.20744 0.29376 0.33903 0.0
C1414 C 0.18895 0.28476 0.32921 0.0
C1415 C 0.17739 0.26297 0.32444 0.0
C1416 C 0.18411 0.25036 0.32951 0.0
H1417 H 0.22311 0.22822 0.3129 0.0
H1418 H 0.19848 0.22529 0.31221 0.0
H1419 H 0.22085 0.25101 0.31626 0.0
H1420 H 0.2283 0.28831 0.35186 0.0
H1421 H 0.21669 0.31053 0.34281 0.0
H1422 H 0.64107 0.5783 0.72631 0.0
H1423 H 0.67505 0.59214 0.71907 0.0
H1424 H 0.67085 0.53344 0.72205 0.0
H1425 H 0.63655 0.51924 0.72886 0.0
H1426 H 0.70999 0.59789 0.73344 0.0
H1427 H 0.68409 0.54093 0.67871 0.0
H1428 H 0.66665 0.54384 0.68991 0.0
H1429 H 0.67762 0.52918 0.69567 0.0
C1430 C 0.64738 0.56834 0.72548 0.0
C1431 C 0.63604 0.54761 0.728 0.0
C1432 C 0.66683 0.57629 0.72135 0.0
C1433 C 0.67534 0.5637 0.71974 0.0
C1434 C 0.66437 0.54325 0.72285 0.0
H1435 H 0.80372 0.62003 0.70638 0.0
H1436 H 0.7719 0.60138 0.71709 0.0
C1437 C 0.64483 0.53521 0.72683 0.0
C1438 C 0.6955 0.57198 0.71447 0.0
H1439 H 0.71938 0.56451 0.68523 0.0
C1440 C 0.7121 0.59056 0.72294 0.0
C1441 C 0.69813 0.56247 0.70068 0.0
C1442 C 0.68066 0.54312 0.69062 0.0
C1443 C 0.73118 0.60012 0.71785 0.0
C1444 C 0.73385 0.59052 0.70412 0.0
C1445 C 0.71734 0.57172 0.69582 0.0
C1446 C 0.7531 0.60056 0.69744 0.0
C1447 C 0.74804 0.62084 0.72688 0.0
C1448 C 0.75299 0.60551 0.68259 0.0
C1449 C 0.77104 0.61583 0.67634 0.0
C1450 C 0.78964 0.62151 0.68484 0.0
C1451 C 0.78968 0.61602 0.69956 0.0
C1452 C 0.77152 0.6055 0.70576 0.0
H1453 H 0.74217 0.62839 0.73489 0.0
H1454 H 0.75876 0.61831 0.73388 0.0
H1455 H 0.75661 0.63176 0.71901 0.0
H1456 H 0.73894 0.60179 0.67594 0.0
H1457 H 0.77042 0.6198 0.66498 0.0
H1458 H 0.45777 0.07247 0.72395 0.0
H1459 H 0.43408 0.0828 0.71532 0.0
H1460 H 0.48336 0.14695 0.72114 0.0
H1461 H 0.50729 0.13671 0.72959 0.0
H1462 H 0.4261 0.11043 0.73226 0.0
H1463 H 0.45424 0.13732 0.6779 0.0
H1464 H 0.46139 0.1218 0.68768 0.0
H1465 H 0.47329 0.14936 0.69466 0.0
C1466 C 0.46365 0.08875 0.72323 0.0
C1467 C 0.48444 0.10377 0.72745 0.0
C1468 C 0.45007 0.09463 0.71833 0.0
C1469 C 0.45697 0.1156 0.71748 0.0
C1470 C 0.47776 0.13061 0.72146 0.0
H1471 H 0.37837 0.16738 0.71371 0.0
H1472 H 0.40417 0.15935 0.72165 0.0
C1473 C 0.4914 0.12474 0.72634 0.0
C1474 C 0.44221 0.12177 0.71312 0.0
H1475 H 0.42893 0.14352 0.68632 0.0
C1476 C 0.42671 0.11767 0.72222 0.0
C1477 C 0.44296 0.13105 0.69995 0.0
C1478 C 0.45874 0.135 0.68938 0.0
C1479 C 0.41191 0.1226 0.71851 0.0
C1480 C 0.41287 0.13223 0.70549 0.0
C1481 C 0.42835 0.13631 0.69637 0.0
C1482 C 0.39745 0.13739 0.70075 0.0
C1483 C 0.39509 0.11697 0.72831 0.0
C1484 C 0.38541 0.12804 0.68626 0.0
C1485 C 0.37077 0.13267 0.68165 0.0
C1486 C 0.3679 0.14684 0.69144 0.0
C1487 C 0.38009 0.15631 0.70593 0.0
C1488 C 0.39479 0.15167 0.71052 0.0
H1489 H 0.39377 0.10527 0.73547 0.0
H1490 H 0.39834 0.13122 0.73622 0.0
H1491 H 0.38027 0.11059 0.72102 0.0
H1492 H 0.38725 0.117 0.67854 0.0
H1493 H 0.36171 0.12513 0.67039 0.0
H1494 H 0.92926 0.39748 0.69612 0.0
H1495 H 0.91356 0.36043 0.68516 0.0
H1496 H 0.86034 0.34639 0.70662 0.0
H1497 H 0.87599 0.38333 0.71778 0.0
H1498 H 0.87586 0.32168 0.71274 0.0
H1499 H 0.86716 0.32274 0.64991 0.0
H1500 H 0.89235 0.34088 0.65983 0.0
H1501 H 0.87176 0.3443 0.66439 0.0
C1502 C 0.91409 0.38657 0.69832 0.0
C1503 C 0.9039 0.39336 0.70787 0.0
C1504 C 0.9051 0.3654 0.69198 0.0
C1505 C 0.88572 0.3507 0.69497 0.0
C1506 C 0.8753 0.35751 0.70414 0.0
H1507 H 0.81243 0.219 0.65364 0.0
H1508 H 0.82562 0.25628 0.66228 0.0
C1509 C 0.88427 0.37864 0.71049 0.0
C1510 C 0.87691 0.32805 0.68951 0.0
H1511 H 0.86209 0.29116 0.65714 0.0
C1512 C 0.87275 0.31498 0.70058 0.0
C1513 C 0.87271 0.31934 0.67364 0.0
C1514 C 0.87604 0.33248 0.66123 0.0
C1515 C 0.86481 0.29347 0.69623 0.0
C1516 C 0.86124 0.28488 0.68039 0.0
C1517 C 0.86504 0.29785 0.66929 0.0
C1518 C 0.85342 0.2624 0.67513 0.0
C1519 C 0.86008 0.28007 0.70862 0.0
C1520 C 0.86479 0.25358 0.67938 0.0
C1521 C 0.85729 0.23232 0.67449 0.0
C1522 C 0.83834 0.21959 0.66519 0.0
C1523 C 0.82707 0.22848 0.66082 0.0
C1524 C 0.83459 0.24974 0.66572 0.0
H1525 H 0.85881 0.28793 0.71962 0.0
H1526 H 0.8457 0.2648 0.70487 0.0
H1527 H 0.8725 0.27698 0.71091 0.0
H1528 H 0.87952 0.26317 0.68643 0.0
H1529 H 0.86633 0.22587 0.67795 0.0
H1530 H 0.20023 0.93673 0.62088 0.0
H1531 H 0.22248 0.97352 0.63248 0.0
H1532 H 0.17374 0.97205 0.65478 0.0
H1533 H 0.15131 0.93507 0.64331 0.0
H1534 H 0.21481 0.00534 0.62743 0.0
H1535 H 0.22245 0.00063 0.6898 0.0
H1536 H 0.2137 0.9783 0.6747 0.0
H1537 H 0.19689 0.98713 0.67989 0.0
C1538 C 0.19427 0.94411 0.62841 0.0
C1539 C 0.17397 0.93297 0.63116 0.0
C1540 C 0.20702 0.96515 0.63501 0.0
C1541 C 0.19979 0.97544 0.64455 0.0
C1542 C 0.17969 0.96429 0.64763 0.0
H1543 H 0.25654 0.10585 0.68868 0.0
H1544 H 0.23263 0.06844 0.67919 0.0
C1545 C 0.16688 0.94319 0.64102 0.0
C1546 C 0.213 0.99815 0.65043 0.0
H1547 H 0.23707 0.03448 0.68337 0.0
C1548 C 0.21971 0.01173 0.63966 0.0
C1549 C 0.21921 0.00639 0.66639 0.0
C1550 C 0.21286 0.9924 0.6784 0.0
C1551 C 0.23248 0.0334 0.64441 0.0
C1552 C 0.23899 0.04163 0.66035 0.0
C1553 C 0.23205 0.02809 0.67115 0.0
C1554 C 0.25338 0.06422 0.66601 0.0
C1555 C 0.23867 0.04731 0.63233 0.0
C1556 C 0.27299 0.07412 0.66184 0.0
C1557 C 0.2866 0.09541 0.6672 0.0
C1558 C 0.28087 0.10711 0.67693 0.0
C1559 C 0.2613 0.09717 0.68118 0.0
C1560 C 0.24767 0.07585 0.6758 0.0
H1561 H 0.22813 0.03939 0.62129 0.0
H1562 H 0.23914 0.06208 0.63639 0.0
H1563 H 0.25407 0.05134 0.62994 0.0
H1564 H 0.27781 0.06533 0.65453 0.0
H1565 H 0.30163 0.10269 0.6638 0.0
H1566 H 0.02683 0.19145 0.60747 0.0
H1567 H 0.99439 0.18099 0.61692 0.0
H1568 H 0.00862 0.24477 0.6224 0.0
H1569 H 0.0409 0.25534 0.6128 0.0
H1570 H 0.9853 0.19423 0.64466 0.0
H1571 H 0.95354 0.21233 0.5947 0.0
H1572 H 0.97603 0.21068 0.59468 0.0
H1573 H 0.97757 0.23391 0.60437 0.0
C1574 C 0.02311 0.20328 0.61076 0.0
C1575 C 0.03637 0.2242 0.60924 0.0
C1576 C 0.00456 0.19726 0.61615 0.0
C1577 C 0.99894 0.21203 0.62005 0.0
C1578 C 0.01247 0.23305 0.6191 0.0
H1579 H 0.90436 0.20245 0.67235 0.0
H1580 H 0.93626 0.21023 0.66319 0.0
C1581 C 0.03097 0.23907 0.61369 0.0
C1582 C 0.97887 0.20549 0.62501 0.0
H1583 H 0.93495 0.20488 0.616 0.0
C1584 C 0.97423 0.19646 0.63837 0.0
C1585 C 0.96434 0.20809 0.61663 0.0
C1586 C 0.96799 0.21659 0.60171 0.0
C1587 C 0.95564 0.19047 0.6438 0.0
C1588 C 0.94149 0.19393 0.63579 0.0
C1589 C 0.94591 0.20244 0.62221 0.0
C1590 C 0.92207 0.18902 0.64137 0.0
C1591 C 0.95125 0.18029 0.65798 0.0
C1592 C 0.9035 0.17496 0.63195 0.0
C1593 C 0.88519 0.17059 0.63709 0.0
C1594 C 0.88514 0.18032 0.65173 0.0
C1595 C 0.90381 0.19458 0.66106 0.0
C1596 C 0.92209 0.19894 0.65589 0.0
H1597 H 0.96075 0.17342 0.66007 0.0
H1598 H 0.95472 0.19225 0.66822 0.0
H1599 H 0.93501 0.16779 0.65691 0.0
H1600 H 0.90317 0.16726 0.62065 0.0
H1601 H 0.8711 0.15959 0.62959 0.0
H1602 H 0.7248 0.74588 0.62362 0.0
H1603 H 0.74582 0.73279 0.63304 0.0
H1604 H 0.79501 0.79601 0.65003 0.0
H1605 H 0.77411 0.80933 0.64053 0.0
H1606 H 0.80648 0.7693 0.6334 0.0
H1607 H 0.76037 0.73344 0.67915 0.0
H1608 H 0.74585 0.72575 0.66033 0.0
H1609 H 0.75855 0.75259 0.66978 0.0
C1610 C 0.74009 0.75703 0.62933 0.0
C1611 C 0.74774 0.77865 0.63141 0.0
C1612 C 0.75204 0.74952 0.63478 0.0
C1613 C 0.77182 0.76344 0.64244 0.0
C1614 C 0.77971 0.78503 0.64422 0.0
H1615 H 0.86105 0.7346 0.68041 0.0
H1616 H 0.84516 0.75395 0.67277 0.0
C1617 C 0.76774 0.79259 0.63881 0.0
C1618 C 0.78417 0.7553 0.64855 0.0
H1619 H 0.7844 0.72374 0.67318 0.0
C1620 C 0.80184 0.75954 0.64222 0.0
C1621 C 0.77808 0.74269 0.66013 0.0
C1622 C 0.75978 0.73848 0.66787 0.0
C1623 C 0.81309 0.75064 0.64667 0.0
C1624 C 0.80659 0.73747 0.65787 0.0
C1625 C 0.78928 0.73379 0.66454 0.0
C1626 C 0.8167 0.72622 0.66218 0.0
C1627 C 0.83133 0.75468 0.63891 0.0
C1628 C 0.80587 0.70431 0.65892 0.0
C1629 C 0.81481 0.69332 0.66331 0.0
C1630 C 0.83476 0.70404 0.67111 0.0
C1631 C 0.84567 0.726 0.67437 0.0
C1632 C 0.83667 0.73703 0.66995 0.0
H1633 H 0.83216 0.76208 0.62859 0.0
H1634 H 0.84536 0.76531 0.6472 0.0
H1635 H 0.83098 0.73986 0.63536 0.0
H1636 H 0.79041 0.69569 0.65299 0.0
H1637 H 0.80599 0.67639 0.66074 0.0
H1638 H 0.02516 0.84239 0.6058 0.0
H1639 H 0.9946 0.81413 0.6135 0.0
H1640 H 0.03133 0.79741 0.63986 0.0
H1641 H 0.06201 0.82556 0.63218 0.0
H1642 H 0.98253 0.76866 0.60888 0.0
H1643 H 0.99433 0.80617 0.67003 0.0
H1644 H 0.00598 0.82108 0.65512 0.0
H1645 H 0.01568 0.80634 0.66276 0.0
C1646 C 0.02677 0.83276 0.61328 0.0
C1647 C 0.04601 0.83624 0.61841 0.0
C1648 C 0.0093 0.81661 0.61763 0.0
C1649 C 0.0108 0.80385 0.62731 0.0
C1650 C 0.02994 0.80726 0.63248 0.0
H1651 H 0.92268 0.70442 0.67072 0.0
H1652 H 0.95357 0.7312 0.66239 0.0
C1653 C 0.04742 0.8233 0.62805 0.0
C1654 C 0.99228 0.78675 0.63183 0.0
H1655 H 0.96643 0.77173 0.66245 0.0
C1656 C 0.97893 0.76928 0.62057 0.0
C1657 C 0.98782 0.78766 0.6471 0.0
C1658 C 0.00158 0.80634 0.6595 0.0
C1659 C 0.96124 0.75245 0.62426 0.0
C1660 C 0.95658 0.75346 0.63952 0.0
C1661 C 0.97002 0.77097 0.65077 0.0
C1662 C 0.93777 0.73663 0.64408 0.0
C1663 C 0.94801 0.73359 0.61185 0.0
C1664 C 0.91862 0.73085 0.63661 0.0
C1665 C 0.90094 0.71541 0.64125 0.0
C1666 C 0.90207 0.70569 0.65362 0.0
C1667 C 0.92127 0.71159 0.66115 0.0
C1668 C 0.93894 0.72691 0.65641 0.0
H1669 H 0.95663 0.73254 0.60249 0.0
H1670 H 0.94143 0.71889 0.61668 0.0
H1671 H 0.93536 0.73486 0.6066 0.0
H1672 H 0.91732 0.73853 0.62734 0.0
H1673 H 0.88641 0.71143 0.63532 0.0
H1674 H 0.1791 0.24427 0.63409 0.0
H1675 H 0.20391 0.23596 0.64416 0.0
H1676 H 0.17574 0.17936 0.61032 0.0
H1677 H 0.1508 0.18743 0.60021 0.0
H1678 H 0.19461 0.1962 0.65518 0.0
H1679 H 0.23811 0.21294 0.60533 0.0
H1680 H 0.22215 0.22342 0.60958 0.0
H1681 H 0.21092 0.1965 0.60086 0.0
C1682 C 0.17817 0.23004 0.62879 0.0
C1683 C 0.16301 0.21653 0.61632 0.0
C1684 C 0.19233 0.22533 0.63457 0.0
C1685 C 0.19173 0.20717 0.62787 0.0
C1686 C 0.17655 0.19356 0.61553 0.0
H1687 H 0.26734 0.15474 0.6413 0.0
H1688 H 0.24205 0.16281 0.63221 0.0
C1689 C 0.16229 0.19817 0.60981 0.0
C1690 C 0.20692 0.20237 0.63385 0.0
H1691 H 0.24729 0.19866 0.62448 0.0
C1692 C 0.20619 0.19679 0.64853 0.0
C1693 C 0.22189 0.20308 0.62507 0.0
C1694 C 0.22352 0.20944 0.60937 0.0
C1695 C 0.21987 0.19149 0.65458 0.0
C1696 C 0.235 0.19236 0.64585 0.0
C1697 C 0.23571 0.19801 0.63117 0.0
C1698 C 0.25017 0.18733 0.65165 0.0
C1699 C 0.21761 0.18446 0.67006 0.0
C1700 C 0.2633 0.19857 0.66554 0.0
C1701 C 0.27768 0.19389 0.67084 0.0
C1702 C 0.27942 0.17806 0.66224 0.0
C1703 C 0.26642 0.16702 0.64823 0.0
C1704 C 0.25195 0.17161 0.643 0.0
H1705 H 0.2021 0.17889 0.67306 0.0
H1706 H 0.2208 0.1717 0.67024 0.0
H1707 H 0.22854 0.19785 0.67914 0.0
H1708 H 0.26258 0.21114 0.67221 0.0
H1709 H 0.28758 0.20284 0.6816 0.0
H1710 H 0.72831 0.9415 0.60494 0.0
H1711 H 0.74281 0.97845 0.61567 0.0
H1712 H 0.79825 0.98277 0.63362 0.0
H1713 H 0.784 0.94593 0.62279 0.0
H1714 H 0.75619 0.99662 0.64685 0.0
H1715 H 0.81864 0.0333 0.61163 0.0
H1716 H 0.79789 0.00651 0.60626 0.0
H1717 H 0.81846 0.01331 0.62098 0.0
C1718 C 0.74367 0.95035 0.61103 0.0
C1719 C 0.75501 0.94077 0.61299 0.0
C1720 C 0.75191 0.97145 0.61716 0.0
C1721 C 0.77167 0.98339 0.62528 0.0
C1722 C 0.78311 0.97394 0.62713 0.0
H1723 H 0.84395 0.11096 0.67604 0.0
H1724 H 0.83104 0.07441 0.66463 0.0
C1725 C 0.77489 0.95285 0.621 0.0
C1726 C 0.77988 0.0054 0.63249 0.0
H1727 H 0.81826 0.05559 0.63285 0.0
C1728 C 0.76971 0.00953 0.64375 0.0
C1729 C 0.79759 0.02217 0.62848 0.0
C1730 C 0.80872 0.0187 0.61608 0.0
C1731 C 0.77687 0.03 0.65122 0.0
C1732 C 0.79449 0.04677 0.64714 0.0
C1733 C 0.80476 0.04266 0.63596 0.0
C1734 C 0.80224 0.06876 0.65411 0.0
C1735 C 0.76572 0.03346 0.6636 0.0
C1736 C 0.79039 0.07766 0.65183 0.0
C1737 C 0.79769 0.09843 0.65833 0.0
C1738 C 0.81703 0.11067 0.66715 0.0
C1739 C 0.82895 0.1018 0.66935 0.0
C1740 C 0.82163 0.081 0.66282 0.0
H1741 H 0.75589 0.01889 0.66812 0.0
H1742 H 0.77652 0.04574 0.67338 0.0
H1743 H 0.75588 0.03871 0.65867 0.0
H1744 H 0.77554 0.06858 0.6449 0.0
H1745 H 0.78822 0.10491 0.6564 0.0
H1746 H 0.45486 0.39433 0.71996 0.0
H1747 H 0.43143 0.35731 0.70943 0.0
H1748 H 0.47194 0.34197 0.73207 0.0
H1749 H 0.49538 0.37896 0.74285 0.0
H1750 H 0.4391 0.3311 0.69005 0.0
H1751 H 0.41713 0.30152 0.74484 0.0
H1752 H 0.42978 0.32898 0.74366 0.0
H1753 H 0.44402 0.31621 0.74438 0.0
C1754 C 0.45874 0.38309 0.72282 0.0
C1755 C 0.47697 0.3896 0.73228 0.0
C1756 C 0.44534 0.36194 0.71676 0.0
C1757 C 0.44985 0.34689 0.72011 0.0
C1758 C 0.46799 0.3533 0.72958 0.0
H1759 H 0.3923 0.21972 0.66851 0.0
H1760 H 0.41656 0.25629 0.68027 0.0
C1761 C 0.48141 0.37446 0.73567 0.0
C1762 C 0.43585 0.3246 0.7132 0.0
H1763 H 0.40578 0.27607 0.72209 0.0
C1764 C 0.43179 0.31905 0.69704 0.0
C1765 C 0.42622 0.30898 0.72237 0.0
C1766 C 0.42932 0.31417 0.73977 0.0
C1767 C 0.41842 0.29826 0.68978 0.0
C1768 C 0.40913 0.28257 0.69895 0.0
C1769 C 0.41309 0.28813 0.71511 0.0
C1770 C 0.39469 0.2604 0.69198 0.0
C1771 C 0.41399 0.29334 0.67237 0.0
C1772 C 0.37453 0.2505 0.69497 0.0
C1773 C 0.36073 0.22966 0.68835 0.0
C1774 C 0.3669 0.21834 0.67868 0.0
C1775 C 0.38714 0.22817 0.67583 0.0
C1776 C 0.40096 0.24904 0.68248 0.0
H1777 H 0.4184 0.30759 0.66726 0.0
H1778 H 0.42277 0.28645 0.66785 0.0
H1779 H 0.39761 0.28182 0.66842 0.0
H1780 H 0.36942 0.25897 0.70232 0.0
H1781 H 0.34522 0.22242 0.69077 0.0
H1782 H 0.64854 0.15221 0.74727 0.0
H1783 H 0.67862 0.15668 0.73638 0.0
H1784 H 0.6408 0.10116 0.70228 0.0
H1785 H 0.61059 0.09652 0.71308 0.0
H1786 H 0.69141 0.12605 0.73243 0.0
H1787 H 0.67612 0.14796 0.67722 0.0
H1788 H 0.66429 0.1497 0.69394 0.0
H1789 H 0.65559 0.12471 0.68232 0.0
C1790 C 0.64659 0.14097 0.73742 0.0
C1791 C 0.62715 0.12404 0.73101 0.0
C1792 C 0.66379 0.14354 0.73124 0.0
C1793 C 0.66188 0.12937 0.71845 0.0
C1794 C 0.64255 0.11241 0.71204 0.0
H1795 H 0.75098 0.1263 0.66381 0.0
H1796 H 0.71968 0.119 0.67403 0.0
C1797 C 0.62532 0.10975 0.71827 0.0
C1798 C 0.68019 0.13221 0.71198 0.0
H1799 H 0.7046 0.14428 0.68034 0.0
C1800 C 0.69433 0.13004 0.72104 0.0
C1801 C 0.68382 0.13727 0.6971 0.0
C1802 C 0.66927 0.14021 0.68706 0.0
C1803 C 0.71204 0.13268 0.71557 0.0
C1804 C 0.71592 0.13817 0.70079 0.0
C1805 C 0.70162 0.1401 0.69166 0.0
C1806 C 0.73492 0.14243 0.69471 0.0
C1807 C 0.72622 0.1292 0.72558 0.0
C1808 C 0.75386 0.15822 0.70283 0.0
C1809 C 0.77176 0.16235 0.69708 0.0
C1810 C 0.77107 0.15094 0.68297 0.0
C1811 C 0.75206 0.13535 0.67472 0.0
C1812 C 0.73415 0.13116 0.68054 0.0
H1813 H 0.71825 0.11905 0.73406 0.0
H1814 H 0.73314 0.12193 0.7185 0.0
H1815 H 0.73861 0.14447 0.73217 0.0
H1816 H 0.75483 0.16751 0.71357 0.0
H1817 H 0.78612 0.17459 0.70368 0.0
H1818 H 0.93563 0.53548 0.71094 0.0
H1819 H 0.92601 0.55952 0.70273 0.0
H1820 H 0.86274 0.51224 0.70018 0.0
H1821 H 0.87222 0.48831 0.70875 0.0
H1822 H 0.90394 0.55622 0.67637 0.0
H1823 H 0.86556 0.56161 0.7263 0.0
H1824 H 0.88115 0.55017 0.72628 0.0
H1825 H 0.85528 0.53517 0.71682 0.0
C1826 C 0.91967 0.53022 0.70868 0.0
C1827 C 0.90468 0.51003 0.71059 0.0
C1828 C 0.9142 0.54398 0.704 0.0
C1829 C 0.89367 0.53782 0.70114 0.0
C1830 C 0.87868 0.51753 0.70273 0.0
H1831 H 0.8267 0.58766 0.6612 0.0
H1832 H 0.83864 0.56617 0.67114 0.0
C1833 C 0.88413 0.50381 0.70752 0.0
C1834 C 0.88792 0.55241 0.69606 0.0
H1835 H 0.86035 0.57522 0.70446 0.0
C1836 C 0.89458 0.56053 0.68259 0.0
C1837 C 0.87578 0.55811 0.70425 0.0
C1838 C 0.8692 0.55099 0.7193 0.0
C1839 C 0.88893 0.57371 0.67686 0.0
C1840 C 0.87636 0.57889 0.68482 0.0
C1841 C 0.86992 0.57106 0.69838 0.0
C1842 C 0.86931 0.59203 0.67899 0.0
C1843 C 0.89599 0.58168 0.66215 0.0
C1844 C 0.88264 0.61366 0.68027 0.0
C1845 C 0.87584 0.62597 0.67468 0.0
C1846 C 0.85565 0.61677 0.6677 0.0
C1847 C 0.84235 0.59511 0.66648 0.0
C1848 C 0.84912 0.58285 0.67216 0.0
H1849 H 0.90377 0.57432 0.65642 0.0
H1850 H 0.88289 0.57863 0.65396 0.0
H1851 H 0.90673 0.59885 0.6648 0.0
H1852 H 0.89826 0.62098 0.68561 0.0
H1853 H 0.88639 0.64264 0.67575 0.0
H1854 H 0.46884 0.89593 0.21205 0.0
H1855 H 0.4786 0.90746 0.18742 0.0
H1856 H 0.46512 0.95598 0.19839 0.0
H1857 H 0.45535 0.94465 0.22296 0.0
H1858 H 0.45267 0.91067 0.1634 0.0
H1859 H 0.52382 0.98628 0.18656 0.0
H1860 H 0.5123 0.96533 0.19756 0.0
H1861 H 0.50199 0.98169 0.19559 0.0
C1862 C 0.46809 0.90915 0.20928 0.0
C1863 C 0.46135 0.91939 0.21949 0.0
C1864 C 0.47362 0.91567 0.1952 0.0
C1865 C 0.47275 0.93267 0.1912 0.0
C1866 C 0.46615 0.94299 0.20138 0.0
H1867 H 0.49681 0.00038 0.11541 0.0
H1868 H 0.48787 0.98654 0.13936 0.0
C1869 C 0.4605 0.93643 0.21539 0.0
C1870 C 0.47811 0.93932 0.17618 0.0
H1871 H 0.51139 0.98047 0.16005 0.0
C1872 C 0.4656 0.92584 0.1626 0.0
C1873 C 0.49493 0.95915 0.17526 0.0
C1874 C 0.50917 0.97393 0.18949 0.0
C1875 C 0.46911 0.93196 0.1481 0.0
C1876 C 0.48585 0.9519 0.14718 0.0
C1877 C 0.49854 0.96522 0.16078 0.0
C1878 C 0.49033 0.95953 0.13231 0.0
C1879 C 0.45448 0.91733 0.13397 0.0
C1880 C 0.49465 0.94891 0.12039 0.0
C1881 C 0.49969 0.95675 0.10666 0.0
C1882 C 0.50077 0.9755 0.10472 0.0
C1883 C 0.4963 0.98601 0.11664 0.0
C1884 C 0.49115 0.9781 0.1303 0.0
H1885 H 0.43977 0.90532 0.13706 0.0
H1886 H 0.4515 0.92606 0.12594 0.0
H1887 H 0.46116 0.90909 0.12779 0.0
H1888 H 0.49456 0.9348 0.12183 0.0
H1889 H 0.50335 0.94848 0.09776 0.0
H1890 H 0.02695 0.4796 0.23958 0.0
H1891 H 0.02066 0.48132 0.21228 0.0
H1892 H 0.08068 0.5358 0.21622 0.0
H1893 H 0.08716 0.534 0.24338 0.0
H1894 H 0.02441 0.51872 0.20077 0.0
H1895 H 0.07524 0.49331 0.17772 0.0
H1896 H 0.06552 0.48748 0.19579 0.0
H1897 H 0.08584 0.5133 0.19469 0.0
C1898 C 0.0388 0.4919 0.23459 0.0
C1899 C 0.0574 0.50691 0.24366 0.0
C1900 C 0.03518 0.49288 0.21905 0.0
C1901 C 0.05024 0.50864 0.21228 0.0
C1902 C 0.06891 0.52347 0.22125 0.0
H1903 H 0.06005 0.54289 0.12127 0.0
H1904 H 0.06622 0.5389 0.14792 0.0
C1905 C 0.07248 0.5226 0.23681 0.0
C1906 C 0.04626 0.50997 0.19595 0.0
H1907 H 0.06039 0.50519 0.16045 0.0
C1908 C 0.03216 0.51566 0.19191 0.0
C1909 C 0.05656 0.50612 0.18451 0.0
C1910 C 0.07156 0.49957 0.18829 0.0
C1911 C 0.02834 0.51802 0.17672 0.0
C1912 C 0.0385 0.51398 0.1652 0.0
C1913 C 0.05259 0.50823 0.16927 0.0
C1914 C 0.03483 0.5158 0.14888 0.0
C1915 C 0.0139 0.5254 0.17328 0.0
C1916 C 0.01524 0.50378 0.14047 0.0
C1917 C 0.01168 0.50612 0.12531 0.0
C1918 C 0.0277 0.5203 0.11818 0.0
C1919 C 0.04744 0.53178 0.12644 0.0
C1920 C 0.05096 0.52956 0.14167 0.0
H1921 H 0.01206 0.53344 0.18391 0.0
H1922 H 0.01924 0.53626 0.16484 0.0
H1923 H 0.99874 0.5117 0.16827 0.0
H1924 H 0.00267 0.49262 0.14565 0.0
H1925 H 0.99638 0.49677 0.11912 0.0
H1926 H 0.4531 0.55428 0.21949 0.0
H1927 H 0.4567 0.54708 0.19259 0.0
H1928 H 0.44832 0.48753 0.19903 0.0
H1929 H 0.44533 0.49494 0.22626 0.0
H1930 H 0.48053 0.50829 0.18539 0.0
H1931 H 0.41732 0.51041 0.1549 0.0
H1932 H 0.43259 0.53375 0.16891 0.0
H1933 H 0.41906 0.5088 0.17516 0.0
C1934 C 0.45168 0.53948 0.21517 0.0
C1935 C 0.44896 0.52519 0.22505 0.0
C1936 C 0.45357 0.53531 0.1997 0.0
C1937 C 0.4524 0.5166 0.19368 0.0
C1938 C 0.44913 0.50202 0.2034 0.0
H1939 H 0.46222 0.49706 0.09507 0.0
H1940 H 0.44926 0.49185 0.11981 0.0
C1941 C 0.44742 0.50627 0.21895 0.0
C1942 C 0.45661 0.51336 0.17771 0.0
H1943 H 0.44553 0.51768 0.14073 0.0
C1944 C 0.47262 0.50997 0.17557 0.0
C1945 C 0.44608 0.51512 0.16482 0.0
C1946 C 0.42766 0.51698 0.16605 0.0
C1947 C 0.47913 0.50951 0.16109 0.0
C1948 C 0.46977 0.51317 0.14853 0.0
C1949 C 0.45299 0.5153 0.15044 0.0
C1950 C 0.47775 0.51581 0.13354 0.0
C1951 C 0.49606 0.50524 0.15947 0.0
C1952 C 0.49799 0.5312 0.13301 0.0
C1953 C 0.50554 0.534 0.11893 0.0
C1954 C 0.49289 0.5217 0.10502 0.0
C1955 C 0.47249 0.50654 0.10557 0.0
C1956 C 0.46501 0.50363 0.11969 0.0
H1957 H 0.49654 0.4958 0.16807 0.0
H1958 H 0.49437 0.49683 0.14772 0.0
H1959 H 0.51082 0.5203 0.16159 0.0
H1960 H 0.50797 0.54118 0.14351 0.0
H1961 H 0.52135 0.54567 0.11899 0.0
H1962 H 0.97718 0.48091 0.78031 0.0
H1963 H 0.98306 0.48736 0.80849 0.0
H1964 H 0.93484 0.5003 0.80984 0.0
H1965 H 0.92853 0.49348 0.78158 0.0
H1966 H 0.99237 0.52158 0.83105 0.0
H1967 H 0.91683 0.45202 0.83395 0.0
H1968 H 0.92748 0.45671 0.81615 0.0
H1969 H 0.91647 0.47122 0.82389 0.0
C1970 C 0.96792 0.48532 0.78656 0.0
C1971 C 0.9522 0.48641 0.77868 0.0
C1972 C 0.97134 0.48903 0.80268 0.0
C1973 C 0.95914 0.49392 0.81123 0.0
C1974 C 0.94414 0.49612 0.80344 0.0
H1975 H 0.95482 0.49532 0.91076 0.0
H1976 H 0.95001 0.50105 0.88437 0.0
C1977 C 0.94064 0.49231 0.78729 0.0
C1978 C 0.96156 0.49557 0.82823 0.0
H1979 H 0.938 0.47094 0.85746 0.0
C1980 C 0.98043 0.51065 0.83687 0.0
C1981 C 0.94593 0.48128 0.83577 0.0
C1982 C 0.92557 0.46427 0.827 0.0
C1983 C 0.98423 0.51154 0.85281 0.0
C1984 C 0.96885 0.49678 0.86021 0.0
C1985 C 0.94973 0.48224 0.85171 0.0
C1986 C 0.97274 0.49495 0.87644 0.0
C1987 C 0.00475 0.52811 0.86155 0.0
C1988 C 0.987 0.48952 0.88064 0.0
C1989 C 0.98974 0.48621 0.89562 0.0
C1990 C 0.97818 0.48818 0.90668 0.0
C1991 C 0.96405 0.49387 0.90251 0.0
C1992 C 0.96126 0.49709 0.88746 0.0
H1993 H 0.01241 0.54168 0.8555 0.0
H1994 H 0.00341 0.53373 0.87341 0.0
H1995 H 0.01454 0.52138 0.86251 0.0
H1996 H 0.99573 0.4874 0.87222 0.0
H1997 H 0.00088 0.48206 0.89853 0.0
H1998 H 0.54824 0.46548 0.77835 0.0
H1999 H 0.53785 0.45942 0.80385 0.0
H2000 H 0.54658 0.52107 0.81324 0.0
H2001 H 0.55609 0.52686 0.78752 0.0
H2002 H 0.55909 0.48131 0.83281 0.0
H2003 H 0.48912 0.48424 0.8228 0.0
H2004 H 0.50231 0.48167 0.80726 0.0
H2005 H 0.51139 0.50685 0.81883 0.0
C2006 C 0.54738 0.4775 0.78565 0.0
C2007 C 0.55231 0.49636 0.78071 0.0
C2008 C 0.54173 0.47414 0.80031 0.0
C2009 C 0.54097 0.4896 0.81029 0.0
C2010 C 0.54653 0.50871 0.80557 0.0
H2011 H 0.51548 0.50601 0.90316 0.0
H2012 H 0.52603 0.50997 0.87753 0.0
C2013 C 0.55213 0.51205 0.79092 0.0
C2014 C 0.53473 0.48597 0.82575 0.0
H2015 H 0.50043 0.48511 0.84878 0.0
C2016 C 0.54617 0.48197 0.83628 0.0
C2017 C 0.51784 0.48679 0.83021 0.0
C2018 C 0.50432 0.48992 0.81914 0.0
C2019 C 0.5415 0.47935 0.85132 0.0
C2020 C 0.52484 0.48056 0.85584 0.0
C2021 C 0.51327 0.48431 0.84527 0.0
C2022 C 0.51925 0.47822 0.87156 0.0
C2023 C 0.55469 0.47585 0.8624 0.0
C2024 C 0.51191 0.45902 0.87665 0.0
C2025 C 0.50589 0.45671 0.8913 0.0
C2026 C 0.50714 0.47358 0.9011 0.0
C2027 C 0.51462 0.49281 0.89597 0.0
C2028 C 0.52053 0.49507 0.88131 0.0
H2029 H 0.56923 0.47957 0.85818 0.0
H2030 H 0.5581 0.48555 0.87394 0.0
H2031 H 0.54647 0.45919 0.86379 0.0
H2032 H 0.51056 0.44575 0.86919 0.0
H2033 H 0.5003 0.44174 0.89496 0.0
H2034 H 0.51751 0.06136 0.7877 0.0
H2035 H 0.51408 0.04739 0.81164 0.0
H2036 H 0.57916 0.07754 0.82167 0.0
H2037 H 0.58284 0.09189 0.79768 0.0
H2038 H 0.52776 0.02187 0.82243 0.0
H2039 H 0.56301 0.10003 0.85998 0.0
H2040 H 0.55457 0.09586 0.83961 0.0
H2041 H 0.57764 0.09691 0.84594 0.0
C2042 C 0.53115 0.06499 0.79492 0.0
C2043 C 0.55048 0.07792 0.79083 0.0
C2044 C 0.52913 0.05692 0.80859 0.0
C2045 C 0.54637 0.06167 0.81851 0.0
C2046 C 0.56569 0.07398 0.81427 0.0
H2047 H 0.54393 0.03287 0.91254 0.0
H2048 H 0.55627 0.04417 0.88838 0.0
C2049 C 0.56774 0.08206 0.80053 0.0
C2050 C 0.54382 0.05417 0.83347 0.0
H2051 H 0.54995 0.07074 0.87229 0.0
C2052 C 0.53281 0.03254 0.83336 0.0
C2053 C 0.5505 0.06815 0.8477 0.0
C2054 C 0.56198 0.09155 0.84843 0.0
C2055 C 0.5278 0.02449 0.84707 0.0
C2056 C 0.53365 0.03847 0.8612 0.0
C2057 C 0.54545 0.06009 0.86141 0.0
C2058 C 0.52632 0.03103 0.87567 0.0
C2059 C 0.51607 0.00109 0.84628 0.0
C2060 C 0.50544 0.02021 0.87656 0.0
C2061 C 0.49836 0.01389 0.89032 0.0
C2062 C 0.51204 0.01836 0.90352 0.0
C2063 C 0.533 0.02933 0.90262 0.0
C2064 C 0.54007 0.03567 0.88882 0.0
H2065 H 0.51825 0.99299 0.83586 0.0
H2066 H 0.5207 0.99671 0.8567 0.0
H2067 H 0.49963 0.99541 0.8456 0.0
H2068 H 0.4946 0.01697 0.86667 0.0
H2069 H 0.48217 0.0059 0.89069 0.0
H2070 H 0.1583 0.26534 0.55695 0.0
H2071 H 0.17047 0.27908 0.53344 0.0
H2072 H 0.10953 0.26033 0.51484 0.0
H2073 H 0.0973 0.24696 0.5383 0.0
H2074 H 0.15936 0.25799 0.50355 0.0
H2075 H 0.14149 0.3207 0.5086 0.0
H2076 H 0.14169 0.30771 0.5245 0.0
H2077 H 0.12002 0.29555 0.50967 0.0
C2078 C 0.14752 0.26427 0.5479 0.0
C2079 C 0.12684 0.25514 0.54956 0.0
C2080 C 0.15449 0.27212 0.53448 0.0
C2081 C 0.14096 0.27106 0.52251 0.0
C2082 C 0.12032 0.2618 0.52408 0.0
H2083 H 0.14529 0.2933 0.42845 0.0
H2084 H 0.13557 0.28353 0.45349 0.0
C2085 C 0.11335 0.25403 0.53749 0.0
C2086 C 0.1482 0.2788 0.50809 0.0
H2087 H 0.14934 0.3117 0.48411 0.0
C2088 C 0.15736 0.26988 0.49937 0.0
C2089 C 0.14556 0.29432 0.50267 0.0
C2090 C 0.13684 0.30528 0.51192 0.0
C2091 C 0.16344 0.27567 0.48517 0.0
C2092 C 0.16042 0.29086 0.47963 0.0
C2093 C 0.15149 0.29996 0.48839 0.0
C2094 C 0.1664 0.29743 0.46469 0.0
C2095 C 0.17261 0.26515 0.47598 0.0
C2096 C 0.18696 0.3088 0.46285 0.0
C2097 C 0.19258 0.3146 0.44863 0.0
C2098 C 0.17773 0.30909 0.43597 0.0
C2099 C 0.15713 0.29799 0.43798 0.0
C2100 C 0.15153 0.29229 0.45224 0.0
H2101 H 0.17044 0.25109 0.48045 0.0
H2102 H 0.16581 0.26046 0.46363 0.0
H2103 H 0.18915 0.27631 0.47661 0.0
H2104 H 0.19865 0.31319 0.47242 0.0
H2105 H 0.20859 0.32352 0.4476 0.0
H2106 H 0.7248 0.80918 0.56354 0.0
H2107 H 0.72435 0.81746 0.53751 0.0
H2108 H 0.71498 0.86743 0.55481 0.0
H2109 H 0.71556 0.8593 0.58079 0.0
H2110 H 0.69355 0.81567 0.52025 0.0
H2111 H 0.75987 0.89664 0.52935 0.0
H2112 H 0.75537 0.87956 0.54328 0.0
H2113 H 0.74206 0.89333 0.54252 0.0
C2114 C 0.72296 0.82213 0.5618 0.0
C2115 C 0.72073 0.83394 0.57425 0.0
C2116 C 0.72271 0.82685 0.54694 0.0
C2117 C 0.72008 0.84336 0.54425 0.0
C2118 C 0.71774 0.8551 0.55668 0.0
H2119 H 0.69015 0.8827 0.464 0.0
H2120 H 0.69745 0.87744 0.48993 0.0
C2121 C 0.71815 0.85049 0.57156 0.0
C2122 C 0.7183 0.84731 0.52829 0.0
H2123 H 0.73698 0.88532 0.50588 0.0
C2124 C 0.70321 0.83084 0.51707 0.0
C2125 C 0.7309 0.86712 0.52415 0.0
C2126 C 0.74809 0.88511 0.53542 0.0
C2127 C 0.70002 0.83378 0.50196 0.0
C2128 C 0.71233 0.85368 0.49794 0.0
C2129 C 0.72756 0.8701 0.50906 0.0
C2130 C 0.70916 0.85778 0.48232 0.0
C2131 C 0.68317 0.81578 0.49047 0.0
C2132 C 0.71369 0.84875 0.46953 0.0
C2133 C 0.70976 0.85189 0.4547 0.0
C2134 C 0.70116 0.8641 0.45239 0.0
C2135 C 0.69703 0.87345 0.46534 0.0
C2136 C 0.70108 0.87039 0.48016 0.0
H2137 H 0.67295 0.80245 0.49607 0.0
H2138 H 0.67399 0.82092 0.4843 0.0
H2139 H 0.68985 0.81016 0.48174 0.0
H2140 H 0.72016 0.83916 0.47103 0.0
H2141 H 0.71347 0.84476 0.44504 0.0
H2142 H 0.12991 0.84276 0.56264 0.0
H2143 H 0.13621 0.8383 0.53596 0.0
H2144 H 0.09962 0.86324 0.52204 0.0
H2145 H 0.09313 0.86768 0.54862 0.0
H2146 H 0.09465 0.82752 0.5006 0.0
H2147 H 0.17485 0.89245 0.51864 0.0
H2148 H 0.16589 0.87124 0.52933 0.0
H2149 H 0.1552 0.88755 0.53055 0.0
C2150 C 0.1229 0.84696 0.55387 0.0
C2151 C 0.11123 0.85583 0.5578 0.0
C2152 C 0.12657 0.84445 0.53865 0.0
C2153 C 0.11862 0.85074 0.52714 0.0
C2154 C 0.10594 0.85837 0.53081 0.0
H2155 H 0.16371 0.89099 0.44303 0.0
H2156 H 0.15114 0.88696 0.46797 0.0
C2157 C 0.1023 0.86094 0.54602 0.0
C2158 C 0.12484 0.85106 0.51159 0.0
H2159 H 0.16557 0.87615 0.49255 0.0
C2160 C 0.11016 0.83805 0.49879 0.0
C2161 C 0.14502 0.86507 0.50933 0.0
C2162 C 0.16117 0.88002 0.52264 0.0
C2163 C 0.11519 0.83865 0.48372 0.0
C2164 C 0.13544 0.85252 0.4815 0.0
C2165 C 0.15008 0.86549 0.49432 0.0
C2166 C 0.14182 0.85434 0.46596 0.0
C2167 C 0.09872 0.82489 0.4703 0.0
C2168 C 0.14072 0.83732 0.45658 0.0
C2169 C 0.14791 0.83959 0.44232 0.0
C2170 C 0.1565 0.85899 0.43729 0.0
C2171 C 0.15739 0.87593 0.44667 0.0
C2172 C 0.15013 0.87363 0.46088 0.0
H2173 H 0.08332 0.81897 0.47363 0.0
H2174 H 0.10029 0.83348 0.46057 0.0
H2175 H 0.10003 0.8112 0.46614 0.0
H2176 H 0.13477 0.82243 0.46044 0.0
H2177 H 0.14729 0.82633 0.43544 0.0
H2178 H 0.62115 0.8152 0.11035 0.0
H2179 H 0.63414 0.8222 0.13778 0.0
H2180 H 0.57927 0.81839 0.14989 0.0
H2181 H 0.56631 0.81182 0.12256 0.0
H2182 H 0.61405 0.8499 0.1694 0.0
H2183 H 0.61087 0.77404 0.16217 0.0
H2184 H 0.62641 0.79172 0.15005 0.0
H2185 H 0.59946 0.78105 0.14738 0.0
C2186 C 0.61196 0.81616 0.11884 0.0
C2187 C 0.59256 0.81266 0.11425 0.0
C2188 C 0.61938 0.82006 0.13451 0.0
C2189 C 0.60747 0.82033 0.14583 0.0
C2190 C 0.58865 0.8181 0.14132 0.0
H2191 H 0.60936 0.79092 0.23705 0.0
H2192 H 0.60125 0.79284 0.21025 0.0
C2193 C 0.58126 0.81432 0.12567 0.0
C2194 C 0.61388 0.8215 0.1623 0.0
H2195 H 0.62354 0.79491 0.18694 0.0
C2196 C 0.61623 0.83795 0.17327 0.0
C2197 C 0.61637 0.80568 0.1673 0.0
C2198 C 0.61299 0.78701 0.15616 0.0
C2199 C 0.62099 0.839 0.18913 0.0
C2200 C 0.62375 0.82332 0.19408 0.0
C2201 C 0.6215 0.80695 0.18309 0.0
C2202 C 0.62827 0.82305 0.21062 0.0
C2203 C 0.62241 0.85649 0.20046 0.0
C2204 C 0.64612 0.83944 0.21974 0.0
C2205 C 0.65077 0.83839 0.23508 0.0
C2206 C 0.63775 0.82082 0.2415 0.0
C2207 C 0.61979 0.80455 0.23237 0.0
C2208 C 0.61511 0.80566 0.21709 0.0
H2209 H 0.61497 0.86404 0.19518 0.0
H2210 H 0.6153 0.85068 0.2108 0.0
H2211 H 0.63863 0.86861 0.20433 0.0
H2212 H 0.65672 0.85278 0.21488 0.0
H2213 H 0.66486 0.85103 0.24177 0.0
H2214 H 0.24443 0.79655 0.12764 0.0
H2215 H 0.23665 0.80206 0.15362 0.0
H2216 H 0.21613 0.84189 0.13954 0.0
H2217 H 0.22396 0.83661 0.11348 0.0
H2218 H 0.23978 0.85556 0.17067 0.0
H2219 H 0.1752 0.77304 0.15921 0.0
H2220 H 0.19953 0.77677 0.15611 0.0
H2221 H 0.18791 0.78652 0.14401 0.0
C2222 C 0.23859 0.80678 0.13009 0.0
C2223 C 0.23456 0.81592 0.11841 0.0
C2224 C 0.23412 0.80986 0.14495 0.0
C2225 C 0.22553 0.82209 0.14837 0.0
C2226 C 0.22269 0.83232 0.13706 0.0
H2227 H 0.15102 0.81443 0.21936 0.0
H2228 H 0.16567 0.8164 0.19534 0.0
C2229 C 0.22715 0.82926 0.12218 0.0
C2230 C 0.21792 0.82275 0.1633 0.0
H2231 H 0.1816 0.79216 0.18421 0.0
C2232 C 0.2271 0.84174 0.17369 0.0
C2233 C 0.20118 0.80471 0.16704 0.0
C2234 C 0.19022 0.78411 0.15599 0.0
C2235 C 0.22007 0.84309 0.18788 0.0
C2236 C 0.20358 0.82493 0.19172 0.0
C2237 C 0.19432 0.80602 0.18125 0.0
C2238 C 0.19533 0.82512 0.20643 0.0
C2239 C 0.23006 0.86395 0.19851 0.0
C2240 C 0.20716 0.82933 0.22061 0.0
C2241 C 0.19879 0.82807 0.23436 0.0
C2242 C 0.17838 0.82245 0.23414 0.0
C2243 C 0.16668 0.81849 0.21991 0.0
C2244 C 0.17506 0.81975 0.20619 0.0
H2245 H 0.23926 0.87711 0.1924 0.0
H2246 H 0.21852 0.86644 0.20364 0.0
H2247 H 0.2403 0.86428 0.20808 0.0
H2248 H 0.22272 0.83307 0.221 0.0
H2249 H 0.20812 0.83094 0.24511 0.0
H2250 H 0.18706 0.38027 0.11364 0.0
H2251 H 0.18518 0.36752 0.13806 0.0
H2252 H 0.24951 0.41041 0.15145 0.0
H2253 H 0.25161 0.42337 0.12697 0.0
H2254 H 0.20865 0.35078 0.15229 0.0
H2255 H 0.22054 0.4245 0.18585 0.0
H2256 H 0.21281 0.41746 0.16521 0.0
H2257 H 0.2385 0.42662 0.17302 0.0
C2258 C 0.20088 0.38691 0.12169 0.0
C2259 C 0.21947 0.40298 0.1184 0.0
C2260 C 0.19977 0.37954 0.13562 0.0
C2261 C 0.21716 0.38818 0.14657 0.0
C2262 C 0.23589 0.4037 0.14316 0.0
H2263 H 0.21567 0.37043 0.24311 0.0
H2264 H 0.22813 0.38143 0.21896 0.0
C2265 C 0.23706 0.41102 0.12916 0.0
C2266 C 0.21527 0.38155 0.16183 0.0
H2267 H 0.21359 0.39719 0.1994 0.0
C2268 C 0.20994 0.36096 0.16265 0.0
C2269 C 0.21708 0.39494 0.17529 0.0
C2270 C 0.22243 0.4171 0.17492 0.0
C2271 C 0.20596 0.35324 0.17657 0.0
C2272 C 0.20682 0.36633 0.18989 0.0
C2273 C 0.21291 0.38717 0.18918 0.0
C2274 C 0.20002 0.35837 0.20435 0.0
C2275 C 0.20079 0.33113 0.17685 0.0
C2276 C 0.1801 0.34175 0.20416 0.0
C2277 C 0.17301 0.33531 0.21789 0.0
C2278 C 0.1856 0.34555 0.23216 0.0
C2279 C 0.20566 0.36203 0.23231 0.0
C2280 C 0.21277 0.36842 0.21853 0.0
H2281 H 0.2075 0.32597 0.16781 0.0
H2282 H 0.20626 0.32955 0.18827 0.0
H2283 H 0.18406 0.32045 0.17445 0.0
H2284 H 0.16982 0.33408 0.19341 0.0
H2285 H 0.15757 0.32241 0.21733 0.0
H2286 H 0.7678 0.5752 0.87282 0.0
H2287 H 0.77744 0.5854 0.84793 0.0
H2288 H 0.84064 0.61411 0.86629 0.0
H2289 H 0.83115 0.60357 0.89113 0.0
H2290 H 0.80043 0.62441 0.84118 0.0
H2291 H 0.83649 0.57836 0.82658 0.0
H2292 H 0.82106 0.57396 0.84191 0.0
H2293 H 0.84712 0.59515 0.84506 0.0
C2294 C 0.78376 0.58353 0.87155 0.0
C2295 C 0.7987 0.58847 0.88396 0.0
C2296 C 0.78923 0.58937 0.8573 0.0
C2297 C 0.80973 0.60023 0.85517 0.0
C2298 C 0.8247 0.60529 0.86755 0.0
H2299 H 0.87594 0.66136 0.7832 0.0
H2300 H 0.86478 0.64904 0.80725 0.0
C2301 C 0.81924 0.59935 0.88178 0.0
C2302 C 0.81547 0.60695 0.84017 0.0
H2303 H 0.8417 0.60407 0.81108 0.0
C2304 C 0.80931 0.61983 0.83454 0.0
C2305 C 0.82703 0.6009 0.8315 0.0
C2306 C 0.83315 0.58617 0.83647 0.0
C2307 C 0.81479 0.62721 0.82065 0.0
C2308 C 0.82663 0.62146 0.81217 0.0
C2309 C 0.83268 0.60849 0.8177 0.0
C2310 C 0.83313 0.62899 0.79758 0.0
C2311 C 0.8083 0.64147 0.81528 0.0
C2312 C 0.81898 0.62167 0.78419 0.0
C2313 C 0.82533 0.62846 0.77033 0.0
C2314 C 0.84595 0.64273 0.76966 0.0
C2315 C 0.86001 0.65011 0.7832 0.0
C2316 C 0.85367 0.64321 0.797 0.0
H2317 H 0.80207 0.64716 0.82438 0.0
H2318 H 0.82131 0.65516 0.81173 0.0
H2319 H 0.79637 0.63286 0.80506 0.0
H2320 H 0.80309 0.61048 0.7844 0.0
H2321 H 0.81413 0.62219 0.7601 0.0
H2322 H 0.43744 0.207 0.89834 0.0
H2323 H 0.4243 0.19877 0.87095 0.0
H2324 H 0.36746 0.14743 0.87934 0.0
H2325 H 0.38032 0.15587 0.90695 0.0
H2326 H 0.40913 0.16375 0.84846 0.0
H2327 H 0.34988 0.18289 0.85962 0.0
H2328 H 0.37024 0.18896 0.87437 0.0
H2329 H 0.34889 0.16266 0.86909 0.0
C2330 C 0.42219 0.19383 0.89439 0.0
C2331 C 0.40983 0.18226 0.90488 0.0
C2332 C 0.41472 0.18912 0.8787 0.0
C2333 C 0.39478 0.17275 0.87317 0.0
C2334 C 0.38274 0.16043 0.88345 0.0
H2335 H 0.32898 0.14645 0.78074 0.0
H2336 H 0.33879 0.14187 0.80632 0.0
C2337 C 0.39016 0.16521 0.8992 0.0
C2338 C 0.38648 0.16947 0.85679 0.0
H2339 H 0.35163 0.17304 0.83371 0.0
C2340 C 0.39644 0.16559 0.84522 0.0
C2341 C 0.36994 0.17193 0.8526 0.0
C2342 C 0.35918 0.17701 0.86454 0.0
C2343 C 0.39055 0.16451 0.82958 0.0
C2344 C 0.37442 0.16756 0.82547 0.0
C2345 C 0.36397 0.17066 0.83695 0.0
C2346 C 0.36909 0.16918 0.8095 0.0
C2347 C 0.40177 0.16038 0.81758 0.0
C2348 C 0.38289 0.18607 0.8029 0.0
C2349 C 0.37731 0.18878 0.78837 0.0
C2350 C 0.35783 0.17462 0.7802 0.0
C2351 C 0.34416 0.15748 0.78672 0.0
C2352 C 0.34971 0.15487 0.80131 0.0
H2353 H 0.40997 0.15307 0.822 0.0
H2354 H 0.39117 0.15003 0.80699 0.0
H2355 H 0.41311 0.17542 0.81434 0.0
H2356 H 0.39781 0.19747 0.80916 0.0
H2357 H 0.38819 0.20205 0.78358 0.0
H2358 H 0.81702 0.19033 0.89683 0.0
H2359 H 0.81932 0.18405 0.86941 0.0
H2360 H 0.75944 0.17349 0.85773 0.0
H2361 H 0.75706 0.18006 0.8852 0.0
H2362 H 0.7948 0.15 0.84507 0.0
H2363 H 0.79579 0.22224 0.83587 0.0
H2364 H 0.79926 0.2169 0.85489 0.0
H2365 H 0.77435 0.20363 0.84392 0.0
C2366 C 0.80422 0.18647 0.88847 0.0
C2367 C 0.78695 0.18596 0.89322 0.0
C2368 C 0.80556 0.18284 0.87279 0.0
C2369 C 0.78971 0.17868 0.86156 0.0
C2370 C 0.772 0.17708 0.86623 0.0
H2371 H 0.79313 0.17797 0.76223 0.0
H2372 H 0.7809 0.17351 0.78733 0.0
C2373 C 0.77064 0.18073 0.88194 0.0
C2374 C 0.79234 0.17717 0.84504 0.0
H2375 H 0.79871 0.20272 0.81443 0.0
C2376 C 0.7955 0.16141 0.83831 0.0
C2377 C 0.79322 0.19209 0.83627 0.0
C2378 C 0.79064 0.20979 0.84308 0.0
C2379 C 0.7998 0.16034 0.82309 0.0
C2380 C 0.80132 0.17566 0.8145 0.0
C2381 C 0.79752 0.19101 0.82105 0.0
C2382 C 0.8081 0.17691 0.79908 0.0
C2383 C 0.80274 0.14288 0.81635 0.0
C2384 C 0.82748 0.18043 0.79741 0.0
C2385 C 0.83448 0.18293 0.78312 0.0
C2386 C 0.82228 0.18211 0.77021 0.0
C2387 C 0.8028 0.17846 0.7719 0.0
C2388 C 0.79582 0.17599 0.78623 0.0
H2389 H 0.79515 0.12926 0.82236 0.0
H2390 H 0.79674 0.1376 0.80384 0.0
H2391 H 0.81921 0.14857 0.81774 0.0
H2392 H 0.83737 0.18164 0.80725 0.0
H2393 H 0.84947 0.1855 0.78218 0.0
H2394 H 0.24642 0.14653 0.4461 0.0
H2395 H 0.25145 0.15098 0.47427 0.0
H2396 H 0.31511 0.17363 0.47414 0.0
H2397 H 0.31029 0.16923 0.44594 0.0
H2398 H 0.26712 0.12873 0.48906 0.0
H2399 H 0.31345 0.21463 0.50964 0.0
H2400 H 0.2981 0.20314 0.49086 0.0
H2401 H 0.32197 0.20459 0.49417 0.0
C2402 C 0.26159 0.15287 0.45205 0.0
C2403 C 0.27794 0.15739 0.44375 0.0
C2404 C 0.26442 0.1554 0.46815 0.0
C2405 C 0.28365 0.16274 0.47624 0.0
C2406 C 0.3002 0.16822 0.46809 0.0
H2407 H 0.33304 0.1699 0.56858 0.0
H2408 H 0.32712 0.17378 0.54189 0.0
C2409 C 0.29739 0.16559 0.45197 0.0
C2410 C 0.28593 0.1623 0.49295 0.0
H2411 H 0.30979 0.19294 0.5282 0.0
C2412 C 0.27627 0.14276 0.49767 0.0
C2413 C 0.29806 0.18064 0.50404 0.0
C2414 C 0.3084 0.20199 0.49951 0.0
C2415 C 0.27883 0.14098 0.51319 0.0
C2416 C 0.29093 0.15933 0.52435 0.0
C2417 C 0.30045 0.17892 0.51963 0.0
C2418 C 0.29448 0.15836 0.54086 0.0
C2419 C 0.26918 0.1194 0.51736 0.0
C2420 C 0.27814 0.14887 0.54924 0.0
C2421 C 0.28147 0.14647 0.56443 0.0
C2422 C 0.30124 0.15386 0.57158 0.0
C2423 C 0.31766 0.16416 0.56338 0.0
C2424 C 0.3143 0.16636 0.54815 0.0
H2425 H 0.26512 0.1072 0.50711 0.0
H2426 H 0.27949 0.11853 0.52619 0.0
H2427 H 0.25502 0.1157 0.52218 0.0
H2428 H 0.26278 0.14306 0.54397 0.0
H2429 H 0.26859 0.13878 0.57058 0.0
H2430 H 0.8568 0.15157 0.43916 0.0
H2431 H 0.84751 0.14295 0.46449 0.0
H2432 H 0.90868 0.18924 0.48573 0.0
H2433 H 0.91797 0.19809 0.46039 0.0
H2434 H 0.86133 0.129 0.48686 0.0
H2435 H 0.87569 0.20804 0.50896 0.0
H2436 H 0.87509 0.19935 0.48885 0.0
H2437 H 0.89737 0.2083 0.5025 0.0
C2438 C 0.86839 0.15953 0.44916 0.0
C2439 C 0.88817 0.17533 0.4478 0.0
C2440 C 0.86302 0.15473 0.46366 0.0
C2441 C 0.87731 0.16569 0.47703 0.0
C2442 C 0.89728 0.18093 0.47561 0.0
H2443 H 0.86697 0.16101 0.57466 0.0
H2444 H 0.87978 0.16621 0.54983 0.0
C2445 C 0.90261 0.18588 0.46114 0.0
C2446 C 0.87108 0.1616 0.49245 0.0
H2447 H 0.8675 0.18485 0.52686 0.0
C2448 C 0.86268 0.14121 0.4956 0.0
C2449 C 0.87275 0.17754 0.50383 0.0
C2450 C 0.88053 0.19949 0.50085 0.0
C2451 C 0.85604 0.13636 0.50987 0.0
C2452 C 0.85778 0.15231 0.5212 0.0
C2453 C 0.86635 0.17272 0.51814 0.0
C2454 C 0.85007 0.14804 0.53612 0.0
C2455 C 0.8473 0.11429 0.5128 0.0
C2456 C 0.82913 0.13617 0.53658 0.0
C2457 C 0.82172 0.13342 0.55073 0.0
C2458 C 0.83514 0.14248 0.56472 0.0
C2459 C 0.85617 0.15408 0.56415 0.0
C2460 C 0.86355 0.15694 0.54998 0.0
H2461 H 0.85079 0.1049 0.50425 0.0
H2462 H 0.85326 0.11427 0.52459 0.0
H2463 H 0.83055 0.10656 0.51199 0.0
H2464 H 0.81849 0.1295 0.52599 0.0
H2465 H 0.80544 0.12473 0.5507 0.0
H2466 H 0.89106 0.78443 0.47468 0.0
H2467 H 0.88526 0.76981 0.49841 0.0
H2468 H 0.89095 0.71897 0.47688 0.0
H2469 H 0.89713 0.7337 0.45306 0.0
H2470 H 0.85305 0.73114 0.50065 0.0
H2471 H 0.92602 0.73674 0.51882 0.0
H2472 H 0.92352 0.75114 0.50474 0.0
H2473 H 0.91466 0.72384 0.49929 0.0
C2474 C 0.89139 0.7703 0.47502 0.0
C2475 C 0.89451 0.7602 0.46194 0.0
C2476 C 0.88806 0.76197 0.48861 0.0
C2477 C 0.88782 0.7434 0.48946 0.0
C2478 C 0.89145 0.73353 0.47658 0.0
H2479 H 0.85234 0.66288 0.559 0.0
H2480 H 0.86346 0.67834 0.53587 0.0
C2481 C 0.89489 0.74193 0.46295 0.0
C2482 C 0.88214 0.73364 0.50342 0.0
H2483 H 0.89885 0.71788 0.53282 0.0
C2484 C 0.86311 0.72832 0.50772 0.0
C2485 C 0.89522 0.72984 0.51254 0.0
C2486 C 0.91607 0.73583 0.50873 0.0
C2487 C 0.85676 0.71927 0.52087 0.0
C2488 C 0.86992 0.7157 0.53009 0.0
C2489 C 0.88885 0.72073 0.52572 0.0
C2490 C 0.86423 0.70686 0.54438 0.0
C2491 C 0.8359 0.71331 0.52467 0.0
C2492 C 0.86135 0.71797 0.5569 0.0
C2493 C 0.85492 0.70916 0.57008 0.0
C2494 C 0.85128 0.68908 0.57098 0.0
C2495 C 0.8547 0.67823 0.55855 0.0
C2496 C 0.86119 0.68709 0.54539 0.0
H2497 H 0.82596 0.71244 0.51458 0.0
H2498 H 0.82842 0.69798 0.52864 0.0
H2499 H 0.83732 0.72528 0.53414 0.0
H2500 H 0.86386 0.73337 0.5564 0.0
H2501 H 0.85231 0.71788 0.57939 0.0
loop_
_geom_bond_atom_site_label_1
_geom_bond_atom_site_label_2
_geom_bond_distance
_geom_bond_site_symmetry_2
_ccdc_geom_bond_type
O0 Cd1 2.300 . S
O0 C7 1.275 . S
Cd1 O0 2.300 . S
Cd1 O9 2.381 . S
Cd1 O10 2.378 . S
O2 Cd3 2.385 . S
O2 C7 1.255 . S
Cd3 O2 2.385 . S
Cd3 O4 2.317 . S
O4 Cd3 2.317 . S
O4 C5 1.232 . S
C5 O4 1.232 . S
C5 O6 1.218 . S
O6 C5 1.218 . S
C7 O0 1.275 . S
C7 O2 1.255 . S
C8 O9 1.258 . S
C8 O10 1.256 . S
O9 Cd1 2.381 . S
O9 C8 1.258 . S
O10 Cd1 2.378 . S
O10 C8 1.256 . S
O11 Cd12 2.300 . S
O11 C18 1.275 . S
Cd12 O11 2.300 . S
Cd12 O20 2.381 . S
Cd12 O21 2.378 . S
O13 Cd14 2.385 . S
O13 C18 1.255 . S
Cd14 O13 2.385 . S
Cd14 O15 2.317 . S
O15 Cd14 2.317 . S
O15 C16 1.232 . S
C16 O15 1.232 . S
C16 O17 1.218 . S
O17 C16 1.218 . S
C18 O11 1.275 . S
C18 O13 1.255 . S
C19 O20 1.258 . S
C19 O21 1.256 . S
O20 Cd12 2.381 . S
O20 C19 1.258 . S
O21 Cd12 2.378 . S
O21 C19 1.256 . S
O22 Cd23 2.300 . S
O22 C29 1.275 . S
Cd23 O22 2.300 . S
Cd23 O31 2.381 . S
Cd23 O32 2.378 . S
O24 Cd25 2.385 . S
O24 C29 1.255 . S
Cd25 O24 2.385 . S
Cd25 O26 2.317 . S
O26 Cd25 2.317 . S
O26 C27 1.232 . S
C27 O26 1.232 . S
C27 O28 1.218 . S
O28 C27 1.218 . S
C29 O22 1.275 . S
C29 O24 1.255 . S
C30 O31 1.258 . S
C30 O32 1.256 . S
O31 Cd23 2.381 . S
O31 C30 1.258 . S
O32 Cd23 2.378 . S
O32 C30 1.256 . S
O33 Cd34 2.300 . S
O33 C40 1.275 . S
Cd34 O33 2.300 . S
Cd34 O42 2.381 . S
Cd34 O43 2.378 . S
O35 Cd36 2.385 . S
O35 C40 1.255 . S
Cd36 O35 2.385 . S
Cd36 O37 2.317 . S
O37 Cd36 2.317 . S
O37 C38 1.232 . S
C38 O37 1.232 . S
C38 O39 1.218 . S
O39 C38 1.218 . S
C40 O33 1.275 . S
C40 O35 1.255 . S
C41 O42 1.258 . S
C41 O43 1.256 . S
O42 Cd34 2.381 . S
O42 C41 1.258 . S
O43 Cd34 2.378 . S
O43 C41 1.256 . S
O44 Cd45 2.300 . S
O44 C51 1.275 . S
Cd45 O44 2.300 . S
Cd45 O53 2.381 . S
Cd45 O54 2.378 . S
O46 Cd47 2.385 . S
O46 C51 1.255 . S
Cd47 O46 2.385 . S
Cd47 O48 2.317 . S
O48 Cd47 2.317 . S
O48 C49 1.232 . S
C49 O48 1.232 . S
C49 O50 1.218 . S
O50 C49 1.218 . S
C51 O44 1.275 . S
C51 O46 1.255 . S
C52 O53 1.258 . S
C52 O54 1.256 . S
O53 Cd45 2.381 . S
O53 C52 1.258 . S
O54 Cd45 2.378 . S
O54 C52 1.256 . S
O55 Cd56 2.300 . S
O55 C62 1.275 . S
Cd56 O55 2.300 . S
Cd56 O64 2.381 . S
Cd56 O65 2.378 . S
O57 Cd58 2.385 . S
O57 C62 1.255 . S
Cd58 O57 2.385 . S
Cd58 O59 2.317 . S
O59 Cd58 2.317 . S
O59 C60 1.232 . S
C60 O59 1.232 . S
C60 O61 1.218 . S
O61 C60 1.218 . S
C62 O55 1.275 . S
C62 O57 1.255 . S
C63 O64 1.258 . S
C63 O65 1.256 . S
O64 Cd56 2.381 . S
O64 C63 1.258 . S
O65 Cd56 2.378 . S
O65 C63 1.256 . S
O66 Cd67 2.300 . S
O66 C73 1.275 . S
Cd67 O66 2.300 . S
Cd67 O75 2.381 . S
Cd67 O76 2.378 . S
O68 Cd69 2.385 . S
O68 C73 1.255 . S
Cd69 O68 2.385 . S
Cd69 O70 2.317 . S
O70 Cd69 2.317 . S
O70 C71 1.232 . S
C71 O70 1.232 . S
C71 O72 1.218 . S
O72 C71 1.218 . S
C73 O66 1.275 . S
C73 O68 1.255 . S
C74 O75 1.258 . S
C74 O76 1.256 . S
O75 Cd67 2.381 . S
O75 C74 1.258 . S
O76 Cd67 2.378 . S
O76 C74 1.256 . S
O77 Cd78 2.300 . S
O77 C84 1.275 . S
Cd78 O77 2.300 . S
Cd78 O86 2.381 . S
Cd78 O87 2.378 . S
O79 Cd80 2.385 . S
O79 C84 1.255 . S
Cd80 O79 2.385 . S
Cd80 O81 2.317 . S
O81 Cd80 2.317 . S
O81 C82 1.232 . S
C82 O81 1.232 . S
C82 O83 1.218 . S
O83 C82 1.218 . S
C84 O77 1.275 . S
C84 O79 1.255 . S
C85 O86 1.258 . S
C85 O87 1.256 . S
O86 Cd78 2.381 . S
O86 C85 1.258 . S
O87 Cd78 2.378 . S
O87 C85 1.256 . S
O88 Cd89 2.300 . S
O88 C95 1.275 . S
Cd89 O88 2.300 . S
Cd89 O97 2.381 . S
Cd89 O98 2.378 . S
O90 Cd91 2.385 . S
O90 C95 1.255 . S
Cd91 O90 2.385 . S
Cd91 O92 2.317 . S
O92 Cd91 2.317 . S
O92 C93 1.232 . S
C93 O92 1.232 . S
C93 O94 1.218 . S
O94 C93 1.218 . S
C95 O88 1.275 . S
C95 O90 1.255 . S
C96 O97 1.258 . S
C96 O98 1.256 . S
O97 Cd89 2.381 . S
O97 C96 1.258 . S
O98 Cd89 2.378 . S
O98 C96 1.256 . S
O99 Cd100 2.300 . S
O99 C106 1.275 . S
Cd100 O99 2.300 . S
Cd100 O108 2.381 . S
Cd100 O109 2.378 . S
O101 Cd102 2.385 . S
O101 C106 1.255 . S
Cd102 O101 2.385 . S
Cd102 O103 2.317 . S
O103 Cd102 2.317 . S
O103 C104 1.232 . S
C104 O103 1.232 . S
C104 O105 1.218 . S
O105 C104 1.218 . S
C106 O99 1.275 . S
C106 O101 1.255 . S
C107 O108 1.258 . S
C107 O109 1.256 . S
O108 Cd100 2.381 . S
O108 C107 1.258 . S
O109 Cd100 2.378 . S
O109 C107 1.256 . S
O110 Cd111 2.300 . S
O110 C117 1.275 . S
Cd111 O110 2.300 . S
Cd111 O119 2.381 . S
Cd111 O120 2.378 . S
O112 Cd113 2.385 . S
O112 C117 1.255 . S
Cd113 O112 2.385 . S
Cd113 O114 2.317 . S
O114 Cd113 2.317 . S
O114 C115 1.232 . S
C115 O114 1.232 . S
C115 O116 1.218 . S
O116 C115 1.218 . S
C117 O110 1.275 . S
C117 O112 1.255 . S
C118 O119 1.258 . S
C118 O120 1.256 . S
O119 Cd111 2.381 . S
O119 C118 1.258 . S
O120 Cd111 2.378 . S
O120 C118 1.256 . S
O121 Cd122 2.300 . S
O121 C128 1.275 . S
Cd122 O121 2.300 . S
Cd122 O130 2.381 . S
Cd122 O131 2.378 . S
O123 Cd124 2.385 . S
O123 C128 1.255 . S
Cd124 O123 2.385 . S
Cd124 O125 2.317 . S
O125 Cd124 2.317 . S
O125 C126 1.232 . S
C126 O125 1.232 . S
C126 O127 1.218 . S
O127 C126 1.218 . S
C128 O121 1.275 . S
C128 O123 1.255 . S
C129 O130 1.258 . S
C129 O131 1.256 . S
O130 Cd122 2.381 . S
O130 C129 1.258 . S
O131 Cd122 2.378 . S
O131 C129 1.256 . S
O132 Cd133 2.300 . S
O132 C139 1.275 . S
Cd133 O132 2.300 . S
Cd133 O141 2.381 . S
Cd133 O142 2.378 . S
O134 Cd135 2.385 . S
O134 C139 1.255 . S
Cd135 O134 2.385 . S
Cd135 O136 2.317 . S
O136 Cd135 2.317 . S
O136 C137 1.232 . S
C137 O136 1.232 . S
C137 O138 1.218 . S
O138 C137 1.218 . S
C139 O132 1.275 . S
C139 O134 1.255 . S
C140 O141 1.258 . S
C140 O142 1.256 . S
O141 Cd133 2.381 . S
O141 C140 1.258 . S
O142 Cd133 2.378 . S
O142 C140 1.256 . S
O143 Cd144 2.300 . S
O143 C150 1.275 . S
Cd144 O143 2.300 . S
Cd144 O152 2.381 . S
Cd144 O153 2.378 . S
O145 Cd146 2.385 . S
O145 C150 1.255 . S
Cd146 O145 2.385 . S
Cd146 O147 2.317 . S
O147 Cd146 2.317 . S
O147 C148 1.232 . S
C148 O147 1.232 . S
C148 O149 1.218 . S
O149 C148 1.218 . S
C150 O143 1.275 . S
C150 O145 1.255 . S
C151 O152 1.258 . S
C151 O153 1.256 . S
O152 Cd144 2.381 . S
O152 C151 1.258 . S
O153 Cd144 2.378 . S
O153 C151 1.256 . S
O154 Cd155 2.300 . S
O154 C161 1.275 . S
Cd155 O154 2.300 . S
Cd155 O163 2.381 . S
Cd155 O164 2.378 . S
O156 Cd157 2.385 . S
O156 C161 1.255 . S
Cd157 O156 2.385 . S
Cd157 O158 2.317 . S
O158 Cd157 2.317 . S
O158 C159 1.232 . S
C159 O158 1.232 . S
C159 O160 1.218 . S
O160 C159 1.218 . S
C161 O154 1.275 . S
C161 O156 1.255 . S
C162 O163 1.258 . S
C162 O164 1.256 . S
O163 Cd155 2.381 . S
O163 C162 1.258 . S
O164 Cd155 2.378 . S
O164 C162 1.256 . S
O165 Cd166 2.300 . S
O165 C172 1.275 . S
Cd166 O165 2.300 . S
Cd166 O174 2.381 . S
Cd166 O175 2.378 . S
O167 Cd168 2.385 . S
O167 C172 1.255 . S
Cd168 O167 2.385 . S
Cd168 O169 2.317 . S
O169 Cd168 2.317 . S
O169 C170 1.232 . S
C170 O169 1.232 . S
C170 O171 1.218 . S
O171 C170 1.218 . S
C172 O165 1.275 . S
C172 O167 1.255 . S
C173 O174 1.258 . S
C173 O175 1.256 . S
O174 Cd166 2.381 . S
O174 C173 1.258 . S
O175 Cd166 2.378 . S
O175 C173 1.256 . S
O176 Cd177 2.300 . S
O176 C183 1.275 . S
Cd177 O176 2.300 . S
Cd177 O185 2.381 . S
Cd177 O186 2.378 . S
O178 Cd179 2.385 . S
O178 C183 1.255 . S
Cd179 O178 2.385 . S
Cd179 O180 2.317 . S
O180 Cd179 2.317 . S
O180 C181 1.232 . S
C181 O180 1.232 . S
C181 O182 1.218 . S
O182 C181 1.218 . S
C183 O176 1.275 . S
C183 O178 1.255 . S
C184 O185 1.258 . S
C184 O186 1.256 . S
O185 Cd177 2.381 . S
O185 C184 1.258 . S
O186 Cd177 2.378 . S
O186 C184 1.256 . S
O187 Cd188 2.300 . S
O187 C194 1.275 . S
Cd188 O187 2.300 . S
Cd188 O196 2.381 . S
Cd188 O197 2.378 . S
O189 Cd190 2.385 . S
O189 C194 1.255 . S
Cd190 O189 2.385 . S
Cd190 O191 2.317 . S
O191 Cd190 2.317 . S
O191 C192 1.232 . S
C192 O191 1.232 . S
C192 O193 1.218 . S
O193 C192 1.218 . S
C194 O187 1.275 . S
C194 O189 1.255 . S
C195 O196 1.258 . S
C195 O197 1.256 . S
O196 Cd188 2.381 . S
O196 C195 1.258 . S
O197 Cd188 2.378 . S
O197 C195 1.256 . S
C198 Eu199 2.835 . S
C198 C200 1.500 1_545 S
C198 O218 1.257 1_545 S
C198 O219 1.260 . S
Eu199 C198 2.835 . S
Eu199 O218 2.473 1_545 S
Eu199 O219 2.480 . S
Eu199 O220 2.430 . S
Eu199 O221 2.672 . S
Eu199 O222 2.394 1_545 S
Eu199 O227 2.355 1_545 S
Eu199 O229 2.374 . S
C200 C198 1.500 1_565 S
C200 C201 1.377 1_565 S
C200 C205 1.377 . S
C201 C200 1.377 1_545 S
C201 C202 1.395 . S
C201 H230 0.931 . S
C202 C201 1.395 . S
C202 C203 1.383 1_545 S
C202 H231 0.931 . S
C203 C202 1.383 1_565 S
C203 C204 1.394 . S
C204 C203 1.394 . S
C204 C205 1.378 . S
C204 H232 0.931 . S
C205 C200 1.377 . S
C205 C204 1.378 . S
C205 H233 0.931 . S
C206 O220 1.259 . S
C206 O221 1.270 . S
C207 O222 1.251 . S
C207 O223 1.251 1_554 S
C208 Eu209 2.835 1_545 S
C208 C210 1.500 . S
C208 O224 1.257 . S
C208 O225 1.260 1_545 S
Eu209 C208 2.835 1_565 S
Eu209 O221 2.355 1_566 S
Eu209 O223 2.374 . S
Eu209 O224 2.473 1_565 S
Eu209 O225 2.480 . S
Eu209 O226 2.430 . S
Eu209 O227 2.670 1_556 S
Eu209 O228 2.394 1_565 S
C210 C208 1.500 . S
C210 C211 1.377 1_545 S
C210 C215 1.377 . S
C211 C210 1.377 1_565 S
C211 C212 1.382 1_565 S
C211 H234 0.931 . S
C212 C211 1.382 1_545 S
C212 C213 1.442 . S
C212 H235 0.888 1_545 S
C213 C212 1.442 . S
C213 C214 1.394 . S
C214 C213 1.394 . S
C214 C215 1.378 . S
C214 H236 0.931 . S
C215 C210 1.377 . S
C215 C214 1.378 . S
C215 H237 0.931 . S
C216 O226 1.259 1_554 S
C216 O227 1.270 . S
C217 O228 1.251 . S
C217 O229 1.251 1_556 S
O218 C198 1.257 1_565 S
O218 Eu199 2.473 1_565 S
O219 C198 1.260 . S
O219 Eu199 2.480 . S
O220 Eu199 2.430 . S
O220 C206 1.259 . S
O221 Eu199 2.672 . S
O221 C206 1.270 . S
O221 Eu209 2.355 1_544 S
O222 Eu199 2.394 1_565 S
O222 C207 1.251 . S
O223 C207 1.251 1_556 S
O223 Eu209 2.374 . S
O224 C208 1.257 . S
O224 Eu209 2.473 1_545 S
O225 C208 1.260 1_565 S
O225 Eu209 2.480 . S
O226 Eu209 2.430 . S
O226 C216 1.259 1_556 S
O227 Eu199 2.355 1_565 S
O227 Eu209 2.670 1_554 S
O227 C216 1.270 . S
O228 Eu209 2.394 1_545 S
O228 C217 1.251 . S
O229 Eu199 2.374 . S
O229 C217 1.251 1_554 S
H230 C201 0.931 . S
H231 C202 0.931 . S
H232 C204 0.931 . S
H233 C205 0.931 . S
H234 C211 0.931 . S
H235 C212 0.888 1_565 S
H236 C214 0.931 . S
H237 C215 0.931 . S
C238 Eu239 2.835 1_455 S
C238 C240 1.500 . S
C238 O258 1.257 . S
C238 O259 1.260 1_455 S
Eu239 C238 2.835 1_655 S
Eu239 O258 2.473 1_655 S
Eu239 O259 2.480 . S
Eu239 O260 2.430 . S
Eu239 O261 2.670 . S
Eu239 O262 2.394 1_655 S
Eu239 O267 2.355 1_655 S
Eu239 O269 2.374 . S
C240 C238 1.500 . S
C240 C241 1.377 . S
C240 C245 1.377 . S
C241 C240 1.377 . S
C241 C242 1.395 . S
C241 H270 0.931 1_455 S
C242 C241 1.395 . S
C242 C243 1.383 . S
C242 H271 0.931 . S
C243 C242 1.383 . S
C243 C244 1.394 . S
C244 C243 1.394 . S
C244 C245 1.378 . S
C244 H272 0.931 . S
C245 C240 1.377 . S
C245 C244 1.378 . S
C245 H273 0.931 . S
C246 O260 1.259 . S
C246 O261 1.270 . S
C247 O262 1.251 . S
C247 O263 1.251 . S
C248 Eu249 2.835 1_655 S
C248 C250 1.500 . S
C248 O264 1.257 . S
C248 O265 1.260 1_655 S
Eu249 C248 2.835 1_455 S
Eu249 O261 2.355 1_456 S
Eu249 O263 2.374 1_556 S
Eu249 O264 2.473 1_455 S
Eu249 O265 2.480 . S
Eu249 O266 2.446 . S
Eu249 O267 2.670 1_556 S
Eu249 O268 2.394 1_455 S
C250 C248 1.500 . S
C250 C251 1.377 . S
C250 C255 1.377 . S
C251 C250 1.377 . S
C251 C252 1.395 . S
C251 H274 0.931 1_655 S
C252 C251 1.395 . S
C252 C253 1.383 . S
C252 H275 0.931 . S
C253 C252 1.383 . S
C253 C254 1.394 . S
C254 C253 1.394 . S
C254 C255 1.378 . S
C254 H276 0.931 . S
C255 C250 1.377 . S
C255 C254 1.378 . S
C255 H277 0.931 . S
C256 O266 1.185 1_554 S
C256 O267 1.270 . S
C257 O268 1.261 . S
C257 O269 1.234 1_556 S
O258 C238 1.257 . S
O258 Eu239 2.473 1_455 S
O259 C238 1.260 1_655 S
O259 Eu239 2.480 . S
O260 Eu239 2.430 . S
O260 C246 1.259 . S
O261 Eu239 2.670 . S
O261 C246 1.270 . S
O261 Eu249 2.355 1_654 S
O262 Eu239 2.394 1_455 S
O262 C247 1.251 . S
O263 C247 1.251 . S
O263 Eu249 2.374 1_554 S
O264 C248 1.257 . S
O264 Eu249 2.473 1_655 S
O265 C248 1.260 1_455 S
O265 Eu249 2.480 . S
O266 Eu249 2.446 . S
O266 C256 1.185 1_556 S
O267 Eu239 2.355 1_455 S
O267 Eu249 2.670 1_554 S
O267 C256 1.270 . S
O268 Eu249 2.394 1_655 S
O268 C257 1.261 . S
O269 Eu239 2.374 . S
O269 C257 1.234 1_554 S
H270 C241 0.931 1_655 S
H271 C242 0.931 . S
H272 C244 0.931 . S
H273 C245 0.931 . S
H274 C251 0.931 1_455 S
H275 C252 0.931 . S
H276 C254 0.931 . S
H277 C255 0.931 . S
C278 Eu279 2.835 . S
C278 C280 1.500 . S
C278 O298 1.257 . S
C278 O299 1.260 . S
Eu279 C278 2.835 . S
Eu279 O298 2.473 . S
Eu279 O299 2.480 . S
Eu279 O300 2.430 . S
Eu279 O301 2.670 1_556 S
Eu279 O302 2.394 . S
Eu279 O307 2.355 . S
Eu279 O309 2.374 . S
C280 C278 1.500 . S
C280 C281 1.377 . S
C280 C285 1.377 . S
C281 C280 1.377 . S
C281 C282 1.395 . S
C281 H310 0.931 . S
C282 C281 1.395 . S
C282 C283 1.383 . S
C282 H311 0.931 . S
C283 C282 1.383 . S
C283 C284 1.394 . S
C284 C283 1.394 . S
C284 C285 1.378 . S
C284 H312 0.931 . S
C285 C280 1.377 . S
C285 C284 1.378 . S
C285 H313 0.931 . S
C286 O300 1.259 1_554 S
C286 O301 1.270 . S
C287 O302 1.251 . S
C287 O303 1.251 1_556 S
C288 Eu289 2.835 . S
C288 C290 1.500 . S
C288 O304 1.257 . S
C288 O305 1.260 . S
Eu289 C288 2.835 . S
Eu289 O301 2.355 . S
Eu289 O303 2.374 . S
Eu289 O304 2.473 . S
Eu289 O305 2.480 . S
Eu289 O306 2.430 . S
Eu289 O307 2.670 1_554 S
Eu289 O308 2.394 . S
C290 C288 1.500 . S
C290 C291 1.377 . S
C290 C295 1.377 . S
C291 C290 1.377 . S
C291 C292 1.395 . S
C291 H314 0.931 . S
C292 C291 1.395 . S
C292 C293 1.383 . S
C292 H315 0.931 . S
C293 C292 1.383 . S
C293 C294 1.394 . S
C294 C293 1.394 . S
C294 C295 1.378 . S
C294 H316 0.931 . S
C295 C290 1.377 . S
C295 C294 1.378 . S
C295 H317 0.931 . S
C296 O306 1.259 . S
C296 O307 1.270 1_554 S
C297 O308 1.251 . S
C297 O309 1.251 1_554 S
O298 C278 1.257 . S
O298 Eu279 2.473 . S
O299 C278 1.260 . S
O299 Eu279 2.480 . S
O300 Eu279 2.430 . S
O300 C286 1.259 1_556 S
O301 Eu279 2.670 1_554 S
O301 C286 1.270 . S
O301 Eu289 2.355 . S
O302 Eu279 2.394 . S
O302 C287 1.251 . S
O303 C287 1.251 1_554 S
O303 Eu289 2.374 . S
O304 C288 1.257 . S
O304 Eu289 2.473 . S
O305 C288 1.260 . S
O305 Eu289 2.480 . S
O306 Eu289 2.430 . S
O306 C296 1.259 . S
O307 Eu279 2.355 . S
O307 Eu289 2.670 1_556 S
O307 C296 1.270 1_556 S
O308 Eu289 2.394 . S
O308 C297 1.251 . S
O309 Eu279 2.374 . S
O309 C297 1.251 1_556 S
H310 C281 0.931 . S
H311 C282 0.931 . S
H312 C284 0.931 . S
H313 C285 0.931 . S
H314 C291 0.931 . S
H315 C292 0.931 . S
H316 C294 0.931 . S
H317 C295 0.931 . S
C318 Eu319 2.835 . S
C318 C320 1.500 . S
C318 O338 1.257 . S
C318 O339 1.260 . S
Eu319 C318 2.835 . S
Eu319 O338 2.473 . S
Eu319 O339 2.480 . S
Eu319 O340 2.430 . S
Eu319 O341 2.670 . S
Eu319 O342 2.394 . S
Eu319 O347 2.355 . S
Eu319 O349 2.374 . S
C320 C318 1.500 . S
C320 C321 1.377 . S
C320 C325 1.377 . S
C321 C320 1.377 . S
C321 C322 1.395 . S
C321 H350 0.931 . S
C322 C321 1.395 . S
C322 C323 1.383 . S
C322 H351 0.931 . S
C323 C322 1.383 . S
C323 C324 1.394 . S
C324 C323 1.394 . S
C324 C325 1.378 . S
C324 H352 0.931 . S
C325 C320 1.377 . S
C325 C324 1.378 . S
C325 H353 0.931 . S
C326 O340 1.259 . S
C326 O341 1.270 . S
C327 O342 1.251 . S
C327 O343 1.251 . S
C328 Eu329 2.835 . S
C328 C330 1.500 . S
C328 O344 1.257 . S
C328 O345 1.260 . S
Eu329 C328 2.835 . S
Eu329 O341 2.355 . S
Eu329 O343 2.374 . S
Eu329 O344 2.473 . S
Eu329 O345 2.480 . S
Eu329 O346 2.430 . S
Eu329 O347 2.670 . S
Eu329 O348 2.394 . S
C330 C328 1.500 . S
C330 C331 1.377 . S
C330 C335 1.377 . S
C331 C330 1.377 . S
C331 C332 1.395 . S
C331 H354 0.931 . S
C332 C331 1.395 . S
C332 C333 1.383 . S
C332 H355 0.931 . S
C333 C332 1.383 . S
C333 C334 1.394 . S
C334 C333 1.394 . S
C334 C335 1.378 . S
C334 H356 0.931 . S
C335 C330 1.377 . S
C335 C334 1.378 . S
C335 H357 0.931 . S
C336 O346 1.259 . S
C336 O347 1.270 . S
C337 O348 1.251 . S
C337 O349 1.251 . S
O338 C318 1.257 . S
O338 Eu319 2.473 . S
O339 C318 1.260 . S
O339 Eu319 2.480 . S
O340 Eu319 2.430 . S
O340 C326 1.259 . S
O341 Eu319 2.670 . S
O341 C326 1.270 . S
O341 Eu329 2.355 . S
O342 Eu319 2.394 . S
O342 C327 1.251 . S
O343 C327 1.251 . S
O343 Eu329 2.374 . S
O344 C328 1.257 . S
O344 Eu329 2.473 . S
O345 C328 1.260 . S
O345 Eu329 2.480 . S
O346 Eu329 2.430 . S
O346 C336 1.259 . S
O347 Eu319 2.355 . S
O347 Eu329 2.670 . S
O347 C336 1.270 . S
O348 Eu329 2.394 . S
O348 C337 1.251 . S
O349 Eu319 2.374 . S
O349 C337 1.251 . S
H350 C321 0.931 . S
H351 C322 0.931 . S
H352 C324 0.931 . S
H353 C325 0.931 . S
H354 C331 0.931 . S
H355 C332 0.931 . S
H356 C334 0.931 . S
H357 C335 0.931 . S
C358 Eu359 2.835 . S
C358 C360 1.500 . S
C358 O378 1.257 . S
C358 O379 1.260 . S
Eu359 C358 2.835 . S
Eu359 O378 2.473 . S
Eu359 O379 2.480 . S
Eu359 O380 2.430 . S
Eu359 O381 2.670 . S
Eu359 O382 2.394 . S
Eu359 O387 2.355 . S
Eu359 O389 2.374 . S
C360 C358 1.500 . S
C360 C361 1.377 . S
C360 C365 1.377 . S
C361 C360 1.377 . S
C361 C362 1.395 . S
C361 H390 0.931 . S
C362 C361 1.395 . S
C362 C363 1.383 . S
C362 H391 0.931 . S
C363 C362 1.383 . S
C363 C364 1.394 . S
C364 C363 1.394 . S
C364 C365 1.378 . S
C364 H392 0.931 . S
C365 C360 1.377 . S
C365 C364 1.378 . S
C365 H393 0.931 . S
C366 O380 1.259 . S
C366 O381 1.270 . S
C367 O382 1.251 . S
C367 O383 1.251 . S
C368 Eu369 2.835 . S
C368 C370 1.500 . S
C368 O384 1.257 . S
C368 O385 1.260 . S
Eu369 C368 2.835 . S
Eu369 O381 2.355 . S
Eu369 O383 2.374 . S
Eu369 O384 2.473 . S
Eu369 O385 2.480 . S
Eu369 O386 2.430 . S
Eu369 O387 2.670 . S
Eu369 O388 2.394 . S
C370 C368 1.500 . S
C370 C371 1.377 . S
C370 C375 1.377 . S
C371 C370 1.377 . S
C371 C372 1.395 . S
C371 H394 0.931 . S
C372 C371 1.395 . S
C372 C373 1.383 . S
C372 H395 0.931 . S
C373 C372 1.383 . S
C373 C374 1.394 . S
C374 C373 1.394 . S
C374 C375 1.378 . S
C374 H396 0.931 . S
C375 C370 1.377 . S
C375 C374 1.378 . S
C375 H397 0.931 . S
C376 O386 1.259 . S
C376 O387 1.270 . S
C377 O388 1.251 . S
C377 O389 1.251 . S
O378 C358 1.257 . S
O378 Eu359 2.473 . S
O379 C358 1.260 . S
O379 Eu359 2.480 . S
O380 Eu359 2.430 . S
O380 C366 1.259 . S
O381 Eu359 2.670 . S
O381 C366 1.270 . S
O381 Eu369 2.355 . S
O382 Eu359 2.394 . S
O382 C367 1.251 . S
O383 C367 1.251 . S
O383 Eu369 2.374 . S
O384 C368 1.257 . S
O384 Eu369 2.473 . S
O385 C368 1.260 . S
O385 Eu369 2.480 . S
O386 Eu369 2.430 . S
O386 C376 1.259 . S
O387 Eu359 2.355 . S
O387 Eu369 2.670 . S
O387 C376 1.270 . S
O388 Eu369 2.394 . S
O388 C377 1.251 . S
O389 Eu359 2.374 . S
O389 C377 1.251 . S
H390 C361 0.931 . S
H391 C362 0.931 . S
H392 C364 0.931 . S
H393 C365 0.931 . S
H394 C371 0.931 . S
H395 C372 0.931 . S
H396 C374 0.931 . S
H397 C375 0.931 . S
C398 Eu399 2.835 . S
C398 C400 1.500 . S
C398 O418 1.257 . S
C398 O419 1.260 . S
Eu399 C398 2.835 . S
Eu399 O418 2.473 . S
Eu399 O419 2.480 . S
Eu399 O420 2.430 . S
Eu399 O421 2.670 . S
Eu399 O422 2.394 . S
Eu399 O427 2.355 . S
Eu399 O429 2.374 . S
C400 C398 1.500 . S
C400 C401 1.377 . S
C400 C405 1.377 . S
C401 C400 1.377 . S
C401 C402 1.395 . S
C401 H430 0.931 . S
C402 C401 1.395 . S
C402 C403 1.383 . S
C402 H431 0.931 . S
C403 C402 1.383 . S
C403 C404 1.394 . S
C404 C403 1.394 . S
C404 C405 1.378 . S
C404 H432 0.931 . S
C405 C400 1.377 . S
C405 C404 1.378 . S
C405 H433 0.931 . S
C406 O420 1.259 . S
C406 O421 1.270 . S
C407 O422 1.251 . S
C407 O423 1.251 . S
C408 Eu409 2.835 . S
C408 C410 1.500 . S
C408 O424 1.257 . S
C408 O425 1.260 . S
Eu409 C408 2.835 . S
Eu409 O421 2.355 . S
Eu409 O423 2.374 . S
Eu409 O424 2.473 . S
Eu409 O425 2.480 . S
Eu409 O426 2.430 . S
Eu409 O427 2.670 . S
Eu409 O428 2.394 . S
C410 C408 1.500 . S
C410 C411 1.377 . S
C410 C415 1.377 . S
C411 C410 1.377 . S
C411 C412 1.395 . S
C411 H434 0.931 . S
C412 C411 1.395 . S
C412 C413 1.383 . S
C412 H435 0.931 . S
C413 C412 1.383 . S
C413 C414 1.394 . S
C414 C413 1.394 . S
C414 C415 1.378 . S
C414 H436 0.931 . S
C415 C410 1.377 . S
C415 C414 1.378 . S
C415 H437 0.931 . S
C416 O426 1.259 . S
C416 O427 1.270 . S
C417 O428 1.251 . S
C417 O429 1.251 . S
O418 C398 1.257 . S
O418 Eu399 2.473 . S
O419 C398 1.260 . S
O419 Eu399 2.480 . S
O420 Eu399 2.430 . S
O420 C406 1.259 . S
O421 Eu399 2.670 . S
O421 C406 1.270 . S
O421 Eu409 2.355 . S
O422 Eu399 2.394 . S
O422 C407 1.251 . S
O423 C407 1.251 . S
O423 Eu409 2.374 . S
O424 C408 1.257 . S
O424 Eu409 2.473 . S
O425 C408 1.260 . S
O425 Eu409 2.480 . S
O426 Eu409 2.430 . S
O426 C416 1.259 . S
O427 Eu399 2.355 . S
O427 Eu409 2.670 . S
O427 C416 1.270 . S
O428 Eu409 2.394 . S
O428 C417 1.251 . S
O429 Eu399 2.374 . S
O429 C417 1.251 . S
H430 C401 0.931 . S
H431 C402 0.931 . S
H432 C404 0.931 . S
H433 C405 0.931 . S
H434 C411 0.931 . S
H435 C412 0.931 . S
H436 C414 0.931 . S
H437 C415 0.931 . S
C438 Eu439 2.835 . S
C438 C440 1.500 . S
C438 O458 1.257 . S
C438 O459 1.260 . S
Eu439 C438 2.835 . S
Eu439 O458 2.473 . S
Eu439 O459 2.480 . S
Eu439 O460 2.430 . S
Eu439 O461 2.670 . S
Eu439 O462 2.394 . S
Eu439 O467 2.355 . S
Eu439 O469 2.374 . S
C440 C438 1.500 . S
C440 C441 1.377 . S
C440 C445 1.377 . S
C441 C440 1.377 . S
C441 C442 1.395 . S
C441 H470 0.931 . S
C442 C441 1.395 . S
C442 C443 1.383 . S
C442 H471 0.931 . S
C443 C442 1.383 . S
C443 C444 1.394 . S
C444 C443 1.394 . S
C444 C445 1.378 . S
C444 H472 0.931 . S
C445 C440 1.377 . S
C445 C444 1.378 . S
C445 H473 0.931 . S
C446 O460 1.259 . S
C446 O461 1.270 . S
C447 O462 1.251 . S
C447 O463 1.251 . S
C448 Eu449 2.835 . S
C448 C450 1.500 . S
C448 O464 1.257 . S
C448 O465 1.260 . S
Eu449 C448 2.835 . S
Eu449 O461 2.355 . S
Eu449 O463 2.374 . S
Eu449 O464 2.473 . S
Eu449 O465 2.480 . S
Eu449 O466 2.430 . S
Eu449 O467 2.670 . S
Eu449 O468 2.394 . S
C450 C448 1.500 . S
C450 C451 1.377 . S
C450 C455 1.377 . S
C451 C450 1.377 . S
C451 C452 1.395 . S
C451 H474 0.931 . S
C452 C451 1.395 . S
C452 C453 1.383 . S
C452 H475 0.931 . S
C453 C452 1.383 . S
C453 C454 1.394 . S
C454 C453 1.394 . S
C454 C455 1.378 . S
C454 H476 0.931 . S
C455 C450 1.377 . S
C455 C454 1.378 . S
C455 H477 0.931 . S
C456 O466 1.259 . S
C456 O467 1.270 . S
C457 O468 1.251 . S
C457 O469 1.251 . S
O458 C438 1.257 . S
O458 Eu439 2.473 . S
O459 C438 1.260 . S
O459 Eu439 2.480 . S
O460 Eu439 2.430 . S
O460 C446 1.259 . S
O461 Eu439 2.670 . S
O461 C446 1.270 . S
O461 Eu449 2.355 . S
O462 Eu439 2.394 . S
O462 C447 1.251 . S
O463 C447 1.251 . S
O463 Eu449 2.374 . S
O464 C448 1.257 . S
O464 Eu449 2.473 . S
O465 C448 1.260 . S
O465 Eu449 2.480 . S
O466 Eu449 2.430 . S
O466 C456 1.259 . S
O467 Eu439 2.355 . S
O467 Eu449 2.670 . S
O467 C456 1.270 . S
O468 Eu449 2.394 . S
O468 C457 1.251 . S
O469 Eu439 2.374 . S
O469 C457 1.251 . S
H470 C441 0.931 . S
H471 C442 0.931 . S
H472 C444 0.931 . S
H473 C445 0.931 . S
H474 C451 0.931 . S
H475 C452 0.931 . S
H476 C454 0.931 . S
H477 C455 0.931 . S
C478 Eu479 2.835 . S
C478 C480 1.500 . S
C478 O498 1.257 . S
C478 O499 1.260 . S
Eu479 C478 2.835 . S
Eu479 O498 2.473 . S
Eu479 O499 2.480 . S
Eu479 O500 2.430 . S
Eu479 O501 2.670 . S
Eu479 O502 2.394 . S
Eu479 O507 2.355 . S
Eu479 O509 2.374 . S
C480 C478 1.500 . S
C480 C481 1.377 . S
C480 C485 1.377 . S
C481 C480 1.377 . S
C481 C482 1.395 . S
C481 H510 0.931 . S
C482 C481 1.395 . S
C482 C483 1.383 . S
C482 H511 0.931 . S
C483 C482 1.383 . S
C483 C484 1.394 . S
C484 C483 1.394 . S
C484 C485 1.378 . S
C484 H512 0.931 . S
C485 C480 1.377 . S
C485 C484 1.378 . S
C485 H513 0.931 . S
C486 O500 1.259 . S
C486 O501 1.270 . S
C487 O502 1.251 . S
C487 O503 1.251 . S
C488 Eu489 2.835 . S
C488 C490 1.500 . S
C488 O504 1.257 . S
C488 O505 1.260 . S
Eu489 C488 2.835 . S
Eu489 O501 2.355 . S
Eu489 O503 2.374 . S
Eu489 O504 2.473 . S
Eu489 O505 2.480 . S
Eu489 O506 2.430 . S
Eu489 O507 2.670 . S
Eu489 O508 2.394 . S
C490 C488 1.500 . S
C490 C491 1.377 . S
C490 C495 1.377 . S
C491 C490 1.377 . S
C491 C492 1.395 . S
C491 H514 0.931 . S
C492 C491 1.395 . S
C492 C493 1.383 . S
C492 H515 0.931 . S
C493 C492 1.383 . S
C493 C494 1.394 . S
C494 C493 1.394 . S
C494 C495 1.378 . S
C494 H516 0.931 . S
C495 C490 1.377 . S
C495 C494 1.378 . S
C495 H517 0.931 . S
C496 O506 1.259 . S
C496 O507 1.270 . S
C497 O508 1.251 . S
C497 O509 1.251 . S
O498 C478 1.257 . S
O498 Eu479 2.473 . S
O499 C478 1.260 . S
O499 Eu479 2.480 . S
O500 Eu479 2.430 . S
O500 C486 1.259 . S
O501 Eu479 2.670 . S
O501 C486 1.270 . S
O501 Eu489 2.355 . S
O502 Eu479 2.394 . S
O502 C487 1.251 . S
O503 C487 1.251 . S
O503 Eu489 2.374 . S
O504 C488 1.257 . S
O504 Eu489 2.473 . S
O505 C488 1.260 . S
O505 Eu489 2.480 . S
O506 Eu489 2.430 . S
O506 C496 1.259 . S
O507 Eu479 2.355 . S
O507 Eu489 2.670 . S
O507 C496 1.270 . S
O508 Eu489 2.394 . S
O508 C497 1.251 . S
O509 Eu479 2.374 . S
O509 C497 1.251 . S
H510 C481 0.931 . S
H511 C482 0.931 . S
H512 C484 0.931 . S
H513 C485 0.931 . S
H514 C491 0.931 . S
H515 C492 0.931 . S
H516 C494 0.931 . S
H517 C495 0.931 . S
C518 Eu519 2.835 . S
C518 C520 1.500 . S
C518 O538 1.257 . S
C518 O539 1.260 . S
Eu519 C518 2.835 . S
Eu519 O538 2.473 . S
Eu519 O539 2.480 . S
Eu519 O540 2.430 . S
Eu519 O541 2.670 . S
Eu519 O542 2.394 . S
Eu519 O547 2.355 . S
Eu519 O549 2.374 . S
C520 C518 1.500 . S
C520 C521 1.377 . S
C520 C525 1.377 . S
C521 C520 1.377 . S
C521 C522 1.395 . S
C521 H550 0.931 . S
C522 C521 1.395 . S
C522 C523 1.383 . S
C522 H551 0.931 . S
C523 C522 1.383 . S
C523 C524 1.394 . S
C524 C523 1.394 . S
C524 C525 1.378 . S
C524 H552 0.931 . S
C525 C520 1.377 . S
C525 C524 1.378 . S
C525 H553 0.931 . S
C526 O540 1.259 . S
C526 O541 1.270 . S
C527 O542 1.251 . S
C527 O543 1.251 . S
C528 Eu529 2.835 . S
C528 C530 1.500 . S
C528 O544 1.257 . S
C528 O545 1.260 . S
Eu529 C528 2.835 . S
Eu529 O541 2.355 . S
Eu529 O543 2.374 . S
Eu529 O544 2.473 . S
Eu529 O545 2.480 . S
Eu529 O546 2.430 . S
Eu529 O547 2.670 . S
Eu529 O548 2.394 . S
C530 C528 1.500 . S
C530 C531 1.377 . S
C530 C535 1.377 . S
C531 C530 1.377 . S
C531 C532 1.395 . S
C531 H554 0.931 . S
C532 C531 1.395 . S
C532 C533 1.383 . S
C532 H555 0.931 . S
C533 C532 1.383 . S
C533 C534 1.394 . S
C534 C533 1.394 . S
C534 C535 1.378 . S
C534 H556 0.931 . S
C535 C530 1.377 . S
C535 C534 1.378 . S
C535 H557 0.931 . S
C536 O546 1.259 . S
C536 O547 1.270 . S
C537 O548 1.251 . S
C537 O549 1.251 . S
O538 C518 1.257 . S
O538 Eu519 2.473 . S
O539 C518 1.260 . S
O539 Eu519 2.480 . S
O540 Eu519 2.430 . S
O540 C526 1.259 . S
O541 Eu519 2.670 . S
O541 C526 1.270 . S
O541 Eu529 2.355 . S
O542 Eu519 2.394 . S
O542 C527 1.251 . S
O543 C527 1.251 . S
O543 Eu529 2.374 . S
O544 C528 1.257 . S
O544 Eu529 2.473 . S
O545 C528 1.260 . S
O545 Eu529 2.480 . S
O546 Eu529 2.430 . S
O546 C536 1.259 . S
O547 Eu519 2.355 . S
O547 Eu529 2.670 . S
O547 C536 1.270 . S
O548 Eu529 2.394 . S
O548 C537 1.251 . S
O549 Eu519 2.374 . S
O549 C537 1.251 . S
H550 C521 0.931 . S
H551 C522 0.931 . S
H552 C524 0.931 . S
H553 C525 0.931 . S
H554 C531 0.931 . S
H555 C532 0.931 . S
H556 C534 0.931 . S
H557 C535 0.931 . S
H558 C566 0.929 . S
H559 C568 0.930 . S
H560 C570 0.930 . S
H561 C573 0.929 . S
H562 C576 0.930 . S
H563 C578 0.960 . S
H564 C578 0.960 . S
H565 C578 0.960 . S
C566 H558 0.929 . S
C566 C567 1.377 . S
C566 C568 1.384 . S
C567 C566 1.377 . S
C567 C573 1.390 . S
C568 H559 0.930 . S
C568 C566 1.384 . S
C568 C569 1.372 . S
C569 C568 1.372 . S
C569 C570 1.400 . S
C569 C574 1.490 . S
C570 H560 0.930 . S
C570 C569 1.400 . S
C570 C573 1.386 . S
H571 C587 0.930 . S
H572 C588 0.931 . S
C573 H561 0.929 . S
C573 C567 1.390 . S
C573 C570 1.386 . S
C574 C569 1.490 . S
C574 C576 1.395 . S
C574 C577 1.403 . S
H575 C581 0.930 . S
C576 H562 0.930 . S
C576 C574 1.395 . S
C576 C579 1.403 . S
C577 C574 1.403 . S
C577 C578 1.524 . S
C577 C581 1.400 . S
C578 H563 0.960 . S
C578 H564 0.960 . S
C578 H565 0.960 . S
C578 C577 1.524 . S
C579 C576 1.403 . S
C579 C580 1.392 . S
C579 C583 1.495 . S
C580 C579 1.392 . S
C580 C581 1.385 . S
C580 C582 1.478 . S
C581 H575 0.930 . S
C581 C577 1.400 . S
C581 C580 1.385 . S
C582 C580 1.478 . S
C582 C584 1.381 . S
C582 C588 1.383 . S
C583 C579 1.495 . S
C583 H589 0.959 . S
C583 H590 0.961 . S
C583 H591 0.960 . S
C584 C582 1.381 . S
C584 C585 1.394 . S
C584 H592 0.924 1_554 S
C585 C584 1.394 . S
C585 C586 1.383 . S
C585 H593 0.929 1_554 S
C586 C585 1.383 . S
C586 C587 1.377 . S
C587 H571 0.930 . S
C587 C586 1.377 . S
C587 C588 1.379 . S
C588 H572 0.931 . S
C588 C582 1.383 . S
C588 C587 1.379 . S
H589 C583 0.959 . S
H590 C583 0.961 . S
H591 C583 0.960 . S
H592 C584 0.924 1_556 S
H593 C585 0.929 1_556 S
H594 C602 0.929 . S
H595 C604 0.930 . S
H596 C606 0.930 . S
H597 C609 0.929 . S
H598 C612 0.930 . S
H599 C614 0.960 . S
H600 C614 0.960 . S
H601 C614 0.960 . S
C602 H594 0.929 . S
C602 C603 1.377 . S
C602 C604 1.384 . S
C603 C602 1.377 . S
C603 C609 1.390 . S
C604 H595 0.930 . S
C604 C602 1.384 . S
C604 C605 1.372 . S
C605 C604 1.372 . S
C605 C606 1.400 . S
C605 C610 1.490 . S
C606 H596 0.930 . S
C606 C605 1.400 . S
C606 C609 1.386 . S
H607 C623 0.930 . S
H608 C624 0.931 . S
C609 H597 0.929 . S
C609 C603 1.390 . S
C609 C606 1.386 . S
C610 C605 1.490 . S
C610 C612 1.395 . S
C610 C613 1.403 . S
H611 C617 0.930 . S
C612 H598 0.930 . S
C612 C610 1.395 . S
C612 C615 1.403 . S
C613 C610 1.403 . S
C613 C614 1.524 . S
C613 C617 1.400 . S
C614 H599 0.960 . S
C614 H600 0.960 . S
C614 H601 0.960 . S
C614 C613 1.524 . S
C615 C612 1.403 . S
C615 C616 1.392 . S
C615 C619 1.495 . S
C616 C615 1.392 . S
C616 C617 1.385 . S
C616 C618 1.478 . S
C617 H611 0.930 . S
C617 C613 1.400 . S
C617 C616 1.385 . S
C618 C616 1.478 . S
C618 C620 1.381 . S
C618 C624 1.383 . S
C619 C615 1.495 . S
C619 H625 0.959 . S
C619 H626 0.961 . S
C619 H627 0.960 . S
C620 C618 1.381 . S
C620 C621 1.394 . S
C620 H628 0.930 . S
C621 C620 1.394 . S
C621 C622 1.383 . S
C621 H629 0.929 . S
C622 C621 1.383 . S
C622 C623 1.377 . S
C623 H607 0.930 . S
C623 C622 1.377 . S
C623 C624 1.379 . S
C624 H608 0.931 . S
C624 C618 1.383 . S
C624 C623 1.379 . S
H625 C619 0.959 . S
H626 C619 0.961 . S
H627 C619 0.960 . S
H628 C620 0.930 . S
H629 C621 0.929 . S
H630 C638 0.929 . S
H631 C640 0.930 . S
H632 C642 0.930 . S
H633 C645 0.929 . S
H634 C648 0.930 . S
H635 C650 0.960 . S
H636 C650 0.960 . S
H637 C650 0.960 . S
C638 H630 0.929 . S
C638 C639 1.377 . S
C638 C640 1.384 . S
C639 C638 1.377 . S
C639 C645 1.390 . S
C640 H631 0.930 . S
C640 C638 1.384 . S
C640 C641 1.372 . S
C641 C640 1.372 . S
C641 C642 1.400 . S
C641 C646 1.490 . S
C642 H632 0.930 . S
C642 C641 1.400 . S
C642 C645 1.386 . S
H643 C659 0.930 . S
H644 C660 0.931 . S
C645 H633 0.929 . S
C645 C639 1.390 . S
C645 C642 1.386 . S
C646 C641 1.490 . S
C646 C648 1.395 . S
C646 C649 1.403 . S
H647 C653 0.930 . S
C648 H634 0.930 . S
C648 C646 1.395 . S
C648 C651 1.403 . S
C649 C646 1.403 . S
C649 C650 1.524 . S
C649 C653 1.400 . S
C650 H635 0.960 . S
C650 H636 0.960 . S
C650 H637 0.960 . S
C650 C649 1.524 . S
C651 C648 1.403 . S
C651 C652 1.392 . S
C651 C655 1.495 1_554 S
C652 C651 1.392 . S
C652 C653 1.385 . S
C652 C654 1.478 . S
C653 H647 0.930 . S
C653 C649 1.400 . S
C653 C652 1.385 . S
C654 C652 1.478 . S
C654 C656 1.381 . S
C654 C660 1.383 . S
C655 C651 1.495 1_556 S
C655 H661 0.959 . S
C655 H662 0.961 . S
C655 H663 0.960 . S
C656 C654 1.381 . S
C656 C657 1.394 . S
C656 H664 0.930 . S
C657 C656 1.394 . S
C657 C658 1.383 . S
C657 H665 0.929 . S
C658 C657 1.383 . S
C658 C659 1.377 . S
C659 H643 0.930 . S
C659 C658 1.377 . S
C659 C660 1.379 . S
C660 H644 0.931 . S
C660 C654 1.383 . S
C660 C659 1.379 . S
H661 C655 0.959 . S
H662 C655 0.961 . S
H663 C655 0.960 . S
H664 C656 0.930 . S
H665 C657 0.929 . S
H666 C674 0.929 . S
H667 C676 0.930 . S
H668 C678 0.930 . S
H669 C681 0.929 . S
H670 C684 0.930 . S
H671 C686 0.958 1_554 S
H672 C686 0.958 1_554 S
H673 C686 0.962 . S
C674 H666 0.929 . S
C674 C675 1.377 . S
C674 C676 1.384 . S
C675 C674 1.377 . S
C675 C681 1.390 . S
C676 H667 0.930 . S
C676 C674 1.384 . S
C676 C677 1.372 . S
C677 C676 1.372 . S
C677 C678 1.400 . S
C677 C682 1.490 . S
C678 H668 0.930 . S
C678 C677 1.400 . S
C678 C681 1.386 . S
H679 C695 0.930 . S
H680 C696 0.931 . S
C681 H669 0.929 . S
C681 C675 1.390 . S
C681 C678 1.386 . S
C682 C677 1.490 . S
C682 C684 1.395 . S
C682 C685 1.403 . S
H683 C689 0.928 1_554 S
C684 H670 0.930 . S
C684 C682 1.395 . S
C684 C687 1.403 . S
C685 C682 1.403 . S
C685 C686 1.526 . S
C685 C689 1.400 . S
C686 H671 0.958 1_556 S
C686 H672 0.958 1_556 S
C686 H673 0.962 . S
C686 C685 1.526 . S
C687 C684 1.403 . S
C687 C688 1.392 . S
C687 C691 1.495 . S
C688 C687 1.392 . S
C688 C689 1.385 . S
C688 C690 1.478 . S
C689 H683 0.928 1_556 S
C689 C685 1.400 . S
C689 C688 1.385 . S
C690 C688 1.478 . S
C690 C692 1.381 . S
C690 C696 1.383 . S
C691 C687 1.495 . S
C691 H697 0.959 . S
C691 H698 0.961 . S
C691 H699 0.960 . S
C692 C690 1.381 . S
C692 C693 1.394 1_556 S
C692 H700 0.930 . S
C693 C692 1.394 1_554 S
C693 C694 1.383 1_554 S
C693 H701 0.929 . S
C694 C693 1.383 1_556 S
C694 C695 1.377 . S
C695 H679 0.930 . S
C695 C694 1.377 . S
C695 C696 1.379 . S
C696 H680 0.931 . S
C696 C690 1.383 . S
C696 C695 1.379 . S
H697 C691 0.959 . S
H698 C691 0.961 . S
H699 C691 0.960 . S
H700 C692 0.930 . S
H701 C693 0.929 . S
H702 C710 0.929 . S
H703 C712 0.930 . S
H704 C714 0.930 . S
H705 C717 0.929 . S
H706 C720 0.930 . S
H707 C722 0.960 . S
H708 C722 0.960 . S
H709 C722 0.960 . S
C710 H702 0.929 . S
C710 C711 1.377 . S
C710 C712 1.384 . S
C711 C710 1.377 . S
C711 C717 1.390 . S
C712 H703 0.930 . S
C712 C710 1.384 . S
C712 C713 1.372 . S
C713 C712 1.372 . S
C713 C714 1.400 . S
C713 C718 1.490 . S
C714 H704 0.930 . S
C714 C713 1.400 . S
C714 C717 1.386 . S
H715 C731 0.930 . S
H716 C732 0.931 . S
C717 H705 0.929 . S
C717 C711 1.390 . S
C717 C714 1.386 . S
C718 C713 1.490 . S
C718 C720 1.395 . S
C718 C721 1.403 . S
H719 C725 0.930 . S
C720 H706 0.930 . S
C720 C718 1.395 . S
C720 C723 1.403 . S
C721 C718 1.403 . S
C721 C722 1.524 . S
C721 C725 1.400 . S
C722 H707 0.960 . S
C722 H708 0.960 . S
C722 H709 0.960 . S
C722 C721 1.524 . S
C723 C720 1.403 . S
C723 C724 1.392 . S
C723 C727 1.535 . S
C724 C723 1.392 . S
C724 C725 1.385 . S
C724 C726 1.478 . S
C725 H719 0.930 . S
C725 C721 1.400 . S
C725 C724 1.385 . S
C726 C724 1.478 . S
C726 C728 1.381 . S
C726 C732 1.383 . S
C727 C723 1.535 . S
C727 H733 0.947 1_556 S
C727 H734 0.935 1_556 S
C727 H735 0.960 . S
C728 C726 1.381 . S
C728 C729 1.394 . S
C728 H736 0.930 . S
C729 C728 1.394 . S
C729 C730 1.383 . S
C729 H737 0.929 . S
C730 C729 1.383 . S
C730 C731 1.377 . S
C731 H715 0.930 . S
C731 C730 1.377 . S
C731 C732 1.379 . S
C732 H716 0.931 . S
C732 C726 1.383 . S
C732 C731 1.379 . S
H733 C727 0.947 1_554 S
H734 C727 0.935 1_554 S
H735 C727 0.960 . S
H736 C728 0.930 . S
H737 C729 0.929 . S
H738 C746 0.929 . S
H739 C748 0.930 . S
H740 C750 0.930 1_554 S
H741 C753 0.905 1_554 S
H742 C756 0.930 . S
H743 C758 0.960 . S
H744 C758 0.960 . S
H745 C758 0.960 . S
C746 H738 0.929 . S
C746 C747 1.377 . S
C746 C748 1.384 . S
C747 C746 1.377 . S
C747 C753 1.390 . S
C748 H739 0.930 . S
C748 C746 1.384 . S
C748 C749 1.372 . S
C749 C748 1.372 . S
C749 C750 1.400 . S
C749 C754 1.490 . S
C750 H740 0.930 1_556 S
C750 C749 1.400 . S
C750 C753 1.386 . S
H751 C767 0.930 . S
H752 C768 0.931 . S
C753 H741 0.905 1_556 S
C753 C747 1.390 . S
C753 C750 1.386 . S
C754 C749 1.490 . S
C754 C756 1.395 . S
C754 C757 1.403 1_556 S
H755 C761 0.930 . S
C756 H742 0.930 . S
C756 C754 1.395 . S
C756 C759 1.403 . S
C757 C754 1.403 1_554 S
C757 C758 1.524 . S
C757 C761 1.400 . S
C758 H743 0.960 . S
C758 H744 0.960 . S
C758 H745 0.960 . S
C758 C757 1.524 . S
C759 C756 1.403 . S
C759 C760 1.392 . S
C759 C763 1.495 . S
C760 C759 1.392 . S
C760 C761 1.385 1_556 S
C760 C762 1.478 . S
C761 H755 0.930 . S
C761 C757 1.400 . S
C761 C760 1.385 1_554 S
C762 C760 1.478 . S
C762 C764 1.381 . S
C762 C768 1.383 1_556 S
C763 C759 1.495 . S
C763 H769 0.959 . S
C763 H770 0.961 . S
C763 H771 0.960 . S
C764 C762 1.381 . S
C764 C765 1.394 . S
C764 H772 0.930 . S
C765 C764 1.394 . S
C765 C766 1.383 1_556 S
C765 H773 0.929 . S
C766 C765 1.383 1_554 S
C766 C767 1.377 . S
C767 H751 0.930 . S
C767 C766 1.377 . S
C767 C768 1.379 . S
C768 H752 0.931 . S
C768 C762 1.383 1_554 S
C768 C767 1.379 . S
H769 C763 0.959 . S
H770 C763 0.961 . S
H771 C763 0.960 . S
H772 C764 0.930 . S
H773 C765 0.929 . S
H774 C782 0.929 . S
H775 C784 0.930 . S
H776 C786 0.930 . S
H777 C789 0.929 . S
H778 C792 0.930 . S
H779 C794 0.960 . S
H780 C794 0.960 . S
H781 C794 0.960 . S
C782 H774 0.929 . S
C782 C783 1.377 . S
C782 C784 1.384 . S
C783 C782 1.377 . S
C783 C789 1.390 . S
C784 H775 0.930 . S
C784 C782 1.384 . S
C784 C785 1.372 . S
C785 C784 1.372 . S
C785 C786 1.400 . S
C785 C790 1.490 . S
C786 H776 0.930 . S
C786 C785 1.400 . S
C786 C789 1.386 . S
H787 C803 0.930 . S
H788 C804 0.931 . S
C789 H777 0.929 . S
C789 C783 1.390 . S
C789 C786 1.386 . S
C790 C785 1.490 . S
C790 C792 1.395 . S
C790 C793 1.403 . S
H791 C797 0.930 . S
C792 H778 0.930 . S
C792 C790 1.395 . S
C792 C795 1.403 . S
C793 C790 1.403 . S
C793 C794 1.524 . S
C793 C797 1.400 . S
C794 H779 0.960 . S
C794 H780 0.960 . S
C794 H781 0.960 . S
C794 C793 1.524 . S
C795 C792 1.403 . S
C795 C796 1.392 . S
C795 C799 1.495 1_556 S
C796 C795 1.392 . S
C796 C797 1.385 . S
C796 C798 1.478 . S
C797 H791 0.930 . S
C797 C793 1.400 . S
C797 C796 1.385 . S
C798 C796 1.478 . S
C798 C800 1.381 1_556 S
C798 C804 1.383 . S
C799 C795 1.495 1_554 S
C799 H805 0.959 . S
C799 H806 0.961 . S
C799 H807 0.960 . S
C800 C798 1.381 1_554 S
C800 C801 1.394 . S
C800 H808 0.930 . S
C801 C800 1.394 . S
C801 C802 1.383 1_554 S
C801 H809 0.929 . S
C802 C801 1.383 1_556 S
C802 C803 1.377 . S
C803 H787 0.930 . S
C803 C802 1.377 . S
C803 C804 1.379 . S
C804 H788 0.931 . S
C804 C798 1.383 . S
C804 C803 1.379 . S
H805 C799 0.959 . S
H806 C799 0.961 . S
H807 C799 0.960 . S
H808 C800 0.930 . S
H809 C801 0.929 . S
H810 C818 0.929 . S
H811 C820 0.930 . S
H812 C822 0.930 . S
H813 C825 0.929 . S
H814 C828 0.930 . S
H815 C830 0.960 . S
H816 C830 0.960 . S
H817 C830 0.960 . S
C818 H810 0.929 . S
C818 C819 1.377 . S
C818 C820 1.384 . S
C819 C818 1.377 . S
C819 C825 1.390 . S
C820 H811 0.930 . S
C820 C818 1.384 . S
C820 C821 1.372 . S
C821 C820 1.372 . S
C821 C822 1.400 . S
C821 C826 1.490 . S
C822 H812 0.930 . S
C822 C821 1.400 . S
C822 C825 1.386 . S
H823 C839 0.930 1_554 S
H824 C840 0.931 . S
C825 H813 0.929 . S
C825 C819 1.390 . S
C825 C822 1.386 . S
C826 C821 1.490 . S
C826 C828 1.395 . S
C826 C829 1.403 . S
H827 C833 0.930 . S
C828 H814 0.930 . S
C828 C826 1.395 . S
C828 C831 1.403 . S
C829 C826 1.403 . S
C829 C830 1.524 . S
C829 C833 1.400 . S
C830 H815 0.960 . S
C830 H816 0.960 . S
C830 H817 0.960 . S
C830 C829 1.524 . S
C831 C828 1.403 . S
C831 C832 1.392 . S
C831 C835 1.495 1_556 S
C832 C831 1.392 . S
C832 C833 1.385 . S
C832 C834 1.478 . S
C833 H827 0.930 . S
C833 C829 1.400 . S
C833 C832 1.385 . S
C834 C832 1.478 . S
C834 C836 1.381 . S
C834 C840 1.383 . S
C835 C831 1.495 1_554 S
C835 H841 0.959 . S
C835 H842 0.961 . S
C835 H843 0.960 1_554 S
C836 C834 1.381 . S
C836 C837 1.394 . S
C836 H844 0.930 . S
C837 C836 1.394 . S
C837 C838 1.383 . S
C837 H845 0.929 . S
C838 C837 1.383 . S
C838 C839 1.377 . S
C839 H823 0.930 1_556 S
C839 C838 1.377 . S
C839 C840 1.379 . S
C840 H824 0.931 . S
C840 C834 1.383 . S
C840 C839 1.379 . S
H841 C835 0.959 . S
H842 C835 0.961 . S
H843 C835 0.960 1_556 S
H844 C836 0.930 . S
H845 C837 0.929 . S
H846 C854 0.929 1_554 S
H847 C856 0.930 1_554 S
H848 C858 0.930 . S
H849 C861 0.929 . S
H850 C864 0.930 1_554 S
H851 C866 0.960 . S
H852 C866 0.960 . S
H853 C866 0.960 . S
C854 H846 0.929 1_556 S
C854 C855 1.377 . S
C854 C856 1.384 . S
C855 C854 1.377 . S
C855 C861 1.390 . S
C856 H847 0.930 1_556 S
C856 C854 1.384 . S
C856 C857 1.372 . S
C857 C856 1.372 . S
C857 C858 1.400 . S
C857 C862 1.490 . S
C858 H848 0.930 . S
C858 C857 1.400 . S
C858 C861 1.386 . S
H859 C875 0.930 . S
H860 C876 0.931 . S
C861 H849 0.929 . S
C861 C855 1.390 . S
C861 C858 1.386 . S
C862 C857 1.490 . S
C862 C864 1.395 . S
C862 C865 1.403 . S
H863 C869 0.930 . S
C864 H850 0.930 1_556 S
C864 C862 1.395 . S
C864 C867 1.406 1_556 S
C865 C862 1.403 . S
C865 C866 1.524 . S
C865 C869 1.400 . S
C866 H851 0.960 . S
C866 H852 0.960 . S
C866 H853 0.960 . S
C866 C865 1.524 . S
C867 C864 1.406 1_554 S
C867 C868 1.348 1_554 S
C867 C871 1.541 . S
C868 C867 1.348 1_556 S
C868 C869 1.385 . S
C868 C870 1.478 . S
C869 H863 0.930 . S
C869 C865 1.400 . S
C869 C868 1.385 . S
C870 C868 1.478 . S
C870 C872 1.381 1_556 S
C870 C876 1.383 . S
C871 C867 1.541 . S
C871 H877 0.959 . S
C871 H878 0.961 . S
C871 H879 0.960 . S
C872 C870 1.381 1_554 S
C872 C873 1.394 . S
C872 H880 0.930 . S
C873 C872 1.394 . S
C873 C874 1.383 1_554 S
C873 H881 0.929 . S
C874 C873 1.383 1_556 S
C874 C875 1.377 . S
C875 H859 0.930 . S
C875 C874 1.377 . S
C875 C876 1.379 . S
C876 H860 0.931 . S
C876 C870 1.383 . S
C876 C875 1.379 . S
H877 C871 0.959 . S
H878 C871 0.961 . S
H879 C871 0.960 . S
H880 C872 0.930 . S
H881 C873 0.929 . S
H882 C890 0.929 . S
H883 C892 0.930 . S
H884 C894 0.930 . S
H885 C897 0.929 . S
H886 C900 0.930 . S
H887 C902 0.960 . S
H888 C902 0.960 . S
H889 C902 0.960 . S
C890 H882 0.929 . S
C890 C891 1.377 . S
C890 C892 1.384 . S
C891 C890 1.377 . S
C891 C897 1.390 . S
C892 H883 0.930 . S
C892 C890 1.384 . S
C892 C893 1.372 . S
C893 C892 1.372 . S
C893 C894 1.400 . S
C893 C898 1.490 . S
C894 H884 0.930 . S
C894 C893 1.400 . S
C894 C897 1.386 . S
H895 C911 0.930 . S
H896 C912 0.931 . S
C897 H885 0.929 . S
C897 C891 1.390 . S
C897 C894 1.386 . S
C898 C893 1.490 . S
C898 C900 1.395 . S
C898 C901 1.403 . S
H899 C905 0.930 . S
C900 H886 0.930 . S
C900 C898 1.395 . S
C900 C903 1.403 . S
C901 C898 1.403 . S
C901 C902 1.524 . S
C901 C905 1.400 . S
C902 H887 0.960 . S
C902 H888 0.960 . S
C902 H889 0.960 . S
C902 C901 1.524 . S
C903 C900 1.403 . S
C903 C904 1.392 . S
C903 C907 1.495 . S
C904 C903 1.392 . S
C904 C905 1.385 . S
C904 C906 1.478 . S
C905 H899 0.930 . S
C905 C901 1.400 . S
C905 C904 1.385 . S
C906 C904 1.478 . S
C906 C908 1.381 . S
C906 C912 1.383 . S
C907 C903 1.495 . S
C907 H913 0.959 . S
C907 H914 0.961 . S
C907 H915 0.960 . S
C908 C906 1.381 . S
C908 C909 1.394 . S
C908 H916 0.930 . S
C909 C908 1.394 . S
C909 C910 1.383 . S
C909 H917 0.929 1_554 S
C910 C909 1.383 . S
C910 C911 1.377 . S
C911 H895 0.930 . S
C911 C910 1.377 . S
C911 C912 1.379 . S
C912 H896 0.931 . S
C912 C906 1.383 . S
C912 C911 1.379 . S
H913 C907 0.959 . S
H914 C907 0.961 . S
H915 C907 0.960 . S
H916 C908 0.930 . S
H917 C909 0.929 1_556 S
H918 C926 0.929 . S
H919 C928 0.930 . S
H920 C930 0.930 . S
H921 C933 0.929 . S
H922 C936 0.930 . S
H923 C938 0.960 . S
H924 C938 0.960 . S
H925 C938 0.960 . S
C926 H918 0.929 . S
C926 C927 1.377 . S
C926 C928 1.384 . S
C927 C926 1.377 . S
C927 C933 1.390 . S
C928 H919 0.930 . S
C928 C926 1.384 . S
C928 C929 1.372 . S
C929 C928 1.372 . S
C929 C930 1.400 . S
C929 C934 1.490 . S
C930 H920 0.930 . S
C930 C929 1.400 . S
C930 C933 1.386 . S
H931 C947 0.930 . S
H932 C948 0.931 . S
C933 H921 0.929 . S
C933 C927 1.390 . S
C933 C930 1.386 . S
C934 C929 1.490 . S
C934 C936 1.395 . S
C934 C937 1.403 . S
H935 C941 0.930 . S
C936 H922 0.930 . S
C936 C934 1.395 . S
C936 C939 1.403 . S
C937 C934 1.403 . S
C937 C938 1.524 . S
C937 C941 1.400 . S
C938 H923 0.960 . S
C938 H924 0.960 . S
C938 H925 0.960 . S
C938 C937 1.524 . S
C939 C936 1.403 . S
C939 C940 1.392 . S
C939 C943 1.563 . S
C940 C939 1.392 . S
C940 C941 1.385 . S
C940 C942 1.478 . S
C941 H935 0.930 . S
C941 C937 1.400 . S
C941 C940 1.385 . S
C942 C940 1.478 . S
C942 C944 1.381 . S
C942 C948 1.383 . S
C943 C939 1.563 . S
C943 H949 0.938 1_554 S
C943 H950 0.934 1_554 S
C943 H951 0.947 1_554 S
C944 C942 1.381 . S
C944 C945 1.394 . S
C944 H952 0.930 . S
C945 C944 1.394 . S
C945 C946 1.383 . S
C945 H953 0.929 . S
C946 C945 1.383 . S
C946 C947 1.377 . S
C947 H931 0.930 . S
C947 C946 1.377 . S
C947 C948 1.379 . S
C948 H932 0.931 . S
C948 C942 1.383 . S
C948 C947 1.379 . S
H949 C943 0.938 1_556 S
H950 C943 0.934 1_556 S
H951 C943 0.947 1_556 S
H952 C944 0.930 . S
H953 C945 0.929 . S
H954 C962 0.929 . S
H955 C964 0.930 . S
H956 C966 0.930 . S
H957 C969 0.929 . S
H958 C972 0.930 . S
H959 C974 0.960 . S
H960 C974 0.960 . S
H961 C974 0.960 . S
C962 H954 0.929 . S
C962 C963 1.377 . S
C962 C964 1.384 . S
C963 C962 1.377 . S
C963 C969 1.390 . S
C964 H955 0.930 . S
C964 C962 1.384 . S
C964 C965 1.372 . S
C965 C964 1.372 . S
C965 C966 1.400 . S
C965 C970 1.490 . S
C966 H956 0.930 . S
C966 C965 1.400 . S
C966 C969 1.386 . S
H967 C983 0.930 . S
H968 C984 0.931 . S
C969 H957 0.929 . S
C969 C963 1.390 . S
C969 C966 1.386 . S
C970 C965 1.490 . S
C970 C972 1.395 . S
C970 C973 1.403 . S
H971 C977 0.930 . S
C972 H958 0.930 . S
C972 C970 1.395 . S
C972 C975 1.403 . S
C973 C970 1.403 . S
C973 C974 1.524 . S
C973 C977 1.400 . S
C974 H959 0.960 . S
C974 H960 0.960 . S
C974 H961 0.960 . S
C974 C973 1.524 . S
C975 C972 1.403 . S
C975 C976 1.392 . S
C975 C979 1.495 . S
C976 C975 1.392 . S
C976 C977 1.385 . S
C976 C978 1.478 . S
C977 H971 0.930 . S
C977 C973 1.400 . S
C977 C976 1.385 . S
C978 C976 1.478 . S
C978 C980 1.312 1_554 S
C978 C984 1.383 . S
C979 C975 1.495 . S
C979 H985 0.959 . S
C979 H986 0.961 . S
C979 H987 0.960 1_554 S
C980 C978 1.312 1_556 S
C980 C981 1.412 . S
C980 H988 0.986 . S
C981 C980 1.412 . S
C981 C982 1.383 1_556 S
C981 H989 0.929 . S
C982 C981 1.383 1_554 S
C982 C983 1.377 . S
C983 H967 0.930 . S
C983 C982 1.377 . S
C983 C984 1.379 . S
C984 H968 0.931 . S
C984 C978 1.383 . S
C984 C983 1.379 . S
H985 C979 0.959 . S
H986 C979 0.961 . S
H987 C979 0.960 1_556 S
H988 C980 0.986 . S
H989 C981 0.929 . S
H990 C998 0.929 . S
H991 C1000 0.930 . S
H992 C1002 0.930 . S
H993 C1005 0.929 . S
H994 C1008 0.930 . S
H995 C1010 0.960 1_455 S
H996 C1010 0.960 . S
H997 C1010 0.960 . S
C998 H990 0.929 . S
C998 C999 1.377 . S
C998 C1000 1.384 . S
C999 C998 1.377 . S
C999 C1005 1.390 . S
C1000 H991 0.930 . S
C1000 C998 1.384 . S
C1000 C1001 1.372 . S
C1001 C1000 1.372 . S
C1001 C1002 1.400 . S
C1001 C1006 1.490 1_655 S
C1002 H992 0.930 . S
C1002 C1001 1.400 . S
C1002 C1005 1.386 . S
H1003 C1019 0.930 . S
H1004 C1020 0.931 . S
C1005 H993 0.929 . S
C1005 C999 1.390 . S
C1005 C1002 1.386 . S
C1006 C1001 1.490 1_455 S
C1006 C1008 1.395 . S
C1006 C1009 1.403 . S
H1007 C1013 0.930 . S
C1008 H994 0.930 . S
C1008 C1006 1.395 . S
C1008 C1011 1.403 . S
C1009 C1006 1.403 . S
C1009 C1010 1.524 1_455 S
C1009 C1013 1.400 . S
C1010 H995 0.960 1_655 S
C1010 H996 0.960 . S
C1010 H997 0.960 . S
C1010 C1009 1.524 1_655 S
C1011 C1008 1.403 . S
C1011 C1012 1.392 . S
C1011 C1015 1.495 . S
C1012 C1011 1.392 . S
C1012 C1013 1.385 . S
C1012 C1014 1.478 . S
C1013 H1007 0.930 . S
C1013 C1009 1.400 . S
C1013 C1012 1.385 . S
C1014 C1012 1.478 . S
C1014 C1016 1.381 . S
C1014 C1020 1.383 . S
C1015 C1011 1.495 . S
C1015 H1021 0.959 . S
C1015 H1022 0.961 . S
C1015 H1023 0.960 . S
C1016 C1014 1.381 . S
C1016 C1017 1.394 . S
C1016 H1024 0.930 . S
C1017 C1016 1.394 . S
C1017 C1018 1.383 . S
C1017 H1025 0.929 . S
C1018 C1017 1.383 . S
C1018 C1019 1.377 . S
C1019 H1003 0.930 . S
C1019 C1018 1.377 . S
C1019 C1020 1.379 . S
C1020 H1004 0.931 . S
C1020 C1014 1.383 . S
C1020 C1019 1.379 . S
H1021 C1015 0.959 . S
H1022 C1015 0.961 . S
H1023 C1015 0.960 . S
H1024 C1016 0.930 . S
H1025 C1017 0.929 . S
H1026 C1034 0.929 . S
H1027 C1036 0.930 . S
H1028 C1038 0.930 . S
H1029 C1041 0.929 . S
H1030 C1044 0.930 . S
H1031 C1046 0.960 . S
H1032 C1046 0.960 . S
H1033 C1046 0.960 . S
C1034 H1026 0.929 . S
C1034 C1035 1.377 . S
C1034 C1036 1.384 . S
C1035 C1034 1.377 . S
C1035 C1041 1.390 . S
C1036 H1027 0.930 . S
C1036 C1034 1.384 . S
C1036 C1037 1.372 . S
C1037 C1036 1.372 . S
C1037 C1038 1.400 . S
C1037 C1042 1.490 . S
C1038 H1028 0.930 . S
C1038 C1037 1.400 . S
C1038 C1041 1.386 . S
H1039 C1055 0.930 . S
H1040 C1056 0.931 . S
C1041 H1029 0.929 . S
C1041 C1035 1.390 . S
C1041 C1038 1.386 . S
C1042 C1037 1.490 . S
C1042 C1044 1.395 . S
C1042 C1045 1.403 . S
H1043 C1049 0.930 . S
C1044 H1030 0.930 . S
C1044 C1042 1.395 . S
C1044 C1047 1.403 . S
C1045 C1042 1.403 . S
C1045 C1046 1.524 . S
C1045 C1049 1.400 . S
C1046 H1031 0.960 . S
C1046 H1032 0.960 . S
C1046 H1033 0.960 . S
C1046 C1045 1.524 . S
C1047 C1044 1.403 . S
C1047 C1048 1.392 . S
C1047 C1051 1.495 . S
C1048 C1047 1.392 . S
C1048 C1049 1.385 . S
C1048 C1050 1.478 . S
C1049 H1043 0.930 . S
C1049 C1045 1.400 . S
C1049 C1048 1.385 . S
C1050 C1048 1.478 . S
C1050 C1052 1.381 . S
C1050 C1056 1.383 . S
C1051 C1047 1.495 . S
C1051 H1057 0.959 . S
C1051 H1058 0.961 . S
C1051 H1059 0.960 . S
C1052 C1050 1.381 . S
C1052 C1053 1.394 . S
C1052 H1060 0.930 . S
C1053 C1052 1.394 . S
C1053 C1054 1.383 . S
C1053 H1061 0.929 . S
C1054 C1053 1.383 . S
C1054 C1055 1.377 . S
C1055 H1039 0.930 . S
C1055 C1054 1.377 . S
C1055 C1056 1.379 . S
C1056 H1040 0.931 . S
C1056 C1050 1.383 . S
C1056 C1055 1.379 . S
H1057 C1051 0.959 . S
H1058 C1051 0.961 . S
H1059 C1051 0.960 . S
H1060 C1052 0.930 . S
H1061 C1053 0.929 . S
H1062 C1070 0.929 . S
H1063 C1072 0.930 . S
H1064 C1074 0.930 . S
H1065 C1077 0.929 . S
H1066 C1080 0.930 1_545 S
H1067 C1082 0.960 . S
H1068 C1082 0.960 . S
H1069 C1082 0.960 . S
C1070 H1062 0.929 . S
C1070 C1071 1.377 . S
C1070 C1072 1.384 . S
C1071 C1070 1.377 . S
C1071 C1077 1.390 . S
C1072 H1063 0.930 . S
C1072 C1070 1.384 . S
C1072 C1073 1.372 . S
C1073 C1072 1.372 . S
C1073 C1074 1.400 . S
C1073 C1078 1.490 . S
C1074 H1064 0.930 . S
C1074 C1073 1.400 . S
C1074 C1077 1.386 . S
H1075 C1091 0.930 . S
H1076 C1092 0.931 . S
C1077 H1065 0.929 . S
C1077 C1071 1.390 . S
C1077 C1074 1.386 . S
C1078 C1073 1.490 . S
C1078 C1080 1.395 1_545 S
C1078 C1081 1.440 . S
H1079 C1085 0.930 . S
C1080 H1066 0.930 1_565 S
C1080 C1078 1.395 1_565 S
C1080 C1083 1.403 . S
C1081 C1078 1.440 . S
C1081 C1082 1.527 . S
C1081 C1085 1.359 1_545 S
C1082 H1067 0.960 . S
C1082 H1068 0.960 . S
C1082 H1069 0.960 . S
C1082 C1081 1.527 . S
C1083 C1080 1.403 . S
C1083 C1084 1.392 . S
C1083 C1087 1.495 . S
C1084 C1083 1.392 . S
C1084 C1085 1.385 . S
C1084 C1086 1.478 . S
C1085 H1079 0.930 . S
C1085 C1081 1.359 1_565 S
C1085 C1084 1.385 . S
C1086 C1084 1.478 . S
C1086 C1088 1.381 . S
C1086 C1092 1.383 . S
C1087 C1083 1.495 . S
C1087 H1093 0.959 . S
C1087 H1094 0.961 . S
C1087 H1095 0.960 . S
C1088 C1086 1.381 . S
C1088 C1089 1.394 . S
C1088 H1096 0.930 . S
C1089 C1088 1.394 . S
C1089 C1090 1.383 . S
C1089 H1097 0.929 . S
C1090 C1089 1.383 . S
C1090 C1091 1.377 . S
C1091 H1075 0.930 . S
C1091 C1090 1.377 . S
C1091 C1092 1.379 . S
C1092 H1076 0.931 . S
C1092 C1086 1.383 . S
C1092 C1091 1.379 . S
H1093 C1087 0.959 . S
H1094 C1087 0.961 . S
H1095 C1087 0.960 . S
H1096 C1088 0.930 . S
H1097 C1089 0.929 . S
H1098 C1106 0.929 . S
H1099 C1108 0.930 . S
H1100 C1110 0.930 . S
H1101 C1113 0.929 . S
H1102 C1116 0.930 . S
H1103 C1118 0.960 . S
H1104 C1118 0.960 . S
H1105 C1118 0.960 . S
C1106 H1098 0.929 . S
C1106 C1107 1.377 . S
C1106 C1108 1.384 . S
C1107 C1106 1.377 . S
C1107 C1113 1.390 . S
C1108 H1099 0.930 . S
C1108 C1106 1.384 . S
C1108 C1109 1.372 . S
C1109 C1108 1.372 . S
C1109 C1110 1.400 . S
C1109 C1114 1.490 . S
C1110 H1100 0.930 . S
C1110 C1109 1.400 . S
C1110 C1113 1.386 . S
H1111 C1127 0.930 . S
H1112 C1128 0.931 . S
C1113 H1101 0.929 . S
C1113 C1107 1.390 . S
C1113 C1110 1.386 . S
C1114 C1109 1.490 . S
C1114 C1116 1.395 . S
C1114 C1117 1.403 . S
H1115 C1121 0.930 . S
C1116 H1102 0.930 . S
C1116 C1114 1.395 . S
C1116 C1119 1.403 . S
C1117 C1114 1.403 . S
C1117 C1118 1.524 . S
C1117 C1121 1.400 . S
C1118 H1103 0.960 . S
C1118 H1104 0.960 . S
C1118 H1105 0.960 . S
C1118 C1117 1.524 . S
C1119 C1116 1.403 . S
C1119 C1120 1.392 . S
C1119 C1123 1.495 . S
C1120 C1119 1.392 . S
C1120 C1121 1.385 . S
C1120 C1122 1.478 . S
C1121 H1115 0.930 . S
C1121 C1117 1.400 . S
C1121 C1120 1.385 . S
C1122 C1120 1.478 . S
C1122 C1124 1.381 . S
C1122 C1128 1.383 . S
C1123 C1119 1.495 . S
C1123 H1129 0.959 . S
C1123 H1130 0.961 . S
C1123 H1131 0.960 . S
C1124 C1122 1.381 . S
C1124 C1125 1.394 . S
C1124 H1132 0.930 . S
C1125 C1124 1.394 . S
C1125 C1126 1.383 . S
C1125 H1133 0.929 . S
C1126 C1125 1.383 . S
C1126 C1127 1.377 . S
C1127 H1111 0.930 . S
C1127 C1126 1.377 . S
C1127 C1128 1.379 . S
C1128 H1112 0.931 . S
C1128 C1122 1.383 . S
C1128 C1127 1.379 . S
H1129 C1123 0.959 . S
H1130 C1123 0.961 . S
H1131 C1123 0.960 . S
H1132 C1124 0.930 . S
H1133 C1125 0.929 . S
H1134 C1142 0.929 . S
H1135 C1144 0.930 . S
H1136 C1146 0.930 . S
H1137 C1149 0.929 . S
H1138 C1152 0.930 . S
H1139 C1154 0.960 . S
H1140 C1154 0.960 . S
H1141 C1154 0.960 . S
C1142 H1134 0.929 . S
C1142 C1143 1.377 . S
C1142 C1144 1.384 . S
C1143 C1142 1.377 . S
C1143 C1149 1.390 . S
C1144 H1135 0.930 . S
C1144 C1142 1.384 . S
C1144 C1145 1.372 . S
C1145 C1144 1.372 . S
C1145 C1146 1.400 . S
C1145 C1150 1.490 . S
C1146 H1136 0.930 . S
C1146 C1145 1.400 . S
C1146 C1149 1.386 . S
H1147 C1163 0.930 . S
H1148 C1164 0.931 . S
C1149 H1137 0.929 . S
C1149 C1143 1.390 . S
C1149 C1146 1.386 . S
C1150 C1145 1.490 . S
C1150 C1152 1.395 . S
C1150 C1153 1.403 . S
H1151 C1157 0.930 . S
C1152 H1138 0.930 . S
C1152 C1150 1.395 . S
C1152 C1155 1.403 . S
C1153 C1150 1.403 . S
C1153 C1154 1.524 . S
C1153 C1157 1.400 . S
C1154 H1139 0.960 . S
C1154 H1140 0.960 . S
C1154 H1141 0.960 . S
C1154 C1153 1.524 . S
C1155 C1152 1.403 . S
C1155 C1156 1.392 . S
C1155 C1159 1.495 . S
C1156 C1155 1.392 . S
C1156 C1157 1.385 . S
C1156 C1158 1.478 . S
C1157 H1151 0.930 . S
C1157 C1153 1.400 . S
C1157 C1156 1.385 . S
C1158 C1156 1.478 . S
C1158 C1160 1.381 . S
C1158 C1164 1.383 . S
C1159 C1155 1.495 . S
C1159 H1165 0.959 . S
C1159 H1166 0.961 . S
C1159 H1167 0.960 . S
C1160 C1158 1.381 . S
C1160 C1161 1.394 . S
C1160 H1168 0.930 . S
C1161 C1160 1.394 . S
C1161 C1162 1.383 . S
C1161 H1169 0.929 . S
C1162 C1161 1.383 . S
C1162 C1163 1.377 . S
C1163 H1147 0.930 . S
C1163 C1162 1.377 . S
C1163 C1164 1.379 . S
C1164 H1148 0.931 . S
C1164 C1158 1.383 . S
C1164 C1163 1.379 . S
H1165 C1159 0.959 . S
H1166 C1159 0.961 . S
H1167 C1159 0.960 . S
H1168 C1160 0.930 . S
H1169 C1161 0.929 . S
H1170 C1178 0.929 . S
H1171 C1180 0.930 . S
H1172 C1182 0.930 . S
H1173 C1185 0.929 . S
H1174 C1188 0.930 . S
H1175 C1190 0.960 . S
H1176 C1190 0.960 . S
H1177 C1190 0.960 . S
C1178 H1170 0.929 . S
C1178 C1179 1.377 . S
C1178 C1180 1.384 . S
C1179 C1178 1.377 . S
C1179 C1185 1.390 . S
C1180 H1171 0.930 . S
C1180 C1178 1.384 . S
C1180 C1181 1.372 . S
C1181 C1180 1.372 . S
C1181 C1182 1.400 . S
C1181 C1186 1.490 . S
C1182 H1172 0.930 . S
C1182 C1181 1.400 . S
C1182 C1185 1.386 . S
H1183 C1199 0.930 . S
H1184 C1200 0.931 . S
C1185 H1173 0.929 . S
C1185 C1179 1.390 . S
C1185 C1182 1.386 . S
C1186 C1181 1.490 . S
C1186 C1188 1.395 . S
C1186 C1189 1.403 . S
H1187 C1193 0.930 . S
C1188 H1174 0.930 . S
C1188 C1186 1.395 . S
C1188 C1191 1.403 . S
C1189 C1186 1.403 . S
C1189 C1190 1.524 . S
C1189 C1193 1.400 . S
C1190 H1175 0.960 . S
C1190 H1176 0.960 . S
C1190 H1177 0.960 . S
C1190 C1189 1.524 . S
C1191 C1188 1.403 . S
C1191 C1192 1.392 . S
C1191 C1195 1.495 . S
C1192 C1191 1.392 . S
C1192 C1193 1.385 . S
C1192 C1194 1.478 . S
C1193 H1187 0.930 . S
C1193 C1189 1.400 . S
C1193 C1192 1.385 . S
C1194 C1192 1.478 . S
C1194 C1196 1.381 . S
C1194 C1200 1.383 . S
C1195 C1191 1.495 . S
C1195 H1201 0.959 . S
C1195 H1202 0.961 . S
C1195 H1203 0.960 . S
C1196 C1194 1.381 . S
C1196 C1197 1.394 . S
C1196 H1204 0.930 . S
C1197 C1196 1.394 . S
C1197 C1198 1.383 . S
C1197 H1205 0.929 . S
C1198 C1197 1.383 . S
C1198 C1199 1.377 . S
C1199 H1183 0.930 . S
C1199 C1198 1.377 . S
C1199 C1200 1.379 . S
C1200 H1184 0.931 . S
C1200 C1194 1.383 . S
C1200 C1199 1.379 . S
H1201 C1195 0.959 . S
H1202 C1195 0.961 . S
H1203 C1195 0.960 . S
H1204 C1196 0.930 . S
H1205 C1197 0.929 . S
H1206 C1214 0.929 . S
H1207 C1216 0.930 . S
H1208 C1218 0.930 . S
H1209 C1221 0.929 . S
H1210 C1224 0.930 . S
H1211 C1226 0.960 . S
H1212 C1226 0.960 . S
H1213 C1226 0.960 . S
C1214 H1206 0.929 . S
C1214 C1215 1.377 . S
C1214 C1216 1.384 . S
C1215 C1214 1.377 . S
C1215 C1221 1.390 . S
C1216 H1207 0.930 . S
C1216 C1214 1.384 . S
C1216 C1217 1.372 . S
C1217 C1216 1.372 . S
C1217 C1218 1.400 . S
C1217 C1222 1.490 . S
C1218 H1208 0.930 . S
C1218 C1217 1.400 . S
C1218 C1221 1.386 . S
H1219 C1235 0.930 . S
H1220 C1236 0.931 . S
C1221 H1209 0.929 . S
C1221 C1215 1.390 . S
C1221 C1218 1.386 . S
C1222 C1217 1.490 . S
C1222 C1224 1.395 . S
C1222 C1225 1.403 . S
H1223 C1229 0.930 . S
C1224 H1210 0.930 . S
C1224 C1222 1.395 . S
C1224 C1227 1.403 . S
C1225 C1222 1.403 . S
C1225 C1226 1.524 . S
C1225 C1229 1.400 . S
C1226 H1211 0.960 . S
C1226 H1212 0.960 . S
C1226 H1213 0.960 . S
C1226 C1225 1.524 . S
C1227 C1224 1.403 . S
C1227 C1228 1.392 . S
C1227 C1231 1.495 . S
C1228 C1227 1.392 . S
C1228 C1229 1.385 . S
C1228 C1230 1.478 . S
C1229 H1223 0.930 . S
C1229 C1225 1.400 . S
C1229 C1228 1.385 . S
C1230 C1228 1.478 . S
C1230 C1232 1.381 . S
C1230 C1236 1.383 . S
C1231 C1227 1.495 . S
C1231 H1237 0.959 . S
C1231 H1238 0.961 . S
C1231 H1239 0.960 . S
C1232 C1230 1.381 . S
C1232 C1233 1.394 . S
C1232 H1240 0.930 . S
C1233 C1232 1.394 . S
C1233 C1234 1.383 . S
C1233 H1241 0.929 . S
C1234 C1233 1.383 . S
C1234 C1235 1.377 . S
C1235 H1219 0.930 . S
C1235 C1234 1.377 . S
C1235 C1236 1.379 . S
C1236 H1220 0.931 . S
C1236 C1230 1.383 . S
C1236 C1235 1.379 . S
H1237 C1231 0.959 . S
H1238 C1231 0.961 . S
H1239 C1231 0.960 . S
H1240 C1232 0.930 . S
H1241 C1233 0.929 . S
H1242 C1250 0.929 . S
H1243 C1252 0.930 . S
H1244 C1254 0.930 . S
H1245 C1257 0.929 . S
H1246 C1260 0.930 . S
H1247 C1262 0.960 . S
H1248 C1262 0.960 . S
H1249 C1262 0.960 . S
C1250 H1242 0.929 . S
C1250 C1251 1.377 . S
C1250 C1252 1.384 . S
C1251 C1250 1.377 . S
C1251 C1257 1.390 . S
C1252 H1243 0.930 . S
C1252 C1250 1.384 . S
C1252 C1253 1.372 . S
C1253 C1252 1.372 . S
C1253 C1254 1.400 . S
C1253 C1258 1.490 . S
C1254 H1244 0.930 . S
C1254 C1253 1.400 . S
C1254 C1257 1.386 . S
H1255 C1271 0.930 . S
H1256 C1272 0.931 . S
C1257 H1245 0.929 . S
C1257 C1251 1.390 . S
C1257 C1254 1.386 . S
C1258 C1253 1.490 . S
C1258 C1260 1.395 . S
C1258 C1261 1.403 . S
H1259 C1265 0.930 . S
C1260 H1246 0.930 . S
C1260 C1258 1.395 . S
C1260 C1263 1.403 . S
C1261 C1258 1.403 . S
C1261 C1262 1.524 . S
C1261 C1265 1.400 . S
C1262 H1247 0.960 . S
C1262 H1248 0.960 . S
C1262 H1249 0.960 . S
C1262 C1261 1.524 . S
C1263 C1260 1.403 . S
C1263 C1264 1.392 . S
C1263 C1267 1.495 . S
C1264 C1263 1.392 . S
C1264 C1265 1.385 . S
C1264 C1266 1.478 . S
C1265 H1259 0.930 . S
C1265 C1261 1.400 . S
C1265 C1264 1.385 . S
C1266 C1264 1.478 . S
C1266 C1268 1.381 . S
C1266 C1272 1.383 . S
C1267 C1263 1.495 . S
C1267 H1273 0.959 . S
C1267 H1274 0.961 . S
C1267 H1275 0.960 . S
C1268 C1266 1.381 . S
C1268 C1269 1.394 . S
C1268 H1276 0.930 . S
C1269 C1268 1.394 . S
C1269 C1270 1.383 . S
C1269 H1277 0.929 . S
C1270 C1269 1.383 . S
C1270 C1271 1.377 . S
C1271 H1255 0.930 . S
C1271 C1270 1.377 . S
C1271 C1272 1.379 . S
C1272 H1256 0.931 . S
C1272 C1266 1.383 . S
C1272 C1271 1.379 . S
H1273 C1267 0.959 . S
H1274 C1267 0.961 . S
H1275 C1267 0.960 . S
H1276 C1268 0.930 . S
H1277 C1269 0.929 . S
H1278 C1286 0.929 . S
H1279 C1288 0.930 . S
H1280 C1290 0.930 . S
H1281 C1293 0.929 . S
H1282 C1296 0.930 . S
H1283 C1298 0.960 . S
H1284 C1298 0.960 . S
H1285 C1298 0.960 . S
C1286 H1278 0.929 . S
C1286 C1287 1.377 . S
C1286 C1288 1.384 . S
C1287 C1286 1.377 . S
C1287 C1293 1.390 . S
C1288 H1279 0.930 . S
C1288 C1286 1.384 . S
C1288 C1289 1.372 . S
C1289 C1288 1.372 . S
C1289 C1290 1.400 . S
C1289 C1294 1.490 . S
C1290 H1280 0.930 . S
C1290 C1289 1.400 . S
C1290 C1293 1.386 . S
H1291 C1307 0.930 . S
H1292 C1308 0.931 . S
C1293 H1281 0.929 . S
C1293 C1287 1.390 . S
C1293 C1290 1.386 . S
C1294 C1289 1.490 . S
C1294 C1296 1.395 . S
C1294 C1297 1.403 . S
H1295 C1301 0.930 . S
C1296 H1282 0.930 . S
C1296 C1294 1.395 . S
C1296 C1299 1.403 . S
C1297 C1294 1.403 . S
C1297 C1298 1.524 . S
C1297 C1301 1.400 . S
C1298 H1283 0.960 . S
C1298 H1284 0.960 . S
C1298 H1285 0.960 . S
C1298 C1297 1.524 . S
C1299 C1296 1.403 . S
C1299 C1300 1.392 . S
C1299 C1303 1.495 . S
C1300 C1299 1.392 . S
C1300 C1301 1.385 . S
C1300 C1302 1.478 . S
C1301 H1295 0.930 . S
C1301 C1297 1.400 . S
C1301 C1300 1.385 . S
C1302 C1300 1.478 . S
C1302 C1304 1.381 . S
C1302 C1308 1.383 . S
C1303 C1299 1.495 . S
C1303 H1309 0.959 . S
C1303 H1310 0.961 . S
C1303 H1311 0.960 . S
C1304 C1302 1.381 . S
C1304 C1305 1.394 . S
C1304 H1312 0.930 . S
C1305 C1304 1.394 . S
C1305 C1306 1.383 . S
C1305 H1313 0.929 . S
C1306 C1305 1.383 . S
C1306 C1307 1.377 . S
C1307 H1291 0.930 . S
C1307 C1306 1.377 . S
C1307 C1308 1.379 . S
C1308 H1292 0.931 . S
C1308 C1302 1.383 . S
C1308 C1307 1.379 . S
H1309 C1303 0.959 . S
H1310 C1303 0.961 . S
H1311 C1303 0.960 . S
H1312 C1304 0.930 . S
H1313 C1305 0.929 . S
H1314 C1322 0.929 . S
H1315 C1324 0.930 . S
H1316 C1326 0.930 . S
H1317 C1329 0.929 . S
H1318 C1332 0.930 . S
H1319 C1334 0.960 . S
H1320 C1334 0.960 1_545 S
H1321 C1334 0.960 1_545 S
C1322 H1314 0.929 . S
C1322 C1323 1.377 . S
C1322 C1324 1.384 . S
C1323 C1322 1.377 . S
C1323 C1329 1.390 . S
C1324 H1315 0.930 . S
C1324 C1322 1.384 . S
C1324 C1325 1.372 . S
C1325 C1324 1.372 . S
C1325 C1326 1.400 . S
C1325 C1330 1.469 1_545 S
C1326 H1316 0.930 . S
C1326 C1325 1.400 . S
C1326 C1329 1.386 . S
H1327 C1343 0.930 . S
H1328 C1344 0.931 . S
C1329 H1317 0.929 . S
C1329 C1323 1.390 . S
C1329 C1326 1.386 . S
C1330 C1325 1.469 1_565 S
C1330 C1332 1.411 . S
C1330 C1333 1.408 . S
H1331 C1337 0.930 . S
C1332 H1318 0.930 . S
C1332 C1330 1.411 . S
C1332 C1335 1.403 . S
C1333 C1330 1.408 . S
C1333 C1334 1.524 . S
C1333 C1337 1.400 . S
C1334 H1319 0.960 . S
C1334 H1320 0.960 1_565 S
C1334 H1321 0.960 1_565 S
C1334 C1333 1.524 . S
C1335 C1332 1.403 . S
C1335 C1336 1.392 . S
C1335 C1339 1.495 . S
C1336 C1335 1.392 . S
C1336 C1337 1.385 . S
C1336 C1338 1.478 . S
C1337 H1331 0.930 . S
C1337 C1333 1.400 . S
C1337 C1336 1.385 . S
C1338 C1336 1.478 . S
C1338 C1340 1.381 . S
C1338 C1344 1.383 . S
C1339 C1335 1.495 . S
C1339 H1345 0.959 . S
C1339 H1346 0.961 . S
C1339 H1347 0.960 . S
C1340 C1338 1.381 . S
C1340 C1341 1.394 . S
C1340 H1348 0.930 . S
C1341 C1340 1.394 . S
C1341 C1342 1.383 . S
C1341 H1349 0.929 . S
C1342 C1341 1.383 . S
C1342 C1343 1.377 . S
C1343 H1327 0.930 . S
C1343 C1342 1.377 . S
C1343 C1344 1.379 . S
C1344 H1328 0.931 . S
C1344 C1338 1.383 . S
C1344 C1343 1.379 . S
H1345 C1339 0.959 . S
H1346 C1339 0.961 . S
H1347 C1339 0.960 . S
H1348 C1340 0.930 . S
H1349 C1341 0.929 . S
H1350 C1358 0.929 . S
H1351 C1360 0.930 . S
H1352 C1362 0.930 1_455 S
H1353 C1365 0.929 . S
H1354 C1368 0.930 . S
H1355 C1370 0.960 . S
H1356 C1370 0.960 . S
H1357 C1370 0.960 . S
C1358 H1350 0.929 . S
C1358 C1359 1.377 . S
C1358 C1360 1.384 . S
C1359 C1358 1.377 . S
C1359 C1365 1.390 . S
C1360 H1351 0.930 . S
C1360 C1358 1.384 . S
C1360 C1361 1.372 . S
C1361 C1360 1.372 . S
C1361 C1362 1.400 . S
C1361 C1366 1.490 1_655 S
C1362 H1352 0.930 1_655 S
C1362 C1361 1.400 . S
C1362 C1365 1.386 . S
H1363 C1379 0.930 . S
H1364 C1380 0.931 . S
C1365 H1353 0.929 . S
C1365 C1359 1.390 . S
C1365 C1362 1.386 . S
C1366 C1361 1.490 1_455 S
C1366 C1368 1.395 . S
C1366 C1369 1.403 . S
H1367 C1373 0.930 . S
C1368 H1354 0.930 . S
C1368 C1366 1.395 . S
C1368 C1371 1.403 . S
C1369 C1366 1.403 . S
C1369 C1370 1.524 . S
C1369 C1373 1.400 . S
C1370 H1355 0.960 . S
C1370 H1356 0.960 . S
C1370 H1357 0.960 . S
C1370 C1369 1.524 . S
C1371 C1368 1.403 . S
C1371 C1372 1.392 . S
C1371 C1375 1.495 . S
C1372 C1371 1.392 . S
C1372 C1373 1.385 . S
C1372 C1374 1.478 . S
C1373 H1367 0.930 . S
C1373 C1369 1.400 . S
C1373 C1372 1.385 . S
C1374 C1372 1.478 . S
C1374 C1376 1.381 . S
C1374 C1380 1.383 . S
C1375 C1371 1.495 . S
C1375 H1381 0.959 . S
C1375 H1382 0.961 . S
C1375 H1383 0.960 . S
C1376 C1374 1.381 . S
C1376 C1377 1.394 . S
C1376 H1384 0.930 . S
C1377 C1376 1.394 . S
C1377 C1378 1.383 . S
C1377 H1385 0.929 . S
C1378 C1377 1.383 . S
C1378 C1379 1.377 . S
C1379 H1363 0.930 . S
C1379 C1378 1.377 . S
C1379 C1380 1.379 . S
C1380 H1364 0.931 . S
C1380 C1374 1.383 . S
C1380 C1379 1.379 . S
H1381 C1375 0.959 . S
H1382 C1375 0.961 . S
H1383 C1375 0.960 . S
H1384 C1376 0.930 . S
H1385 C1377 0.929 . S
H1386 C1394 0.929 . S
H1387 C1396 0.930 . S
H1388 C1398 0.930 . S
H1389 C1401 0.929 . S
H1390 C1404 0.930 . S
H1391 C1406 0.960 . S
H1392 C1406 0.960 . S
H1393 C1406 0.960 . S
C1394 H1386 0.929 . S
C1394 C1395 1.377 . S
C1394 C1396 1.384 . S
C1395 C1394 1.377 . S
C1395 C1401 1.390 . S
C1396 H1387 0.930 . S
C1396 C1394 1.384 . S
C1396 C1397 1.372 . S
C1397 C1396 1.372 . S
C1397 C1398 1.400 . S
C1397 C1402 1.490 . S
C1398 H1388 0.930 . S
C1398 C1397 1.400 . S
C1398 C1401 1.386 . S
H1399 C1415 0.930 . S
H1400 C1416 0.931 . S
C1401 H1389 0.929 . S
C1401 C1395 1.390 . S
C1401 C1398 1.386 . S
C1402 C1397 1.490 . S
C1402 C1404 1.395 . S
C1402 C1405 1.403 . S
H1403 C1409 0.930 . S
C1404 H1390 0.930 . S
C1404 C1402 1.395 . S
C1404 C1407 1.403 . S
C1405 C1402 1.403 . S
C1405 C1406 1.524 . S
C1405 C1409 1.400 . S
C1406 H1391 0.960 . S
C1406 H1392 0.960 . S
C1406 H1393 0.960 . S
C1406 C1405 1.524 . S
C1407 C1404 1.403 . S
C1407 C1408 1.392 . S
C1407 C1411 1.495 . S
C1408 C1407 1.392 . S
C1408 C1409 1.385 . S
C1408 C1410 1.478 . S
C1409 H1403 0.930 . S
C1409 C1405 1.400 . S
C1409 C1408 1.385 . S
C1410 C1408 1.478 . S
C1410 C1412 1.381 . S
C1410 C1416 1.383 . S
C1411 C1407 1.495 . S
C1411 H1417 0.959 . S
C1411 H1418 0.961 . S
C1411 H1419 0.960 . S
C1412 C1410 1.381 . S
C1412 C1413 1.394 . S
C1412 H1420 0.930 . S
C1413 C1412 1.394 . S
C1413 C1414 1.383 . S
C1413 H1421 0.929 . S
C1414 C1413 1.383 . S
C1414 C1415 1.377 . S
C1415 H1399 0.930 . S
C1415 C1414 1.377 . S
C1415 C1416 1.379 . S
C1416 H1400 0.931 . S
C1416 C1410 1.383 . S
C1416 C1415 1.379 . S
H1417 C1411 0.959 . S
H1418 C1411 0.961 . S
H1419 C1411 0.960 . S
H1420 C1412 0.930 . S
H1421 C1413 0.929 . S
H1422 C1430 0.929 . S
H1423 C1432 0.930 . S
H1424 C1434 0.930 . S
H1425 C1437 0.929 . S
H1426 C1440 0.930 . S
H1427 C1442 0.960 . S
H1428 C1442 0.960 . S
H1429 C1442 0.960 . S
C1430 H1422 0.929 . S
C1430 C1431 1.377 . S
C1430 C1432 1.384 . S
C1431 C1430 1.377 . S
C1431 C1437 1.390 . S
C1432 H1423 0.930 . S
C1432 C1430 1.384 . S
C1432 C1433 1.372 . S
C1433 C1432 1.372 . S
C1433 C1434 1.400 . S
C1433 C1438 1.490 . S
C1434 H1424 0.930 . S
C1434 C1433 1.400 . S
C1434 C1437 1.386 . S
H1435 C1451 0.930 . S
H1436 C1452 0.931 . S
C1437 H1425 0.929 . S
C1437 C1431 1.390 . S
C1437 C1434 1.386 . S
C1438 C1433 1.490 . S
C1438 C1440 1.395 . S
C1438 C1441 1.403 . S
H1439 C1445 0.930 . S
C1440 H1426 0.930 . S
C1440 C1438 1.395 . S
C1440 C1443 1.403 . S
C1441 C1438 1.403 . S
C1441 C1442 1.524 . S
C1441 C1445 1.400 . S
C1442 H1427 0.960 . S
C1442 H1428 0.960 . S
C1442 H1429 0.960 . S
C1442 C1441 1.524 . S
C1443 C1440 1.403 . S
C1443 C1444 1.392 . S
C1443 C1447 1.495 . S
C1444 C1443 1.392 . S
C1444 C1445 1.385 . S
C1444 C1446 1.478 . S
C1445 H1439 0.930 . S
C1445 C1441 1.400 . S
C1445 C1444 1.385 . S
C1446 C1444 1.478 . S
C1446 C1448 1.381 . S
C1446 C1452 1.383 . S
C1447 C1443 1.495 . S
C1447 H1453 0.959 . S
C1447 H1454 0.961 . S
C1447 H1455 0.960 . S
C1448 C1446 1.381 . S
C1448 C1449 1.394 . S
C1448 H1456 0.930 . S
C1449 C1448 1.394 . S
C1449 C1450 1.383 . S
C1449 H1457 0.929 . S
C1450 C1449 1.383 . S
C1450 C1451 1.377 . S
C1451 H1435 0.930 . S
C1451 C1450 1.377 . S
C1451 C1452 1.379 . S
C1452 H1436 0.931 . S
C1452 C1446 1.383 . S
C1452 C1451 1.379 . S
H1453 C1447 0.959 . S
H1454 C1447 0.961 . S
H1455 C1447 0.960 . S
H1456 C1448 0.930 . S
H1457 C1449 0.929 . S
H1458 C1466 0.929 . S
H1459 C1468 0.930 . S
H1460 C1470 0.930 . S
H1461 C1473 0.929 . S
H1462 C1476 0.930 . S
H1463 C1478 0.960 . S
H1464 C1478 0.960 . S
H1465 C1478 0.960 . S
C1466 H1458 0.929 . S
C1466 C1467 1.377 . S
C1466 C1468 1.384 . S
C1467 C1466 1.377 . S
C1467 C1473 1.390 . S
C1468 H1459 0.930 . S
C1468 C1466 1.384 . S
C1468 C1469 1.372 . S
C1469 C1468 1.372 . S
C1469 C1470 1.400 . S
C1469 C1474 1.490 . S
C1470 H1460 0.930 . S
C1470 C1469 1.400 . S
C1470 C1473 1.386 . S
H1471 C1487 0.930 . S
H1472 C1488 0.931 . S
C1473 H1461 0.929 . S
C1473 C1467 1.390 . S
C1473 C1470 1.386 . S
C1474 C1469 1.490 . S
C1474 C1476 1.395 . S
C1474 C1477 1.403 . S
H1475 C1481 0.930 . S
C1476 H1462 0.930 . S
C1476 C1474 1.395 . S
C1476 C1479 1.403 . S
C1477 C1474 1.403 . S
C1477 C1478 1.524 . S
C1477 C1481 1.400 . S
C1478 H1463 0.960 . S
C1478 H1464 0.960 . S
C1478 H1465 0.960 . S
C1478 C1477 1.524 . S
C1479 C1476 1.403 . S
C1479 C1480 1.392 . S
C1479 C1483 1.495 . S
C1480 C1479 1.392 . S
C1480 C1481 1.385 . S
C1480 C1482 1.478 . S
C1481 H1475 0.930 . S
C1481 C1477 1.400 . S
C1481 C1480 1.385 . S
C1482 C1480 1.478 . S
C1482 C1484 1.381 . S
C1482 C1488 1.383 . S
C1483 C1479 1.495 . S
C1483 H1489 0.959 . S
C1483 H1490 0.961 . S
C1483 H1491 0.960 . S
C1484 C1482 1.381 . S
C1484 C1485 1.394 . S
C1484 H1492 0.930 . S
C1485 C1484 1.394 . S
C1485 C1486 1.383 . S
C1485 H1493 0.929 . S
C1486 C1485 1.383 . S
C1486 C1487 1.377 . S
C1487 H1471 0.930 . S
C1487 C1486 1.377 . S
C1487 C1488 1.379 . S
C1488 H1472 0.931 . S
C1488 C1482 1.383 . S
C1488 C1487 1.379 . S
H1489 C1483 0.959 . S
H1490 C1483 0.961 . S
H1491 C1483 0.960 . S
H1492 C1484 0.930 . S
H1493 C1485 0.929 . S
H1494 C1502 0.929 . S
H1495 C1504 0.930 . S
H1496 C1506 0.930 . S
H1497 C1509 0.929 . S
H1498 C1512 0.930 . S
H1499 C1514 0.960 . S
H1500 C1514 0.960 . S
H1501 C1514 0.960 . S
C1502 H1494 0.929 . S
C1502 C1503 1.377 . S
C1502 C1504 1.384 . S
C1503 C1502 1.377 . S
C1503 C1509 1.390 . S
C1504 H1495 0.930 . S
C1504 C1502 1.384 . S
C1504 C1505 1.372 . S
C1505 C1504 1.372 . S
C1505 C1506 1.400 . S
C1505 C1510 1.490 . S
C1506 H1496 0.930 . S
C1506 C1505 1.400 . S
C1506 C1509 1.386 . S
H1507 C1523 0.930 . S
H1508 C1524 0.931 . S
C1509 H1497 0.929 . S
C1509 C1503 1.390 . S
C1509 C1506 1.386 . S
C1510 C1505 1.490 . S
C1510 C1512 1.395 . S
C1510 C1513 1.403 . S
H1511 C1517 0.930 . S
C1512 H1498 0.930 . S
C1512 C1510 1.395 . S
C1512 C1515 1.403 . S
C1513 C1510 1.403 . S
C1513 C1514 1.524 . S
C1513 C1517 1.400 . S
C1514 H1499 0.960 . S
C1514 H1500 0.960 . S
C1514 H1501 0.960 . S
C1514 C1513 1.524 . S
C1515 C1512 1.403 . S
C1515 C1516 1.392 . S
C1515 C1519 1.495 . S
C1516 C1515 1.392 . S
C1516 C1517 1.385 . S
C1516 C1518 1.478 . S
C1517 H1511 0.930 . S
C1517 C1513 1.400 . S
C1517 C1516 1.385 . S
C1518 C1516 1.478 . S
C1518 C1520 1.381 . S
C1518 C1524 1.383 . S
C1519 C1515 1.495 . S
C1519 H1525 0.959 . S
C1519 H1526 0.961 . S
C1519 H1527 0.960 . S
C1520 C1518 1.381 . S
C1520 C1521 1.394 . S
C1520 H1528 0.930 . S
C1521 C1520 1.394 . S
C1521 C1522 1.383 . S
C1521 H1529 0.929 . S
C1522 C1521 1.383 . S
C1522 C1523 1.377 . S
C1523 H1507 0.930 . S
C1523 C1522 1.377 . S
C1523 C1524 1.379 . S
C1524 H1508 0.931 . S
C1524 C1518 1.383 . S
C1524 C1523 1.379 . S
H1525 C1519 0.959 . S
H1526 C1519 0.961 . S
H1527 C1519 0.960 . S
H1528 C1520 0.930 . S
H1529 C1521 0.929 . S
H1530 C1538 0.929 . S
H1531 C1540 0.930 . S
H1532 C1542 0.930 . S
H1533 C1545 0.929 . S
H1534 C1548 0.930 . S
H1535 C1550 0.960 1_545 S
H1536 C1550 0.960 . S
H1537 C1550 0.960 . S
C1538 H1530 0.929 . S
C1538 C1539 1.377 . S
C1538 C1540 1.384 . S
C1539 C1538 1.377 . S
C1539 C1545 1.390 . S
C1540 H1531 0.930 . S
C1540 C1538 1.384 . S
C1540 C1541 1.372 . S
C1541 C1540 1.372 . S
C1541 C1542 1.400 . S
C1541 C1546 1.490 . S
C1542 H1532 0.930 . S
C1542 C1541 1.400 . S
C1542 C1545 1.386 . S
H1543 C1559 0.930 . S
H1544 C1560 0.931 . S
C1545 H1533 0.929 . S
C1545 C1539 1.390 . S
C1545 C1542 1.386 . S
C1546 C1541 1.490 . S
C1546 C1548 1.395 1_565 S
C1546 C1549 1.403 1_565 S
H1547 C1553 0.930 . S
C1548 H1534 0.930 . S
C1548 C1546 1.395 1_545 S
C1548 C1551 1.403 . S
C1549 C1546 1.403 1_545 S
C1549 C1550 1.524 1_545 S
C1549 C1553 1.400 . S
C1550 H1535 0.960 1_565 S
C1550 H1536 0.960 . S
C1550 H1537 0.960 . S
C1550 C1549 1.524 1_565 S
C1551 C1548 1.403 . S
C1551 C1552 1.392 . S
C1551 C1555 1.495 . S
C1552 C1551 1.392 . S
C1552 C1553 1.385 . S
C1552 C1554 1.478 . S
C1553 H1547 0.930 . S
C1553 C1549 1.400 . S
C1553 C1552 1.385 . S
C1554 C1552 1.478 . S
C1554 C1556 1.381 . S
C1554 C1560 1.383 . S
C1555 C1551 1.495 . S
C1555 H1561 0.959 . S
C1555 H1562 0.961 . S
C1555 H1563 0.960 . S
C1556 C1554 1.381 . S
C1556 C1557 1.394 . S
C1556 H1564 0.930 . S
C1557 C1556 1.394 . S
C1557 C1558 1.383 . S
C1557 H1565 0.929 . S
C1558 C1557 1.383 . S
C1558 C1559 1.377 . S
C1559 H1543 0.930 . S
C1559 C1558 1.377 . S
C1559 C1560 1.379 . S
C1560 H1544 0.931 . S
C1560 C1554 1.383 . S
C1560 C1559 1.379 . S
H1561 C1555 0.959 . S
H1562 C1555 0.961 . S
H1563 C1555 0.960 . S
H1564 C1556 0.930 . S
H1565 C1557 0.929 . S
H1566 C1574 0.929 . S
H1567 C1576 0.930 . S
H1568 C1578 0.930 . S
H1569 C1581 0.929 . S
H1570 C1584 0.930 1_455 S
H1571 C1586 0.960 . S
H1572 C1586 0.960 . S
H1573 C1586 0.960 . S
C1574 H1566 0.929 . S
C1574 C1575 1.377 . S
C1574 C1576 1.384 . S
C1575 C1574 1.377 . S
C1575 C1581 1.390 . S
C1576 H1567 0.930 . S
C1576 C1574 1.384 . S
C1576 C1577 1.372 . S
C1577 C1576 1.372 . S
C1577 C1578 1.400 . S
C1577 C1582 1.490 1_455 S
C1578 H1568 0.930 . S
C1578 C1577 1.400 . S
C1578 C1581 1.386 . S
H1579 C1595 0.930 . S
H1580 C1596 0.931 . S
C1581 H1569 0.929 . S
C1581 C1575 1.390 . S
C1581 C1578 1.386 . S
C1582 C1577 1.490 1_655 S
C1582 C1584 1.395 . S
C1582 C1585 1.403 . S
H1583 C1589 0.930 . S
C1584 H1570 0.930 1_655 S
C1584 C1582 1.395 . S
C1584 C1587 1.403 . S
C1585 C1582 1.403 . S
C1585 C1586 1.524 . S
C1585 C1589 1.400 . S
C1586 H1571 0.960 . S
C1586 H1572 0.960 . S
C1586 H1573 0.960 . S
C1586 C1585 1.524 . S
C1587 C1584 1.403 . S
C1587 C1588 1.392 . S
C1587 C1591 1.495 . S
C1588 C1587 1.392 . S
C1588 C1589 1.385 . S
C1588 C1590 1.478 . S
C1589 H1583 0.930 . S
C1589 C1585 1.400 . S
C1589 C1588 1.385 . S
C1590 C1588 1.478 . S
C1590 C1592 1.381 . S
C1590 C1596 1.383 . S
C1591 C1587 1.495 . S
C1591 H1597 0.959 . S
C1591 H1598 0.961 . S
C1591 H1599 0.960 . S
C1592 C1590 1.381 . S
C1592 C1593 1.394 . S
C1592 H1600 0.930 . S
C1593 C1592 1.394 . S
C1593 C1594 1.383 . S
C1593 H1601 0.929 . S
C1594 C1593 1.383 . S
C1594 C1595 1.377 . S
C1595 H1579 0.930 . S
C1595 C1594 1.377 . S
C1595 C1596 1.379 . S
C1596 H1580 0.931 . S
C1596 C1590 1.383 . S
C1596 C1595 1.379 . S
H1597 C1591 0.959 . S
H1598 C1591 0.961 . S
H1599 C1591 0.960 . S
H1600 C1592 0.930 . S
H1601 C1593 0.929 . S
H1602 C1610 0.929 . S
H1603 C1612 0.930 . S
H1604 C1614 0.930 . S
H1605 C1617 0.929 . S
H1606 C1620 0.930 . S
H1607 C1622 0.960 . S
H1608 C1622 0.960 . S
H1609 C1622 0.960 . S
C1610 H1602 0.929 . S
C1610 C1611 1.377 . S
C1610 C1612 1.384 . S
C1611 C1610 1.377 . S
C1611 C1617 1.390 . S
C1612 H1603 0.930 . S
C1612 C1610 1.384 . S
C1612 C1613 1.372 . S
C1613 C1612 1.372 . S
C1613 C1614 1.400 . S
C1613 C1618 1.490 . S
C1614 H1604 0.930 . S
C1614 C1613 1.400 . S
C1614 C1617 1.386 . S
H1615 C1631 0.930 . S
H1616 C1632 0.931 . S
C1617 H1605 0.929 . S
C1617 C1611 1.390 . S
C1617 C1614 1.386 . S
C1618 C1613 1.490 . S
C1618 C1620 1.395 . S
C1618 C1621 1.403 . S
H1619 C1625 0.930 . S
C1620 H1606 0.930 . S
C1620 C1618 1.395 . S
C1620 C1623 1.403 . S
C1621 C1618 1.403 . S
C1621 C1622 1.524 . S
C1621 C1625 1.400 . S
C1622 H1607 0.960 . S
C1622 H1608 0.960 . S
C1622 H1609 0.960 . S
C1622 C1621 1.524 . S
C1623 C1620 1.403 . S
C1623 C1624 1.392 . S
C1623 C1627 1.495 . S
C1624 C1623 1.392 . S
C1624 C1625 1.385 . S
C1624 C1626 1.478 . S
C1625 H1619 0.930 . S
C1625 C1621 1.400 . S
C1625 C1624 1.385 . S
C1626 C1624 1.478 . S
C1626 C1628 1.381 . S
C1626 C1632 1.383 . S
C1627 C1623 1.495 . S
C1627 H1633 0.959 . S
C1627 H1634 0.961 . S
C1627 H1635 0.960 . S
C1628 C1626 1.381 . S
C1628 C1629 1.394 . S
C1628 H1636 0.930 . S
C1629 C1628 1.394 . S
C1629 C1630 1.383 . S
C1629 H1637 0.929 . S
C1630 C1629 1.383 . S
C1630 C1631 1.377 . S
C1631 H1615 0.930 . S
C1631 C1630 1.377 . S
C1631 C1632 1.379 . S
C1632 H1616 0.931 . S
C1632 C1626 1.383 . S
C1632 C1631 1.379 . S
H1633 C1627 0.959 . S
H1634 C1627 0.961 . S
H1635 C1627 0.960 . S
H1636 C1628 0.930 . S
H1637 C1629 0.929 . S
H1638 C1646 0.929 . S
H1639 C1648 0.930 . S
H1640 C1650 0.930 . S
H1641 C1653 0.929 . S
H1642 C1656 0.930 . S
H1643 C1658 0.960 . S
H1644 C1658 0.960 1_455 S
H1645 C1658 0.960 1_455 S
C1646 H1638 0.929 . S
C1646 C1647 1.377 . S
C1646 C1648 1.384 . S
C1647 C1646 1.377 . S
C1647 C1653 1.390 . S
C1648 H1639 0.930 . S
C1648 C1646 1.384 . S
C1648 C1649 1.372 . S
C1649 C1648 1.372 . S
C1649 C1650 1.400 . S
C1649 C1654 1.490 1_455 S
C1650 H1640 0.930 . S
C1650 C1649 1.400 . S
C1650 C1653 1.386 . S
H1651 C1667 0.930 . S
H1652 C1668 0.931 . S
C1653 H1641 0.929 . S
C1653 C1647 1.390 . S
C1653 C1650 1.386 . S
C1654 C1649 1.490 1_655 S
C1654 C1656 1.395 . S
C1654 C1657 1.403 . S
H1655 C1661 0.930 . S
C1656 H1642 0.930 . S
C1656 C1654 1.395 . S
C1656 C1659 1.403 . S
C1657 C1654 1.403 . S
C1657 C1658 1.524 . S
C1657 C1661 1.400 . S
C1658 H1643 0.960 . S
C1658 H1644 0.960 1_655 S
C1658 H1645 0.960 1_655 S
C1658 C1657 1.524 . S
C1659 C1656 1.403 . S
C1659 C1660 1.392 . S
C1659 C1663 1.495 . S
C1660 C1659 1.392 . S
C1660 C1661 1.385 . S
C1660 C1662 1.478 . S
C1661 H1655 0.930 . S
C1661 C1657 1.400 . S
C1661 C1660 1.385 . S
C1662 C1660 1.478 . S
C1662 C1664 1.381 . S
C1662 C1668 1.383 . S
C1663 C1659 1.495 . S
C1663 H1669 0.959 . S
C1663 H1670 0.961 . S
C1663 H1671 0.960 . S
C1664 C1662 1.381 . S
C1664 C1665 1.394 . S
C1664 H1672 0.930 . S
C1665 C1664 1.394 . S
C1665 C1666 1.383 . S
C1665 H1673 0.929 . S
C1666 C1665 1.383 . S
C1666 C1667 1.377 . S
C1667 H1651 0.930 . S
C1667 C1666 1.377 . S
C1667 C1668 1.379 . S
C1668 H1652 0.931 . S
C1668 C1662 1.383 . S
C1668 C1667 1.379 . S
H1669 C1663 0.959 . S
H1670 C1663 0.961 . S
H1671 C1663 0.960 . S
H1672 C1664 0.930 . S
H1673 C1665 0.929 . S
H1674 C1682 0.929 . S
H1675 C1684 0.930 . S
H1676 C1686 0.930 . S
H1677 C1689 0.929 . S
H1678 C1692 0.930 . S
H1679 C1694 0.960 . S
H1680 C1694 0.960 . S
H1681 C1694 0.960 . S
C1682 H1674 0.929 . S
C1682 C1683 1.377 . S
C1682 C1684 1.384 . S
C1683 C1682 1.377 . S
C1683 C1689 1.390 . S
C1684 H1675 0.930 . S
C1684 C1682 1.384 . S
C1684 C1685 1.372 . S
C1685 C1684 1.372 . S
C1685 C1686 1.400 . S
C1685 C1690 1.490 . S
C1686 H1676 0.930 . S
C1686 C1685 1.400 . S
C1686 C1689 1.386 . S
H1687 C1703 0.930 . S
H1688 C1704 0.931 . S
C1689 H1677 0.929 . S
C1689 C1683 1.390 . S
C1689 C1686 1.386 . S
C1690 C1685 1.490 . S
C1690 C1692 1.395 . S
C1690 C1693 1.403 . S
H1691 C1697 0.930 . S
C1692 H1678 0.930 . S
C1692 C1690 1.395 . S
C1692 C1695 1.403 . S
C1693 C1690 1.403 . S
C1693 C1694 1.524 . S
C1693 C1697 1.400 . S
C1694 H1679 0.960 . S
C1694 H1680 0.960 . S
C1694 H1681 0.960 . S
C1694 C1693 1.524 . S
C1695 C1692 1.403 . S
C1695 C1696 1.392 . S
C1695 C1699 1.495 . S
C1696 C1695 1.392 . S
C1696 C1697 1.385 . S
C1696 C1698 1.478 . S
C1697 H1691 0.930 . S
C1697 C1693 1.400 . S
C1697 C1696 1.385 . S
C1698 C1696 1.478 . S
C1698 C1700 1.381 . S
C1698 C1704 1.383 . S
C1699 C1695 1.495 . S
C1699 H1705 0.959 . S
C1699 H1706 0.961 . S
C1699 H1707 0.960 . S
C1700 C1698 1.381 . S
C1700 C1701 1.394 . S
C1700 H1708 0.930 . S
C1701 C1700 1.394 . S
C1701 C1702 1.383 . S
C1701 H1709 0.929 . S
C1702 C1701 1.383 . S
C1702 C1703 1.377 . S
C1703 H1687 0.930 . S
C1703 C1702 1.377 . S
C1703 C1704 1.379 . S
C1704 H1688 0.931 . S
C1704 C1698 1.383 . S
C1704 C1703 1.379 . S
H1705 C1699 0.959 . S
H1706 C1699 0.961 . S
H1707 C1699 0.960 . S
H1708 C1700 0.930 . S
H1709 C1701 0.929 . S
H1710 C1718 0.929 . S
H1711 C1720 0.930 . S
H1712 C1722 0.930 . S
H1713 C1725 0.929 . S
H1714 C1728 0.930 1_565 S
H1715 C1730 0.960 . S
H1716 C1730 0.960 1_565 S
H1717 C1730 0.953 1_565 S
C1718 H1710 0.929 . S
C1718 C1719 1.377 . S
C1718 C1720 1.384 . S
C1719 C1718 1.377 . S
C1719 C1725 1.390 . S
C1720 H1711 0.930 . S
C1720 C1718 1.384 . S
C1720 C1721 1.372 . S
C1721 C1720 1.372 . S
C1721 C1722 1.400 . S
C1721 C1726 1.485 1_565 S
C1722 H1712 0.930 . S
C1722 C1721 1.400 . S
C1722 C1725 1.386 . S
H1723 C1739 0.930 . S
H1724 C1740 0.931 . S
C1725 H1713 0.929 . S
C1725 C1719 1.390 . S
C1725 C1722 1.386 . S
C1726 C1721 1.485 1_545 S
C1726 C1728 1.398 . S
C1726 C1729 1.404 . S
H1727 C1733 0.930 . S
C1728 H1714 0.930 1_545 S
C1728 C1726 1.398 . S
C1728 C1731 1.403 . S
C1729 C1726 1.404 . S
C1729 C1730 1.524 . S
C1729 C1733 1.400 . S
C1730 H1715 0.960 . S
C1730 H1716 0.960 1_545 S
C1730 H1717 0.953 1_545 S
C1730 C1729 1.524 . S
C1731 C1728 1.403 . S
C1731 C1732 1.392 . S
C1731 C1735 1.495 . S
C1732 C1731 1.392 . S
C1732 C1733 1.385 . S
C1732 C1734 1.478 . S
C1733 H1727 0.930 . S
C1733 C1729 1.400 . S
C1733 C1732 1.385 . S
C1734 C1732 1.478 . S
C1734 C1736 1.381 . S
C1734 C1740 1.383 . S
C1735 C1731 1.495 . S
C1735 H1741 0.959 . S
C1735 H1742 0.961 . S
C1735 H1743 0.960 . S
C1736 C1734 1.381 . S
C1736 C1737 1.394 . S
C1736 H1744 0.930 . S
C1737 C1736 1.394 . S
C1737 C1738 1.383 . S
C1737 H1745 0.929 . S
C1738 C1737 1.383 . S
C1738 C1739 1.377 . S
C1739 H1723 0.930 . S
C1739 C1738 1.377 . S
C1739 C1740 1.379 . S
C1740 H1724 0.931 . S
C1740 C1734 1.383 . S
C1740 C1739 1.379 . S
H1741 C1735 0.959 . S
H1742 C1735 0.961 . S
H1743 C1735 0.960 . S
H1744 C1736 0.930 . S
H1745 C1737 0.929 . S
H1746 C1754 0.929 . S
H1747 C1756 0.930 . S
H1748 C1758 0.930 . S
H1749 C1761 0.929 . S
H1750 C1764 0.930 . S
H1751 C1766 0.960 . S
H1752 C1766 0.960 . S
H1753 C1766 0.960 . S
C1754 H1746 0.929 . S
C1754 C1755 1.377 . S
C1754 C1756 1.384 . S
C1755 C1754 1.377 . S
C1755 C1761 1.390 . S
C1756 H1747 0.930 . S
C1756 C1754 1.384 . S
C1756 C1757 1.372 . S
C1757 C1756 1.372 . S
C1757 C1758 1.400 . S
C1757 C1762 1.490 . S
C1758 H1748 0.930 . S
C1758 C1757 1.400 . S
C1758 C1761 1.386 . S
H1759 C1775 0.930 . S
H1760 C1776 0.931 . S
C1761 H1749 0.929 . S
C1761 C1755 1.390 . S
C1761 C1758 1.386 . S
C1762 C1757 1.490 . S
C1762 C1764 1.395 . S
C1762 C1765 1.403 . S
H1763 C1769 0.930 . S
C1764 H1750 0.930 . S
C1764 C1762 1.395 . S
C1764 C1767 1.403 . S
C1765 C1762 1.403 . S
C1765 C1766 1.524 . S
C1765 C1769 1.400 . S
C1766 H1751 0.960 . S
C1766 H1752 0.960 . S
C1766 H1753 0.960 . S
C1766 C1765 1.524 . S
C1767 C1764 1.403 . S
C1767 C1768 1.392 . S
C1767 C1771 1.495 . S
C1768 C1767 1.392 . S
C1768 C1769 1.385 . S
C1768 C1770 1.478 . S
C1769 H1763 0.930 . S
C1769 C1765 1.400 . S
C1769 C1768 1.385 . S
C1770 C1768 1.478 . S
C1770 C1772 1.381 . S
C1770 C1776 1.383 . S
C1771 C1767 1.495 . S
C1771 H1777 0.959 . S
C1771 H1778 0.961 . S
C1771 H1779 0.960 . S
C1772 C1770 1.381 . S
C1772 C1773 1.394 . S
C1772 H1780 0.930 . S
C1773 C1772 1.394 . S
C1773 C1774 1.383 . S
C1773 H1781 0.929 . S
C1774 C1773 1.383 . S
C1774 C1775 1.377 . S
C1775 H1759 0.930 . S
C1775 C1774 1.377 . S
C1775 C1776 1.379 . S
C1776 H1760 0.931 . S
C1776 C1770 1.383 . S
C1776 C1775 1.379 . S
H1777 C1771 0.959 . S
H1778 C1771 0.961 . S
H1779 C1771 0.960 . S
H1780 C1772 0.930 . S
H1781 C1773 0.929 . S
H1782 C1790 0.929 . S
H1783 C1792 0.930 . S
H1784 C1794 0.930 . S
H1785 C1797 0.929 . S
H1786 C1800 0.930 . S
H1787 C1802 0.960 . S
H1788 C1802 0.960 . S
H1789 C1802 0.960 . S
C1790 H1782 0.929 . S
C1790 C1791 1.377 . S
C1790 C1792 1.384 . S
C1791 C1790 1.377 . S
C1791 C1797 1.390 . S
C1792 H1783 0.930 . S
C1792 C1790 1.384 . S
C1792 C1793 1.372 . S
C1793 C1792 1.372 . S
C1793 C1794 1.400 . S
C1793 C1798 1.490 . S
C1794 H1784 0.930 . S
C1794 C1793 1.400 . S
C1794 C1797 1.386 . S
H1795 C1811 0.930 . S
H1796 C1812 0.931 . S
C1797 H1785 0.929 . S
C1797 C1791 1.390 . S
C1797 C1794 1.386 . S
C1798 C1793 1.490 . S
C1798 C1800 1.395 . S
C1798 C1801 1.403 . S
H1799 C1805 0.930 . S
C1800 H1786 0.930 . S
C1800 C1798 1.395 . S
C1800 C1803 1.403 . S
C1801 C1798 1.403 . S
C1801 C1802 1.524 . S
C1801 C1805 1.400 . S
C1802 H1787 0.960 . S
C1802 H1788 0.960 . S
C1802 H1789 0.960 . S
C1802 C1801 1.524 . S
C1803 C1800 1.403 . S
C1803 C1804 1.392 . S
C1803 C1807 1.495 . S
C1804 C1803 1.392 . S
C1804 C1805 1.385 . S
C1804 C1806 1.478 . S
C1805 H1799 0.930 . S
C1805 C1801 1.400 . S
C1805 C1804 1.385 . S
C1806 C1804 1.478 . S
C1806 C1808 1.381 . S
C1806 C1812 1.383 . S
C1807 C1803 1.495 . S
C1807 H1813 0.959 . S
C1807 H1814 0.961 . S
C1807 H1815 0.960 . S
C1808 C1806 1.381 . S
C1808 C1809 1.394 . S
C1808 H1816 0.930 . S
C1809 C1808 1.394 . S
C1809 C1810 1.383 . S
C1809 H1817 0.929 . S
C1810 C1809 1.383 . S
C1810 C1811 1.377 . S
C1811 H1795 0.930 . S
C1811 C1810 1.377 . S
C1811 C1812 1.379 . S
C1812 H1796 0.931 . S
C1812 C1806 1.383 . S
C1812 C1811 1.379 . S
H1813 C1807 0.959 . S
H1814 C1807 0.961 . S
H1815 C1807 0.960 . S
H1816 C1808 0.930 . S
H1817 C1809 0.929 . S
H1818 C1826 0.929 . S
H1819 C1828 0.930 . S
H1820 C1830 0.930 . S
H1821 C1833 0.929 . S
H1822 C1836 0.930 . S
H1823 C1838 0.960 . S
H1824 C1838 0.960 . S
H1825 C1838 0.960 . S
C1826 H1818 0.929 . S
C1826 C1827 1.377 . S
C1826 C1828 1.384 . S
C1827 C1826 1.377 . S
C1827 C1833 1.390 . S
C1828 H1819 0.930 . S
C1828 C1826 1.384 . S
C1828 C1829 1.372 . S
C1829 C1828 1.372 . S
C1829 C1830 1.400 . S
C1829 C1834 1.490 . S
C1830 H1820 0.930 . S
C1830 C1829 1.400 . S
C1830 C1833 1.386 . S
H1831 C1847 0.930 . S
H1832 C1848 0.931 . S
C1833 H1821 0.929 . S
C1833 C1827 1.390 . S
C1833 C1830 1.386 . S
C1834 C1829 1.490 . S
C1834 C1836 1.395 . S
C1834 C1837 1.403 . S
H1835 C1841 0.930 . S
C1836 H1822 0.930 . S
C1836 C1834 1.395 . S
C1836 C1839 1.403 . S
C1837 C1834 1.403 . S
C1837 C1838 1.524 . S
C1837 C1841 1.400 . S
C1838 H1823 0.960 . S
C1838 H1824 0.960 . S
C1838 H1825 0.960 . S
C1838 C1837 1.524 . S
C1839 C1836 1.403 . S
C1839 C1840 1.392 . S
C1839 C1843 1.495 . S
C1840 C1839 1.392 . S
C1840 C1841 1.385 . S
C1840 C1842 1.478 . S
C1841 H1835 0.930 . S
C1841 C1837 1.400 . S
C1841 C1840 1.385 . S
C1842 C1840 1.478 . S
C1842 C1844 1.381 . S
C1842 C1848 1.383 . S
C1843 C1839 1.495 . S
C1843 H1849 0.959 . S
C1843 H1850 0.961 . S
C1843 H1851 0.960 . S
C1844 C1842 1.381 . S
C1844 C1845 1.394 . S
C1844 H1852 0.930 . S
C1845 C1844 1.394 . S
C1845 C1846 1.383 . S
C1845 H1853 0.929 . S
C1846 C1845 1.383 . S
C1846 C1847 1.377 . S
C1847 H1831 0.930 . S
C1847 C1846 1.377 . S
C1847 C1848 1.379 . S
C1848 H1832 0.931 . S
C1848 C1842 1.383 . S
C1848 C1847 1.379 . S
H1849 C1843 0.959 . S
H1850 C1843 0.961 . S
H1851 C1843 0.960 . S
H1852 C1844 0.930 . S
H1853 C1845 0.929 . S
H1854 C1862 0.929 . S
H1855 C1864 0.930 . S
H1856 C1866 0.930 . S
H1857 C1869 0.929 . S
H1858 C1872 0.930 . S
H1859 C1874 0.960 . S
H1860 C1874 0.960 . S
H1861 C1874 0.960 . S
C1862 H1854 0.929 . S
C1862 C1863 1.377 . S
C1862 C1864 1.384 . S
C1863 C1862 1.377 . S
C1863 C1869 1.390 . S
C1864 H1855 0.930 . S
C1864 C1862 1.384 . S
C1864 C1865 1.372 . S
C1865 C1864 1.372 . S
C1865 C1866 1.400 . S
C1865 C1870 1.490 . S
C1866 H1856 0.930 . S
C1866 C1865 1.400 . S
C1866 C1869 1.386 . S
H1867 C1883 0.932 . S
H1868 C1884 0.931 . S
C1869 H1857 0.929 . S
C1869 C1863 1.390 . S
C1869 C1866 1.386 . S
C1870 C1865 1.490 . S
C1870 C1872 1.395 . S
C1870 C1873 1.403 . S
H1871 C1877 0.930 . S
C1872 H1858 0.930 . S
C1872 C1870 1.395 . S
C1872 C1875 1.403 . S
C1873 C1870 1.403 . S
C1873 C1874 1.524 . S
C1873 C1877 1.400 . S
C1874 H1859 0.960 . S
C1874 H1860 0.960 . S
C1874 H1861 0.960 . S
C1874 C1873 1.524 . S
C1875 C1872 1.403 . S
C1875 C1876 1.392 . S
C1875 C1879 1.495 . S
C1876 C1875 1.392 . S
C1876 C1877 1.385 . S
C1876 C1878 1.478 . S
C1877 H1871 0.930 . S
C1877 C1873 1.400 . S
C1877 C1876 1.385 . S
C1878 C1876 1.478 . S
C1878 C1880 1.381 . S
C1878 C1884 1.383 . S
C1879 C1875 1.495 . S
C1879 H1885 0.959 . S
C1879 H1886 0.961 . S
C1879 H1887 0.960 . S
C1880 C1878 1.381 . S
C1880 C1881 1.394 . S
C1880 H1888 0.930 . S
C1881 C1880 1.394 . S
C1881 C1882 1.383 . S
C1881 H1889 0.929 . S
C1882 C1881 1.383 . S
C1882 C1883 1.377 . S
C1883 H1867 0.932 . S
C1883 C1882 1.377 . S
C1883 C1884 1.379 . S
C1884 H1868 0.931 . S
C1884 C1878 1.383 . S
C1884 C1883 1.379 . S
H1885 C1879 0.959 . S
H1886 C1879 0.961 . S
H1887 C1879 0.960 . S
H1888 C1880 0.930 . S
H1889 C1881 0.929 . S
H1890 C1898 0.929 . S
H1891 C1900 0.930 . S
H1892 C1902 0.930 . S
H1893 C1905 0.929 . S
H1894 C1908 0.930 . S
H1895 C1910 0.960 . S
H1896 C1910 0.960 . S
H1897 C1910 0.960 . S
C1898 H1890 0.929 . S
C1898 C1899 1.377 . S
C1898 C1900 1.384 . S
C1899 C1898 1.377 . S
C1899 C1905 1.390 . S
C1900 H1891 0.930 . S
C1900 C1898 1.384 . S
C1900 C1901 1.372 . S
C1901 C1900 1.372 . S
C1901 C1902 1.400 . S
C1901 C1906 1.490 . S
C1902 H1892 0.930 . S
C1902 C1901 1.400 . S
C1902 C1905 1.386 . S
H1903 C1919 0.930 . S
H1904 C1920 0.931 . S
C1905 H1893 0.929 . S
C1905 C1899 1.390 . S
C1905 C1902 1.386 . S
C1906 C1901 1.490 . S
C1906 C1908 1.395 . S
C1906 C1909 1.403 . S
H1907 C1913 0.930 . S
C1908 H1894 0.930 . S
C1908 C1906 1.395 . S
C1908 C1911 1.403 . S
C1909 C1906 1.403 . S
C1909 C1910 1.524 . S
C1909 C1913 1.400 . S
C1910 H1895 0.960 . S
C1910 H1896 0.960 . S
C1910 H1897 0.960 . S
C1910 C1909 1.524 . S
C1911 C1908 1.403 . S
C1911 C1912 1.392 . S
C1911 C1915 1.495 . S
C1912 C1911 1.392 . S
C1912 C1913 1.385 . S
C1912 C1914 1.478 . S
C1913 H1907 0.930 . S
C1913 C1909 1.400 . S
C1913 C1912 1.385 . S
C1914 C1912 1.478 . S
C1914 C1916 1.381 . S
C1914 C1920 1.383 . S
C1915 C1911 1.495 . S
C1915 H1921 0.959 1_455 S
C1915 H1922 0.961 . S
C1915 H1923 0.959 1_455 S
C1916 C1914 1.381 . S
C1916 C1917 1.394 . S
C1916 H1924 0.930 . S
C1917 C1916 1.394 . S
C1917 C1918 1.383 . S
C1917 H1925 0.929 . S
C1918 C1917 1.383 . S
C1918 C1919 1.377 . S
C1919 H1903 0.930 . S
C1919 C1918 1.377 . S
C1919 C1920 1.379 . S
C1920 H1904 0.931 . S
C1920 C1914 1.383 . S
C1920 C1919 1.379 . S
H1921 C1915 0.959 1_655 S
H1922 C1915 0.961 . S
H1923 C1915 0.959 1_655 S
H1924 C1916 0.930 . S
H1925 C1917 0.929 . S
H1926 C1934 0.929 . S
H1927 C1936 0.930 . S
H1928 C1938 0.930 . S
H1929 C1941 0.929 . S
H1930 C1944 0.930 . S
H1931 C1946 0.960 . S
H1932 C1946 0.960 . S
H1933 C1946 0.960 . S
C1934 H1926 0.929 . S
C1934 C1935 1.377 . S
C1934 C1936 1.384 . S
C1935 C1934 1.377 . S
C1935 C1941 1.390 . S
C1936 H1927 0.930 . S
C1936 C1934 1.384 . S
C1936 C1937 1.372 . S
C1937 C1936 1.372 . S
C1937 C1938 1.400 . S
C1937 C1942 1.490 . S
C1938 H1928 0.930 . S
C1938 C1937 1.400 . S
C1938 C1941 1.386 . S
H1939 C1955 0.930 . S
H1940 C1956 0.931 . S
C1941 H1929 0.929 . S
C1941 C1935 1.390 . S
C1941 C1938 1.386 . S
C1942 C1937 1.490 . S
C1942 C1944 1.395 . S
C1942 C1945 1.403 . S
H1943 C1949 0.930 . S
C1944 H1930 0.930 . S
C1944 C1942 1.395 . S
C1944 C1947 1.403 . S
C1945 C1942 1.403 . S
C1945 C1946 1.524 . S
C1945 C1949 1.400 . S
C1946 H1931 0.960 . S
C1946 H1932 0.960 . S
C1946 H1933 0.960 . S
C1946 C1945 1.524 . S
C1947 C1944 1.403 . S
C1947 C1948 1.392 . S
C1947 C1951 1.495 . S
C1948 C1947 1.392 . S
C1948 C1949 1.385 . S
C1948 C1950 1.478 . S
C1949 H1943 0.930 . S
C1949 C1945 1.400 . S
C1949 C1948 1.385 . S
C1950 C1948 1.478 . S
C1950 C1952 1.381 . S
C1950 C1956 1.383 . S
C1951 C1947 1.495 . S
C1951 H1957 0.959 . S
C1951 H1958 0.961 . S
C1951 H1959 0.960 . S
C1952 C1950 1.381 . S
C1952 C1953 1.394 . S
C1952 H1960 0.930 . S
C1953 C1952 1.394 . S
C1953 C1954 1.383 . S
C1953 H1961 0.929 . S
C1954 C1953 1.383 . S
C1954 C1955 1.377 . S
C1955 H1939 0.930 . S
C1955 C1954 1.377 . S
C1955 C1956 1.379 . S
C1956 H1940 0.931 . S
C1956 C1950 1.383 . S
C1956 C1955 1.379 . S
H1957 C1951 0.959 . S
H1958 C1951 0.961 . S
H1959 C1951 0.960 . S
H1960 C1952 0.930 . S
H1961 C1953 0.929 . S
H1962 C1970 0.929 . S
H1963 C1972 0.930 . S
H1964 C1974 0.930 . S
H1965 C1977 0.929 . S
H1966 C1980 0.930 . S
H1967 C1982 0.960 . S
H1968 C1982 0.960 . S
H1969 C1982 0.960 . S
C1970 H1962 0.929 . S
C1970 C1971 1.377 . S
C1970 C1972 1.384 . S
C1971 C1970 1.377 . S
C1971 C1977 1.390 . S
C1972 H1963 0.930 . S
C1972 C1970 1.384 . S
C1972 C1973 1.372 . S
C1973 C1972 1.372 . S
C1973 C1974 1.400 . S
C1973 C1978 1.490 . S
C1974 H1964 0.930 . S
C1974 C1973 1.400 . S
C1974 C1977 1.386 . S
H1975 C1991 0.930 . S
H1976 C1992 0.931 . S
C1977 H1965 0.929 . S
C1977 C1971 1.390 . S
C1977 C1974 1.386 . S
C1978 C1973 1.490 . S
C1978 C1980 1.395 . S
C1978 C1981 1.403 . S
H1979 C1985 0.930 . S
C1980 H1966 0.930 . S
C1980 C1978 1.395 . S
C1980 C1983 1.403 . S
C1981 C1978 1.403 . S
C1981 C1982 1.524 . S
C1981 C1985 1.400 . S
C1982 H1967 0.960 . S
C1982 H1968 0.960 . S
C1982 H1969 0.960 . S
C1982 C1981 1.524 . S
C1983 C1980 1.403 . S
C1983 C1984 1.392 . S
C1983 C1987 1.495 . S
C1984 C1983 1.392 . S
C1984 C1985 1.385 . S
C1984 C1986 1.478 . S
C1985 H1979 0.930 . S
C1985 C1981 1.400 . S
C1985 C1984 1.385 . S
C1986 C1984 1.478 . S
C1986 C1988 1.381 . S
C1986 C1992 1.383 . S
C1987 C1983 1.495 . S
C1987 H1993 0.959 . S
C1987 H1994 0.961 . S
C1987 H1995 0.960 . S
C1988 C1986 1.381 . S
C1988 C1989 1.394 . S
C1988 H1996 0.930 . S
C1989 C1988 1.394 . S
C1989 C1990 1.383 . S
C1989 H1997 0.929 . S
C1990 C1989 1.383 . S
C1990 C1991 1.377 . S
C1991 H1975 0.930 . S
C1991 C1990 1.377 . S
C1991 C1992 1.379 . S
C1992 H1976 0.931 . S
C1992 C1986 1.383 . S
C1992 C1991 1.379 . S
H1993 C1987 0.959 . S
H1994 C1987 0.961 . S
H1995 C1987 0.960 . S
H1996 C1988 0.930 . S
H1997 C1989 0.929 . S
H1998 C2006 0.929 . S
H1999 C2008 0.930 . S
H2000 C2010 0.930 . S
H2001 C2013 0.929 . S
H2002 C2016 0.930 . S
H2003 C2018 0.960 . S
H2004 C2018 0.960 . S
H2005 C2018 0.960 . S
C2006 H1998 0.929 . S
C2006 C2007 1.377 . S
C2006 C2008 1.384 . S
C2007 C2006 1.377 . S
C2007 C2013 1.390 . S
C2008 H1999 0.930 . S
C2008 C2006 1.384 . S
C2008 C2009 1.372 . S
C2009 C2008 1.372 . S
C2009 C2010 1.400 . S
C2009 C2014 1.490 . S
C2010 H2000 0.930 . S
C2010 C2009 1.400 . S
C2010 C2013 1.386 . S
H2011 C2027 0.930 . S
H2012 C2028 0.931 . S
C2013 H2001 0.929 . S
C2013 C2007 1.390 . S
C2013 C2010 1.386 . S
C2014 C2009 1.490 . S
C2014 C2016 1.395 . S
C2014 C2017 1.403 . S
H2015 C2021 0.930 . S
C2016 H2002 0.930 . S
C2016 C2014 1.395 . S
C2016 C2019 1.403 . S
C2017 C2014 1.403 . S
C2017 C2018 1.524 . S
C2017 C2021 1.400 . S
C2018 H2003 0.960 . S
C2018 H2004 0.960 . S
C2018 H2005 0.960 . S
C2018 C2017 1.524 . S
C2019 C2016 1.403 . S
C2019 C2020 1.392 . S
C2019 C2023 1.495 . S
C2020 C2019 1.392 . S
C2020 C2021 1.385 . S
C2020 C2022 1.478 . S
C2021 H2015 0.930 . S
C2021 C2017 1.400 . S
C2021 C2020 1.385 . S
C2022 C2020 1.478 . S
C2022 C2024 1.381 . S
C2022 C2028 1.383 . S
C2023 C2019 1.495 . S
C2023 H2029 0.959 . S
C2023 H2030 0.961 . S
C2023 H2031 0.960 . S
C2024 C2022 1.381 . S
C2024 C2025 1.394 . S
C2024 H2032 0.930 . S
C2025 C2024 1.394 . S
C2025 C2026 1.383 . S
C2025 H2033 0.929 . S
C2026 C2025 1.383 . S
C2026 C2027 1.377 . S
C2027 H2011 0.930 . S
C2027 C2026 1.377 . S
C2027 C2028 1.379 . S
C2028 H2012 0.931 . S
C2028 C2022 1.383 . S
C2028 C2027 1.379 . S
H2029 C2023 0.959 . S
H2030 C2023 0.961 . S
H2031 C2023 0.960 . S
H2032 C2024 0.930 . S
H2033 C2025 0.929 . S
H2034 C2042 0.929 . S
H2035 C2044 0.930 . S
H2036 C2046 0.930 . S
H2037 C2049 0.929 . S
H2038 C2052 0.930 . S
H2039 C2054 0.960 . S
H2040 C2054 0.960 . S
H2041 C2054 0.960 . S
C2042 H2034 0.929 . S
C2042 C2043 1.377 . S
C2042 C2044 1.384 . S
C2043 C2042 1.377 . S
C2043 C2049 1.390 . S
C2044 H2035 0.930 . S
C2044 C2042 1.384 . S
C2044 C2045 1.372 . S
C2045 C2044 1.372 . S
C2045 C2046 1.400 . S
C2045 C2050 1.490 . S
C2046 H2036 0.930 . S
C2046 C2045 1.400 . S
C2046 C2049 1.386 . S
H2047 C2063 0.930 . S
H2048 C2064 0.931 . S
C2049 H2037 0.929 . S
C2049 C2043 1.390 . S
C2049 C2046 1.386 . S
C2050 C2045 1.490 . S
C2050 C2052 1.395 . S
C2050 C2053 1.403 . S
H2051 C2057 0.930 . S
C2052 H2038 0.930 . S
C2052 C2050 1.395 . S
C2052 C2055 1.403 . S
C2053 C2050 1.403 . S
C2053 C2054 1.524 . S
C2053 C2057 1.400 . S
C2054 H2039 0.960 . S
C2054 H2040 0.960 . S
C2054 H2041 0.960 . S
C2054 C2053 1.524 . S
C2055 C2052 1.403 . S
C2055 C2056 1.392 . S
C2055 C2059 1.472 1_545 S
C2056 C2055 1.392 . S
C2056 C2057 1.385 . S
C2056 C2058 1.478 . S
C2057 H2051 0.930 . S
C2057 C2053 1.400 . S
C2057 C2056 1.385 . S
C2058 C2056 1.478 . S
C2058 C2060 1.381 . S
C2058 C2064 1.383 . S
C2059 C2055 1.472 1_565 S
C2059 H2065 0.969 . S
C2059 H2066 0.950 . S
C2059 H2067 0.961 . S
C2060 C2058 1.381 . S
C2060 C2061 1.394 . S
C2060 H2068 0.930 . S
C2061 C2060 1.394 . S
C2061 C2062 1.383 . S
C2061 H2069 0.929 . S
C2062 C2061 1.383 . S
C2062 C2063 1.377 . S
C2063 H2047 0.930 . S
C2063 C2062 1.377 . S
C2063 C2064 1.379 . S
C2064 H2048 0.931 . S
C2064 C2058 1.383 . S
C2064 C2063 1.379 . S
H2065 C2059 0.969 . S
H2066 C2059 0.950 . S
H2067 C2059 0.961 . S
H2068 C2060 0.930 . S
H2069 C2061 0.929 . S
H2070 C2078 0.929 . S
H2071 C2080 0.930 . S
H2072 C2082 0.930 . S
H2073 C2085 0.929 . S
H2074 C2088 0.930 . S
H2075 C2090 0.960 . S
H2076 C2090 0.960 . S
H2077 C2090 0.960 . S
C2078 H2070 0.929 . S
C2078 C2079 1.377 . S
C2078 C2080 1.384 . S
C2079 C2078 1.377 . S
C2079 C2085 1.390 . S
C2080 H2071 0.930 . S
C2080 C2078 1.384 . S
C2080 C2081 1.372 . S
C2081 C2080 1.372 . S
C2081 C2082 1.400 . S
C2081 C2086 1.490 . S
C2082 H2072 0.930 . S
C2082 C2081 1.400 . S
C2082 C2085 1.386 . S
H2083 C2099 0.930 . S
H2084 C2100 0.931 . S
C2085 H2073 0.929 . S
C2085 C2079 1.390 . S
C2085 C2082 1.386 . S
C2086 C2081 1.490 . S
C2086 C2088 1.395 . S
C2086 C2089 1.403 . S
H2087 C2093 0.930 . S
C2088 H2074 0.930 . S
C2088 C2086 1.395 . S
C2088 C2091 1.403 . S
C2089 C2086 1.403 . S
C2089 C2090 1.524 . S
C2089 C2093 1.400 . S
C2090 H2075 0.960 . S
C2090 H2076 0.960 . S
C2090 H2077 0.960 . S
C2090 C2089 1.524 . S
C2091 C2088 1.403 . S
C2091 C2092 1.392 . S
C2091 C2095 1.495 . S
C2092 C2091 1.392 . S
C2092 C2093 1.385 . S
C2092 C2094 1.478 . S
C2093 H2087 0.930 . S
C2093 C2089 1.400 . S
C2093 C2092 1.385 . S
C2094 C2092 1.478 . S
C2094 C2096 1.381 . S
C2094 C2100 1.383 . S
C2095 C2091 1.495 . S
C2095 H2101 0.959 . S
C2095 H2102 0.961 . S
C2095 H2103 0.960 . S
C2096 C2094 1.381 . S
C2096 C2097 1.394 . S
C2096 H2104 0.930 . S
C2097 C2096 1.394 . S
C2097 C2098 1.383 . S
C2097 H2105 0.929 . S
C2098 C2097 1.383 . S
C2098 C2099 1.377 . S
C2099 H2083 0.930 . S
C2099 C2098 1.377 . S
C2099 C2100 1.379 . S
C2100 H2084 0.931 . S
C2100 C2094 1.383 . S
C2100 C2099 1.379 . S
H2101 C2095 0.959 . S
H2102 C2095 0.961 . S
H2103 C2095 0.960 . S
H2104 C2096 0.930 . S
H2105 C2097 0.929 . S
H2106 C2114 0.929 . S
H2107 C2116 0.930 . S
H2108 C2118 0.930 . S
H2109 C2121 0.929 . S
H2110 C2124 0.930 . S
H2111 C2126 0.960 . S
H2112 C2126 0.960 . S
H2113 C2126 0.960 . S
C2114 H2106 0.929 . S
C2114 C2115 1.377 . S
C2114 C2116 1.384 . S
C2115 C2114 1.377 . S
C2115 C2121 1.390 . S
C2116 H2107 0.930 . S
C2116 C2114 1.384 . S
C2116 C2117 1.372 . S
C2117 C2116 1.372 . S
C2117 C2118 1.400 . S
C2117 C2122 1.490 . S
C2118 H2108 0.930 . S
C2118 C2117 1.400 . S
C2118 C2121 1.386 . S
H2119 C2135 0.930 . S
H2120 C2136 0.931 . S
C2121 H2109 0.929 . S
C2121 C2115 1.390 . S
C2121 C2118 1.386 . S
C2122 C2117 1.490 . S
C2122 C2124 1.395 . S
C2122 C2125 1.403 . S
H2123 C2129 0.930 . S
C2124 H2110 0.930 . S
C2124 C2122 1.395 . S
C2124 C2127 1.403 . S
C2125 C2122 1.403 . S
C2125 C2126 1.524 . S
C2125 C2129 1.400 . S
C2126 H2111 0.960 . S
C2126 H2112 0.960 . S
C2126 H2113 0.960 . S
C2126 C2125 1.524 . S
C2127 C2124 1.403 . S
C2127 C2128 1.392 . S
C2127 C2131 1.495 . S
C2128 C2127 1.392 . S
C2128 C2129 1.385 . S
C2128 C2130 1.478 . S
C2129 H2123 0.930 . S
C2129 C2125 1.400 . S
C2129 C2128 1.385 . S
C2130 C2128 1.478 . S
C2130 C2132 1.381 . S
C2130 C2136 1.383 . S
C2131 C2127 1.495 . S
C2131 H2137 0.959 . S
C2131 H2138 0.961 . S
C2131 H2139 0.960 . S
C2132 C2130 1.381 . S
C2132 C2133 1.394 . S
C2132 H2140 0.930 . S
C2133 C2132 1.394 . S
C2133 C2134 1.383 . S
C2133 H2141 0.929 . S
C2134 C2133 1.383 . S
C2134 C2135 1.377 . S
C2135 H2119 0.930 . S
C2135 C2134 1.377 . S
C2135 C2136 1.379 . S
C2136 H2120 0.931 . S
C2136 C2130 1.383 . S
C2136 C2135 1.379 . S
H2137 C2131 0.959 . S
H2138 C2131 0.961 . S
H2139 C2131 0.960 . S
H2140 C2132 0.930 . S
H2141 C2133 0.929 . S
H2142 C2150 0.929 . S
H2143 C2152 0.930 . S
H2144 C2154 0.930 . S
H2145 C2157 0.929 . S
H2146 C2160 0.930 . S
H2147 C2162 0.960 . S
H2148 C2162 0.960 . S
H2149 C2162 0.960 . S
C2150 H2142 0.929 . S
C2150 C2151 1.377 . S
C2150 C2152 1.384 . S
C2151 C2150 1.377 . S
C2151 C2157 1.390 . S
C2152 H2143 0.930 . S
C2152 C2150 1.384 . S
C2152 C2153 1.372 . S
C2153 C2152 1.372 . S
C2153 C2154 1.400 . S
C2153 C2158 1.490 . S
C2154 H2144 0.930 . S
C2154 C2153 1.400 . S
C2154 C2157 1.386 . S
H2155 C2171 0.930 . S
H2156 C2172 0.931 . S
C2157 H2145 0.929 . S
C2157 C2151 1.390 . S
C2157 C2154 1.386 . S
C2158 C2153 1.490 . S
C2158 C2160 1.395 . S
C2158 C2161 1.403 . S
H2159 C2165 0.930 . S
C2160 H2146 0.930 . S
C2160 C2158 1.395 . S
C2160 C2163 1.403 . S
C2161 C2158 1.403 . S
C2161 C2162 1.524 . S
C2161 C2165 1.400 . S
C2162 H2147 0.960 . S
C2162 H2148 0.960 . S
C2162 H2149 0.960 . S
C2162 C2161 1.524 . S
C2163 C2160 1.403 . S
C2163 C2164 1.392 . S
C2163 C2167 1.495 . S
C2164 C2163 1.392 . S
C2164 C2165 1.385 . S
C2164 C2166 1.478 . S
C2165 H2159 0.930 . S
C2165 C2161 1.400 . S
C2165 C2164 1.385 . S
C2166 C2164 1.478 . S
C2166 C2168 1.381 . S
C2166 C2172 1.383 . S
C2167 C2163 1.495 . S
C2167 H2173 0.959 . S
C2167 H2174 0.961 . S
C2167 H2175 0.960 . S
C2168 C2166 1.381 . S
C2168 C2169 1.394 . S
C2168 H2176 0.930 . S
C2169 C2168 1.394 . S
C2169 C2170 1.383 . S
C2169 H2177 0.929 . S
C2170 C2169 1.383 . S
C2170 C2171 1.377 . S
C2171 H2155 0.930 . S
C2171 C2170 1.377 . S
C2171 C2172 1.379 . S
C2172 H2156 0.931 . S
C2172 C2166 1.383 . S
C2172 C2171 1.379 . S
H2173 C2167 0.959 . S
H2174 C2167 0.961 . S
H2175 C2167 0.960 . S
H2176 C2168 0.930 . S
H2177 C2169 0.929 . S
H2178 C2186 0.929 . S
H2179 C2188 0.930 . S
H2180 C2190 0.930 . S
H2181 C2193 0.929 . S
H2182 C2196 0.930 . S
H2183 C2198 0.960 . S
H2184 C2198 0.960 . S
H2185 C2198 0.960 . S
C2186 H2178 0.929 . S
C2186 C2187 1.377 . S
C2186 C2188 1.384 . S
C2187 C2186 1.377 . S
C2187 C2193 1.390 . S
C2188 H2179 0.930 . S
C2188 C2186 1.384 . S
C2188 C2189 1.372 . S
C2189 C2188 1.372 . S
C2189 C2190 1.400 . S
C2189 C2194 1.490 . S
C2190 H2180 0.930 . S
C2190 C2189 1.400 . S
C2190 C2193 1.386 . S
H2191 C2207 0.930 . S
H2192 C2208 0.931 . S
C2193 H2181 0.929 . S
C2193 C2187 1.390 . S
C2193 C2190 1.386 . S
C2194 C2189 1.490 . S
C2194 C2196 1.395 . S
C2194 C2197 1.403 . S
H2195 C2201 0.930 . S
C2196 H2182 0.930 . S
C2196 C2194 1.395 . S
C2196 C2199 1.403 . S
C2197 C2194 1.403 . S
C2197 C2198 1.524 . S
C2197 C2201 1.400 . S
C2198 H2183 0.960 . S
C2198 H2184 0.960 . S
C2198 H2185 0.960 . S
C2198 C2197 1.524 . S
C2199 C2196 1.403 . S
C2199 C2200 1.392 . S
C2199 C2203 1.495 . S
C2200 C2199 1.392 . S
C2200 C2201 1.385 . S
C2200 C2202 1.478 . S
C2201 H2195 0.930 . S
C2201 C2197 1.400 . S
C2201 C2200 1.385 . S
C2202 C2200 1.478 . S
C2202 C2204 1.381 . S
C2202 C2208 1.383 . S
C2203 C2199 1.495 . S
C2203 H2209 0.959 . S
C2203 H2210 0.961 . S
C2203 H2211 0.960 . S
C2204 C2202 1.381 . S
C2204 C2205 1.394 . S
C2204 H2212 0.930 . S
C2205 C2204 1.394 . S
C2205 C2206 1.383 . S
C2205 H2213 0.929 . S
C2206 C2205 1.383 . S
C2206 C2207 1.377 . S
C2207 H2191 0.930 . S
C2207 C2206 1.377 . S
C2207 C2208 1.379 . S
C2208 H2192 0.931 . S
C2208 C2202 1.383 . S
C2208 C2207 1.379 . S
H2209 C2203 0.959 . S
H2210 C2203 0.961 . S
H2211 C2203 0.960 . S
H2212 C2204 0.930 . S
H2213 C2205 0.929 . S
H2214 C2222 0.929 . S
H2215 C2224 0.930 . S
H2216 C2226 0.930 . S
H2217 C2229 0.929 . S
H2218 C2232 0.930 . S
H2219 C2234 0.960 . S
H2220 C2234 0.960 . S
H2221 C2234 0.960 . S
C2222 H2214 0.929 . S
C2222 C2223 1.377 . S
C2222 C2224 1.384 . S
C2223 C2222 1.377 . S
C2223 C2229 1.390 . S
C2224 H2215 0.930 . S
C2224 C2222 1.384 . S
C2224 C2225 1.372 . S
C2225 C2224 1.372 . S
C2225 C2226 1.400 . S
C2225 C2230 1.490 . S
C2226 H2216 0.930 . S
C2226 C2225 1.400 . S
C2226 C2229 1.386 . S
H2227 C2243 0.930 . S
H2228 C2244 0.931 . S
C2229 H2217 0.929 . S
C2229 C2223 1.390 . S
C2229 C2226 1.386 . S
C2230 C2225 1.490 . S
C2230 C2232 1.395 . S
C2230 C2233 1.403 . S
H2231 C2237 0.930 . S
C2232 H2218 0.930 . S
C2232 C2230 1.395 . S
C2232 C2235 1.403 . S
C2233 C2230 1.403 . S
C2233 C2234 1.524 . S
C2233 C2237 1.400 . S
C2234 H2219 0.960 . S
C2234 H2220 0.960 . S
C2234 H2221 0.960 . S
C2234 C2233 1.524 . S
C2235 C2232 1.403 . S
C2235 C2236 1.392 . S
C2235 C2239 1.495 . S
C2236 C2235 1.392 . S
C2236 C2237 1.385 . S
C2236 C2238 1.478 . S
C2237 H2231 0.930 . S
C2237 C2233 1.400 . S
C2237 C2236 1.385 . S
C2238 C2236 1.478 . S
C2238 C2240 1.381 . S
C2238 C2244 1.383 . S
C2239 C2235 1.495 . S
C2239 H2245 0.959 . S
C2239 H2246 0.961 . S
C2239 H2247 0.960 . S
C2240 C2238 1.381 . S
C2240 C2241 1.394 . S
C2240 H2248 0.930 . S
C2241 C2240 1.394 . S
C2241 C2242 1.383 . S
C2241 H2249 0.929 . S
C2242 C2241 1.383 . S
C2242 C2243 1.377 . S
C2243 H2227 0.930 . S
C2243 C2242 1.377 . S
C2243 C2244 1.379 . S
C2244 H2228 0.931 . S
C2244 C2238 1.383 . S
C2244 C2243 1.379 . S
H2245 C2239 0.959 . S
H2246 C2239 0.961 . S
H2247 C2239 0.960 . S
H2248 C2240 0.930 . S
H2249 C2241 0.929 . S
H2250 C2258 0.929 . S
H2251 C2260 0.930 . S
H2252 C2262 0.930 . S
H2253 C2265 0.929 . S
H2254 C2268 0.930 . S
H2255 C2270 0.960 . S
H2256 C2270 0.960 . S
H2257 C2270 0.960 . S
C2258 H2250 0.929 . S
C2258 C2259 1.377 . S
C2258 C2260 1.384 . S
C2259 C2258 1.377 . S
C2259 C2265 1.390 . S
C2260 H2251 0.930 . S
C2260 C2258 1.384 . S
C2260 C2261 1.372 . S
C2261 C2260 1.372 . S
C2261 C2262 1.400 . S
C2261 C2266 1.490 . S
C2262 H2252 0.930 . S
C2262 C2261 1.400 . S
C2262 C2265 1.386 . S
H2263 C2279 0.930 . S
H2264 C2280 0.931 . S
C2265 H2253 0.929 . S
C2265 C2259 1.390 . S
C2265 C2262 1.386 . S
C2266 C2261 1.490 . S
C2266 C2268 1.395 . S
C2266 C2269 1.403 . S
H2267 C2273 0.930 . S
C2268 H2254 0.930 . S
C2268 C2266 1.395 . S
C2268 C2271 1.403 . S
C2269 C2266 1.403 . S
C2269 C2270 1.524 . S
C2269 C2273 1.400 . S
C2270 H2255 0.960 . S
C2270 H2256 0.960 . S
C2270 H2257 0.960 . S
C2270 C2269 1.524 . S
C2271 C2268 1.403 . S
C2271 C2272 1.392 . S
C2271 C2275 1.495 . S
C2272 C2271 1.392 . S
C2272 C2273 1.385 . S
C2272 C2274 1.478 . S
C2273 H2267 0.930 . S
C2273 C2269 1.400 . S
C2273 C2272 1.385 . S
C2274 C2272 1.478 . S
C2274 C2276 1.381 . S
C2274 C2280 1.383 . S
C2275 C2271 1.495 . S
C2275 H2281 0.959 . S
C2275 H2282 0.961 . S
C2275 H2283 0.960 . S
C2276 C2274 1.381 . S
C2276 C2277 1.394 . S
C2276 H2284 0.930 . S
C2277 C2276 1.394 . S
C2277 C2278 1.383 . S
C2277 H2285 0.929 . S
C2278 C2277 1.383 . S
C2278 C2279 1.377 . S
C2279 H2263 0.930 . S
C2279 C2278 1.377 . S
C2279 C2280 1.379 . S
C2280 H2264 0.931 . S
C2280 C2274 1.383 . S
C2280 C2279 1.379 . S
H2281 C2275 0.959 . S
H2282 C2275 0.961 . S
H2283 C2275 0.960 . S
H2284 C2276 0.930 . S
H2285 C2277 0.929 . S
H2286 C2294 0.929 . S
H2287 C2296 0.930 . S
H2288 C2298 0.930 . S
H2289 C2301 0.929 . S
H2290 C2304 0.930 . S
H2291 C2306 0.960 . S
H2292 C2306 0.960 . S
H2293 C2306 0.960 . S
C2294 H2286 0.929 . S
C2294 C2295 1.377 . S
C2294 C2296 1.384 . S
C2295 C2294 1.377 . S
C2295 C2301 1.390 . S
C2296 H2287 0.930 . S
C2296 C2294 1.384 . S
C2296 C2297 1.372 . S
C2297 C2296 1.372 . S
C2297 C2298 1.400 . S
C2297 C2302 1.490 . S
C2298 H2288 0.930 . S
C2298 C2297 1.400 . S
C2298 C2301 1.386 . S
H2299 C2315 0.930 . S
H2300 C2316 0.931 . S
C2301 H2289 0.929 . S
C2301 C2295 1.390 . S
C2301 C2298 1.386 . S
C2302 C2297 1.490 . S
C2302 C2304 1.395 . S
C2302 C2305 1.403 . S
H2303 C2309 0.930 . S
C2304 H2290 0.930 . S
C2304 C2302 1.395 . S
C2304 C2307 1.403 . S
C2305 C2302 1.403 . S
C2305 C2306 1.524 . S
C2305 C2309 1.400 . S
C2306 H2291 0.960 . S
C2306 H2292 0.960 . S
C2306 H2293 0.960 . S
C2306 C2305 1.524 . S
C2307 C2304 1.403 . S
C2307 C2308 1.392 . S
C2307 C2311 1.495 . S
C2308 C2307 1.392 . S
C2308 C2309 1.385 . S
C2308 C2310 1.478 . S
C2309 H2303 0.930 . S
C2309 C2305 1.400 . S
C2309 C2308 1.385 . S
C2310 C2308 1.478 . S
C2310 C2312 1.381 . S
C2310 C2316 1.383 . S
C2311 C2307 1.495 . S
C2311 H2317 0.959 . S
C2311 H2318 0.961 . S
C2311 H2319 0.960 . S
C2312 C2310 1.381 . S
C2312 C2313 1.394 . S
C2312 H2320 0.930 . S
C2313 C2312 1.394 . S
C2313 C2314 1.383 . S
C2313 H2321 0.929 . S
C2314 C2313 1.383 . S
C2314 C2315 1.377 . S
C2315 H2299 0.930 . S
C2315 C2314 1.377 . S
C2315 C2316 1.379 . S
C2316 H2300 0.931 . S
C2316 C2310 1.383 . S
C2316 C2315 1.379 . S
H2317 C2311 0.959 . S
H2318 C2311 0.961 . S
H2319 C2311 0.960 . S
H2320 C2312 0.930 . S
H2321 C2313 0.929 . S
H2322 C2330 0.929 . S
H2323 C2332 0.930 . S
H2324 C2334 0.930 . S
H2325 C2337 0.929 . S
H2326 C2340 0.930 . S
H2327 C2342 0.960 . S
H2328 C2342 0.960 . S
H2329 C2342 0.960 . S
C2330 H2322 0.929 . S
C2330 C2331 1.377 . S
C2330 C2332 1.384 . S
C2331 C2330 1.377 . S
C2331 C2337 1.390 . S
C2332 H2323 0.930 . S
C2332 C2330 1.384 . S
C2332 C2333 1.372 . S
C2333 C2332 1.372 . S
C2333 C2334 1.400 . S
C2333 C2338 1.490 . S
C2334 H2324 0.930 . S
C2334 C2333 1.400 . S
C2334 C2337 1.386 . S
H2335 C2351 0.930 . S
H2336 C2352 0.931 . S
C2337 H2325 0.929 . S
C2337 C2331 1.390 . S
C2337 C2334 1.386 . S
C2338 C2333 1.490 . S
C2338 C2340 1.395 . S
C2338 C2341 1.403 . S
H2339 C2345 0.930 . S
C2340 H2326 0.930 . S
C2340 C2338 1.395 . S
C2340 C2343 1.403 . S
C2341 C2338 1.403 . S
C2341 C2342 1.524 . S
C2341 C2345 1.400 . S
C2342 H2327 0.960 . S
C2342 H2328 0.960 . S
C2342 H2329 0.960 . S
C2342 C2341 1.524 . S
C2343 C2340 1.403 . S
C2343 C2344 1.392 . S
C2343 C2347 1.495 . S
C2344 C2343 1.392 . S
C2344 C2345 1.385 . S
C2344 C2346 1.478 . S
C2345 H2339 0.930 . S
C2345 C2341 1.400 . S
C2345 C2344 1.385 . S
C2346 C2344 1.478 . S
C2346 C2348 1.381 . S
C2346 C2352 1.383 . S
C2347 C2343 1.495 . S
C2347 H2353 0.959 . S
C2347 H2354 0.961 . S
C2347 H2355 0.960 . S
C2348 C2346 1.381 . S
C2348 C2349 1.394 . S
C2348 H2356 0.930 . S
C2349 C2348 1.394 . S
C2349 C2350 1.383 . S
C2349 H2357 0.929 . S
C2350 C2349 1.383 . S
C2350 C2351 1.377 . S
C2351 H2335 0.930 . S
C2351 C2350 1.377 . S
C2351 C2352 1.379 . S
C2352 H2336 0.931 . S
C2352 C2346 1.383 . S
C2352 C2351 1.379 . S
H2353 C2347 0.959 . S
H2354 C2347 0.961 . S
H2355 C2347 0.960 . S
H2356 C2348 0.930 . S
H2357 C2349 0.929 . S
H2358 C2366 0.929 . S
H2359 C2368 0.930 . S
H2360 C2370 0.930 . S
H2361 C2373 0.929 . S
H2362 C2376 0.930 . S
H2363 C2378 0.960 . S
H2364 C2378 0.960 . S
H2365 C2378 0.960 . S
C2366 H2358 0.929 . S
C2366 C2367 1.377 . S
C2366 C2368 1.384 . S
C2367 C2366 1.377 . S
C2367 C2373 1.390 . S
C2368 H2359 0.930 . S
C2368 C2366 1.384 . S
C2368 C2369 1.372 . S
C2369 C2368 1.372 . S
C2369 C2370 1.400 . S
C2369 C2374 1.490 . S
C2370 H2360 0.930 . S
C2370 C2369 1.400 . S
C2370 C2373 1.386 . S
H2371 C2387 0.930 . S
H2372 C2388 0.931 . S
C2373 H2361 0.929 . S
C2373 C2367 1.390 . S
C2373 C2370 1.386 . S
C2374 C2369 1.490 . S
C2374 C2376 1.395 . S
C2374 C2377 1.403 . S
H2375 C2381 0.930 . S
C2376 H2362 0.930 . S
C2376 C2374 1.395 . S
C2376 C2379 1.403 . S
C2377 C2374 1.403 . S
C2377 C2378 1.524 . S
C2377 C2381 1.400 . S
C2378 H2363 0.960 . S
C2378 H2364 0.960 . S
C2378 H2365 0.960 . S
C2378 C2377 1.524 . S
C2379 C2376 1.403 . S
C2379 C2380 1.392 . S
C2379 C2383 1.495 . S
C2380 C2379 1.392 . S
C2380 C2381 1.385 . S
C2380 C2382 1.478 . S
C2381 H2375 0.930 . S
C2381 C2377 1.400 . S
C2381 C2380 1.385 . S
C2382 C2380 1.478 . S
C2382 C2384 1.381 . S
C2382 C2388 1.383 . S
C2383 C2379 1.495 . S
C2383 H2389 0.959 . S
C2383 H2390 0.961 . S
C2383 H2391 0.960 . S
C2384 C2382 1.381 . S
C2384 C2385 1.394 . S
C2384 H2392 0.930 . S
C2385 C2384 1.394 . S
C2385 C2386 1.383 . S
C2385 H2393 0.929 . S
C2386 C2385 1.383 . S
C2386 C2387 1.377 . S
C2387 H2371 0.930 . S
C2387 C2386 1.377 . S
C2387 C2388 1.379 . S
C2388 H2372 0.931 . S
C2388 C2382 1.383 . S
C2388 C2387 1.379 . S
H2389 C2383 0.959 . S
H2390 C2383 0.961 . S
H2391 C2383 0.960 . S
H2392 C2384 0.930 . S
H2393 C2385 0.929 . S
H2394 C2402 0.929 . S
H2395 C2404 0.930 . S
H2396 C2406 0.930 . S
H2397 C2409 0.929 . S
H2398 C2412 0.930 . S
H2399 C2414 0.960 . S
H2400 C2414 0.960 . S
H2401 C2414 0.960 . S
C2402 H2394 0.929 . S
C2402 C2403 1.377 . S
C2402 C2404 1.384 . S
C2403 C2402 1.377 . S
C2403 C2409 1.390 . S
C2404 H2395 0.930 . S
C2404 C2402 1.384 . S
C2404 C2405 1.372 . S
C2405 C2404 1.372 . S
C2405 C2406 1.400 . S
C2405 C2410 1.490 . S
C2406 H2396 0.930 . S
C2406 C2405 1.400 . S
C2406 C2409 1.386 . S
H2407 C2423 0.930 . S
H2408 C2424 0.931 . S
C2409 H2397 0.929 . S
C2409 C2403 1.390 . S
C2409 C2406 1.386 . S
C2410 C2405 1.490 . S
C2410 C2412 1.395 . S
C2410 C2413 1.403 . S
H2411 C2417 0.930 . S
C2412 H2398 0.930 . S
C2412 C2410 1.395 . S
C2412 C2415 1.403 . S
C2413 C2410 1.403 . S
C2413 C2414 1.524 . S
C2413 C2417 1.400 . S
C2414 H2399 0.960 . S
C2414 H2400 0.960 . S
C2414 H2401 0.960 . S
C2414 C2413 1.524 . S
C2415 C2412 1.403 . S
C2415 C2416 1.392 . S
C2415 C2419 1.495 . S
C2416 C2415 1.392 . S
C2416 C2417 1.385 . S
C2416 C2418 1.478 . S
C2417 H2411 0.930 . S
C2417 C2413 1.400 . S
C2417 C2416 1.385 . S
C2418 C2416 1.478 . S
C2418 C2420 1.381 . S
C2418 C2424 1.383 . S
C2419 C2415 1.495 . S
C2419 H2425 0.959 . S
C2419 H2426 0.961 . S
C2419 H2427 0.960 . S
C2420 C2418 1.381 . S
C2420 C2421 1.394 . S
C2420 H2428 0.930 . S
C2421 C2420 1.394 . S
C2421 C2422 1.383 . S
C2421 H2429 0.929 . S
C2422 C2421 1.383 . S
C2422 C2423 1.377 . S
C2423 H2407 0.930 . S
C2423 C2422 1.377 . S
C2423 C2424 1.379 . S
C2424 H2408 0.931 . S
C2424 C2418 1.383 . S
C2424 C2423 1.379 . S
H2425 C2419 0.959 . S
H2426 C2419 0.961 . S
H2427 C2419 0.960 . S
H2428 C2420 0.930 . S
H2429 C2421 0.929 . S
H2430 C2438 0.929 . S
H2431 C2440 0.930 . S
H2432 C2442 0.930 . S
H2433 C2445 0.929 . S
H2434 C2448 0.930 . S
H2435 C2450 0.960 . S
H2436 C2450 0.960 . S
H2437 C2450 0.960 . S
C2438 H2430 0.929 . S
C2438 C2439 1.377 . S
C2438 C2440 1.384 . S
C2439 C2438 1.377 . S
C2439 C2445 1.390 . S
C2440 H2431 0.930 . S
C2440 C2438 1.384 . S
C2440 C2441 1.372 . S
C2441 C2440 1.372 . S
C2441 C2442 1.400 . S
C2441 C2446 1.490 . S
C2442 H2432 0.930 . S
C2442 C2441 1.400 . S
C2442 C2445 1.386 . S
H2443 C2459 0.930 . S
H2444 C2460 0.931 . S
C2445 H2433 0.929 . S
C2445 C2439 1.390 . S
C2445 C2442 1.386 . S
C2446 C2441 1.490 . S
C2446 C2448 1.395 . S
C2446 C2449 1.403 . S
H2447 C2453 0.930 . S
C2448 H2434 0.930 . S
C2448 C2446 1.395 . S
C2448 C2451 1.403 . S
C2449 C2446 1.403 . S
C2449 C2450 1.524 . S
C2449 C2453 1.400 . S
C2450 H2435 0.960 . S
C2450 H2436 0.960 . S
C2450 H2437 0.960 . S
C2450 C2449 1.524 . S
C2451 C2448 1.403 . S
C2451 C2452 1.392 . S
C2451 C2455 1.495 . S
C2452 C2451 1.392 . S
C2452 C2453 1.385 . S
C2452 C2454 1.478 . S
C2453 H2447 0.930 . S
C2453 C2449 1.400 . S
C2453 C2452 1.385 . S
C2454 C2452 1.478 . S
C2454 C2456 1.381 . S
C2454 C2460 1.383 . S
C2455 C2451 1.495 . S
C2455 H2461 0.959 . S
C2455 H2462 0.961 . S
C2455 H2463 0.960 . S
C2456 C2454 1.381 . S
C2456 C2457 1.394 . S
C2456 H2464 0.930 . S
C2457 C2456 1.394 . S
C2457 C2458 1.383 . S
C2457 H2465 0.929 . S
C2458 C2457 1.383 . S
C2458 C2459 1.377 . S
C2459 H2443 0.930 . S
C2459 C2458 1.377 . S
C2459 C2460 1.379 . S
C2460 H2444 0.931 . S
C2460 C2454 1.383 . S
C2460 C2459 1.379 . S
H2461 C2455 0.959 . S
H2462 C2455 0.961 . S
H2463 C2455 0.960 . S
H2464 C2456 0.930 . S
H2465 C2457 0.929 . S
H2466 C2474 0.929 . S
H2467 C2476 0.930 . S
H2468 C2478 0.930 . S
H2469 C2481 0.929 . S
H2470 C2484 0.930 . S
H2471 C2486 0.960 . S
H2472 C2486 0.960 . S
H2473 C2486 0.960 . S
C2474 H2466 0.929 . S
C2474 C2475 1.377 . S
C2474 C2476 1.384 . S
C2475 C2474 1.377 . S
C2475 C2481 1.390 . S
C2476 H2467 0.930 . S
C2476 C2474 1.384 . S
C2476 C2477 1.372 . S
C2477 C2476 1.372 . S
C2477 C2478 1.400 . S
C2477 C2482 1.490 . S
C2478 H2468 0.930 . S
C2478 C2477 1.400 . S
C2478 C2481 1.386 . S
H2479 C2495 0.930 . S
H2480 C2496 0.931 . S
C2481 H2469 0.929 . S
C2481 C2475 1.390 . S
C2481 C2478 1.386 . S
C2482 C2477 1.490 . S
C2482 C2484 1.395 . S
C2482 C2485 1.403 . S
H2483 C2489 0.930 . S
C2484 H2470 0.930 . S
C2484 C2482 1.395 . S
C2484 C2487 1.403 . S
C2485 C2482 1.403 . S
C2485 C2486 1.524 . S
C2485 C2489 1.400 . S
C2486 H2471 0.960 . S
C2486 H2472 0.960 . S
C2486 H2473 0.960 . S
C2486 C2485 1.524 . S
C2487 C2484 1.403 . S
C2487 C2488 1.392 . S
C2487 C2491 1.495 . S
C2488 C2487 1.392 . S
C2488 C2489 1.385 . S
C2488 C2490 1.478 . S
C2489 H2483 0.930 . S
C2489 C2485 1.400 . S
C2489 C2488 1.385 . S
C2490 C2488 1.478 . S
C2490 C2492 1.381 . S
C2490 C2496 1.383 . S
C2491 C2487 1.495 . S
C2491 H2497 0.959 . S
C2491 H2498 0.961 . S
C2491 H2499 0.960 . S
C2492 C2490 1.381 . S
C2492 C2493 1.394 . S
C2492 H2500 0.930 . S
C2493 C2492 1.394 . S
C2493 C2494 1.383 . S
C2493 H2501 0.929 . S
C2494 C2493 1.383 . S
C2494 C2495 1.377 . S
C2495 H2479 0.930 . S
C2495 C2494 1.377 . S
C2495 C2496 1.379 . S
C2496 H2480 0.931 . S
C2496 C2490 1.383 . S
C2496 C2495 1.379 . S
H2497 C2491 0.959 . S
H2498 C2491 0.961 . S
H2499 C2491 0.960 . S
H2500 C2492 0.930 . S
H2501 C2493 0.929 . S
C567 C151 1.272 . S
C586 C207 1.267 . S
C603 C159 1.992 . S
C622 C247 2.143 . S
C639 C137 1.557 . S
C658 C286 1.612 . S
C675 C126 1.363 . S
C694 C246 1.473 1_556 S
C730 C287 1.875 . S
C711 C104 1.754 . S
C747 C118 1.015 . S
C766 C206 1.042 . S
C802 C217 1.602 . S
C783 C129 1.630 . S
C838 C257 1.800 . S
C819 C107 1.834 . S
C855 C115 1.336 . S
C874 C296 1.621 1_556 S
C891 C148 1.201 . S
C910 C256 1.411 . S
C927 C162 1.561 . S
C946 C297 1.532 . S
C982 C216 1.345 . S
C963 C140 1.379 . S
C1018 C327 1.305 . S
C999 C19 1.273 . S
C1035 C27 2.000 . S
C1054 C367 2.134 . S
C1071 C5 1.553 . S
C1090 C406 1.613 . S
C1107 C192 1.374 . S
C1126 C366 1.441 . S
C1143 C170 1.755 . S
C1162 C407 1.871 . S
C1179 C184 1.004 . S
C1198 C326 1.002 . S
C1215 C195 1.629 . S
C1234 C337 1.587 . S
C1251 C173 1.835 . S
C1270 C377 1.798 . S
C1306 C416 1.640 . S
C1287 C181 1.333 . S
C1323 C16 1.186 . S
C1342 C376 1.455 . S
C1378 C417 1.542 . S
C1359 C30 1.561 . S
C1395 C8 1.375 . S
C1414 C336 1.354 . S
C1450 C447 1.276 . S
C1431 C85 1.275 . S
C1467 C93 1.989 . S
C1486 C487 2.150 . S
C1522 C526 1.650 . S
C1503 C71 1.554 . S
C1558 C486 1.464 . S
C1539 C60 1.357 . S
C1594 C527 1.873 . S
C1575 C38 1.754 . S
C1611 C52 1.010 . S
C1630 C446 1.022 . S
C1647 C63 1.630 . S
C1666 C457 1.611 . S
C1683 C41 1.835 . S
C1702 C497 1.807 . S
C1738 C536 1.634 . S
C1719 C49 1.319 . S
C1755 C82 1.189 . S
C1774 C496 1.414 . S
C1791 C96 1.561 . S
C1810 C537 1.551 . S
C1827 C74 1.375 . S
C1846 C456 1.364 . S
C1863 C172 1.470 . S
C1882 C203 1.512 . S
C1918 C243 1.645 . S
C1899 C183 1.551 . S
C1935 C194 1.535 . S
C1954 C293 1.554 . S
C1971 C73 1.844 . S
C1990 C253 1.861 . S
C2007 C84 1.250 . S
C2026 C283 1.316 . S
C2062 C213 1.449 . S
C2043 C95 1.411 . S
C2079 C40 1.470 . S
C2098 C323 1.502 . S
C2115 C51 1.548 . S
C2134 C363 1.651 . S
C2151 C62 1.535 . S
C2170 C413 1.552 . S
C2187 C139 1.844 . S
C2206 C373 1.865 . S
C2242 C403 1.311 . S
C2223 C150 1.244 . S
C2259 C161 1.411 . S
C2278 C333 1.449 . S
C2295 C106 1.479 . S
C2314 C443 1.515 . S
C2331 C117 1.550 . S
C2350 C483 1.657 . S
C2386 C533 1.552 . S
C2367 C128 1.536 . S
C2403 C7 1.839 . S
C2422 C493 1.868 . S
C2439 C18 1.259 . S
C2458 C523 1.317 . S
C2475 C29 1.409 . S
C2494 C453 1.443 . S
